# Generated by pormake.
# Topology cag, (4)-cn, num edge types: 1
# Building blocks:
#     Node 0, Type 0, BuildingBlock: GALJAG_clean_sbu_0, # of connection points: 4
#     Node 1, Type 0, BuildingBlock: GALJAG_clean_sbu_0, # of connection points: 4
#     Node 2, Type 0, BuildingBlock: GALJAG_clean_sbu_0, # of connection points: 4
#     Node 3, Type 0, BuildingBlock: GALJAG_clean_sbu_0, # of connection points: 4
#     Node 4, Type 0, BuildingBlock: GALJAG_clean_sbu_0, # of connection points: 4
#     Node 5, Type 0, BuildingBlock: GALJAG_clean_sbu_0, # of connection points: 4
#     Node 6, Type 0, BuildingBlock: GALJAG_clean_sbu_0, # of connection points: 4
#     Node 7, Type 0, BuildingBlock: GALJAG_clean_sbu_0, # of connection points: 4
#     Node 8, Type 0, BuildingBlock: GALJAG_clean_sbu_0, # of connection points: 4
#     Node 9, Type 0, BuildingBlock: GALJAG_clean_sbu_0, # of connection points: 4
#     Node 10, Type 0, BuildingBlock: GALJAG_clean_sbu_0, # of connection points: 4
#     Node 11, Type 0, BuildingBlock: GALJAG_clean_sbu_0, # of connection points: 4
#     Node 12, Type 0, BuildingBlock: GALJAG_clean_sbu_0, # of connection points: 4
#     Node 13, Type 0, BuildingBlock: GALJAG_clean_sbu_0, # of connection points: 4
#     Node 14, Type 0, BuildingBlock: GALJAG_clean_sbu_0, # of connection points: 4
#     Node 15, Type 0, BuildingBlock: GALJAG_clean_sbu_0, # of connection points: 4
#     Edge 16, Type (0, 0), BuildingBlock: TEMPAE_clean_linker_10, # of connection points: 2
#     Edge 17, Type (0, 0), BuildingBlock: TEMPAE_clean_linker_10, # of connection points: 2
#     Edge 18, Type (0, 0), BuildingBlock: TEMPAE_clean_linker_10, # of connection points: 2
#     Edge 19, Type (0, 0), BuildingBlock: TEMPAE_clean_linker_10, # of connection points: 2
#     Edge 20, Type (0, 0), BuildingBlock: TEMPAE_clean_linker_10, # of connection points: 2
#     Edge 21, Type (0, 0), BuildingBlock: TEMPAE_clean_linker_10, # of connection points: 2
#     Edge 22, Type (0, 0), BuildingBlock: TEMPAE_clean_linker_10, # of connection points: 2
#     Edge 23, Type (0, 0), BuildingBlock: TEMPAE_clean_linker_10, # of connection points: 2
#     Edge 24, Type (0, 0), BuildingBlock: TEMPAE_clean_linker_10, # of connection points: 2
#     Edge 25, Type (0, 0), BuildingBlock: TEMPAE_clean_linker_10, # of connection points: 2
#     Edge 26, Type (0, 0), BuildingBlock: TEMPAE_clean_linker_10, # of connection points: 2
#     Edge 27, Type (0, 0), BuildingBlock: TEMPAE_clean_linker_10, # of connection points: 2
#     Edge 28, Type (0, 0), BuildingBlock: TEMPAE_clean_linker_10, # of connection points: 2
#     Edge 29, Type (0, 0), BuildingBlock: TEMPAE_clean_linker_10, # of connection points: 2
#     Edge 30, Type (0, 0), BuildingBlock: TEMPAE_clean_linker_10, # of connection points: 2
#     Edge 31, Type (0, 0), BuildingBlock: TEMPAE_clean_linker_10, # of connection points: 2
#     Edge 32, Type (0, 0), BuildingBlock: TEMPAE_clean_linker_10, # of connection points: 2
#     Edge 33, Type (0, 0), BuildingBlock: TEMPAE_clean_linker_10, # of connection points: 2
#     Edge 34, Type (0, 0), BuildingBlock: TEMPAE_clean_linker_10, # of connection points: 2
#     Edge 35, Type (0, 0), BuildingBlock: TEMPAE_clean_linker_10, # of connection points: 2
#     Edge 36, Type (0, 0), BuildingBlock: TEMPAE_clean_linker_10, # of connection points: 2
#     Edge 37, Type (0, 0), BuildingBlock: TEMPAE_clean_linker_10, # of connection points: 2
#     Edge 38, Type (0, 0), BuildingBlock: TEMPAE_clean_linker_10, # of connection points: 2
#     Edge 39, Type (0, 0), BuildingBlock: TEMPAE_clean_linker_10, # of connection points: 2
#     Edge 40, Type (0, 0), BuildingBlock: TEMPAE_clean_linker_10, # of connection points: 2
#     Edge 41, Type (0, 0), BuildingBlock: TEMPAE_clean_linker_10, # of connection points: 2
#     Edge 42, Type (0, 0), BuildingBlock: TEMPAE_clean_linker_10, # of connection points: 2
#     Edge 43, Type (0, 0), BuildingBlock: TEMPAE_clean_linker_10, # of connection points: 2
#     Edge 44, Type (0, 0), BuildingBlock: TEMPAE_clean_linker_10, # of connection points: 2
#     Edge 45, Type (0, 0), BuildingBlock: TEMPAE_clean_linker_10, # of connection points: 2
#     Edge 46, Type (0, 0), BuildingBlock: TEMPAE_clean_linker_10, # of connection points: 2
#     Edge 47, Type (0, 0), BuildingBlock: TEMPAE_clean_linker_10, # of connection points: 2
# Relax obj value: 0.084
# Max RMSD: 0.168
# Mean RMSD: 0.142
data_MOF--net-cag--node1-GALJAG_clean_sbu_0--edge1-TEMPAE_clean_linker_10
_symmetry_space_group_name_H-M    P1
_symmetry_Int_Tables_number       1
_symmetry_cell_setting            triclinic
loop_
_symmetry_equiv_pos_as_xyz
'x, y, z'
_cell_length_a     47.165615
_cell_length_b     50.467071
_cell_length_c     39.125483
_cell_angle_alpha  89.994099
_cell_angle_beta   90.0289
_cell_angle_gamma 89.989261
loop_
_atom_site_label
_atom_site_type_symbol
_atom_site_fract_x
_atom_site_fract_y
_atom_site_fract_z
_atom_type_partial_charge
In0 In 0.33561 0.14219 0.08812 0.0
O1 O 0.29747 0.13084 0.11987 0.0
O2 O 0.32693 0.15776 0.14206 0.0
C3 C 0.33787 0.0921 0.06415 0.0
C4 C 0.30679 0.17889 0.05161 0.0
C5 C 0.39195 0.14991 0.09491 0.0
O6 O 0.33333 0.09739 0.09513 0.0
O7 O 0.34126 0.11203 0.04514 0.0
O8 O 0.37928 0.15145 0.06657 0.0
O9 O 0.37608 0.14507 0.12013 0.0
C10 C 0.30399 0.14502 0.1452 0.0
O11 O 0.32926 0.18434 0.06758 0.0
O12 O 0.29946 0.15495 0.05319 0.0
In13 In 0.16609 0.85861 0.58188 0.0
O14 O 0.1716 0.82095 0.54967 0.0
O15 O 0.20844 0.84241 0.56338 0.0
C16 C 0.11063 0.84569 0.58356 0.0
C17 C 0.19149 0.86199 0.64344 0.0
C18 C 0.1641 0.90739 0.55396 0.0
O19 O 0.12301 0.85347 0.55679 0.0
O20 O 0.12641 0.84379 0.60955 0.0
O21 O 0.15114 0.90142 0.58107 0.0
O22 O 0.17812 0.8887 0.54075 0.0
C23 C 0.19824 0.82251 0.54845 0.0
O24 O 0.19257 0.88019 0.62145 0.0
O25 O 0.1767 0.84221 0.63491 0.0
In26 In 0.33592 0.86675 0.91902 0.0
O27 O 0.33286 0.83158 0.9563 0.0
O28 O 0.29493 0.84645 0.93477 0.0
C29 C 0.39152 0.86064 0.9043 0.0
C30 C 0.30929 0.86789 0.858 0.0
C31 C 0.3344 0.91136 0.95693 0.0
O32 O 0.37528 0.84124 0.90984 0.0
O33 O 0.37953 0.88298 0.90524 0.0
O34 O 0.32522 0.9101 0.92676 0.0
O35 O 0.34445 0.88996 0.96845 0.0
C36 C 0.3063 0.82951 0.95391 0.0
O37 O 0.30268 0.88266 0.88266 0.0
O38 O 0.33012 0.85278 0.8636 0.0
In39 In 0.15847 0.13783 0.41951 0.0
O40 O 0.18834 0.12121 0.37947 0.0
O41 O 0.16812 0.15777 0.36822 0.0
C42 C 0.15723 0.09005 0.45068 0.0
C43 C 0.19151 0.17314 0.45241 0.0
C44 C 0.10241 0.14831 0.41586 0.0
O45 O 0.14955 0.09352 0.42019 0.0
O46 O 0.16535 0.11077 0.46579 0.0
O47 O 0.11751 0.15554 0.44082 0.0
O48 O 0.11567 0.1363 0.39256 0.0
C49 C 0.18536 0.14011 0.35875 0.0
O50 O 0.16568 0.17756 0.44607 0.0
O51 O 0.20038 0.15078 0.44278 0.0
In52 In 0.66101 0.85782 0.91064 0.0
O53 O 0.688 0.83872 0.95244 0.0
O54 O 0.67233 0.81382 0.91306 0.0
C55 C 0.66107 0.90673 0.93867 0.0
C56 C 0.69542 0.86174 0.85612 0.0
C57 C 0.60439 0.85005 0.90462 0.0
O58 O 0.65934 0.88592 0.95642 0.0
O59 O 0.66271 0.90287 0.90692 0.0
O60 O 0.61981 0.85656 0.8797 0.0
O61 O 0.6176 0.84686 0.93233 0.0
C62 C 0.68712 0.81575 0.93979 0.0
O63 O 0.67059 0.85246 0.85403 0.0
O64 O 0.70274 0.86911 0.88567 0.0
In65 In 0.83279 0.14245 0.42327 0.0
O66 O 0.82652 0.1401 0.36542 0.0
O67 O 0.78998 0.13845 0.39705 0.0
C68 C 0.88937 0.15123 0.42363 0.0
C69 C 0.80959 0.18486 0.45483 0.0
C70 C 0.83033 0.09243 0.44718 0.0
O71 O 0.87378 0.15782 0.39883 0.0
O72 O 0.87637 0.1408 0.44832 0.0
O73 O 0.82491 0.11235 0.46558 0.0
O74 O 0.83689 0.09776 0.41666 0.0
C75 C 0.79986 0.13831 0.36713 0.0
O76 O 0.80643 0.16148 0.46554 0.0
O77 O 0.82516 0.18694 0.42879 0.0
In78 In 0.66047 0.13044 0.08927 0.0
O79 O 0.70308 0.14582 0.07047 0.0
O80 O 0.66621 0.1656 0.05283 0.0
C81 C 0.66377 0.08645 0.0502 0.0
C82 C 0.68115 0.13125 0.15364 0.0
C83 C 0.60461 0.13828 0.10069 0.0
O84 O 0.64578 0.10446 0.04478 0.0
O85 O 0.68039 0.09089 0.07478 0.0
O86 O 0.62094 0.15668 0.09122 0.0
O87 O 0.61657 0.11617 0.10499 0.0
C88 C 0.69293 0.1644 0.0528 0.0
O89 O 0.67658 0.11005 0.13755 0.0
O90 O 0.67445 0.15202 0.13767 0.0
In91 In 0.84328 0.86357 0.58507 0.0
O92 O 0.80747 0.83374 0.58115 0.0
O93 O 0.83517 0.8369 0.53855 0.0
C94 C 0.83989 0.9096 0.54956 0.0
C95 C 0.81993 0.86773 0.64776 0.0
C96 C 0.8985 0.85083 0.59326 0.0
O97 O 0.81921 0.89396 0.55243 0.0
O98 O 0.86218 0.90189 0.56416 0.0
O99 O 0.88675 0.86977 0.60878 0.0
O100 O 0.88222 0.83776 0.57397 0.0
C101 C 0.81365 0.8259 0.55151 0.0
O102 O 0.83477 0.84812 0.63882 0.0
O103 O 0.81746 0.88554 0.62534 0.0
In104 In 0.84159 0.63323 0.0685 0.0
O105 O 0.81607 0.61418 0.11118 0.0
O106 O 0.83148 0.65326 0.11932 0.0
C107 C 0.84003 0.58381 0.04211 0.0
C108 C 0.80932 0.66919 0.03479 0.0
C109 C 0.89786 0.64345 0.07121 0.0
O110 O 0.85131 0.58908 0.07053 0.0
O111 O 0.82954 0.60353 0.0268 0.0
O112 O 0.88183 0.64552 0.09685 0.0
O113 O 0.88538 0.63693 0.04393 0.0
C114 C 0.81739 0.63395 0.13082 0.0
O115 O 0.83604 0.67044 0.03519 0.0
O116 O 0.79918 0.64962 0.05052 0.0
In117 In 0.6614 0.3703 0.58574 0.0
O118 O 0.68967 0.38813 0.62671 0.0
O119 O 0.66486 0.35472 0.64051 0.0
C120 C 0.66507 0.41644 0.55091 0.0
C121 C 0.69426 0.33432 0.55381 0.0
C122 C 0.60529 0.35911 0.58856 0.0
O123 O 0.65334 0.41441 0.57966 0.0
O124 O 0.67515 0.39511 0.53937 0.0
O125 O 0.62352 0.34172 0.58121 0.0
O126 O 0.61544 0.38166 0.59469 0.0
C127 C 0.68294 0.37174 0.6496 0.0
O128 O 0.66937 0.33957 0.54381 0.0
O129 O 0.70246 0.34746 0.5794 0.0
In130 In 0.83639 0.35017 0.916 0.0
O131 O 0.81951 0.30791 0.91547 0.0
O132 O 0.81876 0.32857 0.96274 0.0
C133 C 0.89237 0.34006 0.90931 0.0
C134 C 0.80203 0.35617 0.8614 0.0
C135 C 0.83707 0.39888 0.94468 0.0
O136 O 0.87894 0.33499 0.93644 0.0
O137 O 0.87745 0.34963 0.8856 0.0
O138 O 0.85221 0.3927 0.91938 0.0
O139 O 0.82155 0.38042 0.95578 0.0
C140 C 0.81278 0.30762 0.94665 0.0
O141 O 0.79653 0.36615 0.89017 0.0
O142 O 0.82495 0.34334 0.86013 0.0
In143 In 0.67189 0.64253 0.40559 0.0
O144 O 0.68242 0.68632 0.41257 0.0
O145 O 0.70105 0.65857 0.44687 0.0
C146 C 0.61507 0.64994 0.40467 0.0
C147 C 0.70315 0.64166 0.34779 0.0
C148 C 0.67289 0.59421 0.43495 0.0
O149 O 0.63091 0.66125 0.42616 0.0
O150 O 0.6279 0.63553 0.38344 0.0
O151 O 0.66567 0.59786 0.4043 0.0
O152 O 0.67966 0.61495 0.45098 0.0
C153 C 0.69886 0.68244 0.4376 0.0
O154 O 0.71093 0.63067 0.37512 0.0
O155 O 0.67939 0.65304 0.34942 0.0
In156 In 0.16174 0.36107 0.90853 0.0
O157 O 0.18416 0.34315 0.95512 0.0
O158 O 0.17596 0.31807 0.91277 0.0
C159 C 0.17111 0.40862 0.93779 0.0
C160 C 0.18985 0.36574 0.84892 0.0
C161 C 0.10483 0.35249 0.90562 0.0
O162 O 0.16341 0.38855 0.95471 0.0
O163 O 0.17473 0.40453 0.90627 0.0
O164 O 0.12236 0.33766 0.89071 0.0
O165 O 0.11595 0.37147 0.92147 0.0
C166 C 0.18672 0.32044 0.94207 0.0
O167 O 0.16432 0.37297 0.85208 0.0
O168 O 0.20101 0.35658 0.87572 0.0
In169 In 0.34552 0.63902 0.41134 0.0
O170 O 0.31234 0.61876 0.37768 0.0
O171 O 0.33429 0.65166 0.35689 0.0
C172 C 0.40197 0.6486 0.41171 0.0
C173 C 0.3192 0.67978 0.44319 0.0
C174 C 0.34197 0.5901 0.43825 0.0
O175 O 0.38798 0.64564 0.38452 0.0
O176 O 0.38753 0.64697 0.43872 0.0
O177 O 0.35983 0.59601 0.41539 0.0
O178 O 0.32584 0.60885 0.44724 0.0
C179 C 0.31558 0.63415 0.35266 0.0
O180 O 0.32371 0.65787 0.45763 0.0
O181 O 0.32855 0.68131 0.41315 0.0
In182 In 0.16759 0.63556 0.08013 0.0
O183 O 0.19105 0.65605 0.03624 0.0
O184 O 0.1825 0.67843 0.08093 0.0
C185 C 0.17244 0.59008 0.0441 0.0
C186 C 0.19558 0.63064 0.13992 0.0
C187 C 0.11094 0.64186 0.08662 0.0
O188 O 0.15612 0.6086 0.03504 0.0
O189 O 0.1864 0.59465 0.07088 0.0
O190 O 0.12403 0.62232 0.0992 0.0
O191 O 0.12651 0.65846 0.07151 0.0
C192 C 0.19363 0.67786 0.05169 0.0
O193 O 0.16974 0.6372 0.13868 0.0
O194 O 0.20684 0.62636 0.11126 0.0
In195 In 0.33778 0.36112 0.57725 0.0
O196 O 0.33087 0.37239 0.6333 0.0
O197 O 0.29491 0.36126 0.60393 0.0
C198 C 0.39342 0.34817 0.57882 0.0
C199 C 0.31482 0.3176 0.54874 0.0
C200 C 0.33535 0.40975 0.54851 0.0
O201 O 0.37785 0.34716 0.60499 0.0
O202 O 0.38079 0.35517 0.55191 0.0
O203 O 0.32384 0.38972 0.53513 0.0
O204 O 0.34776 0.40527 0.57644 0.0
C205 C 0.30445 0.36849 0.63252 0.0
O206 O 0.3171 0.3393 0.53288 0.0
O207 O 0.32487 0.31769 0.57866 0.0
C208 C 0.30121 0.22334 0.02431 0.0
C209 C 0.28934 0.19915 0.0344 0.0
C210 C 0.28445 0.24297 0.00882 0.0
C211 C 0.25503 0.23849 0.00428 0.0
C212 C 0.24295 0.21413 0.01468 0.0
C213 C 0.26034 0.1946 0.0292 0.0
C214 C 0.29822 0.26844 0.99723 0.0
C215 C 0.21157 0.20885 0.01098 0.0
C216 C 0.20813 0.29919 0.99366 0.0
C217 C 0.20302 0.29894 0.9584 0.0
C218 C 0.22463 0.27933 0.00908 0.0
C219 C 0.23688 0.25926 0.98852 0.0
C220 C 0.23183 0.25902 0.95286 0.0
C221 C 0.21463 0.27868 0.9383 0.0
C222 C 0.22895 0.27983 0.04731 0.0
C223 C 0.24503 0.23831 0.93 0.0
H224 H 0.32365 0.22683 0.02826 0.0
H225 H 0.25107 0.17598 0.03732 0.0
H226 H 0.29407 0.27164 0.96962 0.0
H227 H 0.28889 0.28546 0.01119 0.0
H228 H 0.32151 0.26842 0.00151 0.0
H229 H 0.20543 0.18909 0.02106 0.0
H230 H 0.19933 0.22426 0.02482 0.0
H231 H 0.20533 0.20998 0.98369 0.0
H232 H 0.1991 0.31483 0.00922 0.0
H233 H 0.21093 0.27863 0.91095 0.0
H234 H 0.25179 0.28225 0.05326 0.0
H235 H 0.22207 0.26072 0.05862 0.0
H236 H 0.217 0.29615 0.05979 0.0
H237 H 0.26846 0.23893 0.93249 0.0
H238 H 0.23937 0.24119 0.90268 0.0
H239 H 0.23806 0.21825 0.93795 0.0
C240 C 0.29768 0.7249 0.44125 0.0
C241 C 0.30286 0.70139 0.45928 0.0
C242 C 0.28088 0.74505 0.45534 0.0
C243 C 0.26904 0.74157 0.48826 0.0
C244 C 0.27452 0.71802 0.5068 0.0
C245 C 0.29138 0.69817 0.49206 0.0
C246 C 0.27552 0.76991 0.43484 0.0
C247 C 0.26232 0.71368 0.54204 0.0
C248 C 0.2457 0.80272 0.53705 0.0
C249 C 0.21625 0.80219 0.5322 0.0
C250 C 0.26314 0.78306 0.52296 0.0
C251 C 0.25082 0.76256 0.50326 0.0
C252 C 0.22112 0.7621 0.49792 0.0
C253 C 0.20414 0.78188 0.51264 0.0
C254 C 0.29469 0.78407 0.52943 0.0
C255 C 0.2073 0.74067 0.47676 0.0
H256 H 0.30648 0.72746 0.41587 0.0
H257 H 0.2953 0.67999 0.50605 0.0
H258 H 0.25244 0.77232 0.43032 0.0
H259 H 0.28277 0.78753 0.44937 0.0
H260 H 0.28653 0.76963 0.40975 0.0
H261 H 0.26902 0.69446 0.55329 0.0
H262 H 0.26907 0.72989 0.55937 0.0
H263 H 0.23883 0.71414 0.54085 0.0
H264 H 0.25514 0.81833 0.55232 0.0
H265 H 0.18138 0.78145 0.50881 0.0
H266 H 0.30628 0.78512 0.5048 0.0
H267 H 0.30165 0.7657 0.54256 0.0
H268 H 0.30091 0.80136 0.54534 0.0
H269 H 0.21651 0.74049 0.45067 0.0
H270 H 0.18399 0.74339 0.47463 0.0
H271 H 0.21155 0.72099 0.4883 0.0
C272 C 0.30324 0.78867 0.99001 0.0
C273 C 0.28977 0.8082 0.97039 0.0
C274 C 0.28774 0.76753 0.00401 0.0
C275 C 0.25815 0.76596 0.99814 0.0
C276 C 0.24441 0.78586 0.97879 0.0
C277 C 0.26039 0.80675 0.96518 0.0
C278 C 0.30307 0.7467 0.02465 0.0
C279 C 0.21289 0.78488 0.97202 0.0
C280 C 0.222 0.69895 0.00511 0.0
C281 C 0.20949 0.70057 0.03752 0.0
C282 C 0.23798 0.72008 0.992 0.0
C283 C 0.24153 0.74332 0.01184 0.0
C284 C 0.22885 0.74509 0.04452 0.0
C285 C 0.21294 0.72369 0.05696 0.0
C286 C 0.25109 0.71755 0.95695 0.0
C287 C 0.23214 0.76956 0.06638 0.0
H288 H 0.32595 0.78971 0.99406 0.0
H289 H 0.24986 0.8218 0.95 0.0
H290 H 0.29344 0.74505 0.05043 0.0
H291 H 0.30082 0.72709 0.01211 0.0
H292 H 0.326 0.75116 0.02758 0.0
H293 H 0.20538 0.80221 0.95703 0.0
H294 H 0.20754 0.76655 0.95776 0.0
H295 H 0.2011 0.78425 0.99653 0.0
H296 H 0.21942 0.68109 0.99004 0.0
H297 H 0.20337 0.72502 0.08208 0.0
H298 H 0.27443 0.7199 0.95873 0.0
H299 H 0.24309 0.73354 0.94004 0.0
H300 H 0.24638 0.69813 0.94483 0.0
H301 H 0.25494 0.77342 0.07127 0.0
H302 H 0.22107 0.76771 0.09132 0.0
H303 H 0.22357 0.78708 0.05271 0.0
C304 C 0.29155 0.27353 0.55571 0.0
C305 C 0.29941 0.29467 0.53448 0.0
C306 C 0.27463 0.25279 0.5433 0.0
C307 C 0.2657 0.25308 0.50876 0.0
C308 C 0.27436 0.27395 0.48694 0.0
C309 C 0.29098 0.2946 0.50014 0.0
C310 C 0.26562 0.23098 0.56739 0.0
C311 C 0.26559 0.27474 0.44982 0.0
C312 C 0.23978 0.18928 0.46805 0.0
C313 C 0.21031 0.19299 0.46834 0.0
C314 C 0.25809 0.2086 0.48133 0.0
C315 C 0.2466 0.23201 0.49563 0.0
C316 C 0.21683 0.23558 0.49669 0.0
C317 C 0.19903 0.21609 0.4828 0.0
C318 C 0.28973 0.20423 0.47941 0.0
C319 C 0.2038 0.26015 0.51216 0.0
H320 H 0.29791 0.27358 0.58234 0.0
H321 H 0.29709 0.31088 0.48363 0.0
H322 H 0.24219 0.23099 0.56997 0.0
H323 H 0.27181 0.21139 0.55693 0.0
H324 H 0.27513 0.23321 0.59321 0.0
H325 H 0.27532 0.29161 0.43587 0.0
H326 H 0.27173 0.25603 0.43691 0.0
H327 H 0.24219 0.27648 0.44794 0.0
H328 H 0.2486 0.17148 0.45675 0.0
H329 H 0.17625 0.21897 0.48316 0.0
H330 H 0.29921 0.20545 0.50531 0.0
H331 H 0.29961 0.22005 0.46373 0.0
H332 H 0.29523 0.18471 0.46808 0.0
H333 H 0.21133 0.26271 0.53883 0.0
H334 H 0.18026 0.25939 0.51226 0.0
H335 H 0.21059 0.2779 0.49757 0.0
C336 C 0.76179 0.6895 0.02506 0.0
C337 C 0.7911 0.68965 0.01898 0.0
C338 C 0.74423 0.70951 0.01199 0.0
C339 C 0.7562 0.73002 0.992 0.0
C340 C 0.7857 0.72998 0.98516 0.0
C341 C 0.80286 0.70987 -0.00106 0.0
C342 C 0.71293 0.709 0.02016 0.0
C343 C 0.79918 0.75135 0.96359 0.0
C344 C 0.70701 0.77002 0.93486 0.0
C345 C 0.70363 0.79336 0.95387 0.0
C346 C 0.72415 0.74927 0.94689 0.0
C347 C 0.73792 0.7518 0.97888 0.0
C348 C 0.73415 0.77514 -0.00154 0.0
C349 C 0.71718 0.79572 0.98561 0.0
C350 C 0.72786 0.72479 0.92515 0.0
C351 C 0.74815 0.77843 0.03292 0.0
H352 H 0.7526 0.67398 0.04067 0.0
H353 H 0.82549 0.71003 0.99413 0.0
H354 H 0.70701 0.72718 0.03442 0.0
H355 H 0.70035 0.70884 0.9962 0.0
H356 H 0.70689 0.69146 0.0357 0.0
H357 H 0.82219 0.7479 0.95953 0.0
H358 H 0.78856 0.7524 0.93831 0.0
H359 H 0.79637 0.77091 0.97608 0.0
H360 H 0.69672 0.76818 0.91019 0.0
H361 H 0.71461 0.81372 0.0004 0.0
H362 H 0.72079 0.70701 0.93946 0.0
H363 H 0.75063 0.72196 0.91902 0.0
H364 H 0.71573 0.72593 0.90084 0.0
H365 H 0.74177 0.76201 0.05015 0.0
H366 H 0.74256 0.79754 0.04528 0.0
H367 H 0.77153 0.77743 0.0301 0.0
C368 C 0.77642 0.20397 0.498 0.0
C369 C 0.79461 0.20769 0.47009 0.0
C370 C 0.76058 0.22509 0.51134 0.0
C371 C 0.76301 0.25054 0.4964 0.0
C372 C 0.78169 0.25453 0.46857 0.0
C373 C 0.79729 0.23303 0.45573 0.0
C374 C 0.74095 0.2201 0.54114 0.0
C375 C 0.7849 0.28141 0.45206 0.0
C376 C 0.70188 0.29832 0.5108 0.0
C377 C 0.71223 0.31379 0.53779 0.0
C378 C 0.71838 0.2779 0.49667 0.0
C379 C 0.74585 0.27293 0.50988 0.0
C380 C 0.75659 0.28884 0.53669 0.0
C381 C 0.73964 0.30907 0.55034 0.0
C382 C 0.70624 0.26134 0.46805 0.0
C383 C 0.78578 0.28419 0.55139 0.0
H384 H 0.77424 0.18441 0.50916 0.0
H385 H 0.81129 0.236 0.4341 0.0
H386 H 0.74654 0.23333 0.56276 0.0
H387 H 0.7188 0.22474 0.53368 0.0
H388 H 0.74184 0.19924 0.55016 0.0
H389 H 0.80076 0.28131 0.43108 0.0
H390 H 0.76422 0.28798 0.44153 0.0
H391 H 0.79145 0.29625 0.47142 0.0
H392 H 0.68072 0.3019 0.50102 0.0
H393 H 0.74778 0.32101 0.57118 0.0
H394 H 0.7045 0.24039 0.47638 0.0
H395 H 0.72063 0.26178 0.44564 0.0
H396 H 0.68495 0.26832 0.45991 0.0
H397 H 0.78691 0.26409 0.56279 0.0
H398 H 0.79138 0.29893 0.57137 0.0
H399 H 0.80194 0.28509 0.53083 0.0
C400 C 0.7901 0.26302 0.94266 0.0
C401 C 0.79734 0.28524 0.96235 0.0
C402 C 0.77368 0.24245 0.95644 0.0
C403 C 0.76427 0.24417 0.99071 0.0
C404 C 0.77199 0.26631 0.01092 0.0
C405 C 0.78845 0.28659 0.99648 0.0
C406 C 0.76596 0.21911 0.93414 0.0
C407 C 0.76241 0.2688 0.0476 0.0
C408 C 0.69895 0.20547 0.0178 0.0
C409 C 0.71107 0.18399 0.03519 0.0
C410 C 0.71605 0.22506 0.00282 0.0
C411 C 0.74594 0.22305 0.0053 0.0
C412 C 0.75827 0.20113 0.02227 0.0
C413 C 0.74068 0.18186 0.03703 0.0
C414 C 0.70214 0.24813 0.98485 0.0
C415 C 0.79005 0.19826 0.02535 0.0
H416 H 0.7969 0.26188 0.91624 0.0
H417 H 0.79395 0.30374 0.01179 0.0
H418 H 0.77291 0.20038 0.94641 0.0
H419 H 0.74259 0.21802 0.93117 0.0
H420 H 0.7757 0.22039 0.90835 0.0
H421 H 0.77084 0.28693 0.06011 0.0
H422 H 0.73891 0.26937 0.0487 0.0
H423 H 0.7694 0.25126 0.06248 0.0
H424 H 0.67608 0.20721 0.01634 0.0
H425 H 0.75016 0.16529 0.05045 0.0
H426 H 0.70992 0.24952 0.95816 0.0
H427 H 0.70791 0.26691 0.99786 0.0
H428 H 0.67866 0.24641 0.98439 0.0
H429 H 0.79992 0.19857 -0.00038 0.0
H430 H 0.79628 0.17962 0.03846 0.0
H431 H 0.79886 0.21525 0.03987 0.0
C432 C 0.80618 0.79436 0.50294 0.0
C433 C 0.79671 0.80553 0.53367 0.0
C434 C 0.79031 0.77461 0.48636 0.0
C435 C 0.76429 0.76612 0.50074 0.0
C436 C 0.75447 0.77765 0.5315 0.0
C437 C 0.77088 0.79711 0.54767 0.0
C438 C 0.80155 0.76257 0.45375 0.0
C439 C 0.72672 0.76929 0.54746 0.0
C440 C 0.71086 0.73042 0.44445 0.0
C441 C 0.71518 0.70396 0.454 0.0
C442 C 0.72677 0.7509 0.45937 0.0
C443 C 0.7476 0.74468 0.48418 0.0
C444 C 0.7521 0.71797 0.49381 0.0
C445 C 0.73574 0.69794 0.4787 0.0
C446 C 0.7212 0.77919 0.44873 0.0
C447 C 0.7742 0.71055 0.52007 0.0
H448 H 0.82616 0.8008 0.49208 0.0
H449 H 0.76339 0.80579 0.57135 0.0
H450 H 0.80485 0.74097 0.45731 0.0
H451 H 0.78586 0.76505 0.43287 0.0
H452 H 0.82193 0.77164 0.44564 0.0
H453 H 0.72166 0.78085 0.57085 0.0
H454 H 0.70917 0.77184 0.52885 0.0
H455 H 0.72755 0.74797 0.5543 0.0
H456 H 0.695 0.73516 0.42534 0.0
H457 H 0.73926 0.67749 0.48605 0.0
H458 H 0.74089 0.7882 0.43847 0.0
H459 H 0.71475 0.79108 0.47128 0.0
H460 H 0.70434 0.78069 0.42899 0.0
H461 H 0.79533 0.71783 0.51188 0.0
H462 H 0.77549 0.6888 0.52415 0.0
H463 H 0.76926 0.72017 0.54485 0.0
C464 C 0.32433 0.04449 0.06852 0.0
C465 C 0.33858 0.06473 0.05106 0.0
C466 C 0.32361 0.0186 0.05545 0.0
C467 C 0.33817 0.01279 0.02472 0.0
C468 C 0.35342 0.03302 0.00765 0.0
C469 C 0.35309 0.05887 0.02079 0.0
C470 C 0.30651 0.99773 0.07387 0.0
C471 C 0.36975 0.02744 0.97525 0.0
C472 C 0.35434 0.94113 0.00193 0.0
C473 C 0.33419 0.93636 0.97636 0.0
C474 C 0.3558 0.9659 0.01822 0.0
C475 C 0.33614 0.98597 0.00925 0.0
C476 C 0.31504 0.98078 0.9844 0.0
C477 C 0.31459 0.95615 0.96791 0.0
C478 C 0.37896 0.97093 0.04405 0.0
C479 C 0.29325 0.00142 0.97475 0.0
H480 H 0.31299 0.04907 0.09188 0.0
H481 H 0.36434 0.0745 0.00746 0.0
H482 H 0.28907 0.99075 0.0571 0.0
H483 H 0.31998 0.98031 0.07979 0.0
H484 H 0.29719 0.00526 0.09806 0.0
H485 H 0.38235 0.04481 0.96669 0.0
H486 H 0.38431 0.01043 0.97916 0.0
H487 H 0.35485 0.02191 0.9545 0.0
H488 H 0.36964 0.92586 0.00825 0.0
H489 H 0.29887 0.95237 0.94827 0.0
H490 H 0.36971 0.97777 0.06857 0.0
H491 H 0.39308 0.98694 0.03467 0.0
H492 H 0.39197 0.95298 0.049 0.0
H493 H 0.28239 0.00891 0.99797 0.0
H494 H 0.27702 0.99354 0.95685 0.0
H495 H 0.30387 0.01855 0.96245 0.0
C496 C 0.14222 0.95224 0.54992 0.0
C497 C 0.16297 0.93423 0.53908 0.0
C498 C 0.14076 0.97781 0.53602 0.0
C499 C 0.16086 0.98566 0.51117 0.0
C500 C 0.18206 0.96763 0.50039 0.0
C501 C 0.18269 0.942 0.51427 0.0
C502 C 0.11756 0.99635 0.54771 0.0
C503 C 0.2041 0.97544 0.47429 0.0
C504 C 0.14323 0.04245 0.45132 0.0
C505 C 0.15746 0.06364 0.46685 0.0
C506 C 0.14386 0.01703 0.46574 0.0
C507 C 0.15949 0.01265 0.4961 0.0
C508 C 0.17389 0.034 0.51193 0.0
C509 C 0.1725 0.05934 0.49724 0.0
C510 C 0.12785 0.99484 0.44844 0.0
C511 C 0.19108 0.02998 0.54409 0.0
H512 H 0.12686 0.94622 0.56901 0.0
H513 H 0.19886 0.92814 0.50601 0.0
H514 H 0.12696 0.01452 0.55892 0.0
H515 H 0.10453 0.00259 0.5255 0.0
H516 H 0.10343 0.98709 0.56701 0.0
H517 H 0.21961 0.95932 0.46934 0.0
H518 H 0.19366 0.98076 0.44983 0.0
H519 H 0.2158 0.99322 0.48322 0.0
H520 H 0.13148 0.04576 0.42788 0.0
H521 H 0.18365 0.07568 0.50919 0.0
H522 H 0.11259 0.98581 0.4666 0.0
H523 H 0.14281 0.97903 0.44051 0.0
H524 H 0.11604 0.00173 0.42553 0.0
H525 H 0.17737 0.02213 0.56477 0.0
H526 H 0.20113 0.04862 0.55311 0.0
H527 H 0.20795 0.01508 0.53944 0.0
C528 C 0.65289 0.93741 0.98772 0.0
C529 C 0.66141 0.93352 0.9538 0.0
C530 C 0.65306 0.9628 0.00234 0.0
C531 C 0.66251 0.98467 0.98273 0.0
C532 C 0.67129 0.98081 0.94851 0.0
C533 C 0.67038 0.95528 0.93434 0.0
C534 C 0.6431 0.96622 0.03875 0.0
C535 C 0.68195 0.00357 0.92701 0.0
C536 C 0.64062 0.05356 0.01159 0.0
C537 C 0.66424 0.06134 0.03087 0.0
C538 C 0.63985 0.02871 0.99549 0.0
C539 C 0.66348 0.01154 -0.00174 0.0
C540 C 0.68776 0.01971 0.01676 0.0
C541 C 0.68773 0.04443 0.03314 0.0
C542 C 0.61343 0.02053 0.97639 0.0
C543 C 0.71357 0.00215 0.01973 0.0
H544 H 0.6458 0.92063 0.00275 0.0
H545 H 0.67711 0.9523 0.90813 0.0
H546 H 0.66062 0.97405 0.05474 0.0
H547 H 0.62558 0.98088 0.03975 0.0
H548 H 0.63556 0.94732 0.05014 0.0
H549 H 0.68816 0.9972 0.90089 0.0
H550 H 0.66533 0.01904 0.92482 0.0
H551 H 0.70057 0.01286 0.93954 0.0
H552 H 0.62236 0.06654 0.00998 0.0
H553 H 0.70607 0.05047 0.04792 0.0
H554 H 0.60412 0.00268 0.98855 0.0
H555 H 0.61878 0.01517 0.94967 0.0
H556 H 0.59715 0.03644 0.97597 0.0
H557 H 0.70804 0.98377 0.03378 0.0
H558 H 0.73132 0.01208 0.03331 0.0
H559 H 0.72097 0.99617 0.99394 0.0
C560 C 0.83701 0.04368 0.43936 0.0
C561 C 0.82991 0.06506 0.46059 0.0
C562 C 0.83784 0.01771 0.45216 0.0
C563 C 0.83141 0.01307 0.48698 0.0
C564 C 0.82372 0.03453 0.50836 0.0
C565 C 0.82307 0.06028 0.4949 0.0
C566 C 0.84611 0.99531 0.4286 0.0
C567 C 0.81672 0.03035 0.54564 0.0
C568 C 0.81236 0.94377 0.5172 0.0
C569 C 0.83795 0.93543 0.53192 0.0
C570 C 0.81 0.96886 0.50194 0.0
C571 C 0.83381 0.98594 0.50148 0.0
C572 C 0.85983 0.97741 0.51577 0.0
C573 C 0.86159 0.95224 0.53081 0.0
C574 C 0.78194 0.97727 0.48686 0.0
C575 C 0.8857 0.99505 0.51575 0.0
H576 H 0.84228 0.04727 0.4128 0.0
H577 H 0.81752 0.07674 0.51139 0.0
H578 H 0.86605 0.98604 0.43774 0.0
H579 H 0.82952 0.97972 0.4288 0.0
H580 H 0.84929 0.00208 0.40185 0.0
H581 H 0.81013 0.04899 0.55849 0.0
H582 H 0.7994 0.01562 0.54825 0.0
H583 H 0.83549 0.02226 0.5592 0.0
H584 H 0.79404 0.93081 0.51799 0.0
H585 H 0.88144 0.94588 0.54213 0.0
H586 H 0.78476 0.98317 0.45976 0.0
H587 H 0.77375 0.99483 0.50076 0.0
H588 H 0.76578 0.96129 0.48813 0.0
H589 H 0.89089 0.00118 0.48925 0.0
H590 H 0.90455 0.98514 0.52701 0.0
H591 H 0.88129 0.01335 0.53054 0.0
C592 C 0.81724 0.43307 0.9843 0.0
C593 C 0.83729 0.42577 0.95961 0.0
C594 C 0.81697 0.45877 0.99805 0.0
C595 C 0.83742 0.47745 0.98706 0.0
C596 C 0.85785 0.4701 0.96233 0.0
C597 C 0.85745 0.44437 0.94878 0.0
C598 C 0.79473 0.46598 0.02419 0.0
C599 C 0.88018 0.48938 0.95023 0.0
C600 C 0.82337 0.55104 -0.00141 0.0
C601 C 0.83913 0.55664 0.0281 0.0
C602 C 0.82232 0.52526 0.98518 0.0
C603 C 0.83762 0.5047 0.00152 0.0
C604 C 0.85357 0.51025 0.03132 0.0
C605 C 0.85402 0.53615 0.04434 0.0
C606 C 0.8049 0.52003 0.95351 0.0
C607 C 0.87037 0.4889 0.04927 0.0
H608 H 0.80156 0.41876 0.99265 0.0
H609 H 0.87305 0.4388 0.92976 0.0
H610 H 0.80505 0.47221 0.04837 0.0
H611 H 0.78202 0.48302 0.0149 0.0
H612 H 0.78016 0.44923 0.02978 0.0
H613 H 0.89472 0.48045 0.9311 0.0
H614 H 0.86993 0.50701 0.93864 0.0
H615 H 0.89293 0.49643 0.97227 0.0
H616 H 0.81173 0.56681 0.98604 0.0
H617 H 0.86628 0.54039 0.06714 0.0
H618 H 0.789 0.50434 0.95872 0.0
H619 H 0.81879 0.51269 0.93268 0.0
H620 H 0.79365 0.53803 0.94438 0.0
H621 H 0.85611 0.47252 0.05712 0.0
H622 H 0.88155 0.49646 0.07229 0.0
H623 H 0.8863 0.48041 0.03151 0.0
C624 C 0.64849 0.46265 0.54161 0.0
C625 C 0.66674 0.4419 0.53256 0.0
C626 C 0.6498 0.48716 0.52488 0.0
C627 C 0.6703 0.49117 0.499 0.0
C628 C 0.68891 0.47032 0.48984 0.0
C629 C 0.68668 0.44576 0.50651 0.0
C630 C 0.6292 0.50873 0.53485 0.0
C631 C 0.71137 0.47407 0.46279 0.0
C632 C 0.65728 0.54708 0.43613 0.0
C633 C 0.67301 0.56771 0.45079 0.0
C634 C 0.65639 0.52196 0.45141 0.0
C635 C 0.67214 0.51727 0.48161 0.0
C636 C 0.68866 0.53787 0.49602 0.0
C637 C 0.68862 0.56299 0.48063 0.0
C638 C 0.63804 0.50066 0.43573 0.0
C639 C 0.70617 0.53344 0.52783 0.0
H640 H 0.63293 0.45963 0.56162 0.0
H641 H 0.70091 0.42975 0.49964 0.0
H642 H 0.64092 0.52618 0.54472 0.0
H643 H 0.61706 0.51536 0.5121 0.0
H644 H 0.61396 0.50211 0.55475 0.0
H645 H 0.72441 0.45597 0.45898 0.0
H646 H 0.70134 0.47943 0.43809 0.0
H647 H 0.72557 0.49067 0.47005 0.0
H648 H 0.64509 0.55075 0.41311 0.0
H649 H 0.70097 0.57889 0.49182 0.0
H650 H 0.6215 0.49449 0.45426 0.0
H651 H 0.65098 0.4829 0.42982 0.0
H652 H 0.62745 0.50741 0.41189 0.0
H653 H 0.69206 0.52884 0.54971 0.0
H654 H 0.71923 0.55101 0.53453 0.0
H655 H 0.72043 0.51617 0.52424 0.0
C656 C 0.19704 0.54739 0.03204 0.0
C657 C 0.1742 0.56452 0.02593 0.0
C658 C 0.19824 0.52233 0.01663 0.0
C659 C 0.17575 0.51403 0.99519 0.0
C660 C 0.15283 0.53143 0.98853 0.0
C661 C 0.15248 0.55662 0.00374 0.0
C662 C 0.2233 0.50454 0.02378 0.0
C663 C 0.12826 0.52313 0.96622 0.0
C664 C 0.18596 0.45605 0.93454 0.0
C665 C 0.17383 0.43521 0.95317 0.0
C666 C 0.1872 0.48177 0.94813 0.0
C667 C 0.17563 0.48676 0.98087 0.0
C668 C 0.16357 0.46572 -0.0001 0.0
C669 C 0.16302 0.44013 0.98591 0.0
C670 C 0.20065 0.50362 0.92735 0.0
C671 C 0.15073 0.47033 0.03475 0.0
H672 H 0.21396 0.55355 0.04904 0.0
H673 H 0.13473 0.5698 -0.00086 0.0
H674 H 0.21619 0.48666 0.03785 0.0
H675 H 0.23288 0.49772 -0.00058 0.0
H676 H 0.2399 0.51464 0.03916 0.0
H677 H 0.11243 0.53923 0.96289 0.0
H678 H 0.13602 0.51702 0.94065 0.0
H679 H 0.11749 0.50572 0.9777 0.0
H680 H 0.1944 0.45229 0.90923 0.0
H681 H 0.15348 0.4241 0.00031 0.0
H682 H 0.21777 0.51326 0.94231 0.0
H683 H 0.18465 0.51907 0.92145 0.0
H684 H 0.2097 0.49623 0.90294 0.0
H685 H 0.16686 0.4787 0.05233 0.0
H686 H 0.14218 0.45185 0.04621 0.0
H687 H 0.13328 0.48502 0.03281 0.0
C688 C 0.31824 0.55729 0.47646 0.0
C689 C 0.34011 0.56339 0.45351 0.0
C690 C 0.31646 0.53217 0.49166 0.0
C691 C 0.33716 0.51279 0.48388 0.0
C692 C 0.35919 0.51878 0.46055 0.0
C693 C 0.36034 0.54401 0.44554 0.0
C694 C 0.29257 0.52644 0.51626 0.0
C695 C 0.38175 0.49866 0.4518 0.0
C696 C 0.34958 0.45736 0.54768 0.0
C697 C 0.3351 0.43621 0.53236 0.0
C698 C 0.35032 0.48242 0.53222 0.0
C699 C 0.33616 0.48642 0.50073 0.0
C700 C 0.32125 0.46521 0.4853 0.0
C701 C 0.32093 0.44031 0.5013 0.0
C702 C 0.36648 0.50455 0.54942 0.0
C703 C 0.30579 0.46879 0.45181 0.0
H704 H 0.30249 0.57219 0.48262 0.0
H705 H 0.37731 0.54866 0.42785 0.0
H706 H 0.28043 0.50887 0.50755 0.0
H707 H 0.30132 0.52169 0.54187 0.0
H708 H 0.27774 0.54343 0.51884 0.0
H709 H 0.39719 0.50631 0.43278 0.0
H710 H 0.39346 0.49289 0.47525 0.0
H711 H 0.3718 0.48044 0.4414 0.0
H712 H 0.36059 0.45428 0.57169 0.0
H713 H 0.3097 0.42401 0.48937 0.0
H714 H 0.35211 0.52151 0.55448 0.0
H715 H 0.38353 0.5118 0.53228 0.0
H716 H 0.37619 0.49822 0.57398 0.0
H717 H 0.2899 0.4849 0.45416 0.0
H718 H 0.29479 0.45042 0.44349 0.0
H719 H 0.32098 0.47477 0.43159 0.0
C720 C 0.55592 0.11957 0.10654 0.0
C721 C 0.57363 0.1418 0.10416 0.0
C722 C 0.52633 0.12231 0.1069 0.0
C723 C 0.51416 0.14793 0.10538 0.0
C724 C 0.53195 0.17052 0.10429 0.0
C725 C 0.56152 0.16717 0.10339 0.0
C726 C 0.5081 0.09771 0.10767 0.0
C727 C 0.51975 0.19816 0.10321 0.0
C728 C 0.43994 0.1517 0.06828 0.0
C729 C 0.42315 0.15177 0.09783 0.0
C730 C 0.46961 0.15107 0.07042 0.0
C731 C 0.48283 0.15086 0.10292 0.0
C732 C 0.46601 0.15194 0.13286 0.0
C733 C 0.43632 0.15218 0.12996 0.0
C734 C 0.48678 0.14966 0.03789 0.0
C735 C 0.47936 0.15215 0.16793 0.0
H736 H 0.56518 0.09991 0.10704 0.0
H737 H 0.57515 0.18441 0.10172 0.0
H738 H 0.49304 0.09864 0.1294 0.0
H739 H 0.49533 0.09653 0.08389 0.0
H740 H 0.52087 0.0793 0.11002 0.0
H741 H 0.53641 0.21364 0.10525 0.0
H742 H 0.50807 0.20112 0.0789 0.0
H743 H 0.50435 0.20093 0.12434 0.0
H744 H 0.42987 0.15132 0.04337 0.0
H745 H 0.42341 0.15235 0.15288 0.0
H746 H 0.49871 0.13071 0.03708 0.0
H747 H 0.50255 0.16594 0.03719 0.0
H748 H 0.47331 0.15098 0.01465 0.0
H749 H 0.49034 0.13304 0.17258 0.0
H750 H 0.46347 0.15522 0.1885 0.0
H751 H 0.49557 0.16803 0.1696 0.0
C752 C 0.94145 0.8233 0.58068 0.0
C753 C 0.92935 0.84597 0.59538 0.0
C754 C 0.97102 0.81982 0.58008 0.0
C755 C 0.98878 0.83974 0.59392 0.0
C756 C 0.97659 0.86227 0.60968 0.0
C757 C 0.94702 0.86499 0.61047 0.0
C758 C 0.98325 0.79528 0.56371 0.0
C759 C 0.99477 0.88414 0.62435 0.0
C760 C 0.06696 0.82967 0.61351 0.0
C761 C 0.07966 0.84139 0.58486 0.0
C762 C 0.03732 0.82772 0.6161 0.0
C763 C 0.02009 0.83824 0.58973 0.0
C764 C 0.03287 0.84935 0.5603 0.0
C765 C 0.06251 0.85057 0.5581 0.0
C766 C 0.02445 0.81523 0.64752 0.0
C767 C 0.01527 0.86113 0.53183 0.0
H768 H 0.92784 0.80847 0.56916 0.0
H769 H 0.93778 0.88257 0.62183 0.0
H770 H 0.99436 0.80073 0.53973 0.0
H771 H 0.99914 0.78601 0.58088 0.0
H772 H 0.96665 0.78041 0.55754 0.0
H773 H 0.98198 0.8998 0.637 0.0
H774 H 0.00994 0.87593 0.64325 0.0
H775 H 0.00742 0.89341 0.60364 0.0
H776 H 0.08018 0.82239 0.63415 0.0
H777 H 0.07222 0.85969 0.53592 0.0
H778 H 0.00815 0.80044 0.64013 0.0
H779 H 0.0137 0.83066 0.66301 0.0
H780 H 0.04063 0.80534 0.66376 0.0
H781 H 0.99969 0.84641 0.52235 0.0
H782 H 0.02846 0.86788 0.50998 0.0
H783 H 0.00311 0.87834 0.54169 0.0
C784 C 0.44004 0.88008 0.90014 0.0
C785 C 0.42248 0.85767 0.89965 0.0
C786 C 0.46964 0.87758 0.89897 0.0
C787 C 0.482 0.85206 0.89686 0.0
C788 C 0.46435 0.8294 0.89507 0.0
C789 C 0.43477 0.83247 0.89671 0.0
C790 C 0.48772 0.90222 0.90119 0.0
C791 C 0.47673 0.8019 0.89234 0.0
C792 C 0.55953 0.85014 0.87041 0.0
C793 C 0.57315 0.84818 0.90218 0.0
C794 C 0.5298 0.85047 0.86813 0.0
C795 C 0.51338 0.84915 0.89837 0.0
C796 C 0.52705 0.8465 0.93043 0.0
C797 C 0.55677 0.84589 0.93192 0.0
C798 C 0.51598 0.85296 0.83346 0.0
C799 C 0.51032 0.84523 0.96329 0.0
H800 H 0.43066 0.89961 0.90248 0.0
H801 H 0.42127 0.81509 0.8962 0.0
H802 H 0.50072 0.90161 0.92483 0.0
H803 H 0.50257 0.90311 0.87925 0.0
H804 H 0.47482 0.92064 0.90145 0.0
H805 H 0.46015 0.78654 0.88856 0.0
H806 H 0.49191 0.8009 0.87073 0.0
H807 H 0.4887 0.79713 0.91597 0.0
H808 H 0.57211 0.85181 0.84733 0.0
H809 H 0.56719 0.84442 0.95655 0.0
H810 H 0.50481 0.87225 0.83159 0.0
H811 H 0.49986 0.83717 0.83 0.0
H812 H 0.53161 0.85165 0.8123 0.0
H813 H 0.49835 0.86397 0.96684 0.0
H814 H 0.5241 0.84211 0.98597 0.0
H815 H 0.49459 0.82892 0.9621 0.0
C816 C 0.05816 0.1702 0.43691 0.0
C817 C 0.07135 0.15203 0.41499 0.0
C818 C 0.0285 0.17262 0.43772 0.0
C819 C 0.0117 0.15601 0.41671 0.0
C820 C 0.02499 0.13796 0.39411 0.0
C821 C 0.05467 0.13641 0.39325 0.0
C822 C 0.01512 0.19253 0.46158 0.0
C823 C 0.00784 0.11954 0.37177 0.0
C824 C 0.93715 0.13902 0.44575 0.0
C825 C 0.92055 0.15393 0.42308 0.0
C826 C 0.96683 0.13976 0.44415 0.0
C827 C 0.98026 0.15627 0.41978 0.0
C828 C 0.96361 0.17206 0.39757 0.0
C829 C 0.93389 0.17046 0.39921 0.0
C830 C 0.98381 0.12223 0.46785 0.0
C831 C 0.97717 0.19034 0.37178 0.0
H832 H 0.07104 0.18243 0.4536 0.0
H833 H 0.06481 0.12224 0.37638 0.0
H834 H 0.99976 0.20509 0.44746 0.0
H835 H 0.00316 0.18203 0.48188 0.0
H836 H 0.03113 0.20555 0.47392 0.0
H837 H 0.02141 0.10722 0.35488 0.0
H838 H 0.99491 0.10618 0.38804 0.0
H839 H 0.99295 0.13105 0.35562 0.0
H840 H 0.9269 0.1261 0.46412 0.0
H841 H 0.92109 0.18211 0.38177 0.0
H842 H 0.99872 0.13437 0.48319 0.0
H843 H 0.9967 0.1081 0.45266 0.0
H844 H 0.97012 0.11076 0.48559 0.0
H845 H 0.9926 0.20361 0.38466 0.0
H846 H 0.9613 0.20268 0.35811 0.0
H847 H 0.98912 0.17856 0.35267 0.0
C848 C 0.06641 0.66734 0.07547 0.0
C849 C 0.07969 0.64426 0.08743 0.0
C850 C 0.03674 0.66916 0.07377 0.0
C851 C 0.01998 0.64726 0.08392 0.0
C852 C 0.03327 0.62412 0.09669 0.0
C853 C 0.06298 0.62295 0.09847 0.0
C854 C 0.02334 0.69429 0.06042 0.0
C855 C 0.01615 0.60028 0.10757 0.0
C856 C 0.94159 0.65548 0.10388 0.0
C857 C 0.92899 0.64647 0.07355 0.0
C858 C 0.97121 0.65652 0.10733 0.0
C859 C 0.9886 0.64808 0.07993 0.0
C860 C 0.97597 0.63949 0.049 0.0
C861 C 0.94631 0.63892 0.04613 0.0
C862 C 0.98389 0.66613 0.14053 0.0
C863 C 0.99378 0.63016 0.01927 0.0
H864 H 0.07925 0.6839 0.06701 0.0
H865 H 0.07313 0.60504 0.10765 0.0
H866 H 0.01193 0.6901 0.03622 0.0
H867 H 0.00748 0.70184 0.07896 0.0
H868 H 0.03924 0.71008 0.05557 0.0
H869 H 0.02966 0.58413 0.1179 0.0
H870 H 1.0005 0.60604 0.12737 0.0
H871 H 0.00406 0.59249 0.0854 0.0
H872 H 0.92828 0.6614 0.12513 0.0
H873 H 0.93668 0.63187 0.02267 0.0
H874 H 0.99928 0.6823 0.13557 0.0
H875 H 0.9957 0.64975 0.153 0.0
H876 H 0.96751 0.67348 0.15859 0.0
H877 H 0.009 0.64585 0.01167 0.0
H878 H 0.98071 0.62479 0.99668 0.0
H879 H 0.00639 0.61258 0.027 0.0
C880 C 0.55568 0.37505 0.5952 0.0
C881 C 0.57442 0.35406 0.58888 0.0
C882 C 0.52628 0.37127 0.59413 0.0
C883 C 0.51529 0.34581 0.58672 0.0
C884 C 0.53407 0.32437 0.58101 0.0
C885 C 0.5635 0.32877 0.58206 0.0
C886 C 0.50698 0.3947 0.60025 0.0
C887 C 0.52308 0.29693 0.57325 0.0
C888 C 0.43791 0.33781 0.611 0.0
C889 C 0.4244 0.34384 0.58003 0.0
C890 C 0.46761 0.33686 0.61319 0.0
C891 C 0.48409 0.34221 0.58374 0.0
C892 C 0.47051 0.34696 0.55206 0.0
C893 C 0.44081 0.34768 0.55058 0.0
C894 C 0.48134 0.33153 0.64737 0.0
C895 C 0.48732 0.35279 0.52008 0.0
H896 H 0.56399 0.39465 0.60051 0.0
H897 H 0.57793 0.31248 0.57722 0.0
H898 H 0.49394 0.39847 0.57715 0.0
H899 H 0.4922 0.39036 0.62157 0.0
H900 H 0.51893 0.41304 0.6065 0.0
H901 H 0.54042 0.28212 0.57123 0.0
H902 H 0.50813 0.29049 0.5935 0.0
H903 H 0.51114 0.29717 0.54882 0.0
H904 H 0.42531 0.33469 0.63381 0.0
H905 H 0.43048 0.35223 0.52653 0.0
H906 H 0.49145 0.34994 0.65694 0.0
H907 H 0.49826 0.31639 0.64477 0.0
H908 H 0.46577 0.32463 0.66673 0.0
H909 H 0.49819 0.37217 0.52284 0.0
H910 H 0.4737 0.35354 0.49693 0.0
H911 H 0.50394 0.33753 0.51621 0.0
C912 C 0.05583 0.36666 0.92069 0.0
C913 C 0.07384 0.34818 0.90505 0.0
C914 C 0.02637 0.36316 0.9206 0.0
C915 C 0.01457 0.34053 0.90465 0.0
C916 C 0.03262 0.32165 0.88904 0.0
C917 C 0.06211 0.32575 0.88932 0.0
C918 C 0.00784 0.38385 0.93735 0.0
C919 C 0.02077 0.29722 0.87198 0.0
C920 C 0.93923 0.32522 0.93247 0.0
C921 C 0.92347 0.33726 0.90636 0.0
C922 C 0.96899 0.32489 0.93138 0.0
C923 C 0.98324 0.33721 0.90377 0.0
C924 C 0.96738 0.34851 0.87672 0.0
C925 C 0.93768 0.34825 0.87826 0.0
C926 C 0.98519 0.31234 0.96047 0.0
C927 C 0.98176 0.36205 0.84699 0.0
H928 H 0.06478 0.38403 0.93291 0.0
H929 H 0.07597 0.31137 0.87731 0.0
H930 H 0.99302 0.39237 0.91825 0.0
H931 H 0.99482 0.37463 0.95773 0.0
H932 H 0.02039 0.40024 0.94878 0.0
H933 H 0.0377 0.28409 0.86183 0.0
H934 H 0.00775 0.28581 0.89044 0.0
H935 H 0.00663 0.30303 0.85059 0.0
H936 H 0.92832 0.31656 0.95414 0.0
H937 H 0.9256 0.3576 0.85799 0.0
H938 H 0.99624 0.32795 0.97534 0.0
H939 H 0.00163 0.29867 0.95046 0.0
H940 H 0.97109 0.30116 0.97806 0.0
H941 H 0.99296 0.38003 0.85619 0.0
H942 H 0.96647 0.36804 0.82681 0.0
H943 H 0.9979 0.3488 0.83548 0.0
C944 C 0.57047 0.67382 0.42051 0.0
C945 C 0.58387 0.65201 0.40534 0.0
C946 C 0.54074 0.67552 0.42164 0.0
C947 C 0.52418 0.65452 0.40825 0.0
C948 C 0.53772 0.63238 0.39314 0.0
C949 C 0.56739 0.6316 0.39142 0.0
C950 C 0.52704 0.69976 0.43707 0.0
C951 C 0.52088 0.60926 0.37936 0.0
C952 C 0.449 0.644 0.44018 0.0
C953 C 0.43302 0.65215 0.41189 0.0
C954 C 0.47873 0.64508 0.4396 0.0
C955 C 0.4927 0.6553 0.41039 0.0
C956 C 0.47654 0.66466 0.38235 0.0
C957 C 0.44687 0.66257 0.38322 0.0
C958 C 0.4952 0.63425 0.46962 0.0
C959 C 0.49062 0.67635 0.35116 0.0
H960 H 0.58324 0.68967 0.43114 0.0
H961 H 0.57775 0.6146 0.37996 0.0
H962 H 0.5122 0.70883 0.41841 0.0
H963 H 0.51441 0.69407 0.45982 0.0
H964 H 0.54288 0.71488 0.44488 0.0
H965 H 0.53469 0.59328 0.36916 0.0
H966 H 0.50737 0.60084 0.39988 0.0
H967 H 0.50657 0.61604 0.35863 0.0
H968 H 0.43829 0.63577 0.46228 0.0
H969 H 0.43448 0.66906 0.36142 0.0
H970 H 0.51006 0.64944 0.47955 0.0
H971 H 0.50813 0.61706 0.46124 0.0
H972 H 0.48114 0.62777 0.4908 0.0
H973 H 0.50594 0.69195 0.35883 0.0
H974 H 0.47502 0.68509 0.3331 0.0
H975 H 0.50273 0.66076 0.33754 0.0
C976 C 0.25956 0.13365 0.17621 0.0
C977 C 0.28601 0.14632 0.17602 0.0
C978 C 0.24238 0.13392 0.2054 0.0
C979 C 0.25199 0.14702 0.23519 0.0
C980 C 0.27847 0.16025 0.235 0.0
C981 C 0.29518 0.15981 0.2053 0.0
C982 C 0.2142 0.11971 0.20457 0.0
C983 C 0.28943 0.17432 0.26639 0.0
C984 C 0.19797 0.16306 0.30415 0.0
C985 C 0.20188 0.14185 0.3268 0.0
C986 C 0.21426 0.16514 0.27424 0.0
C987 C 0.23495 0.1456 0.26703 0.0
C988 C 0.23899 0.12419 0.28986 0.0
C989 C 0.22234 0.12254 0.31943 0.0
C990 C 0.20929 0.18815 0.25031 0.0
C991 C 0.26089 0.10298 0.28306 0.0
H992 H 0.2523 0.12333 0.15354 0.0
H993 H 0.3156 0.16966 0.2052 0.0
H994 H 0.21441 0.10305 0.22307 0.0
H995 H 0.19695 0.13337 0.21238 0.0
H996 H 0.20917 0.11169 0.17882 0.0
H997 H 0.30983 0.18468 0.26157 0.0
H998 H 0.27365 0.18903 0.27543 0.0
H999 H 0.29262 0.15981 0.28735 0.0
H1000 H 0.1822 0.17806 0.30982 0.0
H1001 H 0.22553 0.10616 0.33694 0.0
H1002 H 0.20294 0.1807 0.22475 0.0
H1003 H 0.2292 0.19954 0.24691 0.0
H1004 H 0.19256 0.2018 0.25979 0.0
H1005 H 0.25606 0.09278 0.25863 0.0
H1006 H 0.26174 0.08792 0.30375 0.0
H1007 H 0.28218 0.11209 0.28041 0.0
C1008 C 0.30179 0.85266 0.79781 0.0
C1009 C 0.29263 0.86738 0.82607 0.0
C1010 C 0.28542 0.85151 0.76785 0.0
C1011 C 0.25919 0.86515 0.76645 0.0
C1012 C 0.24985 0.87998 0.79497 0.0
C1013 C 0.26678 0.88105 0.82436 0.0
C1014 C 0.29618 0.83578 0.73771 0.0
C1015 C 0.22189 0.89458 0.79454 0.0
C1016 C 0.22798 0.88331 0.6803 0.0
C1017 C 0.20792 0.86314 0.67551 0.0
C1018 C 0.245 0.88402 0.70964 0.0
C1019 C 0.24161 0.86428 0.73498 0.0
C1020 C 0.22113 0.84405 0.73051 0.0
C1021 C 0.20461 0.84363 0.70066 0.0
C1022 C 0.26676 0.90579 0.7134 0.0
C1023 C 0.21668 0.82289 0.75726 0.0
H1024 H 0.32176 0.84207 0.79908 0.0
H1025 H 0.25951 0.89232 0.84625 0.0
H1026 H 0.28081 0.81996 0.73109 0.0
H1027 H 0.29814 0.84886 0.71503 0.0
H1028 H 0.31712 0.82651 0.74283 0.0
H1029 H 0.21749 0.90483 0.8191 0.0
H1030 H 0.22182 0.90951 0.77373 0.0
H1031 H 0.20434 0.88051 0.78927 0.0
H1032 H 0.23074 0.89835 0.6608 0.0
H1033 H 0.18912 0.82802 0.69701 0.0
H1034 H 0.2882 0.89706 0.7165 0.0
H1035 H 0.2623 0.91759 0.73671 0.0
H1036 H 0.26705 0.91937 0.69105 0.0
H1037 H 0.23665 0.8117 0.76132 0.0
H1038 H 0.19971 0.8087 0.75003 0.0
H1039 H 0.21097 0.83218 0.78203 0.0
C1040 C 0.74172 0.87464 0.83007 0.0
C1041 C 0.71458 0.86366 0.82639 0.0
C1042 C 0.76028 0.87634 0.80215 0.0
C1043 C 0.75145 0.86677 0.76987 0.0
C1044 C 0.72403 0.85575 0.76598 0.0
C1045 C 0.7059 0.85435 0.79432 0.0
C1046 C 0.78934 0.88827 0.8072 0.0
C1047 C 0.7139 0.8453 0.73193 0.0
C1048 C 0.78721 0.89033 0.68854 0.0
C1049 C 0.80458 0.86864 0.68062 0.0
C1050 C 0.77036 0.89031 0.71807 0.0
C1051 C 0.7709 0.86805 0.74008 0.0
C1052 C 0.7891 0.84648 0.73278 0.0
C1053 C 0.80577 0.84705 0.70311 0.0
C1054 C 0.75132 0.91374 0.72515 0.0
C1055 C 0.79028 0.82243 0.7557 0.0
H1056 H 0.74852 0.88189 0.85484 0.0
H1057 H 0.68494 0.84584 0.79137 0.0
H1058 H 0.80589 0.87348 0.80072 0.0
H1059 H 0.79223 0.90538 0.78973 0.0
H1060 H 0.79282 0.89508 0.83388 0.0
H1061 H 0.69192 0.83746 0.73317 0.0
H1062 H 0.71465 0.86128 0.71247 0.0
H1063 H 0.72816 0.82922 0.72305 0.0
H1064 H 0.78626 0.90708 0.67124 0.0
H1065 H 0.81918 0.83025 0.69709 0.0
H1066 H 0.75512 0.92137 0.75135 0.0
H1067 H 0.72881 0.90745 0.72381 0.0
H1068 H 0.75466 0.93014 0.70665 0.0
H1069 H 0.79485 0.82846 0.78241 0.0
H1070 H 0.80666 0.80798 0.74742 0.0
H1071 H 0.76937 0.81236 0.75574 0.0
C1072 C 0.75199 0.13479 0.34032 0.0
C1073 C 0.78152 0.13649 0.33663 0.0
C1074 C 0.73419 0.13353 0.31164 0.0
C1075 C 0.74624 0.13399 0.27854 0.0
C1076 C 0.77605 0.13553 0.27466 0.0
C1077 C 0.79335 0.13676 0.3038 0.0
C1078 C 0.70251 0.13188 0.31674 0.0
C1079 C 0.78965 0.13604 0.23973 0.0
C1080 C 0.70448 0.10819 0.2026 0.0
C1081 C 0.6955 0.13183 0.18718 0.0
C1082 C 0.72052 0.10857 0.2328 0.0
C1083 C 0.7277 0.13317 0.24786 0.0
C1084 C 0.71796 0.15706 0.23296 0.0
C1085 C 0.70195 0.1561 0.20277 0.0
C1086 C 0.73046 0.08269 0.24805 0.0
C1087 C 0.72511 0.18366 0.24839 0.0
H1088 H 0.74274 0.13456 0.36567 0.0
H1089 H 0.81616 0.13806 0.30085 0.0
H1090 H 0.69205 0.1492 0.30465 0.0
H1091 H 0.69405 0.11386 0.3041 0.0
H1092 H 0.69655 0.13133 0.3442 0.0
H1093 H 0.81316 0.13698 0.24114 0.0
H1094 H 0.78354 0.11809 0.22513 0.0
H1095 H 0.78193 0.15346 0.22514 0.0
H1096 H 0.69955 0.08938 0.19063 0.0
H1097 H 0.69505 0.17442 0.19093 0.0
H1098 H 0.72394 0.08136 0.27523 0.0
H1099 H 0.75395 0.08176 0.2474 0.0
H1100 H 0.7219 0.06524 0.23415 0.0
H1101 H 0.71839 0.1843 0.27555 0.0
H1102 H 0.71481 0.20031 0.23454 0.0
H1103 H 0.7484 0.18672 0.24786 0.0
C1104 C 0.71008 0.65154 0.28581 0.0
C1105 C 0.72059 0.64115 0.31651 0.0
C1106 C 0.72637 0.65075 0.25583 0.0
C1107 C 0.75384 0.63945 0.25675 0.0
C1108 C 0.76469 0.62924 0.28779 0.0
C1109 C 0.74788 0.63014 0.3173 0.0
C1110 C 0.71406 0.66171 0.22311 0.0
C1111 C 0.79396 0.6172 0.28976 0.0
C1112 C 0.78457 0.61392 0.17352 0.0
C1113 C 0.8023 0.6349 0.16383 0.0
C1114 C 0.7688 0.6151 0.20383 0.0
C1115 C 0.77097 0.63774 0.22501 0.0
C1116 C 0.78923 0.65878 0.21568 0.0
C1117 C 0.80465 0.65714 0.18509 0.0
C1118 C 0.74948 0.59229 0.21293 0.0
C1119 C 0.79222 0.68314 0.23781 0.0
H1120 H 0.68899 0.66008 0.28512 0.0
H1121 H 0.75614 0.62218 0.34104 0.0
H1122 H 0.72811 0.67739 0.21272 0.0
H1123 H 0.71278 0.64579 0.2036 0.0
H1124 H 0.69254 0.67017 0.22684 0.0
H1125 H 0.79955 0.61083 0.3161 0.0
H1126 H 0.79528 0.59974 0.2726 0.0
H1127 H 0.81002 0.63171 0.28087 0.0
H1128 H 0.78265 0.5967 0.15712 0.0
H1129 H 0.81835 0.6734 0.17768 0.0
H1130 H 0.72725 0.59936 0.21462 0.0
H1131 H 0.75527 0.58423 0.23837 0.0
H1132 H 0.75049 0.57599 0.1939 0.0
H1133 H 0.77144 0.69328 0.24009 0.0
H1134 H 0.80792 0.69742 0.22738 0.0
H1135 H 0.79889 0.67739 0.26398 0.0
C1136 C 0.69149 0.35084 0.70656 0.0
C1137 C 0.69703 0.37128 0.68327 0.0
C1138 C 0.70693 0.34877 0.73712 0.0
C1139 C 0.72831 0.36763 0.74442 0.0
C1140 C 0.73321 0.38888 0.72158 0.0
C1141 C 0.7175 0.39044 0.69125 0.0
C1142 C 0.70108 0.32589 0.76096 0.0
C1143 C 0.75578 0.40942 0.72857 0.0
C1144 C 0.75773 0.37345 0.83441 0.0
C1145 C 0.78301 0.35898 0.83168 0.0
C1146 C 0.73951 0.37625 0.80629 0.0
C1147 C 0.74681 0.36427 0.7748 0.0
C1148 C 0.77222 0.3495 0.77198 0.0
C1149 C 0.79004 0.34705 0.80048 0.0
C1150 C 0.71258 0.39215 0.81017 0.0
C1151 C 0.78071 0.33646 0.73878 0.0
H1152 H 0.67565 0.336 0.70048 0.0
H1153 H 0.72179 0.40634 0.67336 0.0
H1154 H 0.71984 0.31264 0.76189 0.0
H1155 H 0.69738 0.33325 0.7873 0.0
H1156 H 0.6824 0.31407 0.75281 0.0
H1157 H 0.75564 0.42564 0.70936 0.0
H1158 H 0.75275 0.41817 0.75431 0.0
H1159 H 0.77698 0.3999 0.72829 0.0
H1160 H 0.75221 0.38267 0.85853 0.0
H1161 H 0.80953 0.33579 0.79829 0.0
H1162 H 0.69397 0.37978 0.80336 0.0
H1163 H 0.71286 0.40923 0.79233 0.0
H1164 H 0.7097 0.39973 0.8366 0.0
H1165 H 0.76385 0.32262 0.73027 0.0
H1166 H 0.80092 0.32527 0.74104 0.0
H1167 H 0.78317 0.35168 0.71854 0.0
C1168 C 0.29479 0.38608 0.691 0.0
C1169 C 0.28629 0.3707 0.66302 0.0
C1170 C 0.27815 0.38728 0.72071 0.0
C1171 C 0.25294 0.37211 0.72271 0.0
C1172 C 0.24415 0.35679 0.69431 0.0
C1173 C 0.26077 0.35657 0.66461 0.0
C1174 C 0.28782 0.40437 0.75017 0.0
C1175 C 0.21781 0.33981 0.69577 0.0
C1176 C 0.22898 0.35093 0.81102 0.0
C1177 C 0.20567 0.36757 0.81655 0.0
C1178 C 0.24437 0.35209 0.78044 0.0
C1179 C 0.23672 0.37088 0.75521 0.0
C1180 C 0.21342 0.38804 0.76088 0.0
C1181 C 0.19786 0.38591 0.79138 0.0
C1182 C 0.26862 0.33298 0.77501 0.0
C1183 C 0.2051 0.40874 0.7349 0.0
H1184 H 0.31444 0.39717 0.68966 0.0
H1185 H 0.25428 0.34453 0.64303 0.0
H1186 H 0.27032 0.41753 0.75861 0.0
H1187 H 0.29362 0.39166 0.77222 0.0
H1188 H 0.30643 0.41678 0.74338 0.0
H1189 H 0.21348 0.32965 0.67113 0.0
H1190 H 0.22024 0.32456 0.71601 0.0
H1191 H 0.19913 0.35205 0.70257 0.0
H1192 H 0.23491 0.33662 0.83042 0.0
H1193 H 0.17995 0.39892 0.79582 0.0
H1194 H 0.28869 0.34407 0.77137 0.0
H1195 H 0.26494 0.32121 0.75146 0.0
H1196 H 0.27135 0.31913 0.79683 0.0
H1197 H 0.22345 0.42183 0.72941 0.0
H1198 H 0.18709 0.42116 0.74373 0.0
H1199 H 0.19905 0.39908 0.71051 0.0
C1200 C 0.28137 0.61001 0.31522 0.0
C1201 C 0.29798 0.63251 0.32155 0.0
C1202 C 0.26402 0.60849 0.28614 0.0
C1203 C 0.26296 0.63018 0.26323 0.0
C1204 C 0.27957 0.65302 0.26964 0.0
C1205 C 0.29708 0.65381 0.29861 0.0
C1206 C 0.24697 0.58365 0.27981 0.0
C1207 C 0.27876 0.67665 0.24598 0.0
C1208 C 0.24 0.61981 0.17138 0.0
C1209 C 0.21197 0.62905 0.17202 0.0
C1210 C 0.25661 0.61951 0.20107 0.0
C1211 C 0.24495 0.62886 0.23212 0.0
C1212 C 0.21648 0.63775 0.2331 0.0
C1213 C 0.20025 0.63765 0.20299 0.0
C1214 C 0.28682 0.60967 0.19907 0.0
C1215 C 0.2034 0.64796 0.26575 0.0
H1216 H 0.28208 0.59349 0.33291 0.0
H1217 H 0.30973 0.67132 0.30359 0.0
H1218 H 0.22406 0.58854 0.27851 0.0
H1219 H 0.25295 0.57489 0.25483 0.0
H1220 H 0.25023 0.56852 0.30007 0.0
H1221 H 0.29243 0.69313 0.25508 0.0
H1222 H 0.28587 0.67075 0.22005 0.0
H1223 H 0.25669 0.68405 0.24358 0.0
H1224 H 0.24913 0.61304 0.1475 0.0
H1225 H 0.17859 0.64483 0.20356 0.0
H1226 H 0.29036 0.59378 0.2182 0.0
H1227 H 0.30165 0.62605 0.20523 0.0
H1228 H 0.29221 0.60185 0.17334 0.0
H1229 H 0.20509 0.63279 0.28617 0.0
H1230 H 0.18071 0.65333 0.26248 0.0
H1231 H 0.21513 0.66573 0.27464 0.0
loop_
_geom_bond_atom_site_label_1
_geom_bond_atom_site_label_2
_geom_bond_distance
_geom_bond_site_symmetry_2
_ccdc_geom_bond_type
In0 O1 2.294 . S
In0 O2 2.326 . S
In0 O6 2.266 . S
In0 O7 2.326 . S
In0 O8 2.266 . S
In0 O9 2.326 . S
In0 O11 2.294 . S
In0 O12 2.326 . S
O1 In0 2.294 . S
O1 C10 1.240 . S
O2 In0 2.326 . S
O2 C10 1.252 . S
C3 O6 1.252 . S
C3 O7 1.260 . S
C4 O11 1.240 . S
C4 O12 1.252 . S
C5 O8 1.252 . S
C5 O9 1.260 . S
O6 In0 2.266 . S
O6 C3 1.252 . S
O7 In0 2.326 . S
O7 C3 1.260 . S
O8 In0 2.266 . S
O8 C5 1.252 . S
O9 In0 2.326 . S
O9 C5 1.260 . S
C10 O1 1.240 . S
C10 O2 1.252 . S
O11 In0 2.294 . S
O11 C4 1.240 . S
O12 In0 2.326 . S
O12 C4 1.252 . S
In13 O14 2.294 . S
In13 O15 2.326 . S
In13 O19 2.266 . S
In13 O20 2.326 . S
In13 O21 2.266 . S
In13 O22 2.326 . S
In13 O24 2.294 . S
In13 O25 2.326 . S
O14 In13 2.294 . S
O14 C23 1.240 . S
O15 In13 2.326 . S
O15 C23 1.252 . S
C16 O19 1.252 . S
C16 O20 1.260 . S
C17 O24 1.240 . S
C17 O25 1.252 . S
C18 O21 1.252 . S
C18 O22 1.260 . S
O19 In13 2.266 . S
O19 C16 1.252 . S
O20 In13 2.326 . S
O20 C16 1.260 . S
O21 In13 2.266 . S
O21 C18 1.252 . S
O22 In13 2.326 . S
O22 C18 1.260 . S
C23 O14 1.240 . S
C23 O15 1.252 . S
O24 In13 2.294 . S
O24 C17 1.240 . S
O25 In13 2.326 . S
O25 C17 1.252 . S
In26 O27 2.294 . S
In26 O28 2.326 . S
In26 O32 2.266 . S
In26 O33 2.326 . S
In26 O34 2.266 . S
In26 O35 2.326 . S
In26 O37 2.294 . S
In26 O38 2.326 . S
O27 In26 2.294 . S
O27 C36 1.240 . S
O28 In26 2.326 . S
O28 C36 1.252 . S
C29 O32 1.252 . S
C29 O33 1.260 . S
C30 O37 1.240 . S
C30 O38 1.252 . S
C31 O34 1.252 . S
C31 O35 1.260 . S
O32 In26 2.266 . S
O32 C29 1.252 . S
O33 In26 2.326 . S
O33 C29 1.260 . S
O34 In26 2.266 . S
O34 C31 1.252 . S
O35 In26 2.326 . S
O35 C31 1.260 . S
C36 O27 1.240 . S
C36 O28 1.252 . S
O37 In26 2.294 . S
O37 C30 1.240 . S
O38 In26 2.326 . S
O38 C30 1.252 . S
In39 O40 2.294 . S
In39 O41 2.326 . S
In39 O45 2.266 . S
In39 O46 2.326 . S
In39 O47 2.266 . S
In39 O48 2.326 . S
In39 O50 2.294 . S
In39 O51 2.326 . S
O40 In39 2.294 . S
O40 C49 1.240 . S
O41 In39 2.326 . S
O41 C49 1.252 . S
C42 O45 1.252 . S
C42 O46 1.260 . S
C43 O50 1.240 . S
C43 O51 1.252 . S
C44 O47 1.252 . S
C44 O48 1.260 . S
O45 In39 2.266 . S
O45 C42 1.252 . S
O46 In39 2.326 . S
O46 C42 1.260 . S
O47 In39 2.266 . S
O47 C44 1.252 . S
O48 In39 2.326 . S
O48 C44 1.260 . S
C49 O40 1.240 . S
C49 O41 1.252 . S
O50 In39 2.294 . S
O50 C43 1.240 . S
O51 In39 2.326 . S
O51 C43 1.252 . S
In52 O53 2.294 . S
In52 O54 2.326 . S
In52 O58 2.266 . S
In52 O59 2.326 . S
In52 O60 2.266 . S
In52 O61 2.326 . S
In52 O63 2.294 . S
In52 O64 2.326 . S
O53 In52 2.294 . S
O53 C62 1.240 . S
O54 In52 2.326 . S
O54 C62 1.252 . S
C55 O58 1.252 . S
C55 O59 1.260 . S
C56 O63 1.240 . S
C56 O64 1.252 . S
C57 O60 1.252 . S
C57 O61 1.260 . S
O58 In52 2.266 . S
O58 C55 1.252 . S
O59 In52 2.326 . S
O59 C55 1.260 . S
O60 In52 2.266 . S
O60 C57 1.252 . S
O61 In52 2.326 . S
O61 C57 1.260 . S
C62 O53 1.240 . S
C62 O54 1.252 . S
O63 In52 2.294 . S
O63 C56 1.240 . S
O64 In52 2.326 . S
O64 C56 1.252 . S
In65 O66 2.294 . S
In65 O67 2.326 . S
In65 O71 2.266 . S
In65 O72 2.326 . S
In65 O73 2.266 . S
In65 O74 2.326 . S
In65 O76 2.294 . S
In65 O77 2.326 . S
O66 In65 2.294 . S
O66 C75 1.240 . S
O67 In65 2.326 . S
O67 C75 1.252 . S
C68 O71 1.252 . S
C68 O72 1.260 . S
C69 O76 1.240 . S
C69 O77 1.252 . S
C70 O73 1.252 . S
C70 O74 1.260 . S
O71 In65 2.266 . S
O71 C68 1.252 . S
O72 In65 2.326 . S
O72 C68 1.260 . S
O73 In65 2.266 . S
O73 C70 1.252 . S
O74 In65 2.326 . S
O74 C70 1.260 . S
C75 O66 1.240 . S
C75 O67 1.252 . S
O76 In65 2.294 . S
O76 C69 1.240 . S
O77 In65 2.326 . S
O77 C69 1.252 . S
In78 O79 2.294 . S
In78 O80 2.326 . S
In78 O84 2.266 . S
In78 O85 2.326 . S
In78 O86 2.266 . S
In78 O87 2.326 . S
In78 O89 2.294 . S
In78 O90 2.326 . S
O79 In78 2.294 . S
O79 C88 1.240 . S
O80 In78 2.326 . S
O80 C88 1.252 . S
C81 O84 1.252 . S
C81 O85 1.260 . S
C82 O89 1.240 . S
C82 O90 1.252 . S
C83 O86 1.252 . S
C83 O87 1.260 . S
O84 In78 2.266 . S
O84 C81 1.252 . S
O85 In78 2.326 . S
O85 C81 1.260 . S
O86 In78 2.266 . S
O86 C83 1.252 . S
O87 In78 2.326 . S
O87 C83 1.260 . S
C88 O79 1.240 . S
C88 O80 1.252 . S
O89 In78 2.294 . S
O89 C82 1.240 . S
O90 In78 2.326 . S
O90 C82 1.252 . S
In91 O92 2.294 . S
In91 O93 2.326 . S
In91 O97 2.266 . S
In91 O98 2.326 . S
In91 O99 2.266 . S
In91 O100 2.326 . S
In91 O102 2.294 . S
In91 O103 2.326 . S
O92 In91 2.294 . S
O92 C101 1.240 . S
O93 In91 2.326 . S
O93 C101 1.252 . S
C94 O97 1.252 . S
C94 O98 1.260 . S
C95 O102 1.240 . S
C95 O103 1.252 . S
C96 O99 1.252 . S
C96 O100 1.260 . S
O97 In91 2.266 . S
O97 C94 1.252 . S
O98 In91 2.326 . S
O98 C94 1.260 . S
O99 In91 2.266 . S
O99 C96 1.252 . S
O100 In91 2.326 . S
O100 C96 1.260 . S
C101 O92 1.240 . S
C101 O93 1.252 . S
O102 In91 2.294 . S
O102 C95 1.240 . S
O103 In91 2.326 . S
O103 C95 1.252 . S
In104 O105 2.294 . S
In104 O106 2.326 . S
In104 O110 2.266 . S
In104 O111 2.326 . S
In104 O112 2.266 . S
In104 O113 2.326 . S
In104 O115 2.294 . S
In104 O116 2.326 . S
O105 In104 2.294 . S
O105 C114 1.240 . S
O106 In104 2.326 . S
O106 C114 1.252 . S
C107 O110 1.252 . S
C107 O111 1.260 . S
C108 O115 1.240 . S
C108 O116 1.252 . S
C109 O112 1.252 . S
C109 O113 1.260 . S
O110 In104 2.266 . S
O110 C107 1.252 . S
O111 In104 2.326 . S
O111 C107 1.260 . S
O112 In104 2.266 . S
O112 C109 1.252 . S
O113 In104 2.326 . S
O113 C109 1.260 . S
C114 O105 1.240 . S
C114 O106 1.252 . S
O115 In104 2.294 . S
O115 C108 1.240 . S
O116 In104 2.326 . S
O116 C108 1.252 . S
In117 O118 2.294 . S
In117 O119 2.326 . S
In117 O123 2.266 . S
In117 O124 2.326 . S
In117 O125 2.266 . S
In117 O126 2.326 . S
In117 O128 2.294 . S
In117 O129 2.326 . S
O118 In117 2.294 . S
O118 C127 1.240 . S
O119 In117 2.326 . S
O119 C127 1.252 . S
C120 O123 1.252 . S
C120 O124 1.260 . S
C121 O128 1.240 . S
C121 O129 1.252 . S
C122 O125 1.252 . S
C122 O126 1.260 . S
O123 In117 2.266 . S
O123 C120 1.252 . S
O124 In117 2.326 . S
O124 C120 1.260 . S
O125 In117 2.266 . S
O125 C122 1.252 . S
O126 In117 2.326 . S
O126 C122 1.260 . S
C127 O118 1.240 . S
C127 O119 1.252 . S
O128 In117 2.294 . S
O128 C121 1.240 . S
O129 In117 2.326 . S
O129 C121 1.252 . S
In130 O131 2.294 . S
In130 O132 2.326 . S
In130 O136 2.266 . S
In130 O137 2.326 . S
In130 O138 2.266 . S
In130 O139 2.326 . S
In130 O141 2.294 . S
In130 O142 2.326 . S
O131 In130 2.294 . S
O131 C140 1.240 . S
O132 In130 2.326 . S
O132 C140 1.252 . S
C133 O136 1.252 . S
C133 O137 1.260 . S
C134 O141 1.240 . S
C134 O142 1.252 . S
C135 O138 1.252 . S
C135 O139 1.260 . S
O136 In130 2.266 . S
O136 C133 1.252 . S
O137 In130 2.326 . S
O137 C133 1.260 . S
O138 In130 2.266 . S
O138 C135 1.252 . S
O139 In130 2.326 . S
O139 C135 1.260 . S
C140 O131 1.240 . S
C140 O132 1.252 . S
O141 In130 2.294 . S
O141 C134 1.240 . S
O142 In130 2.326 . S
O142 C134 1.252 . S
In143 O144 2.294 . S
In143 O145 2.326 . S
In143 O149 2.266 . S
In143 O150 2.326 . S
In143 O151 2.266 . S
In143 O152 2.326 . S
In143 O154 2.294 . S
In143 O155 2.326 . S
O144 In143 2.294 . S
O144 C153 1.240 . S
O145 In143 2.326 . S
O145 C153 1.252 . S
C146 O149 1.252 . S
C146 O150 1.260 . S
C147 O154 1.240 . S
C147 O155 1.252 . S
C148 O151 1.252 . S
C148 O152 1.260 . S
O149 In143 2.266 . S
O149 C146 1.252 . S
O150 In143 2.326 . S
O150 C146 1.260 . S
O151 In143 2.266 . S
O151 C148 1.252 . S
O152 In143 2.326 . S
O152 C148 1.260 . S
C153 O144 1.240 . S
C153 O145 1.252 . S
O154 In143 2.294 . S
O154 C147 1.240 . S
O155 In143 2.326 . S
O155 C147 1.252 . S
In156 O157 2.294 . S
In156 O158 2.326 . S
In156 O162 2.266 . S
In156 O163 2.326 . S
In156 O164 2.266 . S
In156 O165 2.326 . S
In156 O167 2.294 . S
In156 O168 2.326 . S
O157 In156 2.294 . S
O157 C166 1.240 . S
O158 In156 2.326 . S
O158 C166 1.252 . S
C159 O162 1.252 . S
C159 O163 1.260 . S
C160 O167 1.240 . S
C160 O168 1.252 . S
C161 O164 1.252 . S
C161 O165 1.260 . S
O162 In156 2.266 . S
O162 C159 1.252 . S
O163 In156 2.326 . S
O163 C159 1.260 . S
O164 In156 2.266 . S
O164 C161 1.252 . S
O165 In156 2.326 . S
O165 C161 1.260 . S
C166 O157 1.240 . S
C166 O158 1.252 . S
O167 In156 2.294 . S
O167 C160 1.240 . S
O168 In156 2.326 . S
O168 C160 1.252 . S
In169 O170 2.294 . S
In169 O171 2.326 . S
In169 O175 2.266 . S
In169 O176 2.326 . S
In169 O177 2.266 . S
In169 O178 2.326 . S
In169 O180 2.294 . S
In169 O181 2.326 . S
O170 In169 2.294 . S
O170 C179 1.240 . S
O171 In169 2.326 . S
O171 C179 1.252 . S
C172 O175 1.252 . S
C172 O176 1.260 . S
C173 O180 1.240 . S
C173 O181 1.252 . S
C174 O177 1.252 . S
C174 O178 1.260 . S
O175 In169 2.266 . S
O175 C172 1.252 . S
O176 In169 2.326 . S
O176 C172 1.260 . S
O177 In169 2.266 . S
O177 C174 1.252 . S
O178 In169 2.326 . S
O178 C174 1.260 . S
C179 O170 1.240 . S
C179 O171 1.252 . S
O180 In169 2.294 . S
O180 C173 1.240 . S
O181 In169 2.326 . S
O181 C173 1.252 . S
In182 O183 2.294 . S
In182 O184 2.326 . S
In182 O188 2.266 . S
In182 O189 2.326 . S
In182 O190 2.266 . S
In182 O191 2.326 . S
In182 O193 2.294 . S
In182 O194 2.326 . S
O183 In182 2.294 . S
O183 C192 1.240 . S
O184 In182 2.326 . S
O184 C192 1.252 . S
C185 O188 1.252 . S
C185 O189 1.260 . S
C186 O193 1.240 . S
C186 O194 1.252 . S
C187 O190 1.252 . S
C187 O191 1.260 . S
O188 In182 2.266 . S
O188 C185 1.252 . S
O189 In182 2.326 . S
O189 C185 1.260 . S
O190 In182 2.266 . S
O190 C187 1.252 . S
O191 In182 2.326 . S
O191 C187 1.260 . S
C192 O183 1.240 . S
C192 O184 1.252 . S
O193 In182 2.294 . S
O193 C186 1.240 . S
O194 In182 2.326 . S
O194 C186 1.252 . S
In195 O196 2.294 . S
In195 O197 2.326 . S
In195 O201 2.266 . S
In195 O202 2.326 . S
In195 O203 2.266 . S
In195 O204 2.326 . S
In195 O206 2.294 . S
In195 O207 2.326 . S
O196 In195 2.294 . S
O196 C205 1.240 . S
O197 In195 2.326 . S
O197 C205 1.252 . S
C198 O201 1.252 . S
C198 O202 1.260 . S
C199 O206 1.240 . S
C199 O207 1.252 . S
C200 O203 1.252 . S
C200 O204 1.260 . S
O201 In195 2.266 . S
O201 C198 1.252 . S
O202 In195 2.326 . S
O202 C198 1.260 . S
O203 In195 2.266 . S
O203 C200 1.252 . S
O204 In195 2.326 . S
O204 C200 1.260 . S
C205 O196 1.240 . S
C205 O197 1.252 . S
O206 In195 2.294 . S
O206 C199 1.240 . S
O207 In195 2.326 . S
O207 C199 1.252 . S
C208 C209 1.391 . S
C208 C210 1.394 . S
C208 H224 0.931 . S
C209 C208 1.391 . S
C209 C213 1.376 . S
C210 C208 1.394 . S
C210 C211 1.369 1_554 S
C210 C214 1.531 . S
C211 C210 1.369 1_556 S
C211 C212 1.410 . S
C211 C219 1.503 . S
C212 C211 1.410 . S
C212 C213 1.392 1_556 S
C212 C215 1.511 . S
C213 C209 1.376 . S
C213 C212 1.392 1_554 S
C213 H225 0.929 . S
C214 C210 1.531 . S
C214 H226 0.960 1_554 S
C214 H227 0.962 . S
C214 H228 0.960 . S
C215 C212 1.511 . S
C215 H229 0.961 . S
C215 H230 0.961 . S
C215 H231 0.961 . S
C216 C217 1.370 . S
C216 C218 1.363 . S
C216 H232 0.931 . S
C217 C216 1.370 . S
C217 C221 1.408 . S
C218 C216 1.363 . S
C218 C219 1.370 . S
C218 C222 1.524 1_556 S
C219 C211 1.503 . S
C219 C218 1.370 . S
C219 C220 1.403 . S
C220 C219 1.403 . S
C220 C221 1.404 . S
C220 C223 1.539 . S
C221 C217 1.408 . S
C221 C220 1.404 . S
C221 H233 0.930 . S
C222 C218 1.524 1_554 S
C222 H234 0.956 . S
C222 H235 0.961 . S
C222 H236 0.961 . S
C223 C220 1.539 . S
C223 H237 0.958 . S
C223 H238 0.961 . S
C223 H239 0.960 . S
H224 C208 0.931 . S
H225 C213 0.929 . S
H226 C214 0.960 1_556 S
H227 C214 0.962 . S
H228 C214 0.960 . S
H229 C215 0.961 . S
H230 C215 0.961 . S
H231 C215 0.961 . S
H232 C216 0.931 . S
H233 C221 0.930 . S
H234 C222 0.956 . S
H235 C222 0.961 . S
H236 C222 0.961 . S
H237 C223 0.958 . S
H238 C223 0.961 . S
H239 C223 0.960 . S
C240 C241 1.391 . S
C240 C242 1.394 . S
C240 H256 0.931 . S
C241 C240 1.391 . S
C241 C245 1.376 . S
C242 C240 1.394 . S
C242 C243 1.369 . S
C242 C246 1.531 . S
C243 C242 1.369 . S
C243 C244 1.410 . S
C243 C251 1.503 . S
C244 C243 1.410 . S
C244 C245 1.392 . S
C244 C247 1.511 . S
C245 C241 1.376 . S
C245 C244 1.392 . S
C245 H257 0.929 . S
C246 C242 1.531 . S
C246 H258 0.960 . S
C246 H259 0.962 . S
C246 H260 0.960 . S
C247 C244 1.511 . S
C247 H261 0.961 . S
C247 H262 0.961 . S
C247 H263 0.961 . S
C248 C249 1.370 . S
C248 C250 1.363 . S
C248 H264 0.931 . S
C249 C248 1.370 . S
C249 C253 1.408 . S
C250 C248 1.363 . S
C250 C251 1.370 . S
C250 C254 1.524 . S
C251 C243 1.503 . S
C251 C250 1.370 . S
C251 C252 1.403 . S
C252 C251 1.403 . S
C252 C253 1.404 . S
C252 C255 1.539 . S
C253 C249 1.408 . S
C253 C252 1.404 . S
C253 H265 0.930 . S
C254 C250 1.524 . S
C254 H266 0.956 . S
C254 H267 0.961 . S
C254 H268 0.961 . S
C255 C252 1.539 . S
C255 H269 0.958 . S
C255 H270 0.961 . S
C255 H271 0.960 . S
H256 C240 0.931 . S
H257 C245 0.929 . S
H258 C246 0.960 . S
H259 C246 0.962 . S
H260 C246 0.960 . S
H261 C247 0.961 . S
H262 C247 0.961 . S
H263 C247 0.961 . S
H264 C248 0.931 . S
H265 C253 0.930 . S
H266 C254 0.956 . S
H267 C254 0.961 . S
H268 C254 0.961 . S
H269 C255 0.958 . S
H270 C255 0.961 . S
H271 C255 0.960 . S
C272 C273 1.391 1_554 S
C272 C274 1.394 . S
C272 H288 0.931 . S
C273 C272 1.391 1_556 S
C273 C277 1.376 . S
C274 C272 1.394 . S
C274 C275 1.369 . S
C274 C278 1.531 . S
C275 C274 1.369 . S
C275 C276 1.410 1_554 S
C275 C283 1.503 . S
C276 C275 1.410 1_556 S
C276 C277 1.392 . S
C276 C279 1.511 . S
C277 C273 1.376 . S
C277 C276 1.392 . S
C277 H289 0.929 . S
C278 C274 1.531 . S
C278 H290 0.960 . S
C278 H291 0.962 . S
C278 H292 0.960 . S
C279 C276 1.511 . S
C279 H293 0.961 . S
C279 H294 0.961 . S
C279 H295 0.961 . S
C280 C281 1.370 . S
C280 C282 1.363 . S
C280 H296 0.931 . S
C281 C280 1.370 . S
C281 C285 1.408 . S
C282 C280 1.363 . S
C282 C283 1.370 . S
C282 C286 1.524 1_554 S
C283 C275 1.503 . S
C283 C282 1.370 . S
C283 C284 1.403 . S
C284 C283 1.403 . S
C284 C285 1.404 . S
C284 C287 1.539 . S
C285 C281 1.408 . S
C285 C284 1.404 . S
C285 H297 0.930 . S
C286 C282 1.524 1_556 S
C286 H298 0.956 . S
C286 H299 0.961 . S
C286 H300 0.961 . S
C287 C284 1.539 . S
C287 H301 0.958 . S
C287 H302 0.961 . S
C287 H303 0.960 . S
H288 C272 0.931 . S
H289 C277 0.929 . S
H290 C278 0.960 . S
H291 C278 0.962 . S
H292 C278 0.960 . S
H293 C279 0.961 . S
H294 C279 0.961 . S
H295 C279 0.961 . S
H296 C280 0.931 . S
H297 C285 0.930 . S
H298 C286 0.956 . S
H299 C286 0.961 . S
H300 C286 0.961 . S
H301 C287 0.958 . S
H302 C287 0.961 . S
H303 C287 0.960 . S
C304 C305 1.391 . S
C304 C306 1.394 . S
C304 H320 0.931 . S
C305 C304 1.391 . S
C305 C309 1.376 . S
C306 C304 1.394 . S
C306 C307 1.369 . S
C306 C310 1.531 . S
C307 C306 1.369 . S
C307 C308 1.410 . S
C307 C315 1.503 . S
C308 C307 1.410 . S
C308 C309 1.392 . S
C308 C311 1.511 . S
C309 C305 1.376 . S
C309 C308 1.392 . S
C309 H321 0.929 . S
C310 C306 1.531 . S
C310 H322 0.960 . S
C310 H323 0.962 . S
C310 H324 0.960 . S
C311 C308 1.511 . S
C311 H325 0.961 . S
C311 H326 0.961 . S
C311 H327 0.961 . S
C312 C313 1.370 . S
C312 C314 1.363 . S
C312 H328 0.931 . S
C313 C312 1.370 . S
C313 C317 1.408 . S
C314 C312 1.363 . S
C314 C315 1.370 . S
C314 C318 1.524 . S
C315 C307 1.503 . S
C315 C314 1.370 . S
C315 C316 1.403 . S
C316 C315 1.403 . S
C316 C317 1.404 . S
C316 C319 1.539 . S
C317 C313 1.408 . S
C317 C316 1.404 . S
C317 H329 0.930 . S
C318 C314 1.524 . S
C318 H330 0.956 . S
C318 H331 0.961 . S
C318 H332 0.961 . S
C319 C316 1.539 . S
C319 H333 0.958 . S
C319 H334 0.961 . S
C319 H335 0.960 . S
H320 C304 0.931 . S
H321 C309 0.929 . S
H322 C310 0.960 . S
H323 C310 0.962 . S
H324 C310 0.960 . S
H325 C311 0.961 . S
H326 C311 0.961 . S
H327 C311 0.961 . S
H328 C312 0.931 . S
H329 C317 0.930 . S
H330 C318 0.956 . S
H331 C318 0.961 . S
H332 C318 0.961 . S
H333 C319 0.958 . S
H334 C319 0.961 . S
H335 C319 0.960 . S
C336 C337 1.391 . S
C336 C338 1.394 . S
C336 H352 0.931 . S
C337 C336 1.391 . S
C337 C341 1.376 . S
C338 C336 1.394 . S
C338 C339 1.369 . S
C338 C342 1.531 1_554 S
C339 C338 1.369 . S
C339 C340 1.410 . S
C339 C347 1.503 1_554 S
C340 C339 1.410 . S
C340 C341 1.392 . S
C340 C343 1.511 . S
C341 C337 1.376 . S
C341 C340 1.392 . S
C341 H353 0.929 . S
C342 C338 1.531 1_556 S
C342 H354 0.960 . S
C342 H355 0.962 . S
C342 H356 0.960 1_556 S
C343 C340 1.511 . S
C343 H357 0.961 . S
C343 H358 0.961 1_554 S
C343 H359 0.961 . S
C344 C345 1.370 . S
C344 C346 1.363 . S
C344 H360 0.931 . S
C345 C344 1.370 . S
C345 C349 1.408 . S
C346 C344 1.363 . S
C346 C347 1.370 . S
C346 C350 1.524 . S
C347 C339 1.503 1_556 S
C347 C346 1.370 . S
C347 C348 1.403 1_556 S
C348 C347 1.403 1_554 S
C348 C349 1.404 1_554 S
C348 C351 1.539 . S
C349 C345 1.408 . S
C349 C348 1.404 1_556 S
C349 H361 0.930 . S
C350 C346 1.524 . S
C350 H362 0.956 . S
C350 H363 0.961 . S
C350 H364 0.961 . S
C351 C348 1.539 . S
C351 H365 0.958 . S
C351 H366 0.961 . S
C351 H367 0.960 . S
H352 C336 0.931 . S
H353 C341 0.929 . S
H354 C342 0.960 . S
H355 C342 0.962 . S
H356 C342 0.960 1_554 S
H357 C343 0.961 . S
H358 C343 0.961 1_556 S
H359 C343 0.961 . S
H360 C344 0.931 . S
H361 C349 0.930 . S
H362 C350 0.956 . S
H363 C350 0.961 . S
H364 C350 0.961 . S
H365 C351 0.958 . S
H366 C351 0.961 . S
H367 C351 0.960 . S
C368 C369 1.391 . S
C368 C370 1.394 . S
C368 H384 0.931 . S
C369 C368 1.391 . S
C369 C373 1.376 . S
C370 C368 1.394 . S
C370 C371 1.369 . S
C370 C374 1.531 . S
C371 C370 1.369 . S
C371 C372 1.410 . S
C371 C379 1.503 . S
C372 C371 1.410 . S
C372 C373 1.392 . S
C372 C375 1.511 . S
C373 C369 1.376 . S
C373 C372 1.392 . S
C373 H385 0.929 . S
C374 C370 1.531 . S
C374 H386 0.960 . S
C374 H387 0.962 . S
C374 H388 0.960 . S
C375 C372 1.511 . S
C375 H389 0.961 . S
C375 H390 0.961 . S
C375 H391 0.961 . S
C376 C377 1.370 . S
C376 C378 1.363 . S
C376 H392 0.931 . S
C377 C376 1.370 . S
C377 C381 1.408 . S
C378 C376 1.363 . S
C378 C379 1.370 . S
C378 C382 1.524 . S
C379 C371 1.503 . S
C379 C378 1.370 . S
C379 C380 1.403 . S
C380 C379 1.403 . S
C380 C381 1.404 . S
C380 C383 1.539 . S
C381 C377 1.408 . S
C381 C380 1.404 . S
C381 H393 0.930 . S
C382 C378 1.524 . S
C382 H394 0.956 . S
C382 H395 0.961 . S
C382 H396 0.961 . S
C383 C380 1.539 . S
C383 H397 0.958 . S
C383 H398 0.961 . S
C383 H399 0.960 . S
H384 C368 0.931 . S
H385 C373 0.929 . S
H386 C374 0.960 . S
H387 C374 0.962 . S
H388 C374 0.960 . S
H389 C375 0.961 . S
H390 C375 0.961 . S
H391 C375 0.961 . S
H392 C376 0.931 . S
H393 C381 0.930 . S
H394 C382 0.956 . S
H395 C382 0.961 . S
H396 C382 0.961 . S
H397 C383 0.958 . S
H398 C383 0.961 . S
H399 C383 0.960 . S
C400 C401 1.391 . S
C400 C402 1.394 . S
C400 H416 0.931 . S
C401 C400 1.391 . S
C401 C405 1.366 1_556 S
C402 C400 1.394 . S
C402 C403 1.369 1_556 S
C402 C406 1.531 . S
C403 C402 1.369 1_554 S
C403 C404 1.410 . S
C403 C411 1.503 . S
C404 C403 1.410 . S
C404 C405 1.398 . S
C404 C407 1.511 . S
C405 C401 1.366 1_554 S
C405 C404 1.398 . S
C405 H417 0.933 . S
C406 C402 1.531 . S
C406 H418 0.960 . S
C406 H419 0.962 . S
C406 H420 0.960 . S
C407 C404 1.511 . S
C407 H421 0.961 . S
C407 H422 0.961 . S
C407 H423 0.961 . S
C408 C409 1.370 . S
C408 C410 1.363 . S
C408 H424 0.931 . S
C409 C408 1.370 . S
C409 C413 1.408 . S
C410 C408 1.363 . S
C410 C411 1.370 . S
C410 C414 1.524 1_554 S
C411 C403 1.503 . S
C411 C410 1.370 . S
C411 C412 1.403 . S
C412 C411 1.403 . S
C412 C413 1.404 . S
C412 C415 1.539 . S
C413 C409 1.408 . S
C413 C412 1.404 . S
C413 H425 0.930 . S
C414 C410 1.524 1_556 S
C414 H426 0.956 . S
C414 H427 0.961 . S
C414 H428 0.961 . S
C415 C412 1.539 . S
C415 H429 0.958 . S
C415 H430 0.961 . S
C415 H431 0.960 . S
H416 C400 0.931 . S
H417 C405 0.933 . S
H418 C406 0.960 . S
H419 C406 0.962 . S
H420 C406 0.960 . S
H421 C407 0.961 . S
H422 C407 0.961 . S
H423 C407 0.961 . S
H424 C408 0.931 . S
H425 C413 0.930 . S
H426 C414 0.956 . S
H427 C414 0.961 . S
H428 C414 0.961 . S
H429 C415 0.958 . S
H430 C415 0.961 . S
H431 C415 0.960 . S
C432 C433 1.391 . S
C432 C434 1.394 . S
C432 H448 0.931 . S
C433 C432 1.391 . S
C433 C437 1.376 . S
C434 C432 1.394 . S
C434 C435 1.369 . S
C434 C438 1.531 . S
C435 C434 1.369 . S
C435 C436 1.410 . S
C435 C443 1.503 . S
C436 C435 1.410 . S
C436 C437 1.392 . S
C436 C439 1.511 . S
C437 C433 1.376 . S
C437 C436 1.392 . S
C437 H449 0.929 . S
C438 C434 1.531 . S
C438 H450 0.960 . S
C438 H451 0.962 . S
C438 H452 0.960 . S
C439 C436 1.511 . S
C439 H453 0.961 . S
C439 H454 0.961 . S
C439 H455 0.961 . S
C440 C441 1.370 . S
C440 C442 1.363 . S
C440 H456 0.931 . S
C441 C440 1.370 . S
C441 C445 1.408 . S
C442 C440 1.363 . S
C442 C443 1.370 . S
C442 C446 1.524 . S
C443 C435 1.503 . S
C443 C442 1.370 . S
C443 C444 1.403 . S
C444 C443 1.403 . S
C444 C445 1.404 . S
C444 C447 1.539 . S
C445 C441 1.408 . S
C445 C444 1.404 . S
C445 H457 0.930 . S
C446 C442 1.524 . S
C446 H458 0.956 . S
C446 H459 0.961 . S
C446 H460 0.961 . S
C447 C444 1.539 . S
C447 H461 0.958 . S
C447 H462 0.961 . S
C447 H463 0.960 . S
H448 C432 0.931 . S
H449 C437 0.929 . S
H450 C438 0.960 . S
H451 C438 0.962 . S
H452 C438 0.960 . S
H453 C439 0.961 . S
H454 C439 0.961 . S
H455 C439 0.961 . S
H456 C440 0.931 . S
H457 C445 0.930 . S
H458 C446 0.956 . S
H459 C446 0.961 . S
H460 C446 0.961 . S
H461 C447 0.958 . S
H462 C447 0.961 . S
H463 C447 0.960 . S
C464 C465 1.391 . S
C464 C466 1.394 1_554 S
C464 H480 0.931 . S
C465 C464 1.391 . S
C465 C469 1.376 . S
C466 C464 1.394 1_556 S
C466 C467 1.369 . S
C466 C470 1.531 . S
C467 C466 1.369 . S
C467 C468 1.410 1_556 S
C467 C475 1.503 1_545 S
C468 C467 1.410 1_554 S
C468 C469 1.392 . S
C468 C471 1.511 . S
C469 C465 1.376 . S
C469 C468 1.392 . S
C469 H481 0.929 . S
C470 C466 1.531 . S
C470 H482 0.960 . S
C470 H483 0.935 1_556 S
C470 H484 0.960 . S
C471 C468 1.511 . S
C471 H485 0.961 . S
C471 H486 0.961 1_545 S
C471 H487 0.961 1_554 S
C472 C473 1.370 1_554 S
C472 C474 1.363 . S
C472 H488 0.931 . S
C473 C472 1.370 1_556 S
C473 C477 1.408 . S
C474 C472 1.363 . S
C474 C475 1.370 1_554 S
C474 C478 1.524 . S
C475 C467 1.503 1_565 S
C475 C474 1.370 1_556 S
C475 C476 1.403 . S
C476 C475 1.403 . S
C476 C477 1.404 . S
C476 C479 1.539 . S
C477 C473 1.408 . S
C477 C476 1.404 . S
C477 H489 0.930 . S
C478 C474 1.524 . S
C478 H490 0.956 . S
C478 H491 0.961 . S
C478 H492 0.961 . S
C479 C476 1.539 . S
C479 H493 0.958 1_565 S
C479 H494 0.961 . S
C479 H495 0.960 1_565 S
H480 C464 0.931 . S
H481 C469 0.929 . S
H482 C470 0.960 . S
H483 C470 0.935 1_554 S
H484 C470 0.960 . S
H485 C471 0.961 . S
H486 C471 0.961 1_565 S
H487 C471 0.961 1_556 S
H488 C472 0.931 . S
H489 C477 0.930 . S
H490 C478 0.956 . S
H491 C478 0.961 . S
H492 C478 0.961 . S
H493 C479 0.958 1_545 S
H494 C479 0.961 . S
H495 C479 0.960 1_545 S
C496 C497 1.391 . S
C496 C498 1.394 . S
C496 H512 0.931 . S
C497 C496 1.391 . S
C497 C501 1.376 . S
C498 C496 1.394 . S
C498 C499 1.369 . S
C498 C502 1.531 . S
C499 C498 1.369 . S
C499 C500 1.410 . S
C499 C507 1.503 1_565 S
C500 C499 1.410 . S
C500 C501 1.392 . S
C500 C503 1.511 . S
C501 C497 1.376 . S
C501 C500 1.392 . S
C501 H513 0.929 . S
C502 C498 1.531 . S
C502 H514 0.960 1_565 S
C502 H515 0.962 . S
C502 H516 0.960 . S
C503 C500 1.511 . S
C503 H517 0.961 . S
C503 H518 0.961 . S
C503 H519 0.961 . S
C504 C505 1.370 . S
C504 C506 1.363 . S
C504 H520 0.931 . S
C505 C504 1.370 . S
C505 C509 1.408 . S
C506 C504 1.363 . S
C506 C507 1.370 . S
C506 C510 1.524 . S
C507 C499 1.503 1_545 S
C507 C506 1.370 . S
C507 C508 1.403 . S
C508 C507 1.403 . S
C508 C509 1.404 . S
C508 C511 1.539 . S
C509 C505 1.408 . S
C509 C508 1.404 . S
C509 H521 0.930 . S
C510 C506 1.524 . S
C510 H522 0.956 1_545 S
C510 H523 0.961 1_545 S
C510 H524 0.961 . S
C511 C508 1.539 . S
C511 H525 0.958 . S
C511 H526 0.961 . S
C511 H527 0.960 . S
H512 C496 0.931 . S
H513 C501 0.929 . S
H514 C502 0.960 1_545 S
H515 C502 0.962 . S
H516 C502 0.960 . S
H517 C503 0.961 . S
H518 C503 0.961 . S
H519 C503 0.961 . S
H520 C504 0.931 . S
H521 C509 0.930 . S
H522 C510 0.956 1_565 S
H523 C510 0.961 1_565 S
H524 C510 0.961 . S
H525 C511 0.958 . S
H526 C511 0.961 . S
H527 C511 0.960 . S
C528 C529 1.391 . S
C528 C530 1.394 1_556 S
C528 H544 0.931 . S
C529 C528 1.391 . S
C529 C533 1.376 . S
C530 C528 1.394 1_554 S
C530 C531 1.369 1_554 S
C530 C534 1.531 . S
C531 C530 1.369 1_556 S
C531 C532 1.410 . S
C531 C539 1.503 1_566 S
C532 C531 1.410 . S
C532 C533 1.392 . S
C532 C535 1.511 1_565 S
C533 C529 1.376 . S
C533 C532 1.392 . S
C533 H545 0.929 . S
C534 C530 1.531 . S
C534 H546 0.960 . S
C534 H547 0.962 . S
C534 H548 0.960 . S
C535 C532 1.511 1_545 S
C535 H549 0.961 . S
C535 H550 0.961 . S
C535 H551 0.961 . S
C536 C537 1.370 . S
C536 C538 1.363 . S
C536 H552 0.931 . S
C537 C536 1.370 . S
C537 C541 1.408 . S
C538 C536 1.363 . S
C538 C539 1.370 . S
C538 C542 1.524 1_554 S
C539 C531 1.503 1_544 S
C539 C538 1.370 . S
C539 C540 1.403 . S
C540 C539 1.403 . S
C540 C541 1.404 . S
C540 C543 1.539 . S
C541 C537 1.408 . S
C541 C540 1.404 . S
C541 H553 0.930 . S
C542 C538 1.524 1_556 S
C542 H554 0.987 1_556 S
C542 H555 0.961 . S
C542 H556 0.961 . S
C543 C540 1.539 . S
C543 H557 0.958 1_545 S
C543 H558 0.961 . S
C543 H559 0.960 1_545 S
H544 C528 0.931 . S
H545 C533 0.929 . S
H546 C534 0.960 . S
H547 C534 0.962 . S
H548 C534 0.960 . S
H549 C535 0.961 . S
H550 C535 0.961 . S
H551 C535 0.961 . S
H552 C536 0.931 . S
H553 C541 0.930 . S
H554 C542 0.987 1_554 S
H555 C542 0.961 . S
H556 C542 0.961 . S
H557 C543 0.958 1_565 S
H558 C543 0.961 . S
H559 C543 0.960 1_565 S
C560 C561 1.391 . S
C560 C562 1.394 . S
C560 H576 0.931 . S
C561 C560 1.391 . S
C561 C565 1.376 . S
C562 C560 1.394 . S
C562 C563 1.369 . S
C562 C566 1.531 1_545 S
C563 C562 1.369 . S
C563 C564 1.410 . S
C563 C571 1.503 1_545 S
C564 C563 1.410 . S
C564 C565 1.392 . S
C564 C567 1.511 . S
C565 C561 1.376 . S
C565 C564 1.392 . S
C565 H577 0.929 . S
C566 C562 1.531 1_565 S
C566 H578 0.960 . S
C566 H579 0.962 . S
C566 H580 0.960 . S
C567 C564 1.511 . S
C567 H581 0.961 . S
C567 H582 0.961 . S
C567 H583 0.961 . S
C568 C569 1.370 . S
C568 C570 1.363 . S
C568 H584 0.931 . S
C569 C568 1.370 . S
C569 C573 1.408 . S
C570 C568 1.363 . S
C570 C571 1.370 . S
C570 C574 1.524 . S
C571 C563 1.503 1_565 S
C571 C570 1.370 . S
C571 C572 1.403 . S
C572 C571 1.403 . S
C572 C573 1.404 . S
C572 C575 1.539 . S
C573 C569 1.408 . S
C573 C572 1.404 . S
C573 H585 0.930 . S
C574 C570 1.524 . S
C574 H586 0.956 . S
C574 H587 0.961 1_565 S
C574 H588 0.961 . S
C575 C572 1.539 . S
C575 H589 0.958 . S
C575 H590 0.961 . S
C575 H591 0.960 1_565 S
H576 C560 0.931 . S
H577 C565 0.929 . S
H578 C566 0.960 . S
H579 C566 0.962 . S
H580 C566 0.960 . S
H581 C567 0.961 . S
H582 C567 0.961 . S
H583 C567 0.961 . S
H584 C568 0.931 . S
H585 C573 0.930 . S
H586 C574 0.956 . S
H587 C574 0.961 1_545 S
H588 C574 0.961 . S
H589 C575 0.958 . S
H590 C575 0.961 . S
H591 C575 0.960 1_545 S
C592 C593 1.391 1_554 S
C592 C594 1.394 . S
C592 H608 0.931 . S
C593 C592 1.391 1_556 S
C593 C597 1.376 . S
C594 C592 1.394 . S
C594 C595 1.369 . S
C594 C598 1.531 . S
C595 C594 1.369 . S
C595 C596 1.410 1_554 S
C595 C603 1.503 . S
C596 C595 1.410 1_556 S
C596 C597 1.392 . S
C596 C599 1.511 . S
C597 C593 1.376 . S
C597 C596 1.392 . S
C597 H609 0.929 . S
C598 C594 1.531 . S
C598 H610 0.960 . S
C598 H611 0.962 . S
C598 H612 0.960 . S
C599 C596 1.511 . S
C599 H613 0.961 . S
C599 H614 0.961 . S
C599 H615 0.961 . S
C600 C601 1.370 1_556 S
C600 C602 1.363 . S
C600 H616 0.931 . S
C601 C600 1.370 1_554 S
C601 C605 1.408 . S
C602 C600 1.363 . S
C602 C603 1.370 1_556 S
C602 C606 1.524 . S
C603 C595 1.503 . S
C603 C602 1.370 1_554 S
C603 C604 1.403 . S
C604 C603 1.403 . S
C604 C605 1.404 . S
C604 C607 1.539 . S
C605 C601 1.408 . S
C605 C604 1.404 . S
C605 H617 0.930 . S
C606 C602 1.524 . S
C606 H618 0.956 . S
C606 H619 0.961 . S
C606 H620 0.961 . S
C607 C604 1.539 . S
C607 H621 0.958 . S
C607 H622 0.961 . S
C607 H623 0.960 . S
H608 C592 0.931 . S
H609 C597 0.929 . S
H610 C598 0.960 . S
H611 C598 0.962 . S
H612 C598 0.960 . S
H613 C599 0.961 . S
H614 C599 0.961 . S
H615 C599 0.961 . S
H616 C600 0.931 . S
H617 C605 0.930 . S
H618 C606 0.956 . S
H619 C606 0.961 . S
H620 C606 0.961 . S
H621 C607 0.958 . S
H622 C607 0.961 . S
H623 C607 0.960 . S
C624 C625 1.391 . S
C624 C626 1.394 . S
C624 H640 0.931 . S
C625 C624 1.391 . S
C625 C629 1.376 . S
C626 C624 1.394 . S
C626 C627 1.369 . S
C626 C630 1.531 . S
C627 C626 1.369 . S
C627 C628 1.410 . S
C627 C635 1.503 . S
C628 C627 1.410 . S
C628 C629 1.392 . S
C628 C631 1.511 . S
C629 C625 1.376 . S
C629 C628 1.392 . S
C629 H641 0.929 . S
C630 C626 1.531 . S
C630 H642 0.960 . S
C630 H643 0.962 . S
C630 H644 0.960 . S
C631 C628 1.511 . S
C631 H645 0.961 . S
C631 H646 0.961 . S
C631 H647 0.961 . S
C632 C633 1.370 . S
C632 C634 1.363 . S
C632 H648 0.931 . S
C633 C632 1.370 . S
C633 C637 1.408 . S
C634 C632 1.363 . S
C634 C635 1.370 . S
C634 C638 1.524 . S
C635 C627 1.503 . S
C635 C634 1.370 . S
C635 C636 1.403 . S
C636 C635 1.403 . S
C636 C637 1.404 . S
C636 C639 1.539 . S
C637 C633 1.408 . S
C637 C636 1.404 . S
C637 H649 0.930 . S
C638 C634 1.524 . S
C638 H650 0.956 . S
C638 H651 0.961 . S
C638 H652 0.961 . S
C639 C636 1.539 . S
C639 H653 0.958 . S
C639 H654 0.961 . S
C639 H655 0.960 . S
H640 C624 0.931 . S
H641 C629 0.929 . S
H642 C630 0.960 . S
H643 C630 0.962 . S
H644 C630 0.960 . S
H645 C631 0.961 . S
H646 C631 0.961 . S
H647 C631 0.961 . S
H648 C632 0.931 . S
H649 C637 0.930 . S
H650 C638 0.956 . S
H651 C638 0.961 . S
H652 C638 0.961 . S
H653 C639 0.958 . S
H654 C639 0.961 . S
H655 C639 0.960 . S
C656 C657 1.391 . S
C656 C658 1.394 . S
C656 H672 0.931 . S
C657 C656 1.391 . S
C657 C661 1.376 . S
C658 C656 1.394 . S
C658 C659 1.369 . S
C658 C662 1.531 . S
C659 C658 1.369 . S
C659 C660 1.410 . S
C659 C667 1.503 1_554 S
C660 C659 1.410 . S
C660 C661 1.392 . S
C660 C663 1.518 . S
C661 C657 1.376 . S
C661 C660 1.392 . S
C661 H673 0.929 . S
C662 C658 1.531 . S
C662 H674 0.960 . S
C662 H675 0.962 . S
C662 H676 0.960 . S
C663 C660 1.518 . S
C663 H677 0.957 1_554 S
C663 H678 0.949 1_554 S
C663 H679 0.970 . S
C664 C665 1.370 . S
C664 C666 1.363 . S
C664 H680 0.931 . S
C665 C664 1.370 . S
C665 C669 1.408 . S
C666 C664 1.363 . S
C666 C667 1.370 . S
C666 C670 1.524 . S
C667 C659 1.503 1_556 S
C667 C666 1.370 . S
C667 C668 1.403 1_556 S
C668 C667 1.403 1_554 S
C668 C669 1.404 1_554 S
C668 C671 1.539 . S
C669 C665 1.408 . S
C669 C668 1.404 1_556 S
C669 H681 0.930 . S
C670 C666 1.524 . S
C670 H682 0.956 . S
C670 H683 0.961 . S
C670 H684 0.961 . S
C671 C668 1.539 . S
C671 H685 0.958 . S
C671 H686 0.961 . S
C671 H687 0.960 . S
H672 C656 0.931 . S
H673 C661 0.929 . S
H674 C662 0.960 . S
H675 C662 0.962 . S
H676 C662 0.960 . S
H677 C663 0.957 1_556 S
H678 C663 0.949 1_556 S
H679 C663 0.970 . S
H680 C664 0.931 . S
H681 C669 0.930 . S
H682 C670 0.956 . S
H683 C670 0.961 . S
H684 C670 0.961 . S
H685 C671 0.958 . S
H686 C671 0.961 . S
H687 C671 0.960 . S
C688 C689 1.391 . S
C688 C690 1.394 . S
C688 H704 0.931 . S
C689 C688 1.391 . S
C689 C693 1.376 . S
C690 C688 1.394 . S
C690 C691 1.369 . S
C690 C694 1.531 . S
C691 C690 1.369 . S
C691 C692 1.410 . S
C691 C699 1.503 . S
C692 C691 1.410 . S
C692 C693 1.392 . S
C692 C695 1.511 . S
C693 C689 1.376 . S
C693 C692 1.392 . S
C693 H705 0.929 . S
C694 C690 1.531 . S
C694 H706 0.960 . S
C694 H707 0.962 . S
C694 H708 0.960 . S
C695 C692 1.511 . S
C695 H709 0.961 . S
C695 H710 0.961 . S
C695 H711 0.961 . S
C696 C697 1.370 . S
C696 C698 1.363 . S
C696 H712 0.931 . S
C697 C696 1.370 . S
C697 C701 1.408 . S
C698 C696 1.363 . S
C698 C699 1.370 . S
C698 C702 1.524 . S
C699 C691 1.503 . S
C699 C698 1.370 . S
C699 C700 1.403 . S
C700 C699 1.403 . S
C700 C701 1.404 . S
C700 C703 1.539 . S
C701 C697 1.408 . S
C701 C700 1.404 . S
C701 H713 0.930 . S
C702 C698 1.524 . S
C702 H714 0.956 . S
C702 H715 0.961 . S
C702 H716 0.961 . S
C703 C700 1.539 . S
C703 H717 0.958 . S
C703 H718 0.961 . S
C703 H719 0.960 . S
H704 C688 0.931 . S
H705 C693 0.929 . S
H706 C694 0.960 . S
H707 C694 0.962 . S
H708 C694 0.960 . S
H709 C695 0.961 . S
H710 C695 0.961 . S
H711 C695 0.961 . S
H712 C696 0.931 . S
H713 C701 0.930 . S
H714 C702 0.956 . S
H715 C702 0.961 . S
H716 C702 0.961 . S
H717 C703 0.958 . S
H718 C703 0.961 . S
H719 C703 0.960 . S
C720 C721 1.391 . S
C720 C722 1.394 . S
C720 H736 0.931 . S
C721 C720 1.391 . S
C721 C725 1.376 . S
C722 C720 1.394 . S
C722 C723 1.369 . S
C722 C726 1.531 . S
C723 C722 1.369 . S
C723 C724 1.410 . S
C723 C731 1.503 . S
C724 C723 1.410 . S
C724 C725 1.392 . S
C724 C727 1.511 . S
C725 C721 1.376 . S
C725 C724 1.392 . S
C725 H737 0.929 . S
C726 C722 1.531 . S
C726 H738 0.960 . S
C726 H739 0.962 . S
C726 H740 0.960 . S
C727 C724 1.511 . S
C727 H741 0.961 . S
C727 H742 0.961 . S
C727 H743 0.961 . S
C728 C729 1.370 . S
C728 C730 1.363 . S
C728 H744 0.931 . S
C729 C728 1.370 . S
C729 C733 1.408 . S
C730 C728 1.363 . S
C730 C731 1.370 . S
C730 C734 1.524 . S
C731 C723 1.503 . S
C731 C730 1.370 . S
C731 C732 1.403 . S
C732 C731 1.403 . S
C732 C733 1.404 . S
C732 C735 1.539 . S
C733 C729 1.408 . S
C733 C732 1.404 . S
C733 H745 0.930 . S
C734 C730 1.524 . S
C734 H746 0.956 . S
C734 H747 0.961 . S
C734 H748 0.961 . S
C735 C732 1.539 . S
C735 H749 0.958 . S
C735 H750 0.961 . S
C735 H751 0.960 . S
H736 C720 0.931 . S
H737 C725 0.929 . S
H738 C726 0.960 . S
H739 C726 0.962 . S
H740 C726 0.960 . S
H741 C727 0.961 . S
H742 C727 0.961 . S
H743 C727 0.961 . S
H744 C728 0.931 . S
H745 C733 0.930 . S
H746 C734 0.956 . S
H747 C734 0.961 . S
H748 C734 0.961 . S
H749 C735 0.958 . S
H750 C735 0.961 . S
H751 C735 0.960 . S
C752 C753 1.391 . S
C752 C754 1.394 . S
C752 H768 0.931 . S
C753 C752 1.391 . S
C753 C757 1.376 . S
C754 C752 1.394 . S
C754 C755 1.369 . S
C754 C758 1.531 1_655 S
C755 C754 1.369 . S
C755 C756 1.410 . S
C755 C763 1.503 1_655 S
C756 C755 1.410 . S
C756 C757 1.392 . S
C756 C759 1.511 . S
C757 C753 1.376 . S
C757 C756 1.392 . S
C757 H769 0.929 . S
C758 C754 1.531 1_455 S
C758 H770 0.960 . S
C758 H771 0.962 . S
C758 H772 0.960 1_455 S
C759 C756 1.511 . S
C759 H773 0.961 . S
C759 H774 0.961 1_655 S
C759 H775 0.961 . S
C760 C761 1.370 . S
C760 C762 1.363 . S
C760 H776 0.931 . S
C761 C760 1.370 . S
C761 C765 1.408 . S
C762 C760 1.363 . S
C762 C763 1.370 . S
C762 C766 1.524 . S
C763 C755 1.503 1_455 S
C763 C762 1.370 . S
C763 C764 1.403 . S
C764 C763 1.403 . S
C764 C765 1.404 . S
C764 C767 1.539 . S
C765 C761 1.408 . S
C765 C764 1.404 . S
C765 H777 0.930 . S
C766 C762 1.524 . S
C766 H778 0.956 . S
C766 H779 0.961 . S
C766 H780 0.961 . S
C767 C764 1.539 . S
C767 H781 0.958 . S
C767 H782 0.961 . S
C767 H783 0.960 . S
H768 C752 0.931 . S
H769 C757 0.929 . S
H770 C758 0.960 . S
H771 C758 0.962 . S
H772 C758 0.960 1_655 S
H773 C759 0.961 . S
H774 C759 0.961 1_455 S
H775 C759 0.961 . S
H776 C760 0.931 . S
H777 C765 0.930 . S
H778 C766 0.956 . S
H779 C766 0.961 . S
H780 C766 0.961 . S
H781 C767 0.958 . S
H782 C767 0.961 . S
H783 C767 0.960 . S
C784 C785 1.391 . S
C784 C786 1.394 . S
C784 H800 0.931 . S
C785 C784 1.391 . S
C785 C789 1.376 . S
C786 C784 1.394 . S
C786 C787 1.369 . S
C786 C790 1.531 . S
C787 C786 1.369 . S
C787 C788 1.410 . S
C787 C795 1.503 . S
C788 C787 1.410 . S
C788 C789 1.392 . S
C788 C791 1.511 . S
C789 C785 1.376 . S
C789 C788 1.392 . S
C789 H801 0.929 . S
C790 C786 1.531 . S
C790 H802 0.960 . S
C790 H803 0.962 . S
C790 H804 0.960 . S
C791 C788 1.511 . S
C791 H805 0.961 . S
C791 H806 0.961 . S
C791 H807 0.961 . S
C792 C793 1.370 . S
C792 C794 1.363 . S
C792 H808 0.931 . S
C793 C792 1.370 . S
C793 C797 1.408 . S
C794 C792 1.363 . S
C794 C795 1.370 . S
C794 C798 1.524 . S
C795 C787 1.503 . S
C795 C794 1.370 . S
C795 C796 1.403 . S
C796 C795 1.403 . S
C796 C797 1.404 . S
C796 C799 1.539 . S
C797 C793 1.408 . S
C797 C796 1.404 . S
C797 H809 0.930 . S
C798 C794 1.524 . S
C798 H810 0.956 . S
C798 H811 0.961 . S
C798 H812 0.961 . S
C799 C796 1.539 . S
C799 H813 0.974 . S
C799 H814 0.953 1_556 S
C799 H815 0.960 . S
H800 C784 0.931 . S
H801 C789 0.929 . S
H802 C790 0.960 . S
H803 C790 0.962 . S
H804 C790 0.960 . S
H805 C791 0.961 . S
H806 C791 0.961 . S
H807 C791 0.961 . S
H808 C792 0.931 . S
H809 C797 0.930 . S
H810 C798 0.956 . S
H811 C798 0.961 . S
H812 C798 0.961 . S
H813 C799 0.974 . S
H814 C799 0.953 1_554 S
H815 C799 0.960 . S
C816 C817 1.391 . S
C816 C818 1.394 . S
C816 H832 0.931 . S
C817 C816 1.391 . S
C817 C821 1.376 . S
C818 C816 1.394 . S
C818 C819 1.369 . S
C818 C822 1.531 . S
C819 C818 1.369 . S
C819 C820 1.410 . S
C819 C827 1.503 1_455 S
C820 C819 1.410 . S
C820 C821 1.392 . S
C820 C823 1.511 . S
C821 C817 1.376 . S
C821 C820 1.392 . S
C821 H833 0.929 . S
C822 C818 1.531 . S
C822 H834 0.960 . S
C822 H835 0.962 . S
C822 H836 0.960 . S
C823 C820 1.511 . S
C823 H837 0.961 . S
C823 H838 0.961 . S
C823 H839 0.961 . S
C824 C825 1.370 . S
C824 C826 1.363 . S
C824 H840 0.931 . S
C825 C824 1.370 . S
C825 C829 1.408 . S
C826 C824 1.363 . S
C826 C827 1.370 . S
C826 C830 1.524 1_655 S
C827 C819 1.503 1_655 S
C827 C826 1.370 . S
C827 C828 1.403 . S
C828 C827 1.403 . S
C828 C829 1.404 . S
C828 C831 1.539 . S
C829 C825 1.408 . S
C829 C828 1.404 . S
C829 H841 0.930 . S
C830 C826 1.524 1_455 S
C830 H842 0.956 . S
C830 H843 0.961 . S
C830 H844 0.961 1_455 S
C831 C828 1.539 . S
C831 H845 0.958 . S
C831 H846 0.961 . S
C831 H847 0.960 1_655 S
H832 C816 0.931 . S
H833 C821 0.929 . S
H834 C822 0.960 . S
H835 C822 0.962 . S
H836 C822 0.960 . S
H837 C823 0.961 . S
H838 C823 0.961 . S
H839 C823 0.961 . S
H840 C824 0.931 . S
H841 C829 0.930 . S
H842 C830 0.956 . S
H843 C830 0.961 . S
H844 C830 0.961 1_655 S
H845 C831 0.958 . S
H846 C831 0.961 . S
H847 C831 0.960 1_455 S
C848 C849 1.391 . S
C848 C850 1.394 . S
C848 H864 0.931 . S
C849 C848 1.391 . S
C849 C853 1.376 . S
C850 C848 1.394 . S
C850 C851 1.369 . S
C850 C854 1.531 1_455 S
C851 C850 1.369 . S
C851 C852 1.410 . S
C851 C859 1.503 1_455 S
C852 C851 1.410 . S
C852 C853 1.392 . S
C852 C855 1.511 . S
C853 C849 1.376 . S
C853 C852 1.392 . S
C853 H865 0.929 . S
C854 C850 1.531 1_655 S
C854 H866 0.960 . S
C854 H867 0.962 . S
C854 H868 0.960 1_655 S
C855 C852 1.511 . S
C855 H869 0.961 . S
C855 H870 0.961 1_455 S
C855 H871 0.961 . S
C856 C857 1.370 . S
C856 C858 1.363 . S
C856 H872 0.931 . S
C857 C856 1.370 . S
C857 C861 1.408 . S
C858 C856 1.363 . S
C858 C859 1.370 . S
C858 C862 1.524 . S
C859 C851 1.503 1_655 S
C859 C858 1.370 . S
C859 C860 1.403 . S
C860 C859 1.403 . S
C860 C861 1.404 . S
C860 C863 1.539 . S
C861 C857 1.408 . S
C861 C860 1.404 . S
C861 H873 0.930 . S
C862 C858 1.524 . S
C862 H874 0.956 . S
C862 H875 0.961 . S
C862 H876 0.961 . S
C863 C860 1.539 . S
C863 H877 0.958 . S
C863 H878 0.961 . S
C863 H879 0.960 . S
H864 C848 0.931 . S
H865 C853 0.929 . S
H866 C854 0.960 . S
H867 C854 0.962 . S
H868 C854 0.960 1_455 S
H869 C855 0.961 . S
H870 C855 0.961 1_655 S
H871 C855 0.961 . S
H872 C856 0.931 . S
H873 C861 0.930 . S
H874 C862 0.956 . S
H875 C862 0.961 . S
H876 C862 0.961 . S
H877 C863 0.958 . S
H878 C863 0.961 . S
H879 C863 0.960 . S
C880 C881 1.391 . S
C880 C882 1.394 . S
C880 H896 0.931 . S
C881 C880 1.391 . S
C881 C885 1.376 . S
C882 C880 1.394 . S
C882 C883 1.369 . S
C882 C886 1.531 . S
C883 C882 1.369 . S
C883 C884 1.410 . S
C883 C891 1.503 . S
C884 C883 1.410 . S
C884 C885 1.392 . S
C884 C887 1.511 . S
C885 C881 1.376 . S
C885 C884 1.392 . S
C885 H897 0.929 . S
C886 C882 1.531 . S
C886 H898 0.960 . S
C886 H899 0.962 . S
C886 H900 0.960 . S
C887 C884 1.511 . S
C887 H901 0.961 . S
C887 H902 0.961 . S
C887 H903 0.961 . S
C888 C889 1.370 . S
C888 C890 1.363 . S
C888 H904 0.931 . S
C889 C888 1.370 . S
C889 C893 1.408 . S
C890 C888 1.363 . S
C890 C891 1.370 . S
C890 C894 1.524 . S
C891 C883 1.503 . S
C891 C890 1.370 . S
C891 C892 1.403 . S
C892 C891 1.403 . S
C892 C893 1.404 . S
C892 C895 1.539 . S
C893 C889 1.408 . S
C893 C892 1.404 . S
C893 H905 0.930 . S
C894 C890 1.524 . S
C894 H906 0.956 . S
C894 H907 0.961 . S
C894 H908 0.961 . S
C895 C892 1.539 . S
C895 H909 0.958 . S
C895 H910 0.961 . S
C895 H911 0.960 . S
H896 C880 0.931 . S
H897 C885 0.929 . S
H898 C886 0.960 . S
H899 C886 0.962 . S
H900 C886 0.960 . S
H901 C887 0.961 . S
H902 C887 0.961 . S
H903 C887 0.961 . S
H904 C888 0.931 . S
H905 C893 0.930 . S
H906 C894 0.956 . S
H907 C894 0.961 . S
H908 C894 0.961 . S
H909 C895 0.958 . S
H910 C895 0.961 . S
H911 C895 0.960 . S
C912 C913 1.391 . S
C912 C914 1.394 . S
C912 H928 0.931 . S
C913 C912 1.391 . S
C913 C917 1.376 . S
C914 C912 1.394 . S
C914 C915 1.369 . S
C914 C918 1.531 1_455 S
C915 C914 1.369 . S
C915 C916 1.410 . S
C915 C923 1.503 1_455 S
C916 C915 1.410 . S
C916 C917 1.392 . S
C916 C919 1.511 . S
C917 C913 1.376 . S
C917 C916 1.392 . S
C917 H929 0.929 . S
C918 C914 1.531 1_655 S
C918 H930 0.960 . S
C918 H931 0.962 . S
C918 H932 0.954 1_656 S
C919 C916 1.511 . S
C919 H933 0.961 . S
C919 H934 0.961 1_455 S
C919 H935 0.961 . S
C920 C921 1.370 . S
C920 C922 1.363 . S
C920 H936 0.931 . S
C921 C920 1.370 . S
C921 C925 1.408 . S
C922 C920 1.363 . S
C922 C923 1.370 . S
C922 C926 1.524 . S
C923 C915 1.503 1_655 S
C923 C922 1.370 . S
C923 C924 1.403 . S
C924 C923 1.403 . S
C924 C925 1.404 . S
C924 C927 1.539 . S
C925 C921 1.408 . S
C925 C924 1.404 . S
C925 H937 0.930 . S
C926 C922 1.524 . S
C926 H938 0.956 . S
C926 H939 0.961 . S
C926 H940 0.961 . S
C927 C924 1.539 . S
C927 H941 0.958 . S
C927 H942 0.961 . S
C927 H943 0.960 . S
H928 C912 0.931 . S
H929 C917 0.929 . S
H930 C918 0.960 . S
H931 C918 0.962 . S
H932 C918 0.954 1_454 S
H933 C919 0.961 . S
H934 C919 0.961 1_655 S
H935 C919 0.961 . S
H936 C920 0.931 . S
H937 C925 0.930 . S
H938 C926 0.956 . S
H939 C926 0.961 . S
H940 C926 0.961 . S
H941 C927 0.958 . S
H942 C927 0.961 . S
H943 C927 0.960 . S
C944 C945 1.391 . S
C944 C946 1.394 . S
C944 H960 0.931 . S
C945 C944 1.391 . S
C945 C949 1.376 . S
C946 C944 1.394 . S
C946 C947 1.369 . S
C946 C950 1.531 . S
C947 C946 1.369 . S
C947 C948 1.410 . S
C947 C955 1.503 . S
C948 C947 1.410 . S
C948 C949 1.392 . S
C948 C951 1.511 . S
C949 C945 1.376 . S
C949 C948 1.392 . S
C949 H961 0.929 . S
C950 C946 1.531 . S
C950 H962 0.960 . S
C950 H963 0.962 . S
C950 H964 0.960 . S
C951 C948 1.511 . S
C951 H965 0.961 . S
C951 H966 0.961 . S
C951 H967 0.961 . S
C952 C953 1.370 . S
C952 C954 1.363 . S
C952 H968 0.931 . S
C953 C952 1.370 . S
C953 C957 1.408 . S
C954 C952 1.363 . S
C954 C955 1.370 . S
C954 C958 1.524 . S
C955 C947 1.503 . S
C955 C954 1.370 . S
C955 C956 1.403 . S
C956 C955 1.403 . S
C956 C957 1.404 . S
C956 C959 1.539 . S
C957 C953 1.408 . S
C957 C956 1.404 . S
C957 H969 0.930 . S
C958 C954 1.524 . S
C958 H970 0.956 . S
C958 H971 0.961 . S
C958 H972 0.961 . S
C959 C956 1.539 . S
C959 H973 0.958 . S
C959 H974 0.961 . S
C959 H975 0.960 . S
H960 C944 0.931 . S
H961 C949 0.929 . S
H962 C950 0.960 . S
H963 C950 0.962 . S
H964 C950 0.960 . S
H965 C951 0.961 . S
H966 C951 0.961 . S
H967 C951 0.961 . S
H968 C952 0.931 . S
H969 C957 0.930 . S
H970 C958 0.956 . S
H971 C958 0.961 . S
H972 C958 0.961 . S
H973 C959 0.958 . S
H974 C959 0.961 . S
H975 C959 0.960 . S
C976 C977 1.391 . S
C976 C978 1.394 . S
C976 H992 0.931 . S
C977 C976 1.391 . S
C977 C981 1.376 . S
C978 C976 1.394 . S
C978 C979 1.369 . S
C978 C982 1.531 . S
C979 C978 1.369 . S
C979 C980 1.410 . S
C979 C987 1.503 . S
C980 C979 1.410 . S
C980 C981 1.392 . S
C980 C983 1.511 . S
C981 C977 1.376 . S
C981 C980 1.392 . S
C981 H993 0.929 . S
C982 C978 1.531 . S
C982 H994 0.960 . S
C982 H995 0.962 . S
C982 H996 0.960 . S
C983 C980 1.511 . S
C983 H997 0.961 . S
C983 H998 0.961 . S
C983 H999 0.961 . S
C984 C985 1.370 . S
C984 C986 1.363 . S
C984 H1000 0.931 . S
C985 C984 1.370 . S
C985 C989 1.408 . S
C986 C984 1.363 . S
C986 C987 1.370 . S
C986 C990 1.524 . S
C987 C979 1.503 . S
C987 C986 1.370 . S
C987 C988 1.403 . S
C988 C987 1.403 . S
C988 C989 1.404 . S
C988 C991 1.539 . S
C989 C985 1.408 . S
C989 C988 1.404 . S
C989 H1001 0.930 . S
C990 C986 1.524 . S
C990 H1002 0.956 . S
C990 H1003 0.961 . S
C990 H1004 0.961 . S
C991 C988 1.539 . S
C991 H1005 0.958 . S
C991 H1006 0.961 . S
C991 H1007 0.960 . S
H992 C976 0.931 . S
H993 C981 0.929 . S
H994 C982 0.960 . S
H995 C982 0.962 . S
H996 C982 0.960 . S
H997 C983 0.961 . S
H998 C983 0.961 . S
H999 C983 0.961 . S
H1000 C984 0.931 . S
H1001 C989 0.930 . S
H1002 C990 0.956 . S
H1003 C990 0.961 . S
H1004 C990 0.961 . S
H1005 C991 0.958 . S
H1006 C991 0.961 . S
H1007 C991 0.960 . S
C1008 C1009 1.391 . S
C1008 C1010 1.394 . S
C1008 H1024 0.931 . S
C1009 C1008 1.391 . S
C1009 C1013 1.376 . S
C1010 C1008 1.394 . S
C1010 C1011 1.369 . S
C1010 C1014 1.531 . S
C1011 C1010 1.369 . S
C1011 C1012 1.410 . S
C1011 C1019 1.503 . S
C1012 C1011 1.410 . S
C1012 C1013 1.392 . S
C1012 C1015 1.511 . S
C1013 C1009 1.376 . S
C1013 C1012 1.392 . S
C1013 H1025 0.929 . S
C1014 C1010 1.531 . S
C1014 H1026 0.960 . S
C1014 H1027 0.962 . S
C1014 H1028 0.960 . S
C1015 C1012 1.511 . S
C1015 H1029 0.961 . S
C1015 H1030 0.961 . S
C1015 H1031 0.961 . S
C1016 C1017 1.370 . S
C1016 C1018 1.363 . S
C1016 H1032 0.931 . S
C1017 C1016 1.370 . S
C1017 C1021 1.408 . S
C1018 C1016 1.363 . S
C1018 C1019 1.370 . S
C1018 C1022 1.524 . S
C1019 C1011 1.503 . S
C1019 C1018 1.370 . S
C1019 C1020 1.403 . S
C1020 C1019 1.403 . S
C1020 C1021 1.404 . S
C1020 C1023 1.539 . S
C1021 C1017 1.408 . S
C1021 C1020 1.404 . S
C1021 H1033 0.930 . S
C1022 C1018 1.524 . S
C1022 H1034 0.956 . S
C1022 H1035 0.961 . S
C1022 H1036 0.961 . S
C1023 C1020 1.539 . S
C1023 H1037 0.958 . S
C1023 H1038 0.961 . S
C1023 H1039 0.960 . S
H1024 C1008 0.931 . S
H1025 C1013 0.929 . S
H1026 C1014 0.960 . S
H1027 C1014 0.962 . S
H1028 C1014 0.960 . S
H1029 C1015 0.961 . S
H1030 C1015 0.961 . S
H1031 C1015 0.961 . S
H1032 C1016 0.931 . S
H1033 C1021 0.930 . S
H1034 C1022 0.956 . S
H1035 C1022 0.961 . S
H1036 C1022 0.961 . S
H1037 C1023 0.958 . S
H1038 C1023 0.961 . S
H1039 C1023 0.960 . S
C1040 C1041 1.391 . S
C1040 C1042 1.394 . S
C1040 H1056 0.931 . S
C1041 C1040 1.391 . S
C1041 C1045 1.376 . S
C1042 C1040 1.394 . S
C1042 C1043 1.369 . S
C1042 C1046 1.531 . S
C1043 C1042 1.369 . S
C1043 C1044 1.410 . S
C1043 C1051 1.503 . S
C1044 C1043 1.410 . S
C1044 C1045 1.392 . S
C1044 C1047 1.511 . S
C1045 C1041 1.376 . S
C1045 C1044 1.392 . S
C1045 H1057 0.929 . S
C1046 C1042 1.531 . S
C1046 H1058 0.960 . S
C1046 H1059 0.962 . S
C1046 H1060 0.960 . S
C1047 C1044 1.511 . S
C1047 H1061 0.961 . S
C1047 H1062 0.961 . S
C1047 H1063 0.961 . S
C1048 C1049 1.370 . S
C1048 C1050 1.363 . S
C1048 H1064 0.931 . S
C1049 C1048 1.370 . S
C1049 C1053 1.408 . S
C1050 C1048 1.363 . S
C1050 C1051 1.370 . S
C1050 C1054 1.524 . S
C1051 C1043 1.503 . S
C1051 C1050 1.370 . S
C1051 C1052 1.403 . S
C1052 C1051 1.403 . S
C1052 C1053 1.404 . S
C1052 C1055 1.539 . S
C1053 C1049 1.408 . S
C1053 C1052 1.404 . S
C1053 H1065 0.930 . S
C1054 C1050 1.524 . S
C1054 H1066 0.956 . S
C1054 H1067 0.961 . S
C1054 H1068 0.961 . S
C1055 C1052 1.539 . S
C1055 H1069 0.958 . S
C1055 H1070 0.961 . S
C1055 H1071 0.960 . S
H1056 C1040 0.931 . S
H1057 C1045 0.929 . S
H1058 C1046 0.960 . S
H1059 C1046 0.962 . S
H1060 C1046 0.960 . S
H1061 C1047 0.961 . S
H1062 C1047 0.961 . S
H1063 C1047 0.961 . S
H1064 C1048 0.931 . S
H1065 C1053 0.930 . S
H1066 C1054 0.956 . S
H1067 C1054 0.961 . S
H1068 C1054 0.961 . S
H1069 C1055 0.958 . S
H1070 C1055 0.961 . S
H1071 C1055 0.960 . S
C1072 C1073 1.391 . S
C1072 C1074 1.394 . S
C1072 H1088 0.931 . S
C1073 C1072 1.391 . S
C1073 C1077 1.376 . S
C1074 C1072 1.394 . S
C1074 C1075 1.369 . S
C1074 C1078 1.531 . S
C1075 C1074 1.369 . S
C1075 C1076 1.410 . S
C1075 C1083 1.503 . S
C1076 C1075 1.410 . S
C1076 C1077 1.392 . S
C1076 C1079 1.511 . S
C1077 C1073 1.376 . S
C1077 C1076 1.392 . S
C1077 H1089 0.929 . S
C1078 C1074 1.531 . S
C1078 H1090 0.960 . S
C1078 H1091 0.962 . S
C1078 H1092 0.960 . S
C1079 C1076 1.511 . S
C1079 H1093 0.961 . S
C1079 H1094 0.961 . S
C1079 H1095 0.961 . S
C1080 C1081 1.370 . S
C1080 C1082 1.363 . S
C1080 H1096 0.931 . S
C1081 C1080 1.370 . S
C1081 C1085 1.408 . S
C1082 C1080 1.363 . S
C1082 C1083 1.370 . S
C1082 C1086 1.524 . S
C1083 C1075 1.503 . S
C1083 C1082 1.370 . S
C1083 C1084 1.403 . S
C1084 C1083 1.403 . S
C1084 C1085 1.404 . S
C1084 C1087 1.539 . S
C1085 C1081 1.408 . S
C1085 C1084 1.404 . S
C1085 H1097 0.930 . S
C1086 C1082 1.524 . S
C1086 H1098 0.956 . S
C1086 H1099 0.961 . S
C1086 H1100 0.961 . S
C1087 C1084 1.539 . S
C1087 H1101 0.958 . S
C1087 H1102 0.961 . S
C1087 H1103 0.960 . S
H1088 C1072 0.931 . S
H1089 C1077 0.929 . S
H1090 C1078 0.960 . S
H1091 C1078 0.962 . S
H1092 C1078 0.960 . S
H1093 C1079 0.961 . S
H1094 C1079 0.961 . S
H1095 C1079 0.961 . S
H1096 C1080 0.931 . S
H1097 C1085 0.930 . S
H1098 C1086 0.956 . S
H1099 C1086 0.961 . S
H1100 C1086 0.961 . S
H1101 C1087 0.958 . S
H1102 C1087 0.961 . S
H1103 C1087 0.960 . S
C1104 C1105 1.391 . S
C1104 C1106 1.394 . S
C1104 H1120 0.931 . S
C1105 C1104 1.391 . S
C1105 C1109 1.376 . S
C1106 C1104 1.394 . S
C1106 C1107 1.369 . S
C1106 C1110 1.531 . S
C1107 C1106 1.369 . S
C1107 C1108 1.410 . S
C1107 C1115 1.503 . S
C1108 C1107 1.410 . S
C1108 C1109 1.392 . S
C1108 C1111 1.511 . S
C1109 C1105 1.376 . S
C1109 C1108 1.392 . S
C1109 H1121 0.929 . S
C1110 C1106 1.531 . S
C1110 H1122 0.960 . S
C1110 H1123 0.962 . S
C1110 H1124 0.960 . S
C1111 C1108 1.511 . S
C1111 H1125 0.961 . S
C1111 H1126 0.961 . S
C1111 H1127 0.961 . S
C1112 C1113 1.370 . S
C1112 C1114 1.363 . S
C1112 H1128 0.931 . S
C1113 C1112 1.370 . S
C1113 C1117 1.408 . S
C1114 C1112 1.363 . S
C1114 C1115 1.370 . S
C1114 C1118 1.524 . S
C1115 C1107 1.503 . S
C1115 C1114 1.370 . S
C1115 C1116 1.403 . S
C1116 C1115 1.403 . S
C1116 C1117 1.404 . S
C1116 C1119 1.539 . S
C1117 C1113 1.408 . S
C1117 C1116 1.404 . S
C1117 H1129 0.930 . S
C1118 C1114 1.524 . S
C1118 H1130 0.956 . S
C1118 H1131 0.961 . S
C1118 H1132 0.961 . S
C1119 C1116 1.539 . S
C1119 H1133 0.958 . S
C1119 H1134 0.961 . S
C1119 H1135 0.960 . S
H1120 C1104 0.931 . S
H1121 C1109 0.929 . S
H1122 C1110 0.960 . S
H1123 C1110 0.962 . S
H1124 C1110 0.960 . S
H1125 C1111 0.961 . S
H1126 C1111 0.961 . S
H1127 C1111 0.961 . S
H1128 C1112 0.931 . S
H1129 C1117 0.930 . S
H1130 C1118 0.956 . S
H1131 C1118 0.961 . S
H1132 C1118 0.961 . S
H1133 C1119 0.958 . S
H1134 C1119 0.961 . S
H1135 C1119 0.960 . S
C1136 C1137 1.391 . S
C1136 C1138 1.394 . S
C1136 H1152 0.931 . S
C1137 C1136 1.391 . S
C1137 C1141 1.376 . S
C1138 C1136 1.394 . S
C1138 C1139 1.369 . S
C1138 C1142 1.531 . S
C1139 C1138 1.369 . S
C1139 C1140 1.410 . S
C1139 C1147 1.503 . S
C1140 C1139 1.410 . S
C1140 C1141 1.392 . S
C1140 C1143 1.511 . S
C1141 C1137 1.376 . S
C1141 C1140 1.392 . S
C1141 H1153 0.929 . S
C1142 C1138 1.531 . S
C1142 H1154 0.960 . S
C1142 H1155 0.962 . S
C1142 H1156 0.960 . S
C1143 C1140 1.511 . S
C1143 H1157 0.961 . S
C1143 H1158 0.961 . S
C1143 H1159 0.961 . S
C1144 C1145 1.370 . S
C1144 C1146 1.363 . S
C1144 H1160 0.931 . S
C1145 C1144 1.370 . S
C1145 C1149 1.408 . S
C1146 C1144 1.363 . S
C1146 C1147 1.370 . S
C1146 C1150 1.524 . S
C1147 C1139 1.503 . S
C1147 C1146 1.370 . S
C1147 C1148 1.403 . S
C1148 C1147 1.403 . S
C1148 C1149 1.404 . S
C1148 C1151 1.539 . S
C1149 C1145 1.408 . S
C1149 C1148 1.404 . S
C1149 H1161 0.930 . S
C1150 C1146 1.524 . S
C1150 H1162 0.956 . S
C1150 H1163 0.961 . S
C1150 H1164 0.961 . S
C1151 C1148 1.539 . S
C1151 H1165 0.958 . S
C1151 H1166 0.961 . S
C1151 H1167 0.960 . S
H1152 C1136 0.931 . S
H1153 C1141 0.929 . S
H1154 C1142 0.960 . S
H1155 C1142 0.962 . S
H1156 C1142 0.960 . S
H1157 C1143 0.961 . S
H1158 C1143 0.961 . S
H1159 C1143 0.961 . S
H1160 C1144 0.931 . S
H1161 C1149 0.930 . S
H1162 C1150 0.956 . S
H1163 C1150 0.961 . S
H1164 C1150 0.961 . S
H1165 C1151 0.958 . S
H1166 C1151 0.961 . S
H1167 C1151 0.960 . S
C1168 C1169 1.391 . S
C1168 C1170 1.394 . S
C1168 H1184 0.931 . S
C1169 C1168 1.391 . S
C1169 C1173 1.376 . S
C1170 C1168 1.394 . S
C1170 C1171 1.369 . S
C1170 C1174 1.531 . S
C1171 C1170 1.369 . S
C1171 C1172 1.410 . S
C1171 C1179 1.503 . S
C1172 C1171 1.410 . S
C1172 C1173 1.392 . S
C1172 C1175 1.511 . S
C1173 C1169 1.376 . S
C1173 C1172 1.392 . S
C1173 H1185 0.929 . S
C1174 C1170 1.531 . S
C1174 H1186 0.960 . S
C1174 H1187 0.962 . S
C1174 H1188 0.960 . S
C1175 C1172 1.511 . S
C1175 H1189 0.961 . S
C1175 H1190 0.961 . S
C1175 H1191 0.961 . S
C1176 C1177 1.370 . S
C1176 C1178 1.363 . S
C1176 H1192 0.931 . S
C1177 C1176 1.370 . S
C1177 C1181 1.408 . S
C1178 C1176 1.363 . S
C1178 C1179 1.370 . S
C1178 C1182 1.524 . S
C1179 C1171 1.503 . S
C1179 C1178 1.370 . S
C1179 C1180 1.403 . S
C1180 C1179 1.403 . S
C1180 C1181 1.404 . S
C1180 C1183 1.539 . S
C1181 C1177 1.408 . S
C1181 C1180 1.404 . S
C1181 H1193 0.930 . S
C1182 C1178 1.524 . S
C1182 H1194 0.956 . S
C1182 H1195 0.961 . S
C1182 H1196 0.961 . S
C1183 C1180 1.539 . S
C1183 H1197 0.958 . S
C1183 H1198 0.961 . S
C1183 H1199 0.960 . S
H1184 C1168 0.931 . S
H1185 C1173 0.929 . S
H1186 C1174 0.960 . S
H1187 C1174 0.962 . S
H1188 C1174 0.960 . S
H1189 C1175 0.961 . S
H1190 C1175 0.961 . S
H1191 C1175 0.961 . S
H1192 C1176 0.931 . S
H1193 C1181 0.930 . S
H1194 C1182 0.956 . S
H1195 C1182 0.961 . S
H1196 C1182 0.961 . S
H1197 C1183 0.958 . S
H1198 C1183 0.961 . S
H1199 C1183 0.960 . S
C1200 C1201 1.391 . S
C1200 C1202 1.394 . S
C1200 H1216 0.931 . S
C1201 C1200 1.391 . S
C1201 C1205 1.376 . S
C1202 C1200 1.394 . S
C1202 C1203 1.369 . S
C1202 C1206 1.531 . S
C1203 C1202 1.369 . S
C1203 C1204 1.410 . S
C1203 C1211 1.503 . S
C1204 C1203 1.410 . S
C1204 C1205 1.392 . S
C1204 C1207 1.511 . S
C1205 C1201 1.376 . S
C1205 C1204 1.392 . S
C1205 H1217 0.929 . S
C1206 C1202 1.531 . S
C1206 H1218 0.960 . S
C1206 H1219 0.962 . S
C1206 H1220 0.960 . S
C1207 C1204 1.511 . S
C1207 H1221 0.961 . S
C1207 H1222 0.961 . S
C1207 H1223 0.961 . S
C1208 C1209 1.370 . S
C1208 C1210 1.363 . S
C1208 H1224 0.931 . S
C1209 C1208 1.370 . S
C1209 C1213 1.408 . S
C1210 C1208 1.363 . S
C1210 C1211 1.370 . S
C1210 C1214 1.524 . S
C1211 C1203 1.503 . S
C1211 C1210 1.370 . S
C1211 C1212 1.403 . S
C1212 C1211 1.403 . S
C1212 C1213 1.404 . S
C1212 C1215 1.539 . S
C1213 C1209 1.408 . S
C1213 C1212 1.404 . S
C1213 H1225 0.930 . S
C1214 C1210 1.524 . S
C1214 H1226 0.956 . S
C1214 H1227 0.961 . S
C1214 H1228 0.961 . S
C1215 C1212 1.539 . S
C1215 H1229 0.958 . S
C1215 H1230 0.961 . S
C1215 H1231 0.960 . S
H1216 C1200 0.931 . S
H1217 C1205 0.929 . S
H1218 C1206 0.960 . S
H1219 C1206 0.962 . S
H1220 C1206 0.960 . S
H1221 C1207 0.961 . S
H1222 C1207 0.961 . S
H1223 C1207 0.961 . S
H1224 C1208 0.931 . S
H1225 C1213 0.930 . S
H1226 C1214 0.956 . S
H1227 C1214 0.961 . S
H1228 C1214 0.961 . S
H1229 C1215 0.958 . S
H1230 C1215 0.961 . S
H1231 C1215 0.960 . S
C209 C4 1.621 . S
C217 C166 1.618 . S
C241 C173 1.612 . S
C249 C23 1.624 . S
C273 C36 1.626 . S
C281 C192 1.622 . S
C305 C199 1.599 . S
C313 C43 1.624 . S
C337 C108 1.622 . S
C345 C62 1.614 . S
C369 C69 1.609 . S
C377 C121 1.626 . S
C401 C140 1.617 . S
C409 C88 1.615 . S
C433 C101 1.624 . S
C441 C153 1.627 . S
C465 C3 1.640 . S
C473 C31 1.618 . S
C497 C18 1.604 . S
C505 C42 1.631 . S
C529 C55 1.636 . S
C537 C81 1.645 . S
C561 C70 1.644 . S
C569 C94 1.648 . S
C593 C135 1.638 . S
C601 C107 1.620 . S
C625 C120 1.608 . S
C633 C148 1.629 . S
C657 C185 1.652 . S
C665 C159 1.643 . S
C689 C174 1.652 . S
C697 C200 1.643 . S
C721 C83 1.475 . S
C729 C5 1.494 . S
C753 C96 1.485 . S
C761 C16 1.489 . S
C785 C29 1.478 . S
C793 C57 1.492 . S
C817 C44 1.491 . S
C825 C68 1.488 . S
C849 C187 1.480 . S
C857 C109 1.491 . S
C881 C122 1.479 . S
C889 C198 1.491 . S
C913 C161 1.477 . S
C921 C133 1.492 . S
C945 C146 1.493 . S
C953 C172 1.487 . S
C977 C10 1.449 . S
C985 C49 1.461 . S
C1009 C30 1.471 . S
C1017 C17 1.471 . S
C1041 C56 1.731 . S
C1049 C95 1.735 . S
C1073 C75 1.729 . S
C1081 C82 1.736 . S
C1105 C147 1.468 . S
C1113 C114 1.472 . S
C1137 C127 1.465 . S
C1145 C134 1.471 . S
C1169 C205 1.735 . S
C1177 C160 1.736 . S
C1201 C179 1.735 . S
C1209 C186 1.736 . S
