# Generated by pormake.
# Topology wkf, (6)-cn, num edge types: 1
# Building blocks:
#     Node 0, Type 0, BuildingBlock: CUKXOW_clean_sbu_0, # of connection points: 6
#     Node 1, Type 0, BuildingBlock: CUKXOW_clean_sbu_0, # of connection points: 6
#     Node 2, Type 0, BuildingBlock: CUKXOW_clean_sbu_0, # of connection points: 6
#     Node 3, Type 0, BuildingBlock: CUKXOW_clean_sbu_0, # of connection points: 6
#     Node 4, Type 0, BuildingBlock: CUKXOW_clean_sbu_0, # of connection points: 6
#     Node 5, Type 0, BuildingBlock: CUKXOW_clean_sbu_0, # of connection points: 6
#     Node 6, Type 0, BuildingBlock: CUKXOW_clean_sbu_0, # of connection points: 6
#     Node 7, Type 0, BuildingBlock: CUKXOW_clean_sbu_0, # of connection points: 6
#     Node 8, Type 0, BuildingBlock: CUKXOW_clean_sbu_0, # of connection points: 6
#     Node 9, Type 0, BuildingBlock: CUKXOW_clean_sbu_0, # of connection points: 6
#     Node 10, Type 0, BuildingBlock: CUKXOW_clean_sbu_0, # of connection points: 6
#     Node 11, Type 0, BuildingBlock: CUKXOW_clean_sbu_0, # of connection points: 6
#     Edge 12, Type (0, 0), BuildingBlock: CIFDUS_clean_linker_0, # of connection points: 2
#     Edge 13, Type (0, 0), BuildingBlock: CIFDUS_clean_linker_0, # of connection points: 2
#     Edge 14, Type (0, 0), BuildingBlock: CIFDUS_clean_linker_0, # of connection points: 2
#     Edge 15, Type (0, 0), BuildingBlock: CIFDUS_clean_linker_0, # of connection points: 2
#     Edge 16, Type (0, 0), BuildingBlock: CIFDUS_clean_linker_0, # of connection points: 2
#     Edge 17, Type (0, 0), BuildingBlock: CIFDUS_clean_linker_0, # of connection points: 2
#     Edge 18, Type (0, 0), BuildingBlock: CIFDUS_clean_linker_0, # of connection points: 2
#     Edge 19, Type (0, 0), BuildingBlock: CIFDUS_clean_linker_0, # of connection points: 2
#     Edge 20, Type (0, 0), BuildingBlock: CIFDUS_clean_linker_0, # of connection points: 2
#     Edge 21, Type (0, 0), BuildingBlock: CIFDUS_clean_linker_0, # of connection points: 2
#     Edge 22, Type (0, 0), BuildingBlock: CIFDUS_clean_linker_0, # of connection points: 2
#     Edge 23, Type (0, 0), BuildingBlock: CIFDUS_clean_linker_0, # of connection points: 2
#     Edge 24, Type (0, 0), BuildingBlock: CIFDUS_clean_linker_0, # of connection points: 2
#     Edge 25, Type (0, 0), BuildingBlock: CIFDUS_clean_linker_0, # of connection points: 2
#     Edge 26, Type (0, 0), BuildingBlock: CIFDUS_clean_linker_0, # of connection points: 2
#     Edge 27, Type (0, 0), BuildingBlock: CIFDUS_clean_linker_0, # of connection points: 2
#     Edge 28, Type (0, 0), BuildingBlock: CIFDUS_clean_linker_0, # of connection points: 2
#     Edge 29, Type (0, 0), BuildingBlock: CIFDUS_clean_linker_0, # of connection points: 2
#     Edge 30, Type (0, 0), BuildingBlock: CIFDUS_clean_linker_0, # of connection points: 2
#     Edge 31, Type (0, 0), BuildingBlock: CIFDUS_clean_linker_0, # of connection points: 2
#     Edge 32, Type (0, 0), BuildingBlock: CIFDUS_clean_linker_0, # of connection points: 2
#     Edge 33, Type (0, 0), BuildingBlock: CIFDUS_clean_linker_0, # of connection points: 2
#     Edge 34, Type (0, 0), BuildingBlock: CIFDUS_clean_linker_0, # of connection points: 2
#     Edge 35, Type (0, 0), BuildingBlock: CIFDUS_clean_linker_0, # of connection points: 2
#     Edge 36, Type (0, 0), BuildingBlock: CIFDUS_clean_linker_0, # of connection points: 2
#     Edge 37, Type (0, 0), BuildingBlock: CIFDUS_clean_linker_0, # of connection points: 2
#     Edge 38, Type (0, 0), BuildingBlock: CIFDUS_clean_linker_0, # of connection points: 2
#     Edge 39, Type (0, 0), BuildingBlock: CIFDUS_clean_linker_0, # of connection points: 2
#     Edge 40, Type (0, 0), BuildingBlock: CIFDUS_clean_linker_0, # of connection points: 2
#     Edge 41, Type (0, 0), BuildingBlock: CIFDUS_clean_linker_0, # of connection points: 2
#     Edge 42, Type (0, 0), BuildingBlock: CIFDUS_clean_linker_0, # of connection points: 2
#     Edge 43, Type (0, 0), BuildingBlock: CIFDUS_clean_linker_0, # of connection points: 2
#     Edge 44, Type (0, 0), BuildingBlock: CIFDUS_clean_linker_0, # of connection points: 2
#     Edge 45, Type (0, 0), BuildingBlock: CIFDUS_clean_linker_0, # of connection points: 2
#     Edge 46, Type (0, 0), BuildingBlock: CIFDUS_clean_linker_0, # of connection points: 2
#     Edge 47, Type (0, 0), BuildingBlock: CIFDUS_clean_linker_0, # of connection points: 2
# Relax obj value: 0.112
# Max RMSD: 0.281
# Mean RMSD: 0.281
data_MOF--net-wkf--node1-CUKXOW_clean_sbu_0--edge1-CIFDUS_clean_linker_0
_symmetry_space_group_name_H-M    P1
_symmetry_Int_Tables_number       1
_symmetry_cell_setting            triclinic
loop_
_symmetry_equiv_pos_as_xyz
'x, y, z'
_cell_length_a     23.563895
_cell_length_b     23.422441
_cell_length_c     67.898545
_cell_angle_alpha  89.995967
_cell_angle_beta   90.031534
_cell_angle_gamma 119.92389
loop_
_atom_site_label
_atom_site_type_symbol
_atom_site_fract_x
_atom_site_fract_y
_atom_site_fract_z
_atom_type_partial_charge
Tb0 Tb 0.34354 0.18436 0.40937 0.0
C1 C 0.31311 0.03842 0.41764 0.0
Tb2 Tb 0.42118 0.13003 0.38749 0.0
O3 O 0.28227 0.1707 0.38328 0.0
O4 O 0.32416 0.11142 0.38823 0.0
O5 O 0.31507 0.09167 0.42514 0.0
C6 C 0.47124 0.07204 0.36521 0.0
O7 O 0.34269 0.04081 0.40083 0.0
C8 C 0.47941 0.20456 0.41902 0.0
C9 C 0.43655 0.26794 0.37471 0.0
O10 O 0.46817 0.07059 0.38425 0.0
O11 O 0.44751 0.10793 0.35852 0.0
O12 O 0.48845 0.15745 0.4128 0.0
O13 O 0.44257 0.20919 0.40671 0.0
O14 O 0.44326 0.21667 0.36937 0.0
O15 O 0.40595 0.26898 0.39112 0.0
C16 C 0.31123 0.23083 0.44086 0.0
O17 O 0.27364 0.20391 0.42558 0.0
O18 O 0.36664 0.23301 0.4379 0.0
C19 C 0.29362 0.1259 0.37583 0.0
Tb20 Tb 0.16542 0.33459 0.57598 0.0
C21 C 0.27948 0.30345 0.5849 0.0
Tb22 Tb 0.29557 0.40704 0.55191 0.0
O23 O 0.11466 0.2757 0.5493 0.0
O24 O 0.21378 0.31238 0.55402 0.0
O25 O 0.2244 0.29984 0.59121 0.0
C26 C 0.40362 0.44289 0.53115 0.0
O27 O 0.31257 0.3387 0.56935 0.0
C28 C 0.27602 0.48158 0.57641 0.0
C29 C 0.17616 0.42528 0.54071 0.0
O30 O 0.40154 0.45053 0.55004 0.0
O31 O 0.34474 0.41587 0.52383 0.0
O32 O 0.31343 0.50337 0.56108 0.0
O33 O 0.25857 0.42141 0.57887 0.0
O34 O 0.2265 0.42067 0.53359 0.0
O35 O 0.14994 0.40247 0.5583 0.0
C36 C 0.08027 0.29834 0.60593 0.0
O37 O 0.08656 0.2581 0.59412 0.0
O38 O 0.12054 0.35842 0.60043 0.0
C39 C 0.16867 0.28249 0.54181 0.0
Tb40 Tb 0.83445 0.14872 0.742 0.0
C41 C 0.98372 0.2575 0.74712 0.0
Tb42 Tb 0.88814 0.28287 0.72026 0.0
O43 O 0.84409 0.1004 0.71505 0.0
O44 O 0.90216 0.20146 0.71974 0.0
O45 O 0.93133 0.20767 0.75532 0.0
C46 C 0.9438 0.39288 0.69869 0.0
O47 O 0.97862 0.28892 0.7315 0.0
C48 C 0.82211 0.26918 0.75349 0.0
C49 C 0.74437 0.16165 0.71044 0.0
O50 O 0.94966 0.38931 0.71753 0.0
O51 O 0.90496 0.33402 0.69177 0.0
O52 O 0.86879 0.32445 0.74676 0.0
O53 O 0.81453 0.22723 0.74084 0.0
O54 O 0.79463 0.21938 0.7043 0.0
O55 O 0.7472 0.1292 0.72615 0.0
C56 C 0.79153 0.07853 0.7753 0.0
O57 O 0.80788 0.05856 0.75941 0.0
O58 O 0.79841 0.13612 0.77198 0.0
C59 C 0.88637 0.1569 0.70713 0.0
Tb60 Tb 0.66475 0.8426 0.91371 0.0
C61 C 0.71386 0.99497 0.91973 0.0
Tb62 Tb 0.60192 0.90971 0.88852 0.0
O63 O 0.72242 0.84411 0.88745 0.0
O64 O 0.69172 0.91191 0.89081 0.0
O65 O 0.71862 0.943 0.92508 0.0
C66 C 0.57855 0.98869 0.86589 0.0
O67 O 0.67403 0.99356 0.90567 0.0
C68 C 0.52021 0.82372 0.91407 0.0
C69 C 0.56532 0.76169 0.8811 0.0
O70 O 0.57202 0.98355 0.8849 0.0
O71 O 0.59728 0.94822 0.85946 0.0
O72 O 0.50345 0.84844 0.89963 0.0
O73 O 0.58221 0.85695 0.91543 0.0
O74 O 0.57718 0.818 0.87244 0.0
O75 O 0.5852 0.75913 0.89922 0.0
C76 C 0.70728 0.80281 0.94491 0.0
O77 O 0.70984 0.78817 0.92657 0.0
O78 O 0.67888 0.83799 0.94566 0.0
C79 C 0.71851 0.89186 0.87898 0.0
Tb80 Tb 0.86692 0.68397 0.07508 0.0
C81 C 0.75492 0.71464 0.07977 0.0
Tb82 Tb 0.74844 0.61332 0.04759 0.0
O83 O 0.88841 0.77864 0.06038 0.0
O84 O 0.84407 0.6909 0.0455 0.0
O85 O 0.79743 0.70476 0.08974 0.0
C86 C 0.64425 0.58021 0.02537 0.0
O87 O 0.73603 0.69079 0.06177 0.0
C88 C 0.755 0.53549 0.0735 0.0
C89 C 0.87163 0.59623 0.03996 0.0
O90 O 0.64431 0.57586 0.04438 0.0
O91 O 0.70324 0.6025 0.01859 0.0
O92 O 0.72214 0.51613 0.05721 0.0
O93 O 0.77317 0.59618 0.07637 0.0
O94 O 0.81782 0.59263 0.03212 0.0
O95 O 0.89736 0.62636 0.05703 0.0
C96 C 0.95089 0.71276 0.10523 0.0
O97 O 0.95668 0.75316 0.09122 0.0
O98 O 0.89947 0.6561 0.10173 0.0
C99 C 0.86179 0.75029 0.04374 0.0
Tb100 Tb 0.19959 0.86827 0.2407 0.0
C101 C 0.05623 0.75119 0.24917 0.0
Tb102 Tb 0.15026 0.73709 0.21897 0.0
O103 O 0.18311 0.91386 0.21436 0.0
O104 O 0.12758 0.81277 0.21964 0.0
O105 O 0.1085 0.80297 0.25671 0.0
C106 C 0.09511 0.62844 0.19692 0.0
O107 O 0.05988 0.72444 0.23233 0.0
C108 C 0.22435 0.75462 0.25057 0.0
C109 C 0.28577 0.86363 0.20621 0.0
O110 O 0.09203 0.63058 0.21591 0.0
O111 O 0.13111 0.68793 0.19013 0.0
O112 O 0.1783 0.6981 0.24437 0.0
O113 O 0.22827 0.79602 0.23824 0.0
O114 O 0.23671 0.80407 0.201 0.0
O115 O 0.28437 0.89501 0.22239 0.0
C116 C 0.24715 0.94634 0.27226 0.0
O117 O 0.21579 0.95536 0.25785 0.0
O118 O 0.25258 0.89508 0.26846 0.0
C119 C 0.13977 0.85678 0.20708 0.0
Tb120 Tb 0.83536 0.6762 0.44876 0.0
C121 C 0.98224 0.71243 0.44023 0.0
Tb122 Tb 0.89861 0.61193 0.47399 0.0
O123 O 0.84062 0.73639 0.47492 0.0
O124 O 0.90743 0.70477 0.4707 0.0
O125 O 0.92925 0.71252 0.4336 0.0
C126 C 0.97424 0.58113 0.4951 0.0
O127 O 0.98209 0.67998 0.45624 0.0
C128 C 0.80546 0.52841 0.45091 0.0
C129 C 0.75836 0.58894 0.48453 0.0
O130 O 0.9667 0.57504 0.47613 0.0
O131 O 0.93852 0.60419 0.50236 0.0
O132 O 0.82714 0.51263 0.46624 0.0
O133 O 0.84382 0.58921 0.44716 0.0
O134 O 0.81457 0.59727 0.49193 0.0
O135 O 0.7533 0.60807 0.46651 0.0
C136 C 0.78972 0.71288 0.41771 0.0
O137 O 0.8311 0.75256 0.43071 0.0
O138 O 0.77252 0.65286 0.42273 0.0
C139 C 0.89036 0.73427 0.48256 0.0
Tb140 Tb 0.15843 0.83391 0.61641 0.0
C141 C 0.27791 0.97418 0.60667 0.0
Tb142 Tb 0.28859 0.88108 0.63924 0.0
O143 O 0.11457 0.85177 0.64326 0.0
O144 O 0.21413 0.90446 0.63782 0.0
O145 O 0.22045 0.92557 0.60069 0.0
C146 C 0.40859 0.95058 0.65389 0.0
O147 O 0.30977 0.96881 0.62204 0.0
C148 C 0.2558 0.78132 0.61592 0.0
C149 C 0.16139 0.75114 0.65229 0.0
O150 O 0.39431 0.9319 0.6357 0.0
O151 O 0.35489 0.92833 0.66419 0.0
O152 O 0.29157 0.79337 0.63149 0.0
O153 O 0.24611 0.82912 0.61255 0.0
O154 O 0.21649 0.80353 0.65879 0.0
O155 O 0.13484 0.74974 0.63489 0.0
C156 C 0.07466 0.78775 0.58591 0.0
O157 O 0.11357 0.76666 0.59164 0.0
O158 O 0.08082 0.83371 0.59801 0.0
C159 C 0.17159 0.89525 0.65036 0.0
Tb160 Tb 0.37278 0.1948 0.77746 0.0
C161 C 0.33621 0.30282 0.76419 0.0
Tb162 Tb 0.43882 0.33179 0.79861 0.0
O163 O 0.31543 0.15046 0.80494 0.0
O164 O 0.34667 0.24708 0.79696 0.0
O165 O 0.335 0.24679 0.76008 0.0
C166 C 0.46831 0.44551 0.81562 0.0
O167 O 0.37223 0.34285 0.77859 0.0
C168 C 0.51793 0.31198 0.77668 0.0
C169 C 0.46294 0.21668 0.81346 0.0
O170 O 0.4818 0.43828 0.79758 0.0
O171 O 0.4387 0.38828 0.82438 0.0
O172 O 0.53654 0.3543 0.79093 0.0
O173 O 0.45734 0.2896 0.77344 0.0
O174 O 0.45635 0.26808 0.81902 0.0
O175 O 0.44175 0.18634 0.79626 0.0
C176 C 0.33293 0.10324 0.74883 0.0
O177 O 0.39327 0.14682 0.75293 0.0
O178 O 0.29499 0.10945 0.7615 0.0
C179 C 0.31839 0.20546 0.81022 0.0
Tb180 Tb 0.1995 0.33467 0.94765 0.0
C181 C 0.05524 0.30735 0.93993 0.0
Tb182 Tb 0.14946 0.41378 0.96983 0.0
O183 O 0.18618 0.27349 0.97396 0.0
O184 O 0.12769 0.31547 0.96904 0.0
O185 O 0.10681 0.30681 0.93232 0.0
C186 C 0.09675 0.46733 0.99292 0.0
O187 O 0.05917 0.33712 0.95685 0.0
C188 C 0.21815 0.47101 0.93746 0.0
C189 C 0.28821 0.43105 0.98074 0.0
O190 O 0.09485 0.4652 0.9739 0.0
O191 O 0.13024 0.44059 0.99923 0.0
O192 O 0.1696 0.47661 0.94397 0.0
O193 O 0.22675 0.43586 0.94963 0.0
O194 O 0.23756 0.43676 0.98695 0.0
O195 O 0.28716 0.40087 0.96401 0.0
C196 C 0.23917 0.29074 0.91712 0.0
O197 O 0.22571 0.26451 0.93461 0.0
O198 O 0.23156 0.34189 0.91713 0.0
C199 C 0.14182 0.2848 0.98142 0.0
Tb200 Tb 0.87673 0.18692 0.11473 0.0
C201 C 0.75798 0.04534 0.10537 0.0
Tb202 Tb 0.7468 0.1391 0.13678 0.0
O203 O 0.92121 0.16708 0.14062 0.0
O204 O 0.8204 0.1138 0.13554 0.0
O205 O 0.80999 0.0978 0.09807 0.0
C206 C 0.63915 0.08348 0.15897 0.0
O207 O 0.73188 0.04846 0.12239 0.0
C208 C 0.76616 0.217 0.1058 0.0
C209 C 0.8746 0.27288 0.14991 0.0
O210 O 0.64102 0.07993 0.13999 0.0
O211 O 0.69836 0.12021 0.16568 0.0
O212 O 0.70936 0.17294 0.11234 0.0
O213 O 0.80671 0.21776 0.11781 0.0
O214 O 0.81527 0.22393 0.15518 0.0
O215 O 0.90485 0.27158 0.13351 0.0
C216 C 0.9565 0.23517 0.0837 0.0
O217 O 0.9632 0.20159 0.09794 0.0
O218 O 0.90644 0.24232 0.08737 0.0
C219 C 0.86426 0.12425 0.14791 0.0
Tb220 Tb 0.68975 0.85823 0.2815 0.0
C221 C 0.72552 0.74671 0.27281 0.0
Tb222 Tb 0.62329 0.72999 0.30616 0.0
O223 O 0.74928 0.91111 0.30805 0.0
O224 O 0.71615 0.81248 0.30335 0.0
O225 O 0.72546 0.79998 0.26613 0.0
C226 C 0.59107 0.62417 0.32782 0.0
O227 O 0.69256 0.7143 0.28876 0.0
C228 C 0.54217 0.74254 0.28275 0.0
C229 C 0.60303 0.85021 0.31696 0.0
O230 O 0.58682 0.62484 0.30876 0.0
O231 O 0.61307 0.68327 0.33481 0.0
O232 O 0.52515 0.70411 0.2979 0.0
O233 O 0.60262 0.76382 0.27931 0.0
O234 O 0.60931 0.80054 0.32421 0.0
O235 O 0.62301 0.87446 0.29905 0.0
C236 C 0.72423 0.94155 0.2509 0.0
O237 O 0.76472 0.93684 0.26291 0.0
O238 O 0.66484 0.90109 0.25664 0.0
C239 C 0.74569 0.85798 0.31547 0.0
H240 H 0.2215 0.04139 0.2864 0.0
H241 H 0.31336 0.92725 0.3014 0.0
H242 H 0.33368 0.97123 0.3347 0.0
H243 H 0.32019 0.03659 0.36012 0.0
H244 H 0.23565 0.15747 0.34583 0.0
H245 H 0.21576 0.11509 0.31191 0.0
C246 C 0.24667 0.02699 0.29693 0.0
C247 C 0.26556 0.98085 0.29146 0.0
C248 C 0.25837 0.05264 0.31627 0.0
C249 C 0.29806 0.96245 0.30524 0.0
C250 C 0.3095 0.98733 0.32434 0.0
C251 C 0.29832 0.05453 0.34954 0.0
C252 C 0.27982 0.10035 0.35542 0.0
C253 C 0.28897 0.03154 0.33009 0.0
C254 C 0.25023 0.12204 0.34163 0.0
C255 C 0.23917 0.09804 0.32223 0.0
H256 H 0.27809 0.28774 0.52909 0.0
H257 H 0.08572 0.24054 0.50944 0.0
H258 H 0.11247 0.22107 0.47588 0.0
H259 H 0.19308 0.21915 0.45211 0.0
H260 H 0.38787 0.27752 0.47289 0.0
H261 H 0.35855 0.29363 0.50585 0.0
C262 C 0.24209 0.27407 0.51744 0.0
C263 C 0.18034 0.26633 0.52166 0.0
C264 C 0.25876 0.26581 0.4983 0.0
C265 C 0.13368 0.2468 0.50652 0.0
C266 C 0.14921 0.23616 0.48734 0.0
C267 C 0.22906 0.23605 0.46385 0.0
C268 C 0.29253 0.24678 0.46004 0.0
C269 C 0.21198 0.246 0.48301 0.0
C270 C 0.33871 0.26868 0.47538 0.0
C271 C 0.32195 0.27763 0.4943 0.0
H272 H 0.97018 0.27464 0.69156 0.0
H273 H 0.86621 0.06784 0.67745 0.0
H274 H 0.91579 0.0928 0.64439 0.0
H275 H 0.99138 0.17504 0.61976 0.0
H276 H 0.08582 0.38195 0.63421 0.0
H277 H 0.03516 0.3556 0.66666 0.0
C278 C 0.95696 0.23495 0.68116 0.0
C279 C 0.91401 0.16955 0.68691 0.0
C280 C 0.98379 0.24994 0.66218 0.0
C281 C 0.89906 0.11864 0.67337 0.0
C282 C 0.92732 0.133 0.65448 0.0
C283 C 1.00014 0.21419 0.62997 0.0
C284 C 0.04268 0.28041 0.6246 0.0
C285 C 0.97003 0.19864 0.64872 0.0
C286 C 0.05344 0.33068 0.63794 0.0
C287 C 0.02473 0.31567 0.65656 0.0
H288 H 0.78967 0.96525 0.78854 0.0
H289 H 0.75313 0.121 0.80646 0.0
H290 H 0.73121 0.07885 0.83985 0.0
H291 H 0.72508 1.0009 0.86438 0.0
H292 H 0.7534 0.83942 0.84782 0.0
H293 H 0.77772 0.88138 0.81378 0.0
C294 C 0.77636 0.98938 0.79976 0.0
C295 C 0.77339 0.04648 0.79495 0.0
C296 C 0.76329 0.96449 0.81927 0.0
C297 C 0.75616 0.07727 0.80968 0.0
C298 C 0.74375 0.05336 0.82887 0.0
C299 C 0.73579 0.97427 0.85329 0.0
C300 C 0.73673 0.91682 0.85854 0.0
C301 C 0.74767 0.99752 0.83386 0.0
C302 C 0.75238 0.88388 0.84412 0.0
C303 C 0.76588 0.9077 0.82464 0.0
H304 H 0.74491 0.86476 0.98076 0.0
H305 H 0.73675 0.70492 0.94696 0.0
H306 H 0.78677 0.67762 0.97422 0.0
H307 H 0.83186 0.69806 1.00756 0.0
H308 H 0.84512 0.85929 0.04168 0.0
H309 H 0.79577 0.88853 0.01429 0.0
C310 C 0.75396 0.82385 0.97944 0.0
C311 C 0.73654 0.78642 0.96188 0.0
C312 C 0.78441 0.80938 0.99512 0.0
C313 C 0.74945 0.73426 0.96027 0.0
C314 C 0.77823 0.71877 0.97585 0.0
C315 C 0.82429 0.73991 1.009 0.0
C316 C 0.84136 0.77598 0.02673 0.0
C317 C 0.79596 0.75597 0.99329 0.0
C318 C 0.83231 0.83068 0.02822 0.0
C319 C 0.80367 0.84702 0.01259 0.0
H320 H 0.05345 0.7382 0.1921 0.0
H321 H 0.16446 0.94366 0.17656 0.0
H322 H 0.11867 0.91742 0.14307 0.0
H323 H 0.04439 0.83496 0.11841 0.0
H324 H 0.93884 0.62938 0.13454 0.0
H325 H 0.98722 0.65639 0.16736 0.0
C326 C 0.06851 0.77729 0.18134 0.0
C327 C 0.11257 0.84277 0.1868 0.0
C328 C 0.04334 0.76155 0.16213 0.0
C329 C 0.13052 0.89287 0.17274 0.0
C330 C 0.10452 0.87777 0.15358 0.0
C331 C 0.03281 0.79615 0.12905 0.0
C332 C 0.98789 0.73021 0.12404 0.0
C333 C 0.0607 0.81216 0.14809 0.0
C334 C 0.97312 0.68045 0.138 0.0
C335 C 1.00049 0.69588 0.15683 0.0
H336 H 0.97401 0.80647 0.57247 0.0
H337 H 0.10512 0.73687 0.55493 0.0
H338 H 0.06388 0.72103 0.52141 0.0
H339 H 0.99337 0.7289 0.4968 0.0
H340 H 0.84926 0.78133 0.51377 0.0
H341 H 0.89396 0.80432 0.54753 0.0
C342 C 0.99291 0.7873 0.5613 0.0
C343 C 0.04286 0.77313 0.56623 0.0
C344 C 0.9673 0.77616 0.5419 0.0
C345 C 0.06666 0.74799 0.55163 0.0
C346 C 0.04339 0.73925 0.53237 0.0
C347 C 0.97067 0.74409 0.50794 0.0
C348 C 0.91739 0.75233 0.50284 0.0
C349 C 0.99408 0.7534 0.52734 0.0
C350 C 0.89023 0.77441 0.51732 0.0
C351 C 0.91558 0.78711 0.53664 0.0
H352 H 0.29008 0.98818 0.66286 0.0
H353 H 0.08987 0.87504 0.68219 0.0
H354 H 0.12173 0.9283 0.71477 0.0
H355 H 0.20831 1.00837 0.73772 0.0
H356 H 0.4093 0.11129 0.71806 0.0
H357 H 0.37582 0.05884 0.6859 0.0
C358 C 0.25345 0.97378 0.67431 0.0
C359 C 0.18784 0.92687 0.67016 0.0
C360 C 0.27261 1.00256 0.69304 0.0
C361 C 0.14073 0.91086 0.68499 0.0
C362 C 0.1591 0.94115 0.70364 0.0
C363 C 0.24473 0.0185 0.72645 0.0
C364 C 0.31135 0.06396 0.73033 0.0
C365 C 0.22512 0.98707 0.70787 0.0
C366 C 0.3579 0.07656 0.71557 0.0
C367 C 0.33875 0.04679 0.6971 0.0
H368 H 0.25189 0.33677 0.8803 0.0
H369 H 0.25943 0.18483 0.91397 0.0
H370 H 0.28155 0.14132 0.88372 0.0
H371 H 0.30049 0.14847 0.84721 0.0
H372 H 0.29035 0.30179 0.81485 0.0
H373 H 0.26702 0.34215 0.84491 0.0
C374 C 0.25849 0.29417 0.88108 0.0
C375 C 0.25443 0.26431 0.89932 0.0
C376 C 0.27029 0.2693 0.86374 0.0
C377 C 0.26267 0.20888 0.90005 0.0
C378 C 0.27509 0.18391 0.88275 0.0
C379 C 0.29211 0.18995 0.84681 0.0
C380 C 0.29709 0.22203 0.82881 0.0
C381 C 0.27895 0.2137 0.86442 0.0
C382 C 0.28695 0.2763 0.8285 0.0
C383 C 0.27373 0.29965 0.84571 0.0
H384 H 0.05037 0.2078 0.07011 0.0
H385 H 0.94156 0.30483 0.05469 0.0
H386 H 0.98815 0.32679 0.02176 0.0
H387 H 0.05387 0.31299 0.99676 0.0
H388 H 0.16977 0.22349 1.01143 0.0
H389 H 0.12492 0.20204 0.04506 0.0
C390 C 0.03767 0.23441 0.05957 0.0
C391 C 0.99229 0.25431 0.0648 0.0
C392 C 0.06482 0.24701 0.04045 0.0
C393 C 0.97613 0.28873 0.05103 0.0
C394 C 1.00249 0.30108 0.03214 0.0
C395 C 0.07023 0.28969 1.00736 0.0
C396 C 0.11532 0.27022 1.00168 0.0
C397 C 0.0459 0.27952 0.02661 0.0
C398 C 0.13496 0.23885 0.01549 0.0
C399 C 0.10954 0.22689 0.03471 0.0
H400 H 0.84626 0.02649 0.23613 0.0
H401 H 0.64022 0.93436 0.22252 0.0
H402 H 0.6658 0.98069 0.1894 0.0
H403 H 0.74612 0.0422 0.16376 0.0
H404 H 0.95215 0.14302 0.17733 0.0
H405 H 0.92756 0.09699 0.2108 0.0
C406 C 0.80711 0.01729 0.22596 0.0
C407 C 0.74141 0.97679 0.23177 0.0
C408 C 0.82222 0.04468 0.20685 0.0
C409 C 0.69114 0.96533 0.21845 0.0
C410 C 0.70571 0.99151 0.19945 0.0
C411 C 0.78567 0.05516 0.17412 0.0
C412 C 0.85082 0.09642 0.16811 0.0
C413 C 0.77097 0.03047 0.19341 0.0
C414 C 0.90157 0.11135 0.1816 0.0
C415 C 0.88745 0.08523 0.20075 0.0
H416 H 0.80855 0.83385 0.4055 0.0
H417 H 0.74071 0.6348 0.38581 0.0
H418 H 0.72785 0.66484 0.35249 0.0
H419 H 0.73841 0.74699 0.32869 0.0
H420 H 0.79019 0.94244 0.34774 0.0
H421 H 0.80933 0.91566 0.38136 0.0
C422 C 0.79034 0.79709 0.39392 0.0
C423 C 0.77589 0.73209 0.39818 0.0
C424 C 0.78129 0.8144 0.37464 0.0
C425 C 0.75208 0.68497 0.38303 0.0
C426 C 0.74509 0.70221 0.3639 0.0
C427 C 0.7528 0.78366 0.34024 0.0
C428 C 0.76192 0.84634 0.33574 0.0
C429 C 0.75994 0.76669 0.35952 0.0
C430 C 0.78267 0.89376 0.35079 0.0
C431 C 0.79313 0.87818 0.37003 0.0
H432 H 0.55443 0.92615 0.30385 0.0
H433 H 0.58826 0.847 0.35716 0.0
H434 H 0.55016 0.9092 0.3768 0.0
H435 H 0.51151 0.98943 0.37869 0.0
H436 H 0.47805 0.06785 0.32522 0.0
H437 H 0.51272 1.00283 0.30565 0.0
C438 C 0.55359 0.92238 0.31979 0.0
C439 C 0.57482 0.88246 0.32906 0.0
C440 C 0.53234 0.95858 0.33089 0.0
C441 C 0.57214 0.87727 0.34967 0.0
C442 C 0.55075 0.91313 0.36089 0.0
C443 C 0.51205 0.9924 0.36274 0.0
C444 C 0.4931 0.03389 0.35335 0.0
C445 C 0.53158 0.95457 0.35164 0.0
C446 C 0.49317 0.03679 0.33273 0.0
C447 C 0.51271 0.99948 0.32157 0.0
H448 H 0.5268 0.49371 0.54543 0.0
H449 H 0.4146 0.43404 0.49158 0.0
H450 H 0.51491 0.47025 0.47255 0.0
H451 H 0.63426 0.5239 0.47114 0.0
H452 H 0.74769 0.58409 0.52477 0.0
H453 H 0.64675 0.54162 0.54411 0.0
C454 C 0.52446 0.48855 0.52953 0.0
C455 C 0.46376 0.46211 0.51984 0.0
C456 C 0.5823 0.50947 0.51873 0.0
C457 C 0.46097 0.45485 0.4993 0.0
C458 C 0.51821 0.47547 0.48844 0.0
C459 C 0.63696 0.52772 0.48708 0.0
C460 C 0.69825 0.5579 0.49655 0.0
C461 C 0.57911 0.50371 0.49799 0.0
C462 C 0.701 0.56112 0.51719 0.0
C463 C 0.64339 0.53719 0.52821 0.0
H464 H 0.07638 0.62906 0.6389 0.0
H465 H 0.17222 0.73474 0.692 0.0
H466 H 0.11258 0.6325 0.71103 0.0
H467 H 0.03142 0.51375 0.71248 0.0
H468 H 0.93763 0.40906 0.65911 0.0
H469 H 0.99827 0.51103 0.64016 0.0
C470 C 0.08417 0.63012 0.65467 0.0
C471 C 0.12819 0.68979 0.66408 0.0
C472 C 0.04991 0.57147 0.6654 0.0
C473 C 0.13859 0.68962 0.68443 0.0
C474 C 0.10433 0.63123 0.69529 0.0
C475 C 0.02414 0.51337 0.6967 0.0
C476 C 0.97963 0.45423 0.68718 0.0
C477 C 0.05954 0.57202 0.68593 0.0
C478 C 0.97114 0.45412 0.66674 0.0
C479 C 1.0059 0.51231 0.65593 0.0
H480 H 0.52506 0.15175 0.80244 0.0
H481 H 0.46708 0.21768 0.85399 0.0
H482 H 0.50124 0.15479 0.87502 0.0
H483 H 0.53853 0.07327 0.87827 0.0
H484 H 0.59281 1.00598 0.82623 0.0
H485 H 0.56872 0.07716 0.80575 0.0
C486 C 0.52025 0.15284 0.81831 0.0
C487 C 0.49286 0.18871 0.82667 0.0
C488 C 0.53859 0.1157 0.83013 0.0
C489 C 0.48817 0.19062 0.84723 0.0
C490 C 0.50714 0.15419 0.85921 0.0
C491 C 0.54527 0.07446 0.86245 0.0
C492 C 0.56661 0.03387 0.8537 0.0
C493 C 0.53086 0.11525 0.85076 0.0
C494 C 0.57582 0.03626 0.83324 0.0
C495 C 0.56216 0.07701 0.82156 0.0
H496 H 0.40965 0.47765 0.96599 0.0
H497 H 0.30495 0.45911 0.01994 0.0
H498 H 0.40783 0.50751 0.03842 0.0
H499 H 0.52574 0.5484 0.03932 0.0
H500 H 0.63106 0.56888 0.9854 0.0
H501 H 0.52904 0.52655 0.96658 0.0
C502 C 0.40939 0.4842 0.9818 0.0
C503 C 0.35002 0.46401 0.99173 0.0
C504 C 0.46844 0.51218 0.99221 0.0
C505 C 0.35025 0.47414 0.01208 0.0
C506 C 0.40887 0.50157 0.02261 0.0
C507 C 0.52634 0.54386 0.02343 0.0
C508 C 0.5851 0.56052 0.01368 0.0
C509 C 0.46796 0.51973 0.01285 0.0
C510 C 0.58591 0.55562 0.99313 0.0
C511 C 0.52778 0.53141 0.98243 0.0
H512 H 1.00476 0.5086 0.2103 0.0
H513 H 0.1023 0.61334 0.15735 0.0
H514 H 0.04087 0.51199 0.13813 0.0
H515 H 0.96144 0.39409 0.13663 0.0
H516 H 0.86075 0.28932 0.18927 0.0
H517 H 0.92111 0.39102 0.20851 0.0
C518 C 1.01268 0.50911 0.19455 0.0
C519 C 0.05855 0.56788 0.18522 0.0
C520 C 0.97659 0.45103 0.18364 0.0
C521 C 0.06771 0.56839 0.16481 0.0
C522 C 0.03253 0.5106 0.15386 0.0
C523 C 0.95275 0.39331 0.15234 0.0
C524 C 0.90735 0.33411 0.16162 0.0
C525 C 0.98723 0.45168 0.16316 0.0
C526 C 0.89553 0.33427 0.18185 0.0
C527 C 0.93021 0.39227 0.19282 0.0
H528 H 0.0516 0.53649 0.48069 0.0
H529 H 0.98762 0.58231 0.53495 0.0
H530 H 0.04817 0.54105 0.55386 0.0
H531 H 0.11261 0.48548 0.55481 0.0
H532 H 0.17773 0.44002 0.50068 0.0
H533 H 0.12338 0.48816 0.48172 0.0
C534 C 0.05127 0.53771 0.49666 0.0
C535 C 1.01469 0.56143 0.50649 0.0
C536 C 0.08585 0.51372 0.50736 0.0
C537 C 1.01509 0.56366 0.52713 0.0
C538 C 0.04954 0.54003 0.53791 0.0
C539 C 0.115 0.48612 0.53884 0.0
C540 C 0.14817 0.45837 0.52909 0.0
C541 C 0.08392 0.51379 0.52815 0.0
C542 C 0.15221 0.46089 0.50847 0.0
C543 C 0.12102 0.48817 0.49766 0.0
H544 H 0.4454 0.99978 0.69068 0.0
H545 H 0.5215 1.00128 0.63285 0.0
H546 H 0.63308 0.07495 0.64442 0.0
H547 H 0.71006 0.13355 0.67179 0.0
H548 H 0.63222 0.12481 0.72985 0.0
H549 H 0.5209 0.06188 0.71736 0.0
C550 C 0.48646 0.01644 0.68063 0.0
C551 C 0.47555 0.99479 0.66106 0.0
C552 C 0.55035 0.0585 0.68739 0.0
C553 C 0.52896 0.01693 0.6481 0.0
C554 C 0.59274 0.05928 0.65467 0.0
C555 C 0.66852 0.11911 0.68149 0.0
C556 C 0.67906 0.13468 0.70157 0.0
C557 C 0.60421 0.07992 0.67436 0.0
C558 C 0.62511 0.11433 0.71422 0.0
C559 C 0.56139 0.07763 0.70716 0.0
H560 H 0.57415 0.73981 0.84215 0.0
H561 H 0.48263 0.64185 0.89647 0.0
H562 H 0.44095 0.53466 0.88078 0.0
H563 H 0.43893 0.4684 0.85242 0.0
H564 H 0.53403 0.56587 0.7984 0.0
H565 H 0.56603 0.673 0.81306 0.0
C566 C 0.54381 0.69492 0.85035 0.0
C567 C 0.53131 0.6986 0.87038 0.0
C568 C 0.52169 0.63318 0.84138 0.0
C569 C 0.49287 0.64015 0.881 0.0
C570 C 0.46932 0.5788 0.87208 0.0
C571 C 0.46637 0.51314 0.84388 0.0
C572 C 0.4847 0.50944 0.82448 0.0
C573 C 0.48494 0.57466 0.85244 0.0
C574 C 0.51977 0.56761 0.81346 0.0
C575 C 0.538 0.62891 0.82181 0.0
H576 H 0.95856 0.5617 0.05398 0.0
H577 H 0.86389 0.57125 1.0006 0.0
H578 H 0.92626 0.53308 0.98154 0.0
H579 H 1.00904 0.49961 0.97984 0.0
H580 H 0.10131 0.48486 0.03295 0.0
H581 H 0.03867 0.52294 0.05241 0.0
C582 C 0.95169 0.55548 0.03817 0.0
C583 C 0.90708 0.56986 0.02868 0.0
C584 C 0.98744 0.53302 0.02729 0.0
C585 C 0.89783 0.5605 1.00826 0.0
C586 C 0.93367 0.53894 0.99733 0.0
C587 C 1.01568 0.50498 0.99568 0.0
C588 C 0.06027 0.49049 1.00498 0.0
C589 C 0.97889 0.52561 1.00667 0.0
C590 C 0.06766 0.4965 0.02551 0.0
C591 C 0.03178 0.51805 0.03659 0.0
H592 H 0.52 0.99178 0.14581 0.0
H593 H 0.62453 0.09174 0.19855 0.0
H594 H 0.52397 0.03042 0.21787 0.0
H595 H 0.40658 0.95071 0.21948 0.0
H596 H 0.30216 0.84793 0.16701 0.0
H597 H 0.40321 0.90768 0.14775 0.0
C598 C 0.52065 1.00024 0.16154 0.0
C599 C 0.57913 0.04681 0.17077 0.0
C600 C 0.46302 0.96426 0.17251 0.0
C601 C 0.57981 0.05663 0.19115 0.0
C602 C 0.52247 0.02151 0.20217 0.0
C603 C 0.40578 0.94141 0.20381 0.0
C604 C 0.34684 0.89561 0.19458 0.0
C605 C 0.4638 0.97563 0.19295 0.0
C606 C 0.34693 0.883 0.17439 0.0
C607 C 0.40455 0.91734 0.1634 0.0
H608 H 0.55323 0.50228 0.31419 0.0
H609 H 0.58361 0.61317 0.36773 0.0
H610 H 0.54028 0.51184 0.3871 0.0
H611 H 0.48788 0.39165 0.38847 0.0
H612 H 0.45962 0.28041 0.33513 0.0
H613 H 0.50852 0.38248 0.31585 0.0
C614 C 0.55063 0.50415 0.33011 0.0
C615 C 0.57049 0.56452 0.33959 0.0
C616 C 0.5258 0.44591 0.34107 0.0
C617 C 0.56792 0.56689 0.36018 0.0
C618 C 0.54312 0.50911 0.37122 0.0
C619 C 0.49236 0.38979 0.37261 0.0
C620 C 0.46932 0.32888 0.3631 0.0
C621 C 0.5208 0.44832 0.36176 0.0
C622 C 0.47685 0.32697 0.34267 0.0
C623 C 0.50458 0.38514 0.33169 0.0
H624 H 0.08996 0.79194 0.46106 0.0
H625 H 1.01564 0.74586 0.4017 0.0
H626 H 0.11764 0.83905 0.38926 0.0
H627 H 0.22256 0.93959 0.39578 0.0
H628 H 0.2885 0.9948 0.4556 0.0
H629 H 0.19533 0.89161 0.46754 0.0
C630 C 0.09686 0.80146 0.44535 0.0
C631 C 0.04618 0.76174 0.4322 0.0
C632 C 0.1538 0.85699 0.43852 0.0
C633 C 0.05449 0.77557 0.41198 0.0
C634 C 0.11254 0.82889 0.40493 0.0
C635 C 0.2171 0.92815 0.4114 0.0
C636 C 0.26244 0.97371 0.42486 0.0
C637 C 0.1618 0.87075 0.41812 0.0
C638 C 0.25423 0.95984 0.44507 0.0
C639 C 0.20101 0.90113 0.45184 0.0
H640 H 0.30655 0.22365 0.56363 0.0
H641 H 0.28485 0.27221 0.62333 0.0
H642 H 0.29485 0.17896 0.6355 0.0
H643 H 0.2957 0.07629 0.6287 0.0
H644 H 0.29795 0.01786 0.56868 0.0
H645 H 0.31057 0.12267 0.55689 0.0
C646 C 0.30579 0.21468 0.57934 0.0
C647 C 0.29611 0.25498 0.59267 0.0
C648 C 0.30757 0.15893 0.58603 0.0
C649 C 0.29296 0.24198 0.61291 0.0
C650 C 0.29836 0.18862 0.61981 0.0
C651 C 0.30084 0.08758 0.61307 0.0
C652 C 0.29734 0.0406 0.59951 0.0
C653 C 0.30382 0.14576 0.60646 0.0
C654 C 0.30157 0.05409 0.57929 0.0
C655 C 0.30832 0.11365 0.5726 0.0
H656 H 0.21714 0.20427 0.75554 0.0
H657 H 0.33023 0.41626 0.75802 0.0
H658 H 0.23024 0.42238 0.75225 0.0
H659 H 0.10817 0.36516 0.74874 0.0
H660 H 0.99911 0.15264 0.75151 0.0
H661 H 0.0999 0.14902 0.75331 0.0
C662 C 0.22056 0.2521 0.75433 0.0
C663 C 0.28116 0.30978 0.75673 0.0
C664 C 0.16304 0.25491 0.7525 0.0
C665 C 0.28411 0.37116 0.75583 0.0
C666 C 0.22691 0.37456 0.75278 0.0
C667 C 0.10694 0.3184 0.74998 0.0
C668 C 0.04636 0.25938 0.75038 0.0
C669 C 0.16569 0.31652 0.75158 0.0
C670 C 0.04504 0.19887 0.75173 0.0
C671 C 0.10268 0.19658 0.7525 0.0
H672 H 0.80437 0.08925 0.89706 0.0
H673 H 0.74078 0.04096 0.95727 0.0
H674 H 0.83857 0.14144 0.96855 0.0
H675 H 0.94706 0.23484 0.9614 0.0
H676 H 1.0185 0.27339 0.90164 0.0
H677 H 0.91238 0.18494 0.88981 0.0
C678 C 0.8115 0.10197 0.91259 0.0
C679 C 0.7657 0.05929 0.9264 0.0
C680 C 0.86934 0.15735 0.91892 0.0
C681 C 0.77553 0.07418 0.94651 0.0
C682 C 0.83138 0.13116 0.9529 0.0
C683 C 0.93886 0.22477 0.94574 0.0
C684 C 0.98988 0.26058 0.93232 0.0
C685 C 0.87935 0.17203 0.93926 0.0
C686 C 0.97953 0.24627 0.91215 0.0
C687 C 0.91911 0.19579 0.90544 0.0
H688 H 0.73406 0.93671 0.12584 0.0
H689 H 0.74843 1.00964 0.06672 0.0
H690 H 0.73758 0.90726 0.05344 0.0
H691 H 0.73576 0.80234 0.05887 0.0
H692 H 0.73928 0.7384 0.11815 0.0
H693 H 0.72975 0.8307 0.13121 0.0
C694 C 0.73313 0.92938 0.11003 0.0
C695 C 0.74098 0.98009 0.09723 0.0
C696 C 0.73047 0.872 0.1026 0.0
C697 C 0.74178 0.97095 0.07682 0.0
C698 C 0.73587 0.91258 0.06925 0.0
C699 C 0.73345 0.80811 0.07463 0.0
C700 C 0.73814 0.76355 0.08754 0.0
C701 C 0.73188 0.86348 0.08202 0.0
C702 C 0.73566 0.77198 0.10794 0.0
C703 C 0.73051 0.82491 0.1154 0.0
H704 H 0.81028 0.72554 0.29373 0.0
H705 H 0.75526 0.74064 0.23426 0.0
H706 H 0.84903 0.73346 0.2216 0.0
H707 H 0.95269 0.73456 0.22772 0.0
H708 H 1.016 0.73669 0.2874 0.0
H709 H 0.91296 0.72493 0.29984 0.0
C710 C 0.81804 0.72559 0.27798 0.0
C711 C 0.77542 0.73232 0.26487 0.0
C712 C 0.87396 0.72519 0.27094 0.0
C713 C 0.78707 0.73466 0.24455 0.0
C714 C 0.8408 0.73091 0.23735 0.0
C715 C 0.94312 0.73093 0.24344 0.0
C716 C 0.99116 0.73536 0.25668 0.0
C717 C 0.88541 0.72773 0.25043 0.0
C718 C 0.97933 0.73272 0.277 0.0
C719 C 0.92061 0.72626 0.28407 0.0
H720 H 0.71795 0.41577 0.46752 0.0
H721 H 0.74797 0.53204 0.41521 0.0
H722 H 0.64392 0.44343 0.40165 0.0
H723 H 0.55008 0.32831 0.40383 0.0
H724 H 0.53016 0.21132 0.45518 0.0
H725 H 0.62575 0.30526 0.47009 0.0
C726 C 0.70208 0.42233 0.45311 0.0
C727 C 0.74093 0.48062 0.44234 0.0
C728 C 0.64433 0.37071 0.4453 0.0
C729 C 0.71881 0.48814 0.42387 0.0
C730 C 0.65966 0.43717 0.41609 0.0
C731 C 0.56622 0.32397 0.41842 0.0
C732 C 0.53301 0.26328 0.42859 0.0
C733 C 0.62273 0.37766 0.42655 0.0
C734 C 0.55489 0.25757 0.44724 0.0
C735 C 0.60948 0.31116 0.45568 0.0
H736 H 0.2202 0.66275 0.63081 0.0
H737 H 0.2448 0.76419 0.57577 0.0
H738 H 0.24345 0.67198 0.55806 0.0
H739 H 0.25725 0.57442 0.55943 0.0
H740 H 0.23549 0.47455 0.61465 0.0
H741 H 0.21313 0.55433 0.63131 0.0
C742 C 0.22342 0.66373 0.61486 0.0
C743 C 0.23375 0.72032 0.60453 0.0
C744 C 0.2245 0.61169 0.60501 0.0
C745 C 0.23691 0.72109 0.58393 0.0
C746 C 0.23696 0.66878 0.57391 0.0
C747 C 0.24647 0.56949 0.57508 0.0
C748 C 0.2493 0.51972 0.58598 0.0
C749 C 0.23436 0.61573 0.58445 0.0
C750 C 0.23391 0.51273 0.60607 0.0
C751 C 0.22149 0.55849 0.61555 0.0
H752 H 0.61247 0.31042 0.79784 0.0
H753 H 0.51777 0.25482 0.74112 0.0
H754 H 0.60257 0.23066 0.72954 0.0
H755 H 0.71104 0.2407 0.73457 0.0
H756 H 0.8059 0.29878 0.79112 0.0
H757 H 0.71352 0.30836 0.80393 0.0
C758 C 0.60989 0.29231 0.78297 0.0
C759 C 0.55968 0.28523 0.77017 0.0
C760 C 0.65907 0.28005 0.77648 0.0
C761 C 0.55601 0.26053 0.75115 0.0
C762 C 0.60472 0.24736 0.74455 0.0
C763 C 0.71023 0.2531 0.74988 0.0
C764 C 0.76426 0.26791 0.76209 0.0
C765 C 0.65746 0.25896 0.75693 0.0
C766 C 0.76449 0.28687 0.78162 0.0
C767 C 0.71185 0.29231 0.78886 0.0
H768 H 0.4018 0.74358 0.89924 0.0
H769 H 0.53695 0.74967 0.94321 0.0
H770 H 0.45729 0.63538 0.95269 0.0
H771 H 0.34582 0.5372 0.94951 0.0
H772 H 0.21301 0.53672 0.90564 0.0
H773 H 0.29687 0.64574 0.89448 0.0
C774 C 0.41434 0.72037 0.91096 0.0
C775 C 0.47491 0.75548 0.92076 0.0
C776 C 0.36912 0.6555 0.91603 0.0
C777 C 0.49033 0.72393 0.93566 0.0
C778 C 0.44495 0.65863 0.94095 0.0
C779 C 0.33598 0.56033 0.93717 0.0
C780 C 0.27348 0.52894 0.92822 0.0
C781 C 0.38383 0.6242 0.93133 0.0
C782 C 0.26085 0.55983 0.91255 0.0
C783 C 0.3085 0.62229 0.90634 0.0
H784 H 0.78761 0.32847 0.12471 0.0
H785 H 0.7643 0.2424 0.06706 0.0
H786 H 0.7707 0.34058 0.05207 0.0
H787 H 0.77188 0.44423 0.05556 0.0
H788 H 0.78488 0.52888 0.11292 0.0
H789 H 0.79594 0.43897 0.12798 0.0
C790 C 0.78457 0.33186 0.10885 0.0
C791 C 0.77509 0.27841 0.09687 0.0
C792 C 0.78665 0.388 0.10042 0.0
C793 C 0.77119 0.2828 0.07643 0.0
C794 C 0.77493 0.33888 0.06793 0.0
C795 C 0.7778 0.44367 0.0714 0.0
C796 C 0.77682 0.49283 0.08316 0.0
C797 C 0.78106 0.39083 0.07981 0.0
C798 C 0.78576 0.4919 0.10356 0.0
C799 C 0.79124 0.44002 0.11213 0.0
H800 H 0.43267 0.7244 0.29967 0.0
H801 H 0.54683 0.80278 0.24675 0.0
H802 H 0.46038 0.8213 0.23301 0.0
H803 H 0.34699 0.80422 0.23518 0.0
H804 H 0.23176 0.71451 0.28725 0.0
H805 H 0.32431 0.71098 0.30233 0.0
C806 C 0.43923 0.74584 0.2851 0.0
C807 C 0.49624 0.76202 0.2742 0.0
C808 C 0.38875 0.75375 0.2772 0.0
C809 C 0.5039 0.79051 0.25551 0.0
C810 C 0.45412 0.80045 0.24764 0.0
C811 C 0.3428 0.78497 0.24997 0.0
C812 C 0.28292 0.76003 0.26028 0.0
C813 C 0.39565 0.78085 0.25822 0.0
C814 C 0.2774 0.73413 0.27919 0.0
C815 C 0.33019 0.73199 0.28773 0.0
loop_
_geom_bond_atom_site_label_1
_geom_bond_atom_site_label_2
_geom_bond_distance
_geom_bond_site_symmetry_2
_ccdc_geom_bond_type
Tb0 O3 2.453 . S
Tb0 O4 2.596 . S
Tb0 O5 2.374 . S
Tb0 O13 2.343 . S
Tb0 O15 2.353 . S
Tb0 O17 2.427 . S
Tb0 O18 2.513 . S
C1 O5 1.251 1_565 S
C1 O7 1.263 . S
Tb2 O4 2.343 . S
Tb2 O7 2.353 1_545 S
Tb2 O10 2.427 1_545 S
Tb2 O11 2.513 . S
Tb2 O12 2.453 . S
Tb2 O13 2.596 . S
Tb2 O14 2.374 . S
O3 Tb0 2.453 . S
O3 C19 1.245 . S
O4 Tb0 2.596 . S
O4 Tb2 2.343 . S
O4 C19 1.259 . S
O5 Tb0 2.374 . S
O5 C1 1.251 1_545 S
C6 O10 1.275 . S
C6 O11 1.246 1_565 S
O7 C1 1.263 . S
O7 Tb2 2.353 1_565 S
C8 O12 1.245 . S
C8 O13 1.259 . S
C9 O14 1.250 . S
C9 O15 1.263 . S
O10 Tb2 2.427 1_565 S
O10 C6 1.275 . S
O11 Tb2 2.513 . S
O11 C6 1.246 1_545 S
O12 Tb2 2.453 . S
O12 C8 1.245 . S
O13 Tb0 2.343 . S
O13 Tb2 2.596 . S
O13 C8 1.259 . S
O14 Tb2 2.374 . S
O14 C9 1.250 . S
O15 Tb0 2.353 . S
O15 C9 1.263 . S
C16 O17 1.275 . S
C16 O18 1.246 . S
O17 Tb0 2.427 . S
O17 C16 1.275 . S
O18 Tb0 2.513 . S
O18 C16 1.246 . S
C19 O3 1.245 . S
C19 O4 1.259 . S
Tb20 O23 2.453 . S
Tb20 O24 2.596 . S
Tb20 O25 2.374 . S
Tb20 O33 2.343 . S
Tb20 O35 2.353 . S
Tb20 O37 2.427 . S
Tb20 O38 2.513 . S
C21 O25 1.251 . S
C21 O27 1.263 . S
Tb22 O24 2.343 . S
Tb22 O27 2.353 . S
Tb22 O30 2.427 . S
Tb22 O31 2.513 . S
Tb22 O32 2.453 . S
Tb22 O33 2.596 . S
Tb22 O34 2.374 . S
O23 Tb20 2.453 . S
O23 C39 1.245 . S
O24 Tb20 2.596 . S
O24 Tb22 2.343 . S
O24 C39 1.259 . S
O25 Tb20 2.374 . S
O25 C21 1.251 . S
C26 O30 1.275 . S
C26 O31 1.246 . S
O27 C21 1.263 . S
O27 Tb22 2.353 . S
C28 O32 1.245 . S
C28 O33 1.259 . S
C29 O34 1.250 . S
C29 O35 1.263 . S
O30 Tb22 2.427 . S
O30 C26 1.275 . S
O31 Tb22 2.513 . S
O31 C26 1.246 . S
O32 Tb22 2.453 . S
O32 C28 1.245 . S
O33 Tb20 2.343 . S
O33 Tb22 2.596 . S
O33 C28 1.259 . S
O34 Tb22 2.374 . S
O34 C29 1.250 . S
O35 Tb20 2.353 . S
O35 C29 1.263 . S
C36 O37 1.275 . S
C36 O38 1.246 . S
O37 Tb20 2.427 . S
O37 C36 1.275 . S
O38 Tb20 2.513 . S
O38 C36 1.246 . S
C39 O23 1.245 . S
C39 O24 1.259 . S
Tb40 O43 2.453 . S
Tb40 O44 2.596 . S
Tb40 O45 2.374 . S
Tb40 O53 2.343 . S
Tb40 O55 2.353 . S
Tb40 O57 2.427 . S
Tb40 O58 2.513 . S
C41 O45 1.251 1_455 S
C41 O47 1.263 . S
Tb42 O44 2.343 . S
Tb42 O47 2.353 1_655 S
Tb42 O50 2.427 1_655 S
Tb42 O51 2.513 . S
Tb42 O52 2.453 . S
Tb42 O53 2.596 . S
Tb42 O54 2.374 . S
O43 Tb40 2.453 . S
O43 C59 1.245 . S
O44 Tb40 2.596 . S
O44 Tb42 2.343 . S
O44 C59 1.259 . S
O45 Tb40 2.374 . S
O45 C41 1.251 1_655 S
C46 O50 1.275 . S
C46 O51 1.246 1_455 S
O47 C41 1.263 . S
O47 Tb42 2.353 1_455 S
C48 O52 1.245 . S
C48 O53 1.259 . S
C49 O54 1.250 . S
C49 O55 1.263 . S
O50 Tb42 2.427 1_455 S
O50 C46 1.275 . S
O51 Tb42 2.513 . S
O51 C46 1.246 1_655 S
O52 Tb42 2.453 . S
O52 C48 1.245 . S
O53 Tb40 2.343 . S
O53 Tb42 2.596 . S
O53 C48 1.259 . S
O54 Tb42 2.374 . S
O54 C49 1.250 . S
O55 Tb40 2.353 . S
O55 C49 1.263 . S
C56 O57 1.275 . S
C56 O58 1.246 . S
O57 Tb40 2.427 . S
O57 C56 1.275 . S
O58 Tb40 2.513 . S
O58 C56 1.246 . S
C59 O43 1.245 . S
C59 O44 1.259 . S
Tb60 O63 2.453 . S
Tb60 O64 2.596 . S
Tb60 O65 2.374 . S
Tb60 O73 2.343 . S
Tb60 O75 2.353 . S
Tb60 O77 2.427 . S
Tb60 O78 2.513 . S
C61 O65 1.251 1_545 S
C61 O67 1.263 . S
Tb62 O64 2.343 . S
Tb62 O67 2.353 1_565 S
Tb62 O70 2.427 1_565 S
Tb62 O71 2.513 . S
Tb62 O72 2.453 . S
Tb62 O73 2.596 . S
Tb62 O74 2.374 . S
O63 Tb60 2.453 . S
O63 C79 1.245 . S
O64 Tb60 2.596 . S
O64 Tb62 2.343 . S
O64 C79 1.259 . S
O65 Tb60 2.374 . S
O65 C61 1.251 1_565 S
C66 O70 1.275 . S
C66 O71 1.246 1_545 S
O67 C61 1.263 . S
O67 Tb62 2.353 1_545 S
C68 O72 1.245 . S
C68 O73 1.259 . S
C69 O74 1.250 . S
C69 O75 1.263 . S
O70 Tb62 2.427 1_545 S
O70 C66 1.275 . S
O71 Tb62 2.513 . S
O71 C66 1.246 1_565 S
O72 Tb62 2.453 . S
O72 C68 1.245 . S
O73 Tb60 2.343 . S
O73 Tb62 2.596 . S
O73 C68 1.259 . S
O74 Tb62 2.374 . S
O74 C69 1.250 . S
O75 Tb60 2.353 . S
O75 C69 1.263 . S
C76 O77 1.275 . S
C76 O78 1.246 . S
O77 Tb60 2.427 . S
O77 C76 1.275 . S
O78 Tb60 2.513 . S
O78 C76 1.246 . S
C79 O63 1.245 . S
C79 O64 1.259 . S
Tb80 O83 2.453 . S
Tb80 O84 2.596 . S
Tb80 O85 2.374 . S
Tb80 O93 2.343 . S
Tb80 O95 2.353 . S
Tb80 O97 2.427 . S
Tb80 O98 2.513 . S
C81 O85 1.251 . S
C81 O87 1.263 . S
Tb82 O84 2.343 . S
Tb82 O87 2.353 . S
Tb82 O90 2.427 . S
Tb82 O91 2.513 . S
Tb82 O92 2.453 . S
Tb82 O93 2.596 . S
Tb82 O94 2.374 . S
O83 Tb80 2.453 . S
O83 C99 1.245 . S
O84 Tb80 2.596 . S
O84 Tb82 2.343 . S
O84 C99 1.259 . S
O85 Tb80 2.374 . S
O85 C81 1.251 . S
C86 O90 1.275 . S
C86 O91 1.246 . S
O87 C81 1.263 . S
O87 Tb82 2.353 . S
C88 O92 1.245 . S
C88 O93 1.259 . S
C89 O94 1.250 . S
C89 O95 1.263 . S
O90 Tb82 2.427 . S
O90 C86 1.275 . S
O91 Tb82 2.513 . S
O91 C86 1.246 . S
O92 Tb82 2.453 . S
O92 C88 1.245 . S
O93 Tb80 2.343 . S
O93 Tb82 2.596 . S
O93 C88 1.259 . S
O94 Tb82 2.374 . S
O94 C89 1.250 . S
O95 Tb80 2.353 . S
O95 C89 1.263 . S
C96 O97 1.275 . S
C96 O98 1.246 . S
O97 Tb80 2.427 . S
O97 C96 1.275 . S
O98 Tb80 2.513 . S
O98 C96 1.246 . S
C99 O83 1.245 . S
C99 O84 1.259 . S
Tb100 O103 2.453 . S
Tb100 O104 2.596 . S
Tb100 O105 2.374 . S
Tb100 O113 2.343 . S
Tb100 O115 2.353 . S
Tb100 O117 2.427 . S
Tb100 O118 2.513 . S
C101 O105 1.251 1_655 S
C101 O107 1.263 . S
Tb102 O104 2.343 . S
Tb102 O107 2.353 1_455 S
Tb102 O110 2.427 1_455 S
Tb102 O111 2.513 . S
Tb102 O112 2.453 . S
Tb102 O113 2.596 . S
Tb102 O114 2.374 . S
O103 Tb100 2.453 . S
O103 C119 1.245 . S
O104 Tb100 2.596 . S
O104 Tb102 2.343 . S
O104 C119 1.259 . S
O105 Tb100 2.374 . S
O105 C101 1.251 1_455 S
C106 O110 1.275 . S
C106 O111 1.246 1_655 S
O107 C101 1.263 . S
O107 Tb102 2.353 1_655 S
C108 O112 1.245 . S
C108 O113 1.259 . S
C109 O114 1.250 . S
C109 O115 1.263 . S
O110 Tb102 2.427 1_655 S
O110 C106 1.275 . S
O111 Tb102 2.513 . S
O111 C106 1.246 1_455 S
O112 Tb102 2.453 . S
O112 C108 1.245 . S
O113 Tb100 2.343 . S
O113 Tb102 2.596 . S
O113 C108 1.259 . S
O114 Tb102 2.374 . S
O114 C109 1.250 . S
O115 Tb100 2.353 . S
O115 C109 1.263 . S
C116 O117 1.275 . S
C116 O118 1.246 . S
O117 Tb100 2.427 . S
O117 C116 1.275 . S
O118 Tb100 2.513 . S
O118 C116 1.246 . S
C119 O103 1.245 . S
C119 O104 1.259 . S
Tb120 O123 2.453 . S
Tb120 O124 2.596 . S
Tb120 O125 2.374 . S
Tb120 O133 2.343 . S
Tb120 O135 2.353 . S
Tb120 O137 2.427 . S
Tb120 O138 2.513 . S
C121 O125 1.251 1_455 S
C121 O127 1.263 . S
Tb122 O124 2.343 . S
Tb122 O127 2.353 1_655 S
Tb122 O130 2.427 1_655 S
Tb122 O131 2.513 . S
Tb122 O132 2.453 . S
Tb122 O133 2.596 . S
Tb122 O134 2.374 . S
O123 Tb120 2.453 . S
O123 C139 1.245 . S
O124 Tb120 2.596 . S
O124 Tb122 2.343 . S
O124 C139 1.259 . S
O125 Tb120 2.374 . S
O125 C121 1.251 1_655 S
C126 O130 1.275 . S
C126 O131 1.246 1_455 S
O127 C121 1.263 . S
O127 Tb122 2.353 1_455 S
C128 O132 1.245 . S
C128 O133 1.259 . S
C129 O134 1.250 . S
C129 O135 1.263 . S
O130 Tb122 2.427 1_455 S
O130 C126 1.275 . S
O131 Tb122 2.513 . S
O131 C126 1.246 1_655 S
O132 Tb122 2.453 . S
O132 C128 1.245 . S
O133 Tb120 2.343 . S
O133 Tb122 2.596 . S
O133 C128 1.259 . S
O134 Tb122 2.374 . S
O134 C129 1.250 . S
O135 Tb120 2.353 . S
O135 C129 1.263 . S
C136 O137 1.275 . S
C136 O138 1.246 . S
O137 Tb120 2.427 . S
O137 C136 1.275 . S
O138 Tb120 2.513 . S
O138 C136 1.246 . S
C139 O123 1.245 . S
C139 O124 1.259 . S
Tb140 O143 2.453 . S
Tb140 O144 2.596 . S
Tb140 O145 2.374 . S
Tb140 O153 2.343 . S
Tb140 O155 2.353 . S
Tb140 O157 2.427 . S
Tb140 O158 2.513 . S
C141 O145 1.251 1_545 S
C141 O147 1.263 . S
Tb142 O144 2.343 . S
Tb142 O147 2.353 1_565 S
Tb142 O150 2.427 1_565 S
Tb142 O151 2.513 . S
Tb142 O152 2.453 . S
Tb142 O153 2.596 . S
Tb142 O154 2.374 . S
O143 Tb140 2.453 . S
O143 C159 1.245 . S
O144 Tb140 2.596 . S
O144 Tb142 2.343 . S
O144 C159 1.259 . S
O145 Tb140 2.374 . S
O145 C141 1.251 1_565 S
C146 O150 1.275 . S
C146 O151 1.246 1_545 S
O147 C141 1.263 . S
O147 Tb142 2.353 1_545 S
C148 O152 1.245 . S
C148 O153 1.259 . S
C149 O154 1.250 . S
C149 O155 1.263 . S
O150 Tb142 2.427 1_545 S
O150 C146 1.275 . S
O151 Tb142 2.513 . S
O151 C146 1.246 1_565 S
O152 Tb142 2.453 . S
O152 C148 1.245 . S
O153 Tb140 2.343 . S
O153 Tb142 2.596 . S
O153 C148 1.259 . S
O154 Tb142 2.374 . S
O154 C149 1.250 . S
O155 Tb140 2.353 . S
O155 C149 1.263 . S
C156 O157 1.275 . S
C156 O158 1.246 . S
O157 Tb140 2.427 . S
O157 C156 1.275 . S
O158 Tb140 2.513 . S
O158 C156 1.246 . S
C159 O143 1.245 . S
C159 O144 1.259 . S
Tb160 O163 2.453 . S
Tb160 O164 2.596 . S
Tb160 O165 2.374 . S
Tb160 O173 2.343 . S
Tb160 O175 2.353 . S
Tb160 O177 2.427 . S
Tb160 O178 2.513 . S
C161 O165 1.251 . S
C161 O167 1.263 . S
Tb162 O164 2.343 . S
Tb162 O167 2.353 . S
Tb162 O170 2.427 . S
Tb162 O171 2.513 . S
Tb162 O172 2.453 . S
Tb162 O173 2.596 . S
Tb162 O174 2.374 . S
O163 Tb160 2.453 . S
O163 C179 1.245 . S
O164 Tb160 2.596 . S
O164 Tb162 2.343 . S
O164 C179 1.259 . S
O165 Tb160 2.374 . S
O165 C161 1.251 . S
C166 O170 1.275 . S
C166 O171 1.246 . S
O167 C161 1.263 . S
O167 Tb162 2.353 . S
C168 O172 1.245 . S
C168 O173 1.259 . S
C169 O174 1.250 . S
C169 O175 1.263 . S
O170 Tb162 2.427 . S
O170 C166 1.275 . S
O171 Tb162 2.513 . S
O171 C166 1.246 . S
O172 Tb162 2.453 . S
O172 C168 1.245 . S
O173 Tb160 2.343 . S
O173 Tb162 2.596 . S
O173 C168 1.259 . S
O174 Tb162 2.374 . S
O174 C169 1.250 . S
O175 Tb160 2.353 . S
O175 C169 1.263 . S
C176 O177 1.275 . S
C176 O178 1.246 . S
O177 Tb160 2.427 . S
O177 C176 1.275 . S
O178 Tb160 2.513 . S
O178 C176 1.246 . S
C179 O163 1.245 . S
C179 O164 1.259 . S
Tb180 O183 2.453 . S
Tb180 O184 2.596 . S
Tb180 O185 2.374 . S
Tb180 O193 2.343 . S
Tb180 O195 2.353 . S
Tb180 O197 2.427 . S
Tb180 O198 2.513 . S
C181 O185 1.251 1_655 S
C181 O187 1.263 . S
Tb182 O184 2.343 . S
Tb182 O187 2.353 1_455 S
Tb182 O190 2.427 1_455 S
Tb182 O191 2.513 . S
Tb182 O192 2.453 . S
Tb182 O193 2.596 . S
Tb182 O194 2.374 . S
O183 Tb180 2.453 . S
O183 C199 1.245 . S
O184 Tb180 2.596 . S
O184 Tb182 2.343 . S
O184 C199 1.259 . S
O185 Tb180 2.374 . S
O185 C181 1.251 1_455 S
C186 O190 1.275 . S
C186 O191 1.246 1_655 S
O187 C181 1.263 . S
O187 Tb182 2.353 1_655 S
C188 O192 1.245 . S
C188 O193 1.259 . S
C189 O194 1.250 . S
C189 O195 1.263 . S
O190 Tb182 2.427 1_655 S
O190 C186 1.275 . S
O191 Tb182 2.513 . S
O191 C186 1.246 1_455 S
O192 Tb182 2.453 . S
O192 C188 1.245 . S
O193 Tb180 2.343 . S
O193 Tb182 2.596 . S
O193 C188 1.259 . S
O194 Tb182 2.374 . S
O194 C189 1.250 . S
O195 Tb180 2.353 . S
O195 C189 1.263 . S
C196 O197 1.275 . S
C196 O198 1.246 . S
O197 Tb180 2.427 . S
O197 C196 1.275 . S
O198 Tb180 2.513 . S
O198 C196 1.246 . S
C199 O183 1.245 . S
C199 O184 1.259 . S
Tb200 O203 2.453 . S
Tb200 O204 2.596 . S
Tb200 O205 2.374 . S
Tb200 O213 2.343 . S
Tb200 O215 2.353 . S
Tb200 O217 2.427 . S
Tb200 O218 2.513 . S
C201 O205 1.251 1_565 S
C201 O207 1.263 . S
Tb202 O204 2.343 . S
Tb202 O207 2.353 1_545 S
Tb202 O210 2.427 1_545 S
Tb202 O211 2.513 . S
Tb202 O212 2.453 . S
Tb202 O213 2.596 . S
Tb202 O214 2.374 . S
O203 Tb200 2.453 . S
O203 C219 1.245 . S
O204 Tb200 2.596 . S
O204 Tb202 2.343 . S
O204 C219 1.259 . S
O205 Tb200 2.374 . S
O205 C201 1.251 1_545 S
C206 O210 1.275 . S
C206 O211 1.246 1_565 S
O207 C201 1.263 . S
O207 Tb202 2.353 1_565 S
C208 O212 1.245 . S
C208 O213 1.259 . S
C209 O214 1.250 . S
C209 O215 1.263 . S
O210 Tb202 2.427 1_565 S
O210 C206 1.275 . S
O211 Tb202 2.513 . S
O211 C206 1.246 1_545 S
O212 Tb202 2.453 . S
O212 C208 1.245 . S
O213 Tb200 2.343 . S
O213 Tb202 2.596 . S
O213 C208 1.259 . S
O214 Tb202 2.374 . S
O214 C209 1.250 . S
O215 Tb200 2.353 . S
O215 C209 1.263 . S
C216 O217 1.275 . S
C216 O218 1.246 . S
O217 Tb200 2.427 . S
O217 C216 1.275 . S
O218 Tb200 2.513 . S
O218 C216 1.246 . S
C219 O203 1.245 . S
C219 O204 1.259 . S
Tb220 O223 2.453 . S
Tb220 O224 2.596 . S
Tb220 O225 2.374 . S
Tb220 O233 2.343 . S
Tb220 O235 2.353 . S
Tb220 O237 2.427 . S
Tb220 O238 2.513 . S
C221 O225 1.251 . S
C221 O227 1.263 . S
Tb222 O224 2.343 . S
Tb222 O227 2.353 . S
Tb222 O230 2.427 . S
Tb222 O231 2.513 . S
Tb222 O232 2.453 . S
Tb222 O233 2.596 . S
Tb222 O234 2.374 . S
O223 Tb220 2.453 . S
O223 C239 1.245 . S
O224 Tb220 2.596 . S
O224 Tb222 2.343 . S
O224 C239 1.259 . S
O225 Tb220 2.374 . S
O225 C221 1.251 . S
C226 O230 1.275 . S
C226 O231 1.246 . S
O227 C221 1.263 . S
O227 Tb222 2.353 . S
C228 O232 1.245 . S
C228 O233 1.259 . S
C229 O234 1.250 . S
C229 O235 1.263 . S
O230 Tb222 2.427 . S
O230 C226 1.275 . S
O231 Tb222 2.513 . S
O231 C226 1.246 . S
O232 Tb222 2.453 . S
O232 C228 1.245 . S
O233 Tb220 2.343 . S
O233 Tb222 2.596 . S
O233 C228 1.259 . S
O234 Tb222 2.374 . S
O234 C229 1.250 . S
O235 Tb220 2.353 . S
O235 C229 1.263 . S
C236 O237 1.275 . S
C236 O238 1.246 . S
O237 Tb220 2.427 . S
O237 C236 1.275 . S
O238 Tb220 2.513 . S
O238 C236 1.246 . S
C239 O223 1.245 . S
C239 O224 1.259 . S
H240 C246 0.930 . S
H241 C249 0.930 . S
H242 C250 0.930 . S
H243 C251 0.930 . S
H244 C254 0.930 . S
H245 C255 0.930 . S
C246 H240 0.930 . S
C246 C247 1.355 . S
C246 C248 1.415 . S
C247 C246 1.355 . S
C247 C249 1.419 . S
C248 C246 1.415 . S
C248 C253 1.425 . S
C248 C255 1.409 . S
C249 H241 0.930 . S
C249 C247 1.419 . S
C249 C250 1.362 . S
C250 H242 0.930 . S
C250 C249 1.362 . S
C250 C253 1.409 . S
C251 H243 0.930 . S
C251 C252 1.355 . S
C251 C253 1.415 . S
C252 C251 1.355 . S
C252 C254 1.419 . S
C253 C248 1.425 . S
C253 C250 1.409 . S
C253 C251 1.415 . S
C254 H244 0.930 . S
C254 C252 1.419 . S
C254 C255 1.362 . S
C255 H245 0.930 . S
C255 C248 1.409 . S
C255 C254 1.362 . S
H256 C262 0.930 . S
H257 C265 0.930 . S
H258 C266 0.930 . S
H259 C267 0.930 . S
H260 C270 0.930 . S
H261 C271 0.930 . S
C262 H256 0.930 . S
C262 C263 1.355 . S
C262 C264 1.415 . S
C263 C262 1.355 . S
C263 C265 1.419 . S
C264 C262 1.415 . S
C264 C269 1.425 . S
C264 C271 1.409 . S
C265 H257 0.930 . S
C265 C263 1.419 . S
C265 C266 1.362 . S
C266 H258 0.930 . S
C266 C265 1.362 . S
C266 C269 1.409 . S
C267 H259 0.930 . S
C267 C268 1.355 . S
C267 C269 1.415 . S
C268 C267 1.355 . S
C268 C270 1.419 . S
C269 C264 1.425 . S
C269 C266 1.409 . S
C269 C267 1.415 . S
C270 H260 0.930 . S
C270 C268 1.419 . S
C270 C271 1.362 . S
C271 H261 0.930 . S
C271 C264 1.409 . S
C271 C270 1.362 . S
H272 C278 0.930 . S
H273 C281 0.930 . S
H274 C282 0.930 1_655 S
H275 C283 0.930 . S
H276 C286 0.930 . S
H277 C287 0.930 . S
C278 H272 0.930 . S
C278 C279 1.355 . S
C278 C280 1.415 . S
C279 C278 1.355 . S
C279 C281 1.419 1_455 S
C280 C278 1.415 . S
C280 C285 1.425 . S
C280 C287 1.409 . S
C281 H273 0.930 . S
C281 C279 1.419 1_655 S
C281 C282 1.362 1_655 S
C282 H274 0.930 1_455 S
C282 C281 1.362 1_455 S
C282 C285 1.409 . S
C283 H275 0.930 . S
C283 C284 1.355 . S
C283 C285 1.415 . S
C284 C283 1.355 . S
C284 C286 1.419 . S
C285 C280 1.425 . S
C285 C282 1.409 . S
C285 C283 1.415 . S
C286 H276 0.930 . S
C286 C284 1.419 . S
C286 C287 1.362 . S
C287 H277 0.930 . S
C287 C280 1.409 . S
C287 C286 1.362 . S
H288 C294 0.930 . S
H289 C297 0.930 . S
H290 C298 0.930 . S
H291 C299 0.930 . S
H292 C302 0.930 . S
H293 C303 0.930 . S
C294 H288 0.930 . S
C294 C295 1.355 . S
C294 C296 1.415 . S
C295 C294 1.355 . S
C295 C297 1.419 . S
C296 C294 1.415 . S
C296 C301 1.425 . S
C296 C303 1.409 1_545 S
C297 H289 0.930 . S
C297 C295 1.419 . S
C297 C298 1.362 . S
C298 H290 0.930 . S
C298 C297 1.362 . S
C298 C301 1.409 . S
C299 H291 0.930 . S
C299 C300 1.355 . S
C299 C301 1.415 . S
C300 C299 1.355 . S
C300 C302 1.419 1_545 S
C301 C296 1.425 . S
C301 C298 1.409 . S
C301 C299 1.415 . S
C302 H292 0.930 . S
C302 C300 1.419 1_565 S
C302 C303 1.362 . S
C303 H293 0.930 . S
C303 C296 1.409 1_565 S
C303 C302 1.362 . S
H304 C310 0.930 . S
H305 C313 0.930 . S
H306 C314 0.930 . S
H307 C315 0.930 . S
H308 C318 0.930 . S
H309 C319 0.930 . S
C310 H304 0.930 . S
C310 C311 1.355 . S
C310 C312 1.415 . S
C311 C310 1.355 . S
C311 C313 1.419 . S
C312 C310 1.415 . S
C312 C317 1.425 . S
C312 C319 1.409 . S
C313 H305 0.930 . S
C313 C311 1.419 . S
C313 C314 1.362 . S
C314 H306 0.930 . S
C314 C313 1.362 . S
C314 C317 1.409 . S
C315 H307 0.930 . S
C315 C316 1.355 1_556 S
C315 C317 1.415 . S
C316 C315 1.355 1_554 S
C316 C318 1.419 . S
C317 C312 1.425 . S
C317 C314 1.409 . S
C317 C315 1.415 . S
C318 H308 0.930 . S
C318 C316 1.419 . S
C318 C319 1.362 1_554 S
C319 H309 0.930 . S
C319 C312 1.409 . S
C319 C318 1.362 1_556 S
H320 C326 0.930 . S
H321 C329 0.930 . S
H322 C330 0.930 1_455 S
H323 C331 0.930 . S
H324 C334 0.930 . S
H325 C335 0.930 . S
C326 H320 0.930 . S
C326 C327 1.355 . S
C326 C328 1.415 . S
C327 C326 1.355 . S
C327 C329 1.419 1_655 S
C328 C326 1.415 . S
C328 C333 1.425 . S
C328 C335 1.409 . S
C329 H321 0.930 . S
C329 C327 1.419 1_455 S
C329 C330 1.362 1_455 S
C330 H322 0.930 1_655 S
C330 C329 1.362 1_655 S
C330 C333 1.409 . S
C331 H323 0.930 . S
C331 C332 1.355 . S
C331 C333 1.415 . S
C332 C331 1.355 . S
C332 C334 1.419 . S
C333 C328 1.425 . S
C333 C330 1.409 . S
C333 C331 1.415 . S
C334 H324 0.930 . S
C334 C332 1.419 . S
C334 C335 1.362 . S
C335 H325 0.930 . S
C335 C328 1.409 . S
C335 C334 1.362 . S
H336 C342 0.930 . S
H337 C345 0.930 . S
H338 C346 0.930 . S
H339 C347 0.930 . S
H340 C350 0.930 1_655 S
H341 C351 0.930 . S
C342 H336 0.930 . S
C342 C343 1.355 . S
C342 C344 1.415 . S
C343 C342 1.355 . S
C343 C345 1.419 . S
C344 C342 1.415 . S
C344 C349 1.425 . S
C344 C351 1.409 . S
C345 H337 0.930 . S
C345 C343 1.419 . S
C345 C346 1.362 . S
C346 H338 0.930 . S
C346 C345 1.362 . S
C346 C349 1.409 . S
C347 H339 0.930 . S
C347 C348 1.355 . S
C347 C349 1.415 . S
C348 C347 1.355 . S
C348 C350 1.419 . S
C349 C344 1.425 . S
C349 C346 1.409 . S
C349 C347 1.415 . S
C350 H340 0.930 1_455 S
C350 C348 1.419 . S
C350 C351 1.362 . S
C351 H341 0.930 . S
C351 C344 1.409 . S
C351 C350 1.362 . S
H352 C358 0.930 . S
H353 C361 0.930 . S
H354 C362 0.930 . S
H355 C363 0.930 . S
H356 C366 0.930 . S
H357 C367 0.930 . S
C358 H352 0.930 . S
C358 C359 1.355 . S
C358 C360 1.415 . S
C359 C358 1.355 . S
C359 C361 1.419 . S
C360 C358 1.415 . S
C360 C365 1.425 . S
C360 C367 1.409 . S
C361 H353 0.930 . S
C361 C359 1.419 . S
C361 C362 1.362 . S
C362 H354 0.930 . S
C362 C361 1.362 . S
C362 C365 1.409 . S
C363 H355 0.930 . S
C363 C364 1.355 . S
C363 C365 1.415 . S
C364 C363 1.355 . S
C364 C366 1.419 . S
C365 C360 1.425 . S
C365 C362 1.409 . S
C365 C363 1.415 . S
C366 H356 0.930 . S
C366 C364 1.419 . S
C366 C367 1.362 . S
C367 H357 0.930 . S
C367 C360 1.409 . S
C367 C366 1.362 . S
H368 C374 0.930 . S
H369 C377 0.930 . S
H370 C378 0.930 . S
H371 C379 0.930 . S
H372 C382 0.930 . S
H373 C383 0.930 . S
C374 H368 0.930 . S
C374 C375 1.355 . S
C374 C376 1.415 . S
C375 C374 1.355 . S
C375 C377 1.419 . S
C376 C374 1.415 . S
C376 C381 1.425 . S
C376 C383 1.409 . S
C377 H369 0.930 . S
C377 C375 1.419 . S
C377 C378 1.362 . S
C378 H370 0.930 . S
C378 C377 1.362 . S
C378 C381 1.409 . S
C379 H371 0.930 . S
C379 C380 1.355 . S
C379 C381 1.415 . S
C380 C379 1.355 . S
C380 C382 1.419 . S
C381 C376 1.425 . S
C381 C378 1.409 . S
C381 C379 1.415 . S
C382 H372 0.930 . S
C382 C380 1.419 . S
C382 C383 1.362 . S
C383 H373 0.930 . S
C383 C376 1.409 . S
C383 C382 1.362 . S
H384 C390 0.930 . S
H385 C393 0.930 . S
H386 C394 0.930 . S
H387 C395 0.930 1_556 S
H388 C398 0.930 1_556 S
H389 C399 0.922 1_455 S
C390 H384 0.930 . S
C390 C391 1.355 . S
C390 C392 1.415 . S
C391 C390 1.355 . S
C391 C393 1.419 . S
C392 C390 1.415 . S
C392 C397 1.425 . S
C392 C399 1.409 . S
C393 H385 0.930 . S
C393 C391 1.419 . S
C393 C394 1.362 . S
C394 H386 0.930 . S
C394 C393 1.362 . S
C394 C397 1.409 . S
C395 H387 0.930 1_554 S
C395 C396 1.355 1_554 S
C395 C397 1.415 . S
C396 C395 1.355 1_556 S
C396 C398 1.419 1_656 S
C397 C392 1.425 . S
C397 C394 1.409 . S
C397 C395 1.415 . S
C398 H388 0.930 1_554 S
C398 C396 1.419 1_454 S
C398 C399 1.362 1_455 S
C399 H389 0.922 1_655 S
C399 C392 1.409 . S
C399 C398 1.362 1_655 S
H400 C406 0.930 . S
H401 C409 0.930 . S
H402 C410 0.930 . S
H403 C411 0.930 . S
H404 C414 0.930 . S
H405 C415 0.930 1_545 S
C406 H400 0.930 . S
C406 C407 1.355 . S
C406 C408 1.415 . S
C407 C406 1.355 . S
C407 C409 1.419 . S
C408 C406 1.415 . S
C408 C413 1.425 . S
C408 C415 1.409 . S
C409 H401 0.930 . S
C409 C407 1.419 . S
C409 C410 1.362 . S
C410 H402 0.930 . S
C410 C409 1.362 . S
C410 C413 1.409 . S
C411 H403 0.930 . S
C411 C412 1.355 . S
C411 C413 1.415 . S
C412 C411 1.355 . S
C412 C414 1.419 1_565 S
C413 C408 1.425 . S
C413 C410 1.409 . S
C413 C411 1.415 . S
C414 H404 0.930 . S
C414 C412 1.419 1_545 S
C414 C415 1.362 1_545 S
C415 H405 0.930 1_565 S
C415 C408 1.409 . S
C415 C414 1.362 1_565 S
H416 C422 0.930 . S
H417 C425 0.930 . S
H418 C426 0.930 . S
H419 C427 0.930 . S
H420 C430 0.930 . S
H421 C431 0.930 . S
C422 H416 0.930 . S
C422 C423 1.355 . S
C422 C424 1.415 . S
C423 C422 1.355 . S
C423 C425 1.419 . S
C424 C422 1.415 . S
C424 C429 1.425 . S
C424 C431 1.409 . S
C425 H417 0.930 . S
C425 C423 1.419 . S
C425 C426 1.362 . S
C426 H418 0.930 . S
C426 C425 1.362 . S
C426 C429 1.409 . S
C427 H419 0.930 . S
C427 C428 1.355 . S
C427 C429 1.415 . S
C428 C427 1.355 . S
C428 C430 1.419 . S
C429 C424 1.425 . S
C429 C426 1.409 . S
C429 C427 1.415 . S
C430 H420 0.930 . S
C430 C428 1.419 . S
C430 C431 1.362 . S
C431 H421 0.930 . S
C431 C424 1.409 . S
C431 C430 1.362 . S
H432 C438 0.930 . S
H433 C441 0.930 . S
H434 C442 0.930 . S
H435 C443 0.930 . S
H436 C446 0.930 . S
H437 C447 0.930 . S
C438 H432 0.930 . S
C438 C439 1.355 . S
C438 C440 1.415 . S
C439 C438 1.355 . S
C439 C441 1.419 . S
C440 C438 1.415 . S
C440 C445 1.425 . S
C440 C447 1.409 . S
C441 H433 0.930 . S
C441 C439 1.419 . S
C441 C442 1.362 . S
C442 H434 0.930 . S
C442 C441 1.362 . S
C442 C445 1.409 . S
C443 H435 0.930 . S
C443 C444 1.355 . S
C443 C445 1.415 . S
C444 C443 1.355 . S
C444 C446 1.419 . S
C445 C440 1.425 . S
C445 C442 1.409 . S
C445 C443 1.415 . S
C446 H436 0.930 . S
C446 C444 1.419 . S
C446 C447 1.362 . S
C447 H437 0.930 . S
C447 C440 1.409 . S
C447 C446 1.362 . S
H448 C454 0.930 . S
H449 C457 0.930 . S
H450 C458 0.930 . S
H451 C459 0.930 . S
H452 C462 0.930 . S
H453 C463 0.930 . S
C454 H448 0.930 . S
C454 C455 1.355 . S
C454 C456 1.415 . S
C455 C454 1.355 . S
C455 C457 1.419 . S
C456 C454 1.415 . S
C456 C461 1.425 . S
C456 C463 1.409 . S
C457 H449 0.930 . S
C457 C455 1.419 . S
C457 C458 1.362 . S
C458 H450 0.930 . S
C458 C457 1.362 . S
C458 C461 1.409 . S
C459 H451 0.930 . S
C459 C460 1.355 . S
C459 C461 1.415 . S
C460 C459 1.355 . S
C460 C462 1.419 . S
C461 C456 1.425 . S
C461 C458 1.409 . S
C461 C459 1.415 . S
C462 H452 0.930 . S
C462 C460 1.419 . S
C462 C463 1.362 . S
C463 H453 0.930 . S
C463 C456 1.409 . S
C463 C462 1.362 . S
H464 C470 0.930 . S
H465 C473 0.930 . S
H466 C474 0.930 . S
H467 C475 0.930 . S
H468 C478 0.930 . S
H469 C479 0.930 . S
C470 H464 0.930 . S
C470 C471 1.355 . S
C470 C472 1.415 . S
C471 C470 1.355 . S
C471 C473 1.419 . S
C472 C470 1.415 . S
C472 C477 1.425 . S
C472 C479 1.409 . S
C473 H465 0.930 . S
C473 C471 1.419 . S
C473 C474 1.362 . S
C474 H466 0.930 . S
C474 C473 1.362 . S
C474 C477 1.409 . S
C475 H467 0.930 . S
C475 C476 1.355 . S
C475 C477 1.415 . S
C476 C475 1.355 . S
C476 C478 1.419 . S
C477 C472 1.425 . S
C477 C474 1.409 . S
C477 C475 1.415 . S
C478 H468 0.930 . S
C478 C476 1.419 . S
C478 C479 1.362 . S
C479 H469 0.930 . S
C479 C472 1.409 . S
C479 C478 1.362 . S
H480 C486 0.930 . S
H481 C489 0.930 . S
H482 C490 0.930 . S
H483 C491 0.930 . S
H484 C494 0.930 . S
H485 C495 0.930 . S
C486 H480 0.930 . S
C486 C487 1.355 . S
C486 C488 1.415 . S
C487 C486 1.355 . S
C487 C489 1.419 . S
C488 C486 1.415 . S
C488 C493 1.425 . S
C488 C495 1.409 . S
C489 H481 0.930 . S
C489 C487 1.419 . S
C489 C490 1.362 . S
C490 H482 0.930 . S
C490 C489 1.362 . S
C490 C493 1.409 . S
C491 H483 0.930 . S
C491 C492 1.355 . S
C491 C493 1.415 . S
C492 C491 1.355 . S
C492 C494 1.419 . S
C493 C488 1.425 . S
C493 C490 1.409 . S
C493 C491 1.415 . S
C494 H484 0.930 . S
C494 C492 1.419 . S
C494 C495 1.362 . S
C495 H485 0.930 . S
C495 C488 1.409 . S
C495 C494 1.362 . S
H496 C502 0.930 . S
H497 C505 0.930 . S
H498 C506 0.931 . S
H499 C507 0.948 . S
H500 C510 0.930 . S
H501 C511 0.930 . S
C502 H496 0.930 . S
C502 C503 1.355 . S
C502 C504 1.415 . S
C503 C502 1.355 . S
C503 C505 1.419 . S
C504 C502 1.415 . S
C504 C509 1.425 . S
C504 C511 1.409 . S
C505 H497 0.930 . S
C505 C503 1.419 . S
C505 C506 1.362 . S
C506 H498 0.931 . S
C506 C505 1.362 . S
C506 C509 1.409 . S
C507 H499 0.948 . S
C507 C508 1.355 . S
C507 C509 1.399 1_554 S
C508 C507 1.355 . S
C508 C510 1.404 1_554 S
C509 C504 1.425 . S
C509 C506 1.409 . S
C509 C507 1.399 1_556 S
C510 H500 0.930 . S
C510 C508 1.404 1_556 S
C510 C511 1.362 . S
C511 H501 0.930 . S
C511 C504 1.409 . S
C511 C510 1.362 . S
H512 C518 0.930 . S
H513 C521 0.930 . S
H514 C522 0.930 . S
H515 C523 0.930 . S
H516 C526 0.930 . S
H517 C527 0.930 . S
C518 H512 0.930 . S
C518 C519 1.355 . S
C518 C520 1.415 . S
C519 C518 1.355 . S
C519 C521 1.419 . S
C520 C518 1.415 . S
C520 C525 1.425 . S
C520 C527 1.409 . S
C521 H513 0.930 . S
C521 C519 1.419 . S
C521 C522 1.362 . S
C522 H514 0.930 . S
C522 C521 1.362 . S
C522 C525 1.409 . S
C523 H515 0.930 . S
C523 C524 1.355 . S
C523 C525 1.415 . S
C524 C523 1.355 . S
C524 C526 1.419 . S
C525 C520 1.425 . S
C525 C522 1.409 . S
C525 C523 1.415 . S
C526 H516 0.930 . S
C526 C524 1.419 . S
C526 C527 1.362 . S
C527 H517 0.930 . S
C527 C520 1.409 . S
C527 C526 1.362 . S
H528 C534 0.930 . S
H529 C537 0.930 . S
H530 C538 0.930 . S
H531 C539 0.930 . S
H532 C542 0.930 . S
H533 C543 0.930 . S
C534 H528 0.930 . S
C534 C535 1.355 . S
C534 C536 1.415 . S
C535 C534 1.355 . S
C535 C537 1.419 . S
C536 C534 1.415 . S
C536 C541 1.425 . S
C536 C543 1.409 . S
C537 H529 0.930 . S
C537 C535 1.419 . S
C537 C538 1.362 . S
C538 H530 0.930 . S
C538 C537 1.362 . S
C538 C541 1.409 . S
C539 H531 0.930 . S
C539 C540 1.355 . S
C539 C541 1.415 . S
C540 C539 1.355 . S
C540 C542 1.419 . S
C541 C536 1.425 . S
C541 C538 1.409 . S
C541 C539 1.415 . S
C542 H532 0.930 . S
C542 C540 1.419 . S
C542 C543 1.362 . S
C543 H533 0.930 . S
C543 C536 1.409 . S
C543 C542 1.362 . S
H544 C550 0.930 . S
H545 C553 0.930 . S
H546 C554 0.930 . S
H547 C555 0.930 . S
H548 C558 0.930 . S
H549 C559 0.930 . S
C550 H544 0.930 . S
C550 C551 1.355 . S
C550 C552 1.415 . S
C551 C550 1.355 . S
C551 C553 1.419 . S
C552 C550 1.415 . S
C552 C557 1.425 . S
C552 C559 1.409 . S
C553 H545 0.930 . S
C553 C551 1.419 . S
C553 C554 1.362 . S
C554 H546 0.930 . S
C554 C553 1.362 . S
C554 C557 1.409 . S
C555 H547 0.930 . S
C555 C556 1.355 . S
C555 C557 1.415 . S
C556 C555 1.355 . S
C556 C558 1.419 . S
C557 C552 1.425 . S
C557 C554 1.409 . S
C557 C555 1.415 . S
C558 H548 0.930 . S
C558 C556 1.419 . S
C558 C559 1.362 . S
C559 H549 0.930 . S
C559 C552 1.409 . S
C559 C558 1.362 . S
H560 C566 0.930 . S
H561 C569 0.930 . S
H562 C570 0.930 . S
H563 C571 0.930 . S
H564 C574 0.930 . S
H565 C575 0.930 . S
C566 H560 0.930 . S
C566 C567 1.355 . S
C566 C568 1.415 . S
C567 C566 1.355 . S
C567 C569 1.419 . S
C568 C566 1.415 . S
C568 C573 1.425 . S
C568 C575 1.409 . S
C569 H561 0.930 . S
C569 C567 1.419 . S
C569 C570 1.362 . S
C570 H562 0.930 . S
C570 C569 1.362 . S
C570 C573 1.409 . S
C571 H563 0.930 . S
C571 C572 1.355 . S
C571 C573 1.415 . S
C572 C571 1.355 . S
C572 C574 1.419 . S
C573 C568 1.425 . S
C573 C570 1.409 . S
C573 C571 1.415 . S
C574 H564 0.930 . S
C574 C572 1.419 . S
C574 C575 1.362 . S
C575 H565 0.930 . S
C575 C568 1.409 . S
C575 C574 1.362 . S
H576 C582 0.930 . S
H577 C585 0.930 . S
H578 C586 0.930 . S
H579 C587 0.930 . S
H580 C590 0.930 . S
H581 C591 0.930 . S
C582 H576 0.930 . S
C582 C583 1.355 . S
C582 C584 1.415 . S
C583 C582 1.355 . S
C583 C585 1.419 . S
C584 C582 1.415 . S
C584 C589 1.425 . S
C584 C591 1.409 . S
C585 H577 0.930 . S
C585 C583 1.419 . S
C585 C586 1.362 1_554 S
C586 H578 0.930 . S
C586 C585 1.362 1_556 S
C586 C589 1.409 1_556 S
C587 H579 0.930 . S
C587 C588 1.355 . S
C587 C589 1.415 1_556 S
C588 C587 1.355 . S
C588 C590 1.419 1_556 S
C589 C584 1.425 . S
C589 C586 1.409 1_554 S
C589 C587 1.415 1_554 S
C590 H580 0.930 . S
C590 C588 1.419 1_554 S
C590 C591 1.362 . S
C591 H581 0.930 . S
C591 C584 1.409 . S
C591 C590 1.362 . S
H592 C598 0.930 . S
H593 C601 0.930 . S
H594 C602 0.930 . S
H595 C603 0.930 . S
H596 C606 0.930 . S
H597 C607 0.930 . S
C598 H592 0.930 . S
C598 C599 1.355 . S
C598 C600 1.415 . S
C599 C598 1.355 . S
C599 C601 1.419 . S
C600 C598 1.415 . S
C600 C605 1.425 . S
C600 C607 1.409 . S
C601 H593 0.930 . S
C601 C599 1.419 . S
C601 C602 1.362 . S
C602 H594 0.930 . S
C602 C601 1.362 . S
C602 C605 1.409 . S
C603 H595 0.930 . S
C603 C604 1.355 . S
C603 C605 1.415 . S
C604 C603 1.355 . S
C604 C606 1.419 . S
C605 C600 1.425 . S
C605 C602 1.409 . S
C605 C603 1.415 . S
C606 H596 0.930 . S
C606 C604 1.419 . S
C606 C607 1.362 . S
C607 H597 0.930 . S
C607 C600 1.409 . S
C607 C606 1.362 . S
H608 C614 0.930 . S
H609 C617 0.930 . S
H610 C618 0.930 . S
H611 C619 0.930 . S
H612 C622 0.930 . S
H613 C623 0.930 . S
C614 H608 0.930 . S
C614 C615 1.355 . S
C614 C616 1.415 . S
C615 C614 1.355 . S
C615 C617 1.419 . S
C616 C614 1.415 . S
C616 C621 1.425 . S
C616 C623 1.409 . S
C617 H609 0.930 . S
C617 C615 1.419 . S
C617 C618 1.362 . S
C618 H610 0.930 . S
C618 C617 1.362 . S
C618 C621 1.409 . S
C619 H611 0.930 . S
C619 C620 1.355 . S
C619 C621 1.415 . S
C620 C619 1.355 . S
C620 C622 1.419 . S
C621 C616 1.425 . S
C621 C618 1.409 . S
C621 C619 1.415 . S
C622 H612 0.930 . S
C622 C620 1.419 . S
C622 C623 1.362 . S
C623 H613 0.930 . S
C623 C616 1.409 . S
C623 C622 1.362 . S
H624 C630 0.930 . S
H625 C633 0.930 . S
H626 C634 0.930 . S
H627 C635 0.930 . S
H628 C638 0.930 . S
H629 C639 0.930 . S
C630 H624 0.930 . S
C630 C631 1.355 . S
C630 C632 1.415 . S
C631 C630 1.355 . S
C631 C633 1.419 . S
C632 C630 1.415 . S
C632 C637 1.425 . S
C632 C639 1.409 . S
C633 H625 0.930 . S
C633 C631 1.419 . S
C633 C634 1.362 . S
C634 H626 0.930 . S
C634 C633 1.362 . S
C634 C637 1.409 . S
C635 H627 0.930 . S
C635 C636 1.355 . S
C635 C637 1.415 . S
C636 C635 1.355 . S
C636 C638 1.419 . S
C637 C632 1.425 . S
C637 C634 1.409 . S
C637 C635 1.415 . S
C638 H628 0.930 . S
C638 C636 1.419 . S
C638 C639 1.362 . S
C639 H629 0.930 . S
C639 C632 1.409 . S
C639 C638 1.362 . S
H640 C646 0.930 . S
H641 C649 0.930 . S
H642 C650 0.930 . S
H643 C651 0.930 . S
H644 C654 0.930 . S
H645 C655 0.930 . S
C646 H640 0.930 . S
C646 C647 1.355 . S
C646 C648 1.415 . S
C647 C646 1.355 . S
C647 C649 1.419 . S
C648 C646 1.415 . S
C648 C653 1.425 . S
C648 C655 1.409 . S
C649 H641 0.930 . S
C649 C647 1.419 . S
C649 C650 1.362 . S
C650 H642 0.930 . S
C650 C649 1.362 . S
C650 C653 1.409 . S
C651 H643 0.930 . S
C651 C652 1.355 . S
C651 C653 1.415 . S
C652 C651 1.355 . S
C652 C654 1.419 . S
C653 C648 1.425 . S
C653 C650 1.409 . S
C653 C651 1.415 . S
C654 H644 0.930 . S
C654 C652 1.419 . S
C654 C655 1.362 . S
C655 H645 0.930 . S
C655 C648 1.409 . S
C655 C654 1.362 . S
H656 C662 0.930 . S
H657 C665 0.930 . S
H658 C666 0.930 . S
H659 C667 0.930 . S
H660 C670 0.930 . S
H661 C671 0.930 . S
C662 H656 0.930 . S
C662 C663 1.355 . S
C662 C664 1.415 . S
C663 C662 1.355 . S
C663 C665 1.419 . S
C664 C662 1.415 . S
C664 C669 1.425 . S
C664 C671 1.409 . S
C665 H657 0.930 . S
C665 C663 1.419 . S
C665 C666 1.362 . S
C666 H658 0.930 . S
C666 C665 1.362 . S
C666 C669 1.409 . S
C667 H659 0.930 . S
C667 C668 1.355 . S
C667 C669 1.415 . S
C668 C667 1.355 . S
C668 C670 1.419 . S
C669 C664 1.425 . S
C669 C666 1.409 . S
C669 C667 1.415 . S
C670 H660 0.930 . S
C670 C668 1.419 . S
C670 C671 1.362 . S
C671 H661 0.930 . S
C671 C664 1.409 . S
C671 C670 1.362 . S
H672 C678 0.930 . S
H673 C681 0.930 . S
H674 C682 0.930 . S
H675 C683 0.930 . S
H676 C686 0.930 . S
H677 C687 0.930 . S
C678 H672 0.930 . S
C678 C679 1.355 . S
C678 C680 1.415 . S
C679 C678 1.355 . S
C679 C681 1.419 . S
C680 C678 1.415 . S
C680 C685 1.425 . S
C680 C687 1.409 . S
C681 H673 0.930 . S
C681 C679 1.419 . S
C681 C682 1.362 . S
C682 H674 0.930 . S
C682 C681 1.362 . S
C682 C685 1.409 . S
C683 H675 0.930 . S
C683 C684 1.355 . S
C683 C685 1.415 . S
C684 C683 1.355 . S
C684 C686 1.419 . S
C685 C680 1.425 . S
C685 C682 1.409 . S
C685 C683 1.415 . S
C686 H676 0.930 . S
C686 C684 1.419 . S
C686 C687 1.362 . S
C687 H677 0.930 . S
C687 C680 1.409 . S
C687 C686 1.362 . S
H688 C694 0.930 . S
H689 C697 0.930 . S
H690 C698 0.930 . S
H691 C699 0.930 . S
H692 C702 0.930 . S
H693 C703 0.930 . S
C694 H688 0.930 . S
C694 C695 1.355 . S
C694 C696 1.415 . S
C695 C694 1.355 . S
C695 C697 1.419 . S
C696 C694 1.415 . S
C696 C701 1.425 . S
C696 C703 1.409 . S
C697 H689 0.930 . S
C697 C695 1.419 . S
C697 C698 1.362 . S
C698 H690 0.930 . S
C698 C697 1.362 . S
C698 C701 1.409 . S
C699 H691 0.930 . S
C699 C700 1.355 . S
C699 C701 1.415 . S
C700 C699 1.355 . S
C700 C702 1.419 . S
C701 C696 1.425 . S
C701 C698 1.409 . S
C701 C699 1.415 . S
C702 H692 0.930 . S
C702 C700 1.419 . S
C702 C703 1.362 . S
C703 H693 0.930 . S
C703 C696 1.409 . S
C703 C702 1.362 . S
H704 C710 0.930 . S
H705 C713 0.930 . S
H706 C714 0.930 . S
H707 C715 0.930 . S
H708 C718 0.930 . S
H709 C719 0.930 . S
C710 H704 0.930 . S
C710 C711 1.355 . S
C710 C712 1.415 . S
C711 C710 1.355 . S
C711 C713 1.419 . S
C712 C710 1.415 . S
C712 C717 1.425 . S
C712 C719 1.409 . S
C713 H705 0.930 . S
C713 C711 1.419 . S
C713 C714 1.362 . S
C714 H706 0.930 . S
C714 C713 1.362 . S
C714 C717 1.409 . S
C715 H707 0.930 . S
C715 C716 1.355 . S
C715 C717 1.415 . S
C716 C715 1.355 . S
C716 C718 1.419 . S
C717 C712 1.425 . S
C717 C714 1.409 . S
C717 C715 1.415 . S
C718 H708 0.930 . S
C718 C716 1.419 . S
C718 C719 1.362 . S
C719 H709 0.930 . S
C719 C712 1.409 . S
C719 C718 1.362 . S
H720 C726 0.930 . S
H721 C729 0.930 . S
H722 C730 0.930 . S
H723 C731 0.930 . S
H724 C734 0.930 . S
H725 C735 0.930 . S
C726 H720 0.930 . S
C726 C727 1.355 . S
C726 C728 1.415 . S
C727 C726 1.355 . S
C727 C729 1.419 . S
C728 C726 1.415 . S
C728 C733 1.425 . S
C728 C735 1.409 . S
C729 H721 0.930 . S
C729 C727 1.419 . S
C729 C730 1.362 . S
C730 H722 0.930 . S
C730 C729 1.362 . S
C730 C733 1.409 . S
C731 H723 0.930 . S
C731 C732 1.355 . S
C731 C733 1.415 . S
C732 C731 1.355 . S
C732 C734 1.419 . S
C733 C728 1.425 . S
C733 C730 1.409 . S
C733 C731 1.415 . S
C734 H724 0.930 . S
C734 C732 1.419 . S
C734 C735 1.362 . S
C735 H725 0.930 . S
C735 C728 1.409 . S
C735 C734 1.362 . S
H736 C742 0.930 . S
H737 C745 0.930 . S
H738 C746 0.930 . S
H739 C747 0.930 . S
H740 C750 0.930 . S
H741 C751 0.930 . S
C742 H736 0.930 . S
C742 C743 1.355 . S
C742 C744 1.415 . S
C743 C742 1.355 . S
C743 C745 1.419 . S
C744 C742 1.415 . S
C744 C749 1.425 . S
C744 C751 1.409 . S
C745 H737 0.930 . S
C745 C743 1.419 . S
C745 C746 1.362 . S
C746 H738 0.930 . S
C746 C745 1.362 . S
C746 C749 1.409 . S
C747 H739 0.930 . S
C747 C748 1.355 . S
C747 C749 1.415 . S
C748 C747 1.355 . S
C748 C750 1.419 . S
C749 C744 1.425 . S
C749 C746 1.409 . S
C749 C747 1.415 . S
C750 H740 0.930 . S
C750 C748 1.419 . S
C750 C751 1.362 . S
C751 H741 0.930 . S
C751 C744 1.409 . S
C751 C750 1.362 . S
H752 C758 0.930 . S
H753 C761 0.930 . S
H754 C762 0.930 . S
H755 C763 0.930 . S
H756 C766 0.930 . S
H757 C767 0.930 . S
C758 H752 0.930 . S
C758 C759 1.355 . S
C758 C760 1.415 . S
C759 C758 1.355 . S
C759 C761 1.419 . S
C760 C758 1.415 . S
C760 C765 1.425 . S
C760 C767 1.409 . S
C761 H753 0.930 . S
C761 C759 1.419 . S
C761 C762 1.362 . S
C762 H754 0.930 . S
C762 C761 1.362 . S
C762 C765 1.409 . S
C763 H755 0.930 . S
C763 C764 1.355 . S
C763 C765 1.415 . S
C764 C763 1.355 . S
C764 C766 1.419 . S
C765 C760 1.425 . S
C765 C762 1.409 . S
C765 C763 1.415 . S
C766 H756 0.930 . S
C766 C764 1.419 . S
C766 C767 1.362 . S
C767 H757 0.930 . S
C767 C760 1.409 . S
C767 C766 1.362 . S
H768 C774 0.930 . S
H769 C777 0.930 . S
H770 C778 0.930 . S
H771 C779 0.930 . S
H772 C782 0.930 . S
H773 C783 0.930 . S
C774 H768 0.930 . S
C774 C775 1.355 . S
C774 C776 1.415 . S
C775 C774 1.355 . S
C775 C777 1.419 . S
C776 C774 1.415 . S
C776 C781 1.425 . S
C776 C783 1.409 . S
C777 H769 0.930 . S
C777 C775 1.419 . S
C777 C778 1.362 . S
C778 H770 0.930 . S
C778 C777 1.362 . S
C778 C781 1.409 . S
C779 H771 0.930 . S
C779 C780 1.355 . S
C779 C781 1.415 . S
C780 C779 1.355 . S
C780 C782 1.419 . S
C781 C776 1.425 . S
C781 C778 1.409 . S
C781 C779 1.415 . S
C782 H772 0.930 . S
C782 C780 1.419 . S
C782 C783 1.362 . S
C783 H773 0.930 . S
C783 C776 1.409 . S
C783 C782 1.362 . S
H784 C790 0.930 . S
H785 C793 0.930 . S
H786 C794 0.930 . S
H787 C795 0.930 . S
H788 C798 0.930 . S
H789 C799 0.930 . S
C790 H784 0.930 . S
C790 C791 1.355 . S
C790 C792 1.415 . S
C791 C790 1.355 . S
C791 C793 1.419 . S
C792 C790 1.415 . S
C792 C797 1.425 . S
C792 C799 1.409 . S
C793 H785 0.930 . S
C793 C791 1.419 . S
C793 C794 1.362 . S
C794 H786 0.930 . S
C794 C793 1.362 . S
C794 C797 1.409 . S
C795 H787 0.930 . S
C795 C796 1.355 . S
C795 C797 1.415 . S
C796 C795 1.355 . S
C796 C798 1.419 . S
C797 C792 1.425 . S
C797 C794 1.409 . S
C797 C795 1.415 . S
C798 H788 0.930 . S
C798 C796 1.419 . S
C798 C799 1.362 . S
C799 H789 0.930 . S
C799 C792 1.409 . S
C799 C798 1.362 . S
H800 C806 0.930 . S
H801 C809 0.930 . S
H802 C810 0.930 . S
H803 C811 0.930 . S
H804 C814 0.930 . S
H805 C815 0.930 . S
C806 H800 0.930 . S
C806 C807 1.355 . S
C806 C808 1.415 . S
C807 C806 1.355 . S
C807 C809 1.419 . S
C808 C806 1.415 . S
C808 C813 1.425 . S
C808 C815 1.409 . S
C809 H801 0.930 . S
C809 C807 1.419 . S
C809 C810 1.362 . S
C810 H802 0.930 . S
C810 C809 1.362 . S
C810 C813 1.409 . S
C811 H803 0.930 . S
C811 C812 1.355 . S
C811 C813 1.415 . S
C812 C811 1.355 . S
C812 C814 1.419 . S
C813 C808 1.425 . S
C813 C810 1.409 . S
C813 C811 1.415 . S
C814 H804 0.930 . S
C814 C812 1.419 . S
C814 C815 1.362 . S
C815 H805 0.930 . S
C815 C808 1.409 . S
C815 C814 1.362 . S
C247 C116 1.763 . S
C252 C19 1.694 1_565 S
C263 C39 1.666 . S
C268 C16 1.732 . S
C279 C59 1.665 1_455 S
C284 C36 1.735 . S
C295 C56 1.724 . S
C300 C79 1.670 1_545 S
C311 C76 1.763 . S
C316 C99 1.709 . S
C327 C119 1.689 1_655 S
C332 C96 1.715 . S
C343 C156 1.759 . S
C348 C139 1.683 1_455 S
C359 C159 1.672 1_545 S
C364 C176 1.752 . S
C375 C196 1.730 . S
C380 C179 1.730 . S
C391 C216 1.756 . S
C396 C199 1.677 1_655 S
C407 C236 1.751 . S
C412 C219 1.672 1_565 S
C423 C136 1.747 . S
C428 C239 1.668 . S
C439 C229 1.405 . S
C444 C6 1.340 . S
C455 C26 1.409 . S
C460 C129 1.351 . S
C471 C149 1.382 . S
C476 C46 1.410 . S
C487 C169 1.349 . S
C492 C66 1.406 . S
C503 C189 1.410 . S
C508 C86 1.410 . S
C519 C106 1.352 . S
C524 C209 1.366 . S
C535 C126 1.401 . S
C540 C29 1.397 . S
C551 C146 1.368 . S
C556 C49 1.352 . S
C567 C69 1.417 . S
C572 C166 1.367 . S
C583 C89 1.348 . S
C588 C186 1.405 . S
C599 C206 1.414 . S
C604 C109 1.368 . S
C615 C226 1.352 . S
C620 C9 1.416 . S
C631 C121 1.633 . S
C636 C1 1.668 . S
C647 C21 1.665 . S
C652 C141 1.655 . S
C663 C161 1.659 . S
C668 C41 1.638 . S
C679 C61 1.641 . S
C684 C181 1.674 . S
C695 C201 1.642 . S
C700 C81 1.674 . S
C711 C221 1.645 . S
C716 C101 1.672 . S
C727 C128 1.643 . S
C732 C8 1.705 . S
C743 C148 1.708 . S
C748 C28 1.675 . S
C759 C168 1.665 . S
C764 C48 1.621 . S
C775 C68 1.709 . S
C780 C188 1.655 . S
C791 C208 1.624 . S
C796 C88 1.651 . S
C807 C228 1.683 . S
C812 C108 1.623 . S
