# Generated by pormake.
# Topology wlt, (5)-cn, num edge types: 1
# Building blocks:
#     Node 0, Type 0, BuildingBlock: XOMCOT_clean_sbu_1, # of connection points: 5
#     Node 1, Type 0, BuildingBlock: XOMCOT_clean_sbu_1, # of connection points: 5
#     Node 2, Type 0, BuildingBlock: XOMCOT_clean_sbu_1, # of connection points: 5
#     Node 3, Type 0, BuildingBlock: XOMCOT_clean_sbu_1, # of connection points: 5
#     Node 4, Type 0, BuildingBlock: XOMCOT_clean_sbu_1, # of connection points: 5
#     Node 5, Type 0, BuildingBlock: XOMCOT_clean_sbu_1, # of connection points: 5
#     Node 6, Type 0, BuildingBlock: XOMCOT_clean_sbu_1, # of connection points: 5
#     Node 7, Type 0, BuildingBlock: XOMCOT_clean_sbu_1, # of connection points: 5
#     Node 8, Type 0, BuildingBlock: XOMCOT_clean_sbu_1, # of connection points: 5
#     Node 9, Type 0, BuildingBlock: XOMCOT_clean_sbu_1, # of connection points: 5
#     Node 10, Type 0, BuildingBlock: XOMCOT_clean_sbu_1, # of connection points: 5
#     Node 11, Type 0, BuildingBlock: XOMCOT_clean_sbu_1, # of connection points: 5
#     Node 12, Type 0, BuildingBlock: XOMCOT_clean_sbu_1, # of connection points: 5
#     Node 13, Type 0, BuildingBlock: XOMCOT_clean_sbu_1, # of connection points: 5
#     Node 14, Type 0, BuildingBlock: XOMCOT_clean_sbu_1, # of connection points: 5
#     Node 15, Type 0, BuildingBlock: XOMCOT_clean_sbu_1, # of connection points: 5
#     Node 16, Type 0, BuildingBlock: XOMCOT_clean_sbu_1, # of connection points: 5
#     Node 17, Type 0, BuildingBlock: XOMCOT_clean_sbu_1, # of connection points: 5
#     Node 18, Type 0, BuildingBlock: XOMCOT_clean_sbu_1, # of connection points: 5
#     Node 19, Type 0, BuildingBlock: XOMCOT_clean_sbu_1, # of connection points: 5
#     Node 20, Type 0, BuildingBlock: XOMCOT_clean_sbu_1, # of connection points: 5
#     Node 21, Type 0, BuildingBlock: XOMCOT_clean_sbu_1, # of connection points: 5
#     Node 22, Type 0, BuildingBlock: XOMCOT_clean_sbu_1, # of connection points: 5
#     Node 23, Type 0, BuildingBlock: XOMCOT_clean_sbu_1, # of connection points: 5
#     Node 24, Type 0, BuildingBlock: XOMCOT_clean_sbu_1, # of connection points: 5
#     Node 25, Type 0, BuildingBlock: XOMCOT_clean_sbu_1, # of connection points: 5
#     Node 26, Type 0, BuildingBlock: XOMCOT_clean_sbu_1, # of connection points: 5
#     Node 27, Type 0, BuildingBlock: XOMCOT_clean_sbu_1, # of connection points: 5
#     Node 28, Type 0, BuildingBlock: XOMCOT_clean_sbu_1, # of connection points: 5
#     Node 29, Type 0, BuildingBlock: XOMCOT_clean_sbu_1, # of connection points: 5
#     Node 30, Type 0, BuildingBlock: XOMCOT_clean_sbu_1, # of connection points: 5
#     Node 31, Type 0, BuildingBlock: XOMCOT_clean_sbu_1, # of connection points: 5
#     Node 32, Type 0, BuildingBlock: XOMCOT_clean_sbu_1, # of connection points: 5
#     Node 33, Type 0, BuildingBlock: XOMCOT_clean_sbu_1, # of connection points: 5
#     Node 34, Type 0, BuildingBlock: XOMCOT_clean_sbu_1, # of connection points: 5
#     Node 35, Type 0, BuildingBlock: XOMCOT_clean_sbu_1, # of connection points: 5
#     Edge 36, Type (0, 0), BuildingBlock: OJICUG_clean_linker_0, # of connection points: 2
#     Edge 37, Type (0, 0), BuildingBlock: OJICUG_clean_linker_0, # of connection points: 2
#     Edge 38, Type (0, 0), BuildingBlock: OJICUG_clean_linker_0, # of connection points: 2
#     Edge 39, Type (0, 0), BuildingBlock: OJICUG_clean_linker_0, # of connection points: 2
#     Edge 40, Type (0, 0), BuildingBlock: OJICUG_clean_linker_0, # of connection points: 2
#     Edge 41, Type (0, 0), BuildingBlock: OJICUG_clean_linker_0, # of connection points: 2
#     Edge 42, Type (0, 0), BuildingBlock: OJICUG_clean_linker_0, # of connection points: 2
#     Edge 43, Type (0, 0), BuildingBlock: OJICUG_clean_linker_0, # of connection points: 2
#     Edge 44, Type (0, 0), BuildingBlock: OJICUG_clean_linker_0, # of connection points: 2
#     Edge 45, Type (0, 0), BuildingBlock: OJICUG_clean_linker_0, # of connection points: 2
#     Edge 46, Type (0, 0), BuildingBlock: OJICUG_clean_linker_0, # of connection points: 2
#     Edge 47, Type (0, 0), BuildingBlock: OJICUG_clean_linker_0, # of connection points: 2
#     Edge 48, Type (0, 0), BuildingBlock: OJICUG_clean_linker_0, # of connection points: 2
#     Edge 49, Type (0, 0), BuildingBlock: OJICUG_clean_linker_0, # of connection points: 2
#     Edge 50, Type (0, 0), BuildingBlock: OJICUG_clean_linker_0, # of connection points: 2
#     Edge 51, Type (0, 0), BuildingBlock: OJICUG_clean_linker_0, # of connection points: 2
#     Edge 52, Type (0, 0), BuildingBlock: OJICUG_clean_linker_0, # of connection points: 2
#     Edge 53, Type (0, 0), BuildingBlock: OJICUG_clean_linker_0, # of connection points: 2
#     Edge 54, Type (0, 0), BuildingBlock: OJICUG_clean_linker_0, # of connection points: 2
#     Edge 55, Type (0, 0), BuildingBlock: OJICUG_clean_linker_0, # of connection points: 2
#     Edge 56, Type (0, 0), BuildingBlock: OJICUG_clean_linker_0, # of connection points: 2
#     Edge 57, Type (0, 0), BuildingBlock: OJICUG_clean_linker_0, # of connection points: 2
#     Edge 58, Type (0, 0), BuildingBlock: OJICUG_clean_linker_0, # of connection points: 2
#     Edge 59, Type (0, 0), BuildingBlock: OJICUG_clean_linker_0, # of connection points: 2
#     Edge 60, Type (0, 0), BuildingBlock: OJICUG_clean_linker_0, # of connection points: 2
#     Edge 61, Type (0, 0), BuildingBlock: OJICUG_clean_linker_0, # of connection points: 2
#     Edge 62, Type (0, 0), BuildingBlock: OJICUG_clean_linker_0, # of connection points: 2
#     Edge 63, Type (0, 0), BuildingBlock: OJICUG_clean_linker_0, # of connection points: 2
#     Edge 64, Type (0, 0), BuildingBlock: OJICUG_clean_linker_0, # of connection points: 2
#     Edge 65, Type (0, 0), BuildingBlock: OJICUG_clean_linker_0, # of connection points: 2
#     Edge 66, Type (0, 0), BuildingBlock: OJICUG_clean_linker_0, # of connection points: 2
#     Edge 67, Type (0, 0), BuildingBlock: OJICUG_clean_linker_0, # of connection points: 2
#     Edge 68, Type (0, 0), BuildingBlock: OJICUG_clean_linker_0, # of connection points: 2
#     Edge 69, Type (0, 0), BuildingBlock: OJICUG_clean_linker_0, # of connection points: 2
#     Edge 70, Type (0, 0), BuildingBlock: OJICUG_clean_linker_0, # of connection points: 2
#     Edge 71, Type (0, 0), BuildingBlock: OJICUG_clean_linker_0, # of connection points: 2
#     Edge 72, Type (0, 0), BuildingBlock: OJICUG_clean_linker_0, # of connection points: 2
#     Edge 73, Type (0, 0), BuildingBlock: OJICUG_clean_linker_0, # of connection points: 2
#     Edge 74, Type (0, 0), BuildingBlock: OJICUG_clean_linker_0, # of connection points: 2
#     Edge 75, Type (0, 0), BuildingBlock: OJICUG_clean_linker_0, # of connection points: 2
#     Edge 76, Type (0, 0), BuildingBlock: OJICUG_clean_linker_0, # of connection points: 2
#     Edge 77, Type (0, 0), BuildingBlock: OJICUG_clean_linker_0, # of connection points: 2
#     Edge 78, Type (0, 0), BuildingBlock: OJICUG_clean_linker_0, # of connection points: 2
#     Edge 79, Type (0, 0), BuildingBlock: OJICUG_clean_linker_0, # of connection points: 2
#     Edge 80, Type (0, 0), BuildingBlock: OJICUG_clean_linker_0, # of connection points: 2
#     Edge 81, Type (0, 0), BuildingBlock: OJICUG_clean_linker_0, # of connection points: 2
#     Edge 82, Type (0, 0), BuildingBlock: OJICUG_clean_linker_0, # of connection points: 2
#     Edge 83, Type (0, 0), BuildingBlock: OJICUG_clean_linker_0, # of connection points: 2
#     Edge 84, Type (0, 0), BuildingBlock: OJICUG_clean_linker_0, # of connection points: 2
#     Edge 85, Type (0, 0), BuildingBlock: OJICUG_clean_linker_0, # of connection points: 2
#     Edge 86, Type (0, 0), BuildingBlock: OJICUG_clean_linker_0, # of connection points: 2
#     Edge 87, Type (0, 0), BuildingBlock: OJICUG_clean_linker_0, # of connection points: 2
#     Edge 88, Type (0, 0), BuildingBlock: OJICUG_clean_linker_0, # of connection points: 2
#     Edge 89, Type (0, 0), BuildingBlock: OJICUG_clean_linker_0, # of connection points: 2
#     Edge 90, Type (0, 0), BuildingBlock: OJICUG_clean_linker_0, # of connection points: 2
#     Edge 91, Type (0, 0), BuildingBlock: OJICUG_clean_linker_0, # of connection points: 2
#     Edge 92, Type (0, 0), BuildingBlock: OJICUG_clean_linker_0, # of connection points: 2
#     Edge 93, Type (0, 0), BuildingBlock: OJICUG_clean_linker_0, # of connection points: 2
#     Edge 94, Type (0, 0), BuildingBlock: OJICUG_clean_linker_0, # of connection points: 2
#     Edge 95, Type (0, 0), BuildingBlock: OJICUG_clean_linker_0, # of connection points: 2
#     Edge 96, Type (0, 0), BuildingBlock: OJICUG_clean_linker_0, # of connection points: 2
#     Edge 97, Type (0, 0), BuildingBlock: OJICUG_clean_linker_0, # of connection points: 2
#     Edge 98, Type (0, 0), BuildingBlock: OJICUG_clean_linker_0, # of connection points: 2
#     Edge 99, Type (0, 0), BuildingBlock: OJICUG_clean_linker_0, # of connection points: 2
#     Edge 100, Type (0, 0), BuildingBlock: OJICUG_clean_linker_0, # of connection points: 2
#     Edge 101, Type (0, 0), BuildingBlock: OJICUG_clean_linker_0, # of connection points: 2
#     Edge 102, Type (0, 0), BuildingBlock: OJICUG_clean_linker_0, # of connection points: 2
#     Edge 103, Type (0, 0), BuildingBlock: OJICUG_clean_linker_0, # of connection points: 2
#     Edge 104, Type (0, 0), BuildingBlock: OJICUG_clean_linker_0, # of connection points: 2
#     Edge 105, Type (0, 0), BuildingBlock: OJICUG_clean_linker_0, # of connection points: 2
#     Edge 106, Type (0, 0), BuildingBlock: OJICUG_clean_linker_0, # of connection points: 2
#     Edge 107, Type (0, 0), BuildingBlock: OJICUG_clean_linker_0, # of connection points: 2
#     Edge 108, Type (0, 0), BuildingBlock: OJICUG_clean_linker_0, # of connection points: 2
#     Edge 109, Type (0, 0), BuildingBlock: OJICUG_clean_linker_0, # of connection points: 2
#     Edge 110, Type (0, 0), BuildingBlock: OJICUG_clean_linker_0, # of connection points: 2
#     Edge 111, Type (0, 0), BuildingBlock: OJICUG_clean_linker_0, # of connection points: 2
#     Edge 112, Type (0, 0), BuildingBlock: OJICUG_clean_linker_0, # of connection points: 2
#     Edge 113, Type (0, 0), BuildingBlock: OJICUG_clean_linker_0, # of connection points: 2
#     Edge 114, Type (0, 0), BuildingBlock: OJICUG_clean_linker_0, # of connection points: 2
#     Edge 115, Type (0, 0), BuildingBlock: OJICUG_clean_linker_0, # of connection points: 2
#     Edge 116, Type (0, 0), BuildingBlock: OJICUG_clean_linker_0, # of connection points: 2
#     Edge 117, Type (0, 0), BuildingBlock: OJICUG_clean_linker_0, # of connection points: 2
#     Edge 118, Type (0, 0), BuildingBlock: OJICUG_clean_linker_0, # of connection points: 2
#     Edge 119, Type (0, 0), BuildingBlock: OJICUG_clean_linker_0, # of connection points: 2
#     Edge 120, Type (0, 0), BuildingBlock: OJICUG_clean_linker_0, # of connection points: 2
#     Edge 121, Type (0, 0), BuildingBlock: OJICUG_clean_linker_0, # of connection points: 2
#     Edge 122, Type (0, 0), BuildingBlock: OJICUG_clean_linker_0, # of connection points: 2
#     Edge 123, Type (0, 0), BuildingBlock: OJICUG_clean_linker_0, # of connection points: 2
#     Edge 124, Type (0, 0), BuildingBlock: OJICUG_clean_linker_0, # of connection points: 2
#     Edge 125, Type (0, 0), BuildingBlock: OJICUG_clean_linker_0, # of connection points: 2
# Relax obj value: 0.199
# Max RMSD: 0.195
# Mean RMSD: 0.195
data_MOF--net-wlt--node1-XOMCOT_clean_sbu_1--edge1-OJICUG_clean_linker_0
_symmetry_space_group_name_H-M    P1
_symmetry_Int_Tables_number       1
_symmetry_cell_setting            triclinic
loop_
_symmetry_equiv_pos_as_xyz
'x, y, z'
_cell_length_a     48.62495
_cell_length_b     48.611769
_cell_length_c     39.422317
_cell_angle_alpha  89.997725
_cell_angle_beta   89.993345
_cell_angle_gamma 119.99574
loop_
_atom_site_label
_atom_site_type_symbol
_atom_site_fract_x
_atom_site_fract_y
_atom_site_fract_z
_atom_type_partial_charge
C0 C 0.20913 0.19286 0.03191 0.0
C1 C 0.18454 0.19801 0.02425 0.0
N2 N 0.19609 0.22953 0.02164 0.0
N3 N 0.23634 0.22091 0.03413 0.0
C4 C 0.22775 0.24298 0.02738 0.0
H5 H 0.20711 0.17006 0.03692 0.0
Co6 Co 0.2729 0.22252 0.0516 0.0
C7 C 0.31813 0.28956 0.06887 0.0
O8 O 0.32303 0.27807 0.09694 0.0
N9 N 0.30985 0.22307 0.06919 0.0
C10 C 0.35967 0.23247 0.07117 0.0
C11 C 0.33831 0.23753 0.05332 0.0
C12 C 0.31457 0.20884 0.0964 0.0
N13 N 0.34467 0.21436 0.09832 0.0
O14 O 0.28322 0.2131 0.00722 0.0
H15 H 0.34319 0.25085 0.02996 0.0
H16 H 0.29654 0.19459 0.11464 0.0
O17 O 0.29871 0.27029 0.04635 0.0
C18 C 0.27471 0.18358 0.00983 0.0
O19 O 0.26241 0.16898 0.03861 0.0
N20 N 0.25915 0.226 0.09426 0.0
C21 C 0.23834 0.22266 0.1598 0.0
C22 C 0.24686 0.24983 0.14029 0.0
C23 C 0.25618 0.25057 0.10682 0.0
C24 C 0.24587 0.19779 0.11106 0.0
C25 C 0.23599 0.19571 0.14439 0.0
H26 H 0.2617 0.27111 0.09155 0.0
H27 H 0.24449 0.17718 0.099 0.0
H28 H 0.244 0.26834 0.02823 0.0
H29 H 0.15995 0.17984 0.02081 0.0
H30 H 0.38414 0.24091 0.06421 0.0
H31 H 0.24725 0.2705 0.15114 0.0
H32 H 0.22852 0.17395 0.15845 0.0
C33 C 0.86993 0.029 0.03181 0.0
C34 C 0.86482 0.99927 0.02417 0.0
N35 N 0.8333 0.97924 0.0217 0.0
N36 N 0.84186 0.02812 0.03414 0.0
C37 C 0.81982 0.99743 0.0275 0.0
H38 H 0.89272 0.04982 0.03671 0.0
Co39 Co 0.84023 0.06307 0.05161 0.0
C40 C 0.77317 0.04125 0.06884 0.0
O41 O 0.78465 0.05765 0.09691 0.0
N42 N 0.83965 0.09946 0.0692 0.0
C43 C 0.83026 0.13989 0.07118 0.0
C44 C 0.8252 0.11347 0.05332 0.0
C45 C 0.85387 0.1184 0.09641 0.0
N46 N 0.84836 0.143 0.09833 0.0
O47 O 0.84969 0.08282 0.00723 0.0
H48 H 0.8119 0.10505 0.02996 0.0
H49 H 0.86811 0.11462 0.11464 0.0
O50 O 0.79246 0.0411 0.04634 0.0
C51 C 0.87919 0.10385 0.00985 0.0
O52 O 0.89377 0.10617 0.03865 0.0
N53 N 0.83673 0.04582 0.09427 0.0
C54 C 0.84008 0.02844 0.15984 0.0
C55 C 0.8129 1.00978 0.14036 0.0
C56 C 0.81216 1.01831 0.10687 0.0
C57 C 0.86494 0.06075 0.11105 0.0
C58 C 0.86702 0.05298 0.14439 0.0
H59 H 0.79161 1.00329 0.09162 0.0
H60 H 0.88555 0.07996 0.09897 0.0
H61 H 0.79446 0.98827 0.02846 0.0
H62 H 0.88301 0.99289 0.02065 0.0
H63 H 0.82183 0.15594 0.06422 0.0
H64 H 0.79223 0.98952 0.15124 0.0
H65 H 0.88878 0.06727 0.15844 0.0
C66 C 1.03349 0.85341 0.03153 0.0
C67 C 0.06321 0.87802 0.02383 0.0
N68 N 0.08323 0.86652 0.02134 0.0
N69 N 1.03439 0.82623 0.03388 0.0
C70 C 0.06506 0.83486 0.02719 0.0
H71 H 1.01269 0.85539 0.03648 0.0
Co72 Co 0.99949 0.78967 0.05146 0.0
C73 C 1.02137 0.74448 0.06873 0.0
O74 O 1.00501 0.7396 0.09683 0.0
N75 N 0.96314 0.75272 0.06917 0.0
C76 C 0.92276 0.70288 0.07126 0.0
C77 C 0.94913 0.72423 0.05334 0.0
C78 C 0.94424 0.74802 0.09641 0.0
N79 N 0.91968 0.71791 0.0984 0.0
O80 O 0.97966 0.77927 0.00713 0.0
H81 H 0.95753 0.71933 0.02997 0.0
H82 H 0.94804 0.76608 0.11462 0.0
O83 O 1.02147 0.76388 0.0462 0.0
C84 C 0.95861 0.78773 0.00978 0.0
O85 O 0.95634 0.80004 0.03856 0.0
N86 N 1.0168 0.8035 0.09408 0.0
C87 C 1.03432 0.82437 0.15958 0.0
C88 C 0.05295 0.81583 0.14007 0.0
C89 C 0.04434 0.80648 0.10661 0.0
C90 C 1.00189 0.81679 0.11088 0.0
C91 C 1.00972 0.82671 0.14419 0.0
H92 H 0.05934 0.80094 0.09134 0.0
H93 H 0.98264 0.81815 0.09884 0.0
H94 H 0.07422 0.81866 0.02815 0.0
H95 H 0.06959 0.90259 0.0203 0.0
H96 H 0.90672 0.6784 0.06435 0.0
H97 H 0.07324 0.81545 0.1509 0.0
H98 H 0.99544 0.83419 0.15826 0.0
C99 C 0.20521 0.19654 0.43223 0.0
C100 C 0.21037 0.17196 0.4399 0.0
N101 N 0.24189 0.18354 0.44255 0.0
N102 N 0.23324 0.22378 0.43005 0.0
C103 C 0.25532 0.21521 0.43682 0.0
H104 H 0.18241 0.19451 0.42719 0.0
Co105 Co 0.23485 0.26035 0.41259 0.0
C106 C 0.30189 0.30561 0.39533 0.0
O107 O 0.2904 0.31053 0.36726 0.0
N108 N 0.23539 0.29731 0.395 0.0
C109 C 0.24479 0.34714 0.39302 0.0
C110 C 0.24984 0.32577 0.41088 0.0
C111 C 0.22118 0.30204 0.36779 0.0
N112 N 0.22669 0.33215 0.36587 0.0
O113 O 0.2254 0.27065 0.45696 0.0
H114 H 0.26315 0.33065 0.43424 0.0
H115 H 0.20694 0.28402 0.34955 0.0
O116 O 0.28261 0.28617 0.41784 0.0
C117 C 0.19588 0.26212 0.45435 0.0
O118 O 0.1813 0.2498 0.42557 0.0
N119 N 0.23835 0.24661 0.36992 0.0
C120 C 0.23505 0.22585 0.30438 0.0
C121 C 0.2622 0.23437 0.32389 0.0
C122 C 0.26292 0.24366 0.35736 0.0
C123 C 0.21016 0.23334 0.35312 0.0
C124 C 0.2081 0.22348 0.31978 0.0
H125 H 0.28345 0.24918 0.37264 0.0
H126 H 0.18954 0.23194 0.36517 0.0
H127 H 0.28067 0.23148 0.43601 0.0
H128 H 0.19222 0.14736 0.44332 0.0
H129 H 0.25321 0.37161 0.39999 0.0
H130 H 0.28288 0.23476 0.31304 0.0
H131 H 0.18635 0.21601 0.30571 0.0
C132 C 0.86602 1.02136 0.43228 0.0
C133 C 0.89059 0.0511 0.43999 0.0
N134 N 0.87902 0.07105 0.44266 0.0
N135 N 0.8388 1.02217 0.4301 0.0
C136 C 0.84736 0.05282 0.43691 0.0
H137 H 0.86806 1.0006 0.42722 0.0
Co138 Co 0.80225 0.98723 0.4126 0.0
C139 C 0.75703 1.00906 0.39533 0.0
O140 O 0.75214 0.99269 0.36725 0.0
N141 N 0.76531 0.95084 0.39497 0.0
C142 C 0.71549 0.91042 0.39295 0.0
C143 C 0.73684 0.93683 0.41082 0.0
C144 C 0.76061 0.9319 0.36776 0.0
N145 N 0.7305 0.90732 0.36581 0.0
O146 O 0.79191 0.96745 0.45695 0.0
H147 H 0.73194 0.94526 0.43418 0.0
H148 H 0.77864 0.93568 0.34953 0.0
O149 O 0.77644 1.00919 0.41786 0.0
C150 C 0.80042 0.94645 0.45433 0.0
O151 O 0.81276 0.94419 0.42556 0.0
N152 N 0.81602 1.00451 0.36995 0.0
C153 C 0.83685 1.02202 0.30443 0.0
C154 C 0.82833 0.04066 0.32394 0.0
C155 C 0.819 0.03206 0.35741 0.0
C156 C 0.8293 0.98959 0.35314 0.0
C157 C 0.8392 0.99741 0.31982 0.0
H158 H 0.81347 0.04706 0.3727 0.0
H159 H 0.83068 0.97034 0.36518 0.0
H160 H 0.8311 0.06191 0.4361 0.0
H161 H 0.91519 0.05753 0.44341 0.0
H162 H 0.69102 0.89438 0.3999 0.0
H163 H 0.82795 0.06095 0.31311 0.0
H164 H 0.84667 0.98313 0.30574 0.0
C165 C 0.04114 0.85745 0.43186 0.0
C166 C 1.0114 0.85226 0.43959 0.0
N167 N 0.99152 0.82073 0.44244 0.0
N168 N 0.0404 0.82943 0.42984 0.0
C169 C 1.0098 0.80734 0.43677 0.0
H170 H 0.06185 0.88025 0.42669 0.0
Co171 Co 0.07538 0.82783 0.41241 0.0
C172 C 0.0536 0.76078 0.39516 0.0
O173 O 0.07002 0.77227 0.3671 0.0
N174 N 0.1118 0.82729 0.39486 0.0
C175 C 0.15222 0.81787 0.39294 0.0
C176 C 0.12579 0.81282 0.41076 0.0
C177 C 0.13078 0.84151 0.36767 0.0
N178 N 0.15536 0.83598 0.36578 0.0
O179 O 0.09507 0.83725 0.4568 0.0
H180 H 0.11732 0.7995 0.43412 0.0
H181 H 0.12703 0.85577 0.34941 0.0
O182 O 0.05343 0.78007 0.41767 0.0
C183 C 0.11605 0.86678 0.45421 0.0
O184 O 0.11833 0.88139 0.42544 0.0
N185 N 0.05819 0.82435 0.36973 0.0
C186 C 0.04079 0.82767 0.30416 0.0
C187 C 1.02212 0.80051 0.32368 0.0
C188 C 1.03066 0.79979 0.35717 0.0
C189 C 0.07314 0.85254 0.35291 0.0
C190 C 0.06537 0.85462 0.31957 0.0
H191 H 1.01563 0.77926 0.37246 0.0
H192 H 0.09236 0.87316 0.36497 0.0
H193 H 1.00076 0.78198 0.43612 0.0
H194 H 1.00491 0.87039 0.44292 0.0
H195 H 0.16824 0.80942 0.39993 0.0
H196 H 1.00185 0.77984 0.31283 0.0
H197 H 0.07967 0.87636 0.3055 0.0
C198 C 0.86601 0.85716 0.93187 0.0
C199 C 0.89054 0.8519 0.93946 0.0
N200 N 0.87885 0.82037 0.94237 0.0
N201 N 0.83869 0.82918 0.93 0.0
C202 C 0.84716 0.80704 0.93687 0.0
H203 H 0.86813 0.87998 0.9267 0.0
Co204 Co 0.80209 0.82767 0.91279 0.0
C205 C 0.75668 0.76065 0.89557 0.0
O206 O 0.75162 0.77218 0.86762 0.0
N207 N 0.76512 0.82724 0.89546 0.0
C208 C 0.71534 0.81798 0.89374 0.0
C209 C 0.73671 0.81285 0.91146 0.0
C210 C 0.76034 0.84151 0.86833 0.0
N211 N 0.73027 0.83608 0.86656 0.0
O212 O 0.79199 0.83709 0.95728 0.0
H213 H 0.73188 0.79951 0.9348 0.0
H214 H 0.77831 0.85572 0.85002 0.0
O215 O 0.77624 0.77991 0.91802 0.0
C216 C 0.80065 0.86665 0.95473 0.0
O217 O 0.81295 0.88126 0.92596 0.0
N218 N 0.81563 0.82418 0.87002 0.0
C219 C 0.83609 0.82749 0.80433 0.0
C220 C 0.82758 0.80029 0.82379 0.0
C221 C 0.81845 0.79957 0.85733 0.0
C222 C 0.82889 0.8524 0.85323 0.0
C223 C 0.83859 0.85446 0.81983 0.0
H224 H 0.81298 0.77902 0.87257 0.0
H225 H 0.8304 0.87304 0.86536 0.0
H226 H 0.83079 0.7817 0.93631 0.0
H227 H 0.91519 0.87 0.94267 0.0
H228 H 0.6909 0.8096 0.9008 0.0
H229 H 0.8271 0.7796 0.81287 0.0
H230 H 0.84607 0.87624 0.80581 0.0
C231 C 0.20528 1.02143 0.93216 0.0
C232 C 0.21048 0.05119 0.93982 0.0
N233 N 0.242 0.0711 0.94253 0.0
N234 N 0.23329 1.02219 0.93004 0.0
C235 C 0.25539 0.05282 0.93684 0.0
H236 H 0.18247 1.00069 0.92709 0.0
Co237 Co 0.23486 0.98718 0.91262 0.0
C238 C 0.30189 1.00889 0.89541 0.0
O239 O 0.2904 0.99246 0.86736 0.0
N240 N 0.23536 0.95074 0.89508 0.0
C241 C 0.24469 0.91026 0.89315 0.0
C242 C 0.24976 0.93669 0.91099 0.0
C243 C 0.22115 0.9318 0.86787 0.0
N244 N 0.22662 0.90717 0.86597 0.0
O245 O 0.22537 0.96746 0.95701 0.0
H246 H 0.26306 0.94512 0.93436 0.0
H247 H 0.20694 0.9356 0.8496 0.0
O248 O 0.28261 1.00909 0.9179 0.0
C249 C 0.19584 0.94651 0.95439 0.0
O250 O 0.18127 0.94425 0.9256 0.0
N251 N 0.2384 1.00441 0.86994 0.0
C252 C 0.23514 1.02185 0.80437 0.0
C253 C 0.2623 0.04048 0.82388 0.0
C254 C 0.263 0.03192 0.85737 0.0
C255 C 0.21021 0.98951 0.85313 0.0
C256 C 0.20817 0.9973 0.81979 0.0
H257 H 0.28354 0.04692 0.87264 0.0
H258 H 0.18958 0.97031 0.86519 0.0
H259 H 0.28074 0.06187 0.93607 0.0
H260 H 0.19235 0.05767 0.9432 0.0
H261 H 0.25308 0.89419 0.90013 0.0
H262 H 0.28299 0.06073 0.81303 0.0
H263 H 0.18642 0.98304 0.80572 0.0
C264 C 0.04135 0.19657 0.93217 0.0
C265 C 1.01161 0.172 0.93984 0.0
N266 N 0.99169 0.18361 0.94255 0.0
N267 N 0.04058 0.22383 0.93005 0.0
C268 C 1.00995 0.21528 0.93685 0.0
H269 H 0.0621 0.19451 0.92711 0.0
Co270 Co 0.07557 0.26042 0.91265 0.0
C271 C 0.05379 0.30569 0.89538 0.0
O272 O 0.07025 0.31066 0.86734 0.0
N273 N 0.11199 0.29739 0.89512 0.0
C274 C 0.15247 0.34719 0.89321 0.0
C275 C 0.12597 0.32586 0.91098 0.0
C276 C 0.13099 0.30209 0.86797 0.0
N277 N 0.15558 0.33219 0.86605 0.0
O278 O 0.09524 0.27069 0.95706 0.0
H279 H 0.11738 0.33081 0.93418 0.0
H280 H 0.1278 0.28384 0.85031 0.0
O281 O 0.05361 0.28623 0.91788 0.0
C282 C 0.11621 0.26214 0.95448 0.0
O283 O 0.11851 0.24982 0.92571 0.0
N284 N 0.05842 0.24673 0.86995 0.0
C285 C 0.0412 0.2262 0.80431 0.0
C286 C 1.02248 0.23465 0.8238 0.0
C287 C 1.03093 0.24382 0.85732 0.0
C288 C 0.07339 0.23351 0.85314 0.0
C289 C 0.06572 0.22377 0.81976 0.0
H290 H 1.01587 0.24929 0.87258 0.0
H291 H 0.09254 0.23202 0.86526 0.0
H292 H 1.00089 0.23158 0.93609 0.0
H293 H 1.00514 0.14739 0.94323 0.0
H294 H 0.16806 0.37188 0.8997 0.0
H295 H 1.00224 0.23508 0.81291 0.0
H296 H 0.08003 0.21633 0.80571 0.0
C297 C 0.86962 0.85351 0.53205 0.0
C298 C 0.86446 0.8781 0.52436 0.0
N299 N 0.83295 0.86651 0.5216 0.0
N300 N 0.84159 0.82627 0.53413 0.0
C301 C 0.81952 0.83483 0.52728 0.0
H302 H 0.89241 0.85556 0.53717 0.0
Co303 Co 0.83997 0.78969 0.55161 0.0
C304 C 0.77292 0.7444 0.56875 0.0
O305 O 0.78439 0.73948 0.59683 0.0
N306 N 0.83943 0.75274 0.56921 0.0
C307 C 0.8301 0.70293 0.57117 0.0
C308 C 0.82502 0.72429 0.55332 0.0
C309 C 0.85365 0.74802 0.59643 0.0
N310 N 0.84817 0.71793 0.59833 0.0
O311 O 0.84954 0.77945 0.50726 0.0
H312 H 0.81173 0.71941 0.52995 0.0
H313 H 0.86787 0.76605 0.61467 0.0
O314 O 0.79222 0.76384 0.54625 0.0
C315 C 0.87905 0.78798 0.50993 0.0
O316 O 0.89358 0.80026 0.53875 0.0
N317 N 0.83635 0.80339 0.59425 0.0
C318 C 0.83947 0.8242 0.65976 0.0
C319 C 0.81237 0.81567 0.64015 0.0
C320 C 0.81174 0.80635 0.60669 0.0
C321 C 0.86449 0.81665 0.61116 0.0
C322 C 0.86646 0.82654 0.64448 0.0
H323 H 0.79126 0.80084 0.59134 0.0
H324 H 0.88515 0.81806 0.59919 0.0
H325 H 0.79417 0.81855 0.52801 0.0
H326 H 0.88262 0.90271 0.52101 0.0
H327 H 0.82171 0.67847 0.56419 0.0
H328 H 0.79167 0.8153 0.65088 0.0
H329 H 0.88816 0.83401 0.65862 0.0
C330 C 0.20901 0.02885 0.53202 0.0
C331 C 0.18442 0.99913 0.52433 0.0
N332 N 0.19599 0.97917 0.52158 0.0
N333 N 0.23624 0.02804 0.53412 0.0
C334 C 0.22766 0.9974 0.52727 0.0
H335 H 0.20699 0.04962 0.53713 0.0
Co336 Co 0.27282 0.063 0.55155 0.0
C337 C 0.31806 0.04118 0.56878 0.0
O338 O 0.32298 0.0576 0.59685 0.0
N339 N 0.30979 0.09941 0.5691 0.0
C340 C 0.35961 0.13984 0.57104 0.0
C341 C 0.33824 0.1134 0.55321 0.0
C342 C 0.31452 0.11838 0.5963 0.0
N343 N 0.34463 0.14297 0.59819 0.0
O344 O 0.2831 0.08272 0.50716 0.0
H345 H 0.34311 0.10495 0.52985 0.0
H346 H 0.29651 0.11461 0.61454 0.0
O347 O 0.29862 0.04103 0.54628 0.0
C348 C 0.27458 0.10372 0.50977 0.0
O349 O 0.26229 0.10602 0.53856 0.0
N350 N 0.2591 0.04578 0.59422 0.0
C351 C 0.23837 0.02835 0.65979 0.0
C352 C 0.24686 1.00968 0.64027 0.0
C353 C 0.25614 1.01824 0.60678 0.0
C354 C 0.24586 0.06072 0.61104 0.0
C355 C 0.23601 0.05294 0.64439 0.0
H356 H 0.26163 1.00321 0.59149 0.0
H357 H 0.24446 0.07995 0.59899 0.0
H358 H 0.24392 0.9883 0.528 0.0
H359 H 0.15983 0.9927 0.52097 0.0
H360 H 0.38407 0.15587 0.56406 0.0
H361 H 0.24725 0.98939 0.65111 0.0
H362 H 0.22856 0.06723 0.65846 0.0
C363 C 1.03373 0.19288 0.53196 0.0
C364 C 0.06345 0.19802 0.52426 0.0
N365 N 0.0834 0.22954 0.52157 0.0
N366 N 1.03455 0.22093 0.53411 0.0
C367 C 0.06518 0.24299 0.52729 0.0
H368 H 1.01296 0.17009 0.53704 0.0
Co369 Co 0.99961 0.22256 0.55161 0.0
C370 C 1.02141 0.28962 0.56878 0.0
O371 O 1.00504 0.27815 0.59688 0.0
N372 N 0.96322 0.22313 0.56923 0.0
C373 C 0.92278 0.23251 0.57121 0.0
C374 C 0.9492 0.23757 0.55335 0.0
C375 C 0.94428 0.2089 0.59645 0.0
N376 N 0.91968 0.21441 0.59837 0.0
O377 O 0.97982 0.21307 0.50726 0.0
H378 H 0.95762 0.25087 0.52998 0.0
H379 H 0.94806 0.19466 0.61469 0.0
O380 O 1.02154 0.27032 0.54628 0.0
C381 C 0.95883 0.18355 0.50991 0.0
O382 O 0.95656 0.16898 0.53871 0.0
N383 N 1.0169 0.22613 0.59425 0.0
C384 C 1.03454 0.22291 0.65974 0.0
C385 C 0.05314 0.25004 0.64016 0.0
C386 C 0.04447 0.25071 0.60671 0.0
C387 C 1.002 0.19796 0.61113 0.0
C388 C 1.00989 0.19595 0.64444 0.0
H389 H 0.05945 0.27122 0.59137 0.0
H390 H 0.98275 0.17732 0.59914 0.0
H391 H 0.07428 0.26836 0.52807 0.0
H392 H 0.06988 0.17985 0.52087 0.0
H393 H 0.90674 0.24093 0.56424 0.0
H394 H 0.07346 0.27072 0.65092 0.0
H395 H 0.99564 0.17422 0.65856 0.0
C396 C 0.87575 0.52624 0.36512 0.0
C397 C 0.85113 0.53134 0.35746 0.0
N398 N 0.86262 0.56286 0.35492 0.0
N399 N 0.90293 0.55432 0.36739 0.0
C400 C 0.89428 0.57636 0.36069 0.0
H401 H 0.87378 0.50345 0.37008 0.0
Co402 Co 0.93951 0.55597 0.38486 0.0
C403 C 0.9847 0.62304 0.4021 0.0
O404 O 0.98962 0.61156 0.43018 0.0
N405 N 0.97648 0.55656 0.40245 0.0
C406 C 1.0263 0.56599 0.40444 0.0
C407 C 1.00494 0.57104 0.38659 0.0
C408 C 0.9812 0.54232 0.42966 0.0
N409 N 1.01131 0.54785 0.43158 0.0
O410 O 0.94984 0.54656 0.34048 0.0
H411 H 1.00982 0.58437 0.36323 0.0
H412 H 0.96317 0.52805 0.44788 0.0
O413 O 0.96528 0.60374 0.37959 0.0
C414 C 0.94137 0.51705 0.34309 0.0
O415 O 0.92909 0.50244 0.37188 0.0
N416 N 0.92575 0.55944 0.42752 0.0
C417 C 0.90498 0.55606 0.49308 0.0
C418 C 0.91348 0.58324 0.4736 0.0
C419 C 0.92278 0.584 0.44011 0.0
C420 C 0.91248 0.53123 0.4443 0.0
C421 C 0.90261 0.52912 0.47764 0.0
H422 H 0.9283 0.60455 0.42486 0.0
H423 H 0.9111 0.51062 0.43222 0.0
H424 H 0.91048 0.60172 0.36159 0.0
H425 H 0.82656 0.51314 0.35399 0.0
H426 H 0.05077 0.57443 0.39748 0.0
H427 H 0.91387 0.60391 0.48447 0.0
H428 H 0.89515 0.50736 0.49168 0.0
C429 C 0.53632 0.36213 0.36521 0.0
C430 C 0.53119 0.3324 0.35755 0.0
N431 N 0.49968 0.31241 0.35494 0.0
N432 N 0.50827 0.36129 0.36742 0.0
C433 C 0.48622 0.33063 0.36067 0.0
H434 H 0.55911 0.38292 0.37022 0.0
Co435 Co 0.50664 0.39625 0.38487 0.0
C436 C 0.4396 0.37443 0.40215 0.0
O437 O 0.45109 0.39084 0.43021 0.0
N438 N 0.50608 0.43265 0.40245 0.0
C439 C 0.49667 0.47308 0.40442 0.0
C440 C 0.49161 0.44665 0.38658 0.0
C441 C 0.5203 0.45161 0.42965 0.0
N442 N 0.51479 0.4762 0.43156 0.0
O443 O 0.51606 0.41598 0.34048 0.0
H444 H 0.47829 0.43821 0.36322 0.0
H445 H 0.53456 0.44784 0.44788 0.0
O446 O 0.45888 0.37428 0.37963 0.0
C447 C 0.54557 0.43699 0.34308 0.0
O448 O 0.56017 0.4393 0.37186 0.0
N449 N 0.50317 0.37903 0.42754 0.0
C450 C 0.50656 0.36163 0.49309 0.0
C451 C 0.47938 0.34296 0.47362 0.0
C452 C 0.47862 0.35151 0.44014 0.0
C453 C 0.53138 0.39396 0.44431 0.0
C454 C 0.53349 0.38619 0.47764 0.0
H455 H 0.45807 0.33648 0.42489 0.0
H456 H 0.55198 0.41318 0.43222 0.0
H457 H 0.46086 0.32151 0.36151 0.0
H458 H 0.54936 0.32598 0.35412 0.0
H459 H 0.48823 0.48912 0.39746 0.0
H460 H 0.45872 0.3227 0.4845 0.0
H461 H 0.55525 0.40049 0.49168 0.0
C462 C 0.70058 0.18705 0.36531 0.0
C463 C 0.73031 0.21164 0.35763 0.0
N464 N 0.75027 0.20008 0.35499 0.0
N465 N 0.7014 0.15983 0.3675 0.0
C466 C 0.73204 0.1684 0.36073 0.0
H467 H 0.67981 0.18908 0.37034 0.0
Co468 Co 0.66643 0.12325 0.38496 0.0
C469 C 0.68821 0.07799 0.40223 0.0
O470 O 0.67181 0.07308 0.4303 0.0
N471 N 0.63002 0.08629 0.40254 0.0
C472 C 0.5896 0.03646 0.40451 0.0
C473 C 0.61602 0.05783 0.38667 0.0
C474 C 0.61106 0.08157 0.42974 0.0
N475 N 0.58647 0.05146 0.43165 0.0
O476 O 0.64671 0.11294 0.34058 0.0
H477 H 0.62447 0.05295 0.36332 0.0
H478 H 0.61482 0.09959 0.44797 0.0
O479 O 0.68838 0.09743 0.37972 0.0
C480 C 0.62572 0.12147 0.34317 0.0
O481 O 0.62342 0.13379 0.37194 0.0
N482 N 0.68364 0.13699 0.42762 0.0
C483 C 0.70104 0.15774 0.49318 0.0
C484 C 0.7197 0.14923 0.47369 0.0
C485 C 0.71116 0.13994 0.44021 0.0
C486 C 0.66871 0.15026 0.44441 0.0
C487 C 0.67648 0.16012 0.47775 0.0
H488 H 0.72618 0.13442 0.42494 0.0
H489 H 0.6495 0.15167 0.43234 0.0
H490 H 0.74114 0.15214 0.36155 0.0
H491 H 0.73675 0.23624 0.35421 0.0
H492 H 0.57357 1.01199 0.39755 0.0
H493 H 0.73996 0.14882 0.48455 0.0
H494 H 0.66218 0.16759 0.4918 0.0
C495 C 0.87206 0.52982 0.76551 0.0
C496 C 0.87723 0.50524 0.77318 0.0
N497 N 0.90875 0.51683 0.77585 0.0
N498 N 0.90008 0.55706 0.76335 0.0
C499 C 0.92216 0.54851 0.77014 0.0
H500 H 0.84925 0.52777 0.76046 0.0
Co501 Co 0.90166 0.59363 0.74591 0.0
C502 C 0.96868 0.63892 0.72862 0.0
O503 O 0.95718 0.64383 0.70057 0.0
N504 N 0.90217 0.63058 0.72834 0.0
C505 C 0.91152 0.6804 0.72639 0.0
C506 C 0.91662 0.65904 0.74422 0.0
C507 C 0.88792 0.6353 0.70115 0.0
N508 N 0.89341 0.6654 0.69925 0.0
O509 O 0.89222 0.60392 0.7903 0.0
H510 H 0.92994 0.66393 0.76756 0.0
H511 H 0.87367 0.61727 0.68292 0.0
O512 O 0.94942 0.61947 0.75114 0.0
C513 C 0.8627 0.59536 0.7877 0.0
O514 O 0.8481 0.58303 0.75894 0.0
N515 N 0.90515 0.5799 0.70324 0.0
C516 C 0.90181 0.55917 0.63767 0.0
C517 C 0.92899 0.56769 0.65715 0.0
C518 C 0.92972 0.57697 0.69064 0.0
C519 C 0.87695 0.56662 0.68645 0.0
C520 C 0.87486 0.55677 0.65311 0.0
H521 H 0.95027 0.5825 0.7059 0.0
H522 H 0.85633 0.5652 0.69853 0.0
H523 H 0.94751 0.56479 0.76934 0.0
H524 H 0.85909 0.48063 0.77658 0.0
H525 H 0.91994 0.70486 0.73336 0.0
H526 H 0.94966 0.56811 0.64628 0.0
H527 H 0.85311 0.54929 0.63906 0.0
C528 C 0.53275 0.35478 0.76553 0.0
C529 C 0.55732 0.38452 0.77323 0.0
N530 N 0.54575 0.40446 0.77593 0.0
N531 N 0.50552 0.35559 0.76338 0.0
C532 C 0.51408 0.38623 0.7702 0.0
H533 H 0.53479 0.33402 0.76045 0.0
Co534 Co 0.46896 0.32062 0.7459 0.0
C535 C 0.42374 0.34242 0.72857 0.0
O536 O 0.41886 0.32603 0.7005 0.0
N537 N 0.43203 0.28421 0.72829 0.0
C538 C 0.38221 0.24379 0.7263 0.0
C539 C 0.40356 0.27021 0.74416 0.0
C540 C 0.42731 0.26526 0.70109 0.0
N541 N 0.39721 0.24068 0.69916 0.0
O542 O 0.45863 0.30088 0.79027 0.0
H543 H 0.39868 0.27865 0.76751 0.0
H544 H 0.44534 0.26904 0.68285 0.0
O545 O 0.44314 0.34257 0.75111 0.0
C546 C 0.46716 0.27988 0.78768 0.0
O547 O 0.4795 0.27761 0.75892 0.0
N548 N 0.48274 0.33787 0.70324 0.0
C549 C 0.5035 0.3553 0.63768 0.0
C550 C 0.495 0.37397 0.65719 0.0
C551 C 0.48571 0.3654 0.69067 0.0
C552 C 0.496 0.32293 0.68643 0.0
C553 C 0.50586 0.33071 0.6531 0.0
H554 H 0.4802 0.38043 0.70595 0.0
H555 H 0.49739 0.3037 0.69849 0.0
H556 H 0.49782 0.39532 0.76942 0.0
H557 H 0.58192 0.39096 0.77663 0.0
H558 H 0.35774 0.22776 0.73326 0.0
H559 H 0.49461 0.39425 0.64634 0.0
H560 H 0.51332 0.31642 0.63903 0.0
C561 C 0.70779 0.19065 0.76565 0.0
C562 C 0.67806 0.18549 0.77333 0.0
N563 N 0.65811 0.15396 0.77597 0.0
N564 N 0.70699 0.16262 0.76346 0.0
C565 C 0.67635 0.14053 0.77023 0.0
H566 H 0.72856 0.21346 0.76062 0.0
Co567 Co 0.74197 0.16102 0.746 0.0
C568 C 0.72019 0.09397 0.72874 0.0
O569 O 0.7366 0.10546 0.70068 0.0
N570 N 0.77838 0.16049 0.72841 0.0
C571 C 0.81881 0.1511 0.72645 0.0
C572 C 0.79238 0.14603 0.74429 0.0
C573 C 0.79734 0.17473 0.70122 0.0
N574 N 0.82194 0.16923 0.6993 0.0
O575 O 0.76169 0.17044 0.79038 0.0
H576 H 0.78394 0.1327 0.76764 0.0
H577 H 0.79357 0.18899 0.68298 0.0
O578 O 0.72002 0.11325 0.75124 0.0
C579 C 0.78268 0.19997 0.78778 0.0
O580 O 0.78495 0.21458 0.75901 0.0
N581 N 0.72475 0.15754 0.70333 0.0
C582 C 0.70735 0.16089 0.63777 0.0
C583 C 0.6887 0.13371 0.65726 0.0
C584 C 0.69724 0.13297 0.69075 0.0
C585 C 0.73968 0.18575 0.68654 0.0
C586 C 0.73191 0.18784 0.6532 0.0
H587 H 0.68222 0.11242 0.70601 0.0
H588 H 0.75889 0.20637 0.69861 0.0
H589 H 0.66727 0.11517 0.76941 0.0
H590 H 0.67161 0.20364 0.77675 0.0
H591 H 0.83485 0.14267 0.73342 0.0
H592 H 0.66844 0.11304 0.6464 0.0
H593 H 0.7462 0.2096 0.63915 0.0
C594 C 0.53279 0.19068 0.26558 0.0
C595 C 0.55738 0.18553 0.27325 0.0
N596 N 0.54582 0.15401 0.27591 0.0
N597 N 0.50558 0.16263 0.26341 0.0
C598 C 0.51416 0.14056 0.27018 0.0
H599 H 0.53482 0.21348 0.26054 0.0
Co600 Co 0.469 0.16102 0.24596 0.0
C601 C 0.42378 0.09398 0.22867 0.0
O602 O 0.41886 0.10549 0.20061 0.0
N603 N 0.43205 0.16048 0.22839 0.0
C604 C 0.38223 0.15108 0.22643 0.0
C605 C 0.40359 0.14601 0.24426 0.0
C606 C 0.42733 0.17473 0.2012 0.0
N607 N 0.39723 0.16921 0.19929 0.0
O608 O 0.45869 0.17043 0.29035 0.0
H609 H 0.39871 0.13268 0.26761 0.0
H610 H 0.44535 0.18899 0.18296 0.0
O611 O 0.4432 0.11325 0.25118 0.0
C612 C 0.46721 0.19995 0.28776 0.0
O613 O 0.47954 0.21457 0.25899 0.0
N614 N 0.48275 0.15757 0.20329 0.0
C615 C 0.50346 0.16092 0.1377 0.0
C616 C 0.49497 0.13374 0.15719 0.0
C617 C 0.48571 0.133 0.19069 0.0
C618 C 0.49601 0.18578 0.1865 0.0
C619 C 0.50585 0.18787 0.15315 0.0
H620 H 0.4802 0.11245 0.20595 0.0
H621 H 0.49742 0.20639 0.19858 0.0
H622 H 0.4979 0.1152 0.26938 0.0
H623 H 0.58197 0.2037 0.27667 0.0
H624 H 0.35777 0.14264 0.23339 0.0
H625 H 0.49456 0.11307 0.14632 0.0
H626 H 0.5133 0.20963 0.1391 0.0
C627 C 0.87206 0.35487 0.26559 0.0
C628 C 0.87723 0.38461 0.27325 0.0
N629 N 0.90874 0.40456 0.27588 0.0
N630 N 0.90009 0.35567 0.26341 0.0
C631 C 0.92217 0.38632 0.27016 0.0
H632 H 0.84926 0.33409 0.26058 0.0
Co633 Co 0.90169 0.32068 0.24597 0.0
C634 C 0.96871 0.34245 0.22867 0.0
O635 O 0.9572 0.32602 0.20062 0.0
N636 N 0.90221 0.28425 0.22841 0.0
C637 C 0.91159 0.24381 0.22646 0.0
C638 C 0.91666 0.27024 0.24429 0.0
C639 C 0.88797 0.26529 0.20122 0.0
N640 N 0.89348 0.24069 0.19931 0.0
O641 O 0.89226 0.30097 0.29036 0.0
H642 H 0.92998 0.27869 0.26764 0.0
H643 H 0.87373 0.26907 0.18298 0.0
O644 O 0.94945 0.34262 0.25119 0.0
C645 C 0.86274 0.27998 0.28777 0.0
O646 O 0.84814 0.27769 0.259 0.0
N647 N 0.90516 0.33789 0.20329 0.0
C648 C 0.90182 0.35527 0.13772 0.0
C649 C 0.92899 0.37393 0.15719 0.0
C650 C 0.92973 0.3654 0.19069 0.0
C651 C 0.87696 0.32296 0.18651 0.0
C652 C 0.87487 0.33072 0.15317 0.0
H653 H 0.95028 0.38043 0.20594 0.0
H654 H 0.85634 0.30376 0.1986 0.0
H655 H 0.94752 0.3954 0.26933 0.0
H656 H 0.85908 0.39106 0.27667 0.0
H657 H 0.92002 0.22776 0.23342 0.0
H658 H 0.94966 0.39419 0.14632 0.0
H659 H 0.85311 0.31643 0.13912 0.0
C660 C 0.70772 0.52976 0.26554 0.0
C661 C 0.67797 0.50519 0.27318 0.0
N662 N 0.65805 0.5168 0.27584 0.0
N663 N 0.70696 0.55702 0.26339 0.0
C664 C 0.67632 0.54848 0.27015 0.0
H665 H 0.72848 0.5277 0.26051 0.0
Co666 Co 0.74197 0.5936 0.246 0.0
C667 C 0.72024 0.6389 0.22868 0.0
O668 O 0.73671 0.64385 0.20065 0.0
N669 N 0.77842 0.63055 0.22848 0.0
C670 C 0.81887 0.68037 0.22656 0.0
C671 C 0.79241 0.65901 0.24436 0.0
C672 C 0.79741 0.63527 0.20131 0.0
N673 N 0.82201 0.66537 0.19942 0.0
O674 O 0.76161 0.60386 0.29041 0.0
H675 H 0.78394 0.66389 0.2677 0.0
H676 H 0.79365 0.61726 0.18307 0.0
O677 O 0.72003 0.61943 0.25119 0.0
C678 C 0.78257 0.59529 0.28785 0.0
O679 O 0.78486 0.58294 0.2591 0.0
N680 N 0.72482 0.57989 0.20329 0.0
C681 C 0.70758 0.55924 0.13769 0.0
C682 C 0.68889 0.56776 0.15712 0.0
C683 C 0.69736 0.57699 0.19064 0.0
C684 C 0.73977 0.56661 0.18655 0.0
C685 C 0.73207 0.55679 0.15319 0.0
H686 H 0.68231 0.58252 0.20586 0.0
H687 H 0.75894 0.56517 0.19867 0.0
H688 H 0.66725 0.56477 0.26935 0.0
H689 H 0.6715 0.48058 0.27658 0.0
H690 H 0.8349 0.70484 0.23353 0.0
H691 H 0.66867 0.5682 0.1462 0.0
H692 H 0.74638 0.54932 0.13917 0.0
C693 C 0.53629 0.18687 0.86522 0.0
C694 C 0.53116 0.21147 0.85753 0.0
N695 N 0.49964 0.19991 0.85491 0.0
N696 N 0.50825 0.15965 0.86743 0.0
C697 C 0.48619 0.16824 0.86067 0.0
H698 H 0.55909 0.18889 0.87024 0.0
Co699 Co 0.50665 0.12309 0.88493 0.0
C700 C 0.43962 0.07783 0.90222 0.0
O701 O 0.45111 0.07294 0.93029 0.0
N702 N 0.50612 0.08615 0.90255 0.0
C703 C 0.49675 0.03633 0.90457 0.0
C704 C 0.49166 0.05767 0.88671 0.0
C705 C 0.52037 0.08146 0.92975 0.0
N706 N 0.51488 0.05136 0.93169 0.0
O707 O 0.51609 0.11276 0.84056 0.0
H708 H 0.47833 0.05276 0.86336 0.0
H709 H 0.53463 0.0995 0.94796 0.0
O710 O 0.45889 0.09726 0.87969 0.0
C711 C 0.54561 0.12129 0.84317 0.0
O712 O 0.5602 0.13361 0.87194 0.0
N713 N 0.50316 0.13686 0.92758 0.0
C714 C 0.50651 0.15768 -0.00689 0.0
C715 C 0.47933 0.14913 0.97363 0.0
C716 C 0.47859 0.13981 0.94015 0.0
C717 C 0.53137 0.15016 0.94436 0.0
C718 C 0.53346 0.16005 0.97768 0.0
H719 H 0.45804 0.13427 0.92489 0.0
H720 H 0.55198 0.15156 0.93229 0.0
H721 H 0.46084 0.15199 0.86151 0.0
H722 H 0.54932 0.23606 0.85409 0.0
H723 H 0.48833 1.01185 0.89763 0.0
H724 H 0.45867 0.14873 -0.01551 0.0
H725 H 0.55522 0.16754 -0.00827 0.0
C726 C 0.87578 0.36214 0.86526 0.0
C727 C 0.85117 0.33241 0.85759 0.0
N728 N 0.8627 0.31242 0.85495 0.0
N729 N 0.90298 0.36129 0.86745 0.0
C730 C 0.89437 0.33062 0.86068 0.0
H731 H 0.87378 0.38293 0.87028 0.0
Co732 Co 0.93955 0.39624 0.88491 0.0
C733 C 0.98476 0.37441 0.90219 0.0
O734 O 0.98966 0.3908 0.93026 0.0
N735 N 0.97651 0.43263 0.9025 0.0
C736 C 1.02633 0.47305 0.90447 0.0
C737 C 1.00497 0.44663 0.88663 0.0
C738 C 0.98123 0.4516 0.92969 0.0
N739 N 1.01133 0.47619 0.93161 0.0
O740 O 0.94987 0.41598 0.84053 0.0
H741 H 1.00986 0.43817 0.86328 0.0
H742 H 0.9632 0.44784 0.94791 0.0
O743 O 0.96535 0.37426 0.87967 0.0
C744 C 0.94138 0.437 0.84313 0.0
O745 O 0.92908 0.4393 0.87191 0.0
N746 N 0.92579 0.379 0.92757 0.0
C747 C 0.90501 0.36158 -0.00687 0.0
C748 C 0.91352 0.34291 0.97363 0.0
C749 C 0.92282 0.35147 0.94015 0.0
C750 C 0.91253 0.39395 0.94436 0.0
C751 C 0.90266 0.38617 0.9777 0.0
H752 H 0.92834 0.33644 0.92489 0.0
H753 H 0.91115 0.41318 0.9323 0.0
H754 H 0.9106 0.32149 0.86151 0.0
H755 H 0.82659 0.32601 0.85417 0.0
H756 H 0.0508 0.48908 0.89751 0.0
H757 H 0.9139 0.32263 -0.01551 0.0
H758 H 0.8952 0.40047 -0.00825 0.0
C759 C 0.70051 0.52617 0.86517 0.0
C760 C 0.73023 0.53129 0.85747 0.0
N761 N 0.75021 0.56282 0.85486 0.0
N762 N 0.70137 0.55423 0.86742 0.0
C763 C 0.73202 0.57629 0.86065 0.0
H764 H 0.67973 0.50338 0.87019 0.0
Co765 Co 0.66644 0.55586 0.88495 0.0
C766 C 0.68826 0.6229 0.90226 0.0
O767 O 0.67193 0.61139 0.93037 0.0
N768 N 0.63006 0.55643 0.90261 0.0
C769 C 0.58967 0.56587 0.90463 0.0
C770 C 0.61607 0.57091 0.88676 0.0
C771 C 0.61113 0.5422 0.92983 0.0
N772 N 0.58656 0.54775 0.93178 0.0
O773 O 0.64664 0.54642 0.84061 0.0
H774 H 0.6245 0.58423 0.8634 0.0
H775 H 0.6149 0.52794 0.94805 0.0
O776 O 0.68838 0.60363 0.8797 0.0
C777 C 0.62563 0.5169 0.84323 0.0
O778 O 0.62336 0.50231 0.87201 0.0
N779 N 0.68373 0.55935 0.92759 0.0
C780 C 0.70127 0.55604 -0.00691 0.0
C781 C 0.71991 0.58319 0.97355 0.0
C782 C 0.71129 0.58391 0.94009 0.0
C783 C 0.6688 0.53116 0.94442 0.0
C784 C 0.67664 0.52909 0.97773 0.0
H785 H 0.72629 0.60444 0.92479 0.0
H786 H 0.64954 0.51055 0.93239 0.0
H787 H 0.74115 0.60165 0.86151 0.0
H788 H 0.73663 0.51311 0.854 0.0
H789 H 0.57365 0.57432 0.89769 0.0
H790 H 0.74021 0.60385 -0.01564 0.0
H791 H 0.66236 0.50735 -0.00818 0.0
C792 C 0.54229 0.85948 0.69844 0.0
C793 C 0.5177 0.86461 0.69071 0.0
N794 N 0.52922 0.89614 0.6882 0.0
N795 N 0.56947 0.88754 0.7008 0.0
C796 C 0.56087 0.90961 0.69407 0.0
H797 H 0.54029 0.83667 0.7034 0.0
Co798 Co 0.60599 0.88916 0.71841 0.0
C799 C 0.65119 0.95622 0.73569 0.0
O800 O 0.65602 0.94473 0.76381 0.0
N801 N 0.6429 0.88972 0.73615 0.0
C802 C 0.69272 0.89915 0.73829 0.0
C803 C 0.67138 0.90416 0.72033 0.0
C804 C 0.64758 0.87557 0.76345 0.0
N805 N 0.67769 0.8811 0.76547 0.0
O806 O 0.61641 0.87972 0.67409 0.0
H807 H 0.6763 0.91743 0.69693 0.0
H808 H 0.62954 0.86136 0.78169 0.0
O809 O 0.63181 0.93693 0.71315 0.0
C810 C 0.60794 0.85021 0.67672 0.0
O811 O 0.59562 0.83561 0.70549 0.0
N812 N 0.59213 0.89265 0.761 0.0
C813 C 0.57128 0.88933 0.82651 0.0
C814 C 0.57982 0.9165 0.807 0.0
C815 C 0.58916 0.91723 0.77353 0.0
C816 C 0.57882 0.86444 0.7778 0.0
C817 C 0.56891 0.86237 0.81112 0.0
H818 H 0.59472 0.93778 0.75826 0.0
H819 H 0.57746 0.84383 0.76576 0.0
H820 H 0.57708 0.93497 0.69502 0.0
H821 H 0.49314 0.84643 0.68717 0.0
H822 H 0.7172 0.90758 0.73139 0.0
H823 H 0.58022 0.93718 0.81783 0.0
H824 H 0.56143 0.84061 0.82519 0.0
C825 C 0.2031 0.6955 0.69848 0.0
C826 C 0.19795 0.66576 0.6908 0.0
N827 N 0.16644 0.6458 0.68817 0.0
N828 N 0.17506 0.69468 0.70068 0.0
C829 C 0.15299 0.66403 0.69391 0.0
H830 H 0.2259 0.71628 0.7035 0.0
Co831 Co 0.17344 0.72964 0.71815 0.0
C832 C 0.1064 0.70783 0.73543 0.0
O833 O 0.11789 0.72423 0.76349 0.0
N834 N 0.17289 0.76604 0.73575 0.0
C835 C 0.16349 0.80647 0.73775 0.0
C836 C 0.15844 0.78006 0.71988 0.0
C837 C 0.18709 0.78497 0.76298 0.0
N838 N 0.18158 0.80956 0.76491 0.0
O839 O 0.18287 0.74939 0.67378 0.0
H840 H 0.14514 0.77164 0.69651 0.0
H841 H 0.20132 0.78117 0.78122 0.0
O842 O 0.12568 0.70768 0.71291 0.0
C843 C 0.21239 0.77039 0.67638 0.0
O844 O 0.22698 0.77268 0.70516 0.0
N845 N 0.16996 0.71239 0.76081 0.0
C846 C 0.17331 0.69495 0.82635 0.0
C847 C 0.14614 0.6763 0.80687 0.0
C848 C 0.14539 0.68487 0.77339 0.0
C849 C 0.19816 0.72731 0.77759 0.0
C850 C 0.20025 0.71952 0.81092 0.0
H851 H 0.12485 0.66985 0.75813 0.0
H852 H 0.21877 0.74654 0.76552 0.0
H853 H 0.12764 0.65493 0.69475 0.0
H854 H 0.21611 0.65933 0.68737 0.0
H855 H 0.15507 0.82252 0.7308 0.0
H856 H 0.12547 0.65603 0.81773 0.0
H857 H 0.22201 0.73381 0.82497 0.0
C858 C 0.36701 0.5202 0.69851 0.0
C859 C 0.39673 0.5448 0.69084 0.0
N860 N 0.4167 0.53325 0.68817 0.0
N861 N 0.36783 0.49297 0.70067 0.0
C862 C 0.39848 0.50157 0.69389 0.0
H863 H 0.34623 0.52222 0.70356 0.0
Co864 Co 0.33287 0.45637 0.71809 0.0
C865 C 0.3547 0.41114 0.73535 0.0
O866 O 0.33826 0.40617 0.7634 0.0
N867 N 0.29648 0.41939 0.73564 0.0
C868 C 0.25602 0.36958 0.73757 0.0
C869 C 0.28251 0.39091 0.71979 0.0
C870 C 0.27749 0.41468 0.76281 0.0
N871 N 0.25291 0.38457 0.76473 0.0
O872 O 0.31318 0.44608 0.6737 0.0
H873 H 0.2911 0.38597 0.69658 0.0
H874 H 0.28067 0.43293 0.78046 0.0
O875 O 0.35486 0.43058 0.71285 0.0
C876 C 0.29218 0.4546 0.6763 0.0
O877 O 0.28986 0.46689 0.70508 0.0
N878 N 0.35005 0.47008 0.76078 0.0
C879 C 0.36733 0.49066 0.8264 0.0
C880 C 0.38604 0.48221 0.8069 0.0
C881 C 0.37756 0.47301 0.77338 0.0
C882 C 0.33507 0.48328 0.77761 0.0
C883 C 0.34278 0.49305 0.81098 0.0
H884 H 0.39262 0.46755 0.75811 0.0
H885 H 0.31591 0.48475 0.76551 0.0
H886 H 0.40759 0.48531 0.69468 0.0
H887 H 0.40316 0.5694 0.68744 0.0
H888 H 0.24043 0.34489 0.73108 0.0
H889 H 0.4063 0.48181 0.81777 0.0
H890 H 0.32847 0.50049 0.82504 0.0
C891 C 0.53877 0.86337 0.09905 0.0
C892 C 0.54391 0.83877 0.1067 0.0
N893 N 0.57543 0.85032 0.10926 0.0
N894 N 0.5668 0.89058 0.0968 0.0
C895 C 0.58887 0.88199 0.1035 0.0
H896 H 0.51596 0.86135 0.09408 0.0
Co897 Co 0.56841 0.92716 0.07933 0.0
C898 C 0.63545 0.9724 0.06202 0.0
O899 O 0.62395 0.97732 0.03397 0.0
N900 N 0.56895 0.96411 0.06175 0.0
C901 C 0.57832 1.01393 0.05974 0.0
C902 C 0.58341 0.99259 0.07759 0.0
C903 C 0.55468 0.96881 0.03456 0.0
N904 N 0.56018 0.99891 0.03262 0.0
O905 O 0.559 0.93747 0.12372 0.0
H906 H 0.59676 0.99749 0.10093 0.0
H907 H 0.54042 0.95076 0.01635 0.0
O908 O 0.61617 0.95296 0.08454 0.0
C909 C 0.52948 0.92895 0.12113 0.0
O910 O 0.51488 0.91664 0.09236 0.0
N911 N 0.57185 0.91339 0.03667 0.0
C912 C 0.56839 0.89259 0.97111 0.0
C913 C 0.59561 0.90115 -0.00947 0.0
C914 C 0.59641 0.91046 0.02402 0.0
C915 C 0.54362 0.90008 0.01995 0.0
C916 C 0.54147 0.8902 -0.01339 0.0
H917 H 0.61698 0.91601 0.03923 0.0
H918 H 0.52302 0.89868 0.03207 0.0
H919 H 0.61423 0.89823 0.10261 0.0
H920 H 0.52575 0.81418 0.11016 0.0
H921 H 0.58675 0.03841 0.06669 0.0
H922 H 0.61626 0.90156 0.97961 0.0
H923 H 0.51968 0.88271 0.97262 0.0
C924 C 0.19941 0.68811 0.09878 0.0
C925 C 0.224 0.71784 0.10646 0.0
N926 N 0.21244 0.7378 0.10913 0.0
N927 N 0.17219 0.68893 0.09662 0.0
C928 C 0.18077 0.71958 0.10341 0.0
H929 H 0.20143 0.66733 0.09372 0.0
Co930 Co 0.13562 0.65396 0.07916 0.0
C931 C 0.09038 0.67575 0.06186 0.0
O932 O 0.0855 0.65935 0.0338 0.0
N933 N 0.09868 0.61754 0.06159 0.0
C934 C 0.04886 0.57711 0.05962 0.0
C935 C 0.07022 0.60355 0.07745 0.0
C936 C 0.09397 0.59857 0.0344 0.0
N937 N 0.06387 0.57398 0.03249 0.0
O938 O 0.12531 0.63424 0.12355 0.0
H939 H 0.06533 0.612 0.1008 0.0
H940 H 0.11199 0.60233 0.01617 0.0
O941 O 0.10981 0.67591 0.08439 0.0
C942 C 0.13384 0.61324 0.12096 0.0
O943 O 0.14616 0.61095 0.09219 0.0
N944 N 0.14938 0.67118 0.0365 0.0
C945 C 0.17015 0.6886 0.97094 0.0
C946 C 0.16164 0.70727 -0.00957 0.0
C947 C 0.15234 0.69871 0.02392 0.0
C948 C 0.16264 0.65624 0.0197 0.0
C949 C 0.17251 0.66402 -0.01363 0.0
H950 H 0.14682 0.71374 0.03918 0.0
H951 H 0.16404 0.63702 0.03177 0.0
H952 H 0.16452 0.72869 0.10262 0.0
H953 H 0.24859 0.72427 0.10986 0.0
H954 H 1.0244 0.56108 0.06659 0.0
H955 H 0.16125 0.72755 0.97957 0.0
H956 H 0.17997 0.64973 0.97231 0.0
C957 C 0.37453 0.52399 0.09867 0.0
C958 C 0.34479 0.51883 0.10633 0.0
N959 N 0.32487 0.48731 0.1091 0.0
N960 N 0.37376 0.49596 0.09661 0.0
C961 C 0.34313 0.47389 0.10345 0.0
H962 H 0.39528 0.5468 0.09356 0.0
Co963 Co 0.40874 0.49436 0.07921 0.0
C964 C 0.38699 0.42731 0.06201 0.0
O965 O 0.40342 0.4388 0.03395 0.0
N966 N 0.44517 0.49382 0.06168 0.0
C967 C 0.48561 0.48445 0.0598 0.0
C968 C 0.45916 0.47937 0.0776 0.0
C969 C 0.46416 0.50807 0.03451 0.0
N970 N 0.48877 0.50257 0.03265 0.0
O971 O 0.42844 0.50384 0.12359 0.0
H972 H 0.45069 0.46604 0.10095 0.0
H973 H 0.46042 0.52233 0.01625 0.0
O974 O 0.38681 0.44659 0.08451 0.0
C975 C 0.44942 0.53336 0.12097 0.0
O976 O 0.45169 0.54794 0.09218 0.0
N977 N 0.39152 0.49081 0.03652 0.0
C978 C 0.374 0.49401 0.97097 0.0
C979 C 0.35537 0.46689 -0.00946 0.0
C980 C 0.36398 0.46622 0.02402 0.0
C981 C 0.40645 0.51897 0.01964 0.0
C982 C 0.39862 0.52098 -0.01369 0.0
H983 H 0.34897 0.44572 0.03935 0.0
H984 H 0.42568 0.53962 0.03165 0.0
H985 H 0.33406 0.44853 0.10274 0.0
H986 H 0.33833 0.53699 0.10967 0.0
H987 H 0.50165 0.47602 0.06681 0.0
H988 H 0.33507 0.4462 0.97976 0.0
H989 H 0.41289 0.54271 0.97219 0.0
C990 C 0.1994 0.524 0.59876 0.0
C991 C 0.22397 0.51883 0.60642 0.0
N992 N 0.21239 0.4873 0.60907 0.0
N993 N 0.17217 0.49597 0.59658 0.0
C994 C 0.18073 0.47388 0.60334 0.0
H995 H 0.20145 0.54682 0.59373 0.0
Co996 Co 0.13561 0.4944 0.57914 0.0
C997 C 0.09035 0.42737 0.56185 0.0
O998 O 0.08544 0.43888 0.53379 0.0
N999 N 0.09868 0.49389 0.56158 0.0
C1000 C 0.04887 0.48452 0.55963 0.0
C1001 C 0.07022 0.47943 0.57746 0.0
C1002 C 0.09396 0.50814 0.53439 0.0
N1003 N 0.06386 0.50265 0.53249 0.0
O1004 O 0.12532 0.50381 0.62353 0.0
H1005 H 0.06534 0.4661 0.60081 0.0
H1006 H 0.11198 0.5224 0.51615 0.0
O1007 O 0.10979 0.44663 0.58437 0.0
C1008 C 0.13386 0.53334 0.62095 0.0
O1009 O 0.14619 0.54795 0.59218 0.0
N1010 N 0.14935 0.49093 0.53646 0.0
C1011 C 0.1701 0.49428 0.4709 0.0
C1012 C 0.16157 0.46709 0.49039 0.0
C1013 C 0.15229 0.46635 0.52387 0.0
C1014 C 0.16262 0.51914 0.51967 0.0
C1015 C 0.17248 0.52123 0.48633 0.0
H1016 H 0.14676 0.4458 0.53913 0.0
H1017 H 0.16403 0.53976 0.53175 0.0
H1018 H 0.16446 0.44852 0.60252 0.0
H1019 H 0.24857 0.53698 0.60984 0.0
H1020 H 1.0244 0.47609 0.5666 0.0
H1021 H 0.16117 0.44642 0.47952 0.0
H1022 H 0.17995 0.54299 0.47228 0.0
C1023 C 0.53861 0.68817 0.59874 0.0
C1024 C 0.54381 0.71792 0.60646 0.0
N1025 N 0.57532 0.73781 0.60924 0.0
N1026 N 0.56661 0.68891 0.59667 0.0
C1027 C 0.58871 0.71953 0.60354 0.0
H1028 H 0.5158 0.66745 0.59361 0.0
Co1029 Co 0.56818 0.65392 0.57921 0.0
C1030 C 0.63519 0.67564 0.56192 0.0
O1031 O 0.62368 0.65923 0.53386 0.0
N1032 N 0.56867 0.61748 0.56163 0.0
C1033 C 0.57803 0.57702 0.55967 0.0
C1034 C 0.58311 0.60345 0.57751 0.0
C1035 C 0.55444 0.59852 0.53444 0.0
N1036 N 0.55993 0.57391 0.53252 0.0
O1037 O 0.55872 0.63417 0.62359 0.0
H1038 H 0.59643 0.61189 0.60087 0.0
H1039 H 0.5402 0.60231 0.51619 0.0
O1040 O 0.61594 0.67582 0.58445 0.0
C1041 C 0.52919 0.61322 0.62099 0.0
O1042 O 0.5146 0.61099 0.59222 0.0
N1043 N 0.57169 0.67116 0.53654 0.0
C1044 C 0.5684 0.68861 0.47099 0.0
C1045 C 0.59556 0.70725 0.4905 0.0
C1046 C 0.59627 0.69868 0.52398 0.0
C1047 C 0.5435 0.65624 0.51973 0.0
C1048 C 0.54144 0.66404 0.48639 0.0
H1049 H 0.6168 0.71369 0.53927 0.0
H1050 H 0.52287 0.63703 0.53178 0.0
H1051 H 0.61406 0.72856 0.60284 0.0
H1052 H 0.52568 0.72441 0.60982 0.0
H1053 H 0.58644 0.56096 0.56664 0.0
H1054 H 0.61624 0.72753 0.47966 0.0
H1055 H 0.5197 0.64977 0.47232 0.0
C1056 C 0.37455 0.86325 0.59882 0.0
C1057 C 0.34481 0.83866 0.60649 0.0
N1058 N 0.32487 0.85025 0.60915 0.0
N1059 N 0.37375 0.89049 0.59666 0.0
C1060 C 0.34311 0.88192 0.60344 0.0
H1061 H 0.39531 0.86121 0.59378 0.0
Co1062 Co 0.40872 0.92707 0.57922 0.0
C1063 C 0.38694 0.97233 0.56194 0.0
O1064 O 0.40336 0.97725 0.53388 0.0
N1065 N 0.44514 0.96403 0.56166 0.0
C1066 C 0.48557 1.01386 0.55971 0.0
C1067 C 0.45913 0.99249 0.57754 0.0
C1068 C 0.46411 0.96876 0.53447 0.0
N1069 N 0.4887 0.99887 0.53256 0.0
O1070 O 0.42842 0.93735 0.62361 0.0
H1071 H 0.45068 0.99737 0.60089 0.0
H1072 H 0.46035 0.95074 0.51623 0.0
O1073 O 0.38677 0.95288 0.58445 0.0
C1074 C 0.4494 0.92881 0.62103 0.0
O1075 O 0.45171 0.91651 0.59225 0.0
N1076 N 0.39152 0.91334 0.53654 0.0
C1077 C 0.37412 0.89257 0.47099 0.0
C1078 C 0.35546 0.90109 0.49048 0.0
C1079 C 0.36401 0.91038 0.52396 0.0
C1080 C 0.40646 0.90007 0.51975 0.0
C1081 C 0.39869 0.8902 0.48642 0.0
H1082 H 0.34898 0.9159 0.53923 0.0
H1083 H 0.42568 0.89867 0.53183 0.0
H1084 H 0.33402 0.8982 0.60264 0.0
H1085 H 0.33836 0.81406 0.60989 0.0
H1086 H 0.5016 0.03833 0.56668 0.0
H1087 H 0.33519 0.90148 0.47962 0.0
H1088 H 0.41298 0.88273 0.47237 0.0
C1089 C 0.20311 0.52033 0.19845 0.0
C1090 C 0.19796 0.54492 0.19078 0.0
N1091 N 0.16644 0.53335 0.18815 0.0
N1092 N 0.17507 0.4931 0.20064 0.0
C1093 C 0.153 0.50168 0.19388 0.0
H1094 H 0.22591 0.52236 0.20348 0.0
Co1095 Co 0.17346 0.45653 0.21812 0.0
C1096 C 0.10643 0.41129 0.23541 0.0
O1097 O 0.11793 0.40638 0.26348 0.0
N1098 N 0.17291 0.41957 0.23572 0.0
C1099 C 0.16351 0.36974 0.23771 0.0
C1100 C 0.15846 0.3911 0.21985 0.0
C1101 C 0.18713 0.41485 0.26293 0.0
N1102 N 0.18162 0.38474 0.26486 0.0
O1103 O 0.1829 0.44621 0.17375 0.0
H1104 H 0.14515 0.38622 0.19649 0.0
H1105 H 0.20137 0.43287 0.28117 0.0
O1106 O 0.1257 0.43071 0.21288 0.0
C1107 C 0.21241 0.45474 0.17636 0.0
O1108 O 0.227 0.46706 0.20513 0.0
N1109 N 0.16998 0.47029 0.26078 0.0
C1110 C 0.17331 0.49108 0.32632 0.0
C1111 C 0.14615 0.48257 0.30681 0.0
C1112 C 0.14541 0.47326 0.27334 0.0
C1113 C 0.19817 0.48356 0.27758 0.0
C1114 C 0.20025 0.49344 0.3109 0.0
H1115 H 0.12488 0.46774 0.25807 0.0
H1116 H 0.21878 0.48494 0.26552 0.0
H1117 H 0.12765 0.48542 0.19471 0.0
H1118 H 0.21611 0.56952 0.18736 0.0
H1119 H 0.15508 0.34527 0.23075 0.0
H1120 H 0.12548 0.48218 0.31766 0.0
H1121 H 0.222 0.50091 0.32497 0.0
C1122 C 0.54241 0.69554 0.19855 0.0
C1123 C 0.51781 0.66581 0.19087 0.0
N1124 N 0.52936 0.64584 0.1882 0.0
N1125 N 0.56962 0.6947 0.20071 0.0
C1126 C 0.56102 0.66405 0.19393 0.0
H1127 H 0.5404 0.71632 0.2036 0.0
Co1128 Co 0.6062 0.72965 0.21817 0.0
C1129 C 0.6514 0.7078 0.23545 0.0
O1130 O 0.65631 0.72421 0.26351 0.0
N1131 N 0.64316 0.76605 0.23575 0.0
C1132 C 0.69298 0.80646 0.23772 0.0
C1133 C 0.67162 0.78003 0.21988 0.0
C1134 C 0.64788 0.78502 0.26293 0.0
N1135 N 0.67798 0.8096 0.26485 0.0
O1136 O 0.61652 0.74938 0.17379 0.0
H1137 H 0.67651 0.77158 0.19654 0.0
H1138 H 0.62985 0.78126 0.28116 0.0
O1139 O 0.63198 0.70766 0.21293 0.0
C1140 C 0.60801 0.77039 0.17638 0.0
O1141 O 0.59571 0.77269 0.20516 0.0
N1142 N 0.59244 0.71243 0.26084 0.0
C1143 C 0.57167 0.69503 0.3264 0.0
C1144 C 0.58017 0.67635 0.30691 0.0
C1145 C 0.58947 0.6849 0.27343 0.0
C1146 C 0.57918 0.72738 0.27763 0.0
C1147 C 0.56931 0.71961 0.31096 0.0
H1148 H 0.59497 0.66986 0.25816 0.0
H1149 H 0.5778 0.7466 0.26555 0.0
H1150 H 0.57727 0.65493 0.19472 0.0
H1151 H 0.49323 0.6594 0.18746 0.0
H1152 H 0.71745 0.82249 0.23076 0.0
H1153 H 0.58055 0.65607 0.31778 0.0
H1154 H 0.56186 0.73391 0.32501 0.0
C1155 C 0.36726 0.85955 0.19855 0.0
C1156 C 0.397 0.86471 0.1909 0.0
N1157 N 0.41695 0.89624 0.18826 0.0
N1158 N 0.36806 0.88758 0.20074 0.0
C1159 C 0.3987 0.90967 0.19398 0.0
H1160 H 0.34649 0.83674 0.20358 0.0
Co1161 Co 0.33308 0.88918 0.21819 0.0
C1162 C 0.35487 0.95623 0.23547 0.0
O1163 O 0.33845 0.94473 0.26353 0.0
N1164 N 0.29667 0.88973 0.23576 0.0
C1165 C 0.25625 0.89915 0.2377 0.0
C1166 C 0.28268 0.90419 0.21987 0.0
C1167 C 0.2777 0.87551 0.26297 0.0
N1168 N 0.25312 0.88104 0.26486 0.0
O1169 O 0.31337 0.87976 0.1738 0.0
H1170 H 0.29113 0.91751 0.19651 0.0
H1171 H 0.28147 0.86126 0.28122 0.0
O1172 O 0.35503 0.93695 0.21295 0.0
C1173 C 0.29237 0.85024 0.1764 0.0
O1174 O 0.29009 0.83563 0.20517 0.0
N1175 N 0.35029 0.89266 0.26086 0.0
C1176 C 0.36771 0.88933 0.32641 0.0
C1177 C 0.38637 0.91649 0.30691 0.0
C1178 C 0.37782 0.91723 0.27342 0.0
C1179 C 0.33535 0.86446 0.27767 0.0
C1180 C 0.34313 0.86238 0.311 0.0
H1181 H 0.39284 0.93777 0.25815 0.0
H1182 H 0.31613 0.84385 0.26561 0.0
H1183 H 0.40779 0.93503 0.19481 0.0
H1184 H 0.40345 0.84656 0.18748 0.0
H1185 H 0.24023 0.90759 0.23072 0.0
H1186 H 0.40665 0.93716 0.31775 0.0
H1187 H 0.32883 0.84063 0.32507 0.0
C1188 C 0.21099 0.19866 0.24974 0.0
C1189 C 0.23607 0.22361 0.26748 0.0
H1190 H 0.19185 0.17899 0.20095 0.0
C1191 C 0.26103 0.24854 0.24967 0.0
H1192 H 0.19143 0.17937 0.26319 0.0
C1193 C 0.26097 0.24861 0.21452 0.0
C1194 C 0.23607 0.22365 0.1967 0.0
H1195 H 0.28026 0.26833 0.26294 0.0
H1196 H 0.28077 0.26786 0.20126 0.0
C1197 C 0.21112 0.19856 0.21442 0.0
C1198 C 0.86416 0.02535 0.21447 0.0
C1199 C 0.83909 0.02522 0.19674 0.0
H1200 H 0.88333 1.02484 0.26325 0.0
C1201 C 0.81415 0.02522 0.21456 0.0
H1202 H 0.88371 0.02559 0.20101 0.0
C1203 C 0.81422 0.02537 0.24971 0.0
C1204 C 0.83913 0.0253 0.26753 0.0
H1205 H 0.79492 0.02578 0.20129 0.0
H1206 H 0.79444 1.02484 0.26298 0.0
C1207 C 0.86406 0.02513 0.2498 0.0
C1208 C 1.03751 0.80169 0.24946 0.0
C1209 C 0.03755 0.82665 0.26726 0.0
H1210 H 1.03708 0.78193 0.20106 0.0
C1211 C 0.0377 0.85174 0.24952 0.0
H1212 H 0.03806 0.78244 0.26275 0.0
C1213 C 1.03747 0.85161 0.21419 0.0
C1214 C 0.0376 0.82665 0.19648 0.0
H1215 H 0.03798 0.87132 0.26296 0.0
H1216 H 1.03719 0.87089 0.20072 0.0
C1217 C 0.03764 0.80174 0.21431 0.0
C1218 C 0.81333 0.80166 0.71445 0.0
C1219 C 0.83836 0.82652 0.69664 0.0
H1220 H 0.79352 0.78239 0.76286 0.0
C1221 C 0.86344 0.85145 0.71439 0.0
H1222 H 0.79409 0.78188 0.70117 0.0
C1223 C 0.86328 0.85158 0.74971 0.0
C1224 C 0.83829 0.82653 0.76742 0.0
H1225 H 0.88306 0.8707 0.70094 0.0
H1226 H 0.88259 0.87112 0.76318 0.0
C1227 C 0.81335 0.80161 0.7496 0.0
C1228 C 0.26108 0.02512 0.74965 0.0
C1229 C 0.23615 0.02511 0.76747 0.0
H1230 H 0.2808 0.02552 0.70122 0.0
C1231 C 0.21108 1.02501 0.74975 0.0
H1232 H 0.28031 1.02454 0.76291 0.0
C1233 C 0.21119 0.02525 0.71442 0.0
C1234 C 0.23612 1.02508 0.69669 0.0
H1235 H 0.19153 1.02476 0.76321 0.0
H1236 H 0.19192 0.02555 0.70097 0.0
C1237 C 0.26102 1.025 0.7145 0.0
C1238 C 0.03779 0.19888 0.71435 0.0
C1239 C 0.03794 0.22398 0.69663 0.0
H1240 H 0.03831 0.1797 0.76313 0.0
C1241 C 0.0381 0.249 0.71445 0.0
H1242 H 1.03743 0.17927 0.70089 0.0
C1243 C 0.03802 0.24895 0.7496 0.0
C1244 C 0.038 0.224 0.76741 0.0
H1245 H 0.03757 0.26826 0.70119 0.0
H1246 H 0.03864 0.26877 0.76288 0.0
C1247 C 0.03807 0.19901 0.74967 0.0
C1248 C 0.87772 0.532 0.58303 0.0
C1249 C 0.90281 0.55694 0.60077 0.0
H1250 H 0.85853 0.51236 0.53425 0.0
C1251 C 0.92774 0.58189 0.58295 0.0
H1252 H 0.85817 0.5127 0.59649 0.0
C1253 C 0.92766 0.58198 0.5478 0.0
C1254 C 0.90274 0.55703 0.52998 0.0
H1255 H 0.94698 0.60167 0.59622 0.0
H1256 H 0.94744 0.60124 0.53453 0.0
C1257 C 0.87781 0.53192 0.54771 0.0
C1258 C 0.5307 0.35855 0.54769 0.0
C1259 C 0.5056 0.3584 0.52999 0.0
H1260 H 0.54992 0.35809 0.59645 0.0
C1261 C 0.48067 0.35839 0.54784 0.0
H1262 H 0.55024 0.35881 0.53421 0.0
C1263 C 0.48078 0.35856 0.58299 0.0
C1264 C 0.50571 0.35853 0.60078 0.0
H1265 H 0.46141 0.35893 0.5346 0.0
H1266 H 0.46101 0.35803 0.59629 0.0
C1267 C 0.53063 0.35836 0.58302 0.0
C1268 C 0.70428 0.185 0.58314 0.0
C1269 C 0.70413 0.15991 0.60087 0.0
H1270 H 0.70383 0.20421 0.53436 0.0
C1271 C 0.70411 0.13496 0.58305 0.0
H1272 H 0.70454 0.20456 0.5966 0.0
C1273 C 0.70429 0.13505 0.5479 0.0
C1274 C 0.70426 0.15998 0.53009 0.0
H1275 H 0.70465 0.1157 0.59632 0.0
H1276 H 0.70375 0.11526 0.53463 0.0
C1277 C 0.7041 0.18491 0.54782 0.0
C1278 C 0.53057 0.18501 0.08304 0.0
C1279 C 0.50565 0.15992 0.1008 0.0
H1280 H 0.55018 0.20419 0.03423 0.0
C1281 C 0.48072 0.13496 0.08301 0.0
H1282 H 0.54987 0.20458 0.09647 0.0
C1283 C 0.4806 0.13503 0.04786 0.0
C1284 C 0.50554 0.15995 0.03001 0.0
H1285 H 0.46094 0.11572 0.0963 0.0
H1286 H 0.46135 0.11523 0.03461 0.0
C1287 C 0.53064 0.1849 0.04771 0.0
C1288 C 0.87773 0.35833 0.08308 0.0
C1289 C 0.90281 0.35847 0.10081 0.0
H1290 H 0.85855 0.3588 0.03429 0.0
C1291 C 0.92774 0.35847 0.083 0.0
H1292 H 0.85818 0.35809 0.09653 0.0
C1293 C 0.92766 0.35829 0.04785 0.0
C1294 C 0.90276 0.35834 0.03003 0.0
H1295 H 0.94698 0.35792 0.09627 0.0
H1296 H 0.94745 0.35882 0.03458 0.0
C1297 C 0.87783 0.35852 0.04775 0.0
C1298 C 0.70436 0.53195 0.04774 0.0
C1299 C 0.70456 0.55707 0.02999 0.0
H1300 H 0.70475 0.51274 0.09653 0.0
C1301 C 0.70466 0.58207 0.04779 0.0
H1302 H 0.70404 0.51236 0.03429 0.0
C1303 C 0.70449 0.58199 0.08294 0.0
C1304 C 0.70443 0.55703 0.10078 0.0
H1305 H 0.70416 0.60134 0.03451 0.0
H1306 H 0.70506 0.60181 0.0962 0.0
C1307 C 0.70454 0.53206 0.08306 0.0
C1308 C 0.59419 0.91527 0.91633 0.0
C1309 C 0.5693 0.89034 0.9342 0.0
H1310 H 0.61379 0.93458 0.86787 0.0
C1311 C 0.54417 0.86538 0.91653 0.0
H1312 H 0.61346 0.93507 0.92956 0.0
C1313 C 0.5442 0.86527 0.8812 0.0
C1314 C 0.56909 0.89036 0.86342 0.0
H1315 H 0.52465 0.84609 0.93003 0.0
H1316 H 0.52488 0.84569 0.86779 0.0
C1317 C 0.59404 0.91533 0.88118 0.0
C1318 C 0.14747 0.69187 0.91623 0.0
C1319 C 0.17239 0.69184 0.93404 0.0
H1320 H 0.12814 0.69225 0.86782 0.0
C1321 C 0.19731 0.69167 0.9163 0.0
H1322 H 0.12768 0.69134 0.9295 0.0
C1323 C 0.19741 0.69186 0.88098 0.0
C1324 C 0.17232 0.69172 0.86326 0.0
H1325 H 0.2166 0.6914 0.92975 0.0
H1326 H 0.21696 0.69212 0.86751 0.0
C1327 C 0.14738 0.6917 0.88108 0.0
C1328 C 0.37052 0.46794 0.91627 0.0
C1329 C 0.37065 0.49295 0.93408 0.0
H1330 H 0.36999 0.44814 0.86786 0.0
C1331 C 0.37079 0.51804 0.91634 0.0
H1332 H 0.37106 0.44869 0.92955 0.0
C1333 C 0.37049 0.51788 0.88102 0.0
C1334 C 0.37057 0.4929 0.8633 0.0
H1335 H 0.37113 0.53764 0.92979 0.0
H1336 H 0.37023 0.53718 0.86755 0.0
C1337 C 0.37059 0.46797 0.88112 0.0
C1338 C 0.14734 0.46842 0.38103 0.0
C1339 C 0.1723 0.49334 0.36322 0.0
H1340 H 0.12762 0.4491 0.42945 0.0
C1341 C 0.19739 0.51827 0.38094 0.0
H1342 H 0.1281 0.44863 0.36776 0.0
C1343 C 0.19728 0.51838 0.41627 0.0
C1344 C 0.17234 0.49329 0.434 0.0
H1345 H 0.21696 0.53756 0.36748 0.0
H1346 H 0.21657 0.53793 0.42972 0.0
C1347 C 0.14741 0.46834 0.41618 0.0
C1348 C 0.54435 0.69174 0.41634 0.0
C1349 C 0.56942 0.69187 0.43408 0.0
H1350 H 0.5252 0.69224 0.36755 0.0
C1351 C 0.59438 0.69189 0.41628 0.0
H1352 H 0.52479 0.69148 0.42979 0.0
C1353 C 0.59432 0.69174 0.38113 0.0
C1354 C 0.56941 0.69179 0.3633 0.0
H1355 H 0.61361 0.69133 0.42956 0.0
H1356 H 0.61411 0.69228 0.36787 0.0
C1357 C 0.54448 0.69196 0.38102 0.0
C1358 C 0.3708 0.86524 0.38105 0.0
C1359 C 0.37095 0.89033 0.36331 0.0
H1360 H 0.37129 0.84607 0.42984 0.0
C1361 C 0.371 0.9153 0.38112 0.0
H1362 H 0.37053 0.84567 0.3676 0.0
C1363 C 0.37085 0.91524 0.41627 0.0
C1364 C 0.37088 0.89031 0.43409 0.0
H1365 H 0.37045 0.93455 0.36784 0.0
H1366 H 0.3714 0.93504 0.42953 0.0
C1367 C 0.37102 0.86536 0.41638 0.0
C1368 C 0.34131 0.34306 0.09665 0.0
C1369 C 0.33264 0.3247 0.0666 0.0
H1370 H 0.36464 0.38971 0.11901 0.0
C1371 C 0.33978 0.3405 0.03537 0.0
H1372 H 0.3358 0.33162 0.12126 0.0
C1373 C 0.35671 0.37382 0.03424 0.0
C1374 C 0.36638 0.39217 0.06428 0.0
H1375 H 0.33341 0.32717 0.01187 0.0
H1376 H 0.36265 0.38526 0.00962 0.0
C1377 C 0.3577 0.37638 0.09551 0.0
C1378 C 0.68893 0.99562 0.03422 0.0
C1379 C 0.67058 0.98691 0.06427 0.0
H1380 H 0.73557 1.01899 0.01184 0.0
C1381 C 0.68637 0.99398 0.0955 0.0
H1382 H 0.6775 0.99017 0.00961 0.0
C1383 C 0.71969 1.0109 0.09662 0.0
C1384 C 0.73804 1.02062 0.06657 0.0
H1385 H 0.67305 0.98757 0.119 0.0
H1386 H 0.73112 1.01679 0.12123 0.0
C1387 C 0.72225 1.01201 0.03534 0.0
C1388 C 0.05175 0.72137 0.09649 0.0
C1389 C 0.04202 0.73 0.06645 0.0
H1390 H 0.07513 0.6981 0.11886 0.0
C1391 C 0.05066 0.72286 0.03522 0.0
H1392 H 0.04583 0.72688 0.12111 0.0
C1393 C 0.06709 0.70597 0.03408 0.0
C1394 C 0.07582 0.69633 0.06413 0.0
H1395 H 0.04368 0.7292 0.01172 0.0
H1396 H 0.07258 0.70002 0.00947 0.0
C1397 C 0.06871 0.70501 0.09536 0.0
C1398 C 0.38612 0.34413 0.42994 0.0
C1399 C 0.40447 0.35382 0.39989 0.0
H1400 H 0.33948 0.32085 0.45232 0.0
C1401 C 0.38868 0.34517 0.36866 0.0
H1402 H 0.39755 0.35006 0.45455 0.0
C1403 C 0.35537 0.32879 0.36754 0.0
C1404 C 0.33702 0.32011 0.39759 0.0
H1405 H 0.402 0.35212 0.34516 0.0
H1406 H 0.34394 0.3233 0.34293 0.0
C1407 C 0.3528 0.32722 0.42882 0.0
C1408 C 0.73538 0.03833 0.42886 0.0
C1409 C 0.74252 0.02969 0.39762 0.0
H1410 H 0.71252 0.06022 0.45462 0.0
C1411 C 0.73387 0.0394 0.36758 0.0
H1412 H 0.74173 0.03135 0.45235 0.0
C1413 C 0.71749 0.05634 0.36872 0.0
C1414 C 0.70881 0.06345 0.39996 0.0
H1415 H 0.73938 0.03349 0.34296 0.0
H1416 H 0.71056 0.06275 0.34523 0.0
C1417 C 0.71846 0.05474 0.43 0.0
C1418 C 1.00639 0.67395 0.36856 0.0
C1419 C 0.99922 0.65818 0.3998 0.0
H1420 H 1.0293 0.7187 0.34278 0.0
C1421 C 1.00786 0.67655 0.42984 0.0
H1422 H 1.00004 0.66061 0.34507 0.0
C1423 C 1.02427 0.70987 0.42868 0.0
C1424 C 1.03298 0.72564 0.39744 0.0
H1425 H 1.00233 0.66512 0.45446 0.0
H1426 H 1.03119 0.72321 0.45217 0.0
C1427 C 1.02333 0.70727 0.36741 0.0
C1428 C 0.71874 0.67637 0.93003 0.0
C1429 C 0.70881 0.65804 0.89997 0.0
H1430 H 0.74213 0.72299 0.95246 0.0
C1431 C 0.71706 0.67387 0.86875 0.0
H1432 H 0.71311 0.66489 0.95463 0.0
C1433 C 0.73332 0.70719 0.86767 0.0
C1434 C 0.74225 0.72551 0.89775 0.0
H1435 H 0.70989 0.66057 0.84525 0.0
H1436 H 0.7385 0.71865 0.84307 0.0
C1437 C 0.73553 0.70969 0.92894 0.0
C1438 C 0.38869 0.05612 0.86873 0.0
C1439 C 0.40448 0.0633 0.89995 0.0
H1440 H 0.34394 0.0332 0.843 0.0
C1441 C 0.38613 0.05465 0.93001 0.0
H1442 H 0.40201 0.06247 0.84522 0.0
C1443 C 0.35282 0.03824 0.92889 0.0
C1444 C 0.33703 0.02952 0.89766 0.0
H1445 H 0.39757 0.06019 0.95462 0.0
H1446 H 0.3395 0.03131 0.95239 0.0
C1447 C 0.35537 0.03917 0.86761 0.0
C1448 C 1.00792 0.34408 0.92997 0.0
C1449 C 0.99931 0.35381 0.89992 0.0
H1450 H 1.03126 0.32078 0.95235 0.0
C1451 C 1.00653 0.34523 0.86869 0.0
H1452 H 1.00235 0.34994 0.95458 0.0
C1453 C 1.0235 0.32889 0.86757 0.0
C1454 C 1.03313 0.32017 0.89762 0.0
H1455 H 1.0002 0.35223 0.84519 0.0
H1456 H 1.02952 0.32346 0.84296 0.0
C1457 C 1.02436 0.32719 0.92885 0.0
C1458 C 0.71944 0.72129 0.59652 0.0
C1459 C 0.73779 0.7299 0.56647 0.0
H1460 H 0.6728 0.69802 0.6189 0.0
C1461 C 0.722 0.72275 0.53524 0.0
H1462 H 0.73087 0.72681 0.62113 0.0
C1463 C 0.68869 0.70585 0.53412 0.0
C1464 C 0.67033 0.69622 0.56417 0.0
H1465 H 0.73533 0.72908 0.51174 0.0
H1466 H 0.67726 0.69989 0.50951 0.0
C1467 C 0.68612 0.70492 0.5954 0.0
C1468 C 0.35667 0.99555 0.53415 0.0
C1469 C 0.36632 0.98684 0.5642 0.0
H1470 H 0.33338 1.0189 0.51178 0.0
C1471 C 0.35762 0.99393 0.59543 0.0
H1472 H 0.36263 0.99007 0.50954 0.0
C1473 C 0.34122 1.01085 0.59656 0.0
C1474 C 0.33257 1.02056 0.56651 0.0
H1475 H 0.36454 0.98753 0.61893 0.0
H1476 H 0.33569 1.01676 0.62117 0.0
C1477 C 0.33973 1.01193 0.53528 0.0
C1478 C 0.05065 0.34053 0.53524 0.0
C1479 C 0.04203 0.32476 0.56648 0.0
H1480 H 0.07251 0.38528 0.50947 0.0
C1481 C 0.05178 0.34313 0.59652 0.0
H1482 H 0.04365 0.3272 0.51175 0.0
C1483 C 0.06872 0.37645 0.59537 0.0
C1484 C 0.07579 0.39222 0.56413 0.0
H1485 H 0.04588 0.3317 0.62114 0.0
H1486 H 0.07515 0.38978 0.61886 0.0
C1487 C 0.06705 0.37386 0.53409 0.0
C1488 C 0.05548 0.67854 0.70194 0.0
C1489 C 0.07127 0.6872 0.73317 0.0
H1490 H 1.01073 0.65665 0.67621 0.0
C1491 C 0.05292 0.6775 0.76322 0.0
H1492 H 0.0688 0.6855 0.67844 0.0
C1493 C 1.01961 0.66056 0.7621 0.0
C1494 C 1.00382 0.65345 0.73088 0.0
H1495 H 0.06436 0.68343 0.78783 0.0
H1496 H 1.00629 0.65417 0.78561 0.0
C1497 C 1.02217 0.66214 0.70082 0.0
C1498 C 0.38503 0.38799 0.76316 0.0
C1499 C 0.37537 0.39667 0.7331 0.0
H1500 H 0.40836 0.36468 0.78556 0.0
C1501 C 0.38409 0.38959 0.70188 0.0
H1502 H 0.37905 0.39346 0.78777 0.0
C1503 C 0.40053 0.3727 0.70077 0.0
C1504 C 0.40919 0.36302 0.73083 0.0
H1505 H 0.37716 0.39597 0.67837 0.0
H1506 H 0.40607 0.3668 0.67616 0.0
C1507 C 0.402 0.37164 0.76205 0.0
C1508 C 0.67435 1.00973 0.76341 0.0
C1509 C 0.66575 0.99136 0.73338 0.0
H1510 H 0.69766 0.05639 0.78574 0.0
C1511 C 0.67299 1.00713 0.70213 0.0
H1512 H 0.66876 0.99831 0.78803 0.0
C1513 C 0.68996 0.04046 0.70098 0.0
C1514 C 0.69956 0.05883 0.73101 0.0
H1515 H 0.66668 0.99379 0.67864 0.0
H1516 H 0.69598 0.05188 0.67636 0.0
C1517 C 0.69078 0.04306 0.76225 0.0
C1518 C 0.40058 0.0405 0.20087 0.0
C1519 C 0.40925 0.05884 0.23092 0.0
H1520 H 0.37724 0.99386 0.17848 0.0
C1521 C 0.40211 0.04304 0.26215 0.0
H1522 H 0.4061 0.05194 0.17626 0.0
C1523 C 0.38517 1.00971 0.26327 0.0
C1524 C 0.3755 0.99137 0.23321 0.0
H1525 H 0.40848 0.05635 0.28565 0.0
H1526 H 0.37922 0.99827 0.28787 0.0
C1527 C 0.38418 1.00717 0.20199 0.0
C1528 C 1.01965 0.37174 0.26213 0.0
C1529 C 1.00384 0.36306 0.23091 0.0
H1530 H 0.06441 0.39365 0.28784 0.0
C1531 C 1.02218 0.37272 0.20085 0.0
H1532 H 1.00634 0.36482 0.28564 0.0
C1533 C 0.05549 0.38964 0.20195 0.0
C1534 C 0.0713 0.39678 0.23317 0.0
H1535 H 1.01073 0.36676 0.17624 0.0
H1536 H 0.0688 0.39599 0.17844 0.0
C1537 C 0.05296 0.38813 0.26323 0.0
C1538 C 0.6745 0.67742 0.26325 0.0
C1539 C 0.6659 0.68716 0.23319 0.0
H1540 H 0.69777 0.65407 0.28565 0.0
C1541 C 0.6731 0.67856 0.20197 0.0
H1542 H 0.66894 0.68331 0.28786 0.0
C1543 C 0.69003 0.66217 0.20086 0.0
C1544 C 0.69963 0.65343 0.23092 0.0
H1545 H 0.66679 0.68556 0.17846 0.0
H1546 H 0.69602 0.65671 0.17625 0.0
C1547 C 0.69089 0.66049 0.26214 0.0
C1548 C 0.33837 0.17501 0.14214 0.0
C1549 C 0.35791 0.20294 0.12381 0.0
H1550 H 0.33553 0.14218 0.18002 0.0
C1551 C 0.39066 0.21956 0.13081 0.0
H1552 H 0.31316 0.16127 0.13709 0.0
C1553 C 0.40353 0.20856 0.15548 0.0
C1554 C 0.38398 0.18063 0.17381 0.0
H1555 H 0.40636 0.2414 0.1176 0.0
H1556 H 0.42874 0.22231 0.16053 0.0
C1557 C 0.35123 0.16402 0.16682 0.0
C1558 C 0.89867 0.19988 0.16683 0.0
C1559 C 0.88206 0.21602 0.17383 0.0
H1560 H 0.90142 0.16454 0.1371 0.0
C1561 C 0.85414 0.20765 0.1555 0.0
H1562 H 0.9205 0.206 0.18003 0.0
C1563 C 0.84315 0.1838 0.13083 0.0
C1564 C 0.85976 0.16765 0.12382 0.0
H1565 H 0.84041 0.21914 0.16055 0.0
H1566 H 0.82132 0.17767 0.11762 0.0
C1567 C 0.88768 0.17602 0.14216 0.0
C1568 C 0.88669 0.72424 0.14227 0.0
C1569 C 0.89505 0.70468 0.12393 0.0
H1570 H 0.85671 0.72709 0.18015 0.0
C1571 C 0.87892 0.67193 0.13095 0.0
H1572 H 0.89816 0.74946 0.1372 0.0
C1573 C 0.85507 0.65907 0.15563 0.0
C1574 C 0.84669 0.67862 0.17396 0.0
H1575 H 0.88504 0.65621 0.11775 0.0
H1576 H 0.84359 0.63385 0.1607 0.0
C1577 C 0.86284 0.71138 0.16695 0.0
C1578 C 0.22093 0.39103 0.3087 0.0
C1579 C 0.19302 0.37149 0.29035 0.0
H1580 H 0.25373 0.39386 0.34659 0.0
C1581 C 0.1764 0.33873 0.29735 0.0
H1582 H 0.23467 0.41625 0.30365 0.0
C1583 C 0.18738 0.32585 0.32203 0.0
C1584 C 0.21529 0.3454 0.34038 0.0
H1585 H 0.15457 0.32302 0.28414 0.0
H1586 H 0.17364 0.30063 0.32709 0.0
C1587 C 0.2319 0.37816 0.33338 0.0
C1588 C 0.68453 0.86653 0.3333 0.0
C1589 C 0.71728 0.88266 0.34032 0.0
H1590 H 0.64646 0.83119 0.30358 0.0
C1591 C 0.73682 0.87428 0.322 0.0
H1592 H 0.66882 0.87266 0.34649 0.0
C1593 C 0.72397 0.85041 0.29733 0.0
C1594 C 0.69122 0.83427 0.29032 0.0
H1595 H 0.76204 0.88575 0.32706 0.0
H1596 H 0.73968 0.84428 0.28414 0.0
C1597 C 0.67167 0.84267 0.30864 0.0
C1598 C 0.21231 0.88627 0.29729 0.0
C1599 C 0.22845 0.86965 0.29034 0.0
H1600 H 0.17696 0.88904 0.32696 0.0
C1601 C 0.22006 0.84173 0.30871 0.0
H1602 H 0.21845 0.9081 0.28406 0.0
C1603 C 0.19619 0.83076 0.33337 0.0
C1604 C 0.18004 0.84738 0.34031 0.0
H1605 H 0.23154 0.82798 0.3037 0.0
H1606 H 0.19005 0.80893 0.3466 0.0
C1607 C 0.18843 0.8753 0.32195 0.0
C1608 C 0.73653 0.87541 0.82274 0.0
C1609 C 0.71699 0.84752 0.84113 0.0
H1610 H 0.73938 0.90817 0.78478 0.0
C1611 C 0.68423 0.83093 0.8342 0.0
H1612 H 0.76176 0.88914 0.82775 0.0
C1613 C 0.67136 0.84189 0.80949 0.0
C1614 C 0.69091 0.86976 0.79106 0.0
H1615 H 0.66853 0.80913 0.84746 0.0
H1616 H 0.64614 0.82816 0.80447 0.0
C1617 C 0.72367 0.88637 0.79804 0.0
C1618 C 0.18733 0.87419 0.8221 0.0
C1619 C 0.21522 0.88253 0.84047 0.0
H1620 H 0.15455 0.84425 0.78418 0.0
C1621 C 0.23182 0.86637 0.83349 0.0
H1622 H 0.1736 0.88568 0.82714 0.0
C1623 C 0.22086 0.84253 0.8088 0.0
C1624 C 0.19297 0.83419 0.79042 0.0
H1625 H 0.25363 0.87247 0.84673 0.0
H1626 H 0.23459 0.83105 0.80376 0.0
C1627 C 0.17636 0.85035 0.79741 0.0
C1628 C 0.17451 0.33243 0.80763 0.0
C1629 C 0.18016 0.34538 0.8405 0.0
H1630 H 0.1929 0.33496 0.75771 0.0
C1631 C 0.21021 0.37151 0.84793 0.0
H1632 H 0.15152 0.31268 0.8008 0.0
C1633 C 0.23398 0.38433 0.82316 0.0
C1634 C 0.22833 0.37138 0.79028 0.0
H1635 H 0.2156 0.38181 0.87307 0.0
H1636 H 0.25697 0.40409 0.82998 0.0
C1637 C 0.19828 0.34525 0.78286 0.0
C1638 C 0.89854 0.7114 0.6668 0.0
C1639 C 0.88196 0.67863 0.67378 0.0
H1640 H 0.90123 0.74948 0.63711 0.0
C1641 C 0.85405 0.65907 0.65545 0.0
H1642 H 0.92036 0.72712 0.68001 0.0
C1643 C 0.84303 0.67193 0.63079 0.0
C1644 C 0.85961 0.70469 0.62381 0.0
H1645 H 0.84034 0.63384 0.66048 0.0
H1646 H 0.82121 0.65621 0.61758 0.0
C1647 C 0.88752 0.72426 0.64215 0.0
C1648 C 0.4035 0.20764 0.65532 0.0
C1649 C 0.38397 0.21602 0.67366 0.0
H1650 H 0.40633 0.17765 0.61744 0.0
C1651 C 0.35121 0.19989 0.66667 0.0
H1652 H 0.42872 0.21912 0.66036 0.0
C1653 C 0.33834 0.17603 0.64201 0.0
C1654 C 0.35788 0.16764 0.62367 0.0
H1655 H 0.33551 0.20602 0.67988 0.0
H1656 H 0.31313 0.16455 0.63696 0.0
C1657 C 0.39063 0.18378 0.63065 0.0
C1658 C 0.87885 0.21959 0.63083 0.0
C1659 C 0.89502 0.20299 0.62385 0.0
H1660 H 0.84348 0.22231 0.66052 0.0
C1661 C 0.88665 0.17507 0.6422 0.0
H1662 H 0.88497 0.24142 0.61762 0.0
C1663 C 0.86278 0.16406 0.66686 0.0
C1664 C 0.84661 0.18066 0.67383 0.0
H1665 H 0.89815 0.16134 0.63716 0.0
H1666 H 0.85666 0.14223 0.68007 0.0
C1667 C 0.85498 0.20858 0.65549 0.0
C1668 C 0.0573 0.55303 0.46404 0.0
C1669 C 1.02455 0.53642 0.45705 0.0
H1670 H 0.09538 0.55575 0.49374 0.0
C1671 C 1.005 0.50849 0.47538 0.0
H1672 H 0.07301 0.57487 0.45084 0.0
C1673 C 1.01787 0.49748 0.50003 0.0
C1674 C 0.05062 0.51408 0.50702 0.0
H1675 H 0.97979 0.49475 0.47034 0.0
H1676 H 1.00216 0.47564 0.51323 0.0
C1677 C 0.07017 0.54202 0.48869 0.0
C1678 C 0.56511 0.5331 0.50004 0.0
C1679 C 0.54851 0.54925 0.50704 0.0
H1680 H 0.56786 0.49775 0.47032 0.0
C1681 C 0.52059 0.54088 0.48871 0.0
H1682 H 0.58694 0.53922 0.51325 0.0
C1683 C 0.5096 0.51702 0.46404 0.0
C1684 C 0.5262 0.50087 0.45704 0.0
H1685 H 0.50686 0.55237 0.49376 0.0
H1686 H 0.48777 0.5109 0.45084 0.0
C1687 C 0.55412 0.50924 0.47537 0.0
C1688 C 0.54564 1.00545 0.46411 0.0
C1689 C 0.56179 0.03821 0.45713 0.0
H1690 H 0.51028 0.96735 0.49381 0.0
C1691 C 0.55341 0.05776 0.47546 0.0
H1692 H 0.55177 0.98974 0.45091 0.0
C1693 C 0.52954 0.04488 0.50011 0.0
C1694 C 0.51338 1.01212 0.5071 0.0
H1695 H 0.5649 0.08298 0.47042 0.0
H1696 H 0.5234 0.06059 0.51332 0.0
C1697 C 0.52177 0.99257 0.48877 0.0
C1698 C 0.52078 0.99255 -0.01114 0.0
C1699 C 0.54872 1.01213 0.00715 0.0
H1700 H 0.48791 0.98966 0.95103 0.0
C1701 C 0.5653 0.04488 0.00012 0.0
H1702 H 0.50707 0.96733 -0.00606 0.0
C1703 C 0.55427 0.05772 0.97546 0.0
C1704 C 0.52633 0.03814 0.95717 0.0
H1705 H 0.58715 0.06061 0.0133 0.0
H1706 H 0.56799 0.08294 0.97039 0.0
C1707 C 0.50975 1.00539 0.9642 0.0
C1708 C 0.05732 0.51702 0.96407 0.0
C1709 C 1.02457 0.50087 0.95707 0.0
H1710 H 0.09539 0.55239 -0.00623 0.0
C1711 C 1.00502 0.50926 0.97538 0.0
H1712 H 0.07302 0.51088 0.95088 0.0
C1713 C 1.01788 0.53314 3e-05 0.0
C1714 C 0.05063 0.54929 0.00703 0.0
H1715 H 0.97981 0.49778 0.97033 0.0
H1716 H 1.00217 0.53928 0.01321 0.0
C1717 C 0.07018 0.5409 -0.01128 0.0
C1718 C 0.52962 0.4974 0.00024 0.0
C1719 C 0.51347 0.51401 0.00721 0.0
H1720 H 0.56499 0.49466 0.97056 0.0
C1721 C 0.52187 0.54195 -0.01111 0.0
H1722 H 0.52348 0.47555 0.01344 0.0
C1723 C 0.54576 0.55296 0.96425 0.0
C1724 C 0.5619 0.53634 0.95726 0.0
H1725 H 0.51039 0.55569 -0.00607 0.0
H1726 H 0.5519 0.5748 0.95105 0.0
C1727 C 0.55351 0.5084 0.9756 0.0
C1728 C 0.28347 0.1182 0.97299 0.0
C1729 C 0.25702 0.10442 0.95135 0.0
H1730 H 0.31082 0.15585 0.00809 0.0
C1731 C 0.24268 0.12243 0.94234 0.0
H1732 H 0.29499 0.10499 0.98045 0.0
C1733 C 0.25218 0.1519 0.95765 0.0
C1734 C 0.27617 0.16386 -0.01773 0.0
H1735 H 0.22258 0.11271 0.92523 0.0
H1736 H 0.23843 0.16349 0.95302 0.0
C1737 C 0.29277 0.14753 -0.01149 0.0
C1738 C 0.91525 0.15794 -0.01148 0.0
C1739 C 0.89893 0.12501 -0.01771 0.0
H1740 H 0.95776 0.2027 0.98046 0.0
C1741 C 0.91092 0.11298 0.95769 0.0
H1742 H 0.90691 0.16767 0.00809 0.0
C1743 C 0.94038 0.13294 0.94239 0.0
C1744 C 0.95838 0.1653 0.95138 0.0
H1745 H 0.89934 0.08764 0.95307 0.0
H1746 H 0.95012 0.12256 0.92529 0.0
C1747 C 0.94457 0.17797 0.973 0.0
C1748 C 0.90448 0.76973 -0.01133 0.0
C1749 C 0.93738 0.78621 -0.01773 0.0
H1750 H 0.85977 0.76759 0.98069 0.0
C1751 C 0.94935 0.81003 0.95745 0.0
H1752 H 0.89479 0.7518 0.00839 0.0
C1753 C 0.9294 0.81951 0.9421 0.0
C1754 C 0.89709 0.80532 0.95126 0.0
H1755 H 0.97467 0.82369 0.95268 0.0
H1756 H 0.93974 0.8395 0.92483 0.0
C1757 C 0.88445 0.779 0.9731 0.0
C1758 C 0.16413 0.23957 0.50649 0.0
C1759 C 0.17616 0.26359 0.48188 0.0
H1760 H 0.1249 0.20999 0.53887 0.0
C1761 C 0.15989 0.28024 0.47563 0.0
H1762 H 0.17567 0.22578 0.51112 0.0
C1763 C 0.13056 0.27099 0.49114 0.0
C1764 C 0.11671 0.24451 0.51276 0.0
H1765 H 0.16825 0.29832 0.45606 0.0
H1766 H 0.1174 0.28255 0.48367 0.0
C1767 C 0.13467 0.2301 0.52177 0.0
C1768 C 0.78233 0.89231 0.47555 0.0
C1769 C 0.79893 0.92523 0.48186 0.0
H1770 H 0.78005 0.84752 0.48355 0.0
C1771 C 0.82287 0.93719 0.50654 0.0
H1772 H 0.76431 0.88263 0.45592 0.0
C1773 C 0.83232 0.91719 0.52183 0.0
C1774 C 0.81798 0.88485 0.51277 0.0
H1775 H 0.83662 0.96253 0.51122 0.0
H1776 H 0.85238 0.92752 0.53899 0.0
C1777 C 0.79157 0.87223 0.49107 0.0
C1778 C 0.17017 0.90277 0.47546 0.0
C1779 C 0.13725 0.88648 0.48175 0.0
H1780 H 0.21496 0.94524 0.48351 0.0
C1781 C 0.12529 0.89846 0.50644 0.0
H1782 H 0.17985 0.89444 0.45583 0.0
C1783 C 0.1453 0.92789 0.52177 0.0
C1784 C 0.17764 0.94587 0.51272 0.0
H1785 H 0.09996 0.8869 0.51111 0.0
H1786 H 0.13497 0.93763 0.53893 0.0
C1787 C 0.19025 0.93207 0.49101 0.0
C1788 C 0.79174 0.93191 -0.00838 0.0
C1789 C 0.81835 0.9459 0.01303 0.0
H1790 H 0.76426 0.89407 0.95676 0.0
C1791 C 0.83289 0.92804 0.02193 0.0
H1792 H 0.78007 0.94499 -0.01576 0.0
C1793 C 0.82341 0.89855 0.00673 0.0
C1794 C 0.79924 0.88637 -0.01769 0.0
H1795 H 0.85312 0.93792 0.03887 0.0
H1796 H 0.8373 0.88709 0.01125 0.0
C1797 C 0.78246 0.90254 0.9762 0.0
C1798 C 0.13443 0.91729 0.0216 0.0
C1799 C 0.11656 0.88491 0.01264 0.0
H1800 H 0.1754 0.96265 0.01099 0.0
C1801 C 0.13052 0.8723 -0.00885 0.0
H1802 H 0.12456 0.92762 0.03859 0.0
C1803 C 0.15988 0.8924 0.97572 0.0
C1804 C 0.17608 0.92533 0.98192 0.0
H1805 H 0.11742 0.84756 -0.01628 0.0
H1806 H 0.16834 0.8827 0.95624 0.0
C1807 C 0.16393 0.93731 0.00641 0.0
C1808 C 0.14538 0.23008 0.02187 0.0
C1809 C 0.17774 0.24451 0.01287 0.0
H1810 H 0.10005 0.22574 0.01122 0.0
C1811 C 0.19037 0.27102 -0.0087 0.0
H1812 H 0.13505 0.20994 0.03894 0.0
C1813 C 0.1703 0.28029 0.97581 0.0
C1814 C 0.13737 0.2636 0.98204 0.0
H1815 H 0.2151 0.28261 -0.01616 0.0
H1816 H 0.18001 0.29839 0.95627 0.0
C1817 C 0.12539 0.23956 0.00661 0.0
C1818 C 0.91523 0.77005 0.48872 0.0
C1819 C 0.89883 0.78658 0.48241 0.0
H1820 H 0.95777 0.76787 0.48063 0.0
C1821 C 0.91073 0.8105 0.4577 0.0
H1822 H 0.90696 0.75205 0.50836 0.0
C1823 C 0.94017 0.82 0.44235 0.0
C1824 C 0.95823 0.80572 0.45138 0.0
H1825 H 0.89909 0.8242 0.45302 0.0
H1826 H 0.94983 0.84005 0.42515 0.0
C1827 C 0.94453 0.77934 0.47314 0.0
C1828 C 0.25198 0.11287 0.45765 0.0
C1829 C 0.27602 0.12489 0.48222 0.0
H1830 H 0.22236 0.12248 0.4253 0.0
C1831 C 0.29267 0.15782 0.48843 0.0
H1832 H 0.2382 0.08752 0.45305 0.0
C1833 C 0.28338 0.17787 0.47292 0.0
C1834 C 0.25688 0.16521 0.45134 0.0
H1835 H 0.31075 0.16755 0.50797 0.0
H1836 H 0.29494 0.2026 0.48037 0.0
C1837 C 0.24249 0.13284 0.44236 0.0
C1838 C 0.94966 0.1518 0.45778 0.0
C1839 C 0.93765 0.1638 0.48238 0.0
H1840 H 0.94006 0.11258 0.42539 0.0
C1841 C 0.90473 0.14751 0.48862 0.0
H1842 H 0.975 0.16337 0.45315 0.0
C1843 C 0.88469 0.11818 0.4731 0.0
C1844 C 0.89734 0.10436 0.45148 0.0
H1845 H 0.89501 0.15586 0.50819 0.0
H1846 H 0.85996 0.105 0.48056 0.0
C1847 C 0.9297 0.12234 0.44248 0.0
C1848 C 0.91881 0.48532 0.29095 0.0
C1849 C 0.94284 0.49734 0.31554 0.0
H1850 H 0.88921 0.44608 0.2586 0.0
C1851 C 0.95949 0.48107 0.32175 0.0
H1852 H 0.90503 0.49687 0.28635 0.0
C1853 C 0.95022 0.45173 0.30625 0.0
C1854 C 0.92373 0.43789 0.28466 0.0
H1855 H 0.97758 0.48943 0.3413 0.0
H1856 H 0.96179 0.43857 0.3137 0.0
C1857 C 0.90933 0.45585 0.27567 0.0
C1858 C 0.60675 0.46613 0.27562 0.0
C1859 C 0.62473 0.49849 0.28463 0.0
H1860 H 0.56572 0.42082 0.28627 0.0
C1861 C 0.61091 0.51114 0.30626 0.0
H1862 H 0.6165 0.45577 0.25852 0.0
C1863 C 0.58158 0.49109 0.32177 0.0
C1864 C 0.56528 0.45816 0.31552 0.0
H1865 H 0.6241 0.53587 0.31373 0.0
H1866 H 0.57324 0.50082 0.34134 0.0
C1867 C 0.57728 0.44616 0.2909 0.0
C1868 C 0.55154 0.11256 0.30634 0.0
C1869 C 0.56416 0.13904 0.28471 0.0
H1870 H 0.5619 0.08525 0.34143 0.0
C1871 C 0.59652 0.15344 0.27571 0.0
H1872 H 0.52682 0.101 0.3138 0.0
C1873 C 0.61652 0.14399 0.291 0.0
C1874 C 0.60453 0.11998 0.31562 0.0
H1875 H 0.60686 0.17356 0.2586 0.0
H1876 H 0.64185 0.15779 0.28638 0.0
C1877 C 0.57161 0.10331 0.32186 0.0
C1878 C 0.83091 0.57277 0.83981 0.0
C1879 C 0.84299 0.59683 0.81525 0.0
H1880 H 0.79164 0.54317 0.87213 0.0
C1881 C 0.82676 0.61354 0.80903 0.0
H1882 H 0.84242 0.55895 0.84441 0.0
C1883 C 0.79742 0.60429 0.82452 0.0
C1884 C 0.78353 0.57777 0.84609 0.0
H1885 H 0.83516 0.63164 0.7895 0.0
H1886 H 0.7843 0.61589 0.81708 0.0
C1887 C 0.80145 0.56332 0.85507 0.0
C1888 C 0.45822 0.20566 0.82449 0.0
C1889 C 0.48468 0.21827 0.84612 0.0
H1890 H 0.43093 0.21605 0.7894 0.0
C1891 C 0.49909 0.25063 0.85513 0.0
H1892 H 0.44665 0.18093 0.81702 0.0
C1893 C 0.48965 0.27065 0.83984 0.0
C1894 C 0.46565 0.25867 0.81522 0.0
H1895 H 0.51919 0.26096 0.87223 0.0
H1896 H 0.50345 0.29598 0.84447 0.0
C1897 C 0.44898 0.22575 0.80898 0.0
C1898 C 0.81198 0.26118 0.85521 0.0
C1899 C 0.84433 0.2791 0.84617 0.0
H1900 H 0.76662 0.22021 0.8446 0.0
C1901 C 0.85691 0.26523 0.82453 0.0
H1902 H 0.80168 0.27098 0.87233 0.0
C1903 C 0.8368 0.2359 0.80903 0.0
C1904 C 0.80389 0.21967 0.81531 0.0
H1905 H 0.88163 0.27836 0.81704 0.0
H1906 H 0.84648 0.22752 0.78945 0.0
C1907 C 0.79195 0.23172 0.83994 0.0
C1908 C 0.44903 0.23589 0.30906 0.0
C1909 C 0.46571 0.21964 0.31531 0.0
H1910 H 0.44667 0.27836 0.31708 0.0
C1911 C 0.48972 0.2317 0.33992 0.0
H1912 H 0.43096 0.2275 0.2895 0.0
C1913 C 0.49916 0.26116 0.35519 0.0
C1914 C 0.48473 0.27909 0.34617 0.0
H1915 H 0.50353 0.22018 0.34454 0.0
H1916 H 0.51927 0.27096 0.37227 0.0
C1917 C 0.45825 0.26522 0.32456 0.0
C1918 C 0.82676 0.22587 0.30909 0.0
C1919 C 0.84303 0.2588 0.31533 0.0
H1920 H 0.78428 0.18107 0.31712 0.0
C1921 C 0.83099 0.27078 0.33993 0.0
H1922 H 0.83514 0.21616 0.28952 0.0
C1923 C 0.80153 0.25078 0.35521 0.0
C1924 C 0.78358 0.21842 0.3462 0.0
H1925 H 0.84253 0.29612 0.34455 0.0
H1926 H 0.79175 0.26113 0.3723 0.0
C1927 C 0.79744 0.20579 0.32459 0.0
C1928 C 0.8568 0.60433 0.32467 0.0
C1929 C 0.84422 0.57779 0.3462 0.0
H1930 H 0.84637 0.63168 0.28969 0.0
C1931 C 0.81184 0.56328 0.35518 0.0
H1932 H 0.88153 0.61597 0.31723 0.0
C1933 C 0.79181 0.57271 0.33994 0.0
C1934 C 0.80376 0.59679 0.31541 0.0
H1935 H 0.80153 0.54311 0.37221 0.0
H1936 H 0.76647 0.55883 0.34453 0.0
C1937 C 0.83669 0.61355 0.30921 0.0
C1938 C 0.61095 0.11247 0.80636 0.0
C1939 C 0.6248 0.13897 0.78476 0.0
H1940 H 0.57326 0.0851 0.84141 0.0
C1941 C 0.60683 0.15337 0.77576 0.0
H1942 H 0.62412 0.10091 0.81381 0.0
C1943 C 0.57736 0.14387 0.79104 0.0
C1944 C 0.56534 0.11984 0.81562 0.0
H1945 H 0.6166 0.1735 0.75868 0.0
H1946 H 0.56582 0.15767 0.78642 0.0
C1947 C 0.58162 0.10319 0.82185 0.0
C1948 C 0.90938 0.46615 0.77564 0.0
C1949 C 0.92375 0.49851 0.78466 0.0
H1950 H 0.90509 0.42084 0.78631 0.0
C1951 C 0.9502 0.51116 0.8063 0.0
H1952 H 0.88929 0.4558 0.75853 0.0
C1953 C 0.95947 0.4911 0.82182 0.0
C1954 C 0.94285 0.45817 0.81557 0.0
H1955 H 0.96173 0.53588 0.81377 0.0
H1956 H 0.97752 0.50082 0.8414 0.0
C1957 C 0.91886 0.44617 0.79094 0.0
C1958 C 0.55145 0.45158 0.80644 0.0
C1959 C 0.56407 0.43777 0.78476 0.0
H1960 H 0.56181 0.48922 0.84159 0.0
C1961 C 0.59642 0.45576 0.77573 0.0
H1962 H 0.52673 0.43839 0.81393 0.0
C1963 C 0.61641 0.48521 0.79104 0.0
C1964 C 0.60443 0.49719 0.8157 0.0
H1965 H 0.60676 0.44601 0.75859 0.0
H1966 H 0.64174 0.49677 0.78638 0.0
C1967 C 0.57151 0.48089 0.82198 0.0
C1968 C 0.58552 0.8186 0.62446 0.0
C1969 C 0.60943 0.8305 0.64918 0.0
H1970 H 0.556 0.77949 0.59192 0.0
C1971 C 0.62598 0.81413 0.65546 0.0
H1972 H 0.57181 0.83023 0.6198 0.0
C1973 C 0.61672 0.78483 0.63988 0.0
C1974 C 0.59034 0.77111 0.61814 0.0
H1975 H 0.64397 0.8224 0.6751 0.0
H1976 H 0.6282 0.77159 0.64737 0.0
C1977 C 0.57605 0.78917 0.6091 0.0
C1978 C 0.27359 0.79956 0.60894 0.0
C1979 C 0.29156 0.83192 0.61795 0.0
H1980 H 0.23257 0.75423 0.61959 0.0
C1981 C 0.27772 0.84456 0.63958 0.0
H1982 H 0.28335 0.78921 0.59184 0.0
C1983 C 0.24839 0.8245 0.65508 0.0
C1984 C 0.23211 0.79157 0.64883 0.0
H1985 H 0.29089 0.86928 0.64704 0.0
H1986 H 0.24004 0.83421 0.67465 0.0
C1987 C 0.24412 0.77957 0.62422 0.0
C1988 C 0.21805 0.44579 0.63944 0.0
C1989 C 0.23071 0.47229 0.61785 0.0
H1990 H 0.22836 0.4184 0.67449 0.0
C1991 C 0.26307 0.48669 0.60887 0.0
H1992 H 0.19332 0.43423 0.64688 0.0
C1993 C 0.28304 0.47719 0.62416 0.0
C1994 C 0.27102 0.45315 0.64874 0.0
H1995 H 0.27343 0.50683 0.5918 0.0
H1996 H 0.30837 0.49098 0.61955 0.0
C1997 C 0.23809 0.4365 0.65494 0.0
C1998 C 0.49349 0.94704 0.14246 0.0
C1999 C 0.50976 0.93039 0.14869 0.0
H2000 H 0.45098 0.94932 0.15047 0.0
C2001 C 0.4977 0.90633 0.17326 0.0
H2002 H 0.50187 0.96515 0.12292 0.0
C2003 C 0.46822 0.89683 0.1885 0.0
C2004 C 0.45027 0.91124 0.1795 0.0
H2005 H 0.50925 0.89253 0.17787 0.0
H2006 H 0.45844 0.87668 0.20556 0.0
C2007 C 0.46414 0.93775 0.15793 0.0
C2008 C 0.11572 0.55913 0.14227 0.0
C2009 C 0.13237 0.59206 0.14851 0.0
H2010 H 0.11342 0.51433 0.1503 0.0
C2011 C 0.15638 0.60405 0.17311 0.0
H2012 H 0.09765 0.54943 0.12271 0.0
C2013 C 0.16586 0.58405 0.18838 0.0
C2014 C 0.15146 0.55169 0.17937 0.0
H2015 H 0.17017 0.62939 0.17773 0.0
H2016 H 0.18597 0.5944 0.20547 0.0
C2017 C 0.12498 0.53906 0.15777 0.0
C2018 C 0.50353 0.56935 0.14223 0.0
C2019 C 0.47061 0.55309 0.1485 0.0
H2020 H 0.54833 0.61183 0.15026 0.0
C2021 C 0.45864 0.56512 0.17313 0.0
H2022 H 0.51321 0.56099 0.12265 0.0
C2023 C 0.47865 0.59457 0.18841 0.0
C2024 C 0.511 0.61252 0.17939 0.0
H2025 H 0.43331 0.55358 0.17777 0.0
H2026 H 0.46833 0.60435 0.20553 0.0
C2027 C 0.52361 0.59867 0.15774 0.0
C2028 C 0.16587 0.59452 0.68839 0.0
C2029 C 0.15146 0.61248 0.67939 0.0
H2030 H 0.1702 0.55352 0.67772 0.0
C2031 C 0.12498 0.59863 0.65778 0.0
H2032 H 0.18598 0.6043 0.70547 0.0
C2033 C 0.11573 0.5693 0.64228 0.0
C2034 C 0.13239 0.55303 0.64851 0.0
H2035 H 0.11342 0.6118 0.65032 0.0
H2036 H 0.09766 0.56094 0.62272 0.0
C2037 C 0.1564 0.56506 0.67311 0.0
C2038 C 0.46387 0.53899 0.65775 0.0
C2039 C 0.45001 0.55161 0.67937 0.0
H2040 H 0.50157 0.54939 0.62268 0.0
C2041 C 0.46795 0.58397 0.68839 0.0
H2042 H 0.45072 0.51427 0.65028 0.0
C2043 C 0.49741 0.60398 0.67312 0.0
C2044 C 0.50946 0.59201 0.64851 0.0
H2045 H 0.45817 0.5943 0.70549 0.0
H2046 H 0.50894 0.62931 0.67776 0.0
C2047 C 0.4932 0.55908 0.64226 0.0
C2048 C 0.45851 0.90612 0.6731 0.0
C2049 C 0.47053 0.93024 0.6486 0.0
H2050 H 0.46813 0.87644 0.70536 0.0
C2051 C 0.50347 0.94696 0.64245 0.0
H2052 H 0.43317 0.89228 0.67764 0.0
C2053 C 0.52353 0.93767 0.65794 0.0
C2054 C 0.51087 0.91111 0.67944 0.0
H2055 H 0.5132 0.96511 0.62296 0.0
H2056 H 0.54827 0.9493 0.65055 0.0
C2057 C 0.47849 0.89663 0.68836 0.0
C2058 C 0.24412 0.47722 0.12418 0.0
C2059 C 0.23213 0.45325 0.14883 0.0
H2060 H 0.28332 0.50678 0.09174 0.0
C2061 C 0.24843 0.43663 0.15511 0.0
H2062 H 0.23255 0.49099 0.11952 0.0
C2063 C 0.27775 0.44589 0.13959 0.0
C2064 C 0.29156 0.47233 0.11792 0.0
H2065 H 0.24009 0.41858 0.17471 0.0
H2066 H 0.29093 0.43435 0.14709 0.0
C2067 C 0.27358 0.48669 0.10888 0.0
C2068 C 0.62616 0.8245 0.15505 0.0
C2069 C 0.60948 0.79157 0.14882 0.0
H2070 H 0.62849 0.86931 0.14703 0.0
C2071 C 0.58544 0.77959 0.12425 0.0
H2072 H 0.64426 0.8342 0.17459 0.0
C2073 C 0.57598 0.7996 0.109 0.0
C2074 C 0.59041 0.83196 0.118 0.0
H2075 H 0.57163 0.75425 0.11964 0.0
H2076 H 0.55584 0.78926 0.09194 0.0
C2077 C 0.61691 0.84458 0.13957 0.0
C2078 C 0.23826 0.81427 0.15514 0.0
C2079 C 0.27118 0.83054 0.14886 0.0
H2080 H 0.19346 0.77179 0.1471 0.0
C2081 C 0.28314 0.81852 0.12421 0.0
H2082 H 0.22858 0.82262 0.17474 0.0
C2083 C 0.26314 0.78907 0.10891 0.0
C2084 C 0.23079 0.77112 0.11795 0.0
H2085 H 0.30847 0.83007 0.11956 0.0
H2086 H 0.27346 0.77931 0.09178 0.0
C2087 C 0.21818 0.78495 0.13961 0.0
loop_
_geom_bond_atom_site_label_1
_geom_bond_atom_site_label_2
_geom_bond_distance
_geom_bond_site_symmetry_2
_ccdc_geom_bond_type
C0 C1 1.351 . S
C0 N3 1.368 . S
C0 H5 0.931 . S
C1 C0 1.351 . S
C1 N2 1.373 . S
C1 H29 0.930 . S
N2 C1 1.373 . S
N2 C4 1.340 . S
N3 C0 1.368 . S
N3 C4 1.321 . S
N3 Co6 2.135 . S
C4 N2 1.340 . S
C4 N3 1.321 . S
C4 H28 0.930 . S
H5 C0 0.931 . S
Co6 N3 2.135 . S
Co6 N9 2.121 . S
Co6 O14 2.055 . S
Co6 O17 2.039 . S
Co6 N20 2.140 . S
C7 O8 1.227 . S
C7 O17 1.265 . S
O8 C7 1.227 . S
N9 Co6 2.121 . S
N9 C11 1.375 . S
N9 C12 1.313 . S
C10 C11 1.338 . S
C10 N13 1.377 . S
C10 H30 0.930 . S
C11 N9 1.375 . S
C11 C10 1.338 . S
C11 H15 0.931 . S
C12 N9 1.313 . S
C12 N13 1.344 . S
C12 H16 0.930 . S
N13 C10 1.377 . S
N13 C12 1.344 . S
O14 Co6 2.055 . S
O14 C18 1.253 . S
H15 C11 0.931 . S
H16 C12 0.930 . S
O17 Co6 2.039 . S
O17 C7 1.265 . S
C18 O14 1.253 . S
C18 O19 1.227 . S
O19 C18 1.227 . S
N20 Co6 2.140 . S
N20 C23 1.346 . S
N20 C24 1.345 . S
C21 C22 1.387 . S
C21 C25 1.391 . S
C22 C21 1.387 . S
C22 C23 1.369 . S
C22 H31 0.929 . S
C23 N20 1.346 . S
C23 C22 1.369 . S
C23 H26 0.928 . S
C24 N20 1.345 . S
C24 C25 1.371 . S
C24 H27 0.931 . S
C25 C21 1.391 . S
C25 C24 1.371 . S
C25 H32 0.930 . S
H26 C23 0.928 . S
H27 C24 0.931 . S
H28 C4 0.930 . S
H29 C1 0.930 . S
H30 C10 0.930 . S
H31 C22 0.929 . S
H32 C25 0.930 . S
C33 C34 1.345 1_545 S
C33 N36 1.350 . S
C33 H38 0.933 . S
C34 C33 1.345 1_565 S
C34 N35 1.373 . S
C34 H62 0.930 . S
N35 C34 1.373 . S
N35 C37 1.340 . S
N36 C33 1.350 . S
N36 C37 1.296 1_545 S
N36 Co39 2.171 . S
C37 N35 1.340 . S
C37 N36 1.296 1_565 S
C37 H61 0.930 . S
H38 C33 0.933 . S
Co39 N36 2.171 . S
Co39 N42 2.121 . S
Co39 O47 2.055 . S
Co39 O50 2.039 . S
Co39 N53 2.140 . S
C40 O41 1.227 1_545 S
C40 O50 1.265 . S
O41 C40 1.227 1_565 S
N42 Co39 2.121 . S
N42 C44 1.375 . S
N42 C45 1.313 . S
C43 C44 1.338 . S
C43 N46 1.377 . S
C43 H63 0.930 . S
C44 N42 1.375 . S
C44 C43 1.338 . S
C44 H48 0.931 . S
C45 N42 1.313 . S
C45 N46 1.344 . S
C45 H49 0.930 . S
N46 C43 1.377 . S
N46 C45 1.344 . S
O47 Co39 2.055 . S
O47 C51 1.253 . S
H48 C44 0.931 . S
H49 C45 0.930 . S
O50 Co39 2.039 . S
O50 C40 1.265 . S
C51 O47 1.253 . S
C51 O52 1.227 . S
O52 C51 1.227 . S
N53 Co39 2.140 . S
N53 C56 1.346 1_545 S
N53 C57 1.345 . S
C54 C55 1.387 1_545 S
C54 C58 1.391 . S
C55 C54 1.387 1_565 S
C55 C56 1.369 . S
C55 H64 0.929 . S
C56 N53 1.346 1_565 S
C56 C55 1.369 . S
C56 H59 0.928 . S
C57 N53 1.345 . S
C57 C58 1.371 . S
C57 H60 0.931 . S
C58 C54 1.391 . S
C58 C57 1.371 . S
C58 H65 0.930 . S
H59 C56 0.928 . S
H60 C57 0.931 . S
H61 C37 0.930 . S
H62 C34 0.930 . S
H63 C43 0.930 . S
H64 C55 0.929 . S
H65 C58 0.930 . S
C66 C67 1.347 1_655 S
C66 N69 1.384 . S
C66 H71 0.937 . S
C67 C66 1.347 1_455 S
C67 N68 1.373 . S
C67 H95 0.930 . S
N68 C67 1.373 . S
N68 C70 1.340 . S
N69 C66 1.384 . S
N69 C70 1.283 1_655 S
N69 Co72 2.151 . S
C70 N68 1.340 . S
C70 N69 1.283 1_455 S
C70 H94 0.930 . S
H71 C66 0.937 . S
Co72 N69 2.151 . S
Co72 N75 2.121 . S
Co72 O80 2.055 . S
Co72 O83 2.039 . S
Co72 N86 2.140 . S
C73 O74 1.227 1_655 S
C73 O83 1.265 . S
O74 C73 1.227 1_455 S
N75 Co72 2.121 . S
N75 C77 1.375 . S
N75 C78 1.313 . S
C76 C77 1.338 . S
C76 N79 1.377 . S
C76 H96 0.930 . S
C77 N75 1.375 . S
C77 C76 1.338 . S
C77 H81 0.931 . S
C78 N75 1.313 . S
C78 N79 1.344 . S
C78 H82 0.930 . S
N79 C76 1.377 . S
N79 C78 1.344 . S
O80 Co72 2.055 . S
O80 C84 1.253 . S
H81 C77 0.931 . S
H82 C78 0.930 . S
O83 Co72 2.039 . S
O83 C73 1.265 . S
C84 O80 1.253 . S
C84 O85 1.227 . S
O85 C84 1.227 . S
N86 Co72 2.140 . S
N86 C89 1.346 1_655 S
N86 C90 1.345 . S
C87 C88 1.387 1_655 S
C87 C91 1.391 . S
C88 C87 1.387 1_455 S
C88 C89 1.369 . S
C88 H97 0.929 . S
C89 N86 1.346 1_455 S
C89 C88 1.369 . S
C89 H92 0.928 . S
C90 N86 1.345 . S
C90 C91 1.371 . S
C90 H93 0.931 . S
C91 C87 1.391 . S
C91 C90 1.371 . S
C91 H98 0.930 . S
H92 C89 0.928 . S
H93 C90 0.931 . S
H94 C70 0.930 . S
H95 C67 0.930 . S
H96 C76 0.930 . S
H97 C88 0.929 . S
H98 C91 0.930 . S
C99 C100 1.351 . S
C99 N102 1.368 . S
C99 H104 0.931 . S
C100 C99 1.351 . S
C100 N101 1.373 . S
C100 H128 0.930 . S
N101 C100 1.373 . S
N101 C103 1.340 . S
N102 C99 1.368 . S
N102 C103 1.321 . S
N102 Co105 2.135 . S
C103 N101 1.340 . S
C103 N102 1.321 . S
C103 H127 0.930 . S
H104 C99 0.931 . S
Co105 N102 2.135 . S
Co105 N108 2.121 . S
Co105 O113 2.055 . S
Co105 O116 2.039 . S
Co105 N119 2.140 . S
C106 O107 1.227 . S
C106 O116 1.265 . S
O107 C106 1.227 . S
N108 Co105 2.121 . S
N108 C110 1.375 . S
N108 C111 1.313 . S
C109 C110 1.338 . S
C109 N112 1.377 . S
C109 H129 0.930 . S
C110 N108 1.375 . S
C110 C109 1.338 . S
C110 H114 0.931 . S
C111 N108 1.313 . S
C111 N112 1.344 . S
C111 H115 0.930 . S
N112 C109 1.377 . S
N112 C111 1.344 . S
O113 Co105 2.055 . S
O113 C117 1.253 . S
H114 C110 0.931 . S
H115 C111 0.930 . S
O116 Co105 2.039 . S
O116 C106 1.265 . S
C117 O113 1.253 . S
C117 O118 1.227 . S
O118 C117 1.227 . S
N119 Co105 2.140 . S
N119 C122 1.346 . S
N119 C123 1.345 . S
C120 C121 1.387 . S
C120 C124 1.391 . S
C121 C120 1.387 . S
C121 C122 1.369 . S
C121 H130 0.929 . S
C122 N119 1.346 . S
C122 C121 1.369 . S
C122 H125 0.928 . S
C123 N119 1.345 . S
C123 C124 1.371 . S
C123 H126 0.931 . S
C124 C120 1.391 . S
C124 C123 1.371 . S
C124 H131 0.930 . S
H125 C122 0.928 . S
H126 C123 0.931 . S
H127 C103 0.930 . S
H128 C100 0.930 . S
H129 C109 0.930 . S
H130 C121 0.929 . S
H131 C124 0.930 . S
C132 C133 1.347 1_565 S
C132 N135 1.384 . S
C132 H137 0.937 . S
C133 C132 1.347 1_545 S
C133 N134 1.373 . S
C133 H161 0.930 . S
N134 C133 1.373 . S
N134 C136 1.340 . S
N135 C132 1.384 . S
N135 C136 1.283 1_565 S
N135 Co138 2.151 . S
C136 N134 1.340 . S
C136 N135 1.283 1_545 S
C136 H160 0.930 . S
H137 C132 0.937 . S
Co138 N135 2.151 . S
Co138 N141 2.121 . S
Co138 O146 2.055 . S
Co138 O149 2.039 . S
Co138 N152 2.140 . S
C139 O140 1.227 1_565 S
C139 O149 1.265 . S
O140 C139 1.227 1_545 S
N141 Co138 2.121 . S
N141 C143 1.375 . S
N141 C144 1.313 . S
C142 C143 1.338 . S
C142 N145 1.377 . S
C142 H162 0.930 . S
C143 N141 1.375 . S
C143 C142 1.338 . S
C143 H147 0.931 . S
C144 N141 1.313 . S
C144 N145 1.344 . S
C144 H148 0.930 . S
N145 C142 1.377 . S
N145 C144 1.344 . S
O146 Co138 2.055 . S
O146 C150 1.253 . S
H147 C143 0.931 . S
H148 C144 0.930 . S
O149 Co138 2.039 . S
O149 C139 1.265 . S
C150 O146 1.253 . S
C150 O151 1.227 . S
O151 C150 1.227 . S
N152 Co138 2.140 . S
N152 C155 1.346 1_565 S
N152 C156 1.345 . S
C153 C154 1.387 1_565 S
C153 C157 1.391 . S
C154 C153 1.387 1_545 S
C154 C155 1.369 . S
C154 H163 0.929 . S
C155 N152 1.346 1_545 S
C155 C154 1.369 . S
C155 H158 0.928 . S
C156 N152 1.345 . S
C156 C157 1.371 . S
C156 H159 0.931 . S
C157 C153 1.391 . S
C157 C156 1.371 . S
C157 H164 0.930 . S
H158 C155 0.928 . S
H159 C156 0.931 . S
H160 C136 0.930 . S
H161 C133 0.930 . S
H162 C142 0.930 . S
H163 C154 0.929 . S
H164 C157 0.930 . S
C165 C166 1.345 1_455 S
C165 N168 1.350 . S
C165 H170 0.933 . S
C166 C165 1.345 1_655 S
C166 N167 1.373 . S
C166 H194 0.930 . S
N167 C166 1.373 . S
N167 C169 1.340 . S
N168 C165 1.350 . S
N168 C169 1.296 1_455 S
N168 Co171 2.171 . S
C169 N167 1.340 . S
C169 N168 1.296 1_655 S
C169 H193 0.930 . S
H170 C165 0.933 . S
Co171 N168 2.171 . S
Co171 N174 2.121 . S
Co171 O179 2.055 . S
Co171 O182 2.039 . S
Co171 N185 2.140 . S
C172 O173 1.227 1_455 S
C172 O182 1.265 . S
O173 C172 1.227 1_655 S
N174 Co171 2.121 . S
N174 C176 1.375 . S
N174 C177 1.313 . S
C175 C176 1.338 . S
C175 N178 1.377 . S
C175 H195 0.930 . S
C176 N174 1.375 . S
C176 C175 1.338 . S
C176 H180 0.931 . S
C177 N174 1.313 . S
C177 N178 1.344 . S
C177 H181 0.930 . S
N178 C175 1.377 . S
N178 C177 1.344 . S
O179 Co171 2.055 . S
O179 C183 1.253 . S
H180 C176 0.931 . S
H181 C177 0.930 . S
O182 Co171 2.039 . S
O182 C172 1.265 . S
C183 O179 1.253 . S
C183 O184 1.227 . S
O184 C183 1.227 . S
N185 Co171 2.140 . S
N185 C188 1.346 1_455 S
N185 C189 1.345 . S
C186 C187 1.387 1_455 S
C186 C190 1.391 . S
C187 C186 1.387 1_655 S
C187 C188 1.369 . S
C187 H196 0.929 . S
C188 N185 1.346 1_655 S
C188 C187 1.369 . S
C188 H191 0.928 . S
C189 N185 1.345 . S
C189 C190 1.371 . S
C189 H192 0.931 . S
C190 C186 1.391 . S
C190 C189 1.371 . S
C190 H197 0.930 . S
H191 C188 0.928 . S
H192 C189 0.931 . S
H193 C169 0.930 . S
H194 C166 0.930 . S
H195 C175 0.930 . S
H196 C187 0.929 . S
H197 C190 0.930 . S
C198 C199 1.351 . S
C198 N201 1.368 . S
C198 H203 0.931 . S
C199 C198 1.351 . S
C199 N200 1.373 . S
C199 H227 0.930 . S
N200 C199 1.373 . S
N200 C202 1.340 . S
N201 C198 1.368 . S
N201 C202 1.321 . S
N201 Co204 2.135 . S
C202 N200 1.340 . S
C202 N201 1.321 . S
C202 H226 0.930 . S
H203 C198 0.931 . S
Co204 N201 2.135 . S
Co204 N207 2.121 . S
Co204 O212 2.055 . S
Co204 O215 2.039 . S
Co204 N218 2.140 . S
C205 O206 1.227 . S
C205 O215 1.265 . S
O206 C205 1.227 . S
N207 Co204 2.121 . S
N207 C209 1.375 . S
N207 C210 1.313 . S
C208 C209 1.338 . S
C208 N211 1.377 . S
C208 H228 0.930 . S
C209 N207 1.375 . S
C209 C208 1.338 . S
C209 H213 0.931 . S
C210 N207 1.313 . S
C210 N211 1.344 . S
C210 H214 0.930 . S
N211 C208 1.377 . S
N211 C210 1.344 . S
O212 Co204 2.055 . S
O212 C216 1.253 . S
H213 C209 0.931 . S
H214 C210 0.930 . S
O215 Co204 2.039 . S
O215 C205 1.265 . S
C216 O212 1.253 . S
C216 O217 1.227 . S
O217 C216 1.227 . S
N218 Co204 2.140 . S
N218 C221 1.346 . S
N218 C222 1.345 . S
C219 C220 1.387 . S
C219 C223 1.391 . S
C220 C219 1.387 . S
C220 C221 1.369 . S
C220 H229 0.929 . S
C221 N218 1.346 . S
C221 C220 1.369 . S
C221 H224 0.928 . S
C222 N218 1.345 . S
C222 C223 1.371 . S
C222 H225 0.931 . S
C223 C219 1.391 . S
C223 C222 1.371 . S
C223 H230 0.930 . S
H224 C221 0.928 . S
H225 C222 0.931 . S
H226 C202 0.930 . S
H227 C199 0.930 . S
H228 C208 0.930 . S
H229 C220 0.929 . S
H230 C223 0.930 . S
C231 C232 1.345 1_565 S
C231 N234 1.350 . S
C231 H236 0.933 . S
C232 C231 1.345 1_545 S
C232 N233 1.373 . S
C232 H260 0.930 . S
N233 C232 1.373 . S
N233 C235 1.340 . S
N234 C231 1.350 . S
N234 C235 1.296 1_565 S
N234 Co237 2.171 . S
C235 N233 1.340 . S
C235 N234 1.296 1_545 S
C235 H259 0.930 . S
H236 C231 0.933 . S
Co237 N234 2.171 . S
Co237 N240 2.121 . S
Co237 O245 2.055 . S
Co237 O248 2.039 . S
Co237 N251 2.140 . S
C238 O239 1.227 1_565 S
C238 O248 1.265 . S
O239 C238 1.227 1_545 S
N240 Co237 2.121 . S
N240 C242 1.375 . S
N240 C243 1.313 . S
C241 C242 1.338 . S
C241 N244 1.377 . S
C241 H261 0.930 . S
C242 N240 1.375 . S
C242 C241 1.338 . S
C242 H246 0.931 . S
C243 N240 1.313 . S
C243 N244 1.344 . S
C243 H247 0.930 . S
N244 C241 1.377 . S
N244 C243 1.344 . S
O245 Co237 2.055 . S
O245 C249 1.253 . S
H246 C242 0.931 . S
H247 C243 0.930 . S
O248 Co237 2.039 . S
O248 C238 1.265 . S
C249 O245 1.253 . S
C249 O250 1.227 . S
O250 C249 1.227 . S
N251 Co237 2.140 . S
N251 C254 1.346 1_565 S
N251 C255 1.345 . S
C252 C253 1.387 1_565 S
C252 C256 1.391 . S
C253 C252 1.387 1_545 S
C253 C254 1.369 . S
C253 H262 0.929 . S
C254 N251 1.346 1_545 S
C254 C253 1.369 . S
C254 H257 0.928 . S
C255 N251 1.345 . S
C255 C256 1.371 . S
C255 H258 0.931 . S
C256 C252 1.391 . S
C256 C255 1.371 . S
C256 H263 0.930 . S
H257 C254 0.928 . S
H258 C255 0.931 . S
H259 C235 0.930 . S
H260 C232 0.930 . S
H261 C241 0.930 . S
H262 C253 0.929 . S
H263 C256 0.930 . S
C264 C265 1.347 1_455 S
C264 N267 1.384 . S
C264 H269 0.937 . S
C265 C264 1.347 1_655 S
C265 N266 1.373 . S
C265 H293 0.930 . S
N266 C265 1.373 . S
N266 C268 1.340 . S
N267 C264 1.384 . S
N267 C268 1.283 1_455 S
N267 Co270 2.151 . S
C268 N266 1.340 . S
C268 N267 1.283 1_655 S
C268 H292 0.930 . S
H269 C264 0.937 . S
Co270 N267 2.151 . S
Co270 N273 2.121 . S
Co270 O278 2.055 . S
Co270 O281 2.039 . S
Co270 N284 2.140 . S
C271 O272 1.227 1_455 S
C271 O281 1.265 . S
O272 C271 1.227 1_655 S
N273 Co270 2.121 . S
N273 C275 1.375 . S
N273 C276 1.313 . S
C274 C275 1.338 . S
C274 N277 1.377 . S
C274 H294 0.930 . S
C275 N273 1.375 . S
C275 C274 1.338 . S
C275 H279 0.931 . S
C276 N273 1.313 . S
C276 N277 1.344 . S
C276 H280 0.930 . S
N277 C274 1.377 . S
N277 C276 1.344 . S
O278 Co270 2.055 . S
O278 C282 1.253 . S
H279 C275 0.931 . S
H280 C276 0.930 . S
O281 Co270 2.039 . S
O281 C271 1.265 . S
C282 O278 1.253 . S
C282 O283 1.227 . S
O283 C282 1.227 . S
N284 Co270 2.140 . S
N284 C287 1.346 1_455 S
N284 C288 1.345 . S
C285 C286 1.387 1_455 S
C285 C289 1.391 . S
C286 C285 1.387 1_655 S
C286 C287 1.369 . S
C286 H295 0.929 . S
C287 N284 1.346 1_655 S
C287 C286 1.369 . S
C287 H290 0.928 . S
C288 N284 1.345 . S
C288 C289 1.371 . S
C288 H291 0.931 . S
C289 C285 1.391 . S
C289 C288 1.371 . S
C289 H296 0.930 . S
H290 C287 0.928 . S
H291 C288 0.931 . S
H292 C268 0.930 . S
H293 C265 0.930 . S
H294 C274 0.930 . S
H295 C286 0.929 . S
H296 C289 0.930 . S
C297 C298 1.351 . S
C297 N300 1.368 . S
C297 H302 0.931 . S
C298 C297 1.351 . S
C298 N299 1.373 . S
C298 H326 0.930 . S
N299 C298 1.373 . S
N299 C301 1.340 . S
N300 C297 1.368 . S
N300 C301 1.321 . S
N300 Co303 2.135 . S
C301 N299 1.340 . S
C301 N300 1.321 . S
C301 H325 0.930 . S
H302 C297 0.931 . S
Co303 N300 2.135 . S
Co303 N306 2.121 . S
Co303 O311 2.055 . S
Co303 O314 2.039 . S
Co303 N317 2.140 . S
C304 O305 1.227 . S
C304 O314 1.265 . S
O305 C304 1.227 . S
N306 Co303 2.121 . S
N306 C308 1.375 . S
N306 C309 1.313 . S
C307 C308 1.338 . S
C307 N310 1.377 . S
C307 H327 0.930 . S
C308 N306 1.375 . S
C308 C307 1.338 . S
C308 H312 0.931 . S
C309 N306 1.313 . S
C309 N310 1.344 . S
C309 H313 0.930 . S
N310 C307 1.377 . S
N310 C309 1.344 . S
O311 Co303 2.055 . S
O311 C315 1.253 . S
H312 C308 0.931 . S
H313 C309 0.930 . S
O314 Co303 2.039 . S
O314 C304 1.265 . S
C315 O311 1.253 . S
C315 O316 1.227 . S
O316 C315 1.227 . S
N317 Co303 2.140 . S
N317 C320 1.346 . S
N317 C321 1.345 . S
C318 C319 1.387 . S
C318 C322 1.391 . S
C319 C318 1.387 . S
C319 C320 1.369 . S
C319 H328 0.929 . S
C320 N317 1.346 . S
C320 C319 1.369 . S
C320 H323 0.928 . S
C321 N317 1.345 . S
C321 C322 1.371 . S
C321 H324 0.931 . S
C322 C318 1.391 . S
C322 C321 1.371 . S
C322 H329 0.930 . S
H323 C320 0.928 . S
H324 C321 0.931 . S
H325 C301 0.930 . S
H326 C298 0.930 . S
H327 C307 0.930 . S
H328 C319 0.929 . S
H329 C322 0.930 . S
C330 C331 1.347 1_545 S
C330 N333 1.384 . S
C330 H335 0.937 . S
C331 C330 1.347 1_565 S
C331 N332 1.373 . S
C331 H359 0.930 . S
N332 C331 1.373 . S
N332 C334 1.340 . S
N333 C330 1.384 . S
N333 C334 1.283 1_545 S
N333 Co336 2.151 . S
C334 N332 1.340 . S
C334 N333 1.283 1_565 S
C334 H358 0.930 . S
H335 C330 0.937 . S
Co336 N333 2.151 . S
Co336 N339 2.121 . S
Co336 O344 2.055 . S
Co336 O347 2.039 . S
Co336 N350 2.140 . S
C337 O338 1.227 1_545 S
C337 O347 1.265 . S
O338 C337 1.227 1_565 S
N339 Co336 2.121 . S
N339 C341 1.375 . S
N339 C342 1.313 . S
C340 C341 1.338 . S
C340 N343 1.377 . S
C340 H360 0.930 . S
C341 N339 1.375 . S
C341 C340 1.338 . S
C341 H345 0.931 . S
C342 N339 1.313 . S
C342 N343 1.344 . S
C342 H346 0.930 . S
N343 C340 1.377 . S
N343 C342 1.344 . S
O344 Co336 2.055 . S
O344 C348 1.253 . S
H345 C341 0.931 . S
H346 C342 0.930 . S
O347 Co336 2.039 . S
O347 C337 1.265 . S
C348 O344 1.253 . S
C348 O349 1.227 . S
O349 C348 1.227 . S
N350 Co336 2.140 . S
N350 C353 1.346 1_545 S
N350 C354 1.345 . S
C351 C352 1.387 1_545 S
C351 C355 1.391 . S
C352 C351 1.387 1_565 S
C352 C353 1.369 . S
C352 H361 0.929 . S
C353 N350 1.346 1_565 S
C353 C352 1.369 . S
C353 H356 0.928 . S
C354 N350 1.345 . S
C354 C355 1.371 . S
C354 H357 0.931 . S
C355 C351 1.391 . S
C355 C354 1.371 . S
C355 H362 0.930 . S
H356 C353 0.928 . S
H357 C354 0.931 . S
H358 C334 0.930 . S
H359 C331 0.930 . S
H360 C340 0.930 . S
H361 C352 0.929 . S
H362 C355 0.930 . S
C363 C364 1.345 1_655 S
C363 N366 1.350 . S
C363 H368 0.933 . S
C364 C363 1.345 1_455 S
C364 N365 1.373 . S
C364 H392 0.930 . S
N365 C364 1.373 . S
N365 C367 1.340 . S
N366 C363 1.350 . S
N366 C367 1.296 1_655 S
N366 Co369 2.171 . S
C367 N365 1.340 . S
C367 N366 1.296 1_455 S
C367 H391 0.930 . S
H368 C363 0.933 . S
Co369 N366 2.171 . S
Co369 N372 2.121 . S
Co369 O377 2.055 . S
Co369 O380 2.039 . S
Co369 N383 2.140 . S
C370 O371 1.227 1_655 S
C370 O380 1.265 . S
O371 C370 1.227 1_455 S
N372 Co369 2.121 . S
N372 C374 1.375 . S
N372 C375 1.313 . S
C373 C374 1.338 . S
C373 N376 1.377 . S
C373 H393 0.930 . S
C374 N372 1.375 . S
C374 C373 1.338 . S
C374 H378 0.931 . S
C375 N372 1.313 . S
C375 N376 1.344 . S
C375 H379 0.930 . S
N376 C373 1.377 . S
N376 C375 1.344 . S
O377 Co369 2.055 . S
O377 C381 1.253 . S
H378 C374 0.931 . S
H379 C375 0.930 . S
O380 Co369 2.039 . S
O380 C370 1.265 . S
C381 O377 1.253 . S
C381 O382 1.227 . S
O382 C381 1.227 . S
N383 Co369 2.140 . S
N383 C386 1.346 1_655 S
N383 C387 1.345 . S
C384 C385 1.387 1_655 S
C384 C388 1.391 . S
C385 C384 1.387 1_455 S
C385 C386 1.369 . S
C385 H394 0.929 . S
C386 N383 1.346 1_455 S
C386 C385 1.369 . S
C386 H389 0.928 . S
C387 N383 1.345 . S
C387 C388 1.371 . S
C387 H390 0.931 . S
C388 C384 1.391 . S
C388 C387 1.371 . S
C388 H395 0.930 . S
H389 C386 0.928 . S
H390 C387 0.931 . S
H391 C367 0.930 . S
H392 C364 0.930 . S
H393 C373 0.930 . S
H394 C385 0.929 . S
H395 C388 0.930 . S
C396 C397 1.351 . S
C396 N399 1.368 . S
C396 H401 0.931 . S
C397 C396 1.351 . S
C397 N398 1.373 . S
C397 H425 0.930 . S
N398 C397 1.373 . S
N398 C400 1.340 . S
N399 C396 1.368 . S
N399 C400 1.321 . S
N399 Co402 2.135 . S
C400 N398 1.340 . S
C400 N399 1.321 . S
C400 H424 0.930 . S
H401 C396 0.931 . S
Co402 N399 2.135 . S
Co402 N405 2.121 . S
Co402 O410 2.055 . S
Co402 O413 2.039 . S
Co402 N416 2.140 . S
C403 O404 1.227 . S
C403 O413 1.265 . S
O404 C403 1.227 . S
N405 Co402 2.121 . S
N405 C407 1.375 . S
N405 C408 1.313 . S
C406 C407 1.338 . S
C406 N409 1.377 . S
C406 H426 0.930 . S
C407 N405 1.375 . S
C407 C406 1.338 . S
C407 H411 0.931 . S
C408 N405 1.313 . S
C408 N409 1.344 . S
C408 H412 0.930 . S
N409 C406 1.377 . S
N409 C408 1.344 . S
O410 Co402 2.055 . S
O410 C414 1.253 . S
H411 C407 0.931 . S
H412 C408 0.930 . S
O413 Co402 2.039 . S
O413 C403 1.265 . S
C414 O410 1.253 . S
C414 O415 1.227 . S
O415 C414 1.227 . S
N416 Co402 2.140 . S
N416 C419 1.346 . S
N416 C420 1.345 . S
C417 C418 1.387 . S
C417 C421 1.391 . S
C418 C417 1.387 . S
C418 C419 1.369 . S
C418 H427 0.929 . S
C419 N416 1.346 . S
C419 C418 1.369 . S
C419 H422 0.928 . S
C420 N416 1.345 . S
C420 C421 1.371 . S
C420 H423 0.931 . S
C421 C417 1.391 . S
C421 C420 1.371 . S
C421 H428 0.930 . S
H422 C419 0.928 . S
H423 C420 0.931 . S
H424 C400 0.930 . S
H425 C397 0.930 . S
H426 C406 0.930 . S
H427 C418 0.929 . S
H428 C421 0.930 . S
C429 C430 1.351 . S
C429 N432 1.368 . S
C429 H434 0.931 . S
C430 C429 1.351 . S
C430 N431 1.373 . S
C430 H458 0.930 . S
N431 C430 1.373 . S
N431 C433 1.340 . S
N432 C429 1.368 . S
N432 C433 1.321 . S
N432 Co435 2.135 . S
C433 N431 1.340 . S
C433 N432 1.321 . S
C433 H457 0.930 . S
H434 C429 0.931 . S
Co435 N432 2.135 . S
Co435 N438 2.121 . S
Co435 O443 2.055 . S
Co435 O446 2.039 . S
Co435 N449 2.140 . S
C436 O437 1.227 . S
C436 O446 1.265 . S
O437 C436 1.227 . S
N438 Co435 2.121 . S
N438 C440 1.375 . S
N438 C441 1.313 . S
C439 C440 1.338 . S
C439 N442 1.377 . S
C439 H459 0.930 . S
C440 N438 1.375 . S
C440 C439 1.338 . S
C440 H444 0.931 . S
C441 N438 1.313 . S
C441 N442 1.344 . S
C441 H445 0.930 . S
N442 C439 1.377 . S
N442 C441 1.344 . S
O443 Co435 2.055 . S
O443 C447 1.253 . S
H444 C440 0.931 . S
H445 C441 0.930 . S
O446 Co435 2.039 . S
O446 C436 1.265 . S
C447 O443 1.253 . S
C447 O448 1.227 . S
O448 C447 1.227 . S
N449 Co435 2.140 . S
N449 C452 1.346 . S
N449 C453 1.345 . S
C450 C451 1.387 . S
C450 C454 1.391 . S
C451 C450 1.387 . S
C451 C452 1.369 . S
C451 H460 0.929 . S
C452 N449 1.346 . S
C452 C451 1.369 . S
C452 H455 0.928 . S
C453 N449 1.345 . S
C453 C454 1.371 . S
C453 H456 0.931 . S
C454 C450 1.391 . S
C454 C453 1.371 . S
C454 H461 0.930 . S
H455 C452 0.928 . S
H456 C453 0.931 . S
H457 C433 0.930 . S
H458 C430 0.930 . S
H459 C439 0.930 . S
H460 C451 0.929 . S
H461 C454 0.930 . S
C462 C463 1.351 . S
C462 N465 1.368 . S
C462 H467 0.931 . S
C463 C462 1.351 . S
C463 N464 1.373 . S
C463 H491 0.930 . S
N464 C463 1.373 . S
N464 C466 1.340 . S
N465 C462 1.368 . S
N465 C466 1.321 . S
N465 Co468 2.135 . S
C466 N464 1.340 . S
C466 N465 1.321 . S
C466 H490 0.930 . S
H467 C462 0.931 . S
Co468 N465 2.135 . S
Co468 N471 2.121 . S
Co468 O476 2.055 . S
Co468 O479 2.039 . S
Co468 N482 2.140 . S
C469 O470 1.227 . S
C469 O479 1.265 . S
O470 C469 1.227 . S
N471 Co468 2.121 . S
N471 C473 1.375 . S
N471 C474 1.313 . S
C472 C473 1.338 . S
C472 N475 1.377 . S
C472 H492 0.930 . S
C473 N471 1.375 . S
C473 C472 1.338 . S
C473 H477 0.931 . S
C474 N471 1.313 . S
C474 N475 1.344 . S
C474 H478 0.930 . S
N475 C472 1.377 . S
N475 C474 1.344 . S
O476 Co468 2.055 . S
O476 C480 1.253 . S
H477 C473 0.931 . S
H478 C474 0.930 . S
O479 Co468 2.039 . S
O479 C469 1.265 . S
C480 O476 1.253 . S
C480 O481 1.227 . S
O481 C480 1.227 . S
N482 Co468 2.140 . S
N482 C485 1.346 . S
N482 C486 1.345 . S
C483 C484 1.387 . S
C483 C487 1.391 . S
C484 C483 1.387 . S
C484 C485 1.369 . S
C484 H493 0.929 . S
C485 N482 1.346 . S
C485 C484 1.369 . S
C485 H488 0.928 . S
C486 N482 1.345 . S
C486 C487 1.371 . S
C486 H489 0.931 . S
C487 C483 1.391 . S
C487 C486 1.371 . S
C487 H494 0.930 . S
H488 C485 0.928 . S
H489 C486 0.931 . S
H490 C466 0.930 . S
H491 C463 0.930 . S
H492 C472 0.930 . S
H493 C484 0.929 . S
H494 C487 0.930 . S
C495 C496 1.351 . S
C495 N498 1.368 . S
C495 H500 0.931 . S
C496 C495 1.351 . S
C496 N497 1.373 . S
C496 H524 0.930 . S
N497 C496 1.373 . S
N497 C499 1.340 . S
N498 C495 1.368 . S
N498 C499 1.321 . S
N498 Co501 2.135 . S
C499 N497 1.340 . S
C499 N498 1.321 . S
C499 H523 0.930 . S
H500 C495 0.931 . S
Co501 N498 2.135 . S
Co501 N504 2.121 . S
Co501 O509 2.055 . S
Co501 O512 2.039 . S
Co501 N515 2.140 . S
C502 O503 1.227 . S
C502 O512 1.265 . S
O503 C502 1.227 . S
N504 Co501 2.121 . S
N504 C506 1.375 . S
N504 C507 1.313 . S
C505 C506 1.338 . S
C505 N508 1.377 . S
C505 H525 0.930 . S
C506 N504 1.375 . S
C506 C505 1.338 . S
C506 H510 0.931 . S
C507 N504 1.313 . S
C507 N508 1.344 . S
C507 H511 0.930 . S
N508 C505 1.377 . S
N508 C507 1.344 . S
O509 Co501 2.055 . S
O509 C513 1.253 . S
H510 C506 0.931 . S
H511 C507 0.930 . S
O512 Co501 2.039 . S
O512 C502 1.265 . S
C513 O509 1.253 . S
C513 O514 1.227 . S
O514 C513 1.227 . S
N515 Co501 2.140 . S
N515 C518 1.346 . S
N515 C519 1.345 . S
C516 C517 1.387 . S
C516 C520 1.391 . S
C517 C516 1.387 . S
C517 C518 1.369 . S
C517 H526 0.929 . S
C518 N515 1.346 . S
C518 C517 1.369 . S
C518 H521 0.928 . S
C519 N515 1.345 . S
C519 C520 1.371 . S
C519 H522 0.931 . S
C520 C516 1.391 . S
C520 C519 1.371 . S
C520 H527 0.930 . S
H521 C518 0.928 . S
H522 C519 0.931 . S
H523 C499 0.930 . S
H524 C496 0.930 . S
H525 C505 0.930 . S
H526 C517 0.929 . S
H527 C520 0.930 . S
C528 C529 1.351 . S
C528 N531 1.368 . S
C528 H533 0.931 . S
C529 C528 1.351 . S
C529 N530 1.373 . S
C529 H557 0.930 . S
N530 C529 1.373 . S
N530 C532 1.340 . S
N531 C528 1.368 . S
N531 C532 1.321 . S
N531 Co534 2.135 . S
C532 N530 1.340 . S
C532 N531 1.321 . S
C532 H556 0.930 . S
H533 C528 0.931 . S
Co534 N531 2.135 . S
Co534 N537 2.121 . S
Co534 O542 2.055 . S
Co534 O545 2.039 . S
Co534 N548 2.140 . S
C535 O536 1.227 . S
C535 O545 1.265 . S
O536 C535 1.227 . S
N537 Co534 2.121 . S
N537 C539 1.375 . S
N537 C540 1.313 . S
C538 C539 1.338 . S
C538 N541 1.377 . S
C538 H558 0.930 . S
C539 N537 1.375 . S
C539 C538 1.338 . S
C539 H543 0.931 . S
C540 N537 1.313 . S
C540 N541 1.344 . S
C540 H544 0.930 . S
N541 C538 1.377 . S
N541 C540 1.344 . S
O542 Co534 2.055 . S
O542 C546 1.253 . S
H543 C539 0.931 . S
H544 C540 0.930 . S
O545 Co534 2.039 . S
O545 C535 1.265 . S
C546 O542 1.253 . S
C546 O547 1.227 . S
O547 C546 1.227 . S
N548 Co534 2.140 . S
N548 C551 1.346 . S
N548 C552 1.345 . S
C549 C550 1.387 . S
C549 C553 1.391 . S
C550 C549 1.387 . S
C550 C551 1.369 . S
C550 H559 0.929 . S
C551 N548 1.346 . S
C551 C550 1.369 . S
C551 H554 0.928 . S
C552 N548 1.345 . S
C552 C553 1.371 . S
C552 H555 0.931 . S
C553 C549 1.391 . S
C553 C552 1.371 . S
C553 H560 0.930 . S
H554 C551 0.928 . S
H555 C552 0.931 . S
H556 C532 0.930 . S
H557 C529 0.930 . S
H558 C538 0.930 . S
H559 C550 0.929 . S
H560 C553 0.930 . S
C561 C562 1.351 . S
C561 N564 1.368 . S
C561 H566 0.931 . S
C562 C561 1.351 . S
C562 N563 1.373 . S
C562 H590 0.930 . S
N563 C562 1.373 . S
N563 C565 1.340 . S
N564 C561 1.368 . S
N564 C565 1.321 . S
N564 Co567 2.135 . S
C565 N563 1.340 . S
C565 N564 1.321 . S
C565 H589 0.930 . S
H566 C561 0.931 . S
Co567 N564 2.135 . S
Co567 N570 2.121 . S
Co567 O575 2.055 . S
Co567 O578 2.039 . S
Co567 N581 2.140 . S
C568 O569 1.227 . S
C568 O578 1.265 . S
O569 C568 1.227 . S
N570 Co567 2.121 . S
N570 C572 1.375 . S
N570 C573 1.313 . S
C571 C572 1.338 . S
C571 N574 1.377 . S
C571 H591 0.930 . S
C572 N570 1.375 . S
C572 C571 1.338 . S
C572 H576 0.931 . S
C573 N570 1.313 . S
C573 N574 1.344 . S
C573 H577 0.930 . S
N574 C571 1.377 . S
N574 C573 1.344 . S
O575 Co567 2.055 . S
O575 C579 1.253 . S
H576 C572 0.931 . S
H577 C573 0.930 . S
O578 Co567 2.039 . S
O578 C568 1.265 . S
C579 O575 1.253 . S
C579 O580 1.227 . S
O580 C579 1.227 . S
N581 Co567 2.140 . S
N581 C584 1.346 . S
N581 C585 1.345 . S
C582 C583 1.387 . S
C582 C586 1.391 . S
C583 C582 1.387 . S
C583 C584 1.369 . S
C583 H592 0.929 . S
C584 N581 1.346 . S
C584 C583 1.369 . S
C584 H587 0.928 . S
C585 N581 1.345 . S
C585 C586 1.371 . S
C585 H588 0.931 . S
C586 C582 1.391 . S
C586 C585 1.371 . S
C586 H593 0.930 . S
H587 C584 0.928 . S
H588 C585 0.931 . S
H589 C565 0.930 . S
H590 C562 0.930 . S
H591 C571 0.930 . S
H592 C583 0.929 . S
H593 C586 0.930 . S
C594 C595 1.351 . S
C594 N597 1.368 . S
C594 H599 0.931 . S
C595 C594 1.351 . S
C595 N596 1.373 . S
C595 H623 0.930 . S
N596 C595 1.373 . S
N596 C598 1.340 . S
N597 C594 1.368 . S
N597 C598 1.321 . S
N597 Co600 2.135 . S
C598 N596 1.340 . S
C598 N597 1.321 . S
C598 H622 0.930 . S
H599 C594 0.931 . S
Co600 N597 2.135 . S
Co600 N603 2.121 . S
Co600 O608 2.055 . S
Co600 O611 2.039 . S
Co600 N614 2.140 . S
C601 O602 1.227 . S
C601 O611 1.265 . S
O602 C601 1.227 . S
N603 Co600 2.121 . S
N603 C605 1.375 . S
N603 C606 1.313 . S
C604 C605 1.338 . S
C604 N607 1.377 . S
C604 H624 0.930 . S
C605 N603 1.375 . S
C605 C604 1.338 . S
C605 H609 0.931 . S
C606 N603 1.313 . S
C606 N607 1.344 . S
C606 H610 0.930 . S
N607 C604 1.377 . S
N607 C606 1.344 . S
O608 Co600 2.055 . S
O608 C612 1.253 . S
H609 C605 0.931 . S
H610 C606 0.930 . S
O611 Co600 2.039 . S
O611 C601 1.265 . S
C612 O608 1.253 . S
C612 O613 1.227 . S
O613 C612 1.227 . S
N614 Co600 2.140 . S
N614 C617 1.346 . S
N614 C618 1.345 . S
C615 C616 1.387 . S
C615 C619 1.391 . S
C616 C615 1.387 . S
C616 C617 1.369 . S
C616 H625 0.929 . S
C617 N614 1.346 . S
C617 C616 1.369 . S
C617 H620 0.928 . S
C618 N614 1.345 . S
C618 C619 1.371 . S
C618 H621 0.931 . S
C619 C615 1.391 . S
C619 C618 1.371 . S
C619 H626 0.930 . S
H620 C617 0.928 . S
H621 C618 0.931 . S
H622 C598 0.930 . S
H623 C595 0.930 . S
H624 C604 0.930 . S
H625 C616 0.929 . S
H626 C619 0.930 . S
C627 C628 1.351 . S
C627 N630 1.368 . S
C627 H632 0.931 . S
C628 C627 1.351 . S
C628 N629 1.373 . S
C628 H656 0.930 . S
N629 C628 1.373 . S
N629 C631 1.340 . S
N630 C627 1.368 . S
N630 C631 1.321 . S
N630 Co633 2.135 . S
C631 N629 1.340 . S
C631 N630 1.321 . S
C631 H655 0.930 . S
H632 C627 0.931 . S
Co633 N630 2.135 . S
Co633 N636 2.121 . S
Co633 O641 2.055 . S
Co633 O644 2.039 . S
Co633 N647 2.140 . S
C634 O635 1.227 . S
C634 O644 1.265 . S
O635 C634 1.227 . S
N636 Co633 2.121 . S
N636 C638 1.375 . S
N636 C639 1.313 . S
C637 C638 1.338 . S
C637 N640 1.377 . S
C637 H657 0.930 . S
C638 N636 1.375 . S
C638 C637 1.338 . S
C638 H642 0.931 . S
C639 N636 1.313 . S
C639 N640 1.344 . S
C639 H643 0.930 . S
N640 C637 1.377 . S
N640 C639 1.344 . S
O641 Co633 2.055 . S
O641 C645 1.253 . S
H642 C638 0.931 . S
H643 C639 0.930 . S
O644 Co633 2.039 . S
O644 C634 1.265 . S
C645 O641 1.253 . S
C645 O646 1.227 . S
O646 C645 1.227 . S
N647 Co633 2.140 . S
N647 C650 1.346 . S
N647 C651 1.345 . S
C648 C649 1.387 . S
C648 C652 1.391 . S
C649 C648 1.387 . S
C649 C650 1.369 . S
C649 H658 0.929 . S
C650 N647 1.346 . S
C650 C649 1.369 . S
C650 H653 0.928 . S
C651 N647 1.345 . S
C651 C652 1.371 . S
C651 H654 0.931 . S
C652 C648 1.391 . S
C652 C651 1.371 . S
C652 H659 0.930 . S
H653 C650 0.928 . S
H654 C651 0.931 . S
H655 C631 0.930 . S
H656 C628 0.930 . S
H657 C637 0.930 . S
H658 C649 0.929 . S
H659 C652 0.930 . S
C660 C661 1.351 . S
C660 N663 1.368 . S
C660 H665 0.931 . S
C661 C660 1.351 . S
C661 N662 1.373 . S
C661 H689 0.930 . S
N662 C661 1.373 . S
N662 C664 1.340 . S
N663 C660 1.368 . S
N663 C664 1.321 . S
N663 Co666 2.135 . S
C664 N662 1.340 . S
C664 N663 1.321 . S
C664 H688 0.930 . S
H665 C660 0.931 . S
Co666 N663 2.135 . S
Co666 N669 2.121 . S
Co666 O674 2.055 . S
Co666 O677 2.039 . S
Co666 N680 2.140 . S
C667 O668 1.227 . S
C667 O677 1.265 . S
O668 C667 1.227 . S
N669 Co666 2.121 . S
N669 C671 1.375 . S
N669 C672 1.313 . S
C670 C671 1.338 . S
C670 N673 1.377 . S
C670 H690 0.930 . S
C671 N669 1.375 . S
C671 C670 1.338 . S
C671 H675 0.931 . S
C672 N669 1.313 . S
C672 N673 1.344 . S
C672 H676 0.930 . S
N673 C670 1.377 . S
N673 C672 1.344 . S
O674 Co666 2.055 . S
O674 C678 1.253 . S
H675 C671 0.931 . S
H676 C672 0.930 . S
O677 Co666 2.039 . S
O677 C667 1.265 . S
C678 O674 1.253 . S
C678 O679 1.227 . S
O679 C678 1.227 . S
N680 Co666 2.140 . S
N680 C683 1.346 . S
N680 C684 1.345 . S
C681 C682 1.387 . S
C681 C685 1.391 . S
C682 C681 1.387 . S
C682 C683 1.369 . S
C682 H691 0.929 . S
C683 N680 1.346 . S
C683 C682 1.369 . S
C683 H686 0.928 . S
C684 N680 1.345 . S
C684 C685 1.371 . S
C684 H687 0.931 . S
C685 C681 1.391 . S
C685 C684 1.371 . S
C685 H692 0.930 . S
H686 C683 0.928 . S
H687 C684 0.931 . S
H688 C664 0.930 . S
H689 C661 0.930 . S
H690 C670 0.930 . S
H691 C682 0.929 . S
H692 C685 0.930 . S
C693 C694 1.351 . S
C693 N696 1.368 . S
C693 H698 0.931 . S
C694 C693 1.351 . S
C694 N695 1.373 . S
C694 H722 0.930 . S
N695 C694 1.373 . S
N695 C697 1.340 . S
N696 C693 1.368 . S
N696 C697 1.321 . S
N696 Co699 2.135 . S
C697 N695 1.340 . S
C697 N696 1.321 . S
C697 H721 0.930 . S
H698 C693 0.931 . S
Co699 N696 2.135 . S
Co699 N702 2.121 . S
Co699 O707 2.055 . S
Co699 O710 2.039 . S
Co699 N713 2.140 . S
C700 O701 1.227 . S
C700 O710 1.265 . S
O701 C700 1.227 . S
N702 Co699 2.121 . S
N702 C704 1.375 . S
N702 C705 1.313 . S
C703 C704 1.338 . S
C703 N706 1.377 . S
C703 H723 0.930 . S
C704 N702 1.375 . S
C704 C703 1.338 . S
C704 H708 0.931 . S
C705 N702 1.313 . S
C705 N706 1.344 . S
C705 H709 0.930 . S
N706 C703 1.377 . S
N706 C705 1.344 . S
O707 Co699 2.055 . S
O707 C711 1.253 . S
H708 C704 0.931 . S
H709 C705 0.930 . S
O710 Co699 2.039 . S
O710 C700 1.265 . S
C711 O707 1.253 . S
C711 O712 1.227 . S
O712 C711 1.227 . S
N713 Co699 2.140 . S
N713 C716 1.346 . S
N713 C717 1.345 . S
C714 C715 1.387 . S
C714 C718 1.391 . S
C715 C714 1.387 . S
C715 C716 1.369 1_554 S
C715 H724 0.929 . S
C716 N713 1.346 . S
C716 C715 1.369 1_556 S
C716 H719 0.928 . S
C717 N713 1.345 . S
C717 C718 1.371 1_556 S
C717 H720 0.931 . S
C718 C714 1.391 . S
C718 C717 1.371 1_554 S
C718 H725 0.930 . S
H719 C716 0.928 . S
H720 C717 0.931 . S
H721 C697 0.930 . S
H722 C694 0.930 . S
H723 C703 0.930 . S
H724 C715 0.929 . S
H725 C718 0.930 . S
C726 C727 1.351 . S
C726 N729 1.368 . S
C726 H731 0.931 . S
C727 C726 1.351 . S
C727 N728 1.373 . S
C727 H755 0.930 . S
N728 C727 1.373 . S
N728 C730 1.340 . S
N729 C726 1.368 . S
N729 C730 1.321 . S
N729 Co732 2.135 . S
C730 N728 1.340 . S
C730 N729 1.321 . S
C730 H754 0.930 . S
H731 C726 0.931 . S
Co732 N729 2.135 . S
Co732 N735 2.121 . S
Co732 O740 2.055 . S
Co732 O743 2.039 . S
Co732 N746 2.140 . S
C733 O734 1.227 . S
C733 O743 1.265 . S
O734 C733 1.227 . S
N735 Co732 2.121 . S
N735 C737 1.375 . S
N735 C738 1.313 . S
C736 C737 1.338 . S
C736 N739 1.377 . S
C736 H756 0.930 . S
C737 N735 1.375 . S
C737 C736 1.338 . S
C737 H741 0.931 . S
C738 N735 1.313 . S
C738 N739 1.344 . S
C738 H742 0.930 . S
N739 C736 1.377 . S
N739 C738 1.344 . S
O740 Co732 2.055 . S
O740 C744 1.253 . S
H741 C737 0.931 . S
H742 C738 0.930 . S
O743 Co732 2.039 . S
O743 C733 1.265 . S
C744 O740 1.253 . S
C744 O745 1.227 . S
O745 C744 1.227 . S
N746 Co732 2.140 . S
N746 C749 1.346 . S
N746 C750 1.345 . S
C747 C748 1.387 . S
C747 C751 1.391 . S
C748 C747 1.387 . S
C748 C749 1.369 1_554 S
C748 H757 0.929 . S
C749 N746 1.346 . S
C749 C748 1.369 1_556 S
C749 H752 0.928 . S
C750 N746 1.345 . S
C750 C751 1.371 1_556 S
C750 H753 0.931 . S
C751 C747 1.391 . S
C751 C750 1.371 1_554 S
C751 H758 0.930 . S
H752 C749 0.928 . S
H753 C750 0.931 . S
H754 C730 0.930 . S
H755 C727 0.930 . S
H756 C736 0.930 . S
H757 C748 0.929 . S
H758 C751 0.930 . S
C759 C760 1.351 . S
C759 N762 1.368 . S
C759 H764 0.931 . S
C760 C759 1.351 . S
C760 N761 1.373 . S
C760 H788 0.930 . S
N761 C760 1.373 . S
N761 C763 1.340 . S
N762 C759 1.368 . S
N762 C763 1.321 . S
N762 Co765 2.135 . S
C763 N761 1.340 . S
C763 N762 1.321 . S
C763 H787 0.930 . S
H764 C759 0.931 . S
Co765 N762 2.135 . S
Co765 N768 2.121 . S
Co765 O773 2.055 . S
Co765 O776 2.039 . S
Co765 N779 2.140 . S
C766 O767 1.227 . S
C766 O776 1.265 . S
O767 C766 1.227 . S
N768 Co765 2.121 . S
N768 C770 1.375 . S
N768 C771 1.313 . S
C769 C770 1.338 . S
C769 N772 1.377 . S
C769 H789 0.930 . S
C770 N768 1.375 . S
C770 C769 1.338 . S
C770 H774 0.931 . S
C771 N768 1.313 . S
C771 N772 1.344 . S
C771 H775 0.930 . S
N772 C769 1.377 . S
N772 C771 1.344 . S
O773 Co765 2.055 . S
O773 C777 1.253 . S
H774 C770 0.931 . S
H775 C771 0.930 . S
O776 Co765 2.039 . S
O776 C766 1.265 . S
C777 O773 1.253 . S
C777 O778 1.227 . S
O778 C777 1.227 . S
N779 Co765 2.140 . S
N779 C782 1.346 . S
N779 C783 1.345 . S
C780 C781 1.387 . S
C780 C784 1.391 . S
C781 C780 1.387 . S
C781 C782 1.369 1_554 S
C781 H790 0.929 . S
C782 N779 1.346 . S
C782 C781 1.369 1_556 S
C782 H785 0.928 . S
C783 N779 1.345 . S
C783 C784 1.371 1_556 S
C783 H786 0.931 . S
C784 C780 1.391 . S
C784 C783 1.371 1_554 S
C784 H791 0.930 . S
H785 C782 0.928 . S
H786 C783 0.931 . S
H787 C763 0.930 . S
H788 C760 0.930 . S
H789 C769 0.930 . S
H790 C781 0.929 . S
H791 C784 0.930 . S
C792 C793 1.351 . S
C792 N795 1.368 . S
C792 H797 0.931 . S
C793 C792 1.351 . S
C793 N794 1.373 . S
C793 H821 0.930 . S
N794 C793 1.373 . S
N794 C796 1.340 . S
N795 C792 1.368 . S
N795 C796 1.321 . S
N795 Co798 2.135 . S
C796 N794 1.340 . S
C796 N795 1.321 . S
C796 H820 0.930 . S
H797 C792 0.931 . S
Co798 N795 2.135 . S
Co798 N801 2.121 . S
Co798 O806 2.055 . S
Co798 O809 2.039 . S
Co798 N812 2.140 . S
C799 O800 1.227 . S
C799 O809 1.265 . S
O800 C799 1.227 . S
N801 Co798 2.121 . S
N801 C803 1.375 . S
N801 C804 1.313 . S
C802 C803 1.338 . S
C802 N805 1.377 . S
C802 H822 0.930 . S
C803 N801 1.375 . S
C803 C802 1.338 . S
C803 H807 0.931 . S
C804 N801 1.313 . S
C804 N805 1.344 . S
C804 H808 0.930 . S
N805 C802 1.377 . S
N805 C804 1.344 . S
O806 Co798 2.055 . S
O806 C810 1.253 . S
H807 C803 0.931 . S
H808 C804 0.930 . S
O809 Co798 2.039 . S
O809 C799 1.265 . S
C810 O806 1.253 . S
C810 O811 1.227 . S
O811 C810 1.227 . S
N812 Co798 2.140 . S
N812 C815 1.346 . S
N812 C816 1.345 . S
C813 C814 1.387 . S
C813 C817 1.391 . S
C814 C813 1.387 . S
C814 C815 1.369 . S
C814 H823 0.929 . S
C815 N812 1.346 . S
C815 C814 1.369 . S
C815 H818 0.928 . S
C816 N812 1.345 . S
C816 C817 1.371 . S
C816 H819 0.931 . S
C817 C813 1.391 . S
C817 C816 1.371 . S
C817 H824 0.930 . S
H818 C815 0.928 . S
H819 C816 0.931 . S
H820 C796 0.930 . S
H821 C793 0.930 . S
H822 C802 0.930 . S
H823 C814 0.929 . S
H824 C817 0.930 . S
C825 C826 1.351 . S
C825 N828 1.368 . S
C825 H830 0.931 . S
C826 C825 1.351 . S
C826 N827 1.373 . S
C826 H854 0.930 . S
N827 C826 1.373 . S
N827 C829 1.340 . S
N828 C825 1.368 . S
N828 C829 1.321 . S
N828 Co831 2.135 . S
C829 N827 1.340 . S
C829 N828 1.321 . S
C829 H853 0.930 . S
H830 C825 0.931 . S
Co831 N828 2.135 . S
Co831 N834 2.121 . S
Co831 O839 2.055 . S
Co831 O842 2.039 . S
Co831 N845 2.140 . S
C832 O833 1.227 . S
C832 O842 1.265 . S
O833 C832 1.227 . S
N834 Co831 2.121 . S
N834 C836 1.375 . S
N834 C837 1.313 . S
C835 C836 1.338 . S
C835 N838 1.377 . S
C835 H855 0.930 . S
C836 N834 1.375 . S
C836 C835 1.338 . S
C836 H840 0.931 . S
C837 N834 1.313 . S
C837 N838 1.344 . S
C837 H841 0.930 . S
N838 C835 1.377 . S
N838 C837 1.344 . S
O839 Co831 2.055 . S
O839 C843 1.253 . S
H840 C836 0.931 . S
H841 C837 0.930 . S
O842 Co831 2.039 . S
O842 C832 1.265 . S
C843 O839 1.253 . S
C843 O844 1.227 . S
O844 C843 1.227 . S
N845 Co831 2.140 . S
N845 C848 1.346 . S
N845 C849 1.345 . S
C846 C847 1.387 . S
C846 C850 1.391 . S
C847 C846 1.387 . S
C847 C848 1.369 . S
C847 H856 0.929 . S
C848 N845 1.346 . S
C848 C847 1.369 . S
C848 H851 0.928 . S
C849 N845 1.345 . S
C849 C850 1.371 . S
C849 H852 0.931 . S
C850 C846 1.391 . S
C850 C849 1.371 . S
C850 H857 0.930 . S
H851 C848 0.928 . S
H852 C849 0.931 . S
H853 C829 0.930 . S
H854 C826 0.930 . S
H855 C835 0.930 . S
H856 C847 0.929 . S
H857 C850 0.930 . S
C858 C859 1.351 . S
C858 N861 1.368 . S
C858 H863 0.931 . S
C859 C858 1.351 . S
C859 N860 1.373 . S
C859 H887 0.930 . S
N860 C859 1.373 . S
N860 C862 1.340 . S
N861 C858 1.368 . S
N861 C862 1.321 . S
N861 Co864 2.135 . S
C862 N860 1.340 . S
C862 N861 1.321 . S
C862 H886 0.930 . S
H863 C858 0.931 . S
Co864 N861 2.135 . S
Co864 N867 2.121 . S
Co864 O872 2.055 . S
Co864 O875 2.039 . S
Co864 N878 2.140 . S
C865 O866 1.227 . S
C865 O875 1.265 . S
O866 C865 1.227 . S
N867 Co864 2.121 . S
N867 C869 1.375 . S
N867 C870 1.313 . S
C868 C869 1.338 . S
C868 N871 1.377 . S
C868 H888 0.930 . S
C869 N867 1.375 . S
C869 C868 1.338 . S
C869 H873 0.931 . S
C870 N867 1.313 . S
C870 N871 1.344 . S
C870 H874 0.930 . S
N871 C868 1.377 . S
N871 C870 1.344 . S
O872 Co864 2.055 . S
O872 C876 1.253 . S
H873 C869 0.931 . S
H874 C870 0.930 . S
O875 Co864 2.039 . S
O875 C865 1.265 . S
C876 O872 1.253 . S
C876 O877 1.227 . S
O877 C876 1.227 . S
N878 Co864 2.140 . S
N878 C881 1.346 . S
N878 C882 1.345 . S
C879 C880 1.387 . S
C879 C883 1.391 . S
C880 C879 1.387 . S
C880 C881 1.369 . S
C880 H889 0.929 . S
C881 N878 1.346 . S
C881 C880 1.369 . S
C881 H884 0.928 . S
C882 N878 1.345 . S
C882 C883 1.371 . S
C882 H885 0.931 . S
C883 C879 1.391 . S
C883 C882 1.371 . S
C883 H890 0.930 . S
H884 C881 0.928 . S
H885 C882 0.931 . S
H886 C862 0.930 . S
H887 C859 0.930 . S
H888 C868 0.930 . S
H889 C880 0.929 . S
H890 C883 0.930 . S
C891 C892 1.351 . S
C891 N894 1.368 . S
C891 H896 0.931 . S
C892 C891 1.351 . S
C892 N893 1.373 . S
C892 H920 0.930 . S
N893 C892 1.373 . S
N893 C895 1.340 . S
N894 C891 1.368 . S
N894 C895 1.321 . S
N894 Co897 2.135 . S
C895 N893 1.340 . S
C895 N894 1.321 . S
C895 H919 0.930 . S
H896 C891 0.931 . S
Co897 N894 2.135 . S
Co897 N900 2.121 . S
Co897 O905 2.055 . S
Co897 O908 2.039 . S
Co897 N911 2.140 . S
C898 O899 1.227 . S
C898 O908 1.265 . S
O899 C898 1.227 . S
N900 Co897 2.121 . S
N900 C902 1.375 . S
N900 C903 1.313 . S
C901 C902 1.338 . S
C901 N904 1.377 . S
C901 H921 0.930 . S
C902 N900 1.375 . S
C902 C901 1.338 . S
C902 H906 0.931 . S
C903 N900 1.313 . S
C903 N904 1.344 . S
C903 H907 0.930 . S
N904 C901 1.377 . S
N904 C903 1.344 . S
O905 Co897 2.055 . S
O905 C909 1.253 . S
H906 C902 0.931 . S
H907 C903 0.930 . S
O908 Co897 2.039 . S
O908 C898 1.265 . S
C909 O905 1.253 . S
C909 O910 1.227 . S
O910 C909 1.227 . S
N911 Co897 2.140 . S
N911 C914 1.346 . S
N911 C915 1.345 . S
C912 C913 1.387 . S
C912 C916 1.391 . S
C913 C912 1.387 . S
C913 C914 1.369 1_556 S
C913 H922 0.929 . S
C914 N911 1.346 . S
C914 C913 1.369 1_554 S
C914 H917 0.928 . S
C915 N911 1.345 . S
C915 C916 1.371 1_554 S
C915 H918 0.931 . S
C916 C912 1.391 . S
C916 C915 1.371 1_556 S
C916 H923 0.930 . S
H917 C914 0.928 . S
H918 C915 0.931 . S
H919 C895 0.930 . S
H920 C892 0.930 . S
H921 C901 0.930 . S
H922 C913 0.929 . S
H923 C916 0.930 . S
C924 C925 1.351 . S
C924 N927 1.368 . S
C924 H929 0.931 . S
C925 C924 1.351 . S
C925 N926 1.373 . S
C925 H953 0.930 . S
N926 C925 1.373 . S
N926 C928 1.340 . S
N927 C924 1.368 . S
N927 C928 1.321 . S
N927 Co930 2.135 . S
C928 N926 1.340 . S
C928 N927 1.321 . S
C928 H952 0.930 . S
H929 C924 0.931 . S
Co930 N927 2.135 . S
Co930 N933 2.121 . S
Co930 O938 2.055 . S
Co930 O941 2.039 . S
Co930 N944 2.140 . S
C931 O932 1.227 . S
C931 O941 1.265 . S
O932 C931 1.227 . S
N933 Co930 2.121 . S
N933 C935 1.375 . S
N933 C936 1.313 . S
C934 C935 1.338 . S
C934 N937 1.377 . S
C934 H954 0.930 . S
C935 N933 1.375 . S
C935 C934 1.338 . S
C935 H939 0.931 . S
C936 N933 1.313 . S
C936 N937 1.344 . S
C936 H940 0.930 . S
N937 C934 1.377 . S
N937 C936 1.344 . S
O938 Co930 2.055 . S
O938 C942 1.253 . S
H939 C935 0.931 . S
H940 C936 0.930 . S
O941 Co930 2.039 . S
O941 C931 1.265 . S
C942 O938 1.253 . S
C942 O943 1.227 . S
O943 C942 1.227 . S
N944 Co930 2.140 . S
N944 C947 1.346 . S
N944 C948 1.345 . S
C945 C946 1.387 . S
C945 C949 1.391 . S
C946 C945 1.387 . S
C946 C947 1.369 1_556 S
C946 H955 0.929 . S
C947 N944 1.346 . S
C947 C946 1.369 1_554 S
C947 H950 0.928 . S
C948 N944 1.345 . S
C948 C949 1.371 1_554 S
C948 H951 0.931 . S
C949 C945 1.391 . S
C949 C948 1.371 1_556 S
C949 H956 0.930 . S
H950 C947 0.928 . S
H951 C948 0.931 . S
H952 C928 0.930 . S
H953 C925 0.930 . S
H954 C934 0.930 . S
H955 C946 0.929 . S
H956 C949 0.930 . S
C957 C958 1.351 . S
C957 N960 1.368 . S
C957 H962 0.931 . S
C958 C957 1.351 . S
C958 N959 1.373 . S
C958 H986 0.930 . S
N959 C958 1.373 . S
N959 C961 1.340 . S
N960 C957 1.368 . S
N960 C961 1.321 . S
N960 Co963 2.135 . S
C961 N959 1.340 . S
C961 N960 1.321 . S
C961 H985 0.930 . S
H962 C957 0.931 . S
Co963 N960 2.135 . S
Co963 N966 2.121 . S
Co963 O971 2.055 . S
Co963 O974 2.039 . S
Co963 N977 2.140 . S
C964 O965 1.227 . S
C964 O974 1.265 . S
O965 C964 1.227 . S
N966 Co963 2.121 . S
N966 C968 1.375 . S
N966 C969 1.313 . S
C967 C968 1.338 . S
C967 N970 1.377 . S
C967 H987 0.930 . S
C968 N966 1.375 . S
C968 C967 1.338 . S
C968 H972 0.931 . S
C969 N966 1.313 . S
C969 N970 1.344 . S
C969 H973 0.930 . S
N970 C967 1.377 . S
N970 C969 1.344 . S
O971 Co963 2.055 . S
O971 C975 1.253 . S
H972 C968 0.931 . S
H973 C969 0.930 . S
O974 Co963 2.039 . S
O974 C964 1.265 . S
C975 O971 1.253 . S
C975 O976 1.227 . S
O976 C975 1.227 . S
N977 Co963 2.140 . S
N977 C980 1.346 . S
N977 C981 1.345 . S
C978 C979 1.387 . S
C978 C982 1.391 . S
C979 C978 1.387 . S
C979 C980 1.369 1_556 S
C979 H988 0.929 . S
C980 N977 1.346 . S
C980 C979 1.369 1_554 S
C980 H983 0.928 . S
C981 N977 1.345 . S
C981 C982 1.371 1_554 S
C981 H984 0.931 . S
C982 C978 1.391 . S
C982 C981 1.371 1_556 S
C982 H989 0.930 . S
H983 C980 0.928 . S
H984 C981 0.931 . S
H985 C961 0.930 . S
H986 C958 0.930 . S
H987 C967 0.930 . S
H988 C979 0.929 . S
H989 C982 0.930 . S
C990 C991 1.351 . S
C990 N993 1.368 . S
C990 H995 0.931 . S
C991 C990 1.351 . S
C991 N992 1.373 . S
C991 H1019 0.930 . S
N992 C991 1.373 . S
N992 C994 1.340 . S
N993 C990 1.368 . S
N993 C994 1.321 . S
N993 Co996 2.135 . S
C994 N992 1.340 . S
C994 N993 1.321 . S
C994 H1018 0.930 . S
H995 C990 0.931 . S
Co996 N993 2.135 . S
Co996 N999 2.121 . S
Co996 O1004 2.055 . S
Co996 O1007 2.039 . S
Co996 N1010 2.140 . S
C997 O998 1.227 . S
C997 O1007 1.265 . S
O998 C997 1.227 . S
N999 Co996 2.121 . S
N999 C1001 1.375 . S
N999 C1002 1.313 . S
C1000 C1001 1.338 . S
C1000 N1003 1.377 . S
C1000 H1020 0.930 . S
C1001 N999 1.375 . S
C1001 C1000 1.338 . S
C1001 H1005 0.931 . S
C1002 N999 1.313 . S
C1002 N1003 1.344 . S
C1002 H1006 0.930 . S
N1003 C1000 1.377 . S
N1003 C1002 1.344 . S
O1004 Co996 2.055 . S
O1004 C1008 1.253 . S
H1005 C1001 0.931 . S
H1006 C1002 0.930 . S
O1007 Co996 2.039 . S
O1007 C997 1.265 . S
C1008 O1004 1.253 . S
C1008 O1009 1.227 . S
O1009 C1008 1.227 . S
N1010 Co996 2.140 . S
N1010 C1013 1.346 . S
N1010 C1014 1.345 . S
C1011 C1012 1.387 . S
C1011 C1015 1.391 . S
C1012 C1011 1.387 . S
C1012 C1013 1.369 . S
C1012 H1021 0.929 . S
C1013 N1010 1.346 . S
C1013 C1012 1.369 . S
C1013 H1016 0.928 . S
C1014 N1010 1.345 . S
C1014 C1015 1.371 . S
C1014 H1017 0.931 . S
C1015 C1011 1.391 . S
C1015 C1014 1.371 . S
C1015 H1022 0.930 . S
H1016 C1013 0.928 . S
H1017 C1014 0.931 . S
H1018 C994 0.930 . S
H1019 C991 0.930 . S
H1020 C1000 0.930 . S
H1021 C1012 0.929 . S
H1022 C1015 0.930 . S
C1023 C1024 1.351 . S
C1023 N1026 1.368 . S
C1023 H1028 0.931 . S
C1024 C1023 1.351 . S
C1024 N1025 1.373 . S
C1024 H1052 0.930 . S
N1025 C1024 1.373 . S
N1025 C1027 1.340 . S
N1026 C1023 1.368 . S
N1026 C1027 1.321 . S
N1026 Co1029 2.135 . S
C1027 N1025 1.340 . S
C1027 N1026 1.321 . S
C1027 H1051 0.930 . S
H1028 C1023 0.931 . S
Co1029 N1026 2.135 . S
Co1029 N1032 2.121 . S
Co1029 O1037 2.055 . S
Co1029 O1040 2.039 . S
Co1029 N1043 2.140 . S
C1030 O1031 1.227 . S
C1030 O1040 1.265 . S
O1031 C1030 1.227 . S
N1032 Co1029 2.121 . S
N1032 C1034 1.375 . S
N1032 C1035 1.313 . S
C1033 C1034 1.338 . S
C1033 N1036 1.377 . S
C1033 H1053 0.930 . S
C1034 N1032 1.375 . S
C1034 C1033 1.338 . S
C1034 H1038 0.931 . S
C1035 N1032 1.313 . S
C1035 N1036 1.344 . S
C1035 H1039 0.930 . S
N1036 C1033 1.377 . S
N1036 C1035 1.344 . S
O1037 Co1029 2.055 . S
O1037 C1041 1.253 . S
H1038 C1034 0.931 . S
H1039 C1035 0.930 . S
O1040 Co1029 2.039 . S
O1040 C1030 1.265 . S
C1041 O1037 1.253 . S
C1041 O1042 1.227 . S
O1042 C1041 1.227 . S
N1043 Co1029 2.140 . S
N1043 C1046 1.346 . S
N1043 C1047 1.345 . S
C1044 C1045 1.387 . S
C1044 C1048 1.391 . S
C1045 C1044 1.387 . S
C1045 C1046 1.369 . S
C1045 H1054 0.929 . S
C1046 N1043 1.346 . S
C1046 C1045 1.369 . S
C1046 H1049 0.928 . S
C1047 N1043 1.345 . S
C1047 C1048 1.371 . S
C1047 H1050 0.931 . S
C1048 C1044 1.391 . S
C1048 C1047 1.371 . S
C1048 H1055 0.930 . S
H1049 C1046 0.928 . S
H1050 C1047 0.931 . S
H1051 C1027 0.930 . S
H1052 C1024 0.930 . S
H1053 C1033 0.930 . S
H1054 C1045 0.929 . S
H1055 C1048 0.930 . S
C1056 C1057 1.351 . S
C1056 N1059 1.368 . S
C1056 H1061 0.931 . S
C1057 C1056 1.351 . S
C1057 N1058 1.373 . S
C1057 H1085 0.930 . S
N1058 C1057 1.373 . S
N1058 C1060 1.340 . S
N1059 C1056 1.368 . S
N1059 C1060 1.321 . S
N1059 Co1062 2.135 . S
C1060 N1058 1.340 . S
C1060 N1059 1.321 . S
C1060 H1084 0.930 . S
H1061 C1056 0.931 . S
Co1062 N1059 2.135 . S
Co1062 N1065 2.121 . S
Co1062 O1070 2.055 . S
Co1062 O1073 2.039 . S
Co1062 N1076 2.140 . S
C1063 O1064 1.227 . S
C1063 O1073 1.265 . S
O1064 C1063 1.227 . S
N1065 Co1062 2.121 . S
N1065 C1067 1.375 . S
N1065 C1068 1.313 . S
C1066 C1067 1.338 . S
C1066 N1069 1.377 . S
C1066 H1086 0.930 . S
C1067 N1065 1.375 . S
C1067 C1066 1.338 . S
C1067 H1071 0.931 . S
C1068 N1065 1.313 . S
C1068 N1069 1.344 . S
C1068 H1072 0.930 . S
N1069 C1066 1.377 . S
N1069 C1068 1.344 . S
O1070 Co1062 2.055 . S
O1070 C1074 1.253 . S
H1071 C1067 0.931 . S
H1072 C1068 0.930 . S
O1073 Co1062 2.039 . S
O1073 C1063 1.265 . S
C1074 O1070 1.253 . S
C1074 O1075 1.227 . S
O1075 C1074 1.227 . S
N1076 Co1062 2.140 . S
N1076 C1079 1.346 . S
N1076 C1080 1.345 . S
C1077 C1078 1.387 . S
C1077 C1081 1.391 . S
C1078 C1077 1.387 . S
C1078 C1079 1.369 . S
C1078 H1087 0.929 . S
C1079 N1076 1.346 . S
C1079 C1078 1.369 . S
C1079 H1082 0.928 . S
C1080 N1076 1.345 . S
C1080 C1081 1.371 . S
C1080 H1083 0.931 . S
C1081 C1077 1.391 . S
C1081 C1080 1.371 . S
C1081 H1088 0.930 . S
H1082 C1079 0.928 . S
H1083 C1080 0.931 . S
H1084 C1060 0.930 . S
H1085 C1057 0.930 . S
H1086 C1066 0.930 . S
H1087 C1078 0.929 . S
H1088 C1081 0.930 . S
C1089 C1090 1.351 . S
C1089 N1092 1.368 . S
C1089 H1094 0.931 . S
C1090 C1089 1.351 . S
C1090 N1091 1.373 . S
C1090 H1118 0.930 . S
N1091 C1090 1.373 . S
N1091 C1093 1.340 . S
N1092 C1089 1.368 . S
N1092 C1093 1.321 . S
N1092 Co1095 2.135 . S
C1093 N1091 1.340 . S
C1093 N1092 1.321 . S
C1093 H1117 0.930 . S
H1094 C1089 0.931 . S
Co1095 N1092 2.135 . S
Co1095 N1098 2.121 . S
Co1095 O1103 2.055 . S
Co1095 O1106 2.039 . S
Co1095 N1109 2.140 . S
C1096 O1097 1.227 . S
C1096 O1106 1.265 . S
O1097 C1096 1.227 . S
N1098 Co1095 2.121 . S
N1098 C1100 1.375 . S
N1098 C1101 1.313 . S
C1099 C1100 1.338 . S
C1099 N1102 1.377 . S
C1099 H1119 0.930 . S
C1100 N1098 1.375 . S
C1100 C1099 1.338 . S
C1100 H1104 0.931 . S
C1101 N1098 1.313 . S
C1101 N1102 1.344 . S
C1101 H1105 0.930 . S
N1102 C1099 1.377 . S
N1102 C1101 1.344 . S
O1103 Co1095 2.055 . S
O1103 C1107 1.253 . S
H1104 C1100 0.931 . S
H1105 C1101 0.930 . S
O1106 Co1095 2.039 . S
O1106 C1096 1.265 . S
C1107 O1103 1.253 . S
C1107 O1108 1.227 . S
O1108 C1107 1.227 . S
N1109 Co1095 2.140 . S
N1109 C1112 1.346 . S
N1109 C1113 1.345 . S
C1110 C1111 1.387 . S
C1110 C1114 1.391 . S
C1111 C1110 1.387 . S
C1111 C1112 1.369 . S
C1111 H1120 0.929 . S
C1112 N1109 1.346 . S
C1112 C1111 1.369 . S
C1112 H1115 0.928 . S
C1113 N1109 1.345 . S
C1113 C1114 1.371 . S
C1113 H1116 0.931 . S
C1114 C1110 1.391 . S
C1114 C1113 1.371 . S
C1114 H1121 0.930 . S
H1115 C1112 0.928 . S
H1116 C1113 0.931 . S
H1117 C1093 0.930 . S
H1118 C1090 0.930 . S
H1119 C1099 0.930 . S
H1120 C1111 0.929 . S
H1121 C1114 0.930 . S
C1122 C1123 1.351 . S
C1122 N1125 1.368 . S
C1122 H1127 0.931 . S
C1123 C1122 1.351 . S
C1123 N1124 1.373 . S
C1123 H1151 0.930 . S
N1124 C1123 1.373 . S
N1124 C1126 1.340 . S
N1125 C1122 1.368 . S
N1125 C1126 1.321 . S
N1125 Co1128 2.135 . S
C1126 N1124 1.340 . S
C1126 N1125 1.321 . S
C1126 H1150 0.930 . S
H1127 C1122 0.931 . S
Co1128 N1125 2.135 . S
Co1128 N1131 2.121 . S
Co1128 O1136 2.055 . S
Co1128 O1139 2.039 . S
Co1128 N1142 2.140 . S
C1129 O1130 1.227 . S
C1129 O1139 1.265 . S
O1130 C1129 1.227 . S
N1131 Co1128 2.121 . S
N1131 C1133 1.375 . S
N1131 C1134 1.313 . S
C1132 C1133 1.338 . S
C1132 N1135 1.377 . S
C1132 H1152 0.930 . S
C1133 N1131 1.375 . S
C1133 C1132 1.338 . S
C1133 H1137 0.931 . S
C1134 N1131 1.313 . S
C1134 N1135 1.344 . S
C1134 H1138 0.930 . S
N1135 C1132 1.377 . S
N1135 C1134 1.344 . S
O1136 Co1128 2.055 . S
O1136 C1140 1.253 . S
H1137 C1133 0.931 . S
H1138 C1134 0.930 . S
O1139 Co1128 2.039 . S
O1139 C1129 1.265 . S
C1140 O1136 1.253 . S
C1140 O1141 1.227 . S
O1141 C1140 1.227 . S
N1142 Co1128 2.140 . S
N1142 C1145 1.346 . S
N1142 C1146 1.345 . S
C1143 C1144 1.387 . S
C1143 C1147 1.391 . S
C1144 C1143 1.387 . S
C1144 C1145 1.369 . S
C1144 H1153 0.929 . S
C1145 N1142 1.346 . S
C1145 C1144 1.369 . S
C1145 H1148 0.928 . S
C1146 N1142 1.345 . S
C1146 C1147 1.371 . S
C1146 H1149 0.931 . S
C1147 C1143 1.391 . S
C1147 C1146 1.371 . S
C1147 H1154 0.930 . S
H1148 C1145 0.928 . S
H1149 C1146 0.931 . S
H1150 C1126 0.930 . S
H1151 C1123 0.930 . S
H1152 C1132 0.930 . S
H1153 C1144 0.929 . S
H1154 C1147 0.930 . S
C1155 C1156 1.351 . S
C1155 N1158 1.368 . S
C1155 H1160 0.931 . S
C1156 C1155 1.351 . S
C1156 N1157 1.373 . S
C1156 H1184 0.930 . S
N1157 C1156 1.373 . S
N1157 C1159 1.340 . S
N1158 C1155 1.368 . S
N1158 C1159 1.321 . S
N1158 Co1161 2.135 . S
C1159 N1157 1.340 . S
C1159 N1158 1.321 . S
C1159 H1183 0.930 . S
H1160 C1155 0.931 . S
Co1161 N1158 2.135 . S
Co1161 N1164 2.121 . S
Co1161 O1169 2.055 . S
Co1161 O1172 2.039 . S
Co1161 N1175 2.140 . S
C1162 O1163 1.227 . S
C1162 O1172 1.265 . S
O1163 C1162 1.227 . S
N1164 Co1161 2.121 . S
N1164 C1166 1.375 . S
N1164 C1167 1.313 . S
C1165 C1166 1.338 . S
C1165 N1168 1.377 . S
C1165 H1185 0.930 . S
C1166 N1164 1.375 . S
C1166 C1165 1.338 . S
C1166 H1170 0.931 . S
C1167 N1164 1.313 . S
C1167 N1168 1.344 . S
C1167 H1171 0.930 . S
N1168 C1165 1.377 . S
N1168 C1167 1.344 . S
O1169 Co1161 2.055 . S
O1169 C1173 1.253 . S
H1170 C1166 0.931 . S
H1171 C1167 0.930 . S
O1172 Co1161 2.039 . S
O1172 C1162 1.265 . S
C1173 O1169 1.253 . S
C1173 O1174 1.227 . S
O1174 C1173 1.227 . S
N1175 Co1161 2.140 . S
N1175 C1178 1.346 . S
N1175 C1179 1.345 . S
C1176 C1177 1.387 . S
C1176 C1180 1.391 . S
C1177 C1176 1.387 . S
C1177 C1178 1.369 . S
C1177 H1186 0.929 . S
C1178 N1175 1.346 . S
C1178 C1177 1.369 . S
C1178 H1181 0.928 . S
C1179 N1175 1.345 . S
C1179 C1180 1.371 . S
C1179 H1182 0.931 . S
C1180 C1176 1.391 . S
C1180 C1179 1.371 . S
C1180 H1187 0.930 . S
H1181 C1178 0.928 . S
H1182 C1179 0.931 . S
H1183 C1159 0.930 . S
H1184 C1156 0.930 . S
H1185 C1165 0.930 . S
H1186 C1177 0.929 . S
H1187 C1180 0.930 . S
C1188 C1189 1.387 . S
C1188 H1192 0.950 . S
C1188 C1197 1.390 . S
C1189 C1188 1.387 . S
C1189 C1191 1.387 . S
H1190 C1197 0.950 . S
C1191 C1189 1.387 . S
C1191 C1193 1.390 . S
C1191 H1195 0.950 . S
H1192 C1188 0.950 . S
C1193 C1191 1.390 . S
C1193 C1194 1.387 . S
C1193 H1196 0.950 . S
C1194 C1193 1.387 . S
C1194 C1197 1.387 . S
H1195 C1191 0.950 . S
H1196 C1193 0.950 . S
C1197 C1188 1.390 . S
C1197 H1190 0.950 . S
C1197 C1194 1.387 . S
C1198 C1199 1.387 1_545 S
C1198 H1202 0.950 . S
C1198 C1207 1.390 . S
C1199 C1198 1.387 1_565 S
C1199 C1201 1.387 . S
H1200 C1207 0.950 . S
C1201 C1199 1.387 . S
C1201 C1203 1.390 . S
C1201 H1205 0.950 . S
H1202 C1198 0.950 . S
C1203 C1201 1.390 . S
C1203 C1204 1.387 1_565 S
C1203 H1206 0.950 . S
C1204 C1203 1.387 1_545 S
C1204 C1207 1.387 . S
H1205 C1201 0.950 . S
H1206 C1203 0.950 . S
C1207 C1198 1.390 . S
C1207 H1200 0.950 . S
C1207 C1204 1.387 . S
C1208 C1209 1.387 . S
C1208 H1212 0.950 . S
C1208 C1217 1.390 . S
C1209 C1208 1.387 . S
C1209 C1211 1.387 1_655 S
H1210 C1217 0.950 . S
C1211 C1209 1.387 1_455 S
C1211 C1213 1.390 . S
C1211 H1215 0.950 . S
H1212 C1208 0.950 . S
C1213 C1211 1.390 . S
C1213 C1214 1.387 . S
C1213 H1216 0.950 . S
C1214 C1213 1.387 . S
C1214 C1217 1.387 1_455 S
H1215 C1211 0.950 . S
H1216 C1213 0.950 . S
C1217 C1208 1.390 . S
C1217 H1210 0.950 . S
C1217 C1214 1.387 1_655 S
C1218 C1219 1.387 . S
C1218 H1222 0.950 . S
C1218 C1227 1.390 . S
C1219 C1218 1.387 . S
C1219 C1221 1.387 . S
H1220 C1227 0.950 . S
C1221 C1219 1.387 . S
C1221 C1223 1.390 . S
C1221 H1225 0.950 . S
H1222 C1218 0.950 . S
C1223 C1221 1.390 . S
C1223 C1224 1.387 . S
C1223 H1226 0.950 . S
C1224 C1223 1.387 . S
C1224 C1227 1.387 . S
H1225 C1221 0.950 . S
H1226 C1223 0.950 . S
C1227 C1218 1.390 . S
C1227 H1220 0.950 . S
C1227 C1224 1.387 . S
C1228 C1229 1.368 1_565 S
C1228 H1232 0.967 . S
C1228 C1237 1.394 . S
C1229 C1228 1.368 1_545 S
C1229 C1231 1.387 . S
H1230 C1237 0.950 . S
C1231 C1229 1.387 . S
C1231 C1233 1.394 . S
C1231 H1235 0.950 . S
H1232 C1228 0.967 . S
C1233 C1231 1.394 . S
C1233 C1234 1.367 1_545 S
C1233 H1236 0.967 . S
C1234 C1233 1.367 1_565 S
C1234 C1237 1.387 . S
H1235 C1231 0.950 . S
H1236 C1233 0.967 . S
C1237 C1228 1.394 . S
C1237 H1230 0.950 . S
C1237 C1234 1.387 . S
C1238 C1239 1.387 1_655 S
C1238 H1242 0.950 . S
C1238 C1247 1.390 . S
C1239 C1238 1.387 1_455 S
C1239 C1241 1.387 . S
H1240 C1247 0.950 . S
C1241 C1239 1.387 . S
C1241 C1243 1.390 . S
C1241 H1245 0.950 . S
H1242 C1238 0.950 . S
C1243 C1241 1.390 . S
C1243 C1244 1.387 1_455 S
C1243 H1246 0.950 . S
C1244 C1243 1.387 1_655 S
C1244 C1247 1.387 . S
H1245 C1241 0.950 . S
H1246 C1243 0.950 . S
C1247 C1238 1.390 . S
C1247 H1240 0.950 . S
C1247 C1244 1.387 . S
C1248 C1249 1.387 . S
C1248 H1252 0.950 . S
C1248 C1257 1.390 . S
C1249 C1248 1.387 . S
C1249 C1251 1.387 . S
H1250 C1257 0.950 . S
C1251 C1249 1.387 . S
C1251 C1253 1.390 . S
C1251 H1255 0.950 . S
H1252 C1248 0.950 . S
C1253 C1251 1.390 . S
C1253 C1254 1.387 . S
C1253 H1256 0.950 . S
C1254 C1253 1.387 . S
C1254 C1257 1.387 . S
H1255 C1251 0.950 . S
H1256 C1253 0.950 . S
C1257 C1248 1.390 . S
C1257 H1250 0.950 . S
C1257 C1254 1.387 . S
C1258 C1259 1.387 . S
C1258 H1262 0.950 . S
C1258 C1267 1.390 . S
C1259 C1258 1.387 . S
C1259 C1261 1.387 . S
H1260 C1267 0.950 . S
C1261 C1259 1.387 . S
C1261 C1263 1.390 . S
C1261 H1265 0.950 . S
H1262 C1258 0.950 . S
C1263 C1261 1.390 . S
C1263 C1264 1.387 . S
C1263 H1266 0.950 . S
C1264 C1263 1.387 . S
C1264 C1267 1.387 . S
H1265 C1261 0.950 . S
H1266 C1263 0.950 . S
C1267 C1258 1.390 . S
C1267 H1260 0.950 . S
C1267 C1264 1.387 . S
C1268 C1269 1.387 . S
C1268 H1272 0.950 . S
C1268 C1277 1.390 . S
C1269 C1268 1.387 . S
C1269 C1271 1.387 . S
H1270 C1277 0.950 . S
C1271 C1269 1.387 . S
C1271 C1273 1.390 . S
C1271 H1275 0.950 . S
H1272 C1268 0.950 . S
C1273 C1271 1.390 . S
C1273 C1274 1.387 . S
C1273 H1276 0.950 . S
C1274 C1273 1.387 . S
C1274 C1277 1.387 . S
H1275 C1271 0.950 . S
H1276 C1273 0.950 . S
C1277 C1268 1.390 . S
C1277 H1270 0.950 . S
C1277 C1274 1.387 . S
C1278 C1279 1.387 . S
C1278 H1282 0.950 . S
C1278 C1287 1.390 . S
C1279 C1278 1.387 . S
C1279 C1281 1.387 . S
H1280 C1287 0.950 . S
C1281 C1279 1.387 . S
C1281 C1283 1.390 . S
C1281 H1285 0.950 . S
H1282 C1278 0.950 . S
C1283 C1281 1.390 . S
C1283 C1284 1.387 . S
C1283 H1286 0.950 . S
C1284 C1283 1.387 . S
C1284 C1287 1.387 . S
H1285 C1281 0.950 . S
H1286 C1283 0.950 . S
C1287 C1278 1.390 . S
C1287 H1280 0.950 . S
C1287 C1284 1.387 . S
C1288 C1289 1.387 . S
C1288 H1292 0.950 . S
C1288 C1297 1.390 . S
C1289 C1288 1.387 . S
C1289 C1291 1.387 . S
H1290 C1297 0.950 . S
C1291 C1289 1.387 . S
C1291 C1293 1.390 . S
C1291 H1295 0.950 . S
H1292 C1288 0.950 . S
C1293 C1291 1.390 . S
C1293 C1294 1.387 . S
C1293 H1296 0.950 . S
C1294 C1293 1.387 . S
C1294 C1297 1.387 . S
H1295 C1291 0.950 . S
H1296 C1293 0.950 . S
C1297 C1288 1.390 . S
C1297 H1290 0.950 . S
C1297 C1294 1.387 . S
C1298 C1299 1.387 . S
C1298 H1302 0.950 . S
C1298 C1307 1.390 . S
C1299 C1298 1.387 . S
C1299 C1301 1.387 . S
H1300 C1307 0.950 . S
C1301 C1299 1.387 . S
C1301 C1303 1.390 . S
C1301 H1305 0.950 . S
H1302 C1298 0.950 . S
C1303 C1301 1.390 . S
C1303 C1304 1.387 . S
C1303 H1306 0.950 . S
C1304 C1303 1.387 . S
C1304 C1307 1.387 . S
H1305 C1301 0.950 . S
H1306 C1303 0.950 . S
C1307 C1298 1.390 . S
C1307 H1300 0.950 . S
C1307 C1304 1.387 . S
C1308 C1309 1.387 . S
C1308 H1312 0.950 . S
C1308 C1317 1.390 . S
C1309 C1308 1.387 . S
C1309 C1311 1.387 . S
H1310 C1317 0.950 . S
C1311 C1309 1.387 . S
C1311 C1313 1.390 . S
C1311 H1315 0.950 . S
H1312 C1308 0.950 . S
C1313 C1311 1.390 . S
C1313 C1314 1.387 . S
C1313 H1316 0.950 . S
C1314 C1313 1.387 . S
C1314 C1317 1.387 . S
H1315 C1311 0.950 . S
H1316 C1313 0.950 . S
C1317 C1308 1.390 . S
C1317 H1310 0.950 . S
C1317 C1314 1.387 . S
C1318 C1319 1.387 . S
C1318 H1322 0.950 . S
C1318 C1327 1.390 . S
C1319 C1318 1.387 . S
C1319 C1321 1.387 . S
H1320 C1327 0.950 . S
C1321 C1319 1.387 . S
C1321 C1323 1.390 . S
C1321 H1325 0.950 . S
H1322 C1318 0.950 . S
C1323 C1321 1.390 . S
C1323 C1324 1.387 . S
C1323 H1326 0.950 . S
C1324 C1323 1.387 . S
C1324 C1327 1.387 . S
H1325 C1321 0.950 . S
H1326 C1323 0.950 . S
C1327 C1318 1.390 . S
C1327 H1320 0.950 . S
C1327 C1324 1.387 . S
C1328 C1329 1.387 . S
C1328 H1332 0.950 . S
C1328 C1337 1.390 . S
C1329 C1328 1.387 . S
C1329 C1331 1.387 . S
H1330 C1337 0.950 . S
C1331 C1329 1.387 . S
C1331 C1333 1.390 . S
C1331 H1335 0.950 . S
H1332 C1328 0.950 . S
C1333 C1331 1.390 . S
C1333 C1334 1.387 . S
C1333 H1336 0.950 . S
C1334 C1333 1.387 . S
C1334 C1337 1.387 . S
H1335 C1331 0.950 . S
H1336 C1333 0.950 . S
C1337 C1328 1.390 . S
C1337 H1330 0.950 . S
C1337 C1334 1.387 . S
C1338 C1339 1.387 . S
C1338 H1342 0.950 . S
C1338 C1347 1.390 . S
C1339 C1338 1.387 . S
C1339 C1341 1.387 . S
H1340 C1347 0.950 . S
C1341 C1339 1.387 . S
C1341 C1343 1.390 . S
C1341 H1345 0.950 . S
H1342 C1338 0.950 . S
C1343 C1341 1.390 . S
C1343 C1344 1.387 . S
C1343 H1346 0.950 . S
C1344 C1343 1.387 . S
C1344 C1347 1.387 . S
H1345 C1341 0.950 . S
H1346 C1343 0.950 . S
C1347 C1338 1.390 . S
C1347 H1340 0.950 . S
C1347 C1344 1.387 . S
C1348 C1349 1.387 . S
C1348 H1352 0.950 . S
C1348 C1357 1.390 . S
C1349 C1348 1.387 . S
C1349 C1351 1.387 . S
H1350 C1357 0.950 . S
C1351 C1349 1.387 . S
C1351 C1353 1.390 . S
C1351 H1355 0.950 . S
H1352 C1348 0.950 . S
C1353 C1351 1.390 . S
C1353 C1354 1.387 . S
C1353 H1356 0.950 . S
C1354 C1353 1.387 . S
C1354 C1357 1.387 . S
H1355 C1351 0.950 . S
H1356 C1353 0.950 . S
C1357 C1348 1.390 . S
C1357 H1350 0.950 . S
C1357 C1354 1.387 . S
C1358 C1359 1.387 . S
C1358 H1362 0.950 . S
C1358 C1367 1.390 . S
C1359 C1358 1.387 . S
C1359 C1361 1.387 . S
H1360 C1367 0.950 . S
C1361 C1359 1.387 . S
C1361 C1363 1.390 . S
C1361 H1365 0.950 . S
H1362 C1358 0.950 . S
C1363 C1361 1.390 . S
C1363 C1364 1.387 . S
C1363 H1366 0.950 . S
C1364 C1363 1.387 . S
C1364 C1367 1.387 . S
H1365 C1361 0.950 . S
H1366 C1363 0.950 . S
C1367 C1358 1.390 . S
C1367 H1360 0.950 . S
C1367 C1364 1.387 . S
C1368 C1369 1.387 . S
C1368 H1372 0.950 . S
C1368 C1377 1.390 . S
C1369 C1368 1.387 . S
C1369 C1371 1.387 . S
H1370 C1377 0.950 . S
C1371 C1369 1.387 . S
C1371 C1373 1.390 . S
C1371 H1375 0.950 . S
H1372 C1368 0.950 . S
C1373 C1371 1.390 . S
C1373 C1374 1.387 . S
C1373 H1376 0.950 . S
C1374 C1373 1.387 . S
C1374 C1377 1.387 . S
H1375 C1371 0.950 . S
H1376 C1373 0.950 . S
C1377 C1368 1.390 . S
C1377 H1370 0.950 . S
C1377 C1374 1.387 . S
C1378 C1379 1.387 . S
C1378 H1382 0.950 . S
C1378 C1387 1.390 . S
C1379 C1378 1.387 . S
C1379 C1381 1.387 . S
H1380 C1387 0.950 . S
C1381 C1379 1.387 . S
C1381 C1383 1.390 . S
C1381 H1385 0.950 . S
H1382 C1378 0.950 . S
C1383 C1381 1.390 . S
C1383 C1384 1.387 . S
C1383 H1386 0.950 1_565 S
C1384 C1383 1.387 . S
C1384 C1387 1.387 . S
H1385 C1381 0.950 . S
H1386 C1383 0.950 1_545 S
C1387 C1378 1.390 . S
C1387 H1380 0.950 . S
C1387 C1384 1.387 . S
C1388 C1389 1.387 . S
C1388 H1392 0.950 . S
C1388 C1397 1.390 . S
C1389 C1388 1.387 . S
C1389 C1391 1.387 . S
H1390 C1397 0.950 . S
C1391 C1389 1.387 . S
C1391 C1393 1.390 . S
C1391 H1395 0.950 . S
H1392 C1388 0.950 . S
C1393 C1391 1.390 . S
C1393 C1394 1.387 . S
C1393 H1396 0.950 . S
C1394 C1393 1.387 . S
C1394 C1397 1.387 . S
H1395 C1391 0.950 . S
H1396 C1393 0.950 . S
C1397 C1388 1.390 . S
C1397 H1390 0.950 . S
C1397 C1394 1.387 . S
C1398 C1399 1.387 . S
C1398 H1402 0.950 . S
C1398 C1407 1.390 . S
C1399 C1398 1.387 . S
C1399 C1401 1.387 . S
H1400 C1407 0.950 . S
C1401 C1399 1.387 . S
C1401 C1403 1.390 . S
C1401 H1405 0.950 . S
H1402 C1398 0.950 . S
C1403 C1401 1.390 . S
C1403 C1404 1.387 . S
C1403 H1406 0.950 . S
C1404 C1403 1.387 . S
C1404 C1407 1.387 . S
H1405 C1401 0.950 . S
H1406 C1403 0.950 . S
C1407 C1398 1.390 . S
C1407 H1400 0.950 . S
C1407 C1404 1.387 . S
C1408 C1409 1.387 . S
C1408 H1412 0.950 . S
C1408 C1417 1.390 . S
C1409 C1408 1.387 . S
C1409 C1411 1.387 1_545 S
H1410 C1417 0.950 . S
C1411 C1409 1.387 1_565 S
C1411 C1413 1.390 1_565 S
C1411 H1415 0.950 . S
H1412 C1408 0.950 . S
C1413 C1411 1.390 1_545 S
C1413 C1414 1.387 . S
C1413 H1416 0.950 . S
C1414 C1413 1.387 . S
C1414 C1417 1.387 . S
H1415 C1411 0.950 . S
H1416 C1413 0.950 . S
C1417 C1408 1.390 . S
C1417 H1410 0.950 . S
C1417 C1414 1.387 . S
C1418 C1419 1.387 . S
C1418 H1422 0.950 . S
C1418 C1427 1.390 . S
C1419 C1418 1.387 . S
C1419 C1421 1.387 . S
H1420 C1427 0.950 . S
C1421 C1419 1.387 . S
C1421 C1423 1.390 1_655 S
C1421 H1425 0.950 . S
H1422 C1418 0.950 . S
C1423 C1421 1.390 1_455 S
C1423 C1424 1.387 1_455 S
C1423 H1426 0.950 . S
C1424 C1423 1.387 1_655 S
C1424 C1427 1.387 . S
H1425 C1421 0.950 . S
H1426 C1423 0.950 . S
C1427 C1418 1.390 . S
C1427 H1420 0.950 . S
C1427 C1424 1.387 . S
C1428 C1429 1.387 . S
C1428 H1432 0.950 . S
C1428 C1437 1.390 . S
C1429 C1428 1.387 . S
C1429 C1431 1.387 . S
H1430 C1437 0.950 . S
C1431 C1429 1.387 . S
C1431 C1433 1.390 . S
C1431 H1435 0.950 . S
H1432 C1428 0.950 . S
C1433 C1431 1.390 . S
C1433 C1434 1.387 . S
C1433 H1436 0.950 . S
C1434 C1433 1.387 . S
C1434 C1437 1.387 . S
H1435 C1431 0.950 . S
H1436 C1433 0.950 . S
C1437 C1428 1.390 . S
C1437 H1430 0.950 . S
C1437 C1434 1.387 . S
C1438 C1439 1.387 . S
C1438 H1442 0.950 . S
C1438 C1447 1.390 . S
C1439 C1438 1.387 . S
C1439 C1441 1.387 . S
H1440 C1447 0.950 1_565 S
C1441 C1439 1.387 . S
C1441 C1443 1.390 . S
C1441 H1445 0.950 . S
H1442 C1438 0.950 . S
C1443 C1441 1.390 . S
C1443 C1444 1.387 . S
C1443 H1446 0.950 . S
C1444 C1443 1.387 . S
C1444 C1447 1.387 . S
H1445 C1441 0.950 . S
H1446 C1443 0.950 . S
C1447 C1438 1.390 . S
C1447 H1440 0.950 1_545 S
C1447 C1444 1.387 . S
C1448 C1449 1.387 . S
C1448 H1452 0.950 . S
C1448 C1457 1.390 . S
C1449 C1448 1.387 . S
C1449 C1451 1.387 . S
H1450 C1457 0.950 . S
C1451 C1449 1.387 . S
C1451 C1453 1.390 . S
C1451 H1455 0.950 . S
H1452 C1448 0.950 . S
C1453 C1451 1.390 . S
C1453 C1454 1.387 . S
C1453 H1456 0.950 . S
C1454 C1453 1.387 . S
C1454 C1457 1.387 . S
H1455 C1451 0.950 . S
H1456 C1453 0.950 . S
C1457 C1448 1.390 . S
C1457 H1450 0.950 . S
C1457 C1454 1.387 . S
C1458 C1459 1.387 . S
C1458 H1462 0.950 . S
C1458 C1467 1.390 . S
C1459 C1458 1.387 . S
C1459 C1461 1.387 . S
H1460 C1467 0.950 . S
C1461 C1459 1.387 . S
C1461 C1463 1.390 . S
C1461 H1465 0.950 . S
H1462 C1458 0.950 . S
C1463 C1461 1.390 . S
C1463 C1464 1.387 . S
C1463 H1466 0.950 . S
C1464 C1463 1.387 . S
C1464 C1467 1.387 . S
H1465 C1461 0.950 . S
H1466 C1463 0.950 . S
C1467 C1458 1.390 . S
C1467 H1460 0.950 . S
C1467 C1464 1.387 . S
C1468 C1469 1.387 . S
C1468 H1472 0.950 . S
C1468 C1477 1.390 . S
C1469 C1468 1.387 . S
C1469 C1471 1.387 . S
H1470 C1477 0.950 . S
C1471 C1469 1.387 . S
C1471 C1473 1.390 . S
C1471 H1475 0.950 . S
H1472 C1468 0.950 . S
C1473 C1471 1.390 . S
C1473 C1474 1.387 . S
C1473 H1476 0.950 . S
C1474 C1473 1.387 . S
C1474 C1477 1.387 . S
H1475 C1471 0.950 . S
H1476 C1473 0.950 . S
C1477 C1468 1.390 . S
C1477 H1470 0.950 . S
C1477 C1474 1.387 . S
C1478 C1479 1.387 1_655 S
C1478 H1482 0.950 . S
C1478 C1487 1.390 1_655 S
C1479 C1478 1.387 1_455 S
C1479 C1481 1.387 . S
H1480 C1487 0.950 . S
C1481 C1479 1.387 . S
C1481 C1483 1.390 . S
C1481 H1485 0.950 . S
H1482 C1478 0.950 . S
C1483 C1481 1.390 . S
C1483 C1484 1.387 . S
C1483 H1486 0.950 . S
C1484 C1483 1.387 . S
C1484 C1487 1.387 . S
H1485 C1481 0.950 . S
H1486 C1483 0.950 . S
C1487 C1478 1.390 1_455 S
C1487 H1480 0.950 . S
C1487 C1484 1.387 . S
C1488 C1489 1.387 . S
C1488 H1492 0.950 . S
C1488 C1497 1.390 1_455 S
C1489 C1488 1.387 . S
C1489 C1491 1.387 . S
H1490 C1497 0.950 . S
C1491 C1489 1.387 . S
C1491 C1493 1.390 1_455 S
C1491 H1495 0.950 . S
H1492 C1488 0.950 . S
C1493 C1491 1.390 1_655 S
C1493 C1494 1.387 . S
C1493 H1496 0.950 . S
C1494 C1493 1.387 . S
C1494 C1497 1.387 . S
H1495 C1491 0.950 . S
H1496 C1493 0.950 . S
C1497 C1488 1.390 1_655 S
C1497 H1490 0.950 . S
C1497 C1494 1.387 . S
C1498 C1499 1.387 . S
C1498 H1502 0.950 . S
C1498 C1507 1.390 . S
C1499 C1498 1.387 . S
C1499 C1501 1.387 . S
H1500 C1507 0.950 . S
C1501 C1499 1.387 . S
C1501 C1503 1.390 . S
C1501 H1505 0.950 . S
H1502 C1498 0.950 . S
C1503 C1501 1.390 . S
C1503 C1504 1.387 . S
C1503 H1506 0.950 . S
C1504 C1503 1.387 . S
C1504 C1507 1.387 . S
H1505 C1501 0.950 . S
H1506 C1503 0.950 . S
C1507 C1498 1.390 . S
C1507 H1500 0.950 . S
C1507 C1504 1.387 . S
C1508 C1509 1.387 . S
C1508 H1512 0.950 . S
C1508 C1517 1.390 1_565 S
C1509 C1508 1.387 . S
C1509 C1511 1.387 . S
H1510 C1517 0.950 . S
C1511 C1509 1.387 . S
C1511 C1513 1.390 1_565 S
C1511 H1515 0.950 . S
H1512 C1508 0.950 . S
C1513 C1511 1.390 1_545 S
C1513 C1514 1.387 . S
C1513 H1516 0.950 . S
C1514 C1513 1.387 . S
C1514 C1517 1.387 . S
H1515 C1511 0.950 . S
H1516 C1513 0.950 . S
C1517 C1508 1.390 1_545 S
C1517 H1510 0.950 . S
C1517 C1514 1.387 . S
C1518 C1519 1.387 . S
C1518 H1522 0.950 . S
C1518 C1527 1.390 1_545 S
C1519 C1518 1.387 . S
C1519 C1521 1.387 . S
H1520 C1527 0.950 . S
C1521 C1519 1.387 . S
C1521 C1523 1.390 1_545 S
C1521 H1525 0.950 . S
H1522 C1518 0.950 . S
C1523 C1521 1.390 1_565 S
C1523 C1524 1.387 . S
C1523 H1526 0.950 . S
C1524 C1523 1.387 . S
C1524 C1527 1.387 . S
H1525 C1521 0.950 . S
H1526 C1523 0.950 . S
C1527 C1518 1.390 1_565 S
C1527 H1520 0.950 . S
C1527 C1524 1.387 . S
C1528 C1529 1.387 . S
C1528 H1532 0.950 . S
C1528 C1537 1.390 1_655 S
C1529 C1528 1.387 . S
C1529 C1531 1.387 . S
H1530 C1537 0.950 . S
C1531 C1529 1.387 . S
C1531 C1533 1.390 1_655 S
C1531 H1535 0.950 . S
H1532 C1528 0.950 . S
C1533 C1531 1.390 1_455 S
C1533 C1534 1.387 . S
C1533 H1536 0.950 . S
C1534 C1533 1.387 . S
C1534 C1537 1.387 . S
H1535 C1531 0.950 . S
H1536 C1533 0.950 . S
C1537 C1528 1.390 1_455 S
C1537 H1530 0.950 . S
C1537 C1534 1.387 . S
C1538 C1539 1.387 . S
C1538 H1542 0.950 . S
C1538 C1547 1.390 . S
C1539 C1538 1.387 . S
C1539 C1541 1.387 . S
H1540 C1547 0.950 . S
C1541 C1539 1.387 . S
C1541 C1543 1.390 . S
C1541 H1545 0.950 . S
H1542 C1538 0.950 . S
C1543 C1541 1.390 . S
C1543 C1544 1.387 . S
C1543 H1546 0.950 . S
C1544 C1543 1.387 . S
C1544 C1547 1.387 . S
H1545 C1541 0.950 . S
H1546 C1543 0.950 . S
C1547 C1538 1.390 . S
C1547 H1540 0.950 . S
C1547 C1544 1.387 . S
C1548 C1549 1.387 . S
C1548 H1552 0.950 . S
C1548 C1557 1.390 . S
C1549 C1548 1.387 . S
C1549 C1551 1.387 . S
H1550 C1557 0.950 . S
C1551 C1549 1.387 . S
C1551 C1553 1.390 . S
C1551 H1555 0.950 . S
H1552 C1548 0.950 . S
C1553 C1551 1.390 . S
C1553 C1554 1.387 . S
C1553 H1556 0.950 . S
C1554 C1553 1.387 . S
C1554 C1557 1.387 . S
H1555 C1551 0.950 . S
H1556 C1553 0.950 . S
C1557 C1548 1.390 . S
C1557 H1550 0.950 . S
C1557 C1554 1.387 . S
C1558 C1559 1.387 . S
C1558 H1562 0.950 . S
C1558 C1567 1.390 . S
C1559 C1558 1.387 . S
C1559 C1561 1.387 . S
H1560 C1567 0.950 . S
C1561 C1559 1.387 . S
C1561 C1563 1.390 . S
C1561 H1565 0.950 . S
H1562 C1558 0.950 . S
C1563 C1561 1.390 . S
C1563 C1564 1.387 . S
C1563 H1566 0.950 . S
C1564 C1563 1.387 . S
C1564 C1567 1.387 . S
H1565 C1561 0.950 . S
H1566 C1563 0.950 . S
C1567 C1558 1.390 . S
C1567 H1560 0.950 . S
C1567 C1564 1.387 . S
C1568 C1569 1.387 . S
C1568 H1572 0.950 . S
C1568 C1577 1.390 . S
C1569 C1568 1.387 . S
C1569 C1571 1.387 . S
H1570 C1577 0.950 . S
C1571 C1569 1.387 . S
C1571 C1573 1.390 . S
C1571 H1575 0.950 . S
H1572 C1568 0.950 . S
C1573 C1571 1.390 . S
C1573 C1574 1.387 . S
C1573 H1576 0.950 . S
C1574 C1573 1.387 . S
C1574 C1577 1.387 . S
H1575 C1571 0.950 . S
H1576 C1573 0.950 . S
C1577 C1568 1.390 . S
C1577 H1570 0.950 . S
C1577 C1574 1.387 . S
C1578 C1579 1.387 . S
C1578 H1582 0.950 . S
C1578 C1587 1.390 . S
C1579 C1578 1.387 . S
C1579 C1581 1.387 . S
H1580 C1587 0.950 . S
C1581 C1579 1.387 . S
C1581 C1583 1.390 . S
C1581 H1585 0.950 . S
H1582 C1578 0.950 . S
C1583 C1581 1.390 . S
C1583 C1584 1.387 . S
C1583 H1586 0.950 . S
C1584 C1583 1.387 . S
C1584 C1587 1.387 . S
H1585 C1581 0.950 . S
H1586 C1583 0.950 . S
C1587 C1578 1.390 . S
C1587 H1580 0.950 . S
C1587 C1584 1.387 . S
C1588 C1589 1.387 . S
C1588 H1592 0.950 . S
C1588 C1597 1.390 . S
C1589 C1588 1.387 . S
C1589 C1591 1.387 . S
H1590 C1597 0.950 . S
C1591 C1589 1.387 . S
C1591 C1593 1.390 . S
C1591 H1595 0.950 . S
H1592 C1588 0.950 . S
C1593 C1591 1.390 . S
C1593 C1594 1.387 . S
C1593 H1596 0.950 . S
C1594 C1593 1.387 . S
C1594 C1597 1.387 . S
H1595 C1591 0.950 . S
H1596 C1593 0.950 . S
C1597 C1588 1.390 . S
C1597 H1590 0.950 . S
C1597 C1594 1.387 . S
C1598 C1599 1.387 . S
C1598 H1602 0.950 . S
C1598 C1607 1.390 . S
C1599 C1598 1.387 . S
C1599 C1601 1.387 . S
H1600 C1607 0.950 . S
C1601 C1599 1.387 . S
C1601 C1603 1.390 . S
C1601 H1605 0.950 . S
H1602 C1598 0.950 . S
C1603 C1601 1.390 . S
C1603 C1604 1.387 . S
C1603 H1606 0.950 . S
C1604 C1603 1.387 . S
C1604 C1607 1.387 . S
H1605 C1601 0.950 . S
H1606 C1603 0.950 . S
C1607 C1598 1.390 . S
C1607 H1600 0.950 . S
C1607 C1604 1.387 . S
C1608 C1609 1.387 . S
C1608 H1612 0.950 . S
C1608 C1617 1.390 . S
C1609 C1608 1.387 . S
C1609 C1611 1.387 . S
H1610 C1617 0.950 . S
C1611 C1609 1.387 . S
C1611 C1613 1.390 . S
C1611 H1615 0.950 . S
H1612 C1608 0.950 . S
C1613 C1611 1.390 . S
C1613 C1614 1.387 . S
C1613 H1616 0.950 . S
C1614 C1613 1.387 . S
C1614 C1617 1.387 . S
H1615 C1611 0.950 . S
H1616 C1613 0.950 . S
C1617 C1608 1.390 . S
C1617 H1610 0.950 . S
C1617 C1614 1.387 . S
C1618 C1619 1.387 . S
C1618 H1622 0.950 . S
C1618 C1627 1.390 . S
C1619 C1618 1.387 . S
C1619 C1621 1.387 . S
H1620 C1627 0.950 . S
C1621 C1619 1.387 . S
C1621 C1623 1.390 . S
C1621 H1625 0.950 . S
H1622 C1618 0.950 . S
C1623 C1621 1.390 . S
C1623 C1624 1.387 . S
C1623 H1626 0.950 . S
C1624 C1623 1.387 . S
C1624 C1627 1.387 . S
H1625 C1621 0.950 . S
H1626 C1623 0.950 . S
C1627 C1618 1.390 . S
C1627 H1620 0.950 . S
C1627 C1624 1.387 . S
C1628 C1629 1.387 . S
C1628 H1632 0.950 . S
C1628 C1637 1.390 . S
C1629 C1628 1.387 . S
C1629 C1631 1.387 . S
H1630 C1637 0.950 . S
C1631 C1629 1.387 . S
C1631 C1633 1.390 . S
C1631 H1635 0.950 . S
H1632 C1628 0.950 . S
C1633 C1631 1.390 . S
C1633 C1634 1.387 . S
C1633 H1636 0.950 . S
C1634 C1633 1.387 . S
C1634 C1637 1.387 . S
H1635 C1631 0.950 . S
H1636 C1633 0.950 . S
C1637 C1628 1.390 . S
C1637 H1630 0.950 . S
C1637 C1634 1.387 . S
C1638 C1639 1.387 . S
C1638 H1642 0.950 . S
C1638 C1647 1.390 . S
C1639 C1638 1.387 . S
C1639 C1641 1.387 . S
H1640 C1647 0.950 . S
C1641 C1639 1.387 . S
C1641 C1643 1.390 . S
C1641 H1645 0.950 . S
H1642 C1638 0.950 . S
C1643 C1641 1.390 . S
C1643 C1644 1.387 . S
C1643 H1646 0.950 . S
C1644 C1643 1.387 . S
C1644 C1647 1.387 . S
H1645 C1641 0.950 . S
H1646 C1643 0.950 . S
C1647 C1638 1.390 . S
C1647 H1640 0.950 . S
C1647 C1644 1.387 . S
C1648 C1649 1.387 . S
C1648 H1652 0.950 . S
C1648 C1657 1.390 . S
C1649 C1648 1.387 . S
C1649 C1651 1.387 . S
H1650 C1657 0.950 . S
C1651 C1649 1.387 . S
C1651 C1653 1.390 . S
C1651 H1655 0.950 . S
H1652 C1648 0.950 . S
C1653 C1651 1.390 . S
C1653 C1654 1.387 . S
C1653 H1656 0.950 . S
C1654 C1653 1.387 . S
C1654 C1657 1.387 . S
H1655 C1651 0.950 . S
H1656 C1653 0.950 . S
C1657 C1648 1.390 . S
C1657 H1650 0.950 . S
C1657 C1654 1.387 . S
C1658 C1659 1.387 . S
C1658 H1662 0.950 . S
C1658 C1667 1.390 . S
C1659 C1658 1.387 . S
C1659 C1661 1.387 . S
H1660 C1667 0.950 . S
C1661 C1659 1.387 . S
C1661 C1663 1.390 . S
C1661 H1665 0.950 . S
H1662 C1658 0.950 . S
C1663 C1661 1.390 . S
C1663 C1664 1.387 . S
C1663 H1666 0.950 . S
C1664 C1663 1.387 . S
C1664 C1667 1.387 . S
H1665 C1661 0.950 . S
H1666 C1663 0.950 . S
C1667 C1658 1.390 . S
C1667 H1660 0.950 . S
C1667 C1664 1.387 . S
C1668 C1669 1.387 1_455 S
C1668 H1672 0.950 . S
C1668 C1677 1.390 . S
C1669 C1668 1.387 1_655 S
C1669 C1671 1.387 . S
H1670 C1677 0.950 . S
C1671 C1669 1.387 . S
C1671 C1673 1.390 . S
C1671 H1675 0.950 . S
H1672 C1668 0.950 . S
C1673 C1671 1.390 . S
C1673 C1674 1.387 1_655 S
C1673 H1676 0.950 . S
C1674 C1673 1.387 1_455 S
C1674 C1677 1.387 . S
H1675 C1671 0.950 . S
H1676 C1673 0.950 . S
C1677 C1668 1.390 . S
C1677 H1670 0.950 . S
C1677 C1674 1.387 . S
C1678 C1679 1.387 . S
C1678 H1682 0.950 . S
C1678 C1687 1.390 . S
C1679 C1678 1.387 . S
C1679 C1681 1.387 . S
H1680 C1687 0.950 . S
C1681 C1679 1.387 . S
C1681 C1683 1.390 . S
C1681 H1685 0.950 . S
H1682 C1678 0.950 . S
C1683 C1681 1.390 . S
C1683 C1684 1.387 . S
C1683 H1686 0.950 . S
C1684 C1683 1.387 . S
C1684 C1687 1.387 . S
H1685 C1681 0.950 . S
H1686 C1683 0.950 . S
C1687 C1678 1.390 . S
C1687 H1680 0.950 . S
C1687 C1684 1.387 . S
C1688 C1689 1.387 1_565 S
C1688 H1692 0.950 . S
C1688 C1697 1.390 . S
C1689 C1688 1.387 1_545 S
C1689 C1691 1.387 . S
H1690 C1697 0.950 . S
C1691 C1689 1.387 . S
C1691 C1693 1.390 . S
C1691 H1695 0.950 . S
H1692 C1688 0.950 . S
C1693 C1691 1.390 . S
C1693 C1694 1.387 1_545 S
C1693 H1696 0.950 . S
C1694 C1693 1.387 1_565 S
C1694 C1697 1.387 . S
H1695 C1691 0.950 . S
H1696 C1693 0.950 . S
C1697 C1688 1.390 . S
C1697 H1690 0.950 . S
C1697 C1694 1.387 . S
C1698 C1699 1.387 1_556 S
C1698 H1702 0.950 . S
C1698 C1707 1.390 . S
C1699 C1698 1.387 1_554 S
C1699 C1701 1.387 1_565 S
H1700 C1707 0.950 . S
C1701 C1699 1.387 1_545 S
C1701 C1703 1.390 . S
C1701 H1705 0.950 . S
H1702 C1698 0.950 . S
C1703 C1701 1.390 . S
C1703 C1704 1.387 1_554 S
C1703 H1706 0.950 . S
C1704 C1703 1.387 1_556 S
C1704 C1707 1.387 1_545 S
H1705 C1701 0.950 . S
H1706 C1703 0.950 . S
C1707 C1698 1.390 . S
C1707 H1700 0.950 . S
C1707 C1704 1.387 1_565 S
C1708 C1709 1.387 1_455 S
C1708 H1712 0.950 . S
C1708 C1717 1.390 1_556 S
C1709 C1708 1.387 1_655 S
C1709 C1711 1.387 . S
H1710 C1717 0.950 . S
C1711 C1709 1.387 . S
C1711 C1713 1.390 1_556 S
C1711 H1715 0.950 . S
H1712 C1708 0.950 . S
C1713 C1711 1.390 1_554 S
C1713 C1714 1.387 1_655 S
C1713 H1716 0.950 . S
C1714 C1713 1.387 1_455 S
C1714 C1717 1.387 . S
H1715 C1711 0.950 . S
H1716 C1713 0.950 . S
C1717 C1708 1.390 1_554 S
C1717 H1710 0.950 . S
C1717 C1714 1.387 . S
C1718 C1719 1.387 1_556 S
C1718 H1722 0.950 . S
C1718 C1727 1.390 . S
C1719 C1718 1.387 1_554 S
C1719 C1721 1.387 . S
H1720 C1727 0.950 . S
C1721 C1719 1.387 . S
C1721 C1723 1.390 . S
C1721 H1725 0.950 . S
H1722 C1718 0.950 . S
C1723 C1721 1.390 . S
C1723 C1724 1.387 1_554 S
C1723 H1726 0.950 . S
C1724 C1723 1.387 1_556 S
C1724 C1727 1.387 . S
H1725 C1721 0.950 . S
H1726 C1723 0.950 . S
C1727 C1718 1.390 . S
C1727 H1720 0.950 . S
C1727 C1724 1.387 . S
C1728 C1729 1.387 1_554 S
C1728 H1732 0.950 . S
C1728 C1737 1.390 . S
C1729 C1728 1.387 1_556 S
C1729 C1731 1.387 . S
H1730 C1737 0.950 . S
C1731 C1729 1.387 . S
C1731 C1733 1.390 . S
C1731 H1735 0.950 . S
H1732 C1728 0.950 . S
C1733 C1731 1.390 . S
C1733 C1734 1.387 1_556 S
C1733 H1736 0.950 . S
C1734 C1733 1.387 1_554 S
C1734 C1737 1.387 . S
H1735 C1731 0.950 . S
H1736 C1733 0.950 . S
C1737 C1728 1.390 . S
C1737 H1730 0.950 . S
C1737 C1734 1.387 . S
C1738 C1739 1.387 . S
C1738 H1742 0.950 . S
C1738 C1747 1.390 . S
C1739 C1738 1.387 . S
C1739 C1741 1.387 1_554 S
H1740 C1747 0.950 . S
C1741 C1739 1.387 1_556 S
C1741 C1743 1.390 . S
C1741 H1745 0.950 . S
H1742 C1738 0.950 . S
C1743 C1741 1.390 . S
C1743 C1744 1.387 . S
C1743 H1746 0.950 . S
C1744 C1743 1.387 . S
C1744 C1747 1.387 1_556 S
H1745 C1741 0.950 . S
H1746 C1743 0.950 . S
C1747 C1738 1.390 . S
C1747 H1740 0.950 . S
C1747 C1744 1.387 1_554 S
C1748 C1749 1.387 . S
C1748 H1752 0.950 . S
C1748 C1757 1.390 1_554 S
C1749 C1748 1.387 . S
C1749 C1751 1.387 . S
H1750 C1757 0.950 . S
C1751 C1749 1.387 . S
C1751 C1753 1.390 1_554 S
C1751 H1755 0.950 . S
H1752 C1748 0.950 . S
C1753 C1751 1.390 1_556 S
C1753 C1754 1.387 . S
C1753 H1756 0.950 . S
C1754 C1753 1.387 . S
C1754 C1757 1.387 . S
H1755 C1751 0.950 . S
H1756 C1753 0.950 . S
C1757 C1748 1.390 1_556 S
C1757 H1750 0.950 . S
C1757 C1754 1.387 . S
C1758 C1759 1.387 . S
C1758 H1762 0.950 . S
C1758 C1767 1.390 . S
C1759 C1758 1.387 . S
C1759 C1761 1.387 . S
H1760 C1767 0.950 . S
C1761 C1759 1.387 . S
C1761 C1763 1.390 . S
C1761 H1765 0.950 . S
H1762 C1758 0.950 . S
C1763 C1761 1.390 . S
C1763 C1764 1.387 . S
C1763 H1766 0.950 . S
C1764 C1763 1.387 . S
C1764 C1767 1.387 . S
H1765 C1761 0.950 . S
H1766 C1763 0.950 . S
C1767 C1758 1.390 . S
C1767 H1760 0.950 . S
C1767 C1764 1.387 . S
C1768 C1769 1.387 . S
C1768 H1772 0.950 . S
C1768 C1777 1.390 . S
C1769 C1768 1.387 . S
C1769 C1771 1.387 . S
H1770 C1777 0.950 . S
C1771 C1769 1.387 . S
C1771 C1773 1.390 . S
C1771 H1775 0.950 . S
H1772 C1768 0.950 . S
C1773 C1771 1.390 . S
C1773 C1774 1.387 . S
C1773 H1776 0.950 . S
C1774 C1773 1.387 . S
C1774 C1777 1.387 . S
H1775 C1771 0.950 . S
H1776 C1773 0.950 . S
C1777 C1768 1.390 . S
C1777 H1770 0.950 . S
C1777 C1774 1.387 . S
C1778 C1779 1.387 . S
C1778 H1782 0.950 . S
C1778 C1787 1.390 . S
C1779 C1778 1.387 . S
C1779 C1781 1.387 . S
H1780 C1787 0.950 . S
C1781 C1779 1.387 . S
C1781 C1783 1.390 . S
C1781 H1785 0.950 . S
H1782 C1778 0.950 . S
C1783 C1781 1.390 . S
C1783 C1784 1.387 . S
C1783 H1786 0.950 . S
C1784 C1783 1.387 . S
C1784 C1787 1.387 . S
H1785 C1781 0.950 . S
H1786 C1783 0.950 . S
C1787 C1778 1.390 . S
C1787 H1780 0.950 . S
C1787 C1784 1.387 . S
C1788 C1789 1.382 1_556 S
C1788 H1792 0.948 1_556 S
C1788 C1797 1.397 . S
C1789 C1788 1.382 1_554 S
C1789 C1791 1.387 . S
H1790 C1797 0.950 . S
C1791 C1789 1.387 . S
C1791 C1793 1.390 1_554 S
C1791 H1795 0.950 . S
H1792 C1788 0.948 1_554 S
C1793 C1791 1.390 1_556 S
C1793 C1794 1.387 . S
C1793 H1796 0.950 . S
C1794 C1793 1.387 . S
C1794 C1797 1.387 . S
H1795 C1791 0.950 . S
H1796 C1793 0.950 . S
C1797 C1788 1.397 . S
C1797 H1790 0.950 . S
C1797 C1794 1.387 . S
C1798 C1799 1.387 . S
C1798 H1802 0.950 . S
C1798 C1807 1.390 . S
C1799 C1798 1.387 . S
C1799 C1801 1.387 1_554 S
H1800 C1807 0.950 . S
C1801 C1799 1.387 1_556 S
C1801 C1803 1.390 . S
C1801 H1805 0.950 . S
H1802 C1798 0.950 . S
C1803 C1801 1.390 . S
C1803 C1804 1.387 . S
C1803 H1806 0.950 . S
C1804 C1803 1.387 . S
C1804 C1807 1.387 1_556 S
H1805 C1801 0.950 . S
H1806 C1803 0.950 . S
C1807 C1798 1.390 . S
C1807 H1800 0.950 . S
C1807 C1804 1.387 1_554 S
C1808 C1809 1.387 . S
C1808 H1812 0.950 . S
C1808 C1817 1.390 1_554 S
C1809 C1808 1.387 . S
C1809 C1811 1.387 . S
H1810 C1817 0.950 . S
C1811 C1809 1.387 . S
C1811 C1813 1.390 1_554 S
C1811 H1815 0.950 . S
H1812 C1808 0.950 . S
C1813 C1811 1.390 1_556 S
C1813 C1814 1.387 . S
C1813 H1816 0.950 . S
C1814 C1813 1.387 . S
C1814 C1817 1.387 . S
H1815 C1811 0.950 . S
H1816 C1813 0.950 . S
C1817 C1808 1.390 1_556 S
C1817 H1810 0.950 . S
C1817 C1814 1.387 . S
C1818 C1819 1.387 . S
C1818 H1822 0.950 . S
C1818 C1827 1.390 . S
C1819 C1818 1.387 . S
C1819 C1821 1.387 . S
H1820 C1827 0.950 . S
C1821 C1819 1.387 . S
C1821 C1823 1.390 . S
C1821 H1825 0.950 . S
H1822 C1818 0.950 . S
C1823 C1821 1.390 . S
C1823 C1824 1.387 . S
C1823 H1826 0.950 . S
C1824 C1823 1.387 . S
C1824 C1827 1.387 . S
H1825 C1821 0.950 . S
H1826 C1823 0.950 . S
C1827 C1818 1.390 . S
C1827 H1820 0.950 . S
C1827 C1824 1.387 . S
C1828 C1829 1.387 . S
C1828 H1832 0.950 . S
C1828 C1837 1.390 . S
C1829 C1828 1.387 . S
C1829 C1831 1.387 . S
H1830 C1837 0.950 . S
C1831 C1829 1.387 . S
C1831 C1833 1.390 . S
C1831 H1835 0.950 . S
H1832 C1828 0.950 . S
C1833 C1831 1.390 . S
C1833 C1834 1.387 . S
C1833 H1836 0.950 . S
C1834 C1833 1.387 . S
C1834 C1837 1.387 . S
H1835 C1831 0.950 . S
H1836 C1833 0.950 . S
C1837 C1828 1.390 . S
C1837 H1830 0.950 . S
C1837 C1834 1.387 . S
C1838 C1839 1.387 . S
C1838 H1842 0.950 . S
C1838 C1847 1.390 . S
C1839 C1838 1.387 . S
C1839 C1841 1.387 . S
H1840 C1847 0.950 . S
C1841 C1839 1.387 . S
C1841 C1843 1.390 . S
C1841 H1845 0.950 . S
H1842 C1838 0.950 . S
C1843 C1841 1.390 . S
C1843 C1844 1.387 . S
C1843 H1846 0.950 . S
C1844 C1843 1.387 . S
C1844 C1847 1.387 . S
H1845 C1841 0.950 . S
H1846 C1843 0.950 . S
C1847 C1838 1.390 . S
C1847 H1840 0.950 . S
C1847 C1844 1.387 . S
C1848 C1849 1.387 . S
C1848 H1852 0.950 . S
C1848 C1857 1.390 . S
C1849 C1848 1.387 . S
C1849 C1851 1.387 . S
H1850 C1857 0.950 . S
C1851 C1849 1.387 . S
C1851 C1853 1.390 . S
C1851 H1855 0.950 . S
H1852 C1848 0.950 . S
C1853 C1851 1.390 . S
C1853 C1854 1.387 . S
C1853 H1856 0.950 . S
C1854 C1853 1.387 . S
C1854 C1857 1.387 . S
H1855 C1851 0.950 . S
H1856 C1853 0.950 . S
C1857 C1848 1.390 . S
C1857 H1850 0.950 . S
C1857 C1854 1.387 . S
C1858 C1859 1.387 . S
C1858 H1862 0.950 . S
C1858 C1867 1.390 . S
C1859 C1858 1.387 . S
C1859 C1861 1.387 . S
H1860 C1867 0.950 . S
C1861 C1859 1.387 . S
C1861 C1863 1.390 . S
C1861 H1865 0.950 . S
H1862 C1858 0.950 . S
C1863 C1861 1.390 . S
C1863 C1864 1.387 . S
C1863 H1866 0.950 . S
C1864 C1863 1.387 . S
C1864 C1867 1.387 . S
H1865 C1861 0.950 . S
H1866 C1863 0.950 . S
C1867 C1858 1.390 . S
C1867 H1860 0.950 . S
C1867 C1864 1.387 . S
C1868 C1869 1.387 . S
C1868 H1872 0.950 . S
C1868 C1877 1.390 . S
C1869 C1868 1.387 . S
C1869 C1871 1.387 . S
H1870 C1877 0.950 . S
C1871 C1869 1.387 . S
C1871 C1873 1.390 . S
C1871 H1875 0.950 . S
H1872 C1868 0.950 . S
C1873 C1871 1.390 . S
C1873 C1874 1.387 . S
C1873 H1876 0.950 . S
C1874 C1873 1.387 . S
C1874 C1877 1.387 . S
H1875 C1871 0.950 . S
H1876 C1873 0.950 . S
C1877 C1868 1.390 . S
C1877 H1870 0.950 . S
C1877 C1874 1.387 . S
C1878 C1879 1.387 . S
C1878 H1882 0.950 . S
C1878 C1887 1.390 . S
C1879 C1878 1.387 . S
C1879 C1881 1.387 . S
H1880 C1887 0.950 . S
C1881 C1879 1.387 . S
C1881 C1883 1.390 . S
C1881 H1885 0.950 . S
H1882 C1878 0.950 . S
C1883 C1881 1.390 . S
C1883 C1884 1.387 . S
C1883 H1886 0.950 . S
C1884 C1883 1.387 . S
C1884 C1887 1.387 . S
H1885 C1881 0.950 . S
H1886 C1883 0.950 . S
C1887 C1878 1.390 . S
C1887 H1880 0.950 . S
C1887 C1884 1.387 . S
C1888 C1889 1.387 . S
C1888 H1892 0.950 . S
C1888 C1897 1.390 . S
C1889 C1888 1.387 . S
C1889 C1891 1.387 . S
H1890 C1897 0.950 . S
C1891 C1889 1.387 . S
C1891 C1893 1.390 . S
C1891 H1895 0.950 . S
H1892 C1888 0.950 . S
C1893 C1891 1.390 . S
C1893 C1894 1.387 . S
C1893 H1896 0.950 . S
C1894 C1893 1.387 . S
C1894 C1897 1.387 . S
H1895 C1891 0.950 . S
H1896 C1893 0.950 . S
C1897 C1888 1.390 . S
C1897 H1890 0.950 . S
C1897 C1894 1.387 . S
C1898 C1899 1.387 . S
C1898 H1902 0.950 . S
C1898 C1907 1.390 . S
C1899 C1898 1.387 . S
C1899 C1901 1.387 . S
H1900 C1907 0.950 . S
C1901 C1899 1.387 . S
C1901 C1903 1.390 . S
C1901 H1905 0.950 . S
H1902 C1898 0.950 . S
C1903 C1901 1.390 . S
C1903 C1904 1.387 . S
C1903 H1906 0.950 . S
C1904 C1903 1.387 . S
C1904 C1907 1.387 . S
H1905 C1901 0.950 . S
H1906 C1903 0.950 . S
C1907 C1898 1.390 . S
C1907 H1900 0.950 . S
C1907 C1904 1.387 . S
C1908 C1909 1.387 . S
C1908 H1912 0.950 . S
C1908 C1917 1.390 . S
C1909 C1908 1.387 . S
C1909 C1911 1.387 . S
H1910 C1917 0.950 . S
C1911 C1909 1.387 . S
C1911 C1913 1.390 . S
C1911 H1915 0.950 . S
H1912 C1908 0.950 . S
C1913 C1911 1.390 . S
C1913 C1914 1.387 . S
C1913 H1916 0.950 . S
C1914 C1913 1.387 . S
C1914 C1917 1.387 . S
H1915 C1911 0.950 . S
H1916 C1913 0.950 . S
C1917 C1908 1.390 . S
C1917 H1910 0.950 . S
C1917 C1914 1.387 . S
C1918 C1919 1.387 . S
C1918 H1922 0.950 . S
C1918 C1927 1.390 . S
C1919 C1918 1.387 . S
C1919 C1921 1.387 . S
H1920 C1927 0.950 . S
C1921 C1919 1.387 . S
C1921 C1923 1.390 . S
C1921 H1925 0.950 . S
H1922 C1918 0.950 . S
C1923 C1921 1.390 . S
C1923 C1924 1.387 . S
C1923 H1926 0.950 . S
C1924 C1923 1.387 . S
C1924 C1927 1.387 . S
H1925 C1921 0.950 . S
H1926 C1923 0.950 . S
C1927 C1918 1.390 . S
C1927 H1920 0.950 . S
C1927 C1924 1.387 . S
C1928 C1929 1.387 . S
C1928 H1932 0.950 . S
C1928 C1937 1.390 . S
C1929 C1928 1.387 . S
C1929 C1931 1.387 . S
H1930 C1937 0.950 . S
C1931 C1929 1.387 . S
C1931 C1933 1.390 . S
C1931 H1935 0.950 . S
H1932 C1928 0.950 . S
C1933 C1931 1.390 . S
C1933 C1934 1.387 . S
C1933 H1936 0.950 . S
C1934 C1933 1.387 . S
C1934 C1937 1.387 . S
H1935 C1931 0.950 . S
H1936 C1933 0.950 . S
C1937 C1928 1.390 . S
C1937 H1930 0.950 . S
C1937 C1934 1.387 . S
C1938 C1939 1.387 . S
C1938 H1942 0.950 . S
C1938 C1947 1.390 . S
C1939 C1938 1.387 . S
C1939 C1941 1.387 . S
H1940 C1947 0.950 . S
C1941 C1939 1.387 . S
C1941 C1943 1.390 . S
C1941 H1945 0.950 . S
H1942 C1938 0.950 . S
C1943 C1941 1.390 . S
C1943 C1944 1.387 . S
C1943 H1946 0.950 . S
C1944 C1943 1.387 . S
C1944 C1947 1.387 . S
H1945 C1941 0.950 . S
H1946 C1943 0.950 . S
C1947 C1938 1.390 . S
C1947 H1940 0.950 . S
C1947 C1944 1.387 . S
C1948 C1949 1.387 . S
C1948 H1952 0.950 . S
C1948 C1957 1.390 . S
C1949 C1948 1.387 . S
C1949 C1951 1.387 . S
H1950 C1957 0.950 . S
C1951 C1949 1.387 . S
C1951 C1953 1.390 . S
C1951 H1955 0.950 . S
H1952 C1948 0.950 . S
C1953 C1951 1.390 . S
C1953 C1954 1.387 . S
C1953 H1956 0.950 . S
C1954 C1953 1.387 . S
C1954 C1957 1.387 . S
H1955 C1951 0.950 . S
H1956 C1953 0.950 . S
C1957 C1948 1.390 . S
C1957 H1950 0.950 . S
C1957 C1954 1.387 . S
C1958 C1959 1.387 . S
C1958 H1962 0.950 . S
C1958 C1967 1.390 . S
C1959 C1958 1.387 . S
C1959 C1961 1.387 . S
H1960 C1967 0.950 . S
C1961 C1959 1.387 . S
C1961 C1963 1.390 . S
C1961 H1965 0.950 . S
H1962 C1958 0.950 . S
C1963 C1961 1.390 . S
C1963 C1964 1.387 . S
C1963 H1966 0.950 . S
C1964 C1963 1.387 . S
C1964 C1967 1.387 . S
H1965 C1961 0.950 . S
H1966 C1963 0.950 . S
C1967 C1958 1.390 . S
C1967 H1960 0.950 . S
C1967 C1964 1.387 . S
C1968 C1969 1.387 . S
C1968 H1972 0.950 . S
C1968 C1977 1.390 . S
C1969 C1968 1.387 . S
C1969 C1971 1.387 . S
H1970 C1977 0.950 . S
C1971 C1969 1.387 . S
C1971 C1973 1.390 . S
C1971 H1975 0.950 . S
H1972 C1968 0.950 . S
C1973 C1971 1.390 . S
C1973 C1974 1.387 . S
C1973 H1976 0.950 . S
C1974 C1973 1.387 . S
C1974 C1977 1.387 . S
H1975 C1971 0.950 . S
H1976 C1973 0.950 . S
C1977 C1968 1.390 . S
C1977 H1970 0.950 . S
C1977 C1974 1.387 . S
C1978 C1979 1.387 . S
C1978 H1982 0.950 . S
C1978 C1987 1.390 . S
C1979 C1978 1.387 . S
C1979 C1981 1.387 . S
H1980 C1987 0.950 . S
C1981 C1979 1.387 . S
C1981 C1983 1.390 . S
C1981 H1985 0.950 . S
H1982 C1978 0.950 . S
C1983 C1981 1.390 . S
C1983 C1984 1.387 . S
C1983 H1986 0.950 . S
C1984 C1983 1.387 . S
C1984 C1987 1.387 . S
H1985 C1981 0.950 . S
H1986 C1983 0.950 . S
C1987 C1978 1.390 . S
C1987 H1980 0.950 . S
C1987 C1984 1.387 . S
C1988 C1989 1.387 . S
C1988 H1992 0.950 . S
C1988 C1997 1.390 . S
C1989 C1988 1.387 . S
C1989 C1991 1.387 . S
H1990 C1997 0.950 . S
C1991 C1989 1.387 . S
C1991 C1993 1.390 . S
C1991 H1995 0.950 . S
H1992 C1988 0.950 . S
C1993 C1991 1.390 . S
C1993 C1994 1.387 . S
C1993 H1996 0.950 . S
C1994 C1993 1.387 . S
C1994 C1997 1.387 . S
H1995 C1991 0.950 . S
H1996 C1993 0.950 . S
C1997 C1988 1.390 . S
C1997 H1990 0.950 . S
C1997 C1994 1.387 . S
C1998 C1999 1.387 . S
C1998 H2002 0.950 . S
C1998 C2007 1.390 . S
C1999 C1998 1.387 . S
C1999 C2001 1.387 . S
H2000 C2007 0.950 . S
C2001 C1999 1.387 . S
C2001 C2003 1.390 . S
C2001 H2005 0.950 . S
H2002 C1998 0.950 . S
C2003 C2001 1.390 . S
C2003 C2004 1.387 . S
C2003 H2006 0.950 . S
C2004 C2003 1.387 . S
C2004 C2007 1.387 . S
H2005 C2001 0.950 . S
H2006 C2003 0.950 . S
C2007 C1998 1.390 . S
C2007 H2000 0.950 . S
C2007 C2004 1.387 . S
C2008 C2009 1.387 . S
C2008 H2012 0.950 . S
C2008 C2017 1.390 . S
C2009 C2008 1.387 . S
C2009 C2011 1.387 . S
H2010 C2017 0.950 . S
C2011 C2009 1.387 . S
C2011 C2013 1.390 . S
C2011 H2015 0.950 . S
H2012 C2008 0.950 . S
C2013 C2011 1.390 . S
C2013 C2014 1.387 . S
C2013 H2016 0.950 . S
C2014 C2013 1.387 . S
C2014 C2017 1.387 . S
H2015 C2011 0.950 . S
H2016 C2013 0.950 . S
C2017 C2008 1.390 . S
C2017 H2010 0.950 . S
C2017 C2014 1.387 . S
C2018 C2019 1.387 . S
C2018 H2022 0.950 . S
C2018 C2027 1.390 . S
C2019 C2018 1.387 . S
C2019 C2021 1.387 . S
H2020 C2027 0.950 . S
C2021 C2019 1.387 . S
C2021 C2023 1.390 . S
C2021 H2025 0.950 . S
H2022 C2018 0.950 . S
C2023 C2021 1.390 . S
C2023 C2024 1.387 . S
C2023 H2026 0.950 . S
C2024 C2023 1.387 . S
C2024 C2027 1.387 . S
H2025 C2021 0.950 . S
H2026 C2023 0.950 . S
C2027 C2018 1.390 . S
C2027 H2020 0.950 . S
C2027 C2024 1.387 . S
C2028 C2029 1.387 . S
C2028 H2032 0.950 . S
C2028 C2037 1.390 . S
C2029 C2028 1.387 . S
C2029 C2031 1.387 . S
H2030 C2037 0.950 . S
C2031 C2029 1.387 . S
C2031 C2033 1.390 . S
C2031 H2035 0.950 . S
H2032 C2028 0.950 . S
C2033 C2031 1.390 . S
C2033 C2034 1.387 . S
C2033 H2036 0.950 . S
C2034 C2033 1.387 . S
C2034 C2037 1.387 . S
H2035 C2031 0.950 . S
H2036 C2033 0.950 . S
C2037 C2028 1.390 . S
C2037 H2030 0.950 . S
C2037 C2034 1.387 . S
C2038 C2039 1.387 . S
C2038 H2042 0.950 . S
C2038 C2047 1.390 . S
C2039 C2038 1.387 . S
C2039 C2041 1.387 . S
H2040 C2047 0.950 . S
C2041 C2039 1.387 . S
C2041 C2043 1.390 . S
C2041 H2045 0.950 . S
H2042 C2038 0.950 . S
C2043 C2041 1.390 . S
C2043 C2044 1.387 . S
C2043 H2046 0.950 . S
C2044 C2043 1.387 . S
C2044 C2047 1.387 . S
H2045 C2041 0.950 . S
H2046 C2043 0.950 . S
C2047 C2038 1.390 . S
C2047 H2040 0.950 . S
C2047 C2044 1.387 . S
C2048 C2049 1.387 . S
C2048 H2052 0.950 . S
C2048 C2057 1.390 . S
C2049 C2048 1.387 . S
C2049 C2051 1.387 . S
H2050 C2057 0.950 . S
C2051 C2049 1.387 . S
C2051 C2053 1.390 . S
C2051 H2055 0.950 . S
H2052 C2048 0.950 . S
C2053 C2051 1.390 . S
C2053 C2054 1.387 . S
C2053 H2056 0.950 . S
C2054 C2053 1.387 . S
C2054 C2057 1.387 . S
H2055 C2051 0.950 . S
H2056 C2053 0.950 . S
C2057 C2048 1.390 . S
C2057 H2050 0.950 . S
C2057 C2054 1.387 . S
C2058 C2059 1.387 . S
C2058 H2062 0.950 . S
C2058 C2067 1.390 . S
C2059 C2058 1.387 . S
C2059 C2061 1.387 . S
H2060 C2067 0.950 . S
C2061 C2059 1.387 . S
C2061 C2063 1.390 . S
C2061 H2065 0.950 . S
H2062 C2058 0.950 . S
C2063 C2061 1.390 . S
C2063 C2064 1.387 . S
C2063 H2066 0.950 . S
C2064 C2063 1.387 . S
C2064 C2067 1.387 . S
H2065 C2061 0.950 . S
H2066 C2063 0.950 . S
C2067 C2058 1.390 . S
C2067 H2060 0.950 . S
C2067 C2064 1.387 . S
C2068 C2069 1.387 . S
C2068 H2072 0.950 . S
C2068 C2077 1.390 . S
C2069 C2068 1.387 . S
C2069 C2071 1.387 . S
H2070 C2077 0.950 . S
C2071 C2069 1.387 . S
C2071 C2073 1.390 . S
C2071 H2075 0.950 . S
H2072 C2068 0.950 . S
C2073 C2071 1.390 . S
C2073 C2074 1.387 . S
C2073 H2076 0.950 . S
C2074 C2073 1.387 . S
C2074 C2077 1.387 . S
H2075 C2071 0.950 . S
H2076 C2073 0.950 . S
C2077 C2068 1.390 . S
C2077 H2070 0.950 . S
C2077 C2074 1.387 . S
C2078 C2079 1.387 . S
C2078 H2082 0.950 . S
C2078 C2087 1.390 . S
C2079 C2078 1.387 . S
C2079 C2081 1.387 . S
H2080 C2087 0.950 . S
C2081 C2079 1.387 . S
C2081 C2083 1.390 . S
C2081 H2085 0.950 . S
H2082 C2078 0.950 . S
C2083 C2081 1.390 . S
C2083 C2084 1.387 . S
C2083 H2086 0.950 . S
C2084 C2083 1.387 . S
C2084 C2087 1.387 . S
H2085 C2081 0.950 . S
H2086 C2083 0.950 . S
C2087 C2078 1.390 . S
C2087 H2080 0.950 . S
C2087 C2084 1.387 . S
C1189 C120 0.735 . S
C1194 C21 0.738 . S
C1199 C54 0.738 1_565 S
C1204 C153 0.736 1_545 S
C1209 C186 0.732 1_655 S
C1214 C87 0.736 1_455 S
C1219 C318 0.736 . S
C1224 C219 0.738 . S
C1229 C252 0.737 1_545 S
C1234 C351 0.738 1_565 S
C1239 C384 0.732 1_455 S
C1244 C285 0.734 1_655 S
C1249 C516 0.736 . S
C1254 C417 0.738 . S
C1259 C450 0.737 . S
C1264 C549 0.738 . S
C1269 C582 0.738 . S
C1274 C483 0.736 . S
C1279 C615 0.732 . S
C1284 C714 0.734 . S
C1289 C648 0.733 . S
C1294 C747 0.733 . S
C1299 C780 0.732 . S
C1304 C681 0.733 . S
C1309 C912 0.735 . S
C1314 C813 0.732 . S
C1319 C945 0.733 . S
C1324 C846 0.733 . S
C1329 C978 0.732 . S
C1334 C879 0.734 . S
C1339 C1110 0.736 . S
C1344 C1011 0.738 . S
C1349 C1044 0.733 . S
C1354 C1143 0.733 . S
C1359 C1176 0.732 . S
C1364 C1077 0.734 . S
C1369 C7 1.784 . S
C1374 C964 1.784 . S
C1379 C898 1.783 . S
C1384 C40 1.784 1_565 S
C1389 C73 1.782 1_455 S
C1394 C931 1.783 . S
C1399 C436 1.781 . S
C1404 C106 1.783 . S
C1409 C139 1.784 1_545 S
C1414 C469 1.784 . S
C1419 C403 1.784 . S
C1424 C172 1.784 1_655 S
C1429 C766 1.781 . S
C1434 C205 1.781 . S
C1439 C700 1.783 . S
C1444 C238 1.784 1_545 S
C1449 C733 1.784 . S
C1454 C271 1.782 1_655 S
C1459 C304 1.783 . S
C1464 C1030 1.781 . S
C1469 C1063 1.783 . S
C1474 C337 1.781 1_565 S
C1479 C370 1.784 1_455 S
C1484 C997 1.784 . S
C1489 C832 1.784 . S
C1494 C502 1.783 . S
C1499 C865 1.782 . S
C1504 C535 1.784 . S
C1509 C799 1.781 . S
C1514 C568 1.781 . S
C1519 C601 1.784 . S
C1524 C1162 1.784 . S
C1529 C634 1.781 . S
C1534 C1096 1.782 . S
C1539 C1129 1.784 . S
C1544 C667 1.783 . S
C1549 N13 1.390 . S
C1554 N607 1.390 . S
C1559 N640 1.389 . S
C1564 N46 1.389 . S
C1569 N79 1.390 . S
C1574 N673 1.390 . S
C1579 N1102 1.392 . S
C1584 N112 1.392 . S
C1589 N145 1.392 . S
C1594 N1135 1.392 . S
C1599 N1168 1.389 . S
C1604 N178 1.389 . S
C1609 N211 1.392 . S
C1614 N805 1.392 . S
C1619 N244 1.392 . S
C1624 N838 1.392 . S
C1629 N277 1.391 . S
C1634 N871 1.391 . S
C1639 N508 1.391 . S
C1644 N310 1.391 . S
C1649 N541 1.389 . S
C1654 N343 1.389 . S
C1659 N376 1.390 . S
C1664 N574 1.390 . S
C1669 N409 1.392 . S
C1674 N1003 1.392 . S
C1679 N1036 1.389 . S
C1684 N442 1.389 . S
C1689 N475 1.392 . S
C1694 N1069 1.392 . S
C1699 N904 1.389 . S
C1704 N706 1.389 . S
C1709 N739 1.389 . S
C1714 N937 1.389 . S
C1719 N970 1.392 . S
C1724 N772 1.392 . S
C1729 N233 1.530 . S
C1734 C18 1.612 . S
C1739 C51 1.612 . S
C1744 N266 1.531 . S
C1749 C84 1.612 . S
C1754 N200 1.530 . S
C1759 C117 1.612 . S
C1764 N365 1.532 . S
C1769 C150 1.612 . S
C1774 N299 1.529 . S
C1779 C183 1.612 . S
C1784 N332 1.531 . S
C1789 N35 1.532 . S
C1794 C216 1.612 . S
C1799 N68 1.530 . S
C1804 C249 1.612 . S
C1809 N2 1.530 . S
C1814 C282 1.612 . S
C1819 C315 1.612 . S
C1824 N167 1.532 . S
C1829 C348 1.612 . S
C1834 N101 1.529 . S
C1839 C381 1.612 . S
C1844 N134 1.530 . S
C1849 C414 1.612 . S
C1854 N629 1.531 . S
C1859 N662 1.533 . S
C1864 C447 1.613 . S
C1869 N596 1.530 . S
C1874 C480 1.612 . S
C1879 C513 1.612 . S
C1884 N761 1.532 . S
C1889 N695 1.530 . S
C1894 C546 1.612 . S
C1899 N728 1.532 . S
C1904 C579 1.613 . S
C1909 C612 1.612 . S
C1914 N431 1.533 . S
C1919 C645 1.613 . S
C1924 N464 1.533 . S
C1929 N398 1.532 . S
C1934 C678 1.613 . S
C1939 N563 1.531 . S
C1944 C711 1.612 . S
C1949 N497 1.530 . S
C1954 C744 1.612 . S
C1959 N530 1.533 . S
C1964 C777 1.613 . S
C1969 C810 1.612 . S
C1974 N1025 1.532 . S
C1979 N1058 1.533 . S
C1984 C843 1.613 . S
C1989 N992 1.530 . S
C1994 C876 1.612 . S
C1999 C909 1.612 . S
C2004 N1157 1.531 . S
C2009 C942 1.612 . S
C2014 N1091 1.529 . S
C2019 C975 1.612 . S
C2024 N1124 1.530 . S
C2029 N827 1.530 . S
C2034 C1008 1.612 . S
C2039 N860 1.532 . S
C2044 C1041 1.613 . S
C2049 C1074 1.612 . S
C2054 N794 1.530 . S
C2059 C1107 1.612 . S
C2064 N959 1.530 . S
C2069 C1140 1.613 . S
C2074 N893 1.533 . S
C2079 C1173 1.613 . S
C2084 N926 1.532 . S
