# Generated by pormake.
# Topology ure, (4)-cn, num edge types: 1
# Building blocks:
#     Node 0, Type 0, BuildingBlock: NAHDIM_clean_sbu_0, # of connection points: 4
#     Node 1, Type 0, BuildingBlock: NAHDIM_clean_sbu_0, # of connection points: 4
#     Node 2, Type 0, BuildingBlock: NAHDIM_clean_sbu_0, # of connection points: 4
#     Node 3, Type 0, BuildingBlock: NAHDIM_clean_sbu_0, # of connection points: 4
#     Node 4, Type 0, BuildingBlock: NAHDIM_clean_sbu_0, # of connection points: 4
#     Node 5, Type 0, BuildingBlock: NAHDIM_clean_sbu_0, # of connection points: 4
#     Node 6, Type 0, BuildingBlock: NAHDIM_clean_sbu_0, # of connection points: 4
#     Node 7, Type 0, BuildingBlock: NAHDIM_clean_sbu_0, # of connection points: 4
#     Node 8, Type 0, BuildingBlock: NAHDIM_clean_sbu_0, # of connection points: 4
#     Node 9, Type 0, BuildingBlock: NAHDIM_clean_sbu_0, # of connection points: 4
#     Node 10, Type 0, BuildingBlock: NAHDIM_clean_sbu_0, # of connection points: 4
#     Node 11, Type 0, BuildingBlock: NAHDIM_clean_sbu_0, # of connection points: 4
#     Node 12, Type 0, BuildingBlock: NAHDIM_clean_sbu_0, # of connection points: 4
#     Node 13, Type 0, BuildingBlock: NAHDIM_clean_sbu_0, # of connection points: 4
#     Node 14, Type 0, BuildingBlock: NAHDIM_clean_sbu_0, # of connection points: 4
#     Node 15, Type 0, BuildingBlock: NAHDIM_clean_sbu_0, # of connection points: 4
#     Edge 16, Type (0, 0), BuildingBlock: EYOCIG_clean_linker_4, # of connection points: 2
#     Edge 17, Type (0, 0), BuildingBlock: EYOCIG_clean_linker_4, # of connection points: 2
#     Edge 18, Type (0, 0), BuildingBlock: EYOCIG_clean_linker_4, # of connection points: 2
#     Edge 19, Type (0, 0), BuildingBlock: EYOCIG_clean_linker_4, # of connection points: 2
#     Edge 20, Type (0, 0), BuildingBlock: EYOCIG_clean_linker_4, # of connection points: 2
#     Edge 21, Type (0, 0), BuildingBlock: EYOCIG_clean_linker_4, # of connection points: 2
#     Edge 22, Type (0, 0), BuildingBlock: EYOCIG_clean_linker_4, # of connection points: 2
#     Edge 23, Type (0, 0), BuildingBlock: EYOCIG_clean_linker_4, # of connection points: 2
#     Edge 24, Type (0, 0), BuildingBlock: EYOCIG_clean_linker_4, # of connection points: 2
#     Edge 25, Type (0, 0), BuildingBlock: EYOCIG_clean_linker_4, # of connection points: 2
#     Edge 26, Type (0, 0), BuildingBlock: EYOCIG_clean_linker_4, # of connection points: 2
#     Edge 27, Type (0, 0), BuildingBlock: EYOCIG_clean_linker_4, # of connection points: 2
#     Edge 28, Type (0, 0), BuildingBlock: EYOCIG_clean_linker_4, # of connection points: 2
#     Edge 29, Type (0, 0), BuildingBlock: EYOCIG_clean_linker_4, # of connection points: 2
#     Edge 30, Type (0, 0), BuildingBlock: EYOCIG_clean_linker_4, # of connection points: 2
#     Edge 31, Type (0, 0), BuildingBlock: EYOCIG_clean_linker_4, # of connection points: 2
#     Edge 32, Type (0, 0), BuildingBlock: EYOCIG_clean_linker_4, # of connection points: 2
#     Edge 33, Type (0, 0), BuildingBlock: EYOCIG_clean_linker_4, # of connection points: 2
#     Edge 34, Type (0, 0), BuildingBlock: EYOCIG_clean_linker_4, # of connection points: 2
#     Edge 35, Type (0, 0), BuildingBlock: EYOCIG_clean_linker_4, # of connection points: 2
#     Edge 36, Type (0, 0), BuildingBlock: EYOCIG_clean_linker_4, # of connection points: 2
#     Edge 37, Type (0, 0), BuildingBlock: EYOCIG_clean_linker_4, # of connection points: 2
#     Edge 38, Type (0, 0), BuildingBlock: EYOCIG_clean_linker_4, # of connection points: 2
#     Edge 39, Type (0, 0), BuildingBlock: EYOCIG_clean_linker_4, # of connection points: 2
#     Edge 40, Type (0, 0), BuildingBlock: EYOCIG_clean_linker_4, # of connection points: 2
#     Edge 41, Type (0, 0), BuildingBlock: EYOCIG_clean_linker_4, # of connection points: 2
#     Edge 42, Type (0, 0), BuildingBlock: EYOCIG_clean_linker_4, # of connection points: 2
#     Edge 43, Type (0, 0), BuildingBlock: EYOCIG_clean_linker_4, # of connection points: 2
#     Edge 44, Type (0, 0), BuildingBlock: EYOCIG_clean_linker_4, # of connection points: 2
#     Edge 45, Type (0, 0), BuildingBlock: EYOCIG_clean_linker_4, # of connection points: 2
#     Edge 46, Type (0, 0), BuildingBlock: EYOCIG_clean_linker_4, # of connection points: 2
#     Edge 47, Type (0, 0), BuildingBlock: EYOCIG_clean_linker_4, # of connection points: 2
# Relax obj value: 0.104
# Max RMSD: 0.078
# Mean RMSD: 0.070
data_MOF--net-ure--node1-NAHDIM_clean_sbu_0--edge1-EYOCIG_clean_linker_4
_symmetry_space_group_name_H-M    P1
_symmetry_Int_Tables_number       1
_symmetry_cell_setting            triclinic
loop_
_symmetry_equiv_pos_as_xyz
'x, y, z'
_cell_length_a     24.54099
_cell_length_b     25.856548
_cell_length_c     26.570742
_cell_angle_alpha  90.44179
_cell_angle_beta   91.376107
_cell_angle_gamma 93.808846
loop_
_atom_site_label
_atom_site_type_symbol
_atom_site_fract_x
_atom_site_fract_y
_atom_site_fract_z
_atom_type_partial_charge
C0 C 0.20296 0.19147 0.18544 0.0
O1 O 0.24351 0.21743 0.16364 0.0
O2 O 0.32333 0.23672 0.26026 0.0
Zn3 Zn 0.24432 0.25018 0.27312 0.0
O4 O 0.23029 0.32378 0.25247 0.0
C5 C 0.26835 0.24659 0.38071 0.0
O6 O 0.31864 0.2579 0.36688 0.0
O7 O 0.19476 0.19885 0.23194 0.0
C8 C 0.23216 0.36092 0.28425 0.0
O9 O 0.24233 0.35219 0.33199 0.0
C10 C 0.36016 0.27336 0.25676 0.0
O11 O 0.34763 0.3217 0.26085 0.0
O12 O 0.2299 0.24104 0.34776 0.0
C13 C 0.02643 0.90913 0.44264 0.0
O14 O 0.9836 0.88322 0.46076 0.0
O15 O 0.90458 0.97927 0.47357 0.0
Zn16 Zn 0.98368 -0.00367 0.49539 0.0
O17 O -0.00475 0.97733 0.56888 0.0
C18 C 0.96257 0.10513 0.48812 0.0
O19 O 0.91197 0.08774 0.49528 0.0
O20 O 0.0347 0.95731 0.45205 0.0
C21 C -0.00637 0.01081 0.60401 0.0
O22 O 0.98487 0.05901 0.59332 0.0
C23 C 0.86696 0.9732 0.50547 0.0
O24 O 0.87913 0.97513 0.55379 0.0
O25 O 0.00033 0.07378 0.48673 0.0
C26 C 0.27907 0.79959 0.67879 0.0
O27 O 0.23849 0.77206 0.65646 0.0
O28 O 0.16037 0.75963 0.75452 0.0
Zn29 Zn 0.23971 0.74448 0.76627 0.0
O30 O 0.25142 0.67066 0.74415 0.0
C31 C 0.22144 0.74655 0.87365 0.0
O32 O 0.17045 0.73609 0.8591 0.0
O33 O 0.28801 0.79474 0.72579 0.0
C34 C 0.25001 0.63364 0.77541 0.0
O35 O 0.24123 0.64265 0.82305 0.0
C36 C 0.12272 0.7237 0.74915 0.0
O37 O 0.13465 0.67503 0.74976 0.0
O38 O 0.25846 0.75259 0.84111 0.0
C39 C 0.45691 0.05844 0.9339 0.0
O40 O 0.49933 0.08379 0.95564 0.0
O41 O 0.57511 0.98692 0.97202 0.0
Zn42 Zn 0.49579 0.97178 -0.00988 0.0
O43 O 0.48392 -0.00641 0.06261 0.0
C44 C 0.51453 0.86232 0.98556 0.0
O45 O 0.5655 0.8792 -0.00594 0.0
O46 O 0.44697 0.01056 0.94281 0.0
C47 C 0.48577 0.9613 0.09837 0.0
O48 O 0.49522 0.91293 0.08891 0.0
C49 C 0.61311 -0.00661 0.00526 0.0
O50 O 0.60153 -0.00758 0.05317 0.0
O51 O 0.47739 0.89425 0.98214 0.0
C52 C 0.20294 0.77639 0.3122 0.0
O53 O 0.24601 0.76084 0.33644 0.0
O54 O 0.32501 0.74374 0.24456 0.0
Zn55 Zn 0.24586 0.72072 0.22756 0.0
O56 O 0.23157 0.64493 0.24595 0.0
C57 C 0.27102 0.73007 0.12145 0.0
O58 O 0.3208 0.72244 0.13737 0.0
O59 O 0.19462 0.76432 0.26607 0.0
C60 C 0.23177 0.60852 0.21355 0.0
O61 O 0.24018 0.61923 0.1661 0.0
C62 C 0.36121 0.711 0.24906 0.0
O63 O 0.34749 0.66129 0.24446 0.0
O64 O 0.23244 0.73057 0.15253 0.0
C65 C 0.43755 0.961 0.53909 0.0
O66 O 0.46944 -0.00289 0.56185 0.0
O67 O 0.47676 0.07838 0.46465 0.0
Zn68 Zn 0.48963 0.00293 0.45032 0.0
O69 O 0.56789 -0.01121 0.46932 0.0
C70 C 0.48093 0.02315 0.34288 0.0
O71 O 0.49325 0.07131 0.35694 0.0
O72 O 0.4384 0.95608 0.49148 0.0
C73 C 0.60487 0.9876 0.43671 0.0
O74 O 0.59317 -0.00431 0.38914 0.0
C75 C 0.51598 0.11302 0.46786 0.0
O76 O 0.56642 0.10033 0.4628 0.0
O77 O 0.47634 0.98763 0.37566 0.0
C78 C 0.29636 0.18487 0.77526 0.0
O79 O 0.26876 0.15889 0.7393 0.0
O80 O 0.25828 0.25745 0.66053 0.0
Zn81 Zn 0.24239 0.27243 0.7338 0.0
O82 O 0.16312 0.25029 0.74742 0.0
C83 C 0.25344 0.3831 0.71308 0.0
O84 O 0.24395 0.36817 0.66624 0.0
O85 O 0.29198 0.23334 0.7801 0.0
C86 C 0.12665 0.28295 0.74876 0.0
O87 O 0.13983 0.33232 0.74198 0.0
C88 C 0.2201 0.25379 0.62722 0.0
O89 O 0.16943 0.25873 0.64002 0.0
O90 O 0.2554 0.34967 0.7478 0.0
C91 C 0.04429 0.02062 0.04622 0.0
O92 O 0.01457 0.98422 0.06896 0.0
O93 O 0.0065 0.89998 0.97032 0.0
Zn94 Zn 0.99064 0.97476 0.95641 0.0
O95 O 0.91229 0.98645 0.97401 0.0
C96 C -0.003 0.9535 0.84898 0.0
O97 O 0.98594 0.90532 0.86239 0.0
O98 O 0.04159 0.02399 -0.00146 0.0
C99 C 0.87408 0.98597 0.94081 0.0
O100 O 0.88452 0.97794 0.89333 0.0
C101 C 0.96829 0.86433 0.97123 0.0
O102 O 0.91736 0.87566 0.96447 0.0
O103 O 0.00145 -0.01058 0.88209 0.0
C104 C 0.70289 0.2769 0.81217 0.0
O105 O 0.746 0.26152 0.83646 0.0
O106 O 0.82467 0.24293 0.74514 0.0
Zn107 Zn 0.74547 0.22035 0.728 0.0
O108 O 0.73065 0.14472 0.74668 0.0
C109 C 0.7711 0.22874 0.62196 0.0
O110 O 0.8206 0.22023 0.63806 0.0
O111 O 0.69441 0.26441 0.76616 0.0
C112 C 0.73018 0.10816 0.7144 0.0
O113 O 0.73814 0.11859 0.66682 0.0
C114 C 0.86057 0.20996 0.75017 0.0
O115 O 0.84648 0.16028 0.74606 0.0
O116 O 0.73247 0.23005 0.65291 0.0
C117 C 0.93828 0.46144 0.04009 0.0
O118 O 0.97019 0.49761 0.06273 0.0
O119 O 0.97768 0.57841 0.96495 0.0
Zn120 Zn 0.99037 0.50283 0.95103 0.0
O121 O 0.06862 0.48872 0.97007 0.0
C122 C 0.98152 0.52227 0.84344 0.0
O123 O -0.00602 0.57051 0.85715 0.0
O124 O 0.93913 0.45631 -0.0075 0.0
C125 C 0.10546 0.48681 0.93741 0.0
O126 O 0.09362 0.49408 0.88972 0.0
C127 C 0.01694 0.61304 0.96747 0.0
O128 O 0.06728 0.60029 0.96188 0.0
O129 O 0.97691 0.48701 0.87647 0.0
C130 C 0.79815 0.68518 0.27543 0.0
O131 O 0.77246 0.65961 0.23813 0.0
O132 O 0.75955 0.75725 0.16143 0.0
Zn133 Zn 0.74324 0.77253 0.23456 0.0
O134 O 0.66375 0.75087 0.24778 0.0
C135 C 0.75599 0.88314 0.21361 0.0
O136 O 0.74803 0.86817 0.1666 0.0
O137 O 0.79229 0.7333 0.28128 0.0
C138 C 0.62741 0.78372 0.2481 0.0
O139 O 0.64089 0.83289 0.24043 0.0
C140 C 0.72162 0.75414 0.12787 0.0
O141 O 0.67098 0.75988 0.14033 0.0
O142 O 0.75649 0.84976 0.24847 0.0
C143 C 0.9578 0.5583 0.43451 0.0
O144 O 0.00055 0.58342 0.45592 0.0
O145 O 0.07565 0.48698 0.4729 0.0
Zn146 Zn -0.00367 0.47149 0.49078 0.0
O147 O 0.98432 0.49275 0.56339 0.0
C148 C 0.0153 0.36208 0.48536 0.0
O149 O 0.06627 0.37896 0.49383 0.0
O150 O 0.94751 0.51051 0.44366 0.0
C151 C 0.98585 0.46017 0.59893 0.0
O152 O -0.00502 0.41178 0.58915 0.0
C153 C 0.11358 0.49314 0.50624 0.0
O154 O 0.10192 0.49153 0.55412 0.0
O155 O 0.97811 0.39399 0.48226 0.0
C156 C 0.52639 0.41001 0.94216 0.0
O157 O 0.48276 0.38432 0.95902 0.0
O158 O 0.40512 0.47936 0.97436 0.0
Zn159 Zn 0.48417 0.49663 -0.00381 0.0
O160 O 0.49581 0.4775 0.06963 0.0
C161 C 0.46255 0.6053 -0.01065 0.0
O162 O 0.41211 0.58768 -0.0031 0.0
O163 O 0.53534 0.45787 0.95278 0.0
C164 C 0.49427 0.51091 0.10484 0.0
O165 O 0.4856 0.55916 0.09426 0.0
C166 C 0.36756 0.47279 0.00626 0.0
O167 O 0.37977 0.47431 0.05458 0.0
O168 O 0.50045 0.57413 0.98761 0.0
C169 C 0.70287 0.69147 0.68636 0.0
O170 O 0.74323 0.71765 0.66451 0.0
O171 O 0.82319 0.73758 0.76053 0.0
Zn172 Zn 0.74414 0.75029 0.77395 0.0
O173 O 0.72931 0.82379 0.75367 0.0
C174 C 0.76921 0.74653 0.88131 0.0
O175 O 0.81929 0.75816 0.86709 0.0
O176 O 0.69474 0.69876 0.73289 0.0
C177 C 0.73102 0.86081 0.78556 0.0
O178 O 0.74149 0.852 0.83324 0.0
C179 C 0.8596 0.77452 0.75645 0.0
O180 O 0.84658 0.82274 0.76022 0.0
O181 O 0.73046 0.74083 0.84866 0.0
C182 C 0.77971 0.29974 0.17944 0.0
O183 O 0.73953 0.27189 0.15687 0.0
O184 O 0.66082 0.25883 0.25503 0.0
Zn185 Zn 0.74034 0.24427 0.26678 0.0
O186 O 0.75264 0.17062 0.24453 0.0
C187 C 0.72207 0.24607 0.37418 0.0
O188 O 0.67108 0.23554 0.35964 0.0
O189 O 0.78838 0.29494 0.22649 0.0
C190 C 0.75161 0.13359 0.27578 0.0
O191 O 0.74283 0.1425 0.32344 0.0
C192 C 0.6234 0.22264 0.24989 0.0
O193 O 0.63571 0.17408 0.25074 0.0
O194 O 0.75905 0.25229 0.34162 0.0
C195 C 0.54422 0.52072 0.54706 0.0
O196 O 0.5138 0.48482 0.56978 0.0
O197 O 0.5064 0.39986 0.47111 0.0
Zn198 Zn 0.49097 0.47473 0.45718 0.0
O199 O 0.41269 0.48666 0.4748 0.0
C200 C 0.49705 0.45339 0.34974 0.0
O201 O 0.48541 0.4053 0.36313 0.0
O202 O 0.54208 0.52374 0.49933 0.0
C203 C 0.37459 0.48713 0.44158 0.0
O204 O 0.3851 0.48009 0.39396 0.0
C205 C 0.46797 0.36441 0.47188 0.0
O206 O 0.41715 0.37605 0.46492 0.0
O207 O 0.50191 0.48929 0.38285 0.0
C208 C 0.13997 0.12377 0.13122 0.0
C209 C 0.16826 0.15449 0.15656 0.0
C210 C 0.1071 0.08795 0.10104 0.0
C211 C 0.07863 0.0575 0.07557 0.0
C212 C 0.09616 0.85938 0.38868 0.0
C213 C 0.06469 0.88256 0.41324 0.0
C214 C 0.13307 0.83111 0.36096 0.0
C215 C 0.16461 0.80616 0.33826 0.0
C216 C 0.37426 0.89771 0.59391 0.0
C217 C 0.40289 0.92627 0.56836 0.0
C218 C 0.34144 0.86401 0.62429 0.0
C219 C 0.31343 0.83483 0.64976 0.0
C220 C 0.39319 0.10797 0.87138 0.0
C221 C 0.42197 0.08497 0.89983 0.0
C222 C 0.35969 0.13521 0.83804 0.0
C223 C 0.3309 0.1582 0.80958 0.0
C224 C 0.63314 0.33198 0.86065 0.0
C225 C 0.66462 0.30687 0.83808 0.0
C226 C 0.59624 0.36034 0.88828 0.0
C227 C 0.56474 0.38352 0.91282 0.0
C228 C 0.87493 0.39829 0.09501 0.0
C229 C 0.90361 0.42681 0.06947 0.0
C230 C 0.84206 0.36451 0.12528 0.0
C231 C 0.81406 0.33517 0.15061 0.0
C232 C 0.89424 0.60805 0.37202 0.0
C233 C 0.92294 0.58494 0.40046 0.0
C234 C 0.86093 0.63539 0.3386 0.0
C235 C 0.83238 0.65845 0.30998 0.0
C236 C 0.60715 0.58788 0.60194 0.0
C237 C 0.57863 0.55749 0.57644 0.0
C238 C 0.64001 0.62368 0.63215 0.0
C239 C 0.66825 0.65443 0.65749 0.0
C240 C 0.24891 0.24297 0.47806 0.0
C241 C 0.25661 0.24439 0.4334 0.0
C242 C 0.24051 0.24458 0.53048 0.0
C243 C 0.23249 0.24875 0.57491 0.0
C244 C 0.00186 0.97484 0.75203 0.0
C245 C -0.00022 0.96584 0.79645 0.0
C246 C 0.00111 0.98543 0.69993 0.0
C247 C -0.00211 -0.00437 0.65577 0.0
C248 C 0.24422 0.74538 0.97128 0.0
C249 C 0.23551 0.74624 0.92643 0.0
C250 C 0.25278 0.74145 0.02386 0.0
C251 C 0.2602 0.73634 0.06855 0.0
C252 C 0.47582 0.00054 0.24563 0.0
C253 C 0.478 0.01014 0.29017 0.0
C254 C 0.47697 -0.01092 0.19357 0.0
C255 C 0.48075 0.97796 0.14967 0.0
C256 C 0.46368 0.25336 0.24832 0.0
C257 C 0.41627 0.26197 0.25217 0.0
C258 C 0.51952 0.24353 0.24678 0.0
C259 C 0.56712 0.23459 0.24823 0.0
C260 C -0.00726 0.26084 0.4815 0.0
C261 C 0.00156 0.30727 0.48306 0.0
C262 C 0.98362 0.20635 0.48219 0.0
C263 C 0.97526 0.15997 0.48476 0.0
C264 C 0.96323 0.75513 0.74767 0.0
C265 C 0.91581 0.7636 0.75168 0.0
C266 C 0.01903 0.74522 0.74605 0.0
C267 C 0.06656 0.73604 0.7475 0.0
C268 C 0.48305 0.70656 0.98317 0.0
C269 C 0.47492 0.66017 0.98586 0.0
C270 C 0.49199 0.76107 0.98226 0.0
C271 C 0.50075 0.80751 0.98355 0.0
C272 C 0.52282 0.75458 0.25618 0.0
C273 C 0.57084 0.76681 0.2526 0.0
C274 C 0.46615 0.74081 0.25648 0.0
C275 C 0.41798 0.72827 0.25311 0.0
C276 C 0.49725 0.21212 0.47644 0.0
C277 C 0.50503 0.1667 0.47254 0.0
C278 C 0.48846 0.26557 0.47741 0.0
C279 C 0.48019 0.31096 0.47497 0.0
C280 C 0.02224 0.25323 0.75713 0.0
C281 C 0.0702 0.26568 0.75339 0.0
C282 C 0.96561 0.23935 0.75753 0.0
C283 C 0.91743 0.22689 0.75417 0.0
C284 C 0.98936 0.76562 0.97674 0.0
C285 C 0.98086 0.81096 0.97431 0.0
C286 C -0.00171 0.71219 0.97583 0.0
C287 C 0.00607 0.66676 0.97204 0.0
C288 C 0.22462 0.45777 0.25524 0.0
C289 C 0.22792 0.41326 0.26758 0.0
C290 C 0.22457 0.51044 0.24139 0.0
C291 C 0.22778 0.55542 0.22936 0.0
C292 C 0.72278 0.01024 0.7427 0.0
C293 C 0.72609 0.05515 0.73046 0.0
C294 C 0.72293 0.95762 0.7567 0.0
C295 C 0.72649 0.91315 0.76904 0.0
C296 C 0.2636 0.47041 0.97768 0.0
C297 C 0.3113 0.47154 -0.01007 0.0
C298 C 0.2079 0.47373 0.96432 0.0
C299 C 0.16092 0.47965 0.95277 0.0
C300 C 0.76016 0.03647 0.24735 0.0
C301 C 0.75646 0.08129 0.25884 0.0
C302 C 0.76113 0.98318 0.23557 0.0
C303 C 0.75883 0.93743 0.22593 0.0
C304 C 0.77188 -0.00469 0.96653 0.0
C305 C 0.81875 -0.00888 0.95543 0.0
C306 C 0.7165 -0.00291 0.97929 0.0
C307 C 0.66914 -0.00463 -0.00934 0.0
C308 C 0.25798 0.53642 0.74699 0.0
C309 C 0.25455 0.58127 0.75851 0.0
C310 C 0.25876 0.48312 0.73517 0.0
C311 C 0.25639 0.43737 0.72551 0.0
C312 C 0.21701 0.49755 0.48033 0.0
C313 C 0.16964 0.49551 0.49171 0.0
C314 C 0.27239 0.49608 0.46749 0.0
C315 C 0.31925 0.49205 0.45628 0.0
C316 C 0.75057 0.74285 0.97881 0.0
C317 C 0.75796 0.74431 0.9341 0.0
C318 C 0.74234 0.74454 0.03125 0.0
C319 C 0.7343 0.74886 0.07566 0.0
C320 C 0.50225 0.47469 0.2528 0.0
C321 C 0.50002 0.46569 0.29721 0.0
C322 C 0.50163 0.48531 0.2007 0.0
C323 C 0.49846 0.49559 0.15656 0.0
C324 C 0.74491 0.24454 0.47178 0.0
C325 C 0.73619 0.24558 0.42693 0.0
C326 C 0.75339 0.24041 0.52435 0.0
C327 C 0.76063 0.23518 0.56904 0.0
C328 C 0.9772 0.48756 0.69426 0.0
C329 C 0.98093 0.47654 0.65033 0.0
C330 C 0.97614 0.49908 0.74631 0.0
C331 C 0.97843 0.50888 0.79082 0.0
C332 C 0.76301 0.97098 0.47686 0.0
C333 C 0.81072 0.97203 0.48908 0.0
C334 C 0.7073 0.97438 0.46356 0.0
C335 C 0.66031 0.98034 0.45206 0.0
loop_
_geom_bond_atom_site_label_1
_geom_bond_atom_site_label_2
_geom_bond_distance
_geom_bond_site_symmetry_2
_ccdc_geom_bond_type
C0 O1 1.160 . S
C0 O7 1.185 . S
O1 C0 1.160 . S
O2 Zn3 1.899 . S
O2 C10 1.284 . S
Zn3 O2 1.899 . S
Zn3 O4 2.032 . S
Zn3 O7 2.086 . S
Zn3 O12 1.977 . S
O4 Zn3 2.032 . S
O4 C8 1.278 . S
C5 O6 1.203 . S
C5 O12 1.267 . S
O6 C5 1.203 . S
O7 C0 1.185 . S
O7 Zn3 2.086 . S
C8 O4 1.278 . S
C8 O9 1.211 . S
O9 C8 1.211 . S
C10 O2 1.284 . S
C10 O11 1.273 . S
O11 C10 1.273 . S
O12 Zn3 1.977 . S
O12 C5 1.267 . S
C13 O14 1.160 1_455 S
C13 O20 1.185 . S
O14 C13 1.160 1_655 S
O15 Zn16 1.899 . S
O15 C23 1.284 1_545 S
Zn16 O15 1.899 . S
Zn16 O17 2.032 1_545 S
Zn16 O20 2.086 1_645 S
Zn16 O25 1.977 1_655 S
O17 Zn16 2.032 1_565 S
O17 C21 1.278 . S
C18 O19 1.203 . S
C18 O25 1.267 1_655 S
O19 C18 1.203 . S
O20 C13 1.185 . S
O20 Zn16 2.086 1_465 S
C21 O17 1.278 . S
C21 O22 1.211 1_565 S
O22 C21 1.211 1_545 S
C23 O15 1.284 1_565 S
C23 O24 1.273 1_565 S
O24 C23 1.273 1_545 S
O25 Zn16 1.977 1_455 S
O25 C18 1.267 1_455 S
C26 O27 1.160 . S
C26 O33 1.185 . S
O27 C26 1.160 . S
O28 Zn29 1.899 . S
O28 C36 1.284 . S
Zn29 O28 1.899 . S
Zn29 O30 2.032 . S
Zn29 O33 2.086 . S
Zn29 O38 1.977 . S
O30 Zn29 2.032 . S
O30 C34 1.278 . S
C31 O32 1.203 . S
C31 O38 1.267 . S
O32 C31 1.203 . S
O33 C26 1.185 . S
O33 Zn29 2.086 . S
C34 O30 1.278 . S
C34 O35 1.211 . S
O35 C34 1.211 . S
C36 O28 1.284 . S
C36 O37 1.273 . S
O37 C36 1.273 . S
O38 Zn29 1.977 . S
O38 C31 1.267 . S
C39 O40 1.160 . S
C39 O46 1.185 . S
O40 C39 1.160 . S
O41 Zn42 1.899 1_556 S
O41 C49 1.272 1_556 S
Zn42 O41 1.899 1_554 S
Zn42 O43 2.032 1_565 S
Zn42 O46 2.086 1_564 S
Zn42 O51 1.978 . S
O43 Zn42 2.032 1_545 S
O43 C47 1.278 1_545 S
C44 O45 1.203 . S
C44 O51 1.268 . S
O45 C44 1.203 . S
O46 C39 1.185 . S
O46 Zn42 2.086 1_546 S
C47 O43 1.278 1_565 S
C47 O48 1.211 . S
O48 C47 1.211 . S
C49 O41 1.272 1_554 S
C49 O50 1.293 . S
O50 C49 1.293 . S
O51 Zn42 1.978 . S
O51 C44 1.268 . S
C52 O53 1.160 . S
C52 O59 1.185 . S
O53 C52 1.160 . S
O54 Zn55 1.899 . S
O54 C62 1.284 . S
Zn55 O54 1.899 . S
Zn55 O56 2.032 . S
Zn55 O59 2.086 . S
Zn55 O64 1.977 . S
O56 Zn55 2.032 . S
O56 C60 1.278 . S
C57 O58 1.203 . S
C57 O64 1.267 . S
O58 C57 1.203 . S
O59 C52 1.185 . S
O59 Zn55 2.086 . S
C60 O56 1.278 . S
C60 O61 1.211 . S
O61 C60 1.211 . S
C62 O54 1.284 . S
C62 O63 1.273 . S
O63 C62 1.273 . S
O64 Zn55 1.977 . S
O64 C57 1.267 . S
C65 O66 1.160 1_565 S
C65 O72 1.185 . S
O66 C65 1.160 1_545 S
O67 Zn68 1.899 . S
O67 C75 1.284 . S
Zn68 O67 1.899 . S
Zn68 O69 2.032 . S
Zn68 O72 2.086 1_545 S
Zn68 O77 1.977 1_545 S
O69 Zn68 2.032 . S
O69 C73 1.278 . S
C70 O71 1.203 . S
C70 O77 1.267 1_545 S
O71 C70 1.203 . S
O72 C65 1.185 . S
O72 Zn68 2.086 1_565 S
C73 O69 1.278 . S
C73 O74 1.211 . S
O74 C73 1.211 . S
C75 O67 1.284 . S
C75 O76 1.273 . S
O76 C75 1.273 . S
O77 Zn68 1.977 1_565 S
O77 C70 1.267 1_565 S
C78 O79 1.160 . S
C78 O85 1.185 . S
O79 C78 1.160 . S
O80 Zn81 1.899 . S
O80 C88 1.284 . S
Zn81 O80 1.899 . S
Zn81 O82 2.032 . S
Zn81 O85 2.086 . S
Zn81 O90 1.977 . S
O82 Zn81 2.032 . S
O82 C86 1.278 . S
C83 O84 1.203 . S
C83 O90 1.267 . S
O84 C83 1.203 . S
O85 C78 1.185 . S
O85 Zn81 2.086 . S
C86 O82 1.278 . S
C86 O87 1.211 . S
O87 C86 1.211 . S
C88 O80 1.284 . S
C88 O89 1.273 . S
O89 C88 1.273 . S
O90 Zn81 1.977 . S
O90 C83 1.267 . S
C91 O92 1.160 1_545 S
C91 O98 1.185 1_554 S
O92 C91 1.160 1_565 S
O93 Zn94 1.899 1_455 S
O93 C101 1.284 1_455 S
Zn94 O93 1.899 1_655 S
Zn94 O95 2.032 . S
Zn94 O98 2.086 1_665 S
Zn94 O103 1.977 1_665 S
O95 Zn94 2.032 . S
O95 C99 1.278 . S
C96 O97 1.203 . S
C96 O103 1.267 1_665 S
O97 C96 1.203 . S
O98 C91 1.185 1_556 S
O98 Zn94 2.086 1_445 S
C99 O95 1.278 . S
C99 O100 1.211 . S
O100 C99 1.211 . S
C101 O93 1.284 1_655 S
C101 O102 1.273 . S
O102 C101 1.273 . S
O103 Zn94 1.977 1_445 S
O103 C96 1.267 1_445 S
C104 O105 1.160 . S
C104 O111 1.185 . S
O105 C104 1.160 . S
O106 Zn107 1.899 . S
O106 C114 1.284 . S
Zn107 O106 1.899 . S
Zn107 O108 2.032 . S
Zn107 O111 2.086 . S
Zn107 O116 1.977 . S
O108 Zn107 2.032 . S
O108 C112 1.278 . S
C109 O110 1.203 . S
C109 O116 1.267 . S
O110 C109 1.203 . S
O111 C104 1.185 . S
O111 Zn107 2.086 . S
C112 O108 1.278 . S
C112 O113 1.211 . S
O113 C112 1.211 . S
C114 O106 1.284 . S
C114 O115 1.273 . S
O115 C114 1.273 . S
O116 Zn107 1.977 . S
O116 C109 1.267 . S
C117 O118 1.160 . S
C117 O124 1.185 1_554 S
O118 C117 1.160 . S
O119 Zn120 1.899 1_655 S
O119 C127 1.284 1_655 S
Zn120 O119 1.899 1_455 S
Zn120 O121 2.032 . S
Zn120 O124 2.086 1_455 S
Zn120 O129 1.977 1_455 S
O121 Zn120 2.032 . S
O121 C125 1.278 . S
C122 O123 1.203 . S
C122 O129 1.267 1_455 S
O123 C122 1.203 . S
O124 C117 1.185 1_556 S
O124 Zn120 2.086 1_655 S
C125 O121 1.278 . S
C125 O126 1.211 . S
O126 C125 1.211 . S
C127 O119 1.284 1_455 S
C127 O128 1.273 . S
O128 C127 1.273 . S
O129 Zn120 1.977 1_655 S
O129 C122 1.267 1_655 S
C130 O131 1.160 . S
C130 O137 1.185 . S
O131 C130 1.160 . S
O132 Zn133 1.899 . S
O132 C140 1.284 . S
Zn133 O132 1.899 . S
Zn133 O134 2.032 . S
Zn133 O137 2.086 . S
Zn133 O142 1.977 . S
O134 Zn133 2.032 . S
O134 C138 1.278 . S
C135 O136 1.203 . S
C135 O142 1.267 . S
O136 C135 1.203 . S
O137 C130 1.185 . S
O137 Zn133 2.086 . S
C138 O134 1.278 . S
C138 O139 1.211 . S
O139 C138 1.211 . S
C140 O132 1.284 . S
C140 O141 1.273 . S
O141 C140 1.273 . S
O142 Zn133 1.977 . S
O142 C135 1.267 . S
C143 O144 1.160 1_655 S
C143 O150 1.185 . S
O144 C143 1.160 1_455 S
O145 Zn146 1.899 . S
O145 C153 1.284 . S
Zn146 O145 1.899 . S
Zn146 O147 2.031 . S
Zn146 O150 2.086 1_455 S
Zn146 O155 1.977 1_455 S
O147 Zn146 2.031 . S
O147 C151 1.277 . S
C148 O149 1.203 . S
C148 O155 1.267 1_455 S
O149 C148 1.203 . S
O150 C143 1.185 . S
O150 Zn146 2.086 1_655 S
C151 O147 1.277 . S
C151 O152 1.211 . S
O152 C151 1.211 . S
C153 O145 1.284 . S
C153 O154 1.273 . S
O154 C153 1.273 . S
O155 Zn146 1.977 1_655 S
O155 C148 1.267 1_655 S
C156 O157 1.160 . S
C156 O163 1.185 . S
O157 C156 1.160 . S
O158 Zn159 1.899 1_556 S
O158 C166 1.284 1_556 S
Zn159 O158 1.899 1_554 S
Zn159 O160 2.032 . S
Zn159 O163 2.086 1_554 S
Zn159 O168 1.977 . S
O160 Zn159 2.032 . S
O160 C164 1.278 . S
C161 O162 1.203 . S
C161 O168 1.267 . S
O162 C161 1.203 . S
O163 C156 1.185 . S
O163 Zn159 2.086 1_556 S
C164 O160 1.278 . S
C164 O165 1.211 . S
O165 C164 1.211 . S
C166 O158 1.284 1_554 S
C166 O167 1.273 . S
O167 C166 1.273 . S
O168 Zn159 1.977 . S
O168 C161 1.267 . S
C169 O170 1.160 . S
C169 O176 1.185 . S
O170 C169 1.160 . S
O171 Zn172 1.899 . S
O171 C179 1.284 . S
Zn172 O171 1.899 . S
Zn172 O173 2.032 . S
Zn172 O176 2.086 . S
Zn172 O181 1.977 . S
O173 Zn172 2.032 . S
O173 C177 1.278 . S
C174 O175 1.203 . S
C174 O181 1.267 . S
O175 C174 1.203 . S
O176 C169 1.185 . S
O176 Zn172 2.086 . S
C177 O173 1.278 . S
C177 O178 1.211 . S
O178 C177 1.211 . S
C179 O171 1.284 . S
C179 O180 1.273 . S
O180 C179 1.273 . S
O181 Zn172 1.977 . S
O181 C174 1.267 . S
C182 O183 1.160 . S
C182 O189 1.185 . S
O183 C182 1.160 . S
O184 Zn185 1.899 . S
O184 C192 1.284 . S
Zn185 O184 1.899 . S
Zn185 O186 2.032 . S
Zn185 O189 2.086 . S
Zn185 O194 1.977 . S
O186 Zn185 2.032 . S
O186 C190 1.278 . S
C187 O188 1.203 . S
C187 O194 1.267 . S
O188 C187 1.203 . S
O189 C182 1.185 . S
O189 Zn185 2.086 . S
C190 O186 1.278 . S
C190 O191 1.211 . S
O191 C190 1.211 . S
C192 O184 1.284 . S
C192 O193 1.273 . S
O193 C192 1.273 . S
O194 Zn185 1.977 . S
O194 C187 1.267 . S
C195 O196 1.160 . S
C195 O202 1.185 . S
O196 C195 1.160 . S
O197 Zn198 1.899 . S
O197 C205 1.284 . S
Zn198 O197 1.899 . S
Zn198 O199 2.032 . S
Zn198 O202 2.086 . S
Zn198 O207 1.977 . S
O199 Zn198 2.032 . S
O199 C203 1.278 . S
C200 O201 1.203 . S
C200 O207 1.267 . S
O201 C200 1.203 . S
O202 C195 1.185 . S
O202 Zn198 2.086 . S
C203 O199 1.278 . S
C203 O204 1.211 . S
O204 C203 1.211 . S
C205 O197 1.284 . S
C205 O206 1.273 . S
O206 C205 1.273 . S
O207 Zn198 1.977 . S
O207 C200 1.267 . S
C208 C209 1.170 . S
C208 C210 1.380 . S
C209 C208 1.170 . S
C210 C208 1.380 . S
C210 C211 1.170 . S
C211 C210 1.170 . S
C212 C213 1.170 . S
C212 C214 1.380 . S
C213 C212 1.170 . S
C214 C212 1.380 . S
C214 C215 1.170 . S
C215 C214 1.170 . S
C216 C217 1.170 . S
C216 C218 1.380 . S
C217 C216 1.170 . S
C218 C216 1.380 . S
C218 C219 1.170 . S
C219 C218 1.170 . S
C220 C221 1.170 . S
C220 C222 1.380 . S
C221 C220 1.170 . S
C222 C220 1.380 . S
C222 C223 1.170 . S
C223 C222 1.170 . S
C224 C225 1.170 . S
C224 C226 1.380 . S
C225 C224 1.170 . S
C226 C224 1.380 . S
C226 C227 1.170 . S
C227 C226 1.170 . S
C228 C229 1.170 . S
C228 C230 1.380 . S
C229 C228 1.170 . S
C230 C228 1.380 . S
C230 C231 1.170 . S
C231 C230 1.170 . S
C232 C233 1.170 . S
C232 C234 1.380 . S
C233 C232 1.170 . S
C234 C232 1.380 . S
C234 C235 1.170 . S
C235 C234 1.170 . S
C236 C237 1.170 . S
C236 C238 1.380 . S
C237 C236 1.170 . S
C238 C236 1.380 . S
C238 C239 1.170 . S
C239 C238 1.170 . S
C240 C241 1.170 . S
C240 C242 1.380 . S
C241 C240 1.170 . S
C242 C240 1.380 . S
C242 C243 1.170 . S
C243 C242 1.170 . S
C244 C245 1.170 . S
C244 C246 1.380 . S
C245 C244 1.170 . S
C246 C244 1.380 . S
C246 C247 1.170 . S
C247 C246 1.170 . S
C248 C249 1.170 . S
C248 C250 1.380 1_556 S
C249 C248 1.170 . S
C250 C248 1.380 1_554 S
C250 C251 1.170 . S
C251 C250 1.170 . S
C252 C253 1.170 . S
C252 C254 1.380 . S
C253 C252 1.170 . S
C254 C252 1.380 . S
C254 C255 1.170 . S
C255 C254 1.170 . S
C256 C257 1.170 . S
C256 C258 1.380 . S
C257 C256 1.170 . S
C258 C256 1.380 . S
C258 C259 1.170 . S
C259 C258 1.170 . S
C260 C261 1.170 . S
C260 C262 1.380 . S
C261 C260 1.170 . S
C262 C260 1.380 . S
C262 C263 1.170 1_655 S
C263 C262 1.170 1_455 S
C264 C265 1.170 . S
C264 C266 1.380 1_655 S
C265 C264 1.170 . S
C266 C264 1.380 1_455 S
C266 C267 1.170 . S
C267 C266 1.170 . S
C268 C269 1.170 . S
C268 C270 1.380 . S
C269 C268 1.170 . S
C270 C268 1.380 . S
C270 C271 1.170 . S
C271 C270 1.170 . S
C272 C273 1.170 . S
C272 C274 1.380 . S
C273 C272 1.170 . S
C274 C272 1.380 . S
C274 C275 1.170 . S
C275 C274 1.170 . S
C276 C277 1.170 . S
C276 C278 1.380 . S
C277 C276 1.170 . S
C278 C276 1.380 . S
C278 C279 1.170 . S
C279 C278 1.170 . S
C280 C281 1.170 . S
C280 C282 1.380 1_455 S
C281 C280 1.170 . S
C282 C280 1.380 1_655 S
C282 C283 1.170 . S
C283 C282 1.170 . S
C284 C285 1.170 . S
C284 C286 1.380 . S
C285 C284 1.170 . S
C286 C284 1.380 . S
C286 C287 1.170 1_455 S
C287 C286 1.170 1_655 S
C288 C289 1.170 . S
C288 C290 1.380 . S
C289 C288 1.170 . S
C290 C288 1.380 . S
C290 C291 1.170 . S
C291 C290 1.170 . S
C292 C293 1.170 . S
C292 C294 1.380 1_545 S
C293 C292 1.170 . S
C294 C292 1.380 1_565 S
C294 C295 1.170 . S
C295 C294 1.170 . S
C296 C297 1.170 . S
C296 C298 1.380 . S
C297 C296 1.170 . S
C298 C296 1.380 . S
C298 C299 1.170 . S
C299 C298 1.170 . S
C300 C301 1.170 . S
C300 C302 1.380 1_545 S
C301 C300 1.170 . S
C302 C300 1.380 1_565 S
C302 C303 1.170 . S
C303 C302 1.170 . S
C304 C305 1.170 . S
C304 C306 1.380 . S
C305 C304 1.170 . S
C306 C304 1.380 . S
C306 C307 1.170 . S
C307 C306 1.170 . S
C308 C309 1.170 . S
C308 C310 1.380 . S
C309 C308 1.170 . S
C310 C308 1.380 . S
C310 C311 1.170 . S
C311 C310 1.170 . S
C312 C313 1.170 . S
C312 C314 1.380 . S
C313 C312 1.170 . S
C314 C312 1.380 . S
C314 C315 1.170 . S
C315 C314 1.170 . S
C316 C317 1.170 . S
C316 C318 1.380 1_556 S
C317 C316 1.170 . S
C318 C316 1.380 1_554 S
C318 C319 1.170 . S
C319 C318 1.170 . S
C320 C321 1.170 . S
C320 C322 1.380 . S
C321 C320 1.170 . S
C322 C320 1.380 . S
C322 C323 1.170 . S
C323 C322 1.170 . S
C324 C325 1.170 . S
C324 C326 1.380 . S
C325 C324 1.170 . S
C326 C324 1.380 . S
C326 C327 1.170 . S
C327 C326 1.170 . S
C328 C329 1.171 . S
C328 C330 1.379 1_455 S
C329 C328 1.171 . S
C330 C328 1.379 1_655 S
C330 C331 1.171 . S
C331 C330 1.171 . S
C332 C333 1.170 1_545 S
C332 C334 1.380 . S
C333 C332 1.170 1_565 S
C334 C332 1.380 . S
C334 C335 1.170 . S
C335 C334 1.170 . S
C209 C0 1.640 . S
C211 C91 1.676 . S
C213 C13 1.647 . S
C215 C52 1.624 . S
C217 C65 1.651 . S
C219 C26 1.620 . S
C221 C39 1.630 . S
C223 C78 1.631 . S
C225 C104 1.628 . S
C227 C156 1.643 . S
C229 C117 1.639 . S
C231 C182 1.641 . S
C233 C143 1.612 . S
C235 C130 1.632 . S
C237 C195 1.673 . S
C239 C169 1.643 . S
C241 C5 1.257 . S
C243 C88 1.225 . S
C245 C96 1.218 . S
C247 C21 1.183 . S
C249 C31 1.209 . S
C251 C57 1.282 . S
C253 C70 1.228 . S
C255 C47 1.254 1_545 S
C257 C10 1.318 . S
C259 C192 1.275 . S
C261 C148 1.225 1_655 S
C263 C18 1.232 1_455 S
C265 C179 1.280 . S
C267 C36 1.317 . S
C269 C161 1.220 . S
C271 C44 1.237 . S
C273 C138 1.241 . S
C275 C62 1.320 . S
C277 C75 1.322 . S
C279 C205 1.273 . S
C281 C86 1.287 . S
C283 C114 1.278 . S
C285 C101 1.319 1_455 S
C287 C127 1.276 1_655 S
C289 C8 1.266 . S
C291 C60 1.209 . S
C293 C112 1.262 . S
C295 C177 1.214 . S
C297 C166 1.263 1_556 S
C299 C125 1.196 . S
C301 C190 1.150 . S
C303 C135 1.195 . S
C305 C99 1.241 . S
C307 C49 1.300 1_556 S
C309 C34 1.190 . S
C311 C83 1.164 . S
C313 C153 1.269 . S
C315 C203 1.292 . S
C317 C174 1.203 . S
C319 C140 1.275 . S
C321 C200 1.196 . S
C323 C164 1.199 . S
C325 C187 1.235 . S
C327 C109 1.262 . S
C329 C151 1.205 . S
C331 C122 1.275 1_655 S
C333 C23 1.263 . S
C335 C73 1.194 . S
