# Generated by pormake.
# Topology zni, (4)-cn, num edge types: 1
# Building blocks:
#     Node 0, Type 0, BuildingBlock: KUFVIS_clean_sbu_0, # of connection points: 4
#     Node 1, Type 0, BuildingBlock: KUFVIS_clean_sbu_0, # of connection points: 4
#     Node 2, Type 0, BuildingBlock: KUFVIS_clean_sbu_0, # of connection points: 4
#     Node 3, Type 0, BuildingBlock: KUFVIS_clean_sbu_0, # of connection points: 4
#     Node 4, Type 0, BuildingBlock: KUFVIS_clean_sbu_0, # of connection points: 4
#     Node 5, Type 0, BuildingBlock: KUFVIS_clean_sbu_0, # of connection points: 4
#     Node 6, Type 0, BuildingBlock: KUFVIS_clean_sbu_0, # of connection points: 4
#     Node 7, Type 0, BuildingBlock: KUFVIS_clean_sbu_0, # of connection points: 4
#     Node 8, Type 0, BuildingBlock: KUFVIS_clean_sbu_0, # of connection points: 4
#     Node 9, Type 0, BuildingBlock: KUFVIS_clean_sbu_0, # of connection points: 4
#     Node 10, Type 0, BuildingBlock: KUFVIS_clean_sbu_0, # of connection points: 4
#     Node 11, Type 0, BuildingBlock: KUFVIS_clean_sbu_0, # of connection points: 4
#     Node 12, Type 0, BuildingBlock: KUFVIS_clean_sbu_0, # of connection points: 4
#     Node 13, Type 0, BuildingBlock: KUFVIS_clean_sbu_0, # of connection points: 4
#     Node 14, Type 0, BuildingBlock: KUFVIS_clean_sbu_0, # of connection points: 4
#     Node 15, Type 0, BuildingBlock: KUFVIS_clean_sbu_0, # of connection points: 4
#     Node 16, Type 0, BuildingBlock: KUFVIS_clean_sbu_0, # of connection points: 4
#     Node 17, Type 0, BuildingBlock: KUFVIS_clean_sbu_0, # of connection points: 4
#     Node 18, Type 0, BuildingBlock: KUFVIS_clean_sbu_0, # of connection points: 4
#     Node 19, Type 0, BuildingBlock: KUFVIS_clean_sbu_0, # of connection points: 4
#     Node 20, Type 0, BuildingBlock: KUFVIS_clean_sbu_0, # of connection points: 4
#     Node 21, Type 0, BuildingBlock: KUFVIS_clean_sbu_0, # of connection points: 4
#     Node 22, Type 0, BuildingBlock: KUFVIS_clean_sbu_0, # of connection points: 4
#     Node 23, Type 0, BuildingBlock: KUFVIS_clean_sbu_0, # of connection points: 4
#     Node 24, Type 0, BuildingBlock: KUFVIS_clean_sbu_0, # of connection points: 4
#     Node 25, Type 0, BuildingBlock: KUFVIS_clean_sbu_0, # of connection points: 4
#     Node 26, Type 0, BuildingBlock: KUFVIS_clean_sbu_0, # of connection points: 4
#     Node 27, Type 0, BuildingBlock: KUFVIS_clean_sbu_0, # of connection points: 4
#     Node 28, Type 0, BuildingBlock: KUFVIS_clean_sbu_0, # of connection points: 4
#     Node 29, Type 0, BuildingBlock: KUFVIS_clean_sbu_0, # of connection points: 4
#     Node 30, Type 0, BuildingBlock: KUFVIS_clean_sbu_0, # of connection points: 4
#     Node 31, Type 0, BuildingBlock: KUFVIS_clean_sbu_0, # of connection points: 4
#     Edge 32, Type (0, 0), BuildingBlock: XIVTED_clean_linker_0, # of connection points: 2
#     Edge 33, Type (0, 0), BuildingBlock: XIVTED_clean_linker_0, # of connection points: 2
#     Edge 34, Type (0, 0), BuildingBlock: XIVTED_clean_linker_0, # of connection points: 2
#     Edge 35, Type (0, 0), BuildingBlock: XIVTED_clean_linker_0, # of connection points: 2
#     Edge 36, Type (0, 0), BuildingBlock: XIVTED_clean_linker_0, # of connection points: 2
#     Edge 37, Type (0, 0), BuildingBlock: XIVTED_clean_linker_0, # of connection points: 2
#     Edge 38, Type (0, 0), BuildingBlock: XIVTED_clean_linker_0, # of connection points: 2
#     Edge 39, Type (0, 0), BuildingBlock: XIVTED_clean_linker_0, # of connection points: 2
#     Edge 40, Type (0, 0), BuildingBlock: XIVTED_clean_linker_0, # of connection points: 2
#     Edge 41, Type (0, 0), BuildingBlock: XIVTED_clean_linker_0, # of connection points: 2
#     Edge 42, Type (0, 0), BuildingBlock: XIVTED_clean_linker_0, # of connection points: 2
#     Edge 43, Type (0, 0), BuildingBlock: XIVTED_clean_linker_0, # of connection points: 2
#     Edge 44, Type (0, 0), BuildingBlock: XIVTED_clean_linker_0, # of connection points: 2
#     Edge 45, Type (0, 0), BuildingBlock: XIVTED_clean_linker_0, # of connection points: 2
#     Edge 46, Type (0, 0), BuildingBlock: XIVTED_clean_linker_0, # of connection points: 2
#     Edge 47, Type (0, 0), BuildingBlock: XIVTED_clean_linker_0, # of connection points: 2
#     Edge 48, Type (0, 0), BuildingBlock: XIVTED_clean_linker_0, # of connection points: 2
#     Edge 49, Type (0, 0), BuildingBlock: XIVTED_clean_linker_0, # of connection points: 2
#     Edge 50, Type (0, 0), BuildingBlock: XIVTED_clean_linker_0, # of connection points: 2
#     Edge 51, Type (0, 0), BuildingBlock: XIVTED_clean_linker_0, # of connection points: 2
#     Edge 52, Type (0, 0), BuildingBlock: XIVTED_clean_linker_0, # of connection points: 2
#     Edge 53, Type (0, 0), BuildingBlock: XIVTED_clean_linker_0, # of connection points: 2
#     Edge 54, Type (0, 0), BuildingBlock: XIVTED_clean_linker_0, # of connection points: 2
#     Edge 55, Type (0, 0), BuildingBlock: XIVTED_clean_linker_0, # of connection points: 2
#     Edge 56, Type (0, 0), BuildingBlock: XIVTED_clean_linker_0, # of connection points: 2
#     Edge 57, Type (0, 0), BuildingBlock: XIVTED_clean_linker_0, # of connection points: 2
#     Edge 58, Type (0, 0), BuildingBlock: XIVTED_clean_linker_0, # of connection points: 2
#     Edge 59, Type (0, 0), BuildingBlock: XIVTED_clean_linker_0, # of connection points: 2
#     Edge 60, Type (0, 0), BuildingBlock: XIVTED_clean_linker_0, # of connection points: 2
#     Edge 61, Type (0, 0), BuildingBlock: XIVTED_clean_linker_0, # of connection points: 2
#     Edge 62, Type (0, 0), BuildingBlock: XIVTED_clean_linker_0, # of connection points: 2
#     Edge 63, Type (0, 0), BuildingBlock: XIVTED_clean_linker_0, # of connection points: 2
#     Edge 64, Type (0, 0), BuildingBlock: XIVTED_clean_linker_0, # of connection points: 2
#     Edge 65, Type (0, 0), BuildingBlock: XIVTED_clean_linker_0, # of connection points: 2
#     Edge 66, Type (0, 0), BuildingBlock: XIVTED_clean_linker_0, # of connection points: 2
#     Edge 67, Type (0, 0), BuildingBlock: XIVTED_clean_linker_0, # of connection points: 2
#     Edge 68, Type (0, 0), BuildingBlock: XIVTED_clean_linker_0, # of connection points: 2
#     Edge 69, Type (0, 0), BuildingBlock: XIVTED_clean_linker_0, # of connection points: 2
#     Edge 70, Type (0, 0), BuildingBlock: XIVTED_clean_linker_0, # of connection points: 2
#     Edge 71, Type (0, 0), BuildingBlock: XIVTED_clean_linker_0, # of connection points: 2
#     Edge 72, Type (0, 0), BuildingBlock: XIVTED_clean_linker_0, # of connection points: 2
#     Edge 73, Type (0, 0), BuildingBlock: XIVTED_clean_linker_0, # of connection points: 2
#     Edge 74, Type (0, 0), BuildingBlock: XIVTED_clean_linker_0, # of connection points: 2
#     Edge 75, Type (0, 0), BuildingBlock: XIVTED_clean_linker_0, # of connection points: 2
#     Edge 76, Type (0, 0), BuildingBlock: XIVTED_clean_linker_0, # of connection points: 2
#     Edge 77, Type (0, 0), BuildingBlock: XIVTED_clean_linker_0, # of connection points: 2
#     Edge 78, Type (0, 0), BuildingBlock: XIVTED_clean_linker_0, # of connection points: 2
#     Edge 79, Type (0, 0), BuildingBlock: XIVTED_clean_linker_0, # of connection points: 2
#     Edge 80, Type (0, 0), BuildingBlock: XIVTED_clean_linker_0, # of connection points: 2
#     Edge 81, Type (0, 0), BuildingBlock: XIVTED_clean_linker_0, # of connection points: 2
#     Edge 82, Type (0, 0), BuildingBlock: XIVTED_clean_linker_0, # of connection points: 2
#     Edge 83, Type (0, 0), BuildingBlock: XIVTED_clean_linker_0, # of connection points: 2
#     Edge 84, Type (0, 0), BuildingBlock: XIVTED_clean_linker_0, # of connection points: 2
#     Edge 85, Type (0, 0), BuildingBlock: XIVTED_clean_linker_0, # of connection points: 2
#     Edge 86, Type (0, 0), BuildingBlock: XIVTED_clean_linker_0, # of connection points: 2
#     Edge 87, Type (0, 0), BuildingBlock: XIVTED_clean_linker_0, # of connection points: 2
#     Edge 88, Type (0, 0), BuildingBlock: XIVTED_clean_linker_0, # of connection points: 2
#     Edge 89, Type (0, 0), BuildingBlock: XIVTED_clean_linker_0, # of connection points: 2
#     Edge 90, Type (0, 0), BuildingBlock: XIVTED_clean_linker_0, # of connection points: 2
#     Edge 91, Type (0, 0), BuildingBlock: XIVTED_clean_linker_0, # of connection points: 2
#     Edge 92, Type (0, 0), BuildingBlock: XIVTED_clean_linker_0, # of connection points: 2
#     Edge 93, Type (0, 0), BuildingBlock: XIVTED_clean_linker_0, # of connection points: 2
#     Edge 94, Type (0, 0), BuildingBlock: XIVTED_clean_linker_0, # of connection points: 2
#     Edge 95, Type (0, 0), BuildingBlock: XIVTED_clean_linker_0, # of connection points: 2
# Relax obj value: 0.217
# Max RMSD: 0.099
# Mean RMSD: 0.099
data_MOF--net-zni--node1-KUFVIS_clean_sbu_0--edge1-XIVTED_clean_linker_0
_symmetry_space_group_name_H-M    P1
_symmetry_Int_Tables_number       1
_symmetry_cell_setting            triclinic
loop_
_symmetry_equiv_pos_as_xyz
'x, y, z'
_cell_length_a     58.233911
_cell_length_b     58.271373
_cell_length_c     29.641275
_cell_angle_alpha  89.988213
_cell_angle_beta   90.025179
_cell_angle_gamma 90.009353
loop_
_atom_site_label
_atom_site_type_symbol
_atom_site_fract_x
_atom_site_fract_y
_atom_site_fract_z
_atom_type_partial_charge
Mn0 Mn 0.10345 0.09764 0.40475 0.0
Mn1 Mn 0.08343 0.05347 0.46648 0.0
C2 C 0.12464 0.08326 0.46438 0.0
C3 C 0.10584 0.13673 0.39097 0.0
C4 C 0.10186 0.04854 0.37141 0.0
O5 O 0.06931 0.09711 0.39003 0.0
O6 O 0.05708 0.06997 0.4389 0.0
C7 C 0.05925 0.07942 0.53803 0.0
N8 N 0.07564 0.06399 0.52566 0.0
C9 C 0.08727 0.0586 0.60288 0.0
C10 C 0.07041 0.07433 0.61644 0.0
C11 C 0.05637 0.08481 0.58386 0.0
C12 C 0.08929 0.05386 0.55673 0.0
H13 H 0.04853 0.08767 0.51309 0.0
C14 C 0.05337 0.08576 0.40959 0.0
O15 O 0.10933 0.12179 0.35922 0.0
O16 O 0.10056 0.12895 0.43067 0.0
N17 N 0.10764 0.03683 0.49556 0.0
C18 C 0.12416 0.02336 0.47667 0.0
C19 C 0.14005 0.0121 0.50462 0.0
C20 C 0.13878 0.01477 0.55164 0.0
C21 C 0.12162 0.02872 0.57032 0.0
C22 C 0.10616 0.03938 0.54081 0.0
H23 H 0.12526 0.02126 0.44056 0.0
O24 O 0.13484 0.0948 0.4327 0.0
O25 O 0.10282 0.08031 0.45885 0.0
O26 O 0.10843 0.06921 0.36694 0.0
O27 O 0.09161 0.04092 0.4065 0.0
C28 C 0.11963 0.0329 0.61698 0.0
C29 C 0.10249 0.04787 0.63324 0.0
H30 H 0.06825 0.07865 0.65173 0.0
H31 H 0.04343 0.09708 0.59404 0.0
H32 H 0.15329 0.00143 0.48993 0.0
H33 H 0.15119 0.00622 0.57305 0.0
H34 H 0.13143 0.02501 0.64059 0.0
H35 H 0.1014 0.05129 0.66909 0.0
Mn36 Mn 0.13856 0.85818 0.65028 0.0
Mn37 Mn 0.17915 0.83695 0.71936 0.0
C38 C 0.15881 0.8828 0.69765 0.0
C39 C 0.10014 0.8665 0.6386 0.0
C40 C 0.18579 0.84316 0.61866 0.0
O41 O 0.13174 0.82409 0.65084 0.0
O42 O 0.15752 0.81205 0.70219 0.0
C43 C 0.14891 0.82716 0.79733 0.0
N44 N 0.1678 0.83768 0.77985 0.0
C45 C 0.17769 0.85362 0.85216 0.0
C46 C 0.15844 0.84282 0.87104 0.0
C47 C 0.14391 0.82965 0.84343 0.0
C48 C 0.18161 0.85077 0.80591 0.0
H49 H 0.13773 0.81699 0.77622 0.0
C50 C 0.14069 0.80848 0.67527 0.0
O51 O 0.11387 0.86317 0.60465 0.0
O52 O 0.10868 0.86484 0.67876 0.0
N53 N 0.20127 0.85898 0.73948 0.0
C54 C 0.21854 0.86907 0.71566 0.0
C55 C 0.23462 0.88288 0.73828 0.0
C56 C 0.23289 0.88603 0.78515 0.0
C57 C 0.21507 0.87532 0.80902 0.0
C58 C 0.19961 0.86167 0.78469 0.0
H59 H 0.2201 0.86653 0.67973 0.0
O60 O 0.14851 0.89061 0.66195 0.0
O61 O 0.15716 0.86076 0.70307 0.0
O62 O 0.16635 0.85238 0.6107 0.0
O63 O 0.19221 0.83635 0.65775 0.0
C64 C 0.21178 0.87799 0.85584 0.0
C65 C 0.19301 0.86727 0.87734 0.0
H66 H 0.15457 0.84465 0.9066 0.0
H67 H 0.12894 0.82138 0.85769 0.0
H68 H 0.24834 0.89106 0.71963 0.0
H69 H 0.24525 0.89679 0.80242 0.0
H70 H 0.22336 0.88857 0.87549 0.0
H71 H 0.19041 0.8698 0.91318 0.0
Mn72 Mn 0.3875 0.88914 0.90497 0.0
Mn73 Mn 0.4081 0.93279 0.96746 0.0
C74 C 0.36655 0.90353 0.96492 0.0
C75 C 0.38448 0.85007 0.89113 0.0
C76 C 0.38888 0.93863 0.87315 0.0
O77 O 0.42159 0.88933 0.8897 0.0
O78 O 0.43406 0.91653 0.93811 0.0
C79 C 0.43291 0.90582 0.03675 0.0
N80 N 0.41657 0.92159 0.02579 0.0
C81 C 0.40654 0.92688 0.10387 0.0
C82 C 0.42337 0.91081 0.116 0.0
C83 C 0.43655 0.90018 0.08227 0.0
C84 C 0.40364 0.93176 0.05795 0.0
H85 H 0.44304 0.89754 0.01095 0.0
C86 C 0.43763 0.90078 0.90871 0.0
O87 O 0.38109 0.86508 0.85942 0.0
O88 O 0.39017 0.85777 0.93066 0.0
N89 N 0.38447 0.94937 -0.00163 0.0
C90 C 0.36798 0.96338 0.98089 0.0
C91 C 0.35294 0.97492 0.01013 0.0
C92 C 0.35505 0.97203 0.057 0.0
C93 C 0.37219 0.95757 0.07422 0.0
C94 C 0.38676 0.9466 0.04345 0.0
H95 H 0.3663 0.96572 0.94492 0.0
O96 O 0.35621 0.89219 0.93317 0.0
O97 O 0.38841 0.9062 0.95951 0.0
O98 O 0.38266 0.91789 0.86764 0.0
O99 O 0.39916 0.94594 0.90847 0.0
C100 C 0.37511 0.95329 0.12067 0.0
C101 C 0.39225 0.93792 0.13547 0.0
H102 H 0.42616 0.90636 0.15105 0.0
H103 H 0.44947 0.88766 0.09134 0.0
H104 H 0.33972 0.98601 -0.00343 0.0
H105 H 0.34332 0.98085 0.07942 0.0
H106 H 0.36404 0.96145 0.14524 0.0
H107 H 0.39407 0.93447 0.1712 0.0
Mn108 Mn 0.35797 0.13652 0.14358 0.0
Mn109 Mn 0.31712 0.15691 0.21295 0.0
C110 C 0.34373 0.11379 0.20153 0.0
C111 C 0.39675 0.13274 0.12714 0.0
C112 C 0.30824 0.14245 0.11616 0.0
O113 O 0.35919 0.17101 0.13318 0.0
O114 O 0.33468 0.18298 0.1872 0.0
C115 C 0.34746 0.17578 0.28406 0.0
N116 N 0.32999 0.16158 0.27159 0.0
C117 C 0.32508 0.1484 0.34793 0.0
C118 C 0.3429 0.16299 0.36165 0.0
C119 C 0.35421 0.17666 0.32953 0.0
C120 C 0.31925 0.14809 0.30209 0.0
H121 H 0.35623 0.18626 0.25946 0.0
C122 C 0.34955 0.18683 0.15623 0.0
O123 O 0.38129 0.13096 0.0957 0.0
O124 O 0.38965 0.13697 0.16771 0.0
N125 N 0.2992 0.13326 0.24074 0.0
C126 C 0.2834 0.11904 0.22156 0.0
C127 C 0.27078 0.10397 0.249 0.0
C128 C 0.27444 0.10376 0.29585 0.0
C129 C 0.29072 0.11862 0.31486 0.0
C130 C 0.3027 0.13334 0.28585 0.0
H131 H 0.2804 0.11922 0.18563 0.0
O132 O 0.35393 0.1044 0.16727 0.0
O133 O 0.34198 0.13589 0.1994 0.0
O134 O 0.32827 0.13468 0.10808 0.0
O135 O 0.30245 0.15183 0.15351 0.0
C136 C 0.29588 0.11906 0.36131 0.0
C137 C 0.31311 0.13389 0.37781 0.0
H138 H 0.34818 0.1637 0.39668 0.0
H139 H 0.36808 0.18785 0.33981 0.0
H140 H 0.25825 0.09255 0.23407 0.0
H141 H 0.26477 0.09201 0.31685 0.0
H142 H 0.287 0.10778 0.38453 0.0
H143 H 0.31723 0.13375 0.41345 0.0
Mn144 Mn 0.11368 0.89468 0.07211 0.0
Mn145 Mn 0.09152 0.93807 0.01095 0.0
C146 C 0.13467 0.91126 0.01421 0.0
C147 C 0.11892 0.85573 0.08439 0.0
C148 C 0.10829 0.94322 0.10718 0.0
O149 O 0.07932 0.89265 0.08507 0.0
O150 O 0.06613 0.91958 0.03669 0.0
C151 C 0.07001 0.91124 0.93733 0.0
N152 N 0.08504 0.92774 0.95106 0.0
C153 C 0.09579 0.93608 0.8744 0.0
C154 C 0.08033 0.91927 0.85942 0.0
C155 C 0.06747 0.90673 0.89104 0.0
C156 C 0.09771 0.9397 0.92095 0.0
H157 H 0.0601 0.90156 0.96152 0.0
C158 C 0.06298 0.90332 0.06518 0.0
O159 O 0.12081 0.87052 0.11691 0.0
O160 O 0.11341 0.86351 0.0448 0.0
N161 N 0.11467 0.95679 0.98359 0.0
C162 C 0.12996 0.97124 0.00369 0.0
C163 C 0.14468 0.98456 0.9768 0.0
C164 C 0.14342 0.983 0.92956 0.0
C165 C 0.12752 0.96804 0.90964 0.0
C166 C 0.1133 0.95519 0.93816 0.0
H167 H 0.13092 0.97261 0.03996 0.0
O168 O 0.14518 0.90005 0.04595 0.0
O169 O 0.11263 0.91257 0.01859 0.0
O170 O 0.11611 0.92297 0.11145 0.0
O171 O 0.09816 0.95049 0.07167 0.0
C172 C 0.1255 0.96508 0.86262 0.0
C173 C 0.10964 0.94911 0.84502 0.0
H174 H 0.07835 0.91572 0.82375 0.0
H175 H 0.05561 0.89364 0.87976 0.0
H176 H 0.15694 0.99603 0.99243 0.0
H177 H 0.15487 0.99323 0.90894 0.0
H178 H 0.1363 0.97474 0.83972 0.0
H179 H 0.10849 0.94673 0.80884 0.0
Mn180 Mn 0.3478 0.85567 0.33892 0.0
Mn181 Mn 0.30812 0.83477 0.26759 0.0
C182 C 0.33176 0.87947 0.28422 0.0
C183 C 0.38638 0.86138 0.35504 0.0
C184 C 0.29895 0.84505 0.36631 0.0
O185 O 0.35135 0.82113 0.34499 0.0
O186 O 0.32771 0.80921 0.28951 0.0
C187 C 0.33944 0.82094 0.19377 0.0
N188 N 0.32088 0.83309 0.20827 0.0
C189 C 0.31404 0.84793 0.13372 0.0
C190 C 0.33296 0.83544 0.11788 0.0
C191 C 0.3458 0.82199 0.14811 0.0
C192 C 0.30869 0.84641 0.17967 0.0
H193 H 0.34935 0.81061 0.21693 0.0
C194 C 0.34279 0.80543 0.32011 0.0
O195 O 0.37112 0.86119 0.38702 0.0
O196 O 0.3792 0.85803 0.31425 0.0
N197 N 0.28817 0.85774 0.24324 0.0
C198 C 0.2714 0.86993 0.26447 0.0
C199 C 0.25712 0.88447 0.23912 0.0
C200 C 0.26013 0.88621 0.19221 0.0
C201 C 0.27745 0.87342 0.17106 0.0
C202 C 0.29107 0.85913 0.19805 0.0
H203 H 0.26885 0.8685 0.30043 0.0
O204 O 0.34142 0.88815 0.31981 0.0
O205 O 0.33143 0.85725 0.28339 0.0
O206 O 0.31832 0.85422 0.37493 0.0
O207 O 0.29355 0.8366 0.32787 0.0
C208 C 0.28209 0.8747 0.12446 0.0
C209 C 0.30048 0.86209 0.10586 0.0
H210 H 0.33792 0.83621 0.0827 0.0
H211 H 0.36054 0.81245 0.13621 0.0
H212 H 0.24379 0.89429 0.25568 0.0
H213 H 0.24918 0.89755 0.17283 0.0
H214 H 0.27192 0.88569 0.10278 0.0
H215 H 0.3042 0.86361 0.07018 0.0
Mn216 Mn 0.38565 0.09926 0.58868 0.0
Mn217 Mn 0.40755 0.05608 0.52666 0.0
C218 C 0.36619 0.08559 0.52596 0.0
C219 C 0.38265 0.13827 0.60343 0.0
C220 C 0.38645 0.04959 0.61924 0.0
O221 O 0.41939 0.09874 0.60711 0.0
O222 O 0.43284 0.07218 0.55836 0.0
C223 C 0.43364 0.08346 0.45989 0.0
N224 N 0.41713 0.06759 0.46926 0.0
C225 C 0.40866 0.06267 0.39037 0.0
C226 C 0.42565 0.07885 0.37987 0.0
C227 C 0.43814 0.08934 0.4148 0.0
C228 C 0.40487 0.05755 0.43593 0.0
H229 H 0.44323 0.09162 0.48662 0.0
C230 C 0.43581 0.08755 0.58878 0.0
O231 O 0.37833 0.12306 0.63433 0.0
O232 O 0.38915 0.13079 0.56425 0.0
N233 N 0.38452 0.03968 0.49365 0.0
C234 C 0.36765 0.02566 0.50959 0.0
C235 C 0.35321 0.01424 0.47899 0.0
C236 C 0.35631 0.01727 0.43237 0.0
C237 C 0.37382 0.03175 0.41675 0.0
C238 C 0.38774 0.04262 0.44883 0.0
H239 H 0.36523 0.0232 0.54536 0.0
O240 O 0.35509 0.09666 0.55708 0.0
O241 O 0.38781 0.08263 0.53378 0.0
O242 O 0.37982 0.07022 0.62466 0.0
O243 O 0.39755 0.04262 0.58465 0.0
C244 C 0.37767 0.03624 0.37064 0.0
C245 C 0.39504 0.05173 0.35747 0.0
H246 H 0.42911 0.08351 0.34515 0.0
H247 H 0.45119 0.10196 0.40698 0.0
H248 H 0.3397 0.00313 0.49131 0.0
H249 H 0.34504 0.00855 0.40889 0.0
H250 H 0.3671 0.02818 0.34507 0.0
H251 H 0.39755 0.05537 0.32198 0.0
Mn252 Mn 0.14147 0.13755 0.84175 0.0
Mn253 Mn 0.18272 0.15786 0.77301 0.0
C254 C 0.15626 0.11491 0.78441 0.0
C255 C 0.10273 0.1326 0.85724 0.0
C256 C 0.19119 0.1436 0.86996 0.0
O257 O 0.13969 0.17213 0.85131 0.0
O258 O 0.1653 0.18395 0.79905 0.0
C259 C 0.1528 0.1774 0.7019 0.0
N260 N 0.16991 0.16277 0.71437 0.0
C261 C 0.174 0.14899 0.63824 0.0
C262 C 0.15653 0.16402 0.62455 0.0
C263 C 0.14585 0.17823 0.65655 0.0
C264 C 0.18016 0.14888 0.68392 0.0
H265 H 0.14444 0.18825 0.72642 0.0
C266 C 0.14989 0.18789 0.82896 0.0
O267 O 0.11802 0.13152 0.88912 0.0
O268 O 0.10992 0.13722 0.81689 0.0
N269 N 0.20029 0.13398 0.74511 0.0
C270 C 0.21572 0.11937 0.76431 0.0
C271 C 0.22764 0.10369 0.73701 0.0
C272 C 0.22362 0.10323 0.69028 0.0
C273 C 0.20768 0.11846 0.67126 0.0
C274 C 0.19643 0.13381 0.70012 0.0
H275 H 0.21891 0.11965 0.80018 0.0
O276 O 0.14616 0.10538 0.81864 0.0
O277 O 0.15773 0.13701 0.78635 0.0
O278 O 0.17098 0.1363 0.87803 0.0
O279 O 0.19731 0.15252 0.83239 0.0
C280 C 0.20211 0.11862 0.62499 0.0
C281 C 0.18522 0.13382 0.60852 0.0
H282 H 0.15104 0.16463 0.58964 0.0
H283 H 0.13225 0.18976 0.64629 0.0
H284 H 0.23987 0.09195 0.75195 0.0
H285 H 0.23271 0.09099 0.6694 0.0
H286 H 0.21041 0.10684 0.60192 0.0
H287 H 0.18076 0.13348 0.57304 0.0
Mn288 Mn 0.8854 0.89248 0.57957 0.0
Mn289 Mn 0.91091 0.93587 0.52301 0.0
C290 C 0.86844 0.90819 0.5164 0.0
C291 C 0.87985 0.85367 0.59326 0.0
C292 C 0.88678 0.94207 0.61225 0.0
O293 O 0.91852 0.89071 0.60086 0.0
O294 O 0.9342 0.91936 0.55956 0.0
C295 C 0.93974 0.90809 0.46149 0.0
N296 N 0.92315 0.92425 0.46769 0.0
C297 C 0.91878 0.9294 0.38758 0.0
C298 C 0.93592 0.91291 0.38035 0.0
C299 C 0.94639 0.90217 0.41747 0.0
C300 C 0.91287 0.93461 0.43221 0.0
H301 H 0.94778 0.89972 0.48991 0.0
C302 C 0.93556 0.90282 0.58791 0.0
O303 O 0.87568 0.86904 0.62385 0.0
O304 O 0.88748 0.86084 0.55457 0.0
N305 N 0.89013 0.95291 0.48578 0.0
C306 C 0.87301 0.96746 0.49849 0.0
C307 C 0.86047 0.97927 0.46533 0.0
C308 C 0.86573 0.97608 0.4195 0.0
C309 C 0.8835 0.96109 0.40725 0.0
C310 C 0.8955 0.94991 0.4418 0.0
H311 H 0.86891 0.97 0.53366 0.0
O312 O 0.8559 0.89733 0.54569 0.0
O313 O 0.89009 0.90969 0.5258 0.0
O314 O 0.88035 0.92132 0.61666 0.0
O315 O 0.89839 0.94944 0.57871 0.0
C316 C 0.88946 0.95646 0.36209 0.0
C317 C 0.90704 0.94056 0.35226 0.0
H318 H 0.94103 0.90822 0.34644 0.0
H319 H 0.95954 0.88933 0.41215 0.0
H320 H 0.84675 0.99077 0.47505 0.0
H321 H 0.85589 0.98507 0.39401 0.0
H322 H 0.88038 0.96473 0.33465 0.0
H323 H 0.91119 0.93685 0.3174 0.0
Mn324 Mn 0.85137 0.13701 0.34305 0.0
Mn325 Mn 0.80943 0.15625 0.27466 0.0
C326 C 0.83707 0.11402 0.28584 0.0
C327 C 0.89024 0.13317 0.35857 0.0
C328 C 0.80159 0.14168 0.37159 0.0
O329 O 0.85218 0.17159 0.35264 0.0
O330 O 0.82626 0.18282 0.3004 0.0
C331 C 0.83863 0.17649 0.20318 0.0
N332 N 0.82193 0.16145 0.21587 0.0
C333 C 0.81792 0.14754 0.13981 0.0
C334 C 0.83496 0.163 0.12589 0.0
C335 C 0.8454 0.17749 0.15775 0.0
C336 C 0.81192 0.14728 0.18556 0.0
H337 H 0.84681 0.18755 0.22759 0.0
C338 C 0.84161 0.18711 0.33027 0.0
O339 O 0.87498 0.13165 0.39041 0.0
O340 O 0.88293 0.13757 0.31819 0.0
N341 N 0.79239 0.1319 0.24701 0.0
C342 C 0.77741 0.11689 0.2664 0.0
C343 C 0.7658 0.1009 0.23926 0.0
C344 C 0.76967 0.10053 0.19248 0.0
C345 C 0.78514 0.11616 0.17326 0.0
C346 C 0.7961 0.13181 0.20197 0.0
H347 H 0.77433 0.11712 0.30231 0.0
O348 O 0.84753 0.10475 0.31995 0.0
O349 O 0.83501 0.13608 0.28781 0.0
O350 O 0.82199 0.13487 0.37937 0.0
O351 O 0.79514 0.15058 0.3342 0.0
C352 C 0.79054 0.11646 0.12692 0.0
C353 C 0.80698 0.13208 0.11023 0.0
H354 H 0.8403 0.16375 0.09092 0.0
H355 H 0.85867 0.18935 0.14733 0.0
H356 H 0.75393 0.08886 0.25436 0.0
H357 H 0.76083 0.08805 0.17172 0.0
H358 H 0.78246 0.10446 0.10396 0.0
H359 H 0.81131 0.13185 0.0747 0.0
Mn360 Mn 0.61291 0.10377 0.09449 0.0
Mn361 Mn 0.59312 0.06287 0.02456 0.0
C362 C 0.63619 0.08964 0.03706 0.0
C363 C 0.61653 0.1426 0.11075 0.0
C364 C 0.60691 0.05411 0.1218 0.0
O365 O 0.57832 0.10489 0.1039 0.0
O366 O 0.56684 0.08043 0.04942 0.0
C367 C 0.57478 0.09312 0.95278 0.0
N368 N 0.5888 0.07561 0.96572 0.0
C369 C 0.60204 0.07014 0.88959 0.0
C370 C 0.58761 0.08799 0.87538 0.0
C371 C 0.57401 0.09961 0.90717 0.0
C372 C 0.60226 0.06461 0.93556 0.0
H373 H 0.56432 0.1021 0.97713 0.0
C374 C 0.5627 0.09526 0.08027 0.0
O375 O 0.61814 0.12723 0.14238 0.0
O376 O 0.61249 0.13538 0.07021 0.0
N377 N 0.6169 0.04487 -0.00252 0.0
C378 C 0.63101 0.02912 0.01713 0.0
C379 C 0.64603 0.01624 0.99008 0.0
C380 C 0.64629 0.01956 0.94314 0.0
C381 C 0.63154 0.0358 0.92364 0.0
C382 C 0.61687 0.04806 0.95228 0.0
H383 H 0.63076 0.02634 0.05313 0.0
O384 O 0.64522 0.09982 0.07173 0.0
O385 O 0.61407 0.08775 0.03862 0.0
O386 O 0.61461 0.07413 0.13014 0.0
O387 O 0.59779 0.04831 0.08419 0.0
C388 C 0.63116 0.04065 0.87706 0.0
C389 C 0.61647 0.05785 0.86006 0.0
H390 H 0.58698 0.09305 0.84023 0.0
H391 H 0.56296 0.11352 0.89652 0.0
H392 H 0.65737 0.00374 0.00538 0.0
H393 H 0.658 0.00968 0.92243 0.0
H394 H 0.64239 0.03153 0.85411 0.0
H395 H 0.61665 0.06173 0.82432 0.0
Mn396 Mn 0.64091 0.85348 0.84199 0.0
Mn397 Mn 0.68153 0.83122 0.77408 0.0
C398 C 0.6545 0.87407 0.7806 0.0
C399 C 0.60226 0.85812 0.85899 0.0
C400 C 0.69114 0.84935 0.86804 0.0
O401 O 0.6399 0.81935 0.85685 0.0
O402 O 0.66486 0.80602 0.80481 0.0
C403 C 0.65101 0.80857 0.70767 0.0
N404 N 0.66809 0.82382 0.71703 0.0
C405 C 0.6716 0.83406 0.63867 0.0
C406 C 0.65414 0.81837 0.62816 0.0
C407 C 0.64375 0.80564 0.66285 0.0
C408 C 0.67802 0.83634 0.68398 0.0
H409 H 0.64291 0.79881 0.73424 0.0
C410 C 0.64998 0.80296 0.83612 0.0
O411 O 0.61799 0.86081 0.88966 0.0
O412 O 0.609 0.85224 0.81897 0.0
N413 N 0.69843 0.85411 0.74175 0.0
C414 C 0.71388 0.86965 0.75787 0.0
C415 C 0.72548 0.8841 0.72759 0.0
C416 C 0.72118 0.88237 0.68108 0.0
C417 C 0.70525 0.86622 0.66525 0.0
C418 C 0.69427 0.85221 0.69702 0.0
H419 H 0.71732 0.871 0.79355 0.0
O420 O 0.64461 0.88473 0.81376 0.0
O421 O 0.65639 0.85214 0.78573 0.0
O422 O 0.67095 0.85667 0.87628 0.0
O423 O 0.69679 0.83904 0.83161 0.0
C424 C 0.69945 0.86383 0.61933 0.0
C425 C 0.68258 0.84781 0.60606 0.0
H426 H 0.64844 0.81612 0.59365 0.0
H427 H 0.63016 0.7936 0.65505 0.0
H428 H 0.73772 0.89656 0.74007 0.0
H429 H 0.73006 0.89366 0.65786 0.0
H430 H 0.70756 0.87452 0.59402 0.0
H431 H 0.67795 0.84644 0.57076 0.0
Mn432 Mn 0.89026 0.09681 0.90543 0.0
Mn433 Mn 0.90985 0.05279 0.96824 0.0
C434 C 0.86923 0.08338 0.96594 0.0
C435 C 0.8887 0.1358 0.89015 0.0
C436 C 0.89014 0.04729 0.87428 0.0
O437 O 0.92421 0.09536 0.88964 0.0
O438 O 0.93629 0.06837 0.93894 0.0
C439 C 0.93545 0.07891 0.03767 0.0
N440 N 0.91859 0.06371 0.02662 0.0
C441 C 0.9079 0.05919 0.10457 0.0
C442 C 0.92526 0.07467 0.11677 0.0
C443 C 0.93906 0.0846 0.08316 0.0
C444 C 0.90515 0.05412 0.05869 0.0
H445 H 0.946 0.08672 0.01195 0.0
C446 C 0.94007 0.08382 0.90899 0.0
O447 O 0.88457 0.1206 0.85915 0.0
O448 O 0.89411 0.12831 0.93001 0.0
N449 N 0.88563 0.03698 -0.00098 0.0
C450 C 0.86861 0.02366 0.98141 0.0
C451 C 0.85289 0.01294 0.01051 0.0
C452 C 0.85485 0.01598 0.05736 0.0
C453 C 0.87252 0.02975 0.07472 0.0
C454 C 0.88778 0.03986 0.04409 0.0
H455 H 0.86699 0.02127 0.94545 0.0
O456 O 0.85906 0.09495 0.93426 0.0
O457 O 0.89098 0.08 0.9602 0.0
O458 O 0.88423 0.06812 0.86898 0.0
O459 O 0.90062 0.03982 0.90923 0.0
C460 C 0.87524 0.03426 0.12111 0.0
C461 C 0.89288 0.04902 0.13602 0.0
H462 H 0.92799 0.07923 0.1518 0.0
H463 H 0.95239 0.09668 0.0923 0.0
H464 H 0.83926 0.0024 -0.00315 0.0
H465 H 0.84257 0.00785 0.07966 0.0
H466 H 0.8636 0.0268 0.14555 0.0
H467 H 0.89453 0.05269 0.1717 0.0
Mn468 Mn 0.63839 0.13863 0.65396 0.0
Mn469 Mn 0.68044 0.16226 0.71675 0.0
C470 C 0.6544 0.11867 0.71391 0.0
C471 C 0.5996 0.13278 0.64016 0.0
C472 C 0.68759 0.14399 0.62214 0.0
O473 O 0.63605 0.17271 0.63878 0.0
O474 O 0.66215 0.18682 0.68781 0.0
C475 C 0.65178 0.18461 0.78659 0.0
N476 N 0.66884 0.1697 0.77527 0.0
C477 C 0.67615 0.1609 0.85328 0.0
C478 C 0.65878 0.17628 0.86581 0.0
C479 C 0.64645 0.18809 0.83229 0.0
C480 C 0.68055 0.15798 0.80721 0.0
H481 H 0.64229 0.19374 0.76094 0.0
C482 C 0.6463 0.1894 0.65823 0.0
O483 O 0.61479 0.13053 0.6084 0.0
O484 O 0.60691 0.13893 0.6797 0.0
N485 N 0.69903 0.14004 0.74724 0.0
C486 C 0.71425 0.12476 0.72944 0.0
C487 C 0.72753 0.11109 0.75845 0.0
C488 C 0.72518 0.11338 0.8054 0.0
C489 C 0.70946 0.12927 0.82294 0.0
C490 C 0.69667 0.14241 0.79238 0.0
H491 H 0.71625 0.12304 0.6934 0.0
O492 O 0.64377 0.1076 0.68216 0.0
O493 O 0.65542 0.14066 0.70858 0.0
O494 O 0.66742 0.13607 0.6165 0.0
O495 O 0.69407 0.15462 0.65764 0.0
C496 C 0.70572 0.13232 0.86952 0.0
C497 C 0.68907 0.14812 0.88468 0.0
H498 H 0.65462 0.17901 0.90102 0.0
H499 H 0.63292 0.19988 0.84168 0.0
H500 H 0.7396 0.09884 0.74465 0.0
H501 H 0.7354 0.10274 0.82765 0.0
H502 H 0.7153 0.12235 0.89396 0.0
H503 H 0.68609 0.15005 0.92055 0.0
Mn504 Mn 0.60103 0.89003 0.39912 0.0
Mn505 Mn 0.58247 0.93184 0.46838 0.0
C506 C 0.62381 0.90256 0.45836 0.0
C507 C 0.60299 0.85124 0.38177 0.0
C508 C 0.5987 0.9402 0.37258 0.0
O509 O 0.56661 0.89094 0.38745 0.0
O510 O 0.55561 0.91623 0.44093 0.0
C511 C 0.5605 0.90263 0.53782 0.0
N512 N 0.57616 0.91901 0.52645 0.0
C513 C 0.58892 0.92226 0.60342 0.0
C514 C 0.57283 0.90555 0.616 0.0
C515 C 0.55862 0.89563 0.58302 0.0
C516 C 0.59012 0.92844 0.55782 0.0
H517 H 0.54962 0.89488 0.51256 0.0
C518 C 0.55118 0.90159 0.40984 0.0
O519 O 0.60586 0.86679 0.35087 0.0
O520 O 0.59854 0.85826 0.42232 0.0
N521 N 0.60702 0.94782 0.49775 0.0
C522 C 0.62267 0.96257 0.47963 0.0
C523 C 0.63847 0.97366 0.50802 0.0
C524 C 0.63797 0.96957 0.55472 0.0
C525 C 0.62167 0.95438 0.57263 0.0
C526 C 0.60627 0.94392 0.5427 0.0
H527 H 0.62307 0.96587 0.44381 0.0
O528 O 0.63306 0.89204 0.42433 0.0
O529 O 0.60189 0.90566 0.45524 0.0
O530 O 0.60508 0.91971 0.36442 0.0
O531 O 0.58932 0.94648 0.40961 0.0
C532 C 0.62042 0.94883 0.61884 0.0
C533 C 0.60411 0.93273 0.63421 0.0
H534 H 0.57137 0.90007 0.65081 0.0
H535 H 0.54627 0.88261 0.59241 0.0
H536 H 0.65101 0.98534 0.49394 0.0
H537 H 0.65029 0.97804 0.57646 0.0
H538 H 0.63219 0.95654 0.64274 0.0
H539 H 0.60361 0.92827 0.66968 0.0
Mn540 Mn 0.85915 0.86152 0.13709 0.0
Mn541 Mn 0.81889 0.8423 0.20922 0.0
C542 C 0.84506 0.88535 0.19327 0.0
C543 C 0.89782 0.86505 0.11934 0.0
C544 C 0.8091 0.85514 0.11192 0.0
O545 O 0.86045 0.82688 0.12926 0.0
O546 O 0.83621 0.81583 0.18445 0.0
C547 C 0.84991 0.8245 0.28031 0.0
N548 N 0.83231 0.83849 0.26763 0.0
C549 C 0.82757 0.85223 0.3436 0.0
C550 C 0.84555 0.83788 0.35754 0.0
C551 C 0.85684 0.82405 0.3257 0.0
C552 C 0.82162 0.85217 0.29783 0.0
H553 H 0.85861 0.81383 0.25594 0.0
C554 C 0.85092 0.81146 0.15348 0.0
O555 O 0.88213 0.86619 0.08821 0.0
O556 O 0.891 0.86166 0.1604 0.0
N557 N 0.80115 0.86626 0.23633 0.0
C558 C 0.78508 0.88011 0.21697 0.0
C559 C 0.77242 0.89528 0.24412 0.0
C560 C 0.77627 0.89591 0.2909 0.0
C561 C 0.79279 0.88139 0.31011 0.0
C562 C 0.80487 0.86663 0.28137 0.0
H563 H 0.78189 0.87956 0.18112 0.0
O564 O 0.85511 0.89407 0.15815 0.0
O565 O 0.84355 0.86321 0.1933 0.0
O566 O 0.82911 0.86254 0.10235 0.0
O567 O 0.80366 0.8465 0.15015 0.0
C568 C 0.79807 0.8813 0.35652 0.0
C569 C 0.8155 0.86679 0.37323 0.0
H570 H 0.85093 0.83747 0.39253 0.0
H571 H 0.87081 0.81302 0.33614 0.0
H572 H 0.75969 0.90642 0.22903 0.0
H573 H 0.76654 0.9077 0.31168 0.0
H574 H 0.78911 0.89262 0.37954 0.0
H575 H 0.81971 0.86719 0.40883 0.0
Mn576 Mn 0.60632 0.59947 0.90595 0.0
Mn577 Mn 0.58466 0.55632 0.96844 0.0
C578 C 0.62629 0.58547 0.96769 0.0
C579 C 0.60965 0.63836 0.89076 0.0
C580 C 0.60485 0.54988 0.87518 0.0
O581 O 0.57241 0.59931 0.88876 0.0
O582 O 0.55924 0.5726 0.93753 0.0
C583 C 0.55919 0.58369 0.03611 0.0
N584 N 0.57556 0.56779 0.02616 0.0
C585 C 0.5843 0.56235 0.10481 0.0
C586 C 0.56746 0.57859 0.1159 0.0
C587 C 0.55492 0.58936 0.08138 0.0
C588 C 0.58789 0.55749 0.05909 0.0
H589 H 0.54952 0.59203 0.00969 0.0
C590 C 0.55609 0.58807 0.90737 0.0
O591 O 0.61342 0.62303 0.85987 0.0
O592 O 0.60348 0.6311 0.93034 0.0
N593 N 0.60779 0.5397 0.00071 0.0
C594 C 0.62443 0.52557 0.98422 0.0
C595 C 0.6389 0.51386 0.01436 0.0
C596 C 0.63604 0.5167 0.06108 0.0
C597 C 0.61876 0.53129 0.07727 0.0
C598 C 0.60483 0.54247 0.04562 0.0
H599 H 0.62664 0.52323 0.94836 0.0
O600 O 0.63717 0.59652 0.93622 0.0
O601 O 0.60454 0.5828 0.96089 0.0
O602 O 0.6115 0.57048 0.86968 0.0
O603 O 0.5941 0.54285 0.91014 0.0
C604 C 0.61511 0.53553 0.12352 0.0
C605 C 0.59792 0.55108 0.13727 0.0
H606 H 0.56415 0.58305 0.15078 0.0
H607 H 0.54197 0.602 0.08967 0.0
H608 H 0.65222 0.50267 0.0016 0.0
H609 H 0.64731 0.50774 0.0842 0.0
H610 H 0.62568 0.52721 0.14877 0.0
H611 H 0.59553 0.55449 0.17289 0.0
Mn612 Mn 0.64702 0.35765 0.14657 0.0
Mn613 Mn 0.6886 0.33888 0.21608 0.0
C614 C 0.66063 0.38105 0.20408 0.0
C615 C 0.60818 0.36052 0.13003 0.0
C616 C 0.69681 0.35292 0.11889 0.0
O617 O 0.64672 0.32305 0.1372 0.0
O618 O 0.6717 0.31211 0.19132 0.0
C619 C 0.65899 0.31972 0.28804 0.0
N620 N 0.67601 0.33431 0.27497 0.0
C621 C 0.68051 0.34845 0.35074 0.0
C622 C 0.66314 0.33346 0.36507 0.0
C623 C 0.65227 0.31911 0.33353 0.0
C624 C 0.68633 0.34844 0.30491 0.0
H625 H 0.65052 0.30873 0.26387 0.0
C626 C 0.6568 0.30766 0.16068 0.0
O627 O 0.6236 0.3624 0.09857 0.0
O628 O 0.61535 0.35656 0.17067 0.0
N629 N 0.70582 0.36331 0.24293 0.0
C630 C 0.72102 0.37795 0.22311 0.0
C631 C 0.7331 0.39376 0.24989 0.0
C632 C 0.72952 0.39427 0.29675 0.0
C633 C 0.71384 0.379 0.31641 0.0
C634 C 0.70237 0.36356 0.28804 0.0
H635 H 0.72396 0.37754 0.18717 0.0
O636 O 0.65025 0.39 0.16953 0.0
O637 O 0.66309 0.35903 0.20217 0.0
O638 O 0.67656 0.36011 0.11098 0.0
O639 O 0.703 0.34388 0.15633 0.0
C640 C 0.70872 0.37887 0.36289 0.0
C641 C 0.69198 0.36368 0.38 0.0
H642 H 0.65787 0.33299 0.4001 0.0
H643 H 0.63874 0.30761 0.34426 0.0
H644 H 0.74516 0.40551 0.23445 0.0
H645 H 0.73877 0.40659 0.31724 0.0
H646 H 0.71722 0.39069 0.38561 0.0
H647 H 0.68783 0.36408 0.41561 0.0
Mn648 Mn 0.87991 0.39206 0.39632 0.0
Mn649 Mn 0.89898 0.43195 0.46912 0.0
C650 C 0.85554 0.40591 0.45235 0.0
C651 C 0.87652 0.35339 0.37852 0.0
C652 C 0.88715 0.44182 0.37125 0.0
O653 O 0.91458 0.39064 0.38925 0.0
O654 O 0.92547 0.41412 0.44571 0.0
C655 C 0.91521 0.40065 0.54109 0.0
N656 N 0.90191 0.41864 0.52779 0.0
C657 C 0.8875 0.4239 0.60314 0.0
C658 C 0.90118 0.40554 0.61775 0.0
C659 C 0.91499 0.39378 0.58652 0.0
C660 C 0.88824 0.42978 0.55736 0.0
H661 H 0.92584 0.39156 0.51717 0.0
C662 C 0.92992 0.39965 0.41439 0.0
O663 O 0.87549 0.36901 0.34727 0.0
O664 O 0.8797 0.36029 0.41954 0.0
N665 N 0.87514 0.45028 0.49507 0.0
C666 C 0.86185 0.4666 0.475 0.0
C667 C 0.84681 0.47978 0.50146 0.0
C668 C 0.84568 0.47615 0.54827 0.0
C669 C 0.85961 0.45934 0.56823 0.0
C670 C 0.87439 0.44685 0.54018 0.0
H671 H 0.86279 0.46962 0.43912 0.0
O672 O 0.84724 0.39617 0.41649 0.0
O673 O 0.87773 0.40757 0.45278 0.0
O674 O 0.8792 0.42203 0.36172 0.0
O675 O 0.89573 0.4471 0.40963 0.0
C676 C 0.85903 0.45412 0.61465 0.0
C677 C 0.8729 0.43635 0.63206 0.0
H678 H 0.90105 0.40019 0.65276 0.0
H679 H 0.92547 0.37949 0.59747 0.0
H680 H 0.83612 0.49272 0.48582 0.0
H681 H 0.83395 0.48624 0.5685 0.0
H682 H 0.84769 0.4634 0.63713 0.0
H683 H 0.87199 0.4322 0.66764 0.0
Mn684 Mn 0.84935 0.63915 0.6533 0.0
Mn685 Mn 0.8086 0.66126 0.72087 0.0
C686 C 0.83537 0.61823 0.71412 0.0
C687 C 0.88805 0.63413 0.63743 0.0
C688 C 0.79947 0.64426 0.62589 0.0
O689 O 0.85069 0.67338 0.6393 0.0
O690 O 0.82574 0.68659 0.69149 0.0
C691 C 0.83907 0.68269 0.78888 0.0
N692 N 0.82182 0.6678 0.77852 0.0
C693 C 0.81821 0.65624 0.85615 0.0
C694 C 0.83583 0.67156 0.8677 0.0
C695 C 0.84635 0.68478 0.83388 0.0
C696 C 0.81176 0.65481 0.81072 0.0
H697 H 0.8473 0.69279 0.76296 0.0
C698 C 0.84067 0.68973 0.66029 0.0
O699 O 0.87258 0.63184 0.60612 0.0
O700 O 0.88103 0.63996 0.67726 0.0
N701 N 0.79125 0.63819 0.75178 0.0
C702 C 0.77565 0.62311 0.73463 0.0
C703 C 0.76383 0.60832 0.76395 0.0
C704 C 0.76813 0.60921 0.81056 0.0
C705 C 0.78424 0.6249 0.82745 0.0
C706 C 0.79537 0.63934 0.79663 0.0
H707 H 0.77222 0.62239 0.69886 0.0
O708 O 0.84519 0.60775 0.68067 0.0
O709 O 0.83354 0.64018 0.70919 0.0
O710 O 0.81956 0.63654 0.61819 0.0
O711 O 0.79365 0.6543 0.66253 0.0
C712 C 0.79008 0.62641 0.8735 0.0
C713 C 0.80711 0.64202 0.88782 0.0
H714 H 0.84155 0.67315 0.90233 0.0
H715 H 0.86007 0.69652 0.84247 0.0
H716 H 0.75145 0.59623 0.75065 0.0
H717 H 0.7591 0.59765 0.83301 0.0
H718 H 0.78187 0.61537 0.89807 0.0
H719 H 0.81177 0.64271 0.92318 0.0
Mn720 Mn 0.60482 0.39276 0.58527 0.0
Mn721 Mn 0.58448 0.43558 0.52038 0.0
C722 C 0.62615 0.40645 0.52521 0.0
C723 C 0.60734 0.3539 0.60123 0.0
C724 C 0.60282 0.44243 0.6151 0.0
O725 O 0.57068 0.39319 0.59969 0.0
O726 O 0.55829 0.41929 0.54891 0.0
C727 C 0.56095 0.40769 0.45077 0.0
N728 N 0.57693 0.42378 0.46201 0.0
C729 C 0.58811 0.42835 0.38437 0.0
C730 C 0.57166 0.41195 0.37194 0.0
C731 C 0.55808 0.40153 0.40532 0.0
C732 C 0.59025 0.43375 0.43022 0.0
H733 H 0.55054 0.39955 0.47632 0.0
C734 C 0.55467 0.40401 0.57925 0.0
O735 O 0.61072 0.36929 0.63221 0.0
O736 O 0.60217 0.3611 0.56107 0.0
N737 N 0.60837 0.45214 0.49015 0.0
C738 C 0.62444 0.4665 0.508 0.0
C739 C 0.63977 0.47795 0.47916 0.0
C740 C 0.63836 0.47459 0.43231 0.0
C741 C 0.62164 0.45977 0.4147 0.0
C742 C 0.60675 0.44892 0.44507 0.0
H743 H 0.62557 0.46922 0.54395 0.0
O744 O 0.63626 0.39542 0.55769 0.0
O745 O 0.60427 0.40922 0.53011 0.0
O746 O 0.60947 0.42187 0.62121 0.0
O747 O 0.59251 0.44929 0.57945 0.0
C748 C 0.61948 0.45496 0.3683 0.0
C749 C 0.60277 0.43921 0.35315 0.0
H750 H 0.56947 0.40708 0.33693 0.0
H751 H 0.54546 0.38874 0.39602 0.0
H752 H 0.65265 0.48933 0.49301 0.0
H753 H 0.65032 0.48333 0.41022 0.0
H754 H 0.63085 0.46298 0.34404 0.0
H755 H 0.60156 0.43533 0.31749 0.0
Mn756 Mn 0.8577 0.35049 0.83099 0.0
Mn757 Mn 0.81465 0.32691 0.7707 0.0
C758 C 0.84083 0.3704 0.77199 0.0
C759 C 0.89659 0.35657 0.84298 0.0
C760 C 0.80895 0.34532 0.86555 0.0
O761 O 0.86026 0.31639 0.84606 0.0
O762 O 0.83327 0.30234 0.79879 0.0
C763 C 0.84199 0.30416 0.69934 0.0
N764 N 0.82526 0.31925 0.71157 0.0
C765 C 0.81666 0.32781 0.63396 0.0
C766 C 0.83368 0.31224 0.62051 0.0
C767 C 0.84649 0.30046 0.65336 0.0
C768 C 0.81307 0.33092 0.68026 0.0
H769 H 0.85185 0.29505 0.72447 0.0
C770 C 0.8496 0.29972 0.82736 0.0
O771 O 0.88176 0.35868 0.87541 0.0
O772 O 0.88889 0.35031 0.80378 0.0
N773 N 0.79574 0.3492 0.74114 0.0
C774 C 0.78102 0.36471 0.75972 0.0
C775 C 0.76744 0.37848 0.73141 0.0
C776 C 0.769 0.37603 0.68437 0.0
C777 C 0.78423 0.3599 0.66603 0.0
C778 C 0.79735 0.34668 0.69591 0.0
H779 H 0.77965 0.36658 0.79584 0.0
O780 O 0.8519 0.38151 0.80311 0.0
O781 O 0.83994 0.3484 0.77722 0.0
O782 O 0.82924 0.35309 0.87005 0.0
O783 O 0.80191 0.33473 0.83044 0.0
C784 C 0.78715 0.35666 0.61928 0.0
C785 C 0.80334 0.34061 0.60326 0.0
H786 H 0.83721 0.30935 0.58508 0.0
H787 H 0.85976 0.28852 0.64325 0.0
H788 H 0.75576 0.39093 0.74582 0.0
H789 H 0.75855 0.38673 0.66265 0.0
H790 H 0.77727 0.36666 0.59534 0.0
H791 H 0.80566 0.3385 0.56724 0.0
Mn792 Mn 0.8924 0.60669 0.09423 0.0
Mn793 Mn 0.91277 0.56518 0.02629 0.0
C794 C 0.87009 0.59248 0.03577 0.0
C795 C 0.88884 0.64551 0.10997 0.0
C796 C 0.89709 0.55692 0.12247 0.0
O797 O 0.92685 0.60756 0.10564 0.0
O798 O 0.93892 0.58225 0.05314 0.0
C799 C 0.93345 0.59463 0.95571 0.0
N800 N 0.91849 0.57774 0.96774 0.0
C801 C 0.90588 0.57317 0.89093 0.0
C802 C 0.92126 0.59042 0.87768 0.0
C803 C 0.93504 0.60125 0.91025 0.0
C804 C 0.90496 0.5674 0.93676 0.0
H805 H 0.94402 0.60306 0.98065 0.0
C806 C 0.94273 0.5974 0.08361 0.0
O807 O 0.88666 0.63019 0.14157 0.0
O808 O 0.89339 0.63823 0.06965 0.0
N809 N 0.88894 0.54786 -0.00243 0.0
C810 C 0.87388 0.5327 0.01628 0.0
C811 C 0.85853 0.52071 0.98836 0.0
C812 C 0.85887 0.52435 0.94151 0.0
C813 C 0.87454 0.54 0.923 0.0
C814 C 0.88949 0.55139 0.95248 0.0
H815 H 0.87359 0.52977 0.05223 0.0
O816 O 0.86041 0.60292 0.06944 0.0
O817 O 0.89215 0.59051 0.0387 0.0
O818 O 0.88985 0.57718 0.13017 0.0
O819 O 0.90661 0.55078 0.0855 0.0
C820 C 0.87555 0.54513 0.87657 0.0
C821 C 0.89117 0.56176 0.86057 0.0
H822 H 0.92247 0.59561 0.84267 0.0
H823 H 0.94684 0.61468 0.90033 0.0
H824 H 0.84645 0.50869 0.00291 0.0
H825 H 0.84689 0.51517 0.92013 0.0
H826 H 0.86411 0.5367 0.853 0.0
H827 H 0.89148 0.56587 0.82493 0.0
Mn828 Mn 0.63642 0.63648 0.34589 0.0
Mn829 Mn 0.67713 0.65639 0.27565 0.0
C830 C 0.65146 0.61279 0.29018 0.0
C831 C 0.59768 0.63216 0.36202 0.0
C832 C 0.68589 0.64399 0.37357 0.0
O833 O 0.63436 0.67109 0.35349 0.0
O834 O 0.65887 0.68256 0.29912 0.0
C835 C 0.64649 0.67298 0.20285 0.0
N836 N 0.66436 0.65961 0.21654 0.0
C837 C 0.67001 0.64524 0.14125 0.0
C838 C 0.65177 0.65898 0.12627 0.0
C839 C 0.63989 0.67282 0.15727 0.0
C840 C 0.67563 0.64593 0.18716 0.0
H841 H 0.63728 0.6836 0.2266 0.0
C842 C 0.64375 0.68667 0.32946 0.0
O843 O 0.61302 0.63139 0.39384 0.0
O844 O 0.60488 0.63571 0.32128 0.0
N845 N 0.69579 0.63275 0.24983 0.0
C846 C 0.71198 0.61942 0.27019 0.0
C847 C 0.72528 0.60438 0.24397 0.0
C848 C 0.72188 0.60328 0.19709 0.0
C849 C 0.70519 0.61724 0.17684 0.0
C850 C 0.69256 0.63201 0.20466 0.0
H851 H 0.7148 0.6203 0.30614 0.0
O852 O 0.64133 0.60401 0.32516 0.0
O853 O 0.6527 0.63496 0.29035 0.0
O854 O 0.66596 0.63604 0.38191 0.0
O855 O 0.6917 0.65276 0.33565 0.0
C856 C 0.70024 0.61672 0.1303 0.0
C857 C 0.68259 0.63064 0.11255 0.0
H858 H 0.64662 0.65889 0.09115 0.0
H859 H 0.62569 0.68335 0.14603 0.0
H860 H 0.73813 0.59367 0.25985 0.0
H861 H 0.73207 0.59155 0.17703 0.0
H862 H 0.70961 0.60537 0.10799 0.0
H863 H 0.67864 0.62976 0.07688 0.0
Mn864 Mn 0.39333 0.39002 0.08371 0.0
Mn865 Mn 0.41323 0.43233 0.01701 0.0
C866 C 0.37118 0.40396 0.02477 0.0
C867 C 0.39024 0.35116 0.09954 0.0
C868 C 0.39682 0.43971 0.11294 0.0
O869 O 0.42774 0.38986 0.09592 0.0
O870 O 0.43955 0.4157 0.0441 0.0
C871 C 0.43502 0.40381 0.94628 0.0
N872 N 0.4196 0.42028 0.95834 0.0
C873 C 0.40757 0.42525 0.88127 0.0
C874 C 0.42341 0.40845 0.86799 0.0
C875 C 0.43712 0.39762 0.90067 0.0
C876 C 0.40612 0.4306 0.92724 0.0
H877 H 0.44555 0.39539 0.9713 0.0
C878 C 0.44351 0.40048 0.07438 0.0
O879 O 0.38771 0.36651 0.13092 0.0
O880 O 0.39499 0.3584 0.05924 0.0
N881 N 0.3892 0.44928 0.98811 0.0
C882 C 0.37367 0.46395 0.00681 0.0
C883 C 0.35828 0.47583 0.97877 0.0
C884 C 0.35909 0.47261 0.93183 0.0
C885 C 0.37525 0.45746 0.91334 0.0
C886 C 0.39019 0.44614 0.94295 0.0
H887 H 0.37304 0.46659 0.04283 0.0
O888 O 0.36145 0.39321 0.05803 0.0
O889 O 0.39316 0.4064 0.02838 0.0
O890 O 0.38992 0.41929 0.1199 0.0
O891 O 0.40645 0.44629 0.07638 0.0
C892 C 0.37678 0.45276 0.8668 0.0
C893 C 0.39288 0.43662 0.85079 0.0
H894 H 0.42504 0.40359 0.83287 0.0
H895 H 0.44929 0.38453 0.89073 0.0
H896 H 0.34583 0.48746 0.99331 0.0
H897 H 0.3471 0.4817 0.91036 0.0
H898 H 0.36537 0.46116 0.84311 0.0
H899 H 0.3936 0.43284 0.81504 0.0
Mn900 Mn 0.3535 0.63587 0.83524 0.0
Mn901 Mn 0.30986 0.65797 0.7744 0.0
C902 C 0.33883 0.61631 0.7736 0.0
C903 C 0.39252 0.63195 0.84923 0.0
C904 C 0.30395 0.63697 0.8671 0.0
O905 O 0.35376 0.66972 0.85303 0.0
O906 O 0.3263 0.68299 0.806 0.0
C907 C 0.33695 0.68417 0.70733 0.0
N908 N 0.32102 0.66776 0.71687 0.0
C909 C 0.31492 0.66017 0.63796 0.0
C910 C 0.33118 0.67708 0.62729 0.0
C911 C 0.3423 0.68906 0.66214 0.0
C912 C 0.31041 0.65595 0.68361 0.0
H913 H 0.34555 0.69342 0.73401 0.0
C914 C 0.34217 0.68606 0.83537 0.0
O915 O 0.37735 0.62825 0.88048 0.0
O916 O 0.38504 0.63854 0.81006 0.0
N917 N 0.293 0.63528 0.74142 0.0
C918 C 0.27888 0.61851 0.75743 0.0
C919 C 0.26684 0.60455 0.72688 0.0
C920 C 0.26932 0.60808 0.68025 0.0
C921 C 0.28389 0.62549 0.66457 0.0
C922 C 0.29542 0.63888 0.69661 0.0
H923 H 0.27681 0.6158 0.79322 0.0
O924 O 0.35008 0.60521 0.80451 0.0
O925 O 0.33642 0.63805 0.78067 0.0
O926 O 0.32469 0.63066 0.87229 0.0
O927 O 0.29667 0.6478 0.83245 0.0
C928 C 0.28776 0.6298 0.61841 0.0
C929 C 0.30331 0.6471 0.60512 0.0
H930 H 0.33538 0.68086 0.59248 0.0
H931 H 0.35495 0.70204 0.65419 0.0
H932 H 0.25565 0.59112 0.73925 0.0
H933 H 0.26009 0.5972 0.6568 0.0
H934 H 0.27917 0.61966 0.59285 0.0
H935 H 0.30644 0.64999 0.56955 0.0
Mn936 Mn 0.10225 0.60594 0.59958 0.0
Mn937 Mn 0.08441 0.5635 0.53083 0.0
C938 C 0.12391 0.59543 0.53774 0.0
C939 C 0.10219 0.64443 0.61954 0.0
C940 C 0.10423 0.55548 0.6241 0.0
O941 O 0.06836 0.60266 0.61484 0.0
O942 O 0.05739 0.57706 0.56184 0.0
C943 C 0.05793 0.59098 0.46478 0.0
N944 N 0.07532 0.57606 0.47394 0.0
C945 C 0.08611 0.57447 0.39562 0.0
C946 C 0.06822 0.58969 0.38533 0.0
C947 C 0.0541 0.59802 0.42009 0.0
C948 C 0.08906 0.56802 0.44077 0.0
H949 H 0.04712 0.59755 0.4914 0.0
C950 C 0.05297 0.59127 0.59374 0.0
O951 O 0.10698 0.62855 0.64882 0.0
O952 O 0.09709 0.63789 0.57891 0.0
N953 N 0.10916 0.54961 0.49821 0.0
C954 C 0.12656 0.53623 0.51412 0.0
C955 C 0.14257 0.52695 0.48376 0.0
C956 C 0.1405 0.53148 0.43738 0.0
C957 C 0.12243 0.54526 0.42177 0.0
C958 C 0.1069 0.55389 0.45359 0.0
H959 H 0.12825 0.53268 0.54971 0.0
O960 O 0.13354 0.60631 0.57097 0.0
O961 O 0.10227 0.59107 0.54253 0.0
O962 O 0.10937 0.57629 0.6323 0.0
O963 O 0.09406 0.54891 0.58811 0.0
C964 C 0.11953 0.55118 0.37603 0.0
C965 C 0.10143 0.56583 0.36298 0.0
H966 H 0.06529 0.59527 0.35094 0.0
H967 H 0.04034 0.60988 0.41245 0.0
H968 H 0.15651 0.51639 0.49608 0.0
H969 H 0.15301 0.52447 0.41412 0.0
H970 H 0.13136 0.54488 0.35071 0.0
H971 H 0.09962 0.57059 0.32783 0.0
Mn972 Mn 0.13333 0.35288 0.34941 0.0
Mn973 Mn 0.17463 0.33167 0.28183 0.0
C974 C 0.14745 0.37443 0.28972 0.0
C975 C 0.09452 0.35688 0.3654 0.0
C976 C 0.1832 0.34836 0.37726 0.0
O977 O 0.13243 0.31855 0.36248 0.0
O978 O 0.15754 0.306 0.31001 0.0
C979 C 0.1449 0.31033 0.21244 0.0
N980 N 0.16195 0.32528 0.22365 0.0
C981 C 0.16685 0.33652 0.14612 0.0
C982 C 0.14944 0.32114 0.1337 0.0
C983 C 0.13835 0.30806 0.16704 0.0
C984 C 0.1725 0.33817 0.19192 0.0
H985 H 0.1363 0.30028 0.23797 0.0
C986 C 0.14253 0.30248 0.34089 0.0
O987 O 0.10995 0.35933 0.39672 0.0
O988 O 0.10166 0.35173 0.32526 0.0
N989 N 0.19205 0.35501 0.25188 0.0
C990 C 0.20734 0.37018 0.26978 0.0
C991 C 0.21958 0.38492 0.24101 0.0
C992 C 0.21608 0.38381 0.19417 0.0
C993 C 0.20029 0.36801 0.1765 0.0
C994 C 0.18864 0.35373 0.20682 0.0
H995 H 0.21021 0.37102 0.30572 0.0
O996 O 0.13709 0.38455 0.323 0.0
O997 O 0.14936 0.35244 0.29363 0.0
O998 O 0.163 0.35577 0.38496 0.0
O999 O 0.18917 0.33844 0.34059 0.0
C1000 C 0.1953 0.36623 0.1301 0.0
C1001 C 0.17854 0.35054 0.11494 0.0
H1002 H 0.14432 0.31938 0.09873 0.0
H1003 H 0.1248 0.29626 0.15776 0.0
H1004 H 0.23171 0.39709 0.25491 0.0
H1005 H 0.22546 0.3953 0.17212 0.0
H1006 H 0.20395 0.37714 0.10588 0.0
H1007 H 0.17453 0.34965 0.07929 0.0
Mn1008 Mn 0.38193 0.60156 0.39251 0.0
Mn1009 Mn 0.40134 0.56114 0.46393 0.0
C1010 C 0.3584 0.58813 0.45009 0.0
C1011 C 0.37898 0.64014 0.37399 0.0
C1012 C 0.38788 0.55175 0.36677 0.0
O1013 O 0.41654 0.60224 0.38339 0.0
O1014 O 0.4278 0.57855 0.43933 0.0
C1015 C 0.41925 0.59179 0.53546 0.0
N1016 N 0.40532 0.57419 0.52259 0.0
C1017 C 0.39171 0.56904 0.59855 0.0
C1018 C 0.40603 0.587 0.6127 0.0
C1019 C 0.41976 0.5985 0.58096 0.0
C1020 C 0.39172 0.56331 0.55268 0.0
H1021 H 0.42981 0.60068 0.51114 0.0
C1022 C 0.43206 0.59297 0.40779 0.0
O1023 O 0.37723 0.62432 0.34331 0.0
O1024 O 0.38261 0.6335 0.41512 0.0
N1025 N 0.3774 0.54329 0.49083 0.0
C1026 C 0.36344 0.52739 0.47122 0.0
C1027 C 0.34832 0.51458 0.49822 0.0
C1028 C 0.34783 0.51811 0.5451 0.0
C1029 C 0.36245 0.53448 0.56457 0.0
C1030 C 0.37722 0.54666 0.53598 0.0
H1031 H 0.36389 0.52443 0.43528 0.0
O1032 O 0.34955 0.59814 0.41502 0.0
O1033 O 0.38052 0.58607 0.44895 0.0
O1034 O 0.38001 0.57165 0.35813 0.0
O1035 O 0.39707 0.5462 0.40446 0.0
C1036 C 0.3626 0.53952 0.61107 0.0
C1037 C 0.37718 0.55684 0.62803 0.0
H1038 H 0.40646 0.59223 0.64776 0.0
H1039 H 0.43074 0.61249 0.59156 0.0
H1040 H 0.33711 0.50197 0.48294 0.0
H1041 H 0.33606 0.50828 0.56576 0.0
H1042 H 0.3513 0.53046 0.63398 0.0
H1043 H 0.37683 0.56087 0.6637 0.0
Mn1044 Mn 0.14573 0.64307 0.15215 0.0
Mn1045 Mn 0.18945 0.66382 0.21457 0.0
C1046 C 0.15776 0.62418 0.21645 0.0
C1047 C 0.10685 0.64111 0.13551 0.0
C1048 C 0.19586 0.64037 0.12431 0.0
O1049 O 0.14802 0.67634 0.13153 0.0
O1050 O 0.17544 0.68916 0.17924 0.0
C1051 C 0.16311 0.69357 0.27683 0.0
N1052 N 0.17776 0.67566 0.27016 0.0
C1053 C 0.18013 0.66842 0.34998 0.0
C1054 C 0.16519 0.68687 0.3577 0.0
C1055 C 0.15662 0.69947 0.32095 0.0
C1056 C 0.18611 0.66343 0.30528 0.0
H1057 H 0.15635 0.70321 0.24869 0.0
C1058 C 0.16035 0.69238 0.14832 0.0
O1059 O 0.12231 0.63583 0.10571 0.0
O1060 O 0.11402 0.6482 0.17454 0.0
N1061 N 0.20376 0.64068 0.25087 0.0
C1062 C 0.21678 0.62249 0.23751 0.0
C1063 C 0.22618 0.60776 0.27016 0.0
C1064 C 0.22212 0.61189 0.31616 0.0
C1065 C 0.20869 0.63074 0.32911 0.0
C1066 C 0.19996 0.64496 0.29508 0.0
H1067 H 0.21989 0.61918 0.2022 0.0
O1068 O 0.14662 0.61303 0.18548 0.0
O1069 O 0.16171 0.64558 0.20789 0.0
O1070 O 0.17486 0.63526 0.11805 0.0
O1071 O 0.20315 0.65148 0.15861 0.0
C1072 C 0.2032 0.63567 0.37437 0.0
C1073 C 0.1889 0.65447 0.3848 0.0
H1074 H 0.15999 0.69136 0.39165 0.0
H1075 H 0.14497 0.71365 0.32662 0.0
H1076 H 0.23645 0.5932 0.25989 0.0
H1077 H 0.2292 0.60035 0.34121 0.0
H1078 H 0.20958 0.62488 0.40138 0.0
H1079 H 0.18449 0.65785 0.41967 0.0
Mn1080 Mn 0.10899 0.39182 0.89982 0.0
Mn1081 Mn 0.08748 0.43423 0.9643 0.0
C1082 C 0.1283 0.404 0.96395 0.0
C1083 C 0.1113 0.35299 0.88298 0.0
C1084 C 0.10927 0.442 0.8727 0.0
O1085 O 0.07542 0.39325 0.88063 0.0
O1086 O 0.06213 0.41917 0.93085 0.0
C1087 C 0.06053 0.40604 0.02839 0.0
N1088 N 0.07735 0.42179 0.02059 0.0
C1089 C 0.08547 0.42499 0.09996 0.0
C1090 C 0.06814 0.4089 0.10886 0.0
C1091 C 0.05568 0.39933 0.07289 0.0
C1092 C 0.0896 0.43094 0.05491 0.0
H1093 H 0.05095 0.39858 0.00085 0.0
C1094 C 0.05908 0.40442 0.8993 0.0
O1095 O 0.11616 0.36851 0.85299 0.0
O1096 O 0.10469 0.36007 0.92234 0.0
N1097 N 0.11055 0.44961 -0.00096 0.0
C1098 C 0.1277 0.46371 0.98455 0.0
C1099 C 0.14213 0.4743 0.01631 0.0
C1100 C 0.13873 0.47036 0.06259 0.0
C1101 C 0.12095 0.45582 0.07672 0.0
C1102 C 0.10704 0.44584 0.04353 0.0
H1103 H 0.13035 0.46685 0.94905 0.0
O1104 O 0.13938 0.39331 0.9323 0.0
O1105 O 0.10681 0.40753 0.95574 0.0
O1106 O 0.11556 0.42136 0.86585 0.0
O1107 O 0.09811 0.44852 0.90757 0.0
C1108 C 0.11679 0.45046 0.12235 0.0
C1109 C 0.0991 0.43501 0.13396 0.0
H1110 H 0.06441 0.40362 0.14312 0.0
H1111 H 0.04238 0.3868 0.07946 0.0
H1112 H 0.15585 0.48546 0.00514 0.0
H1113 H 0.15 0.47844 0.08695 0.0
H1114 H 0.12735 0.45781 0.14874 0.0
H1115 H 0.09635 0.43069 0.16909 0.0
Mn1116 Mn 0.35234 0.35368 0.64475 0.0
Mn1117 Mn 0.31183 0.33344 0.71517 0.0
C1118 C 0.3388 0.3762 0.70366 0.0
C1119 C 0.39095 0.35796 0.62724 0.0
C1120 C 0.30216 0.34866 0.61923 0.0
O1121 O 0.3534 0.31917 0.63389 0.0
O1122 O 0.3286 0.30736 0.68756 0.0
C1123 C 0.34278 0.31334 0.78395 0.0
N1124 N 0.32543 0.32798 0.77293 0.0
C1125 C 0.32209 0.34077 0.84984 0.0
C1126 C 0.3398 0.32572 0.86207 0.0
C1127 C 0.35026 0.31201 0.82894 0.0
C1128 C 0.3155 0.34149 0.80443 0.0
H1129 H 0.35093 0.30285 0.75856 0.0
C1130 C 0.34342 0.3034 0.65655 0.0
O1131 O 0.37524 0.35964 0.59625 0.0
O1132 O 0.38422 0.35319 0.66781 0.0
N1133 N 0.29476 0.35714 0.74476 0.0
C1134 C 0.27897 0.37183 0.72694 0.0
C1135 C 0.26714 0.38697 0.75553 0.0
C1136 C 0.27158 0.38679 0.80212 0.0
C1137 C 0.28785 0.37148 0.81972 0.0
C1138 C 0.29901 0.35668 0.78961 0.0
H1139 H 0.27539 0.37196 0.69121 0.0
O1140 O 0.34858 0.38571 0.66906 0.0
O1141 O 0.33687 0.35414 0.70115 0.0
O1142 O 0.32234 0.35578 0.61031 0.0
O1143 O 0.29648 0.33939 0.65674 0.0
C1144 C 0.29381 0.37065 0.86578 0.0
C1145 C 0.31097 0.35537 0.88081 0.0
H1146 H 0.34565 0.32468 0.89672 0.0
H1147 H 0.36405 0.30047 0.83805 0.0
H1148 H 0.25462 0.39875 0.74169 0.0
H1149 H 0.26253 0.39861 0.82401 0.0
H1150 H 0.28558 0.38198 0.88981 0.0
H1151 H 0.31572 0.35521 0.91615 0.0
H1152 H 0.11263 0.06017 0.28484 0.0
H1153 H 0.11679 0.93159 0.19484 0.0
H1154 H 0.0995 0.0015 0.37026 0.0
H1155 H 0.10403 0.99001 0.10857 0.0
H1156 H 0.11762 0.95718 0.25997 0.0
H1157 H 0.11671 0.03453 0.22048 0.0
C1158 C 0.11077 0.04187 0.29019 0.0
C1159 C 0.10556 0.03295 0.33299 0.0
C1160 C 0.11473 0.96435 0.22674 0.0
C1161 C 0.11025 0.00362 0.25939 0.0
C1162 C 0.11436 0.94983 0.18951 0.0
C1163 C 0.11021 0.95871 0.14622 0.0
C1164 C 0.1112 0.98792 0.22054 0.0
C1165 C 0.1071 0.98244 0.14138 0.0
C1166 C 0.113 0.0273 0.25335 0.0
C1167 C 0.10331 0.00911 0.33779 0.0
N1168 N 0.10767 0.99626 0.17818 0.0
N1169 N 0.10567 0.99522 0.30132 0.0
H1170 H 0.17631 0.84628 0.52855 0.0
H1171 H 0.30732 0.84912 0.4564 0.0
H1172 H 0.23204 0.83497 0.62227 0.0
H1173 H 0.25257 0.83735 0.36071 0.0
H1174 H 0.27962 0.84652 0.51767 0.0
H1175 H 0.20373 0.84512 0.46639 0.0
C1176 C 0.1943 0.84348 0.53607 0.0
C1177 C 0.20194 0.84093 0.58072 0.0
C1178 C 0.27369 0.84441 0.48328 0.0
C1179 C 0.2333 0.83971 0.50982 0.0
C1180 C 0.28944 0.84606 0.44824 0.0
C1181 C 0.28219 0.84358 0.40335 0.0
C1182 C 0.25047 0.84053 0.47339 0.0
C1183 C 0.25887 0.83938 0.39484 0.0
C1184 C 0.20989 0.84273 0.50055 0.0
C1185 C 0.2254 0.83711 0.58842 0.0
N1186 N 0.24376 0.83815 0.42962 0.0
N1187 N 0.2403 0.83684 0.55328 0.0
H1188 H 0.37482 0.05922 0.70652 0.0
H1189 H 0.37794 0.92854 0.78574 0.0
H1190 H 0.38848 0.00267 0.61614 0.0
H1191 H 0.3899 0.98563 0.8758 0.0
H1192 H 0.37325 0.95551 0.72345 0.0
H1193 H 0.37162 0.03207 0.76891 0.0
C1194 C 0.37688 0.04108 0.69965 0.0
C1195 C 0.38218 0.03319 0.65613 0.0
C1196 C 0.37677 0.96209 0.75693 0.0
C1197 C 0.37851 0.00218 0.7273 0.0
C1198 C 0.37939 0.94675 0.79254 0.0
C1199 C 0.38456 0.95486 0.83598 0.0
C1200 C 0.3791 0.98567 0.76489 0.0
C1201 C 0.3862 0.97863 0.84275 0.0
C1202 C 0.37515 0.02564 0.73533 0.0
C1203 C 0.38465 0.00951 0.64925 0.0
N1204 N 0.38353 0.99323 0.80748 0.0
N1205 N 0.38287 0.99481 0.68458 0.0
H1206 H 0.18333 0.1365 0.95974 0.0
H1207 H 0.31574 0.13438 0.0266 0.0
H1208 H 0.23797 0.14715 0.86338 0.0
H1209 H 0.26158 0.14738 0.12289 0.0
H1210 H 0.28719 0.13341 0.96641 0.0
H1211 H 0.21179 0.1349 0.02007 0.0
C1212 C 0.20131 0.13838 0.95121 0.0
C1213 C 0.2083 0.14202 0.90645 0.0
C1214 C 0.28159 0.13645 0.00074 0.0
C1215 C 0.24084 0.14014 0.9753 0.0
C1216 C 0.29783 0.1369 0.03516 0.0
C1217 C 0.29102 0.14104 0.07985 0.0
C1218 C 0.25837 0.1399 0.01113 0.0
C1219 C 0.2676 0.14428 0.08888 0.0
C1220 C 0.21751 0.13757 0.9857 0.0
C1221 C 0.23182 0.14445 0.89743 0.0
N1222 N 0.25207 0.14359 0.05475 0.0
N1223 N 0.24729 0.14341 0.93162 0.0
H1224 H 0.88755 0.989 0.61055 0.0
H1225 H 0.89121 0.00025 0.87573 0.0
H1226 H 0.8754 0.93133 0.69904 0.0
H1227 H 0.87807 0.05798 0.78787 0.0
H1228 H 0.88578 0.97447 0.81152 0.0
H1229 H 0.88418 0.01473 0.67521 0.0
C1230 C 0.88395 0.98178 0.64348 0.0
C1231 C 0.88198 0.95801 0.64955 0.0
C1232 C 0.88384 0.99277 0.80654 0.0
C1233 C 0.87837 0.98722 0.72349 0.0
C1234 C 0.88707 0.00748 0.84306 0.0
C1235 C 0.88533 0.03129 0.83703 0.0
C1236 C 0.8792 0.00201 0.76373 0.0
C1237 C 0.87968 0.03974 0.79406 0.0
C1238 C 0.88195 0.99646 0.68031 0.0
C1239 C 0.8771 0.94957 0.69287 0.0
N1240 N 0.87709 0.02511 0.75891 0.0
N1241 N 0.8758 0.96416 0.72839 0.0
H1242 H 0.8102 0.1341 0.46086 0.0
H1243 H 0.67862 0.1338 0.53386 0.0
H1244 H 0.75469 0.14473 0.36631 0.0
H1245 H 0.73433 0.14796 0.62609 0.0
H1246 H 0.70633 0.13113 0.47225 0.0
H1247 H 0.78233 0.13245 0.52205 0.0
C1248 C 0.79214 0.13595 0.45288 0.0
C1249 C 0.78475 0.1397 0.40841 0.0
C1250 C 0.71243 0.13476 0.50603 0.0
C1251 C 0.75287 0.13777 0.47832 0.0
C1252 C 0.69668 0.13618 0.54123 0.0
C1253 C 0.7042 0.14123 0.58513 0.0
C1254 C 0.73583 0.13813 0.51496 0.0
C1255 C 0.72778 0.14422 0.59271 0.0
C1256 C 0.77628 0.13509 0.48788 0.0
C1257 C 0.76113 0.142 0.40015 0.0
N1258 N 0.74279 0.1426 0.5579 0.0
N1259 N 0.74598 0.141 0.43488 0.0
H1260 H 0.59672 0.98707 0.37961 0.0
H1261 H 0.60209 0.00752 0.11476 0.0
H1262 H 0.60769 0.93238 0.28355 0.0
H1263 H 0.61372 0.06163 0.21179 0.0
H1264 H 0.60179 0.9797 0.17635 0.0
H1265 H 0.60057 0.01493 0.31839 0.0
C1266 C 0.59999 0.98092 0.34572 0.0
C1267 C 0.60182 0.95737 0.33664 0.0
C1268 C 0.60457 -0.00235 0.18405 0.0
C1269 C 0.60611 0.98905 0.2667 0.0
C1270 C 0.60466 0.01354 0.14897 0.0
C1271 C 0.60787 0.03692 0.15818 0.0
C1272 C 0.60739 0.00527 0.22864 0.0
C1273 C 0.61124 0.04375 0.20313 0.0
C1274 C 0.60228 -0.00318 0.31089 0.0
C1275 C 0.6062 0.95037 0.29214 0.0
N1276 N 0.61072 0.02799 0.23678 0.0
N1277 N 0.60802 0.96615 0.25875 0.0
H1278 H 0.73777 0.84625 0.85862 0.0
H1279 H 0.76253 0.85106 0.12181 0.0
H1280 H 0.68474 0.85919 0.9573 0.0
H1281 H 0.81529 0.86159 0.02143 0.0
H1282 H 0.73366 0.85157 0.06204 0.0
H1283 H 0.76658 0.84946 0.91815 0.0
C1284 C 0.73219 0.84984 0.89275 0.0
C1285 C 0.70882 0.85238 0.90307 0.0
C1286 C 0.75156 0.85392 0.05322 0.0
C1287 C 0.74162 0.85591 0.97117 0.0
C1288 C 0.76804 0.85353 0.08725 0.0
C1289 C 0.79135 0.85623 0.07656 0.0
C1290 C 0.75848 0.85669 0.00821 0.0
C1291 C 0.7975 0.85949 0.03123 0.0
C1292 C 0.74864 0.85175 0.92664 0.0
C1293 C 0.70257 0.85715 0.94782 0.0
N1294 N 0.78116 0.85945 -0.00136 0.0
N1295 N 0.71889 0.85857 0.98036 0.0
H1296 H 0.60023 0.48941 0.61238 0.0
H1297 H 0.60335 0.50296 0.87793 0.0
H1298 H 0.61388 0.43267 0.70242 0.0
H1299 H 0.61466 0.55997 0.78737 0.0
H1300 H 0.60612 0.47675 0.81385 0.0
H1301 H 0.60427 0.51578 0.67608 0.0
C1302 C 0.60417 0.48252 0.64543 0.0
C1303 C 0.60655 0.45882 0.65217 0.0
C1304 C 0.60823 0.49499 0.80816 0.0
C1305 C 0.61106 0.48876 0.72489 0.0
C1306 C 0.60657 0.50994 0.84465 0.0
C1307 C 0.6086 0.53366 0.83788 0.0
C1308 C 0.61157 0.5039 0.76463 0.0
C1309 C 0.61296 0.54178 0.79411 0.0
C1310 C 0.60659 0.49756 0.68167 0.0
C1311 C 0.61186 0.45082 0.69565 0.0
N1312 N 0.61402 0.52693 0.75899 0.0
N1313 N 0.61369 0.46575 0.73047 0.0
H1314 H 0.81909 0.35543 0.95341 0.0
H1315 H 0.6882 0.36078 0.02979 0.0
H1316 H 0.76214 0.34235 0.86351 0.0
H1317 H 0.74363 0.34817 0.12359 0.0
H1318 H 0.71579 0.36093 0.96814 0.0
H1319 H 0.79201 0.35937 0.01592 0.0
C1320 C 0.8009 0.35353 0.94675 0.0
C1321 C 0.79283 0.34847 0.90323 0.0
C1322 C 0.72189 0.35819 0.00224 0.0
C1323 C 0.76195 0.35307 0.97436 0.0
C1324 C 0.7062 0.35821 0.03752 0.0
C1325 C 0.71363 0.35431 0.08193 0.0
C1326 C 0.7452 0.35446 0.0114 0.0
C1327 C 0.73716 0.35104 0.08982 0.0
C1328 C 0.78552 0.35569 0.98245 0.0
C1329 C 0.76911 0.34609 0.89656 0.0
N1330 N 0.75217 0.35119 0.05478 0.0
N1331 N 0.75448 0.34846 0.9318 0.0
H1332 H 0.893 0.48827 0.37983 0.0
H1333 H 0.90008 0.51018 0.1154 0.0
H1334 H 0.8814 0.43509 0.28082 0.0
H1335 H 0.88843 0.56457 0.21178 0.0
H1336 H 0.89647 0.48218 0.17629 0.0
H1337 H 0.89443 0.51655 0.31895 0.0
C1338 C 0.89069 0.48255 0.34535 0.0
C1339 C 0.8871 0.4593 0.33536 0.0
C1340 C 0.8946 0.50025 0.18399 0.0
C1341 C 0.88889 0.49144 0.26582 0.0
C1342 C 0.89676 0.51624 0.14933 0.0
C1343 C 0.89456 0.53974 0.15856 0.0
C1344 C 0.89054 0.50786 0.22819 0.0
C1345 C 0.89016 0.54661 0.20312 0.0
C1346 C 0.89144 0.49869 0.3107 0.0
C1347 C 0.88413 0.45285 0.2901 0.0
N1348 N 0.88843 0.53073 0.23638 0.0
N1349 N 0.88525 0.46883 0.25695 0.0
H1350 H 0.7326 0.64884 0.36714 0.0
H1351 H 0.75279 0.64869 0.63246 0.0
H1352 H 0.67806 0.63742 0.46338 0.0
H1353 H 0.80716 0.63602 0.53649 0.0
H1354 H 0.72503 0.64783 0.57066 0.0
H1355 H 0.76038 0.64766 0.42898 0.0
C1356 C 0.72647 0.64609 0.40121 0.0
C1357 C 0.703 0.64319 0.41013 0.0
C1358 C 0.74304 0.64509 0.56327 0.0
C1359 C 0.73457 0.64194 0.48075 0.0
C1360 C 0.75888 0.64564 0.59846 0.0
C1361 C 0.78231 0.64243 0.58958 0.0
C1362 C 0.75075 0.64165 0.51893 0.0
C1363 C 0.78924 0.63847 0.5449 0.0
C1364 C 0.74232 0.64531 0.4364 0.0
C1365 C 0.69601 0.63962 0.45491 0.0
N1366 N 0.77353 0.63837 0.51114 0.0
N1367 N 0.71173 0.63922 0.48861 0.0
H1368 H 0.39889 0.48658 0.10782 0.0
H1369 H 0.39384 0.50518 0.37326 0.0
H1370 H 0.38838 0.43088 0.20184 0.0
H1371 H 0.38064 0.55936 0.27711 0.0
H1372 H 0.39465 0.4776 0.31107 0.0
H1373 H 0.39515 0.51378 0.17009 0.0
C1374 C 0.39577 0.48008 0.1415 0.0
C1375 C 0.39396 0.45645 0.14969 0.0
C1376 C 0.39142 0.49552 0.30377 0.0
C1377 C 0.38981 0.48738 0.22086 0.0
C1378 C 0.39103 0.51126 0.33916 0.0
C1379 C 0.38722 0.53459 0.33033 0.0
C1380 C 0.3883 0.50328 0.25934 0.0
C1381 C 0.38357 0.54152 0.28552 0.0
C1382 C 0.39354 0.4956 0.17695 0.0
C1383 C 0.3898 0.44897 0.19398 0.0
N1384 N 0.38439 0.52595 0.25164 0.0
N1385 N 0.38802 0.4644 0.22801 0.0
H1386 H 0.2429 0.64051 0.12847 0.0
H1387 H 0.25699 0.63726 0.86394 0.0
H1388 H 0.18625 0.62686 0.03814 0.0
H1389 H 0.31405 0.6265 0.95472 0.0
H1390 H 0.23067 0.6332 0.92752 0.0
H1391 H 0.26948 0.63498 0.06564 0.0
C1392 C 0.23607 0.63615 0.09557 0.0
C1393 C 0.21232 0.63444 0.08841 0.0
C1394 C 0.24895 0.63145 0.93338 0.0
C1395 C 0.24254 0.62829 0.01656 0.0
C1396 C 0.26397 0.63388 0.89717 0.0
C1397 C 0.28774 0.63245 0.90416 0.0
C1398 C 0.2578 0.62796 0.97691 0.0
C1399 C 0.29584 0.62781 0.94784 0.0
C1400 C 0.25124 0.6329 0.05981 0.0
C1401 C 0.20442 0.62849 0.04519 0.0
N1402 N 0.28089 0.62604 0.98274 0.0
N1403 N 0.21949 0.62595 0.01073 0.0
H1404 H 0.10914 0.48877 0.87998 0.0
H1405 H 0.10388 0.50856 0.61653 0.0
H1406 H 0.11945 0.43389 0.78415 0.0
H1407 H 0.1167 0.56333 0.71155 0.0
H1408 H 0.10977 0.48072 0.67714 0.0
H1409 H 0.11227 0.51647 0.81855 0.0
C1410 C 0.11227 0.48257 0.84608 0.0
C1411 C 0.1138 0.459 0.83706 0.0
C1412 C 0.11154 0.49884 0.6845 0.0
C1413 C 0.11716 0.49053 0.76669 0.0
C1414 C 0.10806 0.51473 0.65001 0.0
C1415 C 0.10953 0.5383 0.6591 0.0
C1416 C 0.11618 0.50664 0.72839 0.0
C1417 C 0.11526 0.54532 0.703 0.0
C1418 C 0.11414 0.49838 0.81107 0.0
C1419 C 0.1181 0.45191 0.79259 0.0
N1420 N 0.1181 0.52956 0.73614 0.0
N1421 N 0.1193 0.46762 0.75889 0.0
H1422 H 0.17593 0.35709 0.46677 0.0
H1423 H 0.30894 0.35722 0.52966 0.0
H1424 H 0.22987 0.34511 0.36953 0.0
H1425 H 0.25543 0.345 0.62776 0.0
H1426 H 0.27986 0.35931 0.47067 0.0
H1427 H 0.20486 0.35916 0.52634 0.0
C1428 C 0.19386 0.35507 0.45787 0.0
C1429 C 0.20052 0.35081 0.41315 0.0
C1430 C 0.27451 0.35622 0.50514 0.0
C1431 C 0.23354 0.35322 0.48101 0.0
C1432 C 0.29106 0.35511 0.53889 0.0
C1433 C 0.2846 0.35081 0.58371 0.0
C1434 C 0.25132 0.35324 0.51633 0.0
C1435 C 0.26118 0.34817 0.5936 0.0
C1436 C 0.2103 0.35615 0.49191 0.0
C1437 C 0.22396 0.34825 0.4036 0.0
N1438 N 0.24534 0.34944 0.56009 0.0
N1439 N 0.23966 0.34951 0.43731 0.0
H1440 H 0.11967 0.15737 0.31313 0.0
H1441 H 0.11697 0.28513 0.41142 0.0
H1442 H 0.09907 0.17237 0.44989 0.0
H1443 H 0.153 0.26484 0.29041 0.0
H1444 H 0.10612 0.24489 0.42354 0.0
H1445 H 0.12724 0.19802 0.30111 0.0
C1446 C 0.1166 0.16925 0.34058 0.0
C1447 C 0.10887 0.16148 0.38265 0.0
C1448 C 0.11642 0.24936 0.39443 0.0
C1449 C 0.1176 0.20808 0.36919 0.0
C1450 C 0.12261 0.27228 0.38748 0.0
C1451 C 0.13602 0.27839 0.34999 0.0
C1452 C 0.12348 0.23258 0.36336 0.0
C1453 C 0.14281 0.26101 0.32001 0.0
C1454 C 0.12101 0.19246 0.33375 0.0
C1455 C 0.10513 0.17767 0.41698 0.0
N1456 N 0.13642 0.23898 0.32731 0.0
N1457 N 0.10959 0.20026 0.40954 0.0
H1458 H 0.95433 0.86016 0.58848 0.0
H1459 H 0.07422 0.89433 0.69104 0.0
H1460 H 0.96923 0.931 0.61881 0.0
H1461 H 0.07086 0.85087 0.57341 0.0
H1462 H 0.03312 0.90265 0.68268 0.0
H1463 H 0.99496 0.85067 0.60186 0.0
C1464 C 0.96608 0.87355 0.59902 0.0
C1465 C 0.95864 0.89633 0.60287 0.0
C1466 C 0.04146 0.89129 0.65884 0.0
C1467 C 0.0045 0.88566 0.61821 0.0
C1468 C 0.06477 0.88654 0.66352 0.0
C1469 C 0.07578 0.87205 0.6326 0.0
C1470 C 0.02907 0.88087 0.62394 0.0
C1471 C 0.06291 0.86233 0.59755 0.0
C1472 C 0.98915 0.86819 0.60608 0.0
C1473 C 0.97446 0.91323 0.6157 0.0
N1474 N 0.04004 0.86672 0.59438 0.0
N1475 N 0.99673 0.90753 0.62324 0.0
H1476 H 0.3933 0.81417 0.94844 0.0
H1477 H 0.32618 0.72482 0.79461 0.0
H1478 H 0.36638 0.82989 0.81627 0.0
H1479 H 0.37213 0.70234 0.90032 0.0
H1480 H 0.33774 0.76413 0.80836 0.0
H1481 H 0.38355 0.77366 0.93643 0.0
C1482 C 0.3855 0.80908 0.91681 0.0
C1483 C 0.38056 0.8254 0.88331 0.0
C1484 C 0.34533 0.75063 0.8286 0.0
C1485 C 0.36915 0.77937 0.86979 0.0
C1486 C 0.33861 0.7281 0.82102 0.0
C1487 C 0.34821 0.71011 0.84633 0.0
C1488 C 0.36165 0.75545 0.86202 0.0
C1489 C 0.36431 0.71563 0.87995 0.0
C1490 C 0.37997 0.786 0.91003 0.0
C1491 C 0.37048 0.81791 0.843 0.0
N1492 N 0.37052 0.73789 0.88692 0.0
N1493 N 0.36494 0.79548 0.83754 0.0
H1494 H 0.41685 0.11791 0.04892 0.0
H1495 H 0.54441 0.12061 0.14974 0.0
H1496 H 0.43264 0.13954 0.18473 0.0
H1497 H 0.52577 0.08547 0.0267 0.0
H1498 H 0.50416 0.13151 0.15987 0.0
H1499 H 0.45763 0.11002 0.03658 0.0
C1500 C 0.42891 0.12114 0.076 0.0
C1501 C 0.42137 0.12927 0.11795 0.0
C1502 C 0.50894 0.1214 0.1307 0.0
C1503 C 0.46793 0.12027 0.10418 0.0
C1504 C 0.5319 0.11519 0.12488 0.0
C1505 C 0.53849 0.10197 0.08749 0.0
C1506 C 0.49252 0.11452 0.09869 0.0
C1507 C 0.52151 0.09548 0.05629 0.0
C1508 C 0.45216 0.11656 0.06903 0.0
C1509 C 0.43772 0.13316 0.15192 0.0
N1510 N 0.49934 0.10185 0.06258 0.0
N1511 N 0.46024 0.12859 0.14432 0.0
H1512 H 0.17874 0.7314 0.18429 0.0
H1513 H 0.11165 0.81957 0.02678 0.0
H1514 H 0.13157 0.70827 0.08122 0.0
H1515 H 0.13842 0.83633 0.15857 0.0
H1516 H 0.1225 0.77932 0.03923 0.0
H1517 H 0.16864 0.77082 0.16689 0.0
C1518 C 0.16639 0.73455 0.15766 0.0
C1519 C 0.15588 0.71637 0.13439 0.0
C1520 C 0.12587 0.79186 0.06537 0.0
C1521 C 0.14416 0.76175 0.11451 0.0
C1522 C 0.11971 0.81477 0.05835 0.0
C1523 C 0.12413 0.83126 0.09177 0.0
C1524 C 0.13681 0.78561 0.10575 0.0
C1525 C 0.13462 0.82418 0.13198 0.0
C1526 C 0.16054 0.75714 0.14797 0.0
C1527 C 0.14002 0.72171 0.10019 0.0
N1528 N 0.14073 0.80192 0.13771 0.0
N1529 N 0.13459 0.74398 0.09129 0.0
H1530 H 0.51399 0.91319 0.46133 0.0
H1531 H 0.42203 0.8566 0.29643 0.0
H1532 H 0.53271 0.87685 0.33972 0.0
H1533 H 0.40639 0.87664 0.43321 0.0
H1534 H 0.46228 0.86609 0.30957 0.0
H1535 H 0.47404 0.90254 0.44895 0.0
C1536 C 0.50973 0.90308 0.43184 0.0
C1537 C 0.5268 0.89596 0.40141 0.0
C1538 C 0.45008 0.8683 0.33679 0.0
C1539 C 0.48098 0.88363 0.38728 0.0
C1540 C 0.4271 0.86291 0.32934 0.0
C1541 C 0.41087 0.86588 0.36383 0.0
C1542 C 0.45686 0.87695 0.37889 0.0
C1543 C 0.41837 0.87407 0.40577 0.0
C1544 C 0.4869 0.89688 0.42501 0.0
C1545 C 0.52017 0.88272 0.36406 0.0
N1546 N 0.44085 0.87947 0.41206 0.0
N1547 N 0.49775 0.87705 0.35796 0.0
H1548 H 0.3917 0.17413 0.54641 0.0
H1549 H 0.33205 0.26608 0.70754 0.0
H1550 H 0.36539 0.1586 0.6791 0.0
H1551 H 0.36956 0.28535 0.58761 0.0
H1552 H 0.34306 0.22639 0.69542 0.0
H1553 H 0.38316 0.21474 0.55918 0.0
C1554 C 0.38427 0.17928 0.57834 0.0
C1555 C 0.37916 0.16297 0.61172 0.0
C1556 C 0.34893 0.23926 0.67173 0.0
C1557 C 0.36921 0.20928 0.62631 0.0
C1558 C 0.34254 0.262 0.67846 0.0
C1559 C 0.34979 0.27916 0.6484 0.0
C1560 C 0.36259 0.23346 0.63449 0.0
C1561 C 0.36355 0.27271 0.61161 0.0
C1562 C 0.37941 0.20245 0.58556 0.0
C1563 C 0.36958 0.17058 0.65242 0.0
N1564 N 0.36944 0.25032 0.60558 0.0
N1565 N 0.36478 0.19316 0.65844 0.0
H1566 H 0.06659 0.13895 0.79998 0.0
H1567 H 0.97851 0.0699 0.95452 0.0
H1568 H 0.08355 0.11353 0.93267 0.0
H1569 H 0.95683 0.11189 0.84211 0.0
H1570 H 0.01787 0.08261 0.94254 0.0
H1571 H 0.02685 0.1268 0.81141 0.0
C1572 C 0.0619 0.13096 0.83167 0.0
C1573 C 0.07836 0.12722 0.86547 0.0
C1574 C 0.0045 0.08901 0.92046 0.0
C1575 C 0.03306 0.11301 0.87843 0.0
C1576 C 0.98201 0.08163 0.92702 0.0
C1577 C 0.96425 0.08985 0.89929 0.0
C1578 C 0.0094 0.10457 0.88567 0.0
C1579 C 0.96992 0.10513 0.86437 0.0
C1580 C 0.03923 0.12402 0.83812 0.0
C1581 C 0.07138 0.1168 0.90582 0.0
N1582 N 0.99203 0.11199 0.85854 0.0
N1583 N 0.04926 0.10989 0.91105 0.0
H1584 H 0.82915 0.72823 0.70734 0.0
H1585 H 0.88815 0.81685 0.53772 0.0
H1586 H 0.86657 0.70609 0.58925 0.0
H1587 H 0.86158 0.8347 0.66906 0.0
H1588 H 0.87936 0.77642 0.55325 0.0
H1589 H 0.83953 0.76761 0.69073 0.0
C1590 C 0.83951 0.73161 0.67773 0.0
C1591 C 0.84692 0.71373 0.64955 0.0
C1592 C 0.87557 0.78922 0.57865 0.0
C1593 C 0.85899 0.75914 0.63039 0.0
C1594 C 0.88055 0.81226 0.56982 0.0
C1595 C 0.87552 0.82914 0.60212 0.0
C1596 C 0.86537 0.78315 0.61989 0.0
C1597 C 0.86572 0.82229 0.64314 0.0
C1598 C 0.84553 0.75419 0.66839 0.0
C1599 C 0.86047 0.71932 0.6119 0.0
N1600 N 0.86089 0.79986 0.65074 0.0
N1601 N 0.86603 0.74159 0.60329 0.0
H1602 H 0.92628 0.14013 0.30129 0.0
H1603 H 0.01512 0.07232 0.45609 0.0
H1604 H 0.90982 0.11496 0.43439 0.0
H1605 H 0.0365 0.11424 0.34339 0.0
H1606 H 0.97576 0.08509 0.44459 0.0
H1607 H 0.96627 0.12882 0.31302 0.0
C1608 C 0.93113 0.13239 0.33314 0.0
C1609 C 0.91473 0.12844 0.36694 0.0
C1610 C 0.98906 0.09149 0.42237 0.0
C1611 C 0.9603 0.11519 0.38024 0.0
C1612 C 0.01156 0.08408 0.42866 0.0
C1613 C 0.02923 0.0922 0.40062 0.0
C1614 C 0.98405 0.10699 0.38753 0.0
C1615 C 0.02347 0.10754 0.36585 0.0
C1616 C 0.95394 0.12594 0.33976 0.0
C1617 C 0.92193 0.11836 0.4075 0.0
N1618 N 0.00134 0.11441 0.36022 0.0
N1619 N 0.94417 0.1119 0.41288 0.0
H1620 H 0.66764 0.27091 0.214 0.0
H1621 H 0.60913 0.17826 0.05309 0.0
H1622 H 0.63102 0.28893 0.09223 0.0
H1623 H 0.63253 0.16292 0.18797 0.0
H1624 H 0.61795 0.21869 0.0657 0.0
H1625 H 0.6563 0.23105 0.20344 0.0
C1626 C 0.65729 0.26651 0.18488 0.0
C1627 C 0.65038 0.28335 0.15379 0.0
C1628 C 0.62101 0.20653 0.09266 0.0
C1629 C 0.63725 0.23761 0.14172 0.0
C1630 C 0.616 0.18344 0.0855 0.0
C1631 C 0.62019 0.16722 0.11953 0.0
C1632 C 0.63051 0.21343 0.13399 0.0
C1633 C 0.62904 0.17488 0.16086 0.0
C1634 C 0.65071 0.24372 0.17908 0.0
C1635 C 0.63679 0.27656 0.11701 0.0
N1636 N 0.63408 0.19745 0.16682 0.0
N1637 N 0.63075 0.25418 0.11189 0.0
H1638 H 0.58338 0.87758 0.93431 0.0
H1639 H 0.4543 0.87201 0.84273 0.0
H1640 H 0.56559 0.84955 0.8041 0.0
H1641 H 0.47611 0.91515 0.95332 0.0
H1642 H 0.4943 0.86047 0.83125 0.0
H1643 H 0.54309 0.88776 0.94598 0.0
C1644 C 0.57097 0.8734 0.90835 0.0
C1645 C 0.57782 0.86278 0.86814 0.0
C1646 C 0.49027 0.87254 0.85788 0.0
C1647 C 0.53178 0.87444 0.88112 0.0
C1648 C 0.46745 0.87915 0.86443 0.0
C1649 C 0.46178 0.89463 0.89898 0.0
C1650 C 0.50745 0.88125 0.8864 0.0
C1651 C 0.4796 0.90327 0.9261 0.0
C1652 C 0.54801 0.87933 0.91489 0.0
C1653 C 0.56103 0.85781 0.83555 0.0
N1654 N 0.50157 0.89637 0.91937 0.0
N1655 N 0.53877 0.86369 0.84274 0.0
H1656 H 0.83904 0.26144 0.77915 0.0
H1657 H 0.89631 0.17201 0.94751 0.0
H1658 H 0.8768 0.28359 0.89688 0.0
H1659 H 0.87493 0.1558 0.8117 0.0
H1660 H 0.88861 0.21269 0.93234 0.0
H1661 H 0.85077 0.22229 0.79376 0.0
C1662 C 0.84978 0.2581 0.80827 0.0
C1663 C 0.85685 0.27591 0.83699 0.0
C1664 C 0.88583 0.2002 0.90584 0.0
C1665 C 0.87045 0.23074 0.85387 0.0
C1666 C 0.89018 0.17702 0.91443 0.0
C1667 C 0.88609 0.16051 0.88087 0.0
C1668 C 0.87713 0.20676 0.86358 0.0
C1669 C 0.87822 0.16791 0.83864 0.0
C1670 C 0.8566 0.23566 0.81641 0.0
C1671 C 0.87095 0.27039 0.8739 0.0
N1672 N 0.87383 0.19045 0.83135 0.0
N1673 N 0.87719 0.2482 0.88151 0.0
H1674 H 0.58053 0.11335 0.56535 0.0
H1675 H 0.45147 0.11661 0.65554 0.0
H1676 H 0.56323 0.13964 0.69719 0.0
H1677 H 0.47496 0.07277 0.54738 0.0
H1678 H 0.49135 0.12843 0.66878 0.0
H1679 H 0.54053 0.10226 0.55453 0.0
C1680 C 0.56828 0.11693 0.59192 0.0
C1681 C 0.5752 0.12737 0.63227 0.0
C1682 C 0.48767 0.11612 0.64238 0.0
C1683 C 0.52939 0.11465 0.62018 0.0
C1684 C 0.46495 0.10935 0.63482 0.0
C1685 C 0.45978 0.09367 0.60028 0.0
C1686 C 0.50522 0.10737 0.61481 0.0
C1687 C 0.478 0.08486 0.57446 0.0
C1688 C 0.54546 0.11047 0.58584 0.0
C1689 C 0.55859 0.13155 0.6656 0.0
N1690 N 0.49981 0.09195 0.58207 0.0
N1691 N 0.53639 0.12519 0.65882 0.0
H1692 H 0.65308 0.72347 0.27518 0.0
H1693 H 0.59442 0.81514 0.43797 0.0
H1694 H 0.61755 0.70485 0.39778 0.0
H1695 H 0.61873 0.83129 0.30412 0.0
H1696 H 0.60272 0.77469 0.42414 0.0
H1697 H 0.64104 0.7631 0.28585 0.0
C1698 C 0.64279 0.72769 0.30446 0.0
C1699 C 0.63646 0.71076 0.33583 0.0
C1700 C 0.60607 0.78704 0.39766 0.0
C1701 C 0.62253 0.75625 0.34809 0.0
C1702 C 0.60134 0.81015 0.40552 0.0
C1703 C 0.606 0.8266 0.37218 0.0
C1704 C 0.61574 0.78037 0.35633 0.0
C1705 C 0.6149 0.81917 0.33075 0.0
C1706 C 0.63581 0.75035 0.31036 0.0
C1707 C 0.62289 0.7173 0.37279 0.0
N1708 N 0.61966 0.7966 0.32412 0.0
N1709 N 0.61649 0.73957 0.37803 0.0
H1710 H 0.91722 0.87928 0.04007 0.0
H1711 H 0.04619 0.87599 0.1335 0.0
H1712 H 0.93428 0.85833 0.1757 0.0
H1713 H 0.02504 0.91409 0.01553 0.0
H1714 H 0.0061 0.86461 0.1455 0.0
H1715 H 0.95787 0.88702 0.02603 0.0
C1716 C 0.92954 0.87615 0.06676 0.0
C1717 C 0.92239 0.86831 0.10917 0.0
C1718 C 0.01033 0.87546 0.11703 0.0
C1719 C 0.96883 0.87711 0.09343 0.0
C1720 C 0.03318 0.88194 0.11015 0.0
C1721 C 0.039 0.89616 0.07366 0.0
C1722 C 0.9933 0.88302 0.08688 0.0
C1723 C 0.0214 0.90331 0.04439 0.0
C1724 C 0.95271 0.88065 0.05881 0.0
C1725 C 0.93907 0.86452 0.14258 0.0
N1726 N -0.00059 0.89663 0.05159 0.0
N1727 N 0.96154 0.869 0.13403 0.0
H1728 H 0.62319 0.78675 0.906 0.0
H1729 H 0.62569 0.6579 0.81347 0.0
H1730 H 0.66151 0.76445 0.78911 0.0
H1731 H 0.60243 0.67472 0.94775 0.0
H1732 H 0.63454 0.69823 0.8007 0.0
H1733 H 0.61171 0.74679 0.91935 0.0
C1734 C 0.62925 0.77352 0.88327 0.0
C1735 C 0.64342 0.77901 0.84648 0.0
C1736 C 0.62746 0.69314 0.83296 0.0
C1737 C 0.63014 0.73351 0.86123 0.0
C1738 C 0.62231 0.67012 0.8402 0.0
C1739 C 0.61344 0.66295 0.88181 0.0
C1740 C 0.62364 0.70918 0.86751 0.0
C1741 C 0.60935 0.67955 0.91521 0.0
C1742 C 0.62268 0.75075 0.89091 0.0
C1743 C 0.6507 0.76114 0.81809 0.0
N1744 N 0.61454 0.70195 0.90738 0.0
N1745 N 0.64391 0.73928 0.82599 0.0
H1746 H 0.48103 0.41232 0.02425 0.0
H1747 H 0.5722 0.35313 0.18717 0.0
H1748 H 0.46131 0.3741 0.14304 0.0
H1749 H 0.58821 0.37616 0.05237 0.0
H1750 H 0.53176 0.36195 0.17358 0.0
H1751 H 0.52074 0.40104 0.03658 0.0
C1752 C 0.48503 0.40164 0.05312 0.0
C1753 C 0.46774 0.39422 0.08279 0.0
C1754 C 0.5441 0.36491 0.14688 0.0
C1755 C 0.51335 0.38115 0.09688 0.0
C1756 C 0.56717 0.3599 0.15458 0.0
C1757 C 0.58357 0.36401 0.12084 0.0
C1758 C 0.53743 0.37432 0.10533 0.0
C1759 C 0.57613 0.37274 0.07928 0.0
C1760 C 0.50773 0.39508 0.05992 0.0
C1761 C 0.47404 0.38024 0.11933 0.0
N1762 N 0.5536 0.37778 0.07281 0.0
N1763 N 0.49638 0.37422 0.12546 0.0
H1764 H 0.86747 0.20562 0.39881 0.0
H1765 H 0.86229 0.33334 0.29963 0.0
H1766 H 0.83038 0.22402 0.27781 0.0
H1767 H 0.88375 0.31749 0.43554 0.0
H1768 H 0.85503 0.29244 0.28676 0.0
H1769 H 0.87783 0.24599 0.40893 0.0
C1770 C 0.8615 0.2181 0.37441 0.0
C1771 C 0.84789 0.21141 0.33761 0.0
C1772 C 0.8614 0.29795 0.31933 0.0
C1773 C 0.85986 0.25752 0.34875 0.0
C1774 C 0.86563 0.32124 0.32659 0.0
C1775 C 0.8735 0.32878 0.36875 0.0
C1776 C 0.86525 0.28216 0.35439 0.0
C1777 C 0.87754 0.31241 0.40258 0.0
C1778 C 0.86741 0.24113 0.38021 0.0
C1779 C 0.84071 0.22837 0.30696 0.0
N1780 N 0.87334 0.28987 0.39469 0.0
N1781 N 0.84681 0.25061 0.31319 0.0
H1782 H 0.90749 0.61441 0.5628 0.0
H1783 H 0.03507 0.61752 0.66226 0.0
H1784 H 0.92407 0.64158 0.69433 0.0
H1785 H 0.01515 0.57679 0.54684 0.0
H1786 H 0.99492 0.62849 0.67263 0.0
H1787 H 0.9477 0.6032 0.55333 0.0
C1788 C 0.91962 0.61818 0.58949 0.0
C1789 C 0.91246 0.62891 0.62939 0.0
C1790 C -0.00064 0.61704 0.64522 0.0
C1791 C 0.95834 0.61605 0.61898 0.0
C1792 C 0.02228 0.61071 0.63933 0.0
C1793 C 0.02857 0.59622 0.60359 0.0
C1794 C 0.98266 0.609 0.6149 0.0
C1795 C 0.01118 0.58797 0.57494 0.0
C1796 C 0.94252 0.61166 0.58422 0.0
C1797 C 0.92886 0.6333 0.66302 0.0
N1798 N 0.98907 0.59461 0.58104 0.0
N1799 N 0.95105 0.62686 0.65706 0.0
H1800 H 0.61925 0.20525 0.5883 0.0
H1801 H 0.62114 0.33429 0.68014 0.0
H1802 H 0.65653 0.22786 0.70631 0.0
H1803 H 0.6005 0.31752 0.54416 0.0
H1804 H 0.62882 0.29382 0.69409 0.0
H1805 H 0.60748 0.24516 0.57472 0.0
C1806 C 0.62495 0.21853 0.61129 0.0
C1807 C 0.63902 0.21318 0.64832 0.0
C1808 C 0.62255 0.29896 0.6612 0.0
C1809 C 0.62543 0.25855 0.63334 0.0
C1810 C 0.61808 0.32206 0.65328 0.0
C1811 C 0.61035 0.32927 0.61083 0.0
C1812 C 0.6192 0.2829 0.62649 0.0
C1813 C 0.60659 0.31265 0.57731 0.0
C1814 C 0.61824 0.24124 0.6035 0.0
C1815 C 0.64585 0.23108 0.67708 0.0
N1816 N 0.61114 0.29017 0.5858 0.0
N1817 N 0.63895 0.25288 0.66902 0.0
H1818 H 0.01987 0.42055 0.93853 0.0
H1819 H 0.93261 0.34996 0.78483 0.0
H1820 H 0.04339 0.37536 0.83255 0.0
H1821 H 0.91591 0.37695 0.91642 0.0
H1822 H 0.97254 0.36224 0.79577 0.0
H1823 H 0.98067 0.40868 0.92351 0.0
C1824 C 0.01684 0.40826 0.91176 0.0
C1825 C 0.03509 0.39886 0.88691 0.0
C1826 C 0.9601 0.36534 0.82224 0.0
C1827 C 0.98996 0.38507 0.8698 0.0
C1828 C 0.93737 0.35835 0.81607 0.0
C1829 C 0.92096 0.36245 0.84982 0.0
C1830 C 0.96629 0.37675 0.86212 0.0
C1831 C 0.928 0.37339 0.88958 0.0
C1832 C 0.99439 0.40138 0.90344 0.0
C1833 C 0.0299 0.383 0.85267 0.0
N1834 N 0.9501 0.38029 0.89449 0.0
N1835 N 0.00777 0.37655 0.84513 0.0
H1836 H 0.8763 0.79285 0.08443 0.0
H1837 H 0.87367 0.6659 0.18761 0.0
H1838 H 0.84113 0.77483 0.2078 0.0
H1839 H 0.89596 0.68115 0.05199 0.0
H1840 H 0.86563 0.70668 0.19916 0.0
H1841 H 0.88733 0.75263 0.07518 0.0
C1842 C 0.87089 0.78048 0.10955 0.0
C1843 C 0.85763 0.78724 0.14678 0.0
C1844 C 0.87235 0.70109 0.16693 0.0
C1845 C 0.87034 0.74128 0.13657 0.0
C1846 C 0.87702 0.67785 0.1604 0.0
C1847 C 0.88537 0.67015 0.11873 0.0
C1848 C 0.87619 0.71671 0.1316 0.0
C1849 C 0.88941 0.68635 0.08459 0.0
C1850 C 0.87718 0.75753 0.10423 0.0
C1851 C 0.85118 0.77043 0.17832 0.0
N1852 N 0.88474 0.70888 0.09175 0.0
N1853 N 0.85762 0.74826 0.17251 0.0
H1854 H 0.57747 0.61812 0.44076 0.0
H1855 H 0.45046 0.61751 0.33738 0.0
H1856 H 0.562 0.63738 0.30341 0.0
H1857 H 0.46883 0.58409 0.46245 0.0
H1858 H 0.49061 0.62872 0.32749 0.0
H1859 H 0.53676 0.60963 0.45276 0.0
C1860 C 0.56549 0.62071 0.41326 0.0
C1861 C 0.5731 0.62835 0.371 0.0
C1862 C 0.48581 0.61891 0.35705 0.0
C1863 C 0.52665 0.61868 0.38439 0.0
C1864 C 0.4629 0.61252 0.36273 0.0
C1865 C 0.45626 0.59971 0.40065 0.0
C1866 C 0.50213 0.61264 0.3897 0.0
C1867 C 0.47315 0.59378 0.43246 0.0
C1868 C 0.5423 0.61578 0.42005 0.0
C1869 C 0.55687 0.63141 0.33649 0.0
N1870 N 0.49528 0.60033 0.42629 0.0
N1871 N 0.5344 0.62653 0.34393 0.0
H1872 H 0.39706 0.31511 0.04207 0.0
H1873 H 0.34001 0.22415 0.20872 0.0
H1874 H 0.37507 0.33125 0.17747 0.0
H1875 H 0.37485 0.20451 0.08597 0.0
H1876 H 0.35156 0.26372 0.19604 0.0
H1877 H 0.38834 0.27469 0.05614 0.0
C1878 C 0.39054 0.31012 0.07486 0.0
C1879 C 0.3867 0.32655 0.10864 0.0
C1880 C 0.35674 0.25077 0.1719 0.0
C1881 C 0.37651 0.28045 0.12475 0.0
C1882 C 0.35003 0.22814 0.17895 0.0
C1883 C 0.35636 0.21093 0.14822 0.0
C1884 C 0.36974 0.25639 0.13364 0.0
C1885 C 0.36955 0.2172 0.11053 0.0
C1886 C 0.38558 0.28706 0.08285 0.0
C1887 C 0.37827 0.31916 0.15048 0.0
N1888 N 0.37572 0.23947 0.10417 0.0
N1889 N 0.37331 0.29666 0.15724 0.0
H1890 H 0.42886 0.64061 0.79283 0.0
H1891 H 0.51717 0.57257 0.94853 0.0
H1892 H 0.41203 0.61257 0.92353 0.0
H1893 H 0.54001 0.6174 0.84136 0.0
H1894 H 0.47786 0.58414 0.93395 0.0
H1895 H 0.46918 0.63011 0.80531 0.0
C1896 C 0.43366 0.63239 0.82423 0.0
C1897 C 0.41709 0.6274 0.8572 0.0
C1898 C 0.49144 0.59147 0.91357 0.0
C1899 C 0.4629 0.61515 0.87129 0.0
C1900 C 0.51397 0.58476 0.92165 0.0
C1901 C 0.53205 0.59405 0.89617 0.0
C1902 C 0.48676 0.6075 0.87953 0.0
C1903 C 0.52664 0.60983 0.8619 0.0
C1904 C 0.45663 0.62642 0.83128 0.0
C1905 C 0.42421 0.61674 0.89721 0.0
N1906 N 0.50443 0.61606 0.85452 0.0
N1907 N 0.44654 0.61084 0.90298 0.0
H1908 H 0.09004 0.68115 0.56744 0.0
H1909 H 0.14941 0.77194 0.73077 0.0
H1910 H 0.1181 0.66356 0.69777 0.0
H1911 H 0.11147 0.79105 0.61126 0.0
H1912 H 0.13675 0.73238 0.72081 0.0
H1913 H 0.09622 0.72169 0.58435 0.0
C1914 C 0.09733 0.68584 0.59979 0.0
C1915 C 0.10375 0.66898 0.63112 0.0
C1916 C 0.13104 0.74526 0.69695 0.0
C1917 C 0.11103 0.7153 0.65054 0.0
C1918 C 0.13834 0.76786 0.70252 0.0
C1919 C 0.13171 0.78483 0.6715 0.0
C1920 C 0.11719 0.73949 0.65988 0.0
C1921 C 0.11711 0.77854 0.63588 0.0
C1922 C 0.10082 0.70899 0.60944 0.0
C1923 C 0.11299 0.67601 0.67258 0.0
N1924 N 0.11053 0.75632 0.63079 0.0
N1925 N 0.11657 0.69865 0.68091 0.0
H1926 H 0.05861 0.34928 0.30824 0.0
H1927 H 0.96658 0.40901 0.46924 0.0
H1928 H 0.0745 0.37386 0.44204 0.0
H1929 H 0.94849 0.37401 0.34573 0.0
H1930 H 0.00631 0.39706 0.45897 0.0
H1931 H 0.01827 0.3586 0.32087 0.0
C1932 C 0.05358 0.35651 0.34042 0.0
C1933 C 0.06992 0.36088 0.37413 0.0
C1934 C 0.99365 0.39195 0.43417 0.0
C1935 C 0.02381 0.37176 0.38863 0.0
C1936 C 0.97094 0.39887 0.43985 0.0
C1937 C 0.95412 0.39262 0.40815 0.0
C1938 C -0.0003 0.37879 0.39637 0.0
C1939 C 0.96084 0.37927 0.371 0.0
C1940 C 0.03054 0.36182 0.34759 0.0
C1941 C 0.06245 0.37022 0.41516 0.0
N1942 N 0.98314 0.37288 0.36605 0.0
N1943 N 0.03993 0.3755 0.42116 0.0
H1944 H 0.36591 0.65943 0.29376 0.0
H1945 H 0.36825 0.78778 0.38995 0.0
H1946 H 0.38585 0.67665 0.42991 0.0
H1947 H 0.33515 0.76853 0.26506 0.0
H1948 H 0.37949 0.74777 0.40109 0.0
H1949 H 0.35926 0.70017 0.27861 0.0
C1950 C 0.36904 0.67179 0.32034 0.0
C1951 C 0.37628 0.66467 0.36322 0.0
C1952 C 0.36981 0.75235 0.37122 0.0
C1953 C 0.36874 0.71119 0.3462 0.0
C1954 C 0.36342 0.77519 0.36478 0.0
C1955 C 0.35054 0.78151 0.32673 0.0
C1956 C 0.36342 0.73575 0.33924 0.0
C1957 C 0.34484 0.76444 0.29518 0.0
C1958 C 0.36519 0.69502 0.31173 0.0
C1959 C 0.38011 0.6814 0.39644 0.0
N1960 N 0.35129 0.74234 0.3022 0.0
N1961 N 0.37623 0.70388 0.38726 0.0
H1962 H 0.98053 0.58522 0.03457 0.0
H1963 H 0.07048 0.6514 0.19041 0.0
H1964 H 0.96005 0.62541 0.15028 0.0
H1965 H 0.08718 0.62213 0.06072 0.0
H1966 H 0.03009 0.64168 0.17778 0.0
H1967 H 0.01996 0.59757 0.04589 0.0
C1968 C 0.9843 0.59656 0.06257 0.0
C1969 C 0.96687 0.60421 0.09164 0.0
C1970 C 0.04259 0.63756 0.15198 0.0
C1971 C 0.01222 0.61855 0.10458 0.0
C1972 C 0.06562 0.64312 0.15911 0.0
C1973 C 0.0822 0.63747 0.12661 0.0
C1974 C 0.03618 0.6261 0.11225 0.0
C1975 C 0.07498 0.62676 0.08671 0.0
C1976 C 0.00687 0.60372 0.06882 0.0
C1977 C 0.97291 0.61904 0.12707 0.0
N1978 N 0.05253 0.62128 0.08081 0.0
N1979 N 0.99512 0.62569 0.13264 0.0
H1980 H 0.16135 0.22511 0.77772 0.0
H1981 H 0.10074 0.3168 0.93794 0.0
H1982 H 0.12292 0.20592 0.89657 0.0
H1983 H 0.12908 0.33304 0.80722 0.0
H1984 H 0.10875 0.2762 0.92427 0.0
H1985 H 0.15015 0.26483 0.78932 0.0
C1986 C 0.1506 0.22922 0.80643 0.0
C1987 C 0.14319 0.21209 0.83641 0.0
C1988 C 0.11306 0.28864 0.89847 0.0
C1989 C 0.1302 0.25778 0.84974 0.0
C1990 C 0.1085 0.31181 0.90622 0.0
C1991 C 0.11436 0.32832 0.87371 0.0
C1992 C 0.12372 0.28198 0.85808 0.0
C1993 C 0.12433 0.3209 0.83323 0.0
C1994 C 0.14411 0.25196 0.81286 0.0
C1995 C 0.12909 0.21855 0.87267 0.0
N1996 N 0.12884 0.29829 0.8267 0.0
N1997 N 0.12314 0.24092 0.87846 0.0
H1998 H 0.40977 0.37612 0.55054 0.0
H1999 H 0.53807 0.37633 0.64689 0.0
H2000 H 0.42749 0.35113 0.68317 0.0
H2001 H 0.51633 0.41632 0.53175 0.0
H2002 H 0.49836 0.36377 0.65756 0.0
H2003 H 0.44989 0.38717 0.539 0.0
C2004 C 0.42214 0.37276 0.57702 0.0
C2005 C 0.41532 0.36278 0.6179 0.0
C2006 C 0.50233 0.37537 0.6301 0.0
C2007 C 0.46109 0.37545 0.6051 0.0
C2008 C 0.52497 0.38258 0.62402 0.0
C2009 C 0.53058 0.39746 0.58844 0.0
C2010 C 0.48523 0.3829 0.60012 0.0
C2011 C 0.51286 0.40495 0.55981 0.0
C2012 C 0.44498 0.37919 0.57056 0.0
C2013 C 0.43203 0.35887 0.65118 0.0
N2014 N 0.49103 0.3975 0.56614 0.0
N2015 N 0.45415 0.36524 0.64408 0.0
H2016 H 0.16256 0.06286 0.50519 0.0
H2017 H 0.17975 0.0791 0.74266 0.0
H2018 H 0.10581 0.10898 0.52741 0.0
H2019 H 0.12468 0.12779 0.72614 0.0
H2020 H 0.175 0.06767 0.66278 0.0
H2021 H 0.17256 0.06601 0.58613 0.0
C2022 C 0.15236 0.07363 0.52718 0.0
C2023 C 0.13307 0.08526 0.51051 0.0
C2024 C 0.16397 0.08077 0.67677 0.0
C2025 C 0.14395 0.08882 0.60153 0.0
C2026 C 0.16659 0.08711 0.72224 0.0
C2027 C 0.15296 0.10477 0.73996 0.0
C2028 C 0.14749 0.09222 0.65022 0.0
C2029 C 0.13586 0.11448 0.71319 0.0
C2030 C 0.15787 0.07527 0.57324 0.0
C2031 C 0.12049 0.09932 0.5394 0.0
N2032 N 0.13377 0.1082 0.66976 0.0
N2033 N 0.12608 0.10056 0.58332 0.0
H2034 H 0.1922 0.90992 0.73937 0.0
H2035 H 0.17017 0.93634 0.97466 0.0
H2036 H 0.12163 0.88825 0.74734 0.0
H2037 H 0.11959 0.88371 0.95041 0.0
H2038 H 0.17892 0.93676 0.8926 0.0
H2039 H 0.19013 0.92215 0.81935 0.0
C2040 C 0.17624 0.9082 0.75772 0.0
C2041 C 0.15743 0.89691 0.73823 0.0
C2042 C 0.16619 0.92499 0.90569 0.0
C2043 C 0.1548 0.91085 0.82738 0.0
C2044 C 0.16128 0.92471 0.95216 0.0
C2045 C 0.14378 0.91038 0.96843 0.0
C2046 C 0.15329 0.91086 0.87674 0.0
C2047 C 0.13281 0.8954 0.9388 0.0
C2048 C 0.17501 0.91528 0.80298 0.0
C2049 C 0.13679 0.896 0.7619 0.0
N2050 N 0.13751 0.8963 0.89447 0.0
N2051 N 0.13619 0.90232 0.8055 0.0
H2052 H 0.38366 0.87602 0.02689 0.0
H2053 H 0.30337 0.90781 0.23268 0.0
H2054 H 0.33007 0.92599 0.00653 0.0
H2055 H 0.37082 0.87772 0.23938 0.0
H2056 H 0.31015 0.91665 0.15185 0.0
H2057 H 0.37453 0.87458 0.10597 0.0
C2058 C 0.36984 0.88673 0.03946 0.0
C2059 C 0.35802 0.90164 0.01097 0.0
C2060 C 0.32349 0.90846 0.17155 0.0
C2061 C 0.34762 0.90058 0.10209 0.0
C2062 C 0.31964 0.90346 0.21731 0.0
C2063 C 0.33617 0.89103 0.24145 0.0
C2064 C 0.3439 0.90079 0.15122 0.0
C2065 C 0.35732 0.88655 0.22132 0.0
C2066 C 0.36471 0.88609 0.08474 0.0
C2067 C 0.33978 0.91465 0.02825 0.0
N2068 N 0.36041 0.89107 0.17727 0.0
N2069 N 0.33518 0.91406 0.0734 0.0
H2070 H 0.33121 0.06401 0.47794 0.0
H2071 H 0.37885 0.12351 0.25416 0.0
H2072 H 0.38555 0.11401 0.46818 0.0
H2073 H 0.31799 0.08155 0.24892 0.0
H2074 H 0.38362 0.11409 0.33266 0.0
H2075 H 0.32557 0.06696 0.3951 0.0
C2076 C 0.34167 0.07571 0.45839 0.0
C2077 C 0.35924 0.08838 0.47903 0.0
C2078 C 0.3691 0.10681 0.31487 0.0
C2079 C 0.35324 0.09159 0.38628 0.0
C2080 C 0.36655 0.11205 0.26984 0.0
C2081 C 0.34764 0.10384 0.24596 0.0
C2082 C 0.35233 0.09356 0.33671 0.0
C2083 C 0.33247 0.0886 0.26712 0.0
C2084 C 0.3386 0.07727 0.41146 0.0
C2085 C 0.37219 0.10357 0.45311 0.0
N2086 N 0.33484 0.08422 0.31212 0.0
N2087 N 0.36905 0.10458 0.40822 0.0
H2088 H 0.81876 0.91883 0.23569 0.0
H2089 H 0.83284 0.93148 0.47397 0.0
H2090 H 0.87957 0.87725 0.24841 0.0
H2091 H 0.88873 0.88429 0.45212 0.0
H2092 H 0.82612 0.93253 0.39167 0.0
H2093 H 0.8223 0.92938 0.31607 0.0
C2094 C 0.83303 0.91236 0.25534 0.0
C2095 C 0.84845 0.89657 0.23664 0.0
C2096 C 0.83985 0.92203 0.40491 0.0
C2097 C 0.85269 0.90824 0.32695 0.0
C2098 C 0.84352 0.92131 0.45173 0.0
C2099 C 0.8617 0.90824 0.46905 0.0
C2100 C 0.85447 0.90935 0.37642 0.0
C2101 C 0.8749 0.89502 0.43975 0.0
C2102 C 0.83506 0.91829 0.3011 0.0
C2103 C 0.86699 0.88897 0.2623 0.0
N2104 N 0.87113 0.89608 0.39505 0.0
N2105 N 0.86839 0.89464 0.30618 0.0
H2106 H 0.83082 0.06366 0.00595 0.0
H2107 H 0.81444 0.07771 0.24394 0.0
H2108 H 0.88863 0.10829 0.0296 0.0
H2109 H 0.86827 0.12783 0.22772 0.0
H2110 H 0.81942 0.06657 0.16394 0.0
H2111 H 0.82075 0.0666 0.08687 0.0
C2112 C 0.84125 0.07403 0.02828 0.0
C2113 C 0.86084 0.08531 0.01204 0.0
C2114 C 0.83009 0.07995 0.17803 0.0
C2115 C 0.84992 0.08857 0.10297 0.0
C2116 C 0.82737 0.08611 0.22354 0.0
C2117 C 0.84059 0.10405 0.24137 0.0
C2118 C 0.84625 0.09189 0.15156 0.0
C2119 C 0.8574 0.11427 0.21467 0.0
C2120 C 0.83571 0.07552 0.0743 0.0
C2121 C 0.87371 0.0989 0.04129 0.0
N2122 N 0.8596 0.10816 0.17119 0.0
N2123 N 0.86809 0.10002 0.08519 0.0
H2124 H 0.68055 0.08476 0.75567 0.0
H2125 H 0.62831 0.12694 0.98929 0.0
H2126 H 0.62546 0.13306 0.77605 0.0
H2127 H 0.66668 0.06377 0.98543 0.0
H2128 H 0.63582 0.13276 0.91035 0.0
H2129 H 0.68091 0.07718 0.83816 0.0
C2130 C 0.66841 0.09342 0.77744 0.0
C2131 C 0.65339 0.11001 0.75997 0.0
C2132 C 0.64275 0.11754 0.92632 0.0
C2133 C 0.65393 0.10191 0.8522 0.0
C2134 C 0.63866 0.11439 0.97162 0.0
C2135 C 0.64618 0.09445 0.993 0.0
C2136 C 0.65419 0.10045 0.90178 0.0
C2137 C 0.66005 0.079 0.96916 0.0
C2138 C 0.6687 0.08924 0.82414 0.0
C2139 C 0.63769 0.1206 0.78867 0.0
N2140 N 0.66328 0.08204 0.92393 0.0
N2141 N 0.63855 0.11654 0.83328 0.0
H2142 H 0.60955 0.86952 0.51201 0.0
H2143 H 0.6775 0.90833 0.73319 0.0
H2144 H 0.65862 0.92479 0.5056 0.0
H2145 H 0.62274 0.85871 0.72501 0.0
H2146 H 0.67286 0.9159 0.65127 0.0
H2147 H 0.61846 0.86395 0.59046 0.0
C2148 C 0.62244 0.88041 0.52746 0.0
C2149 C 0.63295 0.898 0.50319 0.0
C2150 C 0.66184 0.90353 0.66781 0.0
C2151 C 0.6429 0.89234 0.59387 0.0
C2152 C 0.66439 0.89936 0.71423 0.0
C2153 C 0.65085 0.88247 0.73487 0.0
C2154 C 0.64567 0.89066 0.64319 0.0
C2155 C 0.63385 0.87147 0.70981 0.0
C2156 C 0.62744 0.8774 0.57246 0.0
C2157 C 0.64991 0.91134 0.52406 0.0
N2158 N 0.63192 0.87561 0.66536 0.0
N2159 N 0.6542 0.9085 0.56899 0.0
H2160 H 0.66165 0.56309 0.01322 0.0
H2161 H 0.6143 0.61841 0.2407 0.0
H2162 H 0.60813 0.61371 0.0272 0.0
H2163 H 0.67874 0.58215 0.24191 0.0
H2164 H 0.60904 0.60844 0.1626 0.0
H2165 H 0.66817 0.56505 0.09597 0.0
C2166 C 0.65157 0.57473 0.03366 0.0
C2167 C 0.63393 0.58781 0.01429 0.0
C2168 C 0.62446 0.60257 0.17946 0.0
C2169 C 0.64087 0.58986 0.10684 0.0
C2170 C 0.6273 0.60808 0.22428 0.0
C2171 C 0.64737 0.60183 0.24675 0.0
C2172 C 0.64209 0.5911 0.15642 0.0
C2173 C 0.6634 0.58787 0.22467 0.0
C2174 C 0.65514 0.57573 0.08051 0.0
C2175 C 0.62149 0.60293 0.0413 0.0
N2176 N 0.66072 0.58332 0.1798 0.0
N2177 N 0.62507 0.60336 0.0861 0.0
H2178 H 0.60986 0.37656 0.46692 0.0
H2179 H 0.68404 0.41439 0.25347 0.0
H2180 H 0.66161 0.429 0.48055 0.0
H2181 H 0.62541 0.36926 0.25449 0.0
H2182 H 0.67733 0.42241 0.33466 0.0
H2183 H 0.61854 0.37327 0.38798 0.0
C2184 C 0.62324 0.38736 0.45289 0.0
C2185 C 0.63465 0.40346 0.47944 0.0
C2186 C 0.66586 0.41103 0.31663 0.0
C2187 C 0.64455 0.4003 0.3883 0.0
C2188 C 0.6696 0.40659 0.27062 0.0
C2189 C 0.6556 0.39065 0.24833 0.0
C2190 C 0.64807 0.39935 0.33911 0.0
C2191 C 0.63689 0.38122 0.27098 0.0
C2192 C 0.62814 0.38565 0.40763 0.0
C2193 C 0.65225 0.41668 0.46035 0.0
N2194 N 0.63386 0.38552 0.3151 0.0
N2195 N 0.65657 0.41504 0.41521 0.0
H2196 H 0.81478 0.40587 0.7354 0.0
H2197 H 0.85849 0.36595 0.49387 0.0
H2198 H 0.86648 0.35524 0.70502 0.0
H2199 H 0.82707 0.43247 0.5071 0.0
H2200 H 0.85064 0.35819 0.57203 0.0
H2201 H 0.81219 0.41495 0.65361 0.0
C2202 C 0.82566 0.39694 0.71157 0.0
C2203 C 0.84037 0.37937 0.72609 0.0
C2204 C 0.84528 0.37455 0.55824 0.0
C2205 C 0.83732 0.38916 0.63466 0.0
C2206 C 0.8496 0.37888 0.51338 0.0
C2207 C 0.84447 0.40031 0.49509 0.0
C2208 C 0.83603 0.39194 0.58538 0.0
C2209 C 0.83219 0.41614 0.52118 0.0
C2210 C 0.82409 0.40197 0.6653 0.0
C2211 C 0.85448 0.36846 0.69477 0.0
N2212 N 0.82883 0.41192 0.566 0.0
N2213 N 0.85243 0.37338 0.65063 0.0
H2214 H 0.83475 0.56876 0.9929 0.0
H2215 H 0.86978 0.63223 0.7647 0.0
H2216 H 0.88358 0.6238 0.97748 0.0
H2217 H 0.81225 0.58569 0.76597 0.0
H2218 H 0.87635 0.62476 0.8433 0.0
H2219 H 0.82494 0.57246 0.91168 0.0
C2220 C 0.84307 0.58174 0.97253 0.0
C2221 C 0.86042 0.59558 0.99085 0.0
C2222 C 0.86216 0.61606 0.82701 0.0
C2223 C 0.84966 0.59977 0.89998 0.0
C2224 C 0.85858 0.62021 0.78186 0.0
C2225 C 0.84014 0.60999 0.75959 0.0
C2226 C 0.847 0.60173 0.85066 0.0
C2227 C 0.8264 0.59416 0.78279 0.0
C2228 C 0.8376 0.58379 0.92652 0.0
C2229 C 0.87053 0.61243 0.96406 0.0
N2230 N 0.82988 0.59069 0.82784 0.0
N2231 N 0.86515 0.61388 0.92005 0.0
H2232 H 0.3745 0.36513 0.75357 0.0
H2233 H 0.33573 0.42706 0.98094 0.0
H2234 H 0.31476 0.40875 0.75371 0.0
H2235 H 0.38596 0.37323 0.96656 0.0
H2236 H 0.327 0.42366 0.89919 0.0
H2237 H 0.38097 0.37384 0.83179 0.0
C2238 C 0.36281 0.3768 0.77037 0.0
C2239 C 0.34372 0.38571 0.74806 0.0
C2240 C 0.33975 0.41255 0.91436 0.0
C2241 C 0.35038 0.39521 0.83863 0.0
C2242 C 0.34458 0.4144 0.96067 0.0
C2243 C 0.36199 0.40082 0.97949 0.0
C2244 C 0.35254 0.39707 0.88802 0.0
C2245 C 0.37282 0.38439 0.95279 0.0
C2246 C 0.36632 0.38162 0.81528 0.0
C2247 C 0.32936 0.40119 0.77068 0.0
N2248 N 0.36807 0.38316 0.90848 0.0
N2249 N 0.33272 0.40521 0.81558 0.0
H2250 H 0.3156 0.58062 0.7311 0.0
H2251 H 0.36547 0.6259 0.497 0.0
H2252 H 0.36525 0.63453 0.71081 0.0
H2253 H 0.32808 0.56217 0.50177 0.0
H2254 H 0.35741 0.63215 0.57571 0.0
H2255 H 0.31537 0.57372 0.64843 0.0
C2256 C 0.32656 0.59072 0.70927 0.0
C2257 C 0.34 0.60855 0.72691 0.0
C2258 C 0.35085 0.61669 0.56002 0.0
C2259 C 0.33959 0.60117 0.6344 0.0
C2260 C 0.35525 0.6133 0.51486 0.0
C2261 C 0.34816 0.59311 0.49385 0.0
C2262 C 0.33963 0.59952 0.5848 0.0
C2263 C 0.33442 0.57759 0.5178 0.0
C2264 C 0.3263 0.58694 0.66247 0.0
C2265 C 0.35422 0.62101 0.69811 0.0
N2266 N 0.33096 0.58082 0.56289 0.0
N2267 N 0.35348 0.61721 0.65338 0.0
H2268 H 0.16328 0.57732 0.49917 0.0
H2269 H 0.17524 0.58581 0.25978 0.0
H2270 H 0.10501 0.62114 0.47423 0.0
H2271 H 0.13402 0.6465 0.27868 0.0
H2272 H 0.1707 0.57694 0.341 0.0
H2273 H 0.17485 0.58199 0.41928 0.0
C2274 C 0.15306 0.58788 0.47679 0.0
C2275 C 0.13291 0.5984 0.49226 0.0
C2276 C 0.16304 0.59235 0.3273 0.0
C2277 C 0.14565 0.60372 0.40266 0.0
C2278 C 0.16539 0.59721 0.28117 0.0
C2279 C 0.15544 0.61716 0.26344 0.0
C2280 C 0.15033 0.60748 0.35461 0.0
C2281 C 0.1424 0.63125 0.29157 0.0
C2282 C 0.15946 0.59034 0.43142 0.0
C2283 C 0.12035 0.61232 0.46298 0.0
N2284 N 0.14026 0.62614 0.33567 0.0
N2285 N 0.1269 0.61451 0.41964 0.0
H2286 H 0.17181 0.40892 0.24583 0.0
H2287 H 0.10868 0.37347 0.01696 0.0
H2288 H 0.11621 0.36064 0.23136 0.0
H2289 H 0.16217 0.4246 0.0164 0.0
H2290 H 0.11346 0.36868 0.09698 0.0
H2291 H 0.16898 0.41749 0.16402 0.0
C2292 C 0.15886 0.40049 0.22552 0.0
C2293 C 0.14461 0.38364 0.24436 0.0
C2294 C 0.12432 0.38103 0.07995 0.0
C2295 C 0.14142 0.39298 0.15273 0.0
C2296 C 0.12165 0.38361 0.03407 0.0
C2297 C 0.13469 0.39979 0.01076 0.0
C2298 C 0.14012 0.39485 0.10316 0.0
C2299 C 0.15161 0.41219 0.03391 0.0
C2300 C 0.15733 0.40523 0.17915 0.0
C2301 C 0.12785 0.37334 0.21757 0.0
N2302 N 0.15372 0.40968 0.07952 0.0
N2303 N 0.1269 0.37801 0.17317 0.0
loop_
_geom_bond_atom_site_label_1
_geom_bond_atom_site_label_2
_geom_bond_distance
_geom_bond_site_symmetry_2
_ccdc_geom_bond_type
Mn0 O5 2.095 . S
Mn0 O15 2.162 . S
Mn0 O16 2.297 . S
Mn0 O24 2.385 . S
Mn0 O25 2.209 . S
Mn0 O26 2.094 . S
Mn1 O6 2.121 . S
Mn1 N8 2.257 . S
Mn1 N17 2.282 . S
Mn1 O25 2.215 . S
Mn1 O27 2.117 . S
C2 O24 1.234 . S
C2 O25 1.283 . S
C3 O15 1.281 . S
C3 O16 1.236 . S
C4 O26 1.240 . S
C4 O27 1.264 . S
O5 Mn0 2.095 . S
O5 C14 1.250 . S
O6 Mn1 2.121 . S
O6 C14 1.258 . S
C7 N8 1.326 . S
C7 C11 1.460 . S
C7 H13 0.929 . S
N8 Mn1 2.257 . S
N8 C7 1.326 . S
N8 C12 1.362 . S
C9 C10 1.258 . S
C9 C12 1.431 . S
C9 C29 1.449 . S
C10 C9 1.258 . S
C10 C11 1.477 . S
C10 H30 0.931 . S
C11 C7 1.460 . S
C11 C10 1.477 . S
C11 H31 0.930 . S
C12 N8 1.362 . S
C12 C9 1.431 . S
C12 C22 1.476 . S
H13 C7 0.929 . S
C14 O5 1.250 . S
C14 O6 1.258 . S
O15 Mn0 2.162 . S
O15 C3 1.281 . S
O16 Mn0 2.297 . S
O16 C3 1.236 . S
N17 Mn1 2.282 . S
N17 C18 1.328 . S
N17 C22 1.318 . S
C18 N17 1.328 . S
C18 C19 1.457 . S
C18 H23 0.929 . S
C19 C18 1.457 . S
C19 C20 1.291 . S
C19 H32 0.931 . S
C20 C19 1.291 . S
C20 C21 1.373 . S
C20 H33 0.929 . S
C21 C20 1.373 . S
C21 C22 1.396 . S
C21 C28 1.403 . S
C22 C12 1.476 . S
C22 N17 1.318 . S
C22 C21 1.396 . S
H23 C18 0.929 . S
O24 Mn0 2.385 . S
O24 C2 1.234 . S
O25 Mn0 2.209 . S
O25 Mn1 2.215 . S
O25 C2 1.283 . S
O26 Mn0 2.094 . S
O26 C4 1.240 . S
O27 Mn1 2.117 . S
O27 C4 1.264 . S
C28 C21 1.403 . S
C28 C29 1.399 . S
C28 H34 0.929 . S
C29 C9 1.449 . S
C29 C28 1.399 . S
C29 H35 0.930 . S
H30 C10 0.931 . S
H31 C11 0.930 . S
H32 C19 0.931 . S
H33 C20 0.929 . S
H34 C28 0.929 . S
H35 C29 0.930 . S
Mn36 O41 2.095 . S
Mn36 O51 2.162 . S
Mn36 O52 2.297 . S
Mn36 O60 2.385 . S
Mn36 O61 2.209 . S
Mn36 O62 2.094 . S
Mn37 O42 2.121 . S
Mn37 N44 2.257 . S
Mn37 N53 2.282 . S
Mn37 O61 2.215 . S
Mn37 O63 2.117 . S
C38 O60 1.234 . S
C38 O61 1.283 . S
C39 O51 1.281 . S
C39 O52 1.236 . S
C40 O62 1.240 . S
C40 O63 1.264 . S
O41 Mn36 2.095 . S
O41 C50 1.250 . S
O42 Mn37 2.121 . S
O42 C50 1.258 . S
C43 N44 1.326 . S
C43 C47 1.460 . S
C43 H49 0.929 . S
N44 Mn37 2.257 . S
N44 C43 1.326 . S
N44 C48 1.362 . S
C45 C46 1.258 . S
C45 C48 1.431 . S
C45 C65 1.449 . S
C46 C45 1.258 . S
C46 C47 1.477 . S
C46 H66 0.931 . S
C47 C43 1.460 . S
C47 C46 1.477 . S
C47 H67 0.930 . S
C48 N44 1.362 . S
C48 C45 1.431 . S
C48 C58 1.476 . S
H49 C43 0.929 . S
C50 O41 1.250 . S
C50 O42 1.258 . S
O51 Mn36 2.162 . S
O51 C39 1.281 . S
O52 Mn36 2.297 . S
O52 C39 1.236 . S
N53 Mn37 2.282 . S
N53 C54 1.328 . S
N53 C58 1.318 . S
C54 N53 1.328 . S
C54 C55 1.457 . S
C54 H59 0.929 . S
C55 C54 1.457 . S
C55 C56 1.291 . S
C55 H68 0.931 . S
C56 C55 1.291 . S
C56 C57 1.373 . S
C56 H69 0.929 . S
C57 C56 1.373 . S
C57 C58 1.396 . S
C57 C64 1.403 . S
C58 C48 1.476 . S
C58 N53 1.318 . S
C58 C57 1.396 . S
H59 C54 0.929 . S
O60 Mn36 2.385 . S
O60 C38 1.234 . S
O61 Mn36 2.209 . S
O61 Mn37 2.215 . S
O61 C38 1.283 . S
O62 Mn36 2.094 . S
O62 C40 1.240 . S
O63 Mn37 2.117 . S
O63 C40 1.264 . S
C64 C57 1.403 . S
C64 C65 1.399 . S
C64 H70 0.929 . S
C65 C45 1.449 . S
C65 C64 1.399 . S
C65 H71 0.930 . S
H66 C46 0.931 . S
H67 C47 0.930 . S
H68 C55 0.931 . S
H69 C56 0.929 . S
H70 C64 0.929 . S
H71 C65 0.930 . S
Mn72 O77 2.095 . S
Mn72 O87 2.162 . S
Mn72 O88 2.297 . S
Mn72 O96 2.385 . S
Mn72 O97 2.209 . S
Mn72 O98 2.094 . S
Mn73 O78 2.121 . S
Mn73 N80 2.257 1_556 S
Mn73 N89 2.282 . S
Mn73 O97 2.215 . S
Mn73 O99 2.117 . S
C74 O96 1.234 . S
C74 O97 1.283 . S
C75 O87 1.281 . S
C75 O88 1.236 . S
C76 O98 1.240 . S
C76 O99 1.264 . S
O77 Mn72 2.095 . S
O77 C86 1.250 . S
O78 Mn73 2.121 . S
O78 C86 1.258 . S
C79 N80 1.326 . S
C79 C83 1.460 . S
C79 H85 0.929 . S
N80 Mn73 2.257 1_554 S
N80 C79 1.326 . S
N80 C84 1.362 . S
C81 C82 1.258 . S
C81 C84 1.431 . S
C81 C101 1.449 . S
C82 C81 1.258 . S
C82 C83 1.477 . S
C82 H102 0.931 . S
C83 C79 1.460 . S
C83 C82 1.477 . S
C83 H103 0.930 . S
C84 N80 1.362 . S
C84 C81 1.431 . S
C84 C94 1.476 . S
H85 C79 0.929 . S
C86 O77 1.250 . S
C86 O78 1.258 . S
O87 Mn72 2.162 . S
O87 C75 1.281 . S
O88 Mn72 2.297 . S
O88 C75 1.236 . S
N89 Mn73 2.282 . S
N89 C90 1.328 . S
N89 C94 1.318 1_556 S
C90 N89 1.328 . S
C90 C91 1.457 1_556 S
C90 H95 0.929 . S
C91 C90 1.457 1_554 S
C91 C92 1.291 . S
C91 H104 0.931 . S
C92 C91 1.291 . S
C92 C93 1.373 . S
C92 H105 0.929 . S
C93 C92 1.373 . S
C93 C94 1.396 . S
C93 C100 1.403 . S
C94 C84 1.476 . S
C94 N89 1.318 1_554 S
C94 C93 1.396 . S
H95 C90 0.929 . S
O96 Mn72 2.385 . S
O96 C74 1.234 . S
O97 Mn72 2.209 . S
O97 Mn73 2.215 . S
O97 C74 1.283 . S
O98 Mn72 2.094 . S
O98 C76 1.240 . S
O99 Mn73 2.117 . S
O99 C76 1.264 . S
C100 C93 1.403 . S
C100 C101 1.399 . S
C100 H106 0.929 . S
C101 C81 1.449 . S
C101 C100 1.399 . S
C101 H107 0.930 . S
H102 C82 0.931 . S
H103 C83 0.930 . S
H104 C91 0.931 . S
H105 C92 0.929 . S
H106 C100 0.929 . S
H107 C101 0.930 . S
Mn108 O113 2.095 . S
Mn108 O123 2.162 . S
Mn108 O124 2.297 . S
Mn108 O132 2.385 . S
Mn108 O133 2.209 . S
Mn108 O134 2.094 . S
Mn109 O114 2.121 . S
Mn109 N116 2.257 . S
Mn109 N125 2.282 . S
Mn109 O133 2.215 . S
Mn109 O135 2.117 . S
C110 O132 1.234 . S
C110 O133 1.283 . S
C111 O123 1.281 . S
C111 O124 1.236 . S
C112 O134 1.240 . S
C112 O135 1.264 . S
O113 Mn108 2.095 . S
O113 C122 1.250 . S
O114 Mn109 2.121 . S
O114 C122 1.258 . S
C115 N116 1.326 . S
C115 C119 1.460 . S
C115 H121 0.929 . S
N116 Mn109 2.257 . S
N116 C115 1.326 . S
N116 C120 1.362 . S
C117 C118 1.258 . S
C117 C120 1.431 . S
C117 C137 1.449 . S
C118 C117 1.258 . S
C118 C119 1.477 . S
C118 H138 0.931 . S
C119 C115 1.460 . S
C119 C118 1.477 . S
C119 H139 0.930 . S
C120 N116 1.362 . S
C120 C117 1.431 . S
C120 C130 1.476 . S
H121 C115 0.929 . S
C122 O113 1.250 . S
C122 O114 1.258 . S
O123 Mn108 2.162 . S
O123 C111 1.281 . S
O124 Mn108 2.297 . S
O124 C111 1.236 . S
N125 Mn109 2.282 . S
N125 C126 1.328 . S
N125 C130 1.318 . S
C126 N125 1.328 . S
C126 C127 1.457 . S
C126 H131 0.929 . S
C127 C126 1.457 . S
C127 C128 1.291 . S
C127 H140 0.931 . S
C128 C127 1.291 . S
C128 C129 1.373 . S
C128 H141 0.929 . S
C129 C128 1.373 . S
C129 C130 1.396 . S
C129 C136 1.403 . S
C130 C120 1.476 . S
C130 N125 1.318 . S
C130 C129 1.396 . S
H131 C126 0.929 . S
O132 Mn108 2.385 . S
O132 C110 1.234 . S
O133 Mn108 2.209 . S
O133 Mn109 2.215 . S
O133 C110 1.283 . S
O134 Mn108 2.094 . S
O134 C112 1.240 . S
O135 Mn109 2.117 . S
O135 C112 1.264 . S
C136 C129 1.403 . S
C136 C137 1.399 . S
C136 H142 0.929 . S
C137 C117 1.449 . S
C137 C136 1.399 . S
C137 H143 0.930 . S
H138 C118 0.931 . S
H139 C119 0.930 . S
H140 C127 0.931 . S
H141 C128 0.929 . S
H142 C136 0.929 . S
H143 C137 0.930 . S
Mn144 O149 2.095 . S
Mn144 O159 2.162 . S
Mn144 O160 2.297 . S
Mn144 O168 2.385 . S
Mn144 O169 2.209 . S
Mn144 O170 2.094 . S
Mn145 O150 2.121 . S
Mn145 N152 2.257 1_554 S
Mn145 N161 2.282 . S
Mn145 O169 2.215 . S
Mn145 O171 2.117 . S
C146 O168 1.234 . S
C146 O169 1.283 . S
C147 O159 1.281 . S
C147 O160 1.236 . S
C148 O170 1.240 . S
C148 O171 1.264 . S
O149 Mn144 2.095 . S
O149 C158 1.250 . S
O150 Mn145 2.121 . S
O150 C158 1.258 . S
C151 N152 1.326 . S
C151 C155 1.460 . S
C151 H157 0.929 . S
N152 Mn145 2.257 1_556 S
N152 C151 1.326 . S
N152 C156 1.362 . S
C153 C154 1.258 . S
C153 C156 1.431 . S
C153 C173 1.449 . S
C154 C153 1.258 . S
C154 C155 1.477 . S
C154 H174 0.931 . S
C155 C151 1.460 . S
C155 C154 1.477 . S
C155 H175 0.930 . S
C156 N152 1.362 . S
C156 C153 1.431 . S
C156 C166 1.476 . S
H157 C151 0.929 . S
C158 O149 1.250 . S
C158 O150 1.258 . S
O159 Mn144 2.162 . S
O159 C147 1.281 . S
O160 Mn144 2.297 . S
O160 C147 1.236 . S
N161 Mn145 2.282 . S
N161 C162 1.328 . S
N161 C166 1.318 1_554 S
C162 N161 1.328 . S
C162 C163 1.457 1_554 S
C162 H167 0.929 . S
C163 C162 1.457 1_556 S
C163 C164 1.291 . S
C163 H176 0.931 . S
C164 C163 1.291 . S
C164 C165 1.373 . S
C164 H177 0.929 . S
C165 C164 1.373 . S
C165 C166 1.396 . S
C165 C172 1.403 . S
C166 C156 1.476 . S
C166 N161 1.318 1_556 S
C166 C165 1.396 . S
H167 C162 0.929 . S
O168 Mn144 2.385 . S
O168 C146 1.234 . S
O169 Mn144 2.209 . S
O169 Mn145 2.215 . S
O169 C146 1.283 . S
O170 Mn144 2.094 . S
O170 C148 1.240 . S
O171 Mn145 2.117 . S
O171 C148 1.264 . S
C172 C165 1.403 . S
C172 C173 1.399 . S
C172 H178 0.929 . S
C173 C153 1.449 . S
C173 C172 1.399 . S
C173 H179 0.930 . S
H174 C154 0.931 . S
H175 C155 0.930 . S
H176 C163 0.931 . S
H177 C164 0.929 . S
H178 C172 0.929 . S
H179 C173 0.930 . S
Mn180 O185 2.095 . S
Mn180 O195 2.162 . S
Mn180 O196 2.297 . S
Mn180 O204 2.385 . S
Mn180 O205 2.209 . S
Mn180 O206 2.094 . S
Mn181 O186 2.121 . S
Mn181 N188 2.257 . S
Mn181 N197 2.282 . S
Mn181 O205 2.215 . S
Mn181 O207 2.117 . S
C182 O204 1.234 . S
C182 O205 1.283 . S
C183 O195 1.281 . S
C183 O196 1.236 . S
C184 O206 1.240 . S
C184 O207 1.264 . S
O185 Mn180 2.095 . S
O185 C194 1.250 . S
O186 Mn181 2.121 . S
O186 C194 1.258 . S
C187 N188 1.326 . S
C187 C191 1.460 . S
C187 H193 0.929 . S
N188 Mn181 2.257 . S
N188 C187 1.326 . S
N188 C192 1.362 . S
C189 C190 1.258 . S
C189 C192 1.431 . S
C189 C209 1.449 . S
C190 C189 1.258 . S
C190 C191 1.477 . S
C190 H210 0.931 . S
C191 C187 1.460 . S
C191 C190 1.477 . S
C191 H211 0.930 . S
C192 N188 1.362 . S
C192 C189 1.431 . S
C192 C202 1.476 . S
H193 C187 0.929 . S
C194 O185 1.250 . S
C194 O186 1.258 . S
O195 Mn180 2.162 . S
O195 C183 1.281 . S
O196 Mn180 2.297 . S
O196 C183 1.236 . S
N197 Mn181 2.282 . S
N197 C198 1.328 . S
N197 C202 1.318 . S
C198 N197 1.328 . S
C198 C199 1.457 . S
C198 H203 0.929 . S
C199 C198 1.457 . S
C199 C200 1.291 . S
C199 H212 0.931 . S
C200 C199 1.291 . S
C200 C201 1.373 . S
C200 H213 0.929 . S
C201 C200 1.373 . S
C201 C202 1.396 . S
C201 C208 1.403 . S
C202 C192 1.476 . S
C202 N197 1.318 . S
C202 C201 1.396 . S
H203 C198 0.929 . S
O204 Mn180 2.385 . S
O204 C182 1.234 . S
O205 Mn180 2.209 . S
O205 Mn181 2.215 . S
O205 C182 1.283 . S
O206 Mn180 2.094 . S
O206 C184 1.240 . S
O207 Mn181 2.117 . S
O207 C184 1.264 . S
C208 C201 1.403 . S
C208 C209 1.399 . S
C208 H214 0.929 . S
C209 C189 1.449 . S
C209 C208 1.399 . S
C209 H215 0.930 . S
H210 C190 0.931 . S
H211 C191 0.930 . S
H212 C199 0.931 . S
H213 C200 0.929 . S
H214 C208 0.929 . S
H215 C209 0.930 . S
Mn216 O221 2.095 . S
Mn216 O231 2.162 . S
Mn216 O232 2.297 . S
Mn216 O240 2.385 . S
Mn216 O241 2.209 . S
Mn216 O242 2.094 . S
Mn217 O222 2.121 . S
Mn217 N224 2.257 . S
Mn217 N233 2.282 . S
Mn217 O241 2.215 . S
Mn217 O243 2.117 . S
C218 O240 1.234 . S
C218 O241 1.283 . S
C219 O231 1.281 . S
C219 O232 1.236 . S
C220 O242 1.240 . S
C220 O243 1.264 . S
O221 Mn216 2.095 . S
O221 C230 1.250 . S
O222 Mn217 2.121 . S
O222 C230 1.258 . S
C223 N224 1.326 . S
C223 C227 1.460 . S
C223 H229 0.929 . S
N224 Mn217 2.257 . S
N224 C223 1.326 . S
N224 C228 1.362 . S
C225 C226 1.258 . S
C225 C228 1.431 . S
C225 C245 1.449 . S
C226 C225 1.258 . S
C226 C227 1.477 . S
C226 H246 0.931 . S
C227 C223 1.460 . S
C227 C226 1.477 . S
C227 H247 0.930 . S
C228 N224 1.362 . S
C228 C225 1.431 . S
C228 C238 1.476 . S
H229 C223 0.929 . S
C230 O221 1.250 . S
C230 O222 1.258 . S
O231 Mn216 2.162 . S
O231 C219 1.281 . S
O232 Mn216 2.297 . S
O232 C219 1.236 . S
N233 Mn217 2.282 . S
N233 C234 1.328 . S
N233 C238 1.318 . S
C234 N233 1.328 . S
C234 C235 1.457 . S
C234 H239 0.929 . S
C235 C234 1.457 . S
C235 C236 1.291 . S
C235 H248 0.931 . S
C236 C235 1.291 . S
C236 C237 1.373 . S
C236 H249 0.929 . S
C237 C236 1.373 . S
C237 C238 1.396 . S
C237 C244 1.403 . S
C238 C228 1.476 . S
C238 N233 1.318 . S
C238 C237 1.396 . S
H239 C234 0.929 . S
O240 Mn216 2.385 . S
O240 C218 1.234 . S
O241 Mn216 2.209 . S
O241 Mn217 2.215 . S
O241 C218 1.283 . S
O242 Mn216 2.094 . S
O242 C220 1.240 . S
O243 Mn217 2.117 . S
O243 C220 1.264 . S
C244 C237 1.403 . S
C244 C245 1.399 . S
C244 H250 0.929 . S
C245 C225 1.449 . S
C245 C244 1.399 . S
C245 H251 0.930 . S
H246 C226 0.931 . S
H247 C227 0.930 . S
H248 C235 0.931 . S
H249 C236 0.929 . S
H250 C244 0.929 . S
H251 C245 0.930 . S
Mn252 O257 2.095 . S
Mn252 O267 2.162 . S
Mn252 O268 2.297 . S
Mn252 O276 2.385 . S
Mn252 O277 2.209 . S
Mn252 O278 2.094 . S
Mn253 O258 2.121 . S
Mn253 N260 2.257 . S
Mn253 N269 2.282 . S
Mn253 O277 2.215 . S
Mn253 O279 2.117 . S
C254 O276 1.234 . S
C254 O277 1.283 . S
C255 O267 1.281 . S
C255 O268 1.236 . S
C256 O278 1.240 . S
C256 O279 1.264 . S
O257 Mn252 2.095 . S
O257 C266 1.250 . S
O258 Mn253 2.121 . S
O258 C266 1.258 . S
C259 N260 1.326 . S
C259 C263 1.460 . S
C259 H265 0.929 . S
N260 Mn253 2.257 . S
N260 C259 1.326 . S
N260 C264 1.362 . S
C261 C262 1.258 . S
C261 C264 1.431 . S
C261 C281 1.449 . S
C262 C261 1.258 . S
C262 C263 1.477 . S
C262 H282 0.931 . S
C263 C259 1.460 . S
C263 C262 1.477 . S
C263 H283 0.930 . S
C264 N260 1.362 . S
C264 C261 1.431 . S
C264 C274 1.476 . S
H265 C259 0.929 . S
C266 O257 1.250 . S
C266 O258 1.258 . S
O267 Mn252 2.162 . S
O267 C255 1.281 . S
O268 Mn252 2.297 . S
O268 C255 1.236 . S
N269 Mn253 2.282 . S
N269 C270 1.328 . S
N269 C274 1.318 . S
C270 N269 1.328 . S
C270 C271 1.457 . S
C270 H275 0.929 . S
C271 C270 1.457 . S
C271 C272 1.291 . S
C271 H284 0.931 . S
C272 C271 1.291 . S
C272 C273 1.373 . S
C272 H285 0.929 . S
C273 C272 1.373 . S
C273 C274 1.396 . S
C273 C280 1.403 . S
C274 C264 1.476 . S
C274 N269 1.318 . S
C274 C273 1.396 . S
H275 C270 0.929 . S
O276 Mn252 2.385 . S
O276 C254 1.234 . S
O277 Mn252 2.209 . S
O277 Mn253 2.215 . S
O277 C254 1.283 . S
O278 Mn252 2.094 . S
O278 C256 1.240 . S
O279 Mn253 2.117 . S
O279 C256 1.264 . S
C280 C273 1.403 . S
C280 C281 1.399 . S
C280 H286 0.929 . S
C281 C261 1.449 . S
C281 C280 1.399 . S
C281 H287 0.930 . S
H282 C262 0.931 . S
H283 C263 0.930 . S
H284 C271 0.931 . S
H285 C272 0.929 . S
H286 C280 0.929 . S
H287 C281 0.930 . S
Mn288 O293 2.095 . S
Mn288 O303 2.162 . S
Mn288 O304 2.297 . S
Mn288 O312 2.385 . S
Mn288 O313 2.209 . S
Mn288 O314 2.094 . S
Mn289 O294 2.121 . S
Mn289 N296 2.257 . S
Mn289 N305 2.282 . S
Mn289 O313 2.215 . S
Mn289 O315 2.117 . S
C290 O312 1.234 . S
C290 O313 1.283 . S
C291 O303 1.281 . S
C291 O304 1.236 . S
C292 O314 1.240 . S
C292 O315 1.264 . S
O293 Mn288 2.095 . S
O293 C302 1.250 . S
O294 Mn289 2.121 . S
O294 C302 1.258 . S
C295 N296 1.326 . S
C295 C299 1.460 . S
C295 H301 0.929 . S
N296 Mn289 2.257 . S
N296 C295 1.326 . S
N296 C300 1.362 . S
C297 C298 1.258 . S
C297 C300 1.431 . S
C297 C317 1.449 . S
C298 C297 1.258 . S
C298 C299 1.477 . S
C298 H318 0.931 . S
C299 C295 1.460 . S
C299 C298 1.477 . S
C299 H319 0.930 . S
C300 N296 1.362 . S
C300 C297 1.431 . S
C300 C310 1.476 . S
H301 C295 0.929 . S
C302 O293 1.250 . S
C302 O294 1.258 . S
O303 Mn288 2.162 . S
O303 C291 1.281 . S
O304 Mn288 2.297 . S
O304 C291 1.236 . S
N305 Mn289 2.282 . S
N305 C306 1.328 . S
N305 C310 1.318 . S
C306 N305 1.328 . S
C306 C307 1.457 . S
C306 H311 0.929 . S
C307 C306 1.457 . S
C307 C308 1.291 . S
C307 H320 0.931 . S
C308 C307 1.291 . S
C308 C309 1.373 . S
C308 H321 0.929 . S
C309 C308 1.373 . S
C309 C310 1.396 . S
C309 C316 1.403 . S
C310 C300 1.476 . S
C310 N305 1.318 . S
C310 C309 1.396 . S
H311 C306 0.929 . S
O312 Mn288 2.385 . S
O312 C290 1.234 . S
O313 Mn288 2.209 . S
O313 Mn289 2.215 . S
O313 C290 1.283 . S
O314 Mn288 2.094 . S
O314 C292 1.240 . S
O315 Mn289 2.117 . S
O315 C292 1.264 . S
C316 C309 1.403 . S
C316 C317 1.399 . S
C316 H322 0.929 . S
C317 C297 1.449 . S
C317 C316 1.399 . S
C317 H323 0.930 . S
H318 C298 0.931 . S
H319 C299 0.930 . S
H320 C307 0.931 . S
H321 C308 0.929 . S
H322 C316 0.929 . S
H323 C317 0.930 . S
Mn324 O329 2.095 . S
Mn324 O339 2.162 . S
Mn324 O340 2.297 . S
Mn324 O348 2.385 . S
Mn324 O349 2.209 . S
Mn324 O350 2.094 . S
Mn325 O330 2.121 . S
Mn325 N332 2.257 . S
Mn325 N341 2.282 . S
Mn325 O349 2.215 . S
Mn325 O351 2.117 . S
C326 O348 1.234 . S
C326 O349 1.283 . S
C327 O339 1.281 . S
C327 O340 1.236 . S
C328 O350 1.240 . S
C328 O351 1.264 . S
O329 Mn324 2.095 . S
O329 C338 1.250 . S
O330 Mn325 2.121 . S
O330 C338 1.258 . S
C331 N332 1.326 . S
C331 C335 1.460 . S
C331 H337 0.929 . S
N332 Mn325 2.257 . S
N332 C331 1.326 . S
N332 C336 1.362 . S
C333 C334 1.258 . S
C333 C336 1.431 . S
C333 C353 1.449 . S
C334 C333 1.258 . S
C334 C335 1.477 . S
C334 H354 0.931 . S
C335 C331 1.460 . S
C335 C334 1.477 . S
C335 H355 0.930 . S
C336 N332 1.362 . S
C336 C333 1.431 . S
C336 C346 1.476 . S
H337 C331 0.929 . S
C338 O329 1.250 . S
C338 O330 1.258 . S
O339 Mn324 2.162 . S
O339 C327 1.281 . S
O340 Mn324 2.297 . S
O340 C327 1.236 . S
N341 Mn325 2.282 . S
N341 C342 1.328 . S
N341 C346 1.318 . S
C342 N341 1.328 . S
C342 C343 1.457 . S
C342 H347 0.929 . S
C343 C342 1.457 . S
C343 C344 1.291 . S
C343 H356 0.931 . S
C344 C343 1.291 . S
C344 C345 1.373 . S
C344 H357 0.929 . S
C345 C344 1.373 . S
C345 C346 1.396 . S
C345 C352 1.403 . S
C346 C336 1.476 . S
C346 N341 1.318 . S
C346 C345 1.396 . S
H347 C342 0.929 . S
O348 Mn324 2.385 . S
O348 C326 1.234 . S
O349 Mn324 2.209 . S
O349 Mn325 2.215 . S
O349 C326 1.283 . S
O350 Mn324 2.094 . S
O350 C328 1.240 . S
O351 Mn325 2.117 . S
O351 C328 1.264 . S
C352 C345 1.403 . S
C352 C353 1.399 . S
C352 H358 0.929 . S
C353 C333 1.449 . S
C353 C352 1.399 . S
C353 H359 0.930 . S
H354 C334 0.931 . S
H355 C335 0.930 . S
H356 C343 0.931 . S
H357 C344 0.929 . S
H358 C352 0.929 . S
H359 C353 0.930 . S
Mn360 O365 2.095 . S
Mn360 O375 2.162 . S
Mn360 O376 2.297 . S
Mn360 O384 2.385 . S
Mn360 O385 2.209 . S
Mn360 O386 2.094 . S
Mn361 O366 2.121 . S
Mn361 N368 2.257 1_554 S
Mn361 N377 2.282 . S
Mn361 O385 2.215 . S
Mn361 O387 2.117 . S
C362 O384 1.234 . S
C362 O385 1.283 . S
C363 O375 1.281 . S
C363 O376 1.236 . S
C364 O386 1.240 . S
C364 O387 1.264 . S
O365 Mn360 2.095 . S
O365 C374 1.250 . S
O366 Mn361 2.121 . S
O366 C374 1.258 . S
C367 N368 1.326 . S
C367 C371 1.460 . S
C367 H373 0.929 . S
N368 Mn361 2.257 1_556 S
N368 C367 1.326 . S
N368 C372 1.362 . S
C369 C370 1.258 . S
C369 C372 1.431 . S
C369 C389 1.449 . S
C370 C369 1.258 . S
C370 C371 1.477 . S
C370 H390 0.931 . S
C371 C367 1.460 . S
C371 C370 1.477 . S
C371 H391 0.930 . S
C372 N368 1.362 . S
C372 C369 1.431 . S
C372 C382 1.476 . S
H373 C367 0.929 . S
C374 O365 1.250 . S
C374 O366 1.258 . S
O375 Mn360 2.162 . S
O375 C363 1.281 . S
O376 Mn360 2.297 . S
O376 C363 1.236 . S
N377 Mn361 2.282 . S
N377 C378 1.328 . S
N377 C382 1.318 1_554 S
C378 N377 1.328 . S
C378 C379 1.457 1_554 S
C378 H383 0.929 . S
C379 C378 1.457 1_556 S
C379 C380 1.291 . S
C379 H392 0.931 . S
C380 C379 1.291 . S
C380 C381 1.373 . S
C380 H393 0.929 . S
C381 C380 1.373 . S
C381 C382 1.396 . S
C381 C388 1.403 . S
C382 C372 1.476 . S
C382 N377 1.318 1_556 S
C382 C381 1.396 . S
H383 C378 0.929 . S
O384 Mn360 2.385 . S
O384 C362 1.234 . S
O385 Mn360 2.209 . S
O385 Mn361 2.215 . S
O385 C362 1.283 . S
O386 Mn360 2.094 . S
O386 C364 1.240 . S
O387 Mn361 2.117 . S
O387 C364 1.264 . S
C388 C381 1.403 . S
C388 C389 1.399 . S
C388 H394 0.929 . S
C389 C369 1.449 . S
C389 C388 1.399 . S
C389 H395 0.930 . S
H390 C370 0.931 . S
H391 C371 0.930 . S
H392 C379 0.931 . S
H393 C380 0.929 . S
H394 C388 0.929 . S
H395 C389 0.930 . S
Mn396 O401 2.095 . S
Mn396 O411 2.162 . S
Mn396 O412 2.297 . S
Mn396 O420 2.385 . S
Mn396 O421 2.209 . S
Mn396 O422 2.094 . S
Mn397 O402 2.121 . S
Mn397 N404 2.257 . S
Mn397 N413 2.282 . S
Mn397 O421 2.215 . S
Mn397 O423 2.117 . S
C398 O420 1.234 . S
C398 O421 1.283 . S
C399 O411 1.281 . S
C399 O412 1.236 . S
C400 O422 1.240 . S
C400 O423 1.264 . S
O401 Mn396 2.095 . S
O401 C410 1.250 . S
O402 Mn397 2.121 . S
O402 C410 1.258 . S
C403 N404 1.326 . S
C403 C407 1.460 . S
C403 H409 0.929 . S
N404 Mn397 2.257 . S
N404 C403 1.326 . S
N404 C408 1.362 . S
C405 C406 1.258 . S
C405 C408 1.431 . S
C405 C425 1.449 . S
C406 C405 1.258 . S
C406 C407 1.477 . S
C406 H426 0.931 . S
C407 C403 1.460 . S
C407 C406 1.477 . S
C407 H427 0.930 . S
C408 N404 1.362 . S
C408 C405 1.431 . S
C408 C418 1.476 . S
H409 C403 0.929 . S
C410 O401 1.250 . S
C410 O402 1.258 . S
O411 Mn396 2.162 . S
O411 C399 1.281 . S
O412 Mn396 2.297 . S
O412 C399 1.236 . S
N413 Mn397 2.282 . S
N413 C414 1.328 . S
N413 C418 1.318 . S
C414 N413 1.328 . S
C414 C415 1.457 . S
C414 H419 0.929 . S
C415 C414 1.457 . S
C415 C416 1.291 . S
C415 H428 0.931 . S
C416 C415 1.291 . S
C416 C417 1.373 . S
C416 H429 0.929 . S
C417 C416 1.373 . S
C417 C418 1.396 . S
C417 C424 1.403 . S
C418 C408 1.476 . S
C418 N413 1.318 . S
C418 C417 1.396 . S
H419 C414 0.929 . S
O420 Mn396 2.385 . S
O420 C398 1.234 . S
O421 Mn396 2.209 . S
O421 Mn397 2.215 . S
O421 C398 1.283 . S
O422 Mn396 2.094 . S
O422 C400 1.240 . S
O423 Mn397 2.117 . S
O423 C400 1.264 . S
C424 C417 1.403 . S
C424 C425 1.399 . S
C424 H430 0.929 . S
C425 C405 1.449 . S
C425 C424 1.399 . S
C425 H431 0.930 . S
H426 C406 0.931 . S
H427 C407 0.930 . S
H428 C415 0.931 . S
H429 C416 0.929 . S
H430 C424 0.929 . S
H431 C425 0.930 . S
Mn432 O437 2.095 . S
Mn432 O447 2.162 . S
Mn432 O448 2.297 . S
Mn432 O456 2.385 . S
Mn432 O457 2.209 . S
Mn432 O458 2.094 . S
Mn433 O438 2.121 . S
Mn433 N440 2.257 1_556 S
Mn433 N449 2.282 . S
Mn433 O457 2.215 . S
Mn433 O459 2.117 . S
C434 O456 1.234 . S
C434 O457 1.283 . S
C435 O447 1.281 . S
C435 O448 1.236 . S
C436 O458 1.240 . S
C436 O459 1.264 . S
O437 Mn432 2.095 . S
O437 C446 1.250 . S
O438 Mn433 2.121 . S
O438 C446 1.258 . S
C439 N440 1.326 . S
C439 C443 1.460 . S
C439 H445 0.929 . S
N440 Mn433 2.257 1_554 S
N440 C439 1.326 . S
N440 C444 1.362 . S
C441 C442 1.258 . S
C441 C444 1.431 . S
C441 C461 1.449 . S
C442 C441 1.258 . S
C442 C443 1.477 . S
C442 H462 0.931 . S
C443 C439 1.460 . S
C443 C442 1.477 . S
C443 H463 0.930 . S
C444 N440 1.362 . S
C444 C441 1.431 . S
C444 C454 1.476 . S
H445 C439 0.929 . S
C446 O437 1.250 . S
C446 O438 1.258 . S
O447 Mn432 2.162 . S
O447 C435 1.281 . S
O448 Mn432 2.297 . S
O448 C435 1.236 . S
N449 Mn433 2.282 . S
N449 C450 1.328 . S
N449 C454 1.318 1_556 S
C450 N449 1.328 . S
C450 C451 1.457 1_556 S
C450 H455 0.929 . S
C451 C450 1.457 1_554 S
C451 C452 1.291 . S
C451 H464 0.931 . S
C452 C451 1.291 . S
C452 C453 1.373 . S
C452 H465 0.929 . S
C453 C452 1.373 . S
C453 C454 1.396 . S
C453 C460 1.403 . S
C454 C444 1.476 . S
C454 N449 1.318 1_554 S
C454 C453 1.396 . S
H455 C450 0.929 . S
O456 Mn432 2.385 . S
O456 C434 1.234 . S
O457 Mn432 2.209 . S
O457 Mn433 2.215 . S
O457 C434 1.283 . S
O458 Mn432 2.094 . S
O458 C436 1.240 . S
O459 Mn433 2.117 . S
O459 C436 1.264 . S
C460 C453 1.403 . S
C460 C461 1.399 . S
C460 H466 0.929 . S
C461 C441 1.449 . S
C461 C460 1.399 . S
C461 H467 0.930 . S
H462 C442 0.931 . S
H463 C443 0.930 . S
H464 C451 0.931 . S
H465 C452 0.929 . S
H466 C460 0.929 . S
H467 C461 0.930 . S
Mn468 O473 2.095 . S
Mn468 O483 2.162 . S
Mn468 O484 2.297 . S
Mn468 O492 2.385 . S
Mn468 O493 2.209 . S
Mn468 O494 2.094 . S
Mn469 O474 2.121 . S
Mn469 N476 2.257 . S
Mn469 N485 2.282 . S
Mn469 O493 2.215 . S
Mn469 O495 2.117 . S
C470 O492 1.234 . S
C470 O493 1.283 . S
C471 O483 1.281 . S
C471 O484 1.236 . S
C472 O494 1.240 . S
C472 O495 1.264 . S
O473 Mn468 2.095 . S
O473 C482 1.250 . S
O474 Mn469 2.121 . S
O474 C482 1.258 . S
C475 N476 1.326 . S
C475 C479 1.460 . S
C475 H481 0.929 . S
N476 Mn469 2.257 . S
N476 C475 1.326 . S
N476 C480 1.362 . S
C477 C478 1.258 . S
C477 C480 1.431 . S
C477 C497 1.449 . S
C478 C477 1.258 . S
C478 C479 1.477 . S
C478 H498 0.931 . S
C479 C475 1.460 . S
C479 C478 1.477 . S
C479 H499 0.930 . S
C480 N476 1.362 . S
C480 C477 1.431 . S
C480 C490 1.476 . S
H481 C475 0.929 . S
C482 O473 1.250 . S
C482 O474 1.258 . S
O483 Mn468 2.162 . S
O483 C471 1.281 . S
O484 Mn468 2.297 . S
O484 C471 1.236 . S
N485 Mn469 2.282 . S
N485 C486 1.328 . S
N485 C490 1.318 . S
C486 N485 1.328 . S
C486 C487 1.457 . S
C486 H491 0.929 . S
C487 C486 1.457 . S
C487 C488 1.291 . S
C487 H500 0.931 . S
C488 C487 1.291 . S
C488 C489 1.373 . S
C488 H501 0.929 . S
C489 C488 1.373 . S
C489 C490 1.396 . S
C489 C496 1.403 . S
C490 C480 1.476 . S
C490 N485 1.318 . S
C490 C489 1.396 . S
H491 C486 0.929 . S
O492 Mn468 2.385 . S
O492 C470 1.234 . S
O493 Mn468 2.209 . S
O493 Mn469 2.215 . S
O493 C470 1.283 . S
O494 Mn468 2.094 . S
O494 C472 1.240 . S
O495 Mn469 2.117 . S
O495 C472 1.264 . S
C496 C489 1.403 . S
C496 C497 1.399 . S
C496 H502 0.929 . S
C497 C477 1.449 . S
C497 C496 1.399 . S
C497 H503 0.930 . S
H498 C478 0.931 . S
H499 C479 0.930 . S
H500 C487 0.931 . S
H501 C488 0.929 . S
H502 C496 0.929 . S
H503 C497 0.930 . S
Mn504 O509 2.095 . S
Mn504 O519 2.162 . S
Mn504 O520 2.297 . S
Mn504 O528 2.385 . S
Mn504 O529 2.209 . S
Mn504 O530 2.094 . S
Mn505 O510 2.121 . S
Mn505 N512 2.257 . S
Mn505 N521 2.282 . S
Mn505 O529 2.215 . S
Mn505 O531 2.117 . S
C506 O528 1.234 . S
C506 O529 1.283 . S
C507 O519 1.281 . S
C507 O520 1.236 . S
C508 O530 1.240 . S
C508 O531 1.264 . S
O509 Mn504 2.095 . S
O509 C518 1.250 . S
O510 Mn505 2.121 . S
O510 C518 1.258 . S
C511 N512 1.326 . S
C511 C515 1.460 . S
C511 H517 0.929 . S
N512 Mn505 2.257 . S
N512 C511 1.326 . S
N512 C516 1.362 . S
C513 C514 1.258 . S
C513 C516 1.431 . S
C513 C533 1.449 . S
C514 C513 1.258 . S
C514 C515 1.477 . S
C514 H534 0.931 . S
C515 C511 1.460 . S
C515 C514 1.477 . S
C515 H535 0.930 . S
C516 N512 1.362 . S
C516 C513 1.431 . S
C516 C526 1.476 . S
H517 C511 0.929 . S
C518 O509 1.250 . S
C518 O510 1.258 . S
O519 Mn504 2.162 . S
O519 C507 1.281 . S
O520 Mn504 2.297 . S
O520 C507 1.236 . S
N521 Mn505 2.282 . S
N521 C522 1.328 . S
N521 C526 1.318 . S
C522 N521 1.328 . S
C522 C523 1.457 . S
C522 H527 0.929 . S
C523 C522 1.457 . S
C523 C524 1.291 . S
C523 H536 0.931 . S
C524 C523 1.291 . S
C524 C525 1.373 . S
C524 H537 0.929 . S
C525 C524 1.373 . S
C525 C526 1.396 . S
C525 C532 1.403 . S
C526 C516 1.476 . S
C526 N521 1.318 . S
C526 C525 1.396 . S
H527 C522 0.929 . S
O528 Mn504 2.385 . S
O528 C506 1.234 . S
O529 Mn504 2.209 . S
O529 Mn505 2.215 . S
O529 C506 1.283 . S
O530 Mn504 2.094 . S
O530 C508 1.240 . S
O531 Mn505 2.117 . S
O531 C508 1.264 . S
C532 C525 1.403 . S
C532 C533 1.399 . S
C532 H538 0.929 . S
C533 C513 1.449 . S
C533 C532 1.399 . S
C533 H539 0.930 . S
H534 C514 0.931 . S
H535 C515 0.930 . S
H536 C523 0.931 . S
H537 C524 0.929 . S
H538 C532 0.929 . S
H539 C533 0.930 . S
Mn540 O545 2.095 . S
Mn540 O555 2.162 . S
Mn540 O556 2.297 . S
Mn540 O564 2.385 . S
Mn540 O565 2.209 . S
Mn540 O566 2.094 . S
Mn541 O546 2.121 . S
Mn541 N548 2.257 . S
Mn541 N557 2.282 . S
Mn541 O565 2.215 . S
Mn541 O567 2.117 . S
C542 O564 1.234 . S
C542 O565 1.283 . S
C543 O555 1.281 . S
C543 O556 1.236 . S
C544 O566 1.240 . S
C544 O567 1.264 . S
O545 Mn540 2.095 . S
O545 C554 1.250 . S
O546 Mn541 2.121 . S
O546 C554 1.258 . S
C547 N548 1.326 . S
C547 C551 1.460 . S
C547 H553 0.929 . S
N548 Mn541 2.257 . S
N548 C547 1.326 . S
N548 C552 1.362 . S
C549 C550 1.258 . S
C549 C552 1.431 . S
C549 C569 1.449 . S
C550 C549 1.258 . S
C550 C551 1.477 . S
C550 H570 0.931 . S
C551 C547 1.460 . S
C551 C550 1.477 . S
C551 H571 0.930 . S
C552 N548 1.362 . S
C552 C549 1.431 . S
C552 C562 1.476 . S
H553 C547 0.929 . S
C554 O545 1.250 . S
C554 O546 1.258 . S
O555 Mn540 2.162 . S
O555 C543 1.281 . S
O556 Mn540 2.297 . S
O556 C543 1.236 . S
N557 Mn541 2.282 . S
N557 C558 1.328 . S
N557 C562 1.318 . S
C558 N557 1.328 . S
C558 C559 1.457 . S
C558 H563 0.929 . S
C559 C558 1.457 . S
C559 C560 1.291 . S
C559 H572 0.931 . S
C560 C559 1.291 . S
C560 C561 1.373 . S
C560 H573 0.929 . S
C561 C560 1.373 . S
C561 C562 1.396 . S
C561 C568 1.403 . S
C562 C552 1.476 . S
C562 N557 1.318 . S
C562 C561 1.396 . S
H563 C558 0.929 . S
O564 Mn540 2.385 . S
O564 C542 1.234 . S
O565 Mn540 2.209 . S
O565 Mn541 2.215 . S
O565 C542 1.283 . S
O566 Mn540 2.094 . S
O566 C544 1.240 . S
O567 Mn541 2.117 . S
O567 C544 1.264 . S
C568 C561 1.403 . S
C568 C569 1.399 . S
C568 H574 0.929 . S
C569 C549 1.449 . S
C569 C568 1.399 . S
C569 H575 0.930 . S
H570 C550 0.931 . S
H571 C551 0.930 . S
H572 C559 0.931 . S
H573 C560 0.929 . S
H574 C568 0.929 . S
H575 C569 0.930 . S
Mn576 O581 2.095 . S
Mn576 O591 2.162 . S
Mn576 O592 2.297 . S
Mn576 O600 2.385 . S
Mn576 O601 2.209 . S
Mn576 O602 2.094 . S
Mn577 O582 2.121 . S
Mn577 N584 2.257 1_556 S
Mn577 N593 2.282 . S
Mn577 O601 2.215 . S
Mn577 O603 2.117 . S
C578 O600 1.234 . S
C578 O601 1.283 . S
C579 O591 1.281 . S
C579 O592 1.236 . S
C580 O602 1.240 . S
C580 O603 1.264 . S
O581 Mn576 2.095 . S
O581 C590 1.250 . S
O582 Mn577 2.121 . S
O582 C590 1.258 . S
C583 N584 1.326 . S
C583 C587 1.460 . S
C583 H589 0.929 . S
N584 Mn577 2.257 1_554 S
N584 C583 1.326 . S
N584 C588 1.362 . S
C585 C586 1.258 . S
C585 C588 1.431 . S
C585 C605 1.449 . S
C586 C585 1.258 . S
C586 C587 1.477 . S
C586 H606 0.931 . S
C587 C583 1.460 . S
C587 C586 1.477 . S
C587 H607 0.930 . S
C588 N584 1.362 . S
C588 C585 1.431 . S
C588 C598 1.476 . S
H589 C583 0.929 . S
C590 O581 1.250 . S
C590 O582 1.258 . S
O591 Mn576 2.162 . S
O591 C579 1.281 . S
O592 Mn576 2.297 . S
O592 C579 1.236 . S
N593 Mn577 2.282 . S
N593 C594 1.328 . S
N593 C598 1.318 1_556 S
C594 N593 1.328 . S
C594 C595 1.457 1_556 S
C594 H599 0.929 . S
C595 C594 1.457 1_554 S
C595 C596 1.291 . S
C595 H608 0.931 . S
C596 C595 1.291 . S
C596 C597 1.373 . S
C596 H609 0.929 . S
C597 C596 1.373 . S
C597 C598 1.396 . S
C597 C604 1.403 . S
C598 C588 1.476 . S
C598 N593 1.318 1_554 S
C598 C597 1.396 . S
H599 C594 0.929 . S
O600 Mn576 2.385 . S
O600 C578 1.234 . S
O601 Mn576 2.209 . S
O601 Mn577 2.215 . S
O601 C578 1.283 . S
O602 Mn576 2.094 . S
O602 C580 1.240 . S
O603 Mn577 2.117 . S
O603 C580 1.264 . S
C604 C597 1.403 . S
C604 C605 1.399 . S
C604 H610 0.929 . S
C605 C585 1.449 . S
C605 C604 1.399 . S
C605 H611 0.930 . S
H606 C586 0.931 . S
H607 C587 0.930 . S
H608 C595 0.931 . S
H609 C596 0.929 . S
H610 C604 0.929 . S
H611 C605 0.930 . S
Mn612 O617 2.095 . S
Mn612 O627 2.162 . S
Mn612 O628 2.297 . S
Mn612 O636 2.385 . S
Mn612 O637 2.209 . S
Mn612 O638 2.094 . S
Mn613 O618 2.121 . S
Mn613 N620 2.257 . S
Mn613 N629 2.282 . S
Mn613 O637 2.215 . S
Mn613 O639 2.117 . S
C614 O636 1.234 . S
C614 O637 1.283 . S
C615 O627 1.281 . S
C615 O628 1.236 . S
C616 O638 1.240 . S
C616 O639 1.264 . S
O617 Mn612 2.095 . S
O617 C626 1.250 . S
O618 Mn613 2.121 . S
O618 C626 1.258 . S
C619 N620 1.326 . S
C619 C623 1.460 . S
C619 H625 0.929 . S
N620 Mn613 2.257 . S
N620 C619 1.326 . S
N620 C624 1.362 . S
C621 C622 1.258 . S
C621 C624 1.431 . S
C621 C641 1.449 . S
C622 C621 1.258 . S
C622 C623 1.477 . S
C622 H642 0.931 . S
C623 C619 1.460 . S
C623 C622 1.477 . S
C623 H643 0.930 . S
C624 N620 1.362 . S
C624 C621 1.431 . S
C624 C634 1.476 . S
H625 C619 0.929 . S
C626 O617 1.250 . S
C626 O618 1.258 . S
O627 Mn612 2.162 . S
O627 C615 1.281 . S
O628 Mn612 2.297 . S
O628 C615 1.236 . S
N629 Mn613 2.282 . S
N629 C630 1.328 . S
N629 C634 1.318 . S
C630 N629 1.328 . S
C630 C631 1.457 . S
C630 H635 0.929 . S
C631 C630 1.457 . S
C631 C632 1.291 . S
C631 H644 0.931 . S
C632 C631 1.291 . S
C632 C633 1.373 . S
C632 H645 0.929 . S
C633 C632 1.373 . S
C633 C634 1.396 . S
C633 C640 1.403 . S
C634 C624 1.476 . S
C634 N629 1.318 . S
C634 C633 1.396 . S
H635 C630 0.929 . S
O636 Mn612 2.385 . S
O636 C614 1.234 . S
O637 Mn612 2.209 . S
O637 Mn613 2.215 . S
O637 C614 1.283 . S
O638 Mn612 2.094 . S
O638 C616 1.240 . S
O639 Mn613 2.117 . S
O639 C616 1.264 . S
C640 C633 1.403 . S
C640 C641 1.399 . S
C640 H646 0.929 . S
C641 C621 1.449 . S
C641 C640 1.399 . S
C641 H647 0.930 . S
H642 C622 0.931 . S
H643 C623 0.930 . S
H644 C631 0.931 . S
H645 C632 0.929 . S
H646 C640 0.929 . S
H647 C641 0.930 . S
Mn648 O653 2.095 . S
Mn648 O663 2.162 . S
Mn648 O664 2.297 . S
Mn648 O672 2.385 . S
Mn648 O673 2.209 . S
Mn648 O674 2.094 . S
Mn649 O654 2.121 . S
Mn649 N656 2.257 . S
Mn649 N665 2.282 . S
Mn649 O673 2.215 . S
Mn649 O675 2.117 . S
C650 O672 1.234 . S
C650 O673 1.283 . S
C651 O663 1.281 . S
C651 O664 1.236 . S
C652 O674 1.240 . S
C652 O675 1.264 . S
O653 Mn648 2.095 . S
O653 C662 1.250 . S
O654 Mn649 2.121 . S
O654 C662 1.258 . S
C655 N656 1.326 . S
C655 C659 1.460 . S
C655 H661 0.929 . S
N656 Mn649 2.257 . S
N656 C655 1.326 . S
N656 C660 1.362 . S
C657 C658 1.258 . S
C657 C660 1.431 . S
C657 C677 1.449 . S
C658 C657 1.258 . S
C658 C659 1.477 . S
C658 H678 0.931 . S
C659 C655 1.460 . S
C659 C658 1.477 . S
C659 H679 0.930 . S
C660 N656 1.362 . S
C660 C657 1.431 . S
C660 C670 1.476 . S
H661 C655 0.929 . S
C662 O653 1.250 . S
C662 O654 1.258 . S
O663 Mn648 2.162 . S
O663 C651 1.281 . S
O664 Mn648 2.297 . S
O664 C651 1.236 . S
N665 Mn649 2.282 . S
N665 C666 1.328 . S
N665 C670 1.318 . S
C666 N665 1.328 . S
C666 C667 1.457 . S
C666 H671 0.929 . S
C667 C666 1.457 . S
C667 C668 1.291 . S
C667 H680 0.931 . S
C668 C667 1.291 . S
C668 C669 1.373 . S
C668 H681 0.929 . S
C669 C668 1.373 . S
C669 C670 1.396 . S
C669 C676 1.403 . S
C670 C660 1.476 . S
C670 N665 1.318 . S
C670 C669 1.396 . S
H671 C666 0.929 . S
O672 Mn648 2.385 . S
O672 C650 1.234 . S
O673 Mn648 2.209 . S
O673 Mn649 2.215 . S
O673 C650 1.283 . S
O674 Mn648 2.094 . S
O674 C652 1.240 . S
O675 Mn649 2.117 . S
O675 C652 1.264 . S
C676 C669 1.403 . S
C676 C677 1.399 . S
C676 H682 0.929 . S
C677 C657 1.449 . S
C677 C676 1.399 . S
C677 H683 0.930 . S
H678 C658 0.931 . S
H679 C659 0.930 . S
H680 C667 0.931 . S
H681 C668 0.929 . S
H682 C676 0.929 . S
H683 C677 0.930 . S
Mn684 O689 2.095 . S
Mn684 O699 2.162 . S
Mn684 O700 2.297 . S
Mn684 O708 2.385 . S
Mn684 O709 2.209 . S
Mn684 O710 2.094 . S
Mn685 O690 2.121 . S
Mn685 N692 2.257 . S
Mn685 N701 2.282 . S
Mn685 O709 2.215 . S
Mn685 O711 2.117 . S
C686 O708 1.234 . S
C686 O709 1.283 . S
C687 O699 1.281 . S
C687 O700 1.236 . S
C688 O710 1.240 . S
C688 O711 1.264 . S
O689 Mn684 2.095 . S
O689 C698 1.250 . S
O690 Mn685 2.121 . S
O690 C698 1.258 . S
C691 N692 1.326 . S
C691 C695 1.460 . S
C691 H697 0.929 . S
N692 Mn685 2.257 . S
N692 C691 1.326 . S
N692 C696 1.362 . S
C693 C694 1.258 . S
C693 C696 1.431 . S
C693 C713 1.449 . S
C694 C693 1.258 . S
C694 C695 1.477 . S
C694 H714 0.931 . S
C695 C691 1.460 . S
C695 C694 1.477 . S
C695 H715 0.930 . S
C696 N692 1.362 . S
C696 C693 1.431 . S
C696 C706 1.476 . S
H697 C691 0.929 . S
C698 O689 1.250 . S
C698 O690 1.258 . S
O699 Mn684 2.162 . S
O699 C687 1.281 . S
O700 Mn684 2.297 . S
O700 C687 1.236 . S
N701 Mn685 2.282 . S
N701 C702 1.328 . S
N701 C706 1.318 . S
C702 N701 1.328 . S
C702 C703 1.457 . S
C702 H707 0.929 . S
C703 C702 1.457 . S
C703 C704 1.291 . S
C703 H716 0.931 . S
C704 C703 1.291 . S
C704 C705 1.373 . S
C704 H717 0.929 . S
C705 C704 1.373 . S
C705 C706 1.396 . S
C705 C712 1.403 . S
C706 C696 1.476 . S
C706 N701 1.318 . S
C706 C705 1.396 . S
H707 C702 0.929 . S
O708 Mn684 2.385 . S
O708 C686 1.234 . S
O709 Mn684 2.209 . S
O709 Mn685 2.215 . S
O709 C686 1.283 . S
O710 Mn684 2.094 . S
O710 C688 1.240 . S
O711 Mn685 2.117 . S
O711 C688 1.264 . S
C712 C705 1.403 . S
C712 C713 1.399 . S
C712 H718 0.929 . S
C713 C693 1.449 . S
C713 C712 1.399 . S
C713 H719 0.930 . S
H714 C694 0.931 . S
H715 C695 0.930 . S
H716 C703 0.931 . S
H717 C704 0.929 . S
H718 C712 0.929 . S
H719 C713 0.930 . S
Mn720 O725 2.095 . S
Mn720 O735 2.162 . S
Mn720 O736 2.297 . S
Mn720 O744 2.385 . S
Mn720 O745 2.209 . S
Mn720 O746 2.094 . S
Mn721 O726 2.121 . S
Mn721 N728 2.257 . S
Mn721 N737 2.282 . S
Mn721 O745 2.215 . S
Mn721 O747 2.117 . S
C722 O744 1.234 . S
C722 O745 1.283 . S
C723 O735 1.281 . S
C723 O736 1.236 . S
C724 O746 1.240 . S
C724 O747 1.264 . S
O725 Mn720 2.095 . S
O725 C734 1.250 . S
O726 Mn721 2.121 . S
O726 C734 1.258 . S
C727 N728 1.326 . S
C727 C731 1.460 . S
C727 H733 0.929 . S
N728 Mn721 2.257 . S
N728 C727 1.326 . S
N728 C732 1.362 . S
C729 C730 1.258 . S
C729 C732 1.431 . S
C729 C749 1.449 . S
C730 C729 1.258 . S
C730 C731 1.477 . S
C730 H750 0.931 . S
C731 C727 1.460 . S
C731 C730 1.477 . S
C731 H751 0.930 . S
C732 N728 1.362 . S
C732 C729 1.431 . S
C732 C742 1.476 . S
H733 C727 0.929 . S
C734 O725 1.250 . S
C734 O726 1.258 . S
O735 Mn720 2.162 . S
O735 C723 1.281 . S
O736 Mn720 2.297 . S
O736 C723 1.236 . S
N737 Mn721 2.282 . S
N737 C738 1.328 . S
N737 C742 1.318 . S
C738 N737 1.328 . S
C738 C739 1.457 . S
C738 H743 0.929 . S
C739 C738 1.457 . S
C739 C740 1.291 . S
C739 H752 0.931 . S
C740 C739 1.291 . S
C740 C741 1.373 . S
C740 H753 0.929 . S
C741 C740 1.373 . S
C741 C742 1.396 . S
C741 C748 1.403 . S
C742 C732 1.476 . S
C742 N737 1.318 . S
C742 C741 1.396 . S
H743 C738 0.929 . S
O744 Mn720 2.385 . S
O744 C722 1.234 . S
O745 Mn720 2.209 . S
O745 Mn721 2.215 . S
O745 C722 1.283 . S
O746 Mn720 2.094 . S
O746 C724 1.240 . S
O747 Mn721 2.117 . S
O747 C724 1.264 . S
C748 C741 1.403 . S
C748 C749 1.399 . S
C748 H754 0.929 . S
C749 C729 1.449 . S
C749 C748 1.399 . S
C749 H755 0.930 . S
H750 C730 0.931 . S
H751 C731 0.930 . S
H752 C739 0.931 . S
H753 C740 0.929 . S
H754 C748 0.929 . S
H755 C749 0.930 . S
Mn756 O761 2.095 . S
Mn756 O771 2.162 . S
Mn756 O772 2.297 . S
Mn756 O780 2.385 . S
Mn756 O781 2.209 . S
Mn756 O782 2.094 . S
Mn757 O762 2.121 . S
Mn757 N764 2.257 . S
Mn757 N773 2.282 . S
Mn757 O781 2.215 . S
Mn757 O783 2.117 . S
C758 O780 1.234 . S
C758 O781 1.283 . S
C759 O771 1.281 . S
C759 O772 1.236 . S
C760 O782 1.240 . S
C760 O783 1.264 . S
O761 Mn756 2.095 . S
O761 C770 1.250 . S
O762 Mn757 2.121 . S
O762 C770 1.258 . S
C763 N764 1.326 . S
C763 C767 1.460 . S
C763 H769 0.929 . S
N764 Mn757 2.257 . S
N764 C763 1.326 . S
N764 C768 1.362 . S
C765 C766 1.258 . S
C765 C768 1.431 . S
C765 C785 1.449 . S
C766 C765 1.258 . S
C766 C767 1.477 . S
C766 H786 0.931 . S
C767 C763 1.460 . S
C767 C766 1.477 . S
C767 H787 0.930 . S
C768 N764 1.362 . S
C768 C765 1.431 . S
C768 C778 1.476 . S
H769 C763 0.929 . S
C770 O761 1.250 . S
C770 O762 1.258 . S
O771 Mn756 2.162 . S
O771 C759 1.281 . S
O772 Mn756 2.297 . S
O772 C759 1.236 . S
N773 Mn757 2.282 . S
N773 C774 1.328 . S
N773 C778 1.318 . S
C774 N773 1.328 . S
C774 C775 1.457 . S
C774 H779 0.929 . S
C775 C774 1.457 . S
C775 C776 1.291 . S
C775 H788 0.931 . S
C776 C775 1.291 . S
C776 C777 1.373 . S
C776 H789 0.929 . S
C777 C776 1.373 . S
C777 C778 1.396 . S
C777 C784 1.403 . S
C778 C768 1.476 . S
C778 N773 1.318 . S
C778 C777 1.396 . S
H779 C774 0.929 . S
O780 Mn756 2.385 . S
O780 C758 1.234 . S
O781 Mn756 2.209 . S
O781 Mn757 2.215 . S
O781 C758 1.283 . S
O782 Mn756 2.094 . S
O782 C760 1.240 . S
O783 Mn757 2.117 . S
O783 C760 1.264 . S
C784 C777 1.403 . S
C784 C785 1.399 . S
C784 H790 0.929 . S
C785 C765 1.449 . S
C785 C784 1.399 . S
C785 H791 0.930 . S
H786 C766 0.931 . S
H787 C767 0.930 . S
H788 C775 0.931 . S
H789 C776 0.929 . S
H790 C784 0.929 . S
H791 C785 0.930 . S
Mn792 O797 2.095 . S
Mn792 O807 2.162 . S
Mn792 O808 2.297 . S
Mn792 O816 2.385 . S
Mn792 O817 2.209 . S
Mn792 O818 2.094 . S
Mn793 O798 2.121 . S
Mn793 N800 2.257 1_554 S
Mn793 N809 2.282 . S
Mn793 O817 2.215 . S
Mn793 O819 2.117 . S
C794 O816 1.234 . S
C794 O817 1.283 . S
C795 O807 1.281 . S
C795 O808 1.236 . S
C796 O818 1.240 . S
C796 O819 1.264 . S
O797 Mn792 2.095 . S
O797 C806 1.250 . S
O798 Mn793 2.121 . S
O798 C806 1.258 . S
C799 N800 1.326 . S
C799 C803 1.460 . S
C799 H805 0.929 . S
N800 Mn793 2.257 1_556 S
N800 C799 1.326 . S
N800 C804 1.362 . S
C801 C802 1.258 . S
C801 C804 1.431 . S
C801 C821 1.449 . S
C802 C801 1.258 . S
C802 C803 1.477 . S
C802 H822 0.931 . S
C803 C799 1.460 . S
C803 C802 1.477 . S
C803 H823 0.930 . S
C804 N800 1.362 . S
C804 C801 1.431 . S
C804 C814 1.476 . S
H805 C799 0.929 . S
C806 O797 1.250 . S
C806 O798 1.258 . S
O807 Mn792 2.162 . S
O807 C795 1.281 . S
O808 Mn792 2.297 . S
O808 C795 1.236 . S
N809 Mn793 2.282 . S
N809 C810 1.328 . S
N809 C814 1.318 1_554 S
C810 N809 1.328 . S
C810 C811 1.457 1_554 S
C810 H815 0.929 . S
C811 C810 1.457 1_556 S
C811 C812 1.291 . S
C811 H824 0.931 . S
C812 C811 1.291 . S
C812 C813 1.373 . S
C812 H825 0.929 . S
C813 C812 1.373 . S
C813 C814 1.396 . S
C813 C820 1.403 . S
C814 C804 1.476 . S
C814 N809 1.318 1_556 S
C814 C813 1.396 . S
H815 C810 0.929 . S
O816 Mn792 2.385 . S
O816 C794 1.234 . S
O817 Mn792 2.209 . S
O817 Mn793 2.215 . S
O817 C794 1.283 . S
O818 Mn792 2.094 . S
O818 C796 1.240 . S
O819 Mn793 2.117 . S
O819 C796 1.264 . S
C820 C813 1.403 . S
C820 C821 1.399 . S
C820 H826 0.929 . S
C821 C801 1.449 . S
C821 C820 1.399 . S
C821 H827 0.930 . S
H822 C802 0.931 . S
H823 C803 0.930 . S
H824 C811 0.931 . S
H825 C812 0.929 . S
H826 C820 0.929 . S
H827 C821 0.930 . S
Mn828 O833 2.095 . S
Mn828 O843 2.162 . S
Mn828 O844 2.297 . S
Mn828 O852 2.385 . S
Mn828 O853 2.209 . S
Mn828 O854 2.094 . S
Mn829 O834 2.121 . S
Mn829 N836 2.257 . S
Mn829 N845 2.282 . S
Mn829 O853 2.215 . S
Mn829 O855 2.117 . S
C830 O852 1.234 . S
C830 O853 1.283 . S
C831 O843 1.281 . S
C831 O844 1.236 . S
C832 O854 1.240 . S
C832 O855 1.264 . S
O833 Mn828 2.095 . S
O833 C842 1.250 . S
O834 Mn829 2.121 . S
O834 C842 1.258 . S
C835 N836 1.326 . S
C835 C839 1.460 . S
C835 H841 0.929 . S
N836 Mn829 2.257 . S
N836 C835 1.326 . S
N836 C840 1.362 . S
C837 C838 1.258 . S
C837 C840 1.431 . S
C837 C857 1.449 . S
C838 C837 1.258 . S
C838 C839 1.477 . S
C838 H858 0.931 . S
C839 C835 1.460 . S
C839 C838 1.477 . S
C839 H859 0.930 . S
C840 N836 1.362 . S
C840 C837 1.431 . S
C840 C850 1.476 . S
H841 C835 0.929 . S
C842 O833 1.250 . S
C842 O834 1.258 . S
O843 Mn828 2.162 . S
O843 C831 1.281 . S
O844 Mn828 2.297 . S
O844 C831 1.236 . S
N845 Mn829 2.282 . S
N845 C846 1.328 . S
N845 C850 1.318 . S
C846 N845 1.328 . S
C846 C847 1.457 . S
C846 H851 0.929 . S
C847 C846 1.457 . S
C847 C848 1.291 . S
C847 H860 0.931 . S
C848 C847 1.291 . S
C848 C849 1.373 . S
C848 H861 0.929 . S
C849 C848 1.373 . S
C849 C850 1.396 . S
C849 C856 1.403 . S
C850 C840 1.476 . S
C850 N845 1.318 . S
C850 C849 1.396 . S
H851 C846 0.929 . S
O852 Mn828 2.385 . S
O852 C830 1.234 . S
O853 Mn828 2.209 . S
O853 Mn829 2.215 . S
O853 C830 1.283 . S
O854 Mn828 2.094 . S
O854 C832 1.240 . S
O855 Mn829 2.117 . S
O855 C832 1.264 . S
C856 C849 1.403 . S
C856 C857 1.399 . S
C856 H862 0.929 . S
C857 C837 1.449 . S
C857 C856 1.399 . S
C857 H863 0.930 . S
H858 C838 0.931 . S
H859 C839 0.930 . S
H860 C847 0.931 . S
H861 C848 0.929 . S
H862 C856 0.929 . S
H863 C857 0.930 . S
Mn864 O869 2.095 . S
Mn864 O879 2.162 . S
Mn864 O880 2.297 . S
Mn864 O888 2.385 . S
Mn864 O889 2.209 . S
Mn864 O890 2.094 . S
Mn865 O870 2.121 . S
Mn865 N872 2.257 1_554 S
Mn865 N881 2.282 . S
Mn865 O889 2.215 . S
Mn865 O891 2.117 . S
C866 O888 1.234 . S
C866 O889 1.283 . S
C867 O879 1.281 . S
C867 O880 1.236 . S
C868 O890 1.240 . S
C868 O891 1.264 . S
O869 Mn864 2.095 . S
O869 C878 1.250 . S
O870 Mn865 2.121 . S
O870 C878 1.258 . S
C871 N872 1.326 . S
C871 C875 1.460 . S
C871 H877 0.929 . S
N872 Mn865 2.257 1_556 S
N872 C871 1.326 . S
N872 C876 1.362 . S
C873 C874 1.258 . S
C873 C876 1.431 . S
C873 C893 1.449 . S
C874 C873 1.258 . S
C874 C875 1.477 . S
C874 H894 0.931 . S
C875 C871 1.460 . S
C875 C874 1.477 . S
C875 H895 0.930 . S
C876 N872 1.362 . S
C876 C873 1.431 . S
C876 C886 1.476 . S
H877 C871 0.929 . S
C878 O869 1.250 . S
C878 O870 1.258 . S
O879 Mn864 2.162 . S
O879 C867 1.281 . S
O880 Mn864 2.297 . S
O880 C867 1.236 . S
N881 Mn865 2.282 . S
N881 C882 1.328 . S
N881 C886 1.318 1_554 S
C882 N881 1.328 . S
C882 C883 1.457 1_554 S
C882 H887 0.929 . S
C883 C882 1.457 1_556 S
C883 C884 1.291 . S
C883 H896 0.931 . S
C884 C883 1.291 . S
C884 C885 1.373 . S
C884 H897 0.929 . S
C885 C884 1.373 . S
C885 C886 1.396 . S
C885 C892 1.403 . S
C886 C876 1.476 . S
C886 N881 1.318 1_556 S
C886 C885 1.396 . S
H887 C882 0.929 . S
O888 Mn864 2.385 . S
O888 C866 1.234 . S
O889 Mn864 2.209 . S
O889 Mn865 2.215 . S
O889 C866 1.283 . S
O890 Mn864 2.094 . S
O890 C868 1.240 . S
O891 Mn865 2.117 . S
O891 C868 1.264 . S
C892 C885 1.403 . S
C892 C893 1.399 . S
C892 H898 0.929 . S
C893 C873 1.449 . S
C893 C892 1.399 . S
C893 H899 0.930 . S
H894 C874 0.931 . S
H895 C875 0.930 . S
H896 C883 0.931 . S
H897 C884 0.929 . S
H898 C892 0.929 . S
H899 C893 0.930 . S
Mn900 O905 2.095 . S
Mn900 O915 2.162 . S
Mn900 O916 2.297 . S
Mn900 O924 2.385 . S
Mn900 O925 2.209 . S
Mn900 O926 2.094 . S
Mn901 O906 2.121 . S
Mn901 N908 2.257 . S
Mn901 N917 2.282 . S
Mn901 O925 2.215 . S
Mn901 O927 2.117 . S
C902 O924 1.234 . S
C902 O925 1.283 . S
C903 O915 1.281 . S
C903 O916 1.236 . S
C904 O926 1.240 . S
C904 O927 1.264 . S
O905 Mn900 2.095 . S
O905 C914 1.250 . S
O906 Mn901 2.121 . S
O906 C914 1.258 . S
C907 N908 1.326 . S
C907 C911 1.460 . S
C907 H913 0.929 . S
N908 Mn901 2.257 . S
N908 C907 1.326 . S
N908 C912 1.362 . S
C909 C910 1.258 . S
C909 C912 1.431 . S
C909 C929 1.449 . S
C910 C909 1.258 . S
C910 C911 1.477 . S
C910 H930 0.931 . S
C911 C907 1.460 . S
C911 C910 1.477 . S
C911 H931 0.930 . S
C912 N908 1.362 . S
C912 C909 1.431 . S
C912 C922 1.476 . S
H913 C907 0.929 . S
C914 O905 1.250 . S
C914 O906 1.258 . S
O915 Mn900 2.162 . S
O915 C903 1.281 . S
O916 Mn900 2.297 . S
O916 C903 1.236 . S
N917 Mn901 2.282 . S
N917 C918 1.328 . S
N917 C922 1.318 . S
C918 N917 1.328 . S
C918 C919 1.457 . S
C918 H923 0.929 . S
C919 C918 1.457 . S
C919 C920 1.291 . S
C919 H932 0.931 . S
C920 C919 1.291 . S
C920 C921 1.373 . S
C920 H933 0.929 . S
C921 C920 1.373 . S
C921 C922 1.396 . S
C921 C928 1.403 . S
C922 C912 1.476 . S
C922 N917 1.318 . S
C922 C921 1.396 . S
H923 C918 0.929 . S
O924 Mn900 2.385 . S
O924 C902 1.234 . S
O925 Mn900 2.209 . S
O925 Mn901 2.215 . S
O925 C902 1.283 . S
O926 Mn900 2.094 . S
O926 C904 1.240 . S
O927 Mn901 2.117 . S
O927 C904 1.264 . S
C928 C921 1.403 . S
C928 C929 1.399 . S
C928 H934 0.929 . S
C929 C909 1.449 . S
C929 C928 1.399 . S
C929 H935 0.930 . S
H930 C910 0.931 . S
H931 C911 0.930 . S
H932 C919 0.931 . S
H933 C920 0.929 . S
H934 C928 0.929 . S
H935 C929 0.930 . S
Mn936 O941 2.095 . S
Mn936 O951 2.162 . S
Mn936 O952 2.297 . S
Mn936 O960 2.385 . S
Mn936 O961 2.209 . S
Mn936 O962 2.094 . S
Mn937 O942 2.121 . S
Mn937 N944 2.257 . S
Mn937 N953 2.282 . S
Mn937 O961 2.215 . S
Mn937 O963 2.117 . S
C938 O960 1.234 . S
C938 O961 1.283 . S
C939 O951 1.281 . S
C939 O952 1.236 . S
C940 O962 1.240 . S
C940 O963 1.264 . S
O941 Mn936 2.095 . S
O941 C950 1.250 . S
O942 Mn937 2.121 . S
O942 C950 1.258 . S
C943 N944 1.326 . S
C943 C947 1.460 . S
C943 H949 0.929 . S
N944 Mn937 2.257 . S
N944 C943 1.326 . S
N944 C948 1.362 . S
C945 C946 1.258 . S
C945 C948 1.431 . S
C945 C965 1.449 . S
C946 C945 1.258 . S
C946 C947 1.477 . S
C946 H966 0.931 . S
C947 C943 1.460 . S
C947 C946 1.477 . S
C947 H967 0.930 . S
C948 N944 1.362 . S
C948 C945 1.431 . S
C948 C958 1.476 . S
H949 C943 0.929 . S
C950 O941 1.250 . S
C950 O942 1.258 . S
O951 Mn936 2.162 . S
O951 C939 1.281 . S
O952 Mn936 2.297 . S
O952 C939 1.236 . S
N953 Mn937 2.282 . S
N953 C954 1.328 . S
N953 C958 1.318 . S
C954 N953 1.328 . S
C954 C955 1.457 . S
C954 H959 0.929 . S
C955 C954 1.457 . S
C955 C956 1.291 . S
C955 H968 0.931 . S
C956 C955 1.291 . S
C956 C957 1.373 . S
C956 H969 0.929 . S
C957 C956 1.373 . S
C957 C958 1.396 . S
C957 C964 1.403 . S
C958 C948 1.476 . S
C958 N953 1.318 . S
C958 C957 1.396 . S
H959 C954 0.929 . S
O960 Mn936 2.385 . S
O960 C938 1.234 . S
O961 Mn936 2.209 . S
O961 Mn937 2.215 . S
O961 C938 1.283 . S
O962 Mn936 2.094 . S
O962 C940 1.240 . S
O963 Mn937 2.117 . S
O963 C940 1.264 . S
C964 C957 1.403 . S
C964 C965 1.399 . S
C964 H970 0.929 . S
C965 C945 1.449 . S
C965 C964 1.399 . S
C965 H971 0.930 . S
H966 C946 0.931 . S
H967 C947 0.930 . S
H968 C955 0.931 . S
H969 C956 0.929 . S
H970 C964 0.929 . S
H971 C965 0.930 . S
Mn972 O977 2.095 . S
Mn972 O987 2.162 . S
Mn972 O988 2.297 . S
Mn972 O996 2.385 . S
Mn972 O997 2.209 . S
Mn972 O998 2.094 . S
Mn973 O978 2.121 . S
Mn973 N980 2.257 . S
Mn973 N989 2.282 . S
Mn973 O997 2.215 . S
Mn973 O999 2.117 . S
C974 O996 1.234 . S
C974 O997 1.283 . S
C975 O987 1.281 . S
C975 O988 1.236 . S
C976 O998 1.240 . S
C976 O999 1.264 . S
O977 Mn972 2.095 . S
O977 C986 1.250 . S
O978 Mn973 2.121 . S
O978 C986 1.258 . S
C979 N980 1.326 . S
C979 C983 1.460 . S
C979 H985 0.929 . S
N980 Mn973 2.257 . S
N980 C979 1.326 . S
N980 C984 1.362 . S
C981 C982 1.258 . S
C981 C984 1.431 . S
C981 C1001 1.449 . S
C982 C981 1.258 . S
C982 C983 1.477 . S
C982 H1002 0.931 . S
C983 C979 1.460 . S
C983 C982 1.477 . S
C983 H1003 0.930 . S
C984 N980 1.362 . S
C984 C981 1.431 . S
C984 C994 1.476 . S
H985 C979 0.929 . S
C986 O977 1.250 . S
C986 O978 1.258 . S
O987 Mn972 2.162 . S
O987 C975 1.281 . S
O988 Mn972 2.297 . S
O988 C975 1.236 . S
N989 Mn973 2.282 . S
N989 C990 1.328 . S
N989 C994 1.318 . S
C990 N989 1.328 . S
C990 C991 1.457 . S
C990 H995 0.929 . S
C991 C990 1.457 . S
C991 C992 1.291 . S
C991 H1004 0.931 . S
C992 C991 1.291 . S
C992 C993 1.373 . S
C992 H1005 0.929 . S
C993 C992 1.373 . S
C993 C994 1.396 . S
C993 C1000 1.403 . S
C994 C984 1.476 . S
C994 N989 1.318 . S
C994 C993 1.396 . S
H995 C990 0.929 . S
O996 Mn972 2.385 . S
O996 C974 1.234 . S
O997 Mn972 2.209 . S
O997 Mn973 2.215 . S
O997 C974 1.283 . S
O998 Mn972 2.094 . S
O998 C976 1.240 . S
O999 Mn973 2.117 . S
O999 C976 1.264 . S
C1000 C993 1.403 . S
C1000 C1001 1.399 . S
C1000 H1006 0.929 . S
C1001 C981 1.449 . S
C1001 C1000 1.399 . S
C1001 H1007 0.930 . S
H1002 C982 0.931 . S
H1003 C983 0.930 . S
H1004 C991 0.931 . S
H1005 C992 0.929 . S
H1006 C1000 0.929 . S
H1007 C1001 0.930 . S
Mn1008 O1013 2.095 . S
Mn1008 O1023 2.162 . S
Mn1008 O1024 2.297 . S
Mn1008 O1032 2.385 . S
Mn1008 O1033 2.209 . S
Mn1008 O1034 2.094 . S
Mn1009 O1014 2.121 . S
Mn1009 N1016 2.257 . S
Mn1009 N1025 2.282 . S
Mn1009 O1033 2.215 . S
Mn1009 O1035 2.117 . S
C1010 O1032 1.234 . S
C1010 O1033 1.283 . S
C1011 O1023 1.281 . S
C1011 O1024 1.236 . S
C1012 O1034 1.240 . S
C1012 O1035 1.264 . S
O1013 Mn1008 2.095 . S
O1013 C1022 1.250 . S
O1014 Mn1009 2.121 . S
O1014 C1022 1.258 . S
C1015 N1016 1.326 . S
C1015 C1019 1.460 . S
C1015 H1021 0.929 . S
N1016 Mn1009 2.257 . S
N1016 C1015 1.326 . S
N1016 C1020 1.362 . S
C1017 C1018 1.258 . S
C1017 C1020 1.431 . S
C1017 C1037 1.449 . S
C1018 C1017 1.258 . S
C1018 C1019 1.477 . S
C1018 H1038 0.931 . S
C1019 C1015 1.460 . S
C1019 C1018 1.477 . S
C1019 H1039 0.930 . S
C1020 N1016 1.362 . S
C1020 C1017 1.431 . S
C1020 C1030 1.476 . S
H1021 C1015 0.929 . S
C1022 O1013 1.250 . S
C1022 O1014 1.258 . S
O1023 Mn1008 2.162 . S
O1023 C1011 1.281 . S
O1024 Mn1008 2.297 . S
O1024 C1011 1.236 . S
N1025 Mn1009 2.282 . S
N1025 C1026 1.328 . S
N1025 C1030 1.318 . S
C1026 N1025 1.328 . S
C1026 C1027 1.457 . S
C1026 H1031 0.929 . S
C1027 C1026 1.457 . S
C1027 C1028 1.291 . S
C1027 H1040 0.931 . S
C1028 C1027 1.291 . S
C1028 C1029 1.373 . S
C1028 H1041 0.929 . S
C1029 C1028 1.373 . S
C1029 C1030 1.396 . S
C1029 C1036 1.403 . S
C1030 C1020 1.476 . S
C1030 N1025 1.318 . S
C1030 C1029 1.396 . S
H1031 C1026 0.929 . S
O1032 Mn1008 2.385 . S
O1032 C1010 1.234 . S
O1033 Mn1008 2.209 . S
O1033 Mn1009 2.215 . S
O1033 C1010 1.283 . S
O1034 Mn1008 2.094 . S
O1034 C1012 1.240 . S
O1035 Mn1009 2.117 . S
O1035 C1012 1.264 . S
C1036 C1029 1.403 . S
C1036 C1037 1.399 . S
C1036 H1042 0.929 . S
C1037 C1017 1.449 . S
C1037 C1036 1.399 . S
C1037 H1043 0.930 . S
H1038 C1018 0.931 . S
H1039 C1019 0.930 . S
H1040 C1027 0.931 . S
H1041 C1028 0.929 . S
H1042 C1036 0.929 . S
H1043 C1037 0.930 . S
Mn1044 O1049 2.095 . S
Mn1044 O1059 2.162 . S
Mn1044 O1060 2.297 . S
Mn1044 O1068 2.385 . S
Mn1044 O1069 2.209 . S
Mn1044 O1070 2.094 . S
Mn1045 O1050 2.121 . S
Mn1045 N1052 2.257 . S
Mn1045 N1061 2.282 . S
Mn1045 O1069 2.215 . S
Mn1045 O1071 2.117 . S
C1046 O1068 1.234 . S
C1046 O1069 1.283 . S
C1047 O1059 1.281 . S
C1047 O1060 1.236 . S
C1048 O1070 1.240 . S
C1048 O1071 1.264 . S
O1049 Mn1044 2.095 . S
O1049 C1058 1.250 . S
O1050 Mn1045 2.121 . S
O1050 C1058 1.258 . S
C1051 N1052 1.326 . S
C1051 C1055 1.460 . S
C1051 H1057 0.929 . S
N1052 Mn1045 2.257 . S
N1052 C1051 1.326 . S
N1052 C1056 1.362 . S
C1053 C1054 1.258 . S
C1053 C1056 1.431 . S
C1053 C1073 1.449 . S
C1054 C1053 1.258 . S
C1054 C1055 1.477 . S
C1054 H1074 0.931 . S
C1055 C1051 1.460 . S
C1055 C1054 1.477 . S
C1055 H1075 0.930 . S
C1056 N1052 1.362 . S
C1056 C1053 1.431 . S
C1056 C1066 1.476 . S
H1057 C1051 0.929 . S
C1058 O1049 1.250 . S
C1058 O1050 1.258 . S
O1059 Mn1044 2.162 . S
O1059 C1047 1.281 . S
O1060 Mn1044 2.297 . S
O1060 C1047 1.236 . S
N1061 Mn1045 2.282 . S
N1061 C1062 1.328 . S
N1061 C1066 1.318 . S
C1062 N1061 1.328 . S
C1062 C1063 1.457 . S
C1062 H1067 0.929 . S
C1063 C1062 1.457 . S
C1063 C1064 1.291 . S
C1063 H1076 0.931 . S
C1064 C1063 1.291 . S
C1064 C1065 1.373 . S
C1064 H1077 0.929 . S
C1065 C1064 1.373 . S
C1065 C1066 1.396 . S
C1065 C1072 1.403 . S
C1066 C1056 1.476 . S
C1066 N1061 1.318 . S
C1066 C1065 1.396 . S
H1067 C1062 0.929 . S
O1068 Mn1044 2.385 . S
O1068 C1046 1.234 . S
O1069 Mn1044 2.209 . S
O1069 Mn1045 2.215 . S
O1069 C1046 1.283 . S
O1070 Mn1044 2.094 . S
O1070 C1048 1.240 . S
O1071 Mn1045 2.117 . S
O1071 C1048 1.264 . S
C1072 C1065 1.403 . S
C1072 C1073 1.399 . S
C1072 H1078 0.929 . S
C1073 C1053 1.449 . S
C1073 C1072 1.399 . S
C1073 H1079 0.930 . S
H1074 C1054 0.931 . S
H1075 C1055 0.930 . S
H1076 C1063 0.931 . S
H1077 C1064 0.929 . S
H1078 C1072 0.929 . S
H1079 C1073 0.930 . S
Mn1080 O1085 2.095 . S
Mn1080 O1095 2.162 . S
Mn1080 O1096 2.297 . S
Mn1080 O1104 2.385 . S
Mn1080 O1105 2.209 . S
Mn1080 O1106 2.094 . S
Mn1081 O1086 2.121 . S
Mn1081 N1088 2.257 1_556 S
Mn1081 N1097 2.282 . S
Mn1081 O1105 2.215 . S
Mn1081 O1107 2.117 . S
C1082 O1104 1.234 . S
C1082 O1105 1.283 . S
C1083 O1095 1.281 . S
C1083 O1096 1.236 . S
C1084 O1106 1.240 . S
C1084 O1107 1.264 . S
O1085 Mn1080 2.095 . S
O1085 C1094 1.250 . S
O1086 Mn1081 2.121 . S
O1086 C1094 1.258 . S
C1087 N1088 1.326 . S
C1087 C1091 1.460 . S
C1087 H1093 0.929 . S
N1088 Mn1081 2.257 1_554 S
N1088 C1087 1.326 . S
N1088 C1092 1.362 . S
C1089 C1090 1.258 . S
C1089 C1092 1.431 . S
C1089 C1109 1.449 . S
C1090 C1089 1.258 . S
C1090 C1091 1.477 . S
C1090 H1110 0.931 . S
C1091 C1087 1.460 . S
C1091 C1090 1.477 . S
C1091 H1111 0.930 . S
C1092 N1088 1.362 . S
C1092 C1089 1.431 . S
C1092 C1102 1.476 . S
H1093 C1087 0.929 . S
C1094 O1085 1.250 . S
C1094 O1086 1.258 . S
O1095 Mn1080 2.162 . S
O1095 C1083 1.281 . S
O1096 Mn1080 2.297 . S
O1096 C1083 1.236 . S
N1097 Mn1081 2.282 . S
N1097 C1098 1.328 . S
N1097 C1102 1.318 1_556 S
C1098 N1097 1.328 . S
C1098 C1099 1.457 1_556 S
C1098 H1103 0.929 . S
C1099 C1098 1.457 1_554 S
C1099 C1100 1.291 . S
C1099 H1112 0.931 . S
C1100 C1099 1.291 . S
C1100 C1101 1.373 . S
C1100 H1113 0.929 . S
C1101 C1100 1.373 . S
C1101 C1102 1.396 . S
C1101 C1108 1.403 . S
C1102 C1092 1.476 . S
C1102 N1097 1.318 1_554 S
C1102 C1101 1.396 . S
H1103 C1098 0.929 . S
O1104 Mn1080 2.385 . S
O1104 C1082 1.234 . S
O1105 Mn1080 2.209 . S
O1105 Mn1081 2.215 . S
O1105 C1082 1.283 . S
O1106 Mn1080 2.094 . S
O1106 C1084 1.240 . S
O1107 Mn1081 2.117 . S
O1107 C1084 1.264 . S
C1108 C1101 1.403 . S
C1108 C1109 1.399 . S
C1108 H1114 0.929 . S
C1109 C1089 1.449 . S
C1109 C1108 1.399 . S
C1109 H1115 0.930 . S
H1110 C1090 0.931 . S
H1111 C1091 0.930 . S
H1112 C1099 0.931 . S
H1113 C1100 0.929 . S
H1114 C1108 0.929 . S
H1115 C1109 0.930 . S
Mn1116 O1121 2.095 . S
Mn1116 O1131 2.162 . S
Mn1116 O1132 2.297 . S
Mn1116 O1140 2.385 . S
Mn1116 O1141 2.209 . S
Mn1116 O1142 2.094 . S
Mn1117 O1122 2.121 . S
Mn1117 N1124 2.257 . S
Mn1117 N1133 2.282 . S
Mn1117 O1141 2.215 . S
Mn1117 O1143 2.117 . S
C1118 O1140 1.234 . S
C1118 O1141 1.283 . S
C1119 O1131 1.281 . S
C1119 O1132 1.236 . S
C1120 O1142 1.240 . S
C1120 O1143 1.264 . S
O1121 Mn1116 2.095 . S
O1121 C1130 1.250 . S
O1122 Mn1117 2.121 . S
O1122 C1130 1.258 . S
C1123 N1124 1.326 . S
C1123 C1127 1.460 . S
C1123 H1129 0.929 . S
N1124 Mn1117 2.257 . S
N1124 C1123 1.326 . S
N1124 C1128 1.362 . S
C1125 C1126 1.258 . S
C1125 C1128 1.431 . S
C1125 C1145 1.449 . S
C1126 C1125 1.258 . S
C1126 C1127 1.477 . S
C1126 H1146 0.931 . S
C1127 C1123 1.460 . S
C1127 C1126 1.477 . S
C1127 H1147 0.930 . S
C1128 N1124 1.362 . S
C1128 C1125 1.431 . S
C1128 C1138 1.476 . S
H1129 C1123 0.929 . S
C1130 O1121 1.250 . S
C1130 O1122 1.258 . S
O1131 Mn1116 2.162 . S
O1131 C1119 1.281 . S
O1132 Mn1116 2.297 . S
O1132 C1119 1.236 . S
N1133 Mn1117 2.282 . S
N1133 C1134 1.328 . S
N1133 C1138 1.318 . S
C1134 N1133 1.328 . S
C1134 C1135 1.457 . S
C1134 H1139 0.929 . S
C1135 C1134 1.457 . S
C1135 C1136 1.291 . S
C1135 H1148 0.931 . S
C1136 C1135 1.291 . S
C1136 C1137 1.373 . S
C1136 H1149 0.929 . S
C1137 C1136 1.373 . S
C1137 C1138 1.396 . S
C1137 C1144 1.403 . S
C1138 C1128 1.476 . S
C1138 N1133 1.318 . S
C1138 C1137 1.396 . S
H1139 C1134 0.929 . S
O1140 Mn1116 2.385 . S
O1140 C1118 1.234 . S
O1141 Mn1116 2.209 . S
O1141 Mn1117 2.215 . S
O1141 C1118 1.283 . S
O1142 Mn1116 2.094 . S
O1142 C1120 1.240 . S
O1143 Mn1117 2.117 . S
O1143 C1120 1.264 . S
C1144 C1137 1.403 . S
C1144 C1145 1.399 . S
C1144 H1150 0.929 . S
C1145 C1125 1.449 . S
C1145 C1144 1.399 . S
C1145 H1151 0.930 . S
H1146 C1126 0.931 . S
H1147 C1127 0.930 . S
H1148 C1135 0.931 . S
H1149 C1136 0.929 . S
H1150 C1144 0.929 . S
H1151 C1145 0.930 . S
H1152 C1158 0.930 . S
H1153 C1162 0.930 . S
H1154 C1167 0.929 . S
H1155 C1165 0.929 . S
H1156 C1160 0.929 . S
H1157 C1166 0.929 . S
C1158 H1152 0.930 . S
C1158 C1159 1.367 . S
C1158 C1166 1.378 . S
C1159 C1158 1.367 . S
C1159 C1167 1.433 . S
C1160 H1156 0.929 . S
C1160 C1162 1.378 . S
C1160 C1164 1.350 . S
C1161 C1164 1.463 1_545 S
C1161 C1166 1.350 . S
C1161 N1169 1.427 . S
C1162 H1153 0.930 . S
C1162 C1160 1.378 . S
C1162 C1163 1.367 . S
C1163 C1162 1.367 . S
C1163 C1165 1.433 . S
C1164 C1160 1.350 . S
C1164 C1161 1.463 1_565 S
C1164 N1168 1.427 . S
C1165 H1155 0.929 . S
C1165 C1163 1.433 . S
C1165 N1168 1.384 . S
C1166 H1157 0.929 . S
C1166 C1158 1.378 . S
C1166 C1161 1.350 . S
C1167 H1154 0.929 . S
C1167 C1159 1.433 . S
C1167 N1169 1.384 . S
N1168 C1164 1.427 . S
N1168 C1165 1.384 . S
N1169 C1161 1.427 . S
N1169 C1167 1.384 . S
H1170 C1176 0.930 . S
H1171 C1180 0.930 . S
H1172 C1185 0.929 . S
H1173 C1183 0.929 . S
H1174 C1178 0.929 . S
H1175 C1184 0.929 . S
C1176 H1170 0.930 . S
C1176 C1177 1.367 . S
C1176 C1184 1.378 . S
C1177 C1176 1.367 . S
C1177 C1185 1.433 . S
C1178 H1174 0.929 . S
C1178 C1180 1.378 . S
C1178 C1182 1.350 . S
C1179 C1182 1.463 . S
C1179 C1184 1.350 . S
C1179 N1187 1.427 . S
C1180 H1171 0.930 . S
C1180 C1178 1.378 . S
C1180 C1181 1.367 . S
C1181 C1180 1.367 . S
C1181 C1183 1.433 . S
C1182 C1178 1.350 . S
C1182 C1179 1.463 . S
C1182 N1186 1.427 . S
C1183 H1173 0.929 . S
C1183 C1181 1.433 . S
C1183 N1186 1.384 . S
C1184 H1175 0.929 . S
C1184 C1176 1.378 . S
C1184 C1179 1.350 . S
C1185 H1172 0.929 . S
C1185 C1177 1.433 . S
C1185 N1187 1.384 . S
N1186 C1182 1.427 . S
N1186 C1183 1.384 . S
N1187 C1179 1.427 . S
N1187 C1185 1.384 . S
H1188 C1194 0.930 . S
H1189 C1198 0.930 . S
H1190 C1203 0.929 . S
H1191 C1201 0.929 . S
H1192 C1196 0.929 . S
H1193 C1202 0.929 . S
C1194 H1188 0.930 . S
C1194 C1195 1.367 . S
C1194 C1202 1.378 . S
C1195 C1194 1.367 . S
C1195 C1203 1.433 . S
C1196 H1192 0.929 . S
C1196 C1198 1.378 . S
C1196 C1200 1.350 . S
C1197 C1200 1.463 1_545 S
C1197 C1202 1.350 . S
C1197 N1205 1.427 . S
C1198 H1189 0.930 . S
C1198 C1196 1.378 . S
C1198 C1199 1.367 . S
C1199 C1198 1.367 . S
C1199 C1201 1.433 . S
C1200 C1196 1.350 . S
C1200 C1197 1.463 1_565 S
C1200 N1204 1.427 . S
C1201 H1191 0.929 . S
C1201 C1199 1.433 . S
C1201 N1204 1.384 . S
C1202 H1193 0.929 . S
C1202 C1194 1.378 . S
C1202 C1197 1.350 . S
C1203 H1190 0.929 . S
C1203 C1195 1.433 . S
C1203 N1205 1.384 . S
N1204 C1200 1.427 . S
N1204 C1201 1.384 . S
N1205 C1197 1.427 . S
N1205 C1203 1.384 . S
H1206 C1212 0.930 . S
H1207 C1216 0.930 . S
H1208 C1221 0.929 . S
H1209 C1219 0.929 . S
H1210 C1214 0.929 1_556 S
H1211 C1220 0.929 1_554 S
C1212 H1206 0.930 . S
C1212 C1213 1.367 . S
C1212 C1220 1.378 . S
C1213 C1212 1.367 . S
C1213 C1221 1.433 . S
C1214 H1210 0.929 1_554 S
C1214 C1216 1.378 . S
C1214 C1218 1.350 . S
C1215 C1218 1.463 1_556 S
C1215 C1220 1.350 . S
C1215 N1223 1.427 . S
C1216 H1207 0.930 . S
C1216 C1214 1.378 . S
C1216 C1217 1.367 . S
C1217 C1216 1.367 . S
C1217 C1219 1.433 . S
C1218 C1214 1.350 . S
C1218 C1215 1.463 1_554 S
C1218 N1222 1.427 . S
C1219 H1209 0.929 . S
C1219 C1217 1.433 . S
C1219 N1222 1.384 . S
C1220 H1211 0.929 1_556 S
C1220 C1212 1.378 . S
C1220 C1215 1.350 . S
C1221 H1208 0.929 . S
C1221 C1213 1.433 . S
C1221 N1223 1.384 . S
N1222 C1218 1.427 . S
N1222 C1219 1.384 . S
N1223 C1215 1.427 . S
N1223 C1221 1.384 . S
H1224 C1230 0.930 . S
H1225 C1234 0.930 . S
H1226 C1239 0.929 . S
H1227 C1237 0.929 . S
H1228 C1232 0.929 1_565 S
H1229 C1238 0.929 1_545 S
C1230 H1224 0.930 . S
C1230 C1231 1.367 . S
C1230 C1238 1.378 . S
C1231 C1230 1.367 . S
C1231 C1239 1.433 . S
C1232 H1228 0.929 1_545 S
C1232 C1234 1.378 . S
C1232 C1236 1.350 . S
C1233 C1236 1.463 1_565 S
C1233 C1238 1.350 . S
C1233 N1241 1.427 . S
C1234 H1225 0.930 . S
C1234 C1232 1.378 . S
C1234 C1235 1.367 . S
C1235 C1234 1.367 . S
C1235 C1237 1.433 . S
C1236 C1232 1.350 . S
C1236 C1233 1.463 1_545 S
C1236 N1240 1.427 . S
C1237 H1227 0.929 . S
C1237 C1235 1.433 . S
C1237 N1240 1.384 . S
C1238 H1229 0.929 1_565 S
C1238 C1230 1.378 . S
C1238 C1233 1.350 . S
C1239 H1226 0.929 . S
C1239 C1231 1.433 . S
C1239 N1241 1.384 . S
N1240 C1236 1.427 . S
N1240 C1237 1.384 . S
N1241 C1233 1.427 . S
N1241 C1239 1.384 . S
H1242 C1248 0.930 . S
H1243 C1252 0.930 . S
H1244 C1257 0.929 . S
H1245 C1255 0.929 . S
H1246 C1250 0.929 . S
H1247 C1256 0.929 . S
C1248 H1242 0.930 . S
C1248 C1249 1.367 . S
C1248 C1256 1.378 . S
C1249 C1248 1.367 . S
C1249 C1257 1.433 . S
C1250 H1246 0.929 . S
C1250 C1252 1.378 . S
C1250 C1254 1.350 . S
C1251 C1254 1.463 . S
C1251 C1256 1.350 . S
C1251 N1259 1.427 . S
C1252 H1243 0.930 . S
C1252 C1250 1.378 . S
C1252 C1253 1.367 . S
C1253 C1252 1.367 . S
C1253 C1255 1.433 . S
C1254 C1250 1.350 . S
C1254 C1251 1.463 . S
C1254 N1258 1.427 . S
C1255 H1245 0.929 . S
C1255 C1253 1.433 . S
C1255 N1258 1.384 . S
C1256 H1247 0.929 . S
C1256 C1248 1.378 . S
C1256 C1251 1.350 . S
C1257 H1244 0.929 . S
C1257 C1249 1.433 . S
C1257 N1259 1.384 . S
N1258 C1254 1.427 . S
N1258 C1255 1.384 . S
N1259 C1251 1.427 . S
N1259 C1257 1.384 . S
H1260 C1266 0.930 . S
H1261 C1270 0.930 . S
H1262 C1275 0.929 . S
H1263 C1273 0.929 . S
H1264 C1268 0.929 1_565 S
H1265 C1274 0.929 1_545 S
C1266 H1260 0.930 . S
C1266 C1267 1.367 . S
C1266 C1274 1.378 . S
C1267 C1266 1.367 . S
C1267 C1275 1.433 . S
C1268 H1264 0.929 1_545 S
C1268 C1270 1.378 . S
C1268 C1272 1.350 . S
C1269 C1272 1.463 1_565 S
C1269 C1274 1.350 . S
C1269 N1277 1.427 . S
C1270 H1261 0.930 . S
C1270 C1268 1.378 . S
C1270 C1271 1.367 . S
C1271 C1270 1.367 . S
C1271 C1273 1.433 . S
C1272 C1268 1.350 . S
C1272 C1269 1.463 1_545 S
C1272 N1276 1.427 . S
C1273 H1263 0.929 . S
C1273 C1271 1.433 . S
C1273 N1276 1.384 . S
C1274 H1265 0.929 1_565 S
C1274 C1266 1.378 . S
C1274 C1269 1.350 . S
C1275 H1262 0.929 . S
C1275 C1267 1.433 . S
C1275 N1277 1.384 . S
N1276 C1272 1.427 . S
N1276 C1273 1.384 . S
N1277 C1269 1.427 . S
N1277 C1275 1.384 . S
H1278 C1284 0.930 . S
H1279 C1288 0.930 . S
H1280 C1293 0.929 . S
H1281 C1291 0.929 . S
H1282 C1286 0.929 . S
H1283 C1292 0.929 . S
C1284 H1278 0.930 . S
C1284 C1285 1.367 . S
C1284 C1292 1.378 . S
C1285 C1284 1.367 . S
C1285 C1293 1.433 . S
C1286 H1282 0.929 . S
C1286 C1288 1.378 . S
C1286 C1290 1.350 . S
C1287 C1290 1.463 1_556 S
C1287 C1292 1.350 . S
C1287 N1295 1.427 . S
C1288 H1279 0.930 . S
C1288 C1286 1.378 . S
C1288 C1289 1.367 . S
C1289 C1288 1.367 . S
C1289 C1291 1.433 . S
C1290 C1286 1.350 . S
C1290 C1287 1.463 1_554 S
C1290 N1294 1.427 . S
C1291 H1281 0.929 . S
C1291 C1289 1.433 . S
C1291 N1294 1.384 . S
C1292 H1283 0.929 . S
C1292 C1284 1.378 . S
C1292 C1287 1.350 . S
C1293 H1280 0.929 . S
C1293 C1285 1.433 . S
C1293 N1295 1.384 . S
N1294 C1290 1.427 . S
N1294 C1291 1.384 . S
N1295 C1287 1.427 . S
N1295 C1293 1.384 . S
H1296 C1302 0.930 . S
H1297 C1306 0.930 . S
H1298 C1311 0.929 . S
H1299 C1309 0.929 . S
H1300 C1304 0.929 . S
H1301 C1310 0.929 . S
C1302 H1296 0.930 . S
C1302 C1303 1.367 . S
C1302 C1310 1.378 . S
C1303 C1302 1.367 . S
C1303 C1311 1.433 . S
C1304 H1300 0.929 . S
C1304 C1306 1.378 . S
C1304 C1308 1.350 . S
C1305 C1308 1.463 . S
C1305 C1310 1.350 . S
C1305 N1313 1.427 . S
C1306 H1297 0.930 . S
C1306 C1304 1.378 . S
C1306 C1307 1.367 . S
C1307 C1306 1.367 . S
C1307 C1309 1.433 . S
C1308 C1304 1.350 . S
C1308 C1305 1.463 . S
C1308 N1312 1.427 . S
C1309 H1299 0.929 . S
C1309 C1307 1.433 . S
C1309 N1312 1.384 . S
C1310 H1301 0.929 . S
C1310 C1302 1.378 . S
C1310 C1305 1.350 . S
C1311 H1298 0.929 . S
C1311 C1303 1.433 . S
C1311 N1313 1.384 . S
N1312 C1308 1.427 . S
N1312 C1309 1.384 . S
N1313 C1305 1.427 . S
N1313 C1311 1.384 . S
H1314 C1320 0.930 . S
H1315 C1324 0.930 . S
H1316 C1329 0.929 . S
H1317 C1327 0.929 . S
H1318 C1322 0.922 1_556 S
H1319 C1328 0.922 1_554 S
C1320 H1314 0.930 . S
C1320 C1321 1.367 . S
C1320 C1328 1.378 . S
C1321 C1320 1.367 . S
C1321 C1329 1.433 . S
C1322 H1318 0.922 1_554 S
C1322 C1324 1.378 . S
C1322 C1326 1.350 . S
C1323 C1326 1.463 1_556 S
C1323 C1328 1.350 . S
C1323 N1331 1.427 . S
C1324 H1315 0.930 . S
C1324 C1322 1.378 . S
C1324 C1325 1.367 . S
C1325 C1324 1.367 . S
C1325 C1327 1.433 . S
C1326 C1322 1.350 . S
C1326 C1323 1.463 1_554 S
C1326 N1330 1.427 . S
C1327 H1317 0.929 . S
C1327 C1325 1.433 . S
C1327 N1330 1.384 . S
C1328 H1319 0.922 1_556 S
C1328 C1320 1.378 . S
C1328 C1323 1.350 . S
C1329 H1316 0.929 . S
C1329 C1321 1.433 . S
C1329 N1331 1.384 . S
N1330 C1326 1.427 . S
N1330 C1327 1.384 . S
N1331 C1323 1.427 . S
N1331 C1329 1.384 . S
H1332 C1338 0.930 . S
H1333 C1342 0.930 . S
H1334 C1347 0.929 . S
H1335 C1345 0.929 . S
H1336 C1340 0.929 . S
H1337 C1346 0.929 . S
C1338 H1332 0.930 . S
C1338 C1339 1.367 . S
C1338 C1346 1.378 . S
C1339 C1338 1.367 . S
C1339 C1347 1.433 . S
C1340 H1336 0.929 . S
C1340 C1342 1.378 . S
C1340 C1344 1.350 . S
C1341 C1344 1.463 . S
C1341 C1346 1.350 . S
C1341 N1349 1.427 . S
C1342 H1333 0.930 . S
C1342 C1340 1.378 . S
C1342 C1343 1.367 . S
C1343 C1342 1.367 . S
C1343 C1345 1.433 . S
C1344 C1340 1.350 . S
C1344 C1341 1.463 . S
C1344 N1348 1.427 . S
C1345 H1335 0.929 . S
C1345 C1343 1.433 . S
C1345 N1348 1.384 . S
C1346 H1337 0.929 . S
C1346 C1338 1.378 . S
C1346 C1341 1.350 . S
C1347 H1334 0.929 . S
C1347 C1339 1.433 . S
C1347 N1349 1.384 . S
N1348 C1344 1.427 . S
N1348 C1345 1.384 . S
N1349 C1341 1.427 . S
N1349 C1347 1.384 . S
H1350 C1356 0.930 . S
H1351 C1360 0.930 . S
H1352 C1365 0.929 . S
H1353 C1363 0.929 . S
H1354 C1358 0.929 . S
H1355 C1364 0.929 . S
C1356 H1350 0.930 . S
C1356 C1357 1.367 . S
C1356 C1364 1.378 . S
C1357 C1356 1.367 . S
C1357 C1365 1.433 . S
C1358 H1354 0.929 . S
C1358 C1360 1.378 . S
C1358 C1362 1.350 . S
C1359 C1362 1.463 . S
C1359 C1364 1.350 . S
C1359 N1367 1.427 . S
C1360 H1351 0.930 . S
C1360 C1358 1.378 . S
C1360 C1361 1.367 . S
C1361 C1360 1.367 . S
C1361 C1363 1.433 . S
C1362 C1358 1.350 . S
C1362 C1359 1.463 . S
C1362 N1366 1.427 . S
C1363 H1353 0.929 . S
C1363 C1361 1.433 . S
C1363 N1366 1.384 . S
C1364 H1355 0.929 . S
C1364 C1356 1.378 . S
C1364 C1359 1.350 . S
C1365 H1352 0.929 . S
C1365 C1357 1.433 . S
C1365 N1367 1.384 . S
N1366 C1362 1.427 . S
N1366 C1363 1.384 . S
N1367 C1359 1.427 . S
N1367 C1365 1.384 . S
H1368 C1374 0.930 . S
H1369 C1378 0.930 . S
H1370 C1383 0.929 . S
H1371 C1381 0.929 . S
H1372 C1376 0.929 . S
H1373 C1382 0.929 . S
C1374 H1368 0.930 . S
C1374 C1375 1.367 . S
C1374 C1382 1.378 . S
C1375 C1374 1.367 . S
C1375 C1383 1.433 . S
C1376 H1372 0.929 . S
C1376 C1378 1.378 . S
C1376 C1380 1.350 . S
C1377 C1380 1.463 . S
C1377 C1382 1.350 . S
C1377 N1385 1.427 . S
C1378 H1369 0.930 . S
C1378 C1376 1.378 . S
C1378 C1379 1.367 . S
C1379 C1378 1.367 . S
C1379 C1381 1.433 . S
C1380 C1376 1.350 . S
C1380 C1377 1.463 . S
C1380 N1384 1.427 . S
C1381 H1371 0.929 . S
C1381 C1379 1.433 . S
C1381 N1384 1.384 . S
C1382 H1373 0.929 . S
C1382 C1374 1.378 . S
C1382 C1377 1.350 . S
C1383 H1370 0.929 . S
C1383 C1375 1.433 . S
C1383 N1385 1.384 . S
N1384 C1380 1.427 . S
N1384 C1381 1.384 . S
N1385 C1377 1.427 . S
N1385 C1383 1.384 . S
H1386 C1392 0.930 . S
H1387 C1396 0.930 . S
H1388 C1401 0.929 . S
H1389 C1399 0.929 . S
H1390 C1394 0.929 . S
H1391 C1400 0.929 . S
C1392 H1386 0.930 . S
C1392 C1393 1.367 . S
C1392 C1400 1.378 . S
C1393 C1392 1.367 . S
C1393 C1401 1.433 . S
C1394 H1390 0.929 . S
C1394 C1396 1.378 . S
C1394 C1398 1.350 . S
C1395 C1398 1.463 1_554 S
C1395 C1400 1.350 . S
C1395 N1403 1.427 . S
C1396 H1387 0.930 . S
C1396 C1394 1.378 . S
C1396 C1397 1.367 . S
C1397 C1396 1.367 . S
C1397 C1399 1.433 . S
C1398 C1394 1.350 . S
C1398 C1395 1.463 1_556 S
C1398 N1402 1.427 . S
C1399 H1389 0.929 . S
C1399 C1397 1.433 . S
C1399 N1402 1.384 . S
C1400 H1391 0.929 . S
C1400 C1392 1.378 . S
C1400 C1395 1.350 . S
C1401 H1388 0.929 . S
C1401 C1393 1.433 . S
C1401 N1403 1.384 . S
N1402 C1398 1.427 . S
N1402 C1399 1.384 . S
N1403 C1395 1.427 . S
N1403 C1401 1.384 . S
H1404 C1410 0.930 . S
H1405 C1414 0.930 . S
H1406 C1419 0.929 . S
H1407 C1417 0.929 . S
H1408 C1412 0.929 . S
H1409 C1418 0.929 . S
C1410 H1404 0.930 . S
C1410 C1411 1.367 . S
C1410 C1418 1.378 . S
C1411 C1410 1.367 . S
C1411 C1419 1.433 . S
C1412 H1408 0.929 . S
C1412 C1414 1.378 . S
C1412 C1416 1.350 . S
C1413 C1416 1.463 . S
C1413 C1418 1.350 . S
C1413 N1421 1.427 . S
C1414 H1405 0.930 . S
C1414 C1412 1.378 . S
C1414 C1415 1.367 . S
C1415 C1414 1.367 . S
C1415 C1417 1.433 . S
C1416 C1412 1.350 . S
C1416 C1413 1.463 . S
C1416 N1420 1.427 . S
C1417 H1407 0.929 . S
C1417 C1415 1.433 . S
C1417 N1420 1.384 . S
C1418 H1409 0.929 . S
C1418 C1410 1.378 . S
C1418 C1413 1.350 . S
C1419 H1406 0.929 . S
C1419 C1411 1.433 . S
C1419 N1421 1.384 . S
N1420 C1416 1.427 . S
N1420 C1417 1.384 . S
N1421 C1413 1.427 . S
N1421 C1419 1.384 . S
H1422 C1428 0.930 . S
H1423 C1432 0.930 . S
H1424 C1437 0.929 . S
H1425 C1435 0.929 . S
H1426 C1430 0.929 . S
H1427 C1436 0.929 . S
C1428 H1422 0.930 . S
C1428 C1429 1.367 . S
C1428 C1436 1.378 . S
C1429 C1428 1.367 . S
C1429 C1437 1.433 . S
C1430 H1426 0.929 . S
C1430 C1432 1.378 . S
C1430 C1434 1.350 . S
C1431 C1434 1.463 . S
C1431 C1436 1.350 . S
C1431 N1439 1.427 . S
C1432 H1423 0.930 . S
C1432 C1430 1.378 . S
C1432 C1433 1.367 . S
C1433 C1432 1.367 . S
C1433 C1435 1.433 . S
C1434 C1430 1.350 . S
C1434 C1431 1.463 . S
C1434 N1438 1.427 . S
C1435 H1425 0.929 . S
C1435 C1433 1.433 . S
C1435 N1438 1.384 . S
C1436 H1427 0.929 . S
C1436 C1428 1.378 . S
C1436 C1431 1.350 . S
C1437 H1424 0.929 . S
C1437 C1429 1.433 . S
C1437 N1439 1.384 . S
N1438 C1434 1.427 . S
N1438 C1435 1.384 . S
N1439 C1431 1.427 . S
N1439 C1437 1.384 . S
H1440 C1446 0.930 . S
H1441 C1450 0.930 . S
H1442 C1455 0.929 . S
H1443 C1453 0.929 . S
H1444 C1448 0.929 . S
H1445 C1454 0.929 . S
C1446 H1440 0.930 . S
C1446 C1447 1.367 . S
C1446 C1454 1.378 . S
C1447 C1446 1.367 . S
C1447 C1455 1.433 . S
C1448 H1444 0.929 . S
C1448 C1450 1.378 . S
C1448 C1452 1.350 . S
C1449 C1452 1.463 . S
C1449 C1454 1.350 . S
C1449 N1457 1.427 . S
C1450 H1441 0.930 . S
C1450 C1448 1.378 . S
C1450 C1451 1.367 . S
C1451 C1450 1.367 . S
C1451 C1453 1.433 . S
C1452 C1448 1.350 . S
C1452 C1449 1.463 . S
C1452 N1456 1.427 . S
C1453 H1443 0.929 . S
C1453 C1451 1.433 . S
C1453 N1456 1.384 . S
C1454 H1445 0.929 . S
C1454 C1446 1.378 . S
C1454 C1449 1.350 . S
C1455 H1442 0.929 . S
C1455 C1447 1.433 . S
C1455 N1457 1.384 . S
N1456 C1452 1.427 . S
N1456 C1453 1.384 . S
N1457 C1449 1.427 . S
N1457 C1455 1.384 . S
H1458 C1464 0.930 . S
H1459 C1468 0.930 . S
H1460 C1473 0.929 . S
H1461 C1471 0.929 . S
H1462 C1466 0.929 . S
H1463 C1472 0.929 . S
C1464 H1458 0.930 . S
C1464 C1465 1.367 . S
C1464 C1472 1.378 . S
C1465 C1464 1.367 . S
C1465 C1473 1.433 . S
C1466 H1462 0.929 . S
C1466 C1468 1.378 . S
C1466 C1470 1.350 . S
C1467 C1470 1.463 1_655 S
C1467 C1472 1.350 . S
C1467 N1475 1.427 . S
C1468 H1459 0.930 . S
C1468 C1466 1.378 . S
C1468 C1469 1.367 . S
C1469 C1468 1.367 . S
C1469 C1471 1.433 . S
C1470 C1466 1.350 . S
C1470 C1467 1.463 1_455 S
C1470 N1474 1.427 . S
C1471 H1461 0.929 . S
C1471 C1469 1.433 . S
C1471 N1474 1.384 . S
C1472 H1463 0.929 . S
C1472 C1464 1.378 . S
C1472 C1467 1.350 . S
C1473 H1460 0.929 . S
C1473 C1465 1.433 . S
C1473 N1475 1.384 . S
N1474 C1470 1.427 . S
N1474 C1471 1.384 . S
N1475 C1467 1.427 . S
N1475 C1473 1.384 . S
H1476 C1482 0.930 . S
H1477 C1486 0.930 . S
H1478 C1491 0.929 . S
H1479 C1489 0.929 . S
H1480 C1484 0.929 . S
H1481 C1490 0.929 . S
C1482 H1476 0.930 . S
C1482 C1483 1.367 . S
C1482 C1490 1.378 . S
C1483 C1482 1.367 . S
C1483 C1491 1.433 . S
C1484 H1480 0.929 . S
C1484 C1486 1.378 . S
C1484 C1488 1.350 . S
C1485 C1488 1.463 . S
C1485 C1490 1.350 . S
C1485 N1493 1.427 . S
C1486 H1477 0.930 . S
C1486 C1484 1.378 . S
C1486 C1487 1.367 . S
C1487 C1486 1.367 . S
C1487 C1489 1.433 . S
C1488 C1484 1.350 . S
C1488 C1485 1.463 . S
C1488 N1492 1.427 . S
C1489 H1479 0.929 . S
C1489 C1487 1.433 . S
C1489 N1492 1.384 . S
C1490 H1481 0.929 . S
C1490 C1482 1.378 . S
C1490 C1485 1.350 . S
C1491 H1478 0.929 . S
C1491 C1483 1.433 . S
C1491 N1493 1.384 . S
N1492 C1488 1.427 . S
N1492 C1489 1.384 . S
N1493 C1485 1.427 . S
N1493 C1491 1.384 . S
H1494 C1500 0.930 . S
H1495 C1504 0.930 . S
H1496 C1509 0.929 . S
H1497 C1507 0.929 . S
H1498 C1502 0.929 . S
H1499 C1508 0.929 . S
C1500 H1494 0.930 . S
C1500 C1501 1.367 . S
C1500 C1508 1.378 . S
C1501 C1500 1.367 . S
C1501 C1509 1.433 . S
C1502 H1498 0.929 . S
C1502 C1504 1.378 . S
C1502 C1506 1.350 . S
C1503 C1506 1.463 . S
C1503 C1508 1.350 . S
C1503 N1511 1.427 . S
C1504 H1495 0.930 . S
C1504 C1502 1.378 . S
C1504 C1505 1.367 . S
C1505 C1504 1.367 . S
C1505 C1507 1.433 . S
C1506 C1502 1.350 . S
C1506 C1503 1.463 . S
C1506 N1510 1.427 . S
C1507 H1497 0.929 . S
C1507 C1505 1.433 . S
C1507 N1510 1.384 . S
C1508 H1499 0.929 . S
C1508 C1500 1.378 . S
C1508 C1503 1.350 . S
C1509 H1496 0.929 . S
C1509 C1501 1.433 . S
C1509 N1511 1.384 . S
N1510 C1506 1.427 . S
N1510 C1507 1.384 . S
N1511 C1503 1.427 . S
N1511 C1509 1.384 . S
H1512 C1518 0.930 . S
H1513 C1522 0.930 . S
H1514 C1527 0.929 . S
H1515 C1525 0.929 . S
H1516 C1520 0.929 . S
H1517 C1526 0.929 . S
C1518 H1512 0.930 . S
C1518 C1519 1.367 . S
C1518 C1526 1.378 . S
C1519 C1518 1.367 . S
C1519 C1527 1.433 . S
C1520 H1516 0.929 . S
C1520 C1522 1.378 . S
C1520 C1524 1.350 . S
C1521 C1524 1.463 . S
C1521 C1526 1.350 . S
C1521 N1529 1.427 . S
C1522 H1513 0.930 . S
C1522 C1520 1.378 . S
C1522 C1523 1.367 . S
C1523 C1522 1.367 . S
C1523 C1525 1.433 . S
C1524 C1520 1.350 . S
C1524 C1521 1.463 . S
C1524 N1528 1.427 . S
C1525 H1515 0.929 . S
C1525 C1523 1.433 . S
C1525 N1528 1.384 . S
C1526 H1517 0.929 . S
C1526 C1518 1.378 . S
C1526 C1521 1.350 . S
C1527 H1514 0.929 . S
C1527 C1519 1.433 . S
C1527 N1529 1.384 . S
N1528 C1524 1.427 . S
N1528 C1525 1.384 . S
N1529 C1521 1.427 . S
N1529 C1527 1.384 . S
H1530 C1536 0.930 . S
H1531 C1540 0.930 . S
H1532 C1545 0.929 . S
H1533 C1543 0.929 . S
H1534 C1538 0.929 . S
H1535 C1544 0.929 . S
C1536 H1530 0.930 . S
C1536 C1537 1.367 . S
C1536 C1544 1.378 . S
C1537 C1536 1.367 . S
C1537 C1545 1.433 . S
C1538 H1534 0.929 . S
C1538 C1540 1.378 . S
C1538 C1542 1.350 . S
C1539 C1542 1.463 . S
C1539 C1544 1.350 . S
C1539 N1547 1.427 . S
C1540 H1531 0.930 . S
C1540 C1538 1.378 . S
C1540 C1541 1.367 . S
C1541 C1540 1.367 . S
C1541 C1543 1.433 . S
C1542 C1538 1.350 . S
C1542 C1539 1.463 . S
C1542 N1546 1.427 . S
C1543 H1533 0.929 . S
C1543 C1541 1.433 . S
C1543 N1546 1.384 . S
C1544 H1535 0.929 . S
C1544 C1536 1.378 . S
C1544 C1539 1.350 . S
C1545 H1532 0.929 . S
C1545 C1537 1.433 . S
C1545 N1547 1.384 . S
N1546 C1542 1.427 . S
N1546 C1543 1.384 . S
N1547 C1539 1.427 . S
N1547 C1545 1.384 . S
H1548 C1554 0.930 . S
H1549 C1558 0.930 . S
H1550 C1563 0.929 . S
H1551 C1561 0.929 . S
H1552 C1556 0.929 . S
H1553 C1562 0.929 . S
C1554 H1548 0.930 . S
C1554 C1555 1.367 . S
C1554 C1562 1.378 . S
C1555 C1554 1.367 . S
C1555 C1563 1.433 . S
C1556 H1552 0.929 . S
C1556 C1558 1.378 . S
C1556 C1560 1.350 . S
C1557 C1560 1.463 . S
C1557 C1562 1.350 . S
C1557 N1565 1.427 . S
C1558 H1549 0.930 . S
C1558 C1556 1.378 . S
C1558 C1559 1.367 . S
C1559 C1558 1.367 . S
C1559 C1561 1.433 . S
C1560 C1556 1.350 . S
C1560 C1557 1.463 . S
C1560 N1564 1.427 . S
C1561 H1551 0.929 . S
C1561 C1559 1.433 . S
C1561 N1564 1.384 . S
C1562 H1553 0.929 . S
C1562 C1554 1.378 . S
C1562 C1557 1.350 . S
C1563 H1550 0.929 . S
C1563 C1555 1.433 . S
C1563 N1565 1.384 . S
N1564 C1560 1.427 . S
N1564 C1561 1.384 . S
N1565 C1557 1.427 . S
N1565 C1563 1.384 . S
H1566 C1572 0.930 . S
H1567 C1576 0.930 . S
H1568 C1581 0.929 . S
H1569 C1579 0.929 . S
H1570 C1574 0.929 . S
H1571 C1580 0.929 . S
C1572 H1566 0.930 . S
C1572 C1573 1.367 . S
C1572 C1580 1.378 . S
C1573 C1572 1.367 . S
C1573 C1581 1.433 . S
C1574 H1570 0.929 . S
C1574 C1576 1.378 . S
C1574 C1578 1.350 . S
C1575 C1578 1.463 1_455 S
C1575 C1580 1.350 . S
C1575 N1583 1.427 . S
C1576 H1567 0.930 . S
C1576 C1574 1.378 . S
C1576 C1577 1.367 . S
C1577 C1576 1.367 . S
C1577 C1579 1.433 . S
C1578 C1574 1.350 . S
C1578 C1575 1.463 1_655 S
C1578 N1582 1.427 . S
C1579 H1569 0.929 . S
C1579 C1577 1.433 . S
C1579 N1582 1.384 . S
C1580 H1571 0.929 . S
C1580 C1572 1.378 . S
C1580 C1575 1.350 . S
C1581 H1568 0.929 . S
C1581 C1573 1.433 . S
C1581 N1583 1.384 . S
N1582 C1578 1.427 . S
N1582 C1579 1.384 . S
N1583 C1575 1.427 . S
N1583 C1581 1.384 . S
H1584 C1590 0.930 . S
H1585 C1594 0.930 . S
H1586 C1599 0.929 . S
H1587 C1597 0.929 . S
H1588 C1592 0.929 . S
H1589 C1598 0.929 . S
C1590 H1584 0.930 . S
C1590 C1591 1.367 . S
C1590 C1598 1.378 . S
C1591 C1590 1.367 . S
C1591 C1599 1.433 . S
C1592 H1588 0.929 . S
C1592 C1594 1.378 . S
C1592 C1596 1.350 . S
C1593 C1596 1.463 . S
C1593 C1598 1.350 . S
C1593 N1601 1.427 . S
C1594 H1585 0.930 . S
C1594 C1592 1.378 . S
C1594 C1595 1.367 . S
C1595 C1594 1.367 . S
C1595 C1597 1.433 . S
C1596 C1592 1.350 . S
C1596 C1593 1.463 . S
C1596 N1600 1.427 . S
C1597 H1587 0.929 . S
C1597 C1595 1.433 . S
C1597 N1600 1.384 . S
C1598 H1589 0.929 . S
C1598 C1590 1.378 . S
C1598 C1593 1.350 . S
C1599 H1586 0.929 . S
C1599 C1591 1.433 . S
C1599 N1601 1.384 . S
N1600 C1596 1.427 . S
N1600 C1597 1.384 . S
N1601 C1593 1.427 . S
N1601 C1599 1.384 . S
H1602 C1608 0.930 . S
H1603 C1612 0.930 . S
H1604 C1617 0.929 . S
H1605 C1615 0.929 . S
H1606 C1610 0.929 . S
H1607 C1616 0.929 . S
C1608 H1602 0.930 . S
C1608 C1609 1.367 . S
C1608 C1616 1.378 . S
C1609 C1608 1.367 . S
C1609 C1617 1.433 . S
C1610 H1606 0.929 . S
C1610 C1612 1.378 . S
C1610 C1614 1.350 . S
C1611 C1614 1.463 1_655 S
C1611 C1616 1.350 . S
C1611 N1619 1.427 . S
C1612 H1603 0.930 . S
C1612 C1610 1.378 . S
C1612 C1613 1.367 . S
C1613 C1612 1.367 . S
C1613 C1615 1.433 . S
C1614 C1610 1.350 . S
C1614 C1611 1.463 1_455 S
C1614 N1618 1.427 . S
C1615 H1605 0.929 . S
C1615 C1613 1.433 . S
C1615 N1618 1.384 . S
C1616 H1607 0.929 . S
C1616 C1608 1.378 . S
C1616 C1611 1.350 . S
C1617 H1604 0.929 . S
C1617 C1609 1.433 . S
C1617 N1619 1.384 . S
N1618 C1614 1.427 . S
N1618 C1615 1.384 . S
N1619 C1611 1.427 . S
N1619 C1617 1.384 . S
H1620 C1626 0.930 . S
H1621 C1630 0.930 . S
H1622 C1635 0.929 . S
H1623 C1633 0.929 . S
H1624 C1628 0.929 . S
H1625 C1634 0.929 . S
C1626 H1620 0.930 . S
C1626 C1627 1.367 . S
C1626 C1634 1.378 . S
C1627 C1626 1.367 . S
C1627 C1635 1.433 . S
C1628 H1624 0.929 . S
C1628 C1630 1.378 . S
C1628 C1632 1.350 . S
C1629 C1632 1.463 . S
C1629 C1634 1.350 . S
C1629 N1637 1.427 . S
C1630 H1621 0.930 . S
C1630 C1628 1.378 . S
C1630 C1631 1.367 . S
C1631 C1630 1.367 . S
C1631 C1633 1.433 . S
C1632 C1628 1.350 . S
C1632 C1629 1.463 . S
C1632 N1636 1.427 . S
C1633 H1623 0.929 . S
C1633 C1631 1.433 . S
C1633 N1636 1.384 . S
C1634 H1625 0.929 . S
C1634 C1626 1.378 . S
C1634 C1629 1.350 . S
C1635 H1622 0.929 . S
C1635 C1627 1.433 . S
C1635 N1637 1.384 . S
N1636 C1632 1.427 . S
N1636 C1633 1.384 . S
N1637 C1629 1.427 . S
N1637 C1635 1.384 . S
H1638 C1644 0.930 . S
H1639 C1648 0.930 . S
H1640 C1653 0.929 . S
H1641 C1651 0.929 . S
H1642 C1646 0.929 . S
H1643 C1652 0.929 . S
C1644 H1638 0.930 . S
C1644 C1645 1.367 . S
C1644 C1652 1.378 . S
C1645 C1644 1.367 . S
C1645 C1653 1.433 . S
C1646 H1642 0.929 . S
C1646 C1648 1.378 . S
C1646 C1650 1.350 . S
C1647 C1650 1.463 . S
C1647 C1652 1.350 . S
C1647 N1655 1.427 . S
C1648 H1639 0.930 . S
C1648 C1646 1.378 . S
C1648 C1649 1.367 . S
C1649 C1648 1.367 . S
C1649 C1651 1.433 . S
C1650 C1646 1.350 . S
C1650 C1647 1.463 . S
C1650 N1654 1.427 . S
C1651 H1641 0.929 . S
C1651 C1649 1.433 . S
C1651 N1654 1.384 . S
C1652 H1643 0.929 . S
C1652 C1644 1.378 . S
C1652 C1647 1.350 . S
C1653 H1640 0.929 . S
C1653 C1645 1.433 . S
C1653 N1655 1.384 . S
N1654 C1650 1.427 . S
N1654 C1651 1.384 . S
N1655 C1647 1.427 . S
N1655 C1653 1.384 . S
H1656 C1662 0.930 . S
H1657 C1666 0.930 . S
H1658 C1671 0.929 . S
H1659 C1669 0.929 . S
H1660 C1664 0.929 . S
H1661 C1670 0.929 . S
C1662 H1656 0.930 . S
C1662 C1663 1.367 . S
C1662 C1670 1.378 . S
C1663 C1662 1.367 . S
C1663 C1671 1.433 . S
C1664 H1660 0.929 . S
C1664 C1666 1.378 . S
C1664 C1668 1.350 . S
C1665 C1668 1.463 . S
C1665 C1670 1.350 . S
C1665 N1673 1.427 . S
C1666 H1657 0.930 . S
C1666 C1664 1.378 . S
C1666 C1667 1.367 . S
C1667 C1666 1.367 . S
C1667 C1669 1.433 . S
C1668 C1664 1.350 . S
C1668 C1665 1.463 . S
C1668 N1672 1.427 . S
C1669 H1659 0.929 . S
C1669 C1667 1.433 . S
C1669 N1672 1.384 . S
C1670 H1661 0.929 . S
C1670 C1662 1.378 . S
C1670 C1665 1.350 . S
C1671 H1658 0.929 . S
C1671 C1663 1.433 . S
C1671 N1673 1.384 . S
N1672 C1668 1.427 . S
N1672 C1669 1.384 . S
N1673 C1665 1.427 . S
N1673 C1671 1.384 . S
H1674 C1680 0.930 . S
H1675 C1684 0.930 . S
H1676 C1689 0.929 . S
H1677 C1687 0.929 . S
H1678 C1682 0.929 . S
H1679 C1688 0.929 . S
C1680 H1674 0.930 . S
C1680 C1681 1.367 . S
C1680 C1688 1.378 . S
C1681 C1680 1.367 . S
C1681 C1689 1.433 . S
C1682 H1678 0.929 . S
C1682 C1684 1.378 . S
C1682 C1686 1.350 . S
C1683 C1686 1.463 . S
C1683 C1688 1.350 . S
C1683 N1691 1.427 . S
C1684 H1675 0.930 . S
C1684 C1682 1.378 . S
C1684 C1685 1.367 . S
C1685 C1684 1.367 . S
C1685 C1687 1.433 . S
C1686 C1682 1.350 . S
C1686 C1683 1.463 . S
C1686 N1690 1.427 . S
C1687 H1677 0.929 . S
C1687 C1685 1.433 . S
C1687 N1690 1.384 . S
C1688 H1679 0.929 . S
C1688 C1680 1.378 . S
C1688 C1683 1.350 . S
C1689 H1676 0.929 . S
C1689 C1681 1.433 . S
C1689 N1691 1.384 . S
N1690 C1686 1.427 . S
N1690 C1687 1.384 . S
N1691 C1683 1.427 . S
N1691 C1689 1.384 . S
H1692 C1698 0.930 . S
H1693 C1702 0.930 . S
H1694 C1707 0.929 . S
H1695 C1705 0.929 . S
H1696 C1700 0.929 . S
H1697 C1706 0.929 . S
C1698 H1692 0.930 . S
C1698 C1699 1.367 . S
C1698 C1706 1.378 . S
C1699 C1698 1.367 . S
C1699 C1707 1.433 . S
C1700 H1696 0.929 . S
C1700 C1702 1.378 . S
C1700 C1704 1.350 . S
C1701 C1704 1.463 . S
C1701 C1706 1.350 . S
C1701 N1709 1.427 . S
C1702 H1693 0.930 . S
C1702 C1700 1.378 . S
C1702 C1703 1.367 . S
C1703 C1702 1.367 . S
C1703 C1705 1.433 . S
C1704 C1700 1.350 . S
C1704 C1701 1.463 . S
C1704 N1708 1.427 . S
C1705 H1695 0.929 . S
C1705 C1703 1.433 . S
C1705 N1708 1.384 . S
C1706 H1697 0.929 . S
C1706 C1698 1.378 . S
C1706 C1701 1.350 . S
C1707 H1694 0.929 . S
C1707 C1699 1.433 . S
C1707 N1709 1.384 . S
N1708 C1704 1.427 . S
N1708 C1705 1.384 . S
N1709 C1701 1.427 . S
N1709 C1707 1.384 . S
H1710 C1716 0.930 . S
H1711 C1720 0.930 . S
H1712 C1725 0.929 . S
H1713 C1723 0.929 . S
H1714 C1718 0.929 . S
H1715 C1724 0.929 . S
C1716 H1710 0.930 . S
C1716 C1717 1.367 . S
C1716 C1724 1.378 . S
C1717 C1716 1.367 . S
C1717 C1725 1.433 . S
C1718 H1714 0.929 . S
C1718 C1720 1.378 . S
C1718 C1722 1.350 . S
C1719 C1722 1.463 1_655 S
C1719 C1724 1.350 . S
C1719 N1727 1.427 . S
C1720 H1711 0.930 . S
C1720 C1718 1.378 . S
C1720 C1721 1.367 . S
C1721 C1720 1.367 . S
C1721 C1723 1.433 . S
C1722 C1718 1.350 . S
C1722 C1719 1.463 1_455 S
C1722 N1726 1.427 . S
C1723 H1713 0.929 . S
C1723 C1721 1.433 . S
C1723 N1726 1.384 . S
C1724 H1715 0.929 . S
C1724 C1716 1.378 . S
C1724 C1719 1.350 . S
C1725 H1712 0.929 . S
C1725 C1717 1.433 . S
C1725 N1727 1.384 . S
N1726 C1722 1.427 . S
N1726 C1723 1.384 . S
N1727 C1719 1.427 . S
N1727 C1725 1.384 . S
H1728 C1734 0.930 . S
H1729 C1738 0.930 . S
H1730 C1743 0.929 . S
H1731 C1741 0.929 . S
H1732 C1736 0.929 . S
H1733 C1742 0.929 . S
C1734 H1728 0.930 . S
C1734 C1735 1.367 . S
C1734 C1742 1.378 . S
C1735 C1734 1.367 . S
C1735 C1743 1.433 . S
C1736 H1732 0.929 . S
C1736 C1738 1.378 . S
C1736 C1740 1.350 . S
C1737 C1740 1.463 . S
C1737 C1742 1.350 . S
C1737 N1745 1.427 . S
C1738 H1729 0.930 . S
C1738 C1736 1.378 . S
C1738 C1739 1.367 . S
C1739 C1738 1.367 . S
C1739 C1741 1.433 . S
C1740 C1736 1.350 . S
C1740 C1737 1.463 . S
C1740 N1744 1.427 . S
C1741 H1731 0.929 . S
C1741 C1739 1.433 . S
C1741 N1744 1.384 . S
C1742 H1733 0.929 . S
C1742 C1734 1.378 . S
C1742 C1737 1.350 . S
C1743 H1730 0.929 . S
C1743 C1735 1.433 . S
C1743 N1745 1.384 . S
N1744 C1740 1.427 . S
N1744 C1741 1.384 . S
N1745 C1737 1.427 . S
N1745 C1743 1.384 . S
H1746 C1752 0.930 . S
H1747 C1756 0.930 . S
H1748 C1761 0.929 . S
H1749 C1759 0.929 . S
H1750 C1754 0.929 . S
H1751 C1760 0.929 . S
C1752 H1746 0.930 . S
C1752 C1753 1.367 . S
C1752 C1760 1.378 . S
C1753 C1752 1.367 . S
C1753 C1761 1.433 . S
C1754 H1750 0.929 . S
C1754 C1756 1.378 . S
C1754 C1758 1.350 . S
C1755 C1758 1.463 . S
C1755 C1760 1.350 . S
C1755 N1763 1.427 . S
C1756 H1747 0.930 . S
C1756 C1754 1.378 . S
C1756 C1757 1.367 . S
C1757 C1756 1.367 . S
C1757 C1759 1.433 . S
C1758 C1754 1.350 . S
C1758 C1755 1.463 . S
C1758 N1762 1.427 . S
C1759 H1749 0.929 . S
C1759 C1757 1.433 . S
C1759 N1762 1.384 . S
C1760 H1751 0.929 . S
C1760 C1752 1.378 . S
C1760 C1755 1.350 . S
C1761 H1748 0.929 . S
C1761 C1753 1.433 . S
C1761 N1763 1.384 . S
N1762 C1758 1.427 . S
N1762 C1759 1.384 . S
N1763 C1755 1.427 . S
N1763 C1761 1.384 . S
H1764 C1770 0.930 . S
H1765 C1774 0.930 . S
H1766 C1779 0.929 . S
H1767 C1777 0.929 . S
H1768 C1772 0.929 . S
H1769 C1778 0.929 . S
C1770 H1764 0.930 . S
C1770 C1771 1.367 . S
C1770 C1778 1.378 . S
C1771 C1770 1.367 . S
C1771 C1779 1.433 . S
C1772 H1768 0.929 . S
C1772 C1774 1.378 . S
C1772 C1776 1.350 . S
C1773 C1776 1.463 . S
C1773 C1778 1.350 . S
C1773 N1781 1.427 . S
C1774 H1765 0.930 . S
C1774 C1772 1.378 . S
C1774 C1775 1.367 . S
C1775 C1774 1.367 . S
C1775 C1777 1.433 . S
C1776 C1772 1.350 . S
C1776 C1773 1.463 . S
C1776 N1780 1.427 . S
C1777 H1767 0.929 . S
C1777 C1775 1.433 . S
C1777 N1780 1.384 . S
C1778 H1769 0.929 . S
C1778 C1770 1.378 . S
C1778 C1773 1.350 . S
C1779 H1766 0.929 . S
C1779 C1771 1.433 . S
C1779 N1781 1.384 . S
N1780 C1776 1.427 . S
N1780 C1777 1.384 . S
N1781 C1773 1.427 . S
N1781 C1779 1.384 . S
H1782 C1788 0.930 . S
H1783 C1792 0.930 . S
H1784 C1797 0.929 . S
H1785 C1795 0.929 . S
H1786 C1790 0.929 . S
H1787 C1796 0.929 . S
C1788 H1782 0.930 . S
C1788 C1789 1.367 . S
C1788 C1796 1.378 . S
C1789 C1788 1.367 . S
C1789 C1797 1.433 . S
C1790 H1786 0.929 . S
C1790 C1792 1.378 . S
C1790 C1794 1.350 . S
C1791 C1794 1.463 1_655 S
C1791 C1796 1.350 . S
C1791 N1799 1.427 . S
C1792 H1783 0.930 . S
C1792 C1790 1.378 . S
C1792 C1793 1.367 . S
C1793 C1792 1.367 . S
C1793 C1795 1.433 . S
C1794 C1790 1.350 . S
C1794 C1791 1.463 1_455 S
C1794 N1798 1.427 . S
C1795 H1785 0.929 . S
C1795 C1793 1.433 . S
C1795 N1798 1.384 . S
C1796 H1787 0.929 . S
C1796 C1788 1.378 . S
C1796 C1791 1.350 . S
C1797 H1784 0.929 . S
C1797 C1789 1.433 . S
C1797 N1799 1.384 . S
N1798 C1794 1.427 . S
N1798 C1795 1.384 . S
N1799 C1791 1.427 . S
N1799 C1797 1.384 . S
H1800 C1806 0.930 . S
H1801 C1810 0.930 . S
H1802 C1815 0.929 . S
H1803 C1813 0.929 . S
H1804 C1808 0.929 . S
H1805 C1814 0.929 . S
C1806 H1800 0.930 . S
C1806 C1807 1.367 . S
C1806 C1814 1.378 . S
C1807 C1806 1.367 . S
C1807 C1815 1.433 . S
C1808 H1804 0.929 . S
C1808 C1810 1.378 . S
C1808 C1812 1.350 . S
C1809 C1812 1.463 . S
C1809 C1814 1.350 . S
C1809 N1817 1.427 . S
C1810 H1801 0.930 . S
C1810 C1808 1.378 . S
C1810 C1811 1.367 . S
C1811 C1810 1.367 . S
C1811 C1813 1.433 . S
C1812 C1808 1.350 . S
C1812 C1809 1.463 . S
C1812 N1816 1.427 . S
C1813 H1803 0.929 . S
C1813 C1811 1.433 . S
C1813 N1816 1.384 . S
C1814 H1805 0.929 . S
C1814 C1806 1.378 . S
C1814 C1809 1.350 . S
C1815 H1802 0.929 . S
C1815 C1807 1.433 . S
C1815 N1817 1.384 . S
N1816 C1812 1.427 . S
N1816 C1813 1.384 . S
N1817 C1809 1.427 . S
N1817 C1815 1.384 . S
H1818 C1824 0.930 . S
H1819 C1828 0.930 . S
H1820 C1833 0.929 . S
H1821 C1831 0.929 . S
H1822 C1826 0.929 . S
H1823 C1832 0.929 . S
C1824 H1818 0.930 . S
C1824 C1825 1.367 . S
C1824 C1832 1.378 . S
C1825 C1824 1.367 . S
C1825 C1833 1.433 . S
C1826 H1822 0.929 . S
C1826 C1828 1.378 . S
C1826 C1830 1.350 . S
C1827 C1830 1.463 1_455 S
C1827 C1832 1.350 . S
C1827 N1835 1.427 . S
C1828 H1819 0.930 . S
C1828 C1826 1.378 . S
C1828 C1829 1.367 . S
C1829 C1828 1.367 . S
C1829 C1831 1.433 . S
C1830 C1826 1.350 . S
C1830 C1827 1.463 1_655 S
C1830 N1834 1.427 . S
C1831 H1821 0.929 . S
C1831 C1829 1.433 . S
C1831 N1834 1.384 . S
C1832 H1823 0.929 . S
C1832 C1824 1.378 . S
C1832 C1827 1.350 . S
C1833 H1820 0.929 . S
C1833 C1825 1.433 . S
C1833 N1835 1.384 . S
N1834 C1830 1.427 . S
N1834 C1831 1.384 . S
N1835 C1827 1.427 . S
N1835 C1833 1.384 . S
H1836 C1842 0.930 . S
H1837 C1846 0.930 . S
H1838 C1851 0.929 . S
H1839 C1849 0.929 . S
H1840 C1844 0.929 . S
H1841 C1850 0.929 . S
C1842 H1836 0.930 . S
C1842 C1843 1.367 . S
C1842 C1850 1.378 . S
C1843 C1842 1.367 . S
C1843 C1851 1.433 . S
C1844 H1840 0.929 . S
C1844 C1846 1.378 . S
C1844 C1848 1.350 . S
C1845 C1848 1.463 . S
C1845 C1850 1.350 . S
C1845 N1853 1.427 . S
C1846 H1837 0.930 . S
C1846 C1844 1.378 . S
C1846 C1847 1.367 . S
C1847 C1846 1.367 . S
C1847 C1849 1.433 . S
C1848 C1844 1.350 . S
C1848 C1845 1.463 . S
C1848 N1852 1.427 . S
C1849 H1839 0.929 . S
C1849 C1847 1.433 . S
C1849 N1852 1.384 . S
C1850 H1841 0.929 . S
C1850 C1842 1.378 . S
C1850 C1845 1.350 . S
C1851 H1838 0.929 . S
C1851 C1843 1.433 . S
C1851 N1853 1.384 . S
N1852 C1848 1.427 . S
N1852 C1849 1.384 . S
N1853 C1845 1.427 . S
N1853 C1851 1.384 . S
H1854 C1860 0.930 . S
H1855 C1864 0.930 . S
H1856 C1869 0.929 . S
H1857 C1867 0.929 . S
H1858 C1862 0.929 . S
H1859 C1868 0.929 . S
C1860 H1854 0.930 . S
C1860 C1861 1.367 . S
C1860 C1868 1.378 . S
C1861 C1860 1.367 . S
C1861 C1869 1.433 . S
C1862 H1858 0.929 . S
C1862 C1864 1.378 . S
C1862 C1866 1.350 . S
C1863 C1866 1.463 . S
C1863 C1868 1.350 . S
C1863 N1871 1.427 . S
C1864 H1855 0.930 . S
C1864 C1862 1.378 . S
C1864 C1865 1.367 . S
C1865 C1864 1.367 . S
C1865 C1867 1.433 . S
C1866 C1862 1.350 . S
C1866 C1863 1.463 . S
C1866 N1870 1.427 . S
C1867 H1857 0.929 . S
C1867 C1865 1.433 . S
C1867 N1870 1.384 . S
C1868 H1859 0.929 . S
C1868 C1860 1.378 . S
C1868 C1863 1.350 . S
C1869 H1856 0.929 . S
C1869 C1861 1.433 . S
C1869 N1871 1.384 . S
N1870 C1866 1.427 . S
N1870 C1867 1.384 . S
N1871 C1863 1.427 . S
N1871 C1869 1.384 . S
H1872 C1878 0.930 . S
H1873 C1882 0.930 . S
H1874 C1887 0.929 . S
H1875 C1885 0.929 . S
H1876 C1880 0.929 . S
H1877 C1886 0.929 . S
C1878 H1872 0.930 . S
C1878 C1879 1.367 . S
C1878 C1886 1.378 . S
C1879 C1878 1.367 . S
C1879 C1887 1.433 . S
C1880 H1876 0.929 . S
C1880 C1882 1.378 . S
C1880 C1884 1.350 . S
C1881 C1884 1.463 . S
C1881 C1886 1.350 . S
C1881 N1889 1.427 . S
C1882 H1873 0.930 . S
C1882 C1880 1.378 . S
C1882 C1883 1.367 . S
C1883 C1882 1.367 . S
C1883 C1885 1.433 . S
C1884 C1880 1.350 . S
C1884 C1881 1.463 . S
C1884 N1888 1.427 . S
C1885 H1875 0.929 . S
C1885 C1883 1.433 . S
C1885 N1888 1.384 . S
C1886 H1877 0.929 . S
C1886 C1878 1.378 . S
C1886 C1881 1.350 . S
C1887 H1874 0.929 . S
C1887 C1879 1.433 . S
C1887 N1889 1.384 . S
N1888 C1884 1.427 . S
N1888 C1885 1.384 . S
N1889 C1881 1.427 . S
N1889 C1887 1.384 . S
H1890 C1896 0.930 . S
H1891 C1900 0.930 . S
H1892 C1905 0.929 . S
H1893 C1903 0.929 . S
H1894 C1898 0.929 . S
H1895 C1904 0.929 . S
C1896 H1890 0.930 . S
C1896 C1897 1.367 . S
C1896 C1904 1.378 . S
C1897 C1896 1.367 . S
C1897 C1905 1.433 . S
C1898 H1894 0.929 . S
C1898 C1900 1.378 . S
C1898 C1902 1.350 . S
C1899 C1902 1.463 . S
C1899 C1904 1.350 . S
C1899 N1907 1.427 . S
C1900 H1891 0.930 . S
C1900 C1898 1.378 . S
C1900 C1901 1.367 . S
C1901 C1900 1.367 . S
C1901 C1903 1.433 . S
C1902 C1898 1.350 . S
C1902 C1899 1.463 . S
C1902 N1906 1.427 . S
C1903 H1893 0.929 . S
C1903 C1901 1.433 . S
C1903 N1906 1.384 . S
C1904 H1895 0.929 . S
C1904 C1896 1.378 . S
C1904 C1899 1.350 . S
C1905 H1892 0.929 . S
C1905 C1897 1.433 . S
C1905 N1907 1.384 . S
N1906 C1902 1.427 . S
N1906 C1903 1.384 . S
N1907 C1899 1.427 . S
N1907 C1905 1.384 . S
H1908 C1914 0.930 . S
H1909 C1918 0.930 . S
H1910 C1923 0.929 . S
H1911 C1921 0.929 . S
H1912 C1916 0.929 . S
H1913 C1922 0.929 . S
C1914 H1908 0.930 . S
C1914 C1915 1.367 . S
C1914 C1922 1.378 . S
C1915 C1914 1.367 . S
C1915 C1923 1.433 . S
C1916 H1912 0.929 . S
C1916 C1918 1.378 . S
C1916 C1920 1.350 . S
C1917 C1920 1.463 . S
C1917 C1922 1.350 . S
C1917 N1925 1.427 . S
C1918 H1909 0.930 . S
C1918 C1916 1.378 . S
C1918 C1919 1.367 . S
C1919 C1918 1.367 . S
C1919 C1921 1.433 . S
C1920 C1916 1.350 . S
C1920 C1917 1.463 . S
C1920 N1924 1.427 . S
C1921 H1911 0.929 . S
C1921 C1919 1.433 . S
C1921 N1924 1.384 . S
C1922 H1913 0.929 . S
C1922 C1914 1.378 . S
C1922 C1917 1.350 . S
C1923 H1910 0.929 . S
C1923 C1915 1.433 . S
C1923 N1925 1.384 . S
N1924 C1920 1.427 . S
N1924 C1921 1.384 . S
N1925 C1917 1.427 . S
N1925 C1923 1.384 . S
H1926 C1932 0.930 . S
H1927 C1936 0.930 . S
H1928 C1941 0.929 . S
H1929 C1939 0.929 . S
H1930 C1934 0.929 . S
H1931 C1940 0.929 . S
C1932 H1926 0.930 . S
C1932 C1933 1.367 . S
C1932 C1940 1.378 . S
C1933 C1932 1.367 . S
C1933 C1941 1.433 . S
C1934 H1930 0.929 . S
C1934 C1936 1.378 . S
C1934 C1938 1.350 . S
C1935 C1938 1.463 1_455 S
C1935 C1940 1.350 . S
C1935 N1943 1.427 . S
C1936 H1927 0.930 . S
C1936 C1934 1.378 . S
C1936 C1937 1.367 . S
C1937 C1936 1.367 . S
C1937 C1939 1.433 . S
C1938 C1934 1.350 . S
C1938 C1935 1.463 1_655 S
C1938 N1942 1.427 . S
C1939 H1929 0.929 . S
C1939 C1937 1.433 . S
C1939 N1942 1.384 . S
C1940 H1931 0.929 . S
C1940 C1932 1.378 . S
C1940 C1935 1.350 . S
C1941 H1928 0.929 . S
C1941 C1933 1.433 . S
C1941 N1943 1.384 . S
N1942 C1938 1.427 . S
N1942 C1939 1.384 . S
N1943 C1935 1.427 . S
N1943 C1941 1.384 . S
H1944 C1950 0.930 . S
H1945 C1954 0.930 . S
H1946 C1959 0.929 . S
H1947 C1957 0.929 . S
H1948 C1952 0.929 . S
H1949 C1958 0.929 . S
C1950 H1944 0.930 . S
C1950 C1951 1.367 . S
C1950 C1958 1.378 . S
C1951 C1950 1.367 . S
C1951 C1959 1.433 . S
C1952 H1948 0.929 . S
C1952 C1954 1.378 . S
C1952 C1956 1.350 . S
C1953 C1956 1.463 . S
C1953 C1958 1.350 . S
C1953 N1961 1.427 . S
C1954 H1945 0.930 . S
C1954 C1952 1.378 . S
C1954 C1955 1.367 . S
C1955 C1954 1.367 . S
C1955 C1957 1.433 . S
C1956 C1952 1.350 . S
C1956 C1953 1.463 . S
C1956 N1960 1.427 . S
C1957 H1947 0.929 . S
C1957 C1955 1.433 . S
C1957 N1960 1.384 . S
C1958 H1949 0.929 . S
C1958 C1950 1.378 . S
C1958 C1953 1.350 . S
C1959 H1946 0.929 . S
C1959 C1951 1.433 . S
C1959 N1961 1.384 . S
N1960 C1956 1.427 . S
N1960 C1957 1.384 . S
N1961 C1953 1.427 . S
N1961 C1959 1.384 . S
H1962 C1968 0.930 . S
H1963 C1972 0.930 . S
H1964 C1977 0.929 . S
H1965 C1975 0.929 . S
H1966 C1970 0.929 . S
H1967 C1976 0.929 . S
C1968 H1962 0.930 . S
C1968 C1969 1.367 . S
C1968 C1976 1.378 . S
C1969 C1968 1.367 . S
C1969 C1977 1.433 . S
C1970 H1966 0.929 . S
C1970 C1972 1.378 . S
C1970 C1974 1.350 . S
C1971 C1974 1.463 1_655 S
C1971 C1976 1.350 . S
C1971 N1979 1.427 . S
C1972 H1963 0.930 . S
C1972 C1970 1.378 . S
C1972 C1973 1.367 . S
C1973 C1972 1.367 . S
C1973 C1975 1.433 . S
C1974 C1970 1.350 . S
C1974 C1971 1.463 1_455 S
C1974 N1978 1.427 . S
C1975 H1965 0.929 . S
C1975 C1973 1.433 . S
C1975 N1978 1.384 . S
C1976 H1967 0.929 . S
C1976 C1968 1.378 . S
C1976 C1971 1.350 . S
C1977 H1964 0.929 . S
C1977 C1969 1.433 . S
C1977 N1979 1.384 . S
N1978 C1974 1.427 . S
N1978 C1975 1.384 . S
N1979 C1971 1.427 . S
N1979 C1977 1.384 . S
H1980 C1986 0.930 . S
H1981 C1990 0.930 . S
H1982 C1995 0.929 . S
H1983 C1993 0.929 . S
H1984 C1988 0.929 . S
H1985 C1994 0.929 . S
C1986 H1980 0.930 . S
C1986 C1987 1.367 . S
C1986 C1994 1.378 . S
C1987 C1986 1.367 . S
C1987 C1995 1.433 . S
C1988 H1984 0.929 . S
C1988 C1990 1.378 . S
C1988 C1992 1.350 . S
C1989 C1992 1.463 . S
C1989 C1994 1.350 . S
C1989 N1997 1.427 . S
C1990 H1981 0.930 . S
C1990 C1988 1.378 . S
C1990 C1991 1.367 . S
C1991 C1990 1.367 . S
C1991 C1993 1.433 . S
C1992 C1988 1.350 . S
C1992 C1989 1.463 . S
C1992 N1996 1.427 . S
C1993 H1983 0.929 . S
C1993 C1991 1.433 . S
C1993 N1996 1.384 . S
C1994 H1985 0.929 . S
C1994 C1986 1.378 . S
C1994 C1989 1.350 . S
C1995 H1982 0.929 . S
C1995 C1987 1.433 . S
C1995 N1997 1.384 . S
N1996 C1992 1.427 . S
N1996 C1993 1.384 . S
N1997 C1989 1.427 . S
N1997 C1995 1.384 . S
H1998 C2004 0.930 . S
H1999 C2008 0.930 . S
H2000 C2013 0.929 . S
H2001 C2011 0.929 . S
H2002 C2006 0.929 . S
H2003 C2012 0.929 . S
C2004 H1998 0.930 . S
C2004 C2005 1.367 . S
C2004 C2012 1.378 . S
C2005 C2004 1.367 . S
C2005 C2013 1.433 . S
C2006 H2002 0.929 . S
C2006 C2008 1.378 . S
C2006 C2010 1.350 . S
C2007 C2010 1.463 . S
C2007 C2012 1.350 . S
C2007 N2015 1.427 . S
C2008 H1999 0.930 . S
C2008 C2006 1.378 . S
C2008 C2009 1.367 . S
C2009 C2008 1.367 . S
C2009 C2011 1.433 . S
C2010 C2006 1.350 . S
C2010 C2007 1.463 . S
C2010 N2014 1.427 . S
C2011 H2001 0.929 . S
C2011 C2009 1.433 . S
C2011 N2014 1.384 . S
C2012 H2003 0.929 . S
C2012 C2004 1.378 . S
C2012 C2007 1.350 . S
C2013 H2000 0.929 . S
C2013 C2005 1.433 . S
C2013 N2015 1.384 . S
N2014 C2010 1.427 . S
N2014 C2011 1.384 . S
N2015 C2007 1.427 . S
N2015 C2013 1.384 . S
H2016 C2022 0.930 . S
H2017 C2026 0.930 . S
H2018 C2031 0.929 . S
H2019 C2029 0.929 . S
H2020 C2024 0.929 . S
H2021 C2030 0.929 . S
C2022 H2016 0.930 . S
C2022 C2023 1.367 . S
C2022 C2030 1.378 . S
C2023 C2022 1.367 . S
C2023 C2031 1.433 . S
C2024 H2020 0.929 . S
C2024 C2026 1.378 . S
C2024 C2028 1.350 . S
C2025 C2028 1.463 . S
C2025 C2030 1.350 . S
C2025 N2033 1.427 . S
C2026 H2017 0.930 . S
C2026 C2024 1.378 . S
C2026 C2027 1.367 . S
C2027 C2026 1.367 . S
C2027 C2029 1.433 . S
C2028 C2024 1.350 . S
C2028 C2025 1.463 . S
C2028 N2032 1.427 . S
C2029 H2019 0.929 . S
C2029 C2027 1.433 . S
C2029 N2032 1.384 . S
C2030 H2021 0.929 . S
C2030 C2022 1.378 . S
C2030 C2025 1.350 . S
C2031 H2018 0.929 . S
C2031 C2023 1.433 . S
C2031 N2033 1.384 . S
N2032 C2028 1.427 . S
N2032 C2029 1.384 . S
N2033 C2025 1.427 . S
N2033 C2031 1.384 . S
H2034 C2040 0.930 . S
H2035 C2044 0.930 . S
H2036 C2049 0.929 . S
H2037 C2047 0.929 . S
H2038 C2042 0.929 . S
H2039 C2048 0.929 . S
C2040 H2034 0.930 . S
C2040 C2041 1.367 . S
C2040 C2048 1.378 . S
C2041 C2040 1.367 . S
C2041 C2049 1.433 . S
C2042 H2038 0.929 . S
C2042 C2044 1.378 . S
C2042 C2046 1.350 . S
C2043 C2046 1.463 . S
C2043 C2048 1.350 . S
C2043 N2051 1.427 . S
C2044 H2035 0.930 . S
C2044 C2042 1.378 . S
C2044 C2045 1.367 . S
C2045 C2044 1.367 . S
C2045 C2047 1.433 . S
C2046 C2042 1.350 . S
C2046 C2043 1.463 . S
C2046 N2050 1.427 . S
C2047 H2037 0.929 . S
C2047 C2045 1.433 . S
C2047 N2050 1.384 . S
C2048 H2039 0.929 . S
C2048 C2040 1.378 . S
C2048 C2043 1.350 . S
C2049 H2036 0.929 . S
C2049 C2041 1.433 . S
C2049 N2051 1.384 . S
N2050 C2046 1.427 . S
N2050 C2047 1.384 . S
N2051 C2043 1.427 . S
N2051 C2049 1.384 . S
H2052 C2058 0.930 . S
H2053 C2062 0.930 . S
H2054 C2067 0.929 . S
H2055 C2065 0.929 . S
H2056 C2060 0.929 . S
H2057 C2066 0.929 . S
C2058 H2052 0.930 . S
C2058 C2059 1.367 . S
C2058 C2066 1.378 . S
C2059 C2058 1.367 . S
C2059 C2067 1.433 . S
C2060 H2056 0.929 . S
C2060 C2062 1.378 . S
C2060 C2064 1.350 . S
C2061 C2064 1.463 . S
C2061 C2066 1.350 . S
C2061 N2069 1.427 . S
C2062 H2053 0.930 . S
C2062 C2060 1.378 . S
C2062 C2063 1.367 . S
C2063 C2062 1.367 . S
C2063 C2065 1.433 . S
C2064 C2060 1.350 . S
C2064 C2061 1.463 . S
C2064 N2068 1.427 . S
C2065 H2055 0.929 . S
C2065 C2063 1.433 . S
C2065 N2068 1.384 . S
C2066 H2057 0.929 . S
C2066 C2058 1.378 . S
C2066 C2061 1.350 . S
C2067 H2054 0.929 . S
C2067 C2059 1.433 . S
C2067 N2069 1.384 . S
N2068 C2064 1.427 . S
N2068 C2065 1.384 . S
N2069 C2061 1.427 . S
N2069 C2067 1.384 . S
H2070 C2076 0.930 . S
H2071 C2080 0.930 . S
H2072 C2085 0.929 . S
H2073 C2083 0.929 . S
H2074 C2078 0.929 . S
H2075 C2084 0.929 . S
C2076 H2070 0.930 . S
C2076 C2077 1.367 . S
C2076 C2084 1.378 . S
C2077 C2076 1.367 . S
C2077 C2085 1.433 . S
C2078 H2074 0.929 . S
C2078 C2080 1.378 . S
C2078 C2082 1.350 . S
C2079 C2082 1.463 . S
C2079 C2084 1.350 . S
C2079 N2087 1.427 . S
C2080 H2071 0.930 . S
C2080 C2078 1.378 . S
C2080 C2081 1.367 . S
C2081 C2080 1.367 . S
C2081 C2083 1.433 . S
C2082 C2078 1.350 . S
C2082 C2079 1.463 . S
C2082 N2086 1.427 . S
C2083 H2073 0.929 . S
C2083 C2081 1.433 . S
C2083 N2086 1.384 . S
C2084 H2075 0.929 . S
C2084 C2076 1.378 . S
C2084 C2079 1.350 . S
C2085 H2072 0.929 . S
C2085 C2077 1.433 . S
C2085 N2087 1.384 . S
N2086 C2082 1.427 . S
N2086 C2083 1.384 . S
N2087 C2079 1.427 . S
N2087 C2085 1.384 . S
H2088 C2094 0.930 . S
H2089 C2098 0.930 . S
H2090 C2103 0.929 . S
H2091 C2101 0.929 . S
H2092 C2096 0.929 . S
H2093 C2102 0.929 . S
C2094 H2088 0.930 . S
C2094 C2095 1.367 . S
C2094 C2102 1.378 . S
C2095 C2094 1.367 . S
C2095 C2103 1.433 . S
C2096 H2092 0.929 . S
C2096 C2098 1.378 . S
C2096 C2100 1.350 . S
C2097 C2100 1.463 . S
C2097 C2102 1.350 . S
C2097 N2105 1.427 . S
C2098 H2089 0.930 . S
C2098 C2096 1.378 . S
C2098 C2099 1.367 . S
C2099 C2098 1.367 . S
C2099 C2101 1.433 . S
C2100 C2096 1.350 . S
C2100 C2097 1.463 . S
C2100 N2104 1.427 . S
C2101 H2091 0.929 . S
C2101 C2099 1.433 . S
C2101 N2104 1.384 . S
C2102 H2093 0.929 . S
C2102 C2094 1.378 . S
C2102 C2097 1.350 . S
C2103 H2090 0.929 . S
C2103 C2095 1.433 . S
C2103 N2105 1.384 . S
N2104 C2100 1.427 . S
N2104 C2101 1.384 . S
N2105 C2097 1.427 . S
N2105 C2103 1.384 . S
H2106 C2112 0.930 . S
H2107 C2116 0.930 . S
H2108 C2121 0.929 . S
H2109 C2119 0.929 . S
H2110 C2114 0.929 . S
H2111 C2120 0.929 . S
C2112 H2106 0.930 . S
C2112 C2113 1.367 . S
C2112 C2120 1.378 . S
C2113 C2112 1.367 . S
C2113 C2121 1.433 . S
C2114 H2110 0.929 . S
C2114 C2116 1.378 . S
C2114 C2118 1.350 . S
C2115 C2118 1.463 . S
C2115 C2120 1.350 . S
C2115 N2123 1.427 . S
C2116 H2107 0.930 . S
C2116 C2114 1.378 . S
C2116 C2117 1.367 . S
C2117 C2116 1.367 . S
C2117 C2119 1.433 . S
C2118 C2114 1.350 . S
C2118 C2115 1.463 . S
C2118 N2122 1.427 . S
C2119 H2109 0.929 . S
C2119 C2117 1.433 . S
C2119 N2122 1.384 . S
C2120 H2111 0.929 . S
C2120 C2112 1.378 . S
C2120 C2115 1.350 . S
C2121 H2108 0.929 . S
C2121 C2113 1.433 . S
C2121 N2123 1.384 . S
N2122 C2118 1.427 . S
N2122 C2119 1.384 . S
N2123 C2115 1.427 . S
N2123 C2121 1.384 . S
H2124 C2130 0.930 . S
H2125 C2134 0.930 . S
H2126 C2139 0.929 . S
H2127 C2137 0.929 . S
H2128 C2132 0.929 . S
H2129 C2138 0.929 . S
C2130 H2124 0.930 . S
C2130 C2131 1.367 . S
C2130 C2138 1.378 . S
C2131 C2130 1.367 . S
C2131 C2139 1.433 . S
C2132 H2128 0.929 . S
C2132 C2134 1.378 . S
C2132 C2136 1.350 . S
C2133 C2136 1.463 . S
C2133 C2138 1.350 . S
C2133 N2141 1.427 . S
C2134 H2125 0.930 . S
C2134 C2132 1.378 . S
C2134 C2135 1.367 . S
C2135 C2134 1.367 . S
C2135 C2137 1.433 . S
C2136 C2132 1.350 . S
C2136 C2133 1.463 . S
C2136 N2140 1.427 . S
C2137 H2127 0.929 . S
C2137 C2135 1.433 . S
C2137 N2140 1.384 . S
C2138 H2129 0.929 . S
C2138 C2130 1.378 . S
C2138 C2133 1.350 . S
C2139 H2126 0.929 . S
C2139 C2131 1.433 . S
C2139 N2141 1.384 . S
N2140 C2136 1.427 . S
N2140 C2137 1.384 . S
N2141 C2133 1.427 . S
N2141 C2139 1.384 . S
H2142 C2148 0.930 . S
H2143 C2152 0.930 . S
H2144 C2157 0.929 . S
H2145 C2155 0.929 . S
H2146 C2150 0.929 . S
H2147 C2156 0.929 . S
C2148 H2142 0.930 . S
C2148 C2149 1.367 . S
C2148 C2156 1.378 . S
C2149 C2148 1.367 . S
C2149 C2157 1.433 . S
C2150 H2146 0.929 . S
C2150 C2152 1.378 . S
C2150 C2154 1.350 . S
C2151 C2154 1.463 . S
C2151 C2156 1.350 . S
C2151 N2159 1.427 . S
C2152 H2143 0.930 . S
C2152 C2150 1.378 . S
C2152 C2153 1.367 . S
C2153 C2152 1.367 . S
C2153 C2155 1.433 . S
C2154 C2150 1.350 . S
C2154 C2151 1.463 . S
C2154 N2158 1.427 . S
C2155 H2145 0.929 . S
C2155 C2153 1.433 . S
C2155 N2158 1.384 . S
C2156 H2147 0.929 . S
C2156 C2148 1.378 . S
C2156 C2151 1.350 . S
C2157 H2144 0.929 . S
C2157 C2149 1.433 . S
C2157 N2159 1.384 . S
N2158 C2154 1.427 . S
N2158 C2155 1.384 . S
N2159 C2151 1.427 . S
N2159 C2157 1.384 . S
H2160 C2166 0.930 . S
H2161 C2170 0.930 . S
H2162 C2175 0.929 . S
H2163 C2173 0.929 . S
H2164 C2168 0.929 . S
H2165 C2174 0.929 . S
C2166 H2160 0.930 . S
C2166 C2167 1.367 . S
C2166 C2174 1.378 . S
C2167 C2166 1.367 . S
C2167 C2175 1.433 . S
C2168 H2164 0.929 . S
C2168 C2170 1.378 . S
C2168 C2172 1.350 . S
C2169 C2172 1.463 . S
C2169 C2174 1.350 . S
C2169 N2177 1.427 . S
C2170 H2161 0.930 . S
C2170 C2168 1.378 . S
C2170 C2171 1.367 . S
C2171 C2170 1.367 . S
C2171 C2173 1.433 . S
C2172 C2168 1.350 . S
C2172 C2169 1.463 . S
C2172 N2176 1.427 . S
C2173 H2163 0.929 . S
C2173 C2171 1.433 . S
C2173 N2176 1.384 . S
C2174 H2165 0.929 . S
C2174 C2166 1.378 . S
C2174 C2169 1.350 . S
C2175 H2162 0.929 . S
C2175 C2167 1.433 . S
C2175 N2177 1.384 . S
N2176 C2172 1.427 . S
N2176 C2173 1.384 . S
N2177 C2169 1.427 . S
N2177 C2175 1.384 . S
H2178 C2184 0.930 . S
H2179 C2188 0.930 . S
H2180 C2193 0.929 . S
H2181 C2191 0.929 . S
H2182 C2186 0.929 . S
H2183 C2192 0.929 . S
C2184 H2178 0.930 . S
C2184 C2185 1.367 . S
C2184 C2192 1.378 . S
C2185 C2184 1.367 . S
C2185 C2193 1.433 . S
C2186 H2182 0.929 . S
C2186 C2188 1.378 . S
C2186 C2190 1.350 . S
C2187 C2190 1.463 . S
C2187 C2192 1.350 . S
C2187 N2195 1.427 . S
C2188 H2179 0.930 . S
C2188 C2186 1.378 . S
C2188 C2189 1.367 . S
C2189 C2188 1.367 . S
C2189 C2191 1.433 . S
C2190 C2186 1.350 . S
C2190 C2187 1.463 . S
C2190 N2194 1.427 . S
C2191 H2181 0.929 . S
C2191 C2189 1.433 . S
C2191 N2194 1.384 . S
C2192 H2183 0.929 . S
C2192 C2184 1.378 . S
C2192 C2187 1.350 . S
C2193 H2180 0.929 . S
C2193 C2185 1.433 . S
C2193 N2195 1.384 . S
N2194 C2190 1.427 . S
N2194 C2191 1.384 . S
N2195 C2187 1.427 . S
N2195 C2193 1.384 . S
H2196 C2202 0.930 . S
H2197 C2206 0.930 . S
H2198 C2211 0.929 . S
H2199 C2209 0.929 . S
H2200 C2204 0.929 . S
H2201 C2210 0.929 . S
C2202 H2196 0.930 . S
C2202 C2203 1.367 . S
C2202 C2210 1.378 . S
C2203 C2202 1.367 . S
C2203 C2211 1.433 . S
C2204 H2200 0.929 . S
C2204 C2206 1.378 . S
C2204 C2208 1.350 . S
C2205 C2208 1.463 . S
C2205 C2210 1.350 . S
C2205 N2213 1.427 . S
C2206 H2197 0.930 . S
C2206 C2204 1.378 . S
C2206 C2207 1.367 . S
C2207 C2206 1.367 . S
C2207 C2209 1.433 . S
C2208 C2204 1.350 . S
C2208 C2205 1.463 . S
C2208 N2212 1.427 . S
C2209 H2199 0.929 . S
C2209 C2207 1.433 . S
C2209 N2212 1.384 . S
C2210 H2201 0.929 . S
C2210 C2202 1.378 . S
C2210 C2205 1.350 . S
C2211 H2198 0.929 . S
C2211 C2203 1.433 . S
C2211 N2213 1.384 . S
N2212 C2208 1.427 . S
N2212 C2209 1.384 . S
N2213 C2205 1.427 . S
N2213 C2211 1.384 . S
H2214 C2220 0.930 . S
H2215 C2224 0.930 . S
H2216 C2229 0.929 . S
H2217 C2227 0.929 . S
H2218 C2222 0.929 . S
H2219 C2228 0.929 . S
C2220 H2214 0.930 . S
C2220 C2221 1.367 . S
C2220 C2228 1.378 . S
C2221 C2220 1.367 . S
C2221 C2229 1.433 . S
C2222 H2218 0.929 . S
C2222 C2224 1.378 . S
C2222 C2226 1.350 . S
C2223 C2226 1.463 . S
C2223 C2228 1.350 . S
C2223 N2231 1.427 . S
C2224 H2215 0.930 . S
C2224 C2222 1.378 . S
C2224 C2225 1.367 . S
C2225 C2224 1.367 . S
C2225 C2227 1.433 . S
C2226 C2222 1.350 . S
C2226 C2223 1.463 . S
C2226 N2230 1.427 . S
C2227 H2217 0.929 . S
C2227 C2225 1.433 . S
C2227 N2230 1.384 . S
C2228 H2219 0.929 . S
C2228 C2220 1.378 . S
C2228 C2223 1.350 . S
C2229 H2216 0.929 . S
C2229 C2221 1.433 . S
C2229 N2231 1.384 . S
N2230 C2226 1.427 . S
N2230 C2227 1.384 . S
N2231 C2223 1.427 . S
N2231 C2229 1.384 . S
H2232 C2238 0.930 . S
H2233 C2242 0.930 . S
H2234 C2247 0.929 . S
H2235 C2245 0.929 . S
H2236 C2240 0.929 . S
H2237 C2246 0.929 . S
C2238 H2232 0.930 . S
C2238 C2239 1.367 . S
C2238 C2246 1.378 . S
C2239 C2238 1.367 . S
C2239 C2247 1.433 . S
C2240 H2236 0.929 . S
C2240 C2242 1.378 . S
C2240 C2244 1.350 . S
C2241 C2244 1.463 . S
C2241 C2246 1.350 . S
C2241 N2249 1.427 . S
C2242 H2233 0.930 . S
C2242 C2240 1.378 . S
C2242 C2243 1.367 . S
C2243 C2242 1.367 . S
C2243 C2245 1.433 . S
C2244 C2240 1.350 . S
C2244 C2241 1.463 . S
C2244 N2248 1.427 . S
C2245 H2235 0.929 . S
C2245 C2243 1.433 . S
C2245 N2248 1.384 . S
C2246 H2237 0.929 . S
C2246 C2238 1.378 . S
C2246 C2241 1.350 . S
C2247 H2234 0.929 . S
C2247 C2239 1.433 . S
C2247 N2249 1.384 . S
N2248 C2244 1.427 . S
N2248 C2245 1.384 . S
N2249 C2241 1.427 . S
N2249 C2247 1.384 . S
H2250 C2256 0.930 . S
H2251 C2260 0.930 . S
H2252 C2265 0.929 . S
H2253 C2263 0.929 . S
H2254 C2258 0.929 . S
H2255 C2264 0.929 . S
C2256 H2250 0.930 . S
C2256 C2257 1.367 . S
C2256 C2264 1.378 . S
C2257 C2256 1.367 . S
C2257 C2265 1.433 . S
C2258 H2254 0.929 . S
C2258 C2260 1.378 . S
C2258 C2262 1.350 . S
C2259 C2262 1.463 . S
C2259 C2264 1.350 . S
C2259 N2267 1.427 . S
C2260 H2251 0.930 . S
C2260 C2258 1.378 . S
C2260 C2261 1.367 . S
C2261 C2260 1.367 . S
C2261 C2263 1.433 . S
C2262 C2258 1.350 . S
C2262 C2259 1.463 . S
C2262 N2266 1.427 . S
C2263 H2253 0.929 . S
C2263 C2261 1.433 . S
C2263 N2266 1.384 . S
C2264 H2255 0.929 . S
C2264 C2256 1.378 . S
C2264 C2259 1.350 . S
C2265 H2252 0.929 . S
C2265 C2257 1.433 . S
C2265 N2267 1.384 . S
N2266 C2262 1.427 . S
N2266 C2263 1.384 . S
N2267 C2259 1.427 . S
N2267 C2265 1.384 . S
H2268 C2274 0.930 . S
H2269 C2278 0.930 . S
H2270 C2283 0.929 . S
H2271 C2281 0.929 . S
H2272 C2276 0.929 . S
H2273 C2282 0.929 . S
C2274 H2268 0.930 . S
C2274 C2275 1.367 . S
C2274 C2282 1.378 . S
C2275 C2274 1.367 . S
C2275 C2283 1.433 . S
C2276 H2272 0.929 . S
C2276 C2278 1.378 . S
C2276 C2280 1.350 . S
C2277 C2280 1.463 . S
C2277 C2282 1.350 . S
C2277 N2285 1.427 . S
C2278 H2269 0.930 . S
C2278 C2276 1.378 . S
C2278 C2279 1.367 . S
C2279 C2278 1.367 . S
C2279 C2281 1.433 . S
C2280 C2276 1.350 . S
C2280 C2277 1.463 . S
C2280 N2284 1.427 . S
C2281 H2271 0.929 . S
C2281 C2279 1.433 . S
C2281 N2284 1.384 . S
C2282 H2273 0.929 . S
C2282 C2274 1.378 . S
C2282 C2277 1.350 . S
C2283 H2270 0.929 . S
C2283 C2275 1.433 . S
C2283 N2285 1.384 . S
N2284 C2280 1.427 . S
N2284 C2281 1.384 . S
N2285 C2277 1.427 . S
N2285 C2283 1.384 . S
H2286 C2292 0.930 . S
H2287 C2296 0.930 . S
H2288 C2301 0.929 . S
H2289 C2299 0.929 . S
H2290 C2294 0.929 . S
H2291 C2300 0.929 . S
C2292 H2286 0.930 . S
C2292 C2293 1.367 . S
C2292 C2300 1.378 . S
C2293 C2292 1.367 . S
C2293 C2301 1.433 . S
C2294 H2290 0.929 . S
C2294 C2296 1.378 . S
C2294 C2298 1.350 . S
C2295 C2298 1.463 . S
C2295 C2300 1.350 . S
C2295 N2303 1.427 . S
C2296 H2287 0.930 . S
C2296 C2294 1.378 . S
C2296 C2297 1.367 . S
C2297 C2296 1.367 . S
C2297 C2299 1.433 . S
C2298 C2294 1.350 . S
C2298 C2295 1.463 . S
C2298 N2302 1.427 . S
C2299 H2289 0.929 . S
C2299 C2297 1.433 . S
C2299 N2302 1.384 . S
C2300 H2291 0.929 . S
C2300 C2292 1.378 . S
C2300 C2295 1.350 . S
C2301 H2288 0.929 . S
C2301 C2293 1.433 . S
C2301 N2303 1.384 . S
N2302 C2298 1.427 . S
N2302 C2299 1.384 . S
N2303 C2295 1.427 . S
N2303 C2301 1.384 . S
C1159 C4 1.410 . S
C1163 C148 1.402 . S
C1177 C40 1.401 . S
C1181 C184 1.411 . S
C1195 C220 1.408 . S
C1199 C76 1.403 . S
C1213 C256 1.410 . S
C1217 C112 1.402 . S
C1231 C292 1.410 . S
C1235 C436 1.402 . S
C1249 C328 1.409 . S
C1253 C472 1.403 . S
C1267 C508 1.408 . S
C1271 C364 1.405 . S
C1285 C400 1.402 . S
C1289 C544 1.411 . S
C1303 C724 1.405 . S
C1307 C580 1.408 . S
C1321 C760 1.402 . S
C1325 C616 1.410 . S
C1339 C652 1.404 . S
C1343 C796 1.408 . S
C1357 C832 1.402 . S
C1361 C688 1.411 . S
C1375 C868 1.403 . S
C1379 C1012 1.409 . S
C1393 C1048 1.411 . S
C1397 C904 1.402 . S
C1411 C1084 1.405 . S
C1415 C940 1.407 . S
C1429 C976 1.401 . S
C1433 C1120 1.411 . S
C1447 C3 1.507 . S
C1451 C986 1.465 . S
C1465 C302 1.463 . S
C1469 C39 1.506 . S
C1483 C75 1.504 . S
C1487 C914 1.457 . S
C1501 C111 1.503 . S
C1505 C374 1.460 . S
C1519 C1058 1.453 . S
C1523 C147 1.501 . S
C1537 C518 1.456 . S
C1541 C183 1.501 . S
C1555 C219 1.501 . S
C1559 C1130 1.454 . S
C1573 C255 1.500 . S
C1577 C446 1.453 . S
C1591 C698 1.460 . S
C1595 C291 1.505 . S
C1609 C327 1.501 . S
C1613 C14 1.454 . S
C1627 C626 1.459 . S
C1631 C363 1.504 . S
C1645 C399 1.507 . S
C1649 C86 1.467 . S
C1663 C770 1.462 . S
C1667 C435 1.506 . S
C1681 C471 1.508 . S
C1685 C230 1.468 . S
C1699 C842 1.462 . S
C1703 C507 1.506 . S
C1717 C543 1.505 . S
C1721 C158 1.465 . S
C1735 C410 1.467 . S
C1739 C579 1.508 . S
C1753 C878 1.453 . S
C1757 C615 1.500 . S
C1771 C338 1.465 . S
C1775 C651 1.505 . S
C1789 C687 1.507 . S
C1793 C950 1.467 . S
C1807 C482 1.467 . S
C1811 C723 1.507 . S
C1825 C1094 1.458 . S
C1829 C759 1.504 . S
C1843 C554 1.467 . S
C1847 C795 1.507 . S
C1861 C831 1.502 . S
C1865 C1022 1.459 . S
C1879 C867 1.502 . S
C1883 C122 1.455 . S
C1897 C903 1.500 . S
C1901 C590 1.452 . S
C1915 C939 1.501 . S
C1919 C50 1.453 . S
C1933 C975 1.503 . S
C1937 C662 1.456 . S
C1951 C1011 1.506 . S
C1955 C194 1.465 . S
C1969 C806 1.452 . S
C1973 C1047 1.500 . S
C1987 C266 1.460 . S
C1991 C1083 1.505 . S
C2005 C1119 1.508 . S
C2009 C734 1.466 . S
C2023 C2 1.039 . S
C2027 C254 1.040 . S
C2041 C38 1.039 . S
C2045 C146 1.040 1_556 S
C2059 C74 1.037 1_554 S
C2063 C182 1.045 . S
C2077 C218 1.044 . S
C2081 C110 1.037 . S
C2095 C542 1.040 . S
C2099 C290 1.039 . S
C2113 C434 1.040 1_554 S
C2117 C326 1.040 . S
C2131 C470 1.045 . S
C2135 C362 1.037 1_556 S
C2149 C506 1.039 . S
C2153 C398 1.046 . S
C2167 C578 1.043 1_554 S
C2171 C830 1.037 . S
C2185 C722 1.040 . S
C2189 C614 1.045 . S
C2203 C758 1.046 . S
C2207 C650 1.037 . S
C2221 C794 1.046 1_556 S
C2225 C686 1.037 . S
C2239 C1118 1.037 . S
C2243 C866 1.045 1_556 S
C2257 C902 1.046 . S
C2261 C1010 1.037 . S
C2275 C938 1.040 . S
C2279 C1046 1.039 . S
C2293 C974 1.045 . S
C2297 C1082 1.037 1_554 S
