# Generated by pormake.
# Topology gme, (4)-cn, num edge types: 1
# Building blocks:
#     Node 0, Type 0, BuildingBlock: GALJAG_clean_sbu_0, # of connection points: 4
#     Node 1, Type 0, BuildingBlock: GALJAG_clean_sbu_0, # of connection points: 4
#     Node 2, Type 0, BuildingBlock: GALJAG_clean_sbu_0, # of connection points: 4
#     Node 3, Type 0, BuildingBlock: GALJAG_clean_sbu_0, # of connection points: 4
#     Node 4, Type 0, BuildingBlock: GALJAG_clean_sbu_0, # of connection points: 4
#     Node 5, Type 0, BuildingBlock: GALJAG_clean_sbu_0, # of connection points: 4
#     Node 6, Type 0, BuildingBlock: GALJAG_clean_sbu_0, # of connection points: 4
#     Node 7, Type 0, BuildingBlock: GALJAG_clean_sbu_0, # of connection points: 4
#     Node 8, Type 0, BuildingBlock: GALJAG_clean_sbu_0, # of connection points: 4
#     Node 9, Type 0, BuildingBlock: GALJAG_clean_sbu_0, # of connection points: 4
#     Node 10, Type 0, BuildingBlock: GALJAG_clean_sbu_0, # of connection points: 4
#     Node 11, Type 0, BuildingBlock: GALJAG_clean_sbu_0, # of connection points: 4
#     Node 12, Type 0, BuildingBlock: GALJAG_clean_sbu_0, # of connection points: 4
#     Node 13, Type 0, BuildingBlock: GALJAG_clean_sbu_0, # of connection points: 4
#     Node 14, Type 0, BuildingBlock: GALJAG_clean_sbu_0, # of connection points: 4
#     Node 15, Type 0, BuildingBlock: GALJAG_clean_sbu_0, # of connection points: 4
#     Node 16, Type 0, BuildingBlock: GALJAG_clean_sbu_0, # of connection points: 4
#     Node 17, Type 0, BuildingBlock: GALJAG_clean_sbu_0, # of connection points: 4
#     Node 18, Type 0, BuildingBlock: GALJAG_clean_sbu_0, # of connection points: 4
#     Node 19, Type 0, BuildingBlock: GALJAG_clean_sbu_0, # of connection points: 4
#     Node 20, Type 0, BuildingBlock: GALJAG_clean_sbu_0, # of connection points: 4
#     Node 21, Type 0, BuildingBlock: GALJAG_clean_sbu_0, # of connection points: 4
#     Node 22, Type 0, BuildingBlock: GALJAG_clean_sbu_0, # of connection points: 4
#     Node 23, Type 0, BuildingBlock: GALJAG_clean_sbu_0, # of connection points: 4
#     Edge 24, Type (0, 0), BuildingBlock: AJUNOK_clean_linker_0, # of connection points: 2
#     Edge 25, Type (0, 0), BuildingBlock: AJUNOK_clean_linker_0, # of connection points: 2
#     Edge 26, Type (0, 0), BuildingBlock: AJUNOK_clean_linker_0, # of connection points: 2
#     Edge 27, Type (0, 0), BuildingBlock: AJUNOK_clean_linker_0, # of connection points: 2
#     Edge 28, Type (0, 0), BuildingBlock: AJUNOK_clean_linker_0, # of connection points: 2
#     Edge 29, Type (0, 0), BuildingBlock: AJUNOK_clean_linker_0, # of connection points: 2
#     Edge 30, Type (0, 0), BuildingBlock: AJUNOK_clean_linker_0, # of connection points: 2
#     Edge 31, Type (0, 0), BuildingBlock: AJUNOK_clean_linker_0, # of connection points: 2
#     Edge 32, Type (0, 0), BuildingBlock: AJUNOK_clean_linker_0, # of connection points: 2
#     Edge 33, Type (0, 0), BuildingBlock: AJUNOK_clean_linker_0, # of connection points: 2
#     Edge 34, Type (0, 0), BuildingBlock: AJUNOK_clean_linker_0, # of connection points: 2
#     Edge 35, Type (0, 0), BuildingBlock: AJUNOK_clean_linker_0, # of connection points: 2
#     Edge 36, Type (0, 0), BuildingBlock: AJUNOK_clean_linker_0, # of connection points: 2
#     Edge 37, Type (0, 0), BuildingBlock: AJUNOK_clean_linker_0, # of connection points: 2
#     Edge 38, Type (0, 0), BuildingBlock: AJUNOK_clean_linker_0, # of connection points: 2
#     Edge 39, Type (0, 0), BuildingBlock: AJUNOK_clean_linker_0, # of connection points: 2
#     Edge 40, Type (0, 0), BuildingBlock: AJUNOK_clean_linker_0, # of connection points: 2
#     Edge 41, Type (0, 0), BuildingBlock: AJUNOK_clean_linker_0, # of connection points: 2
#     Edge 42, Type (0, 0), BuildingBlock: AJUNOK_clean_linker_0, # of connection points: 2
#     Edge 43, Type (0, 0), BuildingBlock: AJUNOK_clean_linker_0, # of connection points: 2
#     Edge 44, Type (0, 0), BuildingBlock: AJUNOK_clean_linker_0, # of connection points: 2
#     Edge 45, Type (0, 0), BuildingBlock: AJUNOK_clean_linker_0, # of connection points: 2
#     Edge 46, Type (0, 0), BuildingBlock: AJUNOK_clean_linker_0, # of connection points: 2
#     Edge 47, Type (0, 0), BuildingBlock: AJUNOK_clean_linker_0, # of connection points: 2
#     Edge 48, Type (0, 0), BuildingBlock: AJUNOK_clean_linker_0, # of connection points: 2
#     Edge 49, Type (0, 0), BuildingBlock: AJUNOK_clean_linker_0, # of connection points: 2
#     Edge 50, Type (0, 0), BuildingBlock: AJUNOK_clean_linker_0, # of connection points: 2
#     Edge 51, Type (0, 0), BuildingBlock: AJUNOK_clean_linker_0, # of connection points: 2
#     Edge 52, Type (0, 0), BuildingBlock: AJUNOK_clean_linker_0, # of connection points: 2
#     Edge 53, Type (0, 0), BuildingBlock: AJUNOK_clean_linker_0, # of connection points: 2
#     Edge 54, Type (0, 0), BuildingBlock: AJUNOK_clean_linker_0, # of connection points: 2
#     Edge 55, Type (0, 0), BuildingBlock: AJUNOK_clean_linker_0, # of connection points: 2
#     Edge 56, Type (0, 0), BuildingBlock: AJUNOK_clean_linker_0, # of connection points: 2
#     Edge 57, Type (0, 0), BuildingBlock: AJUNOK_clean_linker_0, # of connection points: 2
#     Edge 58, Type (0, 0), BuildingBlock: AJUNOK_clean_linker_0, # of connection points: 2
#     Edge 59, Type (0, 0), BuildingBlock: AJUNOK_clean_linker_0, # of connection points: 2
#     Edge 60, Type (0, 0), BuildingBlock: AJUNOK_clean_linker_0, # of connection points: 2
#     Edge 61, Type (0, 0), BuildingBlock: AJUNOK_clean_linker_0, # of connection points: 2
#     Edge 62, Type (0, 0), BuildingBlock: AJUNOK_clean_linker_0, # of connection points: 2
#     Edge 63, Type (0, 0), BuildingBlock: AJUNOK_clean_linker_0, # of connection points: 2
#     Edge 64, Type (0, 0), BuildingBlock: AJUNOK_clean_linker_0, # of connection points: 2
#     Edge 65, Type (0, 0), BuildingBlock: AJUNOK_clean_linker_0, # of connection points: 2
#     Edge 66, Type (0, 0), BuildingBlock: AJUNOK_clean_linker_0, # of connection points: 2
#     Edge 67, Type (0, 0), BuildingBlock: AJUNOK_clean_linker_0, # of connection points: 2
#     Edge 68, Type (0, 0), BuildingBlock: AJUNOK_clean_linker_0, # of connection points: 2
#     Edge 69, Type (0, 0), BuildingBlock: AJUNOK_clean_linker_0, # of connection points: 2
#     Edge 70, Type (0, 0), BuildingBlock: AJUNOK_clean_linker_0, # of connection points: 2
#     Edge 71, Type (0, 0), BuildingBlock: AJUNOK_clean_linker_0, # of connection points: 2
# Relax obj value: 0.080
# Max RMSD: 0.062
# Mean RMSD: 0.062
data_MOF--net-gme--node1-GALJAG_clean_sbu_0--edge1-AJUNOK_clean_linker_0
_symmetry_space_group_name_H-M    P1
_symmetry_Int_Tables_number       1
_symmetry_cell_setting            triclinic
loop_
_symmetry_equiv_pos_as_xyz
'x, y, z'
_cell_length_a     42.953739
_cell_length_b     42.959953
_cell_length_c     40.896477
_cell_angle_alpha  90.058217
_cell_angle_beta   90.047372
_cell_angle_gamma 120.04626
loop_
_atom_site_label
_atom_site_type_symbol
_atom_site_fract_x
_atom_site_fract_y
_atom_site_fract_z
_atom_type_partial_charge
In0 In 0.41034 0.07691 0.11746 0.0
O1 O 0.37739 0.0463 0.16338 0.0
O2 O 0.42642 0.09569 0.1692 0.0
C3 C 0.37273 0.039 0.06447 0.0
C4 C 0.40647 0.13706 0.11138 0.0
C5 C 0.47112 0.0735 0.11067 0.0
O6 O 0.3654 0.02577 0.09295 0.0
O7 O 0.39807 0.07107 0.06328 0.0
O8 O 0.46968 0.10166 0.10552 0.0
O9 O 0.44165 0.04672 0.11931 0.0
C10 C 0.39945 0.07018 0.1828 0.0
O11 O 0.43488 0.13595 0.1063 0.0
O12 O 0.37937 0.10726 0.11903 0.0
In13 In 0.33206 0.40858 0.62621 0.0
O14 O 0.30168 0.43936 0.62881 0.0
O15 O 0.27147 0.3828 0.62148 0.0
C16 C 0.39246 0.47321 0.62118 0.0
C17 C 0.33281 0.38329 0.68717 0.0
C18 C 0.33272 0.37528 0.5702 0.0
O19 O 0.36294 0.46978 0.6308 0.0
O20 O 0.39131 0.44401 0.61415 0.0
O21 O 0.33781 0.3656 0.59791 0.0
O22 O 0.32685 0.40119 0.57104 0.0
C23 C 0.27111 0.41182 0.62484 0.0
O24 O 0.36026 0.40825 0.67368 0.0
O25 O 0.30524 0.36977 0.66933 0.0
In26 In 0.92134 0.33119 0.12018 0.0
O27 O 0.95086 0.32316 0.16406 0.0
O28 O 0.92424 0.35298 0.17102 0.0
C29 C 0.95613 0.33051 0.06529 0.0
C30 C 0.86101 0.26637 0.12289 0.0
C31 C 0.91938 0.39182 0.10845 0.0
O32 O 0.97203 0.34107 0.09251 0.0
O33 O 0.92295 0.3196 0.06628 0.0
O34 O 0.8913 0.36129 0.11036 0.0
O35 O 0.94849 0.39157 0.11203 0.0
C36 C 0.94261 0.34071 0.18358 0.0
O37 O 0.86068 0.2951 0.11738 0.0
O38 O 0.89191 0.2704 0.12717 0.0
In39 In 0.58852 0.92426 0.61789 0.0
O40 O 0.56303 0.86351 0.61465 0.0
O41 O 0.61923 0.89417 0.62365 0.0
C42 C 0.52721 0.9247 0.60559 0.0
C43 C 0.59868 0.94243 0.68198 0.0
C44 C 0.62592 0.96062 0.56441 0.0
O45 O 0.52924 0.89638 0.60452 0.0
O46 O 0.55641 0.95296 0.61237 0.0
O47 O 0.63115 0.97542 0.59216 0.0
O48 O 0.60268 0.92766 0.56414 0.0
C49 C 0.59199 0.86345 0.61954 0.0
O50 O 0.62498 0.95304 0.6626 0.0
O51 O 0.56838 0.92323 0.66894 0.0
In52 In 0.66193 0.59422 0.11855 0.0
O53 O 0.67273 0.63397 0.16104 0.0
O54 O 0.64156 0.57784 0.16992 0.0
C55 C 0.6642 0.62899 0.06289 0.0
C56 C 0.72481 0.59485 0.12215 0.0
C57 C 0.5987 0.53365 0.10851 0.0
O58 O 0.654 0.63553 0.08972 0.0
O59 O 0.67409 0.60598 0.06468 0.0
O60 O 0.62832 0.53404 0.10934 0.0
O61 O 0.60121 0.56401 0.11228 0.0
C62 C 0.65542 0.60914 0.18148 0.0
O63 O 0.69527 0.56662 0.11645 0.0
O64 O 0.72256 0.62281 0.12596 0.0
In65 In 0.06591 0.6652 0.61897 0.0
O66 O 0.03812 0.67295 0.66436 0.0
O67 O 0.07125 0.64971 0.67033 0.0
C68 C 0.02864 0.66527 0.56578 0.0
C69 C 0.12691 0.72928 0.61727 0.0
C70 C 0.06395 0.60247 0.60791 0.0
O71 O 0.01411 0.6558 0.59363 0.0
O72 O 0.06173 0.67564 0.56541 0.0
O73 O 0.09283 0.63242 0.60778 0.0
O74 O 0.03595 0.60431 0.61327 0.0
C75 C 0.05153 0.65989 0.68379 0.0
O76 O 0.12577 0.70006 0.61055 0.0
O77 O 0.09702 0.7262 0.62493 0.0
In78 In 0.92002 0.58881 0.38715 0.0
O79 O 0.94834 0.62692 0.34336 0.0
O80 O 0.92653 0.57083 0.33704 0.0
C81 C 0.95272 0.62525 0.44238 0.0
C82 C 0.85769 0.58916 0.38215 0.0
C83 C 0.92018 0.52754 0.40017 0.0
O84 O 0.96928 0.63116 0.41552 0.0
O85 O 0.91986 0.60192 0.44085 0.0
O86 O 0.89157 0.52893 0.39775 0.0
O87 O 0.9488 0.55735 0.39648 0.0
C88 C 0.94282 0.60151 0.32425 0.0
O89 O 0.85909 0.56091 0.38697 0.0
O90 O 0.88793 0.61745 0.37979 0.0
In91 In 0.33141 0.92176 0.8901 0.0
O92 O 0.29724 0.86217 0.89927 0.0
O93 O 0.27028 0.89015 0.88484 0.0
C94 C 0.39547 0.92612 0.89997 0.0
C95 C 0.33449 0.93301 0.82479 0.0
C96 C 0.33029 0.95829 0.94352 0.0
O97 O 0.36595 0.89703 0.90243 0.0
O98 O 0.39258 0.95317 0.89295 0.0
O99 O 0.33909 0.97292 0.91563 0.0
O100 O 0.32125 0.92554 0.94383 0.0
C101 C 0.26775 0.8605 0.89265 0.0
O102 O 0.32606 0.95059 0.84422 0.0
O103 O 0.34126 0.91087 0.83856 0.0
In104 In 0.40807 0.33575 0.39485 0.0
O105 O 0.43359 0.30216 0.4061 0.0
O106 O 0.37902 0.27457 0.39025 0.0
C107 C 0.46878 0.39927 0.40428 0.0
C108 C 0.3991 0.33659 0.32941 0.0
C109 C 0.36986 0.3354 0.44743 0.0
O110 O 0.46736 0.36939 0.40749 0.0
O111 O 0.43924 0.3971 0.39672 0.0
O112 O 0.36628 0.3465 0.41981 0.0
O113 O 0.39158 0.32383 0.44782 0.0
C114 C 0.40605 0.27245 0.39934 0.0
O115 O 0.37333 0.3289 0.34889 0.0
O116 O 0.42818 0.34382 0.34319 0.0
In117 In 0.0705 0.40756 0.88941 0.0
O118 O 0.13148 0.4366 0.89228 0.0
O119 O 0.10395 0.37999 0.88539 0.0
C120 C 0.06847 0.468 0.90182 0.0
C121 C 0.05293 0.39582 0.8251 0.0
C122 C 0.03371 0.36984 0.94272 0.0
O123 O 0.09713 0.46662 0.903 0.0
O124 O 0.04062 0.43858 0.89471 0.0
O125 O 0.01915 0.3647 0.91487 0.0
O126 O 0.06673 0.39284 0.94311 0.0
C127 C 0.13376 0.40867 0.88862 0.0
O128 O 0.04495 0.37004 0.84454 0.0
O129 O 0.06882 0.42638 0.8383 0.0
In130 In 0.66625 0.07079 0.38624 0.0
O131 O 0.69787 0.13151 0.39041 0.0
O132 O 0.72713 0.105 0.37949 0.0
C133 C 0.60312 0.06848 0.39556 0.0
C134 C 0.6593 0.04932 0.32312 0.0
C135 C 0.66781 0.03695 0.44146 0.0
O136 O 0.63284 0.0976 0.39461 0.0
O137 O 0.60541 0.04044 0.39242 0.0
O138 O 0.65822 0.02094 0.41423 0.0
O139 O 0.67752 0.06984 0.4403 0.0
C140 C 0.72806 0.13444 0.38473 0.0
O141 O 0.67853 0.04366 0.34293 0.0
O142 O 0.64451 0.06557 0.33519 0.0
In143 In 0.59069 0.66161 0.88242 0.0
O144 O 0.633 0.67781 0.84166 0.0
O145 O 0.5792 0.63799 0.83119 0.0
C146 C 0.62531 0.66246 0.93793 0.0
C147 C 0.59139 0.72469 0.88031 0.0
C148 C 0.52799 0.5997 0.89002 0.0
O149 O 0.63156 0.65273 0.91076 0.0
O150 O 0.60222 0.6723 0.93678 0.0
O151 O 0.52941 0.62928 0.88412 0.0
O152 O 0.55825 0.60161 0.89219 0.0
C153 C 0.61081 0.6568 0.82075 0.0
O154 O 0.56332 0.69527 0.88663 0.0
O155 O 0.61892 0.72211 0.87504 0.0
In156 In 0.58972 0.92165 0.88655 0.0
O157 O 0.62595 0.95166 0.8422 0.0
O158 O 0.56932 0.92072 0.83573 0.0
C159 C 0.62684 0.95502 0.94126 0.0
C160 C 0.59152 0.86002 0.88304 0.0
C161 C 0.53025 0.92555 0.89862 0.0
O162 O 0.63308 0.9711 0.9141 0.0
O163 O 0.60298 0.9223 0.94023 0.0
O164 O 0.53018 0.89608 0.89831 0.0
O165 O 0.56055 0.95301 0.89339 0.0
C166 C 0.59948 0.94078 0.82286 0.0
O167 O 0.56347 0.86091 0.89052 0.0
O168 O 0.61874 0.89037 0.87744 0.0
In169 In 0.66379 0.59666 0.38511 0.0
O170 O 0.67716 0.63548 0.34137 0.0
O171 O 0.63918 0.58022 0.33488 0.0
C172 C 0.66717 0.63425 0.4393 0.0
C173 C 0.72464 0.59346 0.38072 0.0
C174 C 0.60262 0.53544 0.39919 0.0
O175 O 0.65434 0.63774 0.41266 0.0
O176 O 0.67927 0.61299 0.43798 0.0
O177 O 0.63305 0.53761 0.39895 0.0
O178 O 0.60315 0.56443 0.39261 0.0
C179 C 0.65619 0.61087 0.32208 0.0
O180 O 0.69395 0.56598 0.38378 0.0
O181 O 0.72468 0.62286 0.37968 0.0
In182 In 0.0679 0.66432 0.89033 0.0
O183 O 0.128 0.69655 0.89776 0.0
O184 O 0.10163 0.72545 0.88478 0.0
C185 C 0.06689 0.60218 0.90212 0.0
C186 C 0.0524 0.65933 0.82563 0.0
C187 C 0.03037 0.66494 0.94315 0.0
O188 O 0.09526 0.63247 0.9031 0.0
O189 O 0.0387 0.60323 0.89544 0.0
O190 O 0.01578 0.65418 0.91546 0.0
O191 O 0.06367 0.67644 0.94354 0.0
C192 C 0.13088 0.72665 0.89175 0.0
O193 O 0.04157 0.67469 0.84521 0.0
O194 O 0.07013 0.6467 0.83891 0.0
In195 In 0.4099 0.07734 0.38991 0.0
O196 O 0.43514 0.13621 0.40233 0.0
O197 O 0.37967 0.10838 0.38907 0.0
C198 C 0.46943 0.07157 0.39532 0.0
C199 C 0.39856 0.07085 0.32461 0.0
C200 C 0.37295 0.04126 0.44361 0.0
O201 O 0.46966 0.10077 0.39942 0.0
O202 O 0.43898 0.04507 0.38849 0.0
O203 O 0.36434 0.02741 0.41534 0.0
O204 O 0.39943 0.07274 0.44422 0.0
C205 C 0.4069 0.13776 0.39757 0.0
O206 O 0.37681 0.04671 0.34394 0.0
O207 O 0.42527 0.09666 0.33832 0.0
In208 In 0.32875 0.40283 0.88958 0.0
O209 O 0.29924 0.43462 0.88854 0.0
O210 O 0.26805 0.37756 0.88951 0.0
C211 C 0.39134 0.46528 0.89447 0.0
C212 C 0.3311 0.37982 0.82795 0.0
C213 C 0.32743 0.36941 0.94611 0.0
O214 O 0.36202 0.46413 0.88771 0.0
O215 O 0.38869 0.43497 0.89914 0.0
O216 O 0.33186 0.35872 0.91863 0.0
O217 O 0.32317 0.3963 0.94475 0.0
C218 C 0.26828 0.40702 0.88887 0.0
O219 O 0.35761 0.40547 0.84189 0.0
O220 O 0.30353 0.36426 0.84568 0.0
In221 In 0.9254 0.33363 0.38831 0.0
O222 O 0.95072 0.32199 0.34314 0.0
O223 O 0.93064 0.35779 0.33819 0.0
C224 C 0.96252 0.33319 0.44175 0.0
C225 C 0.86273 0.27074 0.38656 0.0
C226 C 0.92314 0.39401 0.40072 0.0
O227 O 0.97725 0.34392 0.41416 0.0
O228 O 0.9292 0.32161 0.44181 0.0
O229 O 0.89523 0.36342 0.39846 0.0
O230 O 0.95238 0.39402 0.39714 0.0
C231 C 0.94537 0.3423 0.3245 0.0
O232 O 0.86483 0.3004 0.39309 0.0
O233 O 0.89255 0.27268 0.38086 0.0
In234 In 0.07255 0.41032 0.61978 0.0
O235 O 0.13363 0.44011 0.61855 0.0
O236 O 0.10638 0.38333 0.62425 0.0
C237 C 0.06753 0.46925 0.6081 0.0
C238 C 0.0537 0.3972 0.68366 0.0
C239 C 0.03927 0.37355 0.56485 0.0
O240 O 0.09721 0.46977 0.60826 0.0
O241 O 0.04033 0.43876 0.61343 0.0
O242 O 0.02325 0.36689 0.59208 0.0
O243 O 0.07186 0.39776 0.56588 0.0
C244 C 0.1361 0.41226 0.62203 0.0
O245 O 0.04546 0.37179 0.66362 0.0
O246 O 0.07039 0.42807 0.67121 0.0
In247 In 0.66468 0.06652 0.11931 0.0
O248 O 0.67736 0.04073 0.16342 0.0
O249 O 0.64143 0.06053 0.16986 0.0
C250 C 0.66479 0.03055 0.06493 0.0
C251 C 0.72783 0.12883 0.12205 0.0
C252 C 0.60367 0.0682 0.1089 0.0
O253 O 0.65506 0.01543 0.09247 0.0
O254 O 0.67521 0.06363 0.06528 0.0
O255 O 0.63442 0.09612 0.10867 0.0
O256 O 0.60379 0.03921 0.11382 0.0
C257 C 0.65727 0.0457 0.18269 0.0
O258 O 0.69818 0.12743 0.1171 0.0
O259 O 0.72564 0.09863 0.12562 0.0
In260 In 0.59454 0.66687 0.62017 0.0
O261 O 0.59444 0.63467 0.66462 0.0
O262 O 0.63066 0.69052 0.66552 0.0
C263 C 0.62813 0.66762 0.56405 0.0
C264 C 0.59465 0.72953 0.62056 0.0
C265 C 0.52854 0.6081 0.61645 0.0
O266 O 0.63765 0.66171 0.59149 0.0
O267 O 0.60217 0.67337 0.56524 0.0
O268 O 0.53377 0.63759 0.62816 0.0
O269 O 0.55655 0.60864 0.60624 0.0
C270 C 0.61755 0.66118 0.68069 0.0
O271 O 0.56592 0.69945 0.61972 0.0
O272 O 0.62308 0.72777 0.62116 0.0
In273 In 0.9195 0.58859 0.12067 0.0
O274 O 0.85871 0.56309 0.11795 0.0
O275 O 0.88923 0.6189 0.12871 0.0
C276 C 0.91839 0.52645 0.10863 0.0
C277 C 0.94175 0.60104 0.18375 0.0
C278 C 0.95337 0.6247 0.0658 0.0
O279 O 0.89008 0.52835 0.11122 0.0
O280 O 0.94731 0.55614 0.11169 0.0
O281 O 0.96957 0.63019 0.09286 0.0
O282 O 0.92035 0.60186 0.06691 0.0
C283 C 0.85854 0.5918 0.12408 0.0
O284 O 0.94895 0.62662 0.16431 0.0
O285 O 0.92387 0.57025 0.17129 0.0
In286 In 0.32907 0.92223 0.61688 0.0
O287 O 0.32609 0.95188 0.66322 0.0
O288 O 0.33871 0.91022 0.66814 0.0
C289 C 0.32992 0.96063 0.56426 0.0
C290 C 0.26354 0.86316 0.61486 0.0
C291 C 0.39161 0.92367 0.60604 0.0
O292 O 0.3381 0.9743 0.59259 0.0
O293 O 0.32031 0.92773 0.56308 0.0
O294 O 0.36137 0.89548 0.60298 0.0
O295 O 0.39022 0.95129 0.61429 0.0
C296 C 0.3335 0.93326 0.68229 0.0
O297 O 0.29199 0.8628 0.60797 0.0
O298 O 0.2681 0.89369 0.62245 0.0
In299 In 0.40481 0.3336 0.12127 0.0
O300 O 0.37096 0.32672 0.16783 0.0
O301 O 0.42615 0.34263 0.1726 0.0
C302 C 0.3647 0.33129 0.06943 0.0
C303 C 0.40431 0.27109 0.11591 0.0
C304 C 0.46412 0.39786 0.11041 0.0
O305 O 0.36184 0.34306 0.09698 0.0
O306 O 0.38668 0.32005 0.06876 0.0
O307 O 0.46394 0.36847 0.10836 0.0
O308 O 0.43413 0.39477 0.11759 0.0
C309 C 0.39729 0.33515 0.18687 0.0
O310 O 0.43136 0.30116 0.10918 0.0
O311 O 0.37705 0.27247 0.12556 0.0
C312 C 0.3765 0.03755 0.27099 0.0
C313 C 0.39415 0.0701 0.28861 0.0
C314 C 0.37677 0.03738 0.23647 0.0
C315 C 0.39474 0.06975 0.21873 0.0
H316 H 0.36378 0.01213 0.28388 0.0
H317 H 0.36423 0.01184 0.22371 0.0
S318 S 0.43933 0.16206 0.2534 0.0
N319 N 0.42598 0.13539 0.28559 0.0
N320 N 0.42653 0.13506 0.22136 0.0
C321 C 0.4104 0.10234 0.23618 0.0
C322 C 0.41009 0.10251 0.27097 0.0
C323 C 0.36414 0.39261 0.74072 0.0
C324 C 0.33209 0.37504 0.72248 0.0
C325 C 0.36371 0.3917 0.77495 0.0
C326 C 0.33121 0.37315 0.79237 0.0
H327 H 0.38971 0.40885 0.72857 0.0
H328 H 0.38896 0.40728 0.78784 0.0
S329 S 0.24021 0.31855 0.75617 0.0
N330 N 0.26722 0.33523 0.72433 0.0
N331 N 0.26643 0.33354 0.78874 0.0
C332 C 0.29921 0.35305 0.77445 0.0
C333 C 0.29964 0.354 0.73948 0.0
C334 C 0.95281 0.31766 0.23665 0.0
C335 C 0.95086 0.34474 0.21899 0.0
C336 C 0.9534 0.31802 0.2711 0.0
C337 C 0.95215 0.34552 0.28879 0.0
H338 H 0.95165 0.29498 0.22391 0.0
H339 H 0.95271 0.29561 0.28386 0.0
S340 S 0.95382 0.42602 0.25368 0.0
N341 N 0.95264 0.40213 0.22159 0.0
N342 N 0.95398 0.40298 0.28589 0.0
C343 C 0.95317 0.37415 0.27123 0.0
C344 C 0.95245 0.37371 0.23641 0.0
C345 C 0.63249 0.95391 0.73501 0.0
C346 C 0.60212 0.94925 0.71764 0.0
C347 C 0.63271 0.95353 0.76946 0.0
C348 C 0.60256 0.94847 0.78739 0.0
H349 H 0.6553 0.95575 0.72198 0.0
H350 H 0.65567 0.95507 0.782 0.0
S351 S 0.51936 0.94197 0.75343 0.0
N352 N 0.54337 0.94447 0.72101 0.0
N353 N 0.54379 0.94376 0.78531 0.0
C354 C 0.57334 0.94666 0.77023 0.0
C355 C 0.57312 0.94705 0.73544 0.0
C356 C 0.62538 0.58751 0.26895 0.0
C357 C 0.65356 0.61567 0.28655 0.0
C358 C 0.6252 0.58707 0.23483 0.0
C359 C 0.65309 0.61484 0.21681 0.0
H360 H 0.60401 0.56464 0.2816 0.0
H361 H 0.60374 0.56389 0.22249 0.0
S362 S 0.73106 0.69686 0.25093 0.0
N363 N 0.70852 0.67376 0.28343 0.0
N364 N 0.70804 0.67295 0.21886 0.0
C365 C 0.68009 0.64455 0.2339 0.0
C366 C 0.68036 0.64496 0.26892 0.0
C367 C 0.05661 0.63586 0.73737 0.0
C368 C 0.04653 0.6575 0.71974 0.0
C369 C 0.05683 0.63573 0.77149 0.0
C370 C 0.04706 0.65731 0.78968 0.0
H371 H 0.06535 0.61939 0.72473 0.0
H372 H 0.06574 0.61915 0.78366 0.0
S373 S 0.01588 0.71698 0.75546 0.0
N374 N 0.02437 0.69958 0.72294 0.0
N375 N 0.02487 0.69943 0.78754 0.0
C376 C 0.03526 0.6779 0.77251 0.0
C377 C 0.03497 0.67797 0.73744 0.0
C378 C 0.9513 0.63425 0.23677 0.0
C379 C 0.95026 0.60561 0.21908 0.0
C380 C 0.95158 0.63437 0.27121 0.0
C381 C 0.95087 0.60588 0.28882 0.0
H382 H 0.9495 0.6554 0.22405 0.0
H383 H 0.94997 0.65561 0.284 0.0
S384 S 0.9554 0.52853 0.25374 0.0
N385 N 0.95385 0.55097 0.22164 0.0
N386 N 0.95451 0.55124 0.28597 0.0
C387 C 0.95304 0.57886 0.27128 0.0
C388 C 0.95268 0.57871 0.23648 0.0
C389 C 0.34559 0.91485 0.77037 0.0
C390 C 0.33558 0.93624 0.78858 0.0
C391 C 0.34538 0.91493 0.73627 0.0
C392 C 0.33519 0.93642 0.71851 0.0
H393 H 0.3533 0.89731 0.7825 0.0
H394 H 0.35294 0.89745 0.72377 0.0
S395 S 0.30825 -0.00111 0.75417 0.0
N396 N 0.31636 0.9807 0.78629 0.0
N397 N 0.316 0.98087 0.72169 0.0
C398 C 0.32591 0.95874 0.73621 0.0
C399 C 0.32609 0.95864 0.77132 0.0
C400 C 0.42744 0.3446 0.27494 0.0
C401 C 0.39658 0.33658 0.29319 0.0
C402 C 0.427 0.34422 0.24086 0.0
C403 C 0.39567 0.3358 0.22313 0.0
H404 H 0.45244 0.35107 0.28702 0.0
H405 H 0.45167 0.35042 0.22836 0.0
S406 S 0.3076 0.31372 0.2589 0.0
N407 N 0.3337 0.32059 0.29099 0.0
N408 N 0.33286 0.31988 0.22638 0.0
C409 C 0.36452 0.32805 0.24087 0.0
C410 C 0.36498 0.32845 0.27597 0.0
C411 C 0.05061 0.42207 0.73752 0.0
C412 C 0.04708 0.39266 0.71936 0.0
C413 C 0.05047 0.42176 0.77165 0.0
C414 C 0.04681 0.39202 0.78927 0.0
H415 H 0.05479 0.44623 0.72528 0.0
H416 H 0.05454 0.44568 0.78432 0.0
S417 S 0.03349 0.30678 0.75353 0.0
N418 N 0.0372 0.3318 0.72146 0.0
N419 N 0.03694 0.33119 0.78605 0.0
C420 C 0.04111 0.36148 0.77157 0.0
C421 C 0.04124 0.3618 0.7365 0.0
C422 C 0.68426 0.04129 0.27023 0.0
C423 C 0.65569 0.04035 0.28791 0.0
C424 C 0.68372 0.04035 0.23579 0.0
C425 C 0.65458 0.0384 0.21821 0.0
H426 H 0.70808 0.04513 0.28291 0.0
H427 H 0.70716 0.04352 0.22293 0.0
S428 S 0.57033 0.02806 0.25342 0.0
N429 N 0.59546 0.03207 0.28547 0.0
N430 N 0.59442 0.03025 0.22117 0.0
C431 C 0.62468 0.03431 0.23581 0.0
C432 C 0.62524 0.0353 0.27058 0.0
C433 C 0.59965 0.62682 0.73283 0.0
C434 C 0.62294 0.65883 0.71618 0.0
C435 C 0.59766 0.62586 0.76698 0.0
C436 C 0.61935 0.65664 0.78582 0.0
H437 H 0.58103 0.60286 0.71942 0.0
H438 H 0.57774 0.60123 0.77865 0.0
S439 S 0.68857 0.7457 0.7545 0.0
N440 N 0.67093 0.72109 0.7213 0.0
N441 N 0.66759 0.71897 0.78571 0.0
C442 C 0.645 0.68794 0.76973 0.0
C443 C 0.6467 0.68911 0.73482 0.0
C444 C 0.37489 0.17189 0.12068 0.0
C445 C 0.4057 0.17107 0.11033 0.0
C446 C 0.37447 0.20429 0.12203 0.0
C447 C 0.40484 0.23703 0.11305 0.0
H448 H 0.35109 0.14743 0.12838 0.0
H449 H 0.35031 0.20367 0.13059 0.0
S450 S 0.49168 0.24919 0.08256 0.0
N451 N 0.46691 0.20568 0.08972 0.0
N452 N 0.46614 0.26642 0.09224 0.0
C453 C 0.43554 0.23645 0.10194 0.0
C454 C 0.43597 0.20352 0.10058 0.0
C455 C 0.17164 0.38084 0.62186 0.0
C456 C 0.17097 0.41321 0.62303 0.0
C457 C 0.20417 0.38077 0.62239 0.0
C458 C 0.23732 0.41305 0.62431 0.0
H459 H 0.14684 0.35527 0.62031 0.0
H460 H 0.20324 0.35512 0.62134 0.0
S461 S 0.25034 0.50514 0.62859 0.0
N462 N 0.20632 0.47848 0.62654 0.0
N463 N 0.26752 0.47832 0.62774 0.0
C464 C 0.23709 0.44565 0.62572 0.0
C465 C 0.20391 0.44573 0.62501 0.0
C466 C 0.7943 0.22882 0.11853 0.0
C467 C 0.82767 0.23089 0.12358 0.0
C468 C 0.76226 0.19572 0.1183 0.0
C469 C 0.76227 0.16331 0.12309 0.0
H470 H 0.79282 0.25297 0.11454 0.0
H471 H 0.7373 0.19561 0.11414 0.0
S472 S 0.84246 0.15392 0.13789 0.0
N473 N 0.85881 0.19762 0.13391 0.0
N474 N 0.79849 0.13531 0.13346 0.0
C475 C 0.79541 0.16492 0.12844 0.0
C476 C 0.82812 0.19872 0.12869 0.0
C477 C 0.56232 0.7642 0.61803 0.0
C478 C 0.5949 0.76408 0.62065 0.0
C479 C 0.56171 0.79648 0.61773 0.0
C480 C 0.59365 0.82989 0.62017 0.0
H481 H 0.53701 0.73918 0.61606 0.0
H482 H 0.53594 0.79515 0.61559 0.0
S483 S 0.68611 0.84437 0.62773 0.0
N484 N 0.66 0.80027 0.62585 0.0
N485 N 0.65882 0.86092 0.62539 0.0
C486 C 0.62644 0.83019 0.62295 0.0
C487 C 0.62707 0.7973 0.62316 0.0
C488 C 0.75972 0.56294 0.1178 0.0
C489 C 0.75928 0.59497 0.12371 0.0
C490 C 0.79191 0.56219 0.11833 0.0
C491 C 0.82496 0.59344 0.12481 0.0
H492 H 0.73502 0.53818 0.11246 0.0
H493 H 0.79082 0.53689 0.11336 0.0
S494 S 0.83843 0.6841 0.14282 0.0
N495 N 0.79469 0.65867 0.13694 0.0
N496 N 0.85525 0.65726 0.13795 0.0
C497 C 0.82492 0.62561 0.13117 0.0
C498 C 0.79208 0.62638 0.13061 0.0
C499 C 0.22557 0.79719 0.60599 0.0
C500 C 0.22797 0.82997 0.61481 0.0
C501 C 0.19273 0.76496 0.6067 0.0
C502 C 0.16089 0.76414 0.61625 0.0
H503 H 0.24933 0.79626 0.59867 0.0
H504 H 0.19243 0.74045 0.59984 0.0
S505 S 0.15238 0.84266 0.64118 0.0
N506 N 0.19555 0.8598 0.63302 0.0
N507 N 0.13362 0.79903 0.63434 0.0
C508 C 0.16273 0.79674 0.62483 0.0
C509 C 0.1963 0.8297 0.62411 0.0
C510 C 0.82369 0.62215 0.37817 0.0
C511 C 0.82337 0.58932 0.38037 0.0
C512 C 0.79161 0.6232 0.37782 0.0
C513 C 0.75801 0.59145 0.3796 0.0
H514 H 0.84892 0.64736 0.37715 0.0
H515 H 0.79325 0.64916 0.37653 0.0
S516 S 0.74238 0.49834 0.38413 0.0
N517 N 0.78655 0.52413 0.38324 0.0
N518 N 0.72631 0.52607 0.38254 0.0
C519 C 0.75727 0.55836 0.38115 0.0
C520 C 0.78994 0.5573 0.38155 0.0
C521 C 0.16812 0.7932 0.88386 0.0
C522 C 0.16587 0.76051 0.89276 0.0
C523 C 0.20113 0.82549 0.88415 0.0
C524 C 0.23308 0.82628 0.89339 0.0
H525 H 0.14427 0.79386 0.87637 0.0
H526 H 0.2016 0.84995 0.87684 0.0
S527 S 0.24156 0.74815 0.91982 0.0
N528 N 0.19838 0.73104 0.91176 0.0
N529 N 0.26025 0.79158 0.91233 0.0
C530 C 0.23113 0.79383 0.9027 0.0
C531 C 0.19757 0.76099 0.90238 0.0
C532 C 0.37614 0.17355 0.38948 0.0
C533 C 0.40632 0.17179 0.40029 0.0
C534 C 0.37598 0.20609 0.38982 0.0
C535 C 0.40597 0.23802 0.40101 0.0
H536 H 0.35272 0.14979 0.38005 0.0
H537 H 0.3524 0.2063 0.38069 0.0
S538 S 0.49073 0.24727 0.43418 0.0
N539 N 0.46627 0.20442 0.42413 0.0
N540 N 0.46596 0.26545 0.42479 0.0
C541 C 0.43592 0.2364 0.41278 0.0
C542 C 0.43609 0.20332 0.41241 0.0
C543 C 0.20134 0.37651 0.88667 0.0
C544 C 0.23466 0.40862 0.88858 0.0
C545 C 0.16894 0.37686 0.88654 0.0
C546 C 0.16854 0.40934 0.88844 0.0
H547 H 0.20016 0.35076 0.88524 0.0
H548 H 0.14401 0.3514 0.88508 0.0
S549 S 0.24848 0.50097 0.89376 0.0
N550 N 0.26533 0.47388 0.89228 0.0
N551 N 0.2044 0.47459 0.89216 0.0
C552 C 0.20167 0.44171 0.89031 0.0
C553 C 0.23473 0.44135 0.89034 0.0
C554 C 0.79477 0.17128 0.37763 0.0
C555 C 0.76191 0.16953 0.38484 0.0
C556 C 0.82724 0.20412 0.37812 0.0
C557 C 0.82807 0.23644 0.38588 0.0
H558 H 0.7955 0.1471 0.37162 0.0
H559 H 0.85187 0.20411 0.37246 0.0
S560 S 0.74939 0.24652 0.40663 0.0
N561 N 0.7322 0.20308 0.39993 0.0
N562 N 0.79309 0.26466 0.40088 0.0
C563 C 0.79537 0.2351 0.39304 0.0
C564 C 0.76234 0.20169 0.39251 0.0
C565 C 0.56119 0.7608 0.88891 0.0
C566 C 0.59208 0.75946 0.87992 0.0
C567 C 0.56127 0.79342 0.88964 0.0
C568 C 0.59225 0.82599 0.8814 0.0
H569 H 0.53674 0.73649 0.89572 0.0
H570 H 0.53686 0.79305 0.89696 0.0
S571 S 0.67989 0.837 0.85501 0.0
N572 N 0.65432 0.79347 0.86178 0.0
N573 N 0.65447 0.85479 0.86317 0.0
C574 C 0.62325 0.82502 0.87198 0.0
C575 C 0.62317 0.79176 0.87123 0.0
C576 C 0.35587 0.01629 0.97425 0.0
C577 C 0.33494 0.9786 0.9742 0.0
C578 C 0.36631 0.03569 1.00366 0.0
C579 C 0.35611 0.01818 0.03418 0.0
H580 H 0.36587 0.03086 0.95151 0.0
H581 H 0.3838 0.06457 1.00241 0.0
S582 S 0.29686 0.92021 0.04724 0.0
N583 N 0.30102 0.9247 0.00714 0.0
N584 N 0.32066 0.96124 0.06235 0.0
C585 C 0.33305 0.98073 0.03441 0.0
C586 C 0.32249 0.96093 0.00444 0.0
C587 C 0.34174 0.36468 0.47918 0.0
C588 C 0.3542 0.34007 0.47801 0.0
C589 C 0.33323 0.37462 0.50907 0.0
C590 C 0.33671 0.3602 0.53889 0.0
H591 H 0.34033 0.37782 0.45708 0.0
H592 H 0.32525 0.39488 0.50885 0.0
S593 S 0.36311 0.29065 0.54853 0.0
N594 N 0.36582 0.2985 0.50883 0.0
N595 N 0.34976 0.31714 0.56492 0.0
C596 C 0.34676 0.33372 0.53781 0.0
C597 C 0.35552 0.32367 0.50739 0.0
C598 C 0.03176 0.36372 1.00352 0.0
C599 C 0.01343 0.35403 0.97335 0.0
C600 C 0.01308 0.35424 0.03326 0.0
C601 C 0.9753 0.33472 0.03401 0.0
H602 H 0.06082 0.38012 0.00427 0.0
H603 H 0.02837 0.36372 0.05574 0.0
S604 S 0.91466 0.29859 0.96197 0.0
N605 N 0.95544 0.32069 0.94617 0.0
N606 N 0.92025 0.30277 1.00199 0.0
C607 C 0.95669 0.32282 1.00408 0.0
C608 C 0.97575 0.33247 0.97376 0.0
C609 C 0.6432 0.98026 0.47389 0.0
C610 C 0.66322 0.01801 0.47289 0.0
C611 C 0.63291 0.96189 0.50374 0.0
C612 C 0.6423 0.98052 0.53377 0.0
H613 H 0.63385 0.9648 0.45148 0.0
H614 H 0.61614 0.93287 0.50317 0.0
S615 S 0.69903 0.07923 0.54456 0.0
N616 N 0.69545 0.07327 0.50455 0.0
N617 N 0.67605 0.03865 0.56063 0.0
C618 C 0.66442 0.01811 0.53315 0.0
C619 C 0.67488 0.03686 0.50271 0.0
C620 C 0.63946 0.66002 0.02912 0.0
C621 C 0.66018 0.6431 0.03113 0.0
C622 C 0.62983 0.66782 0.99876 0.0
C623 C 0.64063 0.65909 0.96929 0.0
H624 H 0.62908 0.66571 0.05106 0.0
H625 H 0.61252 0.67945 0.99848 0.0
S626 S 0.69954 0.61928 0.96132 0.0
N627 N 0.69447 0.62137 1.00112 0.0
N628 N 0.67636 0.63605 0.94411 0.0
C629 C 0.66339 0.6444 0.97098 0.0
C630 C 0.67316 0.6364 1.00191 0.0
C631 C 0.02708 0.67043 0.50512 0.0
C632 C 0.00837 0.66044 0.53504 0.0
C633 C 0.0088 0.66079 0.47515 0.0
C634 C 0.97105 0.64072 0.47392 0.0
H635 H 0.05622 0.68451 0.50472 0.0
H636 H 0.02446 0.66768 0.45287 0.0
S637 S 0.90927 0.61216 0.5452 0.0
N638 N 0.9499 0.63259 0.56153 0.0
N639 N 0.91542 0.61449 0.50523 0.0
C640 C 0.95194 0.6327 0.50361 0.0
C641 C 0.97061 0.64256 0.53418 0.0
C642 C 0.66019 0.01152 0.974 0.0
C643 C 0.6422 0.97377 0.97265 0.0
C644 C 0.66913 0.02971 1.00405 0.0
C645 C 0.6605 0.01087 0.03391 0.0
H646 H 0.66582 0.02713 0.95178 0.0
H647 H 0.68151 0.05874 1.0038 0.0
S648 S 0.61826 0.91205 0.04361 0.0
N649 N 0.61967 0.91829 1.00369 0.0
N650 N 0.63646 0.95253 0.0601 0.0
C651 C 0.6448 0.97327 0.03286 0.0
C652 C 0.63565 0.95472 1.00224 0.0
C653 C 0.63956 0.66265 0.47277 0.0
C654 C 0.66322 0.64908 0.47068 0.0
C655 C 0.62979 0.67026 0.50311 0.0
C656 C 0.64341 0.66473 0.53252 0.0
H657 H 0.62696 0.66565 0.45096 0.0
H658 H 0.61022 0.67915 0.5035 0.0
S659 S 0.71062 0.63494 0.54002 0.0
N660 N 0.70328 0.63432 0.50033 0.0
N661 N 0.68494 0.64872 0.55738 0.0
C662 C 0.66911 0.65367 0.53065 0.0
C663 C 0.67901 0.64582 0.49971 0.0
C664 C 0.00994 0.65961 0.03367 0.0
C665 C 0.97216 0.64022 0.03452 0.0
C666 C 0.02848 0.66936 1.00388 0.0
C667 C 0.01001 0.66012 0.97378 0.0
H668 H 0.02537 0.66586 0.05608 0.0
H669 H 0.0576 0.68286 0.00456 0.0
S670 S 0.91106 0.6141 0.9627 0.0
N671 N 0.91685 0.61564 1.00271 0.0
N672 N 0.95183 0.6339 0.94677 0.0
C673 C 0.97227 0.64296 0.9743 0.0
C674 C 0.95335 0.63303 0.00467 0.0
C675 C 0.32667 0.96417 0.50345 0.0
C676 C 0.33533 0.98178 0.53402 0.0
C677 C 0.33693 0.98358 0.47408 0.0
C678 C 0.35642 0.02134 0.47418 0.0
H679 H 0.3132 0.9351 0.50213 0.0
H680 H 0.3312 0.96886 0.45127 0.0
S681 S 0.38116 0.08038 0.54737 0.0
N682 N 0.36103 0.03919 0.56236 0.0
N683 N 0.38039 0.0757 0.50726 0.0
C684 C 0.36307 0.03928 0.50447 0.0
C685 C 0.35248 0.0195 0.53436 0.0
C686 C 0.3372 0.36088 0.03733 0.0
C687 C 0.34826 0.3352 0.03903 0.0
C688 C 0.32868 0.37041 0.00723 0.0
C689 C 0.33076 0.3545 0.97776 0.0
H690 H 0.33711 0.37525 0.05908 0.0
H691 H 0.32198 0.3916 0.00699 0.0
S692 S 0.35254 0.28147 0.96982 0.0
N693 N 0.35661 0.29085 0.00928 0.0
N694 N 0.34051 0.30869 0.95279 0.0
C695 C 0.33913 0.32684 0.97948 0.0
C696 C 0.34791 0.31722 0.01011 0.0
C697 C 0.98277 0.33821 0.53244 0.0
C698 C 0.02054 0.35789 0.53348 0.0
C699 C 0.96427 0.32852 0.50255 0.0
C700 C 0.98281 0.33808 0.47252 0.0
H701 H 0.96728 0.33173 0.55481 0.0
H702 H 0.93515 0.31481 0.50306 0.0
S703 S 0.08184 0.385 0.46192 0.0
N704 N 0.07593 0.38313 0.50191 0.0
N705 N 0.04111 0.36496 0.4458 0.0
C706 C 0.02057 0.35554 0.47323 0.0
C707 C 0.03943 0.36544 0.5037 0.0
C708 C 0.50489 0.04018 0.11435 0.0
C709 C 0.5049 0.07233 0.10787 0.0
C710 C 0.53682 0.03883 0.1136 0.0
C711 C 0.57001 0.06962 0.10648 0.0
H712 H 0.48011 0.01592 0.12058 0.0
H713 H 0.53553 0.01362 0.11946 0.0
S714 S 0.58439 0.15999 0.08569 0.0
N715 N 0.54077 0.13536 0.0925 0.0
N716 N 0.6007 0.13282 0.09124 0.0
C717 C 0.57027 0.10171 0.09905 0.0
C718 C 0.53775 0.10307 0.0997 0.0
C719 C 0.49032 0.54225 0.60606 0.0
C720 C 0.49295 0.57474 0.61636 0.0
C721 C 0.45764 0.50977 0.60739 0.0
C722 C 0.42615 0.50839 0.61897 0.0
H723 H 0.51384 0.54169 0.59734 0.0
H724 H 0.45724 0.48548 0.59953 0.0
S725 S 0.41811 0.58612 0.6476 0.0
N726 N 0.46092 0.60373 0.63766 0.0
N727 N 0.39937 0.54263 0.64005 0.0
C728 C 0.42815 0.54078 0.62874 0.0
C729 C 0.46155 0.57394 0.62747 0.0
C730 C 0.95058 0.45888 0.10676 0.0
C731 C 0.91839 0.42563 0.10501 0.0
C732 C 0.95035 0.49136 0.10678 0.0
C733 C 0.91791 0.4919 0.10508 0.0
H734 H 0.97621 0.4599 0.10901 0.0
H735 H 0.9758 0.51619 0.10907 0.0
S736 S 0.82637 0.41233 0.09721 0.0
N737 N 0.85328 0.3953 0.09936 0.0
N738 N 0.85284 0.45636 0.09943 0.0
C739 C 0.88559 0.45892 0.10199 0.0
C740 C 0.88583 0.42579 0.10195 0.0
C741 C 0.45863 0.95549 0.60953 0.0
C742 C 0.42604 0.92392 0.6025 0.0
C743 C 0.49137 0.95577 0.60931 0.0
C744 C 0.4928 0.92448 0.6021 0.0
H745 H 0.45885 0.98003 0.61611 0.0
H746 H 0.5156 0.98049 0.61579 0.0
S747 S 0.4155 0.83562 0.57903 0.0
N748 N 0.39751 0.86113 0.58589 0.0
N749 N 0.45905 0.86166 0.58554 0.0
C750 C 0.46061 0.89309 0.59372 0.0
C751 C 0.42723 0.89281 0.5939 0.0
C752 C 0.56306 0.46693 0.10241 0.0
C753 C 0.56375 0.49983 0.1059 0.0
C754 C 0.53059 0.43419 0.10286 0.0
C755 C 0.4975 0.43303 0.10692 0.0
H756 H 0.58786 0.46631 0.10004 0.0
H757 H 0.5316 0.40956 0.10084 0.0
S758 S 0.48428 0.51174 0.1147 0.0
N759 N 0.52826 0.52937 0.1117 0.0
N760 N 0.46722 0.46778 0.11266 0.0
C761 C 0.49765 0.46577 0.10928 0.0
C762 C 0.53076 0.49918 0.10873 0.0
C763 C 0.09712 0.53588 0.60229 0.0
C764 C 0.06531 0.50238 0.60464 0.0
C765 C 0.09625 0.56802 0.60226 0.0
C766 C 0.06354 0.56795 0.60459 0.0
H767 H 0.12306 0.53744 0.60135 0.0
H768 H 0.12157 0.59314 0.6013 0.0
S769 S 0.97237 0.48727 0.60826 0.0
N770 N -7e-05 0.47096 0.60712 0.0
N771 N -0.00169 0.53141 0.60708 0.0
C772 C 0.0314 0.53461 0.60558 0.0
C773 C 0.03228 0.50181 0.6056 0.0
C774 C 0.95296 0.49327 0.40281 0.0
C775 C 0.92024 0.49331 0.40407 0.0
C776 C 0.95368 0.46104 0.40294 0.0
C777 C 0.92172 0.42757 0.40434 0.0
H778 H 0.97824 0.5183 0.40075 0.0
H779 H 0.97949 0.46242 0.40097 0.0
S780 S 0.82912 0.41297 0.41096 0.0
N781 N 0.85516 0.45706 0.40899 0.0
N782 N 0.85652 0.39649 0.40925 0.0
C783 C 0.88889 0.42724 0.40703 0.0
C784 C 0.88815 0.4601 0.40689 0.0
C785 C 0.46393 0.89547 0.90727 0.0
C786 C 0.49686 0.92728 0.90216 0.0
C787 C 0.43143 0.89562 0.90759 0.0
C788 C 0.43054 0.92759 0.90274 0.0
H789 H 0.46308 0.87 0.91029 0.0
H790 H 0.40672 0.87026 0.91084 0.0
S791 S 0.50956 0.01866 0.89061 0.0
N792 N 0.52681 0.99203 0.89391 0.0
N793 N 0.46566 0.99229 0.89445 0.0
C794 C 0.46338 0.95984 0.89879 0.0
C795 C 0.49654 0.9597 0.89852 0.0
C796 C 0.50321 0.46621 0.39938 0.0
C797 C 0.50284 0.43402 0.40661 0.0
C798 C 0.53554 0.4991 0.39819 0.0
C799 C 0.56874 0.50104 0.4041 0.0
H800 H 0.47844 0.46595 0.39371 0.0
H801 H 0.53451 0.52299 0.3916 0.0
S802 S 0.58222 0.42505 0.42716 0.0
N803 N 0.53836 0.40653 0.42208 0.0
N804 N 0.59908 0.46831 0.41975 0.0
C805 C 0.56865 0.4693 0.41271 0.0
C806 C 0.53571 0.43581 0.414 0.0
C807 C 0.03613 0.50271 0.89924 0.0
C808 C 0.06794 0.50199 0.90568 0.0
C809 C 0.03573 0.53513 0.8993 0.0
C810 C 0.06714 0.56804 0.90581 0.0
H811 H 0.01151 0.47821 0.89312 0.0
H812 H 0.01084 0.53443 0.89323 0.0
S813 S 0.15661 0.58037 0.92747 0.0
N814 N 0.13105 0.53673 0.92118 0.0
N815 N 0.13032 0.59761 0.92131 0.0
C816 C 0.09876 0.56752 0.91375 0.0
C817 C 0.09916 0.5345 0.91368 0.0
C818 C 0.56813 0.10007 0.40233 0.0
C819 C 0.56835 0.06773 0.39779 0.0
C820 C 0.53593 0.10081 0.40213 0.0
C821 C 0.50264 0.06927 0.39725 0.0
H822 H 0.59309 0.12521 0.40558 0.0
H823 H 0.53729 0.12651 0.40527 0.0
S824 S 0.48828 0.97728 0.38559 0.0
N825 N 0.53227 0.00306 0.38939 0.0
N826 N 0.4717 0.0045 0.38891 0.0
C827 C 0.50233 0.03657 0.39342 0.0
C828 C 0.53519 0.03579 0.39374 0.0
C829 C 0.46069 0.56469 0.88874 0.0
C830 C 0.49353 0.5653 0.89284 0.0
C831 C 0.42776 0.53232 0.88985 0.0
C832 C 0.42637 0.4993 0.89515 0.0
H833 H 0.46036 0.58937 0.88424 0.0
H834 H 0.40324 0.53321 0.88614 0.0
S835 S 0.50469 0.48624 0.90816 0.0
N836 N 0.52255 0.53 0.90306 0.0
N837 N 0.4608 0.46929 0.90519 0.0
C838 C 0.45899 0.49958 0.89983 0.0
C839 C 0.49251 0.53252 0.89865 0.0
loop_
_geom_bond_atom_site_label_1
_geom_bond_atom_site_label_2
_geom_bond_distance
_geom_bond_site_symmetry_2
_ccdc_geom_bond_type
In0 O1 2.294 . S
In0 O2 2.326 . S
In0 O6 2.266 . S
In0 O7 2.326 . S
In0 O8 2.266 . S
In0 O9 2.326 . S
In0 O11 2.294 . S
In0 O12 2.326 . S
O1 In0 2.294 . S
O1 C10 1.240 . S
O2 In0 2.326 . S
O2 C10 1.252 . S
C3 O6 1.252 . S
C3 O7 1.260 . S
C4 O11 1.240 . S
C4 O12 1.252 . S
C5 O8 1.252 . S
C5 O9 1.260 . S
O6 In0 2.266 . S
O6 C3 1.252 . S
O7 In0 2.326 . S
O7 C3 1.260 . S
O8 In0 2.266 . S
O8 C5 1.252 . S
O9 In0 2.326 . S
O9 C5 1.260 . S
C10 O1 1.240 . S
C10 O2 1.252 . S
O11 In0 2.294 . S
O11 C4 1.240 . S
O12 In0 2.326 . S
O12 C4 1.252 . S
In13 O14 2.294 . S
In13 O15 2.326 . S
In13 O19 2.266 . S
In13 O20 2.326 . S
In13 O21 2.266 . S
In13 O22 2.326 . S
In13 O24 2.294 . S
In13 O25 2.326 . S
O14 In13 2.294 . S
O14 C23 1.240 . S
O15 In13 2.326 . S
O15 C23 1.252 . S
C16 O19 1.252 . S
C16 O20 1.260 . S
C17 O24 1.240 . S
C17 O25 1.252 . S
C18 O21 1.252 . S
C18 O22 1.260 . S
O19 In13 2.266 . S
O19 C16 1.252 . S
O20 In13 2.326 . S
O20 C16 1.260 . S
O21 In13 2.266 . S
O21 C18 1.252 . S
O22 In13 2.326 . S
O22 C18 1.260 . S
C23 O14 1.240 . S
C23 O15 1.252 . S
O24 In13 2.294 . S
O24 C17 1.240 . S
O25 In13 2.326 . S
O25 C17 1.252 . S
In26 O27 2.294 . S
In26 O28 2.326 . S
In26 O32 2.266 . S
In26 O33 2.326 . S
In26 O34 2.266 . S
In26 O35 2.326 . S
In26 O37 2.294 . S
In26 O38 2.326 . S
O27 In26 2.294 . S
O27 C36 1.240 . S
O28 In26 2.326 . S
O28 C36 1.252 . S
C29 O32 1.252 . S
C29 O33 1.260 . S
C30 O37 1.240 . S
C30 O38 1.252 . S
C31 O34 1.252 . S
C31 O35 1.260 . S
O32 In26 2.266 . S
O32 C29 1.252 . S
O33 In26 2.326 . S
O33 C29 1.260 . S
O34 In26 2.266 . S
O34 C31 1.252 . S
O35 In26 2.326 . S
O35 C31 1.260 . S
C36 O27 1.240 . S
C36 O28 1.252 . S
O37 In26 2.294 . S
O37 C30 1.240 . S
O38 In26 2.326 . S
O38 C30 1.252 . S
In39 O40 2.294 . S
In39 O41 2.326 . S
In39 O45 2.266 . S
In39 O46 2.326 . S
In39 O47 2.266 . S
In39 O48 2.326 . S
In39 O50 2.294 . S
In39 O51 2.326 . S
O40 In39 2.294 . S
O40 C49 1.240 . S
O41 In39 2.326 . S
O41 C49 1.252 . S
C42 O45 1.252 . S
C42 O46 1.260 . S
C43 O50 1.240 . S
C43 O51 1.252 . S
C44 O47 1.252 . S
C44 O48 1.260 . S
O45 In39 2.266 . S
O45 C42 1.252 . S
O46 In39 2.326 . S
O46 C42 1.260 . S
O47 In39 2.266 . S
O47 C44 1.252 . S
O48 In39 2.326 . S
O48 C44 1.260 . S
C49 O40 1.240 . S
C49 O41 1.252 . S
O50 In39 2.294 . S
O50 C43 1.240 . S
O51 In39 2.326 . S
O51 C43 1.252 . S
In52 O53 2.294 . S
In52 O54 2.326 . S
In52 O58 2.266 . S
In52 O59 2.326 . S
In52 O60 2.266 . S
In52 O61 2.326 . S
In52 O63 2.294 . S
In52 O64 2.326 . S
O53 In52 2.294 . S
O53 C62 1.240 . S
O54 In52 2.326 . S
O54 C62 1.252 . S
C55 O58 1.252 . S
C55 O59 1.260 . S
C56 O63 1.240 . S
C56 O64 1.252 . S
C57 O60 1.252 . S
C57 O61 1.260 . S
O58 In52 2.266 . S
O58 C55 1.252 . S
O59 In52 2.326 . S
O59 C55 1.260 . S
O60 In52 2.266 . S
O60 C57 1.252 . S
O61 In52 2.326 . S
O61 C57 1.260 . S
C62 O53 1.240 . S
C62 O54 1.252 . S
O63 In52 2.294 . S
O63 C56 1.240 . S
O64 In52 2.326 . S
O64 C56 1.252 . S
In65 O66 2.294 . S
In65 O67 2.326 . S
In65 O71 2.266 . S
In65 O72 2.326 . S
In65 O73 2.266 . S
In65 O74 2.326 . S
In65 O76 2.294 . S
In65 O77 2.326 . S
O66 In65 2.294 . S
O66 C75 1.240 . S
O67 In65 2.326 . S
O67 C75 1.252 . S
C68 O71 1.252 . S
C68 O72 1.260 . S
C69 O76 1.240 . S
C69 O77 1.252 . S
C70 O73 1.252 . S
C70 O74 1.260 . S
O71 In65 2.266 . S
O71 C68 1.252 . S
O72 In65 2.326 . S
O72 C68 1.260 . S
O73 In65 2.266 . S
O73 C70 1.252 . S
O74 In65 2.326 . S
O74 C70 1.260 . S
C75 O66 1.240 . S
C75 O67 1.252 . S
O76 In65 2.294 . S
O76 C69 1.240 . S
O77 In65 2.326 . S
O77 C69 1.252 . S
In78 O79 2.294 . S
In78 O80 2.326 . S
In78 O84 2.266 . S
In78 O85 2.326 . S
In78 O86 2.266 . S
In78 O87 2.326 . S
In78 O89 2.294 . S
In78 O90 2.326 . S
O79 In78 2.294 . S
O79 C88 1.240 . S
O80 In78 2.326 . S
O80 C88 1.252 . S
C81 O84 1.252 . S
C81 O85 1.260 . S
C82 O89 1.240 . S
C82 O90 1.252 . S
C83 O86 1.252 . S
C83 O87 1.260 . S
O84 In78 2.266 . S
O84 C81 1.252 . S
O85 In78 2.326 . S
O85 C81 1.260 . S
O86 In78 2.266 . S
O86 C83 1.252 . S
O87 In78 2.326 . S
O87 C83 1.260 . S
C88 O79 1.240 . S
C88 O80 1.252 . S
O89 In78 2.294 . S
O89 C82 1.240 . S
O90 In78 2.326 . S
O90 C82 1.252 . S
In91 O92 2.294 . S
In91 O93 2.326 . S
In91 O97 2.266 . S
In91 O98 2.326 . S
In91 O99 2.266 . S
In91 O100 2.326 . S
In91 O102 2.294 . S
In91 O103 2.326 . S
O92 In91 2.294 . S
O92 C101 1.240 . S
O93 In91 2.326 . S
O93 C101 1.252 . S
C94 O97 1.252 . S
C94 O98 1.260 . S
C95 O102 1.240 . S
C95 O103 1.252 . S
C96 O99 1.252 . S
C96 O100 1.260 . S
O97 In91 2.266 . S
O97 C94 1.252 . S
O98 In91 2.326 . S
O98 C94 1.260 . S
O99 In91 2.266 . S
O99 C96 1.252 . S
O100 In91 2.326 . S
O100 C96 1.260 . S
C101 O92 1.240 . S
C101 O93 1.252 . S
O102 In91 2.294 . S
O102 C95 1.240 . S
O103 In91 2.326 . S
O103 C95 1.252 . S
In104 O105 2.294 . S
In104 O106 2.326 . S
In104 O110 2.266 . S
In104 O111 2.326 . S
In104 O112 2.266 . S
In104 O113 2.326 . S
In104 O115 2.294 . S
In104 O116 2.326 . S
O105 In104 2.294 . S
O105 C114 1.240 . S
O106 In104 2.326 . S
O106 C114 1.252 . S
C107 O110 1.252 . S
C107 O111 1.260 . S
C108 O115 1.240 . S
C108 O116 1.252 . S
C109 O112 1.252 . S
C109 O113 1.260 . S
O110 In104 2.266 . S
O110 C107 1.252 . S
O111 In104 2.326 . S
O111 C107 1.260 . S
O112 In104 2.266 . S
O112 C109 1.252 . S
O113 In104 2.326 . S
O113 C109 1.260 . S
C114 O105 1.240 . S
C114 O106 1.252 . S
O115 In104 2.294 . S
O115 C108 1.240 . S
O116 In104 2.326 . S
O116 C108 1.252 . S
In117 O118 2.294 . S
In117 O119 2.326 . S
In117 O123 2.266 . S
In117 O124 2.326 . S
In117 O125 2.266 . S
In117 O126 2.326 . S
In117 O128 2.294 . S
In117 O129 2.326 . S
O118 In117 2.294 . S
O118 C127 1.240 . S
O119 In117 2.326 . S
O119 C127 1.252 . S
C120 O123 1.252 . S
C120 O124 1.260 . S
C121 O128 1.240 . S
C121 O129 1.252 . S
C122 O125 1.252 . S
C122 O126 1.260 . S
O123 In117 2.266 . S
O123 C120 1.252 . S
O124 In117 2.326 . S
O124 C120 1.260 . S
O125 In117 2.266 . S
O125 C122 1.252 . S
O126 In117 2.326 . S
O126 C122 1.260 . S
C127 O118 1.240 . S
C127 O119 1.252 . S
O128 In117 2.294 . S
O128 C121 1.240 . S
O129 In117 2.326 . S
O129 C121 1.252 . S
In130 O131 2.294 . S
In130 O132 2.326 . S
In130 O136 2.266 . S
In130 O137 2.326 . S
In130 O138 2.266 . S
In130 O139 2.326 . S
In130 O141 2.294 . S
In130 O142 2.326 . S
O131 In130 2.294 . S
O131 C140 1.240 . S
O132 In130 2.326 . S
O132 C140 1.252 . S
C133 O136 1.252 . S
C133 O137 1.260 . S
C134 O141 1.240 . S
C134 O142 1.252 . S
C135 O138 1.252 . S
C135 O139 1.260 . S
O136 In130 2.266 . S
O136 C133 1.252 . S
O137 In130 2.326 . S
O137 C133 1.260 . S
O138 In130 2.266 . S
O138 C135 1.252 . S
O139 In130 2.326 . S
O139 C135 1.260 . S
C140 O131 1.240 . S
C140 O132 1.252 . S
O141 In130 2.294 . S
O141 C134 1.240 . S
O142 In130 2.326 . S
O142 C134 1.252 . S
In143 O144 2.294 . S
In143 O145 2.326 . S
In143 O149 2.266 . S
In143 O150 2.326 . S
In143 O151 2.266 . S
In143 O152 2.326 . S
In143 O154 2.294 . S
In143 O155 2.326 . S
O144 In143 2.294 . S
O144 C153 1.240 . S
O145 In143 2.326 . S
O145 C153 1.252 . S
C146 O149 1.252 . S
C146 O150 1.260 . S
C147 O154 1.240 . S
C147 O155 1.252 . S
C148 O151 1.252 . S
C148 O152 1.260 . S
O149 In143 2.266 . S
O149 C146 1.252 . S
O150 In143 2.326 . S
O150 C146 1.260 . S
O151 In143 2.266 . S
O151 C148 1.252 . S
O152 In143 2.326 . S
O152 C148 1.260 . S
C153 O144 1.240 . S
C153 O145 1.252 . S
O154 In143 2.294 . S
O154 C147 1.240 . S
O155 In143 2.326 . S
O155 C147 1.252 . S
In156 O157 2.294 . S
In156 O158 2.326 . S
In156 O162 2.266 . S
In156 O163 2.326 . S
In156 O164 2.266 . S
In156 O165 2.326 . S
In156 O167 2.294 . S
In156 O168 2.326 . S
O157 In156 2.294 . S
O157 C166 1.240 . S
O158 In156 2.326 . S
O158 C166 1.252 . S
C159 O162 1.252 . S
C159 O163 1.260 . S
C160 O167 1.240 . S
C160 O168 1.252 . S
C161 O164 1.252 . S
C161 O165 1.260 . S
O162 In156 2.266 . S
O162 C159 1.252 . S
O163 In156 2.326 . S
O163 C159 1.260 . S
O164 In156 2.266 . S
O164 C161 1.252 . S
O165 In156 2.326 . S
O165 C161 1.260 . S
C166 O157 1.240 . S
C166 O158 1.252 . S
O167 In156 2.294 . S
O167 C160 1.240 . S
O168 In156 2.326 . S
O168 C160 1.252 . S
In169 O170 2.294 . S
In169 O171 2.326 . S
In169 O175 2.266 . S
In169 O176 2.326 . S
In169 O177 2.266 . S
In169 O178 2.326 . S
In169 O180 2.294 . S
In169 O181 2.326 . S
O170 In169 2.294 . S
O170 C179 1.240 . S
O171 In169 2.326 . S
O171 C179 1.252 . S
C172 O175 1.252 . S
C172 O176 1.260 . S
C173 O180 1.240 . S
C173 O181 1.252 . S
C174 O177 1.252 . S
C174 O178 1.260 . S
O175 In169 2.266 . S
O175 C172 1.252 . S
O176 In169 2.326 . S
O176 C172 1.260 . S
O177 In169 2.266 . S
O177 C174 1.252 . S
O178 In169 2.326 . S
O178 C174 1.260 . S
C179 O170 1.240 . S
C179 O171 1.252 . S
O180 In169 2.294 . S
O180 C173 1.240 . S
O181 In169 2.326 . S
O181 C173 1.252 . S
In182 O183 2.294 . S
In182 O184 2.326 . S
In182 O188 2.266 . S
In182 O189 2.326 . S
In182 O190 2.266 . S
In182 O191 2.326 . S
In182 O193 2.294 . S
In182 O194 2.326 . S
O183 In182 2.294 . S
O183 C192 1.240 . S
O184 In182 2.326 . S
O184 C192 1.252 . S
C185 O188 1.252 . S
C185 O189 1.260 . S
C186 O193 1.240 . S
C186 O194 1.252 . S
C187 O190 1.252 . S
C187 O191 1.260 . S
O188 In182 2.266 . S
O188 C185 1.252 . S
O189 In182 2.326 . S
O189 C185 1.260 . S
O190 In182 2.266 . S
O190 C187 1.252 . S
O191 In182 2.326 . S
O191 C187 1.260 . S
C192 O183 1.240 . S
C192 O184 1.252 . S
O193 In182 2.294 . S
O193 C186 1.240 . S
O194 In182 2.326 . S
O194 C186 1.252 . S
In195 O196 2.294 . S
In195 O197 2.326 . S
In195 O201 2.266 . S
In195 O202 2.326 . S
In195 O203 2.266 . S
In195 O204 2.326 . S
In195 O206 2.294 . S
In195 O207 2.326 . S
O196 In195 2.294 . S
O196 C205 1.240 . S
O197 In195 2.326 . S
O197 C205 1.252 . S
C198 O201 1.252 . S
C198 O202 1.260 . S
C199 O206 1.240 . S
C199 O207 1.252 . S
C200 O203 1.252 . S
C200 O204 1.260 . S
O201 In195 2.266 . S
O201 C198 1.252 . S
O202 In195 2.326 . S
O202 C198 1.260 . S
O203 In195 2.266 . S
O203 C200 1.252 . S
O204 In195 2.326 . S
O204 C200 1.260 . S
C205 O196 1.240 . S
C205 O197 1.252 . S
O206 In195 2.294 . S
O206 C199 1.240 . S
O207 In195 2.326 . S
O207 C199 1.252 . S
In208 O209 2.294 . S
In208 O210 2.326 . S
In208 O214 2.266 . S
In208 O215 2.326 . S
In208 O216 2.266 . S
In208 O217 2.326 . S
In208 O219 2.294 . S
In208 O220 2.326 . S
O209 In208 2.294 . S
O209 C218 1.240 . S
O210 In208 2.326 . S
O210 C218 1.252 . S
C211 O214 1.252 . S
C211 O215 1.260 . S
C212 O219 1.240 . S
C212 O220 1.252 . S
C213 O216 1.252 . S
C213 O217 1.260 . S
O214 In208 2.266 . S
O214 C211 1.252 . S
O215 In208 2.326 . S
O215 C211 1.260 . S
O216 In208 2.266 . S
O216 C213 1.252 . S
O217 In208 2.326 . S
O217 C213 1.260 . S
C218 O209 1.240 . S
C218 O210 1.252 . S
O219 In208 2.294 . S
O219 C212 1.240 . S
O220 In208 2.326 . S
O220 C212 1.252 . S
In221 O222 2.294 . S
In221 O223 2.326 . S
In221 O227 2.266 . S
In221 O228 2.326 . S
In221 O229 2.266 . S
In221 O230 2.326 . S
In221 O232 2.294 . S
In221 O233 2.326 . S
O222 In221 2.294 . S
O222 C231 1.240 . S
O223 In221 2.326 . S
O223 C231 1.252 . S
C224 O227 1.252 . S
C224 O228 1.260 . S
C225 O232 1.240 . S
C225 O233 1.252 . S
C226 O229 1.252 . S
C226 O230 1.260 . S
O227 In221 2.266 . S
O227 C224 1.252 . S
O228 In221 2.326 . S
O228 C224 1.260 . S
O229 In221 2.266 . S
O229 C226 1.252 . S
O230 In221 2.326 . S
O230 C226 1.260 . S
C231 O222 1.240 . S
C231 O223 1.252 . S
O232 In221 2.294 . S
O232 C225 1.240 . S
O233 In221 2.326 . S
O233 C225 1.252 . S
In234 O235 2.294 . S
In234 O236 2.326 . S
In234 O240 2.266 . S
In234 O241 2.326 . S
In234 O242 2.266 . S
In234 O243 2.326 . S
In234 O245 2.294 . S
In234 O246 2.326 . S
O235 In234 2.294 . S
O235 C244 1.240 . S
O236 In234 2.326 . S
O236 C244 1.252 . S
C237 O240 1.252 . S
C237 O241 1.260 . S
C238 O245 1.240 . S
C238 O246 1.252 . S
C239 O242 1.252 . S
C239 O243 1.260 . S
O240 In234 2.266 . S
O240 C237 1.252 . S
O241 In234 2.326 . S
O241 C237 1.260 . S
O242 In234 2.266 . S
O242 C239 1.252 . S
O243 In234 2.326 . S
O243 C239 1.260 . S
C244 O235 1.240 . S
C244 O236 1.252 . S
O245 In234 2.294 . S
O245 C238 1.240 . S
O246 In234 2.326 . S
O246 C238 1.252 . S
In247 O248 2.294 . S
In247 O249 2.326 . S
In247 O253 2.266 . S
In247 O254 2.326 . S
In247 O255 2.266 . S
In247 O256 2.326 . S
In247 O258 2.294 . S
In247 O259 2.326 . S
O248 In247 2.294 . S
O248 C257 1.240 . S
O249 In247 2.326 . S
O249 C257 1.252 . S
C250 O253 1.252 . S
C250 O254 1.260 . S
C251 O258 1.240 . S
C251 O259 1.252 . S
C252 O255 1.252 . S
C252 O256 1.260 . S
O253 In247 2.266 . S
O253 C250 1.252 . S
O254 In247 2.326 . S
O254 C250 1.260 . S
O255 In247 2.266 . S
O255 C252 1.252 . S
O256 In247 2.326 . S
O256 C252 1.260 . S
C257 O248 1.240 . S
C257 O249 1.252 . S
O258 In247 2.294 . S
O258 C251 1.240 . S
O259 In247 2.326 . S
O259 C251 1.252 . S
In260 O261 2.294 . S
In260 O262 2.326 . S
In260 O266 2.266 . S
In260 O267 2.326 . S
In260 O268 2.266 . S
In260 O269 2.326 . S
In260 O271 2.294 . S
In260 O272 2.326 . S
O261 In260 2.294 . S
O261 C270 1.240 . S
O262 In260 2.326 . S
O262 C270 1.252 . S
C263 O266 1.252 . S
C263 O267 1.260 . S
C264 O271 1.240 . S
C264 O272 1.252 . S
C265 O268 1.252 . S
C265 O269 1.260 . S
O266 In260 2.266 . S
O266 C263 1.252 . S
O267 In260 2.326 . S
O267 C263 1.260 . S
O268 In260 2.266 . S
O268 C265 1.252 . S
O269 In260 2.326 . S
O269 C265 1.260 . S
C270 O261 1.240 . S
C270 O262 1.252 . S
O271 In260 2.294 . S
O271 C264 1.240 . S
O272 In260 2.326 . S
O272 C264 1.252 . S
In273 O274 2.294 . S
In273 O275 2.326 . S
In273 O279 2.266 . S
In273 O280 2.326 . S
In273 O281 2.266 . S
In273 O282 2.326 . S
In273 O284 2.294 . S
In273 O285 2.326 . S
O274 In273 2.294 . S
O274 C283 1.240 . S
O275 In273 2.326 . S
O275 C283 1.252 . S
C276 O279 1.252 . S
C276 O280 1.260 . S
C277 O284 1.240 . S
C277 O285 1.252 . S
C278 O281 1.252 . S
C278 O282 1.260 . S
O279 In273 2.266 . S
O279 C276 1.252 . S
O280 In273 2.326 . S
O280 C276 1.260 . S
O281 In273 2.266 . S
O281 C278 1.252 . S
O282 In273 2.326 . S
O282 C278 1.260 . S
C283 O274 1.240 . S
C283 O275 1.252 . S
O284 In273 2.294 . S
O284 C277 1.240 . S
O285 In273 2.326 . S
O285 C277 1.252 . S
In286 O287 2.294 . S
In286 O288 2.326 . S
In286 O292 2.266 . S
In286 O293 2.326 . S
In286 O294 2.266 . S
In286 O295 2.326 . S
In286 O297 2.294 . S
In286 O298 2.326 . S
O287 In286 2.294 . S
O287 C296 1.240 . S
O288 In286 2.326 . S
O288 C296 1.252 . S
C289 O292 1.252 . S
C289 O293 1.260 . S
C290 O297 1.240 . S
C290 O298 1.252 . S
C291 O294 1.252 . S
C291 O295 1.260 . S
O292 In286 2.266 . S
O292 C289 1.252 . S
O293 In286 2.326 . S
O293 C289 1.260 . S
O294 In286 2.266 . S
O294 C291 1.252 . S
O295 In286 2.326 . S
O295 C291 1.260 . S
C296 O287 1.240 . S
C296 O288 1.252 . S
O297 In286 2.294 . S
O297 C290 1.240 . S
O298 In286 2.326 . S
O298 C290 1.252 . S
In299 O300 2.294 . S
In299 O301 2.326 . S
In299 O305 2.266 . S
In299 O306 2.326 . S
In299 O307 2.266 . S
In299 O308 2.326 . S
In299 O310 2.294 . S
In299 O311 2.326 . S
O300 In299 2.294 . S
O300 C309 1.240 . S
O301 In299 2.326 . S
O301 C309 1.252 . S
C302 O305 1.252 . S
C302 O306 1.260 . S
C303 O310 1.240 . S
C303 O311 1.252 . S
C304 O307 1.252 . S
C304 O308 1.260 . S
O305 In299 2.266 . S
O305 C302 1.252 . S
O306 In299 2.326 . S
O306 C302 1.260 . S
O307 In299 2.266 . S
O307 C304 1.252 . S
O308 In299 2.326 . S
O308 C304 1.260 . S
C309 O300 1.240 . S
C309 O301 1.252 . S
O310 In299 2.294 . S
O310 C303 1.240 . S
O311 In299 2.326 . S
O311 C303 1.252 . S
C312 C313 1.369 . S
C312 C314 1.419 . S
C312 H316 0.930 . S
C313 C312 1.369 . S
C313 C322 1.429 . S
C314 C312 1.419 . S
C314 C315 1.363 . S
C314 H317 0.929 . S
C315 C314 1.363 . S
C315 C321 1.428 . S
H316 C312 0.930 . S
H317 C314 0.929 . S
S318 N319 1.613 . S
S318 N320 1.610 . S
N319 S318 1.613 . S
N319 C322 1.350 . S
N320 S318 1.610 . S
N320 C321 1.351 . S
C321 C315 1.428 . S
C321 N320 1.351 . S
C321 C322 1.434 . S
C322 C313 1.429 . S
C322 N319 1.350 . S
C322 C321 1.434 . S
C323 C324 1.369 . S
C323 C325 1.419 . S
C323 H327 0.930 . S
C324 C323 1.369 . S
C324 C333 1.429 . S
C325 C323 1.419 . S
C325 C326 1.363 . S
C325 H328 0.929 . S
C326 C325 1.363 . S
C326 C332 1.428 . S
H327 C323 0.930 . S
H328 C325 0.929 . S
S329 N330 1.613 . S
S329 N331 1.610 . S
N330 S329 1.613 . S
N330 C333 1.350 . S
N331 S329 1.610 . S
N331 C332 1.351 . S
C332 C326 1.428 . S
C332 N331 1.351 . S
C332 C333 1.434 . S
C333 C324 1.429 . S
C333 N330 1.350 . S
C333 C332 1.434 . S
C334 C335 1.369 . S
C334 C336 1.419 . S
C334 H338 0.930 . S
C335 C334 1.369 . S
C335 C344 1.429 . S
C336 C334 1.419 . S
C336 C337 1.363 . S
C336 H339 0.929 . S
C337 C336 1.363 . S
C337 C343 1.428 . S
H338 C334 0.930 . S
H339 C336 0.929 . S
S340 N341 1.613 . S
S340 N342 1.610 . S
N341 S340 1.613 . S
N341 C344 1.350 . S
N342 S340 1.610 . S
N342 C343 1.351 . S
C343 C337 1.428 . S
C343 N342 1.351 . S
C343 C344 1.434 . S
C344 C335 1.429 . S
C344 N341 1.350 . S
C344 C343 1.434 . S
C345 C346 1.369 . S
C345 C347 1.419 . S
C345 H349 0.930 . S
C346 C345 1.369 . S
C346 C355 1.429 . S
C347 C345 1.419 . S
C347 C348 1.363 . S
C347 H350 0.929 . S
C348 C347 1.363 . S
C348 C354 1.428 . S
H349 C345 0.930 . S
H350 C347 0.929 . S
S351 N352 1.613 . S
S351 N353 1.610 . S
N352 S351 1.613 . S
N352 C355 1.350 . S
N353 S351 1.610 . S
N353 C354 1.351 . S
C354 C348 1.428 . S
C354 N353 1.351 . S
C354 C355 1.434 . S
C355 C346 1.429 . S
C355 N352 1.350 . S
C355 C354 1.434 . S
C356 C357 1.369 . S
C356 C358 1.419 . S
C356 H360 0.930 . S
C357 C356 1.369 . S
C357 C366 1.429 . S
C358 C356 1.419 . S
C358 C359 1.363 . S
C358 H361 0.929 . S
C359 C358 1.363 . S
C359 C365 1.428 . S
H360 C356 0.930 . S
H361 C358 0.929 . S
S362 N363 1.613 . S
S362 N364 1.610 . S
N363 S362 1.613 . S
N363 C366 1.350 . S
N364 S362 1.610 . S
N364 C365 1.351 . S
C365 C359 1.428 . S
C365 N364 1.351 . S
C365 C366 1.434 . S
C366 C357 1.429 . S
C366 N363 1.350 . S
C366 C365 1.434 . S
C367 C368 1.369 . S
C367 C369 1.419 . S
C367 H371 0.930 . S
C368 C367 1.369 . S
C368 C377 1.429 . S
C369 C367 1.419 . S
C369 C370 1.363 . S
C369 H372 0.929 . S
C370 C369 1.363 . S
C370 C376 1.428 . S
H371 C367 0.930 . S
H372 C369 0.929 . S
S373 N374 1.613 . S
S373 N375 1.610 . S
N374 S373 1.613 . S
N374 C377 1.350 . S
N375 S373 1.610 . S
N375 C376 1.351 . S
C376 C370 1.428 . S
C376 N375 1.351 . S
C376 C377 1.434 . S
C377 C368 1.429 . S
C377 N374 1.350 . S
C377 C376 1.434 . S
C378 C379 1.369 . S
C378 C380 1.419 . S
C378 H382 0.930 . S
C379 C378 1.369 . S
C379 C388 1.429 . S
C380 C378 1.419 . S
C380 C381 1.363 . S
C380 H383 0.929 . S
C381 C380 1.363 . S
C381 C387 1.428 . S
H382 C378 0.930 . S
H383 C380 0.929 . S
S384 N385 1.613 . S
S384 N386 1.610 . S
N385 S384 1.613 . S
N385 C388 1.350 . S
N386 S384 1.610 . S
N386 C387 1.351 . S
C387 C381 1.428 . S
C387 N386 1.351 . S
C387 C388 1.434 . S
C388 C379 1.429 . S
C388 N385 1.350 . S
C388 C387 1.434 . S
C389 C390 1.369 . S
C389 C391 1.419 . S
C389 H393 0.930 . S
C390 C389 1.369 . S
C390 C399 1.429 . S
C391 C389 1.419 . S
C391 C392 1.363 . S
C391 H394 0.929 . S
C392 C391 1.363 . S
C392 C398 1.428 . S
H393 C389 0.930 . S
H394 C391 0.929 . S
S395 N396 1.613 . S
S395 N397 1.610 . S
N396 S395 1.613 . S
N396 C399 1.350 1_545 S
N397 S395 1.610 . S
N397 C398 1.351 1_545 S
C398 C392 1.428 . S
C398 N397 1.351 1_565 S
C398 C399 1.434 . S
C399 C390 1.429 . S
C399 N396 1.350 1_565 S
C399 C398 1.434 . S
C400 C401 1.369 . S
C400 C402 1.419 . S
C400 H404 0.930 . S
C401 C400 1.369 . S
C401 C410 1.429 . S
C402 C400 1.419 . S
C402 C403 1.363 . S
C402 H405 0.929 . S
C403 C402 1.363 . S
C403 C409 1.428 . S
H404 C400 0.930 . S
H405 C402 0.929 . S
S406 N407 1.613 . S
S406 N408 1.610 . S
N407 S406 1.613 . S
N407 C410 1.350 . S
N408 S406 1.610 . S
N408 C409 1.351 . S
C409 C403 1.428 . S
C409 N408 1.351 . S
C409 C410 1.434 . S
C410 C401 1.429 . S
C410 N407 1.350 . S
C410 C409 1.434 . S
C411 C412 1.369 . S
C411 C413 1.419 . S
C411 H415 0.930 . S
C412 C411 1.369 . S
C412 C421 1.429 . S
C413 C411 1.419 . S
C413 C414 1.363 . S
C413 H416 0.929 . S
C414 C413 1.363 . S
C414 C420 1.428 . S
H415 C411 0.930 . S
H416 C413 0.929 . S
S417 N418 1.613 . S
S417 N419 1.610 . S
N418 S417 1.613 . S
N418 C421 1.350 . S
N419 S417 1.610 . S
N419 C420 1.351 . S
C420 C414 1.428 . S
C420 N419 1.351 . S
C420 C421 1.434 . S
C421 C412 1.429 . S
C421 N418 1.350 . S
C421 C420 1.434 . S
C422 C423 1.369 . S
C422 C424 1.419 . S
C422 H426 0.930 . S
C423 C422 1.369 . S
C423 C432 1.429 . S
C424 C422 1.419 . S
C424 C425 1.363 . S
C424 H427 0.929 . S
C425 C424 1.363 . S
C425 C431 1.428 . S
H426 C422 0.930 . S
H427 C424 0.929 . S
S428 N429 1.613 . S
S428 N430 1.610 . S
N429 S428 1.613 . S
N429 C432 1.350 . S
N430 S428 1.610 . S
N430 C431 1.351 . S
C431 C425 1.428 . S
C431 N430 1.351 . S
C431 C432 1.434 . S
C432 C423 1.429 . S
C432 N429 1.350 . S
C432 C431 1.434 . S
C433 C434 1.369 . S
C433 C435 1.419 . S
C433 H437 0.930 . S
C434 C433 1.369 . S
C434 C443 1.429 . S
C435 C433 1.419 . S
C435 C436 1.363 . S
C435 H438 0.929 . S
C436 C435 1.363 . S
C436 C442 1.428 . S
H437 C433 0.930 . S
H438 C435 0.929 . S
S439 N440 1.613 . S
S439 N441 1.610 . S
N440 S439 1.613 . S
N440 C443 1.350 . S
N441 S439 1.610 . S
N441 C442 1.351 . S
C442 C436 1.428 . S
C442 N441 1.351 . S
C442 C443 1.434 . S
C443 C434 1.429 . S
C443 N440 1.350 . S
C443 C442 1.434 . S
C444 C445 1.369 . S
C444 C446 1.419 . S
C444 H448 0.930 . S
C445 C444 1.369 . S
C445 C454 1.429 . S
C446 C444 1.419 . S
C446 C447 1.363 . S
C446 H449 0.929 . S
C447 C446 1.363 . S
C447 C453 1.428 . S
H448 C444 0.930 . S
H449 C446 0.929 . S
S450 N451 1.613 . S
S450 N452 1.610 . S
N451 S450 1.613 . S
N451 C454 1.350 . S
N452 S450 1.610 . S
N452 C453 1.351 . S
C453 C447 1.428 . S
C453 N452 1.351 . S
C453 C454 1.434 . S
C454 C445 1.429 . S
C454 N451 1.350 . S
C454 C453 1.434 . S
C455 C456 1.369 . S
C455 C457 1.419 . S
C455 H459 0.930 . S
C456 C455 1.369 . S
C456 C465 1.429 . S
C457 C455 1.419 . S
C457 C458 1.363 . S
C457 H460 0.929 . S
C458 C457 1.363 . S
C458 C464 1.428 . S
H459 C455 0.930 . S
H460 C457 0.929 . S
S461 N462 1.613 . S
S461 N463 1.610 . S
N462 S461 1.613 . S
N462 C465 1.350 . S
N463 S461 1.610 . S
N463 C464 1.351 . S
C464 C458 1.428 . S
C464 N463 1.351 . S
C464 C465 1.434 . S
C465 C456 1.429 . S
C465 N462 1.350 . S
C465 C464 1.434 . S
C466 C467 1.369 . S
C466 C468 1.419 . S
C466 H470 0.930 . S
C467 C466 1.369 . S
C467 C476 1.429 . S
C468 C466 1.419 . S
C468 C469 1.363 . S
C468 H471 0.929 . S
C469 C468 1.363 . S
C469 C475 1.428 . S
H470 C466 0.930 . S
H471 C468 0.929 . S
S472 N473 1.613 . S
S472 N474 1.610 . S
N473 S472 1.613 . S
N473 C476 1.350 . S
N474 S472 1.610 . S
N474 C475 1.351 . S
C475 C469 1.428 . S
C475 N474 1.351 . S
C475 C476 1.434 . S
C476 C467 1.429 . S
C476 N473 1.350 . S
C476 C475 1.434 . S
C477 C478 1.369 . S
C477 C479 1.419 . S
C477 H481 0.930 . S
C478 C477 1.369 . S
C478 C487 1.429 . S
C479 C477 1.419 . S
C479 C480 1.363 . S
C479 H482 0.929 . S
C480 C479 1.363 . S
C480 C486 1.428 . S
H481 C477 0.930 . S
H482 C479 0.929 . S
S483 N484 1.613 . S
S483 N485 1.610 . S
N484 S483 1.613 . S
N484 C487 1.350 . S
N485 S483 1.610 . S
N485 C486 1.351 . S
C486 C480 1.428 . S
C486 N485 1.351 . S
C486 C487 1.434 . S
C487 C478 1.429 . S
C487 N484 1.350 . S
C487 C486 1.434 . S
C488 C489 1.369 . S
C488 C490 1.419 . S
C488 H492 0.930 . S
C489 C488 1.369 . S
C489 C498 1.429 . S
C490 C488 1.419 . S
C490 C491 1.363 . S
C490 H493 0.929 . S
C491 C490 1.363 . S
C491 C497 1.428 . S
H492 C488 0.930 . S
H493 C490 0.929 . S
S494 N495 1.613 . S
S494 N496 1.610 . S
N495 S494 1.613 . S
N495 C498 1.350 . S
N496 S494 1.610 . S
N496 C497 1.351 . S
C497 C491 1.428 . S
C497 N496 1.351 . S
C497 C498 1.434 . S
C498 C489 1.429 . S
C498 N495 1.350 . S
C498 C497 1.434 . S
C499 C500 1.369 . S
C499 C501 1.419 . S
C499 H503 0.930 . S
C500 C499 1.369 . S
C500 C509 1.429 . S
C501 C499 1.419 . S
C501 C502 1.363 . S
C501 H504 0.929 . S
C502 C501 1.363 . S
C502 C508 1.428 . S
H503 C499 0.930 . S
H504 C501 0.929 . S
S505 N506 1.613 . S
S505 N507 1.610 . S
N506 S505 1.613 . S
N506 C509 1.350 . S
N507 S505 1.610 . S
N507 C508 1.351 . S
C508 C502 1.428 . S
C508 N507 1.351 . S
C508 C509 1.434 . S
C509 C500 1.429 . S
C509 N506 1.350 . S
C509 C508 1.434 . S
C510 C511 1.369 . S
C510 C512 1.419 . S
C510 H514 0.930 . S
C511 C510 1.369 . S
C511 C520 1.429 . S
C512 C510 1.419 . S
C512 C513 1.363 . S
C512 H515 0.929 . S
C513 C512 1.363 . S
C513 C519 1.428 . S
H514 C510 0.930 . S
H515 C512 0.929 . S
S516 N517 1.613 . S
S516 N518 1.610 . S
N517 S516 1.613 . S
N517 C520 1.350 . S
N518 S516 1.610 . S
N518 C519 1.351 . S
C519 C513 1.428 . S
C519 N518 1.351 . S
C519 C520 1.434 . S
C520 C511 1.429 . S
C520 N517 1.350 . S
C520 C519 1.434 . S
C521 C522 1.369 . S
C521 C523 1.419 . S
C521 H525 0.930 . S
C522 C521 1.369 . S
C522 C531 1.429 . S
C523 C521 1.419 . S
C523 C524 1.363 . S
C523 H526 0.929 . S
C524 C523 1.363 . S
C524 C530 1.428 . S
H525 C521 0.930 . S
H526 C523 0.929 . S
S527 N528 1.613 . S
S527 N529 1.610 . S
N528 S527 1.613 . S
N528 C531 1.350 . S
N529 S527 1.610 . S
N529 C530 1.351 . S
C530 C524 1.428 . S
C530 N529 1.351 . S
C530 C531 1.434 . S
C531 C522 1.429 . S
C531 N528 1.350 . S
C531 C530 1.434 . S
C532 C533 1.369 . S
C532 C534 1.419 . S
C532 H536 0.930 . S
C533 C532 1.369 . S
C533 C542 1.429 . S
C534 C532 1.419 . S
C534 C535 1.363 . S
C534 H537 0.929 . S
C535 C534 1.363 . S
C535 C541 1.428 . S
H536 C532 0.930 . S
H537 C534 0.929 . S
S538 N539 1.613 . S
S538 N540 1.610 . S
N539 S538 1.613 . S
N539 C542 1.350 . S
N540 S538 1.610 . S
N540 C541 1.351 . S
C541 C535 1.428 . S
C541 N540 1.351 . S
C541 C542 1.434 . S
C542 C533 1.429 . S
C542 N539 1.350 . S
C542 C541 1.434 . S
C543 C544 1.369 . S
C543 C545 1.419 . S
C543 H547 0.930 . S
C544 C543 1.369 . S
C544 C553 1.429 . S
C545 C543 1.419 . S
C545 C546 1.363 . S
C545 H548 0.929 . S
C546 C545 1.363 . S
C546 C552 1.428 . S
H547 C543 0.930 . S
H548 C545 0.929 . S
S549 N550 1.613 . S
S549 N551 1.610 . S
N550 S549 1.613 . S
N550 C553 1.350 . S
N551 S549 1.610 . S
N551 C552 1.351 . S
C552 C546 1.428 . S
C552 N551 1.351 . S
C552 C553 1.434 . S
C553 C544 1.429 . S
C553 N550 1.350 . S
C553 C552 1.434 . S
C554 C555 1.369 . S
C554 C556 1.419 . S
C554 H558 0.930 . S
C555 C554 1.369 . S
C555 C564 1.429 . S
C556 C554 1.419 . S
C556 C557 1.363 . S
C556 H559 0.929 . S
C557 C556 1.363 . S
C557 C563 1.428 . S
H558 C554 0.930 . S
H559 C556 0.929 . S
S560 N561 1.613 . S
S560 N562 1.610 . S
N561 S560 1.613 . S
N561 C564 1.350 . S
N562 S560 1.610 . S
N562 C563 1.351 . S
C563 C557 1.428 . S
C563 N562 1.351 . S
C563 C564 1.434 . S
C564 C555 1.429 . S
C564 N561 1.350 . S
C564 C563 1.434 . S
C565 C566 1.369 . S
C565 C567 1.419 . S
C565 H569 0.930 . S
C566 C565 1.369 . S
C566 C575 1.429 . S
C567 C565 1.419 . S
C567 C568 1.363 . S
C567 H570 0.929 . S
C568 C567 1.363 . S
C568 C574 1.428 . S
H569 C565 0.930 . S
H570 C567 0.929 . S
S571 N572 1.613 . S
S571 N573 1.610 . S
N572 S571 1.613 . S
N572 C575 1.350 . S
N573 S571 1.610 . S
N573 C574 1.351 . S
C574 C568 1.428 . S
C574 N573 1.351 . S
C574 C575 1.434 . S
C575 C566 1.429 . S
C575 N572 1.350 . S
C575 C574 1.434 . S
C576 C577 1.369 1_545 S
C576 C578 1.419 1_556 S
C576 H580 0.930 . S
C577 C576 1.369 1_565 S
C577 C586 1.429 . S
C578 C576 1.419 1_554 S
C578 C579 1.363 . S
C578 H581 0.929 . S
C579 C578 1.363 . S
C579 C585 1.428 1_545 S
H580 C576 0.930 . S
H581 C578 0.929 . S
S582 N583 1.613 1_554 S
S582 N584 1.610 . S
N583 S582 1.613 1_556 S
N583 C586 1.350 . S
N584 S582 1.610 . S
N584 C585 1.351 . S
C585 C579 1.428 1_565 S
C585 N584 1.351 . S
C585 C586 1.434 1_554 S
C586 C577 1.429 . S
C586 N583 1.350 . S
C586 C585 1.434 1_556 S
C587 C588 1.369 . S
C587 C589 1.419 . S
C587 H591 0.930 . S
C588 C587 1.369 . S
C588 C597 1.429 . S
C589 C587 1.419 . S
C589 C590 1.363 . S
C589 H592 0.929 . S
C590 C589 1.363 . S
C590 C596 1.428 . S
H591 C587 0.930 . S
H592 C589 0.929 . S
S593 N594 1.613 . S
S593 N595 1.610 . S
N594 S593 1.613 . S
N594 C597 1.350 . S
N595 S593 1.610 . S
N595 C596 1.351 . S
C596 C590 1.428 . S
C596 N595 1.351 . S
C596 C597 1.434 . S
C597 C588 1.429 . S
C597 N594 1.350 . S
C597 C596 1.434 . S
C598 C599 1.369 . S
C598 C600 1.419 1_556 S
C598 H602 0.930 . S
C599 C598 1.369 . S
C599 C608 1.429 1_455 S
C600 C598 1.419 1_554 S
C600 C601 1.363 1_455 S
C600 H603 0.929 . S
C601 C600 1.363 1_655 S
C601 C607 1.428 . S
H602 C598 0.930 . S
H603 C600 0.929 . S
S604 N605 1.613 . S
S604 N606 1.610 1_556 S
N605 S604 1.613 . S
N605 C608 1.350 . S
N606 S604 1.610 1_554 S
N606 C607 1.351 . S
C607 C601 1.428 . S
C607 N606 1.351 . S
C607 C608 1.434 1_554 S
C608 C599 1.429 1_655 S
C608 N605 1.350 . S
C608 C607 1.434 1_556 S
C609 C610 1.369 1_565 S
C609 C611 1.419 . S
C609 H613 0.930 . S
C610 C609 1.369 1_545 S
C610 C619 1.429 . S
C611 C609 1.419 . S
C611 C612 1.363 . S
C611 H614 0.929 . S
C612 C611 1.363 . S
C612 C618 1.428 1_565 S
H613 C609 0.930 . S
H614 C611 0.929 . S
S615 N616 1.613 . S
S615 N617 1.610 . S
N616 S615 1.613 . S
N616 C619 1.350 . S
N617 S615 1.610 . S
N617 C618 1.351 . S
C618 C612 1.428 1_545 S
C618 N617 1.351 . S
C618 C619 1.434 . S
C619 C610 1.429 . S
C619 N616 1.350 . S
C619 C618 1.434 . S
C620 C621 1.369 . S
C620 C622 1.419 1_554 S
C620 H624 0.930 . S
C621 C620 1.369 . S
C621 C630 1.429 . S
C622 C620 1.419 1_556 S
C622 C623 1.363 . S
C622 H625 0.929 . S
C623 C622 1.363 . S
C623 C629 1.428 . S
H624 C620 0.930 . S
H625 C622 0.929 . S
S626 N627 1.613 1_556 S
S626 N628 1.610 . S
N627 S626 1.613 1_554 S
N627 C630 1.350 . S
N628 S626 1.610 . S
N628 C629 1.351 . S
C629 C623 1.428 . S
C629 N628 1.351 . S
C629 C630 1.434 1_556 S
C630 C621 1.429 . S
C630 N627 1.350 . S
C630 C629 1.434 1_554 S
C631 C632 1.369 . S
C631 C633 1.419 . S
C631 H635 0.930 . S
C632 C631 1.369 . S
C632 C641 1.429 1_455 S
C633 C631 1.419 . S
C633 C634 1.363 1_455 S
C633 H636 0.929 . S
C634 C633 1.363 1_655 S
C634 C640 1.428 . S
H635 C631 0.930 . S
H636 C633 0.929 . S
S637 N638 1.613 . S
S637 N639 1.610 . S
N638 S637 1.613 . S
N638 C641 1.350 . S
N639 S637 1.610 . S
N639 C640 1.351 . S
C640 C634 1.428 . S
C640 N639 1.351 . S
C640 C641 1.434 . S
C641 C632 1.429 1_655 S
C641 N638 1.350 . S
C641 C640 1.434 . S
C642 C643 1.369 1_545 S
C642 C644 1.419 1_556 S
C642 H646 0.930 . S
C643 C642 1.369 1_565 S
C643 C652 1.429 . S
C644 C642 1.419 1_554 S
C644 C645 1.363 . S
C644 H647 0.929 . S
C645 C644 1.363 . S
C645 C651 1.428 1_545 S
H646 C642 0.930 . S
H647 C644 0.929 . S
S648 N649 1.613 1_554 S
S648 N650 1.610 . S
N649 S648 1.613 1_556 S
N649 C652 1.350 . S
N650 S648 1.610 . S
N650 C651 1.351 . S
C651 C645 1.428 1_565 S
C651 N650 1.351 . S
C651 C652 1.434 1_554 S
C652 C643 1.429 . S
C652 N649 1.350 . S
C652 C651 1.434 1_556 S
C653 C654 1.369 . S
C653 C655 1.419 . S
C653 H657 0.930 . S
C654 C653 1.369 . S
C654 C663 1.429 . S
C655 C653 1.419 . S
C655 C656 1.363 . S
C655 H658 0.929 . S
C656 C655 1.363 . S
C656 C662 1.428 . S
H657 C653 0.930 . S
H658 C655 0.929 . S
S659 N660 1.613 . S
S659 N661 1.610 . S
N660 S659 1.613 . S
N660 C663 1.350 . S
N661 S659 1.610 . S
N661 C662 1.351 . S
C662 C656 1.428 . S
C662 N661 1.351 . S
C662 C663 1.434 . S
C663 C654 1.429 . S
C663 N660 1.350 . S
C663 C662 1.434 . S
C664 C665 1.369 1_455 S
C664 C666 1.419 1_554 S
C664 H668 0.930 . S
C665 C664 1.369 1_655 S
C665 C674 1.429 . S
C666 C664 1.419 1_556 S
C666 C667 1.363 . S
C666 H669 0.929 . S
C667 C666 1.363 . S
C667 C673 1.428 1_455 S
H668 C664 0.930 . S
H669 C666 0.929 . S
S670 N671 1.613 1_556 S
S670 N672 1.610 . S
N671 S670 1.613 1_554 S
N671 C674 1.350 . S
N672 S670 1.610 . S
N672 C673 1.351 . S
C673 C667 1.428 1_655 S
C673 N672 1.351 . S
C673 C674 1.434 1_556 S
C674 C665 1.429 . S
C674 N671 1.350 . S
C674 C673 1.434 1_554 S
C675 C676 1.369 . S
C675 C677 1.419 . S
C675 H679 0.930 . S
C676 C675 1.369 . S
C676 C685 1.429 1_565 S
C677 C675 1.419 . S
C677 C678 1.363 1_565 S
C677 H680 0.929 . S
C678 C677 1.363 1_545 S
C678 C684 1.428 . S
H679 C675 0.930 . S
H680 C677 0.929 . S
S681 N682 1.613 . S
S681 N683 1.610 . S
N682 S681 1.613 . S
N682 C685 1.350 . S
N683 S681 1.610 . S
N683 C684 1.351 . S
C684 C678 1.428 . S
C684 N683 1.351 . S
C684 C685 1.434 . S
C685 C676 1.429 1_545 S
C685 N682 1.350 . S
C685 C684 1.434 . S
C686 C687 1.369 . S
C686 C688 1.419 1_554 S
C686 H690 0.930 . S
C687 C686 1.369 . S
C687 C696 1.429 . S
C688 C686 1.419 1_556 S
C688 C689 1.363 . S
C688 H691 0.929 . S
C689 C688 1.363 . S
C689 C695 1.428 . S
H690 C686 0.930 . S
H691 C688 0.929 . S
S692 N693 1.613 1_556 S
S692 N694 1.610 . S
N693 S692 1.613 1_554 S
N693 C696 1.350 . S
N694 S692 1.610 . S
N694 C695 1.351 . S
C695 C689 1.428 . S
C695 N694 1.351 . S
C695 C696 1.434 1_556 S
C696 C687 1.429 . S
C696 N693 1.350 . S
C696 C695 1.434 1_554 S
C697 C698 1.369 1_655 S
C697 C699 1.419 . S
C697 H701 0.930 . S
C698 C697 1.369 1_455 S
C698 C707 1.429 . S
C699 C697 1.419 . S
C699 C700 1.363 . S
C699 H702 0.929 . S
C700 C699 1.363 . S
C700 C706 1.428 1_655 S
H701 C697 0.930 . S
H702 C699 0.929 . S
S703 N704 1.613 . S
S703 N705 1.610 . S
N704 S703 1.613 . S
N704 C707 1.350 . S
N705 S703 1.610 . S
N705 C706 1.351 . S
C706 C700 1.428 1_455 S
C706 N705 1.351 . S
C706 C707 1.434 . S
C707 C698 1.429 . S
C707 N704 1.350 . S
C707 C706 1.434 . S
C708 C709 1.369 . S
C708 C710 1.419 . S
C708 H712 0.930 . S
C709 C708 1.369 . S
C709 C718 1.429 . S
C710 C708 1.419 . S
C710 C711 1.363 . S
C710 H713 0.929 . S
C711 C710 1.363 . S
C711 C717 1.428 . S
H712 C708 0.930 . S
H713 C710 0.929 . S
S714 N715 1.613 . S
S714 N716 1.610 . S
N715 S714 1.613 . S
N715 C718 1.350 . S
N716 S714 1.610 . S
N716 C717 1.351 . S
C717 C711 1.428 . S
C717 N716 1.351 . S
C717 C718 1.434 . S
C718 C709 1.429 . S
C718 N715 1.350 . S
C718 C717 1.434 . S
C719 C720 1.369 . S
C719 C721 1.419 . S
C719 H723 0.930 . S
C720 C719 1.369 . S
C720 C729 1.429 . S
C721 C719 1.419 . S
C721 C722 1.363 . S
C721 H724 0.929 . S
C722 C721 1.363 . S
C722 C728 1.428 . S
H723 C719 0.930 . S
H724 C721 0.929 . S
S725 N726 1.613 . S
S725 N727 1.610 . S
N726 S725 1.613 . S
N726 C729 1.350 . S
N727 S725 1.610 . S
N727 C728 1.351 . S
C728 C722 1.428 . S
C728 N727 1.351 . S
C728 C729 1.434 . S
C729 C720 1.429 . S
C729 N726 1.350 . S
C729 C728 1.434 . S
C730 C731 1.369 . S
C730 C732 1.419 . S
C730 H734 0.930 . S
C731 C730 1.369 . S
C731 C740 1.429 . S
C732 C730 1.419 . S
C732 C733 1.363 . S
C732 H735 0.929 . S
C733 C732 1.363 . S
C733 C739 1.428 . S
H734 C730 0.930 . S
H735 C732 0.929 . S
S736 N737 1.613 . S
S736 N738 1.610 . S
N737 S736 1.613 . S
N737 C740 1.350 . S
N738 S736 1.610 . S
N738 C739 1.351 . S
C739 C733 1.428 . S
C739 N738 1.351 . S
C739 C740 1.434 . S
C740 C731 1.429 . S
C740 N737 1.350 . S
C740 C739 1.434 . S
C741 C742 1.369 . S
C741 C743 1.419 . S
C741 H745 0.930 . S
C742 C741 1.369 . S
C742 C751 1.429 . S
C743 C741 1.419 . S
C743 C744 1.363 . S
C743 H746 0.929 . S
C744 C743 1.363 . S
C744 C750 1.428 . S
H745 C741 0.930 . S
H746 C743 0.929 . S
S747 N748 1.613 . S
S747 N749 1.610 . S
N748 S747 1.613 . S
N748 C751 1.350 . S
N749 S747 1.610 . S
N749 C750 1.351 . S
C750 C744 1.428 . S
C750 N749 1.351 . S
C750 C751 1.434 . S
C751 C742 1.429 . S
C751 N748 1.350 . S
C751 C750 1.434 . S
C752 C753 1.369 . S
C752 C754 1.419 . S
C752 H756 0.930 . S
C753 C752 1.369 . S
C753 C762 1.429 . S
C754 C752 1.419 . S
C754 C755 1.363 . S
C754 H757 0.929 . S
C755 C754 1.363 . S
C755 C761 1.428 . S
H756 C752 0.930 . S
H757 C754 0.929 . S
S758 N759 1.613 . S
S758 N760 1.610 . S
N759 S758 1.613 . S
N759 C762 1.350 . S
N760 S758 1.610 . S
N760 C761 1.351 . S
C761 C755 1.428 . S
C761 N760 1.351 . S
C761 C762 1.434 . S
C762 C753 1.429 . S
C762 N759 1.350 . S
C762 C761 1.434 . S
C763 C764 1.369 . S
C763 C765 1.419 . S
C763 H767 0.930 . S
C764 C763 1.369 . S
C764 C773 1.429 . S
C765 C763 1.419 . S
C765 C766 1.363 . S
C765 H768 0.929 . S
C766 C765 1.363 . S
C766 C772 1.428 . S
H767 C763 0.930 . S
H768 C765 0.929 . S
S769 N770 1.613 . S
S769 N771 1.610 . S
N770 S769 1.613 . S
N770 C773 1.350 1_655 S
N771 S769 1.610 . S
N771 C772 1.351 1_655 S
C772 C766 1.428 . S
C772 N771 1.351 1_455 S
C772 C773 1.434 . S
C773 C764 1.429 . S
C773 N770 1.350 1_455 S
C773 C772 1.434 . S
C774 C775 1.369 . S
C774 C776 1.419 . S
C774 H778 0.930 . S
C775 C774 1.369 . S
C775 C784 1.429 . S
C776 C774 1.419 . S
C776 C777 1.363 . S
C776 H779 0.929 . S
C777 C776 1.363 . S
C777 C783 1.428 . S
H778 C774 0.930 . S
H779 C776 0.929 . S
S780 N781 1.613 . S
S780 N782 1.610 . S
N781 S780 1.613 . S
N781 C784 1.350 . S
N782 S780 1.610 . S
N782 C783 1.351 . S
C783 C777 1.428 . S
C783 N782 1.351 . S
C783 C784 1.434 . S
C784 C775 1.429 . S
C784 N781 1.350 . S
C784 C783 1.434 . S
C785 C786 1.369 . S
C785 C787 1.419 . S
C785 H789 0.930 . S
C786 C785 1.369 . S
C786 C795 1.429 . S
C787 C785 1.419 . S
C787 C788 1.363 . S
C787 H790 0.929 . S
C788 C787 1.363 . S
C788 C794 1.428 . S
H789 C785 0.930 . S
H790 C787 0.929 . S
S791 N792 1.613 . S
S791 N793 1.610 . S
N792 S791 1.613 . S
N792 C795 1.350 . S
N793 S791 1.610 . S
N793 C794 1.351 . S
C794 C788 1.428 . S
C794 N793 1.351 . S
C794 C795 1.434 . S
C795 C786 1.429 . S
C795 N792 1.350 . S
C795 C794 1.434 . S
C796 C797 1.369 . S
C796 C798 1.419 . S
C796 H800 0.930 . S
C797 C796 1.369 . S
C797 C806 1.429 . S
C798 C796 1.419 . S
C798 C799 1.363 . S
C798 H801 0.929 . S
C799 C798 1.363 . S
C799 C805 1.428 . S
H800 C796 0.930 . S
H801 C798 0.929 . S
S802 N803 1.613 . S
S802 N804 1.610 . S
N803 S802 1.613 . S
N803 C806 1.350 . S
N804 S802 1.610 . S
N804 C805 1.351 . S
C805 C799 1.428 . S
C805 N804 1.351 . S
C805 C806 1.434 . S
C806 C797 1.429 . S
C806 N803 1.350 . S
C806 C805 1.434 . S
C807 C808 1.369 . S
C807 C809 1.419 . S
C807 H811 0.930 . S
C808 C807 1.369 . S
C808 C817 1.429 . S
C809 C807 1.419 . S
C809 C810 1.363 . S
C809 H812 0.929 . S
C810 C809 1.363 . S
C810 C816 1.428 . S
H811 C807 0.930 . S
H812 C809 0.929 . S
S813 N814 1.613 . S
S813 N815 1.610 . S
N814 S813 1.613 . S
N814 C817 1.350 . S
N815 S813 1.610 . S
N815 C816 1.351 . S
C816 C810 1.428 . S
C816 N815 1.351 . S
C816 C817 1.434 . S
C817 C808 1.429 . S
C817 N814 1.350 . S
C817 C816 1.434 . S
C818 C819 1.369 . S
C818 C820 1.419 . S
C818 H822 0.930 . S
C819 C818 1.369 . S
C819 C828 1.429 . S
C820 C818 1.419 . S
C820 C821 1.363 . S
C820 H823 0.929 . S
C821 C820 1.363 . S
C821 C827 1.428 . S
H822 C818 0.930 . S
H823 C820 0.929 . S
S824 N825 1.613 1_565 S
S824 N826 1.610 1_565 S
N825 S824 1.613 1_545 S
N825 C828 1.350 . S
N826 S824 1.610 1_545 S
N826 C827 1.351 . S
C827 C821 1.428 . S
C827 N826 1.351 . S
C827 C828 1.434 . S
C828 C819 1.429 . S
C828 N825 1.350 . S
C828 C827 1.434 . S
C829 C830 1.369 . S
C829 C831 1.419 . S
C829 H833 0.930 . S
C830 C829 1.369 . S
C830 C839 1.429 . S
C831 C829 1.419 . S
C831 C832 1.363 . S
C831 H834 0.929 . S
C832 C831 1.363 . S
C832 C838 1.428 . S
H833 C829 0.930 . S
H834 C831 0.929 . S
S835 N836 1.613 . S
S835 N837 1.610 . S
N836 S835 1.613 . S
N836 C839 1.350 . S
N837 S835 1.610 . S
N837 C838 1.351 . S
C838 C832 1.428 . S
C838 N837 1.351 . S
C838 C839 1.434 . S
C839 C830 1.429 . S
C839 N836 1.350 . S
C839 C838 1.434 . S
C313 C199 1.447 . S
C315 C10 1.447 . S
C324 C17 1.447 . S
C326 C212 1.448 . S
C335 C36 1.447 . S
C337 C231 1.448 . S
C346 C43 1.446 . S
C348 C166 1.447 . S
C357 C179 1.450 . S
C359 C62 1.450 . S
C368 C75 1.449 . S
C370 C186 1.449 . S
C379 C277 1.446 . S
C381 C88 1.446 . S
C390 C95 1.449 . S
C392 C296 1.449 . S
C401 C108 1.449 . S
C403 C309 1.449 . S
C412 C238 1.450 . S
C414 C121 1.450 . S
C423 C134 1.447 . S
C425 C257 1.447 . S
C434 C270 1.449 . S
C436 C153 1.449 . S
C445 C4 1.648 . S
C447 C303 1.648 . S
C456 C244 1.648 . S
C458 C23 1.648 . S
C467 C30 1.649 . S
C469 C251 1.649 . S
C478 C264 1.650 . S
C480 C49 1.650 . S
C489 C56 1.650 . S
C491 C283 1.649 . S
C500 C290 1.648 . S
C502 C69 1.648 . S
C511 C82 1.648 . S
C513 C173 1.648 . S
C522 C192 1.648 . S
C524 C101 1.648 . S
C533 C205 1.649 . S
C535 C114 1.649 . S
C544 C218 1.648 . S
C546 C127 1.648 . S
C555 C140 1.649 . S
C557 C225 1.649 . S
C566 C147 1.649 . S
C568 C160 1.649 . S
C577 C96 1.357 . S
C579 C3 1.362 . S
C588 C109 1.358 . S
C590 C18 1.362 . S
C599 C122 1.359 . S
C601 C29 1.357 . S
C610 C135 1.357 . S
C612 C44 1.362 . S
C621 C55 1.356 . S
C623 C146 1.360 . S
C632 C68 1.359 . S
C634 C81 1.357 . S
C643 C159 1.357 . S
C645 C250 1.362 . S
C654 C172 1.359 . S
C656 C263 1.361 . S
C665 C278 1.358 . S
C667 C187 1.362 . S
C676 C289 1.362 . S
C678 C200 1.357 . S
C687 C302 1.358 . S
C689 C213 1.362 . S
C698 C239 1.357 . S
C700 C224 1.360 . S
C709 C5 1.681 . S
C711 C252 1.681 . S
C720 C265 1.681 . S
C722 C16 1.681 . S
C731 C31 1.683 . S
C733 C276 1.682 . S
C742 C291 1.682 . S
C744 C42 1.682 . S
C753 C57 1.682 . S
C755 C304 1.682 . S
C764 C237 1.682 . S
C766 C70 1.682 . S
C775 C83 1.681 . S
C777 C226 1.681 . S
C786 C161 1.681 . S
C788 C94 1.682 . S
C797 C107 1.683 . S
C799 C174 1.682 . S
C808 C120 1.683 . S
C810 C185 1.683 . S
C819 C133 1.681 . S
C821 C198 1.682 . S
C830 C148 1.681 . S
C832 C211 1.681 . S
