# Generated by pormake.
# Topology uof, (4)-cn, num edge types: 1
# Building blocks:
#     Node 0, Type 0, BuildingBlock: GALJAG_clean_sbu_0, # of connection points: 4
#     Node 1, Type 0, BuildingBlock: GALJAG_clean_sbu_0, # of connection points: 4
#     Node 2, Type 0, BuildingBlock: GALJAG_clean_sbu_0, # of connection points: 4
#     Node 3, Type 0, BuildingBlock: GALJAG_clean_sbu_0, # of connection points: 4
#     Node 4, Type 0, BuildingBlock: GALJAG_clean_sbu_0, # of connection points: 4
#     Node 5, Type 0, BuildingBlock: GALJAG_clean_sbu_0, # of connection points: 4
#     Node 6, Type 0, BuildingBlock: GALJAG_clean_sbu_0, # of connection points: 4
#     Node 7, Type 0, BuildingBlock: GALJAG_clean_sbu_0, # of connection points: 4
#     Node 8, Type 0, BuildingBlock: GALJAG_clean_sbu_0, # of connection points: 4
#     Node 9, Type 0, BuildingBlock: GALJAG_clean_sbu_0, # of connection points: 4
#     Node 10, Type 0, BuildingBlock: GALJAG_clean_sbu_0, # of connection points: 4
#     Node 11, Type 0, BuildingBlock: GALJAG_clean_sbu_0, # of connection points: 4
#     Edge 12, Type (0, 0), BuildingBlock: AJUNOK_clean_linker_0, # of connection points: 2
#     Edge 13, Type (0, 0), BuildingBlock: AJUNOK_clean_linker_0, # of connection points: 2
#     Edge 14, Type (0, 0), BuildingBlock: AJUNOK_clean_linker_0, # of connection points: 2
#     Edge 15, Type (0, 0), BuildingBlock: AJUNOK_clean_linker_0, # of connection points: 2
#     Edge 16, Type (0, 0), BuildingBlock: AJUNOK_clean_linker_0, # of connection points: 2
#     Edge 17, Type (0, 0), BuildingBlock: AJUNOK_clean_linker_0, # of connection points: 2
#     Edge 18, Type (0, 0), BuildingBlock: AJUNOK_clean_linker_0, # of connection points: 2
#     Edge 19, Type (0, 0), BuildingBlock: AJUNOK_clean_linker_0, # of connection points: 2
#     Edge 20, Type (0, 0), BuildingBlock: AJUNOK_clean_linker_0, # of connection points: 2
#     Edge 21, Type (0, 0), BuildingBlock: AJUNOK_clean_linker_0, # of connection points: 2
#     Edge 22, Type (0, 0), BuildingBlock: AJUNOK_clean_linker_0, # of connection points: 2
#     Edge 23, Type (0, 0), BuildingBlock: AJUNOK_clean_linker_0, # of connection points: 2
#     Edge 24, Type (0, 0), BuildingBlock: AJUNOK_clean_linker_0, # of connection points: 2
#     Edge 25, Type (0, 0), BuildingBlock: AJUNOK_clean_linker_0, # of connection points: 2
#     Edge 26, Type (0, 0), BuildingBlock: AJUNOK_clean_linker_0, # of connection points: 2
#     Edge 27, Type (0, 0), BuildingBlock: AJUNOK_clean_linker_0, # of connection points: 2
#     Edge 28, Type (0, 0), BuildingBlock: AJUNOK_clean_linker_0, # of connection points: 2
#     Edge 29, Type (0, 0), BuildingBlock: AJUNOK_clean_linker_0, # of connection points: 2
#     Edge 30, Type (0, 0), BuildingBlock: AJUNOK_clean_linker_0, # of connection points: 2
#     Edge 31, Type (0, 0), BuildingBlock: AJUNOK_clean_linker_0, # of connection points: 2
#     Edge 32, Type (0, 0), BuildingBlock: AJUNOK_clean_linker_0, # of connection points: 2
#     Edge 33, Type (0, 0), BuildingBlock: AJUNOK_clean_linker_0, # of connection points: 2
#     Edge 34, Type (0, 0), BuildingBlock: AJUNOK_clean_linker_0, # of connection points: 2
#     Edge 35, Type (0, 0), BuildingBlock: AJUNOK_clean_linker_0, # of connection points: 2
# Relax obj value: 0.137
# Max RMSD: 0.110
# Mean RMSD: 0.110
data_MOF--net-uof--node1-GALJAG_clean_sbu_0--edge1-AJUNOK_clean_linker_0
_symmetry_space_group_name_H-M    P1
_symmetry_Int_Tables_number       1
_symmetry_cell_setting            triclinic
loop_
_symmetry_equiv_pos_as_xyz
'x, y, z'
_cell_length_a     22.922401
_cell_length_b     22.864703
_cell_length_c     49.544754
_cell_angle_alpha  90.026885
_cell_angle_beta   89.985085
_cell_angle_gamma 120.08997
loop_
_atom_site_label
_atom_site_type_symbol
_atom_site_fract_x
_atom_site_fract_y
_atom_site_fract_z
_atom_type_partial_charge
In0 In 0.23862 0.32431 0.2384 0.0
O1 O 0.32982 0.43328 0.239 0.0
O2 O 0.34733 0.35147 0.23253 0.0
C3 C 0.13679 0.33463 0.21349 0.0
C4 C 0.23585 0.29776 0.29176 0.0
C5 C 0.22689 0.21944 0.21049 0.0
O6 O 0.19497 0.35798 0.20372 0.0
O7 O 0.13202 0.31328 0.23735 0.0
O8 O 0.20658 0.21379 0.23449 0.0
O9 O 0.25288 0.27801 0.20063 0.0
C10 C 0.37266 0.4143 0.23536 0.0
O11 O 0.204 0.25258 0.27431 0.0
O12 O 0.26383 0.35759 0.28273 0.0
In13 In 0.92564 0.23718 0.57672 0.0
O14 O 0.90656 0.32762 0.57859 0.0
O15 O 1.00621 0.34688 0.57186 0.0
C16 C 0.81615 0.13288 0.5512 0.0
C17 C 0.95101 0.23231 0.62981 0.0
C18 C 0.01682 0.23175 0.54535 0.0
O19 O 0.84386 0.19352 0.54358 0.0
O20 O 0.83712 0.12601 0.57388 0.0
O21 O 1.00595 0.20938 0.56918 0.0
O22 O 0.98233 0.25756 0.53771 0.0
C23 C 0.96827 0.37142 0.57501 0.0
O24 O 0.96924 0.20635 0.61159 0.0
O25 O 0.91407 0.25532 0.62164 0.0
In26 In 0.70115 0.91733 0.9084 0.0
O27 O 0.77422 0.9579 0.94382 0.0
O28 O 0.66971 0.91017 0.95297 0.0
C29 C 0.80238 1.0069 0.878 0.0
C30 C 0.6116 0.96165 0.90482 0.0
C31 C 0.69156 0.8042 0.88465 0.0
O32 O 0.80923 1.00011 0.90284 0.0
O33 O 0.74415 0.96916 0.86865 0.0
O34 O 0.66018 0.83281 0.87639 0.0
O35 O 0.72034 0.82671 0.90708 0.0
C36 C 0.7297 0.94401 0.96157 0.0
O37 O 0.59282 0.90034 0.91 0.0
O38 O 0.67396 0.99839 0.90079 0.0
In39 In 0.79463 0.70104 0.23944 0.0
O40 O 0.78051 0.76196 0.27224 0.0
O41 O 0.80518 0.68846 0.28529 0.0
C42 C 0.8145 0.80397 0.2084 0.0
C43 C 0.66339 0.60228 0.23558 0.0
C44 C 0.90087 0.69658 0.21598 0.0
O45 O 0.83753 0.81268 0.23211 0.0
O46 O 0.78116 0.74342 0.20061 0.0
O47 O 0.84125 0.6637 0.20723 0.0
O48 O 0.90561 0.72524 0.23835 0.0
C49 C 0.79015 0.73297 0.2919 0.0
O50 O 0.70862 0.58945 0.24322 0.0
O51 O 0.68527 0.663 0.22925 0.0
In52 In 0.10588 0.79525 0.5789 0.0
O53 O 0.13052 0.70872 0.57997 0.0
O54 O 0.02999 0.6846 0.57154 0.0
C55 C 0.21243 0.90718 0.55539 0.0
C56 C 0.08236 0.79834 0.63239 0.0
C57 C 1.01107 0.79504 0.54793 0.0
O58 O 0.1984 0.84757 0.54998 0.0
O59 O 0.17822 0.91004 0.57471 0.0
O60 O 1.01368 0.80476 0.57305 0.0
O61 O 0.05545 0.78351 0.53854 0.0
C62 C 0.07024 0.66294 0.57512 0.0
O63 O 0.06317 0.82436 0.61462 0.0
O64 O 0.11953 0.77624 0.62358 0.0
In65 In 0.3319 0.10531 0.90856 0.0
O66 O 0.44207 0.12802 0.90936 0.0
O67 O 0.36389 0.02741 0.90158 0.0
C68 C 0.33783 0.21666 0.88455 0.0
C69 C 0.30606 0.07707 0.96179 0.0
C70 C 0.23053 0.01357 0.87888 0.0
O71 O 0.36568 0.18571 0.87502 0.0
O72 O 0.31413 0.19698 0.90794 0.0
O73 O 0.22253 0.02555 0.90302 0.0
O74 O 0.28988 0.04704 0.86999 0.0
C75 C 0.42614 0.06717 0.9048 0.0
O76 O 0.26023 0.06005 0.94436 0.0
O77 O 0.36521 0.11471 0.95289 0.0
In78 In 0.70473 0.79139 0.45435 0.0
O79 O 0.59306 0.70607 0.44957 0.0
O80 O 0.66483 0.68102 0.464 0.0
C81 C 0.70364 0.89878 0.47909 0.0
C82 C 0.7386 0.78773 0.40209 0.0
C83 C 0.80585 0.80266 0.48409 0.0
O84 O 0.67203 0.83911 0.48795 0.0
O85 O 0.7295 0.90324 0.45611 0.0
O86 O 0.8152 0.82951 0.46108 0.0
O87 O 0.7456 0.7714 0.49225 0.0
C88 C 0.60475 0.65993 0.45716 0.0
O89 O 0.77089 0.78489 0.42208 0.0
O90 O 0.68998 0.79699 0.40817 0.0
In91 In 0.92209 0.69615 0.78999 0.0
O92 O 0.9038 0.58687 0.7884 0.0
O93 O 1.00184 0.66748 0.79776 0.0
C94 C 0.80996 0.6869 0.81447 0.0
C95 C 0.94649 0.72401 0.73669 0.0
C96 C 0.01628 0.80135 0.8175 0.0
O97 O 0.84343 0.662 0.82421 0.0
O98 O 0.82773 0.70912 0.79079 0.0
O99 O 1.0054 0.80499 0.79283 0.0
O100 O 0.97947 0.74454 0.8283 0.0
C101 C 0.9648 0.60507 0.79361 0.0
O102 O 0.95699 0.76837 0.75417 0.0
O103 O 0.91703 0.66406 0.74563 0.0
In104 In 0.23995 0.91609 0.11952 0.0
O105 O 0.32809 0.89434 0.11865 0.0
O106 O 0.34986 0.99464 0.12657 0.0
C107 C 0.13493 0.80676 0.14461 0.0
C108 C 0.239 0.93998 0.06602 0.0
C109 C 0.23113 1.00882 0.14883 0.0
O110 O 0.19516 0.83433 0.15252 0.0
O111 O 0.1287 0.82787 0.12185 0.0
O112 O 0.21739 1.00104 0.12401 0.0
O113 O 0.25107 0.97106 0.15862 0.0
C114 C 0.37275 0.95522 0.12332 0.0
O115 O 0.20978 0.9568 0.08334 0.0
O116 O 0.2625 0.90433 0.07523 0.0
In117 In 0.32284 0.23514 0.45074 0.0
O118 O 0.25321 0.20207 0.41434 0.0
O119 O 0.3584 0.25545 0.40641 0.0
C120 C 0.22417 0.23215 0.47996 0.0
C121 C 0.41474 0.36881 0.45516 0.0
C122 C 0.31744 0.12405 0.47454 0.0
O123 O 0.22091 0.22599 0.45466 0.0
O124 O 0.2779 0.24067 0.49056 0.0
O125 O 0.36203 0.18357 0.48071 0.0
O126 O 0.28325 0.12133 0.45417 0.0
C127 C 0.29926 0.23013 0.39699 0.0
O128 O 0.43273 0.32512 0.45144 0.0
O129 O 0.35211 0.34435 0.45754 0.0
In130 In 0.10821 0.32446 0.78815 0.0
O131 O 0.07189 0.25343 0.75185 0.0
O132 O 0.11642 0.35847 0.74388 0.0
C133 C 1.01291 0.21989 0.81558 0.0
C134 C 0.06931 0.41839 0.79191 0.0
C135 C 0.21836 0.33257 0.81406 0.0
O136 O 0.0267 0.21473 0.79141 0.0
O137 O 0.0469 0.27795 0.82576 0.0
O138 O 0.18561 0.35928 0.82274 0.0
O139 O 0.20117 0.30886 0.79051 0.0
C140 C 0.08509 0.29889 0.73457 0.0
O141 O 0.13001 0.43456 0.78723 0.0
O142 O 0.02982 0.3559 0.79505 0.0
In143 In 0.79815 0.10676 0.11887 0.0
O144 O 0.83333 0.07191 0.08242 0.0
O145 O 0.77065 0.11384 0.07474 0.0
C146 C 0.81254 0.01446 0.14621 0.0
C147 C 0.66414 0.06183 0.12342 0.0
C148 C 0.90074 0.21919 0.14354 0.0
O149 O 0.82419 0.02387 0.12129 0.0
O150 O 0.79291 0.0512 0.15728 0.0
O151 O 0.84125 0.18762 0.15235 0.0
O152 O 0.90667 0.19987 0.12033 0.0
C153 C 0.79972 0.08357 0.06531 0.0
O154 O 0.70635 0.12311 0.11808 0.0
O155 O 0.69016 0.02536 0.12726 0.0
C156 C 0.02609 0.29351 0.15081 0.0
C157 C 0.96014 0.2623 0.16134 0.0
C158 C 0.0831 0.32165 0.16783 0.0
C159 C 0.07689 0.3191 0.19623 0.0
H160 H 0.03382 0.29328 0.12925 0.0
H161 H 0.1323 0.34184 0.15858 0.0
S162 S 0.91615 0.25012 0.23417 0.0
N163 N 0.89266 0.23677 0.20221 0.0
N164 N 0.99928 0.28816 0.23394 0.0
C165 C 1.01153 0.29193 0.20698 0.0
C166 C 0.95344 0.26402 0.18964 0.0
C167 C 0.74097 1.0077 0.54244 0.0
C168 C 0.77575 0.07441 0.5325 0.0
C169 C 0.71354 0.95138 0.52493 0.0
C170 C 0.72076 0.95899 0.49662 0.0
H171 H 0.73715 0.99878 0.56401 0.0
H172 H 0.68979 0.90138 0.53381 0.0
S173 S 0.80367 0.12257 0.45996 0.0
N174 N 0.81187 0.14439 0.49211 0.0
N175 N 0.76212 0.03912 0.45952 0.0
C176 C 0.75278 0.02534 0.48637 0.0
C177 C 0.7797 0.08272 0.50417 0.0
C178 C 0.74052 0.72814 0.87718 0.0
C179 C 0.70741 0.76105 0.86671 0.0
C180 C 0.76866 0.69939 0.86009 0.0
C181 C 0.7661 0.70321 0.8317 0.0
H182 H 0.74756 0.72729 0.89876 0.0
H183 H 0.79632 0.67767 0.86931 0.0
S184 S 0.68012 0.77854 0.79386 0.0
N185 N 0.669 0.79063 0.82587 0.0
N186 N 0.723 0.7382 0.79402 0.0
C187 C 0.72984 0.73254 0.82098 0.0
C188 C 0.70028 0.76095 0.83838 0.0
C189 C 0.95357 0.70431 0.17043 0.0
C190 C 0.96086 0.71252 0.19872 0.0
C191 C 1.00997 0.73138 0.15305 0.0
C192 C 0.07632 0.76668 0.16317 0.0
H193 H 0.9038 0.68025 0.16144 0.0
H194 H 1.0014 0.72693 0.13146 0.0
S195 S 0.12343 0.79732 0.23576 0.0
N196 N 0.04019 0.75541 0.236 0.0
N197 N 0.14562 0.80445 0.2037 0.0
C198 C 0.08428 0.77156 0.19151 0.0
C199 C 0.02685 0.74505 0.20914 0.0
C200 C 0.33617 0.05233 0.5092 0.0
C201 C 0.29242 0.06626 0.494 0.0
C202 C 0.31094 1.00003 0.52883 0.0
C203 C 0.2414 0.96184 0.53461 0.0
H204 H 0.39005 0.0818 0.50585 0.0
H205 H 0.34601 0.99037 0.53987 0.0
S206 S 0.10645 0.98156 0.50212 0.0
N207 N 0.17625 0.03815 0.48696 0.0
N208 N 0.13005 0.94331 0.52414 0.0
C209 C 0.19776 0.9763 0.51987 0.0
C210 C 0.22288 0.0276 0.49956 0.0
C211 C 0.32423 0.25682 0.83886 0.0
C212 C 0.32038 0.25958 0.86725 0.0
C213 C 0.29498 0.28432 0.82171 0.0
C214 C 0.26136 0.31681 0.83211 0.0
H215 H 0.34647 0.22955 0.8297 0.0
H216 H 0.29606 0.27722 0.80013 0.0
S217 S 0.24428 0.34508 0.90493 0.0
N218 N 0.28502 0.30258 0.90484 0.0
N219 N 0.23165 0.35543 0.87291 0.0
C220 C 0.26141 0.32415 0.86044 0.0
C221 C 0.2904 0.29529 0.87789 0.0
C222 C 0.54354 0.57565 0.23228 0.0
C223 C 0.58984 0.55245 0.23521 0.0
C224 C 0.47362 0.53094 0.23247 0.0
C225 C 0.44693 0.46097 0.23521 0.0
H226 H 0.56137 0.62914 0.2301 0.0
H227 H 0.44029 0.55143 0.23029 0.0
S228 S 0.54606 0.3739 0.2436 0.0
N229 N 0.60367 0.45471 0.24116 0.0
N230 N 0.47253 0.37038 0.24111 0.0
C231 C 0.49261 0.43692 0.23803 0.0
C232 C 0.5639 0.48266 0.23816 0.0
C233 C 0.97648 0.54216 0.57395 0.0
C234 C 0.04633 0.58914 0.57472 0.0
C235 C 0.95154 0.47208 0.57418 0.0
C236 C 0.99538 0.44588 0.57489 0.0
H237 H 0.94041 0.55958 0.57341 0.0
H238 H 0.89748 0.43826 0.57367 0.0
S239 S 0.18276 0.54696 0.57705 0.0
N240 N 0.15886 0.60409 0.57632 0.0
N241 N 0.11259 0.47288 0.57644 0.0
C242 C 0.06545 0.4923 0.57555 0.0
C243 C 0.09074 0.56368 0.57555 0.0
C244 C 0.4509 0.97212 0.9043 0.0
C245 C 0.47497 0.04231 0.90433 0.0
C246 C 0.49514 0.94637 0.90449 0.0
C247 C 0.56536 0.98971 0.90438 0.0
H248 H 0.39721 0.93645 0.90442 0.0
H249 H 0.47405 0.89207 0.90463 0.0
S250 S 0.65455 0.17766 0.90443 0.0
N251 N 0.57382 0.15464 0.90438 0.0
N252 N 0.65706 0.10675 0.90438 0.0
C253 C 0.59019 0.06009 0.90426 0.0
C254 C 0.54505 0.08624 0.90434 0.0
C255 C 0.57676 0.53916 0.45993 0.0
C256 C 0.55448 0.58628 0.45693 0.0
C257 C 0.53162 0.46914 0.45921 0.0
C258 C 0.46209 0.44316 0.45585 0.0
H259 H 0.62987 0.55642 0.46259 0.0
H260 H 0.55139 0.43519 0.46147 0.0
S261 S 0.37747 0.54458 0.44698 0.0
N262 N 0.45811 0.60161 0.45022 0.0
N263 N 0.37298 0.47039 0.44928 0.0
C264 C 0.43899 0.48969 0.45294 0.0
C265 C 0.48518 0.56104 0.45336 0.0
C266 C 0.94905 0.48799 0.79327 0.0
C267 C 0.99245 0.55838 0.79372 0.0
C268 C 0.97456 0.44345 0.79299 0.0
C269 C 0.04454 0.46739 0.7928 0.0
H270 H 0.89491 0.46703 0.7932 0.0
H271 H 0.93888 0.38965 0.79263 0.0
S272 S 0.17993 0.64728 0.79353 0.0
N273 N 0.10933 0.65002 0.79392 0.0
N274 N 0.15672 0.56629 0.79304 0.0
C275 C 0.0885 0.53762 0.79316 0.0
C276 C 0.06262 0.58303 0.79372 0.0
C277 C 0.49253 0.05061 0.12418 0.0
C278 C 0.44657 0.98039 0.12392 0.0
C279 C 0.56259 0.07659 0.12406 0.0
C280 C 0.58974 0.03347 0.12402 0.0
H281 H 0.47433 0.08613 0.12416 0.0
H282 H 0.59566 0.13092 0.12405 0.0
S283 S 0.49149 0.84553 0.1234 0.0
N284 N 0.43356 0.86825 0.12353 0.0
N285 N 0.56478 0.91658 0.12368 0.0
C286 C 0.54435 0.96306 0.12396 0.0
C287 C 0.47299 0.93667 0.1238 0.0
C288 C 0.23083 0.1165 0.15211 0.0
C289 C 0.2263 0.0597 0.16495 0.0
C290 C 0.23003 0.16767 0.1671 0.0
C291 C 0.22348 0.16294 0.19532 0.0
H292 H 0.23676 0.12233 0.13041 0.0
H293 H 0.235 0.21141 0.15651 0.0
S294 S 0.2052 0.02178 0.23822 0.0
N295 N 0.21212 0.9997 0.20717 0.0
N296 N 0.20955 0.09584 0.23549 0.0
C297 C 0.21667 0.1053 0.20834 0.0
C298 C 0.21847 0.05361 0.19308 0.0
C299 C 0.11588 0.21686 0.53954 0.0
C300 C 0.06765 0.23005 0.52806 0.0
C301 C 0.16657 0.21765 0.52372 0.0
C302 C 0.16996 0.2308 0.49593 0.0
H303 H 0.11517 0.20687 0.56095 0.0
H304 H 0.20316 0.20767 0.53333 0.0
S305 S 0.05443 0.26656 0.45607 0.0
N306 N 0.0254 0.25546 0.48724 0.0
N307 N 0.12078 0.25643 0.45739 0.0
C308 C 0.12144 0.243 0.48409 0.0
C309 C 0.07018 0.24281 0.50023 0.0
C310 C 0.96066 0.16673 0.85912 0.0
C311 C 0.96048 0.16306 0.83083 0.0
C312 C 0.91007 0.11473 0.8743 0.0
C313 C 0.8572 0.05806 0.8616 0.0
H314 H 1.00001 0.21019 0.86965 0.0
H315 H 0.9115 0.11987 0.89607 0.0
S316 S 0.83525 0.02294 0.78812 0.0
N317 N 0.90478 0.09723 0.79066 0.0
N318 N 0.80861 0.9995 0.81934 0.0
C319 C 0.85694 0.05307 0.83336 0.0
C320 C 0.90902 0.10565 0.8179 0.0
C321 C 0.82691 0.96874 0.18934 0.0
C322 C 0.81888 0.9629 0.1612 0.0
C323 C 0.82861 0.91815 0.20443 0.0
C324 C 0.821 0.85974 0.19183 0.0
H325 H 0.83109 0.0123 0.19982 0.0
H326 H 0.83327 0.92366 0.22617 0.0
S327 S 0.80269 0.82225 0.11851 0.0
N328 N 0.80702 0.89632 0.12108 0.0
N329 N 0.8089 0.8002 0.14965 0.0
C330 C 0.81496 0.85415 0.16363 0.0
C331 C 0.8143 0.90616 0.14822 0.0
C332 C 0.85416 0.79743 0.52791 0.0
C333 C 0.8603 0.80387 0.49976 0.0
C334 C 0.90367 0.795 0.54334 0.0
C335 C 0.9601 0.79756 0.53103 0.0
H336 H 0.81087 0.79439 0.53809 0.0
H337 H 0.89719 0.79025 0.56505 0.0
S338 S 0.99855 0.81315 0.45776 0.0
N339 N 0.92654 0.81286 0.45999 0.0
N340 N 0.01931 0.80644 0.48905 0.0
C341 C 0.96666 0.80364 0.50283 0.0
C342 C 0.91681 0.80745 0.48715 0.0
C343 C 0.11827 0.91051 0.87561 0.0
C344 C 0.17521 0.96237 0.86265 0.0
C345 C 0.06653 0.85875 0.86071 0.0
C346 C 0.06969 0.85807 0.83243 0.0
H347 H 0.11437 0.90891 0.89742 0.0
H348 H 0.02393 0.81889 0.87144 0.0
S349 S 0.20656 0.98446 0.78892 0.0
N350 N 0.23113 1.01152 0.82002 0.0
N351 N 0.13293 0.9144 0.79189 0.0
C352 C 0.12543 0.91068 0.81916 0.0
C353 C 0.1786 0.96287 0.83435 0.0
C354 C 0.32873 0.30497 0.3564 0.0
C355 C 0.28433 0.24355 0.36926 0.0
C356 C 0.31128 0.32352 0.33194 0.0
C357 C 0.2493 0.28077 0.31914 0.0
H358 H 0.37654 0.33997 0.36569 0.0
H359 H 0.3473 0.37109 0.32271 0.0
S360 S 0.11588 0.11381 0.3442 0.0
N361 N 0.17558 0.14014 0.36738 0.0
N362 N 0.14397 0.17371 0.321 0.0
C363 C 0.20494 0.2188 0.33159 0.0
C364 C 0.22211 0.20056 0.35674 0.0
C365 C 0.99764 0.30648 0.67054 0.0
C366 C 0.98137 0.24576 0.65722 0.0
C367 C 0.03416 0.32478 0.69488 0.0
C368 C 0.05459 0.28242 0.70717 0.0
H369 H 0.98362 0.34105 0.66174 0.0
H370 H 0.04498 0.37175 0.70449 0.0
S371 S 0.02366 0.11742 0.68072 0.0
N372 N 0.98907 0.14361 0.65802 0.0
N373 N 0.05498 0.17652 0.70427 0.0
C374 C 0.03792 0.22121 0.69421 0.0
C375 C 1.00211 0.20332 0.66912 0.0
C376 C 0.72237 0.03147 0.02576 0.0
C377 C 0.78515 0.05211 0.03805 0.0
C378 C 0.70353 0.99365 1.00171 0.0
C379 C 0.74721 0.97603 0.98871 0.0
H380 H 0.6867 0.04311 0.03515 0.0
H381 H 0.65496 0.97952 0.9929 0.0
S382 S 0.91755 0.01837 1.01237 0.0
N383 N 0.89071 0.05152 0.03546 0.0
N384 N 0.85638 0.98276 0.98985 0.0
C385 C 0.81036 0.99696 1.00064 0.0
C386 C 0.82902 0.03432 0.02539 0.0
C387 C 0.74207 0.78021 0.32521 0.0
C388 C 0.77993 0.74805 0.32019 0.0
C389 C 0.72897 0.79317 0.35162 0.0
C390 C 0.75436 0.77576 0.37412 0.0
H391 H 0.72116 0.79447 0.30856 0.0
H392 H 0.69881 0.81704 0.35439 0.0
S393 S 0.8578 0.69202 0.37208 0.0
N394 N 0.84296 0.69963 0.34004 0.0
N395 N 0.82009 0.72514 0.38955 0.0
C396 C 0.79327 0.74453 0.36937 0.0
C397 C 0.80555 0.73034 0.34248 0.0
C398 C 0.03763 0.72258 0.67275 0.0
C399 C 0.05227 0.78329 0.65985 0.0
C400 C 1.00059 0.70228 0.69695 0.0
C401 C 0.97791 0.74256 0.70949 0.0
H402 H 0.05323 0.68946 0.66369 0.0
H403 H 0.991 0.65536 0.70621 0.0
S404 S 1.00424 0.90683 0.68424 0.0
N405 N 0.04094 0.88335 0.66139 0.0
N406 N 0.97387 0.84665 0.70735 0.0
C407 C 0.99308 0.80384 0.69699 0.0
C408 C 0.02952 0.82378 0.67207 0.0
C409 C 0.21161 0.98953 0.02612 0.0
C410 C 0.2549 0.97072 0.03865 0.0
C411 C 0.22895 0.02498 1.0015 0.0
C412 C 0.29139 0.04533 0.98898 0.0
H413 H 0.16383 0.9766 0.03541 0.0
H414 H 0.19335 0.03695 0.99228 0.0
S415 S 0.42342 1.00992 1.01372 0.0
N416 N 0.36301 0.97518 0.03657 0.0
N417 N 0.39644 0.04353 0.99091 0.0
C418 C 0.33546 0.02752 1.00145 0.0
C419 C 0.31699 0.98976 0.02609 0.0
loop_
_geom_bond_atom_site_label_1
_geom_bond_atom_site_label_2
_geom_bond_distance
_geom_bond_site_symmetry_2
_ccdc_geom_bond_type
In0 O1 2.294 . S
In0 O2 2.326 . S
In0 O6 2.266 . S
In0 O7 2.326 . S
In0 O8 2.266 . S
In0 O9 2.326 . S
In0 O11 2.294 . S
In0 O12 2.326 . S
O1 In0 2.294 . S
O1 C10 1.240 . S
O2 In0 2.326 . S
O2 C10 1.252 . S
C3 O6 1.252 . S
C3 O7 1.260 . S
C4 O11 1.240 . S
C4 O12 1.252 . S
C5 O8 1.252 . S
C5 O9 1.260 . S
O6 In0 2.266 . S
O6 C3 1.252 . S
O7 In0 2.326 . S
O7 C3 1.260 . S
O8 In0 2.266 . S
O8 C5 1.252 . S
O9 In0 2.326 . S
O9 C5 1.260 . S
C10 O1 1.240 . S
C10 O2 1.252 . S
O11 In0 2.294 . S
O11 C4 1.240 . S
O12 In0 2.326 . S
O12 C4 1.252 . S
In13 O14 2.294 . S
In13 O15 2.326 1_655 S
In13 O19 2.266 . S
In13 O20 2.326 . S
In13 O21 2.266 1_655 S
In13 O22 2.326 . S
In13 O24 2.294 . S
In13 O25 2.326 . S
O14 In13 2.294 . S
O14 C23 1.240 . S
O15 In13 2.326 1_455 S
O15 C23 1.252 1_455 S
C16 O19 1.252 . S
C16 O20 1.260 . S
C17 O24 1.240 . S
C17 O25 1.252 . S
C18 O21 1.252 . S
C18 O22 1.260 1_455 S
O19 In13 2.266 . S
O19 C16 1.252 . S
O20 In13 2.326 . S
O20 C16 1.260 . S
O21 In13 2.266 1_455 S
O21 C18 1.252 . S
O22 In13 2.326 . S
O22 C18 1.260 1_655 S
C23 O14 1.240 . S
C23 O15 1.252 1_655 S
O24 In13 2.294 . S
O24 C17 1.240 . S
O25 In13 2.326 . S
O25 C17 1.252 . S
In26 O27 2.294 . S
In26 O28 2.326 . S
In26 O32 2.266 1_565 S
In26 O33 2.326 . S
In26 O34 2.266 . S
In26 O35 2.326 . S
In26 O37 2.294 . S
In26 O38 2.326 1_565 S
O27 In26 2.294 . S
O27 C36 1.240 . S
O28 In26 2.326 . S
O28 C36 1.252 . S
C29 O32 1.252 . S
C29 O33 1.260 1_545 S
C30 O37 1.240 . S
C30 O38 1.252 1_565 S
C31 O34 1.252 . S
C31 O35 1.260 . S
O32 In26 2.266 1_545 S
O32 C29 1.252 . S
O33 In26 2.326 . S
O33 C29 1.260 1_565 S
O34 In26 2.266 . S
O34 C31 1.252 . S
O35 In26 2.326 . S
O35 C31 1.260 . S
C36 O27 1.240 . S
C36 O28 1.252 . S
O37 In26 2.294 . S
O37 C30 1.240 . S
O38 In26 2.326 1_545 S
O38 C30 1.252 1_545 S
In39 O40 2.294 . S
In39 O41 2.326 . S
In39 O45 2.266 . S
In39 O46 2.326 . S
In39 O47 2.266 . S
In39 O48 2.326 . S
In39 O50 2.294 . S
In39 O51 2.326 . S
O40 In39 2.294 . S
O40 C49 1.240 . S
O41 In39 2.326 . S
O41 C49 1.252 . S
C42 O45 1.252 . S
C42 O46 1.260 . S
C43 O50 1.240 . S
C43 O51 1.252 . S
C44 O47 1.252 . S
C44 O48 1.260 . S
O45 In39 2.266 . S
O45 C42 1.252 . S
O46 In39 2.326 . S
O46 C42 1.260 . S
O47 In39 2.266 . S
O47 C44 1.252 . S
O48 In39 2.326 . S
O48 C44 1.260 . S
C49 O40 1.240 . S
C49 O41 1.252 . S
O50 In39 2.294 . S
O50 C43 1.240 . S
O51 In39 2.326 . S
O51 C43 1.252 . S
In52 O53 2.294 . S
In52 O54 2.326 1_455 S
In52 O58 2.266 . S
In52 O59 2.326 . S
In52 O60 2.266 1_455 S
In52 O61 2.326 . S
In52 O63 2.294 . S
In52 O64 2.326 . S
O53 In52 2.294 . S
O53 C62 1.240 . S
O54 In52 2.326 1_655 S
O54 C62 1.252 1_655 S
C55 O58 1.252 . S
C55 O59 1.260 . S
C56 O63 1.240 . S
C56 O64 1.252 . S
C57 O60 1.252 . S
C57 O61 1.260 1_655 S
O58 In52 2.266 . S
O58 C55 1.252 . S
O59 In52 2.326 . S
O59 C55 1.260 . S
O60 In52 2.266 1_655 S
O60 C57 1.252 . S
O61 In52 2.326 . S
O61 C57 1.260 1_455 S
C62 O53 1.240 . S
C62 O54 1.252 1_455 S
O63 In52 2.294 . S
O63 C56 1.240 . S
O64 In52 2.326 . S
O64 C56 1.252 . S
In65 O66 2.294 . S
In65 O67 2.326 1_545 S
In65 O71 2.266 . S
In65 O72 2.326 . S
In65 O73 2.266 1_545 S
In65 O74 2.326 . S
In65 O76 2.294 . S
In65 O77 2.326 . S
O66 In65 2.294 . S
O66 C75 1.240 . S
O67 In65 2.326 1_565 S
O67 C75 1.252 1_565 S
C68 O71 1.252 . S
C68 O72 1.260 . S
C69 O76 1.240 . S
C69 O77 1.252 . S
C70 O73 1.252 . S
C70 O74 1.260 1_565 S
O71 In65 2.266 . S
O71 C68 1.252 . S
O72 In65 2.326 . S
O72 C68 1.260 . S
O73 In65 2.266 1_565 S
O73 C70 1.252 . S
O74 In65 2.326 . S
O74 C70 1.260 1_545 S
C75 O66 1.240 . S
C75 O67 1.252 1_545 S
O76 In65 2.294 . S
O76 C69 1.240 . S
O77 In65 2.326 . S
O77 C69 1.252 . S
In78 O79 2.294 . S
In78 O80 2.326 . S
In78 O84 2.266 . S
In78 O85 2.326 . S
In78 O86 2.266 . S
In78 O87 2.326 . S
In78 O89 2.294 . S
In78 O90 2.326 . S
O79 In78 2.294 . S
O79 C88 1.240 . S
O80 In78 2.326 . S
O80 C88 1.252 . S
C81 O84 1.252 . S
C81 O85 1.260 . S
C82 O89 1.240 . S
C82 O90 1.252 . S
C83 O86 1.252 . S
C83 O87 1.260 . S
O84 In78 2.266 . S
O84 C81 1.252 . S
O85 In78 2.326 . S
O85 C81 1.260 . S
O86 In78 2.266 . S
O86 C83 1.252 . S
O87 In78 2.326 . S
O87 C83 1.260 . S
C88 O79 1.240 . S
C88 O80 1.252 . S
O89 In78 2.294 . S
O89 C82 1.240 . S
O90 In78 2.326 . S
O90 C82 1.252 . S
In91 O92 2.294 . S
In91 O93 2.326 1_655 S
In91 O97 2.266 . S
In91 O98 2.326 . S
In91 O99 2.266 1_655 S
In91 O100 2.326 . S
In91 O102 2.294 . S
In91 O103 2.326 . S
O92 In91 2.294 . S
O92 C101 1.240 . S
O93 In91 2.326 1_455 S
O93 C101 1.252 1_455 S
C94 O97 1.252 . S
C94 O98 1.260 . S
C95 O102 1.240 . S
C95 O103 1.252 . S
C96 O99 1.252 . S
C96 O100 1.260 1_455 S
O97 In91 2.266 . S
O97 C94 1.252 . S
O98 In91 2.326 . S
O98 C94 1.260 . S
O99 In91 2.266 1_455 S
O99 C96 1.252 . S
O100 In91 2.326 . S
O100 C96 1.260 1_655 S
C101 O92 1.240 . S
C101 O93 1.252 1_655 S
O102 In91 2.294 . S
O102 C95 1.240 . S
O103 In91 2.326 . S
O103 C95 1.252 . S
In104 O105 2.294 . S
In104 O106 2.326 1_565 S
In104 O110 2.266 . S
In104 O111 2.326 . S
In104 O112 2.266 1_565 S
In104 O113 2.326 . S
In104 O115 2.294 . S
In104 O116 2.326 . S
O105 In104 2.294 . S
O105 C114 1.240 . S
O106 In104 2.326 1_545 S
O106 C114 1.252 1_545 S
C107 O110 1.252 . S
C107 O111 1.260 . S
C108 O115 1.240 . S
C108 O116 1.252 . S
C109 O112 1.252 . S
C109 O113 1.260 1_545 S
O110 In104 2.266 . S
O110 C107 1.252 . S
O111 In104 2.326 . S
O111 C107 1.260 . S
O112 In104 2.266 1_545 S
O112 C109 1.252 . S
O113 In104 2.326 . S
O113 C109 1.260 1_565 S
C114 O105 1.240 . S
C114 O106 1.252 1_565 S
O115 In104 2.294 . S
O115 C108 1.240 . S
O116 In104 2.326 . S
O116 C108 1.252 . S
In117 O118 2.294 . S
In117 O119 2.326 . S
In117 O123 2.266 . S
In117 O124 2.326 . S
In117 O125 2.266 . S
In117 O126 2.326 . S
In117 O128 2.294 . S
In117 O129 2.326 . S
O118 In117 2.294 . S
O118 C127 1.240 . S
O119 In117 2.326 . S
O119 C127 1.252 . S
C120 O123 1.252 . S
C120 O124 1.260 . S
C121 O128 1.240 . S
C121 O129 1.252 . S
C122 O125 1.252 . S
C122 O126 1.260 . S
O123 In117 2.266 . S
O123 C120 1.252 . S
O124 In117 2.326 . S
O124 C120 1.260 . S
O125 In117 2.266 . S
O125 C122 1.252 . S
O126 In117 2.326 . S
O126 C122 1.260 . S
C127 O118 1.240 . S
C127 O119 1.252 . S
O128 In117 2.294 . S
O128 C121 1.240 . S
O129 In117 2.326 . S
O129 C121 1.252 . S
In130 O131 2.294 . S
In130 O132 2.326 . S
In130 O136 2.266 1_455 S
In130 O137 2.326 . S
In130 O138 2.266 . S
In130 O139 2.326 . S
In130 O141 2.294 . S
In130 O142 2.326 1_455 S
O131 In130 2.294 . S
O131 C140 1.240 . S
O132 In130 2.326 . S
O132 C140 1.252 . S
C133 O136 1.252 . S
C133 O137 1.260 1_655 S
C134 O141 1.240 . S
C134 O142 1.252 1_455 S
C135 O138 1.252 . S
C135 O139 1.260 . S
O136 In130 2.266 1_655 S
O136 C133 1.252 . S
O137 In130 2.326 . S
O137 C133 1.260 1_455 S
O138 In130 2.266 . S
O138 C135 1.252 . S
O139 In130 2.326 . S
O139 C135 1.260 . S
C140 O131 1.240 . S
C140 O132 1.252 . S
O141 In130 2.294 . S
O141 C134 1.240 . S
O142 In130 2.326 1_655 S
O142 C134 1.252 1_655 S
In143 O144 2.294 . S
In143 O145 2.326 . S
In143 O149 2.266 1_545 S
In143 O150 2.326 . S
In143 O151 2.266 . S
In143 O152 2.326 . S
In143 O154 2.294 . S
In143 O155 2.326 1_545 S
O144 In143 2.294 . S
O144 C153 1.240 . S
O145 In143 2.326 . S
O145 C153 1.252 . S
C146 O149 1.252 . S
C146 O150 1.260 1_565 S
C147 O154 1.240 . S
C147 O155 1.252 1_545 S
C148 O151 1.252 . S
C148 O152 1.260 . S
O149 In143 2.266 1_565 S
O149 C146 1.252 . S
O150 In143 2.326 . S
O150 C146 1.260 1_545 S
O151 In143 2.266 . S
O151 C148 1.252 . S
O152 In143 2.326 . S
O152 C148 1.260 . S
C153 O144 1.240 . S
C153 O145 1.252 . S
O154 In143 2.294 . S
O154 C147 1.240 . S
O155 In143 2.326 1_565 S
O155 C147 1.252 1_565 S
C156 C157 1.369 . S
C156 C158 1.419 1_655 S
C156 H160 0.930 . S
C157 C156 1.369 . S
C157 C166 1.429 . S
C158 C156 1.419 1_455 S
C158 C159 1.363 . S
C158 H161 0.929 . S
C159 C158 1.363 . S
C159 C165 1.428 . S
H160 C156 0.930 . S
H161 C158 0.929 . S
S162 N163 1.613 . S
S162 N164 1.610 1_655 S
N163 S162 1.613 . S
N163 C166 1.350 . S
N164 S162 1.610 1_455 S
N164 C165 1.351 . S
C165 C159 1.428 . S
C165 N164 1.351 . S
C165 C166 1.434 1_455 S
C166 C157 1.429 . S
C166 N163 1.350 . S
C166 C165 1.434 1_655 S
C167 C168 1.369 1_565 S
C167 C169 1.419 . S
C167 H171 0.930 . S
C168 C167 1.369 1_545 S
C168 C177 1.429 . S
C169 C167 1.419 . S
C169 C170 1.363 . S
C169 H172 0.929 . S
C170 C169 1.363 . S
C170 C176 1.428 1_565 S
H171 C167 0.930 . S
H172 C169 0.929 . S
S173 N174 1.613 . S
S173 N175 1.610 . S
N174 S173 1.613 . S
N174 C177 1.350 . S
N175 S173 1.610 . S
N175 C176 1.351 . S
C176 C170 1.428 1_545 S
C176 N175 1.351 . S
C176 C177 1.434 . S
C177 C168 1.429 . S
C177 N174 1.350 . S
C177 C176 1.434 . S
C178 C179 1.369 . S
C178 C180 1.419 . S
C178 H182 0.930 . S
C179 C178 1.369 . S
C179 C188 1.429 . S
C180 C178 1.419 . S
C180 C181 1.363 . S
C180 H183 0.929 . S
C181 C180 1.363 . S
C181 C187 1.428 . S
H182 C178 0.930 . S
H183 C180 0.929 . S
S184 N185 1.613 . S
S184 N186 1.610 . S
N185 S184 1.613 . S
N185 C188 1.350 . S
N186 S184 1.610 . S
N186 C187 1.351 . S
C187 C181 1.428 . S
C187 N186 1.351 . S
C187 C188 1.434 . S
C188 C179 1.429 . S
C188 N185 1.350 . S
C188 C187 1.434 . S
C189 C190 1.369 . S
C189 C191 1.419 . S
C189 H193 0.930 . S
C190 C189 1.369 . S
C190 C199 1.429 1_655 S
C191 C189 1.419 . S
C191 C192 1.363 1_655 S
C191 H194 0.929 . S
C192 C191 1.363 1_455 S
C192 C198 1.428 . S
H193 C189 0.930 . S
H194 C191 0.929 . S
S195 N196 1.613 . S
S195 N197 1.610 . S
N196 S195 1.613 . S
N196 C199 1.350 . S
N197 S195 1.610 . S
N197 C198 1.351 . S
C198 C192 1.428 . S
C198 N197 1.351 . S
C198 C199 1.434 . S
C199 C190 1.429 1_455 S
C199 N196 1.350 . S
C199 C198 1.434 . S
C200 C201 1.369 . S
C200 C202 1.419 1_545 S
C200 H204 0.930 . S
C201 C200 1.369 . S
C201 C210 1.429 . S
C202 C200 1.419 1_565 S
C202 C203 1.363 . S
C202 H205 0.929 . S
C203 C202 1.363 . S
C203 C209 1.428 . S
H204 C200 0.930 . S
H205 C202 0.929 . S
S206 N207 1.613 1_565 S
S206 N208 1.610 . S
N207 S206 1.613 1_545 S
N207 C210 1.350 . S
N208 S206 1.610 . S
N208 C209 1.351 . S
C209 C203 1.428 . S
C209 N208 1.351 . S
C209 C210 1.434 1_565 S
C210 C201 1.429 . S
C210 N207 1.350 . S
C210 C209 1.434 1_545 S
C211 C212 1.369 . S
C211 C213 1.419 . S
C211 H215 0.930 . S
C212 C211 1.369 . S
C212 C221 1.429 . S
C213 C211 1.419 . S
C213 C214 1.363 . S
C213 H216 0.929 . S
C214 C213 1.363 . S
C214 C220 1.428 . S
H215 C211 0.930 . S
H216 C213 0.929 . S
S217 N218 1.613 . S
S217 N219 1.610 . S
N218 S217 1.613 . S
N218 C221 1.350 . S
N219 S217 1.610 . S
N219 C220 1.351 . S
C220 C214 1.428 . S
C220 N219 1.351 . S
C220 C221 1.434 . S
C221 C212 1.429 . S
C221 N218 1.350 . S
C221 C220 1.434 . S
C222 C223 1.369 . S
C222 C224 1.419 . S
C222 H226 0.930 . S
C223 C222 1.369 . S
C223 C232 1.429 . S
C224 C222 1.419 . S
C224 C225 1.363 . S
C224 H227 0.929 . S
C225 C224 1.363 . S
C225 C231 1.428 . S
H226 C222 0.930 . S
H227 C224 0.929 . S
S228 N229 1.613 . S
S228 N230 1.610 . S
N229 S228 1.613 . S
N229 C232 1.350 . S
N230 S228 1.610 . S
N230 C231 1.351 . S
C231 C225 1.428 . S
C231 N230 1.351 . S
C231 C232 1.434 . S
C232 C223 1.429 . S
C232 N229 1.350 . S
C232 C231 1.434 . S
C233 C234 1.369 1_655 S
C233 C235 1.419 . S
C233 H237 0.930 . S
C234 C233 1.369 1_455 S
C234 C243 1.429 . S
C235 C233 1.419 . S
C235 C236 1.363 . S
C235 H238 0.929 . S
C236 C235 1.363 . S
C236 C242 1.428 1_655 S
H237 C233 0.930 . S
H238 C235 0.929 . S
S239 N240 1.613 . S
S239 N241 1.610 . S
N240 S239 1.613 . S
N240 C243 1.350 . S
N241 S239 1.610 . S
N241 C242 1.351 . S
C242 C236 1.428 1_455 S
C242 N241 1.351 . S
C242 C243 1.434 . S
C243 C234 1.429 . S
C243 N240 1.350 . S
C243 C242 1.434 . S
C244 C245 1.369 1_565 S
C244 C246 1.419 . S
C244 H248 0.930 . S
C245 C244 1.369 1_545 S
C245 C254 1.429 . S
C246 C244 1.419 . S
C246 C247 1.363 . S
C246 H249 0.929 . S
C247 C246 1.363 . S
C247 C253 1.428 1_565 S
H248 C244 0.930 . S
H249 C246 0.929 . S
S250 N251 1.613 . S
S250 N252 1.610 . S
N251 S250 1.613 . S
N251 C254 1.350 . S
N252 S250 1.610 . S
N252 C253 1.351 . S
C253 C247 1.428 1_545 S
C253 N252 1.351 . S
C253 C254 1.434 . S
C254 C245 1.429 . S
C254 N251 1.350 . S
C254 C253 1.434 . S
C255 C256 1.369 . S
C255 C257 1.419 . S
C255 H259 0.930 . S
C256 C255 1.369 . S
C256 C265 1.429 . S
C257 C255 1.419 . S
C257 C258 1.363 . S
C257 H260 0.929 . S
C258 C257 1.363 . S
C258 C264 1.428 . S
H259 C255 0.930 . S
H260 C257 0.929 . S
S261 N262 1.613 . S
S261 N263 1.610 . S
N262 S261 1.613 . S
N262 C265 1.350 . S
N263 S261 1.610 . S
N263 C264 1.351 . S
C264 C258 1.428 . S
C264 N263 1.351 . S
C264 C265 1.434 . S
C265 C256 1.429 . S
C265 N262 1.350 . S
C265 C264 1.434 . S
C266 C267 1.369 . S
C266 C268 1.419 . S
C266 H270 0.930 . S
C267 C266 1.369 . S
C267 C276 1.429 1_655 S
C268 C266 1.419 . S
C268 C269 1.363 1_655 S
C268 H271 0.929 . S
C269 C268 1.363 1_455 S
C269 C275 1.428 . S
H270 C266 0.930 . S
H271 C268 0.929 . S
S272 N273 1.613 . S
S272 N274 1.610 . S
N273 S272 1.613 . S
N273 C276 1.350 . S
N274 S272 1.610 . S
N274 C275 1.351 . S
C275 C269 1.428 . S
C275 N274 1.351 . S
C275 C276 1.434 . S
C276 C267 1.429 1_455 S
C276 N273 1.350 . S
C276 C275 1.434 . S
C277 C278 1.369 . S
C277 C279 1.419 1_565 S
C277 H281 0.930 . S
C278 C277 1.369 . S
C278 C287 1.429 . S
C279 C277 1.419 1_545 S
C279 C280 1.363 . S
C279 H282 0.929 . S
C280 C279 1.363 . S
C280 C286 1.428 . S
H281 C277 0.930 . S
H282 C279 0.929 . S
S283 N284 1.613 . S
S283 N285 1.610 . S
N284 S283 1.613 . S
N284 C287 1.350 . S
N285 S283 1.610 . S
N285 C286 1.351 1_565 S
C286 C280 1.428 . S
C286 N285 1.351 1_545 S
C286 C287 1.434 1_545 S
C287 C278 1.429 . S
C287 N284 1.350 . S
C287 C286 1.434 1_565 S
C288 C289 1.369 . S
C288 C290 1.419 . S
C288 H292 0.930 . S
C289 C288 1.369 . S
C289 C298 1.429 . S
C290 C288 1.419 . S
C290 C291 1.363 . S
C290 H293 0.929 . S
C291 C290 1.363 . S
C291 C297 1.428 . S
H292 C288 0.930 . S
H293 C290 0.929 . S
S294 N295 1.613 . S
S294 N296 1.610 . S
N295 S294 1.613 . S
N295 C298 1.350 . S
N296 S294 1.610 . S
N296 C297 1.351 . S
C297 C291 1.428 . S
C297 N296 1.351 . S
C297 C298 1.434 . S
C298 C289 1.429 . S
C298 N295 1.350 . S
C298 C297 1.434 . S
C299 C300 1.369 . S
C299 C301 1.419 . S
C299 H303 0.930 . S
C300 C299 1.369 . S
C300 C309 1.429 . S
C301 C299 1.419 . S
C301 C302 1.363 . S
C301 H304 0.929 . S
C302 C301 1.363 . S
C302 C308 1.428 . S
H303 C299 0.930 . S
H304 C301 0.929 . S
S305 N306 1.613 . S
S305 N307 1.610 . S
N306 S305 1.613 . S
N306 C309 1.350 . S
N307 S305 1.610 . S
N307 C308 1.351 . S
C308 C302 1.428 . S
C308 N307 1.351 . S
C308 C309 1.434 . S
C309 C300 1.429 . S
C309 N306 1.350 . S
C309 C308 1.434 . S
C310 C311 1.369 . S
C310 C312 1.419 . S
C310 H314 0.930 . S
C311 C310 1.369 . S
C311 C320 1.429 . S
C312 C310 1.419 . S
C312 C313 1.363 . S
C312 H315 0.929 . S
C313 C312 1.363 . S
C313 C319 1.428 . S
H314 C310 0.930 . S
H315 C312 0.929 . S
S316 N317 1.613 . S
S316 N318 1.610 . S
N317 S316 1.613 . S
N317 C320 1.350 . S
N318 S316 1.610 . S
N318 C319 1.351 . S
C319 C313 1.428 . S
C319 N318 1.351 . S
C319 C320 1.434 . S
C320 C311 1.429 . S
C320 N317 1.350 . S
C320 C319 1.434 . S
C321 C322 1.369 . S
C321 C323 1.419 . S
C321 H325 0.930 . S
C322 C321 1.369 . S
C322 C331 1.429 . S
C323 C321 1.419 . S
C323 C324 1.363 . S
C323 H326 0.929 . S
C324 C323 1.363 . S
C324 C330 1.428 . S
H325 C321 0.930 . S
H326 C323 0.929 . S
S327 N328 1.613 . S
S327 N329 1.610 . S
N328 S327 1.613 . S
N328 C331 1.350 . S
N329 S327 1.610 . S
N329 C330 1.351 . S
C330 C324 1.428 . S
C330 N329 1.351 . S
C330 C331 1.434 . S
C331 C322 1.429 . S
C331 N328 1.350 . S
C331 C330 1.434 . S
C332 C333 1.369 . S
C332 C334 1.419 . S
C332 H336 0.930 . S
C333 C332 1.369 . S
C333 C342 1.429 . S
C334 C332 1.419 . S
C334 C335 1.363 . S
C334 H337 0.929 . S
C335 C334 1.363 . S
C335 C341 1.428 . S
H336 C332 0.930 . S
H337 C334 0.929 . S
S338 N339 1.613 . S
S338 N340 1.610 . S
N339 S338 1.613 . S
N339 C342 1.350 . S
N340 S338 1.610 . S
N340 C341 1.351 . S
C341 C335 1.428 . S
C341 N340 1.351 . S
C341 C342 1.434 . S
C342 C333 1.429 . S
C342 N339 1.350 . S
C342 C341 1.434 . S
C343 C344 1.369 . S
C343 C345 1.419 . S
C343 H347 0.930 . S
C344 C343 1.369 . S
C344 C353 1.429 . S
C345 C343 1.419 . S
C345 C346 1.363 . S
C345 H348 0.929 . S
C346 C345 1.363 . S
C346 C352 1.428 . S
H347 C343 0.930 . S
H348 C345 0.929 . S
S349 N350 1.613 . S
S349 N351 1.610 . S
N350 S349 1.613 . S
N350 C353 1.350 . S
N351 S349 1.610 . S
N351 C352 1.351 . S
C352 C346 1.428 . S
C352 N351 1.351 . S
C352 C353 1.434 . S
C353 C344 1.429 . S
C353 N350 1.350 . S
C353 C352 1.434 . S
C354 C355 1.369 . S
C354 C356 1.419 . S
C354 H358 0.930 . S
C355 C354 1.369 . S
C355 C364 1.429 . S
C356 C354 1.419 . S
C356 C357 1.363 . S
C356 H359 0.929 . S
C357 C356 1.363 . S
C357 C363 1.428 . S
H358 C354 0.930 . S
H359 C356 0.929 . S
S360 N361 1.613 . S
S360 N362 1.610 . S
N361 S360 1.613 . S
N361 C364 1.350 . S
N362 S360 1.610 . S
N362 C363 1.351 . S
C363 C357 1.428 . S
C363 N362 1.351 . S
C363 C364 1.434 . S
C364 C355 1.429 . S
C364 N361 1.350 . S
C364 C363 1.434 . S
C365 C366 1.369 . S
C365 C367 1.419 . S
C365 H369 0.930 . S
C366 C365 1.369 . S
C366 C375 1.429 1_655 S
C367 C365 1.419 . S
C367 C368 1.363 1_655 S
C367 H370 0.929 . S
C368 C367 1.363 1_455 S
C368 C374 1.428 . S
H369 C365 0.930 . S
H370 C367 0.929 . S
S371 N372 1.613 . S
S371 N373 1.610 . S
N372 S371 1.613 . S
N372 C375 1.350 . S
N373 S371 1.610 . S
N373 C374 1.351 . S
C374 C368 1.428 . S
C374 N373 1.351 . S
C374 C375 1.434 . S
C375 C366 1.429 1_455 S
C375 N372 1.350 . S
C375 C374 1.434 . S
C376 C377 1.369 . S
C376 C378 1.419 1_544 S
C376 H380 0.930 . S
C377 C376 1.369 . S
C377 C386 1.429 . S
C378 C376 1.419 1_566 S
C378 C379 1.363 . S
C378 H381 0.929 . S
C379 C378 1.363 . S
C379 C385 1.428 . S
H380 C376 0.930 . S
H381 C378 0.929 . S
S382 N383 1.613 1_565 S
S382 N384 1.610 1_554 S
N383 S382 1.613 1_545 S
N383 C386 1.350 . S
N384 S382 1.610 1_556 S
N384 C385 1.351 . S
C385 C379 1.428 . S
C385 N384 1.351 . S
C385 C386 1.434 1_566 S
C386 C377 1.429 . S
C386 N383 1.350 . S
C386 C385 1.434 1_544 S
C387 C388 1.369 . S
C387 C389 1.419 . S
C387 H391 0.930 . S
C388 C387 1.369 . S
C388 C397 1.429 . S
C389 C387 1.419 . S
C389 C390 1.363 . S
C389 H392 0.929 . S
C390 C389 1.363 . S
C390 C396 1.428 . S
H391 C387 0.930 . S
H392 C389 0.929 . S
S393 N394 1.613 . S
S393 N395 1.610 . S
N394 S393 1.613 . S
N394 C397 1.350 . S
N395 S393 1.610 . S
N395 C396 1.351 . S
C396 C390 1.428 . S
C396 N395 1.351 . S
C396 C397 1.434 . S
C397 C388 1.429 . S
C397 N394 1.350 . S
C397 C396 1.434 . S
C398 C399 1.369 . S
C398 C400 1.419 . S
C398 H402 0.930 . S
C399 C398 1.369 . S
C399 C408 1.429 1_455 S
C400 C398 1.419 . S
C400 C401 1.363 1_455 S
C400 H403 0.929 . S
C401 C400 1.363 1_655 S
C401 C407 1.428 . S
H402 C398 0.930 . S
H403 C400 0.929 . S
S404 N405 1.613 . S
S404 N406 1.610 . S
N405 S404 1.613 . S
N405 C408 1.350 . S
N406 S404 1.610 . S
N406 C407 1.351 . S
C407 C401 1.428 . S
C407 N406 1.351 . S
C407 C408 1.434 . S
C408 C399 1.429 1_655 S
C408 N405 1.350 . S
C408 C407 1.434 . S
C409 C410 1.369 . S
C409 C411 1.419 1_564 S
C409 H413 0.930 . S
C410 C409 1.369 . S
C410 C419 1.429 . S
C411 C409 1.419 1_546 S
C411 C412 1.363 . S
C411 H414 0.929 . S
C412 C411 1.363 . S
C412 C418 1.428 . S
H413 C409 0.930 . S
H414 C411 0.929 . S
S415 N416 1.613 1_545 S
S415 N417 1.610 1_554 S
N416 S415 1.613 1_565 S
N416 C419 1.350 . S
N417 S415 1.610 1_556 S
N417 C418 1.351 . S
C418 C412 1.428 . S
C418 N417 1.351 . S
C418 C419 1.434 1_546 S
C419 C410 1.429 . S
C419 N416 1.350 . S
C419 C418 1.434 1_564 S
C157 C148 1.765 . S
C159 C3 1.765 . S
C168 C16 1.763 . S
C170 C81 1.766 . S
C179 C31 1.765 . S
C181 C94 1.765 . S
C190 C44 1.764 . S
C192 C107 1.761 . S
C201 C122 1.761 . S
C203 C55 1.762 . S
C212 C68 1.764 . S
C214 C135 1.761 . S
C223 C43 1.488 . S
C225 C10 1.484 . S
C234 C62 1.488 . S
C236 C23 1.484 . S
C245 C75 1.488 . S
C247 C30 1.483 . S
C256 C88 1.487 . S
C258 C121 1.484 . S
C267 C101 1.483 . S
C269 C134 1.488 . S
C278 C114 1.487 . S
C280 C147 1.484 . S
C289 C109 0.814 . S
C291 C5 0.807 . S
C300 C18 0.813 . S
C302 C120 0.810 . S
C311 C133 0.809 . S
C313 C29 0.813 . S
C322 C146 0.806 . S
C324 C42 0.814 . S
C333 C83 0.809 . S
C335 C57 0.813 . S
C344 C70 0.814 . S
C346 C96 0.808 . S
C355 C127 1.665 . S
C357 C4 1.664 . S
C366 C17 1.664 . S
C368 C140 1.665 . S
C377 C153 1.665 . S
C379 C36 1.664 . S
C388 C49 1.668 . S
C390 C82 1.661 . S
C399 C56 1.664 . S
C401 C95 1.665 . S
C410 C108 1.662 . S
C412 C69 1.666 . S
