# Generated by pormake.
# Topology rhr, (4)-cn, num edge types: 1
# Building blocks:
#     Node 0, Type 0, BuildingBlock: ESEHIV_clean_sbu_0, # of connection points: 4
#     Node 1, Type 0, BuildingBlock: ESEHIV_clean_sbu_0, # of connection points: 4
#     Node 2, Type 0, BuildingBlock: ESEHIV_clean_sbu_0, # of connection points: 4
#     Node 3, Type 0, BuildingBlock: ESEHIV_clean_sbu_0, # of connection points: 4
#     Node 4, Type 0, BuildingBlock: ESEHIV_clean_sbu_0, # of connection points: 4
#     Node 5, Type 0, BuildingBlock: ESEHIV_clean_sbu_0, # of connection points: 4
#     Node 6, Type 0, BuildingBlock: ESEHIV_clean_sbu_0, # of connection points: 4
#     Node 7, Type 0, BuildingBlock: ESEHIV_clean_sbu_0, # of connection points: 4
#     Node 8, Type 0, BuildingBlock: ESEHIV_clean_sbu_0, # of connection points: 4
#     Node 9, Type 0, BuildingBlock: ESEHIV_clean_sbu_0, # of connection points: 4
#     Node 10, Type 0, BuildingBlock: ESEHIV_clean_sbu_0, # of connection points: 4
#     Node 11, Type 0, BuildingBlock: ESEHIV_clean_sbu_0, # of connection points: 4
#     Node 12, Type 0, BuildingBlock: ESEHIV_clean_sbu_0, # of connection points: 4
#     Node 13, Type 0, BuildingBlock: ESEHIV_clean_sbu_0, # of connection points: 4
#     Node 14, Type 0, BuildingBlock: ESEHIV_clean_sbu_0, # of connection points: 4
#     Node 15, Type 0, BuildingBlock: ESEHIV_clean_sbu_0, # of connection points: 4
#     Node 16, Type 0, BuildingBlock: ESEHIV_clean_sbu_0, # of connection points: 4
#     Node 17, Type 0, BuildingBlock: ESEHIV_clean_sbu_0, # of connection points: 4
#     Node 18, Type 0, BuildingBlock: ESEHIV_clean_sbu_0, # of connection points: 4
#     Node 19, Type 0, BuildingBlock: ESEHIV_clean_sbu_0, # of connection points: 4
#     Node 20, Type 0, BuildingBlock: ESEHIV_clean_sbu_0, # of connection points: 4
#     Node 21, Type 0, BuildingBlock: ESEHIV_clean_sbu_0, # of connection points: 4
#     Node 22, Type 0, BuildingBlock: ESEHIV_clean_sbu_0, # of connection points: 4
#     Node 23, Type 0, BuildingBlock: ESEHIV_clean_sbu_0, # of connection points: 4
#     Edge 24, Type (0, 0), BuildingBlock: TEMPAE_clean_linker_10, # of connection points: 2
#     Edge 25, Type (0, 0), BuildingBlock: TEMPAE_clean_linker_10, # of connection points: 2
#     Edge 26, Type (0, 0), BuildingBlock: TEMPAE_clean_linker_10, # of connection points: 2
#     Edge 27, Type (0, 0), BuildingBlock: TEMPAE_clean_linker_10, # of connection points: 2
#     Edge 28, Type (0, 0), BuildingBlock: TEMPAE_clean_linker_10, # of connection points: 2
#     Edge 29, Type (0, 0), BuildingBlock: TEMPAE_clean_linker_10, # of connection points: 2
#     Edge 30, Type (0, 0), BuildingBlock: TEMPAE_clean_linker_10, # of connection points: 2
#     Edge 31, Type (0, 0), BuildingBlock: TEMPAE_clean_linker_10, # of connection points: 2
#     Edge 32, Type (0, 0), BuildingBlock: TEMPAE_clean_linker_10, # of connection points: 2
#     Edge 33, Type (0, 0), BuildingBlock: TEMPAE_clean_linker_10, # of connection points: 2
#     Edge 34, Type (0, 0), BuildingBlock: TEMPAE_clean_linker_10, # of connection points: 2
#     Edge 35, Type (0, 0), BuildingBlock: TEMPAE_clean_linker_10, # of connection points: 2
#     Edge 36, Type (0, 0), BuildingBlock: TEMPAE_clean_linker_10, # of connection points: 2
#     Edge 37, Type (0, 0), BuildingBlock: TEMPAE_clean_linker_10, # of connection points: 2
#     Edge 38, Type (0, 0), BuildingBlock: TEMPAE_clean_linker_10, # of connection points: 2
#     Edge 39, Type (0, 0), BuildingBlock: TEMPAE_clean_linker_10, # of connection points: 2
#     Edge 40, Type (0, 0), BuildingBlock: TEMPAE_clean_linker_10, # of connection points: 2
#     Edge 41, Type (0, 0), BuildingBlock: TEMPAE_clean_linker_10, # of connection points: 2
#     Edge 42, Type (0, 0), BuildingBlock: TEMPAE_clean_linker_10, # of connection points: 2
#     Edge 43, Type (0, 0), BuildingBlock: TEMPAE_clean_linker_10, # of connection points: 2
#     Edge 44, Type (0, 0), BuildingBlock: TEMPAE_clean_linker_10, # of connection points: 2
#     Edge 45, Type (0, 0), BuildingBlock: TEMPAE_clean_linker_10, # of connection points: 2
#     Edge 46, Type (0, 0), BuildingBlock: TEMPAE_clean_linker_10, # of connection points: 2
#     Edge 47, Type (0, 0), BuildingBlock: TEMPAE_clean_linker_10, # of connection points: 2
#     Edge 48, Type (0, 0), BuildingBlock: TEMPAE_clean_linker_10, # of connection points: 2
#     Edge 49, Type (0, 0), BuildingBlock: TEMPAE_clean_linker_10, # of connection points: 2
#     Edge 50, Type (0, 0), BuildingBlock: TEMPAE_clean_linker_10, # of connection points: 2
#     Edge 51, Type (0, 0), BuildingBlock: TEMPAE_clean_linker_10, # of connection points: 2
#     Edge 52, Type (0, 0), BuildingBlock: TEMPAE_clean_linker_10, # of connection points: 2
#     Edge 53, Type (0, 0), BuildingBlock: TEMPAE_clean_linker_10, # of connection points: 2
#     Edge 54, Type (0, 0), BuildingBlock: TEMPAE_clean_linker_10, # of connection points: 2
#     Edge 55, Type (0, 0), BuildingBlock: TEMPAE_clean_linker_10, # of connection points: 2
#     Edge 56, Type (0, 0), BuildingBlock: TEMPAE_clean_linker_10, # of connection points: 2
#     Edge 57, Type (0, 0), BuildingBlock: TEMPAE_clean_linker_10, # of connection points: 2
#     Edge 58, Type (0, 0), BuildingBlock: TEMPAE_clean_linker_10, # of connection points: 2
#     Edge 59, Type (0, 0), BuildingBlock: TEMPAE_clean_linker_10, # of connection points: 2
#     Edge 60, Type (0, 0), BuildingBlock: TEMPAE_clean_linker_10, # of connection points: 2
#     Edge 61, Type (0, 0), BuildingBlock: TEMPAE_clean_linker_10, # of connection points: 2
#     Edge 62, Type (0, 0), BuildingBlock: TEMPAE_clean_linker_10, # of connection points: 2
#     Edge 63, Type (0, 0), BuildingBlock: TEMPAE_clean_linker_10, # of connection points: 2
#     Edge 64, Type (0, 0), BuildingBlock: TEMPAE_clean_linker_10, # of connection points: 2
#     Edge 65, Type (0, 0), BuildingBlock: TEMPAE_clean_linker_10, # of connection points: 2
#     Edge 66, Type (0, 0), BuildingBlock: TEMPAE_clean_linker_10, # of connection points: 2
#     Edge 67, Type (0, 0), BuildingBlock: TEMPAE_clean_linker_10, # of connection points: 2
#     Edge 68, Type (0, 0), BuildingBlock: TEMPAE_clean_linker_10, # of connection points: 2
#     Edge 69, Type (0, 0), BuildingBlock: TEMPAE_clean_linker_10, # of connection points: 2
#     Edge 70, Type (0, 0), BuildingBlock: TEMPAE_clean_linker_10, # of connection points: 2
#     Edge 71, Type (0, 0), BuildingBlock: TEMPAE_clean_linker_10, # of connection points: 2
# Relax obj value: 0.010
# Max RMSD: 0.137
# Mean RMSD: 0.095
data_MOF--net-rhr--node1-ESEHIV_clean_sbu_0--edge1-TEMPAE_clean_linker_10
_symmetry_space_group_name_H-M    P1
_symmetry_Int_Tables_number       1
_symmetry_cell_setting            triclinic
loop_
_symmetry_equiv_pos_as_xyz
'x, y, z'
_cell_length_a     55.191716
_cell_length_b     55.153873
_cell_length_c     55.026074
_cell_angle_alpha  90.118025
_cell_angle_beta   92.944182
_cell_angle_gamma 92.59111
loop_
_atom_site_label
_atom_site_type_symbol
_atom_site_fract_x
_atom_site_fract_y
_atom_site_fract_z
_atom_type_partial_charge
Cu0 Cu 0.35303 0.03283 0.3363 0.0
N1 N 0.34959 1.01388 0.30836 0.0
N2 N 0.36001 0.98643 0.28149 0.0
C3 C 0.368 1.00313 0.2983 0.0
C4 C 0.33555 0.98676 0.28086 0.0
C5 C 0.32915 1.00379 0.29751 0.0
O6 O 0.38155 0.05486 0.33165 0.0
C7 C 0.35514 1.01146 0.38547 0.0
O8 O 0.35964 0.03324 0.3948 0.0
H9 H 0.38678 1.00601 0.30473 0.0
H10 H 0.31095 1.00736 0.30251 0.0
N11 N 0.32477 0.04978 0.33887 0.0
N12 N 0.29198 0.06402 0.35504 0.0
C13 C 0.31294 0.05279 0.35931 0.0
C14 C 0.31079 0.05944 0.32094 0.0
C15 C 0.29042 0.06822 0.33089 0.0
C16 C 0.38168 0.07791 0.33405 0.0
O17 O 0.36331 0.08767 0.34404 0.0
H18 H 0.31908 0.04621 0.37692 0.0
H19 H 0.3149 0.05963 0.30193 0.0
O20 O 0.35431 1.00866 0.36243 0.0
H21 H 0.32321 0.97475 0.27006 0.0
H22 H 0.27572 0.07703 0.3212 0.0
Cu23 Cu 0.06305 0.34898 0.36111 0.0
N24 N 0.08686 0.32528 0.36287 0.0
N25 N 0.11394 0.30034 0.38018 0.0
C26 C 0.09828 0.31807 0.38379 0.0
C27 C 0.11222 0.2963 0.35588 0.0
C28 C 0.09552 0.3116 0.34531 0.0
O29 O 0.04205 0.3412 0.38789 0.0
C30 C 0.09851 0.38486 0.34949 0.0
O31 O 0.112 0.36609 0.3471 0.0
H32 H 0.09502 0.32578 0.40136 0.0
H33 H 0.08991 0.31249 0.32622 0.0
N34 N 0.04186 0.34876 0.33323 0.0
N35 N 1.0124 0.36353 0.3085 0.0
C36 C 0.02793 0.36774 0.32798 0.0
C37 C 0.03501 0.33176 0.31637 0.0
C38 C 1.01679 0.34081 0.30112 0.0
C39 C 0.03284 0.31956 0.38595 0.0
O40 O 0.03866 0.30632 0.36743 0.0
H41 H 0.02859 0.38406 0.339 0.0
H42 H 0.04224 0.31389 0.31557 0.0
O43 O 0.07817 0.38177 0.35937 0.0
H44 H 0.12182 0.2828 0.34639 0.0
H45 H 1.00743 0.33131 0.28591 0.0
Cu46 Cu 0.67729 0.02822 0.36688 0.0
N47 N 0.64915 0.0456 0.36441 0.0
N48 N 0.61656 0.06154 0.34623 0.0
C49 C 0.63325 0.0446 0.34506 0.0
C50 C 0.62209 0.07376 0.3672 0.0
C51 C 0.64221 0.06377 0.37848 0.0
O52 O 0.67671 1.00938 0.33633 0.0
C53 C 0.70816 0.05905 0.39584 0.0
O54 O 0.69341 0.05038 0.41201 0.0
H55 H 0.63494 0.03292 0.32948 0.0
H56 H 0.6518 0.07014 0.39507 0.0
N57 N 0.6757 1.00636 0.39266 0.0
N58 N 0.68495 0.97558 0.41716 0.0
C59 C 0.69144 0.98898 0.39786 0.0
C60 C 0.65861 1.00395 0.40918 0.0
C61 C 0.66433 0.985 0.42442 0.0
C62 C 0.66177 0.99094 0.33519 0.0
O63 O 0.64983 0.98523 0.35455 0.0
H64 H 0.70745 0.98641 0.38775 0.0
H65 H 0.64303 1.01508 0.40994 0.0
O66 O 0.70498 0.05156 0.37384 0.0
H67 H 0.61289 0.08938 0.37338 0.0
H68 H 0.65394 0.97846 0.43942 0.0
Cu69 Cu 0.02841 0.72485 0.35134 0.0
N70 N 0.04751 0.72489 0.3238 0.0
N71 N 0.07308 0.70921 0.29792 0.0
C72 C 0.05989 0.70536 0.31773 0.0
C73 C 0.06874 0.73227 0.29125 0.0
C74 C 0.05296 0.74187 0.30717 0.0
O75 O 1.00897 0.69435 0.34661 0.0
C76 C 0.06348 0.74951 0.37805 0.0
O77 O 0.0585 0.76352 0.35934 0.0
H78 H 0.05949 0.6887 0.32808 0.0
H79 H 0.04618 0.75996 0.30672 0.0
N80 N 1.00705 0.75051 0.35526 0.0
N81 N 0.98307 0.77529 0.37499 0.0
C82 C 0.99658 0.75534 0.37636 0.0
C83 C 1.00001 0.76808 0.3399 0.0
C84 C 0.98522 0.78326 0.35193 0.0
C85 C 0.99365 0.69513 0.3284 0.0
O86 O 0.99105 0.71596 0.31726 0.0
H87 H 0.99888 0.74425 0.39244 0.0
H88 H 1.00541 0.76993 0.32137 0.0
O89 O 0.0518 0.72901 0.37923 0.0
H90 H 0.07619 0.74154 0.27581 0.0
H91 H 0.97712 0.79923 0.34429 0.0
Cu92 Cu 0.37122 1.01884 0.71709 0.0
N93 N 0.3753 0.03635 0.74633 0.0
N94 N 0.39376 0.06082 0.77478 0.0
C95 C 0.39251 0.05403 0.75113 0.0
C96 C 0.3762 0.04724 0.78518 0.0
C97 C 0.36492 0.03208 0.76761 0.0
O98 O 0.39709 0.99495 0.71876 0.0
C99 C 0.3644 0.03902 0.66804 0.0
O100 O 0.36672 1.01693 0.65975 0.0
H101 H 0.40433 0.06133 0.73759 0.0
H102 H 0.35085 1.01827 0.77045 0.0
N103 N 0.3416 1.00065 0.71598 0.0
N104 N 0.30815 0.98076 0.69996 0.0
C105 C 0.32513 0.9988 0.69701 0.0
C106 C 0.33458 0.98338 0.7317 0.0
C107 C 0.31397 0.97115 0.72194 0.0
C108 C 0.41929 0.9999 0.72552 0.0
O109 O 0.4272 1.0227 0.7262 0.0
H110 H 0.32652 1.00922 0.68054 0.0
H111 H 0.34464 0.97895 0.74837 0.0
O112 O 0.36862 0.04318 0.69075 0.0
H113 H 0.37255 0.04739 0.80432 0.0
H114 H 0.3048 0.95558 0.72989 0.0
Cu115 Cu 0.05521 0.38339 0.68806 0.0
N116 N 0.07662 0.37823 0.66347 0.0
N117 N 0.09823 0.35575 0.6394 0.0
C118 C 0.07847 0.35645 0.65279 0.0
C119 C 0.10912 0.37812 0.64148 0.0
C120 C 0.09576 0.39196 0.65636 0.0
O121 O 0.02494 0.36529 0.67887 0.0
C122 C 0.09287 0.37268 0.72289 0.0
O123 O 0.10568 0.36724 0.70435 0.0
H124 H 0.0667 0.34082 0.65654 0.0
H125 H 0.1009 0.40997 0.66304 0.0
N126 N 0.04886 0.41584 0.69366 0.0
N127 N 0.04021 0.4455 0.71914 0.0
C128 C 0.03637 0.42195 0.71295 0.0
C129 C 0.06085 0.43645 0.68714 0.0
C130 C 0.05557 0.45481 0.70292 0.0
C131 C 1.01217 0.37375 0.66116 0.0
O132 O 1.01944 0.39444 0.65153 0.0
H133 H 0.02675 0.40874 0.72386 0.0
H134 H 0.07394 0.43777 0.67325 0.0
O135 O 0.07004 0.37476 0.71952 0.0
H136 H 0.12618 0.3837 0.63388 0.0
H137 H 0.0634 0.47317 0.70326 0.0
Cu138 Cu 0.74107 0.04678 0.70647 0.0
N139 N 0.74176 0.02903 0.73541 0.0
N140 N 0.7272 1.00922 0.76734 0.0
C141 C 0.7218 1.02214 0.74715 0.0
C142 C 0.75159 1.00787 0.76835 0.0
C143 C 0.76056 1.02025 0.74867 0.0
O144 O 0.71231 0.06738 0.70867 0.0
C145 C 0.76513 1.01443 0.67822 0.0
O146 O 0.78133 1.02007 0.69588 0.0
H147 H 0.70356 0.02618 0.7407 0.0
H148 H 0.77941 1.02265 0.74439 0.0
N149 N 0.76849 0.06784 0.70454 0.0
N150 N 0.79761 0.0896 0.68654 0.0
C151 C 0.77678 0.07597 0.68334 0.0
C152 C 0.78465 0.07662 0.72189 0.0
C153 C 0.80257 0.0903 0.71082 0.0
C154 C 0.71388 0.0823 0.72673 0.0
O155 O 0.73383 0.08275 0.74083 0.0
H156 H 0.76763 0.07188 0.66584 0.0
H157 H 0.78367 0.07309 0.74115 0.0
O158 O 0.7441 0.02347 0.67894 0.0
H159 H 0.76218 0.99879 0.7824 0.0
H160 H 0.81821 0.09962 0.71984 0.0
Cu161 Cu 0.03359 0.68347 0.70856 0.0
N162 N 0.05825 0.70797 0.70581 0.0
N163 N 0.08815 0.73071 0.68974 0.0
C164 C 0.07376 0.71018 0.68765 0.0
C165 C 0.08134 0.74175 0.71008 0.0
C166 C 0.06292 0.7278 0.71983 0.0
O167 O 1.0087 0.68971 0.68309 0.0
C168 C 0.06638 0.64986 0.72335 0.0
O169 O 0.07794 0.67004 0.73089 0.0
H170 H 0.07385 0.69734 0.67276 0.0
H171 H 0.05317 0.73224 0.73566 0.0
N172 N 1.01828 0.68369 0.7381 0.0
N173 N 0.99416 0.66749 0.76594 0.0
C174 C 0.99843 0.6694 0.74206 0.0
C175 C 0.027 0.69114 0.76028 0.0
C176 C 1.01205 0.68136 0.77746 0.0
C177 C 0.99858 0.70972 0.68642 0.0
O178 O 1.00562 0.72268 0.70579 0.0
H179 H 0.98867 0.65883 0.7278 0.0
H180 H 0.04403 0.70124 0.76395 0.0
O181 O 0.04712 0.65138 0.70968 0.0
H182 H 0.08896 0.75883 0.71739 0.0
H183 H 1.01492 0.68333 0.79698 0.0
Cu184 Cu 0.37081 0.3982 0.02481 0.0
N185 N 0.34014 0.40481 0.03671 0.0
N186 N 0.31303 0.42222 0.05976 0.0
C187 C 0.3368 0.42014 0.05538 0.0
C188 C 0.30103 0.40723 0.04329 0.0
C189 C 0.31769 0.39659 0.02919 0.0
O190 O 0.38857 0.42911 1.02177 0.0
C191 C 0.37784 0.35863 0.05526 0.0
O192 O 0.3556 0.3529 0.04685 0.0
H193 H 0.35162 0.4301 0.06511 0.0
H194 H 0.31359 0.38371 1.0146 0.0
N195 N 0.3718 0.38068 0.9952 0.0
N196 N 0.38794 0.35873 0.96588 0.0
C197 C 0.39222 0.3716 0.98681 0.0
C198 C 0.35393 0.37336 0.9789 0.0
C199 C 0.36378 0.35988 0.96091 0.0
C200 C 0.37953 0.4491 1.01522 0.0
O201 O 0.39346 0.46904 1.01642 0.0
H202 H 0.40984 0.37395 0.99629 0.0
H203 H 0.33506 0.37749 0.97989 0.0
O204 O 0.38795 0.37858 0.04871 0.0
H205 H 0.28156 0.40381 0.04168 0.0
H206 H 0.35386 0.35176 0.94525 0.0
Cu207 Cu 0.72808 0.34128 0.04795 0.0
N208 N 0.75658 0.33838 0.03116 0.0
N209 N 0.78494 0.35122 1.00561 0.0
C210 C 0.76596 0.35723 1.01864 0.0
C211 C 0.78772 0.32742 1.01047 0.0
C212 C 0.77018 0.31955 0.02617 0.0
O213 O 0.73319 0.37354 0.06291 0.0
C214 C 0.70065 0.31395 1.01501 0.0
O215 O 0.71693 0.29914 0.02368 0.0
H216 H 0.75856 0.37503 1.01906 0.0
H217 H 0.76717 0.30127 0.0328 0.0
N218 N 0.72207 0.31824 0.07248 0.0
N219 N 0.7 0.29586 0.09826 0.0
C220 C 0.70041 0.31478 0.08259 0.0
C221 C 0.73604 0.30097 0.08206 0.0
C222 C 0.72255 0.28721 0.09796 0.0
C223 C 0.74963 0.37448 0.08018 0.0
O224 O 0.75907 0.35417 0.08756 0.0
H225 H 0.68515 0.32585 0.0781 0.0
H226 H 0.75449 0.29815 0.07736 0.0
O227 O 0.70134 0.33562 0.02342 0.0
H228 H 0.80096 0.31619 1.00276 0.0
H229 H 0.72872 0.27148 0.10779 0.0
Cu230 Cu 0.68159 0.67594 1.0204 0.0
N231 N 0.65239 0.67096 0.03578 0.0
N232 N 0.62588 0.67781 0.06414 0.0
C233 C 0.64855 0.6823 0.05675 0.0
C234 C 0.61487 0.66303 0.04691 0.0
C235 C 0.63131 0.65883 0.02939 0.0
O236 O 0.67715 0.70534 1.00033 0.0
C237 C 0.70518 0.65558 0.05936 0.0
O238 O 0.68801 0.63941 0.05238 0.0
H239 H 0.66197 0.69463 0.06573 0.0
H240 H 0.62774 0.64844 1.01282 0.0
N241 N 0.68917 0.65022 1.0004 0.0
N242 N 0.71424 0.62537 0.98312 0.0
C243 C 0.71173 0.64748 0.99295 0.0
C244 C 0.67683 0.62912 0.99498 0.0
C245 C 0.69227 0.61375 0.98427 0.0
C246 C 0.66044 0.70276 0.98335 0.0
O247 O 0.64998 0.68106 0.97998 0.0
H248 H 0.72651 0.6608 0.99644 0.0
H249 H 0.65848 0.62457 0.99983 0.0
O250 O 0.70681 0.67543 0.04731 0.0
H251 H 0.59618 0.65617 0.04664 0.0
H252 H 0.68792 0.59518 0.97863 0.0
Cu253 Cu 0.34618 0.72702 1.01785 0.0
N254 N 0.32153 0.72458 0.99333 0.0
N255 N 0.29513 0.7055 0.96675 0.0
C256 C 0.31231 0.70305 0.98479 0.0
C257 C 0.29347 0.72971 0.9638 0.0
C258 C 0.30976 0.74147 0.98034 0.0
O259 O 0.33782 0.7004 0.03981 0.0
C260 C 0.38094 0.72976 0.98171 0.0
O261 O 0.36192 0.72902 0.96636 0.0
H262 H 0.31856 0.68585 0.99147 0.0
H263 H 0.31293 0.76086 0.9826 0.0
N264 N 0.34863 0.75721 0.0338 0.0
N265 N 0.36734 0.78937 0.05269 0.0
C266 C 0.37008 0.76802 0.04144 0.0
C267 C 0.33166 0.77252 0.04014 0.0
C268 C 0.34318 0.79226 0.05215 0.0
C269 C 0.32027 0.70299 0.05367 0.0
O270 O 0.31099 0.72438 0.05528 0.0
H271 H 0.38742 0.76008 0.0393 0.0
H272 H 0.31231 0.76949 0.03648 0.0
O273 O 0.37795 0.72523 1.00409 0.0
H274 H 0.28121 0.7383 0.95084 0.0
H275 H 0.33454 0.80757 0.05978 0.0
Cu276 Cu 0.90189 0.51367 0.88873 0.0
N277 N 0.93513 0.50833 0.88802 0.0
N278 N 0.96994 0.50191 0.87032 0.0
C279 C 0.94691 0.5089 0.86718 0.0
C280 C 0.9729 0.4967 0.89422 0.0
C281 C 0.95141 0.50087 0.90517 0.0
O282 O 0.89493 0.52861 0.85693 0.0
C283 C 0.88663 0.47601 0.91782 0.0
O284 O 0.90207 0.48845 0.93251 0.0
H285 H 0.93827 0.51295 0.84966 0.0
H286 H 0.94777 0.49782 0.92405 0.0
N287 N 0.89449 0.53543 0.91303 0.0
N288 N 0.87016 0.55699 0.93504 0.0
C289 C 0.87162 0.53831 0.91946 0.0
C290 C 0.90825 0.55253 0.92543 0.0
C291 C 0.89321 0.56587 0.93916 0.0
C292 C 0.88727 0.55 0.85443 0.0
O293 O 0.87573 0.55952 0.87212 0.0
H294 H 0.85616 0.52759 0.9118 0.0
H295 H 0.92757 0.55574 0.92376 0.0
O296 O 0.88377 0.48319 0.89583 0.0
H297 H 0.98917 0.4898 0.903 0.0
H298 H 0.89859 0.5817 0.95016 0.0
Cu299 Cu 0.54928 0.87515 0.87471 0.0
N300 N 0.52751 0.87226 0.89975 0.0
N301 N 0.50269 0.8532 0.92519 0.0
C302 C 0.51726 0.85085 0.90646 0.0
C303 C 0.50368 0.87717 0.93041 0.0
C304 C 0.51909 0.88888 0.91476 0.0
O305 O 0.56847 0.84572 0.87856 0.0
C306 C 0.51824 0.90124 0.84494 0.0
O307 O 0.5206 0.91413 0.86509 0.0
H308 H 0.52028 0.83386 0.89746 0.0
H309 H 0.52372 0.90812 0.91438 0.0
N310 N 0.57153 0.90166 0.8787 0.0
N311 N 0.60112 0.92843 0.86879 0.0
C312 C 0.58692 0.90882 0.86166 0.0
C313 C 0.57611 0.91714 0.89746 0.0
C314 C 0.59432 0.93369 0.8914 0.0
C315 C 0.57832 0.84391 0.90008 0.0
O316 O 0.57584 0.86169 0.91556 0.0
H317 H 0.58781 0.89943 0.84448 0.0
H318 H 0.56701 0.91644 0.91439 0.0
O319 O 0.52982 0.88162 0.84412 0.0
H320 H 0.49416 0.88565 0.94465 0.0
H321 H 0.60173 0.94856 0.90273 0.0
Cu322 Cu 0.18269 0.51755 0.88056 0.0
N323 N 0.1502 0.52557 0.8757 0.0
N324 N 0.11815 0.53835 0.85348 0.0
C325 C 0.14098 0.5307 0.85328 0.0
C326 C 0.11266 0.53796 0.87713 0.0
C327 C 0.13245 0.52985 0.89083 0.0
O328 O 0.18614 0.49424 0.85451 0.0
C329 C 0.19676 0.56378 0.89459 0.0
O330 O 0.17804 0.559 0.90787 0.0
H331 H 0.15149 0.53017 0.83722 0.0
H332 H 0.1341 0.52828 0.91042 0.0
N333 N 0.19155 0.50309 0.91032 0.0
N334 N 0.21691 0.48777 0.93886 0.0
C335 C 0.21473 0.49855 0.91689 0.0
C336 C 0.17839 0.49495 0.9288 0.0
C337 C 0.19401 0.48539 0.94642 0.0
C338 C 0.1753 0.47368 0.85784 0.0
O339 O 0.16628 0.46925 0.87909 0.0
H340 H 0.22969 0.50277 0.90541 0.0
H341 H 0.15889 0.4957 0.92937 0.0
O342 O 0.2027 0.54764 0.87963 0.0
H343 H 0.09587 0.54378 0.8841 0.0
H344 H 0.18889 0.47758 0.96355 0.0
Cu345 Cu 0.55297 0.22006 0.85041 0.0
N346 N 0.53304 0.24731 0.84964 0.0
N347 N 0.50661 0.2739 0.86309 0.0
C348 C 0.51886 0.25346 0.86787 0.0
C349 C 0.51358 0.28072 0.84076 0.0
C350 C 0.52969 0.26441 0.83259 0.0
O351 O 0.57458 0.22583 0.87932 0.0
C352 C 0.51526 0.19106 0.83297 0.0
O353 O 0.51664 0.20854 0.81683 0.0
H354 H 0.51757 0.24286 0.88429 0.0
H355 H 0.53826 0.26506 0.81538 0.0
N356 N 0.57227 0.21525 0.82309 0.0
N357 N 0.59551 0.19654 0.79662 0.0
C358 C 0.5818 0.19408 0.81641 0.0
C359 C 0.58036 0.23167 0.80702 0.0
C360 C 0.59451 0.22031 0.79083 0.0
C361 C 0.58808 0.24519 0.87827 0.0
O362 O 0.58715 0.25784 0.85806 0.0
H363 H 0.5787 0.17721 0.826 0.0
H364 H 0.57678 0.25076 0.80733 0.0
O365 O 0.53057 0.19173 0.85116 0.0
H366 H 0.50776 0.29651 0.83086 0.0
H367 H 0.60395 0.22924 0.77634 0.0
Cu368 Cu 0.86548 0.5346 0.20681 0.0
N369 N 0.83875 0.55488 0.20661 0.0
N370 N 0.81181 0.5802 0.18987 0.0
C371 C 0.83145 0.56706 0.18647 0.0
C372 C 0.80662 0.57622 0.21332 0.0
C373 C 0.8232 0.56055 0.22358 0.0
O374 O 0.86051 0.51764 0.17526 0.0
C375 C 0.89364 0.56284 0.23806 0.0
O376 O 0.8749 0.55538 0.25029 0.0
H377 H 0.84052 0.5662 0.16954 0.0
H378 H 0.82368 0.55363 0.24197 0.0
N379 N 0.86722 0.50925 0.22973 0.0
N380 N 0.88466 0.47868 0.25006 0.0
C381 C 0.88686 0.49558 0.23243 0.0
C382 C 0.85186 0.50076 0.24625 0.0
C383 C 0.86258 0.48195 0.25883 0.0
C384 C 0.83938 0.50691 0.17402 0.0
O385 O 0.8261 0.50783 0.19311 0.0
H386 H 0.90272 0.49845 0.22185 0.0
H387 H 0.8342 0.50775 0.24901 0.0
O388 O 0.89416 0.55606 0.2158 0.0
H389 H 0.79154 0.58357 0.22228 0.0
H390 H 0.85456 0.4714 0.27316 0.0
Cu391 Cu 0.53806 0.85847 0.19284 0.0
N392 N 0.55376 0.82933 0.19527 0.0
N393 N 0.56802 0.79428 0.18334 0.0
C394 C 0.55594 0.81404 0.17654 0.0
C395 C 0.57375 0.79718 0.20732 0.0
C396 C 0.56507 0.819 0.21462 0.0
O397 O 0.51994 0.85616 0.16147 0.0
C398 C 0.55773 0.90558 0.20685 0.0
O399 O 0.53486 0.91069 0.20844 0.0
H400 H 0.54879 0.81734 0.15822 0.0
H401 H 0.56722 0.82692 0.23263 0.0
N402 N 0.51515 0.85953 0.2166 0.0
N403 N 0.48233 0.87048 0.23531 0.0
C404 C 0.49508 0.87249 0.21511 0.0
C405 C 0.51501 0.84865 0.23846 0.0
C406 C 0.49481 0.85544 0.2501 0.0
C407 C 0.50623 0.871 0.15046 0.0
O408 O 0.50609 0.89357 0.1581 0.0
H409 H 0.49049 0.88406 0.19992 0.0
H410 H 0.52873 0.83691 0.24568 0.0
O411 O 0.56268 0.88498 0.19831 0.0
H412 H 0.58409 0.78481 0.21853 0.0
H413 H 0.48989 0.84991 0.26812 0.0
Cu414 Cu 0.18766 0.54833 0.18719 0.0
N415 N 0.16257 0.52525 0.19328 0.0
N416 N 0.13983 0.49969 0.21536 0.0
C417 C 0.15785 0.51716 0.21575 0.0
C418 C 0.13288 0.49681 0.19156 0.0
C419 C 0.14687 0.51264 0.17801 0.0
O420 O 0.18248 0.57567 0.20947 0.0
C421 C 0.21973 0.50958 0.18298 0.0
O422 O 0.20009 0.4958 0.18587 0.0
H423 H 0.16816 0.52339 0.23201 0.0
H424 H 0.14603 0.51436 0.15842 0.0
N425 N 0.18728 0.56148 0.15587 0.0
N426 N 0.20443 0.58107 0.12501 0.0
C427 C 0.20732 0.57321 0.14812 0.0
C428 C 0.17081 0.56185 0.13698 0.0
C429 C 0.18134 0.5741 0.11791 0.0
C430 C 0.16205 0.58531 0.20482 0.0
O431 O 0.14827 0.57646 0.18642 0.0
H432 H 0.22371 0.57622 0.15958 0.0
H433 H 0.15255 0.55389 0.13702 0.0
O434 O 0.21912 0.53238 0.18729 0.0
H435 H 0.11881 0.48407 0.18438 0.0
H436 H 0.17272 0.5774 0.10018 0.0
Cu437 Cu 0.51147 0.19195 0.18651 0.0
N438 N 0.49033 0.20054 0.16062 0.0
N439 N 0.46782 0.22347 0.13568 0.0
C440 C 0.48216 0.22285 0.1563 0.0
C441 C 0.46697 0.20059 0.12675 0.0
C442 C 0.48087 0.18651 0.14216 0.0
O443 O 0.5417 0.21226 0.18433 0.0
C444 C 0.4735 0.18092 0.21619 0.0
O445 O 0.46383 0.17433 0.19475 0.0
H446 H 0.48709 0.2384 0.16784 0.0
H447 H 0.48389 0.1674 0.14005 0.0
N448 N 0.51968 0.15958 0.18458 0.0
N449 N 0.53072 0.12422 0.20023 0.0
C450 C 0.52189 0.14599 0.20471 0.0
C451 C 0.52728 0.1458 0.16645 0.0
C452 C 0.53441 0.12395 0.17619 0.0
C453 C 0.55155 0.21094 0.16385 0.0
O454 O 0.5405 0.19731 0.14671 0.0
H455 H 0.51878 0.15265 0.22274 0.0
H456 H 0.52857 0.1515 0.14777 0.0
O457 O 0.4944 0.19204 0.21717 0.0
H458 H 0.45683 0.19438 0.11038 0.0
H459 H 0.5425 0.10946 0.1666 0.0
Cu460 Cu 0.8508 0.85189 0.54354 0.0
N461 N 0.85618 0.82655 0.56557 0.0
N462 N 0.87382 0.79681 0.58669 0.0
C463 C 0.87558 0.81251 0.56791 0.0
C464 C 0.85259 0.80138 0.59657 0.0
C465 C 0.84188 0.81974 0.58364 0.0
O466 O 0.87596 0.85061 0.51896 0.0
C467 C 0.83626 0.90053 0.55639 0.0
O468 O 0.83158 0.9034 0.53298 0.0
H469 H 0.89078 0.81402 0.55627 0.0
H470 H 0.82517 0.82809 0.5876 0.0
N471 N 0.82071 0.84632 0.52685 0.0
N472 N 0.78886 0.85574 0.50252 0.0
C473 C 0.81302 0.85902 0.50734 0.0
C474 C 0.80094 0.83372 0.53411 0.0
C475 C 0.78126 0.83947 0.5191 0.0
C476 C 0.87468 0.83103 0.50621 0.0
O477 O 0.85731 0.8148 0.51061 0.0
H478 H 0.82471 0.87172 0.49795 0.0
H479 H 0.80041 0.82258 0.5502 0.0
O480 O 0.84706 0.88156 0.56366 0.0
H481 H 0.84574 0.79282 0.61268 0.0
H482 H 0.76253 0.83378 0.5216 0.0
Cu483 Cu 0.22159 0.85334 0.52593 0.0
N484 N 0.24852 0.85791 0.50631 0.0
N485 N 0.27588 0.8776 0.48369 0.0
C486 C 0.2548 0.87888 0.4951 0.0
C487 C 0.28302 0.85479 0.48786 0.0
C488 C 0.26616 0.84273 0.50176 0.0
O489 O 0.22115 0.88227 0.5465 0.0
C490 C 0.19413 0.82465 0.49388 0.0
O491 O 0.21435 0.81307 0.4969 0.0
H492 H 0.24445 0.89503 0.49603 0.0
H493 H 0.26691 0.82431 0.50834 0.0
N494 N 0.22327 0.8274 0.54788 0.0
N495 N 0.20919 0.80103 0.57536 0.0
C496 C 0.20357 0.81801 0.5586 0.0
C497 C 0.24222 0.81601 0.55818 0.0
C498 C 0.23359 0.79972 0.57517 0.0
C499 C 0.24172 0.8871 0.55754 0.0
O500 O 0.25965 0.87293 0.55371 0.0
H501 H 0.18549 0.82436 0.55482 0.0
H502 H 0.261 0.81974 0.55419 0.0
O503 O 0.1928 0.84499 0.50479 0.0
H504 H 0.29925 0.84726 0.48131 0.0
H505 H 0.24448 0.78806 0.58664 0.0
Cu506 Cu 0.212 0.16571 0.54335 0.0
N507 N 0.18982 0.17526 0.56578 0.0
N508 N 0.16677 0.20074 0.58495 0.0
C509 C 0.18408 0.1985 0.56879 0.0
C510 C 0.1615 0.17799 0.59265 0.0
C511 C 0.17565 0.16226 0.58066 0.0
O512 O 0.2116 0.19173 0.51843 0.0
C513 C 0.24108 0.1386 0.57487 0.0
O514 O 0.21935 0.12844 0.57712 0.0
H515 H 0.19241 0.21351 0.55914 0.0
H516 H 0.17522 0.14274 0.5824 0.0
N517 N 0.20109 0.13819 0.52551 0.0
N518 N 0.19876 0.11388 0.49294 0.0
C519 C 0.20853 0.13454 0.50304 0.0
C520 C 0.18599 0.11903 0.53003 0.0
C521 C 0.1847 0.10378 0.50991 0.0
C522 C 0.19066 0.19279 0.50728 0.0
O523 O 0.17308 0.17783 0.51406 0.0
H524 H 0.22141 0.14672 0.49444 0.0
H525 H 0.17675 0.11621 0.5467 0.0
O526 O 0.24297 0.15692 0.56065 0.0
H527 H 0.14792 0.17301 0.60548 0.0
H528 H 0.1743 0.08672 0.50791 0.0
Cu529 Cu 0.86982 0.22129 0.51485 0.0
N530 N 0.84298 0.21636 0.4925 0.0
N531 N 0.81537 0.19674 0.46725 0.0
C532 C 0.83547 0.19489 0.4822 0.0
C533 C 0.81014 0.22042 0.46825 0.0
C534 C 0.82714 0.23243 0.48378 0.0
O535 O 0.86949 0.19403 0.53737 0.0
C536 C 0.89848 0.24629 0.48387 0.0
O537 O 0.87847 0.25836 0.48282 0.0
H538 H 0.84431 0.17813 0.48616 0.0
H539 H 0.82782 0.25151 0.48844 0.0
N540 N 0.8688 0.24888 0.53458 0.0
N541 N 0.88377 0.27724 0.56116 0.0
C542 C 0.88875 0.25844 0.54678 0.0
C543 C 0.85034 0.26201 0.54145 0.0
C544 C 0.85954 0.27955 0.5579 0.0
C545 C 0.84944 0.19152 0.54784 0.0
O546 O 0.83215 0.20629 0.54171 0.0
H547 H 0.90653 0.25115 0.5456 0.0
H548 H 0.83153 0.2588 0.53533 0.0
O549 O 0.89911 0.22717 0.49689 0.0
H550 H 0.79517 0.22863 0.45839 0.0
H551 H 0.8492 0.29292 0.56673 0.0
C552 C 0.20769 0.07966 0.46636 0.0
C553 C 0.2044 0.10447 0.46961 0.0
C554 C 0.21825 0.0712 0.44542 0.0
C555 C 0.2257 0.08803 0.42754 0.0
C556 C 0.22038 0.11275 0.4298 0.0
C557 C 0.20968 0.12062 0.45076 0.0
C558 C 0.22324 0.04461 0.44343 0.0
C559 C 0.22795 0.13133 0.41121 0.0
C560 C 0.28374 0.0768 0.39643 0.0
C561 C 0.27509 0.06999 0.37293 0.0
C562 C 0.26778 0.08234 0.41438 0.0
C563 C 0.24242 0.08079 0.40877 0.0
C564 C 0.23348 0.07364 0.38513 0.0
C565 C 0.24998 0.06851 0.36736 0.0
C566 C 0.27812 0.09028 0.43924 0.0
C567 C 0.20657 0.07145 0.37864 0.0
H568 H 0.20355 0.06713 0.48088 0.0
H569 H 0.20657 0.13973 0.45301 0.0
H570 H 0.21895 0.03787 0.42462 0.0
H571 H 0.24282 0.04206 0.44771 0.0
H572 H 0.21258 0.03342 0.45622 0.0
H573 H 0.21964 0.14904 0.41396 0.0
H574 H 0.248 0.13431 0.41261 0.0
H575 H 0.22287 0.12478 0.39249 0.0
H576 H 0.30315 0.07821 0.40065 0.0
H577 H 0.24329 0.06294 0.34927 0.0
H578 H 0.27086 0.07808 0.45341 0.0
H579 H 0.27254 0.10888 0.44328 0.0
H580 H 0.29827 0.09023 0.44069 0.0
H581 H 0.1975 0.0589 0.39142 0.0
H582 H 0.20256 0.06471 0.35976 0.0
H583 H 0.19849 0.08937 0.38051 0.0
C584 C 1.0097 0.32086 0.42447 0.0
C585 C 1.01529 0.30894 0.40307 0.0
C586 C 0.99246 0.3105 0.43994 0.0
C587 C 0.98037 0.28791 0.43365 0.0
C588 C 0.98637 0.27567 0.41235 0.0
C589 C 1.00375 0.28622 0.39748 0.0
C590 C 0.98673 0.32396 0.46269 0.0
C591 C 0.97373 0.25178 0.40467 0.0
C592 C 0.94349 0.24964 0.47766 0.0
C593 C 0.91979 0.25622 0.47113 0.0
C594 C 0.96359 0.26048 0.46631 0.0
C595 C 0.9598 0.27799 0.4478 0.0
C596 C 0.93589 0.28462 0.44122 0.0
C597 C 0.91629 0.27377 0.453 0.0
C598 C 0.98883 0.25311 0.47397 0.0
C599 C 0.9309 0.30281 0.42129 0.0
H600 H 1.01864 0.33829 0.42903 0.0
H601 H 1.00788 0.27674 0.38103 0.0
H602 H 0.96791 0.33022 0.46085 0.0
H603 H 0.98774 0.3117 0.47864 0.0
H604 H 0.99933 0.33999 0.46632 0.0
H605 H 0.98142 0.24394 0.38828 0.0
H606 H 0.97514 0.23842 0.41965 0.0
H607 H 0.95413 0.25443 0.40061 0.0
H608 H 0.94636 0.23634 0.49186 0.0
H609 H 0.89804 0.27898 0.4478 0.0
H610 H 1.0006 0.26942 0.47886 0.0
H611 H 0.99703 0.24403 0.45858 0.0
H612 H 0.98889 0.24056 0.48974 0.0
H613 H 0.94134 0.32013 0.42534 0.0
H614 H 0.91133 0.30665 0.41896 0.0
H615 H 0.93695 0.29586 0.40377 0.0
C616 C 0.78119 0.89498 0.4828 0.0
C617 C 0.77372 0.87082 0.48734 0.0
C618 C 0.76586 0.91066 0.47011 0.0
C619 C 0.74238 0.90204 0.4617 0.0
C620 C 0.73489 0.87752 0.46559 0.0
C621 C 0.75065 0.8622 0.47842 0.0
C622 C 0.77452 0.93672 0.46642 0.0
C623 C 0.71002 0.86768 0.45674 0.0
C624 C 0.69689 0.95118 0.45298 0.0
C625 C 0.69777 0.95578 0.42799 0.0
C626 C 0.71061 0.93304 0.46404 0.0
C627 C 0.72552 0.91914 0.44974 0.0
C628 C 0.72578 0.92307 0.42435 0.0
C629 C 0.71192 0.94137 0.41379 0.0
C630 C 0.70993 0.92945 0.49121 0.0
C631 C 0.74134 0.90852 0.40848 0.0
H632 H 0.79872 0.90205 0.48999 0.0
H633 H 0.74485 0.84352 0.48172 0.0
H634 H 0.77299 0.94139 0.44682 0.0
H635 H 0.76288 0.94903 0.4761 0.0
H636 H 0.79366 0.94027 0.4732 0.0
H637 H 0.7075 0.84787 0.45994 0.0
H638 H 0.6959 0.87713 0.46626 0.0
H639 H 0.707 0.87121 0.437 0.0
H640 H 0.68615 0.96235 0.46407 0.0
H641 H 0.71229 0.94451 0.39439 0.0
H642 H 0.72796 0.93467 0.5 0.0
H643 H 0.706 0.91005 0.49539 0.0
H644 H 0.69606 0.94045 0.49941 0.0
H645 H 0.7608 0.91283 0.41341 0.0
H646 H 0.73792 0.91237 0.38882 0.0
H647 H 0.73793 0.88881 0.41154 0.0
C648 C 0.17728 0.79183 0.4657 0.0
C649 C 0.17356 0.81316 0.47877 0.0
C650 C 0.15853 0.78021 0.45126 0.0
C651 C 0.13525 0.78998 0.44978 0.0
C652 C 0.13112 0.81118 0.46336 0.0
C653 C 0.15035 0.8226 0.47763 0.0
C654 C 0.16393 0.75789 0.43688 0.0
C655 C 0.10652 0.82211 0.46235 0.0
C656 C 0.09827 0.77773 0.39064 0.0
C657 C 0.08211 0.75856 0.39677 0.0
C658 C 0.11527 0.78819 0.40779 0.0
C659 C 0.11624 0.77947 0.43194 0.0
C660 C 0.10006 0.76004 0.43838 0.0
C661 C 0.08323 0.74968 0.42065 0.0
C662 C 0.13238 0.80852 0.3999 0.0
C663 C 0.10049 0.75032 0.46399 0.0
H664 H 0.19508 0.78426 0.46644 0.0
H665 H 0.14723 0.83889 0.48783 0.0
H666 H 0.15057 0.74285 0.44044 0.0
H667 H 0.16226 0.76189 0.41713 0.0
H668 H 0.18247 0.7516 0.44131 0.0
H669 H 0.10559 0.83721 0.47562 0.0
H670 H 0.10236 0.82917 0.44381 0.0
H671 H 0.09221 0.80802 0.46608 0.0
H672 H 0.0977 0.78466 0.37221 0.0
H673 H 0.07068 0.73504 0.42558 0.0
H674 H 0.15144 0.80308 0.40252 0.0
H675 H 0.13051 0.82488 0.41128 0.0
H676 H 0.12899 0.81348 0.38051 0.0
H677 H 0.1185 0.74305 0.46885 0.0
H678 H 0.08628 0.73571 0.46631 0.0
H679 H 0.09773 0.76522 0.47701 0.0
C680 C 0.22776 0.91466 0.5902 0.0
C681 C 0.24608 0.90693 0.57566 0.0
C682 C 0.23351 0.92993 0.61051 0.0
C683 C 0.25808 0.93748 0.61623 0.0
C684 C 0.27623 0.93113 0.60044 0.0
C685 C 0.27 0.91601 0.58042 0.0
C686 C 0.21357 0.93674 0.6266 0.0
C687 C 0.30263 0.93888 0.60557 0.0
C688 C 0.28255 0.98523 0.66204 0.0
C689 C 0.29134 0.97064 0.68116 0.0
C690 C 0.2697 0.97494 0.64151 0.0
C691 C 0.26569 0.94943 0.63995 0.0
C692 C 0.27288 0.93484 0.66 0.0
C693 C 0.28554 0.94561 0.68032 0.0
C694 C 0.26199 0.99127 0.62082 0.0
C695 C 0.26906 0.90756 0.65917 0.0
H696 H 0.20924 0.90771 0.58659 0.0
H697 H 0.2842 0.9104 0.569 0.0
H698 H 0.21456 0.92578 0.64348 0.0
H699 H 0.21578 0.95613 0.63203 0.0
H700 H 0.19529 0.9334 0.61748 0.0
H701 H 0.31419 0.93391 0.59055 0.0
H702 H 0.30461 0.95879 0.60845 0.0
H703 H 0.30956 0.93009 0.6225 0.0
H704 H 0.28648 1.00465 0.66272 0.0
H705 H 0.29226 0.9341 0.69483 0.0
H706 H 0.24387 0.98526 0.61275 0.0
H707 H 0.27516 0.99043 0.6063 0.0
H708 H 0.2614 1.01047 0.62682 0.0
H709 H 0.2501 0.90233 0.653 0.0
H710 H 0.27304 0.89912 0.67717 0.0
H711 H 0.28118 0.89995 0.64589 0.0
C712 C 0.09192 0.31556 0.61969 0.0
C713 C 0.10774 0.33429 0.62909 0.0
C714 C 0.1008 0.29373 0.61139 0.0
C715 C 0.12614 0.29043 0.61276 0.0
C716 C 0.14223 0.30945 0.62182 0.0
C717 C 0.13285 0.33118 0.62976 0.0
C718 C 0.08306 0.27404 0.60151 0.0
C719 C 0.16934 0.30659 0.62377 0.0
C720 C 0.14835 0.2261 0.61545 0.0
C721 C 0.15581 0.22285 0.59175 0.0
C722 C 0.13853 0.24796 0.62249 0.0
C723 C 0.13582 0.26689 0.60532 0.0
C724 C 0.14284 0.26348 0.58121 0.0
C725 C 0.15286 0.24157 0.57477 0.0
C726 C 0.13148 0.25096 0.64844 0.0
C727 C 0.1399 0.28303 0.56225 0.0
H728 H 0.07253 0.31799 0.61896 0.0
H729 H 0.14515 0.34542 0.63733 0.0
H730 H 0.08785 0.26857 0.583 0.0
H731 H 0.08412 0.25774 0.61322 0.0
H732 H 0.06404 0.27989 0.6006 0.0
H733 H 0.17943 0.32331 0.63066 0.0
H734 H 0.17365 0.29141 0.63623 0.0
H735 H 0.17599 0.30195 0.60572 0.0
H736 H 0.15077 0.21175 0.62864 0.0
H737 H 0.15822 0.23897 0.55631 0.0
H738 H 0.11206 0.25525 0.64879 0.0
H739 H 0.14224 0.26642 0.65714 0.0
H740 H 0.13447 0.23442 0.65948 0.0
H741 H 0.12071 0.28823 0.56058 0.0
H742 H 0.14542 0.27718 0.54408 0.0
H743 H 0.15105 0.29951 0.56792 0.0
C744 C 0.822 0.17078 0.57648 0.0
C745 C 0.84529 0.1736 0.56747 0.0
C746 C 0.81735 0.15551 0.59613 0.0
C747 C 0.83644 0.14249 0.60719 0.0
C748 C 0.85993 0.14469 0.5979 0.0
C749 C 0.86412 0.16029 0.5781 0.0
C750 C 0.79197 0.15367 0.60531 0.0
C751 C 0.88066 0.13092 0.60912 0.0
C752 C 0.82241 0.1243 0.67158 0.0
C753 C 0.81101 0.1013 0.66768 0.0
C754 C 0.8325 0.13731 0.65231 0.0
C755 C 0.83133 0.12695 0.62865 0.0
C756 C 0.82152 0.10297 0.62508 0.0
C757 C 0.81137 0.0905 0.64461 0.0
C758 C 0.84273 0.16284 0.65692 0.0
C759 C 0.82019 0.09106 0.60029 0.0
H760 H 0.80723 0.18081 0.56834 0.0
H761 H 0.88216 0.16238 0.57127 0.0
H762 H 0.78487 0.13454 0.60455 0.0
H763 H 0.79234 0.15962 0.62461 0.0
H764 H 0.77914 0.16492 0.59457 0.0
H765 H 0.89743 0.13345 0.5989 0.0
H766 H 0.88469 0.13713 0.62814 0.0
H767 H 0.87554 0.11126 0.60978 0.0
H768 H 0.82218 0.1327 0.68938 0.0
H769 H 0.8031 0.07247 0.64167 0.0
H770 H 0.83004 0.17592 0.64867 0.0
H771 H 0.86033 0.16574 0.64826 0.0
H772 H 0.84543 0.16698 0.67666 0.0
H773 H 0.80588 0.09939 0.58858 0.0
H774 H 0.81579 0.07124 0.60132 0.0
H775 H 0.83762 0.09397 0.59132 0.0
C776 C 0.97404 0.70867 0.64624 0.0
C777 C 0.97968 0.71922 0.66918 0.0
C778 C 0.9568 0.71884 0.62986 0.0
C779 C 0.94496 0.73993 0.63668 0.0
C780 C 0.95041 0.75036 0.65994 0.0
C781 C 0.96762 0.73993 0.67579 0.0
C782 C 0.95145 0.70723 0.60521 0.0
C783 C 0.93818 0.77274 0.66811 0.0
C784 C 0.91655 0.78523 0.59316 0.0
C785 C 0.89169 0.78033 0.59605 0.0
C786 C 0.93418 0.77106 0.60487 0.0
C787 C 0.9268 0.7515 0.61987 0.0
C788 C 0.90173 0.74549 0.62154 0.0
C789 C 0.88453 0.75995 0.60963 0.0
C790 C 0.9607 0.77808 0.60252 0.0
C791 C 0.89302 0.72474 0.63718 0.0
H792 H 0.9833 0.69272 0.64096 0.0
H793 H 0.97167 0.74821 0.6935 0.0
H794 H 0.93175 0.70249 0.60254 0.0
H795 H 0.95625 0.72029 0.59073 0.0
H796 H 0.96168 0.69056 0.60288 0.0
H797 H 0.94436 0.77851 0.68685 0.0
H798 H 0.94198 0.78799 0.65554 0.0
H799 H 0.9182 0.76925 0.66757 0.0
H800 H 0.92234 0.80091 0.58278 0.0
H801 H 0.86538 0.75564 0.6115 0.0
H802 H 0.97117 0.76182 0.59912 0.0
H803 H 0.96822 0.78644 0.61982 0.0
H804 H 0.96353 0.79128 0.58759 0.0
H805 H 0.90314 0.70825 0.63373 0.0
H806 H 0.87328 0.72031 0.63392 0.0
H807 H 0.89649 0.72965 0.65666 0.0
C808 C 0.41687 0.34365 0.07387 0.0
C809 C 0.39156 0.34086 0.07005 0.0
C810 C 0.43021 0.32561 0.08576 0.0
C811 C 0.41792 0.30439 0.09418 0.0
C812 C 0.39229 0.30195 0.0912 0.0
C813 C 0.37945 0.32014 0.07911 0.0
C814 C 0.45751 0.32887 0.08853 0.0
C815 C 0.37846 0.27973 0.10013 0.0
C816 C 0.45097 0.24553 0.10008 0.0
C817 C 0.45601 0.24417 0.12528 0.0
C818 C 0.43903 0.26525 0.08972 0.0
C819 C 0.43184 0.28411 0.10491 0.0
C820 C 0.43716 0.28306 0.13033 0.0
C821 C 0.44921 0.26312 0.14019 0.0
C822 C 0.43385 0.26577 0.06251 0.0
C823 C 0.4297 0.30273 0.14714 0.0
H824 H 0.42638 0.35957 0.06689 0.0
H825 H 0.35989 0.3179 0.0764 0.0
H826 H 0.46378 0.32641 0.10781 0.0
H827 H 0.46594 0.31483 0.07769 0.0
H828 H 0.46419 0.34704 0.08241 0.0
H829 H 0.35848 0.2813 0.09779 0.0
H830 H 0.38356 0.26348 0.08998 0.0
H831 H 0.3833 0.27666 0.11966 0.0
H832 H 0.45652 0.23121 0.08838 0.0
H833 H 0.4528 0.26212 0.15969 0.0
H834 H 0.44171 0.2828 0.05486 0.0
H835 H 0.41396 0.26549 0.05837 0.0
H836 H 0.44136 0.25012 0.05315 0.0
H837 H 0.43703 0.32069 0.1412 0.0
H838 H 0.43612 0.29977 0.16633 0.0
H839 H 0.40961 0.30343 0.14635 0.0
C840 C 0.84111 0.47688 0.13951 0.0
C841 C 0.82843 0.49381 0.15227 0.0
C842 C 0.8285 0.45983 0.12371 0.0
C843 C 0.80273 0.45974 0.1208 0.0
C844 C 0.79031 0.47831 0.13197 0.0
C845 C 0.80329 0.49505 0.14746 0.0
C846 C 0.84254 0.4407 0.11171 0.0
C847 C 0.76297 0.47913 0.12956 0.0
C848 C 0.76585 0.41762 0.0757 0.0
C849 C 0.76044 0.39762 0.09052 0.0
C850 C 0.77996 0.43788 0.08505 0.0
C851 C 0.78845 0.43828 0.10986 0.0
C852 C 0.78233 0.41835 0.12493 0.0
C853 C 0.76872 0.39826 0.11503 0.0
C854 C 0.78642 0.4585 0.06826 0.0
C855 C 0.79035 0.4181 0.1516 0.0
H856 H 0.8605 0.47575 0.14324 0.0
H857 H 0.79342 0.50829 0.15714 0.0
H858 H 0.84004 0.42325 0.12148 0.0
H859 H 0.83569 0.43771 0.09258 0.0
H860 H 0.86228 0.4457 0.11199 0.0
H861 H 0.75644 0.49652 0.13639 0.0
H862 H 0.7563 0.47661 0.11033 0.0
H863 H 0.75478 0.46407 0.1402 0.0
H864 H 0.76001 0.41693 0.05659 0.0
H865 H 0.76474 0.38276 0.12649 0.0
H866 H 0.80641 0.46009 0.06686 0.0
H867 H 0.78076 0.47593 0.07574 0.0
H868 H 0.77778 0.45586 0.0497 0.0
H869 H 0.81047 0.41943 0.15369 0.0
H870 H 0.78378 0.40138 0.1609 0.0
H871 H 0.78347 0.43404 0.16097 0.0
C872 C 0.59049 0.69325 0.08429 0.0
C873 C 0.61543 0.68923 0.08453 0.0
C874 C 0.58093 0.70765 0.10227 0.0
C875 C 0.59676 0.71854 0.12065 0.0
C876 C 0.62163 0.71325 0.12188 0.0
C877 C 0.63056 0.69843 0.10401 0.0
C878 C 0.55418 0.71239 0.10073 0.0
C879 C 0.63919 0.72461 0.14107 0.0
C880 C 0.58199 0.78045 0.14423 0.0
C881 C 0.5747 0.77506 0.16769 0.0
C882 C 0.58895 0.76214 0.12872 0.0
C883 C 0.58813 0.73774 0.13669 0.0
C884 C 0.58027 0.73209 0.1602 0.0
C885 C 0.57393 0.75092 0.17558 0.0
C886 C 0.59771 0.76904 0.10399 0.0
C887 C 0.57863 0.70622 0.16909 0.0
H888 H 0.57859 0.68619 0.06943 0.0
H889 H 0.64969 0.69478 0.10483 0.0
H890 H 0.54652 0.7108 0.11894 0.0
H891 H 0.55156 0.73117 0.09426 0.0
H892 H 0.54379 0.69964 0.088 0.0
H893 H 0.65746 0.71699 0.14081 0.0
H894 H 0.64111 0.74446 0.13795 0.0
H895 H 0.63221 0.72194 0.15945 0.0
H896 H 0.58283 0.79916 0.13826 0.0
H897 H 0.56803 0.74679 0.19365 0.0
H898 H 0.58637 0.75933 0.08951 0.0
H899 H 0.61666 0.7635 0.10245 0.0
H900 H 0.59716 0.78885 0.10056 0.0
H901 H 0.56721 0.69478 0.15597 0.0
H902 H 0.57084 0.70475 0.18727 0.0
H903 H 0.59695 0.69869 0.17021 0.0
C904 C 0.21526 0.61148 0.09372 0.0
C905 C 0.22233 0.59487 0.11171 0.0
C906 C 0.23254 0.6269 0.08275 0.0
C907 C 0.2575 0.6258 0.09001 0.0
C908 C 0.26484 0.60818 0.10719 0.0
C909 C 0.24724 0.5929 0.1177 0.0
C910 C 0.22394 0.64517 0.06422 0.0
C911 C 0.2912 0.60622 0.1154 0.0
C912 C 0.30452 0.65954 0.0523 0.0
C913 C 0.30734 0.68188 0.06459 0.0
C914 C 0.28858 0.64093 0.06043 0.0
C915 C 0.27552 0.64464 0.08157 0.0
C916 C 0.2792 0.66681 0.09457 0.0
C917 C 0.29482 0.68519 0.08579 0.0
C918 C 0.28489 0.61777 0.04579 0.0
C919 C 0.26605 0.67144 0.11742 0.0
H920 H 0.19614 0.61316 0.08892 0.0
H921 H 0.25301 0.57967 0.13104 0.0
H922 H 0.22654 0.66373 0.07202 0.0
H923 H 0.23481 0.64455 0.04784 0.0
H924 H 0.20444 0.64198 0.05856 0.0
H925 H 0.2942 0.5901 0.12706 0.0
H926 H 0.30263 0.60516 0.09946 0.0
H927 H 0.2975 0.62274 0.12588 0.0
H928 H 0.31377 0.65707 0.03562 0.0
H929 H 0.29688 0.70247 0.09528 0.0
H930 H 0.26609 0.61645 0.03757 0.0
H931 H 0.28713 0.60176 0.05772 0.0
H932 H 0.29775 0.6169 0.03095 0.0
H933 H 0.24619 0.67134 0.11305 0.0
H934 H 0.27186 0.68911 0.12608 0.0
H935 H 0.26933 0.65677 0.1308 0.0
C936 C 0.40599 0.74918 0.94995 0.0
C937 C 0.40373 0.74242 0.97433 0.0
C938 C 0.42452 0.76567 0.94318 0.0
C939 C 0.44136 0.77564 0.96119 0.0
C940 C 0.44021 0.76767 0.98559 0.0
C941 C 0.42148 0.75103 0.99184 0.0
C942 C 0.42509 0.7736 0.91694 0.0
C943 C 0.45826 0.7772 1.00524 0.0
C944 C 0.49606 0.81011 0.93654 0.0
C945 C 0.48844 0.83407 0.93638 0.0
C946 C 0.48146 0.79098 0.94559 0.0
C947 C 0.45863 0.79588 0.95459 0.0
C948 C 0.45134 0.82016 0.95553 0.0
C949 C 0.46632 0.83894 0.94643 0.0
C950 C 0.49018 0.76545 0.94489 0.0
C951 C 0.4273 0.82621 0.96541 0.0
H952 H 0.39252 0.74251 0.93622 0.0
H953 H 0.42007 0.74576 1.0107 0.0
H954 H 0.42076 0.79302 0.91555 0.0
H955 H 0.44352 0.77184 0.91018 0.0
H956 H 0.41187 0.76284 0.90488 0.0
H957 H 0.4522 0.77295 0.02377 0.0
H958 H 0.47591 0.76879 1.00308 0.0
H959 H 0.46146 0.79712 1.00375 0.0
H960 H 0.5134 0.80626 0.9294 0.0
H961 H 0.46027 0.85735 0.94637 0.0
H962 H 0.47811 0.7542 0.93217 0.0
H963 H 0.48931 0.75706 0.96314 0.0
H964 H 0.50908 0.76488 0.93895 0.0
H965 H 0.41223 0.81767 0.95379 0.0
H966 H 0.42488 0.84609 0.96612 0.0
H967 H 0.42582 0.81874 0.98402 0.0
C968 C 0.34448 0.43776 0.98624 0.0
C969 C 0.35378 0.45067 1.00683 0.0
C970 C 0.32098 0.44161 0.97625 0.0
C971 C 0.30641 0.45864 0.98728 0.0
C972 C 0.31536 0.47071 1.00889 0.0
C973 C 0.33912 0.46696 1.0181 0.0
C974 C 0.31227 0.4284 0.95317 0.0
C975 C 0.30025 0.48839 1.02175 0.0
C976 C 0.26141 0.49249 0.94674 0.0
C977 C 0.23916 0.48046 0.9513 0.0
C978 C 0.2833 0.48544 0.9582 0.0
C979 C 0.2831 0.46585 0.97481 0.0
C980 C 0.26072 0.4536 0.97956 0.0
C981 C 0.23903 0.46109 0.96784 0.0
C982 C 0.30668 0.49906 0.95255 0.0
C983 C 0.25967 0.43276 0.9972 0.0
H984 H 0.35607 0.42564 0.97723 0.0
H985 H 0.34636 0.47692 0.03407 0.0
H986 H 0.29414 0.41941 0.95538 0.0
H987 H 0.31031 0.44162 0.93809 0.0
H988 H 0.32498 0.4145 0.94787 0.0
H989 H 0.30858 0.49388 0.03986 0.0
H990 H 0.29821 0.5049 1.01048 0.0
H991 H 0.28178 0.48031 0.02426 0.0
H992 H 0.26174 0.50772 0.93437 0.0
H993 H 0.22201 0.45153 0.97135 0.0
H994 H 0.31976 0.48629 0.94572 0.0
H995 H 0.31513 0.50759 0.96939 0.0
H996 H 0.30385 0.51347 0.93875 0.0
H997 H 0.27219 0.41863 0.99209 0.0
H998 H 0.24108 0.42432 0.99806 0.0
H999 H 0.26582 0.43939 1.01559 0.0
C1000 C 0.59987 0.24716 0.92321 0.0
C1001 C 0.60369 0.25466 0.89932 0.0
C1002 C 0.61391 0.25753 0.94307 0.0
C1003 C 0.63241 0.27553 0.93888 0.0
C1004 C 0.63634 0.28302 0.91476 0.0
C1005 C 0.6219 0.27263 0.89539 0.0
C1006 C 0.60903 0.24918 0.96852 0.0
C1007 C 0.65616 0.30173 0.90933 0.0
C1008 C 0.66138 0.31678 0.98946 0.0
C1009 C 0.68268 0.30478 0.99569 0.0
C1010 C 0.64439 0.30713 0.9715 0.0
C1011 C 0.64902 0.28523 0.9593 0.0
C1012 C 0.67051 0.27316 0.96558 0.0
C1013 C 0.6869 0.28298 0.98367 0.0
C1014 C 0.62156 0.32041 0.96547 0.0
C1015 C 0.6765 0.25005 0.95282 0.0
H1016 H 0.58567 0.2335 0.92643 0.0
H1017 H 0.62506 0.27854 0.877 0.0
H1018 H 0.62515 0.24029 0.97663 0.0
H1019 H 0.6058 0.26502 0.98021 0.0
H1020 H 0.59308 0.23617 0.9689 0.0
H1021 H 0.65639 0.30614 0.88965 0.0
H1022 H 0.65377 0.31869 0.91962 0.0
H1023 H 0.67411 0.29493 0.9153 0.0
H1024 H 0.65788 0.33351 0.99875 0.0
H1025 H 0.70334 0.27356 0.9882 0.0
H1026 H 0.60538 0.30797 0.96722 0.0
H1027 H 0.62139 0.32663 0.94631 0.0
H1028 H 0.61994 0.33641 0.97747 0.0
H1029 H 0.66161 0.23606 0.95453 0.0
H1030 H 0.69369 0.24257 0.96025 0.0
H1031 H 0.6782 0.25355 0.93311 0.0
C1032 C 0.75465 0.63063 0.96617 0.0
C1033 C 0.73662 0.6155 0.97609 0.0
C1034 C 0.77689 0.62156 0.95999 0.0
C1035 C 0.78134 0.59677 0.96403 0.0
C1036 C 0.76326 0.58142 0.97417 0.0
C1037 C 0.74107 0.59094 0.97996 0.0
C1038 C 0.79554 0.63845 0.94888 0.0
C1039 C 0.76739 0.55493 0.97895 0.0
C1040 C 0.82759 0.5671 0.92633 0.0
C1041 C 0.84813 0.56724 0.94246 0.0
C1042 C 0.80586 0.57678 0.93309 0.0
C1043 C 0.80449 0.58668 0.95669 0.0
C1044 C 0.82517 0.58696 0.97309 0.0
C1045 C 0.84685 0.5774 0.96569 0.0
C1046 C 0.78439 0.57647 0.91491 0.0
C1047 C 0.82432 0.59714 0.9985 0.0
H1048 H 0.7512 0.64957 0.96299 0.0
H1049 H 0.72739 0.57926 0.988 0.0
H1050 H 0.81284 0.63869 0.96007 0.0
H1051 H 0.79941 0.63182 0.93049 0.0
H1052 H 0.78942 0.65732 0.94727 0.0
H1053 H 0.75183 0.54562 0.98765 0.0
H1054 H 0.77034 0.54549 0.9616 0.0
H1055 H 0.78399 0.55311 0.99093 0.0
H1056 H 0.82865 0.55973 0.90818 0.0
H1057 H 0.86268 0.57742 0.97818 0.0
H1058 H 0.77854 0.59523 0.9117 0.0
H1059 H 0.76882 0.56594 0.92224 0.0
H1060 H 0.78856 0.56839 0.89717 0.0
H1061 H 0.81956 0.61646 0.99767 0.0
H1062 H 0.8419 0.59588 1.00909 0.0
H1063 H 0.80995 0.58721 1.00839 0.0
C1064 C 0.1276 0.411 0.32666 0.0
C1065 C 0.10411 0.40692 0.33487 0.0
C1066 C 0.13248 0.42825 0.30859 0.0
C1067 C 0.11339 0.44186 0.29827 0.0
C1068 C 0.08989 0.43888 0.30748 0.0
C1069 C 0.08553 0.42148 0.3257 0.0
C1070 C 0.15784 0.43087 0.29955 0.0
C1071 C 0.069 0.453 0.29712 0.0
C1072 C 0.13313 0.49589 0.25949 0.0
C1073 C 0.13133 0.48589 0.23591 0.0
C1074 C 0.12645 0.48215 0.27985 0.0
C1075 C 0.11785 0.4577 0.27669 0.0
C1076 C 0.11528 0.44774 0.25286 0.0
C1077 C 0.12197 0.46192 0.23283 0.0
C1078 C 0.12922 0.49361 0.30482 0.0
C1079 C 0.10627 0.42175 0.24859 0.0
H1080 H 0.14208 0.39989 0.33365 0.0
H1081 H 0.06725 0.41832 0.33168 0.0
H1082 H 0.15772 0.42441 0.28042 0.0
H1083 H 0.16424 0.45023 0.29976 0.0
H1084 H 0.17102 0.42035 0.31066 0.0
H1085 H 0.05284 0.45108 0.30832 0.0
H1086 H 0.07444 0.47254 0.29573 0.0
H1087 H 0.06374 0.44634 0.27847 0.0
H1088 H 0.1399 0.5145 0.26208 0.0
H1089 H 0.12067 0.4539 0.21482 0.0
H1090 H 0.14348 0.48451 0.31591 0.0
H1091 H 0.11205 0.49113 0.31434 0.0
H1092 H 0.13427 0.51331 0.30407 0.0
H1093 H 0.1194 0.40933 0.25724 0.0
H1094 H 0.10386 0.41715 0.22892 0.0
H1095 H 0.08867 0.4183 0.25712 0.0
C1096 C 0.10755 0.53972 0.80937 0.0
C1097 C 0.10478 0.54853 0.83298 0.0
C1098 C 0.0983 0.552 0.78879 0.0
C1099 C 0.08626 0.57383 0.79186 0.0
C1100 C 0.08183 0.58181 0.81569 0.0
C1101 C 0.09103 0.56898 0.83595 0.0
C1102 C 0.10258 0.54233 0.76377 0.0
C1103 C 0.06909 0.605 0.81985 0.0
C1104 C 0.0956 0.62561 0.74765 0.0
C1105 C 0.07249 0.62706 0.73607 0.0
C1106 C 0.10054 0.60763 0.76494 0.0
C1107 C 0.08196 0.59037 0.77074 0.0
C1108 C 0.05909 0.59052 0.75775 0.0
C1109 C 0.05457 0.60896 0.74058 0.0
C1110 C 0.12524 0.60818 0.77818 0.0
C1111 C 0.03895 0.57218 0.76302 0.0
H1112 H 0.11768 0.52358 0.807 0.0
H1113 H 0.08886 0.57593 0.8541 0.0
H1114 H 0.08529 0.54121 0.75253 0.0
H1115 H 0.1153 0.55493 0.75448 0.0
H1116 H 0.11033 0.52408 0.76445 0.0
H1117 H 0.06481 0.60736 0.8392 0.0
H1118 H 0.08086 0.62073 0.81447 0.0
H1119 H 0.05196 0.6053 0.80842 0.0
H1120 H 0.10957 0.63944 0.74417 0.0
H1121 H 0.03658 0.61005 0.73187 0.0
H1122 H 0.13328 0.59016 0.77713 0.0
H1123 H 0.12336 0.61236 0.79771 0.0
H1124 H 0.13806 0.62197 0.77064 0.0
H1125 H 0.04603 0.55373 0.76488 0.0
H1126 H 1.02415 0.57181 0.74854 0.0
H1127 H 0.03112 0.57681 0.78051 0.0
C1128 C 0.43478 0.08081 0.77763 0.0
C1129 C 0.41155 0.07751 0.78667 0.0
C1130 C 0.45193 0.09778 0.78816 0.0
C1131 C 0.44578 0.11189 0.80827 0.0
C1132 C 0.42273 0.10795 0.81816 0.0
C1133 C 0.4059 0.09078 0.80725 0.0
C1134 C 0.47632 0.10128 0.77709 0.0
C1135 C 0.41545 0.12261 0.83957 0.0
C1136 C 0.49783 0.14889 0.84108 0.0
C1137 C 0.49646 0.17116 0.82894 0.0
C1138 C 0.48097 0.12952 0.83519 0.0
C1139 C 0.46234 0.13263 0.81687 0.0
C1140 C 0.46038 0.15541 0.80535 0.0
C1141 C 0.47741 0.17429 0.81149 0.0
C1142 C 0.48359 0.10551 0.84792 0.0
C1143 C 0.44077 0.15964 0.78582 0.0
H1144 H 0.43956 0.07018 0.76217 0.0
H1145 H 0.38801 0.08833 0.81434 0.0
H1146 H 0.47779 0.1195 0.76863 0.0
H1147 H 0.49118 0.10046 0.79139 0.0
H1148 H 0.47911 0.08742 0.76295 0.0
H1149 H 0.39816 0.11544 0.84687 0.0
H1150 H 0.42988 0.12278 0.85437 0.0
H1151 H 0.41314 0.1417 0.83391 0.0
H1152 H 0.51248 0.14635 0.85459 0.0
H1153 H 0.47599 0.19152 0.8022 0.0
H1154 H 0.48894 0.09172 0.83475 0.0
H1155 H 0.46597 0.09902 0.85494 0.0
H1156 H 0.49747 0.10667 0.86328 0.0
H1157 H 0.44331 0.14787 0.76986 0.0
H1158 H 0.44088 0.17881 0.77966 0.0
H1159 H 0.42263 0.15469 0.79261 0.0
C1160 C 0.98607 0.51265 0.83061 0.0
C1161 C 0.98603 0.49754 0.85109 0.0
C1162 C 0.99846 0.50658 0.80994 0.0
C1163 C 1.0106 0.48453 0.80949 0.0
C1164 C 1.01213 0.47011 0.83076 0.0
C1165 C 0.9999 0.47686 0.85138 0.0
C1166 C 0.99694 0.52303 0.7881 0.0
C1167 C 0.02536 0.44674 0.83121 0.0
C1168 C 1.00933 0.45126 0.74893 0.0
C1169 C 0.03269 0.45657 0.74108 0.0
C1170 C 1.00198 0.46043 0.77102 0.0
C1171 C 1.01857 0.47492 0.78597 0.0
C1172 C 0.04227 0.48036 0.77815 0.0
C1173 C 0.04898 0.47132 0.75563 0.0
C1174 C 0.97639 0.45456 0.77839 0.0
C1175 C 0.06045 0.4958 0.79347 0.0
H1176 H 0.97572 0.5289 0.83046 0.0
H1177 H 0.99994 0.46513 0.86715 0.0
H1178 H 0.99598 0.54225 0.79385 0.0
H1179 H 1.0127 0.52162 0.77656 0.0
H1180 H 0.98023 0.51796 0.77683 0.0
H1181 H 0.0275 0.43923 0.84987 0.0
H1182 H 1.01508 0.43307 0.81944 0.0
H1183 H 0.04359 0.44963 0.82382 0.0
H1184 H 0.99677 0.43991 0.73761 0.0
H1185 H 0.06718 0.47515 0.74974 0.0
H1186 H 0.96682 0.47161 0.78078 0.0
H1187 H 0.9768 0.44499 0.79612 0.0
H1188 H 0.96575 0.443 0.76474 0.0
H1189 H 0.05467 0.51481 0.7936 0.0
H1190 H 0.07894 0.49559 0.78645 0.0
H1191 H 0.06128 0.48944 0.81259 0.0
C1192 C 0.68881 1.01036 0.78831 0.0
C1193 C 0.71019 0.99867 0.7838 0.0
C1194 C 0.67143 0.99979 0.8033 0.0
C1195 C 0.67536 0.97678 0.8138 0.0
C1196 C 0.69712 0.96508 0.80966 0.0
C1197 C 0.71435 0.97625 0.79484 0.0
C1198 C 0.64868 1.01306 0.80754 0.0
C1199 C 0.70187 0.94042 0.82026 0.0
C1200 C 0.63808 0.95563 0.86684 0.0
C1201 C 0.61963 0.94085 0.85508 0.0
C1202 C 0.65624 0.96755 0.85368 0.0
C1203 C 0.65618 0.96446 0.82812 0.0
C1204 C 0.63768 0.94962 0.81612 0.0
C1205 C 0.61959 0.93819 0.82967 0.0
C1206 C 0.67553 0.98343 0.86711 0.0
C1207 C 0.63698 0.94576 0.7889 0.0
H1208 H 0.6857 0.02786 0.78011 0.0
H1209 H 0.73074 0.96708 0.79123 0.0
H1210 H 0.63258 1.00246 0.7997 0.0
H1211 H 0.6463 1.01495 0.82735 0.0
H1212 H 0.64904 0.03141 0.79925 0.0
H1213 H 0.72008 0.93419 0.81613 0.0
H1214 H 0.70046 0.94081 0.84029 0.0
H1215 H 0.68789 0.9269 0.81283 0.0
H1216 H 0.63856 0.95771 0.88642 0.0
H1217 H 0.60529 0.9273 0.82018 0.0
H1218 H 0.6756 1.00209 0.8596 0.0
H1219 H 0.69371 0.97635 0.86451 0.0
H1220 H 0.67274 0.98441 0.88694 0.0
H1221 H 0.63519 0.96339 0.77945 0.0
H1222 H 0.62168 0.93324 0.78238 0.0
H1223 H 0.65424 0.93821 0.78356 0.0
C1224 C 0.95798 0.67595 0.30509 0.0
C1225 C 0.9805 0.67325 0.31758 0.0
C1226 C 0.94619 0.65675 0.29172 0.0
C1227 C 0.95731 0.63418 0.29028 0.0
C1228 C 0.98008 0.63124 0.30294 0.0
C1229 C 0.99132 0.65076 0.31663 0.0
C1230 C 0.92172 0.66068 0.27911 0.0
C1231 C 0.99272 0.60763 0.30165 0.0
C1232 C 0.91231 0.58128 0.27637 0.0
C1233 C 0.91265 0.579 0.25091 0.0
C1234 C 0.92761 0.59823 0.28943 0.0
C1235 C 0.94404 0.61343 0.27691 0.0
C1236 C 0.94555 0.61037 0.25137 0.0
C1237 C 0.9298 0.5932 0.23863 0.0
C1238 C 0.92511 0.60078 0.31653 0.0
C1239 C 0.96307 0.62598 0.23737 0.0
H1240 H 0.94957 0.69333 0.30564 0.0
H1241 H 1.00898 0.64873 0.32576 0.0
H1242 H 0.92248 0.6573 0.25929 0.0
H1243 H 0.90789 0.64761 0.2861 0.0
H1244 H 0.91561 0.67937 0.28185 0.0
H1245 H 1.0106 0.60839 0.31193 0.0
H1246 H 0.98119 0.5927 0.30908 0.0
H1247 H 0.99553 0.60302 0.28239 0.0
H1248 H 0.89945 0.57019 0.28625 0.0
H1249 H 0.93033 0.59155 0.21903 0.0
H1250 H 0.91757 0.6186 0.32049 0.0
H1251 H 0.94312 0.6003 0.32636 0.0
H1252 H 0.91296 0.58627 0.32387 0.0
H1253 H 0.95697 0.64487 0.23669 0.0
H1254 H 0.9644 0.61936 0.21842 0.0
H1255 H 0.98142 0.6265 0.24666 0.0
C1256 C 0.36651 0.94462 0.26813 0.0
C1257 C 0.37472 0.96898 0.27055 0.0
C1258 C 0.38208 0.92685 0.26082 0.0
C1259 C 0.4063 0.93372 0.25567 0.0
C1260 C 0.41425 0.95848 0.25688 0.0
C1261 C 0.39837 0.97579 0.26439 0.0
C1262 C 0.373 0.90062 0.25981 0.0
C1263 C 0.43985 0.96659 0.2512 0.0
C1264 C 0.4571 0.89015 0.26471 0.0
C1265 C 0.46144 0.88394 0.24065 0.0
C1266 C 0.43847 0.90554 0.2699 0.0
C1267 C 0.42391 0.91503 0.25056 0.0
C1268 C 0.42746 0.90798 0.22632 0.0
C1269 C 0.44612 0.89244 0.22168 0.0
C1270 C 0.43511 0.91252 0.29603 0.0
C1271 C 0.41225 0.91766 0.20523 0.0
H1272 H 0.34832 0.93928 0.27314 0.0
H1273 H 0.40459 0.99467 0.26602 0.0
H1274 H 0.3772 0.89221 0.24227 0.0
H1275 H 0.38243 0.89037 0.27452 0.0
H1276 H 0.35312 0.89857 0.26201 0.0
H1277 H 0.44261 0.98667 0.25137 0.0
H1278 H 0.4529 0.95895 0.26481 0.0
H1279 H 0.44424 0.95967 0.23307 0.0
H1280 H 0.4689 0.88384 0.27947 0.0
H1281 H 0.44899 0.8873 0.20308 0.0
H1282 H 0.41581 0.90957 0.30043 0.0
H1283 H 0.43996 0.93212 0.29872 0.0
H1284 H 0.44653 0.90202 0.30905 0.0
H1285 H 0.39265 0.91493 0.20847 0.0
H1286 H 0.41593 0.90882 0.18771 0.0
H1287 H 0.41612 0.93748 0.20353 0.0
C1288 C 0.59699 0.09212 0.32044 0.0
C1289 C 0.59978 0.06778 0.32667 0.0
C1290 C 0.58356 0.09835 0.29923 0.0
C1291 C 0.5723 0.07977 0.28418 0.0
C1292 C 0.57389 0.0552 0.29116 0.0
C1293 C 0.58794 0.04948 0.31216 0.0
C1294 C 0.58226 0.1248 0.29241 0.0
C1295 C 0.56147 0.03492 0.27612 0.0
C1296 C 0.52531 0.10394 0.23929 0.0
C1297 C 0.53903 0.10787 0.2188 0.0
C1298 C 0.53532 0.09299 0.26021 0.0
C1299 C 0.55976 0.08628 0.26073 0.0
C1300 C 0.57306 0.08846 0.23942 0.0
C1301 C 0.56243 0.09914 0.21858 0.0
C1302 C 0.52027 0.09023 0.28226 0.0
C1303 C 0.59913 0.08131 0.23923 0.0
H1304 H 0.60637 0.10623 0.3315 0.0
H1305 H 0.59002 0.03065 0.31711 0.0
H1306 H 0.59066 0.12797 0.27473 0.0
H1307 H 0.56304 0.12979 0.29013 0.0
H1308 H 0.59171 0.13702 0.30629 0.0
H1309 H 0.55976 1.01788 0.28673 0.0
H1310 H 0.54308 0.03984 0.26928 0.0
H1311 H 0.57222 0.03144 0.26009 0.0
H1312 H 0.50712 0.11057 0.23932 0.0
H1313 H 0.57306 0.10236 0.20279 0.0
H1314 H 0.52543 0.10515 0.29532 0.0
H1315 H 0.52354 0.07281 0.29166 0.0
H1316 H 0.50058 0.09099 0.27731 0.0
H1317 H 0.61064 0.09364 0.25144 0.0
H1318 H 0.60624 0.08224 0.22072 0.0
H1319 H 0.60088 0.06261 0.24626 0.0
C1320 C 0.7579 0.9815 0.64559 0.0
C1321 C 0.77312 0.99921 0.65772 0.0
C1322 C 0.76722 0.96524 0.62871 0.0
C1323 C 0.79226 0.96691 0.62352 0.0
C1324 C 0.80733 0.98542 0.63507 0.0
C1325 C 0.79769 1.00106 0.65198 0.0
C1326 C 0.75043 0.9458 0.61695 0.0
C1327 C 0.83392 0.98849 0.62995 0.0
C1328 C 0.82531 0.91265 0.59895 0.0
C1329 C 0.82608 0.91787 0.57399 0.0
C1330 C 0.81389 0.92804 0.61507 0.0
C1331 C 0.80301 0.9494 0.60625 0.0
C1332 C 0.80386 0.9548 0.58112 0.0
C1333 C 0.81522 0.93905 0.56541 0.0
C1334 C 0.81347 0.9214 0.64163 0.0
C1335 C 0.79292 0.9774 0.57077 0.0
H1336 H 0.73899 0.97971 0.65 0.0
H1337 H 0.80964 1.01479 0.66104 0.0
H1338 H 0.75093 0.94688 0.59685 0.0
H1339 H 0.75666 0.92765 0.62239 0.0
H1340 H 0.73137 0.94728 0.62214 0.0
H1341 H 0.843 1.00439 0.63962 0.0
H1342 H 0.84343 0.97198 0.63564 0.0
H1343 H 0.83605 0.99076 0.61013 0.0
H1344 H 0.83329 0.89628 0.60587 0.0
H1345 H 0.81548 0.94337 0.54622 0.0
H1346 H 0.79449 0.92046 0.64743 0.0
H1347 H 0.82356 0.93566 0.65283 0.0
H1348 H 0.82169 0.90371 0.64554 0.0
H1349 H 0.77346 0.97767 0.57486 0.0
H1350 H 0.79442 0.97875 0.55076 0.0
H1351 H 0.80218 0.99373 0.57944 0.0
C1352 C 0.16797 0.78461 0.58379 0.0
C1353 C 0.19258 0.78852 0.59117 0.0
C1354 C 0.1512 0.77398 0.59945 0.0
C1355 C 0.15912 0.76701 0.62321 0.0
C1356 C 0.18405 0.77028 0.63059 0.0
C1357 C 0.20045 0.78095 0.6145 0.0
C1358 C 0.12486 0.7707 0.59073 0.0
C1359 C 0.19328 0.76316 0.65574 0.0
C1360 C 0.11213 0.76461 0.6717 0.0
C1361 C 0.10612 0.73965 0.6732 0.0
C1362 C 0.12941 0.77365 0.65571 0.0
C1363 C 0.1411 0.75742 0.64068 0.0
C1364 C 0.13521 0.73219 0.64209 0.0
C1365 C 0.11783 0.72363 0.65829 0.0
C1366 C 0.135 0.80069 0.65474 0.0
C1367 C 0.14726 0.71425 0.62644 0.0
H1368 H 0.16174 0.78995 0.56568 0.0
H1369 H 0.21933 0.78404 0.62051 0.0
H1370 H 0.11847 0.75148 0.59276 0.0
H1371 H 0.11353 0.78184 0.60206 0.0
H1372 H 0.1218 0.77602 0.57139 0.0
H1373 H 0.21335 0.76557 0.65823 0.0
H1374 H 0.18493 0.77437 0.66955 0.0
H1375 H 0.18792 0.74393 0.65934 0.0
H1376 H 0.103 0.77725 0.68275 0.0
H1377 H 0.11361 0.70432 0.65945 0.0
H1378 H 0.13047 0.80751 0.63619 0.0
H1379 H 0.1547 0.80466 0.65867 0.0
H1380 H 0.12473 0.81087 0.66795 0.0
H1381 H 0.14354 0.71842 0.60693 0.0
H1382 H 0.14086 0.69522 0.62981 0.0
H1383 H 0.16724 0.71578 0.62999 0.0
C1384 C 0.28655 0.13383 0.58386 0.0
C1385 C 0.26222 0.1275 0.5883 0.0
C1386 C 0.30589 0.12168 0.59582 0.0
C1387 C 0.30088 0.10278 0.61264 0.0
C1388 C 0.27639 0.09673 0.61742 0.0
C1389 C 0.25758 0.10906 0.60533 0.0
C1390 C 0.33169 0.12875 0.59013 0.0
C1391 C 0.26991 0.07682 0.63511 0.0
C1392 C 0.34301 0.05122 0.62853 0.0
C1393 C 0.35174 0.05733 0.65233 0.0
C1394 C 0.32771 0.06653 0.61486 0.0
C1395 C 0.32082 0.08869 0.62503 0.0
C1396 C 0.33067 0.09561 0.64849 0.0
C1397 C 0.34591 0.07992 0.66181 0.0
C1398 C 0.31772 0.05819 0.59004 0.0
C1399 C 0.32396 0.11898 0.66019 0.0
H1400 H 0.29046 0.14792 0.57075 0.0
H1401 H 0.23899 0.10393 0.60917 0.0
H1402 H 0.34256 0.1334 0.60715 0.0
H1403 H 0.34014 0.11315 0.58169 0.0
H1404 H 0.33275 0.14445 0.57755 0.0
H1405 H 0.25003 0.07456 0.63719 0.0
H1406 H 0.27656 0.05931 0.62881 0.0
H1407 H 0.27892 0.08082 0.65325 0.0
H1408 H 0.34727 0.0339 0.62087 0.0
H1409 H 0.35246 0.08499 0.6801 0.0
H1410 H 0.31928 0.07312 0.57666 0.0
H1411 H 0.29815 0.05292 0.59094 0.0
H1412 H 0.32722 0.04236 0.5833 0.0
H1413 H 0.32574 0.13429 0.64726 0.0
H1414 H 0.33544 0.12335 0.67694 0.0
H1415 H 0.3047 0.11743 0.66508 0.0
C1416 C 0.89362 0.30218 0.59825 0.0
C1417 C 0.90095 0.29122 0.57695 0.0
C1418 C 0.91042 0.31535 0.61393 0.0
C1419 C 0.93514 0.3177 0.60813 0.0
C1420 C 0.94261 0.30667 0.58667 0.0
C1421 C 0.92548 0.29364 0.57139 0.0
C1422 C 0.90172 0.32681 0.63664 0.0
C1423 C 0.96872 0.30887 0.57964 0.0
C1424 C 0.97615 0.37075 0.63166 0.0
C1425 C 0.99083 0.35982 0.64974 0.0
C1426 C 0.9574 0.35747 0.61869 0.0
C1427 C 0.95312 0.33255 0.62379 0.0
C1428 C 0.96724 0.32159 0.64266 0.0
C1429 C 0.9859 0.33537 0.65545 0.0
C1430 C 0.94276 0.36994 0.59883 0.0
C1431 C 0.96325 0.29508 0.64868 0.0
H1432 H 0.8748 0.30019 0.60287 0.0
H1433 H 0.9313 0.28562 0.55481 0.0
H1434 H 0.9121 0.32017 0.6529 0.0
H1435 H 0.90504 0.34678 0.63601 0.0
H1436 H 0.88205 0.32281 0.63889 0.0
H1437 H 0.97175 0.29861 0.56275 0.0
H1438 H 0.97414 0.32823 0.5768 0.0
H1439 H 0.98086 0.30205 0.59455 0.0
H1440 H 0.97966 0.38967 0.6272 0.0
H1441 H 0.99713 0.32676 0.66935 0.0
H1442 H 0.92306 0.36701 0.60146 0.0
H1443 H 0.94639 0.362 0.58091 0.0
H1444 H 0.94717 0.38978 0.59827 0.0
H1445 H 0.9438 0.29083 0.65168 0.0
H1446 H 0.97426 0.28978 0.66513 0.0
H1447 H 0.96821 0.28381 0.63312 0.0
C1448 C 0.73854 0.09342 0.38717 0.0
C1449 C 0.72705 0.07803 0.40376 0.0
C1450 C 0.7545 0.11285 0.39538 0.0
C1451 C 0.75915 0.11687 0.42073 0.0
C1452 C 0.74826 0.1008 0.43742 0.0
C1453 C 0.73242 0.08173 0.42877 0.0
C1454 C 0.76578 0.12951 0.37698 0.0
C1455 C 0.75273 0.10416 0.46457 0.0
C1456 C 0.81287 0.15592 0.44774 0.0
C1457 C 0.80175 0.17735 0.45397 0.0
C1458 C 0.79953 0.13651 0.43594 0.0
C1459 C 0.77436 0.13843 0.43017 0.0
C1460 C 0.7632 0.16027 0.43571 0.0
C1461 C 0.77696 0.17937 0.44749 0.0
C1462 C 0.81221 0.11362 0.43035 0.0
C1463 C 0.73643 0.16314 0.43005 0.0
H1464 H 0.7345 0.09078 0.36784 0.0
H1465 H 0.72388 0.06985 0.44181 0.0
H1466 H 0.75867 0.1479 0.37866 0.0
H1467 H 0.78575 0.1313 0.38057 0.0
H1468 H 0.76189 0.12296 0.35802 0.0
H1469 H 0.74377 0.08945 0.47511 0.0
H1470 H 0.7725 0.10468 0.46944 0.0
H1471 H 0.74579 0.12176 0.47025 0.0
H1472 H 0.83205 0.15422 0.45219 0.0
H1473 H 0.76802 0.19562 0.45233 0.0
H1474 H 0.8084 0.10828 0.41104 0.0
H1475 H 0.80515 0.09855 0.4417 0.0
H1476 H 0.83219 0.11574 0.43393 0.0
H1477 H 0.73164 0.15848 0.41072 0.0
H1478 H 0.73089 0.18189 0.43358 0.0
H1479 H 0.72573 0.15043 0.44139 0.0
C1480 C 0.94989 0.80081 0.38824 0.0
C1481 C 0.96932 0.78583 0.39405 0.0
C1482 C 0.93586 0.81041 0.40643 0.0
C1483 C 0.94116 0.80502 0.43128 0.0
C1484 C 0.96113 0.79047 0.43735 0.0
C1485 C 0.97488 0.78111 0.41879 0.0
C1486 C 0.91474 0.82568 0.39892 0.0
C1487 C 0.96759 0.78418 0.46349 0.0
C1488 C 0.91187 0.84099 0.48153 0.0
C1489 C 0.89207 0.8254 0.48701 0.0
C1490 C 0.92802 0.83475 0.46348 0.0
C1491 C 0.92436 0.8124 0.45056 0.0
C1492 C 0.90437 0.79674 0.45604 0.0
C1493 C 0.88864 0.80338 0.474 0.0
C1494 C 0.94904 0.85203 0.45826 0.0
C1495 C 0.89953 0.77277 0.44294 0.0
H1496 H 0.94512 0.80455 0.36934 0.0
H1497 H 0.99002 0.77002 0.42377 0.0
H1498 H 0.89746 0.8158 0.40293 0.0
H1499 H 0.91568 0.84286 0.40952 0.0
H1500 H 0.91426 0.83011 0.37922 0.0
H1501 H 0.98473 0.77437 0.46548 0.0
H1502 H 0.96954 0.80089 0.47481 0.0
H1503 H 0.95275 0.77257 0.47081 0.0
H1504 H 0.91481 0.858 0.49136 0.0
H1505 H 0.87351 0.79104 0.47785 0.0
H1506 H 0.94794 0.85735 0.43881 0.0
H1507 H 0.96641 0.84292 0.46159 0.0
H1508 H 0.94944 0.8687 0.46967 0.0
H1509 H 0.89695 0.77585 0.42307 0.0
H1510 H 0.88318 0.76263 0.44923 0.0
H1511 H 0.91539 0.76125 0.44579 0.0
C1512 C 0.33922 0.96836 0.3906 0.0
C1513 C 0.34686 0.99086 0.40112 0.0
C1514 C 0.32863 0.94965 0.40446 0.0
C1515 C 0.32561 0.95328 0.42961 0.0
C1516 C 0.33403 0.97562 0.44054 0.0
C1517 C 0.34447 0.99411 0.42621 0.0
C1518 C 0.31995 0.9262 0.39197 0.0
C1519 C 0.33138 0.98026 0.4673 0.0
C1520 C 0.27546 0.9153 0.45909 0.0
C1521 C 0.28839 0.89672 0.47045 0.0
C1522 C 0.28733 0.93384 0.44597 0.0
C1523 C 0.31288 0.93403 0.44417 0.0
C1524 C 0.32609 0.91549 0.45581 0.0
C1525 C 0.31373 0.89709 0.46869 0.0
C1526 C 0.27244 0.95308 0.43374 0.0
C1527 C 0.35333 0.91506 0.4546 0.0
H1528 H 0.34089 0.96553 0.37127 0.0
H1529 H 0.35022 1.01136 0.4346 0.0
H1530 H 0.3282 0.91058 0.40137 0.0
H1531 H 0.29997 0.92368 0.39299 0.0
H1532 H 0.32446 0.9258 0.37253 0.0
H1533 H 0.34017 0.9979 0.47339 0.0
H1534 H 0.31184 0.98025 0.47113 0.0
H1535 H 0.33948 0.96554 0.47826 0.0
H1536 H 0.25591 0.91512 0.46004 0.0
H1537 H 0.32401 0.88312 0.47766 0.0
H1538 H 0.2746 0.95263 0.4138 0.0
H1539 H 0.27904 0.97134 0.44035 0.0
H1540 H 0.25282 0.95064 0.43713 0.0
H1541 H 0.35825 0.91348 0.43538 0.0
H1542 H 0.36105 0.89975 0.46504 0.0
H1543 H 0.36194 0.93232 0.46187 0.0
C1544 C 0.19512 0.23327 0.4855 0.0
C1545 C 0.18493 0.20957 0.48673 0.0
C1546 C 0.1862 0.24983 0.46788 0.0
C1547 C 0.16679 0.24244 0.45109 0.0
C1548 C 0.15737 0.21816 0.45168 0.0
C1549 C 0.16647 0.2022 0.46939 0.0
C1550 C 0.19685 0.27548 0.46788 0.0
C1551 C 0.1369 0.2092 0.43417 0.0
C1552 C 0.12156 0.28606 0.42268 0.0
C1553 C 0.12845 0.28755 0.39845 0.0
C1554 C 0.13461 0.27252 0.44023 0.0
C1555 C 0.1552 0.26001 0.43362 0.0
C1556 C 0.1628 0.26215 0.40946 0.0
C1557 C 0.14938 0.27579 0.39224 0.0
C1558 C 0.12566 0.27072 0.46567 0.0
C1559 C 0.18465 0.2493 0.40153 0.0
H1560 H 0.20921 0.2392 0.49892 0.0
H1561 H 0.15861 0.18384 0.47001 0.0
H1562 H 0.20152 0.28088 0.44922 0.0
H1563 H 0.18318 0.28807 0.47386 0.0
H1564 H 0.21338 0.27776 0.48021 0.0
H1565 H 0.13244 0.18949 0.4362 0.0
H1566 H 0.12037 0.21927 0.43729 0.0
H1567 H 0.14176 0.21265 0.41514 0.0
H1568 H 0.1054 0.29478 0.42782 0.0
H1569 H 0.15524 0.27708 0.3738 0.0
H1570 H 0.14078 0.27488 0.47931 0.0
H1571 H 0.11873 0.25188 0.46902 0.0
H1572 H 0.11086 0.28324 0.46862 0.0
H1573 H 0.20043 0.25312 0.4145 0.0
H1574 H 0.18978 0.25476 0.383 0.0
H1575 H 0.18069 0.2294 0.40155 0.0
C1576 C 0.66219 0.74677 0.96925 0.0
C1577 C 0.6508 0.72348 0.96874 0.0
C1578 C 0.65197 0.76614 0.95599 0.0
C1579 C 0.62959 0.76232 0.94221 0.0
C1580 C 0.61832 0.73875 0.94137 0.0
C1581 C 0.62908 0.71975 0.95437 0.0
C1582 C 0.66482 0.79086 0.95716 0.0
C1583 C 0.59424 0.73375 0.92755 0.0
C1584 C 0.58808 0.81548 0.93389 0.0
C1585 C 0.59045 0.82188 0.90939 0.0
C1586 C 0.60067 0.79632 0.94461 0.0
C1587 C 0.61662 0.78321 0.93073 0.0
C1588 C 0.61904 0.78942 0.90586 0.0
C1589 C 0.60573 0.80852 0.89539 0.0
C1590 C 0.59677 0.79008 0.97089 0.0
C1591 C 0.636 0.77613 0.89045 0.0
H1592 H 0.67897 0.74991 0.98013 0.0
H1593 H 0.61993 0.70195 0.95376 0.0
H1594 H 0.66664 0.79819 0.93854 0.0
H1595 H 0.65393 0.80361 0.96718 0.0
H1596 H 0.68316 0.7904 0.96642 0.0
H1597 H 0.58848 0.71419 0.92752 0.0
H1598 H 0.58001 0.74412 0.93591 0.0
H1599 H 0.59525 0.73989 0.90844 0.0
H1600 H 0.57619 0.82558 0.94484 0.0
H1601 H 0.60789 0.81351 0.87656 0.0
H1602 H 0.61425 0.79193 0.98175 0.0
H1603 H 0.58999 0.77091 0.97228 0.0
H1604 H 0.58357 0.80187 0.97912 0.0
H1605 H 0.6547 0.77759 0.89893 0.0
H1606 H 0.63632 0.78338 0.87164 0.0
H1607 H 0.63047 0.75656 0.8895 0.0
C1608 C 0.2729 0.68903 0.92957 0.0
C1609 C 0.2816 0.68606 0.95375 0.0
C1610 C 0.25996 0.67 0.91679 0.0
C1611 C 0.25549 0.64751 0.92853 0.0
C1612 C 0.26436 0.64439 0.95288 0.0
C1613 C 0.27724 0.66365 0.96514 0.0
C1614 C 0.25081 0.67404 0.89087 0.0
C1615 C 0.25979 0.62085 0.96625 0.0
C1616 C 0.20084 0.60591 0.91095 0.0
C1617 C 0.21142 0.58667 0.89932 0.0
C1618 C 0.21479 0.62639 0.91934 0.0
C1619 C 0.24009 0.62771 0.91618 0.0
C1620 C 0.25072 0.60896 0.90326 0.0
C1621 C 0.23622 0.58864 0.89487 0.0
C1622 C 0.20261 0.64598 0.93282 0.0
C1623 C 0.27762 0.60972 0.89949 0.0
H1624 H 0.27642 0.70617 0.92055 0.0
H1625 H 0.2835 0.66128 0.98393 0.0
H1626 H 0.25726 0.65977 0.87883 0.0
H1627 H 0.23067 0.67261 0.88964 0.0
H1628 H 0.25687 0.69209 0.88392 0.0
H1629 H 0.26892 0.62096 0.98472 0.0
H1630 H 0.23999 0.6175 0.96807 0.0
H1631 H 0.2663 0.60546 0.95575 0.0
H1632 H 0.18162 0.60464 0.91423 0.0
H1633 H 0.24452 0.5738 0.88598 0.0
H1634 H 0.20754 0.66411 0.92538 0.0
H1635 H 0.209 0.64599 0.95227 0.0
H1636 H 0.1825 0.64335 0.93175 0.0
H1637 H 0.28366 0.62766 0.89232 0.0
H1638 H 0.28262 0.59534 0.88674 0.0
H1639 H 0.2877 0.6072 0.91721 0.0
C1640 C 0.39794 0.32566 0.93769 0.0
C1641 C 0.40531 0.34616 0.95192 0.0
C1642 C 0.41446 0.31345 0.92379 0.0
C1643 C 0.43911 0.32193 0.92373 0.0
C1644 C 0.44671 0.34254 0.93814 0.0
C1645 C 0.42984 0.35426 0.95208 0.0
C1646 C 0.40546 0.29141 0.90908 0.0
C1647 C 0.47266 0.35248 0.93853 0.0
C1648 C 0.48703 0.27902 0.90279 0.0
C1649 C 0.48977 0.28591 0.87838 0.0
C1650 C 0.47073 0.29046 0.91764 0.0
C1651 C 0.45674 0.30958 0.9082 0.0
C1652 C 0.45944 0.31675 0.88373 0.0
C1653 C 0.47567 0.30486 0.86921 0.0
C1654 C 0.46842 0.282 0.94352 0.0
C1655 C 0.44509 0.33707 0.87279 0.0
H1656 H 0.3792 0.31894 0.93762 0.0
H1657 H 0.4358 0.37015 0.96274 0.0
H1658 H 0.40797 0.29474 0.88947 0.0
H1659 H 0.41625 0.2756 0.91441 0.0
H1660 H 0.38597 0.28665 0.91153 0.0
H1661 H 0.47586 0.36838 0.95089 0.0
H1662 H 0.48518 0.33821 0.94444 0.0
H1663 H 0.47735 0.35801 0.91991 0.0
H1664 H 0.49769 0.26471 0.91052 0.0
H1665 H 0.47706 0.31049 0.85052 0.0
H1666 H 0.44933 0.27598 0.9464 0.0
H1667 H 0.47318 0.29725 0.95632 0.0
H1668 H 0.48032 0.26679 0.94818 0.0
H1669 H 0.42537 0.33229 0.87309 0.0
H1670 H 0.44962 0.34099 0.85371 0.0
H1671 H 0.44863 0.35386 0.88379 0.0
C1672 C 0.82137 0.36051 0.98168 0.0
C1673 C 0.79873 0.36701 0.98967 0.0
C1674 C 0.83537 0.37634 0.9673 0.0
C1675 C 0.82682 0.39945 0.96097 0.0
C1676 C 0.80372 0.40582 0.96826 0.0
C1677 C 0.78995 0.38954 0.98223 0.0
C1678 C 0.85977 0.36866 0.95967 0.0
C1679 C 0.79393 0.43035 0.96221 0.0
C1680 C 0.87293 0.4518 0.95328 0.0
C1681 C 0.87185 0.45549 0.92798 0.0
C1682 C 0.85867 0.4335 0.96403 0.0
C1683 C 0.84299 0.41803 0.9492 0.0
C1684 C 0.84212 0.42119 0.92357 0.0
C1685 C 0.85643 0.44002 0.91325 0.0
C1686 C 0.85999 0.43115 0.99143 0.0
C1687 C 0.82589 0.40486 0.90711 0.0
H1688 H 0.82855 0.34332 0.98712 0.0
H1689 H 0.77233 0.3948 0.9875 0.0
H1690 H 0.86168 0.3721 0.93999 0.0
H1691 H 0.87442 0.37957 0.96974 0.0
H1692 H 0.86251 0.34915 0.96332 0.0
H1693 H 0.77498 0.43195 0.96774 0.0
H1694 H 0.80555 0.44477 0.97166 0.0
H1695 H 0.79443 0.43382 0.9424 0.0
H1696 H 0.88466 0.46362 0.96496 0.0
H1697 H 0.8555 0.44263 0.89372 0.0
H1698 H 0.86502 0.41257 0.99671 0.0
H1699 H 0.84191 0.43409 0.99858 0.0
H1700 H 0.87341 0.44436 1.00036 0.0
H1701 H 0.82959 0.38557 0.9108 0.0
H1702 H 0.82841 0.4086 0.88755 0.0
H1703 H 0.8066 0.40734 0.91086 0.0
C1704 C 0.68277 0.27019 0.13098 0.0
C1705 C 0.67939 0.28588 0.11108 0.0
C1706 C 0.66288 0.25915 0.1425 0.0
C1707 C 0.63885 0.26393 0.13414 0.0
C1708 C 0.63529 0.28046 0.11474 0.0
C1709 C 0.65547 0.29109 0.10344 0.0
C1710 C 0.66761 0.24161 0.16304 0.0
C1711 C 0.61006 0.28617 0.10517 0.0
C1712 C 0.58819 0.21533 0.13925 0.0
C1713 C 0.575 0.22387 0.15845 0.0
C1714 C 0.60927 0.22778 0.13182 0.0
C1715 C 0.61753 0.24966 0.14363 0.0
C1716 C 0.60474 0.25813 0.16352 0.0
C1717 C 0.58369 0.24505 0.17081 0.0
C1718 C 0.62235 0.21776 0.1108 0.0
C1719 C 0.61284 0.28141 0.17655 0.0
H1720 H 0.701 0.26626 0.13747 0.0
H1721 H 0.65232 0.30291 0.08806 0.0
H1722 H 0.65702 0.2462 0.17889 0.0
H1723 H 0.66154 0.22298 0.1571 0.0
H1724 H 0.68715 0.24157 0.16898 0.0
H1725 H 0.61026 0.3012 0.09177 0.0
H1726 H 0.60116 0.26981 0.09623 0.0
H1727 H 0.59879 0.29119 0.12037 0.0
H1728 H 0.58186 0.19884 0.12972 0.0
H1729 H 0.57361 0.25183 0.18559 0.0
H1730 H 0.64179 0.21569 0.11618 0.0
H1731 H 0.62157 0.23063 0.09533 0.0
H1732 H 0.61436 0.19988 0.1044 0.0
H1733 H 0.63232 0.28103 0.18252 0.0
H1734 H 0.6021 0.28469 0.19267 0.0
H1735 H 0.61089 0.29691 0.16388 0.0
C1736 C 0.79852 0.58822 0.14697 0.0
C1737 C 0.79861 0.59435 0.17178 0.0
C1738 C 0.78504 0.60105 0.12923 0.0
C1739 C 0.77121 0.62071 0.13626 0.0
C1740 C 0.77182 0.62751 0.16117 0.0
C1741 C 0.78536 0.61422 0.17859 0.0
C1742 C 0.78475 0.59283 0.10301 0.0
C1743 C 0.75753 0.64839 0.16954 0.0
C1744 C 0.74502 0.66044 0.08478 0.0
C1745 C 0.72177 0.6494 0.08055 0.0
C1746 C 0.76118 0.65191 0.10337 0.0
C1747 C 0.75389 0.63194 0.11803 0.0
C1748 C 0.7301 0.6215 0.11437 0.0
C1749 C 0.71447 0.63034 0.09587 0.0
C1750 C 0.7863 0.6637 0.10678 0.0
C1751 C 0.72133 0.60027 0.12942 0.0
H1752 H 0.80836 0.57277 0.14142 0.0
H1753 H 0.78553 0.61937 0.1976 0.0
H1754 H 0.76634 0.58533 0.09728 0.0
H1755 H 0.7889 0.60845 0.09101 0.0
H1756 H 0.79802 0.57867 0.10015 0.0
H1757 H 0.76195 0.65314 0.18894 0.0
H1758 H 0.76114 0.66465 0.15823 0.0
H1759 H 0.73781 0.64354 0.16727 0.0
H1760 H 0.75088 0.67512 0.07308 0.0
H1761 H 0.69646 0.62179 0.09308 0.0
H1762 H 0.79991 0.65075 0.10143 0.0
H1763 H 0.79041 0.66837 0.12622 0.0
H1764 H 0.78845 0.68041 0.09572 0.0
H1765 H 0.73244 0.58441 0.12622 0.0
H1766 H 0.70196 0.59489 0.12502 0.0
H1767 H 0.72354 0.6048 0.14908 0.0
C1768 C 0.38442 0.81363 0.08769 0.0
C1769 C 0.38645 0.80481 0.06405 0.0
C1770 C 0.40405 0.82632 0.10006 0.0
C1771 C 0.426 0.83096 0.08818 0.0
C1772 C 0.42754 0.82332 0.06371 0.0
C1773 C 0.40795 0.80989 0.05214 0.0
C1774 C 0.40173 0.83363 0.12626 0.0
C1775 C 0.45013 0.82841 0.0499 0.0
C1776 C 0.47152 0.87667 0.11958 0.0
C1777 C 0.48742 0.8613 0.13211 0.0
C1778 C 0.45198 0.86714 0.10443 0.0
C1779 C 0.44791 0.84165 0.10216 0.0
C1780 C 0.46435 0.82611 0.11414 0.0
C1781 C 0.48395 0.83609 0.12873 0.0
C1782 C 0.43545 0.88431 0.09113 0.0
C1783 C 0.46078 0.79884 0.11226 0.0
H1784 H 0.36786 0.8095 0.09693 0.0
H1785 H 0.40945 0.80319 0.03376 0.0
H1786 H 0.41473 0.82362 0.13808 0.0
H1787 H 0.40642 0.85327 0.12876 0.0
H1788 H 0.38312 0.82977 0.13249 0.0
H1789 H 0.44576 0.82892 0.02998 0.0
H1790 H 0.45949 0.8459 0.05553 0.0
H1791 H 0.46291 0.81373 0.05354 0.0
H1792 H 0.47409 0.89615 0.12191 0.0
H1793 H 0.49606 0.82395 0.13824 0.0
H1794 H 0.41697 0.88238 0.09811 0.0
H1795 H 0.43385 0.87968 0.07145 0.0
H1796 H 0.44209 0.90355 0.09326 0.0
H1797 H 0.44285 0.79303 0.11906 0.0
H1798 H 0.47512 0.78925 0.12281 0.0
H1799 H 0.46085 0.79307 0.09295 0.0
C1800 C 0.31605 0.44488 0.09921 0.0
C1801 C 0.30254 0.43724 0.07796 0.0
C1802 C 0.30561 0.45851 0.11745 0.0
C1803 C 0.28101 0.46487 0.1145 0.0
C1804 C 0.26754 0.45787 0.09278 0.0
C1805 C 0.27837 0.44417 0.07496 0.0
C1806 C 0.32072 0.46549 0.14022 0.0
C1807 C 0.24136 0.46431 0.08859 0.0
C1808 C 0.24182 0.47396 0.16872 0.0
C1809 C 0.23947 0.49922 0.16908 0.0
C1810 C 0.25622 0.46279 0.15193 0.0
C1811 C 0.26865 0.47709 0.13472 0.0
C1812 C 0.26746 0.50275 0.13583 0.0
C1813 C 0.25297 0.51351 0.15301 0.0
C1814 C 0.25699 0.43546 0.15175 0.0
C1815 C 0.28033 0.51881 0.11795 0.0
H1816 H 0.33464 0.43962 0.10199 0.0
H1817 H 0.26772 0.43883 0.05865 0.0
H1818 H 0.31986 0.48522 0.14383 0.0
H1819 H 0.31329 0.4558 0.15605 0.0
H1820 H 0.34004 0.461 0.13898 0.0
H1821 H 0.23385 0.45899 0.07013 0.0
H1822 H 0.23015 0.45503 0.10225 0.0
H1823 H 0.23963 0.48413 0.09096 0.0
H1824 H 0.23149 0.46272 0.181 0.0
H1825 H 0.25108 0.53299 0.15283 0.0
H1826 H 0.27604 0.42985 0.15187 0.0
H1827 H 0.24754 0.42813 0.13483 0.0
H1828 H 0.24817 0.42708 0.16758 0.0
H1829 H 0.29947 0.51375 0.11684 0.0
H1830 H 0.28006 0.53833 0.1229 0.0
H1831 H 0.27139 0.51622 0.09954 0.0
C1832 C 0.91397 0.55799 0.81931 0.0
C1833 C 0.89761 0.56643 0.83576 0.0
C1834 C 0.92796 0.57427 0.80549 0.0
C1835 C 0.92558 0.5996 0.80816 0.0
C1836 C 0.90786 0.60813 0.82338 0.0
C1837 C 0.89402 0.59147 0.83686 0.0
C1838 C 0.94622 0.56444 0.78901 0.0
C1839 C 0.90464 0.63495 0.82676 0.0
C1840 C 0.98155 0.64111 0.79984 0.0
C1841 C 0.97664 0.651 0.77673 0.0
C1842 C 0.96514 0.62434 0.81013 0.0
C1843 C 0.94318 0.61719 0.79705 0.0
C1844 C 0.93806 0.62708 0.77372 0.0
C1845 C 0.95482 0.64386 0.76387 0.0
C1846 C 0.97142 0.61413 0.835 0.0
C1847 C 0.91489 0.61996 0.75918 0.0
H1848 H 0.91673 0.53871 0.81807 0.0
H1849 H 0.88135 0.59829 0.84934 0.0
H1850 H 0.94277 0.57108 0.77019 0.0
H1851 H 0.96476 0.57121 0.79514 0.0
H1852 H 0.94564 0.54429 0.78869 0.0
H1853 H 0.88839 0.63857 0.83707 0.0
H1854 H 0.9209 0.64321 0.83683 0.0
H1855 H 0.90296 0.64414 0.80888 0.0
H1856 H 0.99851 0.64605 0.80976 0.0
H1857 H 0.95077 0.65153 0.7461 0.0
H1858 H 0.97221 0.59409 0.83385 0.0
H1859 H 0.95708 0.61817 0.84763 0.0
H1860 H 0.98914 0.62165 0.84287 0.0
H1861 H 0.91361 0.60003 0.75624 0.0
H1862 H 0.91375 0.62905 0.74119 0.0
H1863 H 0.89897 0.62471 0.76943 0.0
C1864 C 0.92013 0.45407 0.24217 0.0
C1865 C 0.90245 0.46126 0.2579 0.0
C1866 C 0.93796 0.43778 0.24968 0.0
C1867 C 0.93828 0.42821 0.27356 0.0
C1868 C 0.92034 0.4351 0.28946 0.0
C1869 C 0.90271 0.45147 0.28147 0.0
C1870 C 0.95661 0.43093 0.23204 0.0
C1871 C 0.91996 0.42543 0.31508 0.0
C1872 C 0.97237 0.37039 0.28737 0.0
C1873 C 0.99419 0.37964 0.29885 0.0
C1874 C 0.9541 0.38591 0.27903 0.0
C1875 C 0.95766 0.4114 0.28206 0.0
C1876 C 0.97981 0.42085 0.29326 0.0
C1877 C 0.9977 0.40493 0.30149 0.0
C1878 C 0.93082 0.37499 0.26723 0.0
C1879 C 0.98461 0.44784 0.29667 0.0
H1880 H 0.91999 0.46106 0.2238 0.0
H1881 H 0.88941 0.45696 0.29393 0.0
H1882 H 0.9751 0.43632 0.23957 0.0
H1883 H 0.95594 0.41096 0.22941 0.0
H1884 H 0.95375 0.43967 0.21401 0.0
H1885 H 0.90446 0.43196 0.325 0.0
H1886 H 0.9188 0.40529 0.31475 0.0
H1887 H 0.9371 0.43109 0.32537 0.0
H1888 H 0.96931 0.35094 0.28541 0.0
H1889 H 1.0146 0.41236 0.30993 0.0
H1890 H 0.92778 0.38253 0.2487 0.0
H1891 H 0.91522 0.37984 0.27791 0.0
H1892 H 0.93097 0.3549 0.26582 0.0
H1893 H 0.98337 0.45708 0.27879 0.0
H1894 H 1.00279 0.45234 0.30556 0.0
H1895 H 0.97059 0.45531 0.30795 0.0
C1896 C 0.65502 0.98959 0.28939 0.0
C1897 C 0.65422 0.97806 0.31206 0.0
C1898 C 0.64283 0.979 0.26849 0.0
C1899 C 0.62946 0.95653 0.27044 0.0
C1900 C 0.63009 0.94419 0.29298 0.0
C1901 C 0.64251 0.95502 0.31336 0.0
C1902 C 0.64301 0.99262 0.24476 0.0
C1903 C 0.61615 0.92027 0.29611 0.0
C1904 C 0.57069 0.94107 0.23368 0.0
C1905 C 0.57712 0.92154 0.2193 0.0
C1906 C 0.58795 0.9537 0.24918 0.0
C1907 C 0.61246 0.947 0.25017 0.0
C1908 C 0.61948 0.92866 0.23422 0.0
C1909 C 0.60171 0.91599 0.21915 0.0
C1910 C 0.57949 0.97295 0.26591 0.0
C1911 C 0.64551 0.92143 0.23412 0.0
H1912 H 0.66389 1.00745 0.28824 0.0
H1913 H 0.64199 0.94587 0.33076 0.0
H1914 H 0.64456 0.98002 0.22923 0.0
H1915 H 0.62568 1.0019 0.24186 0.0
H1916 H 0.65817 1.00658 0.24473 0.0
H1917 H 0.6198 0.91226 0.31437 0.0
H1918 H 0.59638 0.92301 0.29363 0.0
H1919 H 0.62088 0.90704 0.28213 0.0
H1920 H 0.55183 0.9457 0.23391 0.0
H1921 H 0.60699 0.90112 0.20795 0.0
H1922 H 0.59174 0.98942 0.26566 0.0
H1923 H 0.57999 0.96606 0.28486 0.0
H1924 H 0.56067 0.97813 0.26087 0.0
H1925 H 0.65806 0.93774 0.2345 0.0
H1926 H 0.64885 0.91027 0.2179 0.0
H1927 H 0.64993 0.91069 0.25065 0.0
C1928 C 0.16232 0.61189 0.24284 0.0
C1929 C 0.15256 0.60537 0.21954 0.0
C1930 C 0.1514 0.62948 0.25701 0.0
C1931 C 0.13027 0.64087 0.24768 0.0
C1932 C 0.12088 0.63478 0.22393 0.0
C1933 C 0.13205 0.61727 0.2103 0.0
C1934 C 0.16209 0.63547 0.28218 0.0
C1935 C 0.09853 0.64634 0.21302 0.0
C1936 C 0.08373 0.66697 0.28856 0.0
C1937 C 0.08831 0.69214 0.2864 0.0
C1938 C 0.09785 0.65016 0.27694 0.0
C1939 C 0.11722 0.65851 0.26271 0.0
C1940 C 0.12235 0.68387 0.26094 0.0
C1941 C 0.10786 0.70031 0.27268 0.0
C1942 C 0.09142 0.62339 0.2792 0.0
C1943 C 0.14279 0.6937 0.24606 0.0
H1944 H 0.17807 0.60283 0.25024 0.0
H1945 H 0.12435 0.61266 0.19227 0.0
H1946 H 0.16559 0.65536 0.28418 0.0
H1947 H 0.14892 0.62983 0.29589 0.0
H1948 H 0.17932 0.62628 0.28629 0.0
H1949 H 0.09391 0.6402 0.19404 0.0
H1950 H 0.08277 0.64183 0.22418 0.0
H1951 H 0.10131 0.66638 0.21309 0.0
H1952 H 0.0686 0.66031 0.2988 0.0
H1953 H 0.11188 0.71961 0.27111 0.0
H1954 H 0.10775 0.61348 0.28509 0.0
H1955 H 0.08481 0.61595 0.26119 0.0
H1956 H 0.07713 0.61968 0.29238 0.0
H1957 H 0.15988 0.68483 0.25146 0.0
H1958 H 0.14585 0.71366 0.24816 0.0
H1959 H 0.13857 0.6895 0.22653 0.0
C1960 C 0.47563 0.1644 0.25911 0.0
C1961 C 0.46187 0.17087 0.23813 0.0
C1962 C 0.46505 0.15025 0.27755 0.0
C1963 C 0.4401 0.14262 0.27509 0.0
C1964 C 0.426 0.15017 0.25448 0.0
C1965 C 0.43701 0.16409 0.23637 0.0
C1966 C 0.48073 0.14277 0.29926 0.0
C1967 C 0.39941 0.14258 0.25091 0.0
C1968 C 0.41395 0.08467 0.30363 0.0
C1969 C 0.39999 0.09389 0.32188 0.0
C1970 C 0.42816 0.1002 0.28917 0.0
C1971 C 0.42873 0.12568 0.2931 0.0
C1972 C 0.41595 0.13493 0.31253 0.0
C1973 C 0.40164 0.11901 0.32651 0.0
C1974 C 0.44108 0.08933 0.26852 0.0
C1975 C 0.41626 0.16182 0.3177 0.0
H1976 H 0.49489 0.16929 0.26053 0.0
H1977 H 0.42622 0.16898 0.22025 0.0
H1978 H 0.47433 0.15114 0.31598 0.0
H1979 H 0.47914 0.1228 0.30165 0.0
H1980 H 0.50017 0.14831 0.29754 0.0
H1981 H 0.39069 0.15092 0.23452 0.0
H1982 H 0.39737 0.12255 0.24901 0.0
H1983 H 0.3895 0.14776 0.26704 0.0
H1984 H 0.41278 0.06537 0.29971 0.0
H1985 H 0.39109 0.12639 0.34063 0.0
H1986 H 0.45879 0.09902 0.26593 0.0
H1987 H 0.42976 0.09103 0.2514 0.0
H1988 H 0.44416 0.06978 0.27156 0.0
H1989 H 0.43513 0.1697 0.31824 0.0
H1990 H 0.40808 0.16587 0.3352 0.0
H1991 H 0.40588 0.17101 0.30286 0.0
C1992 C 0.13086 0.38178 0.7487 0.0
C1993 C 0.10566 0.38358 0.74496 0.0
C1994 C 0.14405 0.39546 0.76689 0.0
C1995 C 0.13177 0.4114 0.7817 0.0
C1996 C 0.10621 0.41275 0.77856 0.0
C1997 C 0.09346 0.39875 0.76032 0.0
C1998 C 0.17124 0.39346 0.76973 0.0
C1999 C 0.0924 0.42958 0.79392 0.0
C2000 C 0.16031 0.43295 0.84262 0.0
C2001 C 0.1682 0.45684 0.83745 0.0
C2002 C 0.1491 0.41775 0.8245 0.0
C2003 C 0.14561 0.42665 0.80055 0.0
C2004 C 0.1545 0.45041 0.79492 0.0
C2005 C 0.16579 0.46523 0.81345 0.0
C2006 C 0.14 0.39255 0.83126 0.0
C2007 C 0.15108 0.46057 0.76959 0.0
H2008 H 0.14045 0.3702 0.73688 0.0
H2009 H 0.07405 0.40054 0.75742 0.0
H2010 H 0.1804 0.41125 0.76584 0.0
H2011 H 0.17666 0.38868 0.78875 0.0
H2012 H 0.17795 0.3796 0.75735 0.0
H2013 H 0.07248 0.42792 0.78971 0.0
H2014 H 0.096 0.42568 0.81351 0.0
H2015 H 0.09869 0.44866 0.79084 0.0
H2016 H 0.16215 0.42635 0.86114 0.0
H2017 H 0.17155 0.48377 0.8094 0.0
H2018 H 0.14695 0.37888 0.81888 0.0
H2019 H 0.11988 0.39124 0.82915 0.0
H2020 H 0.14552 0.38782 0.8503 0.0
H2021 H 0.15779 0.4479 0.75603 0.0
H2022 H 0.16068 0.47856 0.76772 0.0
H2023 H 0.13145 0.46258 0.76508 0.0
C2024 C 0.61622 0.15701 0.79667 0.0
C2025 C 0.60931 0.17832 0.78463 0.0
C2026 C 0.63101 0.14018 0.78572 0.0
C2027 C 0.63937 0.14454 0.76205 0.0
C2028 C 0.63176 0.16552 0.74948 0.0
C2029 C 0.6169 0.18196 0.76078 0.0
C2030 C 0.63847 0.11812 0.79991 0.0
C2031 C 0.64006 0.17113 0.72431 0.0
C2032 C 0.70065 0.11941 0.74775 0.0
C2033 C 0.69423 0.09883 0.73324 0.0
C2034 C 0.68311 0.13433 0.75681 0.0
C2035 C 0.65808 0.12874 0.75158 0.0
C2036 C 0.65134 0.10825 0.73652 0.0
C2037 C 0.66944 0.09362 0.72744 0.0
C2038 C 0.69148 0.156 0.77239 0.0
C2039 C 0.62495 0.10143 0.73051 0.0
H2040 H 0.61072 0.15377 0.81502 0.0
H2041 H 0.61143 0.19788 0.75086 0.0
H2042 H 0.63508 0.1015 0.78864 0.0
H2043 H 0.65825 0.11972 0.80476 0.0
H2044 H 0.62862 0.1159 0.81693 0.0
H2045 H 0.63103 0.18698 0.71609 0.0
H2046 H 0.65998 0.17508 0.7252 0.0
H2047 H 0.63633 0.1552 0.71214 0.0
H2048 H 0.71967 0.12383 0.75233 0.0
H2049 H 0.66416 0.07769 0.71652 0.0
H2050 H 0.6843 0.15402 0.79079 0.0
H2051 H 0.68426 0.17281 0.76435 0.0
H2052 H 0.71159 0.15826 0.77437 0.0
H2053 H 0.61578 0.09675 0.74747 0.0
H2054 H 0.62257 0.08573 0.7178 0.0
H2055 H 0.61568 0.11708 0.72224 0.0
C2056 C 0.50504 0.9043 0.79987 0.0
C2057 C 0.50247 0.91062 0.82432 0.0
C2058 C 0.49168 0.91585 0.7808 0.0
C2059 C 0.47528 0.93405 0.78626 0.0
C2060 C 0.47202 0.93966 0.81096 0.0
C2061 C 0.48555 0.92801 0.82948 0.0
C2062 C 0.49572 0.90918 0.75478 0.0
C2063 C 0.45476 0.9587 0.81795 0.0
C2064 C 0.45913 0.98688 0.74454 0.0
C2065 C 0.43484 0.98095 0.73704 0.0
C2066 C 0.47299 0.97105 0.7591 0.0
C2067 C 0.46248 0.94852 0.7666 0.0
C2068 C 0.43847 0.94173 0.75784 0.0
C2069 C 0.42498 0.95795 0.74322 0.0
C2070 C 0.49846 0.97921 0.76778 0.0
C2071 C 0.42643 0.91795 0.76516 0.0
H2072 H 0.51806 0.891 0.7956 0.0
H2073 H 0.4831 0.93296 0.84824 0.0
H2074 H 0.47808 0.90535 0.74461 0.0
H2075 H 0.50497 0.92471 0.74572 0.0
H2076 H 0.50701 0.8931 0.75349 0.0
H2077 H 0.45335 0.96012 0.83797 0.0
H2078 H 0.46103 0.97668 0.81103 0.0
H2079 H 0.43637 0.95446 0.80951 0.0
H2080 H 0.46712 1.00447 0.73987 0.0
H2081 H 0.40628 0.95304 0.73765 0.0
H2082 H 0.51119 0.96455 0.76517 0.0
H2083 H 0.49885 0.98335 0.78754 0.0
H2084 H 0.50508 0.99569 0.75811 0.0
H2085 H 0.4389 0.9029 0.7633 0.0
H2086 H 0.40938 0.91361 0.75409 0.0
H2087 H 0.42201 0.9189 0.78457 0.0
loop_
_geom_bond_atom_site_label_1
_geom_bond_atom_site_label_2
_geom_bond_distance
_geom_bond_site_symmetry_2
_ccdc_geom_bond_type
Cu0 N1 1.999 1_545 S
Cu0 O6 1.974 . S
Cu0 N11 1.985 . S
Cu0 O20 1.959 1_545 S
N1 Cu0 1.999 1_565 S
N1 C3 1.263 . S
N1 C5 1.389 . S
N2 C3 1.358 . S
N2 C4 1.400 . S
C3 N1 1.263 . S
C3 N2 1.358 . S
C3 H9 0.930 1_565 S
C4 N2 1.400 . S
C4 C5 1.351 . S
C4 H21 0.930 . S
C5 N1 1.389 . S
C5 C4 1.351 . S
C5 H10 0.930 . S
O6 Cu0 1.974 . S
O6 C16 1.282 . S
C7 O8 1.261 . S
C7 O20 1.251 . S
O8 C7 1.261 . S
H9 C3 0.930 1_545 S
H10 C5 0.930 . S
N11 Cu0 1.985 . S
N11 C13 1.335 . S
N11 C14 1.390 . S
N12 C13 1.345 . S
N12 C15 1.336 . S
C13 N11 1.335 . S
C13 N12 1.345 . S
C13 H18 0.930 . S
C14 N11 1.390 . S
C14 C15 1.346 . S
C14 H19 0.930 . S
C15 N12 1.336 . S
C15 C14 1.346 . S
C15 H22 0.929 . S
C16 O6 1.282 . S
C16 O17 1.216 . S
O17 C16 1.216 . S
H18 C13 0.930 . S
H19 C14 0.930 . S
O20 Cu0 1.959 1_565 S
O20 C7 1.251 . S
H21 C4 0.930 . S
H22 C15 0.929 . S
Cu23 N24 1.999 . S
Cu23 O29 1.974 1_455 S
Cu23 N34 1.985 1_455 S
Cu23 O43 1.959 . S
N24 Cu23 1.999 . S
N24 C26 1.263 . S
N24 C28 1.389 . S
N25 C26 1.358 . S
N25 C27 1.400 . S
C26 N24 1.263 . S
C26 N25 1.358 . S
C26 H32 0.930 . S
C27 N25 1.400 . S
C27 C28 1.351 . S
C27 H44 0.930 . S
C28 N24 1.389 . S
C28 C27 1.351 . S
C28 H33 0.930 . S
O29 Cu23 1.974 1_655 S
O29 C39 1.282 . S
C30 O31 1.261 . S
C30 O43 1.251 . S
O31 C30 1.261 . S
H32 C26 0.930 . S
H33 C28 0.930 . S
N34 Cu23 1.985 1_655 S
N34 C36 1.335 . S
N34 C37 1.390 . S
N35 C36 1.345 . S
N35 C38 1.336 . S
C36 N34 1.335 . S
C36 N35 1.345 . S
C36 H41 0.899 1_655 S
C37 N34 1.390 . S
C37 C38 1.346 . S
C37 H42 0.930 . S
C38 N35 1.336 . S
C38 C37 1.346 . S
C38 H45 0.929 . S
C39 O29 1.282 . S
C39 O40 1.216 . S
O40 C39 1.216 . S
H41 C36 0.899 1_455 S
H42 C37 0.930 . S
O43 Cu23 1.959 . S
O43 C30 1.251 . S
H44 C27 0.930 . S
H45 C38 0.929 . S
Cu46 N47 1.999 . S
Cu46 O52 1.974 1_545 S
Cu46 N57 1.985 1_545 S
Cu46 O66 1.959 . S
N47 Cu46 1.999 . S
N47 C49 1.263 . S
N47 C51 1.389 . S
N48 C49 1.358 . S
N48 C50 1.400 . S
C49 N47 1.263 . S
C49 N48 1.358 . S
C49 H55 0.930 . S
C50 N48 1.400 . S
C50 C51 1.351 . S
C50 H67 0.930 . S
C51 N47 1.389 . S
C51 C50 1.351 . S
C51 H56 0.930 . S
O52 Cu46 1.974 1_565 S
O52 C62 1.282 . S
C53 O54 1.261 . S
C53 O66 1.251 . S
O54 C53 1.261 . S
H55 C49 0.930 . S
H56 C51 0.930 . S
N57 Cu46 1.985 1_565 S
N57 C59 1.335 . S
N57 C60 1.390 . S
N58 C59 1.345 . S
N58 C61 1.336 . S
C59 N57 1.335 . S
C59 N58 1.345 . S
C59 H64 0.930 . S
C60 N57 1.390 . S
C60 C61 1.346 . S
C60 H65 0.930 . S
C61 N58 1.336 . S
C61 C60 1.346 . S
C61 H68 0.929 . S
C62 O52 1.282 . S
C62 O63 1.216 . S
O63 C62 1.216 . S
H64 C59 0.930 . S
H65 C60 0.930 . S
O66 Cu46 1.959 . S
O66 C53 1.251 . S
H67 C50 0.930 . S
H68 C61 0.929 . S
Cu69 N70 1.999 . S
Cu69 O75 1.974 1_455 S
Cu69 N80 1.985 1_455 S
Cu69 O89 1.959 . S
N70 Cu69 1.999 . S
N70 C72 1.263 . S
N70 C74 1.389 . S
N71 C72 1.358 . S
N71 C73 1.400 . S
C72 N70 1.263 . S
C72 N71 1.358 . S
C72 H78 0.930 . S
C73 N71 1.400 . S
C73 C74 1.351 . S
C73 H90 0.930 . S
C74 N70 1.389 . S
C74 C73 1.351 . S
C74 H79 0.930 . S
O75 Cu69 1.974 1_655 S
O75 C85 1.282 . S
C76 O77 1.261 . S
C76 O89 1.251 . S
O77 C76 1.261 . S
H78 C72 0.930 . S
H79 C74 0.930 . S
N80 Cu69 1.985 1_655 S
N80 C82 1.335 . S
N80 C83 1.390 . S
N81 C82 1.345 . S
N81 C84 1.336 . S
C82 N80 1.335 . S
C82 N81 1.345 . S
C82 H87 0.930 . S
C83 N80 1.390 . S
C83 C84 1.346 . S
C83 H88 0.930 . S
C84 N81 1.336 . S
C84 C83 1.346 . S
C84 H91 0.929 . S
C85 O75 1.282 . S
C85 O86 1.216 . S
O86 C85 1.216 . S
H87 C82 0.930 . S
H88 C83 0.930 . S
O89 Cu69 1.959 . S
O89 C76 1.251 . S
H90 C73 0.930 . S
H91 C84 0.929 . S
Cu92 N93 1.999 . S
Cu92 O98 1.974 1_545 S
Cu92 N103 1.985 1_545 S
Cu92 O112 1.959 . S
N93 Cu92 1.999 . S
N93 C95 1.263 . S
N93 C97 1.389 . S
N94 C95 1.358 . S
N94 C96 1.400 . S
C95 N93 1.263 . S
C95 N94 1.358 . S
C95 H101 0.930 . S
C96 N94 1.400 . S
C96 C97 1.351 . S
C96 H113 0.930 . S
C97 N93 1.389 . S
C97 C96 1.351 . S
C97 H102 0.930 . S
O98 Cu92 1.974 1_565 S
O98 C108 1.282 . S
C99 O100 1.261 . S
C99 O112 1.251 . S
O100 C99 1.261 . S
H101 C95 0.930 . S
H102 C97 0.930 . S
N103 Cu92 1.985 1_565 S
N103 C105 1.335 . S
N103 C106 1.390 . S
N104 C105 1.345 . S
N104 C107 1.336 . S
C105 N103 1.335 . S
C105 N104 1.345 . S
C105 H110 0.930 . S
C106 N103 1.390 . S
C106 C107 1.346 . S
C106 H111 0.930 . S
C107 N104 1.336 . S
C107 C106 1.346 . S
C107 H114 0.929 . S
C108 O98 1.282 . S
C108 O109 1.216 . S
O109 C108 1.216 . S
H110 C105 0.930 . S
H111 C106 0.930 . S
O112 Cu92 1.959 . S
O112 C99 1.251 . S
H113 C96 0.930 . S
H114 C107 0.929 . S
Cu115 N116 1.999 . S
Cu115 O121 1.974 1_455 S
Cu115 N126 1.985 1_455 S
Cu115 O135 1.959 . S
N116 Cu115 1.999 . S
N116 C118 1.263 . S
N116 C120 1.389 . S
N117 C118 1.358 . S
N117 C119 1.400 . S
C118 N116 1.263 . S
C118 N117 1.358 . S
C118 H124 0.930 . S
C119 N117 1.400 . S
C119 C120 1.351 . S
C119 H136 0.930 . S
C120 N116 1.389 . S
C120 C119 1.351 . S
C120 H125 0.930 . S
O121 Cu115 1.974 1_655 S
O121 C131 1.282 . S
C122 O123 1.261 . S
C122 O135 1.251 . S
O123 C122 1.261 . S
H124 C118 0.930 . S
H125 C120 0.930 . S
N126 Cu115 1.985 1_655 S
N126 C128 1.335 . S
N126 C129 1.390 . S
N127 C128 1.345 . S
N127 C130 1.336 . S
C128 N126 1.335 . S
C128 N127 1.345 . S
C128 H133 0.930 1_655 S
C129 N126 1.390 . S
C129 C130 1.346 . S
C129 H134 0.930 . S
C130 N127 1.336 . S
C130 C129 1.346 . S
C130 H137 0.929 . S
C131 O121 1.282 . S
C131 O132 1.216 . S
O132 C131 1.216 . S
H133 C128 0.930 1_455 S
H134 C129 0.930 . S
O135 Cu115 1.959 . S
O135 C122 1.251 . S
H136 C119 0.930 . S
H137 C130 0.929 . S
Cu138 N139 1.999 1_545 S
Cu138 O144 1.974 . S
Cu138 N149 1.985 . S
Cu138 O158 1.959 1_545 S
N139 Cu138 1.999 1_565 S
N139 C141 1.263 . S
N139 C143 1.389 . S
N140 C141 1.358 . S
N140 C142 1.400 . S
C141 N139 1.263 . S
C141 N140 1.358 . S
C141 H147 0.930 . S
C142 N140 1.400 . S
C142 C143 1.351 . S
C142 H159 0.930 . S
C143 N139 1.389 . S
C143 C142 1.351 . S
C143 H148 0.930 . S
O144 Cu138 1.974 . S
O144 C154 1.282 . S
C145 O146 1.261 . S
C145 O158 1.251 . S
O146 C145 1.261 . S
H147 C141 0.930 . S
H148 C143 0.930 . S
N149 Cu138 1.985 . S
N149 C151 1.335 . S
N149 C152 1.390 . S
N150 C151 1.345 . S
N150 C153 1.336 . S
C151 N149 1.335 . S
C151 N150 1.345 . S
C151 H156 0.930 . S
C152 N149 1.390 . S
C152 C153 1.346 . S
C152 H157 0.930 . S
C153 N150 1.336 . S
C153 C152 1.346 . S
C153 H160 0.929 . S
C154 O144 1.282 . S
C154 O155 1.216 . S
O155 C154 1.216 . S
H156 C151 0.930 . S
H157 C152 0.930 . S
O158 Cu138 1.959 1_565 S
O158 C145 1.251 . S
H159 C142 0.930 . S
H160 C153 0.929 . S
Cu161 N162 2.003 . S
Cu161 O167 1.971 1_455 S
Cu161 N172 1.981 1_455 S
Cu161 O181 1.962 . S
N162 Cu161 2.003 . S
N162 C164 1.263 . S
N162 C166 1.389 . S
N163 C164 1.358 . S
N163 C165 1.400 . S
C164 N162 1.263 . S
C164 N163 1.358 . S
C164 H170 0.930 . S
C165 N163 1.400 . S
C165 C166 1.351 . S
C165 H182 0.930 . S
C166 N162 1.389 . S
C166 C165 1.351 . S
C166 H171 0.930 . S
O167 Cu161 1.971 1_655 S
O167 C177 1.282 . S
C168 O169 1.261 . S
C168 O181 1.251 . S
O169 C168 1.261 . S
H170 C164 0.930 . S
H171 C166 0.930 . S
N172 Cu161 1.981 1_655 S
N172 C174 1.335 . S
N172 C175 1.390 . S
N173 C174 1.345 . S
N173 C176 1.336 . S
C174 N172 1.335 . S
C174 N173 1.345 . S
C174 H179 0.930 . S
C175 N172 1.390 . S
C175 C176 1.346 . S
C175 H180 0.930 . S
C176 N173 1.336 . S
C176 C175 1.346 . S
C176 H183 0.929 . S
C177 O167 1.282 . S
C177 O178 1.216 . S
O178 C177 1.216 . S
H179 C174 0.930 . S
H180 C175 0.930 . S
O181 Cu161 1.962 . S
O181 C168 1.251 . S
H182 C165 0.930 . S
H183 C176 0.929 . S
Cu184 N185 1.999 . S
Cu184 O190 1.974 1_554 S
Cu184 N195 1.985 1_554 S
Cu184 O204 1.959 . S
N185 Cu184 1.999 . S
N185 C187 1.263 . S
N185 C189 1.389 . S
N186 C187 1.358 . S
N186 C188 1.400 . S
C187 N185 1.263 . S
C187 N186 1.358 . S
C187 H193 0.930 . S
C188 N186 1.400 . S
C188 C189 1.351 . S
C188 H205 0.930 . S
C189 N185 1.389 . S
C189 C188 1.351 . S
C189 H194 0.930 . S
O190 Cu184 1.974 1_556 S
O190 C200 1.282 . S
C191 O192 1.261 . S
C191 O204 1.251 . S
O192 C191 1.261 . S
H193 C187 0.930 . S
H194 C189 0.930 . S
N195 Cu184 1.985 1_556 S
N195 C197 1.335 . S
N195 C198 1.390 . S
N196 C197 1.345 . S
N196 C199 1.336 . S
C197 N195 1.335 . S
C197 N196 1.345 . S
C197 H202 0.919 1_556 S
C198 N195 1.390 . S
C198 C199 1.346 . S
C198 H203 0.930 . S
C199 N196 1.336 . S
C199 C198 1.346 . S
C199 H206 0.929 . S
C200 O190 1.282 . S
C200 O201 1.216 . S
O201 C200 1.216 . S
H202 C197 0.919 1_554 S
H203 C198 0.930 . S
O204 Cu184 1.959 . S
O204 C191 1.251 . S
H205 C188 0.930 . S
H206 C199 0.929 . S
Cu207 N208 1.999 1_554 S
Cu207 O213 1.974 . S
Cu207 N218 1.985 . S
Cu207 O227 1.959 1_554 S
N208 Cu207 1.999 1_556 S
N208 C210 1.263 . S
N208 C212 1.389 . S
N209 C210 1.358 . S
N209 C211 1.400 . S
C210 N208 1.263 . S
C210 N209 1.358 . S
C210 H216 0.930 . S
C211 N209 1.400 . S
C211 C212 1.351 . S
C211 H228 0.930 . S
C212 N208 1.389 . S
C212 C211 1.351 . S
C212 H217 0.930 . S
O213 Cu207 1.974 . S
O213 C223 1.282 . S
C214 O215 1.261 . S
C214 O227 1.251 . S
O215 C214 1.261 . S
H216 C210 0.930 . S
H217 C212 0.930 . S
N218 Cu207 1.985 . S
N218 C220 1.335 . S
N218 C221 1.390 . S
N219 C220 1.345 . S
N219 C222 1.336 . S
C220 N218 1.335 . S
C220 N219 1.345 . S
C220 H225 0.930 . S
C221 N218 1.390 . S
C221 C222 1.346 . S
C221 H226 0.930 . S
C222 N219 1.336 . S
C222 C221 1.346 . S
C222 H229 0.929 . S
C223 O213 1.282 . S
C223 O224 1.216 . S
O224 C223 1.216 . S
H225 C220 0.930 . S
H226 C221 0.930 . S
O227 Cu207 1.959 1_556 S
O227 C214 1.251 . S
H228 C211 0.930 . S
H229 C222 0.929 . S
Cu230 N231 1.990 1_556 S
Cu230 O236 1.981 . S
Cu230 N241 1.994 . S
Cu230 O250 1.952 1_556 S
N231 Cu230 1.990 1_554 S
N231 C233 1.263 . S
N231 C235 1.389 . S
N232 C233 1.358 . S
N232 C234 1.400 . S
C233 N231 1.263 . S
C233 N232 1.358 . S
C233 H239 0.930 . S
C234 N232 1.400 . S
C234 C235 1.351 . S
C234 H251 0.930 . S
C235 N231 1.389 . S
C235 C234 1.351 . S
C235 H240 0.930 . S
O236 Cu230 1.981 . S
O236 C246 1.282 . S
C237 O238 1.261 . S
C237 O250 1.251 . S
O238 C237 1.261 . S
H239 C233 0.930 . S
H240 C235 0.930 . S
N241 Cu230 1.994 . S
N241 C243 1.335 . S
N241 C244 1.390 . S
N242 C243 1.345 . S
N242 C245 1.336 . S
C243 N241 1.335 . S
C243 N242 1.345 . S
C243 H248 0.930 . S
C244 N241 1.390 . S
C244 C245 1.346 . S
C244 H249 0.930 . S
C245 N242 1.336 . S
C245 C244 1.346 . S
C245 H252 0.929 . S
C246 O236 1.282 . S
C246 O247 1.216 . S
O247 C246 1.216 . S
H248 C243 0.930 . S
H249 C244 0.930 . S
O250 Cu230 1.952 1_554 S
O250 C237 1.251 . S
H251 C234 0.930 . S
H252 C245 0.929 . S
Cu253 N254 1.999 1_554 S
Cu253 O259 1.974 . S
Cu253 N264 1.985 . S
Cu253 O273 1.959 1_554 S
N254 Cu253 1.999 1_556 S
N254 C256 1.263 . S
N254 C258 1.389 . S
N255 C256 1.358 . S
N255 C257 1.400 . S
C256 N254 1.263 . S
C256 N255 1.358 . S
C256 H262 0.930 . S
C257 N255 1.400 . S
C257 C258 1.351 . S
C257 H274 0.930 . S
C258 N254 1.389 . S
C258 C257 1.351 . S
C258 H263 0.930 . S
O259 Cu253 1.974 . S
O259 C269 1.282 . S
C260 O261 1.261 . S
C260 O273 1.251 . S
O261 C260 1.261 . S
H262 C256 0.930 . S
H263 C258 0.930 . S
N264 Cu253 1.985 . S
N264 C266 1.335 . S
N264 C267 1.390 . S
N265 C266 1.345 . S
N265 C268 1.336 . S
C266 N264 1.335 . S
C266 N265 1.345 . S
C266 H271 0.930 . S
C267 N264 1.390 . S
C267 C268 1.346 . S
C267 H272 0.930 . S
C268 N265 1.336 . S
C268 C267 1.346 . S
C268 H275 0.929 . S
C269 O259 1.282 . S
C269 O270 1.216 . S
O270 C269 1.216 . S
H271 C266 0.930 . S
H272 C267 0.930 . S
O273 Cu253 1.959 1_556 S
O273 C260 1.251 . S
H274 C257 0.930 . S
H275 C268 0.929 . S
Cu276 N277 1.999 . S
Cu276 O282 1.974 . S
Cu276 N287 1.985 . S
Cu276 O296 1.959 . S
N277 Cu276 1.999 . S
N277 C279 1.263 . S
N277 C281 1.389 . S
N278 C279 1.358 . S
N278 C280 1.400 . S
C279 N277 1.263 . S
C279 N278 1.358 . S
C279 H285 0.930 . S
C280 N278 1.400 . S
C280 C281 1.351 . S
C280 H297 0.930 . S
C281 N277 1.389 . S
C281 C280 1.351 . S
C281 H286 0.930 . S
O282 Cu276 1.974 . S
O282 C292 1.282 . S
C283 O284 1.261 . S
C283 O296 1.251 . S
O284 C283 1.261 . S
H285 C279 0.930 . S
H286 C281 0.930 . S
N287 Cu276 1.985 . S
N287 C289 1.335 . S
N287 C290 1.390 . S
N288 C289 1.345 . S
N288 C291 1.336 . S
C289 N287 1.335 . S
C289 N288 1.345 . S
C289 H294 0.930 . S
C290 N287 1.390 . S
C290 C291 1.346 . S
C290 H295 0.930 . S
C291 N288 1.336 . S
C291 C290 1.346 . S
C291 H298 0.929 . S
C292 O282 1.282 . S
C292 O293 1.216 . S
O293 C292 1.216 . S
H294 C289 0.930 . S
H295 C290 0.930 . S
O296 Cu276 1.959 . S
O296 C283 1.251 . S
H297 C280 0.930 . S
H298 C291 0.929 . S
Cu299 N300 1.999 . S
Cu299 O305 1.974 . S
Cu299 N310 1.985 . S
Cu299 O319 1.959 . S
N300 Cu299 1.999 . S
N300 C302 1.263 . S
N300 C304 1.389 . S
N301 C302 1.358 . S
N301 C303 1.400 . S
C302 N300 1.263 . S
C302 N301 1.358 . S
C302 H308 0.930 . S
C303 N301 1.400 . S
C303 C304 1.351 . S
C303 H320 0.930 . S
C304 N300 1.389 . S
C304 C303 1.351 . S
C304 H309 0.930 . S
O305 Cu299 1.974 . S
O305 C315 1.282 . S
C306 O307 1.261 . S
C306 O319 1.251 . S
O307 C306 1.261 . S
H308 C302 0.930 . S
H309 C304 0.930 . S
N310 Cu299 1.985 . S
N310 C312 1.335 . S
N310 C313 1.390 . S
N311 C312 1.345 . S
N311 C314 1.336 . S
C312 N310 1.335 . S
C312 N311 1.345 . S
C312 H317 0.930 . S
C313 N310 1.390 . S
C313 C314 1.346 . S
C313 H318 0.930 . S
C314 N311 1.336 . S
C314 C313 1.346 . S
C314 H321 0.929 . S
C315 O305 1.282 . S
C315 O316 1.216 . S
O316 C315 1.216 . S
H317 C312 0.930 . S
H318 C313 0.930 . S
O319 Cu299 1.959 . S
O319 C306 1.251 . S
H320 C303 0.930 . S
H321 C314 0.929 . S
Cu322 N323 1.999 . S
Cu322 O328 1.974 . S
Cu322 N333 1.985 . S
Cu322 O342 1.959 . S
N323 Cu322 1.999 . S
N323 C325 1.263 . S
N323 C327 1.389 . S
N324 C325 1.358 . S
N324 C326 1.400 . S
C325 N323 1.263 . S
C325 N324 1.358 . S
C325 H331 0.930 . S
C326 N324 1.400 . S
C326 C327 1.351 . S
C326 H343 0.930 . S
C327 N323 1.389 . S
C327 C326 1.351 . S
C327 H332 0.930 . S
O328 Cu322 1.974 . S
O328 C338 1.282 . S
C329 O330 1.261 . S
C329 O342 1.251 . S
O330 C329 1.261 . S
H331 C325 0.930 . S
H332 C327 0.930 . S
N333 Cu322 1.985 . S
N333 C335 1.335 . S
N333 C336 1.390 . S
N334 C335 1.345 . S
N334 C337 1.336 . S
C335 N333 1.335 . S
C335 N334 1.345 . S
C335 H340 0.930 . S
C336 N333 1.390 . S
C336 C337 1.346 . S
C336 H341 0.930 . S
C337 N334 1.336 . S
C337 C336 1.346 . S
C337 H344 0.929 . S
C338 O328 1.282 . S
C338 O339 1.216 . S
O339 C338 1.216 . S
H340 C335 0.930 . S
H341 C336 0.930 . S
O342 Cu322 1.959 . S
O342 C329 1.251 . S
H343 C326 0.930 . S
H344 C337 0.929 . S
Cu345 N346 1.999 . S
Cu345 O351 1.974 . S
Cu345 N356 1.985 . S
Cu345 O365 1.959 . S
N346 Cu345 1.999 . S
N346 C348 1.263 . S
N346 C350 1.389 . S
N347 C348 1.358 . S
N347 C349 1.400 . S
C348 N346 1.263 . S
C348 N347 1.358 . S
C348 H354 0.930 . S
C349 N347 1.400 . S
C349 C350 1.351 . S
C349 H366 0.930 . S
C350 N346 1.389 . S
C350 C349 1.351 . S
C350 H355 0.930 . S
O351 Cu345 1.974 . S
O351 C361 1.282 . S
C352 O353 1.261 . S
C352 O365 1.251 . S
O353 C352 1.261 . S
H354 C348 0.930 . S
H355 C350 0.930 . S
N356 Cu345 1.985 . S
N356 C358 1.335 . S
N356 C359 1.390 . S
N357 C358 1.345 . S
N357 C360 1.336 . S
C358 N356 1.335 . S
C358 N357 1.345 . S
C358 H363 0.930 . S
C359 N356 1.390 . S
C359 C360 1.346 . S
C359 H364 0.930 . S
C360 N357 1.336 . S
C360 C359 1.346 . S
C360 H367 0.929 . S
C361 O351 1.282 . S
C361 O362 1.216 . S
O362 C361 1.216 . S
H363 C358 0.930 . S
H364 C359 0.930 . S
O365 Cu345 1.959 . S
O365 C352 1.251 . S
H366 C349 0.930 . S
H367 C360 0.929 . S
Cu368 N369 1.999 . S
Cu368 O374 1.974 . S
Cu368 N379 1.985 . S
Cu368 O388 1.959 . S
N369 Cu368 1.999 . S
N369 C371 1.263 . S
N369 C373 1.389 . S
N370 C371 1.358 . S
N370 C372 1.400 . S
C371 N369 1.263 . S
C371 N370 1.358 . S
C371 H377 0.930 . S
C372 N370 1.400 . S
C372 C373 1.351 . S
C372 H389 0.930 . S
C373 N369 1.389 . S
C373 C372 1.351 . S
C373 H378 0.930 . S
O374 Cu368 1.974 . S
O374 C384 1.282 . S
C375 O376 1.261 . S
C375 O388 1.251 . S
O376 C375 1.261 . S
H377 C371 0.930 . S
H378 C373 0.930 . S
N379 Cu368 1.985 . S
N379 C381 1.335 . S
N379 C382 1.390 . S
N380 C381 1.345 . S
N380 C383 1.336 . S
C381 N379 1.335 . S
C381 N380 1.345 . S
C381 H386 0.930 . S
C382 N379 1.390 . S
C382 C383 1.346 . S
C382 H387 0.930 . S
C383 N380 1.336 . S
C383 C382 1.346 . S
C383 H390 0.929 . S
C384 O374 1.282 . S
C384 O385 1.216 . S
O385 C384 1.216 . S
H386 C381 0.930 . S
H387 C382 0.930 . S
O388 Cu368 1.959 . S
O388 C375 1.251 . S
H389 C372 0.930 . S
H390 C383 0.929 . S
Cu391 N392 1.999 . S
Cu391 O397 1.974 . S
Cu391 N402 1.985 . S
Cu391 O411 1.959 . S
N392 Cu391 1.999 . S
N392 C394 1.263 . S
N392 C396 1.389 . S
N393 C394 1.358 . S
N393 C395 1.400 . S
C394 N392 1.263 . S
C394 N393 1.358 . S
C394 H400 0.930 . S
C395 N393 1.400 . S
C395 C396 1.351 . S
C395 H412 0.930 . S
C396 N392 1.389 . S
C396 C395 1.351 . S
C396 H401 0.930 . S
O397 Cu391 1.974 . S
O397 C407 1.282 . S
C398 O399 1.261 . S
C398 O411 1.251 . S
O399 C398 1.261 . S
H400 C394 0.930 . S
H401 C396 0.930 . S
N402 Cu391 1.985 . S
N402 C404 1.335 . S
N402 C405 1.390 . S
N403 C404 1.345 . S
N403 C406 1.336 . S
C404 N402 1.335 . S
C404 N403 1.345 . S
C404 H409 0.930 . S
C405 N402 1.390 . S
C405 C406 1.346 . S
C405 H410 0.930 . S
C406 N403 1.336 . S
C406 C405 1.346 . S
C406 H413 0.929 . S
C407 O397 1.282 . S
C407 O408 1.216 . S
O408 C407 1.216 . S
H409 C404 0.930 . S
H410 C405 0.930 . S
O411 Cu391 1.959 . S
O411 C398 1.251 . S
H412 C395 0.930 . S
H413 C406 0.929 . S
Cu414 N415 1.999 . S
Cu414 O420 1.974 . S
Cu414 N425 1.985 . S
Cu414 O434 1.959 . S
N415 Cu414 1.999 . S
N415 C417 1.263 . S
N415 C419 1.389 . S
N416 C417 1.358 . S
N416 C418 1.400 . S
C417 N415 1.263 . S
C417 N416 1.358 . S
C417 H423 0.930 . S
C418 N416 1.400 . S
C418 C419 1.351 . S
C418 H435 0.930 . S
C419 N415 1.389 . S
C419 C418 1.351 . S
C419 H424 0.930 . S
O420 Cu414 1.974 . S
O420 C430 1.282 . S
C421 O422 1.261 . S
C421 O434 1.251 . S
O422 C421 1.261 . S
H423 C417 0.930 . S
H424 C419 0.930 . S
N425 Cu414 1.985 . S
N425 C427 1.335 . S
N425 C428 1.390 . S
N426 C427 1.345 . S
N426 C429 1.336 . S
C427 N425 1.335 . S
C427 N426 1.345 . S
C427 H432 0.930 . S
C428 N425 1.390 . S
C428 C429 1.346 . S
C428 H433 0.930 . S
C429 N426 1.336 . S
C429 C428 1.346 . S
C429 H436 0.929 . S
C430 O420 1.282 . S
C430 O431 1.216 . S
O431 C430 1.216 . S
H432 C427 0.930 . S
H433 C428 0.930 . S
O434 Cu414 1.959 . S
O434 C421 1.251 . S
H435 C418 0.930 . S
H436 C429 0.929 . S
Cu437 N438 1.999 . S
Cu437 O443 1.974 . S
Cu437 N448 1.985 . S
Cu437 O457 1.959 . S
N438 Cu437 1.999 . S
N438 C440 1.263 . S
N438 C442 1.389 . S
N439 C440 1.358 . S
N439 C441 1.400 . S
C440 N438 1.263 . S
C440 N439 1.358 . S
C440 H446 0.930 . S
C441 N439 1.400 . S
C441 C442 1.351 . S
C441 H458 0.930 . S
C442 N438 1.389 . S
C442 C441 1.351 . S
C442 H447 0.930 . S
O443 Cu437 1.974 . S
O443 C453 1.282 . S
C444 O445 1.261 . S
C444 O457 1.251 . S
O445 C444 1.261 . S
H446 C440 0.930 . S
H447 C442 0.930 . S
N448 Cu437 1.985 . S
N448 C450 1.335 . S
N448 C451 1.390 . S
N449 C450 1.345 . S
N449 C452 1.336 . S
C450 N448 1.335 . S
C450 N449 1.345 . S
C450 H455 0.930 . S
C451 N448 1.390 . S
C451 C452 1.346 . S
C451 H456 0.930 . S
C452 N449 1.336 . S
C452 C451 1.346 . S
C452 H459 0.929 . S
C453 O443 1.282 . S
C453 O454 1.216 . S
O454 C453 1.216 . S
H455 C450 0.930 . S
H456 C451 0.930 . S
O457 Cu437 1.959 . S
O457 C444 1.251 . S
H458 C441 0.930 . S
H459 C452 0.929 . S
Cu460 N461 1.999 . S
Cu460 O466 1.974 . S
Cu460 N471 1.985 . S
Cu460 O480 1.959 . S
N461 Cu460 1.999 . S
N461 C463 1.263 . S
N461 C465 1.389 . S
N462 C463 1.358 . S
N462 C464 1.400 . S
C463 N461 1.263 . S
C463 N462 1.358 . S
C463 H469 0.930 . S
C464 N462 1.400 . S
C464 C465 1.351 . S
C464 H481 0.930 . S
C465 N461 1.389 . S
C465 C464 1.351 . S
C465 H470 0.930 . S
O466 Cu460 1.974 . S
O466 C476 1.282 . S
C467 O468 1.261 . S
C467 O480 1.251 . S
O468 C467 1.261 . S
H469 C463 0.930 . S
H470 C465 0.930 . S
N471 Cu460 1.985 . S
N471 C473 1.335 . S
N471 C474 1.390 . S
N472 C473 1.345 . S
N472 C475 1.336 . S
C473 N471 1.335 . S
C473 N472 1.345 . S
C473 H478 0.930 . S
C474 N471 1.390 . S
C474 C475 1.346 . S
C474 H479 0.930 . S
C475 N472 1.336 . S
C475 C474 1.346 . S
C475 H482 0.929 . S
C476 O466 1.282 . S
C476 O477 1.216 . S
O477 C476 1.216 . S
H478 C473 0.930 . S
H479 C474 0.930 . S
O480 Cu460 1.959 . S
O480 C467 1.251 . S
H481 C464 0.930 . S
H482 C475 0.929 . S
Cu483 N484 1.999 . S
Cu483 O489 1.974 . S
Cu483 N494 1.985 . S
Cu483 O503 1.959 . S
N484 Cu483 1.999 . S
N484 C486 1.263 . S
N484 C488 1.389 . S
N485 C486 1.358 . S
N485 C487 1.400 . S
C486 N484 1.263 . S
C486 N485 1.358 . S
C486 H492 0.930 . S
C487 N485 1.400 . S
C487 C488 1.351 . S
C487 H504 0.930 . S
C488 N484 1.389 . S
C488 C487 1.351 . S
C488 H493 0.930 . S
O489 Cu483 1.974 . S
O489 C499 1.282 . S
C490 O491 1.261 . S
C490 O503 1.251 . S
O491 C490 1.261 . S
H492 C486 0.930 . S
H493 C488 0.930 . S
N494 Cu483 1.985 . S
N494 C496 1.335 . S
N494 C497 1.390 . S
N495 C496 1.345 . S
N495 C498 1.336 . S
C496 N494 1.335 . S
C496 N495 1.345 . S
C496 H501 0.930 . S
C497 N494 1.390 . S
C497 C498 1.346 . S
C497 H502 0.930 . S
C498 N495 1.336 . S
C498 C497 1.346 . S
C498 H505 0.929 . S
C499 O489 1.282 . S
C499 O500 1.216 . S
O500 C499 1.216 . S
H501 C496 0.930 . S
H502 C497 0.930 . S
O503 Cu483 1.959 . S
O503 C490 1.251 . S
H504 C487 0.930 . S
H505 C498 0.929 . S
Cu506 N507 1.999 . S
Cu506 O512 1.974 . S
Cu506 N517 1.985 . S
Cu506 O526 1.959 . S
N507 Cu506 1.999 . S
N507 C509 1.263 . S
N507 C511 1.389 . S
N508 C509 1.358 . S
N508 C510 1.400 . S
C509 N507 1.263 . S
C509 N508 1.358 . S
C509 H515 0.930 . S
C510 N508 1.400 . S
C510 C511 1.351 . S
C510 H527 0.930 . S
C511 N507 1.389 . S
C511 C510 1.351 . S
C511 H516 0.930 . S
O512 Cu506 1.974 . S
O512 C522 1.282 . S
C513 O514 1.261 . S
C513 O526 1.251 . S
O514 C513 1.261 . S
H515 C509 0.930 . S
H516 C511 0.930 . S
N517 Cu506 1.985 . S
N517 C519 1.335 . S
N517 C520 1.390 . S
N518 C519 1.345 . S
N518 C521 1.336 . S
C519 N517 1.335 . S
C519 N518 1.345 . S
C519 H524 0.930 . S
C520 N517 1.390 . S
C520 C521 1.346 . S
C520 H525 0.930 . S
C521 N518 1.336 . S
C521 C520 1.346 . S
C521 H528 0.929 . S
C522 O512 1.282 . S
C522 O523 1.216 . S
O523 C522 1.216 . S
H524 C519 0.930 . S
H525 C520 0.930 . S
O526 Cu506 1.959 . S
O526 C513 1.251 . S
H527 C510 0.930 . S
H528 C521 0.929 . S
Cu529 N530 1.999 . S
Cu529 O535 1.974 . S
Cu529 N540 1.985 . S
Cu529 O549 1.959 . S
N530 Cu529 1.999 . S
N530 C532 1.263 . S
N530 C534 1.389 . S
N531 C532 1.358 . S
N531 C533 1.400 . S
C532 N530 1.263 . S
C532 N531 1.358 . S
C532 H538 0.930 . S
C533 N531 1.400 . S
C533 C534 1.351 . S
C533 H550 0.930 . S
C534 N530 1.389 . S
C534 C533 1.351 . S
C534 H539 0.930 . S
O535 Cu529 1.974 . S
O535 C545 1.282 . S
C536 O537 1.261 . S
C536 O549 1.251 . S
O537 C536 1.261 . S
H538 C532 0.930 . S
H539 C534 0.930 . S
N540 Cu529 1.985 . S
N540 C542 1.335 . S
N540 C543 1.390 . S
N541 C542 1.345 . S
N541 C544 1.336 . S
C542 N540 1.335 . S
C542 N541 1.345 . S
C542 H547 0.930 . S
C543 N540 1.390 . S
C543 C544 1.346 . S
C543 H548 0.930 . S
C544 N541 1.336 . S
C544 C543 1.346 . S
C544 H551 0.929 . S
C545 O535 1.282 . S
C545 O546 1.216 . S
O546 C545 1.216 . S
H547 C542 0.930 . S
H548 C543 0.930 . S
O549 Cu529 1.959 . S
O549 C536 1.251 . S
H550 C533 0.930 . S
H551 C544 0.929 . S
C552 C553 1.391 . S
C552 C554 1.394 . S
C552 H568 0.931 . S
C553 C552 1.391 . S
C553 C557 1.376 . S
C554 C552 1.394 . S
C554 C555 1.369 . S
C554 C558 1.531 . S
C555 C554 1.369 . S
C555 C556 1.410 . S
C555 C563 1.503 . S
C556 C555 1.410 . S
C556 C557 1.392 . S
C556 C559 1.511 . S
C557 C553 1.376 . S
C557 C556 1.392 . S
C557 H569 0.929 . S
C558 C554 1.531 . S
C558 H570 0.960 . S
C558 H571 0.962 . S
C558 H572 0.960 . S
C559 C556 1.511 . S
C559 H573 0.961 . S
C559 H574 0.961 . S
C559 H575 0.961 . S
C560 C561 1.370 . S
C560 C562 1.363 . S
C560 H576 0.931 . S
C561 C560 1.370 . S
C561 C565 1.408 . S
C562 C560 1.363 . S
C562 C563 1.370 . S
C562 C566 1.524 . S
C563 C555 1.503 . S
C563 C562 1.370 . S
C563 C564 1.403 . S
C564 C563 1.403 . S
C564 C565 1.404 . S
C564 C567 1.539 . S
C565 C561 1.408 . S
C565 C564 1.404 . S
C565 H577 0.930 . S
C566 C562 1.524 . S
C566 H578 0.956 . S
C566 H579 0.961 . S
C566 H580 0.961 . S
C567 C564 1.539 . S
C567 H581 0.958 . S
C567 H582 0.961 . S
C567 H583 0.960 . S
H568 C552 0.931 . S
H569 C557 0.929 . S
H570 C558 0.960 . S
H571 C558 0.962 . S
H572 C558 0.960 . S
H573 C559 0.961 . S
H574 C559 0.961 . S
H575 C559 0.961 . S
H576 C560 0.931 . S
H577 C565 0.930 . S
H578 C566 0.956 . S
H579 C566 0.961 . S
H580 C566 0.961 . S
H581 C567 0.958 . S
H582 C567 0.961 . S
H583 C567 0.960 . S
C584 C585 1.391 . S
C584 C586 1.394 . S
C584 H600 0.931 . S
C585 C584 1.391 . S
C585 C589 1.376 . S
C586 C584 1.394 . S
C586 C587 1.369 . S
C586 C590 1.531 . S
C587 C586 1.369 . S
C587 C588 1.410 . S
C587 C595 1.503 . S
C588 C587 1.410 . S
C588 C589 1.392 . S
C588 C591 1.511 . S
C589 C585 1.376 . S
C589 C588 1.392 . S
C589 H601 0.929 . S
C590 C586 1.531 . S
C590 H602 0.960 . S
C590 H603 0.962 . S
C590 H604 0.960 . S
C591 C588 1.511 . S
C591 H605 0.961 . S
C591 H606 0.961 . S
C591 H607 0.961 . S
C592 C593 1.370 . S
C592 C594 1.363 . S
C592 H608 0.931 . S
C593 C592 1.370 . S
C593 C597 1.408 . S
C594 C592 1.363 . S
C594 C595 1.370 . S
C594 C598 1.524 . S
C595 C587 1.503 . S
C595 C594 1.370 . S
C595 C596 1.403 . S
C596 C595 1.403 . S
C596 C597 1.404 . S
C596 C599 1.539 . S
C597 C593 1.408 . S
C597 C596 1.404 . S
C597 H609 0.930 . S
C598 C594 1.524 . S
C598 H610 0.956 . S
C598 H611 0.961 . S
C598 H612 0.961 . S
C599 C596 1.539 . S
C599 H613 0.958 . S
C599 H614 0.961 . S
C599 H615 0.960 . S
H600 C584 0.931 . S
H601 C589 0.929 . S
H602 C590 0.960 . S
H603 C590 0.962 . S
H604 C590 0.960 . S
H605 C591 0.961 . S
H606 C591 0.961 . S
H607 C591 0.961 . S
H608 C592 0.931 . S
H609 C597 0.930 . S
H610 C598 0.956 . S
H611 C598 0.961 . S
H612 C598 0.961 . S
H613 C599 0.958 . S
H614 C599 0.961 . S
H615 C599 0.960 . S
C616 C617 1.391 . S
C616 C618 1.394 . S
C616 H632 0.931 . S
C617 C616 1.391 . S
C617 C621 1.376 . S
C618 C616 1.394 . S
C618 C619 1.369 . S
C618 C622 1.531 . S
C619 C618 1.369 . S
C619 C620 1.410 . S
C619 C627 1.503 . S
C620 C619 1.410 . S
C620 C621 1.392 . S
C620 C623 1.511 . S
C621 C617 1.376 . S
C621 C620 1.392 . S
C621 H633 0.929 . S
C622 C618 1.531 . S
C622 H634 0.960 . S
C622 H635 0.962 . S
C622 H636 0.960 . S
C623 C620 1.511 . S
C623 H637 0.961 . S
C623 H638 0.961 . S
C623 H639 0.961 . S
C624 C625 1.370 . S
C624 C626 1.363 . S
C624 H640 0.931 . S
C625 C624 1.370 . S
C625 C629 1.408 . S
C626 C624 1.363 . S
C626 C627 1.370 . S
C626 C630 1.524 . S
C627 C619 1.503 . S
C627 C626 1.370 . S
C627 C628 1.403 . S
C628 C627 1.403 . S
C628 C629 1.404 . S
C628 C631 1.539 . S
C629 C625 1.408 . S
C629 C628 1.404 . S
C629 H641 0.930 . S
C630 C626 1.524 . S
C630 H642 0.956 . S
C630 H643 0.961 . S
C630 H644 0.961 . S
C631 C628 1.539 . S
C631 H645 0.958 . S
C631 H646 0.961 . S
C631 H647 0.960 . S
H632 C616 0.931 . S
H633 C621 0.929 . S
H634 C622 0.960 . S
H635 C622 0.962 . S
H636 C622 0.960 . S
H637 C623 0.961 . S
H638 C623 0.961 . S
H639 C623 0.961 . S
H640 C624 0.931 . S
H641 C629 0.930 . S
H642 C630 0.956 . S
H643 C630 0.961 . S
H644 C630 0.961 . S
H645 C631 0.958 . S
H646 C631 0.961 . S
H647 C631 0.960 . S
C648 C649 1.391 . S
C648 C650 1.394 . S
C648 H664 0.931 . S
C649 C648 1.391 . S
C649 C653 1.376 . S
C650 C648 1.394 . S
C650 C651 1.369 . S
C650 C654 1.531 . S
C651 C650 1.369 . S
C651 C652 1.410 . S
C651 C659 1.503 . S
C652 C651 1.410 . S
C652 C653 1.392 . S
C652 C655 1.511 . S
C653 C649 1.376 . S
C653 C652 1.392 . S
C653 H665 0.929 . S
C654 C650 1.531 . S
C654 H666 0.960 . S
C654 H667 0.962 . S
C654 H668 0.960 . S
C655 C652 1.511 . S
C655 H669 0.961 . S
C655 H670 0.961 . S
C655 H671 0.961 . S
C656 C657 1.370 . S
C656 C658 1.363 . S
C656 H672 0.931 . S
C657 C656 1.370 . S
C657 C661 1.408 . S
C658 C656 1.363 . S
C658 C659 1.370 . S
C658 C662 1.524 . S
C659 C651 1.503 . S
C659 C658 1.370 . S
C659 C660 1.403 . S
C660 C659 1.403 . S
C660 C661 1.404 . S
C660 C663 1.539 . S
C661 C657 1.408 . S
C661 C660 1.404 . S
C661 H673 0.930 . S
C662 C658 1.524 . S
C662 H674 0.956 . S
C662 H675 0.961 . S
C662 H676 0.961 . S
C663 C660 1.539 . S
C663 H677 0.958 . S
C663 H678 0.961 . S
C663 H679 0.960 . S
H664 C648 0.931 . S
H665 C653 0.929 . S
H666 C654 0.960 . S
H667 C654 0.962 . S
H668 C654 0.960 . S
H669 C655 0.961 . S
H670 C655 0.961 . S
H671 C655 0.961 . S
H672 C656 0.931 . S
H673 C661 0.930 . S
H674 C662 0.956 . S
H675 C662 0.961 . S
H676 C662 0.961 . S
H677 C663 0.958 . S
H678 C663 0.961 . S
H679 C663 0.960 . S
C680 C681 1.391 . S
C680 C682 1.394 . S
C680 H696 0.931 . S
C681 C680 1.391 . S
C681 C685 1.376 . S
C682 C680 1.394 . S
C682 C683 1.369 . S
C682 C686 1.531 . S
C683 C682 1.369 . S
C683 C684 1.410 . S
C683 C691 1.503 . S
C684 C683 1.410 . S
C684 C685 1.392 . S
C684 C687 1.511 . S
C685 C681 1.376 . S
C685 C684 1.392 . S
C685 H697 0.929 . S
C686 C682 1.531 . S
C686 H698 0.960 . S
C686 H699 0.962 . S
C686 H700 0.960 . S
C687 C684 1.511 . S
C687 H701 0.961 . S
C687 H702 0.961 . S
C687 H703 0.961 . S
C688 C689 1.370 . S
C688 C690 1.363 . S
C688 H704 0.931 . S
C689 C688 1.370 . S
C689 C693 1.408 . S
C690 C688 1.363 . S
C690 C691 1.370 . S
C690 C694 1.524 . S
C691 C683 1.503 . S
C691 C690 1.370 . S
C691 C692 1.403 . S
C692 C691 1.403 . S
C692 C693 1.404 . S
C692 C695 1.539 . S
C693 C689 1.408 . S
C693 C692 1.404 . S
C693 H705 0.930 . S
C694 C690 1.524 . S
C694 H706 0.956 . S
C694 H707 0.961 . S
C694 H708 0.961 . S
C695 C692 1.539 . S
C695 H709 0.958 . S
C695 H710 0.961 . S
C695 H711 0.960 . S
H696 C680 0.931 . S
H697 C685 0.929 . S
H698 C686 0.960 . S
H699 C686 0.962 . S
H700 C686 0.960 . S
H701 C687 0.961 . S
H702 C687 0.961 . S
H703 C687 0.961 . S
H704 C688 0.931 . S
H705 C693 0.930 . S
H706 C694 0.956 . S
H707 C694 0.961 . S
H708 C694 0.961 . S
H709 C695 0.958 . S
H710 C695 0.961 . S
H711 C695 0.960 . S
C712 C713 1.391 . S
C712 C714 1.394 . S
C712 H728 0.931 . S
C713 C712 1.391 . S
C713 C717 1.376 . S
C714 C712 1.394 . S
C714 C715 1.369 . S
C714 C718 1.531 . S
C715 C714 1.369 . S
C715 C716 1.410 . S
C715 C723 1.503 . S
C716 C715 1.410 . S
C716 C717 1.392 . S
C716 C719 1.511 . S
C717 C713 1.376 . S
C717 C716 1.392 . S
C717 H729 0.929 . S
C718 C714 1.531 . S
C718 H730 0.960 . S
C718 H731 0.962 . S
C718 H732 0.960 . S
C719 C716 1.511 . S
C719 H733 0.961 . S
C719 H734 0.961 . S
C719 H735 0.961 . S
C720 C721 1.370 . S
C720 C722 1.363 . S
C720 H736 0.931 . S
C721 C720 1.370 . S
C721 C725 1.408 . S
C722 C720 1.363 . S
C722 C723 1.370 . S
C722 C726 1.524 . S
C723 C715 1.503 . S
C723 C722 1.370 . S
C723 C724 1.403 . S
C724 C723 1.403 . S
C724 C725 1.404 . S
C724 C727 1.539 . S
C725 C721 1.408 . S
C725 C724 1.404 . S
C725 H737 0.930 . S
C726 C722 1.524 . S
C726 H738 0.956 . S
C726 H739 0.961 . S
C726 H740 0.961 . S
C727 C724 1.539 . S
C727 H741 0.958 . S
C727 H742 0.961 . S
C727 H743 0.960 . S
H728 C712 0.931 . S
H729 C717 0.929 . S
H730 C718 0.960 . S
H731 C718 0.962 . S
H732 C718 0.960 . S
H733 C719 0.961 . S
H734 C719 0.961 . S
H735 C719 0.961 . S
H736 C720 0.931 . S
H737 C725 0.930 . S
H738 C726 0.956 . S
H739 C726 0.961 . S
H740 C726 0.961 . S
H741 C727 0.958 . S
H742 C727 0.961 . S
H743 C727 0.960 . S
C744 C745 1.391 . S
C744 C746 1.394 . S
C744 H760 0.931 . S
C745 C744 1.391 . S
C745 C749 1.376 . S
C746 C744 1.394 . S
C746 C747 1.369 . S
C746 C750 1.531 . S
C747 C746 1.369 . S
C747 C748 1.410 . S
C747 C755 1.503 . S
C748 C747 1.410 . S
C748 C749 1.392 . S
C748 C751 1.511 . S
C749 C745 1.376 . S
C749 C748 1.392 . S
C749 H761 0.929 . S
C750 C746 1.531 . S
C750 H762 0.960 . S
C750 H763 0.962 . S
C750 H764 0.960 . S
C751 C748 1.511 . S
C751 H765 0.961 . S
C751 H766 0.961 . S
C751 H767 0.961 . S
C752 C753 1.370 . S
C752 C754 1.363 . S
C752 H768 0.931 . S
C753 C752 1.370 . S
C753 C757 1.408 . S
C754 C752 1.363 . S
C754 C755 1.370 . S
C754 C758 1.524 . S
C755 C747 1.503 . S
C755 C754 1.370 . S
C755 C756 1.403 . S
C756 C755 1.403 . S
C756 C757 1.404 . S
C756 C759 1.539 . S
C757 C753 1.408 . S
C757 C756 1.404 . S
C757 H769 0.930 . S
C758 C754 1.524 . S
C758 H770 0.956 . S
C758 H771 0.961 . S
C758 H772 0.961 . S
C759 C756 1.539 . S
C759 H773 0.958 . S
C759 H774 0.961 . S
C759 H775 0.960 . S
H760 C744 0.931 . S
H761 C749 0.929 . S
H762 C750 0.960 . S
H763 C750 0.962 . S
H764 C750 0.960 . S
H765 C751 0.961 . S
H766 C751 0.961 . S
H767 C751 0.961 . S
H768 C752 0.931 . S
H769 C757 0.930 . S
H770 C758 0.956 . S
H771 C758 0.961 . S
H772 C758 0.961 . S
H773 C759 0.958 . S
H774 C759 0.961 . S
H775 C759 0.960 . S
C776 C777 1.391 . S
C776 C778 1.394 . S
C776 H792 0.931 . S
C777 C776 1.391 . S
C777 C781 1.376 . S
C778 C776 1.394 . S
C778 C779 1.369 . S
C778 C782 1.531 . S
C779 C778 1.369 . S
C779 C780 1.410 . S
C779 C787 1.503 . S
C780 C779 1.410 . S
C780 C781 1.392 . S
C780 C783 1.511 . S
C781 C777 1.376 . S
C781 C780 1.392 . S
C781 H793 0.929 . S
C782 C778 1.531 . S
C782 H794 0.960 . S
C782 H795 0.962 . S
C782 H796 0.960 . S
C783 C780 1.511 . S
C783 H797 0.961 . S
C783 H798 0.961 . S
C783 H799 0.961 . S
C784 C785 1.370 . S
C784 C786 1.363 . S
C784 H800 0.931 . S
C785 C784 1.370 . S
C785 C789 1.408 . S
C786 C784 1.363 . S
C786 C787 1.370 . S
C786 C790 1.524 . S
C787 C779 1.503 . S
C787 C786 1.370 . S
C787 C788 1.403 . S
C788 C787 1.403 . S
C788 C789 1.404 . S
C788 C791 1.539 . S
C789 C785 1.408 . S
C789 C788 1.404 . S
C789 H801 0.930 . S
C790 C786 1.524 . S
C790 H802 0.956 . S
C790 H803 0.961 . S
C790 H804 0.961 . S
C791 C788 1.539 . S
C791 H805 0.958 . S
C791 H806 0.961 . S
C791 H807 0.960 . S
H792 C776 0.931 . S
H793 C781 0.929 . S
H794 C782 0.960 . S
H795 C782 0.962 . S
H796 C782 0.960 . S
H797 C783 0.961 . S
H798 C783 0.961 . S
H799 C783 0.961 . S
H800 C784 0.931 . S
H801 C789 0.930 . S
H802 C790 0.956 . S
H803 C790 0.961 . S
H804 C790 0.961 . S
H805 C791 0.958 . S
H806 C791 0.961 . S
H807 C791 0.960 . S
C808 C809 1.391 . S
C808 C810 1.394 . S
C808 H824 0.931 . S
C809 C808 1.391 . S
C809 C813 1.376 . S
C810 C808 1.394 . S
C810 C811 1.369 . S
C810 C814 1.531 . S
C811 C810 1.369 . S
C811 C812 1.410 . S
C811 C819 1.503 . S
C812 C811 1.410 . S
C812 C813 1.392 . S
C812 C815 1.511 . S
C813 C809 1.376 . S
C813 C812 1.392 . S
C813 H825 0.929 . S
C814 C810 1.531 . S
C814 H826 0.960 . S
C814 H827 0.962 . S
C814 H828 0.960 . S
C815 C812 1.511 . S
C815 H829 0.961 . S
C815 H830 0.961 . S
C815 H831 0.961 . S
C816 C817 1.370 . S
C816 C818 1.363 . S
C816 H832 0.931 . S
C817 C816 1.370 . S
C817 C821 1.408 . S
C818 C816 1.363 . S
C818 C819 1.370 . S
C818 C822 1.524 . S
C819 C811 1.503 . S
C819 C818 1.370 . S
C819 C820 1.403 . S
C820 C819 1.403 . S
C820 C821 1.404 . S
C820 C823 1.539 . S
C821 C817 1.408 . S
C821 C820 1.404 . S
C821 H833 0.930 . S
C822 C818 1.524 . S
C822 H834 0.956 . S
C822 H835 0.961 . S
C822 H836 0.961 . S
C823 C820 1.539 . S
C823 H837 0.958 . S
C823 H838 0.961 . S
C823 H839 0.960 . S
H824 C808 0.931 . S
H825 C813 0.929 . S
H826 C814 0.960 . S
H827 C814 0.962 . S
H828 C814 0.960 . S
H829 C815 0.961 . S
H830 C815 0.961 . S
H831 C815 0.961 . S
H832 C816 0.931 . S
H833 C821 0.930 . S
H834 C822 0.956 . S
H835 C822 0.961 . S
H836 C822 0.961 . S
H837 C823 0.958 . S
H838 C823 0.961 . S
H839 C823 0.960 . S
C840 C841 1.391 . S
C840 C842 1.394 . S
C840 H856 0.931 . S
C841 C840 1.391 . S
C841 C845 1.376 . S
C842 C840 1.394 . S
C842 C843 1.369 . S
C842 C846 1.531 . S
C843 C842 1.369 . S
C843 C844 1.410 . S
C843 C851 1.503 . S
C844 C843 1.410 . S
C844 C845 1.392 . S
C844 C847 1.511 . S
C845 C841 1.376 . S
C845 C844 1.392 . S
C845 H857 0.929 . S
C846 C842 1.531 . S
C846 H858 0.960 . S
C846 H859 0.962 . S
C846 H860 0.960 . S
C847 C844 1.511 . S
C847 H861 0.961 . S
C847 H862 0.961 . S
C847 H863 0.961 . S
C848 C849 1.370 . S
C848 C850 1.363 . S
C848 H864 0.931 . S
C849 C848 1.370 . S
C849 C853 1.408 . S
C850 C848 1.363 . S
C850 C851 1.370 . S
C850 C854 1.524 . S
C851 C843 1.503 . S
C851 C850 1.370 . S
C851 C852 1.403 . S
C852 C851 1.403 . S
C852 C853 1.404 . S
C852 C855 1.539 . S
C853 C849 1.408 . S
C853 C852 1.404 . S
C853 H865 0.930 . S
C854 C850 1.524 . S
C854 H866 0.956 . S
C854 H867 0.961 . S
C854 H868 0.961 . S
C855 C852 1.539 . S
C855 H869 0.958 . S
C855 H870 0.961 . S
C855 H871 0.960 . S
H856 C840 0.931 . S
H857 C845 0.929 . S
H858 C846 0.960 . S
H859 C846 0.962 . S
H860 C846 0.960 . S
H861 C847 0.961 . S
H862 C847 0.961 . S
H863 C847 0.961 . S
H864 C848 0.931 . S
H865 C853 0.930 . S
H866 C854 0.956 . S
H867 C854 0.961 . S
H868 C854 0.961 . S
H869 C855 0.958 . S
H870 C855 0.961 . S
H871 C855 0.960 . S
C872 C873 1.391 . S
C872 C874 1.394 . S
C872 H888 0.931 . S
C873 C872 1.391 . S
C873 C877 1.376 . S
C874 C872 1.394 . S
C874 C875 1.369 . S
C874 C878 1.531 . S
C875 C874 1.369 . S
C875 C876 1.410 . S
C875 C883 1.503 . S
C876 C875 1.410 . S
C876 C877 1.392 . S
C876 C879 1.511 . S
C877 C873 1.376 . S
C877 C876 1.392 . S
C877 H889 0.929 . S
C878 C874 1.531 . S
C878 H890 0.960 . S
C878 H891 0.962 . S
C878 H892 0.960 . S
C879 C876 1.511 . S
C879 H893 0.961 . S
C879 H894 0.961 . S
C879 H895 0.961 . S
C880 C881 1.370 . S
C880 C882 1.363 . S
C880 H896 0.931 . S
C881 C880 1.370 . S
C881 C885 1.408 . S
C882 C880 1.363 . S
C882 C883 1.370 . S
C882 C886 1.524 . S
C883 C875 1.503 . S
C883 C882 1.370 . S
C883 C884 1.403 . S
C884 C883 1.403 . S
C884 C885 1.404 . S
C884 C887 1.539 . S
C885 C881 1.408 . S
C885 C884 1.404 . S
C885 H897 0.930 . S
C886 C882 1.524 . S
C886 H898 0.956 . S
C886 H899 0.961 . S
C886 H900 0.961 . S
C887 C884 1.539 . S
C887 H901 0.958 . S
C887 H902 0.961 . S
C887 H903 0.960 . S
H888 C872 0.931 . S
H889 C877 0.929 . S
H890 C878 0.960 . S
H891 C878 0.962 . S
H892 C878 0.960 . S
H893 C879 0.961 . S
H894 C879 0.961 . S
H895 C879 0.961 . S
H896 C880 0.931 . S
H897 C885 0.930 . S
H898 C886 0.956 . S
H899 C886 0.961 . S
H900 C886 0.961 . S
H901 C887 0.958 . S
H902 C887 0.961 . S
H903 C887 0.960 . S
C904 C905 1.391 . S
C904 C906 1.394 . S
C904 H920 0.931 . S
C905 C904 1.391 . S
C905 C909 1.376 . S
C906 C904 1.394 . S
C906 C907 1.369 . S
C906 C910 1.531 . S
C907 C906 1.369 . S
C907 C908 1.410 . S
C907 C915 1.503 . S
C908 C907 1.410 . S
C908 C909 1.392 . S
C908 C911 1.511 . S
C909 C905 1.376 . S
C909 C908 1.392 . S
C909 H921 0.929 . S
C910 C906 1.531 . S
C910 H922 0.960 . S
C910 H923 0.962 . S
C910 H924 0.960 . S
C911 C908 1.511 . S
C911 H925 0.961 . S
C911 H926 0.961 . S
C911 H927 0.961 . S
C912 C913 1.370 . S
C912 C914 1.363 . S
C912 H928 0.931 . S
C913 C912 1.370 . S
C913 C917 1.408 . S
C914 C912 1.363 . S
C914 C915 1.370 . S
C914 C918 1.524 . S
C915 C907 1.503 . S
C915 C914 1.370 . S
C915 C916 1.403 . S
C916 C915 1.403 . S
C916 C917 1.404 . S
C916 C919 1.539 . S
C917 C913 1.408 . S
C917 C916 1.404 . S
C917 H929 0.930 . S
C918 C914 1.524 . S
C918 H930 0.956 . S
C918 H931 0.961 . S
C918 H932 0.961 . S
C919 C916 1.539 . S
C919 H933 0.958 . S
C919 H934 0.961 . S
C919 H935 0.960 . S
H920 C904 0.931 . S
H921 C909 0.929 . S
H922 C910 0.960 . S
H923 C910 0.962 . S
H924 C910 0.960 . S
H925 C911 0.961 . S
H926 C911 0.961 . S
H927 C911 0.961 . S
H928 C912 0.931 . S
H929 C917 0.930 . S
H930 C918 0.956 . S
H931 C918 0.961 . S
H932 C918 0.961 . S
H933 C919 0.958 . S
H934 C919 0.961 . S
H935 C919 0.960 . S
C936 C937 1.391 . S
C936 C938 1.394 . S
C936 H952 0.931 . S
C937 C936 1.391 . S
C937 C941 1.376 . S
C938 C936 1.394 . S
C938 C939 1.369 . S
C938 C942 1.531 . S
C939 C938 1.369 . S
C939 C940 1.410 . S
C939 C947 1.503 . S
C940 C939 1.410 . S
C940 C941 1.392 . S
C940 C943 1.511 . S
C941 C937 1.376 . S
C941 C940 1.392 . S
C941 H953 0.929 . S
C942 C938 1.531 . S
C942 H954 0.960 . S
C942 H955 0.962 . S
C942 H956 0.960 . S
C943 C940 1.511 . S
C943 H957 0.961 . S
C943 H958 0.961 . S
C943 H959 0.961 . S
C944 C945 1.370 . S
C944 C946 1.363 . S
C944 H960 0.931 . S
C945 C944 1.370 . S
C945 C949 1.408 . S
C946 C944 1.363 . S
C946 C947 1.370 . S
C946 C950 1.524 . S
C947 C939 1.503 . S
C947 C946 1.370 . S
C947 C948 1.403 . S
C948 C947 1.403 . S
C948 C949 1.404 . S
C948 C951 1.539 . S
C949 C945 1.408 . S
C949 C948 1.404 . S
C949 H961 0.930 . S
C950 C946 1.524 . S
C950 H962 0.956 . S
C950 H963 0.961 . S
C950 H964 0.961 . S
C951 C948 1.539 . S
C951 H965 0.958 . S
C951 H966 0.961 . S
C951 H967 0.960 . S
H952 C936 0.931 . S
H953 C941 0.929 . S
H954 C942 0.960 . S
H955 C942 0.962 . S
H956 C942 0.960 . S
H957 C943 0.961 . S
H958 C943 0.961 . S
H959 C943 0.961 . S
H960 C944 0.931 . S
H961 C949 0.930 . S
H962 C950 0.956 . S
H963 C950 0.961 . S
H964 C950 0.961 . S
H965 C951 0.958 . S
H966 C951 0.961 . S
H967 C951 0.960 . S
C968 C969 1.391 . S
C968 C970 1.394 . S
C968 H984 0.931 . S
C969 C968 1.391 . S
C969 C973 1.376 . S
C970 C968 1.394 . S
C970 C971 1.369 . S
C970 C974 1.531 . S
C971 C970 1.369 . S
C971 C972 1.410 . S
C971 C979 1.503 . S
C972 C971 1.410 . S
C972 C973 1.392 . S
C972 C975 1.511 . S
C973 C969 1.376 . S
C973 C972 1.392 . S
C973 H985 0.929 . S
C974 C970 1.531 . S
C974 H986 0.960 . S
C974 H987 0.962 . S
C974 H988 0.960 . S
C975 C972 1.511 . S
C975 H989 0.961 . S
C975 H990 0.961 . S
C975 H991 0.961 . S
C976 C977 1.370 . S
C976 C978 1.363 . S
C976 H992 0.931 . S
C977 C976 1.370 . S
C977 C981 1.408 . S
C978 C976 1.363 . S
C978 C979 1.370 . S
C978 C982 1.524 . S
C979 C971 1.503 . S
C979 C978 1.370 . S
C979 C980 1.403 . S
C980 C979 1.403 . S
C980 C981 1.404 . S
C980 C983 1.539 . S
C981 C977 1.408 . S
C981 C980 1.404 . S
C981 H993 0.930 . S
C982 C978 1.524 . S
C982 H994 0.956 . S
C982 H995 0.961 . S
C982 H996 0.961 . S
C983 C980 1.539 . S
C983 H997 0.958 . S
C983 H998 0.961 . S
C983 H999 0.960 . S
H984 C968 0.931 . S
H985 C973 0.929 . S
H986 C974 0.960 . S
H987 C974 0.962 . S
H988 C974 0.960 . S
H989 C975 0.961 . S
H990 C975 0.961 . S
H991 C975 0.961 . S
H992 C976 0.931 . S
H993 C981 0.930 . S
H994 C982 0.956 . S
H995 C982 0.961 . S
H996 C982 0.961 . S
H997 C983 0.958 . S
H998 C983 0.961 . S
H999 C983 0.960 . S
C1000 C1001 1.391 . S
C1000 C1002 1.394 . S
C1000 H1016 0.931 . S
C1001 C1000 1.391 . S
C1001 C1005 1.376 . S
C1002 C1000 1.394 . S
C1002 C1003 1.369 . S
C1002 C1006 1.531 . S
C1003 C1002 1.369 . S
C1003 C1004 1.410 . S
C1003 C1011 1.503 . S
C1004 C1003 1.410 . S
C1004 C1005 1.392 . S
C1004 C1007 1.511 . S
C1005 C1001 1.376 . S
C1005 C1004 1.392 . S
C1005 H1017 0.929 . S
C1006 C1002 1.531 . S
C1006 H1018 0.960 . S
C1006 H1019 0.962 . S
C1006 H1020 0.960 . S
C1007 C1004 1.511 . S
C1007 H1021 0.961 . S
C1007 H1022 0.961 . S
C1007 H1023 0.961 . S
C1008 C1009 1.370 . S
C1008 C1010 1.363 . S
C1008 H1024 0.931 . S
C1009 C1008 1.370 . S
C1009 C1013 1.408 . S
C1010 C1008 1.363 . S
C1010 C1011 1.370 . S
C1010 C1014 1.524 . S
C1011 C1003 1.503 . S
C1011 C1010 1.370 . S
C1011 C1012 1.403 . S
C1012 C1011 1.403 . S
C1012 C1013 1.404 . S
C1012 C1015 1.539 . S
C1013 C1009 1.408 . S
C1013 C1012 1.404 . S
C1013 H1025 0.930 . S
C1014 C1010 1.524 . S
C1014 H1026 0.956 . S
C1014 H1027 0.961 . S
C1014 H1028 0.961 . S
C1015 C1012 1.539 . S
C1015 H1029 0.958 . S
C1015 H1030 0.961 . S
C1015 H1031 0.960 . S
H1016 C1000 0.931 . S
H1017 C1005 0.929 . S
H1018 C1006 0.960 . S
H1019 C1006 0.962 . S
H1020 C1006 0.960 . S
H1021 C1007 0.961 . S
H1022 C1007 0.961 . S
H1023 C1007 0.961 . S
H1024 C1008 0.931 . S
H1025 C1013 0.930 . S
H1026 C1014 0.956 . S
H1027 C1014 0.961 . S
H1028 C1014 0.961 . S
H1029 C1015 0.958 . S
H1030 C1015 0.961 . S
H1031 C1015 0.960 . S
C1032 C1033 1.391 . S
C1032 C1034 1.394 . S
C1032 H1048 0.931 . S
C1033 C1032 1.391 . S
C1033 C1037 1.376 . S
C1034 C1032 1.394 . S
C1034 C1035 1.369 . S
C1034 C1038 1.531 . S
C1035 C1034 1.369 . S
C1035 C1036 1.410 . S
C1035 C1043 1.503 . S
C1036 C1035 1.410 . S
C1036 C1037 1.392 . S
C1036 C1039 1.511 . S
C1037 C1033 1.376 . S
C1037 C1036 1.392 . S
C1037 H1049 0.929 . S
C1038 C1034 1.531 . S
C1038 H1050 0.960 . S
C1038 H1051 0.962 . S
C1038 H1052 0.960 . S
C1039 C1036 1.511 . S
C1039 H1053 0.961 . S
C1039 H1054 0.961 . S
C1039 H1055 0.961 . S
C1040 C1041 1.370 . S
C1040 C1042 1.363 . S
C1040 H1056 0.931 . S
C1041 C1040 1.370 . S
C1041 C1045 1.408 . S
C1042 C1040 1.363 . S
C1042 C1043 1.370 . S
C1042 C1046 1.524 . S
C1043 C1035 1.503 . S
C1043 C1042 1.370 . S
C1043 C1044 1.403 . S
C1044 C1043 1.403 . S
C1044 C1045 1.404 . S
C1044 C1047 1.539 . S
C1045 C1041 1.408 . S
C1045 C1044 1.404 . S
C1045 H1057 0.930 . S
C1046 C1042 1.524 . S
C1046 H1058 0.956 . S
C1046 H1059 0.961 . S
C1046 H1060 0.961 . S
C1047 C1044 1.539 . S
C1047 H1061 0.958 . S
C1047 H1062 0.961 . S
C1047 H1063 0.960 . S
H1048 C1032 0.931 . S
H1049 C1037 0.929 . S
H1050 C1038 0.960 . S
H1051 C1038 0.962 . S
H1052 C1038 0.960 . S
H1053 C1039 0.961 . S
H1054 C1039 0.961 . S
H1055 C1039 0.961 . S
H1056 C1040 0.931 . S
H1057 C1045 0.930 . S
H1058 C1046 0.956 . S
H1059 C1046 0.961 . S
H1060 C1046 0.961 . S
H1061 C1047 0.958 . S
H1062 C1047 0.961 . S
H1063 C1047 0.960 . S
C1064 C1065 1.391 . S
C1064 C1066 1.394 . S
C1064 H1080 0.931 . S
C1065 C1064 1.391 . S
C1065 C1069 1.376 . S
C1066 C1064 1.394 . S
C1066 C1067 1.369 . S
C1066 C1070 1.531 . S
C1067 C1066 1.369 . S
C1067 C1068 1.410 . S
C1067 C1075 1.503 . S
C1068 C1067 1.410 . S
C1068 C1069 1.392 . S
C1068 C1071 1.511 . S
C1069 C1065 1.376 . S
C1069 C1068 1.392 . S
C1069 H1081 0.929 . S
C1070 C1066 1.531 . S
C1070 H1082 0.960 . S
C1070 H1083 0.962 . S
C1070 H1084 0.960 . S
C1071 C1068 1.511 . S
C1071 H1085 0.961 . S
C1071 H1086 0.961 . S
C1071 H1087 0.961 . S
C1072 C1073 1.370 . S
C1072 C1074 1.363 . S
C1072 H1088 0.931 . S
C1073 C1072 1.370 . S
C1073 C1077 1.408 . S
C1074 C1072 1.363 . S
C1074 C1075 1.370 . S
C1074 C1078 1.524 . S
C1075 C1067 1.503 . S
C1075 C1074 1.370 . S
C1075 C1076 1.403 . S
C1076 C1075 1.403 . S
C1076 C1077 1.404 . S
C1076 C1079 1.539 . S
C1077 C1073 1.408 . S
C1077 C1076 1.404 . S
C1077 H1089 0.930 . S
C1078 C1074 1.524 . S
C1078 H1090 0.956 . S
C1078 H1091 0.961 . S
C1078 H1092 0.961 . S
C1079 C1076 1.539 . S
C1079 H1093 0.958 . S
C1079 H1094 0.961 . S
C1079 H1095 0.960 . S
H1080 C1064 0.931 . S
H1081 C1069 0.929 . S
H1082 C1070 0.960 . S
H1083 C1070 0.962 . S
H1084 C1070 0.960 . S
H1085 C1071 0.961 . S
H1086 C1071 0.961 . S
H1087 C1071 0.961 . S
H1088 C1072 0.931 . S
H1089 C1077 0.930 . S
H1090 C1078 0.956 . S
H1091 C1078 0.961 . S
H1092 C1078 0.961 . S
H1093 C1079 0.958 . S
H1094 C1079 0.961 . S
H1095 C1079 0.960 . S
C1096 C1097 1.391 . S
C1096 C1098 1.394 . S
C1096 H1112 0.931 . S
C1097 C1096 1.391 . S
C1097 C1101 1.376 . S
C1098 C1096 1.394 . S
C1098 C1099 1.369 . S
C1098 C1102 1.531 . S
C1099 C1098 1.369 . S
C1099 C1100 1.410 . S
C1099 C1107 1.503 . S
C1100 C1099 1.410 . S
C1100 C1101 1.392 . S
C1100 C1103 1.511 . S
C1101 C1097 1.376 . S
C1101 C1100 1.392 . S
C1101 H1113 0.929 . S
C1102 C1098 1.531 . S
C1102 H1114 0.960 . S
C1102 H1115 0.962 . S
C1102 H1116 0.960 . S
C1103 C1100 1.511 . S
C1103 H1117 0.961 . S
C1103 H1118 0.961 . S
C1103 H1119 0.961 . S
C1104 C1105 1.370 . S
C1104 C1106 1.363 . S
C1104 H1120 0.931 . S
C1105 C1104 1.370 . S
C1105 C1109 1.408 . S
C1106 C1104 1.363 . S
C1106 C1107 1.370 . S
C1106 C1110 1.524 . S
C1107 C1099 1.503 . S
C1107 C1106 1.370 . S
C1107 C1108 1.403 . S
C1108 C1107 1.403 . S
C1108 C1109 1.404 . S
C1108 C1111 1.539 . S
C1109 C1105 1.408 . S
C1109 C1108 1.404 . S
C1109 H1121 0.930 . S
C1110 C1106 1.524 . S
C1110 H1122 0.956 . S
C1110 H1123 0.961 . S
C1110 H1124 0.961 . S
C1111 C1108 1.539 . S
C1111 H1125 0.958 . S
C1111 H1126 0.961 . S
C1111 H1127 0.960 . S
H1112 C1096 0.931 . S
H1113 C1101 0.929 . S
H1114 C1102 0.960 . S
H1115 C1102 0.962 . S
H1116 C1102 0.960 . S
H1117 C1103 0.961 . S
H1118 C1103 0.961 . S
H1119 C1103 0.961 . S
H1120 C1104 0.931 . S
H1121 C1109 0.930 . S
H1122 C1110 0.956 . S
H1123 C1110 0.961 . S
H1124 C1110 0.961 . S
H1125 C1111 0.958 . S
H1126 C1111 0.961 . S
H1127 C1111 0.960 . S
C1128 C1129 1.391 . S
C1128 C1130 1.394 . S
C1128 H1144 0.931 . S
C1129 C1128 1.391 . S
C1129 C1133 1.376 . S
C1130 C1128 1.394 . S
C1130 C1131 1.369 . S
C1130 C1134 1.531 . S
C1131 C1130 1.369 . S
C1131 C1132 1.410 . S
C1131 C1139 1.503 . S
C1132 C1131 1.410 . S
C1132 C1133 1.392 . S
C1132 C1135 1.511 . S
C1133 C1129 1.376 . S
C1133 C1132 1.392 . S
C1133 H1145 0.929 . S
C1134 C1130 1.531 . S
C1134 H1146 0.960 . S
C1134 H1147 0.962 . S
C1134 H1148 0.960 . S
C1135 C1132 1.511 . S
C1135 H1149 0.961 . S
C1135 H1150 0.961 . S
C1135 H1151 0.961 . S
C1136 C1137 1.370 . S
C1136 C1138 1.363 . S
C1136 H1152 0.931 . S
C1137 C1136 1.370 . S
C1137 C1141 1.408 . S
C1138 C1136 1.363 . S
C1138 C1139 1.370 . S
C1138 C1142 1.524 . S
C1139 C1131 1.503 . S
C1139 C1138 1.370 . S
C1139 C1140 1.403 . S
C1140 C1139 1.403 . S
C1140 C1141 1.404 . S
C1140 C1143 1.539 . S
C1141 C1137 1.408 . S
C1141 C1140 1.404 . S
C1141 H1153 0.930 . S
C1142 C1138 1.524 . S
C1142 H1154 0.956 . S
C1142 H1155 0.961 . S
C1142 H1156 0.961 . S
C1143 C1140 1.539 . S
C1143 H1157 0.958 . S
C1143 H1158 0.961 . S
C1143 H1159 0.960 . S
H1144 C1128 0.931 . S
H1145 C1133 0.929 . S
H1146 C1134 0.960 . S
H1147 C1134 0.962 . S
H1148 C1134 0.960 . S
H1149 C1135 0.961 . S
H1150 C1135 0.961 . S
H1151 C1135 0.961 . S
H1152 C1136 0.931 . S
H1153 C1141 0.930 . S
H1154 C1142 0.956 . S
H1155 C1142 0.961 . S
H1156 C1142 0.961 . S
H1157 C1143 0.958 . S
H1158 C1143 0.961 . S
H1159 C1143 0.960 . S
C1160 C1161 1.391 . S
C1160 C1162 1.394 . S
C1160 H1176 0.931 . S
C1161 C1160 1.391 . S
C1161 C1165 1.376 . S
C1162 C1160 1.394 . S
C1162 C1163 1.369 . S
C1162 C1166 1.531 . S
C1163 C1162 1.369 . S
C1163 C1164 1.410 . S
C1163 C1171 1.503 . S
C1164 C1163 1.410 . S
C1164 C1165 1.392 . S
C1164 C1167 1.511 . S
C1165 C1161 1.376 . S
C1165 C1164 1.392 . S
C1165 H1177 0.929 . S
C1166 C1162 1.531 . S
C1166 H1178 0.960 . S
C1166 H1179 0.962 . S
C1166 H1180 0.960 . S
C1167 C1164 1.511 . S
C1167 H1181 0.961 . S
C1167 H1182 0.961 . S
C1167 H1183 0.961 . S
C1168 C1169 1.370 . S
C1168 C1170 1.363 . S
C1168 H1184 0.931 . S
C1169 C1168 1.370 . S
C1169 C1173 1.408 . S
C1170 C1168 1.363 . S
C1170 C1171 1.370 . S
C1170 C1174 1.524 . S
C1171 C1163 1.503 . S
C1171 C1170 1.370 . S
C1171 C1172 1.403 . S
C1172 C1171 1.403 . S
C1172 C1173 1.404 . S
C1172 C1175 1.539 . S
C1173 C1169 1.408 . S
C1173 C1172 1.404 . S
C1173 H1185 0.930 . S
C1174 C1170 1.524 . S
C1174 H1186 0.956 . S
C1174 H1187 0.961 . S
C1174 H1188 0.961 . S
C1175 C1172 1.539 . S
C1175 H1189 0.958 . S
C1175 H1190 0.961 . S
C1175 H1191 0.960 . S
H1176 C1160 0.931 . S
H1177 C1165 0.929 . S
H1178 C1166 0.960 . S
H1179 C1166 0.962 . S
H1180 C1166 0.960 . S
H1181 C1167 0.961 . S
H1182 C1167 0.961 . S
H1183 C1167 0.961 . S
H1184 C1168 0.931 . S
H1185 C1173 0.930 . S
H1186 C1174 0.956 . S
H1187 C1174 0.961 . S
H1188 C1174 0.961 . S
H1189 C1175 0.958 . S
H1190 C1175 0.961 . S
H1191 C1175 0.960 . S
C1192 C1193 1.391 . S
C1192 C1194 1.394 . S
C1192 H1208 0.931 . S
C1193 C1192 1.391 . S
C1193 C1197 1.376 . S
C1194 C1192 1.394 . S
C1194 C1195 1.369 . S
C1194 C1198 1.531 . S
C1195 C1194 1.369 . S
C1195 C1196 1.410 . S
C1195 C1203 1.503 . S
C1196 C1195 1.410 . S
C1196 C1197 1.392 . S
C1196 C1199 1.511 . S
C1197 C1193 1.376 . S
C1197 C1196 1.392 . S
C1197 H1209 0.929 . S
C1198 C1194 1.531 . S
C1198 H1210 0.960 . S
C1198 H1211 0.962 . S
C1198 H1212 0.960 . S
C1199 C1196 1.511 . S
C1199 H1213 0.961 . S
C1199 H1214 0.961 . S
C1199 H1215 0.961 . S
C1200 C1201 1.370 . S
C1200 C1202 1.363 . S
C1200 H1216 0.931 . S
C1201 C1200 1.370 . S
C1201 C1205 1.408 . S
C1202 C1200 1.363 . S
C1202 C1203 1.370 . S
C1202 C1206 1.524 . S
C1203 C1195 1.503 . S
C1203 C1202 1.370 . S
C1203 C1204 1.403 . S
C1204 C1203 1.403 . S
C1204 C1205 1.404 . S
C1204 C1207 1.539 . S
C1205 C1201 1.408 . S
C1205 C1204 1.404 . S
C1205 H1217 0.930 . S
C1206 C1202 1.524 . S
C1206 H1218 0.956 . S
C1206 H1219 0.961 . S
C1206 H1220 0.961 . S
C1207 C1204 1.539 . S
C1207 H1221 0.958 . S
C1207 H1222 0.961 . S
C1207 H1223 0.960 . S
H1208 C1192 0.931 . S
H1209 C1197 0.929 . S
H1210 C1198 0.960 . S
H1211 C1198 0.962 . S
H1212 C1198 0.960 . S
H1213 C1199 0.961 . S
H1214 C1199 0.961 . S
H1215 C1199 0.961 . S
H1216 C1200 0.931 . S
H1217 C1205 0.930 . S
H1218 C1206 0.956 . S
H1219 C1206 0.961 . S
H1220 C1206 0.961 . S
H1221 C1207 0.958 . S
H1222 C1207 0.961 . S
H1223 C1207 0.960 . S
C1224 C1225 1.391 . S
C1224 C1226 1.394 . S
C1224 H1240 0.931 . S
C1225 C1224 1.391 . S
C1225 C1229 1.376 . S
C1226 C1224 1.394 . S
C1226 C1227 1.369 . S
C1226 C1230 1.531 . S
C1227 C1226 1.369 . S
C1227 C1228 1.410 . S
C1227 C1235 1.503 . S
C1228 C1227 1.410 . S
C1228 C1229 1.392 . S
C1228 C1231 1.511 . S
C1229 C1225 1.376 . S
C1229 C1228 1.392 . S
C1229 H1241 0.929 . S
C1230 C1226 1.531 . S
C1230 H1242 0.960 . S
C1230 H1243 0.962 . S
C1230 H1244 0.960 . S
C1231 C1228 1.511 . S
C1231 H1245 0.961 . S
C1231 H1246 0.961 . S
C1231 H1247 0.961 . S
C1232 C1233 1.370 . S
C1232 C1234 1.363 . S
C1232 H1248 0.931 . S
C1233 C1232 1.370 . S
C1233 C1237 1.408 . S
C1234 C1232 1.363 . S
C1234 C1235 1.370 . S
C1234 C1238 1.524 . S
C1235 C1227 1.503 . S
C1235 C1234 1.370 . S
C1235 C1236 1.403 . S
C1236 C1235 1.403 . S
C1236 C1237 1.404 . S
C1236 C1239 1.539 . S
C1237 C1233 1.408 . S
C1237 C1236 1.404 . S
C1237 H1249 0.930 . S
C1238 C1234 1.524 . S
C1238 H1250 0.956 . S
C1238 H1251 0.961 . S
C1238 H1252 0.961 . S
C1239 C1236 1.539 . S
C1239 H1253 0.958 . S
C1239 H1254 0.961 . S
C1239 H1255 0.960 . S
H1240 C1224 0.931 . S
H1241 C1229 0.929 . S
H1242 C1230 0.960 . S
H1243 C1230 0.962 . S
H1244 C1230 0.960 . S
H1245 C1231 0.961 . S
H1246 C1231 0.961 . S
H1247 C1231 0.961 . S
H1248 C1232 0.931 . S
H1249 C1237 0.930 . S
H1250 C1238 0.956 . S
H1251 C1238 0.961 . S
H1252 C1238 0.961 . S
H1253 C1239 0.958 . S
H1254 C1239 0.961 . S
H1255 C1239 0.960 . S
C1256 C1257 1.391 . S
C1256 C1258 1.394 . S
C1256 H1272 0.931 . S
C1257 C1256 1.391 . S
C1257 C1261 1.376 . S
C1258 C1256 1.394 . S
C1258 C1259 1.369 . S
C1258 C1262 1.531 . S
C1259 C1258 1.369 . S
C1259 C1260 1.410 . S
C1259 C1267 1.503 . S
C1260 C1259 1.410 . S
C1260 C1261 1.392 . S
C1260 C1263 1.511 . S
C1261 C1257 1.376 . S
C1261 C1260 1.392 . S
C1261 H1273 0.929 . S
C1262 C1258 1.531 . S
C1262 H1274 0.960 . S
C1262 H1275 0.962 . S
C1262 H1276 0.960 . S
C1263 C1260 1.511 . S
C1263 H1277 0.961 . S
C1263 H1278 0.961 . S
C1263 H1279 0.961 . S
C1264 C1265 1.370 . S
C1264 C1266 1.363 . S
C1264 H1280 0.931 . S
C1265 C1264 1.370 . S
C1265 C1269 1.408 . S
C1266 C1264 1.363 . S
C1266 C1267 1.370 . S
C1266 C1270 1.524 . S
C1267 C1259 1.503 . S
C1267 C1266 1.370 . S
C1267 C1268 1.403 . S
C1268 C1267 1.403 . S
C1268 C1269 1.404 . S
C1268 C1271 1.539 . S
C1269 C1265 1.408 . S
C1269 C1268 1.404 . S
C1269 H1281 0.930 . S
C1270 C1266 1.524 . S
C1270 H1282 0.956 . S
C1270 H1283 0.961 . S
C1270 H1284 0.961 . S
C1271 C1268 1.539 . S
C1271 H1285 0.958 . S
C1271 H1286 0.961 . S
C1271 H1287 0.960 . S
H1272 C1256 0.931 . S
H1273 C1261 0.929 . S
H1274 C1262 0.960 . S
H1275 C1262 0.962 . S
H1276 C1262 0.960 . S
H1277 C1263 0.961 . S
H1278 C1263 0.961 . S
H1279 C1263 0.961 . S
H1280 C1264 0.931 . S
H1281 C1269 0.930 . S
H1282 C1270 0.956 . S
H1283 C1270 0.961 . S
H1284 C1270 0.961 . S
H1285 C1271 0.958 . S
H1286 C1271 0.961 . S
H1287 C1271 0.960 . S
C1288 C1289 1.391 . S
C1288 C1290 1.394 . S
C1288 H1304 0.931 . S
C1289 C1288 1.391 . S
C1289 C1293 1.376 . S
C1290 C1288 1.394 . S
C1290 C1291 1.369 . S
C1290 C1294 1.531 . S
C1291 C1290 1.369 . S
C1291 C1292 1.410 . S
C1291 C1299 1.503 . S
C1292 C1291 1.410 . S
C1292 C1293 1.392 . S
C1292 C1295 1.511 . S
C1293 C1289 1.376 . S
C1293 C1292 1.392 . S
C1293 H1305 0.929 . S
C1294 C1290 1.531 . S
C1294 H1306 0.960 . S
C1294 H1307 0.962 . S
C1294 H1308 0.960 . S
C1295 C1292 1.511 . S
C1295 H1309 0.961 . S
C1295 H1310 0.961 . S
C1295 H1311 0.961 . S
C1296 C1297 1.370 . S
C1296 C1298 1.363 . S
C1296 H1312 0.931 . S
C1297 C1296 1.370 . S
C1297 C1301 1.408 . S
C1298 C1296 1.363 . S
C1298 C1299 1.370 . S
C1298 C1302 1.524 . S
C1299 C1291 1.503 . S
C1299 C1298 1.370 . S
C1299 C1300 1.403 . S
C1300 C1299 1.403 . S
C1300 C1301 1.404 . S
C1300 C1303 1.539 . S
C1301 C1297 1.408 . S
C1301 C1300 1.404 . S
C1301 H1313 0.930 . S
C1302 C1298 1.524 . S
C1302 H1314 0.956 . S
C1302 H1315 0.961 . S
C1302 H1316 0.961 . S
C1303 C1300 1.539 . S
C1303 H1317 0.958 . S
C1303 H1318 0.961 . S
C1303 H1319 0.960 . S
H1304 C1288 0.931 . S
H1305 C1293 0.929 . S
H1306 C1294 0.960 . S
H1307 C1294 0.962 . S
H1308 C1294 0.960 . S
H1309 C1295 0.961 . S
H1310 C1295 0.961 . S
H1311 C1295 0.961 . S
H1312 C1296 0.931 . S
H1313 C1301 0.930 . S
H1314 C1302 0.956 . S
H1315 C1302 0.961 . S
H1316 C1302 0.961 . S
H1317 C1303 0.958 . S
H1318 C1303 0.961 . S
H1319 C1303 0.960 . S
C1320 C1321 1.391 . S
C1320 C1322 1.394 . S
C1320 H1336 0.931 . S
C1321 C1320 1.391 . S
C1321 C1325 1.376 . S
C1322 C1320 1.394 . S
C1322 C1323 1.369 . S
C1322 C1326 1.531 . S
C1323 C1322 1.369 . S
C1323 C1324 1.410 . S
C1323 C1331 1.503 . S
C1324 C1323 1.410 . S
C1324 C1325 1.392 . S
C1324 C1327 1.511 . S
C1325 C1321 1.376 . S
C1325 C1324 1.392 . S
C1325 H1337 0.929 . S
C1326 C1322 1.531 . S
C1326 H1338 0.960 . S
C1326 H1339 0.962 . S
C1326 H1340 0.960 . S
C1327 C1324 1.511 . S
C1327 H1341 0.961 . S
C1327 H1342 0.961 . S
C1327 H1343 0.961 . S
C1328 C1329 1.370 . S
C1328 C1330 1.363 . S
C1328 H1344 0.931 . S
C1329 C1328 1.370 . S
C1329 C1333 1.408 . S
C1330 C1328 1.363 . S
C1330 C1331 1.370 . S
C1330 C1334 1.524 . S
C1331 C1323 1.503 . S
C1331 C1330 1.370 . S
C1331 C1332 1.403 . S
C1332 C1331 1.403 . S
C1332 C1333 1.404 . S
C1332 C1335 1.539 . S
C1333 C1329 1.408 . S
C1333 C1332 1.404 . S
C1333 H1345 0.930 . S
C1334 C1330 1.524 . S
C1334 H1346 0.956 . S
C1334 H1347 0.961 . S
C1334 H1348 0.961 . S
C1335 C1332 1.539 . S
C1335 H1349 0.958 . S
C1335 H1350 0.961 . S
C1335 H1351 0.960 . S
H1336 C1320 0.931 . S
H1337 C1325 0.929 . S
H1338 C1326 0.960 . S
H1339 C1326 0.962 . S
H1340 C1326 0.960 . S
H1341 C1327 0.961 . S
H1342 C1327 0.961 . S
H1343 C1327 0.961 . S
H1344 C1328 0.931 . S
H1345 C1333 0.930 . S
H1346 C1334 0.956 . S
H1347 C1334 0.961 . S
H1348 C1334 0.961 . S
H1349 C1335 0.958 . S
H1350 C1335 0.961 . S
H1351 C1335 0.960 . S
C1352 C1353 1.391 . S
C1352 C1354 1.394 . S
C1352 H1368 0.931 . S
C1353 C1352 1.391 . S
C1353 C1357 1.376 . S
C1354 C1352 1.394 . S
C1354 C1355 1.369 . S
C1354 C1358 1.531 . S
C1355 C1354 1.369 . S
C1355 C1356 1.410 . S
C1355 C1363 1.503 . S
C1356 C1355 1.410 . S
C1356 C1357 1.392 . S
C1356 C1359 1.511 . S
C1357 C1353 1.376 . S
C1357 C1356 1.392 . S
C1357 H1369 0.929 . S
C1358 C1354 1.531 . S
C1358 H1370 0.960 . S
C1358 H1371 0.962 . S
C1358 H1372 0.960 . S
C1359 C1356 1.511 . S
C1359 H1373 0.961 . S
C1359 H1374 0.961 . S
C1359 H1375 0.961 . S
C1360 C1361 1.370 . S
C1360 C1362 1.363 . S
C1360 H1376 0.931 . S
C1361 C1360 1.370 . S
C1361 C1365 1.408 . S
C1362 C1360 1.363 . S
C1362 C1363 1.370 . S
C1362 C1366 1.524 . S
C1363 C1355 1.503 . S
C1363 C1362 1.370 . S
C1363 C1364 1.403 . S
C1364 C1363 1.403 . S
C1364 C1365 1.404 . S
C1364 C1367 1.539 . S
C1365 C1361 1.408 . S
C1365 C1364 1.404 . S
C1365 H1377 0.930 . S
C1366 C1362 1.524 . S
C1366 H1378 0.956 . S
C1366 H1379 0.961 . S
C1366 H1380 0.961 . S
C1367 C1364 1.539 . S
C1367 H1381 0.958 . S
C1367 H1382 0.961 . S
C1367 H1383 0.960 . S
H1368 C1352 0.931 . S
H1369 C1357 0.929 . S
H1370 C1358 0.960 . S
H1371 C1358 0.962 . S
H1372 C1358 0.960 . S
H1373 C1359 0.961 . S
H1374 C1359 0.961 . S
H1375 C1359 0.961 . S
H1376 C1360 0.931 . S
H1377 C1365 0.930 . S
H1378 C1366 0.956 . S
H1379 C1366 0.961 . S
H1380 C1366 0.961 . S
H1381 C1367 0.958 . S
H1382 C1367 0.961 . S
H1383 C1367 0.960 . S
C1384 C1385 1.391 . S
C1384 C1386 1.394 . S
C1384 H1400 0.931 . S
C1385 C1384 1.391 . S
C1385 C1389 1.376 . S
C1386 C1384 1.394 . S
C1386 C1387 1.369 . S
C1386 C1390 1.531 . S
C1387 C1386 1.369 . S
C1387 C1388 1.410 . S
C1387 C1395 1.503 . S
C1388 C1387 1.410 . S
C1388 C1389 1.392 . S
C1388 C1391 1.511 . S
C1389 C1385 1.376 . S
C1389 C1388 1.392 . S
C1389 H1401 0.929 . S
C1390 C1386 1.531 . S
C1390 H1402 0.960 . S
C1390 H1403 0.962 . S
C1390 H1404 0.960 . S
C1391 C1388 1.511 . S
C1391 H1405 0.961 . S
C1391 H1406 0.961 . S
C1391 H1407 0.961 . S
C1392 C1393 1.370 . S
C1392 C1394 1.363 . S
C1392 H1408 0.931 . S
C1393 C1392 1.370 . S
C1393 C1397 1.408 . S
C1394 C1392 1.363 . S
C1394 C1395 1.370 . S
C1394 C1398 1.524 . S
C1395 C1387 1.503 . S
C1395 C1394 1.370 . S
C1395 C1396 1.403 . S
C1396 C1395 1.403 . S
C1396 C1397 1.404 . S
C1396 C1399 1.539 . S
C1397 C1393 1.408 . S
C1397 C1396 1.404 . S
C1397 H1409 0.930 . S
C1398 C1394 1.524 . S
C1398 H1410 0.956 . S
C1398 H1411 0.961 . S
C1398 H1412 0.961 . S
C1399 C1396 1.539 . S
C1399 H1413 0.958 . S
C1399 H1414 0.961 . S
C1399 H1415 0.960 . S
H1400 C1384 0.931 . S
H1401 C1389 0.929 . S
H1402 C1390 0.960 . S
H1403 C1390 0.962 . S
H1404 C1390 0.960 . S
H1405 C1391 0.961 . S
H1406 C1391 0.961 . S
H1407 C1391 0.961 . S
H1408 C1392 0.931 . S
H1409 C1397 0.930 . S
H1410 C1398 0.956 . S
H1411 C1398 0.961 . S
H1412 C1398 0.961 . S
H1413 C1399 0.958 . S
H1414 C1399 0.961 . S
H1415 C1399 0.960 . S
C1416 C1417 1.391 . S
C1416 C1418 1.394 . S
C1416 H1432 0.931 . S
C1417 C1416 1.391 . S
C1417 C1421 1.376 . S
C1418 C1416 1.394 . S
C1418 C1419 1.369 . S
C1418 C1422 1.531 . S
C1419 C1418 1.369 . S
C1419 C1420 1.410 . S
C1419 C1427 1.503 . S
C1420 C1419 1.410 . S
C1420 C1421 1.392 . S
C1420 C1423 1.511 . S
C1421 C1417 1.376 . S
C1421 C1420 1.392 . S
C1421 H1433 0.929 . S
C1422 C1418 1.531 . S
C1422 H1434 0.960 . S
C1422 H1435 0.962 . S
C1422 H1436 0.960 . S
C1423 C1420 1.511 . S
C1423 H1437 0.961 . S
C1423 H1438 0.961 . S
C1423 H1439 0.961 . S
C1424 C1425 1.370 . S
C1424 C1426 1.363 . S
C1424 H1440 0.931 . S
C1425 C1424 1.370 . S
C1425 C1429 1.408 . S
C1426 C1424 1.363 . S
C1426 C1427 1.370 . S
C1426 C1430 1.524 . S
C1427 C1419 1.503 . S
C1427 C1426 1.370 . S
C1427 C1428 1.403 . S
C1428 C1427 1.403 . S
C1428 C1429 1.404 . S
C1428 C1431 1.539 . S
C1429 C1425 1.408 . S
C1429 C1428 1.404 . S
C1429 H1441 0.930 . S
C1430 C1426 1.524 . S
C1430 H1442 0.956 . S
C1430 H1443 0.961 . S
C1430 H1444 0.961 . S
C1431 C1428 1.539 . S
C1431 H1445 0.958 . S
C1431 H1446 0.961 . S
C1431 H1447 0.960 . S
H1432 C1416 0.931 . S
H1433 C1421 0.929 . S
H1434 C1422 0.960 . S
H1435 C1422 0.962 . S
H1436 C1422 0.960 . S
H1437 C1423 0.961 . S
H1438 C1423 0.961 . S
H1439 C1423 0.961 . S
H1440 C1424 0.931 . S
H1441 C1429 0.930 . S
H1442 C1430 0.956 . S
H1443 C1430 0.961 . S
H1444 C1430 0.961 . S
H1445 C1431 0.958 . S
H1446 C1431 0.961 . S
H1447 C1431 0.960 . S
C1448 C1449 1.391 . S
C1448 C1450 1.394 . S
C1448 H1464 0.931 . S
C1449 C1448 1.391 . S
C1449 C1453 1.376 . S
C1450 C1448 1.394 . S
C1450 C1451 1.369 . S
C1450 C1454 1.531 . S
C1451 C1450 1.369 . S
C1451 C1452 1.410 . S
C1451 C1459 1.503 . S
C1452 C1451 1.410 . S
C1452 C1453 1.392 . S
C1452 C1455 1.511 . S
C1453 C1449 1.376 . S
C1453 C1452 1.392 . S
C1453 H1465 0.929 . S
C1454 C1450 1.531 . S
C1454 H1466 0.960 . S
C1454 H1467 0.962 . S
C1454 H1468 0.960 . S
C1455 C1452 1.511 . S
C1455 H1469 0.961 . S
C1455 H1470 0.961 . S
C1455 H1471 0.961 . S
C1456 C1457 1.370 . S
C1456 C1458 1.363 . S
C1456 H1472 0.931 . S
C1457 C1456 1.370 . S
C1457 C1461 1.408 . S
C1458 C1456 1.363 . S
C1458 C1459 1.370 . S
C1458 C1462 1.524 . S
C1459 C1451 1.503 . S
C1459 C1458 1.370 . S
C1459 C1460 1.403 . S
C1460 C1459 1.403 . S
C1460 C1461 1.404 . S
C1460 C1463 1.539 . S
C1461 C1457 1.408 . S
C1461 C1460 1.404 . S
C1461 H1473 0.930 . S
C1462 C1458 1.524 . S
C1462 H1474 0.956 . S
C1462 H1475 0.961 . S
C1462 H1476 0.961 . S
C1463 C1460 1.539 . S
C1463 H1477 0.958 . S
C1463 H1478 0.961 . S
C1463 H1479 0.960 . S
H1464 C1448 0.931 . S
H1465 C1453 0.929 . S
H1466 C1454 0.960 . S
H1467 C1454 0.962 . S
H1468 C1454 0.960 . S
H1469 C1455 0.961 . S
H1470 C1455 0.961 . S
H1471 C1455 0.961 . S
H1472 C1456 0.931 . S
H1473 C1461 0.930 . S
H1474 C1462 0.956 . S
H1475 C1462 0.961 . S
H1476 C1462 0.961 . S
H1477 C1463 0.958 . S
H1478 C1463 0.961 . S
H1479 C1463 0.960 . S
C1480 C1481 1.391 . S
C1480 C1482 1.394 . S
C1480 H1496 0.931 . S
C1481 C1480 1.391 . S
C1481 C1485 1.376 . S
C1482 C1480 1.394 . S
C1482 C1483 1.369 . S
C1482 C1486 1.531 . S
C1483 C1482 1.369 . S
C1483 C1484 1.410 . S
C1483 C1491 1.503 . S
C1484 C1483 1.410 . S
C1484 C1485 1.392 . S
C1484 C1487 1.511 . S
C1485 C1481 1.376 . S
C1485 C1484 1.392 . S
C1485 H1497 0.929 . S
C1486 C1482 1.531 . S
C1486 H1498 0.960 . S
C1486 H1499 0.962 . S
C1486 H1500 0.960 . S
C1487 C1484 1.511 . S
C1487 H1501 0.961 . S
C1487 H1502 0.961 . S
C1487 H1503 0.961 . S
C1488 C1489 1.370 . S
C1488 C1490 1.363 . S
C1488 H1504 0.931 . S
C1489 C1488 1.370 . S
C1489 C1493 1.408 . S
C1490 C1488 1.363 . S
C1490 C1491 1.370 . S
C1490 C1494 1.524 . S
C1491 C1483 1.503 . S
C1491 C1490 1.370 . S
C1491 C1492 1.403 . S
C1492 C1491 1.403 . S
C1492 C1493 1.404 . S
C1492 C1495 1.539 . S
C1493 C1489 1.408 . S
C1493 C1492 1.404 . S
C1493 H1505 0.930 . S
C1494 C1490 1.524 . S
C1494 H1506 0.956 . S
C1494 H1507 0.961 . S
C1494 H1508 0.961 . S
C1495 C1492 1.539 . S
C1495 H1509 0.958 . S
C1495 H1510 0.961 . S
C1495 H1511 0.960 . S
H1496 C1480 0.931 . S
H1497 C1485 0.929 . S
H1498 C1486 0.960 . S
H1499 C1486 0.962 . S
H1500 C1486 0.960 . S
H1501 C1487 0.961 . S
H1502 C1487 0.961 . S
H1503 C1487 0.961 . S
H1504 C1488 0.931 . S
H1505 C1493 0.930 . S
H1506 C1494 0.956 . S
H1507 C1494 0.961 . S
H1508 C1494 0.961 . S
H1509 C1495 0.958 . S
H1510 C1495 0.961 . S
H1511 C1495 0.960 . S
C1512 C1513 1.391 . S
C1512 C1514 1.394 . S
C1512 H1528 0.931 . S
C1513 C1512 1.391 . S
C1513 C1517 1.376 . S
C1514 C1512 1.394 . S
C1514 C1515 1.369 . S
C1514 C1518 1.531 . S
C1515 C1514 1.369 . S
C1515 C1516 1.410 . S
C1515 C1523 1.503 . S
C1516 C1515 1.410 . S
C1516 C1517 1.392 . S
C1516 C1519 1.511 . S
C1517 C1513 1.376 . S
C1517 C1516 1.392 . S
C1517 H1529 0.929 . S
C1518 C1514 1.531 . S
C1518 H1530 0.960 . S
C1518 H1531 0.962 . S
C1518 H1532 0.960 . S
C1519 C1516 1.511 . S
C1519 H1533 0.961 . S
C1519 H1534 0.961 . S
C1519 H1535 0.961 . S
C1520 C1521 1.370 . S
C1520 C1522 1.363 . S
C1520 H1536 0.931 . S
C1521 C1520 1.370 . S
C1521 C1525 1.408 . S
C1522 C1520 1.363 . S
C1522 C1523 1.370 . S
C1522 C1526 1.524 . S
C1523 C1515 1.503 . S
C1523 C1522 1.370 . S
C1523 C1524 1.403 . S
C1524 C1523 1.403 . S
C1524 C1525 1.404 . S
C1524 C1527 1.539 . S
C1525 C1521 1.408 . S
C1525 C1524 1.404 . S
C1525 H1537 0.930 . S
C1526 C1522 1.524 . S
C1526 H1538 0.956 . S
C1526 H1539 0.961 . S
C1526 H1540 0.961 . S
C1527 C1524 1.539 . S
C1527 H1541 0.958 . S
C1527 H1542 0.961 . S
C1527 H1543 0.960 . S
H1528 C1512 0.931 . S
H1529 C1517 0.929 . S
H1530 C1518 0.960 . S
H1531 C1518 0.962 . S
H1532 C1518 0.960 . S
H1533 C1519 0.961 . S
H1534 C1519 0.961 . S
H1535 C1519 0.961 . S
H1536 C1520 0.931 . S
H1537 C1525 0.930 . S
H1538 C1526 0.956 . S
H1539 C1526 0.961 . S
H1540 C1526 0.961 . S
H1541 C1527 0.958 . S
H1542 C1527 0.961 . S
H1543 C1527 0.960 . S
C1544 C1545 1.391 . S
C1544 C1546 1.394 . S
C1544 H1560 0.931 . S
C1545 C1544 1.391 . S
C1545 C1549 1.376 . S
C1546 C1544 1.394 . S
C1546 C1547 1.369 . S
C1546 C1550 1.531 . S
C1547 C1546 1.369 . S
C1547 C1548 1.410 . S
C1547 C1555 1.503 . S
C1548 C1547 1.410 . S
C1548 C1549 1.392 . S
C1548 C1551 1.511 . S
C1549 C1545 1.376 . S
C1549 C1548 1.392 . S
C1549 H1561 0.929 . S
C1550 C1546 1.531 . S
C1550 H1562 0.960 . S
C1550 H1563 0.962 . S
C1550 H1564 0.960 . S
C1551 C1548 1.511 . S
C1551 H1565 0.961 . S
C1551 H1566 0.961 . S
C1551 H1567 0.961 . S
C1552 C1553 1.370 . S
C1552 C1554 1.363 . S
C1552 H1568 0.931 . S
C1553 C1552 1.370 . S
C1553 C1557 1.408 . S
C1554 C1552 1.363 . S
C1554 C1555 1.370 . S
C1554 C1558 1.524 . S
C1555 C1547 1.503 . S
C1555 C1554 1.370 . S
C1555 C1556 1.403 . S
C1556 C1555 1.403 . S
C1556 C1557 1.404 . S
C1556 C1559 1.539 . S
C1557 C1553 1.408 . S
C1557 C1556 1.404 . S
C1557 H1569 0.930 . S
C1558 C1554 1.524 . S
C1558 H1570 0.956 . S
C1558 H1571 0.961 . S
C1558 H1572 0.961 . S
C1559 C1556 1.539 . S
C1559 H1573 0.958 . S
C1559 H1574 0.961 . S
C1559 H1575 0.960 . S
H1560 C1544 0.931 . S
H1561 C1549 0.929 . S
H1562 C1550 0.960 . S
H1563 C1550 0.962 . S
H1564 C1550 0.960 . S
H1565 C1551 0.961 . S
H1566 C1551 0.961 . S
H1567 C1551 0.961 . S
H1568 C1552 0.931 . S
H1569 C1557 0.930 . S
H1570 C1558 0.956 . S
H1571 C1558 0.961 . S
H1572 C1558 0.961 . S
H1573 C1559 0.958 . S
H1574 C1559 0.961 . S
H1575 C1559 0.960 . S
C1576 C1577 1.391 . S
C1576 C1578 1.394 . S
C1576 H1592 0.931 . S
C1577 C1576 1.391 . S
C1577 C1581 1.376 . S
C1578 C1576 1.394 . S
C1578 C1579 1.369 . S
C1578 C1582 1.531 . S
C1579 C1578 1.369 . S
C1579 C1580 1.410 . S
C1579 C1587 1.503 . S
C1580 C1579 1.410 . S
C1580 C1581 1.392 . S
C1580 C1583 1.511 . S
C1581 C1577 1.376 . S
C1581 C1580 1.392 . S
C1581 H1593 0.929 . S
C1582 C1578 1.531 . S
C1582 H1594 0.960 . S
C1582 H1595 0.962 . S
C1582 H1596 0.960 . S
C1583 C1580 1.511 . S
C1583 H1597 0.961 . S
C1583 H1598 0.961 . S
C1583 H1599 0.961 . S
C1584 C1585 1.370 . S
C1584 C1586 1.363 . S
C1584 H1600 0.931 . S
C1585 C1584 1.370 . S
C1585 C1589 1.408 . S
C1586 C1584 1.363 . S
C1586 C1587 1.370 . S
C1586 C1590 1.524 . S
C1587 C1579 1.503 . S
C1587 C1586 1.370 . S
C1587 C1588 1.403 . S
C1588 C1587 1.403 . S
C1588 C1589 1.404 . S
C1588 C1591 1.539 . S
C1589 C1585 1.408 . S
C1589 C1588 1.404 . S
C1589 H1601 0.930 . S
C1590 C1586 1.524 . S
C1590 H1602 0.956 . S
C1590 H1603 0.961 . S
C1590 H1604 0.961 . S
C1591 C1588 1.539 . S
C1591 H1605 0.958 . S
C1591 H1606 0.961 . S
C1591 H1607 0.960 . S
H1592 C1576 0.931 . S
H1593 C1581 0.929 . S
H1594 C1582 0.960 . S
H1595 C1582 0.962 . S
H1596 C1582 0.960 . S
H1597 C1583 0.961 . S
H1598 C1583 0.961 . S
H1599 C1583 0.961 . S
H1600 C1584 0.931 . S
H1601 C1589 0.930 . S
H1602 C1590 0.956 . S
H1603 C1590 0.961 . S
H1604 C1590 0.961 . S
H1605 C1591 0.958 . S
H1606 C1591 0.961 . S
H1607 C1591 0.960 . S
C1608 C1609 1.391 . S
C1608 C1610 1.394 . S
C1608 H1624 0.931 . S
C1609 C1608 1.391 . S
C1609 C1613 1.376 . S
C1610 C1608 1.394 . S
C1610 C1611 1.369 . S
C1610 C1614 1.531 . S
C1611 C1610 1.369 . S
C1611 C1612 1.410 . S
C1611 C1619 1.503 . S
C1612 C1611 1.410 . S
C1612 C1613 1.392 . S
C1612 C1615 1.511 . S
C1613 C1609 1.376 . S
C1613 C1612 1.392 . S
C1613 H1625 0.929 . S
C1614 C1610 1.531 . S
C1614 H1626 0.960 . S
C1614 H1627 0.962 . S
C1614 H1628 0.960 . S
C1615 C1612 1.511 . S
C1615 H1629 0.961 . S
C1615 H1630 0.961 . S
C1615 H1631 0.961 . S
C1616 C1617 1.370 . S
C1616 C1618 1.363 . S
C1616 H1632 0.931 . S
C1617 C1616 1.370 . S
C1617 C1621 1.408 . S
C1618 C1616 1.363 . S
C1618 C1619 1.370 . S
C1618 C1622 1.524 . S
C1619 C1611 1.503 . S
C1619 C1618 1.370 . S
C1619 C1620 1.403 . S
C1620 C1619 1.403 . S
C1620 C1621 1.404 . S
C1620 C1623 1.539 . S
C1621 C1617 1.408 . S
C1621 C1620 1.404 . S
C1621 H1633 0.930 . S
C1622 C1618 1.524 . S
C1622 H1634 0.956 . S
C1622 H1635 0.961 . S
C1622 H1636 0.961 . S
C1623 C1620 1.539 . S
C1623 H1637 0.958 . S
C1623 H1638 0.961 . S
C1623 H1639 0.960 . S
H1624 C1608 0.931 . S
H1625 C1613 0.929 . S
H1626 C1614 0.960 . S
H1627 C1614 0.962 . S
H1628 C1614 0.960 . S
H1629 C1615 0.961 . S
H1630 C1615 0.961 . S
H1631 C1615 0.961 . S
H1632 C1616 0.931 . S
H1633 C1621 0.930 . S
H1634 C1622 0.956 . S
H1635 C1622 0.961 . S
H1636 C1622 0.961 . S
H1637 C1623 0.958 . S
H1638 C1623 0.961 . S
H1639 C1623 0.960 . S
C1640 C1641 1.391 . S
C1640 C1642 1.394 . S
C1640 H1656 0.931 . S
C1641 C1640 1.391 . S
C1641 C1645 1.376 . S
C1642 C1640 1.394 . S
C1642 C1643 1.369 . S
C1642 C1646 1.531 . S
C1643 C1642 1.369 . S
C1643 C1644 1.410 . S
C1643 C1651 1.503 . S
C1644 C1643 1.410 . S
C1644 C1645 1.392 . S
C1644 C1647 1.511 . S
C1645 C1641 1.376 . S
C1645 C1644 1.392 . S
C1645 H1657 0.929 . S
C1646 C1642 1.531 . S
C1646 H1658 0.960 . S
C1646 H1659 0.962 . S
C1646 H1660 0.960 . S
C1647 C1644 1.511 . S
C1647 H1661 0.961 . S
C1647 H1662 0.961 . S
C1647 H1663 0.961 . S
C1648 C1649 1.370 . S
C1648 C1650 1.363 . S
C1648 H1664 0.931 . S
C1649 C1648 1.370 . S
C1649 C1653 1.408 . S
C1650 C1648 1.363 . S
C1650 C1651 1.370 . S
C1650 C1654 1.524 . S
C1651 C1643 1.503 . S
C1651 C1650 1.370 . S
C1651 C1652 1.403 . S
C1652 C1651 1.403 . S
C1652 C1653 1.404 . S
C1652 C1655 1.539 . S
C1653 C1649 1.408 . S
C1653 C1652 1.404 . S
C1653 H1665 0.930 . S
C1654 C1650 1.524 . S
C1654 H1666 0.956 . S
C1654 H1667 0.961 . S
C1654 H1668 0.961 . S
C1655 C1652 1.539 . S
C1655 H1669 0.958 . S
C1655 H1670 0.961 . S
C1655 H1671 0.960 . S
H1656 C1640 0.931 . S
H1657 C1645 0.929 . S
H1658 C1646 0.960 . S
H1659 C1646 0.962 . S
H1660 C1646 0.960 . S
H1661 C1647 0.961 . S
H1662 C1647 0.961 . S
H1663 C1647 0.961 . S
H1664 C1648 0.931 . S
H1665 C1653 0.930 . S
H1666 C1654 0.956 . S
H1667 C1654 0.961 . S
H1668 C1654 0.961 . S
H1669 C1655 0.958 . S
H1670 C1655 0.961 . S
H1671 C1655 0.960 . S
C1672 C1673 1.391 . S
C1672 C1674 1.394 . S
C1672 H1688 0.931 . S
C1673 C1672 1.391 . S
C1673 C1677 1.376 . S
C1674 C1672 1.394 . S
C1674 C1675 1.369 . S
C1674 C1678 1.531 . S
C1675 C1674 1.369 . S
C1675 C1676 1.410 . S
C1675 C1683 1.503 . S
C1676 C1675 1.410 . S
C1676 C1677 1.392 . S
C1676 C1679 1.511 . S
C1677 C1673 1.376 . S
C1677 C1676 1.392 . S
C1677 H1689 0.929 . S
C1678 C1674 1.531 . S
C1678 H1690 0.960 . S
C1678 H1691 0.962 . S
C1678 H1692 0.960 . S
C1679 C1676 1.511 . S
C1679 H1693 0.961 . S
C1679 H1694 0.961 . S
C1679 H1695 0.961 . S
C1680 C1681 1.370 . S
C1680 C1682 1.363 . S
C1680 H1696 0.931 . S
C1681 C1680 1.370 . S
C1681 C1685 1.408 . S
C1682 C1680 1.363 . S
C1682 C1683 1.370 . S
C1682 C1686 1.524 . S
C1683 C1675 1.503 . S
C1683 C1682 1.370 . S
C1683 C1684 1.403 . S
C1684 C1683 1.403 . S
C1684 C1685 1.404 . S
C1684 C1687 1.539 . S
C1685 C1681 1.408 . S
C1685 C1684 1.404 . S
C1685 H1697 0.930 . S
C1686 C1682 1.524 . S
C1686 H1698 0.956 . S
C1686 H1699 0.961 . S
C1686 H1700 0.961 . S
C1687 C1684 1.539 . S
C1687 H1701 0.958 . S
C1687 H1702 0.961 . S
C1687 H1703 0.960 . S
H1688 C1672 0.931 . S
H1689 C1677 0.929 . S
H1690 C1678 0.960 . S
H1691 C1678 0.962 . S
H1692 C1678 0.960 . S
H1693 C1679 0.961 . S
H1694 C1679 0.961 . S
H1695 C1679 0.961 . S
H1696 C1680 0.931 . S
H1697 C1685 0.930 . S
H1698 C1686 0.956 . S
H1699 C1686 0.961 . S
H1700 C1686 0.961 . S
H1701 C1687 0.958 . S
H1702 C1687 0.961 . S
H1703 C1687 0.960 . S
C1704 C1705 1.391 . S
C1704 C1706 1.394 . S
C1704 H1720 0.931 . S
C1705 C1704 1.391 . S
C1705 C1709 1.376 . S
C1706 C1704 1.394 . S
C1706 C1707 1.369 . S
C1706 C1710 1.531 . S
C1707 C1706 1.369 . S
C1707 C1708 1.410 . S
C1707 C1715 1.503 . S
C1708 C1707 1.410 . S
C1708 C1709 1.392 . S
C1708 C1711 1.511 . S
C1709 C1705 1.376 . S
C1709 C1708 1.392 . S
C1709 H1721 0.929 . S
C1710 C1706 1.531 . S
C1710 H1722 0.960 . S
C1710 H1723 0.962 . S
C1710 H1724 0.960 . S
C1711 C1708 1.511 . S
C1711 H1725 0.961 . S
C1711 H1726 0.961 . S
C1711 H1727 0.961 . S
C1712 C1713 1.370 . S
C1712 C1714 1.363 . S
C1712 H1728 0.931 . S
C1713 C1712 1.370 . S
C1713 C1717 1.408 . S
C1714 C1712 1.363 . S
C1714 C1715 1.370 . S
C1714 C1718 1.524 . S
C1715 C1707 1.503 . S
C1715 C1714 1.370 . S
C1715 C1716 1.403 . S
C1716 C1715 1.403 . S
C1716 C1717 1.404 . S
C1716 C1719 1.539 . S
C1717 C1713 1.408 . S
C1717 C1716 1.404 . S
C1717 H1729 0.930 . S
C1718 C1714 1.524 . S
C1718 H1730 0.956 . S
C1718 H1731 0.961 . S
C1718 H1732 0.961 . S
C1719 C1716 1.539 . S
C1719 H1733 0.958 . S
C1719 H1734 0.961 . S
C1719 H1735 0.960 . S
H1720 C1704 0.931 . S
H1721 C1709 0.929 . S
H1722 C1710 0.960 . S
H1723 C1710 0.962 . S
H1724 C1710 0.960 . S
H1725 C1711 0.961 . S
H1726 C1711 0.961 . S
H1727 C1711 0.961 . S
H1728 C1712 0.931 . S
H1729 C1717 0.930 . S
H1730 C1718 0.956 . S
H1731 C1718 0.961 . S
H1732 C1718 0.961 . S
H1733 C1719 0.958 . S
H1734 C1719 0.961 . S
H1735 C1719 0.960 . S
C1736 C1737 1.391 . S
C1736 C1738 1.394 . S
C1736 H1752 0.931 . S
C1737 C1736 1.391 . S
C1737 C1741 1.376 . S
C1738 C1736 1.394 . S
C1738 C1739 1.369 . S
C1738 C1742 1.531 . S
C1739 C1738 1.369 . S
C1739 C1740 1.410 . S
C1739 C1747 1.503 . S
C1740 C1739 1.410 . S
C1740 C1741 1.392 . S
C1740 C1743 1.511 . S
C1741 C1737 1.376 . S
C1741 C1740 1.392 . S
C1741 H1753 0.929 . S
C1742 C1738 1.531 . S
C1742 H1754 0.960 . S
C1742 H1755 0.962 . S
C1742 H1756 0.960 . S
C1743 C1740 1.511 . S
C1743 H1757 0.961 . S
C1743 H1758 0.961 . S
C1743 H1759 0.961 . S
C1744 C1745 1.370 . S
C1744 C1746 1.363 . S
C1744 H1760 0.931 . S
C1745 C1744 1.370 . S
C1745 C1749 1.408 . S
C1746 C1744 1.363 . S
C1746 C1747 1.370 . S
C1746 C1750 1.524 . S
C1747 C1739 1.503 . S
C1747 C1746 1.370 . S
C1747 C1748 1.403 . S
C1748 C1747 1.403 . S
C1748 C1749 1.404 . S
C1748 C1751 1.539 . S
C1749 C1745 1.408 . S
C1749 C1748 1.404 . S
C1749 H1761 0.930 . S
C1750 C1746 1.524 . S
C1750 H1762 0.956 . S
C1750 H1763 0.961 . S
C1750 H1764 0.961 . S
C1751 C1748 1.539 . S
C1751 H1765 0.958 . S
C1751 H1766 0.961 . S
C1751 H1767 0.960 . S
H1752 C1736 0.931 . S
H1753 C1741 0.929 . S
H1754 C1742 0.960 . S
H1755 C1742 0.962 . S
H1756 C1742 0.960 . S
H1757 C1743 0.961 . S
H1758 C1743 0.961 . S
H1759 C1743 0.961 . S
H1760 C1744 0.931 . S
H1761 C1749 0.930 . S
H1762 C1750 0.956 . S
H1763 C1750 0.961 . S
H1764 C1750 0.961 . S
H1765 C1751 0.958 . S
H1766 C1751 0.961 . S
H1767 C1751 0.960 . S
C1768 C1769 1.391 . S
C1768 C1770 1.394 . S
C1768 H1784 0.931 . S
C1769 C1768 1.391 . S
C1769 C1773 1.376 . S
C1770 C1768 1.394 . S
C1770 C1771 1.369 . S
C1770 C1774 1.531 . S
C1771 C1770 1.369 . S
C1771 C1772 1.410 . S
C1771 C1779 1.503 . S
C1772 C1771 1.410 . S
C1772 C1773 1.392 . S
C1772 C1775 1.511 . S
C1773 C1769 1.376 . S
C1773 C1772 1.392 . S
C1773 H1785 0.929 . S
C1774 C1770 1.531 . S
C1774 H1786 0.960 . S
C1774 H1787 0.962 . S
C1774 H1788 0.960 . S
C1775 C1772 1.511 . S
C1775 H1789 0.961 . S
C1775 H1790 0.961 . S
C1775 H1791 0.961 . S
C1776 C1777 1.370 . S
C1776 C1778 1.363 . S
C1776 H1792 0.931 . S
C1777 C1776 1.370 . S
C1777 C1781 1.408 . S
C1778 C1776 1.363 . S
C1778 C1779 1.370 . S
C1778 C1782 1.524 . S
C1779 C1771 1.503 . S
C1779 C1778 1.370 . S
C1779 C1780 1.403 . S
C1780 C1779 1.403 . S
C1780 C1781 1.404 . S
C1780 C1783 1.539 . S
C1781 C1777 1.408 . S
C1781 C1780 1.404 . S
C1781 H1793 0.930 . S
C1782 C1778 1.524 . S
C1782 H1794 0.956 . S
C1782 H1795 0.961 . S
C1782 H1796 0.961 . S
C1783 C1780 1.539 . S
C1783 H1797 0.958 . S
C1783 H1798 0.961 . S
C1783 H1799 0.960 . S
H1784 C1768 0.931 . S
H1785 C1773 0.929 . S
H1786 C1774 0.960 . S
H1787 C1774 0.962 . S
H1788 C1774 0.960 . S
H1789 C1775 0.961 . S
H1790 C1775 0.961 . S
H1791 C1775 0.961 . S
H1792 C1776 0.931 . S
H1793 C1781 0.930 . S
H1794 C1782 0.956 . S
H1795 C1782 0.961 . S
H1796 C1782 0.961 . S
H1797 C1783 0.958 . S
H1798 C1783 0.961 . S
H1799 C1783 0.960 . S
C1800 C1801 1.391 . S
C1800 C1802 1.394 . S
C1800 H1816 0.931 . S
C1801 C1800 1.391 . S
C1801 C1805 1.376 . S
C1802 C1800 1.394 . S
C1802 C1803 1.369 . S
C1802 C1806 1.531 . S
C1803 C1802 1.369 . S
C1803 C1804 1.410 . S
C1803 C1811 1.503 . S
C1804 C1803 1.410 . S
C1804 C1805 1.392 . S
C1804 C1807 1.511 . S
C1805 C1801 1.376 . S
C1805 C1804 1.392 . S
C1805 H1817 0.929 . S
C1806 C1802 1.531 . S
C1806 H1818 0.960 . S
C1806 H1819 0.962 . S
C1806 H1820 0.960 . S
C1807 C1804 1.511 . S
C1807 H1821 0.961 . S
C1807 H1822 0.961 . S
C1807 H1823 0.961 . S
C1808 C1809 1.370 . S
C1808 C1810 1.363 . S
C1808 H1824 0.931 . S
C1809 C1808 1.370 . S
C1809 C1813 1.408 . S
C1810 C1808 1.363 . S
C1810 C1811 1.370 . S
C1810 C1814 1.524 . S
C1811 C1803 1.503 . S
C1811 C1810 1.370 . S
C1811 C1812 1.403 . S
C1812 C1811 1.403 . S
C1812 C1813 1.404 . S
C1812 C1815 1.539 . S
C1813 C1809 1.408 . S
C1813 C1812 1.404 . S
C1813 H1825 0.930 . S
C1814 C1810 1.524 . S
C1814 H1826 0.956 . S
C1814 H1827 0.961 . S
C1814 H1828 0.961 . S
C1815 C1812 1.539 . S
C1815 H1829 0.958 . S
C1815 H1830 0.961 . S
C1815 H1831 0.960 . S
H1816 C1800 0.931 . S
H1817 C1805 0.929 . S
H1818 C1806 0.960 . S
H1819 C1806 0.962 . S
H1820 C1806 0.960 . S
H1821 C1807 0.961 . S
H1822 C1807 0.961 . S
H1823 C1807 0.961 . S
H1824 C1808 0.931 . S
H1825 C1813 0.930 . S
H1826 C1814 0.956 . S
H1827 C1814 0.961 . S
H1828 C1814 0.961 . S
H1829 C1815 0.958 . S
H1830 C1815 0.961 . S
H1831 C1815 0.960 . S
C1832 C1833 1.391 . S
C1832 C1834 1.394 . S
C1832 H1848 0.931 . S
C1833 C1832 1.391 . S
C1833 C1837 1.376 . S
C1834 C1832 1.394 . S
C1834 C1835 1.369 . S
C1834 C1838 1.531 . S
C1835 C1834 1.369 . S
C1835 C1836 1.410 . S
C1835 C1843 1.503 . S
C1836 C1835 1.410 . S
C1836 C1837 1.392 . S
C1836 C1839 1.511 . S
C1837 C1833 1.376 . S
C1837 C1836 1.392 . S
C1837 H1849 0.929 . S
C1838 C1834 1.531 . S
C1838 H1850 0.960 . S
C1838 H1851 0.962 . S
C1838 H1852 0.960 . S
C1839 C1836 1.511 . S
C1839 H1853 0.961 . S
C1839 H1854 0.961 . S
C1839 H1855 0.961 . S
C1840 C1841 1.370 . S
C1840 C1842 1.363 . S
C1840 H1856 0.931 . S
C1841 C1840 1.370 . S
C1841 C1845 1.408 . S
C1842 C1840 1.363 . S
C1842 C1843 1.370 . S
C1842 C1846 1.524 . S
C1843 C1835 1.503 . S
C1843 C1842 1.370 . S
C1843 C1844 1.403 . S
C1844 C1843 1.403 . S
C1844 C1845 1.404 . S
C1844 C1847 1.539 . S
C1845 C1841 1.408 . S
C1845 C1844 1.404 . S
C1845 H1857 0.930 . S
C1846 C1842 1.524 . S
C1846 H1858 0.956 . S
C1846 H1859 0.961 . S
C1846 H1860 0.961 . S
C1847 C1844 1.539 . S
C1847 H1861 0.958 . S
C1847 H1862 0.961 . S
C1847 H1863 0.960 . S
H1848 C1832 0.931 . S
H1849 C1837 0.929 . S
H1850 C1838 0.960 . S
H1851 C1838 0.962 . S
H1852 C1838 0.960 . S
H1853 C1839 0.961 . S
H1854 C1839 0.961 . S
H1855 C1839 0.961 . S
H1856 C1840 0.931 . S
H1857 C1845 0.930 . S
H1858 C1846 0.956 . S
H1859 C1846 0.961 . S
H1860 C1846 0.961 . S
H1861 C1847 0.958 . S
H1862 C1847 0.961 . S
H1863 C1847 0.960 . S
C1864 C1865 1.391 . S
C1864 C1866 1.394 . S
C1864 H1880 0.931 . S
C1865 C1864 1.391 . S
C1865 C1869 1.376 . S
C1866 C1864 1.394 . S
C1866 C1867 1.369 . S
C1866 C1870 1.531 . S
C1867 C1866 1.369 . S
C1867 C1868 1.410 . S
C1867 C1875 1.503 . S
C1868 C1867 1.410 . S
C1868 C1869 1.392 . S
C1868 C1871 1.511 . S
C1869 C1865 1.376 . S
C1869 C1868 1.392 . S
C1869 H1881 0.929 . S
C1870 C1866 1.531 . S
C1870 H1882 0.960 . S
C1870 H1883 0.962 . S
C1870 H1884 0.960 . S
C1871 C1868 1.511 . S
C1871 H1885 0.961 . S
C1871 H1886 0.961 . S
C1871 H1887 0.961 . S
C1872 C1873 1.370 . S
C1872 C1874 1.363 . S
C1872 H1888 0.931 . S
C1873 C1872 1.370 . S
C1873 C1877 1.408 . S
C1874 C1872 1.363 . S
C1874 C1875 1.370 . S
C1874 C1878 1.524 . S
C1875 C1867 1.503 . S
C1875 C1874 1.370 . S
C1875 C1876 1.403 . S
C1876 C1875 1.403 . S
C1876 C1877 1.404 . S
C1876 C1879 1.539 . S
C1877 C1873 1.408 . S
C1877 C1876 1.404 . S
C1877 H1889 0.930 . S
C1878 C1874 1.524 . S
C1878 H1890 0.956 . S
C1878 H1891 0.961 . S
C1878 H1892 0.961 . S
C1879 C1876 1.539 . S
C1879 H1893 0.958 . S
C1879 H1894 0.961 . S
C1879 H1895 0.960 . S
H1880 C1864 0.931 . S
H1881 C1869 0.929 . S
H1882 C1870 0.960 . S
H1883 C1870 0.962 . S
H1884 C1870 0.960 . S
H1885 C1871 0.961 . S
H1886 C1871 0.961 . S
H1887 C1871 0.961 . S
H1888 C1872 0.931 . S
H1889 C1877 0.930 . S
H1890 C1878 0.956 . S
H1891 C1878 0.961 . S
H1892 C1878 0.961 . S
H1893 C1879 0.958 . S
H1894 C1879 0.961 . S
H1895 C1879 0.960 . S
C1896 C1897 1.391 . S
C1896 C1898 1.394 . S
C1896 H1912 0.931 . S
C1897 C1896 1.391 . S
C1897 C1901 1.376 . S
C1898 C1896 1.394 . S
C1898 C1899 1.369 . S
C1898 C1902 1.531 . S
C1899 C1898 1.369 . S
C1899 C1900 1.410 . S
C1899 C1907 1.503 . S
C1900 C1899 1.410 . S
C1900 C1901 1.392 . S
C1900 C1903 1.511 . S
C1901 C1897 1.376 . S
C1901 C1900 1.392 . S
C1901 H1913 0.929 . S
C1902 C1898 1.531 . S
C1902 H1914 0.960 . S
C1902 H1915 0.962 . S
C1902 H1916 0.960 . S
C1903 C1900 1.511 . S
C1903 H1917 0.961 . S
C1903 H1918 0.961 . S
C1903 H1919 0.961 . S
C1904 C1905 1.370 . S
C1904 C1906 1.363 . S
C1904 H1920 0.931 . S
C1905 C1904 1.370 . S
C1905 C1909 1.408 . S
C1906 C1904 1.363 . S
C1906 C1907 1.370 . S
C1906 C1910 1.524 . S
C1907 C1899 1.503 . S
C1907 C1906 1.370 . S
C1907 C1908 1.403 . S
C1908 C1907 1.403 . S
C1908 C1909 1.404 . S
C1908 C1911 1.539 . S
C1909 C1905 1.408 . S
C1909 C1908 1.404 . S
C1909 H1921 0.930 . S
C1910 C1906 1.524 . S
C1910 H1922 0.956 . S
C1910 H1923 0.961 . S
C1910 H1924 0.961 . S
C1911 C1908 1.539 . S
C1911 H1925 0.958 . S
C1911 H1926 0.961 . S
C1911 H1927 0.960 . S
H1912 C1896 0.931 . S
H1913 C1901 0.929 . S
H1914 C1902 0.960 . S
H1915 C1902 0.962 . S
H1916 C1902 0.960 . S
H1917 C1903 0.961 . S
H1918 C1903 0.961 . S
H1919 C1903 0.961 . S
H1920 C1904 0.931 . S
H1921 C1909 0.930 . S
H1922 C1910 0.956 . S
H1923 C1910 0.961 . S
H1924 C1910 0.961 . S
H1925 C1911 0.958 . S
H1926 C1911 0.961 . S
H1927 C1911 0.960 . S
C1928 C1929 1.391 . S
C1928 C1930 1.394 . S
C1928 H1944 0.931 . S
C1929 C1928 1.391 . S
C1929 C1933 1.376 . S
C1930 C1928 1.394 . S
C1930 C1931 1.369 . S
C1930 C1934 1.531 . S
C1931 C1930 1.369 . S
C1931 C1932 1.410 . S
C1931 C1939 1.503 . S
C1932 C1931 1.410 . S
C1932 C1933 1.392 . S
C1932 C1935 1.511 . S
C1933 C1929 1.376 . S
C1933 C1932 1.392 . S
C1933 H1945 0.929 . S
C1934 C1930 1.531 . S
C1934 H1946 0.960 . S
C1934 H1947 0.962 . S
C1934 H1948 0.960 . S
C1935 C1932 1.511 . S
C1935 H1949 0.961 . S
C1935 H1950 0.961 . S
C1935 H1951 0.961 . S
C1936 C1937 1.370 . S
C1936 C1938 1.363 . S
C1936 H1952 0.931 . S
C1937 C1936 1.370 . S
C1937 C1941 1.408 . S
C1938 C1936 1.363 . S
C1938 C1939 1.370 . S
C1938 C1942 1.524 . S
C1939 C1931 1.503 . S
C1939 C1938 1.370 . S
C1939 C1940 1.403 . S
C1940 C1939 1.403 . S
C1940 C1941 1.404 . S
C1940 C1943 1.539 . S
C1941 C1937 1.408 . S
C1941 C1940 1.404 . S
C1941 H1953 0.930 . S
C1942 C1938 1.524 . S
C1942 H1954 0.956 . S
C1942 H1955 0.961 . S
C1942 H1956 0.961 . S
C1943 C1940 1.539 . S
C1943 H1957 0.958 . S
C1943 H1958 0.961 . S
C1943 H1959 0.960 . S
H1944 C1928 0.931 . S
H1945 C1933 0.929 . S
H1946 C1934 0.960 . S
H1947 C1934 0.962 . S
H1948 C1934 0.960 . S
H1949 C1935 0.961 . S
H1950 C1935 0.961 . S
H1951 C1935 0.961 . S
H1952 C1936 0.931 . S
H1953 C1941 0.930 . S
H1954 C1942 0.956 . S
H1955 C1942 0.961 . S
H1956 C1942 0.961 . S
H1957 C1943 0.958 . S
H1958 C1943 0.961 . S
H1959 C1943 0.960 . S
C1960 C1961 1.391 . S
C1960 C1962 1.394 . S
C1960 H1976 0.931 . S
C1961 C1960 1.391 . S
C1961 C1965 1.376 . S
C1962 C1960 1.394 . S
C1962 C1963 1.369 . S
C1962 C1966 1.531 . S
C1963 C1962 1.369 . S
C1963 C1964 1.410 . S
C1963 C1971 1.503 . S
C1964 C1963 1.410 . S
C1964 C1965 1.392 . S
C1964 C1967 1.511 . S
C1965 C1961 1.376 . S
C1965 C1964 1.392 . S
C1965 H1977 0.929 . S
C1966 C1962 1.531 . S
C1966 H1978 0.960 . S
C1966 H1979 0.962 . S
C1966 H1980 0.960 . S
C1967 C1964 1.511 . S
C1967 H1981 0.961 . S
C1967 H1982 0.961 . S
C1967 H1983 0.961 . S
C1968 C1969 1.370 . S
C1968 C1970 1.363 . S
C1968 H1984 0.931 . S
C1969 C1968 1.370 . S
C1969 C1973 1.408 . S
C1970 C1968 1.363 . S
C1970 C1971 1.370 . S
C1970 C1974 1.524 . S
C1971 C1963 1.503 . S
C1971 C1970 1.370 . S
C1971 C1972 1.403 . S
C1972 C1971 1.403 . S
C1972 C1973 1.404 . S
C1972 C1975 1.539 . S
C1973 C1969 1.408 . S
C1973 C1972 1.404 . S
C1973 H1985 0.930 . S
C1974 C1970 1.524 . S
C1974 H1986 0.956 . S
C1974 H1987 0.961 . S
C1974 H1988 0.961 . S
C1975 C1972 1.539 . S
C1975 H1989 0.958 . S
C1975 H1990 0.961 . S
C1975 H1991 0.960 . S
H1976 C1960 0.931 . S
H1977 C1965 0.929 . S
H1978 C1966 0.960 . S
H1979 C1966 0.962 . S
H1980 C1966 0.960 . S
H1981 C1967 0.961 . S
H1982 C1967 0.961 . S
H1983 C1967 0.961 . S
H1984 C1968 0.931 . S
H1985 C1973 0.930 . S
H1986 C1974 0.956 . S
H1987 C1974 0.961 . S
H1988 C1974 0.961 . S
H1989 C1975 0.958 . S
H1990 C1975 0.961 . S
H1991 C1975 0.960 . S
C1992 C1993 1.391 . S
C1992 C1994 1.394 . S
C1992 H2008 0.931 . S
C1993 C1992 1.391 . S
C1993 C1997 1.376 . S
C1994 C1992 1.394 . S
C1994 C1995 1.369 . S
C1994 C1998 1.531 . S
C1995 C1994 1.369 . S
C1995 C1996 1.410 . S
C1995 C2003 1.503 . S
C1996 C1995 1.410 . S
C1996 C1997 1.392 . S
C1996 C1999 1.511 . S
C1997 C1993 1.376 . S
C1997 C1996 1.392 . S
C1997 H2009 0.929 . S
C1998 C1994 1.531 . S
C1998 H2010 0.960 . S
C1998 H2011 0.962 . S
C1998 H2012 0.960 . S
C1999 C1996 1.511 . S
C1999 H2013 0.961 . S
C1999 H2014 0.961 . S
C1999 H2015 0.961 . S
C2000 C2001 1.370 . S
C2000 C2002 1.363 . S
C2000 H2016 0.931 . S
C2001 C2000 1.370 . S
C2001 C2005 1.408 . S
C2002 C2000 1.363 . S
C2002 C2003 1.370 . S
C2002 C2006 1.524 . S
C2003 C1995 1.503 . S
C2003 C2002 1.370 . S
C2003 C2004 1.403 . S
C2004 C2003 1.403 . S
C2004 C2005 1.404 . S
C2004 C2007 1.539 . S
C2005 C2001 1.408 . S
C2005 C2004 1.404 . S
C2005 H2017 0.930 . S
C2006 C2002 1.524 . S
C2006 H2018 0.956 . S
C2006 H2019 0.961 . S
C2006 H2020 0.961 . S
C2007 C2004 1.539 . S
C2007 H2021 0.958 . S
C2007 H2022 0.961 . S
C2007 H2023 0.960 . S
H2008 C1992 0.931 . S
H2009 C1997 0.929 . S
H2010 C1998 0.960 . S
H2011 C1998 0.962 . S
H2012 C1998 0.960 . S
H2013 C1999 0.961 . S
H2014 C1999 0.961 . S
H2015 C1999 0.961 . S
H2016 C2000 0.931 . S
H2017 C2005 0.930 . S
H2018 C2006 0.956 . S
H2019 C2006 0.961 . S
H2020 C2006 0.961 . S
H2021 C2007 0.958 . S
H2022 C2007 0.961 . S
H2023 C2007 0.960 . S
C2024 C2025 1.391 . S
C2024 C2026 1.394 . S
C2024 H2040 0.931 . S
C2025 C2024 1.391 . S
C2025 C2029 1.376 . S
C2026 C2024 1.394 . S
C2026 C2027 1.369 . S
C2026 C2030 1.531 . S
C2027 C2026 1.369 . S
C2027 C2028 1.410 . S
C2027 C2035 1.503 . S
C2028 C2027 1.410 . S
C2028 C2029 1.392 . S
C2028 C2031 1.511 . S
C2029 C2025 1.376 . S
C2029 C2028 1.392 . S
C2029 H2041 0.929 . S
C2030 C2026 1.531 . S
C2030 H2042 0.960 . S
C2030 H2043 0.962 . S
C2030 H2044 0.960 . S
C2031 C2028 1.511 . S
C2031 H2045 0.961 . S
C2031 H2046 0.961 . S
C2031 H2047 0.961 . S
C2032 C2033 1.370 . S
C2032 C2034 1.363 . S
C2032 H2048 0.931 . S
C2033 C2032 1.370 . S
C2033 C2037 1.408 . S
C2034 C2032 1.363 . S
C2034 C2035 1.370 . S
C2034 C2038 1.524 . S
C2035 C2027 1.503 . S
C2035 C2034 1.370 . S
C2035 C2036 1.403 . S
C2036 C2035 1.403 . S
C2036 C2037 1.404 . S
C2036 C2039 1.539 . S
C2037 C2033 1.408 . S
C2037 C2036 1.404 . S
C2037 H2049 0.930 . S
C2038 C2034 1.524 . S
C2038 H2050 0.956 . S
C2038 H2051 0.961 . S
C2038 H2052 0.961 . S
C2039 C2036 1.539 . S
C2039 H2053 0.958 . S
C2039 H2054 0.961 . S
C2039 H2055 0.960 . S
H2040 C2024 0.931 . S
H2041 C2029 0.929 . S
H2042 C2030 0.960 . S
H2043 C2030 0.962 . S
H2044 C2030 0.960 . S
H2045 C2031 0.961 . S
H2046 C2031 0.961 . S
H2047 C2031 0.961 . S
H2048 C2032 0.931 . S
H2049 C2037 0.930 . S
H2050 C2038 0.956 . S
H2051 C2038 0.961 . S
H2052 C2038 0.961 . S
H2053 C2039 0.958 . S
H2054 C2039 0.961 . S
H2055 C2039 0.960 . S
C2056 C2057 1.391 . S
C2056 C2058 1.394 . S
C2056 H2072 0.931 . S
C2057 C2056 1.391 . S
C2057 C2061 1.376 . S
C2058 C2056 1.394 . S
C2058 C2059 1.369 . S
C2058 C2062 1.531 . S
C2059 C2058 1.369 . S
C2059 C2060 1.410 . S
C2059 C2067 1.503 . S
C2060 C2059 1.410 . S
C2060 C2061 1.392 . S
C2060 C2063 1.511 . S
C2061 C2057 1.376 . S
C2061 C2060 1.392 . S
C2061 H2073 0.929 . S
C2062 C2058 1.531 . S
C2062 H2074 0.960 . S
C2062 H2075 0.962 . S
C2062 H2076 0.960 . S
C2063 C2060 1.511 . S
C2063 H2077 0.961 . S
C2063 H2078 0.961 . S
C2063 H2079 0.961 . S
C2064 C2065 1.370 . S
C2064 C2066 1.363 . S
C2064 H2080 0.931 . S
C2065 C2064 1.370 . S
C2065 C2069 1.408 . S
C2066 C2064 1.363 . S
C2066 C2067 1.370 . S
C2066 C2070 1.524 . S
C2067 C2059 1.503 . S
C2067 C2066 1.370 . S
C2067 C2068 1.403 . S
C2068 C2067 1.403 . S
C2068 C2069 1.404 . S
C2068 C2071 1.539 . S
C2069 C2065 1.408 . S
C2069 C2068 1.404 . S
C2069 H2081 0.930 . S
C2070 C2066 1.524 . S
C2070 H2082 0.956 . S
C2070 H2083 0.961 . S
C2070 H2084 0.961 . S
C2071 C2068 1.539 . S
C2071 H2085 0.958 . S
C2071 H2086 0.961 . S
C2071 H2087 0.960 . S
H2072 C2056 0.931 . S
H2073 C2061 0.929 . S
H2074 C2062 0.960 . S
H2075 C2062 0.962 . S
H2076 C2062 0.960 . S
H2077 C2063 0.961 . S
H2078 C2063 0.961 . S
H2079 C2063 0.961 . S
H2080 C2064 0.931 . S
H2081 C2069 0.930 . S
H2082 C2070 0.956 . S
H2083 C2070 0.961 . S
H2084 C2070 0.961 . S
H2085 C2071 0.958 . S
H2086 C2071 0.961 . S
H2087 C2071 0.960 . S
C553 N518 1.130 . S
C561 N12 1.208 . S
C585 C39 1.652 . S
C593 C536 1.668 . S
C617 N472 1.161 . S
C625 N58 1.190 . S
C649 C490 1.759 . S
C657 C76 1.747 . S
C681 C499 1.601 . S
C689 N104 1.540 . S
C713 N117 1.283 . S
C721 N508 1.297 . S
C745 C545 1.516 . S
C753 N150 1.470 . S
C777 C177 1.302 . S
C785 N462 1.291 . S
C809 C191 1.288 . S
C817 N439 1.284 . S
C841 C384 1.809 . S
C849 C223 1.820 . S
C873 N232 1.110 . S
C881 N393 1.143 . S
C905 N426 1.578 . S
C913 C269 1.623 . S
C937 C260 1.634 . S
C945 N301 1.621 . S
C969 C200 1.423 . S
C977 N334 1.360 . S
C1001 C361 1.653 . S
C1009 C214 1.650 . S
C1033 N242 1.219 . S
C1041 N288 1.175 . S
C1065 C30 1.613 . S
C1073 N416 1.584 . S
C1097 N324 1.498 . S
C1105 C168 1.514 . S
C1129 N94 1.521 . S
C1137 C352 1.569 . S
C1161 N278 1.355 . S
C1169 N127 1.291 . S
C1193 N140 1.428 . S
C1201 N311 1.383 . S
C1225 C85 1.841 . S
C1233 C375 1.843 . S
C1257 N2 1.205 . S
C1265 N403 1.137 . S
C1289 N48 1.288 . S
C1297 N449 1.234 . S
C1321 C145 2.001 . S
C1329 C467 2.001 . S
C1353 N495 1.398 . S
C1361 N163 1.380 . S
C1385 C513 1.895 . S
C1393 C99 1.894 . S
C1417 N541 1.315 . S
C1425 C131 1.355 . S
C1449 C53 1.491 . S
C1457 N531 1.481 . S
C1481 N81 1.787 . S
C1489 C476 1.801 . S
C1513 C7 1.599 . S
C1521 N485 1.577 . S
C1545 C522 1.611 . S
C1553 N25 1.577 . S
C1577 C246 1.733 . S
C1585 C315 1.745 . S
C1609 N255 1.311 . S
C1617 C329 1.390 . S
C1641 N196 1.699 . S
C1649 N347 1.689 . S
C1673 N209 1.352 . S
C1681 C283 1.410 . S
C1705 N219 1.551 . S
C1713 C453 1.586 . S
C1737 N370 1.607 . S
C1745 C237 1.635 . S
C1769 N265 1.352 . S
C1777 C407 1.385 . S
C1801 N186 1.670 . S
C1809 C421 1.732 . S
C1833 C292 1.289 . S
C1841 N173 1.253 . S
C1865 N380 1.520 . S
C1873 N35 1.525 . S
C1897 C62 1.482 . S
C1905 C398 1.499 . S
C1929 C430 1.746 . S
C1937 N71 1.713 . S
C1961 C444 1.644 . S
C1969 C16 1.634 . S
C1993 C122 1.339 . S
C2001 C338 1.346 . S
C2025 N357 1.891 . S
C2033 C154 1.904 . S
C2057 C306 1.969 . S
C2065 C108 1.959 . S
