# Generated by pormake.
# Topology kag, (6)-cn, num edge types: 1
# Building blocks:
#     Node 0, Type 0, BuildingBlock: MIDCAF_clean_sbu_0, # of connection points: 6
#     Node 1, Type 0, BuildingBlock: MIDCAF_clean_sbu_0, # of connection points: 6
#     Node 2, Type 0, BuildingBlock: MIDCAF_clean_sbu_0, # of connection points: 6
#     Edge 3, Type (0, 0), BuildingBlock: FUNLAD_clean_linker_0, # of connection points: 2
#     Edge 4, Type (0, 0), BuildingBlock: FUNLAD_clean_linker_0, # of connection points: 2
#     Edge 5, Type (0, 0), BuildingBlock: FUNLAD_clean_linker_0, # of connection points: 2
#     Edge 6, Type (0, 0), BuildingBlock: FUNLAD_clean_linker_0, # of connection points: 2
#     Edge 7, Type (0, 0), BuildingBlock: FUNLAD_clean_linker_0, # of connection points: 2
#     Edge 8, Type (0, 0), BuildingBlock: FUNLAD_clean_linker_0, # of connection points: 2
#     Edge 9, Type (0, 0), BuildingBlock: FUNLAD_clean_linker_0, # of connection points: 2
#     Edge 10, Type (0, 0), BuildingBlock: FUNLAD_clean_linker_0, # of connection points: 2
#     Edge 11, Type (0, 0), BuildingBlock: FUNLAD_clean_linker_0, # of connection points: 2
# Relax obj value: 0.347
# Max RMSD: 0.270
# Mean RMSD: 0.266
data_MOF--net-kag--node1-MIDCAF_clean_sbu_0--edge1-FUNLAD_clean_linker_0
_symmetry_space_group_name_H-M    P1
_symmetry_Int_Tables_number       1
_symmetry_cell_setting            triclinic
loop_
_symmetry_equiv_pos_as_xyz
'x, y, z'
_cell_length_a     33.284631
_cell_length_b     33.418877
_cell_length_c     17.71314
_cell_angle_alpha  90.769674
_cell_angle_beta   90.462956
_cell_angle_gamma 119.96579
loop_
_atom_site_label
_atom_site_type_symbol
_atom_site_fract_x
_atom_site_fract_y
_atom_site_fract_z
_atom_type_partial_charge
Zn0 Zn 0.03356 0.49895 0.90907 0.0
Zn1 Zn 0.02121 0.66246 0.00769 0.0
Zn2 Zn 0.0264 0.5681 0.96902 0.0
C3 C 0.08904 0.67803 0.91786 0.0
C4 C 0.05562 0.6196 0.12931 0.0
O5 O 0.95596 0.51116 0.9541 0.0
O6 O 0.96481 0.45376 0.91031 0.0
C7 C 0.07027 0.57611 0.80916 0.0
O8 O 0.06506 0.6362 0.93736 0.0
O9 O 0.07162 0.70352 0.93001 0.0
O10 O 0.0447 0.6495 0.10905 0.0
O11 O 0.05238 0.58797 0.08311 0.0
O12 O 0.062 0.53493 0.81454 0.0
O13 O 0.06046 0.595 0.86367 0.0
O14 O 0.06619 0.55605 0.05237 0.0
O15 O 0.07561 0.50241 0.99447 0.0
C16 C 0.08438 0.53013 0.04973 0.0
O17 O 0.95513 0.552 0.96565 0.0
O18 O 0.95364 0.61811 0.97699 0.0
C19 C 0.93866 0.4688 0.93243 0.0
C20 C 0.93322 0.57466 0.96574 0.0
Zn21 Zn 0.4224 0.02914 0.02353 0.0
Zn22 Zn 0.58451 0.03495 0.10928 0.0
Zn23 Zn 0.50431 0.03351 0.06608 0.0
C24 C 0.54991 0.98406 0.97276 0.0
C25 C 0.51734 -0.00615 0.2234 0.0
O26 O 0.51352 0.10274 0.08157 0.0
O27 O 0.44145 0.08992 0.07413 0.0
C28 C 0.46362 0.01307 0.89586 0.0
O29 O 0.52223 0.0004 0.97644 0.0
O30 O 0.57889 0.9919 0.02548 0.0
O31 O 0.56024 0.0106 0.21214 0.0
O32 O 0.49104 -0.00392 0.17189 0.0
O33 O 0.43277 0.02317 0.91246 0.0
O34 O 0.49054 0.01222 0.94762 0.0
O35 O 0.44957 0.97991 0.13207 0.0
O36 O 0.38501 0.97109 0.07933 0.0
C37 C 0.40515 0.95737 0.12406 0.0
O38 O 0.55698 0.10622 0.08403 0.0
O39 O 0.62163 0.10266 0.09199 0.0
C40 C 0.48398 0.1166 0.08913 0.0
C41 C 0.60149 0.1261 0.087 0.0
Zn42 Zn 0.42959 0.46747 0.92689 0.0
Zn43 Zn 0.59796 0.61637 0.02655 0.0
Zn44 Zn 0.51333 0.54278 0.97988 0.0
C45 C 0.61092 0.5702 0.90346 0.0
C46 C 0.55814 0.5532 0.14565 0.0
O47 O 0.46131 0.56439 0.98021 0.0
O48 O 0.39509 0.50112 0.94847 0.0
C49 C 0.49692 0.49383 0.81372 0.0
O50 O 0.56629 0.54824 0.90211 0.0
O51 O 0.6334 0.60033 0.95427 0.0
O52 O 0.59033 0.59391 0.13342 0.0
O53 O 0.52892 0.52893 0.09284 0.0
O54 O 0.45399 0.46739 0.8236 0.0
O55 O 0.52293 0.52129 0.86722 0.0
O56 O 0.49459 0.48744 0.05911 0.0
O57 O 0.43317 0.42712 0.00644 0.0
C58 C 0.46398 0.44422 0.05813 0.0
O59 O 0.50557 0.6041 0.97834 0.0
O60 O 0.57839 0.66077 0.99191 0.0
C61 C 0.41697 0.54289 0.97059 0.0
C62 C 0.5363 0.64727 0.97674 0.0
C63 C 0.10717 0.58376 0.68391 0.0
C64 C 0.08607 0.59939 0.73581 0.0
C65 C 0.11404 0.59869 0.60938 0.0
C66 C 0.099 0.62895 0.58434 0.0
C67 C 0.08133 0.64742 0.63785 0.0
C68 C 0.07498 0.63286 0.7129 0.0
C69 C 0.09883 0.63995 0.50279 0.0
C70 C 0.0975 0.61175 0.4461 0.0
C71 C 0.09038 0.6171 0.36423 0.0
C72 C 0.08033 0.5799 0.31476 0.0
C73 C 0.07014 0.58118 0.23852 0.0
C74 C 0.0701 0.61996 0.20908 0.0
H75 H 0.10042 0.68667 0.36955 0.0
C76 C 0.08166 0.65797 0.25778 0.0
C77 C 0.09184 0.65669 0.33442 0.0
H78 H 0.08234 0.68862 0.23689 0.0
H79 H 0.11699 0.55865 0.70024 0.0
H80 H 0.13013 0.58543 0.57148 0.0
H81 H 0.07022 0.67143 0.62075 0.0
H82 H 0.05876 0.64568 0.75157 0.0
H83 H 0.09525 0.66966 0.49006 0.0
H84 H 0.09802 0.58055 0.46028 0.0
H85 H 0.07908 0.54895 0.33555 0.0
H86 H 0.06083 0.55097 0.20341 0.0
C87 C 0.52599 0.96953 0.3526 0.0
C88 C 0.49854 0.97586 0.2987 0.0
C89 C 0.51192 0.96036 0.42746 0.0
C90 C 0.47025 0.95773 0.45003 0.0
C91 C 0.44107 0.96022 0.39507 0.0
C92 C 0.45516 0.96949 0.32018 0.0
C93 C 0.45795 0.95592 0.53074 0.0
C94 C 0.49063 0.97773 0.58517 0.0
C95 C 0.4811 0.98361 0.66517 0.0
C96 C 0.51803 6e-05 0.71762 0.0
C97 C 0.51227 0.00962 0.79229 0.0
C98 C 0.46926 0.00263 0.81665 0.0
H99 H 0.40873 0.9653 0.65088 0.0
C100 C 0.43214 0.98621 0.76451 0.0
C101 C 0.4379 0.97676 0.68944 0.0
H102 H 0.39863 0.98076 0.78168 0.0
H103 H 0.55921 0.97336 0.33767 0.0
H104 H 0.53438 0.95664 0.46782 0.0
H105 H 0.40853 0.95774 0.41086 0.0
H106 H 0.43311 0.97421 0.28048 0.0
H107 H 0.42145 0.94003 0.5438 0.0
H108 H 0.52695 -0.00572 0.57002 0.0
H109 H 0.55185 0.00631 0.70053 0.0
H110 H 0.54196 0.02354 0.83041 0.0
C111 C 0.49482 0.45761 0.68817 0.0
C112 C 0.5166 0.49548 0.73868 0.0
C113 C 0.51048 0.46107 0.61427 0.0
C114 C 0.54781 0.50289 0.58918 0.0
C115 C 0.57109 0.53975 0.64113 0.0
C116 C 0.55551 0.53623 0.71492 0.0
C117 C 0.56159 0.51088 0.50875 0.0
C118 C 0.53218 0.48732 0.45097 0.0
C119 C 0.5412 0.50184 0.37099 0.0
C120 C 0.50306 0.48555 0.32097 0.0
C121 C 0.50873 0.50169 0.24745 0.0
C122 C 0.55283 0.53415 0.2219 0.0
H123 H 0.61638 0.54533 0.37984 0.0
C124 C 0.59135 0.54931 0.27069 0.0
C125 C 0.58574 0.53302 0.34435 0.0
H126 H 0.62583 0.5739 0.25198 0.0
H127 H 0.46513 0.42554 0.70538 0.0
H128 H 0.4927 0.43117 0.57703 0.0
H129 H 0.6001 0.57226 0.62366 0.0
H130 H 0.57262 0.56631 0.75199 0.0
H131 H 0.59488 0.54097 0.49742 0.0
H132 H 0.49765 0.45933 0.46301 0.0
H133 H 0.46839 0.46143 0.33959 0.0
H134 H 0.47828 0.48983 0.21149 0.0
C135 C 0.1342 0.50506 0.11513 0.0
C136 C 0.12408 0.54017 0.09954 0.0
C137 C 0.17909 0.51623 0.13679 0.0
C138 C 0.2146 0.56256 0.14066 0.0
C139 C 0.20337 0.59766 0.13372 0.0
C140 C 0.15809 0.58646 0.11434 0.0
C141 C 0.26308 0.57264 0.13652 0.0
C142 C 0.28959 0.59725 0.07872 0.0
C143 C 0.32791 0.59094 0.05108 0.0
C144 C 0.3303 0.58387 0.97325 0.0
C145 C 0.36065 0.56977 0.9461 0.0
C146 C 0.39019 0.56427 0.99621 0.0
H147 H 0.35807 0.59303 0.16099 0.0
C148 C 0.39011 0.5743 0.07341 0.0
C149 C 0.35892 0.58726 0.10086 0.0
H150 H 0.41262 0.56995 0.11288 0.0
H151 H 0.1085 0.46917 0.1042 0.0
H152 H 0.18705 0.48866 0.1423 0.0
H153 H 0.23025 0.63367 0.13732 0.0
H154 H 0.15119 0.61422 0.10271 0.0
H155 H 0.27256 0.55091 0.16835 0.0
H156 H 0.277 0.61437 0.04145 0.0
H157 H 0.30666 0.5865 0.93393 0.0
H158 H 0.36018 0.56193 0.88643 0.0
C159 C 0.63313 0.21009 0.11821 0.0
C160 C 0.62971 0.1751 0.06948 0.0
C161 C 0.664 0.25654 0.10225 0.0
C162 C 0.69115 0.2683 0.03702 0.0
C163 C 0.68654 0.23274 0.98787 0.0
C164 C 0.6562 0.18675 0.00409 0.0
C165 C 0.72857 0.3167 0.02617 0.0
C166 C 0.74592 0.33268 0.95757 0.0
C167 C 0.79344 0.37181 0.94728 0.0
C168 C 0.81937 0.36867 0.88774 0.0
C169 C 0.86647 0.40074 0.88214 0.0
C170 C 0.88823 0.43725 0.93494 0.0
H171 H 0.79539 0.41344 0.04392 0.0
C172 C 0.86179 0.44209 0.99202 0.0
C173 C 0.81471 0.40953 0.99836 0.0
H174 H 0.87788 0.47005 0.03343 0.0
H175 H 0.61313 0.20149 0.1694 0.0
H176 H 0.66748 0.2832 0.14165 0.0
H177 H 0.70803 0.23989 0.93877 0.0
H178 H 0.65424 0.16005 0.96623 0.0
H179 H 0.74559 0.33726 0.07666 0.0
H180 H 0.72812 0.31203 0.90751 0.0
H181 H 0.8037 0.33998 0.84753 0.0
H182 H 0.88604 0.39657 0.83719 0.0
C183 C 0.58037 0.94522 0.88962 0.0
C184 C 0.54269 0.94939 0.91432 0.0
C185 C 0.57276 0.90483 0.85274 0.0
C186 C 0.52747 0.8677 0.84242 0.0
C187 C 0.48973 0.87385 0.85943 0.0
C188 C 0.49735 0.91475 0.89468 0.0
C189 C 0.52146 0.8213 0.82918 0.0
C190 C 0.49562 0.78694 0.87673 0.0
C191 C 0.50391 0.74814 0.89328 0.0
C192 C 0.54572 0.74966 0.87471 0.0
C193 C 0.55565 0.71658 0.90193 0.0
C194 C 0.52424 0.6812 0.94819 0.0
H195 H 0.44016 0.71058 0.95531 0.0
C196 C 0.48225 0.67896 0.96576 0.0
C197 C 0.47216 0.71214 0.93862 0.0
H198 H 0.45827 0.65297 0.00311 0.0
H199 H 0.61561 0.97172 0.90376 0.0
H200 H 0.60233 0.90084 0.83961 0.0
H201 H 0.45446 0.84581 0.85083 0.0
H202 H 0.46772 0.91725 0.91315 0.0
H203 H 0.54602 0.81891 0.79226 0.0
H204 H 0.47156 0.79061 0.91341 0.0
H205 H 0.57205 0.77722 0.84211 0.0
H206 H 0.58831 0.71897 0.88721 0.0
C207 C 0.86838 0.52657 0.8762 0.0
C208 C 0.88371 0.55007 0.94606 0.0
C209 C 0.82196 0.50745 0.85354 0.0
C210 C 0.79034 0.51075 0.9015 0.0
C211 C 0.80524 0.53157 0.97334 0.0
C212 C 0.85184 0.55187 0.99498 0.0
C213 C 0.74318 0.49809 0.87548 0.0
C214 C 0.73676 0.51598 0.81195 0.0
C215 C 0.69888 0.52677 0.80876 0.0
C216 C 0.711 0.57333 0.80423 0.0
C217 C 0.68017 0.58748 0.82836 0.0
C218 C 0.63638 0.55495 0.8547 0.0
H219 H 0.64324 0.4575 0.83035 0.0
C220 C 0.6219 0.50768 0.84888 0.0
C221 C 0.65327 0.49364 0.82693 0.0
H222 H 0.58822 0.48202 0.86907 0.0
H223 H 0.89268 0.52475 0.83794 0.0
H224 H 0.81104 0.4913 0.79806 0.0
H225 H 0.78132 0.53454 0.011 0.0
H226 H 0.86315 0.56962 0.04927 0.0
H227 H 0.71623 0.48484 0.91773 0.0
H228 H 0.76567 0.53435 0.77411 0.0
H229 H 0.74603 0.59938 0.79028 0.0
H230 H 0.69186 0.62408 0.83218 0.0
C231 C 0.15967 0.67465 0.95266 0.0
C232 C 0.13991 0.6985 0.91716 0.0
C233 C 0.2058 0.69818 0.9773 0.0
C234 C 0.23336 0.74545 0.96419 0.0
C235 C 0.21552 0.7679 0.92028 0.0
C236 C 0.16879 0.74476 0.89785 0.0
C237 C 0.27793 0.77347 0.00471 0.0
C238 C 0.28001 0.77351 0.08074 0.0
C239 C 0.31541 0.81544 0.12087 0.0
C240 C 0.3627 0.83255 0.1082 0.0
C241 C 0.39453 0.87913 0.12283 0.0
C242 C 0.37889 0.90911 0.14731 0.0
H243 H 0.26466 0.831 0.16703 0.0
C244 C 0.33263 0.89066 0.16903 0.0
C245 C 0.30112 0.84374 0.15699 0.0
H246 H 0.31988 0.91327 0.18746 0.0
H247 H 0.13853 0.63886 0.96825 0.0
H248 H 0.21913 0.68017 0.0104 0.0
H249 H 0.23658 0.80445 0.90933 0.0
H250 H 0.15456 0.76385 0.87045 0.0
H251 H 0.30573 0.80165 0.97432 0.0
H252 H 0.24977 0.74918 0.11192 0.0
H253 H 0.37424 0.8111 0.08031 0.0
H254 H 0.43 0.8927 0.10492 0.0
C255 C 0.42956 0.37009 0.12681 0.0
C256 C 0.46848 0.41276 0.1105 0.0
C257 C 0.43502 0.33579 0.16126 0.0
C258 C 0.4795 0.34324 0.1785 0.0
C259 C 0.51812 0.38744 0.16887 0.0
C260 C 0.51262 0.42192 0.13493 0.0
C261 C 0.48427 0.30263 0.1965 0.0
C262 C 0.51968 0.29785 0.17052 0.0
C263 C 0.51628 0.25203 0.1604 0.0
C264 C 0.48479 0.21316 0.20103 0.0
C265 C 0.47563 0.16913 0.17905 0.0
C266 C 0.49874 0.1633 0.11784 0.0
H267 H 0.56647 0.27557 0.07058 0.0
C268 C 0.53285 0.2021 0.08106 0.0
C269 C 0.54168 0.24623 0.10241 0.0
H270 H 0.55083 0.19811 0.03339 0.0
H271 H 0.39512 0.36233 0.10913 0.0
H272 H 0.40463 0.30218 0.169 0.0
H273 H 0.55276 0.39472 0.18384 0.0
H274 H 0.54329 0.4545 0.12295 0.0
H275 H 0.4536 0.27291 0.21796 0.0
H276 H 0.54849 0.32685 0.14344 0.0
H277 H 0.46598 0.2162 0.24817 0.0
H278 H 0.44962 0.13944 0.20878 0.0
loop_
_geom_bond_atom_site_label_1
_geom_bond_atom_site_label_2
_geom_bond_distance
_geom_bond_site_symmetry_2
_ccdc_geom_bond_type
Zn0 O6 1.920 1_455 S
Zn0 O12 1.898 . S
Zn0 O15 1.905 . S
Zn1 O9 1.905 . S
Zn1 O10 1.898 . S
Zn1 O18 1.920 1_455 S
Zn2 O5 2.080 1_455 S
Zn2 O8 2.114 . S
Zn2 O11 2.120 . S
Zn2 O13 2.120 1_554 S
Zn2 O14 2.114 . S
Zn2 O17 2.080 1_454 S
C3 O8 1.166 . S
C3 O9 1.182 . S
C4 O10 1.167 . S
C4 O11 1.299 . S
O5 Zn2 2.080 1_655 S
O5 C19 1.305 1_554 S
O6 Zn0 1.920 1_655 S
O6 C19 1.234 . S
C7 O12 1.167 . S
C7 O13 1.299 . S
O8 Zn2 2.114 . S
O8 C3 1.166 . S
O9 Zn1 1.905 . S
O9 C3 1.182 . S
O10 Zn1 1.898 . S
O10 C4 1.167 . S
O11 Zn2 2.120 . S
O11 C4 1.299 . S
O12 Zn0 1.898 . S
O12 C7 1.167 . S
O13 Zn2 2.120 1_556 S
O13 C7 1.299 . S
O14 Zn2 2.114 . S
O14 C16 1.166 . S
O15 Zn0 1.905 . S
O15 C16 1.182 1_556 S
C16 O14 1.166 . S
C16 O15 1.182 1_554 S
O17 Zn2 2.080 1_656 S
O17 C20 1.305 1_556 S
O18 Zn1 1.920 1_655 S
O18 C20 1.234 . S
C19 O5 1.305 1_556 S
C19 O6 1.234 . S
C20 O17 1.305 1_554 S
C20 O18 1.234 . S
Zn21 O27 1.920 . S
Zn21 O33 1.898 . S
Zn21 O36 1.905 1_545 S
Zn22 O30 1.905 1_545 S
Zn22 O31 1.898 . S
Zn22 O39 1.920 . S
Zn23 O26 2.080 . S
Zn23 O29 2.114 1_545 S
Zn23 O32 2.120 . S
Zn23 O34 2.120 1_554 S
Zn23 O35 2.114 1_544 S
Zn23 O38 2.080 1_554 S
C24 O29 1.166 . S
C24 O30 1.182 . S
C25 O31 1.167 . S
C25 O32 1.299 . S
O26 Zn23 2.080 . S
O26 C40 1.305 1_554 S
O27 Zn21 1.920 . S
O27 C40 1.234 . S
C28 O33 1.167 . S
C28 O34 1.299 . S
O29 Zn23 2.114 1_565 S
O29 C24 1.166 . S
O30 Zn22 1.905 1_565 S
O30 C24 1.182 . S
O31 Zn22 1.898 . S
O31 C25 1.167 . S
O32 Zn23 2.120 . S
O32 C25 1.299 . S
O33 Zn21 1.898 . S
O33 C28 1.167 . S
O34 Zn23 2.120 1_556 S
O34 C28 1.299 . S
O35 Zn23 2.114 1_566 S
O35 C37 1.167 . S
O36 Zn21 1.905 1_565 S
O36 C37 1.188 . S
C37 O35 1.167 . S
C37 O36 1.188 . S
O38 Zn23 2.080 1_556 S
O38 C41 1.305 1_556 S
O39 Zn22 1.920 . S
O39 C41 1.234 . S
C40 O26 1.305 1_556 S
C40 O27 1.234 . S
C41 O38 1.305 1_554 S
C41 O39 1.234 . S
Zn42 O48 1.920 . S
Zn42 O54 1.898 . S
Zn42 O57 1.905 . S
Zn43 O51 1.905 . S
Zn43 O52 1.898 . S
Zn43 O60 1.920 . S
Zn44 O47 2.080 . S
Zn44 O50 2.114 . S
Zn44 O53 2.120 . S
Zn44 O55 2.120 1_554 S
Zn44 O56 2.114 1_554 S
Zn44 O59 2.080 1_554 S
C45 O50 1.166 . S
C45 O51 1.182 . S
C46 O52 1.167 . S
C46 O53 1.299 . S
O47 Zn44 2.080 . S
O47 C61 1.305 1_554 S
O48 Zn42 1.920 . S
O48 C61 1.234 . S
C49 O54 1.167 . S
C49 O55 1.299 . S
O50 Zn44 2.114 . S
O50 C45 1.166 . S
O51 Zn43 1.905 . S
O51 C45 1.182 . S
O52 Zn43 1.898 . S
O52 C46 1.167 . S
O53 Zn44 2.120 . S
O53 C46 1.299 . S
O54 Zn42 1.898 . S
O54 C49 1.167 . S
O55 Zn44 2.120 1_556 S
O55 C49 1.299 . S
O56 Zn44 2.114 1_556 S
O56 C58 1.166 . S
O57 Zn42 1.905 . S
O57 C58 1.189 . S
C58 O56 1.166 . S
C58 O57 1.189 . S
O59 Zn44 2.080 1_556 S
O59 C62 1.305 1_556 S
O60 Zn43 1.920 . S
O60 C62 1.234 . S
C61 O47 1.305 1_556 S
C61 O48 1.234 . S
C62 O59 1.305 1_554 S
C62 O60 1.234 . S
C63 C64 1.386 . S
C63 C65 1.383 . S
C63 H79 0.967 . S
C64 C63 1.386 . S
C64 C68 1.383 . S
C65 C63 1.383 . S
C65 C66 1.402 . S
C65 H80 0.951 . S
C66 C65 1.402 . S
C66 C67 1.375 . S
C66 C69 1.481 . S
C67 C66 1.375 . S
C67 C68 1.367 . S
C67 H81 0.951 . S
C68 C64 1.383 . S
C68 C67 1.367 . S
C68 H82 0.950 . S
C69 C66 1.481 . S
C69 C70 1.297 . S
C69 H83 0.950 . S
C70 C69 1.297 . S
C70 C71 1.479 . S
C70 H84 0.950 . S
C71 C70 1.479 . S
C71 C72 1.375 . S
C71 C77 1.404 . S
C72 C71 1.375 . S
C72 C73 1.369 . S
C72 H85 0.950 1_455 S
C73 C72 1.369 . S
C73 C74 1.392 . S
C73 H86 0.951 1_455 S
C74 C73 1.392 . S
C74 C76 1.384 . S
H75 C77 0.949 . S
C76 C74 1.384 . S
C76 C77 1.385 . S
C76 H78 0.950 . S
C77 C71 1.404 . S
C77 H75 0.949 . S
C77 C76 1.385 . S
H78 C76 0.950 . S
H79 C63 0.967 . S
H80 C65 0.951 . S
H81 C67 0.951 . S
H82 C68 0.950 . S
H83 C69 0.950 . S
H84 C70 0.950 . S
H85 C72 0.950 1_655 S
H86 C73 0.951 1_655 S
C87 C88 1.386 1_565 S
C87 C89 1.383 . S
C87 H103 0.951 . S
C88 C87 1.386 1_545 S
C88 C92 1.383 . S
C89 C87 1.383 . S
C89 C90 1.402 1_565 S
C89 H104 0.951 . S
C90 C89 1.402 1_545 S
C90 C91 1.375 . S
C90 C93 1.481 . S
C91 C90 1.375 . S
C91 C92 1.367 . S
C91 H105 0.951 . S
C92 C88 1.383 . S
C92 C91 1.367 . S
C92 H106 0.950 . S
C93 C90 1.481 . S
C93 C94 1.297 . S
C93 H107 0.950 . S
C94 C93 1.297 . S
C94 C95 1.479 . S
C94 H108 0.950 1_545 S
C95 C94 1.479 . S
C95 C96 1.375 1_545 S
C95 C101 1.404 . S
C96 C95 1.375 1_565 S
C96 C97 1.369 . S
C96 H109 0.950 . S
C97 C96 1.369 . S
C97 C98 1.392 1_565 S
C97 H110 0.951 . S
C98 C97 1.392 1_545 S
C98 C100 1.384 . S
H99 C101 0.949 . S
C100 C98 1.384 . S
C100 C101 1.385 . S
C100 H102 0.950 . S
C101 C95 1.404 . S
C101 H99 0.949 . S
C101 C100 1.385 . S
H102 C100 0.950 . S
H103 C87 0.951 . S
H104 C89 0.951 . S
H105 C91 0.951 . S
H106 C92 0.950 . S
H107 C93 0.950 . S
H108 C94 0.950 1_565 S
H109 C96 0.950 . S
H110 C97 0.951 . S
C111 C112 1.386 . S
C111 C113 1.383 . S
C111 H127 0.951 . S
C112 C111 1.386 . S
C112 C116 1.383 . S
C113 C111 1.383 . S
C113 C114 1.402 . S
C113 H128 0.951 . S
C114 C113 1.402 . S
C114 C115 1.375 . S
C114 C117 1.481 . S
C115 C114 1.375 . S
C115 C116 1.367 . S
C115 H129 0.951 . S
C116 C112 1.383 . S
C116 C115 1.367 . S
C116 H130 0.950 . S
C117 C114 1.481 . S
C117 C118 1.297 . S
C117 H131 0.950 . S
C118 C117 1.297 . S
C118 C119 1.479 . S
C118 H132 0.950 . S
C119 C118 1.479 . S
C119 C120 1.375 . S
C119 C125 1.404 . S
C120 C119 1.375 . S
C120 C121 1.369 . S
C120 H133 0.950 . S
C121 C120 1.369 . S
C121 C122 1.392 . S
C121 H134 0.951 . S
C122 C121 1.392 . S
C122 C124 1.384 . S
H123 C125 0.949 . S
C124 C122 1.384 . S
C124 C125 1.385 . S
C124 H126 0.950 . S
C125 C119 1.404 . S
C125 H123 0.949 . S
C125 C124 1.385 . S
H126 C124 0.950 . S
H127 C111 0.951 . S
H128 C113 0.951 . S
H129 C115 0.951 . S
H130 C116 0.950 . S
H131 C117 0.950 . S
H132 C118 0.950 . S
H133 C120 0.950 . S
H134 C121 0.951 . S
C135 C136 1.386 1_556 S
C135 C137 1.383 . S
C135 H151 0.951 . S
C136 C135 1.386 1_554 S
C136 C140 1.383 . S
C137 C135 1.383 . S
C137 C138 1.402 1_556 S
C137 H152 0.951 . S
C138 C137 1.402 1_554 S
C138 C139 1.375 . S
C138 C141 1.481 . S
C139 C138 1.375 . S
C139 C140 1.367 . S
C139 H153 0.951 . S
C140 C136 1.383 . S
C140 C139 1.367 . S
C140 H154 0.950 . S
C141 C138 1.481 . S
C141 C142 1.297 1_554 S
C141 H155 0.950 . S
C142 C141 1.297 1_556 S
C142 C143 1.479 . S
C142 H156 0.950 . S
C143 C142 1.479 . S
C143 C144 1.375 . S
C143 C149 1.404 1_556 S
C144 C143 1.375 . S
C144 C145 1.369 . S
C144 H157 0.950 . S
C145 C144 1.369 . S
C145 C146 1.392 . S
C145 H158 0.951 . S
C146 C145 1.392 . S
C146 C148 1.384 1_556 S
H147 C149 0.949 . S
C148 C146 1.384 1_554 S
C148 C149 1.385 . S
C148 H150 0.950 . S
C149 C143 1.404 1_554 S
C149 H147 0.949 . S
C149 C148 1.385 . S
H150 C148 0.950 . S
H151 C135 0.951 . S
H152 C137 0.951 . S
H153 C139 0.951 . S
H154 C140 0.950 . S
H155 C141 0.950 . S
H156 C142 0.950 . S
H157 C144 0.950 . S
H158 C145 0.951 . S
C159 C160 1.386 . S
C159 C161 1.383 . S
C159 H175 0.951 . S
C160 C159 1.386 . S
C160 C164 1.383 . S
C161 C159 1.383 . S
C161 C162 1.402 . S
C161 H176 0.951 . S
C162 C161 1.402 . S
C162 C163 1.375 . S
C162 C165 1.481 . S
C163 C162 1.375 . S
C163 C164 1.367 . S
C163 H177 0.951 . S
C164 C160 1.383 . S
C164 C163 1.367 . S
C164 H178 0.950 . S
C165 C162 1.481 . S
C165 C166 1.297 . S
C165 H179 0.950 . S
C166 C165 1.297 . S
C166 C167 1.479 . S
C166 H180 0.950 . S
C167 C166 1.479 . S
C167 C168 1.375 . S
C167 C173 1.404 . S
C168 C167 1.375 . S
C168 C169 1.369 1_554 S
C168 H181 0.950 . S
C169 C168 1.369 1_556 S
C169 C170 1.392 . S
C169 H182 0.951 . S
C170 C169 1.392 . S
C170 C172 1.384 1_556 S
H171 C173 0.949 . S
C172 C170 1.384 1_554 S
C172 C173 1.385 . S
C172 H174 0.950 . S
C173 C167 1.404 . S
C173 H171 0.949 . S
C173 C172 1.385 . S
H174 C172 0.950 . S
H175 C159 0.951 . S
H176 C161 0.951 . S
H177 C163 0.951 . S
H178 C164 0.950 . S
H179 C165 0.950 . S
H180 C166 0.950 . S
H181 C168 0.950 . S
H182 C169 0.951 . S
C183 C184 1.386 . S
C183 C185 1.383 . S
C183 H199 0.951 . S
C184 C183 1.386 . S
C184 C188 1.383 1_556 S
C185 C183 1.383 . S
C185 C186 1.402 1_556 S
C185 H200 0.951 . S
C186 C185 1.402 1_554 S
C186 C187 1.375 . S
C186 C189 1.481 . S
C187 C186 1.375 . S
C187 C188 1.367 . S
C187 H201 0.951 . S
C188 C184 1.383 1_554 S
C188 C187 1.367 . S
C188 H202 0.950 . S
C189 C186 1.481 . S
C189 C190 1.297 . S
C189 H203 0.950 . S
C190 C189 1.297 . S
C190 C191 1.479 . S
C190 H204 0.950 1_554 S
C191 C190 1.479 . S
C191 C192 1.375 1_554 S
C191 C197 1.404 . S
C192 C191 1.375 1_556 S
C192 C193 1.369 . S
C192 H205 0.950 . S
C193 C192 1.369 . S
C193 C194 1.392 1_556 S
C193 H206 0.951 . S
C194 C193 1.392 1_554 S
C194 C196 1.384 . S
H195 C197 0.949 . S
C196 C194 1.384 . S
C196 C197 1.385 . S
C196 H198 0.950 . S
C197 C191 1.404 . S
C197 H195 0.949 . S
C197 C196 1.385 . S
H198 C196 0.950 . S
H199 C183 0.951 . S
H200 C185 0.951 . S
H201 C187 0.951 . S
H202 C188 0.950 . S
H203 C189 0.950 . S
H204 C190 0.950 1_556 S
H205 C192 0.950 . S
H206 C193 0.951 . S
C207 C208 1.386 . S
C207 C209 1.383 1_554 S
C207 H223 0.951 . S
C208 C207 1.386 . S
C208 C212 1.383 . S
C209 C207 1.383 1_556 S
C209 C210 1.402 . S
C209 H224 0.951 . S
C210 C209 1.402 . S
C210 C211 1.375 1_556 S
C210 C213 1.481 . S
C211 C210 1.375 1_554 S
C211 C212 1.367 . S
C211 H225 0.951 . S
C212 C208 1.383 . S
C212 C211 1.367 . S
C212 H226 0.950 . S
C213 C210 1.481 . S
C213 C214 1.297 . S
C213 H227 0.950 . S
C214 C213 1.297 . S
C214 C215 1.479 . S
C214 H228 0.950 . S
C215 C214 1.479 . S
C215 C216 1.375 . S
C215 C221 1.404 . S
C216 C215 1.375 . S
C216 C217 1.369 . S
C216 H229 0.950 . S
C217 C216 1.369 . S
C217 C218 1.392 . S
C217 H230 0.951 . S
C218 C217 1.392 . S
C218 C220 1.384 . S
H219 C221 0.949 . S
C220 C218 1.384 . S
C220 C221 1.385 . S
C220 H222 0.950 . S
C221 C215 1.404 . S
C221 H219 0.949 . S
C221 C220 1.385 . S
H222 C220 0.950 . S
H223 C207 0.951 . S
H224 C209 0.951 . S
H225 C211 0.951 . S
H226 C212 0.950 . S
H227 C213 0.950 . S
H228 C214 0.950 . S
H229 C216 0.950 . S
H230 C217 0.951 . S
C231 C232 1.386 1_554 S
C231 C233 1.383 . S
C231 H247 0.951 . S
C232 C231 1.386 1_556 S
C232 C236 1.383 . S
C233 C231 1.383 . S
C233 C234 1.402 1_554 S
C233 H248 0.951 . S
C234 C233 1.402 1_556 S
C234 C235 1.375 . S
C234 C237 1.481 . S
C235 C234 1.375 . S
C235 C236 1.367 . S
C235 H249 0.951 . S
C236 C232 1.383 . S
C236 C235 1.367 . S
C236 H250 0.950 . S
C237 C234 1.481 . S
C237 C238 1.297 1_556 S
C237 H251 0.950 . S
C238 C237 1.297 1_554 S
C238 C239 1.479 . S
C238 H252 0.950 . S
C239 C238 1.479 . S
C239 C240 1.375 . S
C239 C245 1.404 1_554 S
C240 C239 1.375 . S
C240 C241 1.369 . S
C240 H253 0.950 . S
C241 C240 1.369 . S
C241 C242 1.392 . S
C241 H254 0.951 . S
C242 C241 1.392 . S
C242 C244 1.384 1_554 S
H243 C245 0.949 . S
C244 C242 1.384 1_556 S
C244 C245 1.385 . S
C244 H246 0.950 . S
C245 C239 1.404 1_556 S
C245 H243 0.949 . S
C245 C244 1.385 . S
H246 C244 0.950 . S
H247 C231 0.951 . S
H248 C233 0.951 . S
H249 C235 0.951 . S
H250 C236 0.950 . S
H251 C237 0.950 . S
H252 C238 0.950 . S
H253 C240 0.950 . S
H254 C241 0.951 . S
C255 C256 1.386 1_556 S
C255 C257 1.383 . S
C255 H271 0.951 . S
C256 C255 1.386 1_554 S
C256 C260 1.383 . S
C257 C255 1.383 . S
C257 C258 1.402 1_556 S
C257 H272 0.951 . S
C258 C257 1.402 1_554 S
C258 C259 1.375 . S
C258 C261 1.481 1_554 S
C259 C258 1.375 . S
C259 C260 1.367 . S
C259 H273 0.951 . S
C260 C256 1.383 . S
C260 C259 1.367 . S
C260 H274 0.950 . S
C261 C258 1.481 1_556 S
C261 C262 1.297 . S
C261 H275 0.950 1_556 S
C262 C261 1.297 . S
C262 C263 1.479 . S
C262 H276 0.950 . S
C263 C262 1.479 . S
C263 C264 1.375 . S
C263 C269 1.404 . S
C264 C263 1.375 . S
C264 C265 1.369 . S
C264 H277 0.950 . S
C265 C264 1.369 . S
C265 C266 1.392 . S
C265 H278 0.951 . S
C266 C265 1.392 . S
C266 C268 1.384 . S
H267 C269 0.949 . S
C268 C266 1.384 . S
C268 C269 1.385 . S
C268 H270 0.950 1_556 S
C269 C263 1.404 . S
C269 H267 0.949 . S
C269 C268 1.385 . S
H270 C268 0.950 1_554 S
H271 C255 0.951 . S
H272 C257 0.951 . S
H273 C259 0.951 . S
H274 C260 0.950 . S
H275 C261 0.950 1_554 S
H276 C262 0.950 . S
H277 C264 0.950 . S
H278 C265 0.951 . S
C64 C7 1.340 . S
C74 C4 1.194 . S
C88 C25 1.283 . S
C98 C28 1.320 . S
C112 C49 1.287 . S
C122 C46 1.312 . S
C136 C16 1.119 . S
C146 C61 1.183 . S
C160 C41 1.471 . S
C170 C19 1.526 . S
C184 C24 1.007 1_556 S
C194 C62 1.056 . S
C208 C20 0.804 . S
C218 C45 0.886 1_556 S
C232 C3 0.706 1_556 S
C242 C37 0.575 1_554 S
C256 C58 0.734 1_554 S
C266 C40 0.730 . S
