# Generated by pormake.
# Topology fnl, (5)-cn, num edge types: 1
# Building blocks:
#     Node 0, Type 0, BuildingBlock: BEQFEK_clean_sbu_0, # of connection points: 5
#     Node 1, Type 0, BuildingBlock: BEQFEK_clean_sbu_0, # of connection points: 5
#     Node 2, Type 0, BuildingBlock: BEQFEK_clean_sbu_0, # of connection points: 5
#     Node 3, Type 0, BuildingBlock: BEQFEK_clean_sbu_0, # of connection points: 5
#     Node 4, Type 0, BuildingBlock: BEQFEK_clean_sbu_0, # of connection points: 5
#     Node 5, Type 0, BuildingBlock: BEQFEK_clean_sbu_0, # of connection points: 5
#     Node 6, Type 0, BuildingBlock: BEQFEK_clean_sbu_0, # of connection points: 5
#     Node 7, Type 0, BuildingBlock: BEQFEK_clean_sbu_0, # of connection points: 5
#     Node 8, Type 0, BuildingBlock: BEQFEK_clean_sbu_0, # of connection points: 5
#     Node 9, Type 0, BuildingBlock: BEQFEK_clean_sbu_0, # of connection points: 5
#     Node 10, Type 0, BuildingBlock: BEQFEK_clean_sbu_0, # of connection points: 5
#     Node 11, Type 0, BuildingBlock: BEQFEK_clean_sbu_0, # of connection points: 5
#     Node 12, Type 0, BuildingBlock: BEQFEK_clean_sbu_0, # of connection points: 5
#     Node 13, Type 0, BuildingBlock: BEQFEK_clean_sbu_0, # of connection points: 5
#     Node 14, Type 0, BuildingBlock: BEQFEK_clean_sbu_0, # of connection points: 5
#     Node 15, Type 0, BuildingBlock: BEQFEK_clean_sbu_0, # of connection points: 5
#     Edge 16, Type (0, 0), BuildingBlock: MIFKUJ_clean_linker_0, # of connection points: 2
#     Edge 17, Type (0, 0), BuildingBlock: MIFKUJ_clean_linker_0, # of connection points: 2
#     Edge 18, Type (0, 0), BuildingBlock: MIFKUJ_clean_linker_0, # of connection points: 2
#     Edge 19, Type (0, 0), BuildingBlock: MIFKUJ_clean_linker_0, # of connection points: 2
#     Edge 20, Type (0, 0), BuildingBlock: MIFKUJ_clean_linker_0, # of connection points: 2
#     Edge 21, Type (0, 0), BuildingBlock: MIFKUJ_clean_linker_0, # of connection points: 2
#     Edge 22, Type (0, 0), BuildingBlock: MIFKUJ_clean_linker_0, # of connection points: 2
#     Edge 23, Type (0, 0), BuildingBlock: MIFKUJ_clean_linker_0, # of connection points: 2
#     Edge 24, Type (0, 0), BuildingBlock: MIFKUJ_clean_linker_0, # of connection points: 2
#     Edge 25, Type (0, 0), BuildingBlock: MIFKUJ_clean_linker_0, # of connection points: 2
#     Edge 26, Type (0, 0), BuildingBlock: MIFKUJ_clean_linker_0, # of connection points: 2
#     Edge 27, Type (0, 0), BuildingBlock: MIFKUJ_clean_linker_0, # of connection points: 2
#     Edge 28, Type (0, 0), BuildingBlock: MIFKUJ_clean_linker_0, # of connection points: 2
#     Edge 29, Type (0, 0), BuildingBlock: MIFKUJ_clean_linker_0, # of connection points: 2
#     Edge 30, Type (0, 0), BuildingBlock: MIFKUJ_clean_linker_0, # of connection points: 2
#     Edge 31, Type (0, 0), BuildingBlock: MIFKUJ_clean_linker_0, # of connection points: 2
#     Edge 32, Type (0, 0), BuildingBlock: MIFKUJ_clean_linker_0, # of connection points: 2
#     Edge 33, Type (0, 0), BuildingBlock: MIFKUJ_clean_linker_0, # of connection points: 2
#     Edge 34, Type (0, 0), BuildingBlock: MIFKUJ_clean_linker_0, # of connection points: 2
#     Edge 35, Type (0, 0), BuildingBlock: MIFKUJ_clean_linker_0, # of connection points: 2
#     Edge 36, Type (0, 0), BuildingBlock: MIFKUJ_clean_linker_0, # of connection points: 2
#     Edge 37, Type (0, 0), BuildingBlock: MIFKUJ_clean_linker_0, # of connection points: 2
#     Edge 38, Type (0, 0), BuildingBlock: MIFKUJ_clean_linker_0, # of connection points: 2
#     Edge 39, Type (0, 0), BuildingBlock: MIFKUJ_clean_linker_0, # of connection points: 2
#     Edge 40, Type (0, 0), BuildingBlock: MIFKUJ_clean_linker_0, # of connection points: 2
#     Edge 41, Type (0, 0), BuildingBlock: MIFKUJ_clean_linker_0, # of connection points: 2
#     Edge 42, Type (0, 0), BuildingBlock: MIFKUJ_clean_linker_0, # of connection points: 2
#     Edge 43, Type (0, 0), BuildingBlock: MIFKUJ_clean_linker_0, # of connection points: 2
#     Edge 44, Type (0, 0), BuildingBlock: MIFKUJ_clean_linker_0, # of connection points: 2
#     Edge 45, Type (0, 0), BuildingBlock: MIFKUJ_clean_linker_0, # of connection points: 2
#     Edge 46, Type (0, 0), BuildingBlock: MIFKUJ_clean_linker_0, # of connection points: 2
#     Edge 47, Type (0, 0), BuildingBlock: MIFKUJ_clean_linker_0, # of connection points: 2
#     Edge 48, Type (0, 0), BuildingBlock: MIFKUJ_clean_linker_0, # of connection points: 2
#     Edge 49, Type (0, 0), BuildingBlock: MIFKUJ_clean_linker_0, # of connection points: 2
#     Edge 50, Type (0, 0), BuildingBlock: MIFKUJ_clean_linker_0, # of connection points: 2
#     Edge 51, Type (0, 0), BuildingBlock: MIFKUJ_clean_linker_0, # of connection points: 2
#     Edge 52, Type (0, 0), BuildingBlock: MIFKUJ_clean_linker_0, # of connection points: 2
#     Edge 53, Type (0, 0), BuildingBlock: MIFKUJ_clean_linker_0, # of connection points: 2
#     Edge 54, Type (0, 0), BuildingBlock: MIFKUJ_clean_linker_0, # of connection points: 2
#     Edge 55, Type (0, 0), BuildingBlock: MIFKUJ_clean_linker_0, # of connection points: 2
# Relax obj value: 0.379
# Max RMSD: 0.224
# Mean RMSD: 0.224
data_MOF--net-fnl--node1-BEQFEK_clean_sbu_0--edge1-MIFKUJ_clean_linker_0
_symmetry_space_group_name_H-M    P1
_symmetry_Int_Tables_number       1
_symmetry_cell_setting            triclinic
loop_
_symmetry_equiv_pos_as_xyz
'x, y, z'
_cell_length_a     43.976619
_cell_length_b     44.010341
_cell_length_c     131.74469
_cell_angle_alpha  89.975867
_cell_angle_beta   90.008647
_cell_angle_gamma 90.016416
loop_
_atom_site_label
_atom_site_type_symbol
_atom_site_fract_x
_atom_site_fract_y
_atom_site_fract_z
_atom_type_partial_charge
Co0 Co 0.98361 0.10159 0.07517 0.0
Co1 Co 0.00346 0.15873 0.08757 0.0
C2 C 0.94048 0.13333 0.08928 0.0
O3 O 0.94682 0.11308 0.08271 0.0
O4 O 0.96017 0.15306 0.092 0.0
C5 C 0.94714 0.0651 0.06143 0.0
O6 O 0.92366 0.08141 0.0643 0.0
C7 C 0.00921 0.21939 0.09724 0.0
C8 C 0.05913 0.22516 0.09669 0.0
C9 C 0.03253 0.23969 0.09952 0.0
N10 N 0.02162 0.19439 0.09309 0.0
N11 N 0.05145 0.19788 0.09291 0.0
C12 C 0.97599 0.22269 0.09944 0.0
H13 H 0.96667 0.20078 0.10216 0.0
H14 H 0.96388 0.22898 0.09236 0.0
H15 H 0.97179 0.24017 0.10534 0.0
C16 C 0.00431 0.13936 0.05823 0.0
N17 N 0.00021 0.13485 0.06821 0.0
N18 N 0.00695 0.15989 0.07316 0.0
C19 C 0.01492 0.18151 0.06636 0.0
C20 C 0.01361 0.16898 0.0567 0.0
C21 C 0.99841 0.116 0.0502 0.0
H22 H 0.00904 0.09415 0.05243 0.0
H23 H 0.97354 0.11253 0.04945 0.0
H24 H 0.00766 0.12308 0.04273 0.0
O25 O 0.0125 0.08364 0.0849 0.0
O26 O 0.02751 0.12457 0.09336 0.0
H27 H 0.04484 0.21496 0.07247 0.0
H28 H 0.0216 0.22849 0.06213 0.0
C29 C 0.02192 0.2138 0.06898 0.0
H30 H 0.00519 0.22229 0.07461 0.0
H31 H 0.06655 0.18177 0.09001 0.0
O32 O 0.97314 0.06994 0.0653 0.0
C33 C 0.02847 0.09605 0.09179 0.0
Co34 Co 0.31733 0.88716 0.3247 0.0
Co35 Co 0.25524 0.90755 0.33378 0.0
C36 C 0.28084 0.84423 0.33694 0.0
O37 O 0.30378 0.84957 0.3313 0.0
O38 O 0.26057 0.86446 0.33858 0.0
C39 C 0.36853 0.8589 0.31334 0.0
O40 O 0.35834 0.83142 0.31524 0.0
C41 C 0.18989 0.90773 0.33814 0.0
C42 C 0.18219 0.95625 0.34167 0.0
C43 C 0.16759 0.92847 0.34087 0.0
N44 N 0.21644 0.92262 0.33742 0.0
N45 N 0.21174 0.95155 0.33959 0.0
C46 C 0.18598 0.87493 0.33547 0.0
H47 H 0.20379 0.86777 0.33 0.0
H48 H 0.16312 0.87076 0.33217 0.0
H49 H 0.18841 0.86102 0.34245 0.0
C50 C 0.28779 0.90627 0.30581 0.0
N51 N 0.28739 0.90244 0.31592 0.0
N52 N 0.26109 0.9116 0.31953 0.0
C53 C 0.24397 0.92205 0.31174 0.0
C54 C 0.26049 0.9189 0.30282 0.0
C55 C 0.31399 0.89813 0.29909 0.0
H56 H 0.33381 0.91241 0.30112 0.0
H57 H 0.32008 0.87395 0.30027 0.0
H58 H 0.3087 0.90171 0.29096 0.0
O59 O 0.32849 0.91636 0.33543 0.0
O60 O 0.28446 0.93281 0.34142 0.0
H61 H 0.2127 0.95394 0.31808 0.0
H62 H 0.20316 0.94167 0.30535 0.0
C63 C 0.21246 0.93435 0.31279 0.0
H64 H 0.19751 0.91661 0.31609 0.0
H65 H 0.22868 0.96817 0.33952 0.0
O66 O 0.35472 0.88193 0.31683 0.0
C67 C 0.31335 0.93304 0.34146 0.0
Co68 Co 0.53092 0.21022 0.57517 0.0
Co69 Co 0.50811 0.15119 0.58593 0.0
C70 C 0.56948 0.17813 0.59044 0.0
O71 O 0.56535 0.19938 0.58403 0.0
O72 O 0.54937 0.15769 0.59194 0.0
C73 C 0.56864 0.25643 0.56493 0.0
O74 O 0.59151 0.24863 0.57079 0.0
C75 C 0.50594 0.08735 0.59185 0.0
C76 C 0.45772 0.08198 0.59626 0.0
C77 C 0.48496 0.06638 0.59545 0.0
N78 N 0.49174 0.11407 0.59068 0.0
N79 N 0.46299 0.11082 0.59339 0.0
C80 C 0.53821 0.08188 0.58874 0.0
H81 H 0.54565 0.09935 0.5832 0.0
H82 H 0.5408 0.05889 0.58539 0.0
H83 H 0.55306 0.08347 0.59553 0.0
C84 C 0.51625 0.17477 0.55708 0.0
N85 N 0.51858 0.17714 0.5672 0.0
N86 N 0.50836 0.15213 0.57147 0.0
C87 C 0.49882 0.13302 0.56408 0.0
C88 C 0.50382 0.14681 0.55475 0.0
C89 C 0.52367 0.19985 0.5498 0.0
H90 H 0.50978 0.22008 0.55172 0.0
H91 H 0.54803 0.20597 0.55057 0.0
H92 H 0.51904 0.19347 0.54181 0.0
O93 O 0.49657 0.22508 0.5837 0.0
O94 O 0.4813 0.183 0.59143 0.0
H95 H 0.47597 0.09255 0.55875 0.0
H96 H 0.50148 0.08725 0.56937 0.0
C97 C 0.48447 0.10272 0.56592 0.0
H98 H 0.4654 0.10524 0.57136 0.0
H99 H 0.44688 0.12822 0.59314 0.0
O100 O 0.54295 0.2436 0.56599 0.0
C101 C 0.4791 0.21144 0.58993 0.0
Co102 Co 0.18634 0.42901 0.8253 0.0
Co103 Co 0.2523 0.41302 0.8324 0.0
C104 C 0.22578 0.47465 0.83592 0.0
O105 O 0.20154 0.46705 0.83129 0.0
O106 O 0.24762 0.45594 0.83716 0.0
C107 C 0.13756 0.45544 0.8126 0.0
O108 O 0.15721 0.47397 0.80835 0.0
C109 C 0.31927 0.41314 0.83558 0.0
C110 C 0.32814 0.3637 0.83604 0.0
C111 C 0.34238 0.39172 0.83652 0.0
N112 N 0.29271 0.39829 0.83445 0.0
N113 N 0.29823 0.36879 0.83479 0.0
C114 C 0.32189 0.44698 0.83633 0.0
H115 H 0.3035 0.45598 0.84122 0.0
H116 H 0.3192 0.45705 0.82866 0.0
H117 H 0.34404 0.45401 0.83959 0.0
C118 C 0.21066 0.40831 0.80562 0.0
N119 N 0.21364 0.41352 0.81562 0.0
N120 N 0.24215 0.40925 0.81829 0.0
C121 C 0.25851 0.40262 0.80988 0.0
C122 C 0.23897 0.40201 0.80158 0.0
C123 C 0.18109 0.40765 0.79999 0.0
H124 H 0.16237 0.40056 0.8051 0.0
H125 H 0.17625 0.43049 0.79686 0.0
H126 H 0.18233 0.39156 0.79351 0.0
O127 O 0.17931 0.39891 0.83595 0.0
O128 O 0.22565 0.38645 0.84106 0.0
H129 H 0.29865 0.37736 0.81326 0.0
H130 H 0.30133 0.39984 0.80183 0.0
C131 C 0.29234 0.3993 0.8097 0.0
H132 H 0.30291 0.41782 0.81418 0.0
H133 H 0.28152 0.35208 0.83407 0.0
O134 O 0.14614 0.4367 0.81935 0.0
C135 C 0.19686 0.38353 0.84162 0.0
Co136 Co 0.96337 0.22401 0.92611 0.0
Co137 Co 0.98755 0.16013 0.91987 0.0
C138 C 0.9266 0.18244 0.91301 0.0
O139 O 0.93031 0.20714 0.91786 0.0
O140 O 0.947 0.16185 0.91296 0.0
C141 C 0.92848 0.27933 0.92854 0.0
O142 O 0.91371 0.2704 0.9204 0.0
C143 C 0.99048 0.09434 0.91742 0.0
C144 C 0.04014 0.08666 0.91667 0.0
C145 C 0.01234 0.07192 0.91634 0.0
N146 N 0.00474 0.12114 0.91827 0.0
N147 N 0.03438 0.11648 0.91778 0.0
C148 C 0.95681 0.09043 0.91839 0.0
H149 H 0.9472 0.10862 0.92327 0.0
H150 H 0.95116 0.06786 0.92165 0.0
H151 H 0.9463 0.09225 0.91076 0.0
C152 C 0.97574 0.20077 0.94651 0.0
N153 N 0.97435 0.19697 0.93641 0.0
N154 N 0.98528 0.17012 0.93398 0.0
C155 C 0.99435 0.15601 0.94257 0.0
C156 C 0.98845 0.17499 0.95075 0.0
C157 C 0.96734 0.2296 0.95184 0.0
H158 H 0.98126 0.24853 0.94877 0.0
H159 H 0.9431 0.23491 0.9503 0.0
H160 H 0.97097 0.22804 0.96015 0.0
O161 O -0.00043 0.23314 0.91756 0.0
O162 O 0.01573 0.1877 0.91271 0.0
H163 H 0.03102 0.12629 0.93882 0.0
H164 H 0.01308 0.11789 0.95085 0.0
C165 C 0.00902 0.12539 0.94292 0.0
H166 H 0.99426 0.10861 0.93903 0.0
H167 H 0.05069 0.13366 0.91829 0.0
O168 O 0.94949 0.26267 0.93213 0.0
C169 C 0.01808 0.21645 0.91266 0.0
Co170 Co 0.20281 0.86893 0.17911 0.0
Co171 Co 0.25883 0.89312 0.16713 0.0
C172 C 0.23284 0.8301 0.1638 0.0
O173 O 0.21322 0.83361 0.17081 0.0
O174 O 0.25177 0.85111 0.16159 0.0
C175 C 0.14769 0.84238 0.1866 0.0
O176 O 0.14807 0.8268 0.17809 0.0
C177 C 0.32239 0.89629 0.16079 0.0
C178 C 0.32565 0.94345 0.15509 0.0
C179 C 0.3425 0.91728 0.15668 0.0
N180 N 0.295 0.90948 0.16155 0.0
N181 N 0.29698 0.93755 0.15805 0.0
C182 C 0.32931 0.86525 0.16482 0.0
H183 H 0.31164 0.85809 0.17034 0.0
H184 H 0.35203 0.86486 0.1685 0.0
H185 H 0.3294 0.84881 0.15844 0.0
C186 C 0.24038 0.88665 0.19645 0.0
N187 N 0.23653 0.88325 0.1864 0.0
N188 N 0.26024 0.89431 0.18158 0.0
C189 C 0.27981 0.90586 0.1885 0.0
C190 C 0.26792 0.90098 0.19813 0.0
C191 C 0.21673 0.87879 0.2042 0.0
H192 H 0.19614 0.89273 0.2028 0.0
H193 H 0.21034 0.85452 0.20339 0.0
H194 H 0.22466 0.88297 0.21206 0.0
O195 O 0.18544 0.90057 0.17004 0.0
O196 O 0.22572 0.91921 0.16209 0.0
H197 H 0.30407 0.93949 0.17999 0.0
H198 H 0.31854 0.93342 0.19272 0.0
C199 C 0.3086 0.92224 0.18594 0.0
H200 H 0.32531 0.90577 0.18287 0.0
H201 H 0.27892 0.9529 0.15789 0.0
O202 O 0.17001 0.85951 0.18867 0.0
C203 C 0.19725 0.91903 0.16374 0.0
Co204 Co 0.54265 0.09441 0.42981 0.0
Co205 Co 0.51681 0.15138 0.41878 0.0
C206 C 0.57874 0.12369 0.41386 0.0
O207 O 0.57706 0.10411 0.42095 0.0
O208 O 0.55717 0.14248 0.41217 0.0
C209 C 0.57353 0.04158 0.43898 0.0
O210 O 0.59396 0.04263 0.43172 0.0
C211 C 0.51386 0.21648 0.41439 0.0
C212 C 0.47087 0.21983 0.40575 0.0
C213 C 0.49475 0.23685 0.40955 0.0
N214 N 0.50168 0.18862 0.41358 0.0
N215 N 0.47606 0.19073 0.40837 0.0
C216 C 0.54421 0.22289 0.41906 0.0
H217 H 0.55466 0.20167 0.42199 0.0
H218 H 0.54183 0.23945 0.42534 0.0
H219 H 0.55935 0.23329 0.41328 0.0
C220 C 0.52961 0.13155 0.44773 0.0
N221 N 0.5309 0.12832 0.4376 0.0
N222 N 0.51866 0.15221 0.43322 0.0
C223 C 0.50808 0.17104 0.44053 0.0
C224 C 0.51524 0.15871 0.44994 0.0
C225 C 0.53856 0.10723 0.45509 0.0
H226 H 0.52309 0.08757 0.45409 0.0
H227 H 0.56215 0.09971 0.45349 0.0
H228 H 0.53705 0.1148 0.46309 0.0
O229 O 0.50858 0.07866 0.42134 0.0
O230 O 0.48791 0.11986 0.41452 0.0
H231 H 0.47517 0.19601 0.43182 0.0
H232 H 0.47547 0.20492 0.44525 0.0
C233 C 0.4898 0.19911 0.4386 0.0
H234 H 0.50543 0.2184 0.4372 0.0
H235 H 0.46203 0.17231 0.40664 0.0
O236 O 0.55223 0.06099 0.43916 0.0
C237 C 0.48827 0.0913 0.4159 0.0
Co238 Co 0.31997 0.4517 0.67483 0.0
Co239 Co 0.25843 0.43853 0.66405 0.0
C240 C 0.28996 0.4987 0.66188 0.0
O241 O 0.31156 0.48972 0.66757 0.0
O242 O 0.26717 0.48163 0.66001 0.0
C243 C 0.37836 0.47288 0.68182 0.0
O244 O 0.37946 0.48832 0.67329 0.0
C245 C 0.19249 0.43965 0.66072 0.0
C246 C 0.18636 0.39993 0.65065 0.0
C247 C 0.17075 0.42283 0.65559 0.0
N248 N 0.21978 0.42706 0.65896 0.0
N249 N 0.21599 0.40345 0.65288 0.0
C250 C 0.18786 0.46831 0.66663 0.0
H251 H 0.20963 0.4762 0.66999 0.0
H252 H 0.17093 0.46475 0.67274 0.0
H253 H 0.17871 0.48612 0.66151 0.0
C254 C 0.28578 0.43161 0.69261 0.0
N255 N 0.2869 0.43866 0.6827 0.0
N256 N 0.26073 0.43202 0.67839 0.0
C257 C 0.24213 0.42002 0.68554 0.0
C258 C 0.25755 0.41946 0.69473 0.0
C259 C 0.31156 0.43606 0.69989 0.0
H260 H 0.32 0.45975 0.69932 0.0
H261 H 0.30467 0.43157 0.70785 0.0
H262 H 0.33041 0.42049 0.69783 0.0
O263 O 0.33159 0.42002 0.66495 0.0
O264 O 0.28792 0.41176 0.65702 0.0
H265 H 0.20453 0.391 0.68964 0.0
H266 H 0.19443 0.42588 0.68341 0.0
C267 C 0.21123 0.40714 0.68356 0.0
H268 H 0.21084 0.39537 0.67613 0.0
H269 H 0.2336 0.38952 0.65034 0.0
O270 O 0.35505 0.45703 0.6838 0.0
C271 C 0.31615 0.4064 0.65817 0.0
Co272 Co 0.69831 0.37306 0.67765 0.0
Co273 Co 0.7593 0.39369 0.66781 0.0
C274 C 0.73114 0.33352 0.66284 0.0
O275 O 0.70949 0.3387 0.66899 0.0
O276 O 0.75241 0.35278 0.66149 0.0
C277 C 0.64333 0.3421 0.68304 0.0
O278 O 0.64614 0.32903 0.67412 0.0
C279 C 0.82503 0.39567 0.66411 0.0
C280 C 0.82995 0.44035 0.65659 0.0
C281 C 0.84613 0.41517 0.65981 0.0
N282 N 0.79755 0.40884 0.66352 0.0
N283 N 0.80064 0.4355 0.65901 0.0
C284 C 0.83039 0.36418 0.66801 0.0
H285 H 0.80871 0.35358 0.67048 0.0
H286 H 0.84637 0.36472 0.67451 0.0
H287 H 0.84101 0.35022 0.66196 0.0
C288 C 0.73138 0.38676 0.69634 0.0
N289 N 0.73047 0.38423 0.68619 0.0
N290 N 0.75643 0.39346 0.6823 0.0
C291 C 0.77464 0.40278 0.68997 0.0
C292 C 0.75939 0.39837 0.69908 0.0
C293 C 0.70488 0.38053 0.70318 0.0
H294 H 0.68514 0.39437 0.7007 0.0
H295 H 0.69845 0.35622 0.70257 0.0
H296 H 0.70999 0.386 0.71122 0.0
O297 O 0.68519 0.40799 0.66915 0.0
O298 O 0.72889 0.42206 0.66221 0.0
H299 H 0.80513 0.43291 0.68222 0.0
H300 H 0.81304 0.42837 0.69563 0.0
C301 C 0.80545 0.41659 0.68863 0.0
H302 H 0.82201 0.39839 0.68686 0.0
H303 H 0.78269 0.45041 0.65756 0.0
O304 O 0.66332 0.36098 0.68594 0.0
C305 C 0.70036 0.42542 0.66333 0.0
Co306 Co 0.82419 0.92447 0.16741 0.0
Co307 Co 0.75508 0.91183 0.1647 0.0
C308 C 0.78201 0.96892 0.15707 0.0
O309 O 0.80771 0.9601 0.16036 0.0
O310 O 0.75831 0.95247 0.15795 0.0
C311 C 0.87381 0.95803 0.17597 0.0
O312 O 0.85282 0.97672 0.17933 0.0
C313 C 0.68844 0.91057 0.16177 0.0
C314 C 0.67775 0.86499 0.1679 0.0
C315 C 0.66475 0.89028 0.16342 0.0
N316 N 0.7142 0.89789 0.16526 0.0
N317 N 0.70764 0.87064 0.16887 0.0
C318 C 0.68748 0.93989 0.15601 0.0
H319 H 0.69109 0.95903 0.16136 0.0
H320 H 0.6656 0.94301 0.15196 0.0
H321 H 0.70615 0.94033 0.15036 0.0
C322 C 0.80921 0.91333 0.18892 0.0
N323 N 0.80131 0.91607 0.1791 0.0
N324 N 0.77168 0.91285 0.17818 0.0
C325 C 0.75964 0.90912 0.18754 0.0
C326 C 0.78309 0.90931 0.19462 0.0
C327 C 0.8413 0.91167 0.1927 0.0
H328 H 0.85647 0.90241 0.18674 0.0
H329 H 0.84911 0.93476 0.19482 0.0
H330 H 0.84284 0.89702 0.19954 0.0
O331 O 0.82532 0.88844 0.1587 0.0
O332 O 0.77607 0.88031 0.15635 0.0
H333 H 0.71922 0.88284 0.18937 0.0
H334 H 0.72123 0.91563 0.19747 0.0
C335 C 0.72634 0.90699 0.18974 0.0
H336 H 0.71317 0.92016 0.18407 0.0
H337 H 0.72374 0.85569 0.17187 0.0
O338 O 0.86617 0.93472 0.17089 0.0
C339 C 0.80374 0.87319 0.15481 0.0
Co340 Co 0.82082 0.37627 0.82902 0.0
Co341 Co 0.75664 0.39585 0.83675 0.0
C342 C 0.78052 0.33362 0.84072 0.0
O343 O 0.80457 0.34008 0.83582 0.0
O344 O 0.75935 0.35309 0.84193 0.0
C345 C 0.86414 0.34314 0.81639 0.0
O346 O 0.84136 0.32653 0.81311 0.0
C347 C 0.69005 0.39798 0.83902 0.0
C348 C 0.6827 0.44692 0.84187 0.0
C349 C 0.66755 0.41958 0.84063 0.0
N350 N 0.7172 0.412 0.83928 0.0
N351 N 0.71265 0.44118 0.84109 0.0
C352 C 0.68595 0.36521 0.83632 0.0
H353 H 0.70575 0.35688 0.83191 0.0
H354 H 0.66477 0.36187 0.83188 0.0
H355 H 0.68429 0.35167 0.84341 0.0
C356 C 0.79571 0.39707 0.80944 0.0
N357 N 0.7932 0.39177 0.81946 0.0
N358 N 0.76553 0.39885 0.82247 0.0
C359 C 0.74938 0.40822 0.8143 0.0
C360 C 0.76808 0.40724 0.80583 0.0
C361 C 0.82437 0.39411 0.80339 0.0
H362 H 0.84443 0.3994 0.80815 0.0
H363 H 0.82625 0.37061 0.80043 0.0
H364 H 0.82404 0.4098 0.79679 0.0
O365 O 0.83072 0.40777 0.83905 0.0
O366 O 0.78539 0.42138 0.84488 0.0
H367 H 0.71375 0.43688 0.81976 0.0
H368 H 0.70842 0.42388 0.80686 0.0
C369 C 0.71666 0.41738 0.81453 0.0
H370 H 0.70277 0.39822 0.81742 0.0
H371 H 0.72999 0.45731 0.84154 0.0
O372 O 0.85951 0.36438 0.82273 0.0
C373 C 0.81426 0.42377 0.8449 0.0
Co374 Co 0.69956 0.9198 0.32147 0.0
Co375 Co 0.75903 0.90148 0.3329 0.0
C376 C 0.7219 0.95679 0.33881 0.0
O377 O 0.70268 0.95222 0.33174 0.0
O378 O 0.7446 0.93909 0.34008 0.0
C379 C 0.65084 0.95252 0.31093 0.0
O380 O 0.65621 0.97562 0.31698 0.0
C381 C 0.82292 0.90643 0.33925 0.0
C382 C 0.83321 0.85866 0.34315 0.0
C383 C 0.84617 0.8873 0.3425 0.0
N384 N 0.79772 0.88964 0.33791 0.0
N385 N 0.80396 0.8612 0.34033 0.0
C386 C 0.82398 0.94013 0.33772 0.0
H387 H 0.80112 0.95019 0.33873 0.0
H388 H 0.83152 0.94513 0.32986 0.0
H389 H 0.84012 0.95082 0.34313 0.0
C390 C 0.74055 0.91718 0.30399 0.0
N391 N 0.73585 0.916 0.31405 0.0
N392 N 0.76083 0.90671 0.31857 0.0
C393 C 0.78202 0.90075 0.31141 0.0
C394 C 0.76977 0.90746 0.30196 0.0
C395 C 0.7168 0.92543 0.29634 0.0
H396 H 0.70543 0.94681 0.29865 0.0
H397 H 0.72694 0.92862 0.28872 0.0
H398 H 0.69952 0.90709 0.29598 0.0
O399 O 0.68898 0.88078 0.32826 0.0
O400 O 0.73127 0.86785 0.33631 0.0
H401 H 0.82317 0.87859 0.30631 0.0
H402 H 0.8272 0.90274 0.31728 0.0
C403 C 0.81211 0.88616 0.31344 0.0
H404 H 0.80903 0.86643 0.31858 0.0
H405 H 0.78833 0.84335 0.3399 0.0
O406 O 0.6661 0.92819 0.31189 0.0
C407 C 0.70379 0.86253 0.33392 0.0
Co408 Co 0.48835 0.59228 0.57693 0.0
Co409 Co 0.50257 0.65894 0.58279 0.0
C410 C 0.44387 0.6306 0.58874 0.0
O411 O 0.45221 0.60604 0.58445 0.0
O412 O 0.46081 0.65413 0.58863 0.0
C413 C 0.46099 0.53947 0.56624 0.0
O414 O 0.43942 0.55613 0.56216 0.0
C415 C 0.50384 0.7239 0.58828 0.0
C416 C 0.55028 0.73632 0.58332 0.0
C417 C 0.52429 0.7479 0.58779 0.0
N418 N 0.51711 0.69937 0.58413 0.0
N419 N 0.54488 0.70691 0.58125 0.0
C420 C 0.47355 0.7232 0.59345 0.0
H421 H 0.45536 0.72118 0.58765 0.0
H422 H 0.46963 0.74377 0.59813 0.0
H423 H 0.47226 0.70299 0.59846 0.0
C424 C 0.50134 0.61505 0.55633 0.0
N425 N 0.4989 0.61896 0.56642 0.0
N426 N 0.50316 0.64777 0.56866 0.0
C427 C 0.50712 0.66338 0.5599 0.0
C428 C 0.50598 0.64306 0.55183 0.0
C429 C 0.50143 0.58487 0.55108 0.0
H430 H 0.51108 0.56715 0.55612 0.0
H431 H 0.47784 0.57863 0.54899 0.0
H432 H 0.51511 0.58585 0.544 0.0
O433 O 0.52224 0.58717 0.58624 0.0
O434 O 0.53155 0.63423 0.59125 0.0
H435 H 0.53387 0.7038 0.56023 0.0
H436 H 0.50209 0.70545 0.55165 0.0
C437 C 0.50973 0.6972 0.55919 0.0
H438 H 0.49598 0.70815 0.56522 0.0
H439 H 0.56025 0.69184 0.57792 0.0
O440 O 0.48092 0.5514 0.57194 0.0
C441 C 0.53704 0.60586 0.59164 0.0
Co442 Co 0.00068 0.70958 0.07882 0.0
Co443 Co 0.00963 0.64141 0.08399 0.0
C444 C 0.05385 0.68691 0.09142 0.0
O445 O 0.03817 0.70771 0.08716 0.0
O446 O 0.04605 0.65901 0.09087 0.0
C447 C 0.01403 0.76814 0.06953 0.0
O448 O 0.04189 0.75853 0.06791 0.0
C449 C 0.02077 0.57893 0.09138 0.0
C450 C 0.98917 0.5535 0.08147 0.0
C451 C 0.00931 0.55001 0.08946 0.0
N452 N 0.00819 0.59832 0.08468 0.0
N453 N 0.98919 0.58296 0.07886 0.0
C454 C 0.0399 0.58885 0.10017 0.0
H455 H 0.03422 0.61253 0.10233 0.0
H456 H 0.06421 0.58808 0.09793 0.0
H457 H 0.03644 0.57376 0.10682 0.0
C458 C 0.00218 0.68669 0.05789 0.0
N459 N 0.00266 0.68224 0.06799 0.0
N460 N 0.00902 0.65363 0.06994 0.0
C461 C 0.01442 0.6393 0.06103 0.0
C462 C 0.01007 0.65983 0.05316 0.0
C463 C 0.99315 0.71574 0.0528 0.0
H464 H 0.97587 0.72784 0.05739 0.0
H465 H 0.01347 0.73041 0.0519 0.0
H466 H 0.98364 0.71128 0.04514 0.0
O467 O 0.96494 0.70173 0.08699 0.0
O468 O 0.9722 0.65397 0.09168 0.0
H469 H 0.0081 0.59182 0.05842 0.0
H470 H 0.04308 0.60666 0.05354 0.0
C471 C 0.02696 0.60785 0.06002 0.0
H472 H 0.03878 0.60087 0.06708 0.0
H473 H 0.97524 0.59286 0.07336 0.0
O474 O 0.99495 0.75097 0.07391 0.0
C475 C 0.95669 0.67834 0.09185 0.0
Co476 Co 0.47464 0.71608 0.42133 0.0
Co477 Co 0.48914 0.65147 0.41315 0.0
C478 C 0.42833 0.68311 0.40965 0.0
O479 O 0.4353 0.70567 0.41524 0.0
O480 O 0.44701 0.66132 0.40813 0.0
C481 C 0.45363 0.77024 0.43315 0.0
O482 O 0.42565 0.75998 0.43382 0.0
C483 C 0.48463 0.58479 0.41129 0.0
C484 C 0.5263 0.57493 0.40248 0.0
C485 C 0.50115 0.56143 0.40689 0.0
N486 N 0.49951 0.61098 0.40959 0.0
N487 N 0.52437 0.60489 0.40433 0.0
C488 C 0.45426 0.58267 0.41635 0.0
H489 H 0.4562 0.56941 0.42347 0.0
H490 H 0.43811 0.57047 0.41131 0.0
H491 H 0.44535 0.60564 0.41814 0.0
C492 C 0.49374 0.68765 0.4406 0.0
N493 N 0.48812 0.68606 0.43057 0.0
N494 N 0.4941 0.65843 0.42733 0.0
C495 C 0.50392 0.64157 0.43526 0.0
C496 C 0.50407 0.65965 0.44389 0.0
C497 C 0.48796 0.71514 0.44701 0.0
H498 H 0.46381 0.72192 0.44622 0.0
H499 H 0.4927 0.71092 0.45516 0.0
H500 H 0.50248 0.73414 0.44435 0.0
O501 O 0.50414 0.72305 0.41022 0.0
O502 O 0.5181 0.67684 0.40547 0.0
H503 H 0.52785 0.60275 0.44133 0.0
H504 H 0.49403 0.59427 0.43417 0.0
C505 C 0.51422 0.60927 0.43457 0.0
H506 H 0.52795 0.6059 0.42761 0.0
H507 H 0.54001 0.62122 0.40194 0.0
O508 O 0.47364 0.75516 0.42838 0.0
C509 C 0.52033 0.70552 0.4048 0.0
Co510 Co 0.06099 0.60265 0.92231 0.0
Co511 Co 0.03313 0.66271 0.9142 0.0
C512 C 0.09546 0.64197 0.90796 0.0
O513 O 0.09347 0.61869 0.91364 0.0
O514 O 0.07378 0.66113 0.90735 0.0
C515 C 0.08309 0.54479 0.92323 0.0
O516 O 0.08821 0.55138 0.91365 0.0
C517 C 0.02436 0.72846 0.91192 0.0
C518 C 0.97588 0.73039 0.90748 0.0
C519 C 0.0009 0.74841 0.9096 0.0
N520 N 0.01345 0.70002 0.91135 0.0
N521 N 0.98455 0.70131 0.90864 0.0
C522 C 0.05685 0.73593 0.91424 0.0
H523 H 0.05941 0.73998 0.92251 0.0
H524 H 0.06407 0.7567 0.91011 0.0
H525 H 0.0719 0.71677 0.91216 0.0
C526 C 0.04529 0.62913 0.9419 0.0
N527 N 0.04774 0.63115 0.93177 0.0
N528 N 0.03527 0.6566 0.92859 0.0
C529 C 0.02425 0.67167 0.93675 0.0
C530 C 0.03021 0.65461 0.9454 0.0
C531 C 0.05652 0.60276 0.94803 0.0
H532 H 0.08019 0.59726 0.94578 0.0
H533 H 0.05599 0.60764 0.95629 0.0
H534 H 0.04212 0.58261 0.94643 0.0
O535 O 0.02607 0.58845 0.91403 0.0
O536 O 0.00727 0.63135 0.90781 0.0
H537 H 0.99535 0.70571 0.94363 0.0
H538 H 0.02086 0.71932 0.93393 0.0
C539 C 0.0059 0.70024 0.9362 0.0
H540 H 0.98786 0.69778 0.93038 0.0
H541 H 0.97062 0.68234 0.9077 0.0
O542 O 0.07506 0.56602 0.92914 0.0
C543 C 0.0069 0.60259 0.90858 0.0
H544 H 0.06166 0.52974 0.09888 0.0
H545 H 0.07027 0.47956 0.10634 0.0
H546 H 0.97829 0.45382 0.09878 0.0
H547 H 0.96904 0.50421 0.09193 0.0
H548 H 0.99281 0.42894 0.11602 0.0
H549 H 0.04111 0.43955 0.08284 0.0
H550 H 0.07704 0.46246 0.07066 0.0
H551 H 0.15169 0.44061 0.09037 0.0
H552 H 0.1161 0.41786 0.10272 0.0
H553 H 0.9883 0.28201 0.09545 0.0
H554 H 0.98883 0.33571 0.09976 0.0
H555 H 0.07552 0.32469 0.11459 0.0
H556 H 0.07441 0.27018 0.11078 0.0
H557 H 0.07326 0.36917 0.09878 0.0
H558 H 0.02119 0.34428 0.12925 0.0
H559 H 0.98248 0.31901 0.13983 0.0
H560 H 0.91164 0.36552 0.12366 0.0
H561 H 0.94987 0.39074 0.11287 0.0
C562 C 0.04296 0.51379 0.09915 0.0
C563 C 0.01457 0.52105 0.09488 0.0
C564 C 0.04804 0.48495 0.1033 0.0
C565 C 0.02503 0.46279 0.10302 0.0
C566 C 0.99638 0.47052 0.09913 0.0
C567 C 0.99121 0.49929 0.09511 0.0
C568 C 0.03102 0.4307 0.1058 0.0
C569 C 0.0105 0.41587 0.1123 0.0
C570 C 0.05461 0.41377 0.10116 0.0
C571 C 0.07596 0.42742 0.09375 0.0
C572 C 0.06517 0.43984 0.0846 0.0
C573 C 0.08547 0.45276 0.07767 0.0
C574 C 0.11662 0.4531 0.07976 0.0
C575 C 0.12755 0.44042 0.08878 0.0
C576 C 0.10734 0.42752 0.09575 0.0
C577 C 0.00673 0.29048 0.10009 0.0
C578 C 0.03085 0.27154 0.10306 0.0
C579 C 0.00717 0.32136 0.10245 0.0
C580 C 0.03201 0.33399 0.10762 0.0
C581 C 0.056 0.31521 0.1107 0.0
C582 C 0.05533 0.28416 0.10849 0.0
C583 C 0.03419 0.36733 0.10861 0.0
C584 C 0.05625 0.38237 0.10281 0.0
C585 C 0.01162 0.38429 0.11371 0.0
C586 C 0.98846 0.36934 0.12022 0.0
C587 C 0.99735 0.34898 0.1279 0.0
C588 C 0.97548 0.33468 0.13395 0.0
C589 C 0.94462 0.34064 0.13241 0.0
C590 C 0.93556 0.36095 0.12484 0.0
C591 C 0.95733 0.3753 0.11877 0.0
H592 H 0.92772 0.32954 0.1371 0.0
H593 H 0.1323 0.4631 0.07438 0.0
H594 H 0.12188 0.96548 0.33488 0.0
H595 H 0.06734 0.95812 0.33728 0.0
H596 H 0.08475 0.87363 0.3529 0.0
H597 H 0.13945 0.88072 0.35033 0.0
H598 H 0.03994 0.86648 0.34011 0.0
H599 H 0.06268 0.93824 0.36588 0.0
H600 H 0.08418 0.98475 0.37344 0.0
H601 H 0.02761 0.03954 0.35419 0.0
H602 H 0.00606 0.99335 0.3464 0.0
H603 H 0.8842 0.85811 0.35548 0.0
H604 H 0.93918 0.86492 0.35727 0.0
H605 H 0.93682 0.93744 0.33529 0.0
H606 H 0.88245 0.92985 0.33304 0.0
H607 H 0.97385 0.94846 0.35362 0.0
H608 H 0.9561 0.87431 0.32684 0.0
H609 H 0.93441 0.82685 0.32002 0.0
H610 H 0.98204 0.77535 0.34269 0.0
H611 H 0.00365 0.82262 0.34974 0.0
C612 C 0.11403 0.94536 0.33884 0.0
C613 C 0.13476 0.92346 0.3423 0.0
C614 C 0.08291 0.94126 0.34026 0.0
C615 C 0.07199 0.91554 0.34541 0.0
C616 C 0.0927 0.89362 0.3489 0.0
C617 C 0.12388 0.89757 0.34737 0.0
C618 C 0.03886 0.91119 0.3468 0.0
C619 C 0.02561 0.88419 0.34326 0.0
C620 C 0.02008 0.93439 0.35083 0.0
C621 C 0.03291 0.96229 0.3555 0.0
C622 C 0.05498 0.9602 0.36321 0.0
C623 C 0.06715 0.98652 0.36754 0.0
C624 C 0.05731 0.01508 0.36429 0.0
C625 C 0.03522 0.01739 0.3567 0.0
C626 C 0.02299 0.99115 0.35233 0.0
C627 C 0.89533 0.87574 0.3511 0.0
C628 C 0.8787 0.89393 0.3443 0.0
C629 C 0.92667 0.87961 0.35216 0.0
C630 C 0.94183 0.90179 0.34645 0.0
C631 C 0.92529 0.92053 0.33987 0.0
C632 C 0.89405 0.91638 0.33869 0.0
C633 C 0.97524 0.90412 0.34677 0.0
C634 C 0.98841 0.9307 0.35062 0.0
C635 C 0.994 0.88041 0.34317 0.0
C636 C 0.98117 0.85201 0.33889 0.0
C637 C 0.96171 0.85289 0.33043 0.0
C638 C 0.94948 0.82603 0.32651 0.0
C639 C 0.95676 0.79811 0.33094 0.0
C640 C 0.97637 0.797 0.33928 0.0
C641 C 0.98862 0.82381 0.34324 0.0
H642 H 0.94728 0.77733 0.32789 0.0
H643 H 0.06676 0.03543 0.36765 0.0
H644 H 0.53388 0.03767 0.60406 0.0
H645 H 0.54168 0.98286 0.60577 0.0
H646 H 0.45271 0.9666 0.59306 0.0
H647 H 0.44483 0.02134 0.59133 0.0
H648 H 0.46502 0.92784 0.60861 0.0
H649 H 0.51522 0.96442 0.57822 0.0
H650 H 0.55089 0.99742 0.56888 0.0
H651 H 0.62536 0.96224 0.58639 0.0
H652 H 0.59 0.92938 0.59596 0.0
H653 H 0.47416 0.78368 0.58535 0.0
H654 H 0.46881 0.83724 0.58986 0.0
H655 H 0.56058 0.83783 0.60147 0.0
H656 H 0.56595 0.78405 0.597 0.0
H657 H 0.55071 0.88432 0.58888 0.0
H658 H 0.50067 0.84221 0.6177 0.0
H659 H 0.46455 0.80928 0.62686 0.0
H660 H 0.38964 0.85414 0.61228 0.0
H661 H 0.42532 0.88705 0.60292 0.0
C662 C 0.51612 0.02239 0.60157 0.0
C663 C 0.48914 0.03362 0.59727 0.0
C664 C 0.52047 0.99115 0.60264 0.0
C665 C 0.49796 0.97074 0.59939 0.0
C666 C 0.47037 0.982 0.5956 0.0
C667 C 0.46596 0.01322 0.59458 0.0
C668 C 0.50384 0.9377 0.5992 0.0
C669 C 0.48366 0.91823 0.60427 0.0
C670 C 0.52862 0.92536 0.59374 0.0
C671 C 0.54994 0.9447 0.58787 0.0
C672 C 0.53917 0.96387 0.58012 0.0
C673 C 0.55933 0.98254 0.57479 0.0
C674 C 0.59036 0.98199 0.57706 0.0
C675 C 0.60131 0.96269 0.58465 0.0
C676 C 0.58122 0.94403 0.59003 0.0
C677 C 0.49285 0.795 0.58913 0.0
C678 C 0.5202 0.77963 0.59106 0.0
C679 C 0.48984 0.82561 0.59167 0.0
C680 C 0.51413 0.84133 0.59616 0.0
C681 C 0.5415 0.82601 0.59808 0.0
C682 C 0.54453 0.79539 0.59553 0.0
C683 C 0.51158 0.87428 0.59815 0.0
C684 C 0.53236 0.8938 0.59339 0.0
C685 C 0.48731 0.8866 0.60387 0.0
C686 C 0.46572 0.86698 0.60955 0.0
C687 C 0.4765 0.84492 0.61639 0.0
C688 C 0.4561 0.82627 0.62163 0.0
C689 C 0.42482 0.82958 0.62014 0.0
C690 C 0.41387 0.85159 0.61343 0.0
C691 C 0.43418 0.87028 0.60816 0.0
H692 H 0.40906 0.81511 0.6242 0.0
H693 H 0.60594 0.99646 0.57292 0.0
H694 H 0.38165 0.35836 0.84782 0.0
H695 H 0.43694 0.36334 0.8488 0.0
H696 H 0.43342 0.43961 0.82823 0.0
H697 H 0.37822 0.43386 0.8269 0.0
H698 H 0.47739 0.40188 0.82296 0.0
H699 H 0.44612 0.44949 0.85385 0.0
H700 H 0.41912 0.45395 0.87018 0.0
H701 H 0.46824 0.37711 0.88178 0.0
H702 H 0.49524 0.37192 0.86546 0.0
H703 H 0.62658 0.45772 0.83205 0.0
H704 H 0.57119 0.45242 0.83159 0.0
H705 H 0.57777 0.36845 0.84833 0.0
H706 H 0.63331 0.37368 0.84884 0.0
H707 H 0.53274 0.40974 0.85568 0.0
H708 H 0.56433 0.36326 0.82444 0.0
H709 H 0.59179 0.36074 0.80815 0.0
H710 H 0.54206 0.43812 0.79727 0.0
H711 H 0.51462 0.4414 0.81357 0.0
C712 C 0.39268 0.37633 0.84357 0.0
C713 C 0.37555 0.39628 0.83752 0.0
C714 C 0.42423 0.37926 0.84418 0.0
C715 C 0.43928 0.40222 0.83874 0.0
C716 C 0.42224 0.42195 0.83259 0.0
C717 C 0.39066 0.41895 0.83195 0.0
C718 C 0.47288 0.40495 0.83922 0.0
C719 C 0.48943 0.40404 0.83011 0.0
C720 C 0.48867 0.40707 0.84856 0.0
C721 C 0.47248 0.41013 0.85839 0.0
C722 C 0.45098 0.43338 0.85985 0.0
C723 C 0.43571 0.43607 0.86911 0.0
C724 C 0.4419 0.41578 0.87701 0.0
C725 C 0.46344 0.39279 0.87566 0.0
C726 C 0.47875 0.38998 0.86641 0.0
C727 C 0.6162 0.43811 0.83562 0.0
C728 C 0.6342 0.41585 0.84034 0.0
C729 C 0.58463 0.43507 0.83532 0.0
C730 C 0.5705 0.40991 0.83984 0.0
C731 C 0.58834 0.38793 0.84475 0.0
C732 C 0.62002 0.39077 0.84494 0.0
C733 C 0.53703 0.40673 0.83944 0.0
C734 C 0.52058 0.40755 0.84855 0.0
C735 C 0.52131 0.40479 0.8301 0.0
C736 C 0.53764 0.40276 0.82027 0.0
C737 C 0.55944 0.3799 0.81861 0.0
C738 C 0.57496 0.37831 0.80937 0.0
C739 C 0.56873 0.39931 0.80169 0.0
C740 C 0.54689 0.4219 0.80323 0.0
C741 C 0.53133 0.42362 0.81247 0.0
H742 H 0.58077 0.39803 0.79454 0.0
H743 H 0.43006 0.41791 0.88417 0.0
H744 H 0.96875 0.78604 0.89729 0.0
H745 H 0.96658 0.84156 0.89788 0.0
H746 H 0.03022 0.84164 0.92282 0.0
H747 H 0.03111 0.78636 0.92264 0.0
H748 H 0.98511 0.87913 0.92649 0.0
H749 H 0.05188 0.85954 0.89819 0.0
H750 H 0.06634 0.83723 0.88172 0.0
H751 H 0.99219 0.88365 0.86725 0.0
H752 H 0.97705 0.90593 0.88367 0.0
H753 H 0.04495 0.02763 0.9255 0.0
H754 H 0.03844 0.97264 0.92376 0.0
H755 H 0.9643 0.98708 0.90286 0.0
H756 H 0.97077 0.04222 0.90456 0.0
H757 H 0.00882 0.94322 0.89651 0.0
H758 H 0.94537 0.96629 0.92498 0.0
H759 H 0.9331 0.9894 0.94152 0.0
H760 H 0.00336 0.93671 0.95575 0.0
H761 H 0.01639 0.91363 0.93926 0.0
C762 C 0.98236 0.79796 0.90287 0.0
C763 C 0.00087 0.7819 0.9097 0.0
C764 C 0.98121 0.82963 0.90316 0.0
C765 C 0.99867 0.84569 0.91027 0.0
C766 C 0.01682 0.82966 0.9172 0.0
C767 C 0.01776 0.79803 0.91696 0.0
C768 C 0.99775 0.87923 0.91068 0.0
C769 C 0.99055 0.89313 0.91995 0.0
C770 C 0.00399 0.89743 0.90206 0.0
C771 C 0.01313 0.88413 0.89218 0.0
C772 C 0.03852 0.8648 0.89151 0.0
C773 C 0.04686 0.85219 0.88218 0.0
C774 C 0.03014 0.85894 0.87345 0.0
C775 C 0.00509 0.87839 0.87402 0.0
C776 C 0.99663 0.89103 0.88334 0.0
C777 C 0.02723 0.01902 0.92056 0.0
C778 C 0.00798 0.03898 0.9153 0.0
C779 C 0.02349 0.98774 0.91959 0.0
C780 C 0.00068 0.97601 0.91327 0.0
C781 C 0.98184 0.99586 0.90783 0.0
C782 C 0.98536 0.02723 0.90888 0.0
C783 C 0.99688 0.94289 0.91235 0.0
C784 C 0.00309 0.92913 0.90299 0.0
C785 C 0.98997 0.92478 0.9209 0.0
C786 C 0.98201 0.9384 0.93086 0.0
C787 C 0.95837 0.9598 0.93162 0.0
C788 C 0.95125 0.97287 0.94099 0.0
C789 C 0.96748 0.96458 0.94968 0.0
C790 C 0.99082 0.94313 0.94901 0.0
C791 C 0.99806 0.93002 0.93966 0.0
H792 H 0.96193 0.97472 0.95693 0.0
H793 H 0.03664 0.84916 0.86623 0.0
H794 H 0.37454 0.86815 0.14968 0.0
H795 H 0.42985 0.86303 0.14861 0.0
H796 H 0.44033 0.95535 0.15907 0.0
H797 H 0.38508 0.96058 0.16012 0.0
H798 H 0.48066 0.94225 0.14426 0.0
H799 H 0.44582 0.89619 0.17545 0.0
H800 H 0.41447 0.86093 0.18556 0.0
H801 H 0.45398 0.78495 0.16996 0.0
H802 H 0.48521 0.81982 0.15962 0.0
H803 H 0.62861 0.94028 0.16579 0.0
H804 H 0.5741 0.94419 0.16232 0.0
H805 H 0.57289 0.85073 0.15242 0.0
H806 H 0.62745 0.84678 0.15587 0.0
H807 H 0.52804 0.86202 0.16549 0.0
H808 H 0.56654 0.90848 0.1353 0.0
H809 H 0.59773 0.94417 0.12531 0.0
H810 H 0.55186 0.01968 0.13913 0.0
H811 H 0.52069 0.98444 0.14932 0.0
C812 C 0.38866 0.88724 0.15182 0.0
C813 C 0.37564 0.91446 0.15527 0.0
C814 C 0.4202 0.88438 0.15113 0.0
C815 C 0.43914 0.90864 0.15394 0.0
C816 C 0.4261 0.93633 0.1569 0.0
C817 C 0.39458 0.93925 0.15752 0.0
C818 C 0.47251 0.90474 0.15441 0.0
C819 C 0.49109 0.92486 0.14895 0.0
C820 C 0.48598 0.88162 0.16037 0.0
C821 C 0.46761 0.86062 0.1667 0.0
C822 C 0.44768 0.87197 0.17413 0.0
C823 C 0.42994 0.85206 0.1799 0.0
C824 C 0.43218 0.82072 0.17838 0.0
C825 C 0.45224 0.80923 0.17111 0.0
C826 C 0.46997 0.82905 0.1653 0.0
C827 C 0.61684 0.92084 0.16264 0.0
C828 C 0.63227 0.89344 0.16088 0.0
C829 C 0.58571 0.92305 0.1607 0.0
C830 C 0.56957 0.89788 0.15697 0.0
C831 C 0.58497 0.87046 0.15524 0.0
C832 C 0.61606 0.86823 0.15721 0.0
C833 C 0.53632 0.89969 0.1554 0.0
C834 C 0.51771 0.8792 0.16069 0.0
C835 C 0.52288 0.92252 0.14931 0.0
C836 C 0.54144 0.9438 0.14314 0.0
C837 C 0.56325 0.9327 0.13627 0.0
C838 C 0.58091 0.95285 0.13056 0.0
C839 C 0.57682 0.98418 0.1316 0.0
C840 C 0.55501 0.99541 0.13833 0.0
C841 C 0.53732 0.97536 0.14407 0.0
H842 H 0.59051 -0.00026 0.12717 0.0
H843 H 0.41842 0.80534 0.18286 0.0
H844 H 0.50184 0.27604 0.42529 0.0
H845 H 0.50164 0.33171 0.42456 0.0
H846 H 0.49142 0.328 0.39202 0.0
H847 H 0.49131 0.27219 0.39274 0.0
H848 H 0.53774 0.3708 0.40019 0.0
H849 H 0.43205 0.34175 0.40355 0.0
H850 H 0.3893 0.31481 0.41166 0.0
H851 H 0.40631 0.36217 0.43958 0.0
H852 H 0.44949 0.38907 0.43167 0.0
H853 H 0.50292 0.52345 0.39079 0.0
H854 H 0.49952 0.46798 0.391 0.0
H855 H 0.48493 0.46998 0.42341 0.0
H856 H 0.48748 0.52554 0.42313 0.0
H857 H 0.45123 0.42731 0.41534 0.0
H858 H 0.55578 0.45589 0.41304 0.0
H859 H 0.60066 0.48221 0.40607 0.0
H860 H 0.58922 0.43545 0.37772 0.0
H861 H 0.54398 0.40915 0.38449 0.0
C862 C 0.50027 0.28715 0.41797 0.0
C863 C 0.49718 0.27009 0.40904 0.0
C864 C 0.49982 0.31883 0.41758 0.0
C865 C 0.4965 0.33376 0.40824 0.0
C866 C 0.49409 0.31674 0.39928 0.0
C867 C 0.49401 0.28504 0.39969 0.0
C868 C 0.49472 0.3672 0.40786 0.0
C869 C 0.51868 0.38324 0.40336 0.0
C870 C 0.47026 0.38318 0.41231 0.0
C871 C 0.4442 0.36717 0.41705 0.0
C872 C 0.42686 0.34621 0.41145 0.0
C873 C 0.40251 0.33099 0.416 0.0
C874 C 0.39515 0.33671 0.42614 0.0
C875 C 0.41207 0.35773 0.43174 0.0
C876 C 0.43646 0.37298 0.42722 0.0
C877 C 0.49844 0.51198 0.39791 0.0
C878 C 0.49509 0.5286 0.40692 0.0
C879 C 0.49671 0.48035 0.39805 0.0
C880 C 0.49258 0.46481 0.40725 0.0
C881 C 0.4881 0.4815 0.41622 0.0
C882 C 0.48933 0.51322 0.41605 0.0
C883 C 0.49424 0.4312 0.40759 0.0
C884 C 0.47031 0.41502 0.41212 0.0
C885 C 0.51905 0.41509 0.40333 0.0
C886 C 0.54631 0.43079 0.39924 0.0
C887 C 0.56269 0.45139 0.4053 0.0
C888 C 0.58822 0.46628 0.40139 0.0
C889 C 0.59774 0.46057 0.39145 0.0
C890 C 0.58179 0.43989 0.38541 0.0
C891 C 0.55622 0.42497 0.38928 0.0
H892 H 0.61751 0.47212 0.38844 0.0
H893 H 0.37629 0.32491 0.42965 0.0
H894 H 0.88561 0.40114 0.67501 0.0
H895 H 0.94126 0.40099 0.67412 0.0
H896 H 0.93684 0.42309 0.64225 0.0
H897 H 0.88109 0.42329 0.64312 0.0
H898 H 0.9813 0.37653 0.64792 0.0
H899 H 0.94828 0.47813 0.65687 0.0
H900 H 0.91996 0.51517 0.66725 0.0
H901 H 0.96926 0.48698 0.69377 0.0
H902 H 0.99756 0.44942 0.68357 0.0
H903 H 0.13188 0.4246 0.63967 0.0
H904 H 0.07621 0.4233 0.64028 0.0
H905 H 0.07952 0.42296 0.67304 0.0
H906 H 0.13506 0.425 0.67241 0.0
H907 H 0.03499 0.45754 0.66707 0.0
H908 H 0.06848 0.35712 0.65907 0.0
H909 H 0.09631 0.31761 0.6496 0.0
H910 H 0.04635 0.33972 0.62259 0.0
H911 H 0.0185 0.37969 0.63186 0.0
C912 C 0.89652 0.40505 0.66776 0.0
C913 C 0.87927 0.41169 0.65908 0.0
C914 C 0.92823 0.40528 0.66729 0.0
C915 C 0.94298 0.41207 0.65812 0.0
C916 C 0.92575 0.41768 0.64937 0.0
C917 C 0.89406 0.41786 0.64987 0.0
C918 C 0.97635 0.41512 0.6578 0.0
C919 C 0.99313 0.3944 0.652 0.0
C920 C 0.99157 0.43797 0.66336 0.0
C921 C 0.9748 0.46076 0.66948 0.0
C922 C 0.9529 0.47966 0.66493 0.0
C923 C 0.93689 0.50077 0.67078 0.0
C924 C 0.94275 0.50337 0.68117 0.0
C925 C 0.96471 0.48491 0.68572 0.0
C926 C 0.98076 0.46372 0.67991 0.0
C927 C 0.12056 0.42478 0.64698 0.0
C928 C 0.1375 0.42553 0.65599 0.0
C929 C 0.08887 0.42378 0.64733 0.0
C930 C 0.07373 0.42255 0.65671 0.0
C931 C 0.09071 0.42402 0.66572 0.0
C932 C 0.12239 0.42547 0.66536 0.0
C933 C 0.04026 0.41896 0.65714 0.0
C934 C 0.02335 0.43959 0.66297 0.0
C935 C 0.02498 0.39567 0.65173 0.0
C936 C 0.04162 0.37161 0.64613 0.0
C937 C 0.06359 0.35372 0.65109 0.0
C938 C 0.07934 0.33121 0.64576 0.0
C939 C 0.07316 0.32621 0.63549 0.0
C940 C 0.05115 0.34366 0.63054 0.0
C941 C 0.03535 0.36622 0.63583 0.0
H942 H 0.08538 0.30878 0.63138 0.0
H943 H 0.93033 0.51974 0.68568 0.0
H944 H 0.06497 0.18076 0.04591 0.0
H945 H 0.06709 0.18688 0.02735 0.0
H946 H 0.96924 0.19225 0.02637 0.0
H947 H 0.96719 0.18662 0.04484 0.0
H948 H -4e-05 0.14029 0.01598 0.0
H949 H 0.00069 0.24995 0.01923 0.0
H950 H 0.02117 0.29901 0.02512 0.0
H951 H 0.10522 0.28127 0.00964 0.0
H952 H 0.08537 0.23184 0.00378 0.0
H953 H 0.94925 0.16637 0.96622 0.0
H954 H 0.96084 0.16703 0.98442 0.0
H955 H 0.05635 0.17694 0.97764 0.0
H956 H 0.04462 0.17596 0.95935 0.0
H957 H 0.03541 0.21922 0.99184 0.0
H958 H 0.03467 0.11269 0.98723 0.0
H959 H 0.01622 0.06288 0.98131 0.0
H960 H 0.93577 0.07265 0.99947 0.0
H961 H 0.95349 0.12279 0.00538 0.0
C962 C 0.04414 0.1849 0.04175 0.0
C963 C 0.01595 0.18366 0.04671 0.0
C964 C 0.04533 0.18812 0.03117 0.0
C965 C 0.01829 0.1898 0.02554 0.0
C966 C 0.9903 0.19106 0.03062 0.0
C967 C 0.98915 0.18815 0.04114 0.0
C968 C 0.01857 0.1853 0.01443 0.0
C969 C 0.00747 0.15761 0.01068 0.0
C970 C 0.02971 0.20741 0.00761 0.0
C971 C 0.04171 0.237 0.01119 0.0
C972 C 0.02368 0.25632 0.01719 0.0
C973 C 0.03513 0.28425 0.0205 0.0
C974 C 0.06452 0.29321 0.01779 0.0
C975 C 0.08248 0.27428 0.01175 0.0
C976 C 0.07114 0.24631 0.00843 0.0
C977 C 0.97274 0.16795 0.96866 0.0
C978 C 0.99614 0.1707 0.96152 0.0
C979 C 0.97935 0.16844 0.97901 0.0
C980 C 0.00947 0.17195 0.98236 0.0
C981 C 0.033 0.17418 0.97519 0.0
C982 C 0.02637 0.17334 0.96481 0.0
C983 C 0.01576 0.17455 0.99337 0.0
C984 C 0.02824 0.20172 0.99712 0.0
C985 C 0.00622 0.15179 1.00024 0.0
C986 C 0.99532 0.12166 0.99669 0.0
C987 C 0.01291 0.10437 0.98989 0.0
C988 C 0.0026 0.07604 0.98655 0.0
C989 C 0.97481 0.06463 0.99 0.0
C990 C 0.95729 0.08152 0.9968 0.0
C991 C 0.96747 0.1099 1.00016 0.0
H992 H 0.96688 0.04268 0.98741 0.0
H993 H 0.07334 0.31485 0.02035 0.0
H994 H 0.24368 0.87966 0.28821 0.0
H995 H 0.248 0.88842 0.2699 0.0
H996 H 0.26642 0.98323 0.27536 0.0
H997 H 0.26258 0.97431 0.29378 0.0
H998 H 0.22217 0.9568 0.25638 0.0
H999 H 0.32438 0.96277 0.27127 0.0
H1000 H 0.36465 0.94544 0.28299 0.0
H1001 H 0.35983 0.85578 0.27028 0.0
H1002 H 0.31949 0.87257 0.25851 0.0
H1003 H 0.26962 0.9589 0.20525 0.0
H1004 H 0.27314 0.97375 0.2232 0.0
H1005 H 0.29171 0.88054 0.23131 0.0
H1006 H 0.28869 0.86601 0.21343 0.0
H1007 H 0.32127 0.91797 0.24381 0.0
H1008 H 0.21834 0.90765 0.23067 0.0
H1009 H 0.17604 0.92009 0.21907 0.0
H1010 H 0.17957 0.01336 0.22856 0.0
H1011 H 0.222 0.00145 0.24019 0.0
C1012 C 0.24725 0.9026 0.28546 0.0
C1013 C 0.25233 0.92645 0.2923 0.0
C1014 C 0.25005 0.90752 0.27504 0.0
C1015 C 0.25779 0.93638 0.27135 0.0
C1016 C 0.26038 0.96084 0.27812 0.0
C1017 C 0.25787 0.95583 0.28858 0.0
C1018 C 0.26622 0.93969 0.26056 0.0
C1019 C 0.24412 0.94921 0.25361 0.0
C1020 C 0.29461 0.92903 0.25701 0.0
C1021 C 0.31875 0.91885 0.26409 0.0
C1022 C 0.33175 0.93931 0.27104 0.0
C1023 C 0.35467 0.92962 0.27766 0.0
C1024 C 0.36466 0.8995 0.27741 0.0
C1025 C 0.35196 0.87907 0.27049 0.0
C1026 C 0.32917 0.88868 0.26382 0.0
C1027 C 0.27574 0.94198 0.21087 0.0
C1028 C 0.27905 0.91141 0.20807 0.0
C1029 C 0.27741 0.95035 0.2211 0.0
C1030 C 0.28208 0.92813 0.22861 0.0
C1031 C 0.28807 0.89807 0.22566 0.0
C1032 C 0.28646 0.88976 0.21546 0.0
C1033 C 0.27713 0.93496 0.23952 0.0
C1034 C 0.29974 0.92682 0.24653 0.0
C1035 C 0.24906 0.94661 0.24312 0.0
C1036 C 0.22352 0.95375 0.23619 0.0
C1037 C 0.2102 0.93084 0.23023 0.0
C1038 C 0.18621 0.93778 0.22366 0.0
C1039 C 0.17524 0.96752 0.22304 0.0
C1040 C 0.18815 0.99035 0.22903 0.0
C1041 C 0.21213 0.98352 0.23562 0.0
H1042 H 0.15667 0.97286 0.21795 0.0
H1043 H 0.38235 0.89201 0.28253 0.0
H1044 H 0.44859 0.1476 0.54554 0.0
H1045 H 0.4407 0.15022 0.52706 0.0
H1046 H 0.53549 0.12967 0.52232 0.0
H1047 H 0.54323 0.12671 0.54069 0.0
H1048 H 0.51087 0.19037 0.51541 0.0
H1049 H 0.49175 0.08088 0.51438 0.0
H1050 H 0.46307 0.03481 0.51907 0.0
H1051 H 0.38132 0.07397 0.50697 0.0
H1052 H 0.40946 0.12047 0.50233 0.0
H1053 H 0.55333 0.17497 0.46495 0.0
H1054 H 0.54159 0.17643 0.48299 0.0
H1055 H 0.44605 0.16596 0.47619 0.0
H1056 H 0.45834 0.16277 0.45803 0.0
H1057 H 0.4598 0.1268 0.48945 0.0
H1058 H 0.47719 0.23238 0.48815 0.0
H1059 H 0.50228 0.28069 0.48373 0.0
H1060 H 0.58141 0.25417 0.50064 0.0
H1061 H 0.55702 0.20549 0.50505 0.0
C1062 C 0.46723 0.142 0.5405 0.0
C1063 C 0.49639 0.13654 0.54443 0.0
C1064 C 0.46281 0.14382 0.52999 0.0
C1065 C 0.48761 0.1404 0.52339 0.0
C1066 C 0.51613 0.13234 0.52732 0.0
C1067 C 0.52046 0.13029 0.53778 0.0
C1068 C 0.4853 0.14956 0.51263 0.0
C1069 C 0.49988 0.17649 0.50968 0.0
C1070 C 0.46942 0.13226 0.50534 0.0
C1071 C 0.45262 0.1043 0.50813 0.0
C1072 C 0.4676 0.0798 0.51282 0.0
C1073 C 0.45146 0.05358 0.51544 0.0
C1074 C 0.42037 0.05151 0.51336 0.0
C1075 C 0.40538 0.07563 0.50861 0.0
C1076 C 0.42142 0.10191 0.50597 0.0
C1077 C 0.52974 0.17414 0.46731 0.0
C1078 C 0.5067 0.169 0.46018 0.0
C1079 C 0.52295 0.17503 0.47764 0.0
C1080 C 0.49282 0.17158 0.48102 0.0
C1081 C 0.46945 0.16869 0.47379 0.0
C1082 C 0.47637 0.16728 0.46343 0.0
C1083 C 0.48671 0.16716 0.49203 0.0
C1084 C 0.47037 0.14122 0.49511 0.0
C1085 C 0.50041 0.18582 0.4995 0.0
C1086 C 0.51525 0.21517 0.4969 0.0
C1087 C 0.50001 0.23674 0.49088 0.0
C1088 C 0.51412 0.26422 0.48838 0.0
C1089 C 0.54343 0.27048 0.49189 0.0
C1090 C 0.55869 0.24929 0.49793 0.0
C1091 C 0.54471 0.22177 0.50045 0.0
H1092 H 0.55431 0.29176 0.48995 0.0
H1093 H 0.40791 0.03119 0.51539 0.0
H1094 H 0.27616 0.36886 0.70463 0.0
H1095 H 0.27167 0.35944 0.72293 0.0
H1096 H 0.21426 0.43844 0.72581 0.0
H1097 H 0.2185 0.44758 0.70748 0.0
H1098 H 0.26898 0.4399 0.73726 0.0
H1099 H 0.18486 0.37208 0.73073 0.0
H1100 H 0.15971 0.32806 0.72277 0.0
H1101 H 0.22572 0.2682 0.73608 0.0
H1102 H 0.25154 0.31195 0.74401 0.0
H1103 H 0.22478 0.44487 0.78781 0.0
H1104 H 0.22925 0.44192 0.76944 0.0
H1105 H 0.27412 0.35504 0.77215 0.0
H1106 H 0.2685 0.35758 0.79077 0.0
H1107 H 0.23106 0.35316 0.75772 0.0
H1108 H 0.31402 0.41833 0.76493 0.0
H1109 H 0.34146 0.46116 0.77278 0.0
H1110 H 0.28196 0.52437 0.75788 0.0
H1111 H 0.25386 0.48192 0.75006 0.0
C1112 C 0.26151 0.38332 0.70914 0.0
C1113 C 0.24739 0.40872 0.70474 0.0
C1114 C 0.25908 0.37806 0.71957 0.0
C1115 C 0.24275 0.39834 0.72571 0.0
C1116 C 0.22692 0.42253 0.72118 0.0
C1117 C 0.2291 0.4276 0.71073 0.0
C1118 C 0.24564 0.39692 0.73689 0.0
C1119 C 0.26033 0.42114 0.74176 0.0
C1120 C 0.23584 0.37164 0.74264 0.0
C1121 C 0.22034 0.34534 0.73787 0.0
C1122 C 0.19421 0.34958 0.73187 0.0
C1123 C 0.17978 0.32466 0.72739 0.0
C1124 C 0.19116 0.29536 0.72889 0.0
C1125 C 0.21695 0.29091 0.73491 0.0
C1126 C 0.23147 0.31576 0.7394 0.0
C1127 C 0.23581 0.42524 0.78449 0.0
C1128 C 0.24622 0.40139 0.79064 0.0
C1129 C 0.23855 0.42365 0.77399 0.0
C1130 C 0.25231 0.39841 0.7694 0.0
C1131 C 0.26349 0.37477 0.77554 0.0
C1132 C 0.26056 0.37631 0.78614 0.0
C1133 C 0.25355 0.39668 0.75815 0.0
C1134 C 0.23992 0.37184 0.75323 0.0
C1135 C 0.26479 0.4212 0.75229 0.0
C1136 C 0.28171 0.44689 0.75695 0.0
C1137 C 0.30665 0.44135 0.76338 0.0
C1138 C 0.32234 0.46557 0.76782 0.0
C1139 C 0.31343 0.49546 0.76584 0.0
C1140 C 0.28884 0.5012 0.75941 0.0
C1141 C 0.27304 0.47707 0.75495 0.0
H1142 H 0.32561 0.51418 0.76929 0.0
H1143 H 0.17996 0.2761 0.72541 0.0
H1144 H 0.76195 0.36355 0.79176 0.0
H1145 H 0.76222 0.3701 0.77333 0.0
H1146 H 0.76048 0.46746 0.77712 0.0
H1147 H 0.7598 0.46075 0.79571 0.0
H1148 H 0.7258 0.44704 0.76025 0.0
H1149 H 0.82669 0.43759 0.77304 0.0
H1150 H 0.86895 0.4159 0.78299 0.0
H1151 H 0.85963 0.33121 0.76714 0.0
H1152 H 0.81718 0.35231 0.75712 0.0
H1153 H 0.76823 0.4537 0.70789 0.0
H1154 H 0.77365 0.46369 0.72619 0.0
H1155 H 0.77599 0.36712 0.7319 0.0
H1156 H 0.77092 0.35733 0.71371 0.0
H1157 H 0.81522 0.39787 0.74414 0.0
H1158 H 0.70975 0.40772 0.73263 0.0
H1159 H 0.67061 0.43175 0.72188 0.0
H1160 H 0.6906 0.51858 0.73518 0.0
H1161 H 0.73025 0.49511 0.74588 0.0
C1162 C 0.7606 0.38628 0.78863 0.0
C1163 C 0.76057 0.41166 0.79504 0.0
C1164 C 0.76104 0.39004 0.77813 0.0
C1165 C 0.76195 0.41927 0.77388 0.0
C1166 C 0.75986 0.44474 0.78027 0.0
C1167 C 0.7593 0.44093 0.79084 0.0
C1168 C 0.76757 0.4227 0.76284 0.0
C1169 C 0.74561 0.43681 0.75673 0.0
C1170 C 0.79348 0.40947 0.75826 0.0
C1171 C 0.81867 0.39649 0.76437 0.0
C1172 C 0.8335 0.41427 0.77173 0.0
C1173 C 0.85753 0.40212 0.77736 0.0
C1174 C 0.86691 0.37223 0.77569 0.0
C1175 C 0.8523 0.35437 0.76841 0.0
C1176 C 0.82832 0.36644 0.76273 0.0
C1177 C 0.77092 0.43478 0.71308 0.0
C1178 C 0.76942 0.4048 0.70951 0.0
C1179 C 0.77371 0.44044 0.72349 0.0
C1180 C 0.77477 0.41611 0.7304 0.0
C1181 C 0.77521 0.38621 0.72671 0.0
C1182 C 0.77241 0.3806 0.71635 0.0
C1183 C 0.77294 0.42114 0.74151 0.0
C1184 C 0.79567 0.4086 0.74766 0.0
C1185 C 0.74787 0.43601 0.74609 0.0
C1186 C 0.72315 0.44974 0.73997 0.0
C1187 C 0.70584 0.43195 0.73324 0.0
C1188 C 0.68359 0.44547 0.72715 0.0
C1189 C 0.67821 0.47671 0.72783 0.0
C1190 C 0.69486 0.49441 0.73465 0.0
C1191 C 0.71722 0.48102 0.74073 0.0
H1192 H 0.66117 0.48725 0.72307 0.0
H1193 H 0.88559 0.36295 0.78 0.0
H1194 H 0.80952 0.94585 0.20861 0.0
H1195 H 0.81099 0.93891 0.227 0.0
H1196 H 0.75459 0.85908 0.22418 0.0
H1197 H 0.75311 0.86608 0.20568 0.0
H1198 H 0.73647 0.89426 0.23965 0.0
H1199 H 0.83024 0.85225 0.22849 0.0
H1200 H 0.87889 0.8505 0.21922 0.0
H1201 H 0.91179 0.92644 0.23647 0.0
H1202 H 0.86311 0.92902 0.24573 0.0
H1203 H 0.75619 0.85747 0.29105 0.0
H1204 H 0.76254 0.8513 0.27268 0.0
H1205 H 0.81275 0.93548 0.27149 0.0
H1206 H 0.80648 0.94147 0.28992 0.0
H1207 H 0.83511 0.89158 0.25797 0.0
H1208 H 0.73762 0.93889 0.26628 0.0
H1209 H 0.68781 0.94218 0.27487 0.0
H1210 H 0.66295 0.8549 0.26292 0.0
H1211 H 0.71243 0.85133 0.25413 0.0
C1212 C 0.79749 0.9268 0.21193 0.0
C1213 C 0.78141 0.90633 0.20577 0.0
C1214 C 0.79843 0.92278 0.22241 0.0
C1215 C 0.78348 0.89808 0.22694 0.0
C1216 C 0.76649 0.87815 0.22083 0.0
C1217 C 0.7655 0.88224 0.2103 0.0
C1218 C 0.78522 0.89363 0.23807 0.0
C1219 C 0.75805 0.89303 0.24363 0.0
C1220 C 0.81342 0.89252 0.24328 0.0
C1221 C 0.84287 0.89096 0.23776 0.0
C1222 C 0.84774 0.86874 0.23026 0.0
C1223 C 0.87535 0.86758 0.22501 0.0
C1224 C 0.89841 0.88838 0.22724 0.0
C1225 C 0.8939 0.91035 0.23474 0.0
C1226 C 0.86631 0.91166 0.24 0.0
C1227 C 0.76958 0.87396 0.28689 0.0
C1228 C 0.78124 0.89971 0.29181 0.0
C1229 C 0.77291 0.87063 0.27642 0.0
C1230 C 0.78769 0.89319 0.27072 0.0
C1231 C 0.80128 0.91783 0.27576 0.0
C1232 C 0.79791 0.92117 0.28626 0.0
C1233 C 0.7864 0.89263 0.25949 0.0
C1234 C 0.81361 0.89234 0.25394 0.0
C1235 C 0.75828 0.89282 0.25426 0.0
C1236 C 0.72877 0.89471 0.25965 0.0
C1237 C 0.72156 0.92035 0.26553 0.0
C1238 C 0.69336 0.92233 0.27039 0.0
C1239 C 0.67233 0.89868 0.2695 0.0
C1240 C 0.67931 0.87315 0.26364 0.0
C1241 C 0.70735 0.87121 0.25867 0.0
H1242 H 0.65058 0.90019 0.27332 0.0
H1243 H 0.91978 0.88743 0.22317 0.0
H1244 H 0.4731 0.62094 0.45612 0.0
H1245 H 0.47759 0.61718 0.47467 0.0
H1246 H 0.55499 0.67738 0.47396 0.0
H1247 H 0.55025 0.68137 0.45544 0.0
H1248 H 0.55866 0.62781 0.48887 0.0
H1249 H 0.49288 0.70974 0.47801 0.0
H1250 H 0.45043 0.73145 0.46816 0.0
H1251 H 0.38809 0.67036 0.48277 0.0
H1252 H 0.43027 0.64805 0.49263 0.0
H1253 H 0.54915 0.67354 0.54082 0.0
H1254 H 0.55236 0.67713 0.5222 0.0
H1255 H 0.46729 0.62883 0.51958 0.0
H1256 H 0.46391 0.62571 0.53805 0.0
H1257 H 0.46993 0.67449 0.50618 0.0
H1258 H 0.53397 0.59189 0.51685 0.0
H1259 H 0.57553 0.56808 0.52658 0.0
H1260 H 0.64018 0.62755 0.51234 0.0
H1261 H 0.59889 0.65205 0.50264 0.0
C1262 C 0.49163 0.63249 0.45992 0.0
C1263 C 0.51137 0.65138 0.45446 0.0
C1264 C 0.4941 0.6305 0.47048 0.0
C1265 C 0.51645 0.64725 0.47566 0.0
C1266 C 0.53767 0.66424 0.4701 0.0
C1267 C 0.53499 0.66647 0.45955 0.0
C1268 C 0.51541 0.64989 0.48686 0.0
C1269 C 0.53949 0.63834 0.49268 0.0
C1270 C 0.4902 0.66332 0.49179 0.0
C1271 C 0.46475 0.67705 0.48599 0.0
C1272 C 0.47015 0.7008 0.47907 0.0
C1273 C 0.44614 0.71323 0.47349 0.0
C1274 C 0.4166 0.70222 0.47481 0.0
C1275 C 0.41099 0.67884 0.48175 0.0
C1276 C 0.43493 0.66633 0.48734 0.0
C1277 C 0.53097 0.66425 0.53623 0.0
C1278 C 0.50643 0.64915 0.5408 0.0
C1279 C 0.5329 0.66605 0.52562 0.0
C1280 C 0.51027 0.65282 0.5195 0.0
C1281 C 0.48506 0.63908 0.52413 0.0
C1282 C 0.48321 0.6372 0.53467 0.0
C1283 C 0.51306 0.65212 0.50827 0.0
C1284 C 0.48926 0.66411 0.50242 0.0
C1285 C 0.53843 0.63887 0.50334 0.0
C1286 C 0.56331 0.62403 0.5091 0.0
C1287 C 0.55702 0.60005 0.51585 0.0
C1288 C 0.58053 0.5864 0.52135 0.0
C1289 C 0.61047 0.59634 0.52009 0.0
C1290 C 0.61697 0.61991 0.51331 0.0
C1291 C 0.59352 0.63368 0.50781 0.0
H1292 H 0.62865 0.58575 0.52435 0.0
H1293 H 0.39805 0.71185 0.47047 0.0
H1294 H 0.04934 0.70007 0.95776 0.0
H1295 H 0.04302 0.70244 0.97629 0.0
H1296 H 0.98506 0.62338 0.97523 0.0
H1297 H 0.99156 0.62094 0.95676 0.0
H1298 H 0.96663 0.66787 0.98982 0.0
H1299 H 0.05549 0.61166 0.97931 0.0
H1300 H 0.10353 0.60496 0.96993 0.0
H1301 H 0.14291 0.68006 0.98606 0.0
H1302 H 0.09488 0.68753 0.99542 0.0
H1303 H 0.98349 0.61791 0.04077 0.0
H1304 H 0.9854 0.61679 0.02211 0.0
H1305 H 0.04859 0.69184 0.02235 0.0
H1306 H 0.04679 0.69281 0.04091 0.0
H1307 H 0.06361 0.64914 0.0081 0.0
H1308 H 0.976 0.70579 0.01865 0.0
H1309 H 0.9281 0.7141 0.02796 0.0
H1310 H 0.88652 0.64018 0.01183 0.0
H1311 H 0.93439 0.63111 0.00254 0.0
C1312 C 0.03455 0.68385 0.96149 0.0
C1313 C 0.02098 0.6603 0.95596 0.0
C1314 C 0.03106 0.68509 0.97203 0.0
C1315 C 0.01387 0.66284 0.9771 0.0
C1316 C 0.99838 0.64073 0.97145 0.0
C1317 C 0.0021 0.63934 0.96094 0.0
C1318 C 0.0148 0.66049 0.9883 0.0
C1319 C 0.98773 0.66348 0.99382 0.0
C1320 C 0.04246 0.65512 0.99349 0.0
C1321 C 0.0715 0.65035 0.98799 0.0
C1322 C 0.07432 0.62689 0.9808 0.0
C1323 C 0.10155 0.62293 0.97549 0.0
C1324 C 0.12623 0.64212 0.97738 0.0
C1325 C 0.12375 0.66524 0.9846 0.0
C1326 C 0.09654 0.66934 0.98991 0.0
C1327 C 0.99823 0.63365 0.0368 0.0
C1328 C 0.01481 0.65558 0.04218 0.0
C1329 C -0.00086 0.63318 0.02619 0.0
C1330 C 0.01679 0.65455 0.02087 0.0
C1331 C 0.03474 0.67526 0.0263 0.0
C1332 C 0.03365 0.67585 0.03687 0.0
C1333 C 0.01543 0.65659 0.00966 0.0
C1334 C 0.04246 0.65349 0.00411 0.0
C1335 C 0.98776 0.66202 0.00447 0.0
C1336 C 0.95888 0.66755 0.00998 0.0
C1337 C 0.95672 0.69114 0.01715 0.0
C1338 C 0.92957 0.69602 0.02242 0.0
C1339 C 0.9043 0.67762 0.02051 0.0
C1340 C 0.90613 0.65437 0.01331 0.0
C1341 C 0.93326 0.64936 0.00804 0.0
H1342 H 0.88329 0.68143 0.02459 0.0
H1343 H 0.14729 0.63902 0.97326 0.0
H1344 H 0.13626 0.91306 0.16015 0.0
H1345 H 0.10509 0.9432 0.14846 0.0
H1346 H 0.18213 0.00065 0.142 0.0
H1347 H 0.21365 0.9703 0.15347 0.0
H1348 H 0.12187 0.03107 0.14573 0.0
H1349 H 0.17112 0.95054 0.12599 0.0
H1350 H 0.18279 0.89681 0.12235 0.0
H1351 H 0.08746 0.87714 0.1198 0.0
H1352 H 0.07522 0.93071 0.12356 0.0
H1353 H 0.08062 0.1109 0.10184 0.0
H1354 H 0.1078 0.08027 0.11439 0.0
H1355 H 0.04236 0.008 0.11052 0.0
H1356 H 0.0163 0.03787 0.09754 0.0
H1357 H 0.09324 0.98339 0.11296 0.0
H1358 H 0.04137 0.06033 0.13149 0.0
H1359 H 0.02519 0.11228 0.13595 0.0
H1360 H 0.11779 0.13675 0.14229 0.0
H1361 H 0.13458 0.08503 0.13775 0.0
C1362 C 0.14647 0.93231 0.15633 0.0
C1363 C 0.17746 0.93919 0.15767 0.0
C1364 C 0.12866 0.94943 0.14965 0.0
C1365 C 0.14146 0.97395 0.14436 0.0
C1366 C 0.17194 0.98176 0.14604 0.0
C1367 C 0.18989 0.96435 0.15256 0.0
C1368 C 0.12368 0.99057 0.13664 0.0
C1369 C 0.11575 0.02085 0.13852 0.0
C1370 C 0.11483 0.97669 0.12743 0.0
C1371 C 0.12225 0.94455 0.12514 0.0
C1372 C 0.15264 0.93471 0.12473 0.0
C1373 C 0.15936 0.90431 0.12262 0.0
C1374 C 0.13588 0.8836 0.12083 0.0
C1375 C 0.10563 0.89322 0.12117 0.0
C1376 C 0.09879 0.9236 0.12328 0.0
C1377 C 0.0723 0.08833 0.10361 0.0
C1378 C 0.04638 0.07675 0.09874 0.0
C1379 C 0.08764 0.07093 0.11085 0.0
C1380 C 0.07668 0.04209 0.11365 0.0
C1381 C 0.05126 0.03019 0.10856 0.0
C1382 C 0.03639 0.04726 0.10112 0.0
C1383 C 0.09161 0.02444 0.12191 0.0
C1384 C 0.09903 0.99382 0.12016 0.0
C1385 C 0.09924 0.0378 0.13137 0.0
C1386 C 0.08925 0.06888 0.13419 0.0
C1387 C 0.0583 0.07684 0.13377 0.0
C1388 C 0.04902 0.10624 0.13633 0.0
C1389 C 0.07046 0.12783 0.13938 0.0
C1390 C 0.10122 0.12002 0.13992 0.0
C1391 C 0.11062 0.09065 0.13737 0.0
H1392 H 0.06323 0.15058 0.14134 0.0
H1393 H 0.14112 0.86008 0.11918 0.0
H1394 H 0.37269 0.92755 0.3472 0.0
H1395 H 0.39859 0.95418 0.36097 0.0
H1396 H 0.31713 0.00545 0.36714 0.0
H1397 H 0.29079 0.97875 0.35338 0.0
H1398 H 0.37239 0.04036 0.36661 0.0
H1399 H 0.33178 0.94954 0.38204 0.0
H1400 H 0.32354 0.8942 0.38307 0.0
H1401 H 0.4198 0.87978 0.38552 0.0
H1402 H 0.42868 0.93503 0.38434 0.0
H1403 H 0.4298 0.10555 0.4111 0.0
H1404 H 0.39551 0.07724 0.39996 0.0
H1405 H 0.46366 0.00741 0.39643 0.0
H1406 H 0.49728 0.03494 0.408 0.0
H1407 H 0.41127 0.98186 0.39611 0.0
H1408 H 0.45417 0.06833 0.37907 0.0
H1409 H 0.46634 0.12256 0.37665 0.0
H1410 H 0.37114 0.144 0.37567 0.0
H1411 H 0.3584 0.08991 0.37822 0.0
C1412 C 0.36031 0.94472 0.3514 0.0
C1413 C 0.32966 0.95105 0.3492 0.0
C1414 C 0.37511 0.95975 0.3593 0.0
C1415 C 0.35961 0.98147 0.36511 0.0
C1416 C 0.32936 0.98862 0.36275 0.0
C1417 C 0.31439 0.97335 0.3549 0.0
C1418 C 0.37505 0.99644 0.37372 0.0
C1419 C 0.38044 0.02775 0.37316 0.0
C1420 C 0.38626 0.97964 0.38208 0.0
C1421 C 0.3809 0.94644 0.38304 0.0
C1422 C 0.35121 0.93457 0.38275 0.0
C1423 C 0.34642 0.90321 0.38337 0.0
C1424 C 0.37113 0.88349 0.38437 0.0
C1425 C 0.40068 0.89509 0.38476 0.0
C1426 C 0.4056 0.92643 0.38413 0.0
C1427 C 0.43716 0.08387 0.40809 0.0
C1428 C 0.46618 0.07245 0.41035 0.0
C1429 C 0.41767 0.0678 0.40167 0.0
C1430 C 0.42732 0.04061 0.39711 0.0
C1431 C 0.45571 0.02839 0.39981 0.0
C1432 C 0.47491 0.0441 0.40643 0.0
C1433 C 0.40888 0.02598 0.38902 0.0
C1434 C 0.40296 0.99466 0.38964 0.0
C1435 C 0.39775 0.04265 0.38058 0.0
C1436 C 0.40534 0.07514 0.37895 0.0
C1437 C 0.43584 0.08464 0.3784 0.0
C1438 C 0.44284 0.11535 0.377 0.0
C1439 C 0.41953 0.13672 0.37604 0.0
C1440 C 0.38916 0.12742 0.37644 0.0
C1441 C 0.38204 0.09675 0.37786 0.0
H1442 H 0.42499 0.16049 0.37496 0.0
H1443 H 0.36737 0.85922 0.38483 0.0
H1444 H 0.45595 0.26818 0.58625 0.0
H1445 H 0.4263 0.29978 0.59784 0.0
H1446 H 0.4233 0.22608 0.61941 0.0
H1447 H 0.45334 0.19457 0.60791 0.0
H1448 H 0.36946 0.25511 0.61849 0.0
H1449 H 0.47421 0.28158 0.62258 0.0
H1450 H 0.52555 0.29788 0.61737 0.0
H1451 H 0.4891 0.38172 0.60598 0.0
H1452 H 0.43745 0.36576 0.61102 0.0
H1453 H 0.3736 0.38311 0.65988 0.0
H1454 H 0.3989 0.34754 0.64844 0.0
H1455 H 0.31909 0.34549 0.62939 0.0
H1456 H 0.29328 0.38025 0.64096 0.0
H1457 H 0.4152 0.35267 0.62961 0.0
H1458 H 0.313 0.27752 0.61759 0.0
H1459 H 0.26463 0.25879 0.62473 0.0
H1460 H 0.30072 0.26719 0.65489 0.0
H1461 H 0.34942 0.28558 0.64793 0.0
C1462 C 0.44918 0.25879 0.59346 0.0
C1463 C 0.45774 0.22921 0.59625 0.0
C1464 C 0.43205 0.27678 0.60006 0.0
C1465 C 0.42311 0.26544 0.60956 0.0
C1466 C 0.4301 0.23531 0.61213 0.0
C1467 C 0.44727 0.21735 0.60554 0.0
C1468 C 0.40768 0.28537 0.617 0.0
C1469 C 0.37936 0.27651 0.6209 0.0
C1470 C 0.421 0.3129 0.62032 0.0
C1471 C 0.45193 0.32236 0.6171 0.0
C1472 C 0.4771 0.30337 0.61888 0.0
C1473 C 0.50626 0.31258 0.61598 0.0
C1474 C 0.51057 0.34084 0.61136 0.0
C1475 C 0.48571 0.35987 0.60957 0.0
C1476 C 0.4565 0.35076 0.61246 0.0
C1477 C 0.36133 0.37492 0.6533 0.0
C1478 C 0.33136 0.38443 0.65136 0.0
C1479 C 0.37587 0.35466 0.64674 0.0
C1480 C 0.36082 0.34361 0.6381 0.0
C1481 C 0.33097 0.35322 0.63611 0.0
C1482 C 0.31628 0.37322 0.64272 0.0
C1483 C 0.37667 0.32267 0.63103 0.0
C1484 C 0.40513 0.33137 0.62718 0.0
C1485 C 0.36381 0.29462 0.62797 0.0
C1486 C 0.33475 0.28321 0.63223 0.0
C1487 C 0.31065 0.27525 0.62574 0.0
C1488 C 0.28317 0.26472 0.62976 0.0
C1489 C 0.27957 0.2619 0.64026 0.0
C1490 C 0.30349 0.2695 0.64676 0.0
C1491 C 0.33103 0.28002 0.64278 0.0
H1492 H 0.25827 0.25376 0.64335 0.0
H1493 H 0.5332 0.34803 0.6092 0.0
H1494 H 0.03867 0.19886 0.89408 0.0
H1495 H 0.07562 0.22527 0.88329 0.0
H1496 H 0.08901 0.29244 0.90672 0.0
H1497 H 0.05266 0.26565 0.91758 0.0
H1498 H 0.07756 0.31865 0.88881 0.0
H1499 H 0.14456 0.24274 0.90138 0.0
H1500 H 0.16177 0.19092 0.90555 0.0
H1501 H 0.15954 0.1669 0.87397 0.0
H1502 H 0.14187 0.21848 0.86962 0.0
H1503 H 0.22419 0.35541 0.85792 0.0
H1504 H 0.19917 0.3253 0.87122 0.0
H1505 H 0.11346 0.33459 0.85561 0.0
H1506 H 0.13791 0.36485 0.84248 0.0
H1507 H 0.16667 0.27244 0.87161 0.0
H1508 H 0.05739 0.34631 0.8725 0.0
H1509 H 0.04199 0.39934 0.86929 0.0
H1510 H 0.13261 0.42977 0.87593 0.0
H1511 H 0.14844 0.37699 0.87933 0.0
C1512 C 0.04985 0.21903 0.89696 0.0
C1513 C 0.04224 0.23078 0.90654 0.0
C1514 C 0.07097 0.23406 0.89081 0.0
C1515 C 0.08502 0.26088 0.89419 0.0
C1516 C 0.07824 0.27195 0.90392 0.0
C1517 C 0.05724 0.25686 0.91007 0.0
C1518 C 0.10516 0.27848 0.88733 0.0
C1519 C 0.09712 0.30857 0.88508 0.0
C1520 C 0.13099 0.26549 0.88262 0.0
C1521 C 0.14164 0.23443 0.88519 0.0
C1522 C 0.14749 0.22635 0.89533 0.0
C1523 C 0.15738 0.19702 0.89773 0.0
C1524 C 0.16169 0.17561 0.89003 0.0
C1525 C 0.15617 0.18351 0.87993 0.0
C1526 C 0.14625 0.2128 0.87749 0.0
C1527 C 0.20007 0.35081 0.85729 0.0
C1528 C 0.18299 0.36288 0.84921 0.0
C1529 C 0.18583 0.33359 0.86488 0.0
C1530 C 0.15435 0.32823 0.8645 0.0
C1531 C 0.13764 0.33902 0.85618 0.0
C1532 C 0.15172 0.35629 0.84866 0.0
C1533 C 0.13848 0.31226 0.87288 0.0
C1534 C 0.14725 0.28254 0.8754 0.0
C1535 C 0.11353 0.32571 0.87799 0.0
C1536 C 0.10415 0.35763 0.87608 0.0
C1537 C 0.074 0.36433 0.87332 0.0
C1538 C 0.0652 0.39434 0.87146 0.0
C1539 C 0.08633 0.4179 0.87238 0.0
C1540 C 0.11629 0.41149 0.87519 0.0
C1541 C 0.1252 0.38152 0.87707 0.0
H1542 H 0.07948 0.44112 0.87092 0.0
H1543 H 0.16935 0.15292 0.8919 0.0
H1544 H 0.9212 0.14983 0.89543 0.0
H1545 H 0.88363 0.15892 0.88204 0.0
H1546 H 0.83453 0.21942 0.90187 0.0
H1547 H 0.87199 0.21069 0.91522 0.0
H1548 H 0.79648 0.18849 0.88691 0.0
H1549 H 0.88756 0.2507 0.89008 0.0
H1550 H 0.94304 0.25726 0.89178 0.0
H1551 H 0.95673 0.21048 0.86355 0.0
H1552 H 0.90127 0.20319 0.86179 0.0
H1553 H 0.7538 0.32104 0.859 0.0
H1554 H 0.76703 0.2787 0.8702 0.0
H1555 H 0.81997 0.2382 0.84618 0.0
H1556 H 0.80746 0.28079 0.83508 0.0
H1557 H 0.85422 0.25002 0.86191 0.0
H1558 H 0.75904 0.20046 0.85714 0.0
H1559 H 0.70325 0.19585 0.8562 0.0
H1560 H 0.69588 0.22103 0.88758 0.0
H1561 H 0.75162 0.22623 0.88868 0.0
C1562 C 0.90172 0.16406 0.89708 0.0
C1563 C 0.89984 0.18008 0.90628 0.0
C1564 C 0.88025 0.16919 0.88943 0.0
C1565 C 0.85658 0.19016 0.89095 0.0
C1566 C 0.8526 0.20315 0.90056 0.0
C1567 C 0.87419 0.19833 0.90815 0.0
C1568 C 0.8407 0.20381 0.88215 0.0
C1569 C 0.80893 0.20184 0.88138 0.0
C1570 C 0.85711 0.22111 0.87496 0.0
C1571 C 0.89037 0.22606 0.87587 0.0
C1572 C 0.90244 0.24163 0.88428 0.0
C1573 C 0.93386 0.24549 0.88525 0.0
C1574 C 0.95341 0.2342 0.87779 0.0
C1575 C 0.94156 0.21914 0.86933 0.0
C1576 C 0.91014 0.21513 0.86834 0.0
C1577 C 0.76723 0.30249 0.85599 0.0
C1578 C 0.77999 0.30439 0.84623 0.0
C1579 C 0.77478 0.27823 0.8624 0.0
C1580 C 0.79475 0.25535 0.85906 0.0
C1581 C 0.80474 0.25568 0.84895 0.0
C1582 C 0.79753 0.28002 0.84261 0.0
C1583 C 0.80962 0.23474 0.86649 0.0
C1584 C 0.84148 0.23587 0.86715 0.0
C1585 C 0.79311 0.21704 0.87359 0.0
C1586 C 0.75955 0.21393 0.87297 0.0
C1587 C 0.74553 0.20526 0.86382 0.0
C1588 C 0.7139 0.20249 0.86326 0.0
C1589 C 0.69603 0.20819 0.87182 0.0
C1590 C 0.70976 0.21662 0.88096 0.0
C1591 C 0.74138 0.21944 0.88156 0.0
H1592 H 0.67155 0.20604 0.87137 0.0
H1593 H 0.97774 0.23718 0.87856 0.0
H1594 H 0.62302 0.20788 0.58704 0.0
H1595 H 0.66084 0.22214 0.59979 0.0
H1596 H 0.61298 0.1694 0.62227 0.0
H1597 H 0.5753 0.15455 0.60953 0.0
H1598 H 0.61832 0.23372 0.62612 0.0
H1599 H 0.68056 0.14823 0.61732 0.0
H1600 H 0.70874 0.11456 0.60571 0.0
H1601 H 0.76613 0.18894 0.59687 0.0
H1602 H 0.73799 0.2232 0.60832 0.0
H1603 H 0.70184 0.28073 0.66711 0.0
H1604 H 0.68461 0.24294 0.65487 0.0
H1605 H 0.73537 0.28798 0.63124 0.0
H1606 H 0.75319 0.32584 0.64355 0.0
H1607 H 0.73061 0.22394 0.62827 0.0
H1608 H 0.6668 0.31022 0.63401 0.0
H1609 H 0.63872 0.34779 0.64425 0.0
H1610 H 0.58419 0.2765 0.65706 0.0
H1611 H 0.61222 0.23842 0.64696 0.0
C1612 C 0.62108 0.19851 0.59462 0.0
C1613 C 0.59602 0.18033 0.59731 0.0
C1614 C 0.64277 0.2066 0.60188 0.0
C1615 C 0.63959 0.1969 0.61196 0.0
C1616 C 0.61582 0.17702 0.61451 0.0
C1617 C 0.59438 0.16849 0.60721 0.0
C1618 C 0.65792 0.21139 0.62005 0.0
C1619 C 0.64278 0.23098 0.62674 0.0
C1620 C 0.68997 0.20891 0.62051 0.0
C1621 C 0.70696 0.18836 0.61362 0.0
C1622 C 0.69899 0.15749 0.61283 0.0
C1623 C 0.71501 0.13828 0.6063 0.0
C1624 C 0.73917 0.14962 0.60054 0.0
C1625 C 0.7474 0.18019 0.60133 0.0
C1626 C 0.73144 0.19951 0.60785 0.0
C1627 C 0.71019 0.28204 0.65938 0.0
C1628 C 0.72845 0.30652 0.65624 0.0
C1629 C 0.70032 0.26041 0.6524 0.0
C1630 C 0.70818 0.26309 0.64212 0.0
C1631 C 0.72899 0.2856 0.63915 0.0
C1632 C 0.73916 0.30721 0.64618 0.0
C1633 C 0.69085 0.24574 0.63441 0.0
C1634 C 0.70609 0.22611 0.62774 0.0
C1635 C 0.65885 0.24867 0.63375 0.0
C1636 C 0.64183 0.27144 0.63982 0.0
C1637 C 0.64898 0.30252 0.63907 0.0
C1638 C 0.63304 0.32392 0.64483 0.0
C1639 C 0.60972 0.31453 0.65131 0.0
C1640 C 0.60227 0.28373 0.65204 0.0
C1641 C 0.61816 0.26223 0.64629 0.0
H1642 H 0.59739 0.33113 0.65575 0.0
H1643 H 0.75154 0.1347 0.59549 0.0
H1644 H 0.75415 0.9709 0.35605 0.0
H1645 H 0.7412 0.00882 0.36893 0.0
H1646 H 0.66395 0.03701 0.3511 0.0
H1647 H 0.67683 -0.00043 0.33816 0.0
H1648 H 0.69213 0.0858 0.36004 0.0
H1649 H 0.6505 0.9873 0.37147 0.0
H1650 H 0.654 0.93319 0.37617 0.0
H1651 H 0.72705 0.95323 0.39672 0.0
H1652 H 0.72328 0.00772 0.39237 0.0
H1653 H 0.57721 0.13502 0.39354 0.0
H1654 H 0.61344 0.11686 0.38095 0.0
H1655 H 0.67381 0.08786 0.40493 0.0
H1656 H 0.63661 0.10441 0.41754 0.0
H1657 H 0.66471 0.04336 0.39368 0.0
H1658 H 0.69286 0.14475 0.38601 0.0
H1659 H 0.6859 0.19904 0.38203 0.0
H1660 H 0.63987 0.1756 0.35438 0.0
H1661 H 0.64615 0.12115 0.35825 0.0
C1662 C 0.73465 0.98544 0.35479 0.0
C1663 C 0.71636 0.98192 0.3461 0.0
C1664 C 0.72723 0.00705 0.36218 0.0
C1665 C 0.70138 0.0255 0.36104 0.0
C1666 C 0.684 0.02306 0.35215 0.0
C1667 C 0.69135 0.00148 0.34477 0.0
C1668 C 0.69091 0.04568 0.36937 0.0
C1669 C 0.68611 0.07669 0.36742 0.0
C1670 C 0.68399 0.03401 0.37909 0.0
C1671 C 0.68688 0.00135 0.38151 0.0
C1672 C 0.66743 0.98007 0.37694 0.0
C1673 C 0.66942 0.94937 0.37956 0.0
C1674 C 0.691 0.93966 0.38663 0.0
C1675 C 0.71044 0.96074 0.39121 0.0
C1676 C 0.70826 0.99155 0.38872 0.0
C1677 C 0.59866 0.12571 0.39613 0.0
C1678 C 0.604 0.12091 0.40652 0.0
C1679 C 0.61954 0.11541 0.3889 0.0
C1680 C 0.64657 0.10092 0.39194 0.0
C1681 C 0.65309 0.09872 0.40236 0.0
C1682 C 0.63188 0.10831 0.40958 0.0
C1683 C 0.66527 0.08384 0.38441 0.0
C1684 C 0.6715 0.05314 0.38647 0.0
C1685 C 0.67363 0.09604 0.37485 0.0
C1686 C 0.66986 0.1288 0.37245 0.0
C1687 C 0.68107 0.15114 0.37911 0.0
C1688 C 0.67727 0.18196 0.37687 0.0
C1689 C 0.66242 0.19076 0.36797 0.0
C1690 C 0.65138 0.16875 0.36127 0.0
C1691 C 0.65511 0.1379 0.36348 0.0
H1692 H 0.65949 0.21463 0.36625 0.0
H1693 H 0.69252 0.91584 0.38862 0.0
H1694 H 0.75222 0.98194 0.13936 0.0
H1695 H 0.76592 0.02323 0.12765 0.0
H1696 H 0.82446 0.0619 0.1505 0.0
H1697 H 0.8115 0.02057 0.16206 0.0
H1698 H 0.77583 0.09255 0.12697 0.0
H1699 H 0.89366 0.05823 0.14024 0.0
H1700 H 0.91845 0.01619 0.14951 0.0
H1701 H 0.85435 0.95297 0.13691 0.0
H1702 H 0.82959 0.99454 0.12744 0.0
H1703 H 0.92331 0.16152 0.10701 0.0
H1704 H 0.88219 0.14525 0.11834 0.0
H1705 H 0.85204 0.08064 0.09594 0.0
H1706 H 0.89235 0.09697 0.08451 0.0
H1707 H 0.88303 0.06601 0.11908 0.0
H1708 H 0.80168 0.10934 0.0977 0.0
H1709 H 0.77646 0.15263 0.0893 0.0
H1710 H 0.76779 0.19802 0.11801 0.0
H1711 H 0.79342 0.15513 0.12654 0.0
C1712 C 0.76689 5e-05 0.14201 0.0
C1713 C 0.78126 0.99793 0.15151 0.0
C1714 C 0.77462 0.02366 0.13534 0.0
C1715 C 0.79651 0.0453 0.13819 0.0
C1716 C 0.80762 0.04534 0.14816 0.0
C1717 C 0.80031 0.02164 0.15474 0.0
C1718 C 0.81323 0.06256 0.13033 0.0
C1719 C 0.79921 0.08676 0.12521 0.0
C1720 C 0.84378 0.055 0.12807 0.0
C1721 C 0.85964 0.02953 0.13321 0.0
C1722 C 0.88506 0.03531 0.13938 0.0
C1723 C 0.89907 0.01158 0.14468 0.0
C1724 C 0.88792 0.98195 0.14382 0.0
C1725 C 0.86292 0.97594 0.13759 0.0
C1726 C 0.84891 -0.00043 0.13225 0.0
C1727 C 0.90718 0.14476 0.10432 0.0
C1728 C 0.91144 0.13024 0.09491 0.0
C1729 C 0.88367 0.13553 0.1108 0.0
C1730 C 0.86405 0.11192 0.10792 0.0
C1731 C 0.86669 0.09923 0.09823 0.0
C1732 C 0.88995 0.1085 0.09173 0.0
C1733 C 0.84569 0.09595 0.11564 0.0
C1734 C 0.85963 0.07189 0.12081 0.0
C1735 C 0.8152 0.1036 0.11784 0.0
C1736 C 0.79984 0.12928 0.11272 0.0
C1737 C 0.79476 0.12873 0.1022 0.0
C1738 C 0.78029 0.15314 0.09742 0.0
C1739 C 0.77064 0.17812 0.10311 0.0
C1740 C 0.77535 0.1787 0.1136 0.0
C1741 C 0.78982 0.15434 0.11841 0.0
H1742 H 0.75942 0.19699 0.0994 0.0
H1743 H 0.89867 0.96365 0.14798 0.0
H1744 H 0.63989 0.4409 0.66378 0.0
H1745 H 0.61362 0.47709 0.65274 0.0
H1746 H 0.69866 0.49932 0.6382 0.0
H1747 H 0.72515 0.46382 0.64929 0.0
H1748 H 0.6649 0.54911 0.64017 0.0
H1749 H 0.65107 0.44723 0.62793 0.0
H1750 H 0.63624 0.39332 0.62925 0.0
H1751 H 0.54417 0.41949 0.63566 0.0
H1752 H 0.5586 0.47361 0.63455 0.0
H1753 H 0.57095 0.55495 0.58943 0.0
H1754 H 0.60158 0.5295 0.60229 0.0
H1755 H 0.58234 0.6019 0.62344 0.0
H1756 H 0.55252 0.62814 0.61036 0.0
H1757 H 0.5827 0.50594 0.6188 0.0
H1758 H 0.63716 0.60356 0.64198 0.0
H1759 H 0.65696 0.65543 0.63935 0.0
H1760 H 0.67589 0.6346 0.60814 0.0
H1761 H 0.65656 0.58251 0.61062 0.0
C1762 C 0.65306 0.45373 0.65831 0.0
C1763 C 0.68457 0.44915 0.65734 0.0
C1764 C 0.63801 0.4744 0.652 0.0
C1765 C 0.65414 0.49059 0.64455 0.0
C1766 C 0.68576 0.48709 0.64389 0.0
C1767 C 0.70084 0.4666 0.65022 0.0
C1768 C 0.63797 0.5094 0.63692 0.0
C1769 C 0.64678 0.53979 0.63553 0.0
C1770 C 0.61482 0.497 0.63071 0.0
C1771 C 0.60599 0.46447 0.63127 0.0
C1772 C 0.62771 0.44149 0.6297 0.0
C1773 C 0.61938 0.4109 0.6304 0.0
C1774 C 0.58931 0.40299 0.63257 0.0
C1775 C 0.56748 0.42566 0.63401 0.0
C1776 C 0.57572 0.4563 0.63334 0.0
C1777 C 0.57377 0.56576 0.59676 0.0
C1778 C 0.55933 0.59347 0.59892 0.0
C1779 C 0.59115 0.55111 0.60413 0.0
C1780 C 0.59416 0.56361 0.61388 0.0
C1781 C 0.58069 0.59194 0.61595 0.0
C1782 C 0.56367 0.60694 0.60848 0.0
C1783 C 0.60969 0.5458 0.62195 0.0
C1784 C 0.60063 0.5155 0.62347 0.0
C1785 C 0.63322 0.55806 0.62804 0.0
C1786 C 0.64507 0.58926 0.62647 0.0
C1787 C 0.64561 0.61004 0.63457 0.0
C1788 C 0.65675 0.63948 0.6331 0.0
C1789 C 0.66756 0.64834 0.62358 0.0
C1790 C 0.66737 0.62775 0.61551 0.0
C1791 C 0.65629 0.59828 0.61693 0.0
H1792 H 0.67616 0.67114 0.62245 0.0
H1793 H 0.58291 0.37929 0.63312 0.0
H1794 H 0.96562 0.56234 0.91596 0.0
H1795 H 0.92684 0.53458 0.90638 0.0
H1796 H 0.96039 0.5746 0.87857 0.0
H1797 H 0.99699 0.60449 0.88835 0.0
H1798 H 0.9049 0.5728 0.8768 0.0
H1799 H 0.97599 0.49587 0.88773 0.0
H1800 H 0.00608 0.46679 0.90018 0.0
H1801 H 0.92418 0.43893 0.91529 0.0
H1802 H 0.89354 0.468 0.90293 0.0
H1803 H 0.86899 0.45149 0.8424 0.0
H1804 H 0.89571 0.48438 0.85442 0.0
H1805 H 0.82139 0.47599 0.87556 0.0
H1806 H 0.79391 0.44363 0.8634 0.0
H1807 H 0.89061 0.46205 0.88196 0.0
H1808 H 0.82078 0.53686 0.86821 0.0
H1809 H 0.79517 0.56365 0.85416 0.0
H1810 H 0.88164 0.59279 0.84256 0.0
H1811 H 0.9078 0.56576 0.85646 0.0
C1812 C 0.96447 0.56514 0.9078 0.0
C1813 C 0.98417 0.58528 0.90283 0.0
C1814 C 0.94252 0.5491 0.9023 0.0
C1815 C 0.94095 0.5518 0.89166 0.0
C1816 C 0.96088 0.57205 0.88674 0.0
C1817 C 0.98195 0.58898 0.8923 0.0
C1818 C 0.91871 0.53374 0.8856 0.0
C1819 C 0.90208 0.54855 0.87793 0.0
C1820 C 0.91425 0.50211 0.88712 0.0
C1821 C 0.93253 0.48434 0.89448 0.0
C1822 C 0.96441 0.48364 0.89374 0.0
C1823 C 0.98155 0.46716 0.90077 0.0
C1824 C 0.96702 0.45112 0.90853 0.0
C1825 C 0.93534 0.4514 0.90926 0.0
C1826 C 0.91808 0.46783 0.90224 0.0
C1827 C 0.85819 0.45682 0.84957 0.0
C1828 C 0.82937 0.44501 0.85197 0.0
C1829 C 0.87346 0.47561 0.85641 0.0
C1830 C 0.86046 0.48248 0.86584 0.0
C1831 C 0.83167 0.47087 0.86829 0.0
C1832 C 0.81601 0.45257 0.86134 0.0
C1833 C 0.87771 0.50114 0.87316 0.0
C1834 C 0.89335 0.4864 0.88101 0.0
C1835 C 0.88195 0.53258 0.87163 0.0
C1836 C 0.86624 0.54905 0.86332 0.0
C1837 C 0.83435 0.54874 0.86261 0.0
C1838 C 0.81973 0.56402 0.85468 0.0
C1839 C 0.83677 0.57986 0.84746 0.0
C1840 C 0.86847 0.5805 0.84816 0.0
C1841 C 0.88319 0.56523 0.85606 0.0
H1842 H 0.82541 0.59167 0.84133 0.0
H1843 H 0.98028 0.43838 0.91395 0.0
H1844 H 0.8987 0.69026 0.08631 0.0
H1845 H 0.85932 0.7118 0.09729 0.0
H1846 H 0.9178 0.69915 0.12328 0.0
H1847 H 0.95629 0.67584 0.11235 0.0
H1848 H 0.86133 0.69777 0.1294 0.0
H1849 H 0.92079 0.76441 0.10799 0.0
H1850 H 0.94088 0.78404 0.09179 0.0
H1851 H 0.84997 0.80176 0.08144 0.0
H1852 H 0.82935 0.78183 0.09756 0.0
H1853 H 0.85449 0.83814 0.15601 0.0
H1854 H 0.86777 0.79429 0.14553 0.0
H1855 H 0.78357 0.80362 0.12906 0.0
H1856 H 0.76961 0.84723 0.13974 0.0
H1857 H 0.84184 0.80286 0.11735 0.0
H1858 H 0.7855 0.74565 0.14174 0.0
H1859 H 0.77029 0.72962 0.15893 0.0
H1860 H 0.86099 0.69807 0.16479 0.0
H1861 H 0.8769 0.71435 0.14768 0.0
C1862 C 0.90239 0.69077 0.09444 0.0
C1863 C 0.93029 0.68146 0.09855 0.0
C1864 C 0.88008 0.70334 0.10069 0.0
C1865 C 0.88603 0.70805 0.11105 0.0
C1866 C 0.91274 0.69593 0.1153 0.0
C1867 C 0.93471 0.68255 0.10908 0.0
C1868 C 0.86715 0.72944 0.11708 0.0
C1869 C 0.857 0.72071 0.12676 0.0
C1870 C 0.86117 0.75938 0.1136 0.0
C1871 C 0.87353 0.77128 0.10391 0.0
C1872 C 0.90509 0.77229 0.10223 0.0
C1873 C 0.91657 0.78349 0.09307 0.0
C1874 C 0.8967 0.79406 0.08557 0.0
C1875 C 0.86532 0.79349 0.08724 0.0
C1876 C 0.85373 0.78224 0.09638 0.0
C1877 C 0.83867 0.83074 0.15021 0.0
C1878 C 0.8111 0.8462 0.14863 0.0
C1879 C 0.84618 0.80556 0.1443 0.0
C1880 C 0.8265 0.79566 0.13661 0.0
C1881 C 0.79886 0.81085 0.13503 0.0
C1882 C 0.79099 0.83571 0.14111 0.0
C1883 C 0.83652 0.77128 0.12968 0.0
C1884 C 0.84531 0.77961 0.11986 0.0
C1885 C 0.84189 0.74136 0.13314 0.0
C1886 C 0.83243 0.73143 0.14344 0.0
C1887 C 0.80228 0.73554 0.14672 0.0
C1888 C 0.79352 0.72636 0.15645 0.0
C1889 C 0.81467 0.71288 0.16296 0.0
C1890 C 0.84463 0.70852 0.15974 0.0
C1891 C 0.85352 0.71768 0.15002 0.0
H1892 H 0.80784 0.70578 0.17049 0.0
H1893 H 0.90558 0.80279 0.07849 0.0
H1894 H 0.6453 0.84395 0.33084 0.0
H1895 H 0.61599 0.80896 0.3413 0.0
H1896 H 0.6969 0.78611 0.3581 0.0
H1897 H 0.72638 0.82167 0.34775 0.0
H1898 H 0.64541 0.73575 0.35394 0.0
H1899 H 0.66696 0.83837 0.36769 0.0
H1900 H 0.66876 0.89321 0.36399 0.0
H1901 H 0.57335 0.8926 0.35701 0.0
H1902 H 0.57135 0.83737 0.36025 0.0
H1903 H 0.57766 0.68734 0.39988 0.0
H1904 H 0.61099 0.70911 0.3869 0.0
H1905 H 0.54054 0.77321 0.37884 0.0
H1906 H 0.50848 0.75314 0.3924 0.0
H1907 H 0.58798 0.80149 0.37782 0.0
H1908 H 0.56069 0.70478 0.36441 0.0
H1909 H 0.55416 0.64913 0.3641 0.0
H1910 H 0.65062 0.63718 0.36722 0.0
H1911 H 0.65769 0.69279 0.36769 0.0
C1912 C 0.65702 0.83112 0.33659 0.0
C1913 C 0.68791 0.8364 0.33864 0.0
C1914 C 0.64031 0.81082 0.34249 0.0
C1915 C 0.65432 0.79522 0.35049 0.0
C1916 C 0.68579 0.79793 0.35191 0.0
C1917 C 0.7025 0.81849 0.34604 0.0
C1918 C 0.63534 0.7815 0.35851 0.0
C1919 C 0.63307 0.74989 0.35928 0.0
C1920 C 0.61848 0.80021 0.36515 0.0
C1921 C 0.61905 0.83377 0.36417 0.0
C1922 C 0.64638 0.84994 0.36536 0.0
C1923 C 0.64746 0.88106 0.3633 0.0
C1924 C 0.62115 0.89644 0.36029 0.0
C1925 C 0.5937 0.88068 0.35935 0.0
C1926 C 0.5926 0.84945 0.36128 0.0
C1927 C 0.56954 0.70623 0.39535 0.0
C1928 C 0.54067 0.7187 0.39711 0.0
C1929 C 0.58841 0.71846 0.38786 0.0
C1930 C 0.57815 0.74244 0.38167 0.0
C1931 C 0.54918 0.75482 0.38348 0.0
C1932 C 0.5308 0.74334 0.39122 0.0
C1933 C 0.59765 0.75512 0.37345 0.0
C1934 C 0.60017 0.78687 0.37259 0.0
C1935 C 0.6138 0.73639 0.36651 0.0
C1936 C 0.60968 0.70294 0.36619 0.0
C1937 C 0.58049 0.69028 0.3651 0.0
C1938 C 0.5767 0.65875 0.36489 0.0
C1939 C 0.60195 0.63963 0.36567 0.0
C1940 C 0.63107 0.65202 0.36663 0.0
C1941 C 0.63499 0.68354 0.36687 0.0
H1942 H 0.59896 0.61523 0.3655 0.0
H1943 H 0.62205 0.92054 0.35869 0.0
H1944 H 0.37729 0.71659 0.4135 0.0
H1945 H 0.33911 0.73221 0.40102 0.0
H1946 H 0.37968 0.67291 0.37882 0.0
H1947 H 0.41744 0.6565 0.3913 0.0
H1948 H 0.3783 0.74913 0.37829 0.0
H1949 H 0.32309 0.65274 0.37905 0.0
H1950 H 0.29427 0.61231 0.38773 0.0
H1951 H 0.22784 0.6776 0.39744 0.0
H1952 H 0.25659 0.71853 0.38895 0.0
H1953 H 0.31435 0.79315 0.33356 0.0
H1954 H 0.32705 0.75446 0.34609 0.0
H1955 H 0.26179 0.7927 0.36687 0.0
H1956 H 0.24877 0.8317 0.35433 0.0
H1957 H 0.2717 0.72555 0.36866 0.0
H1958 H 0.32399 0.82119 0.3695 0.0
H1959 H 0.35079 0.8649 0.36193 0.0
H1960 H 0.4213 0.80561 0.35118 0.0
H1961 H 0.39452 0.76141 0.3585 0.0
C1962 C 0.37732 0.70592 0.40609 0.0
C1963 C 0.40054 0.6855 0.40336 0.0
C1964 C 0.35544 0.71481 0.39899 0.0
C1965 C 0.35658 0.70359 0.38904 0.0
C1966 C 0.37821 0.68145 0.38652 0.0
C1967 C 0.39977 0.6721 0.39367 0.0
C1968 C 0.33999 0.71968 0.38091 0.0
C1969 C 0.35516 0.74366 0.37608 0.0
C1970 C 0.30942 0.71329 0.37837 0.0
C1971 C 0.29223 0.68875 0.38349 0.0
C1972 C 0.30258 0.65855 0.38315 0.0
C1973 C 0.28619 0.63552 0.38801 0.0
C1974 C 0.25931 0.6424 0.39317 0.0
C1975 C 0.24871 0.67231 0.39346 0.0
C1976 C 0.26503 0.69543 0.38863 0.0
C1977 C 0.30187 0.79277 0.34064 0.0
C1978 C 0.28106 0.81594 0.34304 0.0
C1979 C 0.30911 0.77054 0.34779 0.0
C1980 C 0.29574 0.77112 0.35745 0.0
C1981 C 0.27235 0.79194 0.35945 0.0
C1982 C 0.265 0.81426 0.35227 0.0
C1983 C 0.31045 0.75431 0.36585 0.0
C1984 C 0.29493 0.73072 0.37082 0.0
C1985 C 0.34062 0.76141 0.36873 0.0
C1986 C 0.35706 0.78795 0.36444 0.0
C1987 C 0.34505 0.81743 0.36543 0.0
C1988 C 0.36024 0.84229 0.3612 0.0
C1989 C 0.38769 0.83802 0.35606 0.0
C1990 C 0.40001 0.80887 0.35515 0.0
C1991 C 0.38482 0.7839 0.35934 0.0
H1992 H 0.39944 0.85731 0.3528 0.0
H1993 H 0.24664 0.62453 0.39692 0.0
H1994 H 0.25838 0.82112 0.14501 0.0
H1995 H 0.23822 0.78744 0.13184 0.0
H1996 H 0.1777 0.74673 0.15367 0.0
H1997 H 0.19779 0.77978 0.16688 0.0
H1998 H 0.21871 0.7184 0.12918 0.0
H1999 H 0.10839 0.76923 0.14383 0.0
H2000 H 0.09094 0.81296 0.15402 0.0
H2001 H 0.16532 0.8666 0.14285 0.0
H2002 H 0.1827 0.82347 0.1324 0.0
H2003 H 0.08613 0.65281 0.10524 0.0
H2004 H 0.12619 0.67075 0.11672 0.0
H2005 H 0.12209 0.7595 0.10288 0.0
H2006 H 0.08202 0.74204 0.09155 0.0
H2007 H 0.11715 0.76383 0.12277 0.0
H2008 H 0.18349 0.71217 0.09948 0.0
H2009 H 0.20223 0.6686 0.08952 0.0
H2010 H 0.21752 0.61826 0.11698 0.0
H2011 H 0.19848 0.6614 0.1271 0.0
C2012 C 0.24178 0.80407 0.14712 0.0
C2013 C 0.22912 0.8037 0.15694 0.0
C2014 C 0.23036 0.78476 0.13958 0.0
C2015 C 0.20619 0.76503 0.14178 0.0
C2016 C 0.19629 0.76195 0.15184 0.0
C2017 C 0.20774 0.78103 0.15937 0.0
C2018 C 0.18688 0.75316 0.13351 0.0
C2019 C 0.19651 0.72822 0.12773 0.0
C2020 C 0.15814 0.76637 0.13159 0.0
C2021 C 0.14704 0.79298 0.13744 0.0
C2022 C 0.12087 0.79043 0.1435 0.0
C2023 C 0.11099 0.81512 0.14931 0.0
C2024 C 0.12706 0.84251 0.1491 0.0
C2025 C 0.15295 0.84534 0.14303 0.0
C2026 C 0.16281 0.82078 0.13716 0.0
C2027 C 0.09412 0.67601 0.10454 0.0
C2028 C 0.08063 0.69607 0.09755 0.0
C2029 C 0.11708 0.6862 0.11109 0.0
C2030 C 0.12713 0.71651 0.11067 0.0
C2031 C 0.11459 0.73609 0.10339 0.0
C2032 C 0.09164 0.72603 0.09691 0.0
C2033 C 0.14873 0.72876 0.11832 0.0
C2034 C 0.13939 0.7539 0.12409 0.0
C2035 C 0.17777 0.71585 0.12011 0.0
C2036 C 0.1893 0.68992 0.11404 0.0
C2037 C 0.19062 0.69172 0.10339 0.0
C2038 C 0.20134 0.66712 0.09772 0.0
C2039 C 0.21099 0.64065 0.10261 0.0
C2040 C 0.21001 0.63876 0.11319 0.0
C2041 C 0.19929 0.6633 0.1189 0.0
H2042 H 0.21929 0.62163 0.09821 0.0
H2043 H 0.1194 0.86153 0.15363 0.0
H2044 H 0.09767 0.67113 0.88964 0.0
H2045 H 0.13226 0.65868 0.87572 0.0
H2046 H 0.18528 0.60259 0.89589 0.0
H2047 H 0.15087 0.61482 0.90982 0.0
H2048 H 0.22004 0.62824 0.87934 0.0
H2049 H 0.12817 0.57031 0.88622 0.0
H2050 H 0.07302 0.56493 0.88913 0.0
H2051 H 0.05493 0.60402 0.85987 0.0
H2052 H 0.11004 0.61016 0.85688 0.0
H2053 H 0.25559 0.49042 0.85336 0.0
H2054 H 0.24459 0.5346 0.86399 0.0
H2055 H 0.18594 0.57052 0.84062 0.0
H2056 H 0.19605 0.52595 0.83015 0.0
H2057 H 0.15573 0.5633 0.85728 0.0
H2058 H 0.25093 0.60925 0.84919 0.0
H2059 H 0.3065 0.61199 0.84692 0.0
H2060 H 0.31963 0.59275 0.87857 0.0
H2061 H 0.26414 0.58946 0.88102 0.0
C2062 C 0.11745 0.65725 0.89123 0.0
C2063 C 0.12117 0.64335 0.90075 0.0
C2064 C 0.13721 0.65016 0.88326 0.0
C2065 C 0.16094 0.62928 0.88475 0.0
C2066 C 0.16706 0.61869 0.89458 0.0
C2067 C 0.14721 0.62555 0.90252 0.0
C2068 C 0.17457 0.61324 0.876 0.0
C2069 C 0.20613 0.61412 0.87445 0.0
C2070 C 0.15628 0.59493 0.86963 0.0
C2071 C 0.12316 0.59107 0.87138 0.0
C2072 C 0.11242 0.57801 0.88045 0.0
C2073 C 0.08118 0.5748 0.88211 0.0
C2074 C 0.06048 0.5842 0.87469 0.0
C2075 C 0.07099 0.59682 0.86561 0.0
C2076 C 0.10222 0.6002 0.86393 0.0
C2077 C 0.24119 0.50826 0.85036 0.0
C2078 C 0.22629 0.50456 0.841 0.0
C2079 C 0.23498 0.53361 0.85643 0.0
C2080 C 0.21427 0.55588 0.85314 0.0
C2081 C 0.20181 0.55356 0.84336 0.0
C2082 C 0.20761 0.52808 0.83737 0.0
C2083 C 0.20152 0.57827 0.86043 0.0
C2084 C 0.16987 0.57815 0.86186 0.0
C2085 C 0.2199 0.5969 0.8667 0.0
C2086 C 0.25332 0.59892 0.86527 0.0
C2087 C 0.26565 0.60537 0.85566 0.0
C2088 C 0.29715 0.60707 0.85434 0.0
C2089 C 0.31658 0.6025 0.86259 0.0
C2090 C 0.30455 0.59628 0.87219 0.0
C2091 C 0.27307 0.59455 0.87354 0.0
H2092 H 0.34096 0.60382 0.86156 0.0
H2093 H 0.03632 0.58158 0.87597 0.0
H2094 H 0.34203 0.53127 0.6599 0.0
H2095 H 0.35249 0.57138 0.64797 0.0
H2096 H 0.25791 0.57317 0.63911 0.0
H2097 H 0.24769 0.53076 0.6507 0.0
H2098 H 0.28595 0.57336 0.62336 0.0
H2099 H 0.29806 0.63853 0.65047 0.0
H2100 H 0.31192 0.65759 0.66744 0.0
H2101 H 0.40663 0.64815 0.66022 0.0
H2102 H 0.39344 0.62857 0.64328 0.0
H2103 H 0.41663 0.6776 0.59927 0.0
H2104 H 0.37382 0.67367 0.61114 0.0
H2105 H 0.36632 0.57796 0.60439 0.0
H2106 H 0.40724 0.58204 0.59231 0.0
H2107 H 0.37 0.64732 0.62769 0.0
H2108 H 0.30323 0.54598 0.60828 0.0
H2109 H 0.28373 0.53365 0.59125 0.0
H2110 H 0.28699 0.62796 0.58298 0.0
H2111 H 0.30606 0.64101 0.60002 0.0
C2112 C 0.32316 0.54055 0.65562 0.0
C2113 C 0.29403 0.52753 0.65621 0.0
C2114 C 0.32915 0.56401 0.64882 0.0
C2115 C 0.30598 0.576 0.64266 0.0
C2116 C 0.27629 0.56442 0.64374 0.0
C2117 C 0.27041 0.54022 0.65039 0.0
C2118 C 0.31424 0.59693 0.63417 0.0
C2119 C 0.30393 0.58993 0.62435 0.0
C2120 C 0.33635 0.62014 0.63536 0.0
C2121 C 0.34468 0.6321 0.64555 0.0
C2122 C 0.32186 0.64039 0.6525 0.0
C2123 C 0.3296 0.65129 0.66213 0.0
C2124 C 0.36013 0.65411 0.6649 0.0
C2125 C 0.38299 0.64604 0.65805 0.0
C2126 C 0.37538 0.63512 0.64842 0.0
C2127 C 0.40522 0.65595 0.60013 0.0
C2128 C 0.4155 0.63014 0.59484 0.0
C2129 C 0.38079 0.6537 0.60695 0.0
C2130 C 0.36632 0.6256 0.60861 0.0
C2131 C 0.37611 0.60018 0.60306 0.0
C2132 C 0.39999 0.6025 0.59618 0.0
C2133 C 0.34383 0.62122 0.61696 0.0
C2134 C 0.35128 0.63155 0.62673 0.0
C2135 C 0.31802 0.6023 0.61571 0.0
C2136 C 0.30609 0.5945 0.60547 0.0
C2137 C 0.2995 0.56417 0.60288 0.0
C2138 C 0.28861 0.55703 0.5932 0.0
C2139 C 0.28413 0.58 0.58604 0.0
C2140 C 0.29051 0.61018 0.58854 0.0
C2141 C 0.3014 0.61746 0.59821 0.0
H2142 H 0.27572 0.57442 0.57855 0.0
H2143 H 0.36608 0.66253 0.67236 0.0
H2144 H 0.8982 0.02725 0.06089 0.0
H2145 H 0.90077 0.97357 0.05623 0.0
H2146 H 0.99006 0.98741 0.04355 0.0
H2147 H 0.98778 0.04093 0.04826 0.0
H2148 H 0.95302 0.93117 0.03613 0.0
H2149 H 8e-05 0.98107 0.06592 0.0
H2150 H 0.99757 0.01875 0.07976 0.0
H2151 H 0.91596 0.97694 0.09098 0.0
H2152 H 0.91788 0.93921 0.0771 0.0
H2153 H 0.04335 0.80734 0.05656 0.0
H2154 H 0.02465 0.8568 0.05054 0.0
H2155 H 0.94246 0.8448 0.06795 0.0
H2156 H 0.96072 0.79584 0.07394 0.0
H2157 H 0.973 0.89905 0.07168 0.0
H2158 H 0.93769 0.83899 0.0436 0.0
H2159 H 0.9434 0.80277 0.02946 0.0
H2160 H 0.00551 0.86362 0.01464 0.0
H2161 H 0.00058 0.90001 0.02879 0.0
C2162 C 0.91761 0.01922 0.0566 0.0
C2163 C 0.94321 0.03776 0.0552 0.0
C2164 C 0.91897 0.98859 0.05387 0.0
C2165 C 0.94584 0.97662 0.04973 0.0
C2166 C 0.96918 0.99632 0.04675 0.0
C2167 C 0.96799 0.0268 0.04956 0.0
C2168 C 0.95376 0.94476 0.05183 0.0
C2169 C 0.95735 0.92394 0.04387 0.0
C2170 C 0.95973 0.93571 0.06193 0.0
C2171 C 0.95898 0.95758 0.07047 0.0
C2172 C 0.98158 0.98 0.07134 0.0
C2173 C 0.98027 0.00135 0.07918 0.0
C2174 C 0.95658 0.00029 0.08624 0.0
C2175 C 0.93426 0.97776 0.0855 0.0
C2176 C 0.93546 0.95638 0.07765 0.0
C2177 C 0.0213 0.8153 0.05907 0.0
C2178 C 0.00359 0.79788 0.06578 0.0
C2179 C 0.01055 0.84331 0.05556 0.0
C2180 C 0.98212 0.85415 0.05876 0.0
C2181 C 0.96439 0.83666 0.06537 0.0
C2182 C 0.97494 0.80876 0.06881 0.0
C2183 C 0.97173 0.88487 0.05602 0.0
C2184 C 0.96815 0.90582 0.06392 0.0
C2185 C 0.96619 0.89381 0.04587 0.0
C2186 C 0.969 0.8721 0.03731 0.0
C2187 C 0.95279 0.84454 0.03737 0.0
C2188 C 0.95584 0.82399 0.02935 0.0
C2189 C 0.97487 0.83085 0.02117 0.0
C2190 C 0.99081 0.85832 0.02099 0.0
C2191 C 0.98788 0.87892 0.029 0.0
H2192 H 0.9772 0.81491 0.01496 0.0
H2193 H 0.95556 0.01688 0.0923 0.0
H2194 H 0.38714 0.91216 0.30506 0.0
H2195 H 0.43558 0.92337 0.29725 0.0
H2196 H 0.46179 0.82925 0.29998 0.0
H2197 H 0.41252 0.8176 0.30787 0.0
H2198 H 0.49955 0.86687 0.30983 0.0
H2199 H 0.46094 0.86229 0.27629 0.0
H2200 H 0.42402 0.87104 0.26251 0.0
H2201 H 0.43567 0.96743 0.2656 0.0
H2202 H 0.47257 0.95933 0.27943 0.0
H2203 H 0.64336 0.921 0.29334 0.0
H2204 H 0.5945 0.90608 0.28603 0.0
H2205 H 0.54842 0.96662 0.30662 0.0
H2206 H 0.59718 0.98207 0.31384 0.0
H2207 H 0.52546 0.93519 0.28106 0.0
H2208 H 0.52368 0.91219 0.3229 0.0
H2209 H 0.56036 0.90954 0.33708 0.0
H2210 H 0.62678 0.86991 0.31716 0.0
H2211 H 0.5899 0.87042 0.30317 0.0
C2212 C 0.40276 0.89355 0.30379 0.0
C2213 C 0.39615 0.86401 0.30722 0.0
C2214 C 0.43042 0.9 0.29918 0.0
C2215 C 0.4522 0.87712 0.29794 0.0
C2216 C 0.44508 0.84716 0.30079 0.0
C2217 C 0.41706 0.84057 0.30534 0.0
C2218 C 0.48387 0.88615 0.2957 0.0
C2219 C 0.50539 0.88095 0.30335 0.0
C2220 C 0.49138 0.90506 0.28736 0.0
C2221 C 0.46959 0.91017 0.27891 0.0
C2222 C 0.45562 0.88537 0.27404 0.0
C2223 C 0.43476 0.89021 0.2662 0.0
C2224 C 0.42757 0.91977 0.26316 0.0
C2225 C 0.44134 0.94454 0.26794 0.0
C2226 C 0.46235 0.93983 0.27575 0.0
C2227 C 0.6229 0.93221 0.29596 0.0
C2228 C 0.62382 0.952 0.30434 0.0
C2229 C 0.59505 0.92395 0.29168 0.0
C2230 C 0.56798 0.93493 0.29591 0.0
C2231 C 0.56919 0.958 0.30326 0.0
C2232 C 0.59706 0.96662 0.30744 0.0
C2233 C 0.54026 0.91618 0.29527 0.0
C2234 C 0.51973 0.91995 0.28724 0.0
C2235 C 0.53338 0.8958 0.30324 0.0
C2236 C 0.55424 0.89173 0.31197 0.0
C2237 C 0.54592 0.90232 0.32164 0.0
C2238 C 0.56671 0.90107 0.32967 0.0
C2239 C 0.59591 0.88948 0.32807 0.0
C2240 C 0.60412 0.87854 0.3185 0.0
C2241 C 0.58322 0.87913 0.31053 0.0
H2242 H 0.61214 0.88909 0.33425 0.0
H2243 H 0.41122 0.92346 0.25715 0.0
H2244 H 0.60165 0.30796 0.56822 0.0
H2245 H 0.58789 0.35808 0.56171 0.0
H2246 H 0.5248 0.31687 0.54082 0.0
H2247 H 0.53832 0.26679 0.5473 0.0
H2248 H 0.55587 0.39082 0.53866 0.0
H2249 H 0.48496 0.3157 0.55826 0.0
H2250 H 0.48564 0.2749 0.57107 0.0
H2251 H 0.53875 0.33113 0.59098 0.0
H2252 H 0.53857 0.37211 0.57819 0.0
H2253 H 0.44746 0.51138 0.54812 0.0
H2254 H 0.46555 0.46083 0.54277 0.0
H2255 H 0.50504 0.44731 0.57246 0.0
H2256 H 0.48636 0.4964 0.57783 0.0
H2257 H 0.48056 0.39803 0.56667 0.0
H2258 H 0.54578 0.47465 0.55169 0.0
H2259 H 0.55648 0.51865 0.54064 0.0
H2260 H 0.52746 0.46766 0.5146 0.0
H2261 H 0.5161 0.42351 0.52553 0.0
C2262 C 0.5862 0.30944 0.56183 0.0
C2263 C 0.57022 0.28373 0.55849 0.0
C2264 C 0.57858 0.33811 0.55804 0.0
C2265 C 0.55501 0.34108 0.5509 0.0
C2266 C 0.54308 0.315 0.54631 0.0
C2267 C 0.55049 0.2864 0.55014 0.0
C2268 C 0.53549 0.36823 0.55146 0.0
C2269 C 0.53904 0.39244 0.54465 0.0
C2270 C 0.51397 0.37035 0.55937 0.0
C2271 C 0.51171 0.34678 0.56732 0.0
C2272 C 0.49647 0.31939 0.56542 0.0
C2273 C 0.49684 0.29625 0.57268 0.0
C2274 C 0.51207 0.30049 0.5819 0.0
C2275 C 0.52678 0.32796 0.58389 0.0
C2276 C 0.52655 0.35113 0.57664 0.0
C2277 C 0.45919 0.49704 0.55354 0.0
C2278 C 0.46565 0.50763 0.56337 0.0
C2279 C 0.46984 0.46847 0.55045 0.0
C2280 C 0.487 0.45055 0.55717 0.0
C2281 C 0.49185 0.46068 0.56713 0.0
C2282 C 0.48119 0.4888 0.5702 0.0
C2283 C 0.50124 0.42159 0.55408 0.0
C2284 C 0.49659 0.39651 0.56043 0.0
C2285 C 0.52256 0.41957 0.54602 0.0
C2286 C 0.52971 0.44594 0.53944 0.0
C2287 C 0.54147 0.47291 0.54361 0.0
C2288 C 0.54767 0.49786 0.53737 0.0
C2289 C 0.54256 0.49598 0.52693 0.0
C2290 C 0.53133 0.46911 0.52269 0.0
C2291 C 0.52499 0.44412 0.52891 0.0
H2292 H 0.54737 0.51532 0.5221 0.0
H2293 H 0.51261 0.28254 0.5875 0.0
H2294 H 0.12182 0.45226 0.79252 0.0
H2295 H 0.07562 0.42744 0.78591 0.0
H2296 H 0.0402 0.42126 0.81636 0.0
H2297 H 0.08596 0.44551 0.82295 0.0
H2298 H 0.05505 0.36285 0.80345 0.0
H2299 H 0.00433 0.46432 0.80449 0.0
H2300 H 0.99825 0.51661 0.79805 0.0
H2301 H 0.98594 0.48233 0.76781 0.0
H2302 H 0.99234 0.42982 0.77408 0.0
H2303 H 0.91776 0.35002 0.82593 0.0
H2304 H 0.96703 0.35891 0.81806 0.0
H2305 H 0.92836 0.34208 0.78852 0.0
H2306 H 0.87836 0.33277 0.79647 0.0
H2307 H 0.95549 0.40158 0.79143 0.0
H2308 H 0.98467 0.29921 0.79338 0.0
H2309 H 0.98897 0.24774 0.80061 0.0
H2310 H 0.04179 0.28272 0.8254 0.0
H2311 H 0.03745 0.33447 0.81843 0.0
C2312 C 0.10352 0.44675 0.79771 0.0
C2313 C 0.10727 0.4506 0.80823 0.0
C2314 C 0.07737 0.43241 0.79394 0.0
C2315 C 0.0549 0.42233 0.80069 0.0
C2316 C 0.05749 0.42884 0.81107 0.0
C2317 C 0.08348 0.44281 0.81481 0.0
C2318 C 0.03063 0.40133 0.79753 0.0
C2319 C 0.03334 0.37097 0.80063 0.0
C2320 C 0.00295 0.41178 0.79343 0.0
C2321 C -0.00068 0.44327 0.78971 0.0
C2322 C 0.0007 0.46798 0.79645 0.0
C2323 C 0.99709 0.49764 0.79284 0.0
C2324 C 0.99186 0.50281 0.78252 0.0
C2325 C 0.99011 0.47831 0.77579 0.0
C2326 C 0.99372 0.44861 0.77937 0.0
C2327 C 0.91993 0.34728 0.81778 0.0
C2328 C 0.89442 0.34095 0.81177 0.0
C2329 C 0.94808 0.35223 0.81329 0.0
C2330 C 0.95116 0.35127 0.8027 0.0
C2331 C 0.92618 0.34298 0.79669 0.0
C2332 C 0.89788 0.33749 0.80123 0.0
C2333 C 0.97924 0.36376 0.79821 0.0
C2334 C 0.97748 0.39261 0.79367 0.0
C2335 C 0.00783 0.35195 0.80107 0.0
C2336 C 0.01082 0.3208 0.80533 0.0
C2337 C 0.99712 0.29598 0.80039 0.0
C2338 C -0.00043 0.26672 0.80445 0.0
C2339 C 0.01569 0.26195 0.81345 0.0
C2340 C 0.0294 0.28643 0.81841 0.0
C2341 C 0.02702 0.31574 0.81439 0.0
H2342 H 0.01753 0.23929 0.81658 0.0
H2343 H 0.98904 0.52578 0.77974 0.0
H2344 H 0.90942 0.32843 0.9176 0.0
H2345 H 0.92703 0.38029 0.9204 0.0
H2346 H 0.96247 0.35446 0.94965 0.0
H2347 H 0.94519 0.30243 0.94689 0.0
H2348 H 0.94552 0.42747 0.94327 0.0
H2349 H 0.0091 0.33189 0.9356 0.0
H2350 H 0.00777 0.28465 0.92575 0.0
H2351 H 0.99068 0.33532 0.89843 0.0
H2352 H 0.99089 0.383 0.90831 0.0
H2353 H 0.07408 0.52193 0.94229 0.0
H2354 H 0.04448 0.47648 0.94638 0.0
H2355 H 0.04097 0.45353 0.91453 0.0
H2356 H 0.0716 0.49763 0.9105 0.0
H2357 H 0.03995 0.40551 0.92387 0.0
H2358 H 0.98448 0.49865 0.92734 0.0
H2359 H 0.97517 0.55002 0.93418 0.0
H2360 H 0.96689 0.51322 0.96423 0.0
H2361 H 0.97678 0.46168 0.95761 0.0
C2362 C 0.9194 0.33411 0.92487 0.0
C2363 C 0.92696 0.31126 0.93188 0.0
C2364 C 0.92921 0.36391 0.9265 0.0
C2365 C 0.94647 0.37094 0.93515 0.0
C2366 C 0.94916 0.34941 0.94293 0.0
C2367 C 0.9396 0.31957 0.94128 0.0
C2368 C 0.97001 0.39467 0.93437 0.0
C2369 C 0.96631 0.42282 0.93913 0.0
C2370 C 0.99661 0.38878 0.9287 0.0
C2371 C -0.00011 0.36076 0.92267 0.0
C2372 C 0.00524 0.3329 0.92748 0.0
C2373 C 0.00448 0.30603 0.92189 0.0
C2374 C -0.00095 0.30686 0.91143 0.0
C2375 C 0.99478 0.33468 0.90653 0.0
C2376 C 0.99515 0.36163 0.91213 0.0
C2377 C 0.06789 0.50652 0.93622 0.0
C2378 C 0.0746 0.5136 0.92606 0.0
C2379 C 0.05063 0.48082 0.93855 0.0
C2380 C 0.03934 0.46239 0.93071 0.0
C2381 C 0.04892 0.4677 0.9207 0.0
C2382 C 0.06665 0.49293 0.9184 0.0
C2383 C 0.01578 0.43909 0.93267 0.0
C2384 C 0.0195 0.41054 0.92816 0.0
C2385 C 0.98852 0.4456 0.93805 0.0
C2386 C 0.98172 0.47639 0.94201 0.0
C2387 C 0.98081 0.50154 0.93542 0.0
C2388 C 0.97545 0.53068 0.93925 0.0
C2389 C 0.97051 0.53488 0.94963 0.0
C2390 C 0.97079 0.50993 0.9562 0.0
C2391 C 0.97629 0.48076 0.95241 0.0
H2392 H 0.96643 0.55747 0.95258 0.0
H2393 H 0.99809 0.28603 0.90709 0.0
H2394 H 0.13882 0.87502 0.20401 0.0
H2395 H 0.09142 0.90029 0.20866 0.0
H2396 H 0.04384 0.84905 0.18577 0.0
H2397 H 0.0909 0.82365 0.18104 0.0
H2398 H 0.066 0.92674 0.18689 0.0
H2399 H 0.00671 0.83493 0.19903 0.0
H2400 H 0.99789 0.79492 0.21181 0.0
H2401 H 0.99586 0.86226 0.23539 0.0
H2402 H 0.00518 0.9026 0.22273 0.0
H2403 H 0.92416 0.94111 0.16578 0.0
H2404 H 0.97433 0.93213 0.17295 0.0
H2405 H 0.94453 0.96886 0.20165 0.0
H2406 H 0.89387 0.97804 0.19441 0.0
H2407 H 0.96603 0.91162 0.20353 0.0
H2408 H 0.00293 0.00278 0.18933 0.0
H2409 H 0.01123 0.04314 0.17665 0.0
H2410 H 0.05713 0.97981 0.15718 0.0
H2411 H 0.04854 0.93888 0.16961 0.0
C2412 C 0.11801 0.86806 0.20028 0.0
C2413 C 0.11871 0.84801 0.19194 0.0
C2414 C 0.09092 0.88241 0.20301 0.0
C2415 C 0.06426 0.87641 0.19758 0.0
C2416 C 0.06416 0.85351 0.19018 0.0
C2417 C 0.09119 0.83915 0.18743 0.0
C2418 C 0.03998 0.89934 0.19725 0.0
C2419 C 0.0441 0.92375 0.19055 0.0
C2420 C 0.01217 0.89593 0.20241 0.0
C2421 C 0.0073 0.87163 0.20998 0.0
C2422 C 0.00493 0.84112 0.20696 0.0
C2423 C -0.00032 0.81841 0.21417 0.0
C2424 C 0.99651 0.82602 0.22442 0.0
C2425 C 0.99848 0.85637 0.22746 0.0
C2426 C 0.00378 0.87915 0.22027 0.0
C2427 C 0.92861 0.9482 0.17352 0.0
C2428 C 0.90528 0.96008 0.17958 0.0
C2429 C 0.95733 0.94325 0.1776 0.0
C2430 C 0.96318 0.94997 0.18783 0.0
C2431 C 0.94045 0.96373 0.19373 0.0
C2432 C 0.91166 0.96908 0.18958 0.0
C2433 C 0.99121 0.93791 0.19251 0.0
C2434 C 0.98808 0.91557 0.20008 0.0
C2435 C 0.02 0.94313 0.18805 0.0
C2436 C 0.02502 0.96766 0.18045 0.0
C2437 C 0.01457 0.99735 0.18231 0.0
C2438 C 0.01935 0.02036 0.17516 0.0
C2439 C 0.03469 0.01405 0.16612 0.0
C2440 C 0.04526 0.98468 0.1642 0.0
C2441 C 0.04047 0.96157 0.1713 0.0
H2442 H 0.0384 0.03191 0.1606 0.0
H2443 H 0.99237 0.80841 0.22999 0.0
H2444 H 0.51075 0.79306 0.43391 0.0
H2445 H 0.52839 0.83814 0.44248 0.0
H2446 H 0.43778 0.8554 0.45365 0.0
H2447 H 0.41942 0.80959 0.44483 0.0
H2448 H 0.46244 0.90483 0.44508 0.0
H2449 H 0.49379 0.83802 0.47063 0.0
H2450 H 0.51475 0.79115 0.4781 0.0
H2451 H 0.60244 0.81175 0.46553 0.0
H2452 H 0.58194 0.85844 0.45781 0.0
H2453 H 0.5403 0.03645 0.45633 0.0
H2454 H 0.52045 0.98926 0.46335 0.0
H2455 H 0.57917 0.93811 0.44351 0.0
H2456 H 0.59894 0.98534 0.43631 0.0
H2457 H 0.56118 0.90809 0.46337 0.0
H2458 H 0.51982 0.95898 0.4326 0.0
H2459 H 0.50012 0.00508 0.42424 0.0
H2460 H 0.43084 0.01306 0.44706 0.0
H2461 H 0.45062 0.96722 0.45566 0.0
C2462 C 0.49439 0.80613 0.43823 0.0
C2463 C 0.46356 0.79775 0.43864 0.0
C2464 C 0.5047 0.8318 0.44327 0.0
C2465 C 0.4846 0.84971 0.44893 0.0
C2466 C 0.45373 0.84153 0.44944 0.0
C2467 C 0.44328 0.81554 0.44436 0.0
C2468 C 0.496 0.87864 0.45319 0.0
C2469 C 0.48333 0.90562 0.44945 0.0
C2470 C 0.52343 0.87967 0.45884 0.0
C2471 C 0.53626 0.85188 0.46365 0.0
C2472 C 0.51753 0.83255 0.46942 0.0
C2473 C 0.52933 0.80597 0.4737 0.0
C2474 C 0.55991 0.7985 0.4723 0.0
C2475 C 0.57876 0.81761 0.46663 0.0
C2476 C 0.56707 0.8442 0.46232 0.0
C2477 C 0.54985 0.01522 0.45371 0.0
C2478 C 0.57038 0.01452 0.44552 0.0
C2479 C 0.53865 0.98828 0.45781 0.0
C2480 C 0.54798 0.96037 0.4538 0.0
C2481 C 0.57173 0.95956 0.44668 0.0
C2482 C 0.5829 0.98658 0.44253 0.0
C2483 C 0.52818 0.93352 0.45485 0.0
C2484 C 0.53942 0.90723 0.45951 0.0
C2485 C 0.49931 0.933 0.45011 0.0
C2486 C 0.48684 0.95995 0.44481 0.0
C2487 C 0.50047 0.97067 0.43585 0.0
C2488 C 0.48931 0.99674 0.43107 0.0
C2489 C 0.46425 0.01204 0.43512 0.0
C2490 C 0.45028 0.00122 0.44394 0.0
C2491 C 0.46147 0.97522 0.44877 0.0
H2492 H 0.45564 0.03224 0.4314 0.0
H2493 H 0.569 0.77789 0.47561 0.0
H2494 H 0.58749 0.32954 0.67521 0.0
H2495 H 0.53946 0.34654 0.68237 0.0
H2496 H 0.58471 0.36947 0.71042 0.0
H2497 H 0.63329 0.35382 0.70307 0.0
H2498 H 0.5 0.34433 0.69758 0.0
H2499 H 0.56359 0.43928 0.71684 0.0
H2500 H 0.61519 0.46094 0.71779 0.0
H2501 H 0.63073 0.43777 0.68654 0.0
H2502 H 0.57894 0.41629 0.6854 0.0
H2503 H 0.38216 0.44914 0.7009 0.0
H2504 H 0.42732 0.42626 0.70852 0.0
H2505 H 0.48198 0.46091 0.6839 0.0
H2506 H 0.43711 0.48422 0.67634 0.0
H2507 H 0.51515 0.45564 0.70121 0.0
H2508 H 0.44397 0.39397 0.68114 0.0
H2509 H 0.39297 0.37263 0.67791 0.0
H2510 H 0.39374 0.32988 0.70722 0.0
H2511 H 0.44462 0.35135 0.71066 0.0
C2512 C 0.58708 0.33714 0.68303 0.0
C2513 C 0.61414 0.34139 0.68847 0.0
C2514 C 0.55952 0.34674 0.68715 0.0
C2515 C 0.55875 0.36025 0.69681 0.0
C2516 C 0.58501 0.35984 0.70286 0.0
C2517 C 0.61271 0.35089 0.69865 0.0
C2518 C 0.53283 0.38026 0.69936 0.0
C2519 C 0.50326 0.36855 0.69867 0.0
C2520 C 0.53705 0.41197 0.70065 0.0
C2521 C 0.56762 0.426 0.70108 0.0
C2522 C 0.57798 0.43901 0.71016 0.0
C2523 C 0.60727 0.45121 0.71074 0.0
C2524 C 0.62633 0.45066 0.70225 0.0
C2525 C 0.61599 0.43815 0.69312 0.0
C2526 C 0.58665 0.42602 0.6925 0.0
C2527 C 0.40399 0.45275 0.69729 0.0
C2528 C 0.40605 0.46767 0.68787 0.0
C2529 C 0.42975 0.43972 0.70168 0.0
C2530 C 0.45774 0.44122 0.69662 0.0
C2531 C 0.46049 0.45934 0.68789 0.0
C2532 C 0.43478 0.47259 0.68355 0.0
C2533 C 0.48247 0.41977 0.69912 0.0
C2534 C 0.51178 0.43126 0.70069 0.0
C2535 C 0.47805 0.38795 0.69835 0.0
C2536 C 0.44786 0.37449 0.6962 0.0
C2537 C 0.43318 0.3801 0.6869 0.0
C2538 C 0.40432 0.36801 0.68504 0.0
C2539 C 0.39009 0.34999 0.69237 0.0
C2540 C 0.40476 0.34391 0.70156 0.0
C2541 C 0.4336 0.35603 0.70347 0.0
H2542 H 0.36772 0.34068 0.69092 0.0
H2543 H 0.64908 0.45995 0.70273 0.0
loop_
_geom_bond_atom_site_label_1
_geom_bond_atom_site_label_2
_geom_bond_distance
_geom_bond_site_symmetry_2
_ccdc_geom_bond_type
Co0 O3 1.970 1_455 S
Co0 N17 1.989 . S
Co0 O25 1.967 . S
Co0 O32 1.920 . S
Co1 O4 1.966 1_455 S
Co1 N10 2.022 . S
Co1 N18 1.993 . S
Co1 O26 1.941 . S
C2 O3 1.258 . S
C2 O4 1.263 . S
O3 Co0 1.970 1_655 S
O3 C2 1.258 . S
O4 Co1 1.966 1_655 S
O4 C2 1.263 . S
C5 O6 1.235 . S
C5 O32 1.289 1_655 S
O6 C5 1.235 . S
C7 C9 1.394 1_655 S
C7 N10 1.351 1_655 S
C7 C12 1.501 . S
C8 C9 1.411 . S
C8 N11 1.341 . S
C9 C7 1.394 1_455 S
C9 C8 1.411 . S
N10 Co1 2.022 . S
N10 C7 1.351 1_455 S
N10 N11 1.365 . S
N11 C8 1.341 . S
N11 N10 1.365 . S
N11 H31 0.862 . S
C12 C7 1.501 . S
C12 H13 0.961 . S
C12 H14 0.961 . S
C12 H15 0.960 . S
H13 C12 0.961 . S
H14 C12 0.961 . S
H15 C12 0.960 . S
C16 N17 1.342 . S
C16 C20 1.401 . S
C16 C21 1.499 . S
N17 Co0 1.989 . S
N17 C16 1.342 . S
N17 N18 1.388 . S
N18 Co1 1.993 . S
N18 N17 1.388 . S
N18 C19 1.346 . S
C19 N18 1.346 . S
C19 C20 1.396 . S
C19 C29 1.510 . S
C20 C16 1.401 . S
C20 C19 1.396 . S
C21 C16 1.499 . S
C21 H22 0.959 . S
C21 H23 0.960 . S
C21 H24 0.961 . S
H22 C21 0.959 . S
H23 C21 0.960 . S
H24 C21 0.961 . S
O25 Co0 1.967 . S
O25 C33 1.258 . S
O26 Co1 1.941 . S
O26 C33 1.266 . S
H27 C29 0.959 . S
H28 C29 0.961 1_655 S
C29 C19 1.510 . S
C29 H27 0.959 . S
C29 H28 0.961 1_455 S
C29 H30 0.960 . S
H30 C29 0.960 . S
H31 N11 0.862 . S
O32 Co0 1.920 . S
O32 C5 1.289 1_455 S
C33 O25 1.258 . S
C33 O26 1.266 . S
Co34 O37 1.970 . S
Co34 N51 1.989 . S
Co34 O59 1.967 . S
Co34 O66 1.920 . S
Co35 O38 1.966 . S
Co35 N44 2.022 . S
Co35 N52 1.993 . S
Co35 O60 1.941 . S
C36 O37 1.258 . S
C36 O38 1.263 . S
O37 Co34 1.970 . S
O37 C36 1.258 . S
O38 Co35 1.966 . S
O38 C36 1.263 . S
C39 O40 1.235 . S
C39 O66 1.289 . S
O40 C39 1.235 . S
C41 C43 1.400 . S
C41 N44 1.351 . S
C41 C46 1.501 . S
C42 C43 1.387 . S
C42 N45 1.341 . S
C43 C41 1.400 . S
C43 C42 1.387 . S
N44 Co35 2.022 . S
N44 C41 1.351 . S
N44 N45 1.365 . S
N45 C42 1.341 . S
N45 N44 1.365 . S
N45 H65 0.862 . S
C46 C41 1.501 . S
C46 H47 0.961 . S
C46 H48 0.961 . S
C46 H49 0.960 . S
H47 C46 0.961 . S
H48 C46 0.961 . S
H49 C46 0.960 . S
C50 N51 1.342 . S
C50 C54 1.401 . S
C50 C55 1.499 . S
N51 Co34 1.989 . S
N51 C50 1.342 . S
N51 N52 1.388 . S
N52 Co35 1.993 . S
N52 N51 1.388 . S
N52 C53 1.346 . S
C53 N52 1.346 . S
C53 C54 1.396 . S
C53 C63 1.510 . S
C54 C50 1.401 . S
C54 C53 1.396 . S
C55 C50 1.499 . S
C55 H56 0.959 . S
C55 H57 0.960 . S
C55 H58 0.961 . S
H56 C55 0.959 . S
H57 C55 0.960 . S
H58 C55 0.961 . S
O59 Co34 1.967 . S
O59 C67 1.258 . S
O60 Co35 1.941 . S
O60 C67 1.266 . S
H61 C63 0.959 . S
H62 C63 0.961 . S
C63 C53 1.510 . S
C63 H61 0.959 . S
C63 H62 0.961 . S
C63 H64 0.960 . S
H64 C63 0.960 . S
H65 N45 0.862 . S
O66 Co34 1.920 . S
O66 C39 1.289 . S
C67 O59 1.258 . S
C67 O60 1.266 . S
Co68 O71 1.970 . S
Co68 N85 1.989 . S
Co68 O93 1.967 . S
Co68 O100 1.920 . S
Co69 O72 1.966 . S
Co69 N78 2.022 . S
Co69 N86 1.993 . S
Co69 O94 1.941 . S
C70 O71 1.258 . S
C70 O72 1.263 . S
O71 Co68 1.970 . S
O71 C70 1.258 . S
O72 Co69 1.966 . S
O72 C70 1.263 . S
C73 O74 1.235 . S
C73 O100 1.289 . S
O74 C73 1.235 . S
C75 C77 1.400 . S
C75 N78 1.351 . S
C75 C80 1.501 . S
C76 C77 1.387 . S
C76 N79 1.341 . S
C77 C75 1.400 . S
C77 C76 1.387 . S
N78 Co69 2.022 . S
N78 C75 1.351 . S
N78 N79 1.365 . S
N79 C76 1.341 . S
N79 N78 1.365 . S
N79 H99 0.862 . S
C80 C75 1.501 . S
C80 H81 0.961 . S
C80 H82 0.961 . S
C80 H83 0.960 . S
H81 C80 0.961 . S
H82 C80 0.961 . S
H83 C80 0.960 . S
C84 N85 1.342 . S
C84 C88 1.401 . S
C84 C89 1.499 . S
N85 Co68 1.989 . S
N85 C84 1.342 . S
N85 N86 1.388 . S
N86 Co69 1.993 . S
N86 N85 1.388 . S
N86 C87 1.346 . S
C87 N86 1.346 . S
C87 C88 1.396 . S
C87 C97 1.510 . S
C88 C84 1.401 . S
C88 C87 1.396 . S
C89 C84 1.499 . S
C89 H90 0.959 . S
C89 H91 0.960 . S
C89 H92 0.961 . S
H90 C89 0.959 . S
H91 C89 0.960 . S
H92 C89 0.961 . S
O93 Co68 1.967 . S
O93 C101 1.258 . S
O94 Co69 1.941 . S
O94 C101 1.266 . S
H95 C97 0.959 . S
H96 C97 0.961 . S
C97 C87 1.510 . S
C97 H95 0.959 . S
C97 H96 0.961 . S
C97 H98 0.960 . S
H98 C97 0.960 . S
H99 N79 0.862 . S
O100 Co68 1.920 . S
O100 C73 1.289 . S
C101 O93 1.258 . S
C101 O94 1.266 . S
Co102 O105 1.970 . S
Co102 N119 1.989 . S
Co102 O127 1.967 . S
Co102 O134 1.920 . S
Co103 O106 1.966 . S
Co103 N112 2.022 . S
Co103 N120 1.993 . S
Co103 O128 1.941 . S
C104 O105 1.258 . S
C104 O106 1.263 . S
O105 Co102 1.970 . S
O105 C104 1.258 . S
O106 Co103 1.966 . S
O106 C104 1.263 . S
C107 O108 1.235 . S
C107 O134 1.289 . S
O108 C107 1.235 . S
C109 C111 1.400 . S
C109 N112 1.351 . S
C109 C114 1.501 . S
C110 C111 1.387 . S
C110 N113 1.341 . S
C111 C109 1.400 . S
C111 C110 1.387 . S
N112 Co103 2.022 . S
N112 C109 1.351 . S
N112 N113 1.365 . S
N113 C110 1.341 . S
N113 N112 1.365 . S
N113 H133 0.862 . S
C114 C109 1.501 . S
C114 H115 0.961 . S
C114 H116 0.961 . S
C114 H117 0.960 . S
H115 C114 0.961 . S
H116 C114 0.961 . S
H117 C114 0.960 . S
C118 N119 1.342 . S
C118 C122 1.401 . S
C118 C123 1.499 . S
N119 Co102 1.989 . S
N119 C118 1.342 . S
N119 N120 1.388 . S
N120 Co103 1.993 . S
N120 N119 1.388 . S
N120 C121 1.346 . S
C121 N120 1.346 . S
C121 C122 1.396 . S
C121 C131 1.510 . S
C122 C118 1.401 . S
C122 C121 1.396 . S
C123 C118 1.499 . S
C123 H124 0.959 . S
C123 H125 0.960 . S
C123 H126 0.961 . S
H124 C123 0.959 . S
H125 C123 0.960 . S
H126 C123 0.961 . S
O127 Co102 1.967 . S
O127 C135 1.258 . S
O128 Co103 1.941 . S
O128 C135 1.266 . S
H129 C131 0.959 . S
H130 C131 0.961 . S
C131 C121 1.510 . S
C131 H129 0.959 . S
C131 H130 0.961 . S
C131 H132 0.960 . S
H132 C131 0.960 . S
H133 N113 0.862 . S
O134 Co102 1.920 . S
O134 C107 1.289 . S
C135 O127 1.258 . S
C135 O128 1.266 . S
Co136 O139 1.970 1_455 S
Co136 N153 1.989 . S
Co136 O161 1.967 . S
Co136 O168 1.920 . S
Co137 O140 1.966 1_455 S
Co137 N146 2.022 . S
Co137 N154 1.993 . S
Co137 O162 1.941 . S
C138 O139 1.258 . S
C138 O140 1.263 . S
O139 Co136 1.970 1_655 S
O139 C138 1.258 . S
O140 Co137 1.966 1_655 S
O140 C138 1.263 . S
C141 O142 1.235 . S
C141 O168 1.289 1_655 S
O142 C141 1.235 . S
C143 C145 1.394 1_655 S
C143 N146 1.351 1_655 S
C143 C148 1.501 . S
C144 C145 1.413 . S
C144 N147 1.341 . S
C145 C143 1.394 1_455 S
C145 C144 1.413 . S
N146 Co137 2.022 . S
N146 C143 1.351 1_455 S
N146 N147 1.365 . S
N147 C144 1.341 . S
N147 N146 1.365 . S
N147 H167 0.862 . S
C148 C143 1.501 . S
C148 H149 0.961 . S
C148 H150 0.961 . S
C148 H151 0.960 . S
H149 C148 0.961 . S
H150 C148 0.961 . S
H151 C148 0.960 . S
C152 N153 1.342 . S
C152 C156 1.401 . S
C152 C157 1.499 . S
N153 Co136 1.989 . S
N153 C152 1.342 . S
N153 N154 1.388 . S
N154 Co137 1.993 . S
N154 N153 1.388 . S
N154 C155 1.346 . S
C155 N154 1.346 . S
C155 C156 1.396 . S
C155 C165 1.510 . S
C156 C152 1.401 . S
C156 C155 1.396 . S
C157 C152 1.499 . S
C157 H158 0.959 . S
C157 H159 0.960 . S
C157 H160 0.961 . S
H158 C157 0.959 . S
H159 C157 0.960 . S
H160 C157 0.961 . S
O161 Co136 1.967 . S
O161 C169 1.258 . S
O162 Co137 1.941 . S
O162 C169 1.266 . S
H163 C165 0.959 . S
H164 C165 0.961 1_655 S
C165 C155 1.510 . S
C165 H163 0.959 . S
C165 H164 0.961 1_455 S
C165 H166 0.960 . S
H166 C165 0.960 . S
H167 N147 0.862 . S
O168 Co136 1.920 . S
O168 C141 1.289 1_455 S
C169 O161 1.258 . S
C169 O162 1.266 . S
Co170 O173 1.970 . S
Co170 N187 1.989 . S
Co170 O195 1.967 . S
Co170 O202 1.920 . S
Co171 O174 1.966 . S
Co171 N180 2.022 . S
Co171 N188 1.993 . S
Co171 O196 1.941 . S
C172 O173 1.258 . S
C172 O174 1.263 . S
O173 Co170 1.970 . S
O173 C172 1.258 . S
O174 Co171 1.966 . S
O174 C172 1.263 . S
C175 O176 1.235 . S
C175 O202 1.289 . S
O176 C175 1.235 . S
C177 C179 1.400 . S
C177 N180 1.351 . S
C177 C182 1.501 . S
C178 C179 1.387 . S
C178 N181 1.341 . S
C179 C177 1.400 . S
C179 C178 1.387 . S
N180 Co171 2.022 . S
N180 C177 1.351 . S
N180 N181 1.365 . S
N181 C178 1.341 . S
N181 N180 1.365 . S
N181 H201 0.862 . S
C182 C177 1.501 . S
C182 H183 0.961 . S
C182 H184 0.961 . S
C182 H185 0.960 . S
H183 C182 0.961 . S
H184 C182 0.961 . S
H185 C182 0.960 . S
C186 N187 1.342 . S
C186 C190 1.401 . S
C186 C191 1.499 . S
N187 Co170 1.989 . S
N187 C186 1.342 . S
N187 N188 1.388 . S
N188 Co171 1.993 . S
N188 N187 1.388 . S
N188 C189 1.346 . S
C189 N188 1.346 . S
C189 C190 1.396 . S
C189 C199 1.510 . S
C190 C186 1.401 . S
C190 C189 1.396 . S
C191 C186 1.499 . S
C191 H192 0.959 . S
C191 H193 0.960 . S
C191 H194 0.961 . S
H192 C191 0.959 . S
H193 C191 0.960 . S
H194 C191 0.961 . S
O195 Co170 1.967 . S
O195 C203 1.258 . S
O196 Co171 1.941 . S
O196 C203 1.266 . S
H197 C199 0.959 . S
H198 C199 0.961 . S
C199 C189 1.510 . S
C199 H197 0.959 . S
C199 H198 0.961 . S
C199 H200 0.960 . S
H200 C199 0.960 . S
H201 N181 0.862 . S
O202 Co170 1.920 . S
O202 C175 1.289 . S
C203 O195 1.258 . S
C203 O196 1.266 . S
Co204 O207 1.970 . S
Co204 N221 1.989 . S
Co204 O229 1.967 . S
Co204 O236 1.920 . S
Co205 O208 1.966 . S
Co205 N214 2.022 . S
Co205 N222 1.993 . S
Co205 O230 1.941 . S
C206 O207 1.258 . S
C206 O208 1.263 . S
O207 Co204 1.970 . S
O207 C206 1.258 . S
O208 Co205 1.966 . S
O208 C206 1.263 . S
C209 O210 1.235 . S
C209 O236 1.289 . S
O210 C209 1.235 . S
C211 C213 1.400 . S
C211 N214 1.351 . S
C211 C216 1.501 . S
C212 C213 1.387 . S
C212 N215 1.341 . S
C213 C211 1.400 . S
C213 C212 1.387 . S
N214 Co205 2.022 . S
N214 C211 1.351 . S
N214 N215 1.365 . S
N215 C212 1.341 . S
N215 N214 1.365 . S
N215 H235 0.862 . S
C216 C211 1.501 . S
C216 H217 0.961 . S
C216 H218 0.961 . S
C216 H219 0.960 . S
H217 C216 0.961 . S
H218 C216 0.961 . S
H219 C216 0.960 . S
C220 N221 1.342 . S
C220 C224 1.401 . S
C220 C225 1.499 . S
N221 Co204 1.989 . S
N221 C220 1.342 . S
N221 N222 1.388 . S
N222 Co205 1.993 . S
N222 N221 1.388 . S
N222 C223 1.346 . S
C223 N222 1.346 . S
C223 C224 1.396 . S
C223 C233 1.510 . S
C224 C220 1.401 . S
C224 C223 1.396 . S
C225 C220 1.499 . S
C225 H226 0.959 . S
C225 H227 0.960 . S
C225 H228 0.961 . S
H226 C225 0.959 . S
H227 C225 0.960 . S
H228 C225 0.961 . S
O229 Co204 1.967 . S
O229 C237 1.258 . S
O230 Co205 1.941 . S
O230 C237 1.266 . S
H231 C233 0.959 . S
H232 C233 0.961 . S
C233 C223 1.510 . S
C233 H231 0.959 . S
C233 H232 0.961 . S
C233 H234 0.960 . S
H234 C233 0.960 . S
H235 N215 0.862 . S
O236 Co204 1.920 . S
O236 C209 1.289 . S
C237 O229 1.258 . S
C237 O230 1.266 . S
Co238 O241 1.970 . S
Co238 N255 1.989 . S
Co238 O263 1.967 . S
Co238 O270 1.920 . S
Co239 O242 1.966 . S
Co239 N248 2.022 . S
Co239 N256 1.993 . S
Co239 O264 1.941 . S
C240 O241 1.258 . S
C240 O242 1.263 . S
O241 Co238 1.970 . S
O241 C240 1.258 . S
O242 Co239 1.966 . S
O242 C240 1.263 . S
C243 O244 1.235 . S
C243 O270 1.289 . S
O244 C243 1.235 . S
C245 C247 1.400 . S
C245 N248 1.351 . S
C245 C250 1.501 . S
C246 C247 1.387 . S
C246 N249 1.341 . S
C247 C245 1.400 . S
C247 C246 1.387 . S
N248 Co239 2.022 . S
N248 C245 1.351 . S
N248 N249 1.365 . S
N249 C246 1.341 . S
N249 N248 1.365 . S
N249 H269 0.862 . S
C250 C245 1.501 . S
C250 H251 0.961 . S
C250 H252 0.961 . S
C250 H253 0.960 . S
H251 C250 0.961 . S
H252 C250 0.961 . S
H253 C250 0.960 . S
C254 N255 1.342 . S
C254 C258 1.401 . S
C254 C259 1.499 . S
N255 Co238 1.989 . S
N255 C254 1.342 . S
N255 N256 1.388 . S
N256 Co239 1.993 . S
N256 N255 1.388 . S
N256 C257 1.346 . S
C257 N256 1.346 . S
C257 C258 1.396 . S
C257 C267 1.510 . S
C258 C254 1.401 . S
C258 C257 1.396 . S
C259 C254 1.499 . S
C259 H260 0.959 . S
C259 H261 0.960 . S
C259 H262 0.961 . S
H260 C259 0.959 . S
H261 C259 0.960 . S
H262 C259 0.961 . S
O263 Co238 1.967 . S
O263 C271 1.258 . S
O264 Co239 1.941 . S
O264 C271 1.266 . S
H265 C267 0.959 . S
H266 C267 0.961 . S
C267 C257 1.510 . S
C267 H265 0.959 . S
C267 H266 0.961 . S
C267 H268 0.960 . S
H268 C267 0.960 . S
H269 N249 0.862 . S
O270 Co238 1.920 . S
O270 C243 1.289 . S
C271 O263 1.258 . S
C271 O264 1.266 . S
Co272 O275 1.970 . S
Co272 N289 1.989 . S
Co272 O297 1.967 . S
Co272 O304 1.920 . S
Co273 O276 1.966 . S
Co273 N282 2.022 . S
Co273 N290 1.993 . S
Co273 O298 1.941 . S
C274 O275 1.258 . S
C274 O276 1.263 . S
O275 Co272 1.970 . S
O275 C274 1.258 . S
O276 Co273 1.966 . S
O276 C274 1.263 . S
C277 O278 1.235 . S
C277 O304 1.289 . S
O278 C277 1.235 . S
C279 C281 1.400 . S
C279 N282 1.351 . S
C279 C284 1.501 . S
C280 C281 1.387 . S
C280 N283 1.341 . S
C281 C279 1.400 . S
C281 C280 1.387 . S
N282 Co273 2.022 . S
N282 C279 1.351 . S
N282 N283 1.365 . S
N283 C280 1.341 . S
N283 N282 1.365 . S
N283 H303 0.862 . S
C284 C279 1.501 . S
C284 H285 0.961 . S
C284 H286 0.961 . S
C284 H287 0.960 . S
H285 C284 0.961 . S
H286 C284 0.961 . S
H287 C284 0.960 . S
C288 N289 1.342 . S
C288 C292 1.401 . S
C288 C293 1.499 . S
N289 Co272 1.989 . S
N289 C288 1.342 . S
N289 N290 1.388 . S
N290 Co273 1.993 . S
N290 N289 1.388 . S
N290 C291 1.346 . S
C291 N290 1.346 . S
C291 C292 1.396 . S
C291 C301 1.510 . S
C292 C288 1.401 . S
C292 C291 1.396 . S
C293 C288 1.499 . S
C293 H294 0.959 . S
C293 H295 0.960 . S
C293 H296 0.961 . S
H294 C293 0.959 . S
H295 C293 0.960 . S
H296 C293 0.961 . S
O297 Co272 1.967 . S
O297 C305 1.258 . S
O298 Co273 1.941 . S
O298 C305 1.266 . S
H299 C301 0.959 . S
H300 C301 0.961 . S
C301 C291 1.510 . S
C301 H299 0.959 . S
C301 H300 0.961 . S
C301 H302 0.960 . S
H302 C301 0.960 . S
H303 N283 0.862 . S
O304 Co272 1.920 . S
O304 C277 1.289 . S
C305 O297 1.258 . S
C305 O298 1.266 . S
Co306 O309 1.970 . S
Co306 N323 1.989 . S
Co306 O331 1.967 . S
Co306 O338 1.920 . S
Co307 O310 1.966 . S
Co307 N316 2.022 . S
Co307 N324 1.993 . S
Co307 O332 1.941 . S
C308 O309 1.258 . S
C308 O310 1.263 . S
O309 Co306 1.970 . S
O309 C308 1.258 . S
O310 Co307 1.966 . S
O310 C308 1.263 . S
C311 O312 1.235 . S
C311 O338 1.289 . S
O312 C311 1.235 . S
C313 C315 1.400 . S
C313 N316 1.351 . S
C313 C318 1.501 . S
C314 C315 1.387 . S
C314 N317 1.341 . S
C315 C313 1.400 . S
C315 C314 1.387 . S
N316 Co307 2.022 . S
N316 C313 1.351 . S
N316 N317 1.365 . S
N317 C314 1.341 . S
N317 N316 1.365 . S
N317 H337 0.862 . S
C318 C313 1.501 . S
C318 H319 0.961 . S
C318 H320 0.961 . S
C318 H321 0.960 . S
H319 C318 0.961 . S
H320 C318 0.961 . S
H321 C318 0.960 . S
C322 N323 1.342 . S
C322 C326 1.401 . S
C322 C327 1.499 . S
N323 Co306 1.989 . S
N323 C322 1.342 . S
N323 N324 1.388 . S
N324 Co307 1.993 . S
N324 N323 1.388 . S
N324 C325 1.346 . S
C325 N324 1.346 . S
C325 C326 1.396 . S
C325 C335 1.510 . S
C326 C322 1.401 . S
C326 C325 1.396 . S
C327 C322 1.499 . S
C327 H328 0.959 . S
C327 H329 0.960 . S
C327 H330 0.961 . S
H328 C327 0.959 . S
H329 C327 0.960 . S
H330 C327 0.961 . S
O331 Co306 1.967 . S
O331 C339 1.258 . S
O332 Co307 1.941 . S
O332 C339 1.266 . S
H333 C335 0.959 . S
H334 C335 0.961 . S
C335 C325 1.510 . S
C335 H333 0.959 . S
C335 H334 0.961 . S
C335 H336 0.960 . S
H336 C335 0.960 . S
H337 N317 0.862 . S
O338 Co306 1.920 . S
O338 C311 1.289 . S
C339 O331 1.258 . S
C339 O332 1.266 . S
Co340 O343 1.970 . S
Co340 N357 1.989 . S
Co340 O365 1.967 . S
Co340 O372 1.920 . S
Co341 O344 1.966 . S
Co341 N350 2.022 . S
Co341 N358 1.993 . S
Co341 O366 1.941 . S
C342 O343 1.258 . S
C342 O344 1.263 . S
O343 Co340 1.970 . S
O343 C342 1.258 . S
O344 Co341 1.966 . S
O344 C342 1.263 . S
C345 O346 1.235 . S
C345 O372 1.289 . S
O346 C345 1.235 . S
C347 C349 1.400 . S
C347 N350 1.351 . S
C347 C352 1.501 . S
C348 C349 1.387 . S
C348 N351 1.341 . S
C349 C347 1.400 . S
C349 C348 1.387 . S
N350 Co341 2.022 . S
N350 C347 1.351 . S
N350 N351 1.365 . S
N351 C348 1.341 . S
N351 N350 1.365 . S
N351 H371 0.862 . S
C352 C347 1.501 . S
C352 H353 0.961 . S
C352 H354 0.961 . S
C352 H355 0.960 . S
H353 C352 0.961 . S
H354 C352 0.961 . S
H355 C352 0.960 . S
C356 N357 1.342 . S
C356 C360 1.401 . S
C356 C361 1.499 . S
N357 Co340 1.989 . S
N357 C356 1.342 . S
N357 N358 1.388 . S
N358 Co341 1.993 . S
N358 N357 1.388 . S
N358 C359 1.346 . S
C359 N358 1.346 . S
C359 C360 1.396 . S
C359 C369 1.510 . S
C360 C356 1.401 . S
C360 C359 1.396 . S
C361 C356 1.499 . S
C361 H362 0.959 . S
C361 H363 0.960 . S
C361 H364 0.961 . S
H362 C361 0.959 . S
H363 C361 0.960 . S
H364 C361 0.961 . S
O365 Co340 1.967 . S
O365 C373 1.258 . S
O366 Co341 1.941 . S
O366 C373 1.266 . S
H367 C369 0.959 . S
H368 C369 0.961 . S
C369 C359 1.510 . S
C369 H367 0.959 . S
C369 H368 0.961 . S
C369 H370 0.960 . S
H370 C369 0.960 . S
H371 N351 0.862 . S
O372 Co340 1.920 . S
O372 C345 1.289 . S
C373 O365 1.258 . S
C373 O366 1.266 . S
Co374 O377 1.970 . S
Co374 N391 1.989 . S
Co374 O399 1.967 . S
Co374 O406 1.920 . S
Co375 O378 1.966 . S
Co375 N384 2.022 . S
Co375 N392 1.993 . S
Co375 O400 1.941 . S
C376 O377 1.258 . S
C376 O378 1.263 . S
O377 Co374 1.970 . S
O377 C376 1.258 . S
O378 Co375 1.966 . S
O378 C376 1.263 . S
C379 O380 1.235 . S
C379 O406 1.289 . S
O380 C379 1.235 . S
C381 C383 1.400 . S
C381 N384 1.351 . S
C381 C386 1.501 . S
C382 C383 1.387 . S
C382 N385 1.341 . S
C383 C381 1.400 . S
C383 C382 1.387 . S
N384 Co375 2.022 . S
N384 C381 1.351 . S
N384 N385 1.365 . S
N385 C382 1.341 . S
N385 N384 1.365 . S
N385 H405 0.862 . S
C386 C381 1.501 . S
C386 H387 0.961 . S
C386 H388 0.961 . S
C386 H389 0.960 . S
H387 C386 0.961 . S
H388 C386 0.961 . S
H389 C386 0.960 . S
C390 N391 1.342 . S
C390 C394 1.401 . S
C390 C395 1.499 . S
N391 Co374 1.989 . S
N391 C390 1.342 . S
N391 N392 1.388 . S
N392 Co375 1.993 . S
N392 N391 1.388 . S
N392 C393 1.346 . S
C393 N392 1.346 . S
C393 C394 1.396 . S
C393 C403 1.510 . S
C394 C390 1.401 . S
C394 C393 1.396 . S
C395 C390 1.499 . S
C395 H396 0.959 . S
C395 H397 0.960 . S
C395 H398 0.961 . S
H396 C395 0.959 . S
H397 C395 0.960 . S
H398 C395 0.961 . S
O399 Co374 1.967 . S
O399 C407 1.258 . S
O400 Co375 1.941 . S
O400 C407 1.266 . S
H401 C403 0.959 . S
H402 C403 0.961 . S
C403 C393 1.510 . S
C403 H401 0.959 . S
C403 H402 0.961 . S
C403 H404 0.960 . S
H404 C403 0.960 . S
H405 N385 0.862 . S
O406 Co374 1.920 . S
O406 C379 1.289 . S
C407 O399 1.258 . S
C407 O400 1.266 . S
Co408 O411 1.970 . S
Co408 N425 1.989 . S
Co408 O433 1.967 . S
Co408 O440 1.920 . S
Co409 O412 1.966 . S
Co409 N418 2.022 . S
Co409 N426 1.993 . S
Co409 O434 1.941 . S
C410 O411 1.258 . S
C410 O412 1.263 . S
O411 Co408 1.970 . S
O411 C410 1.258 . S
O412 Co409 1.966 . S
O412 C410 1.263 . S
C413 O414 1.235 . S
C413 O440 1.289 . S
O414 C413 1.235 . S
C415 C417 1.400 . S
C415 N418 1.351 . S
C415 C420 1.501 . S
C416 C417 1.387 . S
C416 N419 1.341 . S
C417 C415 1.400 . S
C417 C416 1.387 . S
N418 Co409 2.022 . S
N418 C415 1.351 . S
N418 N419 1.365 . S
N419 C416 1.341 . S
N419 N418 1.365 . S
N419 H439 0.862 . S
C420 C415 1.501 . S
C420 H421 0.961 . S
C420 H422 0.961 . S
C420 H423 0.960 . S
H421 C420 0.961 . S
H422 C420 0.961 . S
H423 C420 0.960 . S
C424 N425 1.342 . S
C424 C428 1.401 . S
C424 C429 1.499 . S
N425 Co408 1.989 . S
N425 C424 1.342 . S
N425 N426 1.388 . S
N426 Co409 1.993 . S
N426 N425 1.388 . S
N426 C427 1.346 . S
C427 N426 1.346 . S
C427 C428 1.396 . S
C427 C437 1.510 . S
C428 C424 1.401 . S
C428 C427 1.396 . S
C429 C424 1.499 . S
C429 H430 0.959 . S
C429 H431 0.960 . S
C429 H432 0.961 . S
H430 C429 0.959 . S
H431 C429 0.960 . S
H432 C429 0.961 . S
O433 Co408 1.967 . S
O433 C441 1.258 . S
O434 Co409 1.941 . S
O434 C441 1.266 . S
H435 C437 0.959 . S
H436 C437 0.961 . S
C437 C427 1.510 . S
C437 H435 0.959 . S
C437 H436 0.961 . S
C437 H438 0.960 . S
H438 C437 0.960 . S
H439 N419 0.862 . S
O440 Co408 1.920 . S
O440 C413 1.289 . S
C441 O433 1.258 . S
C441 O434 1.266 . S
Co442 O445 1.970 . S
Co442 N459 1.990 . S
Co442 O467 1.967 1_455 S
Co442 O474 1.920 1_455 S
Co443 O446 1.966 1_655 S
Co443 N452 2.022 . S
Co443 N460 1.993 1_655 S
Co443 O468 1.941 . S
C444 O445 1.258 . S
C444 O446 1.263 . S
O445 Co442 1.970 . S
O445 C444 1.258 . S
O446 Co443 1.966 1_455 S
O446 C444 1.263 . S
C447 O448 1.235 . S
C447 O474 1.288 1_455 S
O448 C447 1.235 . S
C449 C451 1.400 . S
C449 N452 1.351 1_455 S
C449 C454 1.501 . S
C450 C451 1.387 1_655 S
C450 N453 1.341 . S
C451 C449 1.400 . S
C451 C450 1.387 1_455 S
N452 Co443 2.022 . S
N452 C449 1.351 1_655 S
N452 N453 1.365 . S
N453 C450 1.341 . S
N453 N452 1.365 . S
N453 H473 0.862 . S
C454 C449 1.501 . S
C454 H455 0.961 . S
C454 H456 0.961 . S
C454 H457 0.960 . S
H455 C454 0.961 . S
H456 C454 0.961 . S
H457 C454 0.960 . S
C458 N459 1.341 1_655 S
C458 C462 1.401 . S
C458 C463 1.499 . S
N459 Co442 1.990 . S
N459 C458 1.341 1_455 S
N459 N460 1.388 . S
N460 Co443 1.993 1_455 S
N460 N459 1.388 . S
N460 C461 1.346 1_455 S
C461 N460 1.346 1_655 S
C461 C462 1.396 . S
C461 C471 1.510 . S
C462 C458 1.401 . S
C462 C461 1.396 . S
C463 C458 1.499 . S
C463 H464 0.959 . S
C463 H465 0.960 1_655 S
C463 H466 0.961 . S
H464 C463 0.959 . S
H465 C463 0.960 1_455 S
H466 C463 0.961 . S
O467 Co442 1.967 1_655 S
O467 C475 1.258 . S
O468 Co443 1.941 . S
O468 C475 1.266 . S
H469 C471 0.959 . S
H470 C471 0.961 1_455 S
C471 C461 1.510 . S
C471 H469 0.959 . S
C471 H470 0.961 1_655 S
C471 H472 0.960 1_655 S
H472 C471 0.960 1_455 S
H473 N453 0.862 . S
O474 Co442 1.920 1_655 S
O474 C447 1.288 1_655 S
C475 O467 1.258 . S
C475 O468 1.266 . S
Co476 O479 1.970 . S
Co476 N493 1.989 . S
Co476 O501 1.967 . S
Co476 O508 1.920 . S
Co477 O480 1.966 . S
Co477 N486 2.022 . S
Co477 N494 1.993 . S
Co477 O502 1.941 . S
C478 O479 1.258 . S
C478 O480 1.263 . S
O479 Co476 1.970 . S
O479 C478 1.258 . S
O480 Co477 1.966 . S
O480 C478 1.263 . S
C481 O482 1.235 . S
C481 O508 1.289 . S
O482 C481 1.235 . S
C483 C485 1.400 . S
C483 N486 1.351 . S
C483 C488 1.501 . S
C484 C485 1.387 . S
C484 N487 1.341 . S
C485 C483 1.400 . S
C485 C484 1.387 . S
N486 Co477 2.022 . S
N486 C483 1.351 . S
N486 N487 1.365 . S
N487 C484 1.341 . S
N487 N486 1.365 . S
N487 H507 0.862 . S
C488 C483 1.501 . S
C488 H489 0.961 . S
C488 H490 0.961 . S
C488 H491 0.960 . S
H489 C488 0.961 . S
H490 C488 0.961 . S
H491 C488 0.960 . S
C492 N493 1.342 . S
C492 C496 1.401 . S
C492 C497 1.499 . S
N493 Co476 1.989 . S
N493 C492 1.342 . S
N493 N494 1.388 . S
N494 Co477 1.993 . S
N494 N493 1.388 . S
N494 C495 1.346 . S
C495 N494 1.346 . S
C495 C496 1.396 . S
C495 C505 1.510 . S
C496 C492 1.401 . S
C496 C495 1.396 . S
C497 C492 1.499 . S
C497 H498 0.959 . S
C497 H499 0.960 . S
C497 H500 0.961 . S
H498 C497 0.959 . S
H499 C497 0.960 . S
H500 C497 0.961 . S
O501 Co476 1.967 . S
O501 C509 1.258 . S
O502 Co477 1.941 . S
O502 C509 1.266 . S
H503 C505 0.959 . S
H504 C505 0.961 . S
C505 C495 1.510 . S
C505 H503 0.959 . S
C505 H504 0.961 . S
C505 H506 0.960 . S
H506 C505 0.960 . S
H507 N487 0.862 . S
O508 Co476 1.920 . S
O508 C481 1.289 . S
C509 O501 1.258 . S
C509 O502 1.266 . S
Co510 O513 1.970 . S
Co510 N527 1.990 . S
Co510 O535 1.967 1_455 S
Co510 O542 1.920 1_455 S
Co511 O514 1.966 1_655 S
Co511 N520 2.022 . S
Co511 N528 1.993 1_655 S
Co511 O536 1.941 . S
C512 O513 1.258 . S
C512 O514 1.263 . S
O513 Co510 1.970 . S
O513 C512 1.258 . S
O514 Co511 1.966 1_455 S
O514 C512 1.263 . S
C515 O516 1.235 . S
C515 O542 1.289 1_455 S
O516 C515 1.235 . S
C517 C519 1.400 . S
C517 N520 1.351 1_455 S
C517 C522 1.501 . S
C518 C519 1.387 1_655 S
C518 N521 1.341 . S
C519 C517 1.400 . S
C519 C518 1.387 1_455 S
N520 Co511 2.022 . S
N520 C517 1.351 1_655 S
N520 N521 1.365 . S
N521 C518 1.341 . S
N521 N520 1.365 . S
N521 H541 0.862 . S
C522 C517 1.501 . S
C522 H523 0.961 . S
C522 H524 0.961 . S
C522 H525 0.960 . S
H523 C522 0.961 . S
H524 C522 0.961 . S
H525 C522 0.960 . S
C526 N527 1.340 1_655 S
C526 C530 1.401 . S
C526 C531 1.499 . S
N527 Co510 1.990 . S
N527 C526 1.340 1_455 S
N527 N528 1.388 . S
N528 Co511 1.993 1_455 S
N528 N527 1.388 . S
N528 C529 1.346 1_455 S
C529 N528 1.346 1_655 S
C529 C530 1.396 . S
C529 C539 1.512 . S
C530 C526 1.401 . S
C530 C529 1.396 . S
C531 C526 1.499 . S
C531 H532 0.959 . S
C531 H533 0.960 1_655 S
C531 H534 0.961 . S
H532 C531 0.959 . S
H533 C531 0.960 1_455 S
H534 C531 0.961 . S
O535 Co510 1.967 1_655 S
O535 C543 1.258 . S
O536 Co511 1.941 . S
O536 C543 1.266 . S
H537 C539 0.993 . S
H538 C539 0.931 1_455 S
C539 C529 1.512 . S
C539 H537 0.993 . S
C539 H538 0.931 1_655 S
C539 H540 0.956 1_655 S
H540 C539 0.956 1_455 S
H541 N521 0.862 . S
O542 Co510 1.920 1_655 S
O542 C515 1.289 1_655 S
C543 O535 1.258 . S
C543 O536 1.266 . S
H544 C562 0.951 . S
H545 C564 0.951 . S
H546 C566 0.950 . S
H547 C567 0.950 . S
H548 C569 0.950 . S
H549 C572 0.950 . S
H550 C573 0.950 . S
H551 C575 0.950 . S
H552 C576 0.950 . S
H553 C577 0.951 . S
H554 C579 0.951 . S
H555 C581 0.950 . S
H556 C582 0.950 . S
H557 C584 0.950 . S
H558 C587 0.950 . S
H559 C588 0.950 . S
H560 C590 0.950 . S
H561 C591 0.950 . S
C562 H544 0.951 . S
C562 C563 1.366 . S
C562 C564 1.388 . S
C563 C562 1.366 . S
C563 C567 1.385 1_455 S
C564 H545 0.951 . S
C564 C562 1.388 . S
C564 C565 1.366 . S
C565 C564 1.366 . S
C565 C566 1.414 1_455 S
C565 C568 1.499 . S
C566 H546 0.950 . S
C566 C565 1.414 1_655 S
C566 C567 1.374 . S
C567 H547 0.950 . S
C567 C563 1.385 1_655 S
C567 C566 1.374 . S
C568 C565 1.499 . S
C568 C569 1.373 1_455 S
C568 C570 1.389 . S
C569 H548 0.950 . S
C569 C568 1.373 1_655 S
C569 C585 1.377 . S
C570 C568 1.389 . S
C570 C571 1.524 . S
C570 C584 1.377 . S
C571 C570 1.524 . S
C571 C572 1.397 . S
C571 C576 1.363 . S
C572 H549 0.950 . S
C572 C571 1.397 . S
C572 C573 1.334 . S
C573 H550 0.950 . S
C573 C572 1.334 . S
C573 C574 1.287 . S
C574 C573 1.287 . S
C574 C575 1.524 . S
C574 H593 0.913 . S
C575 H551 0.950 . S
C575 C574 1.524 . S
C575 C576 1.415 . S
C576 H552 0.950 . S
C576 C571 1.363 . S
C576 C575 1.415 . S
C577 H553 0.951 . S
C577 C578 1.366 . S
C577 C579 1.388 . S
C578 C577 1.366 . S
C578 C582 1.385 1_655 S
C579 H554 0.951 . S
C579 C577 1.388 . S
C579 C580 1.366 . S
C580 C579 1.366 . S
C580 C581 1.414 1_655 S
C580 C583 1.499 1_655 S
C581 H555 0.950 . S
C581 C580 1.414 1_455 S
C581 C582 1.374 . S
C582 H556 0.950 . S
C582 C578 1.385 1_455 S
C582 C581 1.374 . S
C583 C580 1.499 1_455 S
C583 C584 1.373 . S
C583 C585 1.389 1_455 S
C584 H557 0.950 . S
C584 C570 1.377 . S
C584 C583 1.373 . S
C585 C569 1.377 . S
C585 C583 1.389 1_655 S
C585 C586 1.524 . S
C586 C585 1.524 . S
C586 C587 1.397 . S
C586 C591 1.363 . S
C587 H558 0.950 . S
C587 C586 1.397 . S
C587 C588 1.334 . S
C588 H559 0.950 . S
C588 C587 1.334 . S
C588 C589 1.287 . S
C589 C588 1.287 . S
C589 C590 1.524 . S
C589 H592 0.999 . S
C590 H560 0.950 . S
C590 C589 1.524 . S
C590 C591 1.415 . S
C591 H561 0.950 . S
C591 C586 1.363 . S
C591 C590 1.415 . S
H592 C589 0.999 . S
H593 C574 0.913 . S
H594 C612 0.951 . S
H595 C614 0.951 . S
H596 C616 0.950 . S
H597 C617 0.950 . S
H598 C619 0.950 . S
H599 C622 0.950 . S
H600 C623 0.950 . S
H601 C625 0.950 . S
H602 C626 0.950 . S
H603 C627 0.951 . S
H604 C629 0.951 . S
H605 C631 0.950 . S
H606 C632 0.950 . S
H607 C634 0.950 . S
H608 C637 0.950 . S
H609 C638 0.950 . S
H610 C640 0.950 . S
H611 C641 0.950 . S
C612 H594 0.951 . S
C612 C613 1.366 . S
C612 C614 1.388 . S
C613 C612 1.366 . S
C613 C617 1.385 . S
C614 H595 0.951 . S
C614 C612 1.388 . S
C614 C615 1.366 . S
C615 C614 1.366 . S
C615 C616 1.414 . S
C615 C618 1.499 . S
C616 H596 0.950 . S
C616 C615 1.414 . S
C616 C617 1.374 . S
C617 H597 0.950 . S
C617 C613 1.385 . S
C617 C616 1.374 . S
C618 C615 1.499 . S
C618 C619 1.373 . S
C618 C620 1.389 . S
C619 H598 0.950 . S
C619 C618 1.373 . S
C619 C635 1.377 1_455 S
C620 C618 1.389 . S
C620 C621 1.524 . S
C620 C634 1.377 1_455 S
C621 C620 1.524 . S
C621 C622 1.397 . S
C621 C626 1.363 . S
C622 H599 0.950 . S
C622 C621 1.397 . S
C622 C623 1.334 . S
C623 H600 0.950 . S
C623 C622 1.334 . S
C623 C624 1.287 . S
C624 C623 1.287 . S
C624 C625 1.524 1_565 S
C624 H643 0.909 1_565 S
C625 H601 0.950 . S
C625 C624 1.524 1_545 S
C625 C626 1.415 1_545 S
C626 H602 0.950 . S
C626 C621 1.363 . S
C626 C625 1.415 1_565 S
C627 H603 0.951 . S
C627 C628 1.366 . S
C627 C629 1.388 . S
C628 C627 1.366 . S
C628 C632 1.385 . S
C629 H604 0.951 . S
C629 C627 1.388 . S
C629 C630 1.366 . S
C630 C629 1.366 . S
C630 C631 1.414 . S
C630 C633 1.499 . S
C631 H605 0.950 . S
C631 C630 1.414 . S
C631 C632 1.374 . S
C632 H606 0.950 . S
C632 C628 1.385 . S
C632 C631 1.374 . S
C633 C630 1.499 . S
C633 C634 1.373 . S
C633 C635 1.389 . S
C634 H607 0.950 . S
C634 C620 1.377 1_655 S
C634 C633 1.373 . S
C635 C619 1.377 1_655 S
C635 C633 1.389 . S
C635 C636 1.524 . S
C636 C635 1.524 . S
C636 C637 1.397 . S
C636 C641 1.363 . S
C637 H608 0.950 . S
C637 C636 1.397 . S
C637 C638 1.334 . S
C638 H609 0.950 . S
C638 C637 1.334 . S
C638 C639 1.287 . S
C639 C638 1.287 . S
C639 C640 1.524 . S
C639 H642 0.999 . S
C640 H610 0.950 . S
C640 C639 1.524 . S
C640 C641 1.415 . S
C641 H611 0.950 . S
C641 C636 1.363 . S
C641 C640 1.415 . S
H642 C639 0.999 . S
H643 C624 0.909 1_545 S
H644 C662 0.951 . S
H645 C664 0.951 . S
H646 C666 0.950 . S
H647 C667 0.950 . S
H648 C669 0.950 . S
H649 C672 0.950 . S
H650 C673 0.950 . S
H651 C675 0.950 . S
H652 C676 0.950 . S
H653 C677 0.951 . S
H654 C679 0.951 . S
H655 C681 0.950 . S
H656 C682 0.950 . S
H657 C684 0.950 . S
H658 C687 0.950 . S
H659 C688 0.950 . S
H660 C690 0.950 . S
H661 C691 0.950 . S
C662 H644 0.951 . S
C662 C663 1.366 . S
C662 C664 1.388 1_545 S
C663 C662 1.366 . S
C663 C667 1.385 . S
C664 H645 0.951 . S
C664 C662 1.388 1_565 S
C664 C665 1.366 . S
C665 C664 1.366 . S
C665 C666 1.414 . S
C665 C668 1.499 . S
C666 H646 0.950 . S
C666 C665 1.414 . S
C666 C667 1.374 1_565 S
C667 H647 0.950 . S
C667 C663 1.385 . S
C667 C666 1.374 1_545 S
C668 C665 1.499 . S
C668 C669 1.373 . S
C668 C670 1.389 . S
C669 H648 0.950 . S
C669 C668 1.373 . S
C669 C685 1.377 . S
C670 C668 1.389 . S
C670 C671 1.524 . S
C670 C684 1.377 . S
C671 C670 1.524 . S
C671 C672 1.397 . S
C671 C676 1.363 . S
C672 H649 0.950 . S
C672 C671 1.397 . S
C672 C673 1.334 . S
C673 H650 0.950 . S
C673 C672 1.334 . S
C673 C674 1.287 . S
C674 C673 1.287 . S
C674 C675 1.524 . S
C674 H693 0.913 . S
C675 H651 0.950 . S
C675 C674 1.524 . S
C675 C676 1.415 . S
C676 H652 0.950 . S
C676 C671 1.363 . S
C676 C675 1.415 . S
C677 H653 0.951 . S
C677 C678 1.366 . S
C677 C679 1.388 . S
C678 C677 1.366 . S
C678 C682 1.385 . S
C679 H654 0.951 . S
C679 C677 1.388 . S
C679 C680 1.366 . S
C680 C679 1.366 . S
C680 C681 1.414 . S
C680 C683 1.499 . S
C681 H655 0.950 . S
C681 C680 1.414 . S
C681 C682 1.374 . S
C682 H656 0.950 . S
C682 C678 1.385 . S
C682 C681 1.374 . S
C683 C680 1.499 . S
C683 C684 1.373 . S
C683 C685 1.389 . S
C684 H657 0.950 . S
C684 C670 1.377 . S
C684 C683 1.373 . S
C685 C669 1.377 . S
C685 C683 1.389 . S
C685 C686 1.524 . S
C686 C685 1.524 . S
C686 C687 1.397 . S
C686 C691 1.363 . S
C687 H658 0.950 . S
C687 C686 1.397 . S
C687 C688 1.334 . S
C688 H659 0.950 . S
C688 C687 1.334 . S
C688 C689 1.287 . S
C689 C688 1.287 . S
C689 C690 1.524 . S
C689 H692 0.999 . S
C690 H660 0.950 . S
C690 C689 1.524 . S
C690 C691 1.415 . S
C691 H661 0.950 . S
C691 C686 1.363 . S
C691 C690 1.415 . S
H692 C689 0.999 . S
H693 C674 0.913 . S
H694 C712 0.951 . S
H695 C714 0.951 . S
H696 C716 0.950 . S
H697 C717 0.950 . S
H698 C719 0.950 . S
H699 C722 0.950 . S
H700 C723 0.950 . S
H701 C725 0.950 . S
H702 C726 0.950 . S
H703 C727 0.951 . S
H704 C729 0.951 . S
H705 C731 0.950 . S
H706 C732 0.950 . S
H707 C734 0.950 . S
H708 C737 0.950 . S
H709 C738 0.950 . S
H710 C740 0.950 . S
H711 C741 0.950 . S
C712 H694 0.951 . S
C712 C713 1.366 . S
C712 C714 1.388 . S
C713 C712 1.366 . S
C713 C717 1.385 . S
C714 H695 0.951 . S
C714 C712 1.388 . S
C714 C715 1.366 . S
C715 C714 1.366 . S
C715 C716 1.414 . S
C715 C718 1.499 . S
C716 H696 0.950 . S
C716 C715 1.414 . S
C716 C717 1.374 . S
C717 H697 0.950 . S
C717 C713 1.385 . S
C717 C716 1.374 . S
C718 C715 1.499 . S
C718 C719 1.373 . S
C718 C720 1.389 . S
C719 H698 0.950 . S
C719 C718 1.373 . S
C719 C735 1.377 . S
C720 C718 1.389 . S
C720 C721 1.524 . S
C720 C734 1.377 . S
C721 C720 1.524 . S
C721 C722 1.397 . S
C721 C726 1.363 . S
C722 H699 0.950 . S
C722 C721 1.397 . S
C722 C723 1.334 . S
C723 H700 0.950 . S
C723 C722 1.334 . S
C723 C724 1.287 . S
C724 C723 1.287 . S
C724 C725 1.524 . S
C724 H743 0.913 . S
C725 H701 0.950 . S
C725 C724 1.524 . S
C725 C726 1.415 . S
C726 H702 0.950 . S
C726 C721 1.363 . S
C726 C725 1.415 . S
C727 H703 0.951 . S
C727 C728 1.366 . S
C727 C729 1.388 . S
C728 C727 1.366 . S
C728 C732 1.385 . S
C729 H704 0.951 . S
C729 C727 1.388 . S
C729 C730 1.366 . S
C730 C729 1.366 . S
C730 C731 1.414 . S
C730 C733 1.499 . S
C731 H705 0.950 . S
C731 C730 1.414 . S
C731 C732 1.374 . S
C732 H706 0.950 . S
C732 C728 1.385 . S
C732 C731 1.374 . S
C733 C730 1.499 . S
C733 C734 1.373 . S
C733 C735 1.389 . S
C734 H707 0.950 . S
C734 C720 1.377 . S
C734 C733 1.373 . S
C735 C719 1.377 . S
C735 C733 1.389 . S
C735 C736 1.524 . S
C736 C735 1.524 . S
C736 C737 1.397 . S
C736 C741 1.363 . S
C737 H708 0.950 . S
C737 C736 1.397 . S
C737 C738 1.334 . S
C738 H709 0.950 . S
C738 C737 1.334 . S
C738 C739 1.287 . S
C739 C738 1.287 . S
C739 C740 1.524 . S
C739 H742 0.999 . S
C740 H710 0.950 . S
C740 C739 1.524 . S
C740 C741 1.415 . S
C741 H711 0.950 . S
C741 C736 1.363 . S
C741 C740 1.415 . S
H742 C739 0.999 . S
H743 C724 0.913 . S
H744 C762 0.951 1_655 S
H745 C764 0.951 . S
H746 C766 0.950 . S
H747 C767 0.950 . S
H748 C769 0.950 . S
H749 C772 0.950 . S
H750 C773 0.950 . S
H751 C775 0.935 1_655 S
H752 C776 0.950 . S
H753 C777 0.951 . S
H754 C779 0.951 . S
H755 C781 0.950 . S
H756 C782 0.950 . S
H757 C784 0.950 . S
H758 C787 0.950 . S
H759 C788 0.950 . S
H760 C790 0.950 . S
H761 C791 0.950 . S
C762 H744 0.951 1_455 S
C762 C763 1.366 . S
C762 C764 1.388 1_455 S
C763 C762 1.366 . S
C763 C767 1.385 . S
C764 H745 0.951 . S
C764 C762 1.388 1_655 S
C764 C765 1.366 1_655 S
C765 C764 1.366 1_455 S
C765 C766 1.414 . S
C765 C768 1.499 . S
C766 H746 0.950 . S
C766 C765 1.414 . S
C766 C767 1.374 . S
C767 H747 0.950 . S
C767 C763 1.385 . S
C767 C766 1.374 . S
C768 C765 1.499 . S
C768 C769 1.373 . S
C768 C770 1.389 . S
C769 H748 0.950 . S
C769 C768 1.373 . S
C769 C785 1.377 . S
C770 C768 1.389 . S
C770 C771 1.524 . S
C770 C784 1.377 . S
C771 C770 1.524 . S
C771 C772 1.397 . S
C771 C776 1.363 1_455 S
C772 H749 0.950 . S
C772 C771 1.397 . S
C772 C773 1.334 . S
C773 H750 0.950 . S
C773 C772 1.334 . S
C773 C774 1.287 . S
C774 C773 1.287 . S
C774 C775 1.545 . S
C774 H793 0.913 . S
C775 H751 0.935 1_455 S
C775 C774 1.545 . S
C775 C776 1.411 1_455 S
C776 H752 0.950 . S
C776 C771 1.363 1_655 S
C776 C775 1.411 1_655 S
C777 H753 0.951 . S
C777 C778 1.366 1_455 S
C777 C779 1.388 1_545 S
C778 C777 1.366 1_655 S
C778 C782 1.385 . S
C779 H754 0.951 . S
C779 C777 1.388 1_565 S
C779 C780 1.366 1_455 S
C780 C779 1.366 1_655 S
C780 C781 1.414 . S
C780 C783 1.499 1_655 S
C781 H755 0.950 . S
C781 C780 1.414 . S
C781 C782 1.374 1_565 S
C782 H756 0.950 . S
C782 C778 1.385 . S
C782 C781 1.374 1_545 S
C783 C780 1.499 1_455 S
C783 C784 1.373 . S
C783 C785 1.389 . S
C784 H757 0.950 . S
C784 C770 1.377 . S
C784 C783 1.373 . S
C785 C769 1.377 . S
C785 C783 1.389 . S
C785 C786 1.524 1_455 S
C786 C785 1.524 1_655 S
C786 C787 1.397 . S
C786 C791 1.363 1_655 S
C787 H758 0.950 . S
C787 C786 1.397 . S
C787 C788 1.334 . S
C788 H759 0.950 . S
C788 C787 1.334 . S
C788 C789 1.287 . S
C789 C788 1.287 . S
C789 C790 1.524 1_655 S
C789 H792 0.999 . S
C790 H760 0.950 . S
C790 C789 1.524 1_455 S
C790 C791 1.415 . S
C791 H761 0.950 . S
C791 C786 1.363 1_455 S
C791 C790 1.415 . S
H792 C789 0.999 . S
H793 C774 0.913 . S
H794 C812 0.951 . S
H795 C814 0.951 . S
H796 C816 0.950 . S
H797 C817 0.950 . S
H798 C819 0.950 . S
H799 C822 0.950 . S
H800 C823 0.950 . S
H801 C825 0.950 . S
H802 C826 0.950 . S
H803 C827 0.951 . S
H804 C829 0.951 . S
H805 C831 0.950 . S
H806 C832 0.950 . S
H807 C834 0.950 . S
H808 C837 0.950 . S
H809 C838 0.950 . S
H810 C840 0.950 . S
H811 C841 0.950 . S
C812 H794 0.951 . S
C812 C813 1.366 . S
C812 C814 1.388 . S
C813 C812 1.366 . S
C813 C817 1.385 . S
C814 H795 0.951 . S
C814 C812 1.388 . S
C814 C815 1.366 . S
C815 C814 1.366 . S
C815 C816 1.414 . S
C815 C818 1.499 . S
C816 H796 0.950 . S
C816 C815 1.414 . S
C816 C817 1.374 . S
C817 H797 0.950 . S
C817 C813 1.385 . S
C817 C816 1.374 . S
C818 C815 1.499 . S
C818 C819 1.373 . S
C818 C820 1.389 . S
C819 H798 0.950 . S
C819 C818 1.373 . S
C819 C835 1.377 . S
C820 C818 1.389 . S
C820 C821 1.524 . S
C820 C834 1.377 . S
C821 C820 1.524 . S
C821 C822 1.397 . S
C821 C826 1.363 . S
C822 H799 0.950 . S
C822 C821 1.397 . S
C822 C823 1.334 . S
C823 H800 0.950 . S
C823 C822 1.334 . S
C823 C824 1.287 . S
C824 C823 1.287 . S
C824 C825 1.524 . S
C824 H843 0.913 . S
C825 H801 0.950 . S
C825 C824 1.524 . S
C825 C826 1.415 . S
C826 H802 0.950 . S
C826 C821 1.363 . S
C826 C825 1.415 . S
C827 H803 0.951 . S
C827 C828 1.366 . S
C827 C829 1.388 . S
C828 C827 1.366 . S
C828 C832 1.385 . S
C829 H804 0.951 . S
C829 C827 1.388 . S
C829 C830 1.366 . S
C830 C829 1.366 . S
C830 C831 1.414 . S
C830 C833 1.499 . S
C831 H805 0.950 . S
C831 C830 1.414 . S
C831 C832 1.374 . S
C832 H806 0.950 . S
C832 C828 1.385 . S
C832 C831 1.374 . S
C833 C830 1.499 . S
C833 C834 1.373 . S
C833 C835 1.389 . S
C834 H807 0.950 . S
C834 C820 1.377 . S
C834 C833 1.373 . S
C835 C819 1.377 . S
C835 C833 1.389 . S
C835 C836 1.524 . S
C836 C835 1.524 . S
C836 C837 1.397 . S
C836 C841 1.363 . S
C837 H808 0.950 . S
C837 C836 1.397 . S
C837 C838 1.334 . S
C838 H809 0.950 . S
C838 C837 1.334 . S
C838 C839 1.287 1_565 S
C839 C838 1.287 1_545 S
C839 C840 1.524 . S
C839 H842 0.999 . S
C840 H810 0.950 . S
C840 C839 1.524 . S
C840 C841 1.415 1_545 S
C841 H811 0.950 . S
C841 C836 1.363 . S
C841 C840 1.415 1_565 S
H842 C839 0.999 . S
H843 C824 0.913 . S
H844 C862 0.951 . S
H845 C864 0.951 . S
H846 C866 0.950 . S
H847 C867 0.950 . S
H848 C869 0.950 . S
H849 C872 0.950 . S
H850 C873 0.950 . S
H851 C875 0.950 . S
H852 C876 0.950 . S
H853 C877 0.951 . S
H854 C879 0.951 . S
H855 C881 0.950 . S
H856 C882 0.950 . S
H857 C884 0.950 . S
H858 C887 0.950 . S
H859 C888 0.950 . S
H860 C890 0.950 . S
H861 C891 0.950 . S
C862 H844 0.951 . S
C862 C863 1.366 . S
C862 C864 1.388 . S
C863 C862 1.366 . S
C863 C867 1.385 . S
C864 H845 0.951 . S
C864 C862 1.388 . S
C864 C865 1.366 . S
C865 C864 1.366 . S
C865 C866 1.414 . S
C865 C868 1.499 . S
C866 H846 0.950 . S
C866 C865 1.414 . S
C866 C867 1.374 . S
C867 H847 0.950 . S
C867 C863 1.385 . S
C867 C866 1.374 . S
C868 C865 1.499 . S
C868 C869 1.373 . S
C868 C870 1.389 . S
C869 H848 0.950 . S
C869 C868 1.373 . S
C869 C885 1.377 . S
C870 C868 1.389 . S
C870 C871 1.524 . S
C870 C884 1.377 . S
C871 C870 1.524 . S
C871 C872 1.397 . S
C871 C876 1.363 . S
C872 H849 0.950 . S
C872 C871 1.397 . S
C872 C873 1.334 . S
C873 H850 0.950 . S
C873 C872 1.334 . S
C873 C874 1.287 . S
C874 C873 1.287 . S
C874 C875 1.524 . S
C874 H893 0.913 . S
C875 H851 0.950 . S
C875 C874 1.524 . S
C875 C876 1.415 . S
C876 H852 0.950 . S
C876 C871 1.363 . S
C876 C875 1.415 . S
C877 H853 0.951 . S
C877 C878 1.366 . S
C877 C879 1.388 . S
C878 C877 1.366 . S
C878 C882 1.385 . S
C879 H854 0.951 . S
C879 C877 1.388 . S
C879 C880 1.366 . S
C880 C879 1.366 . S
C880 C881 1.414 . S
C880 C883 1.499 . S
C881 H855 0.950 . S
C881 C880 1.414 . S
C881 C882 1.374 . S
C882 H856 0.950 . S
C882 C878 1.385 . S
C882 C881 1.374 . S
C883 C880 1.499 . S
C883 C884 1.373 . S
C883 C885 1.389 . S
C884 H857 0.950 . S
C884 C870 1.377 . S
C884 C883 1.373 . S
C885 C869 1.377 . S
C885 C883 1.389 . S
C885 C886 1.524 . S
C886 C885 1.524 . S
C886 C887 1.397 . S
C886 C891 1.363 . S
C887 H858 0.950 . S
C887 C886 1.397 . S
C887 C888 1.334 . S
C888 H859 0.950 . S
C888 C887 1.334 . S
C888 C889 1.287 . S
C889 C888 1.287 . S
C889 C890 1.524 . S
C889 H892 0.999 . S
C890 H860 0.950 . S
C890 C889 1.524 . S
C890 C891 1.415 . S
C891 H861 0.950 . S
C891 C886 1.363 . S
C891 C890 1.415 . S
H892 C889 0.999 . S
H893 C874 0.913 . S
H894 C912 0.951 . S
H895 C914 0.951 . S
H896 C916 0.950 . S
H897 C917 0.950 . S
H898 C919 0.950 . S
H899 C922 0.950 . S
H900 C923 0.950 . S
H901 C925 0.950 . S
H902 C926 0.950 . S
H903 C927 0.951 . S
H904 C929 0.951 . S
H905 C931 0.950 . S
H906 C932 0.950 . S
H907 C934 0.950 . S
H908 C937 0.950 . S
H909 C938 0.950 . S
H910 C940 0.950 . S
H911 C941 0.950 . S
C912 H894 0.951 . S
C912 C913 1.366 . S
C912 C914 1.388 . S
C913 C912 1.366 . S
C913 C917 1.385 . S
C914 H895 0.951 . S
C914 C912 1.388 . S
C914 C915 1.366 . S
C915 C914 1.366 . S
C915 C916 1.414 . S
C915 C918 1.499 . S
C916 H896 0.950 . S
C916 C915 1.414 . S
C916 C917 1.374 . S
C917 H897 0.950 . S
C917 C913 1.385 . S
C917 C916 1.374 . S
C918 C915 1.499 . S
C918 C919 1.373 . S
C918 C920 1.389 . S
C919 H898 0.950 . S
C919 C918 1.373 . S
C919 C935 1.377 1_655 S
C920 C918 1.389 . S
C920 C921 1.524 . S
C920 C934 1.377 1_655 S
C921 C920 1.524 . S
C921 C922 1.397 . S
C921 C926 1.363 . S
C922 H899 0.950 . S
C922 C921 1.397 . S
C922 C923 1.334 . S
C923 H900 0.950 . S
C923 C922 1.334 . S
C923 C924 1.287 . S
C924 C923 1.287 . S
C924 C925 1.524 . S
C924 H943 0.913 . S
C925 H901 0.950 . S
C925 C924 1.524 . S
C925 C926 1.415 . S
C926 H902 0.950 . S
C926 C921 1.363 . S
C926 C925 1.415 . S
C927 H903 0.951 . S
C927 C928 1.366 . S
C927 C929 1.388 . S
C928 C927 1.366 . S
C928 C932 1.385 . S
C929 H904 0.951 . S
C929 C927 1.388 . S
C929 C930 1.366 . S
C930 C929 1.366 . S
C930 C931 1.414 . S
C930 C933 1.499 . S
C931 H905 0.950 . S
C931 C930 1.414 . S
C931 C932 1.374 . S
C932 H906 0.950 . S
C932 C928 1.385 . S
C932 C931 1.374 . S
C933 C930 1.499 . S
C933 C934 1.373 . S
C933 C935 1.389 . S
C934 H907 0.950 . S
C934 C920 1.377 1_455 S
C934 C933 1.373 . S
C935 C919 1.377 1_455 S
C935 C933 1.389 . S
C935 C936 1.524 . S
C936 C935 1.524 . S
C936 C937 1.397 . S
C936 C941 1.363 . S
C937 H908 0.950 . S
C937 C936 1.397 . S
C937 C938 1.334 . S
C938 H909 0.950 . S
C938 C937 1.334 . S
C938 C939 1.287 . S
C939 C938 1.287 . S
C939 C940 1.524 . S
C939 H942 0.999 . S
C940 H910 0.950 . S
C940 C939 1.524 . S
C940 C941 1.415 . S
C941 H911 0.950 . S
C941 C936 1.363 . S
C941 C940 1.415 . S
H942 C939 0.999 . S
H943 C924 0.913 . S
H944 C962 0.951 . S
H945 C964 0.951 . S
H946 C966 0.950 . S
H947 C967 0.977 . S
H948 C969 0.950 . S
H949 C972 0.950 1_655 S
H950 C973 0.950 1_655 S
H951 C975 0.950 . S
H952 C976 0.950 . S
H953 C977 0.948 . S
H954 C979 0.941 1_655 S
H955 C981 0.950 . S
H956 C982 0.950 . S
H957 C984 0.950 . S
H958 C987 0.950 . S
H959 C988 0.950 . S
H960 C990 0.950 . S
H961 C991 0.950 . S
C962 H944 0.951 . S
C962 C963 1.366 . S
C962 C964 1.388 . S
C963 C962 1.366 . S
C963 C967 1.358 1_455 S
C964 H945 0.951 . S
C964 C962 1.388 . S
C964 C965 1.366 . S
C965 C964 1.366 . S
C965 C966 1.414 1_455 S
C965 C968 1.499 . S
C966 H946 0.950 . S
C966 C965 1.414 1_655 S
C966 C967 1.375 . S
C967 H947 0.977 . S
C967 C963 1.358 1_655 S
C967 C966 1.375 . S
C968 C965 1.499 . S
C968 C969 1.373 . S
C968 C970 1.389 . S
C969 H948 0.950 . S
C969 C968 1.373 . S
C969 C985 1.377 1_554 S
C970 C968 1.389 . S
C970 C971 1.524 . S
C970 C984 1.377 1_554 S
C971 C970 1.524 . S
C971 C972 1.397 . S
C971 C976 1.363 . S
C972 H949 0.950 1_455 S
C972 C971 1.397 . S
C972 C973 1.334 . S
C973 H950 0.950 1_455 S
C973 C972 1.334 . S
C973 C974 1.287 . S
C974 C973 1.287 . S
C974 C975 1.524 . S
C974 H993 0.913 . S
C975 H951 0.950 . S
C975 C974 1.524 . S
C975 C976 1.415 . S
C976 H952 0.950 . S
C976 C971 1.363 . S
C976 C975 1.415 . S
C977 H953 0.948 . S
C977 C978 1.369 1_655 S
C977 C979 1.388 1_655 S
C978 C977 1.369 1_455 S
C978 C982 1.385 . S
C979 H954 0.941 1_455 S
C979 C977 1.388 1_455 S
C979 C980 1.376 . S
C980 C979 1.376 . S
C980 C981 1.414 . S
C980 C983 1.499 . S
C981 H955 0.950 . S
C981 C980 1.414 . S
C981 C982 1.374 . S
C982 H956 0.950 . S
C982 C978 1.385 . S
C982 C981 1.374 . S
C983 C980 1.499 . S
C983 C984 1.373 . S
C983 C985 1.389 . S
C984 H957 0.950 . S
C984 C970 1.377 1_556 S
C984 C983 1.373 . S
C985 C969 1.377 1_556 S
C985 C983 1.389 . S
C985 C986 1.524 . S
C986 C985 1.524 . S
C986 C987 1.397 . S
C986 C991 1.363 1_455 S
C987 H958 0.950 . S
C987 C986 1.397 . S
C987 C988 1.334 . S
C988 H959 0.950 . S
C988 C987 1.334 . S
C988 C989 1.287 . S
C989 C988 1.287 . S
C989 C990 1.524 1_455 S
C989 H992 0.999 . S
C990 H960 0.950 . S
C990 C989 1.524 1_655 S
C990 C991 1.415 . S
C991 H961 0.950 . S
C991 C986 1.363 1_655 S
C991 C990 1.415 . S
H992 C989 0.999 . S
H993 C974 0.913 . S
H994 C1012 0.951 . S
H995 C1014 0.951 . S
H996 C1016 0.950 . S
H997 C1017 0.950 . S
H998 C1019 0.950 . S
H999 C1022 0.950 . S
H1000 C1023 0.950 . S
H1001 C1025 0.950 . S
H1002 C1026 0.950 . S
H1003 C1027 0.951 . S
H1004 C1029 0.951 . S
H1005 C1031 0.950 . S
H1006 C1032 0.950 . S
H1007 C1034 0.950 . S
H1008 C1037 0.950 . S
H1009 C1038 0.950 . S
H1010 C1040 0.950 . S
H1011 C1041 0.950 . S
C1012 H994 0.951 . S
C1012 C1013 1.366 . S
C1012 C1014 1.388 . S
C1013 C1012 1.366 . S
C1013 C1017 1.385 . S
C1014 H995 0.951 . S
C1014 C1012 1.388 . S
C1014 C1015 1.366 . S
C1015 C1014 1.366 . S
C1015 C1016 1.414 . S
C1015 C1018 1.499 . S
C1016 H996 0.950 . S
C1016 C1015 1.414 . S
C1016 C1017 1.374 . S
C1017 H997 0.950 . S
C1017 C1013 1.385 . S
C1017 C1016 1.374 . S
C1018 C1015 1.499 . S
C1018 C1019 1.373 . S
C1018 C1020 1.389 . S
C1019 H998 0.950 . S
C1019 C1018 1.373 . S
C1019 C1035 1.377 . S
C1020 C1018 1.389 . S
C1020 C1021 1.524 . S
C1020 C1034 1.377 . S
C1021 C1020 1.524 . S
C1021 C1022 1.397 . S
C1021 C1026 1.363 . S
C1022 H999 0.950 . S
C1022 C1021 1.397 . S
C1022 C1023 1.334 . S
C1023 H1000 0.950 . S
C1023 C1022 1.334 . S
C1023 C1024 1.287 . S
C1024 C1023 1.287 . S
C1024 C1025 1.524 . S
C1024 H1043 0.913 . S
C1025 H1001 0.950 . S
C1025 C1024 1.524 . S
C1025 C1026 1.415 . S
C1026 H1002 0.950 . S
C1026 C1021 1.363 . S
C1026 C1025 1.415 . S
C1027 H1003 0.951 . S
C1027 C1028 1.366 . S
C1027 C1029 1.388 . S
C1028 C1027 1.366 . S
C1028 C1032 1.385 . S
C1029 H1004 0.951 . S
C1029 C1027 1.388 . S
C1029 C1030 1.366 . S
C1030 C1029 1.366 . S
C1030 C1031 1.414 . S
C1030 C1033 1.499 . S
C1031 H1005 0.950 . S
C1031 C1030 1.414 . S
C1031 C1032 1.374 . S
C1032 H1006 0.950 . S
C1032 C1028 1.385 . S
C1032 C1031 1.374 . S
C1033 C1030 1.499 . S
C1033 C1034 1.373 . S
C1033 C1035 1.389 . S
C1034 H1007 0.950 . S
C1034 C1020 1.377 . S
C1034 C1033 1.373 . S
C1035 C1019 1.377 . S
C1035 C1033 1.389 . S
C1035 C1036 1.524 . S
C1036 C1035 1.524 . S
C1036 C1037 1.397 . S
C1036 C1041 1.363 1_565 S
C1037 H1008 0.950 . S
C1037 C1036 1.397 . S
C1037 C1038 1.334 1_565 S
C1038 H1009 0.950 . S
C1038 C1037 1.334 1_545 S
C1038 C1039 1.287 . S
C1039 C1038 1.287 . S
C1039 C1040 1.524 . S
C1039 H1042 0.999 . S
C1040 H1010 0.950 . S
C1040 C1039 1.524 . S
C1040 C1041 1.415 . S
C1041 H1011 0.950 . S
C1041 C1036 1.363 1_545 S
C1041 C1040 1.415 . S
H1042 C1039 0.999 . S
H1043 C1024 0.913 . S
H1044 C1062 0.951 . S
H1045 C1064 0.951 . S
H1046 C1066 0.950 . S
H1047 C1067 0.950 . S
H1048 C1069 0.950 . S
H1049 C1072 0.950 . S
H1050 C1073 0.950 . S
H1051 C1075 0.950 . S
H1052 C1076 0.950 . S
H1053 C1077 0.951 . S
H1054 C1079 0.951 . S
H1055 C1081 0.950 . S
H1056 C1082 0.950 . S
H1057 C1084 0.950 . S
H1058 C1087 0.950 . S
H1059 C1088 0.950 . S
H1060 C1090 0.950 . S
H1061 C1091 0.950 . S
C1062 H1044 0.951 . S
C1062 C1063 1.366 . S
C1062 C1064 1.388 . S
C1063 C1062 1.366 . S
C1063 C1067 1.385 . S
C1064 H1045 0.951 . S
C1064 C1062 1.388 . S
C1064 C1065 1.366 . S
C1065 C1064 1.366 . S
C1065 C1066 1.414 . S
C1065 C1068 1.499 . S
C1066 H1046 0.950 . S
C1066 C1065 1.414 . S
C1066 C1067 1.374 . S
C1067 H1047 0.950 . S
C1067 C1063 1.385 . S
C1067 C1066 1.374 . S
C1068 C1065 1.499 . S
C1068 C1069 1.373 . S
C1068 C1070 1.389 . S
C1069 H1048 0.950 . S
C1069 C1068 1.373 . S
C1069 C1085 1.377 . S
C1070 C1068 1.389 . S
C1070 C1071 1.524 . S
C1070 C1084 1.377 . S
C1071 C1070 1.524 . S
C1071 C1072 1.397 . S
C1071 C1076 1.363 . S
C1072 H1049 0.950 . S
C1072 C1071 1.397 . S
C1072 C1073 1.334 . S
C1073 H1050 0.950 . S
C1073 C1072 1.334 . S
C1073 C1074 1.287 . S
C1074 C1073 1.287 . S
C1074 C1075 1.524 . S
C1074 H1093 0.913 . S
C1075 H1051 0.950 . S
C1075 C1074 1.524 . S
C1075 C1076 1.415 . S
C1076 H1052 0.950 . S
C1076 C1071 1.363 . S
C1076 C1075 1.415 . S
C1077 H1053 0.951 . S
C1077 C1078 1.366 . S
C1077 C1079 1.388 . S
C1078 C1077 1.366 . S
C1078 C1082 1.385 . S
C1079 H1054 0.951 . S
C1079 C1077 1.388 . S
C1079 C1080 1.366 . S
C1080 C1079 1.366 . S
C1080 C1081 1.414 . S
C1080 C1083 1.499 . S
C1081 H1055 0.950 . S
C1081 C1080 1.414 . S
C1081 C1082 1.374 . S
C1082 H1056 0.950 . S
C1082 C1078 1.385 . S
C1082 C1081 1.374 . S
C1083 C1080 1.499 . S
C1083 C1084 1.373 . S
C1083 C1085 1.389 . S
C1084 H1057 0.950 . S
C1084 C1070 1.377 . S
C1084 C1083 1.373 . S
C1085 C1069 1.377 . S
C1085 C1083 1.389 . S
C1085 C1086 1.524 . S
C1086 C1085 1.524 . S
C1086 C1087 1.397 . S
C1086 C1091 1.363 . S
C1087 H1058 0.950 . S
C1087 C1086 1.397 . S
C1087 C1088 1.334 . S
C1088 H1059 0.950 . S
C1088 C1087 1.334 . S
C1088 C1089 1.287 . S
C1089 C1088 1.287 . S
C1089 C1090 1.524 . S
C1089 H1092 0.999 . S
C1090 H1060 0.950 . S
C1090 C1089 1.524 . S
C1090 C1091 1.415 . S
C1091 H1061 0.950 . S
C1091 C1086 1.363 . S
C1091 C1090 1.415 . S
H1092 C1089 0.999 . S
H1093 C1074 0.913 . S
H1094 C1112 0.951 . S
H1095 C1114 0.951 . S
H1096 C1116 0.950 . S
H1097 C1117 0.950 . S
H1098 C1119 0.950 . S
H1099 C1122 0.950 . S
H1100 C1123 0.950 . S
H1101 C1125 0.950 . S
H1102 C1126 0.950 . S
H1103 C1127 0.951 . S
H1104 C1129 0.951 . S
H1105 C1131 0.950 . S
H1106 C1132 0.950 . S
H1107 C1134 0.950 . S
H1108 C1137 0.950 . S
H1109 C1138 0.950 . S
H1110 C1140 0.950 . S
H1111 C1141 0.950 . S
C1112 H1094 0.951 . S
C1112 C1113 1.366 . S
C1112 C1114 1.388 . S
C1113 C1112 1.366 . S
C1113 C1117 1.385 . S
C1114 H1095 0.951 . S
C1114 C1112 1.388 . S
C1114 C1115 1.366 . S
C1115 C1114 1.366 . S
C1115 C1116 1.414 . S
C1115 C1118 1.499 . S
C1116 H1096 0.950 . S
C1116 C1115 1.414 . S
C1116 C1117 1.374 . S
C1117 H1097 0.950 . S
C1117 C1113 1.385 . S
C1117 C1116 1.374 . S
C1118 C1115 1.499 . S
C1118 C1119 1.373 . S
C1118 C1120 1.389 . S
C1119 H1098 0.950 . S
C1119 C1118 1.373 . S
C1119 C1135 1.377 . S
C1120 C1118 1.389 . S
C1120 C1121 1.524 . S
C1120 C1134 1.377 . S
C1121 C1120 1.524 . S
C1121 C1122 1.397 . S
C1121 C1126 1.363 . S
C1122 H1099 0.950 . S
C1122 C1121 1.397 . S
C1122 C1123 1.334 . S
C1123 H1100 0.950 . S
C1123 C1122 1.334 . S
C1123 C1124 1.287 . S
C1124 C1123 1.287 . S
C1124 C1125 1.524 . S
C1124 H1143 0.913 . S
C1125 H1101 0.950 . S
C1125 C1124 1.524 . S
C1125 C1126 1.415 . S
C1126 H1102 0.950 . S
C1126 C1121 1.363 . S
C1126 C1125 1.415 . S
C1127 H1103 0.951 . S
C1127 C1128 1.366 . S
C1127 C1129 1.388 . S
C1128 C1127 1.366 . S
C1128 C1132 1.385 . S
C1129 H1104 0.951 . S
C1129 C1127 1.388 . S
C1129 C1130 1.366 . S
C1130 C1129 1.366 . S
C1130 C1131 1.414 . S
C1130 C1133 1.499 . S
C1131 H1105 0.950 . S
C1131 C1130 1.414 . S
C1131 C1132 1.374 . S
C1132 H1106 0.950 . S
C1132 C1128 1.385 . S
C1132 C1131 1.374 . S
C1133 C1130 1.499 . S
C1133 C1134 1.373 . S
C1133 C1135 1.389 . S
C1134 H1107 0.950 . S
C1134 C1120 1.377 . S
C1134 C1133 1.373 . S
C1135 C1119 1.377 . S
C1135 C1133 1.389 . S
C1135 C1136 1.524 . S
C1136 C1135 1.524 . S
C1136 C1137 1.397 . S
C1136 C1141 1.363 . S
C1137 H1108 0.950 . S
C1137 C1136 1.397 . S
C1137 C1138 1.334 . S
C1138 H1109 0.950 . S
C1138 C1137 1.334 . S
C1138 C1139 1.287 . S
C1139 C1138 1.287 . S
C1139 C1140 1.524 . S
C1139 H1142 0.999 . S
C1140 H1110 0.950 . S
C1140 C1139 1.524 . S
C1140 C1141 1.415 . S
C1141 H1111 0.950 . S
C1141 C1136 1.363 . S
C1141 C1140 1.415 . S
H1142 C1139 0.999 . S
H1143 C1124 0.913 . S
H1144 C1162 0.951 . S
H1145 C1164 0.951 . S
H1146 C1166 0.950 . S
H1147 C1167 0.950 . S
H1148 C1169 0.950 . S
H1149 C1172 0.950 . S
H1150 C1173 0.950 . S
H1151 C1175 0.950 . S
H1152 C1176 0.950 . S
H1153 C1177 0.951 . S
H1154 C1179 0.951 . S
H1155 C1181 0.950 . S
H1156 C1182 0.950 . S
H1157 C1184 0.950 . S
H1158 C1187 0.950 . S
H1159 C1188 0.950 . S
H1160 C1190 0.950 . S
H1161 C1191 0.950 . S
C1162 H1144 0.951 . S
C1162 C1163 1.366 . S
C1162 C1164 1.388 . S
C1163 C1162 1.366 . S
C1163 C1167 1.385 . S
C1164 H1145 0.951 . S
C1164 C1162 1.388 . S
C1164 C1165 1.366 . S
C1165 C1164 1.366 . S
C1165 C1166 1.414 . S
C1165 C1168 1.499 . S
C1166 H1146 0.950 . S
C1166 C1165 1.414 . S
C1166 C1167 1.374 . S
C1167 H1147 0.950 . S
C1167 C1163 1.385 . S
C1167 C1166 1.374 . S
C1168 C1165 1.499 . S
C1168 C1169 1.373 . S
C1168 C1170 1.389 . S
C1169 H1148 0.950 . S
C1169 C1168 1.373 . S
C1169 C1185 1.377 . S
C1170 C1168 1.389 . S
C1170 C1171 1.524 . S
C1170 C1184 1.377 . S
C1171 C1170 1.524 . S
C1171 C1172 1.397 . S
C1171 C1176 1.363 . S
C1172 H1149 0.950 . S
C1172 C1171 1.397 . S
C1172 C1173 1.334 . S
C1173 H1150 0.950 . S
C1173 C1172 1.334 . S
C1173 C1174 1.287 . S
C1174 C1173 1.287 . S
C1174 C1175 1.524 . S
C1174 H1193 0.913 . S
C1175 H1151 0.950 . S
C1175 C1174 1.524 . S
C1175 C1176 1.415 . S
C1176 H1152 0.950 . S
C1176 C1171 1.363 . S
C1176 C1175 1.415 . S
C1177 H1153 0.951 . S
C1177 C1178 1.366 . S
C1177 C1179 1.388 . S
C1178 C1177 1.366 . S
C1178 C1182 1.385 . S
C1179 H1154 0.951 . S
C1179 C1177 1.388 . S
C1179 C1180 1.366 . S
C1180 C1179 1.366 . S
C1180 C1181 1.414 . S
C1180 C1183 1.499 . S
C1181 H1155 0.950 . S
C1181 C1180 1.414 . S
C1181 C1182 1.374 . S
C1182 H1156 0.950 . S
C1182 C1178 1.385 . S
C1182 C1181 1.374 . S
C1183 C1180 1.499 . S
C1183 C1184 1.373 . S
C1183 C1185 1.389 . S
C1184 H1157 0.950 . S
C1184 C1170 1.377 . S
C1184 C1183 1.373 . S
C1185 C1169 1.377 . S
C1185 C1183 1.389 . S
C1185 C1186 1.524 . S
C1186 C1185 1.524 . S
C1186 C1187 1.397 . S
C1186 C1191 1.363 . S
C1187 H1158 0.950 . S
C1187 C1186 1.397 . S
C1187 C1188 1.334 . S
C1188 H1159 0.950 . S
C1188 C1187 1.334 . S
C1188 C1189 1.287 . S
C1189 C1188 1.287 . S
C1189 C1190 1.524 . S
C1189 H1192 0.999 . S
C1190 H1160 0.950 . S
C1190 C1189 1.524 . S
C1190 C1191 1.415 . S
C1191 H1161 0.950 . S
C1191 C1186 1.363 . S
C1191 C1190 1.415 . S
H1192 C1189 0.999 . S
H1193 C1174 0.913 . S
H1194 C1212 0.951 . S
H1195 C1214 0.951 . S
H1196 C1216 0.950 . S
H1197 C1217 0.950 . S
H1198 C1219 0.950 . S
H1199 C1222 0.950 . S
H1200 C1223 0.950 . S
H1201 C1225 0.950 . S
H1202 C1226 0.950 . S
H1203 C1227 0.951 . S
H1204 C1229 0.951 . S
H1205 C1231 0.950 . S
H1206 C1232 0.950 . S
H1207 C1234 0.950 . S
H1208 C1237 0.950 . S
H1209 C1238 0.950 . S
H1210 C1240 0.950 . S
H1211 C1241 0.950 . S
C1212 H1194 0.951 . S
C1212 C1213 1.366 . S
C1212 C1214 1.388 . S
C1213 C1212 1.366 . S
C1213 C1217 1.385 . S
C1214 H1195 0.951 . S
C1214 C1212 1.388 . S
C1214 C1215 1.366 . S
C1215 C1214 1.366 . S
C1215 C1216 1.414 . S
C1215 C1218 1.499 . S
C1216 H1196 0.950 . S
C1216 C1215 1.414 . S
C1216 C1217 1.374 . S
C1217 H1197 0.950 . S
C1217 C1213 1.385 . S
C1217 C1216 1.374 . S
C1218 C1215 1.499 . S
C1218 C1219 1.373 . S
C1218 C1220 1.389 . S
C1219 H1198 0.950 . S
C1219 C1218 1.373 . S
C1219 C1235 1.377 . S
C1220 C1218 1.389 . S
C1220 C1221 1.524 . S
C1220 C1234 1.377 . S
C1221 C1220 1.524 . S
C1221 C1222 1.397 . S
C1221 C1226 1.363 . S
C1222 H1199 0.950 . S
C1222 C1221 1.397 . S
C1222 C1223 1.334 . S
C1223 H1200 0.950 . S
C1223 C1222 1.334 . S
C1223 C1224 1.287 . S
C1224 C1223 1.287 . S
C1224 C1225 1.524 . S
C1224 H1243 0.913 . S
C1225 H1201 0.950 . S
C1225 C1224 1.524 . S
C1225 C1226 1.415 . S
C1226 H1202 0.950 . S
C1226 C1221 1.363 . S
C1226 C1225 1.415 . S
C1227 H1203 0.951 . S
C1227 C1228 1.366 . S
C1227 C1229 1.388 . S
C1228 C1227 1.366 . S
C1228 C1232 1.385 . S
C1229 H1204 0.951 . S
C1229 C1227 1.388 . S
C1229 C1230 1.366 . S
C1230 C1229 1.366 . S
C1230 C1231 1.414 . S
C1230 C1233 1.499 . S
C1231 H1205 0.950 . S
C1231 C1230 1.414 . S
C1231 C1232 1.374 . S
C1232 H1206 0.950 . S
C1232 C1228 1.385 . S
C1232 C1231 1.374 . S
C1233 C1230 1.499 . S
C1233 C1234 1.373 . S
C1233 C1235 1.389 . S
C1234 H1207 0.950 . S
C1234 C1220 1.377 . S
C1234 C1233 1.373 . S
C1235 C1219 1.377 . S
C1235 C1233 1.389 . S
C1235 C1236 1.524 . S
C1236 C1235 1.524 . S
C1236 C1237 1.397 . S
C1236 C1241 1.363 . S
C1237 H1208 0.950 . S
C1237 C1236 1.397 . S
C1237 C1238 1.334 . S
C1238 H1209 0.950 . S
C1238 C1237 1.334 . S
C1238 C1239 1.287 . S
C1239 C1238 1.287 . S
C1239 C1240 1.524 . S
C1239 H1242 0.999 . S
C1240 H1210 0.950 . S
C1240 C1239 1.524 . S
C1240 C1241 1.415 . S
C1241 H1211 0.950 . S
C1241 C1236 1.363 . S
C1241 C1240 1.415 . S
H1242 C1239 0.999 . S
H1243 C1224 0.913 . S
H1244 C1262 0.951 . S
H1245 C1264 0.951 . S
H1246 C1266 0.950 . S
H1247 C1267 0.950 . S
H1248 C1269 0.950 . S
H1249 C1272 0.950 . S
H1250 C1273 0.950 . S
H1251 C1275 0.950 . S
H1252 C1276 0.950 . S
H1253 C1277 0.951 . S
H1254 C1279 0.951 . S
H1255 C1281 0.950 . S
H1256 C1282 0.950 . S
H1257 C1284 0.950 . S
H1258 C1287 0.950 . S
H1259 C1288 0.950 . S
H1260 C1290 0.950 . S
H1261 C1291 0.950 . S
C1262 H1244 0.951 . S
C1262 C1263 1.366 . S
C1262 C1264 1.388 . S
C1263 C1262 1.366 . S
C1263 C1267 1.385 . S
C1264 H1245 0.951 . S
C1264 C1262 1.388 . S
C1264 C1265 1.366 . S
C1265 C1264 1.366 . S
C1265 C1266 1.414 . S
C1265 C1268 1.499 . S
C1266 H1246 0.950 . S
C1266 C1265 1.414 . S
C1266 C1267 1.374 . S
C1267 H1247 0.950 . S
C1267 C1263 1.385 . S
C1267 C1266 1.374 . S
C1268 C1265 1.499 . S
C1268 C1269 1.373 . S
C1268 C1270 1.389 . S
C1269 H1248 0.950 . S
C1269 C1268 1.373 . S
C1269 C1285 1.377 . S
C1270 C1268 1.389 . S
C1270 C1271 1.524 . S
C1270 C1284 1.377 . S
C1271 C1270 1.524 . S
C1271 C1272 1.397 . S
C1271 C1276 1.363 . S
C1272 H1249 0.950 . S
C1272 C1271 1.397 . S
C1272 C1273 1.334 . S
C1273 H1250 0.950 . S
C1273 C1272 1.334 . S
C1273 C1274 1.287 . S
C1274 C1273 1.287 . S
C1274 C1275 1.524 . S
C1274 H1293 0.913 . S
C1275 H1251 0.950 . S
C1275 C1274 1.524 . S
C1275 C1276 1.415 . S
C1276 H1252 0.950 . S
C1276 C1271 1.363 . S
C1276 C1275 1.415 . S
C1277 H1253 0.951 . S
C1277 C1278 1.366 . S
C1277 C1279 1.388 . S
C1278 C1277 1.366 . S
C1278 C1282 1.385 . S
C1279 H1254 0.951 . S
C1279 C1277 1.388 . S
C1279 C1280 1.366 . S
C1280 C1279 1.366 . S
C1280 C1281 1.414 . S
C1280 C1283 1.499 . S
C1281 H1255 0.950 . S
C1281 C1280 1.414 . S
C1281 C1282 1.374 . S
C1282 H1256 0.950 . S
C1282 C1278 1.385 . S
C1282 C1281 1.374 . S
C1283 C1280 1.499 . S
C1283 C1284 1.373 . S
C1283 C1285 1.389 . S
C1284 H1257 0.950 . S
C1284 C1270 1.377 . S
C1284 C1283 1.373 . S
C1285 C1269 1.377 . S
C1285 C1283 1.389 . S
C1285 C1286 1.524 . S
C1286 C1285 1.524 . S
C1286 C1287 1.397 . S
C1286 C1291 1.363 . S
C1287 H1258 0.950 . S
C1287 C1286 1.397 . S
C1287 C1288 1.334 . S
C1288 H1259 0.950 . S
C1288 C1287 1.334 . S
C1288 C1289 1.287 . S
C1289 C1288 1.287 . S
C1289 C1290 1.524 . S
C1289 H1292 0.999 . S
C1290 H1260 0.950 . S
C1290 C1289 1.524 . S
C1290 C1291 1.415 . S
C1291 H1261 0.950 . S
C1291 C1286 1.363 . S
C1291 C1290 1.415 . S
H1292 C1289 0.999 . S
H1293 C1274 0.913 . S
H1294 C1312 0.944 1_455 S
H1295 C1314 0.951 1_455 S
H1296 C1316 0.950 . S
H1297 C1317 0.950 . S
H1298 C1319 0.950 . S
H1299 C1322 0.950 . S
H1300 C1323 0.950 . S
H1301 C1325 0.950 . S
H1302 C1326 0.950 . S
H1303 C1327 0.951 . S
H1304 C1329 0.951 . S
H1305 C1331 0.950 1_455 S
H1306 C1332 0.950 1_455 S
H1307 C1334 0.950 . S
H1308 C1337 0.950 . S
H1309 C1338 0.950 . S
H1310 C1340 0.950 . S
H1311 C1341 0.950 . S
C1312 H1294 0.944 1_655 S
C1312 C1313 1.374 . S
C1312 C1314 1.387 . S
C1313 C1312 1.374 . S
C1313 C1317 1.385 . S
C1314 H1295 0.951 1_655 S
C1314 C1312 1.387 . S
C1314 C1315 1.365 . S
C1315 C1314 1.365 . S
C1315 C1316 1.414 . S
C1315 C1318 1.499 . S
C1316 H1296 0.950 . S
C1316 C1315 1.414 . S
C1316 C1317 1.374 . S
C1317 H1297 0.950 . S
C1317 C1313 1.385 . S
C1317 C1316 1.374 . S
C1318 C1315 1.499 . S
C1318 C1319 1.373 . S
C1318 C1320 1.389 1_655 S
C1319 H1298 0.950 . S
C1319 C1318 1.373 . S
C1319 C1335 1.377 1_556 S
C1320 C1318 1.389 1_455 S
C1320 C1321 1.524 . S
C1320 C1334 1.377 1_556 S
C1321 C1320 1.524 . S
C1321 C1322 1.397 . S
C1321 C1326 1.363 . S
C1322 H1299 0.950 . S
C1322 C1321 1.397 . S
C1322 C1323 1.334 . S
C1323 H1300 0.950 . S
C1323 C1322 1.334 . S
C1323 C1324 1.287 . S
C1324 C1323 1.287 . S
C1324 C1325 1.524 . S
C1324 H1343 0.913 . S
C1325 H1301 0.950 . S
C1325 C1324 1.524 . S
C1325 C1326 1.415 . S
C1326 H1302 0.950 . S
C1326 C1321 1.363 . S
C1326 C1325 1.415 . S
C1327 H1303 0.951 . S
C1327 C1328 1.366 . S
C1327 C1329 1.388 . S
C1328 C1327 1.366 . S
C1328 C1332 1.385 . S
C1329 H1304 0.951 . S
C1329 C1327 1.388 . S
C1329 C1330 1.366 . S
C1330 C1329 1.366 . S
C1330 C1331 1.414 . S
C1330 C1333 1.499 . S
C1331 H1305 0.950 1_655 S
C1331 C1330 1.414 . S
C1331 C1332 1.374 . S
C1332 H1306 0.950 1_655 S
C1332 C1328 1.385 . S
C1332 C1331 1.374 . S
C1333 C1330 1.499 . S
C1333 C1334 1.373 1_655 S
C1333 C1335 1.389 . S
C1334 H1307 0.950 . S
C1334 C1320 1.377 1_554 S
C1334 C1333 1.373 1_455 S
C1335 C1319 1.377 1_554 S
C1335 C1333 1.389 . S
C1335 C1336 1.524 . S
C1336 C1335 1.524 . S
C1336 C1337 1.397 . S
C1336 C1341 1.363 . S
C1337 H1308 0.950 . S
C1337 C1336 1.397 . S
C1337 C1338 1.334 . S
C1338 H1309 0.950 . S
C1338 C1337 1.334 . S
C1338 C1339 1.287 . S
C1339 C1338 1.287 . S
C1339 C1340 1.524 . S
C1339 H1342 0.999 . S
C1340 H1310 0.950 . S
C1340 C1339 1.524 . S
C1340 C1341 1.415 . S
C1341 H1311 0.950 . S
C1341 C1336 1.363 . S
C1341 C1340 1.415 . S
H1342 C1339 0.999 . S
H1343 C1324 0.913 . S
H1344 C1362 0.951 . S
H1345 C1364 0.951 . S
H1346 C1366 0.950 . S
H1347 C1367 0.950 . S
H1348 C1369 0.950 . S
H1349 C1372 0.950 . S
H1350 C1373 0.950 . S
H1351 C1375 0.950 . S
H1352 C1376 0.950 . S
H1353 C1377 0.951 . S
H1354 C1379 0.951 . S
H1355 C1381 0.950 . S
H1356 C1382 0.950 . S
H1357 C1384 0.950 . S
H1358 C1387 0.950 . S
H1359 C1388 0.950 . S
H1360 C1390 0.950 . S
H1361 C1391 0.950 . S
C1362 H1344 0.951 . S
C1362 C1363 1.366 . S
C1362 C1364 1.388 . S
C1363 C1362 1.366 . S
C1363 C1367 1.385 . S
C1364 H1345 0.951 . S
C1364 C1362 1.388 . S
C1364 C1365 1.366 1_565 S
C1365 C1364 1.366 1_545 S
C1365 C1366 1.414 . S
C1365 C1368 1.499 . S
C1366 H1346 0.950 . S
C1366 C1365 1.414 . S
C1366 C1367 1.374 1_545 S
C1367 H1347 0.950 . S
C1367 C1363 1.385 . S
C1367 C1366 1.374 1_565 S
C1368 C1365 1.499 . S
C1368 C1369 1.373 . S
C1368 C1370 1.389 . S
C1369 H1348 0.950 . S
C1369 C1368 1.373 . S
C1369 C1385 1.377 . S
C1370 C1368 1.389 . S
C1370 C1371 1.524 1_545 S
C1370 C1384 1.377 . S
C1371 C1370 1.524 1_565 S
C1371 C1372 1.397 . S
C1371 C1376 1.363 . S
C1372 H1349 0.950 . S
C1372 C1371 1.397 . S
C1372 C1373 1.334 . S
C1373 H1350 0.950 . S
C1373 C1372 1.334 . S
C1373 C1374 1.287 . S
C1374 C1373 1.287 . S
C1374 C1375 1.524 . S
C1374 H1393 0.913 . S
C1375 H1351 0.950 . S
C1375 C1374 1.524 . S
C1375 C1376 1.415 . S
C1376 H1352 0.950 . S
C1376 C1371 1.363 . S
C1376 C1375 1.415 . S
C1377 H1353 0.951 . S
C1377 C1378 1.366 . S
C1377 C1379 1.388 . S
C1378 C1377 1.366 . S
C1378 C1382 1.385 . S
C1379 H1354 0.951 . S
C1379 C1377 1.388 . S
C1379 C1380 1.366 . S
C1380 C1379 1.366 . S
C1380 C1381 1.414 . S
C1380 C1383 1.499 . S
C1381 H1355 0.950 . S
C1381 C1380 1.414 . S
C1381 C1382 1.374 . S
C1382 H1356 0.950 . S
C1382 C1378 1.385 . S
C1382 C1381 1.374 . S
C1383 C1380 1.499 . S
C1383 C1384 1.373 . S
C1383 C1385 1.389 . S
C1384 H1357 0.950 . S
C1384 C1370 1.377 . S
C1384 C1383 1.373 . S
C1385 C1369 1.377 . S
C1385 C1383 1.389 . S
C1385 C1386 1.524 . S
C1386 C1385 1.524 . S
C1386 C1387 1.397 . S
C1386 C1391 1.363 . S
C1387 H1358 0.950 . S
C1387 C1386 1.397 . S
C1387 C1388 1.334 . S
C1388 H1359 0.950 . S
C1388 C1387 1.334 . S
C1388 C1389 1.287 . S
C1389 C1388 1.287 . S
C1389 C1390 1.524 . S
C1389 H1392 0.999 . S
C1390 H1360 0.950 . S
C1390 C1389 1.524 . S
C1390 C1391 1.415 . S
C1391 H1361 0.950 . S
C1391 C1386 1.363 . S
C1391 C1390 1.415 . S
H1392 C1389 0.999 . S
H1393 C1374 0.913 . S
H1394 C1412 0.951 . S
H1395 C1414 0.951 . S
H1396 C1416 0.950 . S
H1397 C1417 0.947 1_545 S
H1398 C1419 0.950 . S
H1399 C1422 0.950 . S
H1400 C1423 0.950 . S
H1401 C1425 0.950 . S
H1402 C1426 0.950 . S
H1403 C1427 0.951 . S
H1404 C1429 0.951 . S
H1405 C1431 0.950 . S
H1406 C1432 0.950 . S
H1407 C1434 0.950 . S
H1408 C1437 0.950 . S
H1409 C1438 0.950 . S
H1410 C1440 0.950 . S
H1411 C1441 0.950 . S
C1412 H1394 0.951 . S
C1412 C1413 1.366 . S
C1412 C1414 1.388 . S
C1413 C1412 1.366 . S
C1413 C1417 1.385 . S
C1414 H1395 0.951 . S
C1414 C1412 1.388 . S
C1414 C1415 1.366 1_565 S
C1415 C1414 1.366 1_545 S
C1415 C1416 1.414 . S
C1415 C1418 1.499 . S
C1416 H1396 0.950 . S
C1416 C1415 1.414 . S
C1416 C1417 1.374 1_545 S
C1417 H1397 0.947 1_565 S
C1417 C1413 1.385 . S
C1417 C1416 1.374 1_565 S
C1418 C1415 1.499 . S
C1418 C1419 1.373 . S
C1418 C1420 1.389 . S
C1419 H1398 0.950 . S
C1419 C1418 1.373 . S
C1419 C1435 1.377 . S
C1420 C1418 1.389 . S
C1420 C1421 1.524 1_545 S
C1420 C1434 1.377 . S
C1421 C1420 1.524 1_565 S
C1421 C1422 1.397 . S
C1421 C1426 1.363 . S
C1422 H1399 0.950 . S
C1422 C1421 1.397 . S
C1422 C1423 1.334 . S
C1423 H1400 0.950 . S
C1423 C1422 1.334 . S
C1423 C1424 1.287 . S
C1424 C1423 1.287 . S
C1424 C1425 1.524 . S
C1424 H1443 0.913 . S
C1425 H1401 0.950 . S
C1425 C1424 1.524 . S
C1425 C1426 1.415 . S
C1426 H1402 0.950 . S
C1426 C1421 1.363 . S
C1426 C1425 1.415 . S
C1427 H1403 0.951 . S
C1427 C1428 1.366 . S
C1427 C1429 1.388 . S
C1428 C1427 1.366 . S
C1428 C1432 1.385 . S
C1429 H1404 0.951 . S
C1429 C1427 1.388 . S
C1429 C1430 1.366 . S
C1430 C1429 1.366 . S
C1430 C1431 1.414 . S
C1430 C1433 1.499 . S
C1431 H1405 0.950 . S
C1431 C1430 1.414 . S
C1431 C1432 1.374 . S
C1432 H1406 0.950 . S
C1432 C1428 1.385 . S
C1432 C1431 1.374 . S
C1433 C1430 1.499 . S
C1433 C1434 1.373 . S
C1433 C1435 1.389 . S
C1434 H1407 0.950 . S
C1434 C1420 1.377 . S
C1434 C1433 1.373 . S
C1435 C1419 1.377 . S
C1435 C1433 1.389 . S
C1435 C1436 1.524 . S
C1436 C1435 1.524 . S
C1436 C1437 1.397 . S
C1436 C1441 1.363 . S
C1437 H1408 0.950 . S
C1437 C1436 1.397 . S
C1437 C1438 1.334 . S
C1438 H1409 0.950 . S
C1438 C1437 1.334 . S
C1438 C1439 1.287 . S
C1439 C1438 1.287 . S
C1439 C1440 1.524 . S
C1439 H1442 0.999 . S
C1440 H1410 0.950 . S
C1440 C1439 1.524 . S
C1440 C1441 1.415 . S
C1441 H1411 0.950 . S
C1441 C1436 1.363 . S
C1441 C1440 1.415 . S
H1442 C1439 0.999 . S
H1443 C1424 0.913 . S
H1444 C1462 0.951 . S
H1445 C1464 0.951 . S
H1446 C1466 0.950 . S
H1447 C1467 0.950 . S
H1448 C1469 0.950 . S
H1449 C1472 0.950 . S
H1450 C1473 0.950 . S
H1451 C1475 0.950 . S
H1452 C1476 0.950 . S
H1453 C1477 0.951 . S
H1454 C1479 0.951 . S
H1455 C1481 0.950 . S
H1456 C1482 0.950 . S
H1457 C1484 0.950 . S
H1458 C1487 0.950 . S
H1459 C1488 0.950 . S
H1460 C1490 0.950 . S
H1461 C1491 0.950 . S
C1462 H1444 0.951 . S
C1462 C1463 1.366 . S
C1462 C1464 1.388 . S
C1463 C1462 1.366 . S
C1463 C1467 1.385 . S
C1464 H1445 0.951 . S
C1464 C1462 1.388 . S
C1464 C1465 1.366 . S
C1465 C1464 1.366 . S
C1465 C1466 1.414 . S
C1465 C1468 1.499 . S
C1466 H1446 0.950 . S
C1466 C1465 1.414 . S
C1466 C1467 1.374 . S
C1467 H1447 0.950 . S
C1467 C1463 1.385 . S
C1467 C1466 1.374 . S
C1468 C1465 1.499 . S
C1468 C1469 1.373 . S
C1468 C1470 1.389 . S
C1469 H1448 0.950 . S
C1469 C1468 1.373 . S
C1469 C1485 1.377 . S
C1470 C1468 1.389 . S
C1470 C1471 1.524 . S
C1470 C1484 1.377 . S
C1471 C1470 1.524 . S
C1471 C1472 1.397 . S
C1471 C1476 1.363 . S
C1472 H1449 0.950 . S
C1472 C1471 1.397 . S
C1472 C1473 1.334 . S
C1473 H1450 0.950 . S
C1473 C1472 1.334 . S
C1473 C1474 1.287 . S
C1474 C1473 1.287 . S
C1474 C1475 1.524 . S
C1474 H1493 0.913 . S
C1475 H1451 0.950 . S
C1475 C1474 1.524 . S
C1475 C1476 1.415 . S
C1476 H1452 0.950 . S
C1476 C1471 1.363 . S
C1476 C1475 1.415 . S
C1477 H1453 0.951 . S
C1477 C1478 1.366 . S
C1477 C1479 1.388 . S
C1478 C1477 1.366 . S
C1478 C1482 1.385 . S
C1479 H1454 0.951 . S
C1479 C1477 1.388 . S
C1479 C1480 1.366 . S
C1480 C1479 1.366 . S
C1480 C1481 1.414 . S
C1480 C1483 1.499 . S
C1481 H1455 0.950 . S
C1481 C1480 1.414 . S
C1481 C1482 1.374 . S
C1482 H1456 0.950 . S
C1482 C1478 1.385 . S
C1482 C1481 1.374 . S
C1483 C1480 1.499 . S
C1483 C1484 1.373 . S
C1483 C1485 1.389 . S
C1484 H1457 0.950 . S
C1484 C1470 1.377 . S
C1484 C1483 1.373 . S
C1485 C1469 1.377 . S
C1485 C1483 1.389 . S
C1485 C1486 1.524 . S
C1486 C1485 1.524 . S
C1486 C1487 1.397 . S
C1486 C1491 1.363 . S
C1487 H1458 0.950 . S
C1487 C1486 1.397 . S
C1487 C1488 1.334 . S
C1488 H1459 0.950 . S
C1488 C1487 1.334 . S
C1488 C1489 1.287 . S
C1489 C1488 1.287 . S
C1489 C1490 1.524 . S
C1489 H1492 0.999 . S
C1490 H1460 0.950 . S
C1490 C1489 1.524 . S
C1490 C1491 1.415 . S
C1491 H1461 0.950 . S
C1491 C1486 1.363 . S
C1491 C1490 1.415 . S
H1492 C1489 0.999 . S
H1493 C1474 0.913 . S
H1494 C1512 0.951 . S
H1495 C1514 0.951 . S
H1496 C1516 0.950 . S
H1497 C1517 0.950 . S
H1498 C1519 0.950 . S
H1499 C1522 0.950 . S
H1500 C1523 0.950 . S
H1501 C1525 0.950 . S
H1502 C1526 0.950 . S
H1503 C1527 0.951 . S
H1504 C1529 0.951 . S
H1505 C1531 0.950 . S
H1506 C1532 0.950 . S
H1507 C1534 0.950 . S
H1508 C1537 0.950 . S
H1509 C1538 0.950 . S
H1510 C1540 0.950 . S
H1511 C1541 0.950 . S
C1512 H1494 0.951 . S
C1512 C1513 1.366 . S
C1512 C1514 1.388 . S
C1513 C1512 1.366 . S
C1513 C1517 1.385 . S
C1514 H1495 0.951 . S
C1514 C1512 1.388 . S
C1514 C1515 1.366 . S
C1515 C1514 1.366 . S
C1515 C1516 1.414 . S
C1515 C1518 1.499 . S
C1516 H1496 0.950 . S
C1516 C1515 1.414 . S
C1516 C1517 1.374 . S
C1517 H1497 0.950 . S
C1517 C1513 1.385 . S
C1517 C1516 1.374 . S
C1518 C1515 1.499 . S
C1518 C1519 1.373 . S
C1518 C1520 1.389 . S
C1519 H1498 0.950 . S
C1519 C1518 1.373 . S
C1519 C1535 1.377 . S
C1520 C1518 1.389 . S
C1520 C1521 1.524 . S
C1520 C1534 1.377 . S
C1521 C1520 1.524 . S
C1521 C1522 1.397 . S
C1521 C1526 1.363 . S
C1522 H1499 0.950 . S
C1522 C1521 1.397 . S
C1522 C1523 1.334 . S
C1523 H1500 0.950 . S
C1523 C1522 1.334 . S
C1523 C1524 1.287 . S
C1524 C1523 1.287 . S
C1524 C1525 1.524 . S
C1524 H1543 0.913 . S
C1525 H1501 0.950 . S
C1525 C1524 1.524 . S
C1525 C1526 1.415 . S
C1526 H1502 0.950 . S
C1526 C1521 1.363 . S
C1526 C1525 1.415 . S
C1527 H1503 0.951 . S
C1527 C1528 1.366 . S
C1527 C1529 1.388 . S
C1528 C1527 1.366 . S
C1528 C1532 1.385 . S
C1529 H1504 0.951 . S
C1529 C1527 1.388 . S
C1529 C1530 1.366 . S
C1530 C1529 1.366 . S
C1530 C1531 1.414 . S
C1530 C1533 1.499 . S
C1531 H1505 0.950 . S
C1531 C1530 1.414 . S
C1531 C1532 1.374 . S
C1532 H1506 0.950 . S
C1532 C1528 1.385 . S
C1532 C1531 1.374 . S
C1533 C1530 1.499 . S
C1533 C1534 1.373 . S
C1533 C1535 1.389 . S
C1534 H1507 0.950 . S
C1534 C1520 1.377 . S
C1534 C1533 1.373 . S
C1535 C1519 1.377 . S
C1535 C1533 1.389 . S
C1535 C1536 1.524 . S
C1536 C1535 1.524 . S
C1536 C1537 1.397 . S
C1536 C1541 1.363 . S
C1537 H1508 0.950 . S
C1537 C1536 1.397 . S
C1537 C1538 1.334 . S
C1538 H1509 0.950 . S
C1538 C1537 1.334 . S
C1538 C1539 1.287 . S
C1539 C1538 1.287 . S
C1539 C1540 1.524 . S
C1539 H1542 0.999 . S
C1540 H1510 0.950 . S
C1540 C1539 1.524 . S
C1540 C1541 1.415 . S
C1541 H1511 0.950 . S
C1541 C1536 1.363 . S
C1541 C1540 1.415 . S
H1542 C1539 0.999 . S
H1543 C1524 0.913 . S
H1544 C1562 0.951 . S
H1545 C1564 0.951 . S
H1546 C1566 0.950 . S
H1547 C1567 0.950 . S
H1548 C1569 0.950 . S
H1549 C1572 0.950 . S
H1550 C1573 0.950 . S
H1551 C1575 0.950 . S
H1552 C1576 0.950 . S
H1553 C1577 0.951 . S
H1554 C1579 0.951 . S
H1555 C1581 0.950 . S
H1556 C1582 0.950 . S
H1557 C1584 0.950 . S
H1558 C1587 0.950 . S
H1559 C1588 0.950 . S
H1560 C1590 0.950 . S
H1561 C1591 0.950 . S
C1562 H1544 0.951 . S
C1562 C1563 1.366 . S
C1562 C1564 1.388 . S
C1563 C1562 1.366 . S
C1563 C1567 1.385 . S
C1564 H1545 0.951 . S
C1564 C1562 1.388 . S
C1564 C1565 1.366 . S
C1565 C1564 1.366 . S
C1565 C1566 1.414 . S
C1565 C1568 1.499 . S
C1566 H1546 0.950 . S
C1566 C1565 1.414 . S
C1566 C1567 1.374 . S
C1567 H1547 0.950 . S
C1567 C1563 1.385 . S
C1567 C1566 1.374 . S
C1568 C1565 1.499 . S
C1568 C1569 1.373 . S
C1568 C1570 1.389 . S
C1569 H1548 0.950 . S
C1569 C1568 1.373 . S
C1569 C1585 1.377 . S
C1570 C1568 1.389 . S
C1570 C1571 1.524 . S
C1570 C1584 1.377 . S
C1571 C1570 1.524 . S
C1571 C1572 1.397 . S
C1571 C1576 1.363 . S
C1572 H1549 0.950 . S
C1572 C1571 1.397 . S
C1572 C1573 1.334 . S
C1573 H1550 0.950 . S
C1573 C1572 1.334 . S
C1573 C1574 1.287 . S
C1574 C1573 1.287 . S
C1574 C1575 1.524 . S
C1574 H1593 0.913 . S
C1575 H1551 0.950 . S
C1575 C1574 1.524 . S
C1575 C1576 1.415 . S
C1576 H1552 0.950 . S
C1576 C1571 1.363 . S
C1576 C1575 1.415 . S
C1577 H1553 0.951 . S
C1577 C1578 1.366 . S
C1577 C1579 1.388 . S
C1578 C1577 1.366 . S
C1578 C1582 1.385 . S
C1579 H1554 0.951 . S
C1579 C1577 1.388 . S
C1579 C1580 1.366 . S
C1580 C1579 1.366 . S
C1580 C1581 1.414 . S
C1580 C1583 1.499 . S
C1581 H1555 0.950 . S
C1581 C1580 1.414 . S
C1581 C1582 1.374 . S
C1582 H1556 0.950 . S
C1582 C1578 1.385 . S
C1582 C1581 1.374 . S
C1583 C1580 1.499 . S
C1583 C1584 1.373 . S
C1583 C1585 1.389 . S
C1584 H1557 0.950 . S
C1584 C1570 1.377 . S
C1584 C1583 1.373 . S
C1585 C1569 1.377 . S
C1585 C1583 1.389 . S
C1585 C1586 1.524 . S
C1586 C1585 1.524 . S
C1586 C1587 1.397 . S
C1586 C1591 1.363 . S
C1587 H1558 0.950 . S
C1587 C1586 1.397 . S
C1587 C1588 1.334 . S
C1588 H1559 0.950 . S
C1588 C1587 1.334 . S
C1588 C1589 1.287 . S
C1589 C1588 1.287 . S
C1589 C1590 1.524 . S
C1589 H1592 0.999 . S
C1590 H1560 0.950 . S
C1590 C1589 1.524 . S
C1590 C1591 1.415 . S
C1591 H1561 0.950 . S
C1591 C1586 1.363 . S
C1591 C1590 1.415 . S
H1592 C1589 0.999 . S
H1593 C1574 0.913 . S
H1594 C1612 0.951 . S
H1595 C1614 0.951 . S
H1596 C1616 0.950 . S
H1597 C1617 0.950 . S
H1598 C1619 0.950 . S
H1599 C1622 0.950 . S
H1600 C1623 0.950 . S
H1601 C1625 0.950 . S
H1602 C1626 0.950 . S
H1603 C1627 0.951 . S
H1604 C1629 0.951 . S
H1605 C1631 0.950 . S
H1606 C1632 0.950 . S
H1607 C1634 0.950 . S
H1608 C1637 0.950 . S
H1609 C1638 0.950 . S
H1610 C1640 0.950 . S
H1611 C1641 0.950 . S
C1612 H1594 0.951 . S
C1612 C1613 1.366 . S
C1612 C1614 1.388 . S
C1613 C1612 1.366 . S
C1613 C1617 1.385 . S
C1614 H1595 0.951 . S
C1614 C1612 1.388 . S
C1614 C1615 1.366 . S
C1615 C1614 1.366 . S
C1615 C1616 1.414 . S
C1615 C1618 1.499 . S
C1616 H1596 0.950 . S
C1616 C1615 1.414 . S
C1616 C1617 1.374 . S
C1617 H1597 0.950 . S
C1617 C1613 1.385 . S
C1617 C1616 1.374 . S
C1618 C1615 1.499 . S
C1618 C1619 1.373 . S
C1618 C1620 1.389 . S
C1619 H1598 0.950 . S
C1619 C1618 1.373 . S
C1619 C1635 1.377 . S
C1620 C1618 1.389 . S
C1620 C1621 1.524 . S
C1620 C1634 1.377 . S
C1621 C1620 1.524 . S
C1621 C1622 1.397 . S
C1621 C1626 1.363 . S
C1622 H1599 0.950 . S
C1622 C1621 1.397 . S
C1622 C1623 1.334 . S
C1623 H1600 0.950 . S
C1623 C1622 1.334 . S
C1623 C1624 1.287 . S
C1624 C1623 1.287 . S
C1624 C1625 1.524 . S
C1624 H1643 0.913 . S
C1625 H1601 0.950 . S
C1625 C1624 1.524 . S
C1625 C1626 1.415 . S
C1626 H1602 0.950 . S
C1626 C1621 1.363 . S
C1626 C1625 1.415 . S
C1627 H1603 0.951 . S
C1627 C1628 1.366 . S
C1627 C1629 1.388 . S
C1628 C1627 1.366 . S
C1628 C1632 1.385 . S
C1629 H1604 0.951 . S
C1629 C1627 1.388 . S
C1629 C1630 1.366 . S
C1630 C1629 1.366 . S
C1630 C1631 1.414 . S
C1630 C1633 1.499 . S
C1631 H1605 0.950 . S
C1631 C1630 1.414 . S
C1631 C1632 1.374 . S
C1632 H1606 0.950 . S
C1632 C1628 1.385 . S
C1632 C1631 1.374 . S
C1633 C1630 1.499 . S
C1633 C1634 1.373 . S
C1633 C1635 1.389 . S
C1634 H1607 0.950 . S
C1634 C1620 1.377 . S
C1634 C1633 1.373 . S
C1635 C1619 1.377 . S
C1635 C1633 1.389 . S
C1635 C1636 1.524 . S
C1636 C1635 1.524 . S
C1636 C1637 1.397 . S
C1636 C1641 1.363 . S
C1637 H1608 0.950 . S
C1637 C1636 1.397 . S
C1637 C1638 1.334 . S
C1638 H1609 0.950 . S
C1638 C1637 1.334 . S
C1638 C1639 1.287 . S
C1639 C1638 1.287 . S
C1639 C1640 1.524 . S
C1639 H1642 0.999 . S
C1640 H1610 0.950 . S
C1640 C1639 1.524 . S
C1640 C1641 1.415 . S
C1641 H1611 0.950 . S
C1641 C1636 1.363 . S
C1641 C1640 1.415 . S
H1642 C1639 0.999 . S
H1643 C1624 0.913 . S
H1644 C1662 0.951 . S
H1645 C1664 0.951 1_545 S
H1646 C1666 0.950 . S
H1647 C1667 0.950 . S
H1648 C1669 0.950 . S
H1649 C1672 0.950 . S
H1650 C1673 0.950 . S
H1651 C1675 0.950 . S
H1652 C1676 0.950 1_545 S
H1653 C1677 0.951 . S
H1654 C1679 0.951 . S
H1655 C1681 0.950 . S
H1656 C1682 0.950 . S
H1657 C1684 0.950 . S
H1658 C1687 0.950 . S
H1659 C1688 0.950 . S
H1660 C1690 0.950 . S
H1661 C1691 0.950 . S
C1662 H1644 0.951 . S
C1662 C1663 1.366 . S
C1662 C1664 1.388 . S
C1663 C1662 1.366 . S
C1663 C1667 1.385 . S
C1664 H1645 0.951 1_565 S
C1664 C1662 1.388 . S
C1664 C1665 1.370 . S
C1665 C1664 1.370 . S
C1665 C1666 1.427 . S
C1665 C1668 1.481 1_565 S
C1666 H1646 0.950 . S
C1666 C1665 1.427 . S
C1666 C1667 1.374 . S
C1667 H1647 0.950 . S
C1667 C1663 1.385 . S
C1667 C1666 1.374 . S
C1668 C1665 1.481 1_545 S
C1668 C1669 1.373 . S
C1668 C1670 1.389 . S
C1669 H1648 0.950 . S
C1669 C1668 1.373 . S
C1669 C1685 1.377 . S
C1670 C1668 1.389 . S
C1670 C1671 1.524 1_545 S
C1670 C1684 1.377 . S
C1671 C1670 1.524 1_565 S
C1671 C1672 1.397 . S
C1671 C1676 1.363 . S
C1672 H1649 0.950 . S
C1672 C1671 1.397 . S
C1672 C1673 1.334 . S
C1673 H1650 0.950 . S
C1673 C1672 1.334 . S
C1673 C1674 1.287 . S
C1674 C1673 1.287 . S
C1674 C1675 1.524 . S
C1674 H1693 0.913 . S
C1675 H1651 0.950 . S
C1675 C1674 1.524 . S
C1675 C1676 1.415 . S
C1676 H1652 0.950 1_565 S
C1676 C1671 1.363 . S
C1676 C1675 1.415 . S
C1677 H1653 0.951 . S
C1677 C1678 1.366 . S
C1677 C1679 1.388 . S
C1678 C1677 1.366 . S
C1678 C1682 1.385 . S
C1679 H1654 0.951 . S
C1679 C1677 1.388 . S
C1679 C1680 1.366 . S
C1680 C1679 1.366 . S
C1680 C1681 1.414 . S
C1680 C1683 1.499 . S
C1681 H1655 0.950 . S
C1681 C1680 1.414 . S
C1681 C1682 1.374 . S
C1682 H1656 0.950 . S
C1682 C1678 1.385 . S
C1682 C1681 1.374 . S
C1683 C1680 1.499 . S
C1683 C1684 1.373 . S
C1683 C1685 1.389 . S
C1684 H1657 0.950 . S
C1684 C1670 1.377 . S
C1684 C1683 1.373 . S
C1685 C1669 1.377 . S
C1685 C1683 1.389 . S
C1685 C1686 1.524 . S
C1686 C1685 1.524 . S
C1686 C1687 1.397 . S
C1686 C1691 1.363 . S
C1687 H1658 0.950 . S
C1687 C1686 1.397 . S
C1687 C1688 1.334 . S
C1688 H1659 0.950 . S
C1688 C1687 1.334 . S
C1688 C1689 1.287 . S
C1689 C1688 1.287 . S
C1689 C1690 1.524 . S
C1689 H1692 0.999 . S
C1690 H1660 0.950 . S
C1690 C1689 1.524 . S
C1690 C1691 1.415 . S
C1691 H1661 0.950 . S
C1691 C1686 1.363 . S
C1691 C1690 1.415 . S
H1692 C1689 0.999 . S
H1693 C1674 0.913 . S
H1694 C1712 0.951 . S
H1695 C1714 0.951 . S
H1696 C1716 0.950 . S
H1697 C1717 0.950 1_545 S
H1698 C1719 0.950 . S
H1699 C1722 0.950 1_545 S
H1700 C1723 0.950 . S
H1701 C1725 0.950 . S
H1702 C1726 0.950 . S
H1703 C1727 0.951 . S
H1704 C1729 0.951 . S
H1705 C1731 0.950 . S
H1706 C1732 0.950 . S
H1707 C1734 0.950 . S
H1708 C1737 0.950 . S
H1709 C1738 0.950 . S
H1710 C1740 0.950 . S
H1711 C1741 0.950 . S
C1712 H1694 0.951 . S
C1712 C1713 1.366 . S
C1712 C1714 1.388 . S
C1713 C1712 1.366 . S
C1713 C1717 1.385 . S
C1714 H1695 0.951 . S
C1714 C1712 1.388 . S
C1714 C1715 1.350 1_565 S
C1715 C1714 1.350 1_545 S
C1715 C1716 1.420 . S
C1715 C1718 1.508 . S
C1716 H1696 0.950 . S
C1716 C1715 1.420 . S
C1716 C1717 1.374 1_545 S
C1717 H1697 0.950 1_565 S
C1717 C1713 1.385 . S
C1717 C1716 1.374 1_565 S
C1718 C1715 1.508 . S
C1718 C1719 1.373 . S
C1718 C1720 1.389 . S
C1719 H1698 0.950 . S
C1719 C1718 1.373 . S
C1719 C1735 1.377 . S
C1720 C1718 1.389 . S
C1720 C1721 1.524 1_545 S
C1720 C1734 1.377 . S
C1721 C1720 1.524 1_565 S
C1721 C1722 1.397 . S
C1721 C1726 1.363 . S
C1722 H1699 0.950 1_565 S
C1722 C1721 1.397 . S
C1722 C1723 1.334 . S
C1723 H1700 0.950 . S
C1723 C1722 1.334 . S
C1723 C1724 1.287 . S
C1724 C1723 1.287 . S
C1724 C1725 1.524 . S
C1724 H1743 0.913 . S
C1725 H1701 0.950 . S
C1725 C1724 1.524 . S
C1725 C1726 1.415 . S
C1726 H1702 0.950 . S
C1726 C1721 1.363 . S
C1726 C1725 1.415 . S
C1727 H1703 0.951 . S
C1727 C1728 1.366 . S
C1727 C1729 1.388 . S
C1728 C1727 1.366 . S
C1728 C1732 1.385 . S
C1729 H1704 0.951 . S
C1729 C1727 1.388 . S
C1729 C1730 1.366 . S
C1730 C1729 1.366 . S
C1730 C1731 1.414 . S
C1730 C1733 1.499 . S
C1731 H1705 0.950 . S
C1731 C1730 1.414 . S
C1731 C1732 1.374 . S
C1732 H1706 0.950 . S
C1732 C1728 1.385 . S
C1732 C1731 1.374 . S
C1733 C1730 1.499 . S
C1733 C1734 1.373 . S
C1733 C1735 1.389 . S
C1734 H1707 0.950 . S
C1734 C1720 1.377 . S
C1734 C1733 1.373 . S
C1735 C1719 1.377 . S
C1735 C1733 1.389 . S
C1735 C1736 1.524 . S
C1736 C1735 1.524 . S
C1736 C1737 1.397 . S
C1736 C1741 1.363 . S
C1737 H1708 0.950 . S
C1737 C1736 1.397 . S
C1737 C1738 1.334 . S
C1738 H1709 0.950 . S
C1738 C1737 1.334 . S
C1738 C1739 1.287 . S
C1739 C1738 1.287 . S
C1739 C1740 1.524 . S
C1739 H1742 0.999 . S
C1740 H1710 0.950 . S
C1740 C1739 1.524 . S
C1740 C1741 1.415 . S
C1741 H1711 0.950 . S
C1741 C1736 1.363 . S
C1741 C1740 1.415 . S
H1742 C1739 0.999 . S
H1743 C1724 0.913 . S
H1744 C1762 0.951 . S
H1745 C1764 0.951 . S
H1746 C1766 0.950 . S
H1747 C1767 0.950 . S
H1748 C1769 0.950 . S
H1749 C1772 0.950 . S
H1750 C1773 0.950 . S
H1751 C1775 0.950 . S
H1752 C1776 0.950 . S
H1753 C1777 0.951 . S
H1754 C1779 0.951 . S
H1755 C1781 0.950 . S
H1756 C1782 0.950 . S
H1757 C1784 0.950 . S
H1758 C1787 0.950 . S
H1759 C1788 0.950 . S
H1760 C1790 0.950 . S
H1761 C1791 0.950 . S
C1762 H1744 0.951 . S
C1762 C1763 1.366 . S
C1762 C1764 1.388 . S
C1763 C1762 1.366 . S
C1763 C1767 1.385 . S
C1764 H1745 0.951 . S
C1764 C1762 1.388 . S
C1764 C1765 1.366 . S
C1765 C1764 1.366 . S
C1765 C1766 1.414 . S
C1765 C1768 1.499 . S
C1766 H1746 0.950 . S
C1766 C1765 1.414 . S
C1766 C1767 1.374 . S
C1767 H1747 0.950 . S
C1767 C1763 1.385 . S
C1767 C1766 1.374 . S
C1768 C1765 1.499 . S
C1768 C1769 1.373 . S
C1768 C1770 1.389 . S
C1769 H1748 0.950 . S
C1769 C1768 1.373 . S
C1769 C1785 1.377 . S
C1770 C1768 1.389 . S
C1770 C1771 1.524 . S
C1770 C1784 1.377 . S
C1771 C1770 1.524 . S
C1771 C1772 1.397 . S
C1771 C1776 1.363 . S
C1772 H1749 0.950 . S
C1772 C1771 1.397 . S
C1772 C1773 1.334 . S
C1773 H1750 0.950 . S
C1773 C1772 1.334 . S
C1773 C1774 1.287 . S
C1774 C1773 1.287 . S
C1774 C1775 1.524 . S
C1774 H1793 0.913 . S
C1775 H1751 0.950 . S
C1775 C1774 1.524 . S
C1775 C1776 1.415 . S
C1776 H1752 0.950 . S
C1776 C1771 1.363 . S
C1776 C1775 1.415 . S
C1777 H1753 0.951 . S
C1777 C1778 1.366 . S
C1777 C1779 1.388 . S
C1778 C1777 1.366 . S
C1778 C1782 1.385 . S
C1779 H1754 0.951 . S
C1779 C1777 1.388 . S
C1779 C1780 1.366 . S
C1780 C1779 1.366 . S
C1780 C1781 1.414 . S
C1780 C1783 1.499 . S
C1781 H1755 0.950 . S
C1781 C1780 1.414 . S
C1781 C1782 1.374 . S
C1782 H1756 0.950 . S
C1782 C1778 1.385 . S
C1782 C1781 1.374 . S
C1783 C1780 1.499 . S
C1783 C1784 1.373 . S
C1783 C1785 1.389 . S
C1784 H1757 0.950 . S
C1784 C1770 1.377 . S
C1784 C1783 1.373 . S
C1785 C1769 1.377 . S
C1785 C1783 1.389 . S
C1785 C1786 1.524 . S
C1786 C1785 1.524 . S
C1786 C1787 1.397 . S
C1786 C1791 1.363 . S
C1787 H1758 0.950 . S
C1787 C1786 1.397 . S
C1787 C1788 1.334 . S
C1788 H1759 0.950 . S
C1788 C1787 1.334 . S
C1788 C1789 1.287 . S
C1789 C1788 1.287 . S
C1789 C1790 1.524 . S
C1789 H1792 0.999 . S
C1790 H1760 0.950 . S
C1790 C1789 1.524 . S
C1790 C1791 1.415 . S
C1791 H1761 0.950 . S
C1791 C1786 1.363 . S
C1791 C1790 1.415 . S
H1792 C1789 0.999 . S
H1793 C1774 0.913 . S
H1794 C1812 0.951 . S
H1795 C1814 0.951 . S
H1796 C1816 0.950 . S
H1797 C1817 0.950 . S
H1798 C1819 0.950 . S
H1799 C1822 0.950 . S
H1800 C1823 0.950 . S
H1801 C1825 0.950 . S
H1802 C1826 0.950 . S
H1803 C1827 0.951 . S
H1804 C1829 0.951 . S
H1805 C1831 0.950 . S
H1806 C1832 0.950 . S
H1807 C1834 0.950 . S
H1808 C1837 0.950 . S
H1809 C1838 0.950 . S
H1810 C1840 0.950 . S
H1811 C1841 0.950 . S
C1812 H1794 0.951 . S
C1812 C1813 1.366 . S
C1812 C1814 1.388 . S
C1813 C1812 1.366 . S
C1813 C1817 1.385 . S
C1814 H1795 0.951 . S
C1814 C1812 1.388 . S
C1814 C1815 1.366 . S
C1815 C1814 1.366 . S
C1815 C1816 1.414 . S
C1815 C1818 1.499 . S
C1816 H1796 0.950 . S
C1816 C1815 1.414 . S
C1816 C1817 1.374 . S
C1817 H1797 0.950 . S
C1817 C1813 1.385 . S
C1817 C1816 1.374 . S
C1818 C1815 1.499 . S
C1818 C1819 1.373 . S
C1818 C1820 1.389 . S
C1819 H1798 0.950 . S
C1819 C1818 1.373 . S
C1819 C1835 1.377 . S
C1820 C1818 1.389 . S
C1820 C1821 1.524 . S
C1820 C1834 1.377 . S
C1821 C1820 1.524 . S
C1821 C1822 1.397 . S
C1821 C1826 1.363 . S
C1822 H1799 0.950 . S
C1822 C1821 1.397 . S
C1822 C1823 1.334 . S
C1823 H1800 0.950 . S
C1823 C1822 1.334 . S
C1823 C1824 1.287 . S
C1824 C1823 1.287 . S
C1824 C1825 1.524 . S
C1824 H1843 0.913 . S
C1825 H1801 0.950 . S
C1825 C1824 1.524 . S
C1825 C1826 1.415 . S
C1826 H1802 0.950 . S
C1826 C1821 1.363 . S
C1826 C1825 1.415 . S
C1827 H1803 0.951 . S
C1827 C1828 1.366 . S
C1827 C1829 1.388 . S
C1828 C1827 1.366 . S
C1828 C1832 1.385 . S
C1829 H1804 0.951 . S
C1829 C1827 1.388 . S
C1829 C1830 1.366 . S
C1830 C1829 1.366 . S
C1830 C1831 1.414 . S
C1830 C1833 1.499 . S
C1831 H1805 0.950 . S
C1831 C1830 1.414 . S
C1831 C1832 1.374 . S
C1832 H1806 0.950 . S
C1832 C1828 1.385 . S
C1832 C1831 1.374 . S
C1833 C1830 1.499 . S
C1833 C1834 1.373 . S
C1833 C1835 1.389 . S
C1834 H1807 0.950 . S
C1834 C1820 1.377 . S
C1834 C1833 1.373 . S
C1835 C1819 1.377 . S
C1835 C1833 1.389 . S
C1835 C1836 1.524 . S
C1836 C1835 1.524 . S
C1836 C1837 1.397 . S
C1836 C1841 1.363 . S
C1837 H1808 0.950 . S
C1837 C1836 1.397 . S
C1837 C1838 1.334 . S
C1838 H1809 0.950 . S
C1838 C1837 1.334 . S
C1838 C1839 1.287 . S
C1839 C1838 1.287 . S
C1839 C1840 1.524 . S
C1839 H1842 0.999 . S
C1840 H1810 0.950 . S
C1840 C1839 1.524 . S
C1840 C1841 1.415 . S
C1841 H1811 0.950 . S
C1841 C1836 1.363 . S
C1841 C1840 1.415 . S
H1842 C1839 0.999 . S
H1843 C1824 0.913 . S
H1844 C1862 0.951 . S
H1845 C1864 0.951 . S
H1846 C1866 0.950 . S
H1847 C1867 0.950 . S
H1848 C1869 0.950 . S
H1849 C1872 0.950 . S
H1850 C1873 0.950 . S
H1851 C1875 0.950 . S
H1852 C1876 0.950 . S
H1853 C1877 0.951 . S
H1854 C1879 0.951 . S
H1855 C1881 0.950 . S
H1856 C1882 0.950 . S
H1857 C1884 0.950 . S
H1858 C1887 0.950 . S
H1859 C1888 0.950 . S
H1860 C1890 0.950 . S
H1861 C1891 0.950 . S
C1862 H1844 0.951 . S
C1862 C1863 1.366 . S
C1862 C1864 1.388 . S
C1863 C1862 1.366 . S
C1863 C1867 1.385 . S
C1864 H1845 0.951 . S
C1864 C1862 1.388 . S
C1864 C1865 1.366 . S
C1865 C1864 1.366 . S
C1865 C1866 1.414 . S
C1865 C1868 1.499 . S
C1866 H1846 0.950 . S
C1866 C1865 1.414 . S
C1866 C1867 1.374 . S
C1867 H1847 0.950 . S
C1867 C1863 1.385 . S
C1867 C1866 1.374 . S
C1868 C1865 1.499 . S
C1868 C1869 1.373 . S
C1868 C1870 1.389 . S
C1869 H1848 0.950 . S
C1869 C1868 1.373 . S
C1869 C1885 1.377 . S
C1870 C1868 1.389 . S
C1870 C1871 1.524 . S
C1870 C1884 1.377 . S
C1871 C1870 1.524 . S
C1871 C1872 1.397 . S
C1871 C1876 1.363 . S
C1872 H1849 0.950 . S
C1872 C1871 1.397 . S
C1872 C1873 1.334 . S
C1873 H1850 0.950 . S
C1873 C1872 1.334 . S
C1873 C1874 1.287 . S
C1874 C1873 1.287 . S
C1874 C1875 1.524 . S
C1874 H1893 0.913 . S
C1875 H1851 0.950 . S
C1875 C1874 1.524 . S
C1875 C1876 1.415 . S
C1876 H1852 0.950 . S
C1876 C1871 1.363 . S
C1876 C1875 1.415 . S
C1877 H1853 0.951 . S
C1877 C1878 1.366 . S
C1877 C1879 1.388 . S
C1878 C1877 1.366 . S
C1878 C1882 1.385 . S
C1879 H1854 0.951 . S
C1879 C1877 1.388 . S
C1879 C1880 1.366 . S
C1880 C1879 1.366 . S
C1880 C1881 1.414 . S
C1880 C1883 1.499 . S
C1881 H1855 0.950 . S
C1881 C1880 1.414 . S
C1881 C1882 1.374 . S
C1882 H1856 0.950 . S
C1882 C1878 1.385 . S
C1882 C1881 1.374 . S
C1883 C1880 1.499 . S
C1883 C1884 1.373 . S
C1883 C1885 1.389 . S
C1884 H1857 0.950 . S
C1884 C1870 1.377 . S
C1884 C1883 1.373 . S
C1885 C1869 1.377 . S
C1885 C1883 1.389 . S
C1885 C1886 1.524 . S
C1886 C1885 1.524 . S
C1886 C1887 1.397 . S
C1886 C1891 1.363 . S
C1887 H1858 0.950 . S
C1887 C1886 1.397 . S
C1887 C1888 1.334 . S
C1888 H1859 0.950 . S
C1888 C1887 1.334 . S
C1888 C1889 1.287 . S
C1889 C1888 1.287 . S
C1889 C1890 1.524 . S
C1889 H1892 0.999 . S
C1890 H1860 0.950 . S
C1890 C1889 1.524 . S
C1890 C1891 1.415 . S
C1891 H1861 0.950 . S
C1891 C1886 1.363 . S
C1891 C1890 1.415 . S
H1892 C1889 0.999 . S
H1893 C1874 0.913 . S
H1894 C1912 0.951 . S
H1895 C1914 0.951 . S
H1896 C1916 0.950 . S
H1897 C1917 0.950 . S
H1898 C1919 0.950 . S
H1899 C1922 0.950 . S
H1900 C1923 0.950 . S
H1901 C1925 0.950 . S
H1902 C1926 0.950 . S
H1903 C1927 0.951 . S
H1904 C1929 0.951 . S
H1905 C1931 0.950 . S
H1906 C1932 0.950 . S
H1907 C1934 0.950 . S
H1908 C1937 0.950 . S
H1909 C1938 0.950 . S
H1910 C1940 0.950 . S
H1911 C1941 0.950 . S
C1912 H1894 0.951 . S
C1912 C1913 1.366 . S
C1912 C1914 1.388 . S
C1913 C1912 1.366 . S
C1913 C1917 1.385 . S
C1914 H1895 0.951 . S
C1914 C1912 1.388 . S
C1914 C1915 1.366 . S
C1915 C1914 1.366 . S
C1915 C1916 1.414 . S
C1915 C1918 1.499 . S
C1916 H1896 0.950 . S
C1916 C1915 1.414 . S
C1916 C1917 1.374 . S
C1917 H1897 0.950 . S
C1917 C1913 1.385 . S
C1917 C1916 1.374 . S
C1918 C1915 1.499 . S
C1918 C1919 1.373 . S
C1918 C1920 1.389 . S
C1919 H1898 0.950 . S
C1919 C1918 1.373 . S
C1919 C1935 1.377 . S
C1920 C1918 1.389 . S
C1920 C1921 1.524 . S
C1920 C1934 1.377 . S
C1921 C1920 1.524 . S
C1921 C1922 1.397 . S
C1921 C1926 1.363 . S
C1922 H1899 0.950 . S
C1922 C1921 1.397 . S
C1922 C1923 1.334 . S
C1923 H1900 0.950 . S
C1923 C1922 1.334 . S
C1923 C1924 1.287 . S
C1924 C1923 1.287 . S
C1924 C1925 1.524 . S
C1924 H1943 0.913 . S
C1925 H1901 0.950 . S
C1925 C1924 1.524 . S
C1925 C1926 1.415 . S
C1926 H1902 0.950 . S
C1926 C1921 1.363 . S
C1926 C1925 1.415 . S
C1927 H1903 0.951 . S
C1927 C1928 1.366 . S
C1927 C1929 1.388 . S
C1928 C1927 1.366 . S
C1928 C1932 1.385 . S
C1929 H1904 0.951 . S
C1929 C1927 1.388 . S
C1929 C1930 1.366 . S
C1930 C1929 1.366 . S
C1930 C1931 1.414 . S
C1930 C1933 1.499 . S
C1931 H1905 0.950 . S
C1931 C1930 1.414 . S
C1931 C1932 1.374 . S
C1932 H1906 0.950 . S
C1932 C1928 1.385 . S
C1932 C1931 1.374 . S
C1933 C1930 1.499 . S
C1933 C1934 1.373 . S
C1933 C1935 1.389 . S
C1934 H1907 0.950 . S
C1934 C1920 1.377 . S
C1934 C1933 1.373 . S
C1935 C1919 1.377 . S
C1935 C1933 1.389 . S
C1935 C1936 1.524 . S
C1936 C1935 1.524 . S
C1936 C1937 1.397 . S
C1936 C1941 1.363 . S
C1937 H1908 0.950 . S
C1937 C1936 1.397 . S
C1937 C1938 1.334 . S
C1938 H1909 0.950 . S
C1938 C1937 1.334 . S
C1938 C1939 1.287 . S
C1939 C1938 1.287 . S
C1939 C1940 1.524 . S
C1939 H1942 0.999 . S
C1940 H1910 0.950 . S
C1940 C1939 1.524 . S
C1940 C1941 1.415 . S
C1941 H1911 0.950 . S
C1941 C1936 1.363 . S
C1941 C1940 1.415 . S
H1942 C1939 0.999 . S
H1943 C1924 0.913 . S
H1944 C1962 0.951 . S
H1945 C1964 0.951 . S
H1946 C1966 0.950 . S
H1947 C1967 0.950 . S
H1948 C1969 0.950 . S
H1949 C1972 0.950 . S
H1950 C1973 0.950 . S
H1951 C1975 0.950 . S
H1952 C1976 0.950 . S
H1953 C1977 0.951 . S
H1954 C1979 0.951 . S
H1955 C1981 0.950 . S
H1956 C1982 0.950 . S
H1957 C1984 0.950 . S
H1958 C1987 0.950 . S
H1959 C1988 0.950 . S
H1960 C1990 0.950 . S
H1961 C1991 0.950 . S
C1962 H1944 0.951 . S
C1962 C1963 1.366 . S
C1962 C1964 1.388 . S
C1963 C1962 1.366 . S
C1963 C1967 1.385 . S
C1964 H1945 0.951 . S
C1964 C1962 1.388 . S
C1964 C1965 1.366 . S
C1965 C1964 1.366 . S
C1965 C1966 1.414 . S
C1965 C1968 1.499 . S
C1966 H1946 0.950 . S
C1966 C1965 1.414 . S
C1966 C1967 1.374 . S
C1967 H1947 0.950 . S
C1967 C1963 1.385 . S
C1967 C1966 1.374 . S
C1968 C1965 1.499 . S
C1968 C1969 1.373 . S
C1968 C1970 1.389 . S
C1969 H1948 0.950 . S
C1969 C1968 1.373 . S
C1969 C1985 1.377 . S
C1970 C1968 1.389 . S
C1970 C1971 1.524 . S
C1970 C1984 1.377 . S
C1971 C1970 1.524 . S
C1971 C1972 1.397 . S
C1971 C1976 1.363 . S
C1972 H1949 0.950 . S
C1972 C1971 1.397 . S
C1972 C1973 1.334 . S
C1973 H1950 0.950 . S
C1973 C1972 1.334 . S
C1973 C1974 1.287 . S
C1974 C1973 1.287 . S
C1974 C1975 1.524 . S
C1974 H1993 0.913 . S
C1975 H1951 0.950 . S
C1975 C1974 1.524 . S
C1975 C1976 1.415 . S
C1976 H1952 0.950 . S
C1976 C1971 1.363 . S
C1976 C1975 1.415 . S
C1977 H1953 0.951 . S
C1977 C1978 1.366 . S
C1977 C1979 1.388 . S
C1978 C1977 1.366 . S
C1978 C1982 1.385 . S
C1979 H1954 0.951 . S
C1979 C1977 1.388 . S
C1979 C1980 1.366 . S
C1980 C1979 1.366 . S
C1980 C1981 1.414 . S
C1980 C1983 1.499 . S
C1981 H1955 0.950 . S
C1981 C1980 1.414 . S
C1981 C1982 1.374 . S
C1982 H1956 0.950 . S
C1982 C1978 1.385 . S
C1982 C1981 1.374 . S
C1983 C1980 1.499 . S
C1983 C1984 1.373 . S
C1983 C1985 1.389 . S
C1984 H1957 0.950 . S
C1984 C1970 1.377 . S
C1984 C1983 1.373 . S
C1985 C1969 1.377 . S
C1985 C1983 1.389 . S
C1985 C1986 1.524 . S
C1986 C1985 1.524 . S
C1986 C1987 1.397 . S
C1986 C1991 1.363 . S
C1987 H1958 0.950 . S
C1987 C1986 1.397 . S
C1987 C1988 1.334 . S
C1988 H1959 0.950 . S
C1988 C1987 1.334 . S
C1988 C1989 1.287 . S
C1989 C1988 1.287 . S
C1989 C1990 1.524 . S
C1989 H1992 0.999 . S
C1990 H1960 0.950 . S
C1990 C1989 1.524 . S
C1990 C1991 1.415 . S
C1991 H1961 0.950 . S
C1991 C1986 1.363 . S
C1991 C1990 1.415 . S
H1992 C1989 0.999 . S
H1993 C1974 0.913 . S
H1994 C2012 0.951 . S
H1995 C2014 0.951 . S
H1996 C2016 0.950 . S
H1997 C2017 0.950 . S
H1998 C2019 0.950 . S
H1999 C2022 0.950 . S
H2000 C2023 0.950 . S
H2001 C2025 0.950 . S
H2002 C2026 0.950 . S
H2003 C2027 0.951 . S
H2004 C2029 0.951 . S
H2005 C2031 0.950 . S
H2006 C2032 0.950 . S
H2007 C2034 0.950 . S
H2008 C2037 0.950 . S
H2009 C2038 0.950 . S
H2010 C2040 0.950 . S
H2011 C2041 0.950 . S
C2012 H1994 0.951 . S
C2012 C2013 1.366 . S
C2012 C2014 1.388 . S
C2013 C2012 1.366 . S
C2013 C2017 1.385 . S
C2014 H1995 0.951 . S
C2014 C2012 1.388 . S
C2014 C2015 1.366 . S
C2015 C2014 1.366 . S
C2015 C2016 1.414 . S
C2015 C2018 1.499 . S
C2016 H1996 0.950 . S
C2016 C2015 1.414 . S
C2016 C2017 1.374 . S
C2017 H1997 0.950 . S
C2017 C2013 1.385 . S
C2017 C2016 1.374 . S
C2018 C2015 1.499 . S
C2018 C2019 1.373 . S
C2018 C2020 1.389 . S
C2019 H1998 0.950 . S
C2019 C2018 1.373 . S
C2019 C2035 1.377 . S
C2020 C2018 1.389 . S
C2020 C2021 1.524 . S
C2020 C2034 1.377 . S
C2021 C2020 1.524 . S
C2021 C2022 1.397 . S
C2021 C2026 1.363 . S
C2022 H1999 0.950 . S
C2022 C2021 1.397 . S
C2022 C2023 1.334 . S
C2023 H2000 0.950 . S
C2023 C2022 1.334 . S
C2023 C2024 1.287 . S
C2024 C2023 1.287 . S
C2024 C2025 1.524 . S
C2024 H2043 0.913 . S
C2025 H2001 0.950 . S
C2025 C2024 1.524 . S
C2025 C2026 1.415 . S
C2026 H2002 0.950 . S
C2026 C2021 1.363 . S
C2026 C2025 1.415 . S
C2027 H2003 0.951 . S
C2027 C2028 1.366 . S
C2027 C2029 1.388 . S
C2028 C2027 1.366 . S
C2028 C2032 1.385 . S
C2029 H2004 0.951 . S
C2029 C2027 1.388 . S
C2029 C2030 1.366 . S
C2030 C2029 1.366 . S
C2030 C2031 1.414 . S
C2030 C2033 1.499 . S
C2031 H2005 0.950 . S
C2031 C2030 1.414 . S
C2031 C2032 1.374 . S
C2032 H2006 0.950 . S
C2032 C2028 1.385 . S
C2032 C2031 1.374 . S
C2033 C2030 1.499 . S
C2033 C2034 1.373 . S
C2033 C2035 1.389 . S
C2034 H2007 0.950 . S
C2034 C2020 1.377 . S
C2034 C2033 1.373 . S
C2035 C2019 1.377 . S
C2035 C2033 1.389 . S
C2035 C2036 1.524 . S
C2036 C2035 1.524 . S
C2036 C2037 1.397 . S
C2036 C2041 1.363 . S
C2037 H2008 0.950 . S
C2037 C2036 1.397 . S
C2037 C2038 1.334 . S
C2038 H2009 0.950 . S
C2038 C2037 1.334 . S
C2038 C2039 1.287 . S
C2039 C2038 1.287 . S
C2039 C2040 1.524 . S
C2039 H2042 0.999 . S
C2040 H2010 0.950 . S
C2040 C2039 1.524 . S
C2040 C2041 1.415 . S
C2041 H2011 0.950 . S
C2041 C2036 1.363 . S
C2041 C2040 1.415 . S
H2042 C2039 0.999 . S
H2043 C2024 0.913 . S
H2044 C2062 0.951 . S
H2045 C2064 0.951 . S
H2046 C2066 0.950 . S
H2047 C2067 0.950 . S
H2048 C2069 0.950 . S
H2049 C2072 0.950 . S
H2050 C2073 0.950 . S
H2051 C2075 0.950 . S
H2052 C2076 0.950 . S
H2053 C2077 0.951 . S
H2054 C2079 0.951 . S
H2055 C2081 0.950 . S
H2056 C2082 0.950 . S
H2057 C2084 0.950 . S
H2058 C2087 0.950 . S
H2059 C2088 0.950 . S
H2060 C2090 0.950 . S
H2061 C2091 0.950 . S
C2062 H2044 0.951 . S
C2062 C2063 1.366 . S
C2062 C2064 1.388 . S
C2063 C2062 1.366 . S
C2063 C2067 1.385 . S
C2064 H2045 0.951 . S
C2064 C2062 1.388 . S
C2064 C2065 1.366 . S
C2065 C2064 1.366 . S
C2065 C2066 1.414 . S
C2065 C2068 1.499 . S
C2066 H2046 0.950 . S
C2066 C2065 1.414 . S
C2066 C2067 1.374 . S
C2067 H2047 0.950 . S
C2067 C2063 1.385 . S
C2067 C2066 1.374 . S
C2068 C2065 1.499 . S
C2068 C2069 1.373 . S
C2068 C2070 1.389 . S
C2069 H2048 0.950 . S
C2069 C2068 1.373 . S
C2069 C2085 1.377 . S
C2070 C2068 1.389 . S
C2070 C2071 1.524 . S
C2070 C2084 1.377 . S
C2071 C2070 1.524 . S
C2071 C2072 1.397 . S
C2071 C2076 1.363 . S
C2072 H2049 0.950 . S
C2072 C2071 1.397 . S
C2072 C2073 1.334 . S
C2073 H2050 0.950 . S
C2073 C2072 1.334 . S
C2073 C2074 1.287 . S
C2074 C2073 1.287 . S
C2074 C2075 1.524 . S
C2074 H2093 0.913 1_455 S
C2075 H2051 0.950 . S
C2075 C2074 1.524 . S
C2075 C2076 1.415 . S
C2076 H2052 0.950 . S
C2076 C2071 1.363 . S
C2076 C2075 1.415 . S
C2077 H2053 0.951 . S
C2077 C2078 1.366 . S
C2077 C2079 1.388 . S
C2078 C2077 1.366 . S
C2078 C2082 1.385 . S
C2079 H2054 0.951 . S
C2079 C2077 1.388 . S
C2079 C2080 1.366 . S
C2080 C2079 1.366 . S
C2080 C2081 1.414 . S
C2080 C2083 1.499 . S
C2081 H2055 0.950 . S
C2081 C2080 1.414 . S
C2081 C2082 1.374 . S
C2082 H2056 0.950 . S
C2082 C2078 1.385 . S
C2082 C2081 1.374 . S
C2083 C2080 1.499 . S
C2083 C2084 1.373 . S
C2083 C2085 1.389 . S
C2084 H2057 0.950 . S
C2084 C2070 1.377 . S
C2084 C2083 1.373 . S
C2085 C2069 1.377 . S
C2085 C2083 1.389 . S
C2085 C2086 1.524 . S
C2086 C2085 1.524 . S
C2086 C2087 1.397 . S
C2086 C2091 1.363 . S
C2087 H2058 0.950 . S
C2087 C2086 1.397 . S
C2087 C2088 1.334 . S
C2088 H2059 0.950 . S
C2088 C2087 1.334 . S
C2088 C2089 1.287 . S
C2089 C2088 1.287 . S
C2089 C2090 1.524 . S
C2089 H2092 0.999 . S
C2090 H2060 0.950 . S
C2090 C2089 1.524 . S
C2090 C2091 1.415 . S
C2091 H2061 0.950 . S
C2091 C2086 1.363 . S
C2091 C2090 1.415 . S
H2092 C2089 0.999 . S
H2093 C2074 0.913 1_655 S
H2094 C2112 0.951 . S
H2095 C2114 0.951 . S
H2096 C2116 0.950 . S
H2097 C2117 0.950 . S
H2098 C2119 0.950 . S
H2099 C2122 0.950 . S
H2100 C2123 0.950 . S
H2101 C2125 0.950 . S
H2102 C2126 0.950 . S
H2103 C2127 0.951 . S
H2104 C2129 0.951 . S
H2105 C2131 0.950 . S
H2106 C2132 0.950 . S
H2107 C2134 0.950 . S
H2108 C2137 0.950 . S
H2109 C2138 0.950 . S
H2110 C2140 0.950 . S
H2111 C2141 0.950 . S
C2112 H2094 0.951 . S
C2112 C2113 1.366 . S
C2112 C2114 1.388 . S
C2113 C2112 1.366 . S
C2113 C2117 1.385 . S
C2114 H2095 0.951 . S
C2114 C2112 1.388 . S
C2114 C2115 1.366 . S
C2115 C2114 1.366 . S
C2115 C2116 1.414 . S
C2115 C2118 1.499 . S
C2116 H2096 0.950 . S
C2116 C2115 1.414 . S
C2116 C2117 1.374 . S
C2117 H2097 0.950 . S
C2117 C2113 1.385 . S
C2117 C2116 1.374 . S
C2118 C2115 1.499 . S
C2118 C2119 1.373 . S
C2118 C2120 1.389 . S
C2119 H2098 0.950 . S
C2119 C2118 1.373 . S
C2119 C2135 1.377 . S
C2120 C2118 1.389 . S
C2120 C2121 1.524 . S
C2120 C2134 1.377 . S
C2121 C2120 1.524 . S
C2121 C2122 1.397 . S
C2121 C2126 1.363 . S
C2122 H2099 0.950 . S
C2122 C2121 1.397 . S
C2122 C2123 1.334 . S
C2123 H2100 0.950 . S
C2123 C2122 1.334 . S
C2123 C2124 1.287 . S
C2124 C2123 1.287 . S
C2124 C2125 1.524 . S
C2124 H2143 0.913 . S
C2125 H2101 0.950 . S
C2125 C2124 1.524 . S
C2125 C2126 1.415 . S
C2126 H2102 0.950 . S
C2126 C2121 1.363 . S
C2126 C2125 1.415 . S
C2127 H2103 0.951 . S
C2127 C2128 1.366 . S
C2127 C2129 1.388 . S
C2128 C2127 1.366 . S
C2128 C2132 1.385 . S
C2129 H2104 0.951 . S
C2129 C2127 1.388 . S
C2129 C2130 1.366 . S
C2130 C2129 1.366 . S
C2130 C2131 1.414 . S
C2130 C2133 1.499 . S
C2131 H2105 0.950 . S
C2131 C2130 1.414 . S
C2131 C2132 1.374 . S
C2132 H2106 0.950 . S
C2132 C2128 1.385 . S
C2132 C2131 1.374 . S
C2133 C2130 1.499 . S
C2133 C2134 1.373 . S
C2133 C2135 1.389 . S
C2134 H2107 0.950 . S
C2134 C2120 1.377 . S
C2134 C2133 1.373 . S
C2135 C2119 1.377 . S
C2135 C2133 1.389 . S
C2135 C2136 1.524 . S
C2136 C2135 1.524 . S
C2136 C2137 1.397 . S
C2136 C2141 1.363 . S
C2137 H2108 0.950 . S
C2137 C2136 1.397 . S
C2137 C2138 1.334 . S
C2138 H2109 0.950 . S
C2138 C2137 1.334 . S
C2138 C2139 1.287 . S
C2139 C2138 1.287 . S
C2139 C2140 1.524 . S
C2139 H2142 0.999 . S
C2140 H2110 0.950 . S
C2140 C2139 1.524 . S
C2140 C2141 1.415 . S
C2141 H2111 0.950 . S
C2141 C2136 1.363 . S
C2141 C2140 1.415 . S
H2142 C2139 0.999 . S
H2143 C2124 0.913 . S
H2144 C2162 0.951 . S
H2145 C2164 0.951 . S
H2146 C2166 0.950 . S
H2147 C2167 0.950 . S
H2148 C2169 0.950 1_655 S
H2149 C2172 0.950 . S
H2150 C2173 0.950 . S
H2151 C2175 0.951 1_655 S
H2152 C2176 0.950 1_655 S
H2153 C2177 0.951 . S
H2154 C2179 0.951 . S
H2155 C2181 0.950 . S
H2156 C2182 0.950 1_655 S
H2157 C2184 0.950 . S
H2158 C2187 0.950 . S
H2159 C2188 0.950 . S
H2160 C2190 0.950 . S
H2161 C2191 0.950 . S
C2162 H2144 0.951 . S
C2162 C2163 1.366 . S
C2162 C2164 1.388 1_545 S
C2163 C2162 1.366 . S
C2163 C2167 1.385 1_655 S
C2164 H2145 0.951 . S
C2164 C2162 1.388 1_565 S
C2164 C2165 1.366 1_655 S
C2165 C2164 1.366 1_455 S
C2165 C2166 1.414 . S
C2165 C2168 1.499 . S
C2166 H2146 0.950 . S
C2166 C2165 1.414 . S
C2166 C2167 1.374 1_565 S
C2167 H2147 0.950 . S
C2167 C2163 1.385 1_455 S
C2167 C2166 1.374 1_545 S
C2168 C2165 1.499 . S
C2168 C2169 1.373 . S
C2168 C2170 1.389 . S
C2169 H2148 0.950 1_455 S
C2169 C2168 1.373 . S
C2169 C2185 1.377 . S
C2170 C2168 1.389 . S
C2170 C2171 1.524 . S
C2170 C2184 1.377 . S
C2171 C2170 1.524 . S
C2171 C2172 1.397 . S
C2171 C2176 1.363 . S
C2172 H2149 0.950 . S
C2172 C2171 1.397 . S
C2172 C2173 1.334 . S
C2173 H2150 0.950 . S
C2173 C2172 1.334 . S
C2173 C2174 1.287 . S
C2174 C2173 1.287 . S
C2174 C2175 1.524 . S
C2174 H2193 0.913 . S
C2175 H2151 0.951 1_455 S
C2175 C2174 1.524 . S
C2175 C2176 1.415 . S
C2176 H2152 0.950 1_455 S
C2176 C2171 1.363 . S
C2176 C2175 1.415 . S
C2177 H2153 0.951 . S
C2177 C2178 1.366 . S
C2177 C2179 1.388 . S
C2178 C2177 1.366 . S
C2178 C2182 1.385 . S
C2179 H2154 0.951 . S
C2179 C2177 1.388 . S
C2179 C2180 1.366 . S
C2180 C2179 1.366 . S
C2180 C2181 1.414 1_455 S
C2180 C2183 1.499 . S
C2181 H2155 0.950 . S
C2181 C2180 1.414 1_655 S
C2181 C2182 1.374 1_655 S
C2182 H2156 0.950 1_455 S
C2182 C2178 1.385 . S
C2182 C2181 1.374 1_455 S
C2183 C2180 1.499 . S
C2183 C2184 1.373 . S
C2183 C2185 1.389 . S
C2184 H2157 0.950 . S
C2184 C2170 1.377 . S
C2184 C2183 1.373 . S
C2185 C2169 1.377 . S
C2185 C2183 1.389 . S
C2185 C2186 1.524 1_455 S
C2186 C2185 1.524 1_655 S
C2186 C2187 1.397 . S
C2186 C2191 1.363 1_655 S
C2187 H2158 0.950 . S
C2187 C2186 1.397 . S
C2187 C2188 1.334 . S
C2188 H2159 0.950 . S
C2188 C2187 1.334 . S
C2188 C2189 1.287 . S
C2189 C2188 1.287 . S
C2189 C2190 1.524 1_655 S
C2189 H2192 0.999 . S
C2190 H2160 0.950 . S
C2190 C2189 1.524 1_455 S
C2190 C2191 1.415 . S
C2191 H2161 0.950 . S
C2191 C2186 1.363 1_455 S
C2191 C2190 1.415 . S
H2192 C2189 0.999 . S
H2193 C2174 0.913 . S
H2194 C2212 0.951 . S
H2195 C2214 0.951 . S
H2196 C2216 0.950 . S
H2197 C2217 0.950 . S
H2198 C2219 0.950 . S
H2199 C2222 0.950 . S
H2200 C2223 0.950 . S
H2201 C2225 0.950 1_545 S
H2202 C2226 0.950 . S
H2203 C2227 0.951 . S
H2204 C2229 0.951 . S
H2205 C2231 0.950 . S
H2206 C2232 0.950 . S
H2207 C2234 0.950 . S
H2208 C2237 0.950 . S
H2209 C2238 0.950 . S
H2210 C2240 0.950 . S
H2211 C2241 0.950 . S
C2212 H2194 0.951 . S
C2212 C2213 1.366 . S
C2212 C2214 1.388 . S
C2213 C2212 1.366 . S
C2213 C2217 1.385 . S
C2214 H2195 0.951 . S
C2214 C2212 1.388 . S
C2214 C2215 1.366 . S
C2215 C2214 1.366 . S
C2215 C2216 1.414 . S
C2215 C2218 1.499 . S
C2216 H2196 0.950 . S
C2216 C2215 1.414 . S
C2216 C2217 1.374 . S
C2217 H2197 0.950 . S
C2217 C2213 1.385 . S
C2217 C2216 1.374 . S
C2218 C2215 1.499 . S
C2218 C2219 1.373 . S
C2218 C2220 1.389 . S
C2219 H2198 0.950 . S
C2219 C2218 1.373 . S
C2219 C2235 1.377 . S
C2220 C2218 1.389 . S
C2220 C2221 1.524 . S
C2220 C2234 1.377 . S
C2221 C2220 1.524 . S
C2221 C2222 1.397 . S
C2221 C2226 1.363 . S
C2222 H2199 0.950 . S
C2222 C2221 1.397 . S
C2222 C2223 1.334 . S
C2223 H2200 0.950 . S
C2223 C2222 1.334 . S
C2223 C2224 1.287 . S
C2224 C2223 1.287 . S
C2224 C2225 1.524 . S
C2224 H2243 0.913 . S
C2225 H2201 0.950 1_565 S
C2225 C2224 1.524 . S
C2225 C2226 1.415 . S
C2226 H2202 0.950 . S
C2226 C2221 1.363 . S
C2226 C2225 1.415 . S
C2227 H2203 0.951 . S
C2227 C2228 1.366 . S
C2227 C2229 1.388 . S
C2228 C2227 1.366 . S
C2228 C2232 1.385 . S
C2229 H2204 0.951 . S
C2229 C2227 1.388 . S
C2229 C2230 1.366 . S
C2230 C2229 1.366 . S
C2230 C2231 1.414 . S
C2230 C2233 1.499 . S
C2231 H2205 0.950 . S
C2231 C2230 1.414 . S
C2231 C2232 1.374 . S
C2232 H2206 0.950 . S
C2232 C2228 1.385 . S
C2232 C2231 1.374 . S
C2233 C2230 1.499 . S
C2233 C2234 1.373 . S
C2233 C2235 1.389 . S
C2234 H2207 0.950 . S
C2234 C2220 1.377 . S
C2234 C2233 1.373 . S
C2235 C2219 1.377 . S
C2235 C2233 1.389 . S
C2235 C2236 1.524 . S
C2236 C2235 1.524 . S
C2236 C2237 1.397 . S
C2236 C2241 1.363 . S
C2237 H2208 0.950 . S
C2237 C2236 1.397 . S
C2237 C2238 1.334 . S
C2238 H2209 0.950 . S
C2238 C2237 1.334 . S
C2238 C2239 1.287 . S
C2239 C2238 1.287 . S
C2239 C2240 1.524 . S
C2239 H2242 0.999 . S
C2240 H2210 0.950 . S
C2240 C2239 1.524 . S
C2240 C2241 1.415 . S
C2241 H2211 0.950 . S
C2241 C2236 1.363 . S
C2241 C2240 1.415 . S
H2242 C2239 0.999 . S
H2243 C2224 0.913 . S
H2244 C2262 0.951 . S
H2245 C2264 0.951 . S
H2246 C2266 0.950 . S
H2247 C2267 0.950 . S
H2248 C2269 0.950 . S
H2249 C2272 0.950 . S
H2250 C2273 0.950 . S
H2251 C2275 0.950 . S
H2252 C2276 0.950 . S
H2253 C2277 0.951 . S
H2254 C2279 0.951 . S
H2255 C2281 0.950 . S
H2256 C2282 0.950 . S
H2257 C2284 0.950 . S
H2258 C2287 0.950 . S
H2259 C2288 0.950 . S
H2260 C2290 0.950 . S
H2261 C2291 0.950 . S
C2262 H2244 0.951 . S
C2262 C2263 1.366 . S
C2262 C2264 1.388 . S
C2263 C2262 1.366 . S
C2263 C2267 1.385 . S
C2264 H2245 0.951 . S
C2264 C2262 1.388 . S
C2264 C2265 1.366 . S
C2265 C2264 1.366 . S
C2265 C2266 1.414 . S
C2265 C2268 1.499 . S
C2266 H2246 0.950 . S
C2266 C2265 1.414 . S
C2266 C2267 1.374 . S
C2267 H2247 0.950 . S
C2267 C2263 1.385 . S
C2267 C2266 1.374 . S
C2268 C2265 1.499 . S
C2268 C2269 1.373 . S
C2268 C2270 1.389 . S
C2269 H2248 0.950 . S
C2269 C2268 1.373 . S
C2269 C2285 1.377 . S
C2270 C2268 1.389 . S
C2270 C2271 1.524 . S
C2270 C2284 1.377 . S
C2271 C2270 1.524 . S
C2271 C2272 1.397 . S
C2271 C2276 1.363 . S
C2272 H2249 0.950 . S
C2272 C2271 1.397 . S
C2272 C2273 1.334 . S
C2273 H2250 0.950 . S
C2273 C2272 1.334 . S
C2273 C2274 1.287 . S
C2274 C2273 1.287 . S
C2274 C2275 1.524 . S
C2274 H2293 0.913 . S
C2275 H2251 0.950 . S
C2275 C2274 1.524 . S
C2275 C2276 1.415 . S
C2276 H2252 0.950 . S
C2276 C2271 1.363 . S
C2276 C2275 1.415 . S
C2277 H2253 0.951 . S
C2277 C2278 1.366 . S
C2277 C2279 1.388 . S
C2278 C2277 1.366 . S
C2278 C2282 1.385 . S
C2279 H2254 0.951 . S
C2279 C2277 1.388 . S
C2279 C2280 1.366 . S
C2280 C2279 1.366 . S
C2280 C2281 1.414 . S
C2280 C2283 1.499 . S
C2281 H2255 0.950 . S
C2281 C2280 1.414 . S
C2281 C2282 1.374 . S
C2282 H2256 0.950 . S
C2282 C2278 1.385 . S
C2282 C2281 1.374 . S
C2283 C2280 1.499 . S
C2283 C2284 1.373 . S
C2283 C2285 1.389 . S
C2284 H2257 0.950 . S
C2284 C2270 1.377 . S
C2284 C2283 1.373 . S
C2285 C2269 1.377 . S
C2285 C2283 1.389 . S
C2285 C2286 1.524 . S
C2286 C2285 1.524 . S
C2286 C2287 1.397 . S
C2286 C2291 1.363 . S
C2287 H2258 0.950 . S
C2287 C2286 1.397 . S
C2287 C2288 1.334 . S
C2288 H2259 0.950 . S
C2288 C2287 1.334 . S
C2288 C2289 1.287 . S
C2289 C2288 1.287 . S
C2289 C2290 1.524 . S
C2289 H2292 0.999 . S
C2290 H2260 0.950 . S
C2290 C2289 1.524 . S
C2290 C2291 1.415 . S
C2291 H2261 0.950 . S
C2291 C2286 1.363 . S
C2291 C2290 1.415 . S
H2292 C2289 0.999 . S
H2293 C2274 0.913 . S
H2294 C2312 0.951 . S
H2295 C2314 0.951 . S
H2296 C2316 0.950 . S
H2297 C2317 0.950 . S
H2298 C2319 0.950 . S
H2299 C2322 0.950 . S
H2300 C2323 0.950 . S
H2301 C2325 0.950 . S
H2302 C2326 0.950 . S
H2303 C2327 0.951 . S
H2304 C2329 0.951 . S
H2305 C2331 0.950 . S
H2306 C2332 0.950 . S
H2307 C2334 0.950 . S
H2308 C2337 0.950 . S
H2309 C2338 0.950 . S
H2310 C2340 0.950 . S
H2311 C2341 0.950 1_455 S
C2312 H2294 0.951 . S
C2312 C2313 1.366 . S
C2312 C2314 1.388 . S
C2313 C2312 1.366 . S
C2313 C2317 1.385 . S
C2314 H2295 0.951 . S
C2314 C2312 1.388 . S
C2314 C2315 1.366 . S
C2315 C2314 1.366 . S
C2315 C2316 1.414 . S
C2315 C2318 1.499 . S
C2316 H2296 0.950 . S
C2316 C2315 1.414 . S
C2316 C2317 1.374 . S
C2317 H2297 0.950 . S
C2317 C2313 1.385 . S
C2317 C2316 1.374 . S
C2318 C2315 1.499 . S
C2318 C2319 1.373 . S
C2318 C2320 1.389 . S
C2319 H2298 0.950 . S
C2319 C2318 1.373 . S
C2319 C2335 1.377 1_455 S
C2320 C2318 1.389 . S
C2320 C2321 1.524 . S
C2320 C2334 1.377 1_455 S
C2321 C2320 1.524 . S
C2321 C2322 1.397 . S
C2321 C2326 1.363 . S
C2322 H2299 0.950 . S
C2322 C2321 1.397 . S
C2322 C2323 1.334 . S
C2323 H2300 0.950 . S
C2323 C2322 1.334 . S
C2323 C2324 1.287 . S
C2324 C2323 1.287 . S
C2324 C2325 1.524 . S
C2324 H2343 0.913 . S
C2325 H2301 0.950 . S
C2325 C2324 1.524 . S
C2325 C2326 1.415 . S
C2326 H2302 0.950 . S
C2326 C2321 1.363 . S
C2326 C2325 1.415 . S
C2327 H2303 0.951 . S
C2327 C2328 1.366 . S
C2327 C2329 1.388 . S
C2328 C2327 1.366 . S
C2328 C2332 1.385 . S
C2329 H2304 0.951 . S
C2329 C2327 1.388 . S
C2329 C2330 1.366 . S
C2330 C2329 1.366 . S
C2330 C2331 1.414 . S
C2330 C2333 1.499 . S
C2331 H2305 0.950 . S
C2331 C2330 1.414 . S
C2331 C2332 1.374 . S
C2332 H2306 0.950 . S
C2332 C2328 1.385 . S
C2332 C2331 1.374 . S
C2333 C2330 1.499 . S
C2333 C2334 1.373 . S
C2333 C2335 1.389 . S
C2334 H2307 0.950 . S
C2334 C2320 1.377 1_655 S
C2334 C2333 1.373 . S
C2335 C2319 1.377 1_655 S
C2335 C2333 1.389 . S
C2335 C2336 1.524 . S
C2336 C2335 1.524 . S
C2336 C2337 1.397 . S
C2336 C2341 1.363 . S
C2337 H2308 0.950 . S
C2337 C2336 1.397 . S
C2337 C2338 1.334 . S
C2338 H2309 0.950 . S
C2338 C2337 1.334 . S
C2338 C2339 1.287 . S
C2339 C2338 1.287 . S
C2339 C2340 1.524 . S
C2339 H2342 0.999 . S
C2340 H2310 0.950 . S
C2340 C2339 1.524 . S
C2340 C2341 1.415 . S
C2341 H2311 0.950 1_655 S
C2341 C2336 1.363 . S
C2341 C2340 1.415 . S
H2342 C2339 0.999 . S
H2343 C2324 0.913 . S
H2344 C2362 0.951 . S
H2345 C2364 0.951 . S
H2346 C2366 0.950 . S
H2347 C2367 0.950 . S
H2348 C2369 0.950 . S
H2349 C2372 0.950 . S
H2350 C2373 0.950 . S
H2351 C2375 0.950 . S
H2352 C2376 0.950 . S
H2353 C2377 0.951 . S
H2354 C2379 0.951 . S
H2355 C2381 0.950 . S
H2356 C2382 0.953 . S
H2357 C2384 0.950 . S
H2358 C2387 0.950 . S
H2359 C2388 0.950 . S
H2360 C2390 0.950 . S
H2361 C2391 0.950 . S
C2362 H2344 0.951 . S
C2362 C2363 1.366 . S
C2362 C2364 1.388 . S
C2363 C2362 1.366 . S
C2363 C2367 1.385 1_655 S
C2364 H2345 0.951 . S
C2364 C2362 1.388 . S
C2364 C2365 1.340 1_655 S
C2365 C2364 1.340 1_455 S
C2365 C2366 1.434 . S
C2365 C2368 1.504 . S
C2366 H2346 0.950 . S
C2366 C2365 1.434 . S
C2366 C2367 1.374 . S
C2367 H2347 0.950 . S
C2367 C2363 1.385 1_455 S
C2367 C2366 1.374 . S
C2368 C2365 1.504 . S
C2368 C2369 1.373 . S
C2368 C2370 1.389 . S
C2369 H2348 0.950 . S
C2369 C2368 1.373 . S
C2369 C2385 1.377 . S
C2370 C2368 1.389 . S
C2370 C2371 1.524 . S
C2370 C2384 1.377 . S
C2371 C2370 1.524 . S
C2371 C2372 1.397 . S
C2371 C2376 1.363 1_455 S
C2372 H2349 0.950 . S
C2372 C2371 1.397 . S
C2372 C2373 1.334 . S
C2373 H2350 0.950 . S
C2373 C2372 1.334 . S
C2373 C2374 1.287 . S
C2374 C2373 1.287 . S
C2374 C2375 1.524 1_455 S
C2374 H2393 0.913 . S
C2375 H2351 0.950 . S
C2375 C2374 1.524 1_655 S
C2375 C2376 1.415 . S
C2376 H2352 0.950 . S
C2376 C2371 1.363 1_655 S
C2376 C2375 1.415 . S
C2377 H2353 0.951 . S
C2377 C2378 1.366 . S
C2377 C2379 1.388 . S
C2378 C2377 1.366 . S
C2378 C2382 1.381 1_455 S
C2379 H2354 0.951 . S
C2379 C2377 1.388 . S
C2379 C2380 1.366 . S
C2380 C2379 1.366 . S
C2380 C2381 1.414 1_455 S
C2380 C2383 1.499 . S
C2381 H2355 0.950 . S
C2381 C2380 1.414 1_655 S
C2381 C2382 1.374 . S
C2382 H2356 0.953 . S
C2382 C2378 1.381 1_655 S
C2382 C2381 1.374 . S
C2383 C2380 1.499 . S
C2383 C2384 1.373 . S
C2383 C2385 1.389 . S
C2384 H2357 0.950 . S
C2384 C2370 1.377 . S
C2384 C2383 1.373 . S
C2385 C2369 1.377 . S
C2385 C2383 1.389 . S
C2385 C2386 1.524 . S
C2386 C2385 1.524 . S
C2386 C2387 1.397 1_455 S
C2386 C2391 1.363 . S
C2387 H2358 0.950 . S
C2387 C2386 1.397 1_655 S
C2387 C2388 1.334 . S
C2388 H2359 0.950 . S
C2388 C2387 1.334 . S
C2388 C2389 1.287 . S
C2389 C2388 1.287 . S
C2389 C2390 1.524 1_655 S
C2389 H2392 0.999 . S
C2390 H2360 0.950 . S
C2390 C2389 1.524 1_455 S
C2390 C2391 1.415 . S
C2391 H2361 0.950 . S
C2391 C2386 1.363 . S
C2391 C2390 1.415 . S
H2392 C2389 0.999 . S
H2393 C2374 0.913 . S
H2394 C2412 0.951 . S
H2395 C2414 0.951 . S
H2396 C2416 0.950 . S
H2397 C2417 0.950 . S
H2398 C2419 0.950 . S
H2399 C2422 0.950 . S
H2400 C2423 0.950 . S
H2401 C2425 0.950 . S
H2402 C2426 0.950 . S
H2403 C2427 0.951 . S
H2404 C2429 0.951 . S
H2405 C2431 0.950 . S
H2406 C2432 0.950 . S
H2407 C2434 0.950 . S
H2408 C2437 0.950 . S
H2409 C2438 0.950 1_545 S
H2410 C2440 0.950 . S
H2411 C2441 0.945 1_455 S
C2412 H2394 0.951 . S
C2412 C2413 1.366 . S
C2412 C2414 1.388 . S
C2413 C2412 1.366 . S
C2413 C2417 1.385 . S
C2414 H2395 0.951 . S
C2414 C2412 1.388 . S
C2414 C2415 1.366 . S
C2415 C2414 1.366 . S
C2415 C2416 1.414 . S
C2415 C2418 1.499 . S
C2416 H2396 0.950 . S
C2416 C2415 1.414 . S
C2416 C2417 1.374 . S
C2417 H2397 0.950 . S
C2417 C2413 1.385 . S
C2417 C2416 1.374 . S
C2418 C2415 1.499 . S
C2418 C2419 1.373 . S
C2418 C2420 1.389 . S
C2419 H2398 0.950 . S
C2419 C2418 1.373 . S
C2419 C2435 1.377 1_455 S
C2420 C2418 1.389 . S
C2420 C2421 1.524 . S
C2420 C2434 1.377 1_455 S
C2421 C2420 1.524 . S
C2421 C2422 1.397 . S
C2421 C2426 1.363 . S
C2422 H2399 0.950 . S
C2422 C2421 1.397 . S
C2422 C2423 1.334 . S
C2423 H2400 0.950 . S
C2423 C2422 1.334 . S
C2423 C2424 1.287 . S
C2424 C2423 1.287 . S
C2424 C2425 1.524 . S
C2424 H2443 0.913 . S
C2425 H2401 0.950 . S
C2425 C2424 1.524 . S
C2425 C2426 1.415 . S
C2426 H2402 0.950 . S
C2426 C2421 1.363 . S
C2426 C2425 1.415 . S
C2427 H2403 0.951 . S
C2427 C2428 1.366 . S
C2427 C2429 1.388 . S
C2428 C2427 1.366 . S
C2428 C2432 1.385 . S
C2429 H2404 0.951 . S
C2429 C2427 1.388 . S
C2429 C2430 1.366 . S
C2430 C2429 1.366 . S
C2430 C2431 1.414 . S
C2430 C2433 1.499 . S
C2431 H2405 0.950 . S
C2431 C2430 1.414 . S
C2431 C2432 1.374 . S
C2432 H2406 0.950 . S
C2432 C2428 1.385 . S
C2432 C2431 1.374 . S
C2433 C2430 1.499 . S
C2433 C2434 1.373 . S
C2433 C2435 1.389 . S
C2434 H2407 0.950 . S
C2434 C2420 1.377 1_655 S
C2434 C2433 1.373 . S
C2435 C2419 1.377 1_655 S
C2435 C2433 1.389 . S
C2435 C2436 1.524 . S
C2436 C2435 1.524 . S
C2436 C2437 1.397 . S
C2436 C2441 1.363 . S
C2437 H2408 0.950 . S
C2437 C2436 1.397 . S
C2437 C2438 1.334 . S
C2438 H2409 0.950 1_565 S
C2438 C2437 1.334 . S
C2438 C2439 1.287 . S
C2439 C2438 1.287 . S
C2439 C2440 1.524 . S
C2439 H2442 0.999 . S
C2440 H2410 0.950 . S
C2440 C2439 1.524 . S
C2440 C2441 1.415 . S
C2441 H2411 0.945 1_655 S
C2441 C2436 1.363 . S
C2441 C2440 1.415 . S
H2442 C2439 0.999 . S
H2443 C2424 0.913 . S
H2444 C2462 0.951 . S
H2445 C2464 0.951 . S
H2446 C2466 0.950 . S
H2447 C2467 0.950 . S
H2448 C2469 0.950 . S
H2449 C2472 0.950 . S
H2450 C2473 0.950 . S
H2451 C2475 0.950 . S
H2452 C2476 0.950 . S
H2453 C2477 0.951 . S
H2454 C2479 0.951 . S
H2455 C2481 0.950 . S
H2456 C2482 0.950 . S
H2457 C2484 0.950 . S
H2458 C2487 0.950 . S
H2459 C2488 0.950 . S
H2460 C2490 0.950 . S
H2461 C2491 0.950 . S
C2462 H2444 0.951 . S
C2462 C2463 1.366 . S
C2462 C2464 1.388 . S
C2463 C2462 1.366 . S
C2463 C2467 1.385 . S
C2464 H2445 0.951 . S
C2464 C2462 1.388 . S
C2464 C2465 1.366 . S
C2465 C2464 1.366 . S
C2465 C2466 1.414 . S
C2465 C2468 1.499 . S
C2466 H2446 0.950 . S
C2466 C2465 1.414 . S
C2466 C2467 1.374 . S
C2467 H2447 0.950 . S
C2467 C2463 1.385 . S
C2467 C2466 1.374 . S
C2468 C2465 1.499 . S
C2468 C2469 1.373 . S
C2468 C2470 1.389 . S
C2469 H2448 0.950 . S
C2469 C2468 1.373 . S
C2469 C2485 1.377 . S
C2470 C2468 1.389 . S
C2470 C2471 1.524 . S
C2470 C2484 1.377 . S
C2471 C2470 1.524 . S
C2471 C2472 1.397 . S
C2471 C2476 1.363 . S
C2472 H2449 0.950 . S
C2472 C2471 1.397 . S
C2472 C2473 1.334 . S
C2473 H2450 0.950 . S
C2473 C2472 1.334 . S
C2473 C2474 1.287 . S
C2474 C2473 1.287 . S
C2474 C2475 1.524 . S
C2474 H2493 0.913 . S
C2475 H2451 0.950 . S
C2475 C2474 1.524 . S
C2475 C2476 1.415 . S
C2476 H2452 0.950 . S
C2476 C2471 1.363 . S
C2476 C2475 1.415 . S
C2477 H2453 0.951 . S
C2477 C2478 1.366 . S
C2477 C2479 1.388 1_545 S
C2478 C2477 1.366 . S
C2478 C2482 1.385 . S
C2479 H2454 0.951 . S
C2479 C2477 1.388 1_565 S
C2479 C2480 1.366 . S
C2480 C2479 1.366 . S
C2480 C2481 1.414 . S
C2480 C2483 1.499 . S
C2481 H2455 0.950 . S
C2481 C2480 1.414 . S
C2481 C2482 1.374 1_565 S
C2482 H2456 0.950 . S
C2482 C2478 1.385 . S
C2482 C2481 1.374 1_545 S
C2483 C2480 1.499 . S
C2483 C2484 1.373 . S
C2483 C2485 1.389 . S
C2484 H2457 0.950 . S
C2484 C2470 1.377 . S
C2484 C2483 1.373 . S
C2485 C2469 1.377 . S
C2485 C2483 1.389 . S
C2485 C2486 1.524 . S
C2486 C2485 1.524 . S
C2486 C2487 1.397 . S
C2486 C2491 1.363 . S
C2487 H2458 0.950 . S
C2487 C2486 1.397 . S
C2487 C2488 1.334 . S
C2488 H2459 0.950 . S
C2488 C2487 1.334 . S
C2488 C2489 1.287 . S
C2489 C2488 1.287 . S
C2489 C2490 1.524 . S
C2489 H2492 0.999 . S
C2490 H2460 0.950 . S
C2490 C2489 1.524 . S
C2490 C2491 1.415 . S
C2491 H2461 0.950 . S
C2491 C2486 1.363 . S
C2491 C2490 1.415 . S
H2492 C2489 0.999 . S
H2493 C2474 0.913 . S
H2494 C2512 0.951 . S
H2495 C2514 0.951 . S
H2496 C2516 0.950 . S
H2497 C2517 0.950 . S
H2498 C2519 0.950 . S
H2499 C2522 0.950 . S
H2500 C2523 0.950 . S
H2501 C2525 0.950 . S
H2502 C2526 0.950 . S
H2503 C2527 0.951 . S
H2504 C2529 0.951 . S
H2505 C2531 0.950 . S
H2506 C2532 0.950 . S
H2507 C2534 0.950 . S
H2508 C2537 0.950 . S
H2509 C2538 0.950 . S
H2510 C2540 0.950 . S
H2511 C2541 0.950 . S
C2512 H2494 0.951 . S
C2512 C2513 1.366 . S
C2512 C2514 1.388 . S
C2513 C2512 1.366 . S
C2513 C2517 1.385 . S
C2514 H2495 0.951 . S
C2514 C2512 1.388 . S
C2514 C2515 1.366 . S
C2515 C2514 1.366 . S
C2515 C2516 1.414 . S
C2515 C2518 1.499 . S
C2516 H2496 0.950 . S
C2516 C2515 1.414 . S
C2516 C2517 1.374 . S
C2517 H2497 0.950 . S
C2517 C2513 1.385 . S
C2517 C2516 1.374 . S
C2518 C2515 1.499 . S
C2518 C2519 1.373 . S
C2518 C2520 1.389 . S
C2519 H2498 0.950 . S
C2519 C2518 1.373 . S
C2519 C2535 1.377 . S
C2520 C2518 1.389 . S
C2520 C2521 1.524 . S
C2520 C2534 1.377 . S
C2521 C2520 1.524 . S
C2521 C2522 1.397 . S
C2521 C2526 1.363 . S
C2522 H2499 0.950 . S
C2522 C2521 1.397 . S
C2522 C2523 1.334 . S
C2523 H2500 0.950 . S
C2523 C2522 1.334 . S
C2523 C2524 1.287 . S
C2524 C2523 1.287 . S
C2524 C2525 1.524 . S
C2524 H2543 0.913 . S
C2525 H2501 0.950 . S
C2525 C2524 1.524 . S
C2525 C2526 1.415 . S
C2526 H2502 0.950 . S
C2526 C2521 1.363 . S
C2526 C2525 1.415 . S
C2527 H2503 0.951 . S
C2527 C2528 1.366 . S
C2527 C2529 1.388 . S
C2528 C2527 1.366 . S
C2528 C2532 1.385 . S
C2529 H2504 0.951 . S
C2529 C2527 1.388 . S
C2529 C2530 1.366 . S
C2530 C2529 1.366 . S
C2530 C2531 1.414 . S
C2530 C2533 1.499 . S
C2531 H2505 0.950 . S
C2531 C2530 1.414 . S
C2531 C2532 1.374 . S
C2532 H2506 0.950 . S
C2532 C2528 1.385 . S
C2532 C2531 1.374 . S
C2533 C2530 1.499 . S
C2533 C2534 1.373 . S
C2533 C2535 1.389 . S
C2534 H2507 0.950 . S
C2534 C2520 1.377 . S
C2534 C2533 1.373 . S
C2535 C2519 1.377 . S
C2535 C2533 1.389 . S
C2535 C2536 1.524 . S
C2536 C2535 1.524 . S
C2536 C2537 1.397 . S
C2536 C2541 1.363 . S
C2537 H2508 0.950 . S
C2537 C2536 1.397 . S
C2537 C2538 1.334 . S
C2538 H2509 0.950 . S
C2538 C2537 1.334 . S
C2538 C2539 1.287 . S
C2539 C2538 1.287 . S
C2539 C2540 1.524 . S
C2539 H2542 0.999 . S
C2540 H2510 0.950 . S
C2540 C2539 1.524 . S
C2540 C2541 1.415 . S
C2541 H2511 0.950 . S
C2541 C2536 1.363 . S
C2541 C2540 1.415 . S
H2542 C2539 0.999 . S
H2543 C2524 0.913 . S
C563 C451 1.013 . S
C578 C9 1.003 1_655 S
C613 C43 1.014 . S
C628 C383 1.014 . S
C663 C77 1.013 . S
C678 C417 1.013 . S
C713 C111 1.013 . S
C728 C349 1.013 . S
C763 C519 1.013 . S
C778 C145 1.002 1_655 S
C813 C179 1.013 . S
C828 C315 1.013 . S
C863 C213 1.015 . S
C878 C485 1.015 . S
C913 C281 1.015 . S
C928 C247 1.015 . S
C963 C20 1.648 . S
C978 C156 1.648 . S
C1013 C54 1.649 . S
C1028 C190 1.648 . S
C1063 C88 1.648 . S
C1078 C224 1.649 . S
C1113 C258 1.648 . S
C1128 C122 1.649 . S
C1163 C360 1.649 . S
C1178 C292 1.648 . S
C1213 C326 1.648 . S
C1228 C394 1.649 . S
C1263 C496 1.649 . S
C1278 C428 1.648 . S
C1313 C530 1.649 . S
C1328 C462 1.648 . S
C1363 C203 0.784 . S
C1378 C33 0.783 . S
C1413 C67 0.784 . S
C1428 C237 0.783 . S
C1463 C101 0.784 . S
C1478 C271 0.783 . S
C1513 C169 0.782 . S
C1528 C135 0.784 . S
C1563 C138 1.128 . S
C1578 C342 1.127 . S
C1613 C70 1.126 . S
C1628 C274 1.128 . S
C1663 C376 1.127 . S
C1678 C206 1.126 . S
C1713 C308 1.128 . S
C1728 C2 1.127 . S
C1763 C305 0.784 . S
C1778 C441 0.782 . S
C1813 C543 0.784 . S
C1828 C373 0.782 . S
C1863 C475 0.784 . S
C1878 C339 0.782 . S
C1913 C407 0.784 . S
C1928 C509 0.782 . S
C1963 C478 1.126 . S
C1978 C36 1.128 . S
C2013 C172 1.128 . S
C2028 C444 1.127 . S
C2063 C512 1.128 . S
C2078 C104 1.127 . S
C2113 C240 1.128 . S
C2128 C410 1.127 . S
C2163 C5 0.127 . S
C2178 C447 0.123 . S
C2213 C39 0.123 . S
C2228 C379 0.127 . S
C2263 C73 0.126 . S
C2278 C413 0.123 . S
C2313 C107 0.125 . S
C2328 C345 0.127 . S
C2363 C141 0.127 . S
C2378 C515 0.123 . S
C2413 C175 0.124 . S
C2428 C311 0.127 . S
C2463 C481 0.123 . S
C2478 C209 0.126 . S
C2513 C277 0.123 . S
C2528 C243 0.126 . S
