# Generated by pormake.
# Topology ske, (6)-cn, num edge types: 1
# Building blocks:
#     Node 0, Type 0, BuildingBlock: BETGAK_clean_sbu_0, # of connection points: 6
#     Node 1, Type 0, BuildingBlock: BETGAK_clean_sbu_0, # of connection points: 6
#     Node 2, Type 0, BuildingBlock: BETGAK_clean_sbu_0, # of connection points: 6
#     Node 3, Type 0, BuildingBlock: BETGAK_clean_sbu_0, # of connection points: 6
#     Node 4, Type 0, BuildingBlock: BETGAK_clean_sbu_0, # of connection points: 6
#     Node 5, Type 0, BuildingBlock: BETGAK_clean_sbu_0, # of connection points: 6
#     Node 6, Type 0, BuildingBlock: BETGAK_clean_sbu_0, # of connection points: 6
#     Node 7, Type 0, BuildingBlock: BETGAK_clean_sbu_0, # of connection points: 6
#     Edge 8, Type (0, 0), BuildingBlock: ZUJKAS_clean_linker_0, # of connection points: 2
#     Edge 9, Type (0, 0), BuildingBlock: ZUJKAS_clean_linker_0, # of connection points: 2
#     Edge 10, Type (0, 0), BuildingBlock: ZUJKAS_clean_linker_0, # of connection points: 2
#     Edge 11, Type (0, 0), BuildingBlock: ZUJKAS_clean_linker_0, # of connection points: 2
#     Edge 12, Type (0, 0), BuildingBlock: ZUJKAS_clean_linker_0, # of connection points: 2
#     Edge 13, Type (0, 0), BuildingBlock: ZUJKAS_clean_linker_0, # of connection points: 2
#     Edge 14, Type (0, 0), BuildingBlock: ZUJKAS_clean_linker_0, # of connection points: 2
#     Edge 15, Type (0, 0), BuildingBlock: ZUJKAS_clean_linker_0, # of connection points: 2
#     Edge 16, Type (0, 0), BuildingBlock: ZUJKAS_clean_linker_0, # of connection points: 2
#     Edge 17, Type (0, 0), BuildingBlock: ZUJKAS_clean_linker_0, # of connection points: 2
#     Edge 18, Type (0, 0), BuildingBlock: ZUJKAS_clean_linker_0, # of connection points: 2
#     Edge 19, Type (0, 0), BuildingBlock: ZUJKAS_clean_linker_0, # of connection points: 2
#     Edge 20, Type (0, 0), BuildingBlock: ZUJKAS_clean_linker_0, # of connection points: 2
#     Edge 21, Type (0, 0), BuildingBlock: ZUJKAS_clean_linker_0, # of connection points: 2
#     Edge 22, Type (0, 0), BuildingBlock: ZUJKAS_clean_linker_0, # of connection points: 2
#     Edge 23, Type (0, 0), BuildingBlock: ZUJKAS_clean_linker_0, # of connection points: 2
#     Edge 24, Type (0, 0), BuildingBlock: ZUJKAS_clean_linker_0, # of connection points: 2
#     Edge 25, Type (0, 0), BuildingBlock: ZUJKAS_clean_linker_0, # of connection points: 2
#     Edge 26, Type (0, 0), BuildingBlock: ZUJKAS_clean_linker_0, # of connection points: 2
#     Edge 27, Type (0, 0), BuildingBlock: ZUJKAS_clean_linker_0, # of connection points: 2
#     Edge 28, Type (0, 0), BuildingBlock: ZUJKAS_clean_linker_0, # of connection points: 2
#     Edge 29, Type (0, 0), BuildingBlock: ZUJKAS_clean_linker_0, # of connection points: 2
#     Edge 30, Type (0, 0), BuildingBlock: ZUJKAS_clean_linker_0, # of connection points: 2
#     Edge 31, Type (0, 0), BuildingBlock: ZUJKAS_clean_linker_0, # of connection points: 2
# Relax obj value: 0.197
# Max RMSD: 0.199
# Mean RMSD: 0.193
data_MOF--net-ske--node1-BETGAK_clean_sbu_0--edge1-ZUJKAS_clean_linker_0
_symmetry_space_group_name_H-M    P1
_symmetry_Int_Tables_number       1
_symmetry_cell_setting            triclinic
loop_
_symmetry_equiv_pos_as_xyz
'x, y, z'
_cell_length_a     119.42956
_cell_length_b     37.882417
_cell_length_c     19.961247
_cell_angle_alpha  90.194112
_cell_angle_beta   89.982308
_cell_angle_gamma 84.356694
loop_
_atom_site_label
_atom_site_type_symbol
_atom_site_fract_x
_atom_site_fract_y
_atom_site_fract_z
_atom_type_partial_charge
La0 La 0.16347 0.26451 0.549 0.0
La1 La 0.13892 0.25643 0.55707 0.0
C2 C 0.18296 0.28521 0.55773 0.0
C3 C 0.19355 0.28106 0.5971 0.0
C4 C 0.19961 0.24772 0.60698 0.0
C5 C 0.21036 0.2451 0.63595 0.0
C6 C 0.21533 0.27575 0.65561 0.0
C7 C 0.20904 0.30893 0.64793 0.0
C8 C 0.19831 0.31152 0.61892 0.0
C9 C 0.15846 0.19796 0.53732 0.0
C10 C 0.15225 0.25462 0.69112 0.0
C11 C 0.11918 0.2372 0.55259 0.0
C12 C 0.10744 0.24601 0.52883 0.0
C13 C 0.10048 0.27437 0.55696 0.0
C14 C 0.08888 0.2782 0.54421 0.0
C15 C 0.08392 0.25377 0.50309 0.0
C16 C 0.09101 0.22645 0.47241 0.0
C17 C 0.1026 0.22255 0.48538 0.0
C18 C 0.1441 0.32341 0.56336 0.0
C19 C 0.15045 0.26297 0.41441 0.0
O20 O 0.1805 0.25818 0.52163 0.0
O21 O 0.17402 0.30185 0.58571 0.0
O22 O 0.16704 0.21051 0.51005 0.0
O23 O 0.15369 0.22136 0.5756 0.0
O24 O 0.16043 0.26793 0.65775 0.0
O25 O 0.14394 0.24149 0.65881 0.0
O26 O 0.12288 0.2572 0.59945 0.0
O27 O 0.12705 0.22681 0.50916 0.0
O28 O 0.13553 0.3117 0.59214 0.0
O29 O 0.14867 0.29881 0.52751 0.0
O30 O 0.14222 0.25031 0.44869 0.0
O31 O 0.1588 0.27665 0.44566 0.0
H32 H 0.1962 0.2237 0.59043 0.0
H33 H 0.21495 0.21911 0.64048 0.0
H34 H 0.21246 0.33307 0.66357 0.0
H35 H 0.19386 0.33755 0.61168 0.0
H36 H 0.10387 0.29277 0.59129 0.0
H37 H 0.08374 0.29937 0.56937 0.0
H38 H 0.08757 0.20749 0.43947 0.0
H39 H 0.10772 0.20025 0.46348 0.0
La40 La 0.88274 0.26264 0.54775 0.0
La41 La 0.90725 0.27011 0.55705 0.0
C42 C 0.86305 0.24343 0.55611 0.0
C43 C 0.85245 0.2488 0.59543 0.0
C44 C 0.84626 0.28229 0.60061 0.0
C45 C 0.83552 0.2858 0.62966 0.0
C46 C 0.83069 0.25596 0.65432 0.0
C47 C 0.83708 0.22272 0.65124 0.0
C48 C 0.8478 0.21921 0.62196 0.0
C49 C 0.88802 0.32879 0.53564 0.0
C50 C 0.8938 0.27265 0.69053 0.0
C51 C 0.92704 0.28889 0.55305 0.0
C52 C 0.93874 0.28018 0.52852 0.0
C53 C 0.94562 0.25093 0.5538 0.0
C54 C 0.95721 0.24695 0.54065 0.0
C55 C 0.96224 0.27211 0.50195 0.0
C56 C 0.95524 0.3004 0.47406 0.0
C57 C 0.94366 0.30443 0.48743 0.0
C58 C 0.90191 0.20332 0.56354 0.0
C59 C 0.89594 0.26265 0.41378 0.0
O60 O 0.86577 0.26988 0.51964 0.0
O61 O 0.87187 0.22633 0.58435 0.0
O62 O 0.87962 0.31615 0.50648 0.0
O63 O 0.89254 0.30569 0.57505 0.0
O64 O 0.88563 0.25946 0.6567 0.0
O65 O 0.90218 0.28552 0.65861 0.0
O66 O 0.92335 0.26839 0.59886 0.0
O67 O 0.91915 0.29997 0.51042 0.0
O68 O 0.91043 0.21508 0.59291 0.0
O69 O 0.89747 0.22774 0.52716 0.0
O70 O 0.90415 0.2754 0.4483 0.0
O71 O 0.88754 0.24928 0.44491 0.0
H72 H 0.84958 0.30569 0.58064 0.0
H73 H 0.83093 0.31189 0.63209 0.0
H74 H 0.83362 0.19909 0.66903 0.0
H75 H 0.85232 0.19304 0.61798 0.0
H76 H 0.94216 0.23188 0.58627 0.0
H77 H 0.96228 0.22502 0.56365 0.0
H78 H 0.95875 0.31996 0.44302 0.0
H79 H 0.93861 0.32741 0.46778 0.0
La80 La 0.13813 0.75662 0.49175 0.0
La81 La 0.16267 0.76525 0.49944 0.0
C82 C 0.11865 0.7356 0.49616 0.0
C83 C 0.10701 0.74169 0.52257 0.0
C84 C 0.10074 0.77507 0.51894 0.0
C85 C 0.08912 0.77849 0.53171 0.0
C86 C 0.08352 0.7486 0.54794 0.0
C87 C 0.08997 0.71564 0.5549 0.0
C88 C 0.10155 0.71227 0.54229 0.0
C89 C 0.14303 0.82375 0.48535 0.0
C90 C 0.14963 0.76474 0.63425 0.0
C91 C 0.18223 0.78531 0.49057 0.0
C92 C 0.19277 0.78072 0.45067 0.0
C93 C 0.19843 0.74703 0.43786 0.0
C94 C 0.20913 0.74374 0.40823 0.0
C95 C 0.21443 0.77403 0.3906 0.0
C96 C 0.20855 0.80764 0.40133 0.0
C97 C 0.19787 0.8109 0.43114 0.0
C98 C 0.15759 0.69878 0.51104 0.0
C99 C 0.15137 0.75568 0.35725 0.0
O100 O 0.12182 0.75845 0.45295 0.0
O101 O 0.12681 0.72396 0.53656 0.0
O102 O 0.13439 0.8117 0.45779 0.0
O103 O 0.14783 0.79944 0.52076 0.0
O104 O 0.14137 0.75194 0.60033 0.0
O105 O 0.15798 0.77816 0.60266 0.0
O106 O 0.1797 0.75834 0.52625 0.0
O107 O 0.17332 0.80227 0.46315 0.0
O108 O 0.16599 0.71155 0.53999 0.0
O109 O 0.15299 0.72201 0.4722 0.0
O110 O 0.1596 0.76869 0.3908 0.0
O111 O 0.14303 0.74262 0.38926 0.0
H112 H 0.1047 0.79822 0.5034 0.0
H113 H 0.08444 0.80424 0.52554 0.0
H114 H 0.08599 0.69218 0.56849 0.0
H115 H 0.10618 0.68622 0.54505 0.0
H116 H 0.19472 0.72321 0.4523 0.0
H117 H 0.21332 0.71743 0.3998 0.0
H118 H 0.21237 0.83157 0.38916 0.0
H119 H 0.19374 0.83717 0.44104 0.0
La120 La 0.90727 0.77032 0.49059 0.0
La121 La 0.88271 0.76237 0.49958 0.0
C122 C 0.92685 0.79061 0.49398 0.0
C123 C 0.9384 0.78475 0.52142 0.0
C124 C 0.94395 0.75057 0.52957 0.0
C125 C 0.95551 0.74604 0.54385 0.0
C126 C 0.96178 0.77556 0.54998 0.0
C127 C 0.95603 0.80972 0.54462 0.0
C128 C 0.94449 0.8142 0.53054 0.0
C129 C 0.90208 0.70351 0.48411 0.0
C130 C 0.89591 0.76279 0.63386 0.0
C131 C 0.86309 0.74262 0.49146 0.0
C132 C 0.85263 0.74635 0.45093 0.0
C133 C 0.84706 0.77974 0.43522 0.0
C134 C 0.83639 0.78244 0.40516 0.0
C135 C 0.83105 0.75183 0.39001 0.0
C136 C 0.83685 0.71846 0.40364 0.0
C137 C 0.84749 0.7158 0.43386 0.0
C138 C 0.88799 0.8286 0.51135 0.0
C139 C 0.89389 0.77147 0.35683 0.0
O140 O 0.92369 0.76661 0.45286 0.0
O141 O 0.91865 0.80363 0.53307 0.0
O142 O 0.9106 0.71525 0.45479 0.0
O143 O 0.89751 0.72798 0.52034 0.0
O144 O 0.90425 0.77485 0.59956 0.0
O145 O 0.8874 0.74996 0.60272 0.0
O146 O 0.86563 0.77043 0.52504 0.0
O147 O 0.87202 0.72475 0.46573 0.0
O148 O 0.87961 0.81606 0.54092 0.0
O149 O 0.89247 0.80525 0.47198 0.0
O150 O 0.88565 0.75876 0.39069 0.0
O151 O 0.90231 0.78432 0.38851 0.0
H152 H 0.93944 0.72736 0.52259 0.0
H153 H 0.95958 0.71934 0.54876 0.0
H154 H 0.96052 0.83313 0.54805 0.0
H155 H 0.94043 0.8408 0.52364 0.0
H156 H 0.8508 0.80383 0.44772 0.0
H157 H 0.83227 0.80856 0.39448 0.0
H158 H 0.83299 0.69432 0.39343 0.0
H159 H 0.85154 0.68975 0.44603 0.0
La160 La 0.66398 0.76494 0.04053 0.0
La161 La 0.63915 0.76404 0.04541 0.0
C162 C 0.68401 0.78085 0.0521 0.0
C163 C 0.69433 0.77622 0.09387 0.0
C164 C 0.69986 0.74251 0.10765 0.0
C165 C 0.71047 0.73919 0.13856 0.0
C166 C 0.71579 0.76946 0.15638 0.0
C167 C 0.71002 0.80309 0.14465 0.0
C168 C 0.69945 0.80638 0.11369 0.0
C169 C 0.6572 0.70109 0.02402 0.0
C170 C 0.65153 0.76 0.18268 0.0
C171 C 0.61859 0.75603 0.03291 0.0
C172 C 0.60638 0.75258 0.02472 0.0
C173 C 0.59916 0.78145 1.00131 0.0
C174 C 0.58756 0.7793 0.99669 0.0
C175 C 0.58282 0.7482 1.01531 0.0
C176 C 0.59008 0.71912 0.03809 0.0
C177 C 0.60173 0.72129 0.0427 0.0
C178 C 0.64658 0.82739 0.06062 0.0
C179 C 0.65154 0.76554 0.90554 0.0
O180 O 0.68114 0.75328 1.01901 0.0
O181 O 0.67524 0.80042 0.07588 0.0
O182 O 0.66605 0.7119 0.99661 0.0
O183 O 0.65296 0.72472 0.06383 0.0
O184 O 0.66083 0.76539 0.14937 0.0
O185 O 0.64202 0.75541 0.15149 0.0
O186 O 0.62298 0.78509 1.01666 0.0
O187 O 0.62592 0.73072 0.05508 0.0
O188 O 0.63828 0.81637 0.09356 0.0
O189 O 0.65024 0.80347 1.02006 0.0
O190 O 0.64326 0.75299 0.93938 0.0
O191 O 0.65987 0.7788 0.93743 0.0
H192 H 0.69616 0.71869 0.09293 0.0
H193 H 0.71456 0.71287 0.1477 0.0
H194 H 0.71387 0.82702 0.15683 0.0
H195 H 0.69544 0.83267 0.10295 0.0
H196 H 0.60245 0.80606 0.98744 0.0
H197 H 0.58226 0.80245 0.97997 0.0
H198 H 0.58677 0.69459 0.05216 0.0
H199 H 0.60706 0.69859 0.06098 0.0
La200 La 0.38168 0.76282 0.05229 0.0
La201 La 0.40623 0.77093 0.05987 0.0
C202 C 0.36219 0.74218 0.06134 0.0
C203 C 0.35163 0.74683 0.10097 0.0
C204 C 0.34598 0.78055 0.11366 0.0
C205 C 0.33527 0.78388 0.14325 0.0
C206 C 0.32997 0.75362 0.16094 0.0
C207 C 0.33584 0.71999 0.15028 0.0
C208 C 0.34652 0.71668 0.12052 0.0
C209 C 0.38668 0.82935 0.04068 0.0
C210 C 0.39295 0.77297 0.19418 0.0
C211 C 0.42594 0.79029 0.05533 0.0
C212 C 0.43767 0.78058 0.03304 0.0
C213 C 0.44316 0.74649 0.04357 0.0
C214 C 0.45481 0.73988 0.03368 0.0
C215 C 0.46123 0.7672 1.01306 0.0
C216 C 0.45558 0.80082 0.99953 0.0
C217 C 0.44396 0.8074 1.00954 0.0
C218 C 0.40108 0.70391 0.06577 0.0
C219 C 0.3946 0.76442 0.91753 0.0
O220 O 0.36467 0.76893 0.02483 0.0
O221 O 0.37112 0.72573 0.08947 0.0
O222 O 0.37808 0.81675 1.01362 0.0
O223 O 0.39146 0.80605 0.07877 0.0
O224 O 0.38477 0.75953 0.16093 0.0
O225 O 0.40123 0.78615 0.16172 0.0
O226 O 0.42215 0.77135 0.10326 0.0
O227 O 0.41821 0.79938 1.01046 0.0
O228 O 0.40968 0.71568 0.09423 0.0
O229 O 0.39647 0.72846 0.03027 0.0
O230 O 0.4028 0.77739 0.95177 0.0
O231 O 0.38634 0.75043 0.94887 0.0
H232 H 0.3497 0.80434 0.09922 0.0
H233 H 0.33109 0.8102 0.15162 0.0
H234 H 0.33201 0.69608 0.16249 0.0
H235 H 0.35064 0.69039 0.11072 0.0
H236 H 0.43853 0.72527 0.06181 0.0
H237 H 0.45882 0.71353 0.04352 0.0
H238 H 0.46022 0.82262 0.9843 0.0
H239 H 0.43995 0.834 1.00183 0.0
La240 La 0.63897 0.25917 0.98412 0.0
La241 La 0.66336 0.26909 0.9929 0.0
C242 C 0.61939 0.23867 0.98927 0.0
C243 C 0.60748 0.24899 1.00848 0.0
C244 C 0.60093 0.27634 0.9749 0.0
C245 C 0.58926 0.28141 0.98447 0.0
C246 C 0.58383 0.25935 0.0279 0.0
C247 C 0.59047 0.23314 0.06393 0.0
C248 C 0.60214 0.22792 0.05403 0.0
C249 C 0.64354 0.32664 0.97764 0.0
C250 C 0.65037 0.26689 0.12671 0.0
C251 C 0.68281 0.29006 0.9841 0.0
C252 C 0.69346 0.28439 0.9454 0.0
C253 C 0.69954 0.25074 0.94016 0.0
C254 C 0.71029 0.2469 0.91123 0.0
C255 C 0.71523 0.27657 0.8867 0.0
C256 C 0.70895 0.30999 0.88989 0.0
C257 C 0.69822 0.31383 0.91908 0.0
C258 C 0.65873 0.20226 1.00544 0.0
C259 C 0.65237 0.25778 0.85045 0.0
O260 O 0.62339 0.25502 0.93845 0.0
O261 O 0.62692 0.23227 0.03639 0.0
O262 O 0.63506 0.31412 0.9493 0.0
O263 O 0.64834 0.30262 1.01354 0.0
O264 O 0.6425 0.25243 0.09214 0.0
O265 O 0.65838 0.2822 0.09552 0.0
O266 O 0.68025 0.26426 1.02276 0.0
O267 O 0.67393 0.30572 0.95408 0.0
O268 O 0.66708 0.21565 0.03369 0.0
O269 O 0.65399 0.225 0.96622 0.0
O270 O 0.66037 0.27195 0.88407 0.0
O271 O 0.64417 0.24399 0.88259 0.0
H272 H 0.60473 0.29305 0.93925 0.0
H273 H 0.58444 0.30221 0.95671 0.0
H274 H 0.58658 0.21549 0.09739 0.0
H275 H 0.60694 0.20634 0.0799 0.0
H276 H 0.69612 0.22746 0.95992 0.0
H277 H 0.7148 0.22069 0.90872 0.0
H278 H 0.71249 0.33349 0.8722 0.0
H279 H 0.69378 0.34011 0.92304 0.0
La280 La 0.40717 0.27011 0.98851 0.0
La281 La 0.38266 0.26192 0.99659 0.0
C282 C 0.42685 0.28984 0.99364 0.0
C283 C 0.43875 0.27961 1.01307 0.0
C284 C 0.44538 0.25251 0.97887 0.0
C285 C 0.45705 0.24774 0.98832 0.0
C286 C 0.46241 0.26987 0.03223 0.0
C287 C 0.4557 0.29577 0.06894 0.0
C288 C 0.44402 0.30068 0.05917 0.0
C289 C 0.40223 0.20291 0.9819 0.0
C290 C 0.3956 0.26353 0.13082 0.0
C291 C 0.36306 0.242 0.98804 0.0
C292 C 0.35252 0.24612 0.94819 0.0
C293 C 0.34647 0.27946 0.93813 0.0
C294 C 0.33574 0.28206 0.90878 0.0
C295 C 0.3308 0.2514 0.88892 0.0
C296 C 0.33709 0.21823 0.89677 0.0
C297 C 0.34778 0.21566 0.92617 0.0
C298 C 0.3878 0.32833 1.00978 0.0
C299 C 0.39382 0.27194 0.85443 0.0
O300 O 0.42285 0.27304 0.9432 0.0
O301 O 0.4193 0.29696 0.04051 0.0
O302 O 0.41091 0.21483 0.95475 0.0
O303 O 0.39746 0.22738 1.01731 0.0
O304 O 0.40366 0.27709 0.09653 0.0
O305 O 0.38742 0.24907 0.09946 0.0
O306 O 0.36561 0.26928 0.02315 0.0
O307 O 0.37198 0.22469 0.96101 0.0
O308 O 0.3794 0.3155 0.03848 0.0
O309 O 0.39238 0.30521 0.9703 0.0
O310 O 0.38564 0.2587 0.88784 0.0
O311 O 0.40216 0.28496 0.8867 0.0
H312 H 0.44163 0.23582 0.94273 0.0
H313 H 0.46193 0.22719 0.96 0.0
H314 H 0.45953 0.31346 0.10278 0.0
H315 H 0.43917 0.32209 0.0855 0.0
H316 H 0.34985 0.30349 0.95484 0.0
H317 H 0.33116 0.30804 0.90413 0.0
H318 H 0.33368 0.19408 0.88101 0.0
H319 H 0.35224 0.18963 0.93355 0.0
H320 H 0.23162 0.32017 0.62912 0.0
H321 H 0.25106 0.31563 0.66875 0.0
H322 H 0.24552 0.22125 0.77891 0.0
H323 H 0.226 0.22574 0.74003 0.0
H324 H 0.25963 0.31589 0.79821 0.0
H325 H 0.27364 0.1891 0.66957 0.0
H326 H 0.26057 0.21494 0.64946 0.0
H327 H 0.26156 0.1872 0.72254 0.0
C328 C 0.23447 0.2986 0.66235 0.0
C329 C 0.22717 0.2733 0.68122 0.0
C330 C 0.24564 0.29594 0.68466 0.0
C331 C 0.24985 0.2678 0.72599 0.0
C332 C 0.24257 0.24276 0.74579 0.0
H333 H 0.31449 0.20696 0.91496 0.0
H334 H 0.29507 0.21152 0.87495 0.0
C335 C 0.23138 0.24539 0.72351 0.0
C336 C 0.26179 0.26505 0.74896 0.0
H337 H 0.28655 0.2113 0.7454 0.0
C338 C 0.26553 0.29308 0.78641 0.0
C339 C 0.26951 0.2353 0.73362 0.0
C340 C 0.26618 0.20504 0.69109 0.0
C341 C 0.27667 0.2919 0.80998 0.0
C342 C 0.28439 0.26214 0.79467 0.0
C343 C 0.28065 0.23411 0.75719 0.0
C344 C 0.29633 0.25936 0.81777 0.0
C345 C 0.28 0.32216 0.85251 0.0
C346 C 0.30362 0.28439 0.79811 0.0
C347 C 0.31479 0.28174 0.82062 0.0
C348 C 0.31898 0.25384 0.86299 0.0
C349 C 0.31167 0.22853 0.88168 0.0
C350 C 0.30051 0.23121 0.85915 0.0
H351 H 0.27254 0.33812 0.87396 0.0
H352 H 0.2856 0.31225 0.89419 0.0
H353 H 0.28464 0.33997 0.82109 0.0
H354 H 0.30068 0.3059 0.76496 0.0
H355 H 0.32019 0.3014 0.80423 0.0
H356 H 0.72374 0.30955 0.77794 0.0
H357 H 0.74325 0.30533 0.73854 0.0
H358 H 0.75304 0.23201 0.89758 0.0
H359 H 0.73359 0.23604 0.93719 0.0
H360 H 0.76219 0.32239 0.8043 0.0
H361 H 0.76709 0.17969 0.73622 0.0
H362 H 0.75353 0.2036 0.75263 0.0
H363 H 0.7625 0.18802 0.82092 0.0
C364 C 0.73004 0.29248 0.80453 0.0
C365 C 0.72704 0.27298 0.86059 0.0
C366 C 0.7412 0.29001 0.78179 0.0
C367 C 0.74963 0.26792 0.81434 0.0
C368 C 0.74668 0.24852 0.87042 0.0
H369 H 0.82225 0.2227 0.76303 0.0
H370 H 0.80273 0.22652 0.80241 0.0
C371 C 0.73552 0.25087 0.89306 0.0
C372 C 0.76156 0.2662 0.79117 0.0
H373 H 0.78374 0.20924 0.73681 0.0
C374 C 0.76688 0.29767 0.78918 0.0
C375 C 0.76773 0.23393 0.77166 0.0
C376 C 0.76241 0.19943 0.76978 0.0
C377 C 0.7782 0.29769 0.76946 0.0
C378 C 0.78436 0.26543 0.74991 0.0
C379 C 0.77905 0.23396 0.75194 0.0
C380 C 0.79628 0.26378 0.72654 0.0
C381 C 0.78352 0.3322 0.77133 0.0
C382 C 0.79919 0.28319 0.67038 0.0
C383 C 0.81035 0.28107 0.64775 0.0
C384 C 0.81887 0.25919 0.68032 0.0
C385 C 0.81592 0.23962 0.73638 0.0
C386 C 0.80475 0.24185 0.75911 0.0
H387 H 0.77884 0.35193 0.80492 0.0
H388 H 0.7924 0.32803 0.78844 0.0
H389 H 0.78342 0.34362 0.7202 0.0
H390 H 0.79279 0.29957 0.64322 0.0
H391 H 0.81224 0.29592 0.60359 0.0
H392 H 0.31201 0.7994 0.12049 0.0
H393 H 0.29258 0.80326 0.16091 0.0
H394 H 0.3016 0.71826 0.29964 0.0
H395 H 0.32112 0.71486 0.26085 0.0
H396 H 0.27779 0.75078 0.15798 0.0
H397 H 0.2848 0.79344 0.41953 0.0
H398 H 0.29523 0.79558 0.35459 0.0
H399 H 0.29341 0.75407 0.39458 0.0
C400 C 0.30993 0.78194 0.16048 0.0
C401 C 0.31819 0.75694 0.1876 0.0
C402 C 0.29877 0.784 0.18317 0.0
C403 C 0.29562 0.76136 0.23391 0.0
C404 C 0.30384 0.73645 0.26127 0.0
H405 H 0.23239 0.72828 0.43106 0.0
H406 H 0.25182 0.72446 0.39069 0.0
C407 C 0.31499 0.73429 0.2385 0.0
C408 C 0.28367 0.76302 0.25648 0.0
H409 H 0.26662 0.77698 0.39367 0.0
C410 C 0.27534 0.75669 0.20945 0.0
C411 C 0.28045 0.77063 0.32369 0.0
C412 C 0.28891 0.77915 0.37598 0.0
C413 C 0.26395 0.75714 0.22796 0.0
C414 C 0.26073 0.76474 0.29516 0.0
C415 C 0.26906 0.77107 0.3422 0.0
C416 C 0.24878 0.76639 0.31774 0.0
C417 C 0.25549 0.74861 0.17567 0.0
C418 C 0.24056 0.7913 0.29039 0.0
C419 C 0.2294 0.79343 0.31313 0.0
C420 C 0.2262 0.77076 0.36398 0.0
C421 C 0.23447 0.74576 0.3911 0.0
C422 C 0.24563 0.74373 0.36844 0.0
H423 H 0.25961 0.73433 0.13211 0.0
H424 H 0.24918 0.73216 0.19706 0.0
H425 H 0.25098 0.77368 0.15709 0.0
H426 H 0.2428 0.8095 0.25204 0.0
H427 H 0.22328 0.81286 0.29079 0.0
H428 H 0.73373 0.72258 0.11888 0.0
H429 H 0.75308 0.71894 0.16029 0.0
H430 H 0.744 0.80625 0.29499 0.0
H431 H 0.72455 0.80936 0.25546 0.0
H432 H 0.76798 0.77028 0.15501 0.0
H433 H 0.76059 0.73387 0.41909 0.0
H434 H 0.75015 0.73093 0.35445 0.0
H435 H 0.75215 0.77305 0.39206 0.0
C436 C 0.73577 0.74058 0.15829 0.0
C437 C 0.7275 0.76615 0.18399 0.0
C438 C 0.74689 0.73865 0.18152 0.0
C439 C 0.75001 0.76202 0.23139 0.0
C440 C 0.74179 0.78748 0.25738 0.0
H441 H 0.81312 0.79898 0.42632 0.0
H442 H 0.79373 0.80206 0.38547 0.0
C443 C 0.73067 0.78947 0.23414 0.0
C444 C 0.76195 0.7606 0.25425 0.0
H445 H 0.77882 0.74976 0.39259 0.0
C446 C 0.77036 0.76559 0.20691 0.0
C447 C 0.76507 0.75459 0.32201 0.0
C448 C 0.75654 0.74747 0.37481 0.0
C449 C 0.78173 0.76538 0.22558 0.0
C450 C 0.78485 0.75942 0.29334 0.0
C451 C 0.77645 0.75441 0.34069 0.0
C452 C 0.79678 0.75815 0.31617 0.0
C453 C 0.79028 0.77238 0.1728 0.0
C454 C 0.80499 0.73238 0.29104 0.0
C455 C 0.81612 0.73066 0.31407 0.0
C456 C 0.81931 0.75462 0.36298 0.0
C457 C 0.81105 0.78047 0.38786 0.0
C458 C 0.79992 0.78209 0.36494 0.0
H459 H 0.78624 0.78553 0.12804 0.0
H460 H 0.79658 0.7893 0.19296 0.0
H461 H 0.79478 0.74679 0.1564 0.0
H462 H 0.80276 0.71321 0.25424 0.0
H463 H 0.82224 0.71053 0.29346 0.0
H464 H 0.13017 0.87972 0.43042 0.0
H465 H 0.13242 0.94295 0.44148 0.0
H466 H 0.16198 0.91806 0.56295 0.0
H467 H 0.15956 0.85455 0.55336 0.0
H468 H 0.14857 0.97334 0.6157 0.0
H469 H 0.15466 0.99787 0.34552 0.0
H470 H 0.14174 0.97917 0.36259 0.0
H471 H 0.15497 0.95374 0.37954 0.0
C472 C 0.13718 0.88767 0.45927 0.0
C473 C 0.14472 0.86207 0.49075 0.0
C474 C 0.13851 0.92392 0.46526 0.0
C475 C 0.14749 0.93552 0.50209 0.0
C476 C 0.155 0.90993 0.53399 0.0
H477 H 0.17103 0.14461 0.47308 0.0
H478 H 0.16812 0.08179 0.46801 0.0
C479 C 0.15364 0.8736 0.52831 0.0
C480 C 0.14895 0.97427 0.50792 0.0
H481 H 0.15174 0.04882 0.41548 0.0
C482 C 0.1493 0.98981 0.57189 0.0
C483 C 0.15004 0.99591 0.45093 0.0
C484 C 0.15045 0.98079 0.38082 0.0
C485 C 0.15059 0.0262 0.58038 0.0
C486 C 0.15131 0.04805 0.5233 0.0
C487 C 0.15105 0.03239 0.4594 0.0
C488 C 0.15298 0.0867 0.52827 0.0
C489 C 0.15146 0.04061 0.65053 0.0
C490 C 0.1454 0.11095 0.56346 0.0
C491 C 0.14712 0.14715 0.56694 0.0
C492 C 0.15638 0.15988 0.53464 0.0
C493 C 0.16383 0.13571 0.49875 0.0
C494 C 0.16216 0.09967 0.49569 0.0
H495 H 0.15381 0.01915 0.68719 0.0
H496 H 0.15778 0.06019 0.6532 0.0
H497 H 0.14318 0.05408 0.66577 0.0
H498 H 0.13808 0.10199 0.58767 0.0
H499 H 0.14118 0.16518 0.59444 0.0
H500 H 0.87998 0.37728 0.44372 0.0
H501 H 0.88294 0.44005 0.43742 0.0
H502 H 0.90368 0.42935 0.61454 0.0
H503 H 0.90108 0.36584 0.61921 0.0
H504 H 0.87703 0.49248 0.51787 0.0
H505 H 0.92349 0.48151 0.49805 0.0
H506 H 0.91559 0.4435 0.49072 0.0
H507 H 0.91869 0.46087 0.572 0.0
C508 C 0.88527 0.38821 0.48099 0.0
C509 C 0.89032 0.36658 0.53186 0.0
C510 C 0.88694 0.42422 0.47746 0.0
C511 C 0.89365 0.43973 0.52497 0.0
C512 C 0.8987 0.41809 0.57614 0.0
H513 H 0.88891 0.67213 0.57449 0.0
H514 H 0.88688 0.60876 0.58721 0.0
C515 C 0.89715 0.38179 0.57913 0.0
C516 C 0.89495 0.47867 0.52149 0.0
H517 H 0.91432 0.53941 0.51416 0.0
C518 C 0.8852 0.50266 0.51694 0.0
C519 C 0.90559 0.49226 0.51936 0.0
C520 C 0.91643 0.4682 0.51959 0.0
C521 C 0.88577 0.53944 0.51013 0.0
C522 C 0.8964 0.55314 0.51011 0.0
C523 C 0.90615 0.52918 0.51475 0.0
C524 C 0.89763 0.59198 0.50319 0.0
C525 C 0.87494 0.56301 0.50067 0.0
C526 C 0.90462 0.60401 0.45312 0.0
C527 C 0.90596 0.64021 0.44668 0.0
C528 C 0.90031 0.66535 0.48995 0.0
C529 C 0.89329 0.65346 0.53994 0.0
C530 C 0.89207 0.61716 0.54695 0.0
H531 H 0.86812 0.54784 0.48126 0.0
H532 H 0.87215 0.5746 0.54971 0.0
H533 H 0.87608 0.58499 0.46543 0.0
H534 H 0.90903 0.58533 0.41869 0.0
H535 H 0.91143 0.64853 0.40773 0.0
H536 H 0.87983 0.87791 0.60216 0.0
H537 H 0.88254 0.94091 0.6064 0.0
H538 H 0.90357 0.92871 0.43048 0.0
H539 H 0.90118 0.86491 0.42766 0.0
H540 H 0.91225 0.97131 0.51763 0.0
H541 H 0.86711 0.01703 0.4927 0.0
H542 H 0.86958 0.98861 0.56382 0.0
H543 H 0.87246 0.97127 0.48071 0.0
C544 C 0.88504 0.88862 0.56432 0.0
C545 C 0.89019 0.86651 0.51413 0.0
C546 C 0.88651 0.92481 0.56644 0.0
C547 C 0.89298 0.94009 0.51758 0.0
C548 C 0.89842 0.91779 0.46837 0.0
H549 H 0.8889 0.1719 0.47192 0.0
H550 H 0.88715 0.10838 0.45698 0.0
C551 C 0.89705 0.88133 0.46673 0.0
C552 C 0.89415 0.97913 0.51887 0.0
H553 H 0.879 0.06046 0.53024 0.0
C554 C 0.90497 0.99078 0.51982 0.0
C555 C 0.88469 1.00489 0.52028 0.0
C556 C 0.87282 0.99484 0.51356 0.0
C557 C 0.90657 0.02711 0.5243 0.0
C558 C 0.8971 0.05269 0.53013 0.0
C559 C 0.88629 0.04108 0.52699 0.0
C560 C 0.89819 0.09152 0.53937 0.0
C561 C 0.91843 0.03758 0.5214 0.0
C562 C 0.90477 0.10366 0.59148 0.0
C563 C 0.90589 0.13995 0.59949 0.0
C564 C 0.90027 0.1651 0.55648 0.0
C565 C 0.89337 0.15318 0.50576 0.0
C566 C 0.89237 0.11681 0.4972 0.0
H567 H 0.92414 0.01723 0.4948 0.0
H568 H 0.91876 0.06341 0.49572 0.0
H569 H 0.92168 0.03991 0.57313 0.0
H570 H 0.90904 0.08508 0.62632 0.0
H571 H 0.91116 0.14834 0.63952 0.0
H572 H 0.14448 0.66162 0.42782 0.0
H573 H 0.142 0.59802 0.43224 0.0
H574 H 0.16296 0.58732 0.60843 0.0
H575 H 0.16581 0.65017 0.60231 0.0
H576 H 0.16884 0.53501 0.52812 0.0
H577 H 0.1224 0.54524 0.54863 0.0
H578 H 0.12712 0.56596 0.47457 0.0
H579 H 0.13023 0.58341 0.55578 0.0
C580 C 0.14849 0.64565 0.46764 0.0
C581 C 0.15535 0.6609 0.51468 0.0
C582 C 0.147 0.60928 0.4705 0.0
C583 C 0.15215 0.58759 0.52134 0.0
C584 C 0.15889 0.60316 0.56862 0.0
H585 H 0.13465 0.37851 0.63902 0.0
H586 H 0.13696 0.44173 0.62758 0.0
C587 C 0.1605 0.63923 0.5652 0.0
C588 C 0.15091 0.54857 0.52473 0.0
H589 H 0.13165 0.48747 0.53229 0.0
C590 C 0.16069 0.52471 0.52914 0.0
C591 C 0.1403 0.53479 0.52698 0.0
C592 C 0.12942 0.55868 0.52694 0.0
C593 C 0.16018 0.48788 0.53597 0.0
C594 C 0.14958 0.47398 0.53614 0.0
C595 C 0.1398 0.49782 0.53158 0.0
C596 C 0.14841 0.43508 0.5433 0.0
C597 C 0.17104 0.46449 0.54537 0.0
C598 C 0.15402 0.40984 0.49984 0.0
C599 C 0.15285 0.37351 0.50714 0.0
C600 C 0.14583 0.36162 0.55712 0.0
C601 C 0.14013 0.38681 0.60007 0.0
C602 C 0.14142 0.42304 0.59336 0.0
H603 H 0.17784 0.47978 0.56467 0.0
H604 H 0.16996 0.4425 0.58068 0.0
H605 H 0.17384 0.45291 0.49633 0.0
H606 H 0.15922 0.41822 0.45958 0.0
H607 H 0.15727 0.3548 0.47282 0.0
H608 H 0.6441 0.6656 0.1098 0.0
H609 H 0.64148 0.60193 0.10781 0.0
H610 H 0.6614 0.58917 0.92749 0.0
H611 H 0.66435 0.652 0.93081 0.0
H612 H 0.63234 0.55872 1.02231 0.0
H613 H 0.67766 0.51419 0.04097 0.0
H614 H 0.67223 0.55987 0.05321 0.0
H615 H 0.6748 0.54241 0.9699 0.0
C616 C 0.6479 0.64911 0.06981 0.0
C617 C 0.65457 0.66364 1.021 0.0
C618 C 0.64641 0.61273 0.06867 0.0
C619 C 0.65152 0.59032 1.01856 0.0
C620 C 0.65771 0.6054 0.96808 0.0
H621 H 0.63361 0.38103 0.90268 0.0
H622 H 0.63543 0.44454 0.91498 0.0
C623 C 0.65931 0.64147 0.9697 0.0
C624 C 0.65043 0.5513 1.01838 0.0
H625 H 0.66574 0.47034 1.00599 0.0
C626 C 0.63965 0.5394 1.01932 0.0
C627 C 0.65995 0.52579 1.01599 0.0
C628 C 0.6718 0.5362 1.02073 0.0
C629 C 0.63813 0.503 1.01567 0.0
C630 C 0.64764 0.47766 1.00878 0.0
C631 C 0.65842 0.48955 1.01008 0.0
C632 C 0.64665 0.43878 1.00037 0.0
C633 C 0.62633 0.49219 1.02051 0.0
C634 C 0.65275 0.41387 0.04197 0.0
C635 C 0.65193 0.37741 0.03387 0.0
C636 C 0.64492 0.36503 0.98424 0.0
C637 C 0.63898 0.38981 0.94187 0.0
C638 C 0.63992 0.42621 0.94938 0.0
H639 H 0.62067 0.51247 0.04764 0.0
H640 H 0.62288 0.48959 0.96932 0.0
H641 H 0.62618 0.46641 0.04663 0.0
H642 H 0.65808 0.42265 0.08131 0.0
H643 H 0.65664 0.35896 0.06718 0.0
H644 H 0.37444 0.88222 0.97392 0.0
H645 H 0.37768 0.94469 0.9663 0.0
H646 H 0.40727 0.92527 0.08958 0.0
H647 H 0.40388 0.86234 0.09862 0.0
H648 H 0.39459 0.98651 0.12655 0.0
H649 H 0.40074 0.98675 0.85199 0.0
H650 H 0.38758 0.97115 0.875 0.0
H651 H 0.40057 0.9463 0.89922 0.0
C652 C 0.38167 0.89115 0.99937 0.0
C653 C 0.38893 0.86724 0.03672 0.0
C654 C 0.38355 0.92695 0.99457 0.0
C655 C 0.39285 0.93982 0.02617 0.0
C656 C 0.40007 0.91606 0.06432 0.0
H657 H 0.41536 0.1466 0.92921 0.0
H658 H 0.41337 0.08336 0.94284 0.0
C659 C 0.39815 0.88009 0.06942 0.0
C660 C 0.39484 0.97811 1.01985 0.0
H661 H 0.39763 0.0435 0.90484 0.0
C662 C 0.39533 0.9989 0.07807 0.0
C663 C 0.39598 0.99443 0.95672 0.0
C664 C 0.39632 0.97343 0.89223 0.0
C665 C 0.39664 0.03549 0.07483 0.0
C666 C 0.39723 0.05214 1.01153 0.0
C667 C 0.39702 0.03111 0.95344 0.0
C668 C 0.39837 0.09103 1.00414 0.0
C669 C 0.39758 0.05574 0.13946 0.0
C670 C 0.39052 0.11685 0.03306 0.0
C671 C 0.3917 0.1532 0.02568 0.0
C672 C 0.40068 0.16456 0.98848 0.0
C673 C 0.40837 0.13877 0.95836 0.0
C674 C 0.40723 0.10252 0.96612 0.0
H675 H 0.40034 0.03778 0.18148 0.0
H676 H 0.40362 0.07607 0.1346 0.0
H677 H 0.38922 0.06934 0.15268 0.0
H678 H 0.38341 0.10895 0.06101 0.0
H679 H 0.38559 0.1724 0.04908 0.0
H680 H 0.40076 0.36569 0.92649 0.0
H681 H 0.40319 0.42933 0.93169 0.0
H682 H 0.38245 0.43971 0.10902 0.0
H683 H 0.37965 0.37681 0.10216 0.0
H684 H 0.37643 0.49208 0.02975 0.0
H685 H 0.42289 0.48218 0.04786 0.0
H686 H 0.4181 0.46145 0.97374 0.0
H687 H 0.4151 0.44394 0.05486 0.0
C688 C 0.39679 0.3816 0.96674 0.0
C689 C 0.39001 0.36624 1.01389 0.0
C690 C 0.39825 0.41799 0.97003 0.0
C691 C 0.39315 0.4396 1.02142 0.0
C692 C 0.38648 0.42394 0.0688 0.0
H693 H 0.41066 0.6489 0.14042 0.0
H694 H 0.40837 0.58565 0.12853 0.0
C695 C 0.3849 0.38784 0.06496 0.0
C696 C 0.39436 0.47864 0.02529 0.0
H697 H 0.41358 0.5399 0.03252 0.0
C698 C 0.38457 0.50244 0.03047 0.0
C699 C 0.40496 0.4925 0.02715 0.0
C700 C 0.41586 0.46869 0.0263 0.0
C701 C 0.38507 0.53929 0.03766 0.0
C702 C 0.39565 0.55326 0.03742 0.0
C703 C 0.40544 0.52948 0.03212 0.0
C704 C 0.39681 0.59219 0.0449 0.0
C705 C 0.3742 0.56261 0.04785 0.0
C706 C 0.39112 0.61737 1.00196 0.0
C707 C 0.39228 0.65372 1.00953 0.0
C708 C 0.39936 0.66568 0.05926 0.0
C709 C 0.40513 0.64054 0.10169 0.0
C710 C 0.40385 0.60429 0.09471 0.0
H711 H 0.36744 0.54727 0.06735 0.0
H712 H 0.37532 0.58463 0.08332 0.0
H713 H 0.37133 0.57416 0.99907 0.0
H714 H 0.38588 0.60893 0.96189 0.0
H715 H 0.38781 0.67239 0.97561 0.0
H716 H 0.66807 0.15356 0.09323 0.0
H717 H 0.66584 0.09026 0.09826 0.0
H718 H 0.64318 0.10091 0.92969 0.0
H719 H 0.64514 0.16494 0.92593 0.0
H720 H 0.63558 0.05837 1.02231 0.0
H721 H 0.68047 0.01473 0.97758 0.0
H722 H 0.67866 0.04352 0.04902 0.0
H723 H 0.67472 0.0602 0.96705 0.0
C724 C 0.66262 0.14244 0.05714 0.0
C725 C 0.65688 0.16415 1.0087 0.0
C726 C 0.66141 0.10612 0.05972 0.0
C727 C 0.6546 0.09039 1.01316 0.0
C728 C 0.6486 0.11224 0.96574 0.0
H729 H 0.65847 0.85899 0.9641 0.0
H730 H 0.66011 0.92254 0.94961 0.0
C731 C 0.64972 0.14882 0.96356 0.0
C732 C 0.65364 0.05133 1.01513 0.0
H733 H 0.66928 0.97069 1.01998 0.0
C734 C 0.64295 0.03921 1.02124 0.0
C735 C 0.66322 0.02605 1.0124 0.0
C736 C 0.67489 0.03675 1.0004 0.0
C737 C 0.64159 1.00281 0.02683 0.0
C738 C 0.65122 0.9777 0.02835 0.0
C739 C 0.66189 0.98977 1.02004 0.0
C740 C 0.65043 0.93887 0.03814 0.0
C741 C 0.62981 0.99171 0.02984 0.0
C742 C 0.64472 0.9265 0.09367 0.0
C743 C 0.64369 0.89022 0.10158 0.0
C744 C 0.64852 0.86537 0.05488 0.0
C745 C 0.65464 0.8775 1.00087 0.0
C746 C 0.65556 0.91387 0.99252 0.0
H747 H 0.62364 1.01186 1.0065 0.0
H748 H 0.62925 0.96591 1.00412 0.0
H749 H 0.62733 0.98899 0.08301 0.0
H750 H 0.64102 0.94493 0.13094 0.0
H751 H 0.63902 0.88163 0.14408 0.0
H752 H 0.16567 0.28813 0.32872 0.0
H753 H 0.1657 0.28636 0.20641 0.0
H754 H 0.13509 0.23482 0.20843 0.0
H755 H 0.13489 0.23682 0.33109 0.0
H756 H 0.16656 0.22734 0.12264 0.0
H757 H 0.12761 0.31666 0.07769 0.0
H758 H 0.1346 0.31376 0.15794 0.0
H759 H 0.12583 0.28015 0.13257 0.0
C760 C 0.15887 0.27662 0.30333 0.0
C761 C 0.15024 0.26277 0.33995 0.0
C762 C 0.15893 0.27558 0.23327 0.0
C763 C 0.15033 0.26086 0.1981 0.0
C764 C 0.1417 0.24694 0.23439 0.0
H765 H 0.13701 0.22832 0.77527 0.0
H766 H 0.13692 0.22873 0.89767 0.0
C767 C 0.14163 0.24797 0.3046 0.0
C768 C 0.15062 0.25925 0.12359 0.0
H769 H 0.13603 0.28694 0.98294 0.0
C770 C 0.1599 0.24047 0.09206 0.0
C771 C 0.14192 0.27635 0.08371 0.0
C772 C 0.13197 0.29815 0.11451 0.0
C773 C 0.16065 0.23786 1.02187 0.0
C774 C 0.15197 0.25503 0.98198 0.0
C775 C 0.14268 0.27375 1.01351 0.0
C776 C 0.15234 0.25387 0.90744 0.0
C777 C 0.17062 0.21609 0.9911 0.0
C778 C 0.16103 0.26798 0.87197 0.0
C779 C 0.16113 0.26772 0.80175 0.0
C780 C 0.1525 0.25351 0.76555 0.0
C781 C 0.14383 0.23935 0.80134 0.0
C782 C 0.14374 0.23963 0.87144 0.0
H783 H 0.17489 0.19729 0.02774 0.0
H784 H 0.16802 0.2008 0.94715 0.0
H785 H 0.17682 0.23407 0.97386 0.0
H786 H 0.16764 0.27976 0.89857 0.0
H787 H 0.16789 0.2791 0.77593 0.0
H788 H 0.88079 0.23706 0.32794 0.0
H789 H 0.88069 0.23894 0.20567 0.0
H790 H 0.91123 0.29087 0.20791 0.0
H791 H 0.91148 0.28877 0.33056 0.0
H792 H 0.87966 0.29812 0.12329 0.0
H793 H 0.91871 0.20964 0.07485 0.0
H794 H 0.9118 0.21217 0.15544 0.0
H795 H 0.92048 0.24603 0.1305 0.0
C796 C 0.88756 0.24865 0.30261 0.0
C797 C 0.89618 0.26261 0.3393 0.0
C798 C 0.88747 0.24976 0.23256 0.0
C799 C 0.89602 0.26465 0.19744 0.0
C800 C 0.90466 0.27861 0.2338 0.0
H801 H 0.90899 0.29898 0.77524 0.0
H802 H 0.90912 0.2981 0.8976 0.0
C803 C 0.90476 0.27752 0.30401 0.0
C804 C 0.89566 0.2665 0.12295 0.0
H805 H 0.91016 0.2396 0.98112 0.0
C806 C 0.88631 0.28522 0.09217 0.0
C807 C 0.90434 0.2497 0.08235 0.0
C808 C 0.91436 0.22797 0.11226 0.0
C809 C 0.88549 0.28808 1.02206 0.0
C810 C 0.89416 0.27122 0.98144 0.0
C811 C 0.90352 0.25255 1.01223 0.0
C812 C 0.89374 0.27274 0.90692 0.0
C813 C 0.87546 0.30979 0.99218 0.0
C814 C 0.88505 0.25871 0.87116 0.0
C815 C 0.88493 0.25925 0.80094 0.0
C816 C 0.89353 0.27366 0.765 0.0
C817 C 0.90219 0.28779 0.80109 0.0
C818 C 0.90231 0.28724 0.87118 0.0
H819 H 0.87119 0.32836 0.02945 0.0
H820 H 0.87799 0.32533 0.94857 0.0
H821 H 0.86929 0.29175 0.97464 0.0
H822 H 0.87847 0.24674 0.89752 0.0
H823 H 0.87818 0.24788 0.77488 0.0
H824 H 0.16701 0.78017 0.27266 0.0
H825 H 0.16658 0.78173 0.14995 0.0
H826 H 0.13578 0.73119 0.15056 0.0
H827 H 0.13605 0.72984 0.27284 0.0
H828 H 0.16632 0.72617 0.05617 0.0
H829 H 0.12765 0.81956 0.03632 0.0
H830 H 0.13539 0.81266 0.11359 0.0
H831 H 0.12604 0.78108 0.08637 0.0
C832 C 0.16015 0.76931 0.24674 0.0
C833 C 0.15153 0.75505 0.2828 0.0
C834 C 0.15992 0.77025 0.17656 0.0
C835 C 0.15104 0.75717 0.14107 0.0
C836 C 0.14258 0.74216 0.17686 0.0
H837 H 0.13406 0.73938 0.71824 0.0
H838 H 0.13449 0.7372 0.84094 0.0
C839 C 0.1428 0.74119 0.2469 0.0
C840 C 0.15064 0.75894 0.06666 0.0
H841 H 0.13469 0.79268 0.93523 0.0
C842 C 0.15944 0.74085 0.02971 0.0
C843 C 0.14164 0.77803 0.03215 0.0
C844 C 0.13219 0.79922 0.06902 0.0
C845 C 0.15937 0.74082 0.95926 0.0
C846 C 0.15037 0.75992 0.92476 0.0
C847 C 0.14157 0.77798 0.9617 0.0
C848 C 0.15 0.76185 0.85036 0.0
C849 C 0.16883 0.71967 0.92236 0.0
C850 C 0.15845 0.7771 0.81492 0.0
C851 C 0.15823 0.77843 0.74492 0.0
C852 C 0.14951 0.76473 0.7087 0.0
C853 C 0.14091 0.75014 0.74442 0.0
C854 C 0.14114 0.74885 0.81458 0.0
H855 H 0.17336 0.6993 0.95501 0.0
H856 H 0.16563 0.70629 0.8777 0.0
H857 H 0.17497 0.73784 0.90514 0.0
H858 H 0.16524 0.78801 0.84146 0.0
H859 H 0.16496 0.79002 0.71925 0.0
H860 H 0.88036 0.73927 0.71916 0.0
H861 H 0.88018 0.74157 0.84135 0.0
H862 H 0.91172 0.78799 0.84019 0.0
H863 H 0.91191 0.78632 0.71747 0.0
H864 H 0.89542 0.71064 0.93344 0.0
H865 H 0.89184 0.85741 0.95665 0.0
H866 H 0.88951 0.83513 0.87854 0.0
H867 H 0.90359 0.83893 0.90752 0.0
C868 C 0.88729 0.74998 0.74468 0.0
C869 C 0.89614 0.76278 0.70828 0.0
C870 C 0.88716 0.75125 0.81469 0.0
C871 C 0.89583 0.76548 0.84999 0.0
C872 C 0.90481 0.7776 0.81399 0.0
H873 H 0.90942 0.79562 0.27215 0.0
H874 H 0.90966 0.79374 0.1499 0.0
C875 C 0.90494 0.77638 0.7438 0.0
C876 C 0.89547 0.76723 0.92443 0.0
H877 H 0.8945 0.82464 0.05724 0.0
C878 C 0.89518 0.73557 0.96053 0.0
C879 C 0.89514 0.79978 0.95974 0.0
C880 C 0.89493 0.83481 0.92376 0.0
C881 C 0.89478 0.73549 0.03092 0.0
C882 C 0.89444 0.76805 0.06624 0.0
C883 C 0.89474 0.79971 0.03015 0.0
C884 C 0.89402 0.76979 0.14068 0.0
C885 C 0.89499 0.70045 0.06687 0.0
C886 C 0.88503 0.75756 0.17636 0.0
C887 C 0.88486 0.75854 0.24655 0.0
C888 C 0.89366 0.77203 0.28242 0.0
C889 C 0.90251 0.78501 0.24635 0.0
C890 C 0.90267 0.78397 0.17631 0.0
H891 H 0.89813 0.67788 0.03404 0.0
H892 H 0.90038 0.70017 0.11224 0.0
H893 H 0.88633 0.69625 0.08286 0.0
H894 H 0.87813 0.74721 0.14992 0.0
H895 H 0.87789 0.74847 0.27262 0.0
H896 H 0.66889 0.77298 0.2665 0.0
H897 H 0.66898 0.77261 0.3892 0.0
H898 H 0.63485 0.74475 0.39016 0.0
H899 H 0.63466 0.74484 0.26779 0.0
H900 H 0.65406 0.81472 0.47632 0.0
H901 H 0.65152 0.67064 0.51532 0.0
H902 H 0.65558 0.68858 0.43622 0.0
H903 H 0.64102 0.69174 0.46028 0.0
C904 C 0.66142 0.7665 0.29271 0.0
C905 C 0.65178 0.75881 0.25708 0.0
C906 C 0.66149 0.76637 0.36288 0.0
C907 C 0.65198 0.75821 0.39881 0.0
C908 C 0.64235 0.7505 0.36348 0.0
H909 H 0.63504 0.74565 0.82182 0.0
H910 H 0.63508 0.74489 0.69913 0.0
C911 C 0.64225 0.75075 0.2934 0.0
C912 C 0.65196 0.75898 0.47323 0.0
H913 H 0.64942 0.70751 0.6116 0.0
C914 C 0.65311 0.79126 0.50598 0.0
C915 C 0.65063 0.72839 0.51176 0.0
C916 C 0.64971 0.69277 0.4793 0.0
C917 C 0.65277 0.79395 0.57622 0.0
C918 C 0.65152 0.76329 0.61487 0.0
C919 C 0.65037 0.731 0.58203 0.0
C920 C 0.65148 0.76408 0.68941 0.0
C921 C 0.65347 0.82982 0.60821 0.0
C922 C 0.66074 0.77469 0.72488 0.0
C923 C 0.66071 0.77536 0.79494 0.0
C924 C 0.65147 0.76502 0.83118 0.0
C925 C 0.64227 0.75389 0.79557 0.0
C926 C 0.64229 0.7534 0.72539 0.0
H927 H 0.65109 0.85171 0.57249 0.0
H928 H 0.64792 0.83341 0.65284 0.0
H929 H 0.66226 0.83207 0.62446 0.0
H930 H 0.66805 0.78217 0.69837 0.0
H931 H 0.66799 0.78374 0.82063 0.0
H932 H 0.41007 0.79073 0.83402 0.0
H933 H 0.40968 0.79324 0.71132 0.0
H934 H 0.37911 0.74148 0.70978 0.0
H935 H 0.37935 0.73914 0.83197 0.0
H936 H 0.40973 0.73786 0.61676 0.0
H937 H 0.3708 0.82998 0.59614 0.0
H938 H 0.37848 0.82319 0.67367 0.0
H939 H 0.36926 0.79134 0.64587 0.0
C940 C 0.40326 0.77986 0.80762 0.0
C941 C 0.39471 0.76489 0.84306 0.0
C942 C 0.40305 0.78133 0.73745 0.0
C943 C 0.39426 0.76812 0.70136 0.0
C944 C 0.38585 0.75255 0.73653 0.0
H945 H 0.3774 0.74847 0.27934 0.0
H946 H 0.37785 0.7474 0.40205 0.0
C947 C 0.38605 0.75104 0.80654 0.0
C948 C 0.39395 0.77009 0.62692 0.0
H949 H 0.37794 0.80313 0.49513 0.0
C950 C 0.40282 0.75231 0.59014 0.0
C951 C 0.3849 0.78886 0.5922 0.0
C952 C 0.37536 0.80971 0.62888 0.0
C953 C 0.40278 0.75217 0.51968 0.0
C954 C 0.39372 0.77088 0.48495 0.0
C955 C 0.38486 0.78873 0.52173 0.0
C956 C 0.39332 0.77238 0.41046 0.0
C957 C 0.41231 0.73122 0.48303 0.0
C958 C 0.40173 0.78748 0.37436 0.0
C959 C 0.4015 0.78816 0.30428 0.0
C960 C 0.3928 0.77395 0.26866 0.0
C961 C 0.38423 0.75961 0.30503 0.0
C962 C 0.38448 0.75895 0.37523 0.0
H963 H 0.41691 0.71111 0.51591 0.0
H964 H 0.40917 0.71754 0.43854 0.0
H965 H 0.41838 0.74957 0.46557 0.0
H966 H 0.4085 0.79872 0.40042 0.0
H967 H 0.40821 0.79957 0.27809 0.0
H968 H 0.66536 0.29315 0.2128 0.0
H969 H 0.66561 0.29033 0.33501 0.0
H970 H 0.63529 0.23723 0.33236 0.0
H971 H 0.63507 0.23939 0.20974 0.0
H972 H 0.65006 0.31802 0.42761 0.0
H973 H 0.65604 0.17132 0.44844 0.0
H974 H 0.65791 0.19411 0.37058 0.0
H975 H 0.64401 0.18777 0.39983 0.0
C976 C 0.65873 0.28083 0.23803 0.0
C977 C 0.65022 0.26635 0.20121 0.0
C978 C 0.65889 0.27925 0.30806 0.0
C979 C 0.65058 0.26304 0.343 0.0
C980 C 0.64194 0.24915 0.30654 0.0
H981 H 0.6373 0.23076 0.76567 0.0
H982 H 0.63705 0.2323 0.64328 0.0
C983 C 0.64178 0.25065 0.23636 0.0
C984 C 0.65093 0.26123 0.41755 0.0
H985 H 0.65263 0.20364 0.54957 0.0
C986 C 0.65066 0.293 0.45426 0.0
C987 C 0.65172 0.22857 0.4524 0.0
C988 C 0.65254 0.19346 0.41591 0.0
C989 C 0.65098 0.29307 0.5247 0.0
C990 C 0.65179 0.26043 0.55956 0.0
C991 C 0.65203 0.22865 0.52288 0.0
C992 C 0.65223 0.25872 0.63407 0.0
C993 C 0.65017 0.32818 0.5612 0.0
C994 C 0.66098 0.2724 0.66984 0.0
C995 C 0.66115 0.27159 0.74004 0.0
C996 C 0.65261 0.25685 0.77595 0.0
C997 C 0.64402 0.24237 0.73983 0.0
C998 C 0.64385 0.24322 0.66973 0.0
H999 H 0.6467 0.35035 0.52867 0.0
H1000 H 0.6448 0.32756 0.6065 0.0
H1001 H 0.65871 0.33381 0.57737 0.0
H1002 H 0.66767 0.2838 0.64345 0.0
H1003 H 0.66793 0.28284 0.76609 0.0
H1004 H 0.3803 0.2388 0.21652 0.0
H1005 H 0.3801 0.24147 0.33877 0.0
H1006 H 0.41101 0.29147 0.33681 0.0
H1007 H 0.4112 0.28944 0.21416 0.0
H1008 H 0.39551 0.21218 0.43058 0.0
H1009 H 0.39079 0.35891 0.45426 0.0
H1010 H 0.38867 0.33649 0.37604 0.0
H1011 H 0.40267 0.34154 0.40503 0.0
C1012 C 0.38707 0.25041 0.2419 0.0
C1013 C 0.39575 0.26406 0.20529 0.0
C1014 C 0.38694 0.2519 0.31195 0.0
C1015 C 0.39543 0.2672 0.34708 0.0
C1016 C 0.40422 0.28026 0.31083 0.0
H1017 H 0.40918 0.29743 0.76997 0.0
H1018 H 0.40939 0.296 0.64756 0.0
C1019 C 0.40436 0.27884 0.24064 0.0
C1020 C 0.39512 0.26889 0.42163 0.0
H1021 H 0.39396 0.32621 0.55472 0.0
C1022 C 0.39513 0.23712 0.45771 0.0
C1023 C 0.39462 0.30146 0.45708 0.0
C1024 C 0.39408 0.33659 0.42124 0.0
C1025 C 0.39484 0.23695 0.52814 0.0
C1026 C 0.39433 0.26951 0.5636 0.0
C1027 C 0.39434 0.30128 0.52755 0.0
C1028 C 0.39393 0.27111 0.63812 0.0
C1029 C 0.39536 0.20182 0.56399 0.0
C1030 C 0.38503 0.25824 0.67373 0.0
C1031 C 0.38488 0.25899 0.74392 0.0
C1032 C 0.39359 0.27286 0.77997 0.0
C1033 C 0.40234 0.28651 0.74402 0.0
C1034 C 0.40248 0.28573 0.67391 0.0
H1035 H 0.39863 0.17947 0.53097 0.0
H1036 H 0.40078 0.20189 0.60916 0.0
H1037 H 0.38677 0.19693 0.58027 0.0
H1038 H 0.37821 0.24754 0.64721 0.0
H1039 H 0.37798 0.24841 0.76986 0.0
H1040 H 0.06861 0.31298 0.49303 0.0
H1041 H 0.04806 0.3154 0.48953 0.0
H1042 H 0.05021 0.20116 0.49059 0.0
H1043 H 0.07068 0.19844 0.49712 0.0
H1044 H 0.03362 0.28972 0.39884 0.0
H1045 H 0.02893 0.22562 0.64519 0.0
H1046 H 0.042 0.24122 0.61832 0.0
H1047 H 0.038 0.19936 0.5886 0.0
C1048 C 0.06473 0.28832 0.49313 0.0
C1049 C 0.07139 0.25551 0.49582 0.0
C1050 C 0.05296 0.28977 0.49066 0.0
C1051 C 0.04754 0.25848 0.4911 0.0
C1052 C 0.05415 0.22571 0.49172 0.0
H1053 H 0.9773 0.2126 0.48612 0.0
H1054 H 0.99785 0.20943 0.4808 0.0
C1055 C 0.06591 0.22422 0.49442 0.0
C1056 C 0.035 0.26013 0.49084 0.0
H1057 H 1.0125 0.2345 0.57802 0.0
C1058 C 0.029 0.27776 0.43818 0.0
C1059 C 0.02894 0.24457 0.5422 0.0
C1060 C 0.03477 0.22693 0.60213 0.0
C1061 C 1.01718 0.27973 0.43487 0.0
C1062 C 1.01114 0.26401 0.48601 0.0
C1063 C 1.01713 0.24636 0.53861 0.0
C1064 C 0.99861 0.26616 0.48672 0.0
C1065 C 1.01125 0.29808 0.37598 0.0
C1066 C 0.99216 0.29908 0.49222 0.0
C1067 C 0.9804 0.301 0.49585 0.0
C1068 C 0.97477 0.27 0.4942 0.0
C1069 C 0.98129 0.23704 0.48822 0.0
C1070 C 0.99306 0.23516 0.48485 0.0
H1071 H 1.01707 0.30068 0.33324 0.0
H1072 H 1.00416 0.28345 0.35873 0.0
H1073 H 1.00777 0.32513 0.39135 0.0
H1074 H 0.99624 0.32334 0.49529 0.0
H1075 H 0.97575 0.32682 0.50196 0.0
H1076 H 0.9769 0.72531 0.4915 0.0
H1077 H 0.99742 0.72013 0.49822 0.0
H1078 H 0.99576 0.81154 0.62837 0.0
H1079 H 0.97522 0.81595 0.6245 0.0
H1080 H 1.01148 0.76733 0.45703 0.0
H1081 H 1.01779 0.74386 0.72895 0.0
H1082 H 1.00443 0.74059 0.68841 0.0
H1083 H 1.00873 0.78328 0.7108 0.0
C1084 C 0.98086 0.74382 0.52299 0.0
C1085 C 0.97432 0.77097 0.55772 0.0
C1086 C 0.99263 0.74102 0.52624 0.0
C1087 C 0.99819 0.76516 0.56444 0.0
C1088 C 0.99171 0.7921 0.59963 0.0
H1089 H 0.06923 0.80104 0.6078 0.0
H1090 H 0.04859 0.80576 0.61182 0.0
C1091 C 0.97993 0.79486 0.59664 0.0
C1092 C 1.01075 0.76317 0.56448 0.0
H1093 H 0.03392 0.75607 0.66629 0.0
C1094 C 1.01637 0.76467 0.50283 0.0
C1095 C 1.01718 0.75988 0.6242 0.0
C1096 C 1.01175 0.75647 0.69179 0.0
C1097 C 0.02817 0.76332 0.49928 0.0
C1098 C 0.03459 0.75997 0.5589 0.0
C1099 C 0.029 0.75875 0.62062 0.0
C1100 C 0.04712 0.75683 0.55783 0.0
C1101 C 0.03368 0.76603 0.43168 0.0
C1102 C 0.05318 0.72752 0.52707 0.0
C1103 C 0.06494 0.72474 0.52471 0.0
C1104 C 0.07097 0.75119 0.55323 0.0
C1105 C 0.06488 0.78035 0.58481 0.0
C1106 C 0.05308 0.783 0.58745 0.0
H1107 H 0.0276 0.77714 0.39325 0.0
H1108 H 0.04075 0.78292 0.43451 0.0
H1109 H 0.0371 0.73917 0.4149 0.0
H1110 H 0.04878 0.70677 0.5046 0.0
H1111 H 0.06931 0.70214 0.49923 0.0
H1112 H 0.56924 0.71739 0.10486 0.0
H1113 H 0.54877 0.71678 0.10135 0.0
H1114 H 0.54758 0.77624 0.91732 0.0
H1115 H 0.56804 0.77585 0.91905 0.0
H1116 H 0.5326 0.7735 0.10397 0.0
H1117 H 0.52862 0.69674 0.8698 0.0
H1118 H 0.54189 0.69858 0.91226 0.0
H1119 H 0.5364 0.73454 0.85934 0.0
C1120 C 0.56467 0.72975 0.06289 0.0
C1121 C 0.57036 0.74657 1.01212 0.0
C1122 C 0.55293 0.72961 0.06124 0.0
C1123 C 0.54661 0.74603 1.00859 0.0
C1124 C 0.55226 0.76276 0.95779 0.0
H1125 H 0.47538 0.79243 0.91957 0.0
H1126 H 0.49599 0.7866 0.91958 0.0
C1127 C 0.56398 0.76289 0.95935 0.0
C1128 C 0.53408 0.74705 1.00832 0.0
H1129 H 0.51167 0.72595 0.91471 0.0
C1130 C 0.52803 0.76283 0.06283 0.0
C1131 C 0.52809 0.73326 0.95454 0.0
C1132 C 0.53408 0.71452 0.89595 0.0
C1133 C 0.51619 0.76592 0.06436 0.0
C1134 C 0.5102 0.75233 1.0104 0.0
C1135 C 0.51625 0.73641 0.95601 0.0
C1136 C 0.49767 0.75469 1.00933 0.0
C1137 C 0.5102 0.78462 0.12297 0.0
C1138 C 0.49172 0.73807 0.05892 0.0
C1139 C 0.47993 0.74146 0.05922 0.0
C1140 C 0.47379 0.76145 1.0097 0.0
C1141 C 0.4798 0.77726 0.95901 0.0
C1142 C 0.4916 0.77379 0.95872 0.0
H1143 H 0.51578 0.80117 0.15116 0.0
H1144 H 0.50266 0.8018 0.10605 0.0
H1145 H 0.50737 0.76456 0.15789 0.0
H1146 H 0.49621 0.72266 0.09784 0.0
H1147 H 0.47564 0.72918 0.09942 0.0
H1148 H 0.47757 0.2618 0.92914 0.0
H1149 H 0.49808 0.26022 0.93466 0.0
H1150 H 0.49627 0.27201 0.14929 0.0
H1151 H 0.47569 0.27333 0.14434 0.0
H1152 H 0.51061 0.31611 0.99414 0.0
H1153 H 0.52007 0.18413 0.11398 0.0
H1154 H 0.50702 0.19645 0.07036 0.0
H1155 H 0.50929 0.2142 0.15211 0.0
C1156 C 0.48152 0.26352 0.97771 0.0
C1157 C 0.47496 0.26746 0.03638 0.0
C1158 C 0.49326 0.26286 0.98068 0.0
C1159 C 0.49873 0.2657 0.04238 0.0
C1160 C 0.49224 0.2694 0.10117 0.0
H1161 H 0.57059 0.25599 0.14024 0.0
H1162 H 0.55 0.25927 0.14605 0.0
C1163 C 0.48047 0.27038 0.09821 0.0
C1164 C 0.51118 0.2659 0.04462 0.0
H1165 H 0.53542 0.21722 0.09335 0.0
C1166 C 0.51605 0.29452 1.01589 0.0
C1167 C 0.51825 0.23788 0.07351 0.0
C1168 C 0.51346 0.20622 0.10397 0.0
C1169 C 0.52778 0.29597 1.0154 0.0
C1170 C 0.5349 0.26746 0.04266 0.0
C1171 C 0.53 0.23905 0.0723 0.0
C1172 C 0.54744 0.26615 0.03936 0.0
C1173 C 0.53237 0.32843 0.98678 0.0
C1174 C 0.55293 0.26848 0.97749 0.0
C1175 C 0.56468 0.26686 0.97412 0.0
C1176 C 0.57128 0.2623 0.03245 0.0
C1177 C 0.56578 0.25944 0.09433 0.0
C1178 C 0.554 0.26136 0.09772 0.0
H1179 H 0.52601 0.35189 0.98864 0.0
H1180 H 0.54 0.33493 1.01419 0.0
H1181 H 0.53465 0.32342 0.93346 0.0
H1182 H 0.54813 0.27102 0.93145 0.0
H1183 H 0.56862 0.26831 0.92545 0.0
loop_
_geom_bond_atom_site_label_1
_geom_bond_atom_site_label_2
_geom_bond_distance
_geom_bond_site_symmetry_2
_ccdc_geom_bond_type
La0 C2 2.928 . S
La0 O20 2.521 . S
La0 O21 2.628 . S
La0 O22 2.554 . S
La0 O23 2.757 . S
La0 O24 2.470 . S
La0 O29 2.482 . S
La0 O31 2.503 . S
La1 C11 2.928 . S
La1 O23 2.482 . S
La1 O25 2.503 . S
La1 O26 2.521 . S
La1 O27 2.628 . S
La1 O28 2.554 . S
La1 O29 2.757 . S
La1 O30 2.470 . S
C2 La0 2.928 . S
C2 C3 1.503 . S
C2 O20 1.261 . S
C2 O21 1.243 . S
C3 C2 1.503 . S
C3 C4 1.394 . S
C3 C8 1.373 . S
C4 C3 1.394 . S
C4 C5 1.380 . S
C4 H32 0.930 . S
C5 C4 1.380 . S
C5 C6 1.376 . S
C5 H33 0.930 . S
C6 C5 1.376 . S
C6 C7 1.370 . S
C7 C6 1.370 . S
C7 C8 1.396 . S
C7 H34 0.929 . S
C8 C3 1.373 . S
C8 C7 1.396 . S
C8 H35 0.929 . S
C9 O22 1.240 . S
C9 O23 1.289 . S
C10 O24 1.258 . S
C10 O25 1.256 . S
C11 La1 2.928 . S
C11 C12 1.503 . S
C11 O26 1.261 . S
C11 O27 1.243 . S
C12 C11 1.503 . S
C12 C13 1.394 . S
C12 C17 1.373 . S
C13 C12 1.394 . S
C13 C14 1.380 . S
C13 H36 0.930 . S
C14 C13 1.380 . S
C14 C15 1.376 . S
C14 H37 0.930 . S
C15 C14 1.376 . S
C15 C16 1.370 . S
C16 C15 1.370 . S
C16 C17 1.396 . S
C16 H38 0.929 . S
C17 C12 1.373 . S
C17 C16 1.396 . S
C17 H39 0.929 . S
C18 O28 1.240 . S
C18 O29 1.289 . S
C19 O30 1.258 . S
C19 O31 1.256 . S
O20 La0 2.521 . S
O20 C2 1.261 . S
O21 La0 2.628 . S
O21 C2 1.243 . S
O22 La0 2.554 . S
O22 C9 1.240 . S
O23 La0 2.757 . S
O23 La1 2.482 . S
O23 C9 1.289 . S
O24 La0 2.470 . S
O24 C10 1.258 . S
O25 La1 2.503 . S
O25 C10 1.256 . S
O26 La1 2.521 . S
O26 C11 1.261 . S
O27 La1 2.628 . S
O27 C11 1.243 . S
O28 La1 2.554 . S
O28 C18 1.240 . S
O29 La0 2.482 . S
O29 La1 2.757 . S
O29 C18 1.289 . S
O30 La1 2.470 . S
O30 C19 1.258 . S
O31 La0 2.503 . S
O31 C19 1.256 . S
H32 C4 0.930 . S
H33 C5 0.930 . S
H34 C7 0.929 . S
H35 C8 0.929 . S
H36 C13 0.930 . S
H37 C14 0.930 . S
H38 C16 0.929 . S
H39 C17 0.929 . S
La40 C42 2.928 . S
La40 O60 2.521 . S
La40 O61 2.628 . S
La40 O62 2.554 . S
La40 O63 2.757 . S
La40 O64 2.470 . S
La40 O69 2.482 . S
La40 O71 2.503 . S
La41 C51 2.928 . S
La41 O63 2.482 . S
La41 O65 2.503 . S
La41 O66 2.521 . S
La41 O67 2.628 . S
La41 O68 2.554 . S
La41 O69 2.757 . S
La41 O70 2.470 . S
C42 La40 2.928 . S
C42 C43 1.503 . S
C42 O60 1.261 . S
C42 O61 1.243 . S
C43 C42 1.503 . S
C43 C44 1.394 . S
C43 C48 1.373 . S
C44 C43 1.394 . S
C44 C45 1.380 . S
C44 H72 0.930 . S
C45 C44 1.380 . S
C45 C46 1.376 . S
C45 H73 0.930 . S
C46 C45 1.376 . S
C46 C47 1.370 . S
C47 C46 1.370 . S
C47 C48 1.396 . S
C47 H74 0.929 . S
C48 C43 1.373 . S
C48 C47 1.396 . S
C48 H75 0.929 . S
C49 O62 1.240 . S
C49 O63 1.289 . S
C50 O64 1.258 . S
C50 O65 1.256 . S
C51 La41 2.928 . S
C51 C52 1.503 . S
C51 O66 1.261 . S
C51 O67 1.243 . S
C52 C51 1.503 . S
C52 C53 1.394 . S
C52 C57 1.373 . S
C53 C52 1.394 . S
C53 C54 1.380 . S
C53 H76 0.930 . S
C54 C53 1.380 . S
C54 C55 1.376 . S
C54 H77 0.930 . S
C55 C54 1.376 . S
C55 C56 1.370 . S
C56 C55 1.370 . S
C56 C57 1.396 . S
C56 H78 0.929 . S
C57 C52 1.373 . S
C57 C56 1.396 . S
C57 H79 0.929 . S
C58 O68 1.240 . S
C58 O69 1.289 . S
C59 O70 1.258 . S
C59 O71 1.256 . S
O60 La40 2.521 . S
O60 C42 1.261 . S
O61 La40 2.628 . S
O61 C42 1.243 . S
O62 La40 2.554 . S
O62 C49 1.240 . S
O63 La40 2.757 . S
O63 La41 2.482 . S
O63 C49 1.289 . S
O64 La40 2.470 . S
O64 C50 1.258 . S
O65 La41 2.503 . S
O65 C50 1.256 . S
O66 La41 2.521 . S
O66 C51 1.261 . S
O67 La41 2.628 . S
O67 C51 1.243 . S
O68 La41 2.554 . S
O68 C58 1.240 . S
O69 La40 2.482 . S
O69 La41 2.757 . S
O69 C58 1.289 . S
O70 La41 2.470 . S
O70 C59 1.258 . S
O71 La40 2.503 . S
O71 C59 1.256 . S
H72 C44 0.930 . S
H73 C45 0.930 . S
H74 C47 0.929 . S
H75 C48 0.929 . S
H76 C53 0.930 . S
H77 C54 0.930 . S
H78 C56 0.929 . S
H79 C57 0.929 . S
La80 C82 2.928 . S
La80 O100 2.521 . S
La80 O101 2.628 . S
La80 O102 2.554 . S
La80 O103 2.757 . S
La80 O104 2.470 . S
La80 O109 2.482 . S
La80 O111 2.503 . S
La81 C91 2.928 . S
La81 O103 2.482 . S
La81 O105 2.503 . S
La81 O106 2.521 . S
La81 O107 2.628 . S
La81 O108 2.554 . S
La81 O109 2.757 . S
La81 O110 2.470 . S
C82 La80 2.928 . S
C82 C83 1.503 . S
C82 O100 1.261 . S
C82 O101 1.243 . S
C83 C82 1.503 . S
C83 C84 1.394 . S
C83 C88 1.373 . S
C84 C83 1.394 . S
C84 C85 1.380 . S
C84 H112 0.930 . S
C85 C84 1.380 . S
C85 C86 1.376 . S
C85 H113 0.930 . S
C86 C85 1.376 . S
C86 C87 1.370 . S
C87 C86 1.370 . S
C87 C88 1.396 . S
C87 H114 0.929 . S
C88 C83 1.373 . S
C88 C87 1.396 . S
C88 H115 0.929 . S
C89 O102 1.240 . S
C89 O103 1.289 . S
C90 O104 1.258 . S
C90 O105 1.256 . S
C91 La81 2.928 . S
C91 C92 1.503 . S
C91 O106 1.261 . S
C91 O107 1.243 . S
C92 C91 1.503 . S
C92 C93 1.394 . S
C92 C97 1.373 . S
C93 C92 1.394 . S
C93 C94 1.380 . S
C93 H116 0.930 . S
C94 C93 1.380 . S
C94 C95 1.376 . S
C94 H117 0.930 . S
C95 C94 1.376 . S
C95 C96 1.370 . S
C96 C95 1.370 . S
C96 C97 1.396 . S
C96 H118 0.929 . S
C97 C92 1.373 . S
C97 C96 1.396 . S
C97 H119 0.929 . S
C98 O108 1.240 . S
C98 O109 1.289 . S
C99 O110 1.258 . S
C99 O111 1.256 . S
O100 La80 2.521 . S
O100 C82 1.261 . S
O101 La80 2.628 . S
O101 C82 1.243 . S
O102 La80 2.554 . S
O102 C89 1.240 . S
O103 La80 2.757 . S
O103 La81 2.482 . S
O103 C89 1.289 . S
O104 La80 2.470 . S
O104 C90 1.258 . S
O105 La81 2.503 . S
O105 C90 1.256 . S
O106 La81 2.521 . S
O106 C91 1.261 . S
O107 La81 2.628 . S
O107 C91 1.243 . S
O108 La81 2.554 . S
O108 C98 1.240 . S
O109 La80 2.482 . S
O109 La81 2.757 . S
O109 C98 1.289 . S
O110 La81 2.470 . S
O110 C99 1.258 . S
O111 La80 2.503 . S
O111 C99 1.256 . S
H112 C84 0.930 . S
H113 C85 0.930 . S
H114 C87 0.929 . S
H115 C88 0.929 . S
H116 C93 0.930 . S
H117 C94 0.930 . S
H118 C96 0.929 . S
H119 C97 0.929 . S
La120 C122 2.928 . S
La120 O140 2.521 . S
La120 O141 2.628 . S
La120 O142 2.554 . S
La120 O143 2.757 . S
La120 O144 2.470 . S
La120 O149 2.482 . S
La120 O151 2.503 . S
La121 C131 2.928 . S
La121 O143 2.482 . S
La121 O145 2.503 . S
La121 O146 2.521 . S
La121 O147 2.628 . S
La121 O148 2.554 . S
La121 O149 2.757 . S
La121 O150 2.470 . S
C122 La120 2.928 . S
C122 C123 1.503 . S
C122 O140 1.261 . S
C122 O141 1.243 . S
C123 C122 1.503 . S
C123 C124 1.394 . S
C123 C128 1.373 . S
C124 C123 1.394 . S
C124 C125 1.380 . S
C124 H152 0.930 . S
C125 C124 1.380 . S
C125 C126 1.376 . S
C125 H153 0.930 . S
C126 C125 1.376 . S
C126 C127 1.370 . S
C127 C126 1.370 . S
C127 C128 1.396 . S
C127 H154 0.929 . S
C128 C123 1.373 . S
C128 C127 1.396 . S
C128 H155 0.929 . S
C129 O142 1.240 . S
C129 O143 1.289 . S
C130 O144 1.258 . S
C130 O145 1.256 . S
C131 La121 2.928 . S
C131 C132 1.503 . S
C131 O146 1.261 . S
C131 O147 1.243 . S
C132 C131 1.503 . S
C132 C133 1.394 . S
C132 C137 1.373 . S
C133 C132 1.394 . S
C133 C134 1.380 . S
C133 H156 0.930 . S
C134 C133 1.380 . S
C134 C135 1.376 . S
C134 H157 0.930 . S
C135 C134 1.376 . S
C135 C136 1.370 . S
C136 C135 1.370 . S
C136 C137 1.396 . S
C136 H158 0.929 . S
C137 C132 1.373 . S
C137 C136 1.396 . S
C137 H159 0.929 . S
C138 O148 1.240 . S
C138 O149 1.289 . S
C139 O150 1.258 . S
C139 O151 1.256 . S
O140 La120 2.521 . S
O140 C122 1.261 . S
O141 La120 2.628 . S
O141 C122 1.243 . S
O142 La120 2.554 . S
O142 C129 1.240 . S
O143 La120 2.757 . S
O143 La121 2.482 . S
O143 C129 1.289 . S
O144 La120 2.470 . S
O144 C130 1.258 . S
O145 La121 2.503 . S
O145 C130 1.256 . S
O146 La121 2.521 . S
O146 C131 1.261 . S
O147 La121 2.628 . S
O147 C131 1.243 . S
O148 La121 2.554 . S
O148 C138 1.240 . S
O149 La120 2.482 . S
O149 La121 2.757 . S
O149 C138 1.289 . S
O150 La121 2.470 . S
O150 C139 1.258 . S
O151 La120 2.503 . S
O151 C139 1.256 . S
H152 C124 0.930 . S
H153 C125 0.930 . S
H154 C127 0.929 . S
H155 C128 0.929 . S
H156 C133 0.930 . S
H157 C134 0.930 . S
H158 C136 0.929 . S
H159 C137 0.929 . S
La160 C162 2.928 1_556 S
La160 O180 2.521 1_556 S
La160 O181 2.628 1_556 S
La160 O182 2.554 . S
La160 O183 2.757 . S
La160 O184 2.470 1_556 S
La160 O189 2.482 1_556 S
La160 O191 2.503 . S
La161 C171 2.928 1_554 S
La161 O183 2.482 1_554 S
La161 O185 2.503 . S
La161 O186 2.521 1_554 S
La161 O187 2.628 1_554 S
La161 O188 2.554 . S
La161 O189 2.757 . S
La161 O190 2.470 1_554 S
C162 La160 2.928 1_554 S
C162 C163 1.503 . S
C162 O180 1.261 . S
C162 O181 1.243 . S
C163 C162 1.503 . S
C163 C164 1.394 . S
C163 C168 1.373 . S
C164 C163 1.394 . S
C164 C165 1.380 . S
C164 H192 0.930 . S
C165 C164 1.380 . S
C165 C166 1.376 . S
C165 H193 0.930 . S
C166 C165 1.376 . S
C166 C167 1.370 . S
C167 C166 1.370 . S
C167 C168 1.396 . S
C167 H194 0.929 . S
C168 C163 1.373 . S
C168 C167 1.396 . S
C168 H195 0.929 . S
C169 O182 1.240 . S
C169 O183 1.289 . S
C170 O184 1.258 . S
C170 O185 1.256 . S
C171 La161 2.928 1_556 S
C171 C172 1.503 . S
C171 O186 1.261 . S
C171 O187 1.243 . S
C172 C171 1.503 . S
C172 C173 1.394 . S
C172 C177 1.373 . S
C173 C172 1.394 . S
C173 C174 1.380 . S
C173 H196 0.930 . S
C174 C173 1.380 . S
C174 C175 1.376 . S
C174 H197 0.930 . S
C175 C174 1.376 . S
C175 C176 1.370 . S
C176 C175 1.370 . S
C176 C177 1.396 . S
C176 H198 0.929 . S
C177 C172 1.373 . S
C177 C176 1.396 . S
C177 H199 0.929 . S
C178 O188 1.240 . S
C178 O189 1.289 . S
C179 O190 1.258 . S
C179 O191 1.256 . S
O180 La160 2.521 1_554 S
O180 C162 1.261 . S
O181 La160 2.628 1_554 S
O181 C162 1.243 . S
O182 La160 2.554 . S
O182 C169 1.240 . S
O183 La160 2.757 . S
O183 La161 2.482 1_556 S
O183 C169 1.289 . S
O184 La160 2.470 1_554 S
O184 C170 1.258 . S
O185 La161 2.503 . S
O185 C170 1.256 . S
O186 La161 2.521 1_556 S
O186 C171 1.261 . S
O187 La161 2.628 1_556 S
O187 C171 1.243 . S
O188 La161 2.554 . S
O188 C178 1.240 . S
O189 La160 2.482 1_554 S
O189 La161 2.757 . S
O189 C178 1.289 . S
O190 La161 2.470 1_556 S
O190 C179 1.258 . S
O191 La160 2.503 . S
O191 C179 1.256 . S
H192 C164 0.930 . S
H193 C165 0.930 . S
H194 C167 0.929 . S
H195 C168 0.929 . S
H196 C173 0.930 . S
H197 C174 0.930 . S
H198 C176 0.929 . S
H199 C177 0.929 . S
La200 C202 2.928 1_556 S
La200 O220 2.521 1_556 S
La200 O221 2.628 1_556 S
La200 O222 2.554 . S
La200 O223 2.757 . S
La200 O224 2.470 1_556 S
La200 O229 2.482 1_556 S
La200 O231 2.503 . S
La201 C211 2.928 1_554 S
La201 O223 2.482 1_554 S
La201 O225 2.503 . S
La201 O226 2.521 1_554 S
La201 O227 2.628 1_554 S
La201 O228 2.554 . S
La201 O229 2.757 . S
La201 O230 2.470 1_554 S
C202 La200 2.928 1_554 S
C202 C203 1.503 . S
C202 O220 1.261 . S
C202 O221 1.243 . S
C203 C202 1.503 . S
C203 C204 1.394 . S
C203 C208 1.373 . S
C204 C203 1.394 . S
C204 C205 1.380 . S
C204 H232 0.930 . S
C205 C204 1.380 . S
C205 C206 1.376 . S
C205 H233 0.930 . S
C206 C205 1.376 . S
C206 C207 1.370 . S
C207 C206 1.370 . S
C207 C208 1.396 . S
C207 H234 0.929 . S
C208 C203 1.373 . S
C208 C207 1.396 . S
C208 H235 0.929 . S
C209 O222 1.240 . S
C209 O223 1.289 . S
C210 O224 1.258 . S
C210 O225 1.256 . S
C211 La201 2.928 1_556 S
C211 C212 1.503 . S
C211 O226 1.261 . S
C211 O227 1.243 . S
C212 C211 1.503 . S
C212 C213 1.394 . S
C212 C217 1.373 . S
C213 C212 1.394 . S
C213 C214 1.380 . S
C213 H236 0.930 . S
C214 C213 1.380 . S
C214 C215 1.376 . S
C214 H237 0.930 . S
C215 C214 1.376 . S
C215 C216 1.370 . S
C216 C215 1.370 . S
C216 C217 1.396 . S
C216 H238 0.929 . S
C217 C212 1.373 . S
C217 C216 1.396 . S
C217 H239 0.929 . S
C218 O228 1.240 . S
C218 O229 1.289 . S
C219 O230 1.258 . S
C219 O231 1.256 . S
O220 La200 2.521 1_554 S
O220 C202 1.261 . S
O221 La200 2.628 1_554 S
O221 C202 1.243 . S
O222 La200 2.554 . S
O222 C209 1.240 . S
O223 La200 2.757 . S
O223 La201 2.482 1_556 S
O223 C209 1.289 . S
O224 La200 2.470 1_554 S
O224 C210 1.258 . S
O225 La201 2.503 . S
O225 C210 1.256 . S
O226 La201 2.521 1_556 S
O226 C211 1.261 . S
O227 La201 2.628 1_556 S
O227 C211 1.243 . S
O228 La201 2.554 . S
O228 C218 1.240 . S
O229 La200 2.482 1_554 S
O229 La201 2.757 . S
O229 C218 1.289 . S
O230 La201 2.470 1_556 S
O230 C219 1.258 . S
O231 La200 2.503 . S
O231 C219 1.256 . S
H232 C204 0.930 . S
H233 C205 0.930 . S
H234 C207 0.929 . S
H235 C208 0.929 . S
H236 C213 0.930 . S
H237 C214 0.930 . S
H238 C216 0.929 . S
H239 C217 0.929 . S
La240 C242 2.928 1_556 S
La240 O260 2.521 1_556 S
La240 O261 2.628 1_556 S
La240 O262 2.554 . S
La240 O263 2.757 . S
La240 O264 2.470 1_556 S
La240 O269 2.482 1_556 S
La240 O271 2.503 . S
La241 C251 2.928 1_554 S
La241 O263 2.482 1_554 S
La241 O265 2.503 . S
La241 O266 2.521 1_554 S
La241 O267 2.628 1_554 S
La241 O268 2.554 . S
La241 O269 2.757 . S
La241 O270 2.470 1_554 S
C242 La240 2.928 1_554 S
C242 C243 1.503 . S
C242 O260 1.261 . S
C242 O261 1.243 . S
C243 C242 1.503 . S
C243 C244 1.394 . S
C243 C248 1.373 . S
C244 C243 1.394 . S
C244 C245 1.380 . S
C244 H272 0.930 . S
C245 C244 1.380 . S
C245 C246 1.376 . S
C245 H273 0.930 . S
C246 C245 1.376 . S
C246 C247 1.370 . S
C247 C246 1.370 . S
C247 C248 1.396 . S
C247 H274 0.929 . S
C248 C243 1.373 . S
C248 C247 1.396 . S
C248 H275 0.929 . S
C249 O262 1.240 . S
C249 O263 1.289 . S
C250 O264 1.258 . S
C250 O265 1.256 . S
C251 La241 2.928 1_556 S
C251 C252 1.503 . S
C251 O266 1.261 . S
C251 O267 1.243 . S
C252 C251 1.503 . S
C252 C253 1.394 . S
C252 C257 1.373 . S
C253 C252 1.394 . S
C253 C254 1.380 . S
C253 H276 0.930 . S
C254 C253 1.380 . S
C254 C255 1.376 . S
C254 H277 0.930 . S
C255 C254 1.376 . S
C255 C256 1.370 . S
C256 C255 1.370 . S
C256 C257 1.396 . S
C256 H278 0.929 . S
C257 C252 1.373 . S
C257 C256 1.396 . S
C257 H279 0.929 . S
C258 O268 1.240 . S
C258 O269 1.289 . S
C259 O270 1.258 . S
C259 O271 1.256 . S
O260 La240 2.521 1_554 S
O260 C242 1.261 . S
O261 La240 2.628 1_554 S
O261 C242 1.243 . S
O262 La240 2.554 . S
O262 C249 1.240 . S
O263 La240 2.757 . S
O263 La241 2.482 1_556 S
O263 C249 1.289 . S
O264 La240 2.470 1_554 S
O264 C250 1.258 . S
O265 La241 2.503 . S
O265 C250 1.256 . S
O266 La241 2.521 1_556 S
O266 C251 1.261 . S
O267 La241 2.628 1_556 S
O267 C251 1.243 . S
O268 La241 2.554 . S
O268 C258 1.240 . S
O269 La240 2.482 1_554 S
O269 La241 2.757 . S
O269 C258 1.289 . S
O270 La241 2.470 1_556 S
O270 C259 1.258 . S
O271 La240 2.503 . S
O271 C259 1.256 . S
H272 C244 0.930 . S
H273 C245 0.930 . S
H274 C247 0.929 . S
H275 C248 0.929 . S
H276 C253 0.930 . S
H277 C254 0.930 . S
H278 C256 0.929 . S
H279 C257 0.929 . S
La280 C282 2.928 1_556 S
La280 O300 2.521 1_556 S
La280 O301 2.628 1_556 S
La280 O302 2.554 . S
La280 O303 2.757 . S
La280 O304 2.470 1_556 S
La280 O309 2.482 1_556 S
La280 O311 2.503 . S
La281 C291 2.928 1_554 S
La281 O303 2.482 1_554 S
La281 O305 2.503 . S
La281 O306 2.521 1_554 S
La281 O307 2.628 1_554 S
La281 O308 2.554 . S
La281 O309 2.757 . S
La281 O310 2.470 1_554 S
C282 La280 2.928 1_554 S
C282 C283 1.503 . S
C282 O300 1.261 . S
C282 O301 1.243 . S
C283 C282 1.503 . S
C283 C284 1.394 . S
C283 C288 1.373 . S
C284 C283 1.394 . S
C284 C285 1.380 . S
C284 H312 0.930 . S
C285 C284 1.380 . S
C285 C286 1.376 . S
C285 H313 0.930 . S
C286 C285 1.376 . S
C286 C287 1.370 . S
C287 C286 1.370 . S
C287 C288 1.396 . S
C287 H314 0.929 . S
C288 C283 1.373 . S
C288 C287 1.396 . S
C288 H315 0.929 . S
C289 O302 1.240 . S
C289 O303 1.289 . S
C290 O304 1.258 . S
C290 O305 1.256 . S
C291 La281 2.928 1_556 S
C291 C292 1.503 . S
C291 O306 1.261 . S
C291 O307 1.243 . S
C292 C291 1.503 . S
C292 C293 1.394 . S
C292 C297 1.373 . S
C293 C292 1.394 . S
C293 C294 1.380 . S
C293 H316 0.930 . S
C294 C293 1.380 . S
C294 C295 1.376 . S
C294 H317 0.930 . S
C295 C294 1.376 . S
C295 C296 1.370 . S
C296 C295 1.370 . S
C296 C297 1.396 . S
C296 H318 0.929 . S
C297 C292 1.373 . S
C297 C296 1.396 . S
C297 H319 0.929 . S
C298 O308 1.240 . S
C298 O309 1.289 . S
C299 O310 1.258 . S
C299 O311 1.256 . S
O300 La280 2.521 1_554 S
O300 C282 1.261 . S
O301 La280 2.628 1_554 S
O301 C282 1.243 . S
O302 La280 2.554 . S
O302 C289 1.240 . S
O303 La280 2.757 . S
O303 La281 2.482 1_556 S
O303 C289 1.289 . S
O304 La280 2.470 1_554 S
O304 C290 1.258 . S
O305 La281 2.503 . S
O305 C290 1.256 . S
O306 La281 2.521 1_556 S
O306 C291 1.261 . S
O307 La281 2.628 1_556 S
O307 C291 1.243 . S
O308 La281 2.554 . S
O308 C298 1.240 . S
O309 La280 2.482 1_554 S
O309 La281 2.757 . S
O309 C298 1.289 . S
O310 La281 2.470 1_556 S
O310 C299 1.258 . S
O311 La280 2.503 . S
O311 C299 1.256 . S
H312 C284 0.930 . S
H313 C285 0.930 . S
H314 C287 0.929 . S
H315 C288 0.929 . S
H316 C293 0.930 . S
H317 C294 0.930 . S
H318 C296 0.929 . S
H319 C297 0.929 . S
H320 C328 0.929 . S
H321 C330 0.930 . S
H322 C332 0.930 . S
H323 C335 0.929 . S
H324 C338 0.930 . S
H325 C340 0.960 . S
H326 C340 0.960 . S
H327 C340 0.960 . S
C328 H320 0.929 . S
C328 C329 1.377 . S
C328 C330 1.384 . S
C329 C328 1.377 . S
C329 C335 1.390 . S
C330 H321 0.930 . S
C330 C328 1.384 . S
C330 C331 1.372 . S
C331 C330 1.372 . S
C331 C332 1.400 . S
C331 C336 1.490 . S
C332 H322 0.930 . S
C332 C331 1.400 . S
C332 C335 1.386 . S
H333 C349 0.930 . S
H334 C350 0.931 . S
C335 H323 0.929 . S
C335 C329 1.390 . S
C335 C332 1.386 . S
C336 C331 1.490 . S
C336 C338 1.395 . S
C336 C339 1.403 . S
H337 C343 0.930 . S
C338 H324 0.930 . S
C338 C336 1.395 . S
C338 C341 1.403 . S
C339 C336 1.403 . S
C339 C340 1.524 . S
C339 C343 1.400 . S
C340 H325 0.960 . S
C340 H326 0.960 . S
C340 H327 0.960 . S
C340 C339 1.524 . S
C341 C338 1.403 . S
C341 C342 1.392 . S
C341 C345 1.495 . S
C342 C341 1.392 . S
C342 C343 1.385 . S
C342 C344 1.478 . S
C343 H337 0.930 . S
C343 C339 1.400 . S
C343 C342 1.385 . S
C344 C342 1.478 . S
C344 C346 1.381 . S
C344 C350 1.383 . S
C345 C341 1.495 . S
C345 H351 0.959 . S
C345 H352 0.961 . S
C345 H353 0.960 . S
C346 C344 1.381 . S
C346 C347 1.394 . S
C346 H354 0.930 . S
C347 C346 1.394 . S
C347 C348 1.383 . S
C347 H355 0.929 . S
C348 C347 1.383 . S
C348 C349 1.377 . S
C349 H333 0.930 . S
C349 C348 1.377 . S
C349 C350 1.379 . S
C350 H334 0.931 . S
C350 C344 1.383 . S
C350 C349 1.379 . S
H351 C345 0.959 . S
H352 C345 0.961 . S
H353 C345 0.960 . S
H354 C346 0.930 . S
H355 C347 0.929 . S
H356 C364 0.929 . S
H357 C366 0.930 . S
H358 C368 0.930 . S
H359 C371 0.929 . S
H360 C374 0.930 . S
H361 C376 0.960 . S
H362 C376 0.960 . S
H363 C376 0.960 . S
C364 H356 0.929 . S
C364 C365 1.377 . S
C364 C366 1.384 . S
C365 C364 1.377 . S
C365 C371 1.390 . S
C366 H357 0.930 . S
C366 C364 1.384 . S
C366 C367 1.372 . S
C367 C366 1.372 . S
C367 C368 1.400 . S
C367 C372 1.490 . S
C368 H358 0.930 . S
C368 C367 1.400 . S
C368 C371 1.386 . S
H369 C385 0.930 . S
H370 C386 0.931 . S
C371 H359 0.929 . S
C371 C365 1.390 . S
C371 C368 1.386 . S
C372 C367 1.490 . S
C372 C374 1.395 . S
C372 C375 1.403 . S
H373 C379 0.930 . S
C374 H360 0.930 . S
C374 C372 1.395 . S
C374 C377 1.403 . S
C375 C372 1.403 . S
C375 C376 1.524 . S
C375 C379 1.400 . S
C376 H361 0.960 . S
C376 H362 0.960 . S
C376 H363 0.960 . S
C376 C375 1.524 . S
C377 C374 1.403 . S
C377 C378 1.392 . S
C377 C381 1.495 . S
C378 C377 1.392 . S
C378 C379 1.385 . S
C378 C380 1.478 . S
C379 H373 0.930 . S
C379 C375 1.400 . S
C379 C378 1.385 . S
C380 C378 1.478 . S
C380 C382 1.381 . S
C380 C386 1.383 . S
C381 C377 1.495 . S
C381 H387 0.959 . S
C381 H388 0.961 . S
C381 H389 0.960 . S
C382 C380 1.381 . S
C382 C383 1.394 . S
C382 H390 0.930 . S
C383 C382 1.394 . S
C383 C384 1.383 . S
C383 H391 0.929 . S
C384 C383 1.383 . S
C384 C385 1.377 . S
C385 H369 0.930 . S
C385 C384 1.377 . S
C385 C386 1.379 . S
C386 H370 0.931 . S
C386 C380 1.383 . S
C386 C385 1.379 . S
H387 C381 0.959 . S
H388 C381 0.961 . S
H389 C381 0.960 . S
H390 C382 0.930 . S
H391 C383 0.929 . S
H392 C400 0.929 . S
H393 C402 0.930 . S
H394 C404 0.930 . S
H395 C407 0.929 . S
H396 C410 0.930 . S
H397 C412 0.960 . S
H398 C412 0.960 . S
H399 C412 0.960 . S
C400 H392 0.929 . S
C400 C401 1.377 . S
C400 C402 1.384 . S
C401 C400 1.377 . S
C401 C407 1.390 . S
C402 H393 0.930 . S
C402 C400 1.384 . S
C402 C403 1.372 . S
C403 C402 1.372 . S
C403 C404 1.400 . S
C403 C408 1.490 . S
C404 H394 0.930 . S
C404 C403 1.400 . S
C404 C407 1.386 . S
H405 C421 0.930 . S
H406 C422 0.931 . S
C407 H395 0.929 . S
C407 C401 1.390 . S
C407 C404 1.386 . S
C408 C403 1.490 . S
C408 C410 1.395 . S
C408 C411 1.403 . S
H409 C415 0.930 . S
C410 H396 0.930 . S
C410 C408 1.395 . S
C410 C413 1.403 . S
C411 C408 1.403 . S
C411 C412 1.524 . S
C411 C415 1.400 . S
C412 H397 0.960 . S
C412 H398 0.960 . S
C412 H399 0.960 . S
C412 C411 1.524 . S
C413 C410 1.403 . S
C413 C414 1.392 . S
C413 C417 1.495 . S
C414 C413 1.392 . S
C414 C415 1.385 . S
C414 C416 1.478 . S
C415 H409 0.930 . S
C415 C411 1.400 . S
C415 C414 1.385 . S
C416 C414 1.478 . S
C416 C418 1.381 . S
C416 C422 1.383 . S
C417 C413 1.495 . S
C417 H423 0.959 . S
C417 H424 0.961 . S
C417 H425 0.960 . S
C418 C416 1.381 . S
C418 C419 1.394 . S
C418 H426 0.930 . S
C419 C418 1.394 . S
C419 C420 1.383 . S
C419 H427 0.929 . S
C420 C419 1.383 . S
C420 C421 1.377 . S
C421 H405 0.930 . S
C421 C420 1.377 . S
C421 C422 1.379 . S
C422 H406 0.931 . S
C422 C416 1.383 . S
C422 C421 1.379 . S
H423 C417 0.959 . S
H424 C417 0.961 . S
H425 C417 0.960 . S
H426 C418 0.930 . S
H427 C419 0.929 . S
H428 C436 0.929 . S
H429 C438 0.930 . S
H430 C440 0.930 . S
H431 C443 0.929 . S
H432 C446 0.930 . S
H433 C448 0.960 . S
H434 C448 0.960 . S
H435 C448 0.960 . S
C436 H428 0.929 . S
C436 C437 1.377 . S
C436 C438 1.384 . S
C437 C436 1.377 . S
C437 C443 1.390 . S
C438 H429 0.930 . S
C438 C436 1.384 . S
C438 C439 1.372 . S
C439 C438 1.372 . S
C439 C440 1.400 . S
C439 C444 1.490 . S
C440 H430 0.930 . S
C440 C439 1.400 . S
C440 C443 1.386 . S
H441 C457 0.930 . S
H442 C458 0.931 . S
C443 H431 0.929 . S
C443 C437 1.390 . S
C443 C440 1.386 . S
C444 C439 1.490 . S
C444 C446 1.395 . S
C444 C447 1.403 . S
H445 C451 0.930 . S
C446 H432 0.930 . S
C446 C444 1.395 . S
C446 C449 1.403 . S
C447 C444 1.403 . S
C447 C448 1.524 . S
C447 C451 1.400 . S
C448 H433 0.960 . S
C448 H434 0.960 . S
C448 H435 0.960 . S
C448 C447 1.524 . S
C449 C446 1.403 . S
C449 C450 1.392 . S
C449 C453 1.495 . S
C450 C449 1.392 . S
C450 C451 1.385 . S
C450 C452 1.478 . S
C451 H445 0.930 . S
C451 C447 1.400 . S
C451 C450 1.385 . S
C452 C450 1.478 . S
C452 C454 1.381 . S
C452 C458 1.383 . S
C453 C449 1.495 . S
C453 H459 0.959 . S
C453 H460 0.961 . S
C453 H461 0.960 . S
C454 C452 1.381 . S
C454 C455 1.394 . S
C454 H462 0.930 . S
C455 C454 1.394 . S
C455 C456 1.383 . S
C455 H463 0.929 . S
C456 C455 1.383 . S
C456 C457 1.377 . S
C457 H441 0.930 . S
C457 C456 1.377 . S
C457 C458 1.379 . S
C458 H442 0.931 . S
C458 C452 1.383 . S
C458 C457 1.379 . S
H459 C453 0.959 . S
H460 C453 0.961 . S
H461 C453 0.960 . S
H462 C454 0.930 . S
H463 C455 0.929 . S
H464 C472 0.929 . S
H465 C474 0.930 . S
H466 C476 0.930 . S
H467 C479 0.929 . S
H468 C482 0.930 . S
H469 C484 0.960 . S
H470 C484 0.960 . S
H471 C484 0.960 . S
C472 H464 0.929 . S
C472 C473 1.377 . S
C472 C474 1.384 . S
C473 C472 1.377 . S
C473 C479 1.390 . S
C474 H465 0.930 . S
C474 C472 1.384 . S
C474 C475 1.372 . S
C475 C474 1.372 . S
C475 C476 1.400 . S
C475 C480 1.490 . S
C476 H466 0.930 . S
C476 C475 1.400 . S
C476 C479 1.386 . S
H477 C493 0.930 . S
H478 C494 0.931 . S
C479 H467 0.929 . S
C479 C473 1.390 . S
C479 C476 1.386 . S
C480 C475 1.490 . S
C480 C482 1.395 . S
C480 C483 1.403 . S
H481 C487 0.930 . S
C482 H468 0.930 . S
C482 C480 1.395 . S
C482 C485 1.403 1_565 S
C483 C480 1.403 . S
C483 C484 1.524 . S
C483 C487 1.400 1_565 S
C484 H469 0.960 . S
C484 H470 0.960 . S
C484 H471 0.960 . S
C484 C483 1.524 . S
C485 C482 1.403 1_545 S
C485 C486 1.392 . S
C485 C489 1.495 . S
C486 C485 1.392 . S
C486 C487 1.385 . S
C486 C488 1.478 . S
C487 H481 0.930 . S
C487 C483 1.400 1_545 S
C487 C486 1.385 . S
C488 C486 1.478 . S
C488 C490 1.381 . S
C488 C494 1.383 . S
C489 C485 1.495 . S
C489 H495 0.959 . S
C489 H496 0.961 . S
C489 H497 0.960 . S
C490 C488 1.381 . S
C490 C491 1.394 . S
C490 H498 0.930 . S
C491 C490 1.394 . S
C491 C492 1.383 . S
C491 H499 0.929 . S
C492 C491 1.383 . S
C492 C493 1.377 . S
C493 H477 0.930 . S
C493 C492 1.377 . S
C493 C494 1.379 . S
C494 H478 0.931 . S
C494 C488 1.383 . S
C494 C493 1.379 . S
H495 C489 0.959 . S
H496 C489 0.961 . S
H497 C489 0.960 . S
H498 C490 0.930 . S
H499 C491 0.929 . S
H500 C508 0.929 . S
H501 C510 0.930 . S
H502 C512 0.930 . S
H503 C515 0.929 . S
H504 C518 0.930 . S
H505 C520 0.960 . S
H506 C520 0.960 . S
H507 C520 0.960 . S
C508 H500 0.929 . S
C508 C509 1.377 . S
C508 C510 1.384 . S
C509 C508 1.377 . S
C509 C515 1.390 . S
C510 H501 0.930 . S
C510 C508 1.384 . S
C510 C511 1.372 . S
C511 C510 1.372 . S
C511 C512 1.400 . S
C511 C516 1.490 . S
C512 H502 0.930 . S
C512 C511 1.400 . S
C512 C515 1.386 . S
H513 C529 0.930 . S
H514 C530 0.931 . S
C515 H503 0.929 . S
C515 C509 1.390 . S
C515 C512 1.386 . S
C516 C511 1.490 . S
C516 C518 1.395 . S
C516 C519 1.403 . S
H517 C523 0.930 . S
C518 H504 0.930 . S
C518 C516 1.395 . S
C518 C521 1.403 . S
C519 C516 1.403 . S
C519 C520 1.524 . S
C519 C523 1.400 . S
C520 H505 0.960 . S
C520 H506 0.960 . S
C520 H507 0.960 . S
C520 C519 1.524 . S
C521 C518 1.403 . S
C521 C522 1.392 . S
C521 C525 1.495 . S
C522 C521 1.392 . S
C522 C523 1.385 . S
C522 C524 1.478 . S
C523 H517 0.930 . S
C523 C519 1.400 . S
C523 C522 1.385 . S
C524 C522 1.478 . S
C524 C526 1.381 . S
C524 C530 1.383 . S
C525 C521 1.495 . S
C525 H531 0.959 . S
C525 H532 0.961 . S
C525 H533 0.960 . S
C526 C524 1.381 . S
C526 C527 1.394 . S
C526 H534 0.930 . S
C527 C526 1.394 . S
C527 C528 1.383 . S
C527 H535 0.929 . S
C528 C527 1.383 . S
C528 C529 1.377 . S
C529 H513 0.930 . S
C529 C528 1.377 . S
C529 C530 1.379 . S
C530 H514 0.931 . S
C530 C524 1.383 . S
C530 C529 1.379 . S
H531 C525 0.959 . S
H532 C525 0.961 . S
H533 C525 0.960 . S
H534 C526 0.930 . S
H535 C527 0.929 . S
H536 C544 0.929 . S
H537 C546 0.930 . S
H538 C548 0.930 . S
H539 C551 0.929 . S
H540 C554 0.930 . S
H541 C556 0.960 . S
H542 C556 0.960 . S
H543 C556 0.960 . S
C544 H536 0.929 . S
C544 C545 1.377 . S
C544 C546 1.384 . S
C545 C544 1.377 . S
C545 C551 1.390 . S
C546 H537 0.930 . S
C546 C544 1.384 . S
C546 C547 1.372 . S
C547 C546 1.372 . S
C547 C548 1.400 . S
C547 C552 1.490 . S
C548 H538 0.930 . S
C548 C547 1.400 . S
C548 C551 1.386 . S
H549 C565 0.930 . S
H550 C566 0.931 . S
C551 H539 0.929 . S
C551 C545 1.390 . S
C551 C548 1.386 . S
C552 C547 1.490 . S
C552 C554 1.395 . S
C552 C555 1.403 . S
H553 C559 0.930 . S
C554 H540 0.930 . S
C554 C552 1.395 . S
C554 C557 1.403 1_565 S
C555 C552 1.403 . S
C555 C556 1.524 . S
C555 C559 1.400 1_565 S
C556 H541 0.960 . S
C556 H542 0.960 . S
C556 H543 0.960 . S
C556 C555 1.524 . S
C557 C554 1.403 1_545 S
C557 C558 1.392 . S
C557 C561 1.495 . S
C558 C557 1.392 . S
C558 C559 1.385 . S
C558 C560 1.478 . S
C559 H553 0.930 . S
C559 C555 1.400 1_545 S
C559 C558 1.385 . S
C560 C558 1.478 . S
C560 C562 1.381 . S
C560 C566 1.383 . S
C561 C557 1.495 . S
C561 H567 0.959 . S
C561 H568 0.961 . S
C561 H569 0.960 . S
C562 C560 1.381 . S
C562 C563 1.394 . S
C562 H570 0.930 . S
C563 C562 1.394 . S
C563 C564 1.383 . S
C563 H571 0.929 . S
C564 C563 1.383 . S
C564 C565 1.377 . S
C565 H549 0.930 . S
C565 C564 1.377 . S
C565 C566 1.379 . S
C566 H550 0.931 . S
C566 C560 1.383 . S
C566 C565 1.379 . S
H567 C561 0.959 . S
H568 C561 0.961 . S
H569 C561 0.960 . S
H570 C562 0.930 . S
H571 C563 0.929 . S
H572 C580 0.929 . S
H573 C582 0.930 . S
H574 C584 0.930 . S
H575 C587 0.929 . S
H576 C590 0.930 . S
H577 C592 0.960 . S
H578 C592 0.960 . S
H579 C592 0.960 . S
C580 H572 0.929 . S
C580 C581 1.377 . S
C580 C582 1.384 . S
C581 C580 1.377 . S
C581 C587 1.390 . S
C582 H573 0.930 . S
C582 C580 1.384 . S
C582 C583 1.372 . S
C583 C582 1.372 . S
C583 C584 1.400 . S
C583 C588 1.490 . S
C584 H574 0.930 . S
C584 C583 1.400 . S
C584 C587 1.386 . S
H585 C601 0.930 . S
H586 C602 0.931 . S
C587 H575 0.929 . S
C587 C581 1.390 . S
C587 C584 1.386 . S
C588 C583 1.490 . S
C588 C590 1.395 . S
C588 C591 1.403 . S
H589 C595 0.930 . S
C590 H576 0.930 . S
C590 C588 1.395 . S
C590 C593 1.403 . S
C591 C588 1.403 . S
C591 C592 1.524 . S
C591 C595 1.400 . S
C592 H577 0.960 . S
C592 H578 0.960 . S
C592 H579 0.960 . S
C592 C591 1.524 . S
C593 C590 1.403 . S
C593 C594 1.392 . S
C593 C597 1.495 . S
C594 C593 1.392 . S
C594 C595 1.385 . S
C594 C596 1.478 . S
C595 H589 0.930 . S
C595 C591 1.400 . S
C595 C594 1.385 . S
C596 C594 1.478 . S
C596 C598 1.381 . S
C596 C602 1.383 . S
C597 C593 1.495 . S
C597 H603 0.959 . S
C597 H604 0.961 . S
C597 H605 0.960 . S
C598 C596 1.381 . S
C598 C599 1.394 . S
C598 H606 0.930 . S
C599 C598 1.394 . S
C599 C600 1.383 . S
C599 H607 0.929 . S
C600 C599 1.383 . S
C600 C601 1.377 . S
C601 H585 0.930 . S
C601 C600 1.377 . S
C601 C602 1.379 . S
C602 H586 0.931 . S
C602 C596 1.383 . S
C602 C601 1.379 . S
H603 C597 0.959 . S
H604 C597 0.961 . S
H605 C597 0.960 . S
H606 C598 0.930 . S
H607 C599 0.929 . S
H608 C616 0.929 . S
H609 C618 0.930 . S
H610 C620 0.930 . S
H611 C623 0.929 . S
H612 C626 0.930 . S
H613 C628 0.960 . S
H614 C628 0.960 . S
H615 C628 0.960 . S
C616 H608 0.929 . S
C616 C617 1.377 1_554 S
C616 C618 1.384 . S
C617 C616 1.377 1_556 S
C617 C623 1.390 . S
C618 H609 0.930 . S
C618 C616 1.384 . S
C618 C619 1.368 1_554 S
C619 C618 1.368 1_556 S
C619 C620 1.403 . S
C619 C624 1.490 1_556 S
C620 H610 0.930 . S
C620 C619 1.403 . S
C620 C623 1.386 . S
H621 C637 0.930 . S
H622 C638 0.931 . S
C623 H611 0.929 . S
C623 C617 1.390 . S
C623 C620 1.386 . S
C624 C619 1.490 1_554 S
C624 C626 1.395 . S
C624 C627 1.403 1_554 S
H625 C631 0.930 . S
C626 H612 0.930 . S
C626 C624 1.395 . S
C626 C629 1.403 . S
C627 C624 1.403 1_556 S
C627 C628 1.524 . S
C627 C631 1.400 . S
C628 H613 0.960 . S
C628 H614 0.960 . S
C628 H615 0.960 . S
C628 C627 1.524 . S
C629 C626 1.403 . S
C629 C630 1.392 . S
C629 C633 1.495 . S
C630 C629 1.392 . S
C630 C631 1.385 1_554 S
C630 C632 1.478 . S
C631 H625 0.930 . S
C631 C627 1.400 . S
C631 C630 1.385 1_556 S
C632 C630 1.478 . S
C632 C634 1.381 . S
C632 C638 1.383 1_554 S
C633 C629 1.495 . S
C633 H639 0.959 . S
C633 H640 0.961 . S
C633 H641 0.960 . S
C634 C632 1.381 . S
C634 C635 1.394 . S
C634 H642 0.930 . S
C635 C634 1.394 . S
C635 C636 1.383 . S
C635 H643 0.929 . S
C636 C635 1.383 . S
C636 C637 1.377 1_554 S
C637 H621 0.930 . S
C637 C636 1.377 1_556 S
C637 C638 1.379 . S
C638 H622 0.931 . S
C638 C632 1.383 1_556 S
C638 C637 1.379 . S
H639 C633 0.959 . S
H640 C633 0.961 . S
H641 C633 0.960 . S
H642 C634 0.930 . S
H643 C635 0.929 . S
H644 C652 0.929 . S
H645 C654 0.930 . S
H646 C656 0.930 . S
H647 C659 0.929 . S
H648 C662 0.930 . S
H649 C664 0.960 . S
H650 C664 0.960 . S
H651 C664 0.960 . S
C652 H644 0.929 . S
C652 C653 1.377 1_554 S
C652 C654 1.384 . S
C653 C652 1.377 1_556 S
C653 C659 1.390 . S
C654 H645 0.930 . S
C654 C652 1.384 . S
C654 C655 1.372 1_554 S
C655 C654 1.372 1_556 S
C655 C656 1.400 . S
C655 C660 1.490 1_556 S
C656 H646 0.930 . S
C656 C655 1.400 . S
C656 C659 1.386 . S
H657 C673 0.930 . S
H658 C674 0.931 . S
C659 H647 0.929 . S
C659 C653 1.390 . S
C659 C656 1.386 . S
C660 C655 1.490 1_554 S
C660 C662 1.401 . S
C660 C663 1.396 1_554 S
H661 C667 0.930 . S
C662 H648 0.930 . S
C662 C660 1.401 . S
C662 C665 1.403 1_565 S
C663 C660 1.396 1_556 S
C663 C664 1.524 . S
C663 C667 1.400 1_565 S
C664 H649 0.960 . S
C664 H650 0.960 . S
C664 H651 0.960 . S
C664 C663 1.524 . S
C665 C662 1.403 1_545 S
C665 C666 1.392 . S
C665 C669 1.495 . S
C666 C665 1.392 . S
C666 C667 1.385 1_554 S
C666 C668 1.478 . S
C667 H661 0.930 . S
C667 C663 1.400 1_545 S
C667 C666 1.385 1_556 S
C668 C666 1.478 . S
C668 C670 1.381 . S
C668 C674 1.383 1_554 S
C669 C665 1.495 . S
C669 H675 0.959 . S
C669 H676 0.961 . S
C669 H677 0.960 . S
C670 C668 1.381 . S
C670 C671 1.394 . S
C670 H678 0.930 . S
C671 C670 1.394 . S
C671 C672 1.383 . S
C671 H679 0.929 . S
C672 C671 1.383 . S
C672 C673 1.377 1_554 S
C673 H657 0.930 . S
C673 C672 1.377 1_556 S
C673 C674 1.379 . S
C674 H658 0.931 . S
C674 C668 1.383 1_556 S
C674 C673 1.379 . S
H675 C669 0.959 . S
H676 C669 0.961 . S
H677 C669 0.960 . S
H678 C670 0.930 . S
H679 C671 0.929 . S
H680 C688 0.929 . S
H681 C690 0.930 . S
H682 C692 0.930 . S
H683 C695 0.929 . S
H684 C698 0.930 . S
H685 C700 0.960 . S
H686 C700 0.960 . S
H687 C700 0.960 . S
C688 H680 0.929 . S
C688 C689 1.377 1_556 S
C688 C690 1.384 . S
C689 C688 1.377 1_554 S
C689 C695 1.390 . S
C690 H681 0.930 . S
C690 C688 1.384 . S
C690 C691 1.373 . S
C691 C690 1.373 . S
C691 C692 1.398 1_556 S
C691 C696 1.490 . S
C692 H682 0.930 . S
C692 C691 1.398 1_554 S
C692 C695 1.386 . S
H693 C709 0.930 . S
H694 C710 0.931 . S
C695 H683 0.929 . S
C695 C689 1.390 . S
C695 C692 1.386 . S
C696 C691 1.490 . S
C696 C698 1.395 . S
C696 C699 1.403 1_556 S
H697 C703 0.930 . S
C698 H684 0.930 . S
C698 C696 1.395 . S
C698 C701 1.403 . S
C699 C696 1.403 1_554 S
C699 C700 1.524 . S
C699 C703 1.400 . S
C700 H685 0.960 . S
C700 H686 0.960 . S
C700 H687 0.960 . S
C700 C699 1.524 . S
C701 C698 1.403 . S
C701 C702 1.392 . S
C701 C705 1.495 . S
C702 C701 1.392 . S
C702 C703 1.385 1_556 S
C702 C704 1.478 . S
C703 H697 0.930 . S
C703 C699 1.400 . S
C703 C702 1.385 1_554 S
C704 C702 1.478 . S
C704 C706 1.381 . S
C704 C710 1.383 1_556 S
C705 C701 1.495 . S
C705 H711 0.959 . S
C705 H712 0.961 . S
C705 H713 0.960 . S
C706 C704 1.381 . S
C706 C707 1.394 . S
C706 H714 0.930 . S
C707 C706 1.394 . S
C707 C708 1.383 1_556 S
C707 H715 0.929 . S
C708 C707 1.383 1_554 S
C708 C709 1.377 . S
C709 H693 0.930 . S
C709 C708 1.377 . S
C709 C710 1.379 . S
C710 H694 0.931 . S
C710 C704 1.383 1_554 S
C710 C709 1.379 . S
H711 C705 0.959 . S
H712 C705 0.961 . S
H713 C705 0.960 . S
H714 C706 0.930 . S
H715 C707 0.929 . S
H716 C724 0.929 . S
H717 C726 0.930 . S
H718 C728 0.930 . S
H719 C731 0.929 . S
H720 C734 0.930 . S
H721 C736 0.960 . S
H722 C736 0.960 . S
H723 C736 0.960 . S
C724 H716 0.929 . S
C724 C725 1.377 . S
C724 C726 1.384 . S
C725 C724 1.377 . S
C725 C731 1.390 1_554 S
C726 H717 0.930 . S
C726 C724 1.384 . S
C726 C727 1.372 . S
C727 C726 1.372 . S
C727 C728 1.400 1_554 S
C727 C732 1.490 . S
C728 H718 0.930 . S
C728 C727 1.400 1_556 S
C728 C731 1.386 . S
H729 C745 0.930 . S
H730 C746 0.931 . S
C731 H719 0.929 . S
C731 C725 1.390 1_556 S
C731 C728 1.386 . S
C732 C727 1.490 . S
C732 C734 1.395 . S
C732 C735 1.403 1_554 S
H733 C739 0.930 . S
C734 H720 0.930 . S
C734 C732 1.395 . S
C734 C737 1.403 1_545 S
C735 C732 1.403 1_556 S
C735 C736 1.524 . S
C735 C739 1.400 1_545 S
C736 H721 0.960 . S
C736 H722 0.960 . S
C736 H723 0.960 . S
C736 C735 1.524 . S
C737 C734 1.403 1_565 S
C737 C738 1.392 . S
C737 C741 1.495 . S
C738 C737 1.392 . S
C738 C739 1.385 1_554 S
C738 C740 1.478 . S
C739 H733 0.930 . S
C739 C735 1.400 1_565 S
C739 C738 1.385 1_556 S
C740 C738 1.478 . S
C740 C742 1.381 . S
C740 C746 1.383 1_554 S
C741 C737 1.495 . S
C741 H747 0.959 . S
C741 H748 0.961 . S
C741 H749 0.960 . S
C742 C740 1.381 . S
C742 C743 1.394 . S
C742 H750 0.930 . S
C743 C742 1.394 . S
C743 C744 1.383 . S
C743 H751 0.929 . S
C744 C743 1.383 . S
C744 C745 1.377 1_554 S
C745 H729 0.930 . S
C745 C744 1.377 1_556 S
C745 C746 1.379 . S
C746 H730 0.931 . S
C746 C740 1.383 1_556 S
C746 C745 1.379 . S
H747 C741 0.959 . S
H748 C741 0.961 . S
H749 C741 0.960 . S
H750 C742 0.930 . S
H751 C743 0.929 . S
H752 C760 0.929 . S
H753 C762 0.930 . S
H754 C764 0.930 . S
H755 C767 0.929 . S
H756 C770 0.930 1_554 S
H757 C772 0.960 . S
H758 C772 0.960 1_554 S
H759 C772 0.960 1_554 S
C760 H752 0.929 . S
C760 C761 1.377 . S
C760 C762 1.384 . S
C761 C760 1.377 . S
C761 C767 1.390 . S
C762 H753 0.930 . S
C762 C760 1.384 . S
C762 C763 1.372 . S
C763 C762 1.372 . S
C763 C764 1.400 . S
C763 C768 1.490 . S
C764 H754 0.930 . S
C764 C763 1.400 . S
C764 C767 1.386 . S
H765 C781 0.930 . S
H766 C782 0.931 . S
C767 H755 0.929 . S
C767 C761 1.390 . S
C767 C764 1.386 . S
C768 C763 1.490 . S
C768 C770 1.395 1_554 S
C768 C771 1.403 1_554 S
H769 C775 0.930 . S
C770 H756 0.930 1_556 S
C770 C768 1.395 1_556 S
C770 C773 1.403 . S
C771 C768 1.403 1_556 S
C771 C772 1.524 . S
C771 C775 1.400 . S
C772 H757 0.960 . S
C772 H758 0.960 1_556 S
C772 H759 0.960 1_556 S
C772 C771 1.524 . S
C773 C770 1.403 . S
C773 C774 1.392 . S
C773 C777 1.495 . S
C774 C773 1.392 . S
C774 C775 1.385 . S
C774 C776 1.478 . S
C775 H769 0.930 . S
C775 C771 1.400 . S
C775 C774 1.385 . S
C776 C774 1.478 . S
C776 C778 1.381 . S
C776 C782 1.383 . S
C777 C773 1.495 . S
C777 H783 0.959 . S
C777 H784 0.961 . S
C777 H785 0.960 . S
C778 C776 1.381 . S
C778 C779 1.394 . S
C778 H786 0.930 . S
C779 C778 1.394 . S
C779 C780 1.383 . S
C779 H787 0.929 . S
C780 C779 1.383 . S
C780 C781 1.377 . S
C781 H765 0.930 . S
C781 C780 1.377 . S
C781 C782 1.379 . S
C782 H766 0.931 . S
C782 C776 1.383 . S
C782 C781 1.379 . S
H783 C777 0.959 . S
H784 C777 0.961 . S
H785 C777 0.960 . S
H786 C778 0.930 . S
H787 C779 0.929 . S
H788 C796 0.929 . S
H789 C798 0.930 . S
H790 C800 0.930 . S
H791 C803 0.929 . S
H792 C806 0.930 1_554 S
H793 C808 0.960 . S
H794 C808 0.960 1_554 S
H795 C808 0.960 1_554 S
C796 H788 0.929 . S
C796 C797 1.377 . S
C796 C798 1.384 . S
C797 C796 1.377 . S
C797 C803 1.390 . S
C798 H789 0.930 . S
C798 C796 1.384 . S
C798 C799 1.372 . S
C799 C798 1.372 . S
C799 C800 1.400 . S
C799 C804 1.490 . S
C800 H790 0.930 . S
C800 C799 1.400 . S
C800 C803 1.386 . S
H801 C817 0.930 . S
H802 C818 0.931 . S
C803 H791 0.929 . S
C803 C797 1.390 . S
C803 C800 1.386 . S
C804 C799 1.490 . S
C804 C806 1.395 1_554 S
C804 C807 1.403 1_554 S
H805 C811 0.930 . S
C806 H792 0.930 1_556 S
C806 C804 1.395 1_556 S
C806 C809 1.403 . S
C807 C804 1.403 1_556 S
C807 C808 1.524 . S
C807 C811 1.400 . S
C808 H793 0.960 . S
C808 H794 0.960 1_556 S
C808 H795 0.960 1_556 S
C808 C807 1.524 . S
C809 C806 1.403 . S
C809 C810 1.392 . S
C809 C813 1.495 . S
C810 C809 1.392 . S
C810 C811 1.385 . S
C810 C812 1.478 . S
C811 H805 0.930 . S
C811 C807 1.400 . S
C811 C810 1.385 . S
C812 C810 1.478 . S
C812 C814 1.381 . S
C812 C818 1.383 . S
C813 C809 1.495 . S
C813 H819 0.959 . S
C813 H820 0.961 . S
C813 H821 0.960 . S
C814 C812 1.381 . S
C814 C815 1.394 . S
C814 H822 0.930 . S
C815 C814 1.394 . S
C815 C816 1.383 . S
C815 H823 0.929 . S
C816 C815 1.383 . S
C816 C817 1.377 . S
C817 H801 0.930 . S
C817 C816 1.377 . S
C817 C818 1.379 . S
C818 H802 0.931 . S
C818 C812 1.383 . S
C818 C817 1.379 . S
H819 C813 0.959 . S
H820 C813 0.961 . S
H821 C813 0.960 . S
H822 C814 0.930 . S
H823 C815 0.929 . S
H824 C832 0.929 . S
H825 C834 0.930 . S
H826 C836 0.930 . S
H827 C839 0.929 . S
H828 C842 0.930 . S
H829 C844 0.960 . S
H830 C844 0.960 . S
H831 C844 0.960 . S
C832 H824 0.929 . S
C832 C833 1.377 . S
C832 C834 1.384 . S
C833 C832 1.377 . S
C833 C839 1.390 . S
C834 H825 0.930 . S
C834 C832 1.384 . S
C834 C835 1.372 . S
C835 C834 1.372 . S
C835 C836 1.400 . S
C835 C840 1.490 . S
C836 H826 0.930 . S
C836 C835 1.400 . S
C836 C839 1.386 . S
H837 C853 0.930 . S
H838 C854 0.931 . S
C839 H827 0.929 . S
C839 C833 1.390 . S
C839 C836 1.386 . S
C840 C835 1.490 . S
C840 C842 1.395 . S
C840 C843 1.403 . S
H841 C847 0.931 1_556 S
C842 H828 0.930 . S
C842 C840 1.395 . S
C842 C845 1.403 . S
C843 C840 1.403 . S
C843 C844 1.524 . S
C843 C847 1.400 . S
C844 H829 0.960 . S
C844 H830 0.960 . S
C844 H831 0.960 . S
C844 C843 1.524 . S
C845 C842 1.403 . S
C845 C846 1.392 1_554 S
C845 C849 1.495 1_554 S
C846 C845 1.392 1_556 S
C846 C847 1.385 1_556 S
C846 C848 1.478 . S
C847 H841 0.931 1_554 S
C847 C843 1.400 . S
C847 C846 1.385 1_554 S
C848 C846 1.478 . S
C848 C850 1.381 . S
C848 C854 1.383 . S
C849 C845 1.495 1_556 S
C849 H855 0.959 1_556 S
C849 H856 0.961 . S
C849 H857 0.960 . S
C850 C848 1.381 . S
C850 C851 1.394 . S
C850 H858 0.930 . S
C851 C850 1.394 . S
C851 C852 1.383 . S
C851 H859 0.929 . S
C852 C851 1.383 . S
C852 C853 1.377 . S
C853 H837 0.930 . S
C853 C852 1.377 . S
C853 C854 1.379 . S
C854 H838 0.931 . S
C854 C848 1.383 . S
C854 C853 1.379 . S
H855 C849 0.959 1_554 S
H856 C849 0.961 . S
H857 C849 0.960 . S
H858 C850 0.930 . S
H859 C851 0.929 . S
H860 C868 0.929 . S
H861 C870 0.930 . S
H862 C872 0.930 . S
H863 C875 0.929 . S
H864 C878 0.930 1_556 S
H865 C880 0.960 . S
H866 C880 0.960 1_556 S
H867 C880 0.960 1_556 S
C868 H860 0.929 . S
C868 C869 1.377 . S
C868 C870 1.384 . S
C869 C868 1.377 . S
C869 C875 1.390 . S
C870 H861 0.930 . S
C870 C868 1.384 . S
C870 C871 1.372 . S
C871 C870 1.372 . S
C871 C872 1.400 . S
C871 C876 1.490 . S
C872 H862 0.930 . S
C872 C871 1.400 . S
C872 C875 1.386 . S
H873 C889 0.930 . S
H874 C890 0.931 . S
C875 H863 0.929 . S
C875 C869 1.390 . S
C875 C872 1.386 . S
C876 C871 1.490 . S
C876 C878 1.395 1_556 S
C876 C879 1.403 1_556 S
H877 C883 0.930 . S
C878 H864 0.930 1_554 S
C878 C876 1.395 1_554 S
C878 C881 1.403 . S
C879 C876 1.403 1_554 S
C879 C880 1.524 . S
C879 C883 1.400 . S
C880 H865 0.960 . S
C880 H866 0.960 1_554 S
C880 H867 0.960 1_554 S
C880 C879 1.524 . S
C881 C878 1.403 . S
C881 C882 1.392 . S
C881 C885 1.495 . S
C882 C881 1.392 . S
C882 C883 1.385 . S
C882 C884 1.478 . S
C883 H877 0.930 . S
C883 C879 1.400 . S
C883 C882 1.385 . S
C884 C882 1.478 . S
C884 C886 1.381 . S
C884 C890 1.383 . S
C885 C881 1.495 . S
C885 H891 0.959 . S
C885 H892 0.961 . S
C885 H893 0.960 . S
C886 C884 1.381 . S
C886 C887 1.394 . S
C886 H894 0.930 . S
C887 C886 1.394 . S
C887 C888 1.383 . S
C887 H895 0.929 . S
C888 C887 1.383 . S
C888 C889 1.377 . S
C889 H873 0.930 . S
C889 C888 1.377 . S
C889 C890 1.379 . S
C890 H874 0.931 . S
C890 C884 1.383 . S
C890 C889 1.379 . S
H891 C885 0.959 . S
H892 C885 0.961 . S
H893 C885 0.960 . S
H894 C886 0.930 . S
H895 C887 0.929 . S
H896 C904 0.929 . S
H897 C906 0.930 . S
H898 C908 0.930 . S
H899 C911 0.929 . S
H900 C914 0.930 . S
H901 C916 0.960 . S
H902 C916 0.960 . S
H903 C916 0.960 . S
C904 H896 0.929 . S
C904 C905 1.377 . S
C904 C906 1.384 . S
C905 C904 1.377 . S
C905 C911 1.390 . S
C906 H897 0.930 . S
C906 C904 1.384 . S
C906 C907 1.372 . S
C907 C906 1.372 . S
C907 C908 1.400 . S
C907 C912 1.490 . S
C908 H898 0.930 . S
C908 C907 1.400 . S
C908 C911 1.386 . S
H909 C925 0.930 . S
H910 C926 0.931 . S
C911 H899 0.929 . S
C911 C905 1.390 . S
C911 C908 1.386 . S
C912 C907 1.490 . S
C912 C914 1.395 . S
C912 C915 1.403 . S
H913 C919 0.930 . S
C914 H900 0.930 . S
C914 C912 1.395 . S
C914 C917 1.403 . S
C915 C912 1.403 . S
C915 C916 1.524 . S
C915 C919 1.400 . S
C916 H901 0.960 . S
C916 H902 0.960 . S
C916 H903 0.960 . S
C916 C915 1.524 . S
C917 C914 1.403 . S
C917 C918 1.392 . S
C917 C921 1.495 . S
C918 C917 1.392 . S
C918 C919 1.385 . S
C918 C920 1.478 . S
C919 H913 0.930 . S
C919 C915 1.400 . S
C919 C918 1.385 . S
C920 C918 1.478 . S
C920 C922 1.381 . S
C920 C926 1.383 . S
C921 C917 1.495 . S
C921 H927 0.959 . S
C921 H928 0.961 . S
C921 H929 0.960 . S
C922 C920 1.381 . S
C922 C923 1.394 . S
C922 H930 0.930 . S
C923 C922 1.394 . S
C923 C924 1.383 . S
C923 H931 0.929 . S
C924 C923 1.383 . S
C924 C925 1.377 . S
C925 H909 0.930 . S
C925 C924 1.377 . S
C925 C926 1.379 . S
C926 H910 0.931 . S
C926 C920 1.383 . S
C926 C925 1.379 . S
H927 C921 0.959 . S
H928 C921 0.961 . S
H929 C921 0.960 . S
H930 C922 0.930 . S
H931 C923 0.929 . S
H932 C940 0.929 . S
H933 C942 0.930 . S
H934 C944 0.930 . S
H935 C947 0.929 . S
H936 C950 0.930 . S
H937 C952 0.960 . S
H938 C952 0.960 . S
H939 C952 0.960 . S
C940 H932 0.929 . S
C940 C941 1.377 . S
C940 C942 1.384 . S
C941 C940 1.377 . S
C941 C947 1.390 . S
C942 H933 0.930 . S
C942 C940 1.384 . S
C942 C943 1.372 . S
C943 C942 1.372 . S
C943 C944 1.400 . S
C943 C948 1.490 . S
C944 H934 0.930 . S
C944 C943 1.400 . S
C944 C947 1.386 . S
H945 C961 0.930 . S
H946 C962 0.931 . S
C947 H935 0.929 . S
C947 C941 1.390 . S
C947 C944 1.386 . S
C948 C943 1.490 . S
C948 C950 1.395 . S
C948 C951 1.403 . S
H949 C955 0.930 . S
C950 H936 0.930 . S
C950 C948 1.395 . S
C950 C953 1.403 . S
C951 C948 1.403 . S
C951 C952 1.524 . S
C951 C955 1.400 . S
C952 H937 0.960 . S
C952 H938 0.960 . S
C952 H939 0.960 . S
C952 C951 1.524 . S
C953 C950 1.403 . S
C953 C954 1.392 . S
C953 C957 1.495 . S
C954 C953 1.392 . S
C954 C955 1.385 . S
C954 C956 1.478 . S
C955 H949 0.930 . S
C955 C951 1.400 . S
C955 C954 1.385 . S
C956 C954 1.478 . S
C956 C958 1.381 . S
C956 C962 1.383 . S
C957 C953 1.495 . S
C957 H963 0.959 . S
C957 H964 0.961 . S
C957 H965 0.960 . S
C958 C956 1.381 . S
C958 C959 1.394 . S
C958 H966 0.930 . S
C959 C958 1.394 . S
C959 C960 1.383 . S
C959 H967 0.929 . S
C960 C959 1.383 . S
C960 C961 1.377 . S
C961 H945 0.930 . S
C961 C960 1.377 . S
C961 C962 1.379 . S
C962 H946 0.931 . S
C962 C956 1.383 . S
C962 C961 1.379 . S
H963 C957 0.959 . S
H964 C957 0.961 . S
H965 C957 0.960 . S
H966 C958 0.930 . S
H967 C959 0.929 . S
H968 C976 0.929 . S
H969 C978 0.930 . S
H970 C980 0.930 . S
H971 C983 0.929 . S
H972 C986 0.930 . S
H973 C988 0.960 . S
H974 C988 0.960 . S
H975 C988 0.960 . S
C976 H968 0.929 . S
C976 C977 1.377 . S
C976 C978 1.384 . S
C977 C976 1.377 . S
C977 C983 1.390 . S
C978 H969 0.930 . S
C978 C976 1.384 . S
C978 C979 1.372 . S
C979 C978 1.372 . S
C979 C980 1.400 . S
C979 C984 1.490 . S
C980 H970 0.930 . S
C980 C979 1.400 . S
C980 C983 1.386 . S
H981 C997 0.930 . S
H982 C998 0.931 . S
C983 H971 0.929 . S
C983 C977 1.390 . S
C983 C980 1.386 . S
C984 C979 1.490 . S
C984 C986 1.395 . S
C984 C987 1.403 . S
H985 C991 0.930 . S
C986 H972 0.930 . S
C986 C984 1.395 . S
C986 C989 1.403 . S
C987 C984 1.403 . S
C987 C988 1.524 . S
C987 C991 1.400 . S
C988 H973 0.960 . S
C988 H974 0.960 . S
C988 H975 0.960 . S
C988 C987 1.524 . S
C989 C986 1.403 . S
C989 C990 1.392 . S
C989 C993 1.495 . S
C990 C989 1.392 . S
C990 C991 1.385 . S
C990 C992 1.478 . S
C991 H985 0.930 . S
C991 C987 1.400 . S
C991 C990 1.385 . S
C992 C990 1.478 . S
C992 C994 1.381 . S
C992 C998 1.383 . S
C993 C989 1.495 . S
C993 H999 0.959 . S
C993 H1000 0.961 . S
C993 H1001 0.960 . S
C994 C992 1.381 . S
C994 C995 1.394 . S
C994 H1002 0.930 . S
C995 C994 1.394 . S
C995 C996 1.383 . S
C995 H1003 0.929 . S
C996 C995 1.383 . S
C996 C997 1.377 . S
C997 H981 0.930 . S
C997 C996 1.377 . S
C997 C998 1.379 . S
C998 H982 0.931 . S
C998 C992 1.383 . S
C998 C997 1.379 . S
H999 C993 0.959 . S
H1000 C993 0.961 . S
H1001 C993 0.960 . S
H1002 C994 0.930 . S
H1003 C995 0.929 . S
H1004 C1012 0.929 . S
H1005 C1014 0.930 . S
H1006 C1016 0.930 . S
H1007 C1019 0.929 . S
H1008 C1022 0.930 . S
H1009 C1024 0.960 . S
H1010 C1024 0.960 . S
H1011 C1024 0.960 . S
C1012 H1004 0.929 . S
C1012 C1013 1.377 . S
C1012 C1014 1.384 . S
C1013 C1012 1.377 . S
C1013 C1019 1.390 . S
C1014 H1005 0.930 . S
C1014 C1012 1.384 . S
C1014 C1015 1.372 . S
C1015 C1014 1.372 . S
C1015 C1016 1.400 . S
C1015 C1020 1.490 . S
C1016 H1006 0.930 . S
C1016 C1015 1.400 . S
C1016 C1019 1.386 . S
H1017 C1033 0.930 . S
H1018 C1034 0.931 . S
C1019 H1007 0.929 . S
C1019 C1013 1.390 . S
C1019 C1016 1.386 . S
C1020 C1015 1.490 . S
C1020 C1022 1.395 . S
C1020 C1023 1.403 . S
H1021 C1027 0.930 . S
C1022 H1008 0.930 . S
C1022 C1020 1.395 . S
C1022 C1025 1.403 . S
C1023 C1020 1.403 . S
C1023 C1024 1.524 . S
C1023 C1027 1.400 . S
C1024 H1009 0.960 . S
C1024 H1010 0.960 . S
C1024 H1011 0.960 . S
C1024 C1023 1.524 . S
C1025 C1022 1.403 . S
C1025 C1026 1.392 . S
C1025 C1029 1.495 . S
C1026 C1025 1.392 . S
C1026 C1027 1.385 . S
C1026 C1028 1.478 . S
C1027 H1021 0.930 . S
C1027 C1023 1.400 . S
C1027 C1026 1.385 . S
C1028 C1026 1.478 . S
C1028 C1030 1.381 . S
C1028 C1034 1.383 . S
C1029 C1025 1.495 . S
C1029 H1035 0.959 . S
C1029 H1036 0.961 . S
C1029 H1037 0.960 . S
C1030 C1028 1.381 . S
C1030 C1031 1.394 . S
C1030 H1038 0.930 . S
C1031 C1030 1.394 . S
C1031 C1032 1.383 . S
C1031 H1039 0.929 . S
C1032 C1031 1.383 . S
C1032 C1033 1.377 . S
C1033 H1017 0.930 . S
C1033 C1032 1.377 . S
C1033 C1034 1.379 . S
C1034 H1018 0.931 . S
C1034 C1028 1.383 . S
C1034 C1033 1.379 . S
H1035 C1029 0.959 . S
H1036 C1029 0.961 . S
H1037 C1029 0.960 . S
H1038 C1030 0.930 . S
H1039 C1031 0.929 . S
H1040 C1048 0.929 . S
H1041 C1050 0.930 . S
H1042 C1052 0.930 . S
H1043 C1055 0.929 . S
H1044 C1058 0.930 . S
H1045 C1060 0.960 . S
H1046 C1060 0.960 . S
H1047 C1060 0.960 . S
C1048 H1040 0.929 . S
C1048 C1049 1.377 . S
C1048 C1050 1.384 . S
C1049 C1048 1.377 . S
C1049 C1055 1.390 . S
C1050 H1041 0.930 . S
C1050 C1048 1.384 . S
C1050 C1051 1.372 . S
C1051 C1050 1.372 . S
C1051 C1052 1.400 . S
C1051 C1056 1.490 . S
C1052 H1042 0.930 . S
C1052 C1051 1.400 . S
C1052 C1055 1.386 . S
H1053 C1069 0.930 . S
H1054 C1070 0.931 . S
C1055 H1043 0.929 . S
C1055 C1049 1.390 . S
C1055 C1052 1.386 . S
C1056 C1051 1.490 . S
C1056 C1058 1.395 . S
C1056 C1059 1.403 . S
H1057 C1063 0.930 . S
C1058 H1044 0.930 . S
C1058 C1056 1.395 . S
C1058 C1061 1.403 1_455 S
C1059 C1056 1.403 . S
C1059 C1060 1.524 . S
C1059 C1063 1.400 1_455 S
C1060 H1045 0.960 . S
C1060 H1046 0.960 . S
C1060 H1047 0.960 . S
C1060 C1059 1.524 . S
C1061 C1058 1.403 1_655 S
C1061 C1062 1.392 . S
C1061 C1065 1.495 . S
C1062 C1061 1.392 . S
C1062 C1063 1.385 . S
C1062 C1064 1.478 . S
C1063 H1057 0.930 . S
C1063 C1059 1.400 1_655 S
C1063 C1062 1.385 . S
C1064 C1062 1.478 . S
C1064 C1066 1.381 . S
C1064 C1070 1.383 . S
C1065 C1061 1.495 . S
C1065 H1071 0.959 . S
C1065 H1072 0.961 . S
C1065 H1073 0.960 . S
C1066 C1064 1.381 . S
C1066 C1067 1.394 . S
C1066 H1074 0.930 . S
C1067 C1066 1.394 . S
C1067 C1068 1.383 . S
C1067 H1075 0.929 . S
C1068 C1067 1.383 . S
C1068 C1069 1.377 . S
C1069 H1053 0.930 . S
C1069 C1068 1.377 . S
C1069 C1070 1.379 . S
C1070 H1054 0.931 . S
C1070 C1064 1.383 . S
C1070 C1069 1.379 . S
H1071 C1065 0.959 . S
H1072 C1065 0.961 . S
H1073 C1065 0.960 . S
H1074 C1066 0.930 . S
H1075 C1067 0.929 . S
H1076 C1084 0.929 . S
H1077 C1086 0.930 . S
H1078 C1088 0.930 . S
H1079 C1091 0.929 . S
H1080 C1094 0.930 . S
H1081 C1096 0.960 . S
H1082 C1096 0.960 . S
H1083 C1096 0.960 . S
C1084 H1076 0.929 . S
C1084 C1085 1.377 . S
C1084 C1086 1.384 . S
C1085 C1084 1.377 . S
C1085 C1091 1.390 . S
C1086 H1077 0.930 . S
C1086 C1084 1.384 . S
C1086 C1087 1.372 . S
C1087 C1086 1.372 . S
C1087 C1088 1.400 . S
C1087 C1092 1.490 . S
C1088 H1078 0.930 . S
C1088 C1087 1.400 . S
C1088 C1091 1.386 . S
H1089 C1105 0.930 . S
H1090 C1106 0.931 . S
C1091 H1079 0.929 . S
C1091 C1085 1.390 . S
C1091 C1088 1.386 . S
C1092 C1087 1.490 . S
C1092 C1094 1.395 . S
C1092 C1095 1.403 . S
H1093 C1099 0.930 . S
C1094 H1080 0.930 . S
C1094 C1092 1.395 . S
C1094 C1097 1.403 1_655 S
C1095 C1092 1.403 . S
C1095 C1096 1.524 . S
C1095 C1099 1.400 1_655 S
C1096 H1081 0.960 . S
C1096 H1082 0.960 . S
C1096 H1083 0.960 . S
C1096 C1095 1.524 . S
C1097 C1094 1.403 1_455 S
C1097 C1098 1.392 . S
C1097 C1101 1.495 . S
C1098 C1097 1.392 . S
C1098 C1099 1.385 . S
C1098 C1100 1.478 . S
C1099 H1093 0.930 . S
C1099 C1095 1.400 1_455 S
C1099 C1098 1.385 . S
C1100 C1098 1.478 . S
C1100 C1102 1.381 . S
C1100 C1106 1.383 . S
C1101 C1097 1.495 . S
C1101 H1107 0.959 . S
C1101 H1108 0.961 . S
C1101 H1109 0.960 . S
C1102 C1100 1.381 . S
C1102 C1103 1.394 . S
C1102 H1110 0.930 . S
C1103 C1102 1.394 . S
C1103 C1104 1.383 . S
C1103 H1111 0.929 . S
C1104 C1103 1.383 . S
C1104 C1105 1.377 . S
C1105 H1089 0.930 . S
C1105 C1104 1.377 . S
C1105 C1106 1.379 . S
C1106 H1090 0.931 . S
C1106 C1100 1.383 . S
C1106 C1105 1.379 . S
H1107 C1101 0.959 . S
H1108 C1101 0.961 . S
H1109 C1101 0.960 . S
H1110 C1102 0.930 . S
H1111 C1103 0.929 . S
H1112 C1120 0.929 . S
H1113 C1122 0.930 . S
H1114 C1124 0.930 . S
H1115 C1127 0.929 . S
H1116 C1130 0.930 . S
H1117 C1132 0.960 . S
H1118 C1132 0.960 . S
H1119 C1132 0.960 . S
C1120 H1112 0.929 . S
C1120 C1121 1.377 . S
C1120 C1122 1.384 . S
C1121 C1120 1.377 . S
C1121 C1127 1.390 . S
C1122 H1113 0.930 . S
C1122 C1120 1.384 . S
C1122 C1123 1.372 . S
C1123 C1122 1.372 . S
C1123 C1124 1.400 . S
C1123 C1128 1.490 . S
C1124 H1114 0.930 . S
C1124 C1123 1.400 . S
C1124 C1127 1.386 . S
H1125 C1141 0.930 . S
H1126 C1142 0.931 . S
C1127 H1115 0.929 . S
C1127 C1121 1.390 . S
C1127 C1124 1.386 . S
C1128 C1123 1.490 . S
C1128 C1130 1.395 . S
C1128 C1131 1.403 . S
H1129 C1135 0.930 . S
C1130 H1116 0.930 . S
C1130 C1128 1.395 . S
C1130 C1133 1.403 . S
C1131 C1128 1.403 . S
C1131 C1132 1.524 . S
C1131 C1135 1.400 . S
C1132 H1117 0.960 . S
C1132 H1118 0.960 . S
C1132 H1119 0.960 . S
C1132 C1131 1.524 . S
C1133 C1130 1.403 . S
C1133 C1134 1.392 . S
C1133 C1137 1.495 . S
C1134 C1133 1.392 . S
C1134 C1135 1.385 . S
C1134 C1136 1.478 . S
C1135 H1129 0.930 . S
C1135 C1131 1.400 . S
C1135 C1134 1.385 . S
C1136 C1134 1.478 . S
C1136 C1138 1.381 . S
C1136 C1142 1.383 . S
C1137 C1133 1.495 . S
C1137 H1143 0.959 . S
C1137 H1144 0.961 . S
C1137 H1145 0.960 . S
C1138 C1136 1.381 . S
C1138 C1139 1.394 . S
C1138 H1146 0.930 . S
C1139 C1138 1.394 . S
C1139 C1140 1.383 . S
C1139 H1147 0.929 . S
C1140 C1139 1.383 . S
C1140 C1141 1.377 . S
C1141 H1125 0.930 . S
C1141 C1140 1.377 . S
C1141 C1142 1.379 . S
C1142 H1126 0.931 . S
C1142 C1136 1.383 . S
C1142 C1141 1.379 . S
H1143 C1137 0.959 . S
H1144 C1137 0.961 . S
H1145 C1137 0.960 . S
H1146 C1138 0.930 . S
H1147 C1139 0.929 . S
H1148 C1156 0.929 . S
H1149 C1158 0.930 . S
H1150 C1160 0.930 . S
H1151 C1163 0.929 . S
H1152 C1166 0.930 . S
H1153 C1168 0.960 . S
H1154 C1168 0.960 . S
H1155 C1168 0.960 . S
C1156 H1148 0.929 . S
C1156 C1157 1.377 . S
C1156 C1158 1.384 . S
C1157 C1156 1.377 . S
C1157 C1163 1.390 . S
C1158 H1149 0.930 . S
C1158 C1156 1.384 . S
C1158 C1159 1.372 . S
C1159 C1158 1.372 . S
C1159 C1160 1.400 . S
C1159 C1164 1.490 . S
C1160 H1150 0.930 . S
C1160 C1159 1.400 . S
C1160 C1163 1.386 . S
H1161 C1177 0.930 . S
H1162 C1178 0.931 . S
C1163 H1151 0.929 . S
C1163 C1157 1.390 . S
C1163 C1160 1.386 . S
C1164 C1159 1.490 . S
C1164 C1166 1.395 . S
C1164 C1167 1.403 . S
H1165 C1171 0.930 . S
C1166 H1152 0.930 . S
C1166 C1164 1.395 . S
C1166 C1169 1.403 . S
C1167 C1164 1.403 . S
C1167 C1168 1.524 . S
C1167 C1171 1.400 . S
C1168 H1153 0.960 . S
C1168 H1154 0.960 . S
C1168 H1155 0.960 . S
C1168 C1167 1.524 . S
C1169 C1166 1.403 . S
C1169 C1170 1.392 . S
C1169 C1173 1.495 . S
C1170 C1169 1.392 . S
C1170 C1171 1.385 . S
C1170 C1172 1.478 . S
C1171 H1165 0.930 . S
C1171 C1167 1.400 . S
C1171 C1170 1.385 . S
C1172 C1170 1.478 . S
C1172 C1174 1.381 . S
C1172 C1178 1.383 . S
C1173 C1169 1.495 . S
C1173 H1179 0.959 . S
C1173 H1180 0.961 . S
C1173 H1181 0.960 . S
C1174 C1172 1.381 . S
C1174 C1175 1.394 . S
C1174 H1182 0.930 . S
C1175 C1174 1.394 . S
C1175 C1176 1.383 . S
C1175 H1183 0.929 . S
C1176 C1175 1.383 . S
C1176 C1177 1.377 . S
C1177 H1161 0.930 . S
C1177 C1176 1.377 . S
C1177 C1178 1.379 . S
C1178 H1162 0.931 . S
C1178 C1172 1.383 . S
C1178 C1177 1.379 . S
H1179 C1173 0.959 . S
H1180 C1173 0.961 . S
H1181 C1173 0.960 . S
H1182 C1174 0.930 . S
H1183 C1175 0.929 . S
C329 C6 1.700 . S
C348 C295 1.694 . S
C365 C255 1.702 . S
C384 C46 1.694 . S
C401 C206 1.701 . S
C420 C95 1.701 . S
C437 C166 1.701 . S
C456 C135 1.702 . S
C473 C89 1.523 . S
C492 C9 1.554 . S
C509 C49 1.543 . S
C528 C129 1.526 . S
C545 C138 1.538 . S
C564 C58 1.502 . S
C581 C98 1.539 . S
C600 C18 1.543 . S
C617 C169 1.436 . S
C636 C249 1.424 1_554 S
C653 C209 1.436 . S
C672 C289 1.438 1_554 S
C689 C298 1.446 . S
C708 C218 1.463 . S
C725 C258 1.436 . S
C744 C178 1.425 . S
C761 C19 2.044 . S
C780 C10 2.052 . S
C797 C59 2.046 . S
C816 C50 2.059 . S
C833 C99 2.049 . S
C852 C90 2.034 . S
C869 C130 2.045 . S
C888 C139 2.057 . S
C905 C170 2.046 . S
C924 C179 2.025 . S
C941 C219 2.050 . S
C960 C210 2.045 . S
C977 C250 2.043 . S
C996 C259 2.045 . S
C1013 C290 2.045 . S
C1032 C299 2.056 . S
C1049 C15 2.363 . S
C1068 C55 2.374 . S
C1085 C126 2.366 . S
C1104 C86 2.346 . S
C1121 C175 2.366 . S
C1140 C215 2.352 . S
C1157 C286 2.365 . S
C1176 C246 2.355 . S
