# Generated by pormake.
# Topology uon, (4)-cn, num edge types: 1
# Building blocks:
#     Node 0, Type 0, BuildingBlock: ICAMEG_clean_sbu_1, # of connection points: 4
#     Node 1, Type 0, BuildingBlock: ICAMEG_clean_sbu_1, # of connection points: 4
#     Node 2, Type 0, BuildingBlock: ICAMEG_clean_sbu_1, # of connection points: 4
#     Node 3, Type 0, BuildingBlock: ICAMEG_clean_sbu_1, # of connection points: 4
#     Node 4, Type 0, BuildingBlock: ICAMEG_clean_sbu_1, # of connection points: 4
#     Node 5, Type 0, BuildingBlock: ICAMEG_clean_sbu_1, # of connection points: 4
#     Edge 6, Type (0, 0), BuildingBlock: AJUNOK_clean_linker_0, # of connection points: 2
#     Edge 7, Type (0, 0), BuildingBlock: AJUNOK_clean_linker_0, # of connection points: 2
#     Edge 8, Type (0, 0), BuildingBlock: AJUNOK_clean_linker_0, # of connection points: 2
#     Edge 9, Type (0, 0), BuildingBlock: AJUNOK_clean_linker_0, # of connection points: 2
#     Edge 10, Type (0, 0), BuildingBlock: AJUNOK_clean_linker_0, # of connection points: 2
#     Edge 11, Type (0, 0), BuildingBlock: AJUNOK_clean_linker_0, # of connection points: 2
#     Edge 12, Type (0, 0), BuildingBlock: AJUNOK_clean_linker_0, # of connection points: 2
#     Edge 13, Type (0, 0), BuildingBlock: AJUNOK_clean_linker_0, # of connection points: 2
#     Edge 14, Type (0, 0), BuildingBlock: AJUNOK_clean_linker_0, # of connection points: 2
#     Edge 15, Type (0, 0), BuildingBlock: AJUNOK_clean_linker_0, # of connection points: 2
#     Edge 16, Type (0, 0), BuildingBlock: AJUNOK_clean_linker_0, # of connection points: 2
#     Edge 17, Type (0, 0), BuildingBlock: AJUNOK_clean_linker_0, # of connection points: 2
# Relax obj value: 0.158
# Max RMSD: 0.296
# Mean RMSD: 0.272
data_MOF--net-uon--node1-ICAMEG_clean_sbu_1--edge1-AJUNOK_clean_linker_0
_symmetry_space_group_name_H-M    P1
_symmetry_Int_Tables_number       1
_symmetry_cell_setting            triclinic
loop_
_symmetry_equiv_pos_as_xyz
'x, y, z'
_cell_length_a     27.694536
_cell_length_b     27.707018
_cell_length_c     12.866583
_cell_angle_alpha  89.676284
_cell_angle_beta   90.277338
_cell_angle_gamma 120.00819
loop_
_atom_site_label
_atom_site_type_symbol
_atom_site_fract_x
_atom_site_fract_y
_atom_site_fract_z
_atom_type_partial_charge
Co0 Co 0.18863 0.42682 0.03751 0.0
Co1 Co 0.26146 0.41701 0.24683 0.0
O2 O 0.24774 0.41892 0.1 0.0
C3 C 0.2955 0.49828 0.92692 0.0
O4 O 0.30375 0.45588 0.92107 0.0
C5 C 0.2474 0.31221 0.15694 0.0
O6 O 0.19528 0.29769 0.13845 0.0
O7 O 0.18037 0.36324 0.27138 0.0
O8 O 0.13171 0.36732 0.13307 0.0
H9 H 0.22418 0.41543 0.62928 0.0
H10 H 0.24822 0.36323 0.96828 0.0
O11 O 0.24758 0.49045 0.95212 0.0
H12 H 0.07319 0.2787 0.77135 0.0
H13 H 0.10412 0.49232 0.76227 0.0
H14 H 0.0882 0.42447 0.12176 0.0
H15 H 0.09395 0.35352 0.89209 0.0
H16 H 0.16912 0.46268 0.82827 0.0
O17 O 0.27745 0.35501 0.21312 0.0
H18 H 0.20818 0.4228 0.44237 0.0
H19 H 0.34496 0.40099 0.3654 0.0
H20 H 0.02349 0.45453 0.05904 0.0
H21 H 0.22975 0.29104 0.84434 0.0
H22 H 0.03349 0.49195 0.88035 0.0
H23 H 0.14106 0.24606 0.74636 0.0
O24 O 0.20059 0.48398 0.13807 0.0
H25 H 0.44378 0.50019 0.05429 0.0
H26 H 0.34339 0.52384 0.34699 0.0
H27 H 0.43782 0.59903 0.30399 0.0
H28 H 0.4898 0.5868 0.15928 0.0
H29 H 0.3465 0.42901 0.09179 0.0
H30 H 0.3626 0.39349 0.55152 0.0
H31 H 0.30186 0.40068 0.68484 0.0
O32 O 0.24756 0.48041 0.2775 0.0
C33 C 0.13425 0.34917 0.22425 0.0
C34 C 0.25105 0.41244 0.57194 0.0
C35 C 0.32864 0.39998 0.52828 0.0
N36 N 0.27578 0.41258 0.39325 0.0
C37 C 0.24227 0.41671 0.46604 0.0
C38 C 0.31845 0.40419 0.42306 0.0
C39 C 0.29459 0.40407 0.60306 0.0
C40 C 0.21107 0.34835 0.92253 0.0
N41 N 0.17492 0.36837 0.93411 0.0
C42 C 0.20023 0.3055 0.85321 0.0
C43 C 0.15056 0.28036 0.79806 0.0
C44 C 0.11271 0.29873 0.81205 0.0
C45 C 0.12543 0.34241 0.88068 0.0
C46 C 0.10056 0.4775 0.84116 0.0
C47 C 0.09115 0.43785 0.04196 0.0
C48 C 0.13701 0.4604 0.87891 0.0
N49 N 0.13185 0.44055 0.97826 0.0
C50 C 0.05474 0.45559 0.00737 0.0
C51 C 0.06012 0.47626 0.90676 0.0
C52 C 0.22337 0.50165 0.22554 0.0
C53 C 0.42205 0.50566 0.1188 0.0
C54 C 0.36505 0.51842 0.28248 0.0
C55 C 0.41901 0.56093 0.2595 0.0
C56 C 0.44785 0.55423 0.17769 0.0
N57 N 0.33947 0.47142 0.22292 0.0
C58 C 0.36719 0.46497 0.14147 0.0
Co59 Co 0.75935 0.22993 0.49527 0.0
Co60 Co 0.86891 0.25213 0.65578 0.0
O61 O 0.83879 0.26681 0.52974 0.0
C62 C 0.79213 0.34707 0.51098 0.0
O63 O 0.82435 0.34895 0.58748 0.0
C64 C 0.93035 0.24247 0.47522 0.0
O65 O 0.88137 0.21356 0.43063 0.0
O66 O 0.82574 0.17088 0.62951 0.0
O67 O 0.74674 0.15548 0.54935 0.0
H68 H 0.84925 0.14513 0.98248 0.0
H69 H 0.8382 0.30095 0.33205 0.0
O70 O 0.76806 0.30381 0.45309 0.0
H71 H 0.73703 0.11204 0.18286 0.0
H72 H 0.59698 0.19087 0.26199 0.0
H73 H 0.65269 0.15622 0.60521 0.0
H74 H 0.71859 0.12902 0.36268 0.0
H75 H 0.69645 0.2345 0.30974 0.0
O76 O 0.93343 0.258 0.57002 0.0
H77 H 0.8174 0.16913 0.82219 0.0
H78 H 0.98191 0.30033 0.7595 0.0
H79 H 0.55299 0.11206 0.56142 0.0
H80 H 0.85733 0.28608 0.15136 0.0
H81 H 0.52451 0.12911 0.3879 0.0
H82 H 0.80554 0.19132 0.07525 0.0
O83 O 0.74141 0.24463 0.63281 0.0
H84 H 0.99065 0.45263 0.55169 0.0
H85 H 0.8833 0.32504 0.83775 0.0
H86 H 0.92659 0.42636 0.86266 0.0
H87 H 0.98057 0.49098 0.71866 0.0
H88 H 0.94413 0.35097 0.52794 0.0
H89 H 0.01387 0.27937 0.92626 0.0
H90 H 0.94826 0.20174 0.03649 0.0
O91 O 0.80576 0.24749 0.74344 0.0
C92 C 0.77569 0.13871 0.60029 0.0
C93 C 0.8786 0.17953 0.93464 0.0
C94 C 0.97125 0.25492 0.90175 0.0
N95 N 0.8978 0.23608 0.781 0.0
C96 C 0.86098 0.19316 0.84302 0.0
C97 C 0.95268 0.26653 0.80851 0.0
C98 C 0.93407 0.2111 0.96464 0.0
C99 C 0.81592 0.25953 0.29948 0.0
N100 N 0.77713 0.21594 0.35733 0.0
C101 C 0.82698 0.25134 0.19732 0.0
C102 C 0.7982 0.19806 0.15484 0.0
C103 C 0.75958 0.15359 0.21515 0.0
C104 C 0.74962 0.16335 0.31708 0.0
C105 C 0.60896 0.18261 0.33715 0.0
C106 C 0.64086 0.16259 0.52905 0.0
C107 C 0.66524 0.20672 0.36439 0.0
N108 N 0.68068 0.19545 0.45854 0.0
C109 C 0.5842 0.1381 0.50494 0.0
C110 C 0.56825 0.14789 0.40788 0.0
C111 C 0.76132 0.24903 0.72305 0.0
C112 C 0.9673 0.42488 0.61493 0.0
C113 C 0.90668 0.35273 0.77467 0.0
C114 C 0.93121 0.41015 0.78934 0.0
C115 C 0.96154 0.44637 0.70863 0.0
N116 N 0.91111 0.33185 0.68142 0.0
C117 C 0.94145 0.36719 0.60247 0.0
Co118 Co 0.57152 0.76026 0.70414 0.0
Co119 Co 0.5784 0.83623 0.92169 0.0
O120 O 0.5787 0.82555 0.77256 0.0
C121 C 0.50774 0.80259 0.58731 0.0
O122 O 0.55224 0.85194 0.58866 0.0
C123 C 0.68368 0.93279 0.8428 0.0
O124 O 0.70232 0.89848 0.82416 0.0
O125 O 0.63376 0.81071 0.94206 0.0
O126 O 0.62876 0.75976 0.80129 0.0
H127 H 0.57764 0.78829 0.29952 0.0
H128 H 0.64355 0.88561 0.65439 0.0
O129 O 0.511 0.76008 0.61568 0.0
H130 H 0.7085 0.79455 0.41155 0.0
H131 H 0.50647 0.61576 0.42075 0.0
H132 H 0.57248 0.66007 0.78193 0.0
H133 H 0.64372 0.74057 0.54871 0.0
H134 H 0.53586 0.70888 0.49182 0.0
O135 O 0.6388 0.91575 0.89488 0.0
H136 H 0.57259 0.77153 0.11045 0.0
H137 H 0.59222 0.9313 0.05119 0.0
H138 H 0.54271 0.56675 0.71393 0.0
H139 H 0.71112 0.94094 0.52286 0.0
H140 H 0.50604 0.54304 0.53429 0.0
H141 H 0.7433 0.89585 0.39667 0.0
O142 O 0.51168 0.71251 0.79956 0.0
H143 H 0.48849 0.93261 0.73863 0.0
H144 H 0.47465 0.81177 0.03298 0.0
H145 H 0.40118 0.83564 0.00656 0.0
H146 H 0.40803 0.89733 0.85916 0.0
H147 H 0.56005 0.90565 0.76567 0.0
H148 H 0.59761 0.94988 0.23964 0.0
H149 H 0.59014 0.87796 0.36513 0.0
O150 O 0.51564 0.75754 0.9462 0.0
C151 C 0.64757 0.77947 0.89232 0.0
C152 C 0.58069 0.81984 0.24559 0.0
C153 C 0.59203 0.91059 0.21198 0.0
N154 N 0.58159 0.8502 0.06998 0.0
C155 C 0.57771 0.81053 0.13849 0.0
C156 C 0.58907 0.8999 0.1054 0.0
C157 C 0.5878 0.87021 0.28238 0.0
C158 C 0.65546 0.86385 0.60116 0.0
N159 N 0.63231 0.80694 0.60464 0.0
C160 C 0.69489 0.8964 0.52616 0.0
C161 C 0.71301 0.87123 0.45558 0.0
C162 C 0.69317 0.81442 0.4636 0.0
C163 C 0.65436 0.78336 0.54073 0.0
C164 C 0.52084 0.62534 0.50002 0.0
C165 C 0.55981 0.65148 0.70162 0.0
C166 C 0.53786 0.67809 0.54074 0.0
N167 N 0.55777 0.69094 0.64031 0.0
C168 C 0.54203 0.59803 0.6641 0.0
C169 C 0.52175 0.58481 0.56305 0.0
C170 C 0.49367 0.71432 0.88871 0.0
C171 C 0.48518 0.90612 0.80351 0.0
C172 C 0.47809 0.8385 0.96854 0.0
C173 C 0.43627 0.85201 0.95404 0.0
C174 C 0.44006 0.88634 0.87121 0.0
N175 N 0.5225 0.85839 0.90233 0.0
C176 C 0.52589 0.89113 0.81975 0.0
Co177 Co 0.77273 0.5287 0.16471 0.0
Co178 Co 0.75111 0.61775 0.31915 0.0
O179 O 0.73715 0.57294 0.19344 0.0
C180 C 0.65431 0.447 0.17375 0.0
O181 O 0.65229 0.4766 0.25079 0.0
C182 C 0.76302 0.68914 0.13748 0.0
O183 O 0.79401 0.67081 0.09596 0.0
O184 O 0.83234 0.65462 0.29513 0.0
O185 O 0.84681 0.58911 0.2226 0.0
H186 H 0.85691 0.70837 0.64443 0.0
H187 H 0.70625 0.53314 0.98697 0.0
O188 O 0.69873 0.46493 0.11945 0.0
H189 H 0.90023 0.62368 0.86159 0.0
H190 H 0.81063 0.40077 0.94605 0.0
H191 H 0.83922 0.4906 0.28724 0.0
H192 H 0.87784 0.59074 0.04283 0.0
H193 H 0.77112 0.46119 0.9828 0.0
O194 O 0.74629 0.67611 0.23127 0.0
H195 H 0.82918 0.64552 0.4943 0.0
H196 H 0.70797 0.68945 0.40672 0.0
H197 H 0.87922 0.43044 0.25408 0.0
H198 H 0.72628 0.56127 0.80293 0.0
H199 H 0.86523 0.38511 0.08187 0.0
H200 H 0.82395 0.60801 0.7397 0.0
O201 O 0.75428 0.49627 0.30191 0.0
H202 H 0.55171 0.53927 0.20873 0.0
H203 H 0.67702 0.56277 0.50186 0.0
H204 H 0.57528 0.50636 0.52576 0.0
H205 H 0.51186 0.4938 0.37801 0.0
H206 H 0.65355 0.59344 0.18683 0.0
H207 H 0.73498 0.75291 0.55831 0.0
H208 H 0.8103 0.76362 0.67555 0.0
O209 O 0.75445 0.55933 0.41039 0.0
C210 C 0.86394 0.63523 0.27152 0.0
C211 C 0.8241 0.70441 0.59296 0.0
C212 C 0.75555 0.72942 0.54379 0.0
N213 N 0.76684 0.66368 0.44175 0.0
C214 C 0.80785 0.66857 0.508 0.0
C215 C 0.74042 0.69331 0.45895 0.0
C216 C 0.79805 0.73544 0.61019 0.0
C217 C 0.74879 0.55273 0.95981 0.0
N218 N 0.7908 0.5603 0.02576 0.0
C219 C 0.75993 0.5689 0.85561 0.0
C220 C 0.81473 0.59499 0.82009 0.0
C221 C 0.85755 0.60392 0.88854 0.0
C222 C 0.84471 0.5859 0.99158 0.0
C223 C 0.81786 0.42112 0.02058 0.0
C224 C 0.83446 0.47271 0.21123 0.0
C225 C 0.79615 0.45599 0.04159 0.0
N226 N 0.80569 0.48244 0.13527 0.0
C227 C 0.85653 0.43789 0.19328 0.0
C228 C 0.84845 0.41227 0.09692 0.0
C229 C 0.75065 0.51235 0.39151 0.0
C230 C 0.57889 0.54446 0.27361 0.0
C231 C 0.64976 0.55782 0.4374 0.0
C232 C 0.59216 0.52582 0.45142 0.0
C233 C 0.55659 0.51886 0.3686 0.0
N234 N 0.67135 0.58137 0.34296 0.0
C235 C 0.63669 0.57568 0.26207 0.0
Co236 Co 0.23367 0.8039 0.35608 0.0
Co237 Co 0.17086 0.74272 0.58789 0.0
O238 O 0.17555 0.7467 0.43901 0.0
C239 C 0.19587 0.69271 0.25959 0.0
O240 O 0.14431 0.68206 0.25889 0.0
C241 C 0.06896 0.74417 0.51751 0.0
O242 O 0.10121 0.79746 0.4983 0.0
O243 O 0.19251 0.82298 0.59545 0.0
O244 O 0.2357 0.8649 0.44546 0.0
H245 H 0.23107 0.80934 0.95328 0.0
H246 H 0.10582 0.7334 0.32284 0.0
O247 O 0.23555 0.74204 0.27697 0.0
H248 H 0.16776 0.89431 0.09019 0.0
H249 H 0.34072 0.87556 0.02314 0.0
H250 H 0.33525 0.91435 0.39483 0.0
H251 H 0.23338 0.88956 0.21125 0.0
H252 H 0.26376 0.80884 0.13377 0.0
O253 O 0.08873 0.71749 0.56678 0.0
H254 H 0.24096 0.81199 0.76272 0.0
H255 H 0.08285 0.66527 0.73461 0.0
H256 H 0.41375 0.98216 0.28714 0.0
H257 H 0.0395 0.73675 0.20408 0.0
H258 H 0.41683 0.96184 0.10002 0.0
H259 H 0.06978 0.81708 0.08414 0.0
O260 O 0.29013 0.80224 0.44667 0.0
H261 H 0.08249 0.54878 0.43927 0.0
H262 H 0.20653 0.67492 0.71125 0.0
H263 H 0.18981 0.5791 0.70206 0.0
H264 H 0.12646 0.51477 0.56626 0.0
H265 H 0.10456 0.64664 0.44622 0.0
H266 H 0.07127 0.66079 0.92539 0.0
H267 H 0.14591 0.73313 0.03608 0.0
O268 O 0.25189 0.76527 0.6022 0.0
C269 C 0.22011 0.86654 0.53893 0.0
C270 C 0.19846 0.77733 0.90614 0.0
C271 C 0.10868 0.69408 0.89034 0.0
N272 N 0.1627 0.73858 0.73785 0.0
C273 C 0.20387 0.77857 0.79813 0.0
C274 C 0.11538 0.69687 0.78245 0.0
C275 C 0.15057 0.73466 0.95244 0.0
C276 C 0.12171 0.76745 0.26867 0.0
N277 N 0.17718 0.8074 0.26547 0.0
C278 C 0.0827 0.76963 0.20247 0.0
C279 C 0.09955 0.81473 0.13568 0.0
C280 C 0.15453 0.85781 0.13871 0.0
C281 C 0.19225 0.85406 0.20617 0.0
C282 C 0.34015 0.88422 0.10485 0.0
C283 C 0.33615 0.90593 0.31343 0.0
C284 C 0.29677 0.84651 0.16805 0.0
N285 N 0.29456 0.85807 0.27061 0.0
C286 C 0.3808 0.94428 0.25287 0.0
C287 C 0.38261 0.93309 0.14796 0.0
C288 C 0.29292 0.78704 0.53885 0.0
C289 C 0.10954 0.57613 0.49958 0.0
C290 C 0.1788 0.64732 0.65204 0.0
C291 C 0.16959 0.59303 0.64713 0.0
C292 C 0.13425 0.55707 0.57083 0.0
N293 N 0.15391 0.66563 0.5825 0.0
C294 C 0.12101 0.63121 0.50524 0.0
Co295 Co 0.47126 0.25044 0.80815 0.0
Co296 Co 0.38626 0.1353 0.95962 0.0
O297 O 0.43302 0.17059 0.8383 0.0
C298 C 0.55998 0.22421 0.83967 0.0
O299 O 0.52826 0.19105 0.91353 0.0
C300 C 0.31951 0.07522 0.77301 0.0
O301 O 0.33734 0.12438 0.73024 0.0
O302 O 0.34483 0.17529 0.9343 0.0
O303 O 0.40345 0.25528 0.8504 0.0
H304 H 0.28237 0.13428 0.27782 0.0
H305 H 0.47954 0.17934 0.64588 0.0
O306 O 0.54176 0.24848 0.77916 0.0
H307 H 0.38045 0.26593 0.47983 0.0
H308 H 0.60279 0.42023 0.60065 0.0
H309 H 0.48204 0.35183 0.9096 0.0
H310 H 0.40941 0.28468 0.66382 0.0
H311 H 0.54871 0.31959 0.6399 0.0
O312 O 0.33227 0.07177 0.86739 0.0
H313 H 0.35025 0.17735 0.13591 0.0
H314 H 0.31826 0.01805 0.03625 0.0
H315 H 0.53488 0.45272 0.87314 0.0
H316 H 0.45377 0.16155 0.46046 0.0
H317 H 0.59605 0.48758 0.71784 0.0
H318 H 0.40326 0.20446 0.37654 0.0
O319 O 0.49726 0.26899 0.95035 0.0
H320 H 0.48354 0.03127 0.85468 0.0
H321 H 0.44078 0.11857 0.14617 0.0
H322 H 0.50541 0.08278 0.17375 0.0
H323 H 0.5281 0.03983 0.02667 0.0
H324 H 0.42076 0.06947 0.82942 0.0
H325 H 0.2486 0.97362 0.17549 0.0
H326 H 0.22978 0.03121 0.29659 0.0
O327 O 0.44007 0.19771 0.05416 0.0
C328 C 0.35871 0.22404 0.9019 0.0
C329 C 0.29004 0.10844 0.22539 0.0
C330 C 0.27125 0.01817 0.16799 0.0
N331 N 0.33841 0.1002 0.07816 0.0
C332 C 0.3289 0.13259 0.14545 0.0
C333 C 0.31071 0.04366 0.08936 0.0
C334 C 0.26054 0.0507 0.23575 0.0
C335 C 0.45816 0.19868 0.60957 0.0
N336 N 0.44605 0.23307 0.66539 0.0
C337 C 0.44351 0.18832 0.50466 0.0
C338 C 0.41515 0.2124 0.45763 0.0
C339 C 0.40223 0.24678 0.51561 0.0
C340 C 0.41826 0.25686 0.61999 0.0
C341 C 0.57594 0.40554 0.66815 0.0
C342 C 0.50752 0.36649 0.84087 0.0
C343 C 0.54505 0.34857 0.69061 0.0
N344 N 0.51105 0.32964 0.77573 0.0
C345 C 0.53778 0.42376 0.82097 0.0
C346 C 0.57216 0.44331 0.73391 0.0
C347 C 0.48156 0.24649 0.03869 0.0
C348 C 0.47429 0.05029 0.91909 0.0
C349 C 0.4499 0.09937 0.08207 0.0
C350 C 0.48675 0.0794 0.09807 0.0
C351 C 0.49949 0.05533 0.01552 0.0
N352 N 0.42722 0.09647 0.98607 0.0
C353 C 0.4381 0.07127 0.90566 0.0
C354 C 0.33288 0.31622 0.08089 0.0
C355 C 0.27448 0.28765 0.09243 0.0
C356 C 0.35913 0.2979 0.01126 0.0
C357 C 0.32851 0.24941 0.95162 0.0
H358 H 0.35893 0.35312 0.12615 0.0
H359 H 0.40415 0.3203 0.0089 0.0
S360 S 0.17511 0.15681 0.95653 0.0
N361 N 0.18684 0.20701 0.03903 0.0
N362 N 0.23685 0.17162 0.91182 0.0
C363 C 0.2703 0.21965 0.9637 0.0
C364 C 0.24324 0.23886 0.03318 0.0
C365 C 0.98078 0.27997 0.30569 0.0
C366 C 0.98156 0.26409 0.40983 0.0
C367 C 0.02944 0.30487 0.24436 0.0
C368 C 0.08107 0.31426 0.28382 0.0
H369 H 0.94263 0.27513 0.27229 0.0
H370 H 0.0267 0.31836 0.16647 0.0
S371 S 0.10277 0.27078 0.54575 0.0
N372 N 0.03663 0.25415 0.54596 0.0
N373 N 0.1273 0.29832 0.43066 0.0
C374 C 0.08122 0.29495 0.38584 0.0
C375 C 0.03189 0.27077 0.4488 0.0
C376 C 0.77626 0.05233 0.65868 0.0
C377 C 0.74774 0.08229 0.64887 0.0
C378 C 0.75602 0.00485 0.72298 0.0
C379 C 0.70741 0.98639 0.78329 0.0
H380 H 0.81503 0.06621 0.61737 0.0
H381 H 0.77893 0.98264 0.72566 0.0
S382 S 0.61968 0.05302 0.79191 0.0
N383 N 0.669 0.0905 0.70702 0.0
N384 N 0.63339 0.00466 0.83281 0.0
C385 C 0.67948 0.01705 0.77618 0.0
C386 C 0.69889 0.06391 0.70766 0.0
C387 C 0.72527 0.75436 0.11357 0.0
C388 C 0.73968 0.71674 0.07067 0.0
C389 C 0.6984 0.77669 0.0537 0.0
C390 C 0.68368 0.76161 0.94851 0.0
H391 H 0.73402 0.76599 0.19466 0.0
H392 H 0.68739 0.80457 0.09189 0.0
S393 S 0.7101 0.66232 0.80099 0.0
N394 N 0.73667 0.66475 0.91714 0.0
N395 N 0.68623 0.70614 0.80498 0.0
C396 C 0.69891 0.72469 0.90439 0.0
C397 C 0.72674 0.70241 0.96527 0.0
C398 C 0.9445 0.71975 0.35145 0.0
C399 C 0.91999 0.66334 0.32223 0.0
C400 C 0.99117 0.74472 0.41757 0.0
C401 C 0.01462 0.71412 0.46051 0.0
H402 H 0.92702 0.74481 0.32392 0.0
H403 H 0.00903 0.78858 0.43508 0.0
S404 S 0.96607 0.5648 0.40972 0.0
N405 N 0.92446 0.57838 0.339 0.0
N406 N 0.00778 0.62331 0.47113 0.0
C407 C 0.98971 0.65739 0.43379 0.0
C408 C 0.94389 0.6327 0.36237 0.0
C409 C 0.25208 0.97262 0.75484 0.0
C410 C 0.28974 0.02383 0.70857 0.0
C411 C 0.22712 0.9229 0.69735 0.0
C412 C 0.23943 0.9217 0.59102 0.0
H413 H 0.2424 0.97071 0.83679 0.0
H414 H 0.19944 0.88474 0.73847 0.0
S415 S 0.33634 0.04525 0.43372 0.0
N416 N 0.33791 0.07077 0.55001 0.0
N417 N 0.29154 0.97781 0.44206 0.0
C418 C 0.27594 0.97317 0.54319 0.0
C419 C 0.30097 0.02394 0.60184 0.0
C420 C 0.15982 0.59066 0.25865 0.0
C421 C 0.20612 0.64501 0.25938 0.0
C422 C 0.16635 0.54399 0.26206 0.0
C423 C 0.21944 0.54931 0.26373 0.0
H424 H 0.11772 0.58362 0.25409 0.0
H425 H 0.12939 0.50315 0.25641 0.0
S426 S 0.35468 0.68136 0.27081 0.0
N427 N 0.30751 0.7013 0.26875 0.0
N428 N 0.31942 0.61249 0.26893 0.0
C429 C 0.26631 0.60297 0.26806 0.0
C430 C 0.25975 0.65107 0.26671 0.0
C431 C 0.63118 0.19481 0.86113 0.0
C432 C 0.61808 0.2363 0.83432 0.0
C433 C 0.68525 0.20373 0.84686 0.0
C434 C 0.72716 0.25386 0.80408 0.0
H435 H 0.59879 0.15408 0.8868 0.0
H436 H 0.69259 0.16918 0.85753 0.0
S437 S 0.71885 0.38179 0.75938 0.0
N438 N 0.65474 0.33397 0.79143 0.0
N439 N 0.75608 0.35022 0.76331 0.0
C440 C 0.71663 0.29833 0.79415 0.0
C441 C 0.66177 0.28937 0.80776 0.0
C442 C 0.44614 0.61248 0.9052 0.0
C443 C 0.44472 0.66173 0.92224 0.0
C444 C 0.39755 0.56065 0.9046 0.0
C445 C 0.34503 0.55526 0.92313 0.0
H446 H 0.48516 0.61422 0.88726 0.0
H447 H 0.40159 0.52451 0.8884 0.0
S448 S 0.31894 0.6718 0.97817 0.0
N449 N 0.38709 0.70256 0.9607 0.0
N450 N 0.295 0.60426 0.96483 0.0
C451 C 0.34308 0.60414 0.945 0.0
C452 C 0.3931 0.65751 0.94397 0.0
C453 C 0.70798 0.41697 0.45118 0.0
C454 C 0.74598 0.47335 0.47317 0.0
C455 C 0.72336 0.37635 0.46359 0.0
C456 C 0.77558 0.39007 0.50549 0.0
H457 H 0.67 0.40583 0.40838 0.0
H458 H 0.69497 0.3345 0.43651 0.0
S459 S 0.87735 0.52635 0.62143 0.0
N460 N 0.8298 0.53761 0.56652 0.0
N461 N 0.85724 0.46021 0.59942 0.0
C462 C 0.80895 0.44401 0.54667 0.0
C463 C 0.7939 0.48577 0.53022 0.0
C464 C 0.35113 0.74664 0.59831 0.0
C465 C 0.34708 0.79329 0.5683 0.0
C466 C 0.40316 0.74932 0.60196 0.0
C467 C 0.45263 0.79867 0.57499 0.0
H468 H 0.31377 0.7073 0.61465 0.0
H469 H 0.4045 0.71244 0.62574 0.0
S470 S 0.46326 0.93314 0.49678 0.0
N471 N 0.39623 0.89068 0.51772 0.0
N472 N 0.49342 0.89573 0.52 0.0
C473 C 0.44868 0.84581 0.54681 0.0
C474 C 0.39608 0.84314 0.54491 0.0
C475 C 0.50785 0.324 0.15637 0.0
C476 C 0.51717 0.28113 0.12304 0.0
C477 C 0.55271 0.37753 0.17616 0.0
C478 C 0.60798 0.3896 0.162 0.0
H479 H 0.46607 0.31802 0.15482 0.0
H480 H 0.54403 0.41048 0.19538 0.0
S481 S 0.65399 0.28809 0.1037 0.0
N482 N 0.58519 0.25135 0.09877 0.0
N483 N 0.6696 0.35212 0.13401 0.0
C484 C 0.6177 0.34554 0.1416 0.0
C485 C 0.57209 0.29096 0.12406 0.0
loop_
_geom_bond_atom_site_label_1
_geom_bond_atom_site_label_2
_geom_bond_distance
_geom_bond_site_symmetry_2
_ccdc_geom_bond_type
Co0 O2 2.143 . S
Co0 O8 2.074 1_556 S
Co0 O11 2.093 . S
Co0 O24 2.097 1_556 S
Co0 N41 2.151 . S
Co0 N49 2.214 . S
Co1 O2 2.160 1_554 S
Co1 O7 2.058 . S
Co1 O17 2.057 . S
Co1 O32 2.037 . S
Co1 N36 2.145 . S
Co1 N57 2.257 . S
O2 Co0 2.143 . S
O2 Co1 2.160 1_556 S
C3 O4 1.278 . S
C3 O11 1.224 . S
O4 C3 1.278 . S
C5 O6 1.245 1_554 S
C5 O17 1.232 . S
O6 C5 1.245 1_556 S
O7 Co1 2.058 . S
O7 C33 1.269 . S
O8 Co0 2.074 1_554 S
O8 C33 1.257 . S
H9 C34 0.930 . S
H10 C40 0.930 . S
O11 Co0 2.093 . S
O11 C3 1.224 . S
H12 C44 0.929 1_655 S
H13 C46 0.930 . S
H14 C47 0.930 . S
H15 C45 0.929 . S
H16 C48 0.928 . S
O17 Co1 2.057 . S
O17 C5 1.232 . S
H18 C37 0.929 . S
H19 C38 0.929 . S
H20 C50 0.931 . S
H21 C42 0.929 . S
H22 C51 0.940 . S
H23 C43 0.931 . S
O24 Co0 2.097 1_554 S
O24 C52 1.214 . S
H25 C53 0.929 . S
H26 C54 0.929 . S
H27 C55 0.930 . S
H28 C56 0.929 . S
H29 C58 0.930 . S
H30 C35 0.930 . S
H31 C39 0.930 . S
O32 Co1 2.037 . S
O32 C52 1.234 . S
C33 O7 1.269 . S
C33 O8 1.257 . S
C34 H9 0.930 . S
C34 C37 1.388 . S
C34 C39 1.418 . S
C35 H30 0.930 . S
C35 C38 1.404 . S
C35 C39 1.353 . S
N36 Co1 2.145 . S
N36 C37 1.397 . S
N36 C38 1.334 . S
C37 H18 0.929 . S
C37 C34 1.388 . S
C37 N36 1.397 . S
C38 H19 0.929 . S
C38 C35 1.404 . S
C38 N36 1.334 . S
C39 H31 0.930 . S
C39 C34 1.418 . S
C39 C35 1.353 . S
C40 H10 0.930 . S
C40 N41 1.330 . S
C40 C42 1.446 . S
N41 Co0 2.151 . S
N41 C40 1.330 . S
N41 C45 1.418 . S
C42 H21 0.929 . S
C42 C40 1.446 . S
C42 C43 1.332 . S
C43 H23 0.931 . S
C43 C42 1.332 . S
C43 C44 1.267 . S
C44 H12 0.929 1_455 S
C44 C43 1.267 . S
C44 C45 1.251 . S
C45 H15 0.929 . S
C45 N41 1.418 . S
C45 C44 1.251 . S
C46 H13 0.930 . S
C46 C48 1.406 . S
C46 C51 1.261 . S
C47 H14 0.930 . S
C47 N49 1.325 . S
C47 C50 1.357 . S
C48 H16 0.928 . S
C48 C46 1.406 . S
C48 N49 1.261 . S
N49 Co0 2.214 . S
N49 C47 1.325 . S
N49 C48 1.261 . S
C50 H20 0.931 . S
C50 C47 1.357 . S
C50 C51 1.312 . S
C51 H22 0.940 . S
C51 C46 1.261 . S
C51 C50 1.312 . S
C52 O24 1.214 . S
C52 O32 1.234 . S
C53 H25 0.929 . S
C53 C56 1.391 . S
C53 C58 1.391 . S
C54 H26 0.929 . S
C54 C55 1.390 . S
C54 N57 1.391 . S
C55 H27 0.930 . S
C55 C54 1.390 . S
C55 C56 1.392 . S
C56 H28 0.929 . S
C56 C53 1.391 . S
C56 C55 1.392 . S
N57 Co1 2.257 . S
N57 C54 1.391 . S
N57 C58 1.388 . S
C58 H29 0.930 . S
C58 C53 1.391 . S
C58 N57 1.388 . S
Co59 O61 2.143 . S
Co59 O67 2.074 . S
Co59 O70 2.093 . S
Co59 O83 2.097 . S
Co59 N100 2.151 . S
Co59 N108 2.214 . S
Co60 O61 2.160 . S
Co60 O66 2.058 . S
Co60 O76 2.057 . S
Co60 O91 2.037 . S
Co60 N95 2.145 . S
Co60 N116 2.257 . S
O61 Co59 2.143 . S
O61 Co60 2.160 . S
C62 O63 1.278 . S
C62 O70 1.224 . S
O63 C62 1.278 . S
C64 O65 1.245 . S
C64 O76 1.232 . S
O65 C64 1.245 . S
O66 Co60 2.058 . S
O66 C92 1.269 . S
O67 Co59 2.074 . S
O67 C92 1.257 . S
H68 C93 0.930 . S
H69 C99 0.930 . S
O70 Co59 2.093 . S
O70 C62 1.224 . S
H71 C103 0.929 . S
H72 C105 0.930 . S
H73 C106 0.930 . S
H74 C104 0.929 . S
H75 C107 0.928 . S
O76 Co60 2.057 . S
O76 C64 1.232 . S
H77 C96 0.929 . S
H78 C97 0.929 1_455 S
H79 C109 0.931 . S
H80 C101 0.929 . S
H81 C110 0.930 . S
H82 C102 0.931 . S
O83 Co59 2.097 . S
O83 C111 1.214 . S
H84 C112 0.929 1_455 S
H85 C113 0.929 1_554 S
H86 C114 0.930 . S
H87 C115 0.929 . S
H88 C117 0.930 . S
H89 C94 0.930 . S
H90 C98 0.930 . S
O91 Co60 2.037 . S
O91 C111 1.234 . S
C92 O66 1.269 . S
C92 O67 1.257 . S
C93 H68 0.930 . S
C93 C96 1.388 1_554 S
C93 C98 1.418 . S
C94 H89 0.930 . S
C94 C97 1.404 1_455 S
C94 C98 1.353 1_456 S
N95 Co60 2.145 . S
N95 C96 1.397 . S
N95 C97 1.334 . S
C96 H77 0.929 . S
C96 C93 1.388 1_556 S
C96 N95 1.397 . S
C97 H78 0.929 1_655 S
C97 C94 1.404 1_655 S
C97 N95 1.334 . S
C98 H90 0.930 . S
C98 C93 1.418 . S
C98 C94 1.353 1_654 S
C99 H69 0.930 . S
C99 N100 1.330 . S
C99 C101 1.446 . S
N100 Co59 2.151 . S
N100 C99 1.330 . S
N100 C104 1.418 . S
C101 H80 0.929 . S
C101 C99 1.446 . S
C101 C102 1.332 . S
C102 H82 0.931 . S
C102 C101 1.332 . S
C102 C103 1.267 . S
C103 H71 0.929 . S
C103 C102 1.267 . S
C103 C104 1.251 . S
C104 H74 0.929 . S
C104 N100 1.418 . S
C104 C103 1.251 . S
C105 H72 0.930 . S
C105 C107 1.406 . S
C105 C110 1.261 . S
C106 H73 0.930 . S
C106 N108 1.325 . S
C106 C109 1.357 . S
C107 H75 0.928 . S
C107 C105 1.406 . S
C107 N108 1.261 . S
N108 Co59 2.214 . S
N108 C106 1.325 . S
N108 C107 1.261 . S
C109 H79 0.931 . S
C109 C106 1.357 . S
C109 C110 1.312 . S
C110 H81 0.930 . S
C110 C105 1.261 . S
C110 C109 1.312 . S
C111 O83 1.214 . S
C111 O91 1.234 . S
C112 H84 0.929 1_655 S
C112 C115 1.391 . S
C112 C117 1.391 . S
C113 H85 0.929 1_556 S
C113 C114 1.390 1_556 S
C113 N116 1.391 . S
C114 H86 0.930 . S
C114 C113 1.390 1_554 S
C114 C115 1.392 1_554 S
C115 H87 0.929 . S
C115 C112 1.391 . S
C115 C114 1.392 1_556 S
N116 Co60 2.257 . S
N116 C113 1.391 . S
N116 C117 1.388 . S
C117 H88 0.930 . S
C117 C112 1.391 . S
C117 N116 1.388 . S
Co118 O120 2.143 . S
Co118 O126 2.074 . S
Co118 O129 2.093 . S
Co118 O142 2.097 . S
Co118 N159 2.151 . S
Co118 N167 2.214 . S
Co119 O120 2.160 . S
Co119 O125 2.058 . S
Co119 O135 2.057 . S
Co119 O150 2.037 . S
Co119 N154 2.145 . S
Co119 N175 2.257 . S
O120 Co118 2.143 . S
O120 Co119 2.160 . S
C121 O122 1.278 . S
C121 O129 1.224 . S
O122 C121 1.278 . S
C123 O124 1.245 . S
C123 O135 1.232 . S
O124 C123 1.245 . S
O125 Co119 2.058 . S
O125 C151 1.269 . S
O126 Co118 2.074 . S
O126 C151 1.257 . S
H127 C152 0.930 . S
H128 C158 0.930 . S
O129 Co118 2.093 . S
O129 C121 1.224 . S
H130 C162 0.929 . S
H131 C164 0.930 . S
H132 C165 0.930 . S
H133 C163 0.929 . S
H134 C166 0.928 . S
O135 Co119 2.057 . S
O135 C123 1.232 . S
H136 C155 0.929 1_556 S
H137 C156 0.929 . S
H138 C168 0.931 . S
H139 C160 0.929 . S
H140 C169 0.930 . S
H141 C161 0.931 . S
O142 Co118 2.097 . S
O142 C170 1.214 . S
H143 C171 0.929 . S
H144 C172 0.929 . S
H145 C173 0.930 . S
H146 C174 0.929 . S
H147 C176 0.930 . S
H148 C153 0.930 . S
H149 C157 0.930 . S
O150 Co119 2.037 . S
O150 C170 1.234 . S
C151 O125 1.269 . S
C151 O126 1.257 . S
C152 H127 0.930 . S
C152 C155 1.388 . S
C152 C157 1.418 . S
C153 H148 0.930 . S
C153 C156 1.404 1_554 S
C153 C157 1.353 . S
N154 Co119 2.145 . S
N154 C155 1.397 1_556 S
N154 C156 1.334 . S
C155 H136 0.929 1_554 S
C155 C152 1.388 . S
C155 N154 1.397 1_554 S
C156 H137 0.929 . S
C156 C153 1.404 1_556 S
C156 N154 1.334 . S
C157 H149 0.930 . S
C157 C152 1.418 . S
C157 C153 1.353 . S
C158 H128 0.930 . S
C158 N159 1.330 . S
C158 C160 1.446 . S
N159 Co118 2.151 . S
N159 C158 1.330 . S
N159 C163 1.418 . S
C160 H139 0.929 . S
C160 C158 1.446 . S
C160 C161 1.332 . S
C161 H141 0.931 . S
C161 C160 1.332 . S
C161 C162 1.267 . S
C162 H130 0.929 . S
C162 C161 1.267 . S
C162 C163 1.251 . S
C163 H133 0.929 . S
C163 N159 1.418 . S
C163 C162 1.251 . S
C164 H131 0.930 . S
C164 C166 1.406 . S
C164 C169 1.261 . S
C165 H132 0.930 . S
C165 N167 1.325 . S
C165 C168 1.357 . S
C166 H134 0.928 . S
C166 C164 1.406 . S
C166 N167 1.261 . S
N167 Co118 2.214 . S
N167 C165 1.325 . S
N167 C166 1.261 . S
C168 H138 0.931 . S
C168 C165 1.357 . S
C168 C169 1.312 . S
C169 H140 0.930 . S
C169 C164 1.261 . S
C169 C168 1.312 . S
C170 O142 1.214 . S
C170 O150 1.234 . S
C171 H143 0.929 . S
C171 C174 1.391 . S
C171 C176 1.391 . S
C172 H144 0.929 . S
C172 C173 1.390 . S
C172 N175 1.391 . S
C173 H145 0.930 . S
C173 C172 1.390 . S
C173 C174 1.392 . S
C174 H146 0.929 . S
C174 C171 1.391 . S
C174 C173 1.392 . S
N175 Co119 2.257 . S
N175 C172 1.391 . S
N175 C176 1.388 . S
C176 H147 0.930 . S
C176 C171 1.391 . S
C176 N175 1.388 . S
Co177 O179 2.143 . S
Co177 O185 2.074 . S
Co177 O188 2.093 . S
Co177 O201 2.097 . S
Co177 N218 2.151 . S
Co177 N226 2.214 . S
Co178 O179 2.160 . S
Co178 O184 2.058 . S
Co178 O194 2.057 . S
Co178 O209 2.037 . S
Co178 N213 2.145 . S
Co178 N234 2.257 . S
O179 Co177 2.143 . S
O179 Co178 2.160 . S
C180 O181 1.278 . S
C180 O188 1.224 . S
O181 C180 1.278 . S
C182 O183 1.245 . S
C182 O194 1.232 . S
O183 C182 1.245 . S
O184 Co178 2.058 . S
O184 C210 1.269 . S
O185 Co177 2.074 . S
O185 C210 1.257 . S
H186 C211 0.930 . S
H187 C217 0.930 . S
O188 Co177 2.093 . S
O188 C180 1.224 . S
H189 C221 0.929 . S
H190 C223 0.930 . S
H191 C224 0.930 . S
H192 C222 0.929 . S
H193 C225 0.928 . S
O194 Co178 2.057 . S
O194 C182 1.232 . S
H195 C214 0.929 . S
H196 C215 0.929 . S
H197 C227 0.931 . S
H198 C219 0.929 . S
H199 C228 0.930 . S
H200 C220 0.931 . S
O201 Co177 2.097 . S
O201 C229 1.214 . S
H202 C230 0.929 . S
H203 C231 0.929 . S
H204 C232 0.930 . S
H205 C233 0.929 . S
H206 C235 0.930 . S
H207 C212 0.930 . S
H208 C216 0.930 . S
O209 Co178 2.037 . S
O209 C229 1.234 . S
C210 O184 1.269 . S
C210 O185 1.257 . S
C211 H186 0.930 . S
C211 C214 1.388 . S
C211 C216 1.418 . S
C212 H207 0.930 . S
C212 C215 1.404 . S
C212 C216 1.353 . S
N213 Co178 2.145 . S
N213 C214 1.397 . S
N213 C215 1.334 . S
C214 H195 0.929 . S
C214 C211 1.388 . S
C214 N213 1.397 . S
C215 H196 0.929 . S
C215 C212 1.404 . S
C215 N213 1.334 . S
C216 H208 0.930 . S
C216 C211 1.418 . S
C216 C212 1.353 . S
C217 H187 0.930 . S
C217 N218 1.330 . S
C217 C219 1.446 1_554 S
N218 Co177 2.151 . S
N218 C217 1.330 . S
N218 C222 1.418 . S
C219 H198 0.929 . S
C219 C217 1.446 1_556 S
C219 C220 1.332 . S
C220 H200 0.931 . S
C220 C219 1.332 . S
C220 C221 1.267 . S
C221 H189 0.929 . S
C221 C220 1.267 . S
C221 C222 1.251 1_556 S
C222 H192 0.929 . S
C222 N218 1.418 . S
C222 C221 1.251 1_554 S
C223 H190 0.930 . S
C223 C225 1.406 . S
C223 C228 1.261 . S
C224 H191 0.930 . S
C224 N226 1.325 . S
C224 C227 1.357 . S
C225 H193 0.928 . S
C225 C223 1.406 . S
C225 N226 1.261 . S
N226 Co177 2.214 . S
N226 C224 1.325 . S
N226 C225 1.261 . S
C227 H197 0.931 . S
C227 C224 1.357 . S
C227 C228 1.312 . S
C228 H199 0.930 . S
C228 C223 1.261 . S
C228 C227 1.312 . S
C229 O201 1.214 . S
C229 O209 1.234 . S
C230 H202 0.929 . S
C230 C233 1.391 . S
C230 C235 1.391 . S
C231 H203 0.929 . S
C231 C232 1.390 . S
C231 N234 1.391 . S
C232 H204 0.930 . S
C232 C231 1.390 . S
C232 C233 1.392 . S
C233 H205 0.929 . S
C233 C230 1.391 . S
C233 C232 1.392 . S
N234 Co178 2.257 . S
N234 C231 1.391 . S
N234 C235 1.388 . S
C235 H206 0.930 . S
C235 C230 1.391 . S
C235 N234 1.388 . S
Co236 O238 2.143 . S
Co236 O244 2.074 . S
Co236 O247 2.093 . S
Co236 O260 2.097 . S
Co236 N277 2.151 . S
Co236 N285 2.214 . S
Co237 O238 2.160 . S
Co237 O243 2.058 . S
Co237 O253 2.057 . S
Co237 O268 2.037 . S
Co237 N272 2.145 . S
Co237 N293 2.257 . S
O238 Co236 2.143 . S
O238 Co237 2.160 . S
C239 O240 1.278 . S
C239 O247 1.224 . S
O240 C239 1.278 . S
C241 O242 1.245 . S
C241 O253 1.232 . S
O242 C241 1.245 . S
O243 Co237 2.058 . S
O243 C269 1.269 . S
O244 Co236 2.074 . S
O244 C269 1.257 . S
H245 C270 0.930 . S
H246 C276 0.930 . S
O247 Co236 2.093 . S
O247 C239 1.224 . S
H248 C280 0.929 1_545 S
H249 C282 0.930 1_556 S
H250 C283 0.930 . S
H251 C281 0.929 . S
H252 C284 0.933 . S
O253 Co237 2.057 . S
O253 C241 1.232 . S
H254 C273 0.929 . S
H255 C274 0.929 . S
H256 C286 0.931 . S
H257 C278 0.929 . S
H258 C287 0.930 1_545 S
H259 C279 0.931 . S
O260 Co236 2.097 . S
O260 C288 1.214 . S
H261 C289 0.929 . S
H262 C290 0.929 . S
H263 C291 0.930 . S
H264 C292 0.929 . S
H265 C294 0.930 . S
H266 C271 0.930 . S
H267 C275 0.930 . S
O268 Co237 2.037 . S
O268 C288 1.234 . S
C269 O243 1.269 . S
C269 O244 1.257 . S
C270 H245 0.930 . S
C270 C273 1.388 . S
C270 C275 1.418 . S
C271 H266 0.930 . S
C271 C274 1.404 . S
C271 C275 1.353 . S
N272 Co237 2.145 . S
N272 C273 1.397 . S
N272 C274 1.334 . S
C273 H254 0.929 . S
C273 C270 1.388 . S
C273 N272 1.397 . S
C274 H255 0.929 . S
C274 C271 1.404 . S
C274 N272 1.334 . S
C275 H267 0.930 . S
C275 C270 1.418 . S
C275 C271 1.353 . S
C276 H246 0.930 . S
C276 N277 1.330 . S
C276 C278 1.446 1_554 S
N277 Co236 2.151 . S
N277 C276 1.330 . S
N277 C281 1.418 . S
C278 H257 0.929 . S
C278 C276 1.446 1_556 S
C278 C279 1.332 . S
C279 H259 0.931 . S
C279 C278 1.332 . S
C279 C280 1.267 . S
C280 H248 0.929 1_565 S
C280 C279 1.267 . S
C280 C281 1.251 1_556 S
C281 H251 0.929 . S
C281 N277 1.418 . S
C281 C280 1.251 1_554 S
C282 H249 0.930 1_554 S
C282 C284 1.406 . S
C282 C287 1.261 . S
C283 H250 0.930 . S
C283 N285 1.325 . S
C283 C286 1.357 . S
C284 H252 0.933 . S
C284 C282 1.406 . S
C284 N285 1.261 . S
N285 Co236 2.214 . S
N285 C283 1.325 . S
N285 C284 1.261 . S
C286 H256 0.931 . S
C286 C283 1.357 . S
C286 C287 1.312 . S
C287 H258 0.930 1_565 S
C287 C282 1.261 . S
C287 C286 1.312 . S
C288 O260 1.214 . S
C288 O268 1.234 . S
C289 H261 0.929 . S
C289 C292 1.391 . S
C289 C294 1.391 . S
C290 H262 0.929 . S
C290 C291 1.390 . S
C290 N293 1.391 . S
C291 H263 0.930 . S
C291 C290 1.390 . S
C291 C292 1.392 . S
C292 H264 0.929 . S
C292 C289 1.391 . S
C292 C291 1.392 . S
N293 Co237 2.257 . S
N293 C290 1.391 . S
N293 C294 1.388 . S
C294 H265 0.930 . S
C294 C289 1.391 . S
C294 N293 1.388 . S
Co295 O297 2.143 . S
Co295 O303 2.074 . S
Co295 O306 2.093 . S
Co295 O319 2.097 1_556 S
Co295 N336 2.151 . S
Co295 N344 2.214 . S
Co296 O297 2.160 1_554 S
Co296 O302 2.058 . S
Co296 O312 2.057 . S
Co296 O327 2.037 . S
Co296 N331 2.145 . S
Co296 N352 2.257 . S
O297 Co295 2.143 . S
O297 Co296 2.160 1_556 S
C298 O299 1.278 . S
C298 O306 1.224 . S
O299 C298 1.278 . S
C300 O301 1.245 . S
C300 O312 1.232 1_556 S
O301 C300 1.245 . S
O302 Co296 2.058 . S
O302 C328 1.269 1_554 S
O303 Co295 2.074 . S
O303 C328 1.257 . S
H304 C329 0.930 . S
H305 C335 0.930 . S
O306 Co295 2.093 . S
O306 C298 1.224 . S
H307 C339 0.929 . S
H308 C341 0.930 . S
H309 C342 0.930 . S
H310 C340 0.929 . S
H311 C343 0.928 . S
O312 Co296 2.057 . S
O312 C300 1.232 1_554 S
H313 C332 0.929 . S
H314 C333 0.929 1_565 S
H315 C345 0.931 . S
H316 C337 0.929 . S
H317 C346 0.930 . S
H318 C338 0.931 . S
O319 Co295 2.097 1_554 S
O319 C347 1.214 . S
H320 C348 0.929 1_565 S
H321 C349 0.929 . S
H322 C350 0.930 . S
H323 C351 0.928 1_565 S
H324 C353 0.930 . S
H325 C330 0.930 . S
H326 C334 0.930 1_565 S
O327 Co296 2.037 . S
O327 C347 1.234 . S
C328 O302 1.269 1_556 S
C328 O303 1.257 . S
C329 H304 0.930 . S
C329 C332 1.388 . S
C329 C334 1.418 . S
C330 H325 0.930 . S
C330 C333 1.404 1_565 S
C330 C334 1.353 1_565 S
N331 Co296 2.145 . S
N331 C332 1.397 . S
N331 C333 1.334 . S
C332 H313 0.929 . S
C332 C329 1.388 . S
C332 N331 1.397 . S
C333 H314 0.929 1_545 S
C333 C330 1.404 1_545 S
C333 N331 1.334 . S
C334 H326 0.930 1_545 S
C334 C329 1.418 . S
C334 C330 1.353 1_545 S
C335 H305 0.930 . S
C335 N336 1.330 . S
C335 C337 1.446 . S
N336 Co295 2.151 . S
N336 C335 1.330 . S
N336 C340 1.418 . S
C337 H316 0.929 . S
C337 C335 1.446 . S
C337 C338 1.332 . S
C338 H318 0.931 . S
C338 C337 1.332 . S
C338 C339 1.267 . S
C339 H307 0.929 . S
C339 C338 1.267 . S
C339 C340 1.251 . S
C340 H310 0.929 . S
C340 N336 1.418 . S
C340 C339 1.251 . S
C341 H308 0.930 . S
C341 C343 1.406 . S
C341 C346 1.261 . S
C342 H309 0.930 . S
C342 N344 1.325 1_554 S
C342 C345 1.357 . S
C343 H311 0.928 . S
C343 C341 1.406 . S
C343 N344 1.261 . S
N344 Co295 2.214 . S
N344 C342 1.325 1_556 S
N344 C343 1.261 . S
C345 H315 0.931 . S
C345 C342 1.357 . S
C345 C346 1.312 1_554 S
C346 H317 0.930 . S
C346 C341 1.261 . S
C346 C345 1.312 1_556 S
C347 O319 1.214 . S
C347 O327 1.234 . S
C348 H320 0.929 1_545 S
C348 C351 1.391 . S
C348 C353 1.391 . S
C349 H321 0.929 . S
C349 C350 1.390 . S
C349 N352 1.391 . S
C350 H322 0.930 . S
C350 C349 1.390 . S
C350 C351 1.392 . S
C351 H323 0.928 1_545 S
C351 C348 1.391 . S
C351 C350 1.392 . S
N352 Co296 2.257 . S
N352 C349 1.391 . S
N352 C353 1.388 . S
C353 H324 0.930 . S
C353 C348 1.391 . S
C353 N352 1.388 . S
C354 C355 1.369 1_556 S
C354 C356 1.419 . S
C354 H358 0.930 . S
C355 C354 1.369 1_554 S
C355 C364 1.429 . S
C356 C354 1.419 . S
C356 C357 1.363 1_556 S
C356 H359 0.929 . S
C357 C356 1.363 1_554 S
C357 C363 1.428 . S
H358 C354 0.930 . S
H359 C356 0.929 . S
S360 N361 1.613 . S
S360 N362 1.610 . S
N361 S360 1.613 . S
N361 C364 1.350 . S
N362 S360 1.610 . S
N362 C363 1.351 . S
C363 C357 1.428 . S
C363 N362 1.351 . S
C363 C364 1.434 . S
C364 C355 1.429 . S
C364 N361 1.350 . S
C364 C363 1.434 . S
C365 C366 1.369 . S
C365 C367 1.419 . S
C365 H369 0.930 1_455 S
C366 C365 1.369 . S
C366 C375 1.429 . S
C367 C365 1.419 . S
C367 C368 1.363 . S
C367 H370 0.920 1_455 S
C368 C367 1.363 . S
C368 C374 1.428 . S
H369 C365 0.930 1_655 S
H370 C367 0.920 1_655 S
S371 N372 1.613 . S
S371 N373 1.610 . S
N372 S371 1.613 . S
N372 C375 1.350 . S
N373 S371 1.610 . S
N373 C374 1.351 . S
C374 C368 1.428 . S
C374 N373 1.351 . S
C374 C375 1.434 . S
C375 C366 1.429 . S
C375 N372 1.350 . S
C375 C374 1.434 . S
C376 C377 1.369 . S
C376 C378 1.419 . S
C376 H380 0.930 . S
C377 C376 1.369 . S
C377 C386 1.429 . S
C378 C376 1.419 . S
C378 C379 1.363 1_545 S
C378 H381 0.929 1_545 S
C379 C378 1.363 1_565 S
C379 C385 1.428 1_565 S
H380 C376 0.930 . S
H381 C378 0.929 1_565 S
S382 N383 1.613 . S
S382 N384 1.610 1_545 S
N383 S382 1.613 . S
N383 C386 1.350 . S
N384 S382 1.610 1_565 S
N384 C385 1.351 1_565 S
C385 C379 1.428 1_545 S
C385 N384 1.351 1_545 S
C385 C386 1.434 . S
C386 C377 1.429 . S
C386 N383 1.350 . S
C386 C385 1.434 . S
C387 C388 1.369 . S
C387 C389 1.419 1_554 S
C387 H391 0.930 . S
C388 C387 1.369 . S
C388 C397 1.429 . S
C389 C387 1.419 1_556 S
C389 C390 1.363 . S
C389 H392 0.929 . S
C390 C389 1.363 . S
C390 C396 1.428 . S
H391 C387 0.930 . S
H392 C389 0.929 . S
S393 N394 1.613 1_556 S
S393 N395 1.610 . S
N394 S393 1.613 1_554 S
N394 C397 1.350 . S
N395 S393 1.610 . S
N395 C396 1.351 . S
C396 C390 1.428 . S
C396 N395 1.351 . S
C396 C397 1.434 1_556 S
C397 C388 1.429 . S
C397 N394 1.350 . S
C397 C396 1.434 1_554 S
C398 C399 1.369 . S
C398 C400 1.419 . S
C398 H402 0.930 . S
C399 C398 1.369 . S
C399 C408 1.429 . S
C400 C398 1.419 . S
C400 C401 1.363 1_655 S
C400 H403 0.929 1_655 S
C401 C400 1.363 1_455 S
C401 C407 1.428 1_455 S
H402 C398 0.930 . S
H403 C400 0.929 1_455 S
S404 N405 1.613 . S
S404 N406 1.610 1_655 S
N405 S404 1.613 . S
N405 C408 1.350 . S
N406 S404 1.610 1_455 S
N406 C407 1.351 1_455 S
C407 C401 1.428 1_655 S
C407 N406 1.351 1_655 S
C407 C408 1.434 . S
C408 C399 1.429 . S
C408 N405 1.350 . S
C408 C407 1.434 . S
C409 C410 1.369 . S
C409 C411 1.419 . S
C409 H413 0.930 . S
C410 C409 1.369 . S
C410 C419 1.429 1_565 S
C411 C409 1.419 . S
C411 C412 1.363 . S
C411 H414 0.929 . S
C412 C411 1.363 . S
C412 C418 1.428 1_565 S
H413 C409 0.930 . S
H414 C411 0.929 . S
S415 N416 1.613 . S
S415 N417 1.610 . S
N416 S415 1.613 . S
N416 C419 1.350 . S
N417 S415 1.610 . S
N417 C418 1.351 . S
C418 C412 1.428 1_545 S
C418 N417 1.351 . S
C418 C419 1.434 . S
C419 C410 1.429 1_545 S
C419 N416 1.350 . S
C419 C418 1.434 . S
C420 C421 1.369 . S
C420 C422 1.419 . S
C420 H424 0.930 . S
C421 C420 1.369 . S
C421 C430 1.429 . S
C422 C420 1.419 . S
C422 C423 1.363 . S
C422 H425 0.929 . S
C423 C422 1.363 . S
C423 C429 1.428 . S
H424 C420 0.930 . S
H425 C422 0.929 . S
S426 N427 1.613 . S
S426 N428 1.610 . S
N427 S426 1.613 . S
N427 C430 1.350 . S
N428 S426 1.610 . S
N428 C429 1.351 . S
C429 C423 1.428 . S
C429 N428 1.351 . S
C429 C430 1.434 . S
C430 C421 1.429 . S
C430 N427 1.350 . S
C430 C429 1.434 . S
C431 C432 1.369 . S
C431 C433 1.419 . S
C431 H435 0.930 . S
C432 C431 1.369 . S
C432 C441 1.429 . S
C433 C431 1.419 . S
C433 C434 1.363 . S
C433 H436 0.929 . S
C434 C433 1.363 . S
C434 C440 1.428 . S
H435 C431 0.930 . S
H436 C433 0.929 . S
S437 N438 1.613 . S
S437 N439 1.610 . S
N438 S437 1.613 . S
N438 C441 1.350 . S
N439 S437 1.610 . S
N439 C440 1.351 . S
C440 C434 1.428 . S
C440 N439 1.351 . S
C440 C441 1.434 . S
C441 C432 1.429 . S
C441 N438 1.350 . S
C441 C440 1.434 . S
C442 C443 1.369 . S
C442 C444 1.419 . S
C442 H446 0.930 . S
C443 C442 1.369 . S
C443 C452 1.429 . S
C444 C442 1.419 . S
C444 C445 1.363 . S
C444 H447 0.929 . S
C445 C444 1.363 . S
C445 C451 1.428 . S
H446 C442 0.930 . S
H447 C444 0.929 . S
S448 N449 1.613 . S
S448 N450 1.610 . S
N449 S448 1.613 . S
N449 C452 1.350 . S
N450 S448 1.610 . S
N450 C451 1.351 . S
C451 C445 1.428 . S
C451 N450 1.351 . S
C451 C452 1.434 . S
C452 C443 1.429 . S
C452 N449 1.350 . S
C452 C451 1.434 . S
C453 C454 1.369 . S
C453 C455 1.419 . S
C453 H457 0.930 . S
C454 C453 1.369 . S
C454 C463 1.429 . S
C455 C453 1.419 . S
C455 C456 1.363 . S
C455 H458 0.929 . S
C456 C455 1.363 . S
C456 C462 1.428 . S
H457 C453 0.930 . S
H458 C455 0.929 . S
S459 N460 1.613 . S
S459 N461 1.610 . S
N460 S459 1.613 . S
N460 C463 1.350 . S
N461 S459 1.610 . S
N461 C462 1.351 . S
C462 C456 1.428 . S
C462 N461 1.351 . S
C462 C463 1.434 . S
C463 C454 1.429 . S
C463 N460 1.350 . S
C463 C462 1.434 . S
C464 C465 1.369 . S
C464 C466 1.419 . S
C464 H468 0.930 . S
C465 C464 1.369 . S
C465 C474 1.429 . S
C466 C464 1.419 . S
C466 C467 1.363 . S
C466 H469 0.929 . S
C467 C466 1.363 . S
C467 C473 1.428 . S
H468 C464 0.930 . S
H469 C466 0.929 . S
S470 N471 1.613 . S
S470 N472 1.610 . S
N471 S470 1.613 . S
N471 C474 1.350 . S
N472 S470 1.610 . S
N472 C473 1.351 . S
C473 C467 1.428 . S
C473 N472 1.351 . S
C473 C474 1.434 . S
C474 C465 1.429 . S
C474 N471 1.350 . S
C474 C473 1.434 . S
C475 C476 1.369 . S
C475 C477 1.419 . S
C475 H479 0.930 . S
C476 C475 1.369 . S
C476 C485 1.429 . S
C477 C475 1.419 . S
C477 C478 1.363 . S
C477 H480 0.929 . S
C478 C477 1.363 . S
C478 C484 1.428 . S
H479 C475 0.930 . S
H480 C477 0.929 . S
S481 N482 1.613 . S
S481 N483 1.610 . S
N482 S481 1.613 . S
N482 C485 1.350 . S
N483 S481 1.610 . S
N483 C484 1.351 . S
C484 C478 1.428 . S
C484 N483 1.351 . S
C484 C485 1.434 . S
C485 C476 1.429 . S
C485 N482 1.350 . S
C485 C484 1.434 . S
C355 C5 1.435 . S
C357 C328 1.433 1_554 S
C366 C64 2.289 1_455 S
C368 C33 2.283 . S
C377 C92 1.455 . S
C379 C123 1.456 . S
C388 C182 2.291 . S
C390 C151 2.282 . S
C399 C210 1.461 . S
C401 C241 1.460 . S
C410 C300 2.296 1_565 S
C412 C269 2.280 . S
C421 C239 1.639 . S
C423 C52 1.846 . S
C432 C298 1.747 . S
C434 C111 1.598 . S
C443 C170 1.820 . S
C445 C3 1.616 . S
C454 C229 1.619 . S
C456 C62 1.738 . S
C465 C288 1.818 . S
C467 C121 1.630 . S
C476 C347 1.623 . S
C478 C180 1.746 . S
