# Generated by pormake.
# Topology cab, (5)-cn, num edge types: 1
# Building blocks:
#     Node 0, Type 0, BuildingBlock: BEQFEK_clean_sbu_0, # of connection points: 5
#     Node 1, Type 0, BuildingBlock: BEQFEK_clean_sbu_0, # of connection points: 5
#     Node 2, Type 0, BuildingBlock: BEQFEK_clean_sbu_0, # of connection points: 5
#     Node 3, Type 0, BuildingBlock: BEQFEK_clean_sbu_0, # of connection points: 5
#     Node 4, Type 0, BuildingBlock: BEQFEK_clean_sbu_0, # of connection points: 5
#     Node 5, Type 0, BuildingBlock: BEQFEK_clean_sbu_0, # of connection points: 5
#     Edge 6, Type (0, 0), BuildingBlock: FUNLAD_clean_linker_0, # of connection points: 2
#     Edge 7, Type (0, 0), BuildingBlock: FUNLAD_clean_linker_0, # of connection points: 2
#     Edge 8, Type (0, 0), BuildingBlock: FUNLAD_clean_linker_0, # of connection points: 2
#     Edge 9, Type (0, 0), BuildingBlock: FUNLAD_clean_linker_0, # of connection points: 2
#     Edge 10, Type (0, 0), BuildingBlock: FUNLAD_clean_linker_0, # of connection points: 2
#     Edge 11, Type (0, 0), BuildingBlock: FUNLAD_clean_linker_0, # of connection points: 2
#     Edge 12, Type (0, 0), BuildingBlock: FUNLAD_clean_linker_0, # of connection points: 2
#     Edge 13, Type (0, 0), BuildingBlock: FUNLAD_clean_linker_0, # of connection points: 2
#     Edge 14, Type (0, 0), BuildingBlock: FUNLAD_clean_linker_0, # of connection points: 2
#     Edge 15, Type (0, 0), BuildingBlock: FUNLAD_clean_linker_0, # of connection points: 2
#     Edge 16, Type (0, 0), BuildingBlock: FUNLAD_clean_linker_0, # of connection points: 2
#     Edge 17, Type (0, 0), BuildingBlock: FUNLAD_clean_linker_0, # of connection points: 2
#     Edge 18, Type (0, 0), BuildingBlock: FUNLAD_clean_linker_0, # of connection points: 2
#     Edge 19, Type (0, 0), BuildingBlock: FUNLAD_clean_linker_0, # of connection points: 2
#     Edge 20, Type (0, 0), BuildingBlock: FUNLAD_clean_linker_0, # of connection points: 2
# Relax obj value: 1.232
# Max RMSD: 0.227
# Mean RMSD: 0.211
data_MOF--net-cab--node1-BEQFEK_clean_sbu_0--edge1-FUNLAD_clean_linker_0
_symmetry_space_group_name_H-M    P1
_symmetry_Int_Tables_number       1
_symmetry_cell_setting            triclinic
loop_
_symmetry_equiv_pos_as_xyz
'x, y, z'
_cell_length_a     36.111715
_cell_length_b     35.423762
_cell_length_c     36.783788
_cell_angle_alpha  112.75698
_cell_angle_beta   96.191661
_cell_angle_gamma 130.84063
loop_
_atom_site_label
_atom_site_type_symbol
_atom_site_fract_x
_atom_site_fract_y
_atom_site_fract_z
_atom_type_partial_charge
Co0 Co 0.39624 0.54772 0.69647 0.0
Co1 Co 0.27751 0.48879 0.64261 0.0
C2 C 0.30865 0.43533 0.59522 0.0
O3 O 0.35445 0.47281 0.63264 0.0
O4 O 0.27568 0.43857 0.59344 0.0
C5 C 0.49215 0.60052 0.69243 0.0
O6 O 0.45977 0.58751 0.65771 0.0
C7 C 0.16793 0.41814 0.57145 0.0
C8 C 0.13516 0.44049 0.61121 0.0
C9 C 0.12057 0.4029 0.56703 0.0
N10 N 0.2087 0.46183 0.61632 0.0
N11 N 0.18907 0.47558 0.63994 0.0
C12 C 0.17424 0.39184 0.53307 0.0
H13 H 0.21747 0.42993 0.5396 0.0
H14 H 0.14205 0.3693 0.49943 0.0
H15 H 0.16845 0.3561 0.53111 0.0
C16 C 0.43614 0.65934 0.70953 0.0
N17 N 0.39404 0.60063 0.69689 0.0
N18 N 0.34458 0.57437 0.67127 0.0
C19 C 0.35361 0.61363 0.66422 0.0
C20 C 0.41234 0.66912 0.68802 0.0
C21 C 0.4984 0.70576 0.74167 0.0
H22 H 0.50391 0.69478 0.76474 0.0
H23 H 0.51931 0.70458 0.72211 0.0
H24 H 0.52008 0.75406 0.76251 0.0
O25 O 0.35882 0.51145 0.72686 0.0
O26 O 0.27401 0.46531 0.68424 0.0
H27 H 0.28365 0.59654 0.64352 0.0
H28 H 0.3241 0.62178 0.61612 0.0
C29 C 0.30722 0.59301 0.62854 0.0
H30 H 0.2765 0.5432 0.59869 0.0
H31 H 0.21156 0.50706 0.67579 0.0
O32 O 0.47508 0.59065 0.71957 0.0
C33 C 0.30637 0.47513 0.71471 0.0
Co34 Co 0.08673 0.00782 0.76253 0.0
Co35 Co 0.96698 0.95229 0.73219 0.0
C36 C 0.06681 0.07216 0.82352 0.0
O37 O 0.09673 0.06721 0.81373 0.0
O38 O 0.01353 0.02964 0.79538 0.0
C39 C 0.17359 0.05178 0.83023 0.0
O40 O 0.13535 0.03283 0.84267 0.0
C41 C 0.86349 0.90091 0.73372 0.0
C42 C 0.79654 0.82949 0.65994 0.0
C43 C 0.80498 0.85359 0.70386 0.0
N44 N 0.88853 0.90378 0.70871 0.0
N45 N 0.84838 0.86151 0.6646 0.0
C46 C 0.89577 0.9443 0.78533 0.0
H47 H 0.92293 0.99279 0.79706 0.0
H48 H 0.92461 0.94447 0.79951 0.0
H49 H 0.86712 0.93183 0.79937 0.0
C50 C 0.0201 0.88574 0.74416 0.0
N51 N 0.02311 0.92458 0.74168 0.0
N52 N 0.97385 0.9026 0.73166 0.0
C53 C 0.93872 0.84984 0.72874 0.0
C54 C 0.96719 0.83802 0.73743 0.0
C55 C 0.06864 0.89668 0.75721 0.0
H56 H 0.09831 0.92408 0.74718 0.0
H57 H 0.09209 0.92241 0.79489 0.0
H58 H 0.05195 0.85099 0.74002 0.0
O59 O 0.07836 0.01859 0.71512 0.0
O60 O -0.00372 0.98453 0.6966 0.0
H61 H 0.85612 0.80766 0.69717 0.0
H62 H 0.85881 0.77179 0.71923 0.0
C63 C 0.88261 0.8171 0.72562 0.0
H64 H 0.89004 0.84748 0.75829 0.0
H65 H 0.85606 0.85291 0.63764 0.0
O66 O 0.16078 0.04145 0.79143 0.0
C67 C 0.04104 0.01074 0.69375 0.0
Co68 Co 0.6315 0.43563 0.27366 0.0
Co69 Co 0.6612 0.46361 0.37041 0.0
C70 C 0.54077 0.36424 0.2968 0.0
O71 O 0.55782 0.37565 0.27011 0.0
O72 O 0.57632 0.39584 0.33851 0.0
C73 C 0.57247 0.41927 0.2025 0.0
O74 O 0.55659 0.43114 0.23126 0.0
C75 C 0.67028 0.50068 0.46051 0.0
C76 C 0.75937 0.55859 0.5053 0.0
C77 C 0.71161 0.53904 0.50602 0.0
N78 N 0.69257 0.49766 0.43404 0.0
N79 N 0.74544 0.53127 0.46094 0.0
C80 C 0.61308 0.47361 0.44315 0.0
H81 H 0.60302 0.47514 0.41457 0.0
H82 H 0.61156 0.49927 0.4709 0.0
H83 H 0.57983 0.42371 0.42973 0.0
C84 C 0.69828 0.56822 0.32971 0.0
N85 N 0.68033 0.51875 0.32592 0.0
N86 N 0.69053 0.52996 0.36629 0.0
C87 C 0.71376 0.58645 0.39657 0.0
C88 C 0.71818 0.61202 0.37422 0.0
C89 C 0.68952 0.57012 0.29002 0.0
H90 H 0.68759 0.53985 0.26255 0.0
H91 H 0.64942 0.55436 0.27635 0.0
H92 H 0.72519 0.61871 0.30125 0.0
O93 O 0.66583 0.41051 0.27532 0.0
O94 O 0.68062 0.42258 0.3411 0.0
H95 H 0.75381 0.61468 0.46342 0.0
H96 H 0.74801 0.66158 0.46389 0.0
C97 C 0.72604 0.61317 0.44498 0.0
H98 H 0.68548 0.58306 0.44463 0.0
H99 H 0.77312 0.53852 0.44932 0.0
O100 O 0.60884 0.42186 0.21449 0.0
C101 C 0.68109 0.40496 0.30379 0.0
Co102 Co 0.42178 0.76895 0.33991 0.0
Co103 Co 0.40527 0.72788 0.24144 0.0
C104 C 0.32056 0.6361 0.25698 0.0
O105 O 0.34994 0.67671 0.30049 0.0
O106 O 0.33772 0.65126 0.23178 0.0
C107 C 0.4354 0.76303 0.41273 0.0
O108 O 0.4205 0.71464 0.38024 0.0
C109 C 0.38134 0.64355 0.15664 0.0
C110 C 0.36931 0.66623 0.11192 0.0
C111 C 0.36264 0.62273 0.11145 0.0
N112 N 0.39808 0.69655 0.18251 0.0
N113 N 0.39204 0.71078 0.15582 0.0
C114 C 0.37372 0.60777 0.17341 0.0
H115 H 0.39408 0.63654 0.21141 0.0
H116 H 0.39346 0.59435 0.1638 0.0
H117 H 0.32741 0.564 0.15704 0.0
C118 C 0.53066 0.81286 0.35702 0.0
N119 N 0.48182 0.789 0.33029 0.0
N120 N 0.47436 0.77107 0.28888 0.0
C121 C 0.51782 0.78245 0.28806 0.0
C122 C 0.5545 0.80833 0.33092 0.0
C123 C 0.55129 0.8335 0.40527 0.0
H124 H 0.54204 0.85671 0.42378 0.0
H125 H 0.52946 0.79198 0.40445 0.0
H126 H 0.59798 0.86688 0.4244 0.0
O127 O 0.40259 0.80416 0.32429 0.0
O128 O 0.39463 0.77879 0.25599 0.0
H129 H 0.5086 0.77414 0.22589 0.0
H130 H 0.56765 0.79315 0.25635 0.0
C131 C 0.52282 0.76541 0.24633 0.0
H132 H 0.49555 0.71494 0.22465 0.0
H133 H 0.39877 0.74772 0.16672 0.0
O134 O 0.44052 0.7972 0.40409 0.0
C135 C 0.39221 0.80405 0.28992 0.0
Co136 Co 0.73708 0.03094 0.09187 0.0
Co137 Co 0.63292 0.90939 0.08 0.0
C138 C 0.75082 0.01319 0.16294 0.0
O139 O 0.77023 0.04386 0.14701 0.0
O140 O 0.69848 0.95973 0.14029 0.0
C141 C 0.84676 0.11238 0.10789 0.0
O142 O 0.83921 0.07234 0.11102 0.0
C143 C 0.58602 0.79676 0.06196 0.0
C144 C 0.50775 0.74947 0.06541 0.0
C145 C 0.54295 0.74568 0.06025 0.0
N146 N 0.57649 0.8287 0.06671 0.0
N147 N 0.52924 0.8 0.06837 0.0
C148 C 0.64013 0.8201 0.06612 0.0
H149 H 0.67043 0.86612 0.07249 0.0
H150 H 0.63007 0.78564 0.03399 0.0
H151 H 0.66073 0.82457 0.09471 0.0
C152 C 0.69541 0.93771 -0.00175 0.0
N153 N 0.69352 0.95267 0.03709 0.0
N154 N 0.64814 0.90126 0.03051 0.0
C155 C 0.61925 0.85155 0.98659 0.0
C156 C 0.64838 0.87309 0.96488 0.0
C157 C 0.74183 0.98498 0.99374 0.0
H158 H 0.74558 0.02162 0.00356 0.0
H159 H 0.78302 0.00807 0.01769 0.0
H160 H 0.73447 0.96355 0.95853 0.0
O161 O 0.68784 0.03759 0.09824 0.0
O162 O 0.61407 0.95369 0.09246 0.0
H163 H 0.53724 0.78522 0.97963 0.0
H164 H 0.5375 0.75975 0.92654 0.0
C165 C 0.56203 0.78551 0.96414 0.0
H166 H 0.56806 0.76056 0.96906 0.0
H167 H 0.5134 0.81663 0.07397 0.0
O168 O 0.80492 0.10206 0.09594 0.0
C169 C 0.6417 0.00569 0.09912 0.0
Co170 Co -0.0038 0.8154 0.21169 0.0
Co171 Co 0.96158 0.74948 0.1079 0.0
C172 C 0.05411 0.88712 0.17311 0.0
O173 O 0.04708 0.88182 0.20461 0.0
O174 O 0.02228 0.83867 0.1315 0.0
C175 C 0.01024 0.89973 0.27889 0.0
O176 O 0.98595 0.88965 0.24162 0.0
C177 C 0.92701 0.71001 0.0135 0.0
C178 C 0.87923 0.61178 0.97311 0.0
C179 C 0.8967 0.65755 0.9691 0.0
N180 N 0.92673 0.69569 0.04244 0.0
N181 N 0.89813 0.63691 0.01811 0.0
C182 C 0.95988 0.77446 0.02911 0.0
H183 H 0.00615 0.80706 0.05001 0.0
H184 H 0.9481 0.79119 0.05136 0.0
H185 H 0.95291 0.77633 0.00011 0.0
C186 C 0.87312 0.73459 0.1694 0.0
N187 N 0.91863 0.75388 0.16627 0.0
N188 N 0.90481 0.72941 0.123 0.0
C189 C 0.85049 0.69548 0.09737 0.0
C190 C 0.82841 0.69755 0.12596 0.0
C191 C 0.87231 0.75094 0.21319 0.0
H192 H 0.90256 0.75906 0.23699 0.0
H193 H 0.88545 0.7945 0.23024 0.0
H194 H 0.82854 0.71274 0.20593 0.0
O195 O 0.02204 0.78045 0.20841 0.0
O196 O 0.00162 0.73861 0.13588 0.0
H197 H 0.81032 0.62542 0.0262 0.0
H198 H 0.78545 0.65704 0.03635 0.0
C199 C 0.82335 0.6686 0.04781 0.0
H200 H 0.85481 0.70289 0.04258 0.0
H201 H 0.8917 0.61402 0.03227 0.0
O202 O 0.01421 0.86529 0.27446 0.0
C203 C 0.02352 0.75274 0.17506 0.0
C204 C 0.46128 0.75464 0.47221 0.0
C205 C 0.44689 0.77726 0.45849 0.0
C206 C 0.46789 0.763 0.51358 0.0
C207 C 0.45989 0.79393 0.54222 0.0
C208 C 0.44617 0.81731 0.52884 0.0
C209 C 0.44054 0.80989 0.48759 0.0
C210 C 0.45913 0.79512 0.58294 0.0
C211 C 0.49252 0.79831 0.60796 0.0
C212 C 0.47979 0.77659 0.63685 0.0
C213 C 0.4969 0.75195 0.64135 0.0
C214 C 0.47733 0.72 0.66031 0.0
C215 C 0.44145 0.71346 0.67656 0.0
H216 H 0.43392 0.7935 0.65393 0.0
C217 C 0.42801 0.74252 0.67564 0.0
C218 C 0.44675 0.77363 0.65569 0.0
H219 H 0.40064 0.73838 0.6882 0.0
H220 H 0.46645 0.72932 0.45051 0.0
H221 H 0.47661 0.74247 0.52189 0.0
H222 H 0.43893 0.84043 0.54995 0.0
H223 H 0.42905 0.82742 0.47762 0.0
H224 H 0.42645 0.78669 0.58896 0.0
H225 H 0.52564 0.80825 0.60159 0.0
H226 H 0.52226 0.75344 0.62716 0.0
H227 H 0.48718 0.69669 0.65914 0.0
C228 C 0.84457 0.10673 0.23694 0.0
C229 C 0.78846 0.04482 0.21109 0.0
C230 C 0.87773 0.14138 0.28416 0.0
C231 C 0.8558 0.11493 0.30678 0.0
C232 C 0.80133 0.05179 0.28071 0.0
C233 C 0.7676 0.01708 0.23324 0.0
C234 C 0.8903 0.15277 0.35735 0.0
C235 C 0.92403 0.21433 0.38566 0.0
C236 C 0.96739 0.2578 0.43523 0.0
C237 C -0.00869 0.31709 0.46335 0.0
C238 C 0.03916 0.36354 0.50783 0.0
C239 C 0.06421 0.35153 0.52447 0.0
H240 H 0.97428 0.20036 0.43287 0.0
C241 C 0.03841 0.29126 0.49765 0.0
C242 C -0.00947 0.2448 0.45342 0.0
H243 H 0.05701 0.28102 0.51012 0.0
H244 H 0.86248 0.12949 0.22105 0.0
H245 H 0.92052 0.18915 0.30301 0.0
H246 H 0.78409 0.03007 0.29734 0.0
H247 H 0.72468 0.96939 0.21428 0.0
H248 H 0.8875 0.12938 0.37109 0.0
H249 H 0.92153 0.23482 0.37136 0.0
H250 H 0.97445 0.32842 0.45014 0.0
H251 H 0.05855 0.40981 0.52804 0.0
C252 C 0.29835 0.35081 0.56 0.0
C253 C 0.28829 0.38101 0.55459 0.0
C254 C 0.26778 0.29109 0.52251 0.0
C255 C 0.22725 0.26124 0.47905 0.0
C256 C 0.22124 0.29405 0.473 0.0
C257 C 0.25103 0.35313 0.5105 0.0
C258 C 0.18821 0.19506 0.43973 0.0
C259 C 0.16944 0.15059 0.44452 0.0
C260 C 0.12389 0.08336 0.40427 0.0
C261 C 0.12572 0.04441 0.40265 0.0
C262 C 0.08611 0.98253 0.3628 0.0
C263 C 0.04377 0.95875 0.32428 0.0
H264 H 0.07449 0.08573 0.36825 0.0
C265 C 0.03917 -0.00379 0.32761 0.0
C266 C 0.07872 0.0578 0.36717 0.0
H267 H 0.00641 0.97889 0.29884 0.0
H268 H 0.32696 0.37143 0.5937 0.0
H269 H 0.27486 0.26791 0.52796 0.0
H270 H 0.19094 0.27245 0.43969 0.0
H271 H 0.24306 0.37582 0.50536 0.0
H272 H 0.17041 0.18142 0.40548 0.0
H273 H 0.18711 0.16311 0.47827 0.0
H274 H 0.15945 0.06277 0.4313 0.0
H275 H 0.09057 0.95465 0.36133 0.0
C276 C 0.66617 0.52637 0.5536 0.0
C277 C 0.71007 0.56585 0.54715 0.0
C278 C 0.65968 0.55129 0.58868 0.0
C279 C 0.69667 0.61622 0.61756 0.0
C280 C 0.74161 0.65565 0.61177 0.0
C281 C 0.74886 0.63088 0.57736 0.0
C282 C 0.68387 0.64213 0.64842 0.0
C283 C 0.65222 0.61422 0.66523 0.0
C284 C 0.62231 0.62559 0.68151 0.0
C285 C 0.60209 0.60755 0.70862 0.0
C286 C 0.563 0.60428 0.71572 0.0
C287 C 0.54279 0.61791 0.69501 0.0
H288 H 0.61906 0.65735 0.64236 0.0
C289 C 0.56604 0.64014 0.67068 0.0
C290 C 0.60538 0.64405 0.66401 0.0
H291 H 0.55166 0.65163 0.65472 0.0
H292 H 0.63556 0.47598 0.53033 0.0
H293 H 0.62342 0.51895 0.59097 0.0
H294 H 0.76957 0.70533 0.63252 0.0
H295 H 0.78258 0.66207 0.57252 0.0
H296 H 0.69749 0.68298 0.6545 0.0
H297 H 0.64347 0.57751 0.66324 0.0
H298 H 0.61418 0.59275 0.72227 0.0
H299 H 0.54572 0.58694 0.73462 0.0
C300 C 0.86438 0.67016 0.91637 0.0
C301 C 0.88596 0.65166 0.92638 0.0
C302 C 0.86283 0.67461 0.88034 0.0
C303 C 0.88252 0.66021 0.8535 0.0
C304 C 0.89879 0.63578 0.86063 0.0
C305 C 0.90062 0.63163 0.89702 0.0
C306 C 0.89158 0.67656 0.82144 0.0
C307 C 0.91661 0.73275 0.83498 0.0
C308 C 0.93194 0.75656 0.80771 0.0
C309 C 0.97782 0.82184 0.8318 0.0
C310 C -0.00932 0.84756 0.80832 0.0
C311 C 0.95754 0.80855 0.76018 0.0
H312 H 0.86338 0.66653 0.73979 0.0
C313 C 0.9123 0.74307 0.73559 0.0
C314 C 0.89971 0.71704 0.75923 0.0
H315 H 0.88576 0.71238 0.69844 0.0
H316 H 0.85098 0.68373 0.93767 0.0
H317 H 0.84834 0.6917 0.8746 0.0
H318 H 0.91348 0.62371 0.83998 0.0
H319 H 0.91653 0.61624 0.9038 0.0
H320 H 0.88332 0.64582 0.78922 0.0
H321 H 0.92991 0.76522 0.86955 0.0
H322 H 0.00307 0.85326 0.86911 0.0
H323 H 0.02513 0.89825 0.828 0.0
C324 C 0.54122 0.35911 0.11911 0.0
C325 C 0.54234 0.39486 0.15499 0.0
C326 C 0.50289 0.32488 0.07314 0.0
C327 C 0.46556 0.32657 0.06251 0.0
C328 C 0.47072 0.36694 0.0986 0.0
C329 C 0.50854 0.40058 0.14434 0.0
C330 C 0.41489 0.2803 0.01592 0.0
C331 C 0.40413 0.23973 0.97719 0.0
C332 C 0.34549 0.18524 0.93657 0.0
C333 C 0.33473 0.17287 0.89344 0.0
C334 C 0.27827 0.1266 0.85731 0.0
C335 C 0.23227 0.09193 0.86402 0.0
H336 H 0.30684 0.15524 0.97478 0.0
C337 C 0.24348 0.10123 0.90617 0.0
C338 C 0.29943 0.14745 0.94204 0.0
H339 H 0.2091 0.07471 0.9123 0.0
H340 H 0.56701 0.35404 0.12638 0.0
H341 H 0.50025 0.29426 0.0465 0.0
H342 H 0.44281 0.36952 0.09148 0.0
H343 H 0.50909 0.42851 0.1713 0.0
H344 H 0.38153 0.27544 0.01404 0.0
H345 H 0.43663 0.24447 0.9755 0.0
H346 H 0.36983 0.20117 0.8885 0.0
H347 H 0.27084 0.12018 0.82507 0.0
C348 C 0.07618 0.15518 0.86734 0.0
C349 C 0.09704 0.13256 0.86558 0.0
C350 C 0.11075 0.2177 0.90277 0.0
C351 C 0.16656 0.25834 0.93725 0.0
C352 C 0.18545 0.23413 0.93731 0.0
C353 C 0.15135 0.17213 0.90163 0.0
C354 C 0.20692 0.3264 0.97303 0.0
C355 C 0.20651 0.36077 0.96596 0.0
C356 C 0.24952 0.4297 0.00105 0.0
C357 C 0.23408 0.4574 0.00187 0.0
C358 C 0.27226 0.52134 0.0364 0.0
C359 C 0.32673 0.55873 0.0705 0.0
H360 H 0.32008 0.44936 0.03242 0.0
C361 C 0.34376 0.5322 0.06771 0.0
C362 C 0.30557 0.46828 0.03337 0.0
H363 H 0.38633 0.56067 0.09258 0.0
H364 H 0.03446 0.12572 0.84004 0.0
H365 H 0.09404 0.23422 0.90259 0.0
H366 H 0.22787 0.26414 0.96385 0.0
H367 H 0.16845 0.15587 0.90137 0.0
H368 H 0.24007 0.3494 0.00537 0.0
H369 H 0.17328 0.33791 0.93377 0.0
H370 H 0.1916 0.42902 0.97683 0.0
H371 H 0.25817 0.54077 0.03772 0.0
C372 C 0.62949 0.85195 0.88848 0.0
C373 C 0.63365 0.83642 0.91717 0.0
C374 C 0.62861 0.82784 0.84763 0.0
C375 C 0.63123 0.78692 0.83441 0.0
C376 C 0.6295 0.76667 0.86111 0.0
C377 C 0.63078 0.79126 0.90219 0.0
C378 C 0.64422 0.77168 0.79782 0.0
C379 C 0.65287 0.79346 0.77294 0.0
C380 C 0.68475 0.79724 0.74909 0.0
C381 C 0.68253 0.80955 0.71734 0.0
C382 C 0.71968 0.82478 0.70056 0.0
C383 C 0.76022 0.82885 0.71585 0.0
H384 H 0.72707 0.78895 0.78647 0.0
C385 C 0.75994 0.8124 0.74497 0.0
C386 C 0.72299 0.79722 0.76175 0.0
H387 H 0.79005 0.81378 0.75627 0.0
H388 H 0.6305 0.88587 0.89911 0.0
H389 H 0.629 0.84446 0.82835 0.0
H390 H 0.63096 0.73484 0.85179 0.0
H391 H 0.63345 0.77824 0.92372 0.0
H392 H 0.65261 0.74657 0.79474 0.0
H393 H 0.64045 0.8141 0.77253 0.0
H394 H 0.65355 0.80987 0.70692 0.0
H395 H 0.71876 0.83656 0.67759 0.0
C396 C 0.74614 0.70178 0.38099 0.0
C397 C 0.71398 0.65356 0.38567 0.0
C398 C 0.7323 0.73082 0.38152 0.0
C399 C 0.68614 0.71202 0.38697 0.0
C400 C 0.65684 0.66686 0.39478 0.0
C401 C 0.67047 0.63787 0.39404 0.0
C402 C 0.66188 0.73125 0.37875 0.0
C403 C 0.68834 0.78025 0.37777 0.0
C404 C 0.65655 0.78941 0.3632 0.0
C405 C 0.68155 0.84934 0.38762 0.0
C406 C 0.6492 0.85653 0.37632 0.0
C407 C 0.592 0.80401 0.33988 0.0
H408 H 0.58025 0.69104 0.30516 0.0
C409 C 0.56824 0.74483 0.3139 0.0
C410 C 0.60014 0.73757 0.32539 0.0
H411 H 0.52412 0.70362 0.28575 0.0
H412 H 0.78006 0.7148 0.37468 0.0
H413 H 0.75561 0.76499 0.37495 0.0
H414 H 0.62108 0.65135 0.399 0.0
H415 H 0.6443 0.60015 0.397 0.0
H416 H 0.61837 0.70178 0.37177 0.0
H417 H 0.73329 0.81437 0.38854 0.0
H418 H 0.72517 0.89002 0.41654 0.0
H419 H 0.66828 0.90263 0.39663 0.0
C420 C 0.45687 0.29719 0.30576 0.0
C421 C 0.47842 0.31097 0.27769 0.0
C422 C 0.39823 0.24401 0.28655 0.0
C423 C 0.35997 0.20351 0.23881 0.0
C424 C 0.38147 0.21798 0.21104 0.0
C425 C 0.43982 0.27125 0.23021 0.0
C426 C 0.29854 0.14307 0.21622 0.0
C427 C 0.26847 0.13336 0.23752 0.0
C428 C 0.20944 0.07078 0.21777 0.0
C429 C 0.18943 0.06305 0.24784 0.0
C430 C 0.1375 0.0039 0.23262 0.0
C431 C 0.10397 0.95076 0.18671 0.0
H432 H 0.18629 0.02217 0.14599 0.0
C433 C 0.12187 0.95898 0.15571 0.0
C434 C 0.17397 0.01836 0.17097 0.0
H435 H 0.09679 0.91922 0.12002 0.0
H436 H 0.48539 0.32664 0.3424 0.0
H437 H 0.38355 0.23355 0.30895 0.0
H438 H 0.35308 0.18741 0.17418 0.0
H439 H 0.45476 0.28026 0.20744 0.0
H440 H 0.27855 0.10537 0.18114 0.0
H441 H 0.28917 0.1723 0.27235 0.0
H442 H 0.21518 0.10249 0.28385 0.0
H443 H 0.12474 -0.00041 0.25742 0.0
C444 C 0.9139 0.21453 0.1191 0.0
C445 C 0.90454 0.17133 0.12287 0.0
C446 C 0.96952 0.27267 0.13731 0.0
C447 C 0.01672 0.28859 0.15972 0.0
C448 C 0.00717 0.24502 0.16282 0.0
C449 C 0.95171 0.18682 0.14426 0.0
C450 C 0.07646 0.3514 0.18263 0.0
C451 C 0.09214 0.38629 0.16798 0.0
C452 C 0.15196 0.4493 0.19147 0.0
C453 C 0.17141 0.46976 0.16534 0.0
C454 C 0.22681 0.52969 0.18654 0.0
C455 C 0.26366 0.57101 0.23459 0.0
H456 H 0.17477 0.47633 0.26079 0.0
C457 C 0.24426 0.55047 0.26082 0.0
C458 C 0.18894 0.49012 0.23947 0.0
H459 H 0.27145 0.58127 0.2979 0.0
H460 H 0.87842 0.20406 0.10305 0.0
H461 H 0.97542 0.30577 0.13524 0.0
H462 H 0.0428 0.25628 0.18006 0.0
H463 H 0.94607 0.15474 0.14794 0.0
H464 H 0.10892 0.36813 0.21134 0.0
H465 H 0.06087 0.36704 0.1365 0.0
H466 H 0.14362 0.43931 0.12837 0.0
H467 H 0.24021 0.54404 0.16525 0.0
C468 C 0.77707 0.72014 0.14203 0.0
C469 C 0.7749 0.67723 0.11481 0.0
C470 C 0.72826 0.70399 0.12949 0.0
C471 C 0.67597 0.64441 0.08915 0.0
C472 C 0.67348 0.60089 0.06254 0.0
C473 C 0.72237 0.61692 0.07548 0.0
C474 C 0.62643 0.63036 0.071 0.0
C475 C 0.61814 0.65936 0.09827 0.0
C476 C 0.5825 0.66371 0.08152 0.0
C477 C 0.57181 0.68893 0.11212 0.0
C478 C 0.55224 0.70948 0.10276 0.0
C479 C 0.54358 0.70557 0.06279 0.0
H480 H 0.57601 0.63568 0.01478 0.0
C481 C 0.54878 0.6749 0.03013 0.0
C482 C 0.56804 0.65412 0.03928 0.0
H483 H 0.54231 0.67151 -0.00094 0.0
H484 H 0.8172 0.76753 0.17181 0.0
H485 H 0.73272 0.73977 0.15009 0.0
H486 H 0.634 0.55497 0.03102 0.0
H487 H 0.71953 0.58286 0.05402 0.0
H488 H 0.59853 0.59836 0.03386 0.0
H489 H 0.64273 0.68628 0.13531 0.0
H490 H 0.58255 0.69698 0.1449 0.0
H491 H 0.54898 0.73352 0.12864 0.0
C492 C 0.11347 0.08951 0.68362 0.0
C493 C 0.05794 0.04804 0.67646 0.0
C494 C 0.13767 0.14003 0.68317 0.0
C495 C 0.10658 0.14962 0.67495 0.0
C496 C 0.0489 0.10398 0.66206 0.0
C497 C 0.02477 0.05373 0.66308 0.0
C498 C 0.13426 0.20812 0.68163 0.0
C499 C 0.18828 0.26463 0.71646 0.0
C500 C 0.21862 0.32422 0.72362 0.0
C501 C 0.27861 0.37333 0.74655 0.0
C502 C 0.30841 0.42639 0.74806 0.0
C503 C 0.27864 0.43145 0.72683 0.0
H504 H 0.14348 0.29712 0.69097 0.0
C505 C 0.21916 0.38551 0.70845 0.0
C506 C 0.18942 0.33239 0.70679 0.0
H507 H 0.19488 0.38836 0.69252 0.0
H508 H 0.14006 0.08609 0.69322 0.0
H509 H 0.18151 0.17298 0.69114 0.0
H510 H 0.02367 0.10961 0.65442 0.0
H511 H 0.98169 0.02236 0.65687 0.0
H512 H 0.10876 0.20436 0.65841 0.0
H513 H 0.21257 0.26709 0.73957 0.0
H514 H 0.30232 0.36894 0.76086 0.0
H515 H 0.35422 0.46099 0.76285 0.0
C516 C 0.60311 0.02911 0.14382 0.0
C517 C 0.62636 0.03612 0.11541 0.0
C518 C 0.6036 0.07097 0.1694 0.0
C519 C 0.62754 0.12041 0.16706 0.0
C520 C 0.64541 0.12322 0.13511 0.0
C521 C 0.64515 0.08181 0.10983 0.0
C522 C 0.63498 0.16947 0.19888 0.0
C523 C 0.67892 0.22963 0.21454 0.0
C524 C 0.68553 0.27904 0.24297 0.0
C525 C 0.71097 0.32621 0.2375 0.0
C526 C 0.71292 0.37001 0.2598 0.0
C527 C 0.69086 0.36859 0.28905 0.0
H528 H 0.64806 0.24506 0.28031 0.0
C529 C 0.6694 0.3245 0.29743 0.0
C530 C 0.66633 0.27966 0.27427 0.0
H531 H 0.65178 0.32217 0.31962 0.0
H532 H 0.58844 0.99439 0.14886 0.0
H533 H 0.58832 0.06692 0.19299 0.0
H534 H 0.66124 0.15853 0.13047 0.0
H535 H 0.66243 0.08764 0.08758 0.0
H536 H 0.60424 0.15583 0.20993 0.0
H537 H 0.70988 0.24285 0.20377 0.0
H538 H 0.72682 0.32728 0.21408 0.0
H539 H 0.72969 0.40352 0.25276 0.0
C540 C 0.09388 0.77396 0.22952 0.0
C541 C 0.05979 0.74678 0.18428 0.0
C542 C 0.13654 0.77993 0.24015 0.0
C543 C 0.14603 0.75879 0.20571 0.0
C544 C 0.10926 0.7275 0.16 0.0
C545 C 0.06678 0.72183 0.14937 0.0
C546 C 0.19357 0.76838 0.21607 0.0
C547 C 0.24271 0.81611 0.25731 0.0
C548 C 0.28867 0.82326 0.26731 0.0
C549 C 0.32049 0.84663 0.31158 0.0
C550 C 0.35823 0.84543 0.3203 0.0
C551 C 0.36538 0.8216 0.28493 0.0
H552 H 0.27774 0.78926 0.19919 0.0
C553 C 0.33783 0.80428 0.24193 0.0
C554 C 0.29972 0.80492 0.23315 0.0
H555 H 0.34281 0.78641 0.21401 0.0
H556 H 0.08935 0.79314 0.25724 0.0
H557 H 0.16228 0.80175 0.27544 0.0
H558 H 0.1149 0.70961 0.13266 0.0
H559 H 0.04109 0.70024 0.11411 0.0
H560 H 0.18807 0.73541 0.18821 0.0
H561 H 0.24853 0.84909 0.28547 0.0
H562 H 0.3136 0.8623 0.33876 0.0
H563 H 0.37919 0.85976 0.35397 0.0
loop_
_geom_bond_atom_site_label_1
_geom_bond_atom_site_label_2
_geom_bond_distance
_geom_bond_site_symmetry_2
_ccdc_geom_bond_type
Co0 O3 1.970 . S
Co0 N17 1.989 . S
Co0 O25 1.967 . S
Co0 O32 1.920 . S
Co1 O4 1.966 . S
Co1 N10 2.022 . S
Co1 N18 1.993 . S
Co1 O26 1.941 . S
C2 O3 1.258 . S
C2 O4 1.263 . S
O3 Co0 1.970 . S
O3 C2 1.258 . S
O4 Co1 1.966 . S
O4 C2 1.263 . S
C5 O6 1.235 . S
C5 O32 1.289 . S
O6 C5 1.235 . S
C7 C9 1.400 . S
C7 N10 1.351 . S
C7 C12 1.501 . S
C8 C9 1.387 . S
C8 N11 1.341 . S
C9 C7 1.400 . S
C9 C8 1.387 . S
N10 Co1 2.022 . S
N10 C7 1.351 . S
N10 N11 1.365 . S
N11 C8 1.341 . S
N11 N10 1.365 . S
N11 H31 0.862 . S
C12 C7 1.501 . S
C12 H13 0.961 . S
C12 H14 0.961 . S
C12 H15 0.960 . S
H13 C12 0.961 . S
H14 C12 0.961 . S
H15 C12 0.960 . S
C16 N17 1.342 . S
C16 C20 1.401 . S
C16 C21 1.499 . S
N17 Co0 1.989 . S
N17 C16 1.342 . S
N17 N18 1.388 . S
N18 Co1 1.993 . S
N18 N17 1.388 . S
N18 C19 1.346 . S
C19 N18 1.346 . S
C19 C20 1.396 . S
C19 C29 1.510 . S
C20 C16 1.401 . S
C20 C19 1.396 . S
C21 C16 1.499 . S
C21 H22 0.959 . S
C21 H23 0.960 . S
C21 H24 0.961 . S
H22 C21 0.959 . S
H23 C21 0.960 . S
H24 C21 0.961 . S
O25 Co0 1.967 . S
O25 C33 1.258 . S
O26 Co1 1.941 . S
O26 C33 1.266 . S
H27 C29 0.959 . S
H28 C29 0.961 . S
C29 C19 1.510 . S
C29 H27 0.959 . S
C29 H28 0.961 . S
C29 H30 0.960 . S
H30 C29 0.960 . S
H31 N11 0.862 . S
O32 Co0 1.920 . S
O32 C5 1.289 . S
C33 O25 1.258 . S
C33 O26 1.266 . S
Co34 O37 1.970 . S
Co34 N51 1.989 1_545 S
Co34 O59 1.967 . S
Co34 O66 1.920 . S
Co35 O38 1.966 1_565 S
Co35 N44 2.022 1_455 S
Co35 N52 1.993 . S
Co35 O60 1.941 . S
C36 O37 1.258 . S
C36 O38 1.263 . S
O37 Co34 1.970 . S
O37 C36 1.258 . S
O38 Co35 1.966 1_545 S
O38 C36 1.263 . S
C39 O40 1.235 . S
C39 O66 1.289 . S
O40 C39 1.235 . S
C41 C43 1.400 . S
C41 N44 1.351 . S
C41 C46 1.501 1_565 S
C42 C43 1.387 . S
C42 N45 1.341 . S
C43 C41 1.400 . S
C43 C42 1.387 . S
N44 Co35 2.022 1_655 S
N44 C41 1.351 . S
N44 N45 1.365 . S
N45 C42 1.341 . S
N45 N44 1.365 . S
N45 H65 0.862 . S
C46 C41 1.501 1_545 S
C46 H47 0.961 1_655 S
C46 H48 0.961 . S
C46 H49 0.960 . S
H47 C46 0.961 1_455 S
H48 C46 0.961 . S
H49 C46 0.960 . S
C50 N51 1.342 . S
C50 C54 1.401 . S
C50 C55 1.499 . S
N51 Co34 1.989 1_565 S
N51 C50 1.342 . S
N51 N52 1.388 . S
N52 Co35 1.993 . S
N52 N51 1.388 . S
N52 C53 1.346 . S
C53 N52 1.346 . S
C53 C54 1.396 . S
C53 C63 1.510 1_455 S
C54 C50 1.401 . S
C54 C53 1.396 . S
C55 C50 1.499 . S
C55 H56 0.959 . S
C55 H57 0.960 . S
C55 H58 0.961 . S
H56 C55 0.959 . S
H57 C55 0.960 . S
H58 C55 0.961 . S
O59 Co34 1.967 . S
O59 C67 1.258 . S
O60 Co35 1.941 . S
O60 C67 1.266 1_565 S
H61 C63 0.959 . S
H62 C63 0.961 . S
C63 C53 1.510 1_655 S
C63 H61 0.959 . S
C63 H62 0.961 . S
C63 H64 0.960 . S
H64 C63 0.960 . S
H65 N45 0.862 . S
O66 Co34 1.920 . S
O66 C39 1.289 . S
C67 O59 1.258 . S
C67 O60 1.266 1_545 S
Co68 O71 1.970 . S
Co68 N85 1.989 . S
Co68 O93 1.967 . S
Co68 O100 1.920 . S
Co69 O72 1.966 . S
Co69 N78 2.022 . S
Co69 N86 1.993 . S
Co69 O94 1.941 . S
C70 O71 1.258 . S
C70 O72 1.263 . S
O71 Co68 1.970 . S
O71 C70 1.258 . S
O72 Co69 1.966 . S
O72 C70 1.263 . S
C73 O74 1.235 . S
C73 O100 1.289 . S
O74 C73 1.235 . S
C75 C77 1.400 . S
C75 N78 1.351 . S
C75 C80 1.501 . S
C76 C77 1.387 . S
C76 N79 1.341 . S
C77 C75 1.400 . S
C77 C76 1.387 . S
N78 Co69 2.022 . S
N78 C75 1.351 . S
N78 N79 1.365 . S
N79 C76 1.341 . S
N79 N78 1.365 . S
N79 H99 0.862 . S
C80 C75 1.501 . S
C80 H81 0.961 . S
C80 H82 0.961 . S
C80 H83 0.960 . S
H81 C80 0.961 . S
H82 C80 0.961 . S
H83 C80 0.960 . S
C84 N85 1.342 . S
C84 C88 1.401 . S
C84 C89 1.499 . S
N85 Co68 1.989 . S
N85 C84 1.342 . S
N85 N86 1.388 . S
N86 Co69 1.993 . S
N86 N85 1.388 . S
N86 C87 1.346 . S
C87 N86 1.346 . S
C87 C88 1.396 . S
C87 C97 1.510 . S
C88 C84 1.401 . S
C88 C87 1.396 . S
C89 C84 1.499 . S
C89 H90 0.959 . S
C89 H91 0.960 . S
C89 H92 0.961 . S
H90 C89 0.959 . S
H91 C89 0.960 . S
H92 C89 0.961 . S
O93 Co68 1.967 . S
O93 C101 1.258 . S
O94 Co69 1.941 . S
O94 C101 1.266 . S
H95 C97 0.959 . S
H96 C97 0.961 . S
C97 C87 1.510 . S
C97 H95 0.959 . S
C97 H96 0.961 . S
C97 H98 0.960 . S
H98 C97 0.960 . S
H99 N79 0.862 . S
O100 Co68 1.920 . S
O100 C73 1.289 . S
C101 O93 1.258 . S
C101 O94 1.266 . S
Co102 O105 1.970 . S
Co102 N119 1.989 . S
Co102 O127 1.967 . S
Co102 O134 1.920 . S
Co103 O106 1.966 . S
Co103 N112 2.022 . S
Co103 N120 1.993 . S
Co103 O128 1.941 . S
C104 O105 1.258 . S
C104 O106 1.263 . S
O105 Co102 1.970 . S
O105 C104 1.258 . S
O106 Co103 1.966 . S
O106 C104 1.263 . S
C107 O108 1.235 . S
C107 O134 1.289 . S
O108 C107 1.235 . S
C109 C111 1.400 . S
C109 N112 1.351 . S
C109 C114 1.501 . S
C110 C111 1.387 . S
C110 N113 1.341 . S
C111 C109 1.400 . S
C111 C110 1.387 . S
N112 Co103 2.022 . S
N112 C109 1.351 . S
N112 N113 1.365 . S
N113 C110 1.341 . S
N113 N112 1.365 . S
N113 H133 0.862 . S
C114 C109 1.501 . S
C114 H115 0.961 . S
C114 H116 0.961 . S
C114 H117 0.960 . S
H115 C114 0.961 . S
H116 C114 0.961 . S
H117 C114 0.960 . S
C118 N119 1.342 . S
C118 C122 1.401 . S
C118 C123 1.499 . S
N119 Co102 1.989 . S
N119 C118 1.342 . S
N119 N120 1.388 . S
N120 Co103 1.993 . S
N120 N119 1.388 . S
N120 C121 1.346 . S
C121 N120 1.346 . S
C121 C122 1.396 . S
C121 C131 1.510 . S
C122 C118 1.401 . S
C122 C121 1.396 . S
C123 C118 1.499 . S
C123 H124 0.959 . S
C123 H125 0.960 . S
C123 H126 0.961 . S
H124 C123 0.959 . S
H125 C123 0.960 . S
H126 C123 0.961 . S
O127 Co102 1.967 . S
O127 C135 1.258 . S
O128 Co103 1.941 . S
O128 C135 1.266 . S
H129 C131 0.959 . S
H130 C131 0.961 . S
C131 C121 1.510 . S
C131 H129 0.959 . S
C131 H130 0.961 . S
C131 H132 0.960 . S
H132 C131 0.960 . S
H133 N113 0.862 . S
O134 Co102 1.920 . S
O134 C107 1.289 . S
C135 O127 1.258 . S
C135 O128 1.266 . S
Co136 O139 1.970 . S
Co136 N153 1.989 . S
Co136 O161 1.967 . S
Co136 O168 1.920 . S
Co137 O140 1.966 1_565 S
Co137 N146 2.022 . S
Co137 N154 1.993 . S
Co137 O162 1.941 . S
C138 O139 1.258 . S
C138 O140 1.263 . S
O139 Co136 1.970 . S
O139 C138 1.258 . S
O140 Co137 1.966 1_545 S
O140 C138 1.263 . S
C141 O142 1.235 . S
C141 O168 1.289 . S
O142 C141 1.235 . S
C143 C145 1.400 . S
C143 N146 1.351 . S
C143 C148 1.501 . S
C144 C145 1.387 . S
C144 N147 1.341 . S
C145 C143 1.400 . S
C145 C144 1.387 . S
N146 Co137 2.022 . S
N146 C143 1.351 . S
N146 N147 1.365 . S
N147 C144 1.341 . S
N147 N146 1.365 . S
N147 H167 0.862 1_554 S
C148 C143 1.501 . S
C148 H149 0.961 . S
C148 H150 0.961 . S
C148 H151 0.960 . S
H149 C148 0.961 . S
H150 C148 0.961 . S
H151 C148 0.960 . S
C152 N153 1.342 . S
C152 C156 1.401 1_544 S
C152 C157 1.488 1_554 S
N153 Co136 1.989 . S
N153 C152 1.342 . S
N153 N154 1.388 1_545 S
N154 Co137 1.993 . S
N154 N153 1.388 1_565 S
N154 C155 1.346 1_554 S
C155 N154 1.346 1_556 S
C155 C156 1.396 . S
C155 C165 1.510 . S
C156 C152 1.401 1_566 S
C156 C155 1.396 . S
C157 C152 1.488 1_556 S
C157 H158 0.950 1_556 S
C157 H159 0.966 . S
C157 H160 0.975 . S
H158 C157 0.950 1_554 S
H159 C157 0.966 . S
H160 C157 0.975 . S
O161 Co136 1.967 . S
O161 C169 1.258 . S
O162 Co137 1.941 . S
O162 C169 1.266 1_565 S
H163 C165 0.959 . S
H164 C165 0.961 . S
C165 C155 1.510 . S
C165 H163 0.959 . S
C165 H164 0.961 . S
C165 H166 0.960 . S
H166 C165 0.960 . S
H167 N147 0.862 1_556 S
O168 Co136 1.920 . S
O168 C141 1.289 . S
C169 O161 1.258 . S
C169 O162 1.266 1_545 S
Co170 O173 1.970 . S
Co170 N187 1.989 1_455 S
Co170 O195 1.967 . S
Co170 O202 1.920 . S
Co171 O174 1.966 1_655 S
Co171 N180 2.022 . S
Co171 N188 1.993 . S
Co171 O196 1.941 . S
C172 O173 1.258 . S
C172 O174 1.263 . S
O173 Co170 1.970 . S
O173 C172 1.258 . S
O174 Co171 1.966 1_455 S
O174 C172 1.263 . S
C175 O176 1.235 . S
C175 O202 1.289 . S
O176 C175 1.235 . S
C177 C179 1.400 1_554 S
C177 N180 1.351 . S
C177 C182 1.501 1_655 S
C178 C179 1.387 . S
C178 N181 1.341 1_556 S
C179 C177 1.400 1_556 S
C179 C178 1.387 . S
N180 Co171 2.022 . S
N180 C177 1.351 . S
N180 N181 1.365 . S
N181 C178 1.341 1_554 S
N181 N180 1.365 . S
N181 H201 0.862 . S
C182 C177 1.501 1_455 S
C182 H183 0.961 . S
C182 H184 0.961 . S
C182 H185 0.960 . S
H183 C182 0.961 . S
H184 C182 0.961 . S
H185 C182 0.960 . S
C186 N187 1.342 . S
C186 C190 1.401 . S
C186 C191 1.499 . S
N187 Co170 1.989 1_655 S
N187 C186 1.342 . S
N187 N188 1.388 . S
N188 Co171 1.993 . S
N188 N187 1.388 . S
N188 C189 1.346 . S
C189 N188 1.346 . S
C189 C190 1.396 . S
C189 C199 1.510 . S
C190 C186 1.401 . S
C190 C189 1.396 . S
C191 C186 1.499 . S
C191 H192 0.959 . S
C191 H193 0.960 . S
C191 H194 0.961 . S
H192 C191 0.959 . S
H193 C191 0.960 . S
H194 C191 0.961 . S
O195 Co170 1.967 . S
O195 C203 1.258 . S
O196 Co171 1.941 . S
O196 C203 1.266 1_655 S
H197 C199 0.959 . S
H198 C199 0.961 . S
C199 C189 1.510 . S
C199 H197 0.959 . S
C199 H198 0.961 . S
C199 H200 0.960 . S
H200 C199 0.960 . S
H201 N181 0.862 . S
O202 Co170 1.920 . S
O202 C175 1.289 . S
C203 O195 1.258 . S
C203 O196 1.266 1_455 S
C204 C205 1.386 . S
C204 C206 1.383 . S
C204 H220 0.951 . S
C205 C204 1.386 . S
C205 C209 1.383 . S
C206 C204 1.383 . S
C206 C207 1.402 . S
C206 H221 0.951 . S
C207 C206 1.402 . S
C207 C208 1.375 . S
C207 C210 1.481 . S
C208 C207 1.375 . S
C208 C209 1.367 . S
C208 H222 0.951 . S
C209 C205 1.383 . S
C209 C208 1.367 . S
C209 H223 0.950 . S
C210 C207 1.481 . S
C210 C211 1.297 . S
C210 H224 0.950 . S
C211 C210 1.297 . S
C211 C212 1.479 . S
C211 H225 0.950 . S
C212 C211 1.479 . S
C212 C213 1.375 . S
C212 C218 1.404 . S
C213 C212 1.375 . S
C213 C214 1.369 . S
C213 H226 0.950 . S
C214 C213 1.369 . S
C214 C215 1.392 . S
C214 H227 0.951 . S
C215 C214 1.392 . S
C215 C217 1.384 . S
H216 C218 0.949 . S
C217 C215 1.384 . S
C217 C218 1.385 . S
C217 H219 0.950 . S
C218 C212 1.404 . S
C218 H216 0.949 . S
C218 C217 1.385 . S
H219 C217 0.950 . S
H220 C204 0.951 . S
H221 C206 0.951 . S
H222 C208 0.951 . S
H223 C209 0.950 . S
H224 C210 0.950 . S
H225 C211 0.950 . S
H226 C213 0.950 . S
H227 C214 0.951 . S
C228 C229 1.386 . S
C228 C230 1.383 . S
C228 H244 0.951 . S
C229 C228 1.386 . S
C229 C233 1.383 . S
C230 C228 1.383 . S
C230 C231 1.402 . S
C230 H245 0.951 . S
C231 C230 1.402 . S
C231 C232 1.375 . S
C231 C234 1.481 . S
C232 C231 1.375 . S
C232 C233 1.367 . S
C232 H246 0.951 . S
C233 C229 1.383 . S
C233 C232 1.367 . S
C233 H247 0.950 . S
C234 C231 1.481 . S
C234 C235 1.297 . S
C234 H248 0.950 . S
C235 C234 1.297 . S
C235 C236 1.479 . S
C235 H249 0.950 . S
C236 C235 1.479 . S
C236 C237 1.375 . S
C236 C242 1.404 . S
C237 C236 1.375 . S
C237 C238 1.369 . S
C237 H250 0.950 . S
C238 C237 1.369 . S
C238 C239 1.392 1_655 S
C238 H251 0.951 . S
C239 C238 1.392 1_455 S
C239 C241 1.384 . S
H240 C242 0.949 . S
C241 C239 1.384 . S
C241 C242 1.385 1_455 S
C241 H243 0.950 . S
C242 C236 1.404 . S
C242 H240 0.949 . S
C242 C241 1.385 1_655 S
H243 C241 0.950 . S
H244 C228 0.951 . S
H245 C230 0.951 . S
H246 C232 0.951 . S
H247 C233 0.950 . S
H248 C234 0.950 . S
H249 C235 0.950 . S
H250 C237 0.950 . S
H251 C238 0.951 . S
C252 C253 1.386 . S
C252 C254 1.383 . S
C252 H268 0.951 . S
C253 C252 1.386 . S
C253 C257 1.383 . S
C254 C252 1.383 . S
C254 C255 1.402 . S
C254 H269 0.951 . S
C255 C254 1.402 . S
C255 C256 1.375 . S
C255 C258 1.481 . S
C256 C255 1.375 . S
C256 C257 1.367 . S
C256 H270 0.951 . S
C257 C253 1.383 . S
C257 C256 1.367 . S
C257 H271 0.950 . S
C258 C255 1.481 . S
C258 C259 1.297 . S
C258 H272 0.950 . S
C259 C258 1.297 . S
C259 C260 1.479 . S
C259 H273 0.950 . S
C260 C259 1.479 . S
C260 C261 1.375 . S
C260 C266 1.404 1_545 S
C261 C260 1.375 . S
C261 C262 1.369 1_545 S
C261 H274 0.950 . S
C262 C261 1.369 1_565 S
C262 C263 1.392 . S
C262 H275 0.951 . S
C263 C262 1.392 . S
C263 C265 1.384 . S
H264 C266 0.949 . S
C265 C263 1.384 . S
C265 C266 1.385 . S
C265 H267 0.950 . S
C266 C260 1.404 1_565 S
C266 H264 0.949 . S
C266 C265 1.385 . S
H267 C265 0.950 . S
H268 C252 0.951 . S
H269 C254 0.951 . S
H270 C256 0.951 . S
H271 C257 0.950 . S
H272 C258 0.950 . S
H273 C259 0.950 . S
H274 C261 0.950 . S
H275 C262 0.951 . S
C276 C277 1.386 . S
C276 C278 1.383 . S
C276 H292 0.951 . S
C277 C276 1.386 . S
C277 C281 1.383 . S
C278 C276 1.383 . S
C278 C279 1.402 . S
C278 H293 0.951 . S
C279 C278 1.402 . S
C279 C280 1.375 . S
C279 C282 1.481 . S
C280 C279 1.375 . S
C280 C281 1.367 . S
C280 H294 0.951 . S
C281 C277 1.383 . S
C281 C280 1.367 . S
C281 H295 0.950 . S
C282 C279 1.481 . S
C282 C283 1.297 . S
C282 H296 0.950 . S
C283 C282 1.297 . S
C283 C284 1.479 . S
C283 H297 0.950 . S
C284 C283 1.479 . S
C284 C285 1.375 . S
C284 C290 1.404 . S
C285 C284 1.375 . S
C285 C286 1.369 . S
C285 H298 0.950 . S
C286 C285 1.369 . S
C286 C287 1.392 . S
C286 H299 0.951 . S
C287 C286 1.392 . S
C287 C289 1.384 . S
H288 C290 0.949 . S
C289 C287 1.384 . S
C289 C290 1.385 . S
C289 H291 0.950 . S
C290 C284 1.404 . S
C290 H288 0.949 . S
C290 C289 1.385 . S
H291 C289 0.950 . S
H292 C276 0.951 . S
H293 C278 0.951 . S
H294 C280 0.951 . S
H295 C281 0.950 . S
H296 C282 0.950 . S
H297 C283 0.950 . S
H298 C285 0.950 . S
H299 C286 0.951 . S
C300 C301 1.386 . S
C300 C302 1.383 . S
C300 H316 0.951 . S
C301 C300 1.386 . S
C301 C305 1.383 . S
C302 C300 1.383 . S
C302 C303 1.402 . S
C302 H317 0.951 . S
C303 C302 1.402 . S
C303 C304 1.375 1_655 S
C303 C306 1.481 1_655 S
C304 C303 1.375 1_455 S
C304 C305 1.367 1_455 S
C304 H318 0.951 . S
C305 C301 1.383 . S
C305 C304 1.367 1_655 S
C305 H319 0.950 . S
C306 C303 1.481 1_455 S
C306 C307 1.297 . S
C306 H320 0.950 . S
C307 C306 1.297 . S
C307 C308 1.479 . S
C307 H321 0.950 . S
C308 C307 1.479 . S
C308 C309 1.375 . S
C308 C314 1.404 . S
C309 C308 1.375 . S
C309 C310 1.369 . S
C309 H322 0.950 1_455 S
C310 C309 1.369 . S
C310 C311 1.392 . S
C310 H323 0.951 1_455 S
C311 C310 1.392 . S
C311 C313 1.384 . S
H312 C314 0.949 . S
C313 C311 1.384 . S
C313 C314 1.385 . S
C313 H315 0.950 . S
C314 C308 1.404 . S
C314 H312 0.949 . S
C314 C313 1.385 . S
H315 C313 0.950 . S
H316 C300 0.951 . S
H317 C302 0.951 . S
H318 C304 0.951 . S
H319 C305 0.950 . S
H320 C306 0.950 . S
H321 C307 0.950 . S
H322 C309 0.950 1_655 S
H323 C310 0.951 1_655 S
C324 C325 1.386 . S
C324 C326 1.383 . S
C324 H340 0.951 . S
C325 C324 1.386 . S
C325 C329 1.383 . S
C326 C324 1.383 . S
C326 C327 1.402 . S
C326 H341 0.951 . S
C327 C326 1.402 . S
C327 C328 1.375 . S
C327 C330 1.481 . S
C328 C327 1.375 . S
C328 C329 1.367 . S
C328 H342 0.951 . S
C329 C325 1.383 . S
C329 C328 1.367 . S
C329 H343 0.950 . S
C330 C327 1.481 . S
C330 C331 1.297 1_554 S
C330 H344 0.950 . S
C331 C330 1.297 1_556 S
C331 C332 1.479 . S
C331 H345 0.950 . S
C332 C331 1.479 . S
C332 C333 1.375 . S
C332 C338 1.404 . S
C333 C332 1.375 . S
C333 C334 1.369 . S
C333 H346 0.950 . S
C334 C333 1.369 . S
C334 C335 1.392 . S
C334 H347 0.951 . S
C335 C334 1.392 . S
C335 C337 1.384 . S
H336 C338 0.949 . S
C337 C335 1.384 . S
C337 C338 1.385 . S
C337 H339 0.950 . S
C338 C332 1.404 . S
C338 H336 0.949 . S
C338 C337 1.385 . S
H339 C337 0.950 . S
H340 C324 0.951 . S
H341 C326 0.951 . S
H342 C328 0.951 . S
H343 C329 0.950 . S
H344 C330 0.950 . S
H345 C331 0.950 . S
H346 C333 0.950 . S
H347 C334 0.951 . S
C348 C349 1.386 . S
C348 C350 1.383 . S
C348 H364 0.951 . S
C349 C348 1.386 . S
C349 C353 1.383 . S
C350 C348 1.383 . S
C350 C351 1.402 . S
C350 H365 0.951 . S
C351 C350 1.402 . S
C351 C352 1.375 . S
C351 C354 1.481 . S
C352 C351 1.375 . S
C352 C353 1.367 . S
C352 H366 0.951 . S
C353 C349 1.383 . S
C353 C352 1.367 . S
C353 H367 0.950 . S
C354 C351 1.481 . S
C354 C355 1.297 . S
C354 H368 0.950 . S
C355 C354 1.297 . S
C355 C356 1.479 1_556 S
C355 H369 0.950 . S
C356 C355 1.479 1_554 S
C356 C357 1.375 . S
C356 C362 1.404 . S
C357 C356 1.375 . S
C357 C358 1.369 . S
C357 H370 0.950 1_554 S
C358 C357 1.369 . S
C358 C359 1.392 . S
C358 H371 0.951 . S
C359 C358 1.392 . S
C359 C361 1.384 . S
H360 C362 0.949 . S
C361 C359 1.384 . S
C361 C362 1.385 . S
C361 H363 0.950 . S
C362 C356 1.404 . S
C362 H360 0.949 . S
C362 C361 1.385 . S
H363 C361 0.950 . S
H364 C348 0.951 . S
H365 C350 0.951 . S
H366 C352 0.951 . S
H367 C353 0.950 . S
H368 C354 0.950 . S
H369 C355 0.950 . S
H370 C357 0.950 1_556 S
H371 C358 0.951 . S
C372 C373 1.386 . S
C372 C374 1.383 . S
C372 H388 0.951 . S
C373 C372 1.386 . S
C373 C377 1.383 . S
C374 C372 1.383 . S
C374 C375 1.402 . S
C374 H389 0.951 . S
C375 C374 1.402 . S
C375 C376 1.375 . S
C375 C378 1.481 . S
C376 C375 1.375 . S
C376 C377 1.367 . S
C376 H390 0.951 1_565 S
C377 C373 1.383 . S
C377 C376 1.367 . S
C377 H391 0.950 1_565 S
C378 C375 1.481 . S
C378 C379 1.297 . S
C378 H392 0.950 . S
C379 C378 1.297 . S
C379 C380 1.479 . S
C379 H393 0.950 . S
C380 C379 1.479 . S
C380 C381 1.375 . S
C380 C386 1.404 . S
C381 C380 1.375 . S
C381 C382 1.369 . S
C381 H394 0.950 . S
C382 C381 1.369 . S
C382 C383 1.392 . S
C382 H395 0.951 . S
C383 C382 1.392 . S
C383 C385 1.384 . S
H384 C386 0.949 1_545 S
C385 C383 1.384 . S
C385 C386 1.385 . S
C385 H387 0.950 . S
C386 C380 1.404 . S
C386 H384 0.949 1_565 S
C386 C385 1.385 . S
H387 C385 0.950 . S
H388 C372 0.951 . S
H389 C374 0.951 . S
H390 C376 0.951 1_545 S
H391 C377 0.950 1_545 S
H392 C378 0.950 . S
H393 C379 0.950 . S
H394 C381 0.950 . S
H395 C382 0.951 . S
C396 C397 1.386 . S
C396 C398 1.383 . S
C396 H412 0.951 . S
C397 C396 1.386 . S
C397 C401 1.383 . S
C398 C396 1.383 . S
C398 C399 1.402 . S
C398 H413 0.951 . S
C399 C398 1.402 . S
C399 C400 1.375 . S
C399 C402 1.481 . S
C400 C399 1.375 . S
C400 C401 1.367 . S
C400 H414 0.951 . S
C401 C397 1.383 . S
C401 C400 1.367 . S
C401 H415 0.950 . S
C402 C399 1.481 . S
C402 C403 1.297 . S
C402 H416 0.950 . S
C403 C402 1.297 . S
C403 C404 1.479 . S
C403 H417 0.950 . S
C404 C403 1.479 . S
C404 C405 1.375 . S
C404 C410 1.404 . S
C405 C404 1.375 . S
C405 C406 1.369 . S
C405 H418 0.950 . S
C406 C405 1.369 . S
C406 C407 1.392 . S
C406 H419 0.951 . S
C407 C406 1.392 . S
C407 C409 1.384 . S
H408 C410 0.949 . S
C409 C407 1.384 . S
C409 C410 1.385 . S
C409 H411 0.950 . S
C410 C404 1.404 . S
C410 H408 0.949 . S
C410 C409 1.385 . S
H411 C409 0.950 . S
H412 C396 0.951 . S
H413 C398 0.951 . S
H414 C400 0.951 . S
H415 C401 0.950 . S
H416 C402 0.950 . S
H417 C403 0.950 . S
H418 C405 0.950 . S
H419 C406 0.951 . S
C420 C421 1.386 . S
C420 C422 1.383 . S
C420 H436 0.951 . S
C421 C420 1.386 . S
C421 C425 1.383 . S
C422 C420 1.383 . S
C422 C423 1.402 . S
C422 H437 0.951 . S
C423 C422 1.402 . S
C423 C424 1.375 . S
C423 C426 1.481 . S
C424 C423 1.375 . S
C424 C425 1.367 . S
C424 H438 0.951 . S
C425 C421 1.383 . S
C425 C424 1.367 . S
C425 H439 0.950 . S
C426 C423 1.481 . S
C426 C427 1.297 . S
C426 H440 0.950 . S
C427 C426 1.297 . S
C427 C428 1.479 . S
C427 H441 0.950 . S
C428 C427 1.479 . S
C428 C429 1.375 . S
C428 C434 1.404 . S
C429 C428 1.375 . S
C429 C430 1.369 1_545 S
C429 H442 0.950 . S
C430 C429 1.369 1_565 S
C430 C431 1.392 . S
C430 H443 0.951 . S
C431 C430 1.392 . S
C431 C433 1.384 . S
H432 C434 0.949 . S
C433 C431 1.384 . S
C433 C434 1.385 1_565 S
C433 H435 0.950 . S
C434 C428 1.404 . S
C434 H432 0.949 . S
C434 C433 1.385 1_545 S
H435 C433 0.950 . S
H436 C420 0.951 . S
H437 C422 0.951 . S
H438 C424 0.951 . S
H439 C425 0.950 . S
H440 C426 0.950 . S
H441 C427 0.950 . S
H442 C429 0.950 . S
H443 C430 0.951 . S
C444 C445 1.386 . S
C444 C446 1.383 . S
C444 H460 0.951 . S
C445 C444 1.386 . S
C445 C449 1.383 . S
C446 C444 1.383 . S
C446 C447 1.402 . S
C446 H461 0.951 . S
C447 C446 1.402 . S
C447 C448 1.375 . S
C447 C450 1.481 1_655 S
C448 C447 1.375 . S
C448 C449 1.367 . S
C448 H462 0.951 . S
C449 C445 1.383 . S
C449 C448 1.367 . S
C449 H463 0.950 . S
C450 C447 1.481 1_455 S
C450 C451 1.297 . S
C450 H464 0.950 . S
C451 C450 1.297 . S
C451 C452 1.479 . S
C451 H465 0.950 . S
C452 C451 1.479 . S
C452 C453 1.375 . S
C452 C458 1.404 . S
C453 C452 1.375 . S
C453 C454 1.369 . S
C453 H466 0.950 . S
C454 C453 1.369 . S
C454 C455 1.392 . S
C454 H467 0.951 . S
C455 C454 1.392 . S
C455 C457 1.384 . S
H456 C458 0.949 . S
C457 C455 1.384 . S
C457 C458 1.385 . S
C457 H459 0.950 . S
C458 C452 1.404 . S
C458 H456 0.949 . S
C458 C457 1.385 . S
H459 C457 0.950 . S
H460 C444 0.951 . S
H461 C446 0.951 . S
H462 C448 0.951 . S
H463 C449 0.950 . S
H464 C450 0.950 . S
H465 C451 0.950 . S
H466 C453 0.950 . S
H467 C454 0.951 . S
C468 C469 1.386 . S
C468 C470 1.383 . S
C468 H484 0.951 . S
C469 C468 1.386 . S
C469 C473 1.383 . S
C470 C468 1.383 . S
C470 C471 1.402 . S
C470 H485 0.951 . S
C471 C470 1.402 . S
C471 C472 1.375 . S
C471 C474 1.481 . S
C472 C471 1.375 . S
C472 C473 1.367 . S
C472 H486 0.951 . S
C473 C469 1.383 . S
C473 C472 1.367 . S
C473 H487 0.950 . S
C474 C471 1.481 . S
C474 C475 1.297 . S
C474 H488 0.950 . S
C475 C474 1.297 . S
C475 C476 1.479 . S
C475 H489 0.950 . S
C476 C475 1.479 . S
C476 C477 1.375 . S
C476 C482 1.404 . S
C477 C476 1.375 . S
C477 C478 1.369 . S
C477 H490 0.950 . S
C478 C477 1.369 . S
C478 C479 1.392 . S
C478 H491 0.951 . S
C479 C478 1.392 . S
C479 C481 1.384 . S
H480 C482 0.949 1_556 S
C481 C479 1.384 . S
C481 C482 1.385 . S
C481 H483 0.950 1_554 S
C482 C476 1.404 . S
C482 H480 0.949 1_554 S
C482 C481 1.385 . S
H483 C481 0.950 1_556 S
H484 C468 0.951 . S
H485 C470 0.951 . S
H486 C472 0.951 . S
H487 C473 0.950 . S
H488 C474 0.950 . S
H489 C475 0.950 . S
H490 C477 0.950 . S
H491 C478 0.951 . S
C492 C493 1.386 . S
C492 C494 1.383 . S
C492 H508 0.951 . S
C493 C492 1.386 . S
C493 C497 1.383 . S
C494 C492 1.383 . S
C494 C495 1.402 . S
C494 H509 0.951 . S
C495 C494 1.402 . S
C495 C496 1.375 . S
C495 C498 1.481 . S
C496 C495 1.375 . S
C496 C497 1.367 . S
C496 H510 0.951 . S
C497 C493 1.383 . S
C497 C496 1.367 . S
C497 H511 0.950 . S
C498 C495 1.481 . S
C498 C499 1.297 . S
C498 H512 0.950 . S
C499 C498 1.297 . S
C499 C500 1.479 . S
C499 H513 0.950 . S
C500 C499 1.479 . S
C500 C501 1.375 . S
C500 C506 1.404 . S
C501 C500 1.375 . S
C501 C502 1.369 . S
C501 H514 0.950 . S
C502 C501 1.369 . S
C502 C503 1.392 . S
C502 H515 0.951 . S
C503 C502 1.392 . S
C503 C505 1.384 . S
H504 C506 0.949 . S
C505 C503 1.384 . S
C505 C506 1.385 . S
C505 H507 0.950 . S
C506 C500 1.404 . S
C506 H504 0.949 . S
C506 C505 1.385 . S
H507 C505 0.950 . S
H508 C492 0.951 . S
H509 C494 0.951 . S
H510 C496 0.951 . S
H511 C497 0.950 . S
H512 C498 0.950 . S
H513 C499 0.950 . S
H514 C501 0.950 . S
H515 C502 0.951 . S
C516 C517 1.386 . S
C516 C518 1.383 . S
C516 H532 0.951 . S
C517 C516 1.386 . S
C517 C521 1.383 . S
C518 C516 1.383 . S
C518 C519 1.402 . S
C518 H533 0.951 . S
C519 C518 1.402 . S
C519 C520 1.375 . S
C519 C522 1.481 . S
C520 C519 1.375 . S
C520 C521 1.367 . S
C520 H534 0.951 . S
C521 C517 1.383 . S
C521 C520 1.367 . S
C521 H535 0.950 1_545 S
C522 C519 1.481 . S
C522 C523 1.297 . S
C522 H536 0.950 . S
C523 C522 1.297 . S
C523 C524 1.479 . S
C523 H537 0.950 . S
C524 C523 1.479 . S
C524 C525 1.375 . S
C524 C530 1.404 . S
C525 C524 1.375 . S
C525 C526 1.369 . S
C525 H538 0.950 . S
C526 C525 1.369 . S
C526 C527 1.392 . S
C526 H539 0.951 . S
C527 C526 1.392 . S
C527 C529 1.384 . S
H528 C530 0.949 . S
C529 C527 1.384 . S
C529 C530 1.385 . S
C529 H531 0.950 . S
C530 C524 1.404 . S
C530 H528 0.949 . S
C530 C529 1.385 . S
H531 C529 0.950 . S
H532 C516 0.951 . S
H533 C518 0.951 . S
H534 C520 0.951 . S
H535 C521 0.950 1_565 S
H536 C522 0.950 . S
H537 C523 0.950 . S
H538 C525 0.950 . S
H539 C526 0.951 . S
C540 C541 1.386 . S
C540 C542 1.383 . S
C540 H556 0.951 . S
C541 C540 1.386 . S
C541 C545 1.383 . S
C542 C540 1.383 . S
C542 C543 1.402 . S
C542 H557 0.951 . S
C543 C542 1.402 . S
C543 C544 1.375 . S
C543 C546 1.481 . S
C544 C543 1.375 . S
C544 C545 1.367 . S
C544 H558 0.951 . S
C545 C541 1.383 . S
C545 C544 1.367 . S
C545 H559 0.950 1_455 S
C546 C543 1.481 . S
C546 C547 1.297 . S
C546 H560 0.950 . S
C547 C546 1.297 . S
C547 C548 1.479 . S
C547 H561 0.950 . S
C548 C547 1.479 . S
C548 C549 1.375 . S
C548 C554 1.404 . S
C549 C548 1.375 . S
C549 C550 1.369 . S
C549 H562 0.950 . S
C550 C549 1.369 . S
C550 C551 1.392 . S
C550 H563 0.951 . S
C551 C550 1.392 . S
C551 C553 1.384 . S
H552 C554 0.949 . S
C553 C551 1.384 . S
C553 C554 1.385 . S
C553 H555 0.950 . S
C554 C548 1.404 . S
C554 H552 0.949 . S
C554 C553 1.385 . S
H555 C553 0.950 . S
H556 C540 0.951 . S
H557 C542 0.951 . S
H558 C544 0.951 . S
H559 C545 0.950 1_655 S
H560 C546 0.950 . S
H561 C547 0.950 . S
H562 C549 0.950 . S
H563 C550 0.951 . S
C205 C107 1.353 . S
C215 C20 1.352 . S
C229 C138 1.352 . S
C239 C9 1.349 . S
C253 C2 1.290 . S
C263 C175 1.150 . S
C277 C77 1.252 . S
C287 C5 1.221 . S
C301 C179 1.112 . S
C311 C54 0.961 . S
C325 C73 0.983 . S
C335 C39 0.869 . S
C349 C36 1.001 . S
C359 C111 0.976 . S
C373 C156 1.237 . S
C383 C43 1.293 . S
C397 C88 1.270 . S
C407 C122 1.312 . S
C421 C70 1.456 . S
C431 C172 1.466 . S
C445 C141 0.938 . S
C455 C104 1.067 . S
C469 C190 1.423 . S
C479 C145 1.351 . S
C493 C67 1.579 . S
C503 C33 1.460 . S
C517 C169 1.516 . S
C527 C101 1.455 . S
C541 C203 1.224 . S
C551 C135 1.087 . S
