# Generated by pormake.
# Topology lcy, (6)-cn, num edge types: 1
# Building blocks:
#     Node 0, Type 0, BuildingBlock: IZENUY_clean_sbu_0, # of connection points: 6
#     Node 1, Type 0, BuildingBlock: IZENUY_clean_sbu_0, # of connection points: 6
#     Node 2, Type 0, BuildingBlock: IZENUY_clean_sbu_0, # of connection points: 6
#     Node 3, Type 0, BuildingBlock: IZENUY_clean_sbu_0, # of connection points: 6
#     Edge 4, Type (0, 0), BuildingBlock: MIFKUJ_clean_linker_0, # of connection points: 2
#     Edge 5, Type (0, 0), BuildingBlock: MIFKUJ_clean_linker_0, # of connection points: 2
#     Edge 6, Type (0, 0), BuildingBlock: MIFKUJ_clean_linker_0, # of connection points: 2
#     Edge 7, Type (0, 0), BuildingBlock: MIFKUJ_clean_linker_0, # of connection points: 2
#     Edge 8, Type (0, 0), BuildingBlock: MIFKUJ_clean_linker_0, # of connection points: 2
#     Edge 9, Type (0, 0), BuildingBlock: MIFKUJ_clean_linker_0, # of connection points: 2
#     Edge 10, Type (0, 0), BuildingBlock: MIFKUJ_clean_linker_0, # of connection points: 2
#     Edge 11, Type (0, 0), BuildingBlock: MIFKUJ_clean_linker_0, # of connection points: 2
#     Edge 12, Type (0, 0), BuildingBlock: MIFKUJ_clean_linker_0, # of connection points: 2
#     Edge 13, Type (0, 0), BuildingBlock: MIFKUJ_clean_linker_0, # of connection points: 2
#     Edge 14, Type (0, 0), BuildingBlock: MIFKUJ_clean_linker_0, # of connection points: 2
#     Edge 15, Type (0, 0), BuildingBlock: MIFKUJ_clean_linker_0, # of connection points: 2
# Relax obj value: 0.232
# Max RMSD: 0.227
# Mean RMSD: 0.227
data_MOF--net-lcy--node1-IZENUY_clean_sbu_0--edge1-MIFKUJ_clean_linker_0
_symmetry_space_group_name_H-M    P1
_symmetry_Int_Tables_number       1
_symmetry_cell_setting            triclinic
loop_
_symmetry_equiv_pos_as_xyz
'x, y, z'
_cell_length_a     32.839277
_cell_length_b     32.815193
_cell_length_c     32.823736
_cell_angle_alpha  90.019211
_cell_angle_beta   89.88507
_cell_angle_gamma 89.979063
loop_
_atom_site_label
_atom_site_type_symbol
_atom_site_fract_x
_atom_site_fract_y
_atom_site_fract_z
_atom_type_partial_charge
Fe0 Fe 0.41175 0.38407 0.34164 0.0
Fe1 Fe 0.37335 0.33926 0.41362 0.0
O2 O 0.37223 0.37901 0.37762 0.0
Fe3 Fe 0.33151 0.41411 0.37774 0.0
O4 O 0.31677 0.39893 0.32707 0.0
O5 O 0.37833 0.4049 0.30123 0.0
O6 O 0.40138 0.33453 0.32068 0.0
C7 C 0.40307 0.30192 0.34075 0.0
C8 C 0.40002 0.46359 0.35897 0.0
O9 O 0.39904 0.30231 0.3793 0.0
C10 C 0.34526 0.40774 0.45872 0.0
O11 O 0.452 0.36365 0.37537 0.0
O12 O 0.42097 0.3569 0.43423 0.0
O13 O 0.36194 0.45722 0.35786 0.0
O14 O 0.42444 0.43411 0.36072 0.0
C15 C 0.29289 0.33876 0.39735 0.0
O16 O 0.34792 0.36935 0.45423 0.0
O17 O 0.34468 0.43107 0.4283 0.0
C18 C 0.45331 0.35967 0.41383 0.0
O19 O 0.3258 0.31928 0.39518 0.0
O20 O 0.29325 0.37749 0.39759 0.0
C21 C 0.33991 0.40283 0.2966 0.0
Fe22 Fe 0.83202 0.08933 0.62512 0.0
Fe23 Fe 0.87473 0.16105 0.58427 0.0
O24 O 0.87271 0.12426 0.62327 0.0
Fe25 Fe 0.91157 0.12243 0.66013 0.0
O26 O 0.92507 0.07134 0.64529 0.0
O27 O 0.86271 0.04727 0.6468 0.0
O28 O 0.845 0.06938 0.57547 0.0
C29 C 0.84536 0.09082 0.54374 0.0
C30 C 0.83962 0.10442 0.70577 0.0
O31 O 0.84851 0.12925 0.54601 0.0
C32 C 0.90318 0.20404 0.65369 0.0
O33 O 0.79407 0.12545 0.60375 0.0
O34 O 0.82759 0.18332 0.6012 0.0
O35 O 0.8781 0.1038 0.70165 0.0
O36 O 0.81696 0.10701 0.67496 0.0
C37 C 0.95413 0.14 0.58635 0.0
O38 O 0.90139 0.19964 0.61535 0.0
O39 O 0.9001 0.1737 0.67694 0.0
C40 C 0.79436 0.16418 0.60147 0.0
O41 O 0.92203 0.14048 0.56545 0.0
O42 O 0.95215 0.14031 0.62507 0.0
C43 C 0.90098 0.04156 0.64729 0.0
Fe44 Fe 0.08228 0.62677 0.83795 0.0
Fe45 Fe 0.16487 0.59465 0.86573 0.0
O46 O 0.12298 0.62747 0.87297 0.0
Fe47 Fe 0.12161 0.66095 0.91492 0.0
O48 O 0.07521 0.63814 0.93356 0.0
O49 O 0.04287 0.64182 0.87548 0.0
O50 O 0.07116 0.57424 0.85007 0.0
C51 C 0.09639 0.54584 0.84409 0.0
C52 C 0.09001 0.70802 0.84946 0.0
O53 O 0.13435 0.55335 0.84233 0.0
C54 C 0.20145 0.66797 0.89451 0.0
O55 O 0.11396 0.61171 0.79379 0.0
O56 O 0.17617 0.61751 0.81691 0.0
O57 O 0.09362 0.70141 0.8874 0.0
O58 O 0.0916 0.67918 0.82417 0.0
C59 C 0.15554 0.58809 0.94773 0.0
O60 O 0.2027 0.62982 0.88815 0.0
O61 O 0.16784 0.68587 0.8989 0.0
C62 C 0.15192 0.61524 0.78737 0.0
O63 O 0.15599 0.57 0.91391 0.0
O64 O 0.14931 0.62627 0.94964 0.0
C65 C 0.04229 0.63989 0.91411 0.0
Fe66 Fe 0.58322 0.87128 0.16405 0.0
Fe67 Fe 0.66325 0.90774 0.13391 0.0
O68 O 0.62332 0.87231 0.12823 0.0
Fe69 Fe 0.6234 0.83761 0.08725 0.0
O70 O 0.57552 0.85706 0.06877 0.0
O71 O 0.54428 0.85298 0.12762 0.0
O72 O 0.56851 0.92253 0.15094 0.0
C73 C 0.5918 0.95272 0.15554 0.0
C74 C 0.59663 0.79042 0.15466 0.0
O75 O 0.63028 0.94788 0.15648 0.0
C76 C 0.70373 0.83576 0.10653 0.0
O77 O 0.6143 0.88939 0.20723 0.0
O78 O 0.67647 0.88711 0.18318 0.0
O79 O 0.59838 0.79616 0.11639 0.0
O80 O 0.59647 0.82013 0.17894 0.0
C81 C 0.65356 0.91124 0.05191 0.0
O82 O 0.70304 0.87409 0.11202 0.0
O83 O 0.6711 0.81601 0.10321 0.0
C84 C 0.65242 0.88791 0.21304 0.0
O85 O 0.65263 0.93035 0.08514 0.0
O86 O 0.64873 0.87281 0.0511 0.0
C87 C 0.54302 0.85478 0.089 0.0
H88 H 0.16223 0.61555 0.02656 0.0
H89 H 0.19155 0.57901 0.08456 0.0
H90 H 0.21011 0.4731 0.00881 0.0
H91 H 0.1798 0.50863 0.9514 0.0
H92 H 0.1879 0.44949 0.08089 0.0
H93 H 0.28714 0.5415 0.02732 0.0
H94 H 0.31087 0.60899 0.00423 0.0
H95 H 0.29576 0.65642 0.12523 0.0
H96 H 0.27112 0.5894 0.14891 0.0
H97 H 0.37854 0.4233 0.22521 0.0
H98 H 0.34705 0.44865 0.16259 0.0
H99 H 0.22808 0.43431 0.21674 0.0
H100 H 0.25897 0.40787 0.27853 0.0
H101 H 0.30467 0.51477 0.151 0.0
H102 H 0.15661 0.41693 0.14683 0.0
H103 H 0.13475 0.34694 0.16334 0.0
H104 H 0.25731 0.30411 0.14734 0.0
H105 H 0.2798 0.3737 0.13018 0.0
C106 C 0.17206 0.58431 0.02243 0.0
C107 C 0.16909 0.56525 0.98419 0.0
C108 C 0.18899 0.56352 0.05553 0.0
C109 C 0.20378 0.52357 0.05079 0.0
C110 C 0.19906 0.50391 0.0132 0.0
C111 C 0.18182 0.52444 0.9803 0.0
C112 C 0.22601 0.50279 0.08421 0.0
C113 C 0.21336 0.46377 0.09631 0.0
C114 C 0.26014 0.52083 0.10336 0.0
C115 C 0.27686 0.56057 0.08977 0.0
C116 C 0.28878 0.56635 0.04898 0.0
C117 C 0.30233 0.6045 0.03578 0.0
C118 C 0.30455 0.63694 0.06322 0.0
C119 C 0.29382 0.63123 0.10402 0.0
C120 C 0.28007 0.59318 0.11735 0.0
C121 C 0.34564 0.4248 0.22347 0.0
C122 C 0.32132 0.41356 0.25694 0.0
C123 C 0.3277 0.43954 0.18775 0.0
C124 C 0.28518 0.44321 0.18484 0.0
C125 C 0.26089 0.43111 0.2179 0.0
C126 C 0.2787 0.41613 0.25338 0.0
C127 C 0.26605 0.4617 0.1483 0.0
C128 C 0.27929 0.50035 0.13557 0.0
C129 C 0.23328 0.44273 0.1277 0.0
C130 C 0.21993 0.40064 0.13756 0.0
C131 C 0.17886 0.39255 0.14665 0.0
C132 C 0.16637 0.35295 0.15616 0.0
C133 C 0.19464 0.32112 0.1565 0.0
C134 C 0.23546 0.32881 0.14721 0.0
C135 C 0.24811 0.36834 0.13765 0.0
H136 H 0.18491 0.29049 0.1639 0.0
H137 H 0.31443 0.66653 0.0528 0.0
H138 H 0.72714 0.86864 0.24344 0.0
H139 H 0.76021 0.89923 0.30298 0.0
H140 H 0.65011 0.96537 0.33065 0.0
H141 H 0.61652 0.93424 0.27187 0.0
H142 H 0.72681 0.01284 0.31652 0.0
H143 H 0.67108 0.90082 0.39405 0.0
H144 H 0.65905 0.82819 0.40902 0.0
H145 H 0.78784 0.80833 0.41965 0.0
H146 H 0.80067 0.88077 0.40412 0.0
H147 H 0.78389 0.11642 0.49547 0.0
H148 H 0.75212 0.07851 0.44015 0.0
H149 H 0.84336 0.9845 0.45121 0.0
H150 H 0.87324 0.02102 0.50908 0.0
H151 H 0.77706 0.94939 0.44396 0.0
H152 H 0.83543 0.05892 0.36759 0.0
H153 H 0.85066 0.1304 0.3501 0.0
H154 H 0.72332 0.15391 0.33215 0.0
H155 H 0.70728 0.08271 0.34991 0.0
C156 C 0.70967 0.88879 0.26294 0.0
C157 C 0.66931 0.89907 0.2531 0.0
C158 C 0.72857 0.90624 0.2968 0.0
C159 C 0.70756 0.93462 0.32087 0.0
C160 C 0.66669 0.94345 0.31232 0.0
C161 C 0.6475 0.92541 0.27895 0.0
C162 C 0.72943 0.95806 0.35235 0.0
C163 C 0.73746 0.99929 0.34471 0.0
C164 C 0.74454 0.93966 0.38807 0.0
C165 C 0.73685 0.89612 0.39747 0.0
C166 C 0.69686 0.88088 0.39916 0.0
C167 C 0.68989 0.83977 0.40784 0.0
C168 C 0.72267 0.81363 0.41516 0.0
C169 C 0.76248 0.82859 0.41391 0.0
C170 C 0.76962 0.86968 0.4052 0.0
C171 C 0.79763 0.0881 0.48541 0.0
C172 C 0.83126 0.07174 0.50591 0.0
C173 C 0.77951 0.06646 0.45369 0.0
C174 C 0.7956 0.02891 0.44073 0.0
C175 C 0.83024 0.01334 0.46049 0.0
C176 C 0.84755 0.03431 0.49322 0.0
C177 C 0.77474 0.00481 0.40849 0.0
C178 C 0.76684 0.96329 0.4158 0.0
C179 C 0.76046 0.02281 0.37191 0.0
C180 C 0.77013 0.06553 0.36049 0.0
C181 C 0.81066 0.07938 0.36012 0.0
C182 C 0.81944 0.11985 0.35011 0.0
C183 C 0.78797 0.1467 0.34011 0.0
C184 C 0.74767 0.13308 0.33988 0.0
C185 C 0.73873 0.09265 0.34987 0.0
H186 H 0.79483 0.17804 0.33246 0.0
H187 H 0.71721 0.78181 0.42189 0.0
H188 H 0.22585 0.63597 0.75545 0.0
H189 H 0.26012 0.60347 0.69748 0.0
H190 H 0.15256 0.53238 0.67372 0.0
H191 H 0.11765 0.56524 0.73078 0.0
H192 H 0.22448 0.4863 0.68573 0.0
H193 H 0.17653 0.60055 0.60759 0.0
H194 H 0.16748 0.6735 0.59207 0.0
H195 H 0.29715 0.68876 0.58477 0.0
H196 H 0.307 0.61597 0.60085 0.0
H197 H 0.28138 0.38356 0.50493 0.0
H198 H 0.25023 0.42155 0.56092 0.0
H199 H 0.34783 0.50934 0.55618 0.0
H200 H 0.37729 0.47302 0.49786 0.0
H201 H 0.28252 0.54826 0.56072 0.0
H202 H 0.33175 0.43368 0.636 0.0
H203 H 0.34165 0.3611 0.65265 0.0
H204 H 0.21273 0.34649 0.66905 0.0
H205 H 0.20197 0.41883 0.65212 0.0
C206 C 0.20909 0.61435 0.73701 0.0
C207 C 0.16905 0.60328 0.74751 0.0
C208 C 0.22871 0.59576 0.70404 0.0
C209 C 0.20875 0.56547 0.6815 0.0
C210 C 0.1682 0.55581 0.69072 0.0
C211 C 0.14827 0.57489 0.72312 0.0
C212 C 0.23117 0.54128 0.65071 0.0
C213 C 0.23687 0.49959 0.65808 0.0
C214 C 0.24837 0.55915 0.61557 0.0
C215 C 0.2425 0.6029 0.60587 0.0
C216 C 0.20313 0.61954 0.60308 0.0
C217 C 0.19785 0.66084 0.59408 0.0
C218 C 0.23172 0.68577 0.58756 0.0
C219 C 0.27095 0.66942 0.5899 0.0
C220 C 0.27639 0.62814 0.59892 0.0
C221 C 0.29671 0.41033 0.51668 0.0
C222 C 0.33202 0.42514 0.49776 0.0
C223 C 0.27892 0.43201 0.54873 0.0
C224 C 0.29689 0.46797 0.56349 0.0
C225 C 0.33327 0.48172 0.54551 0.0
C226 C 0.35036 0.46079 0.51254 0.0
C227 C 0.27614 0.49272 0.59545 0.0
C228 C 0.27062 0.53468 0.58841 0.0
C229 C 0.25949 0.47509 0.63126 0.0
C230 C 0.26602 0.43164 0.64219 0.0
C231 C 0.30547 0.41494 0.64287 0.0
C232 C 0.31124 0.37383 0.65244 0.0
C233 C 0.27783 0.34916 0.66176 0.0
C234 C 0.23859 0.36561 0.6618 0.0
C235 C 0.23265 0.40669 0.65225 0.0
H236 H 0.28237 0.31733 0.66908 0.0
H237 H 0.22758 0.71774 0.58058 0.0
H238 H 0.68043 0.98975 0.04744 0.0
H239 H 0.7104 0.02435 0.98933 0.0
H240 H 0.68855 0.91855 0.9144 0.0
H241 H 0.65969 0.88278 0.97331 0.0
H242 H 0.76186 0.9453 0.90113 0.0
H243 H 0.63072 0.00828 0.90616 0.0
H244 H 0.57275 0.04388 0.93818 0.0
H245 H 0.64986 0.14562 0.96651 0.0
H246 H 0.70844 0.1104 0.93514 0.0
H247 H 0.75864 0.10179 0.72414 0.0
H248 H 0.72667 0.07078 0.78334 0.0
H249 H 0.84492 0.0485 0.836 0.0
H250 H 0.8774 0.07851 0.77586 0.0
H251 H 0.72204 0.08499 0.85946 0.0
H252 H 0.84217 0.95968 0.89138 0.0
H253 H 0.8925 0.9169 0.85529 0.0
H254 H 0.82636 0.93226 0.7436 0.0
H255 H 0.77569 0.97489 0.779 0.0
C256 C 0.6815 0.97379 0.01856 0.0
C257 C 0.66755 0.93337 0.01508 0.0
C258 C 0.69859 0.99381 0.98522 0.0
C259 C 0.70136 0.97432 0.9473 0.0
C260 C 0.68676 0.93423 0.9434 0.0
C261 C 0.67005 0.91389 0.97701 0.0
C262 C 0.72093 0.99537 0.91229 0.0
C263 C 0.75311 0.97584 0.89197 0.0
C264 C 0.70932 0.03508 0.90005 0.0
C265 C 0.67404 0.05654 0.91858 0.0
C266 C 0.63537 0.03814 0.91944 0.0
C267 C 0.6024 0.05826 0.93745 0.0
C268 C 0.60764 0.09694 0.95445 0.0
C269 C 0.64585 0.11564 0.95336 0.0
C270 C 0.67894 0.09563 0.93542 0.0
C271 C 0.77799 0.09073 0.74844 0.0
C272 C 0.82067 0.09232 0.74499 0.0
C273 C 0.75958 0.07299 0.78239 0.0
C274 C 0.78331 0.05655 0.81386 0.0
C275 C 0.82593 0.06014 0.81169 0.0
C276 C 0.84447 0.07773 0.77748 0.0
C277 C 0.76306 0.03493 0.84818 0.0
C278 C 0.73089 0.05449 0.86861 0.0
C279 C 0.77398 0.9948 0.85979 0.0
C280 C 0.8054 0.97085 0.83777 0.0
C281 C 0.83851 0.95405 0.85907 0.0
C282 C 0.86706 0.92977 0.83876 0.0
C283 C 0.86265 0.92183 0.7972 0.0
C284 C 0.8299 0.93851 0.77576 0.0
C285 C 0.80131 0.96285 0.79591 0.0
H286 H 0.88464 0.90275 0.78167 0.0
H287 H 0.58208 0.11246 0.96841 0.0
H288 H 0.96711 0.14669 0.50451 0.0
H289 H 0.02624 0.17545 0.47056 0.0
H290 H 0.08862 0.18391 0.58585 0.0
H291 H 0.02857 0.15647 0.62054 0.0
H292 H 0.09344 0.25301 0.54832 0.0
H293 H 0.11792 0.11524 0.50884 0.0
H294 H 0.10133 0.04763 0.4806 0.0
H295 H 0.0755 0.1018 0.36443 0.0
H296 H 0.09141 0.16984 0.39212 0.0
H297 H 0.28617 0.25711 0.41066 0.0
H298 H 0.22968 0.22072 0.44119 0.0
H299 H 0.15808 0.33108 0.44145 0.0
H300 H 0.21587 0.36858 0.41261 0.0
H301 H 0.15886 0.20103 0.42235 0.0
H302 H 0.09061 0.33045 0.51927 0.0
H303 H 0.11063 0.39341 0.5551 0.0
H304 H 0.23285 0.34826 0.56676 0.0
H305 H 0.21352 0.28514 0.53091 0.0
C306 C 0.99361 0.15397 0.52272 0.0
C307 C 0.99292 0.14959 0.56538 0.0
C308 C 0.02759 0.17026 0.50311 0.0
C309 C 0.062 0.18177 0.52556 0.0
C310 C 0.06231 0.17538 0.56791 0.0
C311 C 0.02808 0.15941 0.58767 0.0
C312 C 0.09607 0.20354 0.50526 0.0
C313 C 0.10794 0.24149 0.5209 0.0
C314 C 0.11501 0.18859 0.4695 0.0
C315 C 0.10554 0.14769 0.45268 0.0
C316 C 0.10842 0.11278 0.47735 0.0
C317 C 0.09919 0.07437 0.46143 0.0
C318 C 0.08729 0.07043 0.42077 0.0
C319 C 0.0847 0.1049 0.39592 0.0
C320 C 0.09387 0.14339 0.41171 0.0
C321 C 0.25839 0.27382 0.41687 0.0
C322 C 0.2558 0.316 0.40954 0.0
C323 C 0.22593 0.2528 0.43435 0.0
C324 C 0.18975 0.27317 0.44448 0.0
C325 C 0.18607 0.31484 0.43499 0.0
C326 C 0.21896 0.33618 0.41804 0.0
C327 C 0.15665 0.25048 0.46561 0.0
C328 C 0.14457 0.2125 0.44989 0.0
C329 C 0.13824 0.2649 0.50194 0.0
C330 C 0.15073 0.30336 0.52198 0.0
C331 C 0.1218 0.33411 0.52931 0.0
C332 C 0.13301 0.3698 0.5496 0.0
C333 C 0.17301 0.37496 0.56297 0.0
C334 C 0.20193 0.34443 0.55606 0.0
C335 C 0.19091 0.30873 0.53563 0.0
H336 H 0.18143 0.4026 0.57878 0.0
H337 H 0.08015 0.04067 0.4085 0.0
H338 H 0.01027 0.72551 0.85331 0.0
H339 H 0.97486 0.78126 0.81857 0.0
H340 H 0.09032 0.82989 0.77875 0.0
H341 H 0.12575 0.77293 0.8123 0.0
H342 H 0.03275 0.88987 0.80792 0.0
H343 H 0.04018 0.77484 0.71507 0.0
H344 H 0.02925 0.70292 0.69623 0.0
H345 H 0.90063 0.71688 0.71554 0.0
H346 H 0.91091 0.78878 0.73511 0.0
H347 H 0.98097 0.01979 0.65053 0.0
H348 H 0.00986 0.96078 0.68478 0.0
H349 H 0.88936 0.91347 0.70652 0.0
H350 H 0.85972 0.97326 0.673 0.0
H351 H 0.94419 0.85279 0.69115 0.0
H352 H 0.93392 0.96756 0.77876 0.0
H353 H 0.9422 0.0388 0.80065 0.0
H354 H 0.07222 0.02588 0.79511 0.0
H355 H 0.06467 0.9545 0.77275 0.0
C356 C 0.028 0.74866 0.83784 0.0
C357 C 0.07054 0.74558 0.83562 0.0
C358 C 0.00783 0.78028 0.81795 0.0
C359 C 0.03003 0.80957 0.79616 0.0
C360 C 0.07276 0.80761 0.79563 0.0
C361 C 0.09293 0.77536 0.81481 0.0
C362 C 0.00856 0.8408 0.77189 0.0
C363 C 0.01377 0.8819 0.78209 0.0
C364 C 0.9826 0.83006 0.73923 0.0
C365 C 0.97636 0.78704 0.72692 0.0
C366 C 0.00961 0.76248 0.71558 0.0
C367 C 0.00353 0.72174 0.70474 0.0
C368 C 0.96428 0.70531 0.70479 0.0
C369 C 0.93102 0.72964 0.71557 0.0
C370 C 0.93695 0.77039 0.72651 0.0
C371 C 0.96044 0.99668 0.66213 0.0
C372 C 0.91795 0.00175 0.65989 0.0
C373 C 0.97708 0.96299 0.68179 0.0
C374 C 0.95163 0.93367 0.69956 0.0
C375 C 0.90938 0.93647 0.69397 0.0
C376 C 0.89255 0.97049 0.67456 0.0
C377 C 0.96929 0.90206 0.72641 0.0
C378 C 0.9631 0.86088 0.71698 0.0
C379 C 0.99395 0.91272 0.76017 0.0
C380 C 0.99868 0.95565 0.77381 0.0
C381 C 0.96427 0.97989 0.782 0.0
C382 C 0.96883 0.02033 0.79451 0.0
C383 C 0.00772 0.0369 0.79918 0.0
C384 C 0.04211 0.013 0.79145 0.0
C385 C 0.03769 0.97251 0.77892 0.0
H386 H 0.01121 0.06824 0.80885 0.0
H387 H 0.95963 0.67376 0.69639 0.0
H388 H 0.20861 0.74906 0.91181 0.0
H389 H 0.26766 0.78434 0.93917 0.0
H390 H 0.33885 0.67434 0.92797 0.0
H391 H 0.27929 0.63827 0.90159 0.0
H392 H 0.3477 0.70411 6e-05 0.0
H393 H 0.3557 0.76012 0.8667 0.0
H394 H 0.33097 0.79423 0.80456 0.0
H395 H 0.30333 0.90184 0.87376 0.0
H396 H 0.32737 0.86817 0.93646 0.0
H397 H 0.53194 0.85064 0.00674 0.0
H398 H 0.474 0.82241 0.97047 0.0
H399 H 0.40943 0.80772 0.08417 0.0
H400 H 0.46826 0.83459 0.1211 0.0
H401 H 0.39935 0.83962 0.95789 0.0
H402 H 0.3499 0.72574 0.08122 0.0
H403 H 0.37699 0.68186 0.13578 0.0
H404 H 0.49499 0.68358 0.07918 0.0
H405 H 0.46817 0.7264 0.02354 0.0
C406 C 0.23696 0.7324 0.91454 0.0
C407 C 0.23909 0.69067 0.90475 0.0
C408 C 0.27085 0.75279 0.93 0.0
C409 C 0.30783 0.73213 0.93546 0.0
C410 C 0.31059 0.69092 0.92406 0.0
C411 C 0.27657 0.67037 0.90878 0.0
C412 C 0.34238 0.75257 0.95629 0.0
C413 C 0.35891 0.73378 0.99085 0.0
C414 C 0.35744 0.79108 0.94401 0.0
C415 C 0.34302 0.81148 0.90635 0.0
C416 C 0.34405 0.79095 0.86873 0.0
C417 C 0.33021 0.81022 0.8334 0.0
C418 C 0.3155 0.85014 0.83523 0.0
C419 C 0.3147 0.8709 0.8724 0.0
C420 C 0.32847 0.85175 0.90784 0.0
C421 C 0.50532 0.84181 0.02416 0.0
C422 C 0.50503 0.84443 0.06696 0.0
C423 C 0.47208 0.82571 0.00326 0.0
C424 C 0.43761 0.81209 0.02456 0.0
C425 C 0.43609 0.81706 0.0671 0.0
C426 C 0.46961 0.83284 0.08817 0.0
C427 C 0.40427 0.79129 0.0021 0.0
C428 C 0.38788 0.81008 0.9673 0.0
C429 C 0.38975 0.75238 0.0137 0.0
C430 C 0.40703 0.72924 0.04833 0.0
C431 C 0.38162 0.71668 0.08044 0.0
C432 C 0.39688 0.69196 0.11148 0.0
C433 C 0.43768 0.67998 0.11098 0.0
C434 C 0.4634 0.69296 0.07958 0.0
C435 C 0.44816 0.7174 0.04822 0.0
H436 H 0.44921 0.66042 0.13484 0.0
H437 H 0.3048 0.86501 0.80784 0.0
H438 H 0.40905 0.22356 0.37029 0.0
H439 H 0.43926 0.16457 0.33569 0.0
H440 H 0.46173 0.23837 0.22918 0.0
H441 H 0.43014 0.29633 0.26245 0.0
H442 H 0.44081 0.16821 0.20499 0.0
H443 H 0.53661 0.21767 0.30328 0.0
H444 H 0.55621 0.23878 0.37269 0.0
H445 H 0.53503 0.11728 0.41631 0.0
H446 H 0.51455 0.0956 0.3473 0.0
H447 H 0.63048 0.02243 0.18137 0.0
H448 H 0.59869 0.0841 0.20916 0.0
H449 H 0.47982 0.03218 0.18851 0.0
H450 H 0.51099 0.97148 0.15976 0.0
H451 H 0.55293 0.09449 0.27434 0.0
H452 H 0.41062 0.10346 0.16888 0.0
H453 H 0.39263 0.08931 0.09732 0.0
H454 H 0.51752 0.10525 0.06178 0.0
H455 H 0.53616 0.12005 0.13299 0.0
C456 C 0.41993 0.22698 0.33931 0.0
C457 C 0.41742 0.26478 0.31935 0.0
C458 C 0.43745 0.19333 0.31963 0.0
C459 C 0.45361 0.1972 0.28006 0.0
C460 C 0.44963 0.2345 0.25967 0.0
C461 C 0.43158 0.26777 0.27893 0.0
C462 C 0.47603 0.16319 0.26009 0.0
C463 C 0.46524 0.15205 0.22023 0.0
C464 C 0.50885 0.14288 0.27936 0.0
C465 C 0.5236 0.15515 0.32025 0.0
C466 C 0.53613 0.19547 0.32769 0.0
C467 C 0.54731 0.20755 0.36694 0.0
C468 C 0.54653 0.17944 0.39886 0.0
C469 C 0.53537 0.13903 0.39152 0.0
C470 C 0.52399 0.12682 0.35236 0.0
C471 C 0.59757 0.0245 0.18207 0.0
C472 C 0.57334 0.99199 0.16822 0.0
C473 C 0.57945 0.05962 0.19827 0.0
C474 C 0.53685 0.06291 0.20073 0.0
C475 C 0.51271 0.03074 0.18633 0.0
C476 C 0.53069 0.99589 0.16997 0.0
C477 C 0.51727 0.09922 0.21946 0.0
C478 C 0.52857 0.11074 0.25907 0.0
C479 C 0.48586 0.12089 0.19942 0.0
C480 C 0.47481 0.1125 0.15637 0.0
C481 C 0.4342 0.10413 0.14577 0.0
C482 C 0.42391 0.09596 0.10527 0.0
C483 C 0.45393 0.09626 0.07505 0.0
C484 C 0.49431 0.10488 0.08524 0.0
C485 C 0.50477 0.11311 0.12568 0.0
H486 H 0.4459 0.0899 0.04372 0.0
H487 H 0.55434 0.18902 0.42933 0.0
H488 H 0.71685 0.1345 0.58933 0.0
H489 H 0.65862 0.17158 0.56108 0.0
H490 H 0.73064 0.28148 0.55638 0.0
H491 H 0.78775 0.24553 0.58623 0.0
H492 H 0.6592 0.30166 0.57644 0.0
H493 H 0.71298 0.21756 0.46531 0.0
H494 H 0.73287 0.15353 0.4311 0.0
H495 H 0.61401 0.10381 0.45397 0.0
H496 H 0.59377 0.16735 0.48882 0.0
H497 H 0.52759 0.34275 0.37905 0.0
H498 H 0.58787 0.31541 0.41331 0.0
H499 H 0.52583 0.32366 0.52904 0.0
H500 H 0.46633 0.35199 0.49545 0.0
H501 H 0.59432 0.24655 0.45181 0.0
H502 H 0.59157 0.33289 0.60658 0.0
H503 H 0.575 0.40137 0.63284 0.0
H504 H 0.59941 0.4531 0.51517 0.0
H505 H 0.61667 0.38505 0.48834 0.0
C506 C 0.71999 0.16672 0.58293 0.0
C507 C 0.75714 0.18687 0.58972 0.0
C508 C 0.68683 0.18781 0.56632 0.0
C509 C 0.69051 0.22916 0.55558 0.0
C510 C 0.72696 0.24961 0.56418 0.0
C511 C 0.75975 0.22884 0.58124 0.0
C512 C 0.65719 0.25124 0.53435 0.0
C513 C 0.64487 0.28946 0.54931 0.0
C514 C 0.63895 0.23593 0.49845 0.0
C515 C 0.65185 0.19712 0.47944 0.0
C516 C 0.69125 0.19282 0.46325 0.0
C517 C 0.70256 0.15664 0.44374 0.0
C518 C 0.67465 0.12465 0.44026 0.0
C519 C 0.63555 0.12863 0.4566 0.0
C520 C 0.62415 0.16469 0.47618 0.0
C521 C 0.52719 0.33971 0.41191 0.0
C522 C 0.49207 0.34946 0.43446 0.0
C523 C 0.56155 0.3238 0.43142 0.0
C524 C 0.56147 0.31758 0.4738 0.0
C525 C 0.52698 0.32875 0.49646 0.0
C526 C 0.49281 0.3448 0.47708 0.0
C527 C 0.59606 0.29669 0.49408 0.0
C528 C 0.6085 0.25865 0.47904 0.0
C529 C 0.61494 0.31261 0.5294 0.0
C530 C 0.60505 0.35377 0.54538 0.0
C531 C 0.59357 0.3589 0.58635 0.0
C532 C 0.58403 0.39764 0.60133 0.0
C533 C 0.58603 0.43154 0.57566 0.0
C534 C 0.59772 0.42679 0.53498 0.0
C535 C 0.60733 0.38813 0.51986 0.0
H536 H 0.5786 0.4615 0.58731 0.0
H537 H 0.68319 0.09676 0.42489 0.0
H538 H 0.13668 0.48708 0.80039 0.0
H539 H 0.10715 0.42617 0.76897 0.0
H540 H 0.99083 0.45457 0.82327 0.0
H541 H 0.02004 0.51521 0.8549 0.0
H542 H 0.00902 0.37285 0.82739 0.0
H543 H 0.01236 0.48126 0.72541 0.0
H544 H 0.04465 0.5316 0.67983 0.0
H545 H 0.11788 0.43727 0.62618 0.0
H546 H 0.08636 0.38644 0.67174 0.0
H547 H 0.87339 0.25244 0.71414 0.0
H548 H 0.90817 0.30987 0.74681 0.0
H549 H 0.01141 0.29227 0.66681 0.0
H550 H 0.97504 0.2374 0.63212 0.0
H551 H 0.00505 0.36619 0.6765 0.0
H552 H 0.00502 0.25707 0.77262 0.0
H553 H 0.97556 0.2029 0.81559 0.0
H554 H 0.90467 0.29184 0.88043 0.0
H555 H 0.93331 0.3465 0.83749 0.0
C556 C 0.10501 0.47992 0.80628 0.0
C557 C 0.08062 0.50605 0.83002 0.0
C558 C 0.08813 0.44531 0.78802 0.0
C559 C 0.04667 0.43624 0.79333 0.0
C560 C 0.02284 0.46113 0.81866 0.0
C561 C 0.03958 0.49579 0.83667 0.0
C562 C 0.02737 0.40179 0.77148 0.0
C563 C 0.0079 0.3714 0.79438 0.0
C564 C 0.02722 0.39921 0.72845 0.0
C565 C 0.04721 0.43012 0.70221 0.0
C566 C 0.03565 0.47133 0.70421 0.0
C567 C 0.05369 0.49991 0.67825 0.0
C568 C 0.08306 0.48757 0.64995 0.0
C569 C 0.09493 0.44673 0.64794 0.0
C570 C 0.07701 0.41805 0.67383 0.0
C571 C 0.90316 0.26162 0.7032 0.0
C572 C 0.92152 0.2411 0.67056 0.0
C573 C 0.92334 0.29394 0.7222 0.0
C574 C 0.96308 0.30482 0.71019 0.0
C575 C 0.9809 0.28465 0.67682 0.0
C576 C 0.96012 0.25336 0.65692 0.0
C577 C 0.98621 0.33699 0.73231 0.0
C578 C 0.00644 0.36706 0.70951 0.0
C579 C 0.98808 0.33859 0.77545 0.0
C580 C 0.97107 0.30583 0.8016 0.0
C581 C 0.98299 0.26504 0.7959 0.0
C582 C 0.96645 0.23425 0.82026 0.0
C583 C 0.9382 0.24391 0.85066 0.0
C584 C 0.92653 0.2844 0.85685 0.0
C585 C 0.94294 0.3153 0.83254 0.0
H586 H 0.9254 0.22003 0.86947 0.0
H587 H 0.09664 0.50966 0.62957 0.0
H588 H 0.96838 0.66422 0.88336 0.0
H589 H 0.91269 0.69645 0.92112 0.0
H590 H 0.97732 0.67674 0.03374 0.0
H591 H 0.03229 0.64364 0.99659 0.0
H592 H 0.90201 0.66523 0.04707 0.0
H593 H 0.97905 0.769 0.98176 0.0
H594 H 0.01151 0.80928 0.92725 0.0
H595 H 0.89483 0.83057 0.8725 0.0
H596 H 0.86169 0.78961 0.92615 0.0
H597 H 0.78105 0.86779 0.1004 0.0
H598 H 0.84222 0.83308 0.07503 0.0
H599 H 0.77351 0.72184 0.06147 0.0
H600 H 0.71338 0.7554 0.08811 0.0
H601 H 0.8567 0.80281 0.00406 0.0
H602 H 0.83028 0.63903 0.0682 0.0
H603 H 0.80393 0.6067 0.13073 0.0
H604 H 0.83171 0.71469 0.19914 0.0
H605 H 0.85874 0.74747 0.13717 0.0
C606 C 0.97034 0.66598 0.91624 0.0
C607 C 0.00507 0.65173 0.93686 0.0
C608 C 0.93868 0.68485 0.93776 0.0
C609 C 0.94129 0.69 0.98019 0.0
C610 C 0.9747 0.67346 0.00101 0.0
C611 C 0.00616 0.65445 0.97963 0.0
C612 C 0.90983 0.71329 0.00302 0.0
C613 C 0.8921 0.69529 0.03758 0.0
C614 C 0.89777 0.75314 0.99151 0.0
C615 C 0.91789 0.77588 0.95787 0.0
C616 C 0.96034 0.78173 0.95779 0.0
C617 C 0.97885 0.80484 0.92712 0.0
C618 C 0.9552 0.82266 0.8966 0.0
C619 C 0.91307 0.81686 0.89627 0.0
C620 C 0.89442 0.79364 0.92675 0.0
C621 C 0.77929 0.83571 0.09285 0.0
C622 C 0.74225 0.81448 0.09627 0.0
C623 C 0.81418 0.81597 0.07811 0.0
C624 C 0.81262 0.77471 0.06657 0.0
C625 C 0.77589 0.75337 0.07093 0.0
C626 C 0.74131 0.77283 0.086 0.0
C627 C 0.8483 0.75433 0.04745 0.0
C628 C 0.86675 0.7728 0.01355 0.0
C629 C 0.86203 0.71551 0.06033 0.0
C630 C 0.84625 0.69582 0.09791 0.0
C631 C 0.83097 0.65581 0.09662 0.0
C632 C 0.81586 0.63742 0.13197 0.0
C633 C 0.81605 0.65867 0.16886 0.0
C634 C 0.83145 0.69831 0.17052 0.0
C635 C 0.84662 0.71683 0.13527 0.0
H636 H 0.80431 0.64438 0.19618 0.0
H637 H 0.96951 0.84099 0.8732 0.0
H638 H 0.54751 0.73292 0.12023 0.0
H639 H 0.51696 0.67428 0.15529 0.0
H640 H 0.58873 0.69981 0.2619 0.0
H641 H 0.61907 0.75871 0.22747 0.0
H642 H 0.57311 0.60838 0.23237 0.0
H643 H 0.51195 0.73963 0.26986 0.0
H644 H 0.48063 0.8052 0.25102 0.0
H645 H 0.38416 0.74205 0.18957 0.0
H646 H 0.41559 0.67599 0.20715 0.0
H647 H 0.47105 0.49884 0.38256 0.0
H648 H 0.50573 0.5558 0.34925 0.0
H649 H 0.40287 0.57154 0.26906 0.0
H650 H 0.36732 0.51605 0.30379 0.0
H651 H 0.43417 0.6419 0.28224 0.0
H652 H 0.48843 0.51333 0.24213 0.0
H653 H 0.51812 0.445 0.25186 0.0
H654 H 0.62325 0.49813 0.30847 0.0
H655 H 0.59389 0.56679 0.29963 0.0
C656 C 0.55763 0.72527 0.15068 0.0
C657 C 0.58539 0.75035 0.17135 0.0
C658 C 0.53992 0.69209 0.17068 0.0
C659 C 0.55015 0.68341 0.21121 0.0
C660 C 0.58046 0.70624 0.23061 0.0
C661 C 0.59763 0.73982 0.21098 0.0
C662 C 0.52601 0.6538 0.23491 0.0
C663 C 0.54292 0.61569 0.24373 0.0
C664 C 0.48618 0.6632 0.2484 0.0
C665 C 0.46664 0.70288 0.23901 0.0
C666 C 0.48442 0.7397 0.25179 0.0
C667 C 0.46659 0.77696 0.24142 0.0
C668 C 0.4306 0.77779 0.2188 0.0
C669 C 0.4122 0.74134 0.20682 0.0
C670 C 0.43003 0.70399 0.21696 0.0
C671 C 0.45545 0.51534 0.35863 0.0
C672 C 0.41663 0.5031 0.34566 0.0
C673 C 0.47541 0.54754 0.3393 0.0
C674 C 0.45748 0.56709 0.30572 0.0
C675 C 0.41748 0.55677 0.29467 0.0
C676 C 0.39709 0.52517 0.31467 0.0
C677 C 0.48137 0.59619 0.28053 0.0
C678 C 0.46438 0.63431 0.27114 0.0
C679 C 0.52078 0.58636 0.2656 0.0
C680 C 0.53878 0.54517 0.27057 0.0
C681 C 0.51778 0.51042 0.25688 0.0
C682 C 0.53454 0.47164 0.26222 0.0
C683 C 0.5725 0.46722 0.28086 0.0
C684 C 0.59382 0.5016 0.29409 0.0
C685 C 0.57714 0.54046 0.2889 0.0
H686 H 0.58543 0.43716 0.28499 0.0
H687 H 0.41685 0.80666 0.21077 0.0
loop_
_geom_bond_atom_site_label_1
_geom_bond_atom_site_label_2
_geom_bond_distance
_geom_bond_site_symmetry_2
_ccdc_geom_bond_type
Fe0 O2 1.918 . S
Fe0 O5 1.997 . S
Fe0 O6 2.002 . S
Fe0 O11 1.976 . S
Fe0 O14 1.996 . S
Fe1 O2 1.918 . S
Fe1 O9 1.997 . S
Fe1 O12 1.996 . S
Fe1 O16 1.976 . S
Fe1 O19 2.002 . S
O2 Fe0 1.918 . S
O2 Fe1 1.918 . S
O2 Fe3 1.918 . S
Fe3 O2 1.918 . S
Fe3 O4 2.002 . S
Fe3 O13 1.976 . S
Fe3 O17 1.996 . S
Fe3 O20 1.997 . S
O4 Fe3 2.002 . S
O4 C21 1.295 . S
O5 Fe0 1.997 . S
O5 C21 1.235 . S
O6 Fe0 2.002 . S
O6 C7 1.295 . S
C7 O6 1.295 . S
C7 O9 1.235 . S
C8 O13 1.287 . S
C8 O14 1.255 . S
O9 Fe1 1.997 . S
O9 C7 1.235 . S
C10 O16 1.287 . S
C10 O17 1.255 . S
O11 Fe0 1.976 . S
O11 C18 1.287 . S
O12 Fe1 1.996 . S
O12 C18 1.255 . S
O13 Fe3 1.976 . S
O13 C8 1.287 . S
O14 Fe0 1.996 . S
O14 C8 1.255 . S
C15 O19 1.295 . S
C15 O20 1.235 . S
O16 Fe1 1.976 . S
O16 C10 1.287 . S
O17 Fe3 1.996 . S
O17 C10 1.255 . S
C18 O11 1.287 . S
C18 O12 1.255 . S
O19 Fe1 2.002 . S
O19 C15 1.295 . S
O20 Fe3 1.997 . S
O20 C15 1.235 . S
C21 O4 1.295 . S
C21 O5 1.235 . S
Fe22 O24 1.918 . S
Fe22 O27 1.997 . S
Fe22 O28 2.002 . S
Fe22 O33 1.976 . S
Fe22 O36 1.996 . S
Fe23 O24 1.918 . S
Fe23 O31 1.997 . S
Fe23 O34 1.996 . S
Fe23 O38 1.976 . S
Fe23 O41 2.002 . S
O24 Fe22 1.918 . S
O24 Fe23 1.918 . S
O24 Fe25 1.918 . S
Fe25 O24 1.918 . S
Fe25 O26 2.002 . S
Fe25 O35 1.976 . S
Fe25 O39 1.996 . S
Fe25 O42 1.997 . S
O26 Fe25 2.002 . S
O26 C43 1.295 . S
O27 Fe22 1.997 . S
O27 C43 1.235 . S
O28 Fe22 2.002 . S
O28 C29 1.295 . S
C29 O28 1.295 . S
C29 O31 1.235 . S
C30 O35 1.287 . S
C30 O36 1.255 . S
O31 Fe23 1.997 . S
O31 C29 1.235 . S
C32 O38 1.287 . S
C32 O39 1.255 . S
O33 Fe22 1.976 . S
O33 C40 1.287 . S
O34 Fe23 1.996 . S
O34 C40 1.255 . S
O35 Fe25 1.976 . S
O35 C30 1.287 . S
O36 Fe22 1.996 . S
O36 C30 1.255 . S
C37 O41 1.295 . S
C37 O42 1.235 . S
O38 Fe23 1.976 . S
O38 C32 1.287 . S
O39 Fe25 1.996 . S
O39 C32 1.255 . S
C40 O33 1.287 . S
C40 O34 1.255 . S
O41 Fe23 2.002 . S
O41 C37 1.295 . S
O42 Fe25 1.997 . S
O42 C37 1.235 . S
C43 O26 1.295 . S
C43 O27 1.235 . S
Fe44 O46 1.918 . S
Fe44 O49 1.997 . S
Fe44 O50 2.002 . S
Fe44 O55 1.976 . S
Fe44 O58 1.996 . S
Fe45 O46 1.918 . S
Fe45 O53 1.997 . S
Fe45 O56 1.996 . S
Fe45 O60 1.976 . S
Fe45 O63 2.002 . S
O46 Fe44 1.918 . S
O46 Fe45 1.918 . S
O46 Fe47 1.918 . S
Fe47 O46 1.918 . S
Fe47 O48 2.002 . S
Fe47 O57 1.976 . S
Fe47 O61 1.996 . S
Fe47 O64 1.997 . S
O48 Fe47 2.002 . S
O48 C65 1.295 . S
O49 Fe44 1.997 . S
O49 C65 1.235 . S
O50 Fe44 2.002 . S
O50 C51 1.295 . S
C51 O50 1.295 . S
C51 O53 1.235 . S
C52 O57 1.287 . S
C52 O58 1.255 . S
O53 Fe45 1.997 . S
O53 C51 1.235 . S
C54 O60 1.287 . S
C54 O61 1.255 . S
O55 Fe44 1.976 . S
O55 C62 1.287 . S
O56 Fe45 1.996 . S
O56 C62 1.255 . S
O57 Fe47 1.976 . S
O57 C52 1.287 . S
O58 Fe44 1.996 . S
O58 C52 1.255 . S
C59 O63 1.295 . S
C59 O64 1.235 . S
O60 Fe45 1.976 . S
O60 C54 1.287 . S
O61 Fe47 1.996 . S
O61 C54 1.255 . S
C62 O55 1.287 . S
C62 O56 1.255 . S
O63 Fe45 2.002 . S
O63 C59 1.295 . S
O64 Fe47 1.997 . S
O64 C59 1.235 . S
C65 O48 1.295 . S
C65 O49 1.235 . S
Fe66 O68 1.918 . S
Fe66 O71 1.997 . S
Fe66 O72 2.002 . S
Fe66 O77 1.976 . S
Fe66 O80 1.996 . S
Fe67 O68 1.918 . S
Fe67 O75 1.997 . S
Fe67 O78 1.996 . S
Fe67 O82 1.976 . S
Fe67 O85 2.002 . S
O68 Fe66 1.918 . S
O68 Fe67 1.918 . S
O68 Fe69 1.918 . S
Fe69 O68 1.918 . S
Fe69 O70 2.002 . S
Fe69 O79 1.976 . S
Fe69 O83 1.996 . S
Fe69 O86 1.997 . S
O70 Fe69 2.002 . S
O70 C87 1.295 . S
O71 Fe66 1.997 . S
O71 C87 1.235 . S
O72 Fe66 2.002 . S
O72 C73 1.295 . S
C73 O72 1.295 . S
C73 O75 1.235 . S
C74 O79 1.287 . S
C74 O80 1.255 . S
O75 Fe67 1.997 . S
O75 C73 1.235 . S
C76 O82 1.287 . S
C76 O83 1.255 . S
O77 Fe66 1.976 . S
O77 C84 1.287 . S
O78 Fe67 1.996 . S
O78 C84 1.255 . S
O79 Fe69 1.976 . S
O79 C74 1.287 . S
O80 Fe66 1.996 . S
O80 C74 1.255 . S
C81 O85 1.295 . S
C81 O86 1.235 . S
O82 Fe67 1.976 . S
O82 C76 1.287 . S
O83 Fe69 1.996 . S
O83 C76 1.255 . S
C84 O77 1.287 . S
C84 O78 1.255 . S
O85 Fe67 2.002 . S
O85 C81 1.295 . S
O86 Fe69 1.997 . S
O86 C81 1.235 . S
C87 O70 1.295 . S
C87 O71 1.235 . S
H88 C106 0.951 . S
H89 C108 0.951 . S
H90 C110 0.950 . S
H91 C111 0.950 . S
H92 C113 0.950 . S
H93 C116 0.950 . S
H94 C117 0.950 . S
H95 C119 0.950 . S
H96 C120 0.950 . S
H97 C121 0.951 . S
H98 C123 0.951 . S
H99 C125 0.950 . S
H100 C126 0.950 . S
H101 C128 0.950 . S
H102 C131 0.950 . S
H103 C132 0.950 . S
H104 C134 0.950 . S
H105 C135 0.950 . S
C106 H88 0.951 . S
C106 C107 1.366 1_554 S
C106 C108 1.388 . S
C107 C106 1.366 1_556 S
C107 C111 1.385 . S
C108 H89 0.951 . S
C108 C106 1.388 . S
C108 C109 1.366 . S
C109 C108 1.366 . S
C109 C110 1.414 . S
C109 C112 1.499 . S
C110 H90 0.950 . S
C110 C109 1.414 . S
C110 C111 1.374 1_554 S
C111 H91 0.950 . S
C111 C107 1.385 . S
C111 C110 1.374 1_556 S
C112 C109 1.499 . S
C112 C113 1.373 . S
C112 C114 1.389 . S
C113 H92 0.950 . S
C113 C112 1.373 . S
C113 C129 1.377 . S
C114 C112 1.389 . S
C114 C115 1.524 . S
C114 C128 1.377 . S
C115 C114 1.524 . S
C115 C116 1.397 . S
C115 C120 1.363 . S
C116 H93 0.950 . S
C116 C115 1.397 . S
C116 C117 1.334 . S
C117 H94 0.950 . S
C117 C116 1.334 . S
C117 C118 1.287 . S
C118 C117 1.287 . S
C118 C119 1.524 . S
C118 H137 0.913 . S
C119 H95 0.950 . S
C119 C118 1.524 . S
C119 C120 1.415 . S
C120 H96 0.950 . S
C120 C115 1.363 . S
C120 C119 1.415 . S
C121 H97 0.951 . S
C121 C122 1.366 . S
C121 C123 1.388 . S
C122 C121 1.366 . S
C122 C126 1.385 . S
C123 H98 0.951 . S
C123 C121 1.388 . S
C123 C124 1.366 . S
C124 C123 1.366 . S
C124 C125 1.414 . S
C124 C127 1.499 . S
C125 H99 0.950 . S
C125 C124 1.414 . S
C125 C126 1.374 . S
C126 H100 0.950 . S
C126 C122 1.385 . S
C126 C125 1.374 . S
C127 C124 1.499 . S
C127 C128 1.373 . S
C127 C129 1.389 . S
C128 H101 0.950 . S
C128 C114 1.377 . S
C128 C127 1.373 . S
C129 C113 1.377 . S
C129 C127 1.389 . S
C129 C130 1.524 . S
C130 C129 1.524 . S
C130 C131 1.397 . S
C130 C135 1.363 . S
C131 H102 0.950 . S
C131 C130 1.397 . S
C131 C132 1.334 . S
C132 H103 0.950 . S
C132 C131 1.334 . S
C132 C133 1.287 . S
C133 C132 1.287 . S
C133 C134 1.524 . S
C133 H136 0.999 . S
C134 H104 0.950 . S
C134 C133 1.524 . S
C134 C135 1.415 . S
C135 H105 0.950 . S
C135 C130 1.363 . S
C135 C134 1.415 . S
H136 C133 0.999 . S
H137 C118 0.913 . S
H138 C156 0.951 . S
H139 C158 0.951 . S
H140 C160 0.950 . S
H141 C161 0.950 . S
H142 C163 0.950 . S
H143 C166 0.950 . S
H144 C167 0.950 . S
H145 C169 0.950 . S
H146 C170 0.950 . S
H147 C171 0.951 . S
H148 C173 0.951 . S
H149 C175 0.950 1_565 S
H150 C176 0.950 . S
H151 C178 0.950 . S
H152 C181 0.950 . S
H153 C182 0.950 . S
H154 C184 0.950 . S
H155 C185 0.950 . S
C156 H138 0.951 . S
C156 C157 1.366 . S
C156 C158 1.388 . S
C157 C156 1.366 . S
C157 C161 1.385 . S
C158 H139 0.951 . S
C158 C156 1.388 . S
C158 C159 1.366 . S
C159 C158 1.366 . S
C159 C160 1.414 . S
C159 C162 1.499 . S
C160 H140 0.950 . S
C160 C159 1.414 . S
C160 C161 1.374 . S
C161 H141 0.950 . S
C161 C157 1.385 . S
C161 C160 1.374 . S
C162 C159 1.499 . S
C162 C163 1.373 1_565 S
C162 C164 1.389 . S
C163 H142 0.950 . S
C163 C162 1.373 1_545 S
C163 C179 1.377 . S
C164 C162 1.389 . S
C164 C165 1.524 . S
C164 C178 1.377 . S
C165 C164 1.524 . S
C165 C166 1.397 . S
C165 C170 1.363 . S
C166 H143 0.950 . S
C166 C165 1.397 . S
C166 C167 1.334 . S
C167 H144 0.950 . S
C167 C166 1.334 . S
C167 C168 1.287 . S
C168 C167 1.287 . S
C168 C169 1.524 . S
C168 H187 0.913 . S
C169 H145 0.950 . S
C169 C168 1.524 . S
C169 C170 1.415 . S
C170 H146 0.950 . S
C170 C165 1.363 . S
C170 C169 1.415 . S
C171 H147 0.951 . S
C171 C172 1.366 . S
C171 C173 1.388 . S
C172 C171 1.366 . S
C172 C176 1.385 . S
C173 H148 0.951 . S
C173 C171 1.388 . S
C173 C174 1.366 . S
C174 C173 1.366 . S
C174 C175 1.414 . S
C174 C177 1.499 . S
C175 H149 0.950 1_545 S
C175 C174 1.414 . S
C175 C176 1.374 . S
C176 H150 0.950 . S
C176 C172 1.385 . S
C176 C175 1.374 . S
C177 C174 1.499 . S
C177 C178 1.373 1_545 S
C177 C179 1.389 . S
C178 H151 0.950 . S
C178 C164 1.377 . S
C178 C177 1.373 1_565 S
C179 C163 1.377 . S
C179 C177 1.389 . S
C179 C180 1.524 . S
C180 C179 1.524 . S
C180 C181 1.397 . S
C180 C185 1.363 . S
C181 H152 0.950 . S
C181 C180 1.397 . S
C181 C182 1.334 . S
C182 H153 0.950 . S
C182 C181 1.334 . S
C182 C183 1.287 . S
C183 C182 1.287 . S
C183 C184 1.524 . S
C183 H186 0.999 . S
C184 H154 0.950 . S
C184 C183 1.524 . S
C184 C185 1.415 . S
C185 H155 0.950 . S
C185 C180 1.363 . S
C185 C184 1.415 . S
H186 C183 0.999 . S
H187 C168 0.913 . S
H188 C206 0.951 . S
H189 C208 0.951 . S
H190 C210 0.950 . S
H191 C211 0.950 . S
H192 C213 0.950 . S
H193 C216 0.950 . S
H194 C217 0.950 . S
H195 C219 0.950 . S
H196 C220 0.950 . S
H197 C221 0.951 . S
H198 C223 0.951 . S
H199 C225 0.950 . S
H200 C226 0.950 . S
H201 C228 0.950 . S
H202 C231 0.950 . S
H203 C232 0.950 . S
H204 C234 0.950 . S
H205 C235 0.950 . S
C206 H188 0.951 . S
C206 C207 1.366 . S
C206 C208 1.388 . S
C207 C206 1.366 . S
C207 C211 1.385 . S
C208 H189 0.951 . S
C208 C206 1.388 . S
C208 C209 1.366 . S
C209 C208 1.366 . S
C209 C210 1.414 . S
C209 C212 1.499 . S
C210 H190 0.950 . S
C210 C209 1.414 . S
C210 C211 1.374 . S
C211 H191 0.950 . S
C211 C207 1.385 . S
C211 C210 1.374 . S
C212 C209 1.499 . S
C212 C213 1.373 . S
C212 C214 1.389 . S
C213 H192 0.950 . S
C213 C212 1.373 . S
C213 C229 1.377 . S
C214 C212 1.389 . S
C214 C215 1.524 . S
C214 C228 1.377 . S
C215 C214 1.524 . S
C215 C216 1.397 . S
C215 C220 1.363 . S
C216 H193 0.950 . S
C216 C215 1.397 . S
C216 C217 1.334 . S
C217 H194 0.950 . S
C217 C216 1.334 . S
C217 C218 1.287 . S
C218 C217 1.287 . S
C218 C219 1.524 . S
C218 H237 0.913 . S
C219 H195 0.950 . S
C219 C218 1.524 . S
C219 C220 1.415 . S
C220 H196 0.950 . S
C220 C215 1.363 . S
C220 C219 1.415 . S
C221 H197 0.951 . S
C221 C222 1.366 . S
C221 C223 1.388 . S
C222 C221 1.366 . S
C222 C226 1.385 . S
C223 H198 0.951 . S
C223 C221 1.388 . S
C223 C224 1.366 . S
C224 C223 1.366 . S
C224 C225 1.414 . S
C224 C227 1.499 . S
C225 H199 0.950 . S
C225 C224 1.414 . S
C225 C226 1.374 . S
C226 H200 0.950 . S
C226 C222 1.385 . S
C226 C225 1.374 . S
C227 C224 1.499 . S
C227 C228 1.373 . S
C227 C229 1.389 . S
C228 H201 0.950 . S
C228 C214 1.377 . S
C228 C227 1.373 . S
C229 C213 1.377 . S
C229 C227 1.389 . S
C229 C230 1.524 . S
C230 C229 1.524 . S
C230 C231 1.397 . S
C230 C235 1.363 . S
C231 H202 0.950 . S
C231 C230 1.397 . S
C231 C232 1.334 . S
C232 H203 0.950 . S
C232 C231 1.334 . S
C232 C233 1.287 . S
C233 C232 1.287 . S
C233 C234 1.524 . S
C233 H236 0.999 . S
C234 H204 0.950 . S
C234 C233 1.524 . S
C234 C235 1.415 . S
C235 H205 0.950 . S
C235 C230 1.363 . S
C235 C234 1.415 . S
H236 C233 0.999 . S
H237 C218 0.913 . S
H238 C256 0.951 . S
H239 C258 0.951 . S
H240 C260 0.950 . S
H241 C261 0.950 . S
H242 C263 0.950 . S
H243 C266 0.950 . S
H244 C267 0.951 . S
H245 C269 0.950 . S
H246 C270 0.950 . S
H247 C271 0.951 . S
H248 C273 0.951 . S
H249 C275 0.950 . S
H250 C276 0.950 . S
H251 C278 0.950 . S
H252 C281 0.950 . S
H253 C282 0.950 . S
H254 C284 0.950 . S
H255 C285 0.950 . S
C256 H238 0.951 . S
C256 C257 1.366 . S
C256 C258 1.388 1_554 S
C257 C256 1.366 . S
C257 C261 1.385 1_554 S
C258 H239 0.951 . S
C258 C256 1.388 1_556 S
C258 C259 1.366 . S
C259 C258 1.366 . S
C259 C260 1.414 . S
C259 C262 1.499 . S
C260 H240 0.950 . S
C260 C259 1.414 . S
C260 C261 1.374 . S
C261 H241 0.950 . S
C261 C257 1.385 1_556 S
C261 C260 1.374 . S
C262 C259 1.499 . S
C262 C263 1.373 . S
C262 C264 1.389 1_565 S
C263 H242 0.950 . S
C263 C262 1.373 . S
C263 C279 1.377 . S
C264 C262 1.389 1_545 S
C264 C265 1.524 . S
C264 C278 1.377 . S
C265 C264 1.524 . S
C265 C266 1.397 . S
C265 C270 1.363 . S
C266 H243 0.950 . S
C266 C265 1.397 . S
C266 C267 1.334 . S
C267 H244 0.951 . S
C267 C266 1.334 . S
C267 C268 1.287 1_556 S
C268 C267 1.287 1_554 S
C268 C269 1.524 . S
C268 H287 0.913 . S
C269 H245 0.950 . S
C269 C268 1.524 . S
C269 C270 1.415 1_554 S
C270 H246 0.950 . S
C270 C265 1.363 . S
C270 C269 1.415 1_556 S
C271 H247 0.951 . S
C271 C272 1.366 . S
C271 C273 1.388 . S
C272 C271 1.366 . S
C272 C276 1.385 . S
C273 H248 0.951 . S
C273 C271 1.388 . S
C273 C274 1.366 . S
C274 C273 1.366 . S
C274 C275 1.414 . S
C274 C277 1.499 . S
C275 H249 0.950 . S
C275 C274 1.414 . S
C275 C276 1.374 . S
C276 H250 0.950 . S
C276 C272 1.385 . S
C276 C275 1.374 . S
C277 C274 1.499 . S
C277 C278 1.373 . S
C277 C279 1.389 1_545 S
C278 H251 0.950 . S
C278 C264 1.377 . S
C278 C277 1.373 . S
C279 C263 1.377 . S
C279 C277 1.389 1_565 S
C279 C280 1.524 . S
C280 C279 1.524 . S
C280 C281 1.397 . S
C280 C285 1.363 . S
C281 H252 0.950 . S
C281 C280 1.397 . S
C281 C282 1.334 . S
C282 H253 0.950 . S
C282 C281 1.334 . S
C282 C283 1.287 . S
C283 C282 1.287 . S
C283 C284 1.524 . S
C283 H286 0.999 . S
C284 H254 0.950 . S
C284 C283 1.524 . S
C284 C285 1.415 . S
C285 H255 0.950 . S
C285 C280 1.363 . S
C285 C284 1.415 . S
H286 C283 0.999 . S
H287 C268 0.913 . S
H288 C306 0.951 . S
H289 C308 0.951 . S
H290 C310 0.950 . S
H291 C311 0.950 . S
H292 C313 0.950 . S
H293 C316 0.950 . S
H294 C317 0.950 . S
H295 C319 0.950 . S
H296 C320 0.950 . S
H297 C321 0.951 . S
H298 C323 0.951 . S
H299 C325 0.950 . S
H300 C326 0.950 . S
H301 C328 0.950 . S
H302 C331 0.950 . S
H303 C332 0.950 . S
H304 C334 0.950 . S
H305 C335 0.950 . S
C306 H288 0.951 . S
C306 C307 1.366 . S
C306 C308 1.388 1_655 S
C307 C306 1.366 . S
C307 C311 1.385 1_655 S
C308 H289 0.951 . S
C308 C306 1.388 1_455 S
C308 C309 1.366 . S
C309 C308 1.366 . S
C309 C310 1.414 . S
C309 C312 1.499 . S
C310 H290 0.950 . S
C310 C309 1.414 . S
C310 C311 1.374 . S
C311 H291 0.950 . S
C311 C307 1.385 1_455 S
C311 C310 1.374 . S
C312 C309 1.499 . S
C312 C313 1.373 . S
C312 C314 1.389 . S
C313 H292 0.950 . S
C313 C312 1.373 . S
C313 C329 1.377 . S
C314 C312 1.389 . S
C314 C315 1.524 . S
C314 C328 1.377 . S
C315 C314 1.524 . S
C315 C316 1.397 . S
C315 C320 1.363 . S
C316 H293 0.950 . S
C316 C315 1.397 . S
C316 C317 1.334 . S
C317 H294 0.950 . S
C317 C316 1.334 . S
C317 C318 1.287 . S
C318 C317 1.287 . S
C318 C319 1.524 . S
C318 H337 0.913 . S
C319 H295 0.950 . S
C319 C318 1.524 . S
C319 C320 1.415 . S
C320 H296 0.950 . S
C320 C315 1.363 . S
C320 C319 1.415 . S
C321 H297 0.951 . S
C321 C322 1.366 . S
C321 C323 1.388 . S
C322 C321 1.366 . S
C322 C326 1.385 . S
C323 H298 0.951 . S
C323 C321 1.388 . S
C323 C324 1.366 . S
C324 C323 1.366 . S
C324 C325 1.414 . S
C324 C327 1.499 . S
C325 H299 0.950 . S
C325 C324 1.414 . S
C325 C326 1.374 . S
C326 H300 0.950 . S
C326 C322 1.385 . S
C326 C325 1.374 . S
C327 C324 1.499 . S
C327 C328 1.373 . S
C327 C329 1.389 . S
C328 H301 0.950 . S
C328 C314 1.377 . S
C328 C327 1.373 . S
C329 C313 1.377 . S
C329 C327 1.389 . S
C329 C330 1.524 . S
C330 C329 1.524 . S
C330 C331 1.397 . S
C330 C335 1.363 . S
C331 H302 0.950 . S
C331 C330 1.397 . S
C331 C332 1.334 . S
C332 H303 0.950 . S
C332 C331 1.334 . S
C332 C333 1.287 . S
C333 C332 1.287 . S
C333 C334 1.524 . S
C333 H336 0.999 . S
C334 H304 0.950 . S
C334 C333 1.524 . S
C334 C335 1.415 . S
C335 H305 0.950 . S
C335 C330 1.363 . S
C335 C334 1.415 . S
H336 C333 0.999 . S
H337 C318 0.913 . S
H338 C356 0.951 . S
H339 C358 0.951 . S
H340 C360 0.950 . S
H341 C361 0.950 . S
H342 C363 0.950 . S
H343 C366 0.950 . S
H344 C367 0.950 . S
H345 C369 0.950 . S
H346 C370 0.950 . S
H347 C371 0.951 . S
H348 C373 0.951 1_455 S
H349 C375 0.950 . S
H350 C376 0.950 . S
H351 C378 0.950 . S
H352 C381 0.950 . S
H353 C382 0.950 . S
H354 C384 0.950 . S
H355 C385 0.950 . S
C356 H338 0.951 . S
C356 C357 1.366 . S
C356 C358 1.388 . S
C357 C356 1.366 . S
C357 C361 1.385 . S
C358 H339 0.951 . S
C358 C356 1.388 . S
C358 C359 1.366 . S
C359 C358 1.366 . S
C359 C360 1.414 . S
C359 C362 1.499 . S
C360 H340 0.950 . S
C360 C359 1.414 . S
C360 C361 1.374 . S
C361 H341 0.950 . S
C361 C357 1.385 . S
C361 C360 1.374 . S
C362 C359 1.499 . S
C362 C363 1.373 . S
C362 C364 1.386 1_455 S
C363 H342 0.950 . S
C363 C362 1.373 . S
C363 C379 1.377 . S
C364 C362 1.386 1_655 S
C364 C365 1.525 . S
C364 C378 1.379 . S
C365 C364 1.525 . S
C365 C366 1.397 1_655 S
C365 C370 1.363 . S
C366 H343 0.950 . S
C366 C365 1.397 1_455 S
C366 C367 1.334 . S
C367 H344 0.950 . S
C367 C366 1.334 . S
C367 C368 1.287 1_455 S
C368 C367 1.287 1_655 S
C368 C369 1.524 . S
C368 H387 0.913 . S
C369 H345 0.950 . S
C369 C368 1.524 . S
C369 C370 1.415 . S
C370 H346 0.950 . S
C370 C365 1.363 . S
C370 C369 1.415 . S
C371 H347 0.951 . S
C371 C372 1.366 . S
C371 C373 1.388 1_545 S
C372 C371 1.366 . S
C372 C376 1.385 1_545 S
C373 H348 0.951 1_655 S
C373 C371 1.388 1_565 S
C373 C374 1.366 . S
C374 C373 1.366 . S
C374 C375 1.414 . S
C374 C377 1.499 . S
C375 H349 0.950 . S
C375 C374 1.414 . S
C375 C376 1.374 . S
C376 H350 0.950 . S
C376 C372 1.385 1_565 S
C376 C375 1.374 . S
C377 C374 1.499 . S
C377 C378 1.373 . S
C377 C379 1.389 1_655 S
C378 H351 0.950 . S
C378 C364 1.379 . S
C378 C377 1.373 . S
C379 C363 1.377 . S
C379 C377 1.389 1_455 S
C379 C380 1.524 . S
C380 C379 1.524 . S
C380 C381 1.397 1_455 S
C380 C385 1.363 . S
C381 H352 0.950 . S
C381 C380 1.397 1_655 S
C381 C382 1.334 1_565 S
C382 H353 0.950 . S
C382 C381 1.334 1_545 S
C382 C383 1.287 1_655 S
C383 C382 1.287 1_455 S
C383 C384 1.524 . S
C383 H386 0.999 . S
C384 H354 0.950 . S
C384 C383 1.524 . S
C384 C385 1.415 1_545 S
C385 H355 0.950 . S
C385 C380 1.363 . S
C385 C384 1.415 1_565 S
H386 C383 0.999 . S
H387 C368 0.913 . S
H388 C406 0.951 . S
H389 C408 0.951 . S
H390 C410 0.950 . S
H391 C411 0.950 . S
H392 C413 0.950 1_554 S
H393 C416 0.950 . S
H394 C417 0.950 . S
H395 C419 0.950 . S
H396 C420 0.950 . S
H397 C421 0.951 . S
H398 C423 0.951 . S
H399 C425 0.950 . S
H400 C426 0.950 . S
H401 C428 0.950 . S
H402 C431 0.950 . S
H403 C432 0.950 . S
H404 C434 0.950 . S
H405 C435 0.950 . S
C406 H388 0.951 . S
C406 C407 1.366 . S
C406 C408 1.388 . S
C407 C406 1.366 . S
C407 C411 1.385 . S
C408 H389 0.951 . S
C408 C406 1.388 . S
C408 C409 1.366 . S
C409 C408 1.366 . S
C409 C410 1.414 . S
C409 C412 1.499 . S
C410 H390 0.950 . S
C410 C409 1.414 . S
C410 C411 1.374 . S
C411 H391 0.950 . S
C411 C407 1.385 . S
C411 C410 1.374 . S
C412 C409 1.499 . S
C412 C413 1.373 . S
C412 C414 1.389 . S
C413 H392 0.950 1_556 S
C413 C412 1.373 . S
C413 C429 1.377 1_556 S
C414 C412 1.389 . S
C414 C415 1.524 . S
C414 C428 1.377 . S
C415 C414 1.524 . S
C415 C416 1.397 . S
C415 C420 1.363 . S
C416 H393 0.950 . S
C416 C415 1.397 . S
C416 C417 1.334 . S
C417 H394 0.950 . S
C417 C416 1.334 . S
C417 C418 1.287 . S
C418 C417 1.287 . S
C418 C419 1.524 . S
C418 H437 0.913 . S
C419 H395 0.950 . S
C419 C418 1.524 . S
C419 C420 1.415 . S
C420 H396 0.950 . S
C420 C415 1.363 . S
C420 C419 1.415 . S
C421 H397 0.951 . S
C421 C422 1.366 . S
C421 C423 1.388 . S
C422 C421 1.366 . S
C422 C426 1.385 . S
C423 H398 0.951 . S
C423 C421 1.388 . S
C423 C424 1.366 . S
C424 C423 1.366 . S
C424 C425 1.414 . S
C424 C427 1.499 . S
C425 H399 0.950 . S
C425 C424 1.414 . S
C425 C426 1.374 . S
C426 H400 0.950 . S
C426 C422 1.385 . S
C426 C425 1.374 . S
C427 C424 1.499 . S
C427 C428 1.373 1_554 S
C427 C429 1.389 . S
C428 H401 0.950 . S
C428 C414 1.377 . S
C428 C427 1.373 1_556 S
C429 C413 1.377 1_554 S
C429 C427 1.389 . S
C429 C430 1.524 . S
C430 C429 1.524 . S
C430 C431 1.397 . S
C430 C435 1.363 . S
C431 H402 0.950 . S
C431 C430 1.397 . S
C431 C432 1.334 . S
C432 H403 0.950 . S
C432 C431 1.334 . S
C432 C433 1.287 . S
C433 C432 1.287 . S
C433 C434 1.524 . S
C433 H436 0.999 . S
C434 H404 0.950 . S
C434 C433 1.524 . S
C434 C435 1.415 . S
C435 H405 0.950 . S
C435 C430 1.363 . S
C435 C434 1.415 . S
H436 C433 0.999 . S
H437 C418 0.913 . S
H438 C456 0.951 . S
H439 C458 0.951 . S
H440 C460 0.950 . S
H441 C461 0.950 . S
H442 C463 0.950 . S
H443 C466 0.950 . S
H444 C467 0.950 . S
H445 C469 0.950 . S
H446 C470 0.950 . S
H447 C471 0.951 . S
H448 C473 0.951 . S
H449 C475 0.950 . S
H450 C476 0.950 . S
H451 C478 0.950 . S
H452 C481 0.950 . S
H453 C482 0.950 . S
H454 C484 0.950 . S
H455 C485 0.950 . S
C456 H438 0.951 . S
C456 C457 1.366 . S
C456 C458 1.388 . S
C457 C456 1.366 . S
C457 C461 1.385 . S
C458 H439 0.951 . S
C458 C456 1.388 . S
C458 C459 1.366 . S
C459 C458 1.366 . S
C459 C460 1.414 . S
C459 C462 1.499 . S
C460 H440 0.950 . S
C460 C459 1.414 . S
C460 C461 1.374 . S
C461 H441 0.950 . S
C461 C457 1.385 . S
C461 C460 1.374 . S
C462 C459 1.499 . S
C462 C463 1.373 . S
C462 C464 1.389 . S
C463 H442 0.950 . S
C463 C462 1.373 . S
C463 C479 1.377 . S
C464 C462 1.389 . S
C464 C465 1.524 . S
C464 C478 1.377 . S
C465 C464 1.524 . S
C465 C466 1.397 . S
C465 C470 1.363 . S
C466 H443 0.950 . S
C466 C465 1.397 . S
C466 C467 1.334 . S
C467 H444 0.950 . S
C467 C466 1.334 . S
C467 C468 1.287 . S
C468 C467 1.287 . S
C468 C469 1.524 . S
C468 H487 0.913 . S
C469 H445 0.950 . S
C469 C468 1.524 . S
C469 C470 1.415 . S
C470 H446 0.950 . S
C470 C465 1.363 . S
C470 C469 1.415 . S
C471 H447 0.951 . S
C471 C472 1.366 1_545 S
C471 C473 1.388 . S
C472 C471 1.366 1_565 S
C472 C476 1.385 . S
C473 H448 0.951 . S
C473 C471 1.388 . S
C473 C474 1.366 . S
C474 C473 1.366 . S
C474 C475 1.414 . S
C474 C477 1.499 . S
C475 H449 0.950 . S
C475 C474 1.414 . S
C475 C476 1.374 1_545 S
C476 H450 0.950 . S
C476 C472 1.385 . S
C476 C475 1.374 1_565 S
C477 C474 1.499 . S
C477 C478 1.373 . S
C477 C479 1.389 . S
C478 H451 0.950 . S
C478 C464 1.377 . S
C478 C477 1.373 . S
C479 C463 1.377 . S
C479 C477 1.389 . S
C479 C480 1.524 . S
C480 C479 1.524 . S
C480 C481 1.397 . S
C480 C485 1.363 . S
C481 H452 0.950 . S
C481 C480 1.397 . S
C481 C482 1.334 . S
C482 H453 0.950 . S
C482 C481 1.334 . S
C482 C483 1.287 . S
C483 C482 1.287 . S
C483 C484 1.524 . S
C483 H486 0.999 . S
C484 H454 0.950 . S
C484 C483 1.524 . S
C484 C485 1.415 . S
C485 H455 0.950 . S
C485 C480 1.363 . S
C485 C484 1.415 . S
H486 C483 0.999 . S
H487 C468 0.913 . S
H488 C506 0.951 . S
H489 C508 0.951 . S
H490 C510 0.950 . S
H491 C511 0.950 . S
H492 C513 0.950 . S
H493 C516 0.950 . S
H494 C517 0.950 . S
H495 C519 0.950 . S
H496 C520 0.950 . S
H497 C521 0.951 . S
H498 C523 0.951 . S
H499 C525 0.950 . S
H500 C526 0.950 . S
H501 C528 0.950 . S
H502 C531 0.950 . S
H503 C532 0.950 . S
H504 C534 0.950 . S
H505 C535 0.950 . S
C506 H488 0.951 . S
C506 C507 1.366 . S
C506 C508 1.388 . S
C507 C506 1.366 . S
C507 C511 1.385 . S
C508 H489 0.951 . S
C508 C506 1.388 . S
C508 C509 1.366 . S
C509 C508 1.366 . S
C509 C510 1.414 . S
C509 C512 1.499 . S
C510 H490 0.950 . S
C510 C509 1.414 . S
C510 C511 1.374 . S
C511 H491 0.950 . S
C511 C507 1.385 . S
C511 C510 1.374 . S
C512 C509 1.499 . S
C512 C513 1.373 . S
C512 C514 1.389 . S
C513 H492 0.950 . S
C513 C512 1.373 . S
C513 C529 1.377 . S
C514 C512 1.389 . S
C514 C515 1.524 . S
C514 C528 1.377 . S
C515 C514 1.524 . S
C515 C516 1.397 . S
C515 C520 1.363 . S
C516 H493 0.950 . S
C516 C515 1.397 . S
C516 C517 1.334 . S
C517 H494 0.950 . S
C517 C516 1.334 . S
C517 C518 1.287 . S
C518 C517 1.287 . S
C518 C519 1.524 . S
C518 H537 0.913 . S
C519 H495 0.950 . S
C519 C518 1.524 . S
C519 C520 1.415 . S
C520 H496 0.950 . S
C520 C515 1.363 . S
C520 C519 1.415 . S
C521 H497 0.951 . S
C521 C522 1.366 . S
C521 C523 1.388 . S
C522 C521 1.366 . S
C522 C526 1.385 . S
C523 H498 0.951 . S
C523 C521 1.388 . S
C523 C524 1.366 . S
C524 C523 1.366 . S
C524 C525 1.414 . S
C524 C527 1.499 . S
C525 H499 0.950 . S
C525 C524 1.414 . S
C525 C526 1.374 . S
C526 H500 0.950 . S
C526 C522 1.385 . S
C526 C525 1.374 . S
C527 C524 1.499 . S
C527 C528 1.373 . S
C527 C529 1.389 . S
C528 H501 0.950 . S
C528 C514 1.377 . S
C528 C527 1.373 . S
C529 C513 1.377 . S
C529 C527 1.389 . S
C529 C530 1.524 . S
C530 C529 1.524 . S
C530 C531 1.397 . S
C530 C535 1.363 . S
C531 H502 0.950 . S
C531 C530 1.397 . S
C531 C532 1.334 . S
C532 H503 0.950 . S
C532 C531 1.334 . S
C532 C533 1.287 . S
C533 C532 1.287 . S
C533 C534 1.524 . S
C533 H536 0.999 . S
C534 H504 0.950 . S
C534 C533 1.524 . S
C534 C535 1.415 . S
C535 H505 0.950 . S
C535 C530 1.363 . S
C535 C534 1.415 . S
H536 C533 0.999 . S
H537 C518 0.913 . S
H538 C556 0.951 . S
H539 C558 0.951 . S
H540 C560 0.950 1_655 S
H541 C561 0.950 . S
H542 C563 0.950 . S
H543 C566 0.950 . S
H544 C567 0.950 . S
H545 C569 0.950 . S
H546 C570 0.950 . S
H547 C571 0.951 . S
H548 C573 0.951 . S
H549 C575 0.938 1_455 S
H550 C576 0.950 . S
H551 C578 0.950 . S
H552 C581 0.950 . S
H553 C582 0.950 . S
H554 C584 0.950 . S
H555 C585 0.950 . S
C556 H538 0.951 . S
C556 C557 1.366 . S
C556 C558 1.388 . S
C557 C556 1.366 . S
C557 C561 1.385 . S
C558 H539 0.951 . S
C558 C556 1.388 . S
C558 C559 1.366 . S
C559 C558 1.366 . S
C559 C560 1.414 . S
C559 C562 1.499 . S
C560 H540 0.950 1_455 S
C560 C559 1.414 . S
C560 C561 1.374 . S
C561 H541 0.950 . S
C561 C557 1.385 . S
C561 C560 1.374 . S
C562 C559 1.499 . S
C562 C563 1.373 1_455 S
C562 C564 1.389 . S
C563 H542 0.950 . S
C563 C562 1.373 1_655 S
C563 C579 1.377 . S
C564 C562 1.389 . S
C564 C565 1.524 . S
C564 C578 1.377 . S
C565 C564 1.524 . S
C565 C566 1.397 . S
C565 C570 1.363 . S
C566 H543 0.950 . S
C566 C565 1.397 . S
C566 C567 1.334 . S
C567 H544 0.950 . S
C567 C566 1.334 . S
C567 C568 1.287 . S
C568 C567 1.287 . S
C568 C569 1.524 . S
C568 H587 0.913 . S
C569 H545 0.950 . S
C569 C568 1.524 . S
C569 C570 1.415 . S
C570 H546 0.950 . S
C570 C565 1.363 . S
C570 C569 1.415 . S
C571 H547 0.951 . S
C571 C572 1.366 . S
C571 C573 1.388 . S
C572 C571 1.366 . S
C572 C576 1.385 . S
C573 H548 0.951 . S
C573 C571 1.388 . S
C573 C574 1.366 . S
C574 C573 1.366 . S
C574 C575 1.414 . S
C574 C577 1.499 . S
C575 H549 0.938 1_655 S
C575 C574 1.414 . S
C575 C576 1.374 . S
C576 H550 0.950 . S
C576 C572 1.385 . S
C576 C575 1.374 . S
C577 C574 1.499 . S
C577 C578 1.373 1_655 S
C577 C579 1.389 . S
C578 H551 0.950 . S
C578 C564 1.377 . S
C578 C577 1.373 1_455 S
C579 C563 1.377 . S
C579 C577 1.389 . S
C579 C580 1.524 . S
C580 C579 1.524 . S
C580 C581 1.397 . S
C580 C585 1.363 . S
C581 H552 0.950 . S
C581 C580 1.397 . S
C581 C582 1.334 . S
C582 H553 0.950 . S
C582 C581 1.334 . S
C582 C583 1.287 . S
C583 C582 1.287 . S
C583 C584 1.524 . S
C583 H586 0.999 . S
C584 H554 0.950 . S
C584 C583 1.524 . S
C584 C585 1.415 . S
C585 H555 0.950 . S
C585 C580 1.363 . S
C585 C584 1.415 . S
H586 C583 0.999 . S
H587 C568 0.913 . S
H588 C606 0.951 . S
H589 C608 0.951 . S
H590 C610 0.950 1_554 S
H591 C611 0.950 . S
H592 C613 0.950 . S
H593 C616 0.950 . S
H594 C617 0.950 . S
H595 C619 0.950 . S
H596 C620 0.950 . S
H597 C621 0.951 . S
H598 C623 0.951 . S
H599 C625 0.950 . S
H600 C626 0.950 . S
H601 C628 0.950 . S
H602 C631 0.950 . S
H603 C632 0.950 . S
H604 C634 0.950 . S
H605 C635 0.950 . S
C606 H588 0.951 . S
C606 C607 1.366 1_655 S
C606 C608 1.388 . S
C607 C606 1.366 1_455 S
C607 C611 1.385 . S
C608 H589 0.951 . S
C608 C606 1.388 . S
C608 C609 1.366 . S
C609 C608 1.366 . S
C609 C610 1.414 . S
C609 C612 1.499 . S
C610 H590 0.950 1_556 S
C610 C609 1.414 . S
C610 C611 1.374 1_655 S
C611 H591 0.950 . S
C611 C607 1.385 . S
C611 C610 1.374 1_455 S
C612 C609 1.499 . S
C612 C613 1.373 1_556 S
C612 C614 1.389 . S
C613 H592 0.950 . S
C613 C612 1.373 1_554 S
C613 C629 1.377 . S
C614 C612 1.389 . S
C614 C615 1.524 . S
C614 C628 1.377 . S
C615 C614 1.524 . S
C615 C616 1.397 . S
C615 C620 1.363 . S
C616 H593 0.950 . S
C616 C615 1.397 . S
C616 C617 1.334 . S
C617 H594 0.950 . S
C617 C616 1.334 . S
C617 C618 1.287 . S
C618 C617 1.287 . S
C618 C619 1.524 . S
C618 H637 0.913 . S
C619 H595 0.950 . S
C619 C618 1.524 . S
C619 C620 1.415 . S
C620 H596 0.950 . S
C620 C615 1.363 . S
C620 C619 1.415 . S
C621 H597 0.951 . S
C621 C622 1.366 . S
C621 C623 1.388 . S
C622 C621 1.366 . S
C622 C626 1.385 . S
C623 H598 0.951 . S
C623 C621 1.388 . S
C623 C624 1.366 . S
C624 C623 1.366 . S
C624 C625 1.414 . S
C624 C627 1.499 . S
C625 H599 0.950 . S
C625 C624 1.414 . S
C625 C626 1.374 . S
C626 H600 0.950 . S
C626 C622 1.385 . S
C626 C625 1.374 . S
C627 C624 1.499 . S
C627 C628 1.373 1_554 S
C627 C629 1.389 . S
C628 H601 0.950 . S
C628 C614 1.377 . S
C628 C627 1.373 1_556 S
C629 C613 1.377 . S
C629 C627 1.389 . S
C629 C630 1.524 . S
C630 C629 1.524 . S
C630 C631 1.397 . S
C630 C635 1.363 . S
C631 H602 0.950 . S
C631 C630 1.397 . S
C631 C632 1.334 . S
C632 H603 0.950 . S
C632 C631 1.334 . S
C632 C633 1.287 . S
C633 C632 1.287 . S
C633 C634 1.524 . S
C633 H636 0.999 . S
C634 H604 0.950 . S
C634 C633 1.524 . S
C634 C635 1.415 . S
C635 H605 0.950 . S
C635 C630 1.363 . S
C635 C634 1.415 . S
H636 C633 0.999 . S
H637 C618 0.913 . S
H638 C656 0.951 . S
H639 C658 0.951 . S
H640 C660 0.950 . S
H641 C661 0.950 . S
H642 C663 0.950 . S
H643 C666 0.950 . S
H644 C667 0.950 . S
H645 C669 0.950 . S
H646 C670 0.950 . S
H647 C671 0.951 . S
H648 C673 0.951 . S
H649 C675 0.950 . S
H650 C676 0.950 . S
H651 C678 0.950 . S
H652 C681 0.950 . S
H653 C682 0.950 . S
H654 C684 0.950 . S
H655 C685 0.950 . S
C656 H638 0.951 . S
C656 C657 1.366 . S
C656 C658 1.388 . S
C657 C656 1.366 . S
C657 C661 1.385 . S
C658 H639 0.951 . S
C658 C656 1.388 . S
C658 C659 1.366 . S
C659 C658 1.366 . S
C659 C660 1.414 . S
C659 C662 1.499 . S
C660 H640 0.950 . S
C660 C659 1.414 . S
C660 C661 1.374 . S
C661 H641 0.950 . S
C661 C657 1.385 . S
C661 C660 1.374 . S
C662 C659 1.499 . S
C662 C663 1.373 . S
C662 C664 1.389 . S
C663 H642 0.950 . S
C663 C662 1.373 . S
C663 C679 1.377 . S
C664 C662 1.389 . S
C664 C665 1.524 . S
C664 C678 1.377 . S
C665 C664 1.524 . S
C665 C666 1.397 . S
C665 C670 1.363 . S
C666 H643 0.950 . S
C666 C665 1.397 . S
C666 C667 1.334 . S
C667 H644 0.950 . S
C667 C666 1.334 . S
C667 C668 1.287 . S
C668 C667 1.287 . S
C668 C669 1.524 . S
C668 H687 0.913 . S
C669 H645 0.950 . S
C669 C668 1.524 . S
C669 C670 1.415 . S
C670 H646 0.950 . S
C670 C665 1.363 . S
C670 C669 1.415 . S
C671 H647 0.951 . S
C671 C672 1.366 . S
C671 C673 1.388 . S
C672 C671 1.366 . S
C672 C676 1.385 . S
C673 H648 0.951 . S
C673 C671 1.388 . S
C673 C674 1.366 . S
C674 C673 1.366 . S
C674 C675 1.414 . S
C674 C677 1.499 . S
C675 H649 0.950 . S
C675 C674 1.414 . S
C675 C676 1.374 . S
C676 H650 0.950 . S
C676 C672 1.385 . S
C676 C675 1.374 . S
C677 C674 1.499 . S
C677 C678 1.373 . S
C677 C679 1.389 . S
C678 H651 0.950 . S
C678 C664 1.377 . S
C678 C677 1.373 . S
C679 C663 1.377 . S
C679 C677 1.389 . S
C679 C680 1.524 . S
C680 C679 1.524 . S
C680 C681 1.397 . S
C680 C685 1.363 . S
C681 H652 0.950 . S
C681 C680 1.397 . S
C681 C682 1.334 . S
C682 H653 0.950 . S
C682 C681 1.334 . S
C682 C683 1.287 . S
C683 C682 1.287 . S
C683 C684 1.524 . S
C683 H686 0.999 . S
C684 H654 0.950 . S
C684 C683 1.524 . S
C684 C685 1.415 . S
C685 H655 0.950 . S
C685 C680 1.363 . S
C685 C684 1.415 . S
H686 C683 0.999 . S
H687 C668 0.913 . S
C107 C59 1.318 . S
C122 C21 1.314 . S
C157 C84 1.281 . S
C172 C29 1.264 . S
C207 C62 1.228 . S
C222 C10 1.230 . S
C257 C81 1.265 . S
C272 C30 1.282 . S
C307 C37 1.318 . S
C322 C15 1.315 . S
C357 C52 1.282 . S
C372 C43 1.266 . S
C407 C54 1.281 . S
C422 C87 1.265 . S
C457 C7 1.315 . S
C472 C73 1.318 . S
C507 C40 1.229 . S
C522 C18 1.230 . S
C557 C51 1.265 . S
C572 C32 1.281 . S
C607 C65 1.265 . S
C622 C76 1.281 . S
C657 C74 1.229 . S
C672 C8 1.231 . S
