# Generated by pormake.
# Topology hjm, (4)-cn, num edge types: 1
# Building blocks:
#     Node 0, Type 0, BuildingBlock: KUFVIS_clean_sbu_0, # of connection points: 4
#     Node 1, Type 0, BuildingBlock: KUFVIS_clean_sbu_0, # of connection points: 4
#     Node 2, Type 0, BuildingBlock: KUFVIS_clean_sbu_0, # of connection points: 4
#     Node 3, Type 0, BuildingBlock: KUFVIS_clean_sbu_0, # of connection points: 4
#     Node 4, Type 0, BuildingBlock: KUFVIS_clean_sbu_0, # of connection points: 4
#     Node 5, Type 0, BuildingBlock: KUFVIS_clean_sbu_0, # of connection points: 4
#     Node 6, Type 0, BuildingBlock: KUFVIS_clean_sbu_0, # of connection points: 4
#     Node 7, Type 0, BuildingBlock: KUFVIS_clean_sbu_0, # of connection points: 4
#     Edge 8, Type (0, 0), BuildingBlock: TEMPAE_clean_linker_10, # of connection points: 2
#     Edge 9, Type (0, 0), BuildingBlock: TEMPAE_clean_linker_10, # of connection points: 2
#     Edge 10, Type (0, 0), BuildingBlock: TEMPAE_clean_linker_10, # of connection points: 2
#     Edge 11, Type (0, 0), BuildingBlock: TEMPAE_clean_linker_10, # of connection points: 2
#     Edge 12, Type (0, 0), BuildingBlock: TEMPAE_clean_linker_10, # of connection points: 2
#     Edge 13, Type (0, 0), BuildingBlock: TEMPAE_clean_linker_10, # of connection points: 2
#     Edge 14, Type (0, 0), BuildingBlock: TEMPAE_clean_linker_10, # of connection points: 2
#     Edge 15, Type (0, 0), BuildingBlock: TEMPAE_clean_linker_10, # of connection points: 2
#     Edge 16, Type (0, 0), BuildingBlock: TEMPAE_clean_linker_10, # of connection points: 2
#     Edge 17, Type (0, 0), BuildingBlock: TEMPAE_clean_linker_10, # of connection points: 2
#     Edge 18, Type (0, 0), BuildingBlock: TEMPAE_clean_linker_10, # of connection points: 2
#     Edge 19, Type (0, 0), BuildingBlock: TEMPAE_clean_linker_10, # of connection points: 2
#     Edge 20, Type (0, 0), BuildingBlock: TEMPAE_clean_linker_10, # of connection points: 2
#     Edge 21, Type (0, 0), BuildingBlock: TEMPAE_clean_linker_10, # of connection points: 2
#     Edge 22, Type (0, 0), BuildingBlock: TEMPAE_clean_linker_10, # of connection points: 2
#     Edge 23, Type (0, 0), BuildingBlock: TEMPAE_clean_linker_10, # of connection points: 2
# Relax obj value: 0.063
# Max RMSD: 0.109
# Mean RMSD: 0.108
data_MOF--net-hjm--node1-KUFVIS_clean_sbu_0--edge1-TEMPAE_clean_linker_10
_symmetry_space_group_name_H-M    P1
_symmetry_Int_Tables_number       1
_symmetry_cell_setting            triclinic
loop_
_symmetry_equiv_pos_as_xyz
'x, y, z'
_cell_length_a     26.747423
_cell_length_b     22.976655
_cell_length_c     25.879222
_cell_angle_alpha  90.002785
_cell_angle_beta   58.710656
_cell_angle_gamma 90.048776
loop_
_atom_site_label
_atom_site_type_symbol
_atom_site_fract_x
_atom_site_fract_y
_atom_site_fract_z
_atom_type_partial_charge
Mn0 Mn 0.19003 0.26799 0.3479 0.0
Mn1 Mn 0.23184 0.38571 0.25542 0.0
C2 C 0.15939 0.36115 0.38754 0.0
C3 C 0.12828 0.18951 0.40028 0.0
C4 C 0.31345 0.32174 0.28454 0.0
O5 O 0.21305 0.23178 0.26644 0.0
O6 O 0.23717 0.3142 0.21069 0.0
C7 C 0.13928 0.38789 0.22489 0.0
N8 N 0.16946 0.415 0.2472 0.0
C9 C 0.1259 0.50729 0.24957 0.0
C10 C 0.0946 0.48046 0.22633 0.0
C11 C 0.10077 0.42036 0.21462 0.0
C12 C 0.16279 0.47252 0.2599 0.0
H13 H 0.1451 0.34205 0.21432 0.0
C14 C 0.22923 0.25919 0.21731 0.0
O15 O 0.18296 0.18975 0.38399 0.0
O16 O 0.10894 0.23479 0.38588 0.0
N17 N 0.2277 0.45854 0.2932 0.0
C18 C 0.2588 0.47703 0.31831 0.0
C19 C 0.25542 0.53568 0.33522 0.0
C20 C 0.22136 0.57485 0.32467 0.0
C21 C 0.1898 0.55475 0.29866 0.0
C22 C 0.19373 0.49561 0.28418 0.0
H23 H 0.28636 0.44735 0.32481 0.0
O24 O 0.16239 0.31984 0.42018 0.0
O25 O 0.17584 0.34738 0.33234 0.0
O26 O 0.27621 0.28412 0.31958 0.0
O27 O 0.30096 0.36141 0.25868 0.0
C28 C 0.1546 0.59103 0.28652 0.0
C29 C 0.12223 0.56723 0.26255 0.0
H30 H 0.06579 0.50565 0.21727 0.0
H31 H 0.07666 0.39932 0.19678 0.0
H32 H 0.2798 0.55089 0.35535 0.0
H33 H 0.21954 0.6202 0.33693 0.0
H34 H 0.15128 0.63716 0.29649 0.0
H35 H 0.09447 0.59537 0.25451 0.0
Mn36 Mn 0.84585 0.27353 0.15687 0.0
Mn37 Mn 0.80124 0.38765 0.25403 0.0
C38 C 0.88055 0.36749 0.12244 0.0
C39 C 0.90651 0.19466 0.10289 0.0
C40 C 0.72363 0.32889 0.21603 0.0
O41 O 0.81599 0.23358 0.23872 0.0
O42 O 0.79262 0.31432 0.29706 0.0
C43 C 0.88893 0.38489 0.29127 0.0
N44 N 0.86168 0.41408 0.26693 0.0
C45 C 0.90698 0.50432 0.26767 0.0
C46 C 0.9353 0.47531 0.29304 0.0
C47 C 0.92677 0.41521 0.30423 0.0
C48 C 0.87061 0.47163 0.25475 0.0
H49 H 0.88127 0.33902 0.30141 0.0
C50 C 0.79852 0.25927 0.28918 0.0
O51 O 0.85311 0.19865 0.11541 0.0
O52 O 0.92508 0.23614 0.12303 0.0
N53 N 0.80846 0.46188 0.21739 0.0
C54 C 0.77955 0.48277 0.19079 0.0
C55 C 0.78504 0.54186 0.17472 0.0
C56 C 0.81898 0.57898 0.18755 0.0
C57 C 0.84832 0.5564 0.21496 0.0
C58 C 0.8423 0.49698 0.22864 0.0
H59 H 0.7521 0.45465 0.18246 0.0
O60 O 0.8798 0.32875 0.08623 0.0
O61 O 0.85992 0.35076 0.17767 0.0
O62 O 0.76207 0.29312 0.17953 0.0
O63 O 0.73392 0.36588 0.24607 0.0
C64 C 0.88281 0.59062 0.22985 0.0
C65 C 0.91275 0.5645 0.25545 0.0
H66 H 0.96343 0.49881 0.30437 0.0
H67 H 0.94852 0.39254 0.32377 0.0
H68 H 0.76237 0.55899 0.15348 0.0
H69 H 0.82235 0.62469 0.17604 0.0
H70 H 0.88693 0.63706 0.22142 0.0
H71 H 0.93995 0.59113 0.26569 0.0
Mn72 Mn 0.80523 0.76118 0.72457 0.0
Mn73 Mn 0.93069 0.74463 0.72481 0.0
C74 C 0.80739 0.77334 0.81337 0.0
C75 C 0.71836 0.72886 0.73286 0.0
C76 C 0.90743 0.84793 0.66764 0.0
O77 O 0.85509 0.71113 0.64919 0.0
O78 O 0.93448 0.70042 0.65778 0.0
C79 C 0.92578 0.6188 0.75188 0.0
N80 N 0.93007 0.67513 0.76548 0.0
C81 C 0.95883 0.64574 0.83544 0.0
C82 C 0.95439 0.58732 0.82262 0.0
C83 C 0.93704 0.5738 0.7812 0.0
C84 C 0.94434 0.68853 0.80704 0.0
H85 H 0.91506 0.60842 0.71804 0.0
C86 C 0.90586 0.69046 0.63174 0.0
O87 O 0.74604 0.77438 0.70167 0.0
O88 O 0.74109 0.70105 0.75958 0.0
N89 N 0.93253 0.78495 0.78826 0.0
C90 C 0.93197 0.84336 0.79755 0.0
C91 C 0.94599 0.86427 0.83949 0.0
C92 C 0.96258 0.82504 0.86953 0.0
C93 C 0.96344 0.76516 0.85856 0.0
C94 C 0.94607 0.74678 0.81877 0.0
H95 H 0.92178 0.8737 0.77247 0.0
O96 O 0.76776 0.79941 0.80698 0.0
O97 O 0.84515 0.74333 0.76737 0.0
O98 O 0.8561 0.83277 0.68194 0.0
O99 O 0.93868 0.81803 0.68164 0.0
C100 C 0.98219 0.72305 0.88435 0.0
C101 C 0.97919 0.66335 0.87344 0.0
H102 H 0.96494 0.55258 0.84365 0.0
H103 H 0.9341 0.52885 0.77056 0.0
H104 H 0.94565 0.91057 0.84737 0.0
H105 H 0.97478 0.84138 0.90069 0.0
H106 H 0.99759 0.73599 0.91397 0.0
H107 H 0.99321 0.63154 0.89404 0.0
Mn108 Mn 0.23391 0.76594 0.79053 0.0
Mn109 Mn 0.10753 0.73633 0.7971 0.0
C110 C 0.22939 0.76953 0.7027 0.0
C111 C 0.3223 0.74029 0.7828 0.0
C112 C 0.12798 0.84503 0.8504 0.0
O113 O 0.18542 0.72063 0.8705 0.0
O114 O 0.1105 0.69117 0.85967 0.0
C115 C 0.11857 0.61154 0.76467 0.0
N116 N 0.11073 0.66781 0.7539 0.0
C117 C 0.08421 0.63837 0.68216 0.0
C118 C 0.09247 0.58007 0.69195 0.0
C119 C 0.11026 0.56664 0.73301 0.0
C120 C 0.09503 0.68125 0.71349 0.0
H121 H 0.13019 0.60106 0.79781 0.0
C122 C 0.1392 0.69048 0.88656 0.0
O123 O 0.29408 0.78721 0.8097 0.0
O124 O 0.29873 0.70671 0.76065 0.0
N125 N 0.1004 0.77776 0.73737 0.0
C126 C 0.09812 0.83625 0.73031 0.0
C127 C 0.08408 0.85716 0.68839 0.0
C128 C 0.07064 0.81768 0.65591 0.0
C129 C 0.07242 0.75774 0.66483 0.0
C130 C 0.08944 0.73952 0.70487 0.0
H131 H 0.1064 0.86664 0.75681 0.0
O132 O 0.26965 0.79813 0.70595 0.0
O133 O 0.19324 0.74047 0.75074 0.0
O134 O 0.1827 0.83831 0.82643 0.0
O135 O 0.09572 0.80796 0.84483 0.0
C136 C 0.0576 0.71531 0.63588 0.0
C137 C 0.06423 0.65568 0.6438 0.0
H138 H 0.08472 0.5453 0.6687 0.0
H139 H 0.11622 0.52174 0.74126 0.0
H140 H 0.08245 0.90352 0.68205 0.0
H141 H 0.05927 0.83375 0.624 0.0
H142 H 0.04278 0.72823 0.60582 0.0
H143 H 0.05358 0.62369 0.62032 0.0
Mn144 Mn 0.68782 0.78675 0.35529 0.0
Mn145 Mn 0.73164 0.89797 0.25463 0.0
C146 C 0.6549 0.88135 0.38729 0.0
C147 C 0.62634 0.70934 0.41197 0.0
C148 C 0.81038 0.84173 0.29248 0.0
O149 O 0.71591 0.74444 0.27509 0.0
O150 O 0.73828 0.82323 0.21426 0.0
C151 C 0.64195 0.89373 0.22016 0.0
N152 N 0.67033 0.92367 0.24285 0.0
C153 C 0.62503 1.01355 0.24127 0.0
C154 C 0.59569 0.98378 0.21752 0.0
C155 C 0.60362 0.92349 0.20756 0.0
C156 C 0.66204 0.98146 0.25369 0.0
H157 H 0.64912 0.84769 0.211 0.0
C158 C 0.7321 0.7684 0.22412 0.0
O159 O 0.67996 0.71302 0.39893 0.0
O160 O 0.60807 0.75023 0.391 0.0
N161 N 0.72618 0.97325 0.2887 0.0
C162 C 0.75638 0.99512 0.31354 0.0
C163 C 0.75143 0.05451 0.32832 0.0
C164 C 0.71661 0.09086 0.31608 0.0
C165 C 0.68598 0.06736 0.29052 0.0
C166 C 0.69164 1.00772 0.27794 0.0
H167 H 0.78436 0.96754 0.32154 0.0
O168 O 0.65575 0.84359 0.42422 0.0
O169 O 0.67399 0.86317 0.33278 0.0
O170 O 0.77217 0.80662 0.33059 0.0
O171 O 0.79965 0.87703 0.26148 0.0
C172 C 0.65053 0.10088 0.27643 0.0
C173 C 0.61958 0.07392 0.2524 0.0
H174 H 0.56717 1.00695 0.2066 0.0
H175 H 0.581 0.90024 0.18929 0.0
H176 H 0.77512 0.07244 0.34815 0.0
H177 H 0.7136 0.13675 0.32646 0.0
H178 H 0.64655 0.14743 0.28416 0.0
H179 H 0.59179 0.10004 0.24258 0.0
Mn180 Mn 0.3422 0.78228 0.16054 0.0
Mn181 Mn 0.30155 0.896 0.25802 0.0
C182 C 0.37605 0.87628 0.12558 0.0
C183 C 0.40174 0.70308 0.10524 0.0
C184 C 0.2203 0.83825 0.22421 0.0
O185 O 0.31472 0.74214 0.24185 0.0
O186 O 0.29593 0.8225 0.2999 0.0
C187 C 0.3939 0.89458 0.2888 0.0
N188 N 0.3642 0.92326 0.26689 0.0
C189 C 0.40932 1.01428 0.26579 0.0
C190 C 0.44011 0.98582 0.28864 0.0
C191 C 0.43295 0.92559 0.29951 0.0
C192 C 0.37183 0.98096 0.25503 0.0
H193 H 0.38723 0.84861 0.29878 0.0
C194 C 0.30086 0.76742 0.29164 0.0
O195 O 0.34781 0.70737 0.11952 0.0
O196 O 0.42153 0.74447 0.12421 0.0
N197 N 0.30599 0.97028 0.22247 0.0
C198 C 0.27432 0.99081 0.19876 0.0
C199 C 0.27813 0.04998 0.18346 0.0
C200 C 0.31329 0.08756 0.19408 0.0
C201 C 0.34545 0.06541 0.21852 0.0
C202 C 0.34092 1.00588 0.23161 0.0
H203 H 0.24594 0.96237 0.19217 0.0
O204 O 0.37413 0.83751 0.09006 0.0
O205 O 0.35766 0.85939 0.18034 0.0
O206 O 0.25784 0.80278 0.18607 0.0
O207 O 0.23213 0.87381 0.25416 0.0
C208 C 0.38127 0.10017 0.23112 0.0
C209 C 0.41372 0.07455 0.25408 0.0
H210 H 0.46914 1.00998 0.29815 0.0
H211 H 0.45668 0.90336 0.3171 0.0
H212 H 0.25322 0.06681 0.16456 0.0
H213 H 0.31533 0.13333 0.18331 0.0
H214 H 0.38442 0.14666 0.223 0.0
H215 H 0.4418 0.10161 0.26271 0.0
Mn216 Mn 0.2993 0.27746 0.71855 0.0
Mn217 Mn 0.42396 0.25093 0.71667 0.0
C218 C 0.30085 0.281 0.80796 0.0
C219 C 0.21323 0.24803 0.72304 0.0
C220 C 0.40356 0.35918 0.66278 0.0
O221 O 0.35058 0.23329 0.63862 0.0
O222 O 0.42439 0.20586 0.65207 0.0
C223 C 0.41464 0.12587 0.74773 0.0
N224 N 0.42074 0.18226 0.75974 0.0
C225 C 0.4496 0.1531 0.82969 0.0
C226 C 0.44304 0.09466 0.8187 0.0
C227 C 0.42477 0.08102 0.77807 0.0
C228 C 0.43607 0.19586 0.80043 0.0
H229 H 0.40332 0.11532 0.71437 0.0
C230 C 0.39728 0.20453 0.62351 0.0
O231 O 0.24015 0.29581 0.69682 0.0
O232 O 0.2365 0.21635 0.74679 0.0
N233 N 0.42792 0.29226 0.77849 0.0
C234 C 0.42882 0.35076 0.78649 0.0
C235 C 0.44304 0.37185 0.82824 0.0
C236 C 0.45841 0.33265 0.85937 0.0
C237 C 0.45779 0.27266 0.8497 0.0
C238 C 0.43995 0.25419 0.8103 0.0
H239 H 0.41976 0.38102 0.76048 0.0
O240 O 0.26067 0.30873 0.80387 0.0
O241 O 0.33854 0.25325 0.75992 0.0
O242 O 0.34929 0.35106 0.68426 0.0
O243 O 0.43558 0.32293 0.66967 0.0
C244 C 0.47561 0.23046 0.87629 0.0
C245 C 0.4711 0.17069 0.86669 0.0
H246 H 0.4527 0.05996 0.84054 0.0
H247 H 0.42025 0.03602 0.7688 0.0
H248 H 0.44394 0.41823 0.83501 0.0
H249 H 0.47102 0.34911 0.8902 0.0
H250 H 0.49129 0.24345 0.90565 0.0
H251 H 0.484 0.13875 0.88829 0.0
Mn252 Mn 0.72631 0.27507 0.78859 0.0
Mn253 Mn 0.60045 0.24789 0.79361 0.0
C254 C 0.72317 0.2787 0.70005 0.0
C255 C 0.81321 0.24688 0.78281 0.0
C256 C 0.62143 0.35468 0.84877 0.0
O257 O 0.67603 0.23028 0.86849 0.0
O258 O 0.60242 0.20046 0.85552 0.0
C259 C 0.60877 0.12398 0.75903 0.0
N260 N 0.60272 0.18096 0.74885 0.0
C261 C 0.57364 0.15534 0.67817 0.0
C262 C 0.58017 0.09634 0.68724 0.0
C263 C 0.59846 0.08063 0.72737 0.0
C264 C 0.58692 0.19657 0.70901 0.0
H265 H 0.6203 0.11181 0.79185 0.0
C266 C 0.63021 0.19987 0.88342 0.0
O267 O 0.78587 0.29431 0.80935 0.0
O268 O 0.78985 0.21469 0.75944 0.0
N269 N 0.59491 0.29184 0.73416 0.0
C270 C 0.59435 0.35064 0.72781 0.0
C271 C 0.58038 0.37373 0.6866 0.0
C272 C 0.56523 0.33615 0.65406 0.0
C273 C 0.56565 0.2758 0.66193 0.0
C274 C 0.58291 0.25534 0.70114 0.0
H275 H 0.60363 0.37965 0.75458 0.0
O276 O 0.76361 0.30674 0.70352 0.0
O277 O 0.68607 0.25067 0.74833 0.0
O278 O 0.67628 0.34819 0.82374 0.0
O279 O 0.58895 0.31793 0.84323 0.0
C280 C 0.54844 0.23513 0.63347 0.0
C281 C 0.55266 0.17493 0.64135 0.0
H282 H 0.57061 0.06278 0.66421 0.0
H283 H 0.60299 0.03519 0.73513 0.0
H284 H 0.57973 0.42037 0.68115 0.0
H285 H 0.55309 0.35412 0.62342 0.0
H286 H 0.53325 0.24966 0.60415 0.0
H287 H 0.53977 0.14424 0.61871 0.0
C288 C 0.03432 0.15017 0.48598 0.0
C289 C 0.09006 0.14025 0.43545 0.0
C290 C 1.00101 0.10411 0.52448 0.0
C291 C 0.02296 0.04634 0.51032 0.0
C292 C 0.07775 0.03595 0.45693 0.0
C293 C 0.11125 0.08316 0.42107 0.0
C294 C 0.94293 0.1182 0.58047 0.0
C295 C 0.10154 0.97504 0.43807 0.0
C296 C 0.97848 0.93093 0.63249 0.0
C297 C 0.93356 0.90131 0.63068 0.0
C298 C 1.00714 0.97863 0.59448 0.0
C299 C 0.99094 0.99722 0.55288 0.0
C300 C 0.94512 0.96787 0.55126 0.0
C301 C 0.91651 0.92077 0.59067 0.0
C302 C 0.05621 1.00709 0.59803 0.0
C303 C 0.92734 0.98513 0.50678 0.0
H304 H 0.01794 0.19438 0.49713 0.0
H305 H 0.15419 0.07542 0.38158 0.0
H306 H 0.90816 0.11638 0.56927 0.0
H307 H 0.93135 0.08716 0.61787 0.0
H308 H 0.94301 0.16293 0.59676 0.0
H309 H 0.13971 0.97359 0.39101 0.0
H310 H 0.11552 0.95818 0.46875 0.0
H311 H 0.06712 0.94544 0.44148 0.0
H312 H 0.99153 0.91671 0.66369 0.0
H313 H 0.88214 0.89786 0.58862 0.0
H314 H 0.06337 0.05305 0.58278 0.0
H315 H 0.0973 0.9827 0.56887 0.0
H316 H 0.04755 1.00543 0.6449 0.0
H317 H 0.90526 0.02806 0.51971 0.0
H318 H 0.89699 0.95309 0.50527 0.0
H319 H 0.96648 0.98953 0.46068 0.0
C320 C 0.04826 0.8912 0.94471 0.0
C321 C 0.09991 0.8971 0.88829 0.0
C322 C 0.02099 0.93982 0.98183 0.0
C323 C 0.04434 0.99626 0.96084 0.0
C324 C 0.09702 1.00229 0.9039 0.0
C325 C 0.12479 0.95244 0.86901 0.0
C326 C 0.96694 0.93054 0.04341 0.0
C327 C 0.12473 0.0609 0.87889 0.0
C328 C 0.9304 0.11673 0.02651 0.0
C329 C 0.94398 0.14557 0.06549 0.0
C330 C 0.96368 0.06937 0.99115 0.0
C331 C 1.01085 0.04868 0.99621 0.0
C332 C 0.02496 0.07766 0.03548 0.0
C333 C 0.99192 0.12641 0.06896 0.0
C334 C 0.94737 0.0412 0.94911 0.0
C335 C 0.07427 0.05657 0.0429 0.0
H336 H 0.02965 0.84821 0.9603 0.0
H337 H 0.16512 0.95702 0.82565 0.0
H338 H 0.96812 0.95843 0.0778 0.0
H339 H 0.92756 0.94261 0.04198 0.0
H340 H 0.9622 0.88442 0.05819 0.0
H341 H 0.14643 0.06155 0.82883 0.0
H342 H 0.09287 0.09721 0.89766 0.0
H343 H 0.15904 0.06891 0.88996 0.0
H344 H 0.89373 0.13157 0.02311 0.0
H345 H 1.00256 0.14848 0.09906 0.0
H346 H 0.92024 1.00208 0.97121 0.0
H347 H 0.9867 0.02709 0.90623 0.0
H348 H 0.92151 0.07109 0.93817 0.0
H349 H 0.06948 1.00923 0.05304 0.0
H350 H 0.07592 0.07996 0.07957 0.0
H351 H 0.11658 0.06314 1.00004 0.0
C352 C 0.407 0.467 0.64597 0.0
C353 C 0.43175 0.41176 0.62588 0.0
C354 C 0.43521 0.5172 0.61187 0.0
C355 C 0.48818 0.51169 0.55526 0.0
C356 C 0.51203 0.45556 0.53394 0.0
C357 C 0.48415 0.40648 0.57004 0.0
C358 C 0.40945 0.57623 0.63731 0.0
C359 C 0.56735 0.44728 0.4732 0.0
C360 C 0.54241 0.63964 0.44445 0.0
C361 C 0.5883 0.66102 0.45036 0.0
C362 C 0.50916 0.59114 0.47835 0.0
C363 C 0.52105 0.56462 0.5204 0.0
C364 C 0.56602 0.58762 0.52793 0.0
C365 C 0.59956 0.63481 0.49225 0.0
C366 C 0.46285 0.567 0.46757 0.0
C367 C 0.57981 0.56166 0.57275 0.0
H368 H 0.36661 0.47106 0.68932 0.0
H369 H 0.50297 0.36363 0.55422 0.0
H370 H 0.4417 0.60292 0.64164 0.0
H371 H 0.39973 0.5996 0.60604 0.0
H372 H 0.36857 0.5732 0.68232 0.0
H373 H 0.57667 0.40062 0.46048 0.0
H374 H 0.56395 0.47051 0.43754 0.0
H375 H 0.60504 0.46611 0.47416 0.0
H376 H 0.53382 0.65957 0.41185 0.0
H377 H 0.63467 0.65145 0.49742 0.0
H378 H 0.42022 0.5641 0.51074 0.0
H379 H 0.47501 0.52218 0.44919 0.0
H380 H 0.4572 0.59398 0.43532 0.0
H381 H 0.53906 0.55204 0.61626 0.0
H382 H 0.60764 0.59093 0.58157 0.0
H383 H 0.60347 0.51996 0.55478 0.0
C384 C 0.48734 0.63473 0.06926 0.0
C385 C 0.43843 0.65369 0.06749 0.0
C386 C 0.52011 0.58613 0.03516 0.0
C387 C 0.50461 0.55694 0.9971 0.0
C388 C 0.45624 0.57712 0.99399 0.0
C389 C 0.42336 0.62453 0.02979 0.0
C390 C 0.57094 0.56556 0.04025 0.0
C391 C 0.43931 0.54884 0.95252 0.0
C392 C 0.61642 0.46199 0.86692 0.0
C393 C 0.59356 0.40626 0.8874 0.0
C394 C 0.58885 0.51146 0.9025 0.0
C395 C 0.53811 0.50484 0.96088 0.0
C396 C 0.51672 0.44806 0.98279 0.0
C397 C 0.54386 0.39963 0.94523 0.0
C398 C 0.61252 0.57043 0.87513 0.0
C399 C 0.46468 0.43831 0.04564 0.0
H400 H 0.49912 0.65697 0.09838 0.0
H401 H 0.38603 0.63933 0.02759 0.0
H402 H 0.56435 0.51929 0.05476 0.0
H403 H 0.61195 0.56801 0.99538 0.0
H404 H 0.5765 0.59182 0.07299 0.0
H405 H 0.40487 0.57368 0.95027 0.0
H406 H 0.47814 0.54499 0.90612 0.0
H407 H 0.42275 0.50421 0.9686 0.0
H408 H 0.65468 0.46714 0.82201 0.0
H409 H 0.52663 0.35632 0.96141 0.0
H410 H 0.60152 0.60471 0.90955 0.0
H411 H 0.59336 0.58276 0.84761 0.0
H412 H 0.6608 0.56908 0.84441 0.0
H413 H 0.46797 0.46586 0.07899 0.0
H414 H 0.46067 0.39207 0.05987 0.0
H415 H 0.424 0.45074 0.04693 0.0
C416 C 0.9159 0.45379 0.05361 0.0
C417 C 0.91685 0.42041 0.09822 0.0
C418 C 0.95396 0.50141 0.02713 0.0
C419 C 0.99434 0.51545 0.04528 0.0
C420 C 0.9943 0.48254 0.09146 0.0
C421 C 0.95627 0.43482 0.11658 0.0
C422 C 0.95164 0.53616 0.97899 0.0
C423 C 0.03517 0.49698 0.11346 0.0
C424 C 0.13151 0.59054 0.92289 0.0
C425 C 0.11665 0.64921 0.9368 0.0
C426 C 0.09351 0.54635 0.96002 0.0
C427 C 0.03945 0.56145 0.0123 0.0
C428 C 0.02678 0.62083 0.02887 0.0
C429 C 0.06565 0.66402 0.99085 0.0
C430 C 0.10873 0.48382 0.94001 0.0
C431 C 0.97135 0.63931 0.0853 0.0
H432 H 0.88569 0.44233 0.03917 0.0
H433 H 0.95831 0.40784 0.14978 0.0
H434 H 0.94214 0.58241 0.99314 0.0
H435 H 0.99476 0.53446 0.93618 0.0
H436 H 0.91764 0.51992 0.97012 0.0
H437 H 0.0282 0.4682 0.15112 0.0
H438 H 0.08127 0.49271 0.07589 0.0
H439 H 0.0286 0.54282 0.12917 0.0
H440 H 0.17007 0.57929 0.8799 0.0
H441 H 0.05368 0.70955 1.00067 0.0
H442 H 0.07883 0.46704 0.92571 0.0
H443 H 0.10277 0.45622 0.97798 0.0
H444 H 0.1545 0.47903 0.90161 0.0
H445 H 0.93339 0.61341 0.09223 0.0
H446 H 0.96161 0.68618 0.08449 0.0
H447 H 0.97707 0.63197 0.12422 0.0
C448 C 0.12407 0.44011 0.46516 0.0
C449 C 0.12378 0.41355 0.4167 0.0
C450 C 0.08617 0.48666 0.49651 0.0
C451 C 0.04775 0.50753 0.47821 0.0
C452 C 0.04782 0.48099 0.42887 0.0
C453 C 0.08471 0.43339 0.39985 0.0
C454 C 0.08728 0.51314 0.54928 0.0
C455 C 1.00889 0.50276 0.40678 0.0
C456 C 0.91261 0.59034 0.59467 0.0
C457 C 0.93302 0.64775 0.58281 0.0
C458 C 0.949 0.54418 0.55987 0.0
C459 C 1.00658 0.55619 0.51153 0.0
C460 C 0.02567 0.61466 0.49727 0.0
C461 C 0.9889 0.65968 0.53353 0.0
C462 C 0.92766 0.48246 0.57821 0.0
C463 C 0.08604 0.6297 0.44592 0.0
H464 H 0.15347 0.42401 0.47897 0.0
H465 H 0.08212 0.41089 0.36455 0.0
H466 H 0.10985 0.55583 0.53552 0.0
H467 H 0.04221 0.52059 0.588 0.0
H468 H 0.11094 0.48524 0.56471 0.0
H469 H 1.01432 0.47729 0.36771 0.0
H470 H 0.96233 0.50058 0.44363 0.0
H471 H 0.01905 0.5491 0.39314 0.0
H472 H 0.87023 0.58115 0.63443 0.0
H473 H 1.00523 0.70403 0.52575 0.0
H474 H 0.95381 0.46085 0.5948 0.0
H475 H 0.93384 0.45716 0.53882 0.0
H476 H 0.88073 0.48056 0.61447 0.0
H477 H 0.09708 0.6022 0.40649 0.0
H478 H 0.11852 0.62081 0.4593 0.0
H479 H 0.08975 0.67616 0.43252 0.0
C480 C 0.55787 0.17378 0.98843 0.0
C481 C 0.60745 0.15838 0.93337 0.0
C482 C 0.51939 0.13097 0.02762 0.0
C483 C 0.53099 0.07151 0.01099 0.0
C484 C 0.58357 0.05585 0.95729 0.0
C485 C 0.62121 0.09962 0.91912 0.0
C486 C 0.46554 0.14989 0.08546 0.0
C487 C 0.59753 0.99317 0.93728 0.0
C488 C 0.45236 0.94454 0.11624 0.0
C489 C 0.41102 0.9298 0.10065 0.0
C490 C 0.48941 0.99273 0.09016 0.0
C491 C 0.48633 0.02583 0.04587 0.0
C492 C 0.44387 1.01162 0.03063 0.0
C493 C 0.40691 0.96342 0.058 0.0
C494 C 0.5327 1.00733 0.10896 0.0
C495 C 0.43868 0.04635 0.98413 0.0
H496 H 0.54676 0.21945 0.9985 0.0
H497 H 0.65867 0.08803 0.87542 0.0
H498 H 0.4267 0.12421 0.09455 0.0
H499 H 0.47336 0.14268 0.12301 0.0
H500 H 0.45582 0.19681 0.08488 0.0
H501 H 0.64216 0.98803 0.89694 0.0
H502 H 0.59398 0.96577 0.97433 0.0
H503 H 0.56537 0.97642 0.92603 0.0
H504 H 0.45675 0.91739 0.1479 0.0
H505 H 0.3752 0.95162 0.04566 0.0
H506 H 0.52509 0.05242 0.12685 0.0
H507 H 0.57799 1.00544 0.06935 0.0
H508 H 0.5292 0.97709 0.14415 0.0
H509 H 0.43218 0.09309 0.99679 0.0
H510 H 0.40175 0.03143 0.97936 0.0
H511 H 0.47984 0.0426 0.93953 0.0
C512 C 0.57961 0.94911 0.39355 0.0
C513 C 0.62003 0.93504 0.41058 0.0
C514 C 0.54235 0.99726 0.41851 0.0
C515 C 0.54417 0.03093 0.46322 0.0
C516 C 0.58568 0.01732 0.47992 0.0
C517 C 0.62296 0.96926 0.45357 0.0
C518 C 0.50009 1.01111 0.39818 0.0
C519 C 0.58935 0.05237 0.52713 0.0
C520 C 0.47184 0.17865 0.5191 0.0
C521 C 0.42131 0.16316 0.57337 0.0
C522 C 0.51085 0.13589 0.48048 0.0
C523 C 0.49904 0.07644 0.49711 0.0
C524 C 0.44574 0.06067 0.55 0.0
C525 C 0.40739 0.10436 0.58738 0.0
C526 C 0.56548 0.15473 0.42327 0.0
C527 C 0.43164 0.99801 0.57016 0.0
H528 H 0.57605 0.92141 0.36171 0.0
H529 H 0.65386 0.95791 0.46712 0.0
H530 H 0.45442 1.0089 0.43705 0.0
H531 H 0.50771 0.05614 0.38013 0.0
H532 H 0.50471 0.98062 0.36268 0.0
H533 H 0.59556 0.0991 0.51451 0.0
H534 H 0.5477 0.04812 0.57122 0.0
H535 H 0.62584 0.03807 0.5329 0.0
H536 H 0.4831 0.22433 0.50926 0.0
H537 H 0.36919 0.09269 0.63053 0.0
H538 H 0.56003 0.14443 0.38467 0.0
H539 H 0.60436 0.13104 0.41694 0.0
H540 H 0.5736 0.20223 0.42255 0.0
H541 H 0.38659 0.99275 0.60979 0.0
H542 H 0.46305 0.98168 0.58262 0.0
H543 H 0.43628 0.97033 0.53281 0.0
C544 C 0.23199 0.73128 0.39274 0.0
C545 C 0.28969 0.73393 0.34466 0.0
C546 C 0.21922 0.72882 0.45242 0.0
C547 C 0.26521 0.72684 0.46444 0.0
C548 C 0.32369 0.72226 0.41524 0.0
C549 C 0.33532 0.72661 0.35572 0.0
C550 C 0.15654 0.73253 0.50227 0.0
C551 C 0.37428 0.71863 0.4254 0.0
C552 C 0.24556 0.80546 0.60379 0.0
C553 C 0.23435 0.75935 0.64366 0.0
C554 C 0.25429 0.79541 0.54599 0.0
C555 C 0.25307 0.73763 0.52706 0.0
C556 C 0.24138 0.69097 0.56752 0.0
C557 C 0.23262 0.70239 0.6251 0.0
C558 C 0.26495 0.8467 0.50503 0.0
C559 C 0.23892 0.62896 0.54978 0.0
H560 H 0.19689 0.73768 0.3839 0.0
H561 H 0.38019 0.73001 0.31834 0.0
H562 H 0.14345 0.68923 0.52398 0.0
H563 H 0.15137 0.76538 0.53603 0.0
H564 H 0.12686 0.74423 0.48584 0.0
H565 H 0.41566 0.70637 0.38348 0.0
H566 H 0.38065 0.76158 0.44079 0.0
H567 H 0.36502 0.6864 0.46124 0.0
H568 H 0.24737 0.84944 0.61794 0.0
H569 H 0.22569 0.66646 0.65524 0.0
H570 H 0.23165 0.84727 0.49167 0.0
H571 H 0.30848 0.84263 0.46303 0.0
H572 H 0.26316 0.88887 0.52694 0.0
H573 H 0.20276 0.6241 0.54094 0.0
H574 H 0.23183 0.59738 0.58549 0.0
H575 H 0.28018 0.61772 0.50736 0.0
C576 C 0.78619 0.80781 0.91488 0.0
C577 C 0.79855 0.76252 0.87394 0.0
C578 C 0.7765 0.79641 0.97288 0.0
C579 C 0.77706 0.73809 0.99103 0.0
C580 C 0.78878 0.69219 0.94977 0.0
C581 C 0.79997 0.7051 0.89164 0.0
C582 C 0.76593 0.84687 0.01473 0.0
C583 C 0.78983 0.62936 0.96631 0.0
C584 C 0.7996 0.72935 0.12385 0.0
C585 C 0.74215 0.73372 0.17225 0.0
C586 C 0.81158 0.72555 0.06452 0.0
C587 C 0.7651 0.72608 0.0533 0.0
C588 C 0.70677 0.72271 0.10284 0.0
C589 C 0.6959 0.72699 0.16203 0.0
C590 C 0.87399 0.72652 0.01381 0.0
C591 C 0.6558 0.72001 0.09325 0.0
H592 H 0.78502 0.85213 0.90117 0.0
H593 H 0.80863 0.66982 0.86024 0.0
H594 H 0.72193 0.84297 0.05614 0.0
H595 H 0.79852 0.84609 0.02904 0.0
H596 H 0.76889 0.88957 0.99316 0.0
H597 H 0.78081 0.59945 0.93837 0.0
H598 H 0.83393 0.61874 0.95778 0.0
H599 H 0.75747 0.62077 0.01473 0.0
H600 H 0.83525 0.73528 0.13192 0.0
H601 H 0.65127 0.73127 0.19969 0.0
H602 H 0.88257 0.76784 0.9884 0.0
H603 H 0.88116 0.68974 0.98319 0.0
H604 H 0.90532 0.72273 0.02966 0.0
H605 H 0.65003 0.76306 0.0776 0.0
H606 H 0.61438 0.70839 0.13548 0.0
H607 H 0.66429 0.68762 0.05775 0.0
C608 C 0.72819 0.22731 0.39135 0.0
C609 C 0.78594 0.22673 0.34314 0.0
C610 C 0.71541 0.22683 0.45102 0.0
C611 C 0.76138 0.2248 0.46299 0.0
C612 C 0.8196 0.21718 0.41414 0.0
C613 C 0.83126 0.2185 0.3545 0.0
C614 C 0.65297 0.23309 0.50087 0.0
C615 C 0.87011 0.21383 0.42442 0.0
C616 C 0.74263 0.31016 0.59849 0.0
C617 C 0.72962 0.266 0.6408 0.0
C618 C 0.7521 0.29727 0.54087 0.0
C619 C 0.74957 0.23862 0.52487 0.0
C620 C 0.73645 0.19392 0.56769 0.0
C621 C 0.72706 0.20817 0.6249 0.0
C622 C 0.76491 0.34647 0.49699 0.0
C623 C 0.73302 0.13103 0.55294 0.0
H624 H 0.69335 0.23468 0.38231 0.0
H625 H 0.87622 0.21954 0.31698 0.0
H626 H 0.64071 0.19334 0.52882 0.0
H627 H 0.64832 0.27127 0.52926 0.0
H628 H 0.62247 0.23822 0.48412 0.0
H629 H 0.91089 0.19876 0.38339 0.0
H630 H 0.87826 0.25761 0.4367 0.0
H631 H 0.85972 0.18397 0.46243 0.0
H632 H 0.74518 0.35477 0.61059 0.0
H633 H 0.71894 0.17371 0.65693 0.0
H634 H 0.73179 0.34692 0.48341 0.0
H635 H 0.80831 0.33987 0.45539 0.0
H636 H 0.76471 0.38959 0.51651 0.0
H637 H 0.69645 0.12516 0.5449 0.0
H638 H 0.72591 0.10117 0.58994 0.0
H639 H 0.77384 0.1182 0.51083 0.0
C640 C 0.29481 0.2233 0.11517 0.0
C641 C 0.23774 0.22847 0.16397 0.0
C642 C 0.30606 0.22116 0.05611 0.0
C643 C 0.25927 0.22456 0.0455 0.0
C644 C 0.20102 0.22265 0.09534 0.0
C645 C 0.19088 0.22498 0.15435 0.0
C646 C 0.36828 0.22124 0.0051 0.0
C647 C 0.1496 0.22392 0.08644 0.0
C648 C 0.28349 0.31152 0.90883 0.0
C649 C 0.29323 0.26747 0.86743 0.0
C650 C 0.27351 0.29796 0.96648 0.0
C651 C 0.27136 0.23881 0.98366 0.0
C652 C 0.28104 0.19421 0.94174 0.0
C653 C 0.29192 0.20916 0.88414 0.0
C654 C 0.26523 0.347 0.00906 0.0
C655 C 0.27788 0.13069 0.9581 0.0
H656 H 0.33094 0.22705 0.12281 0.0
H657 H 0.14657 0.22998 0.19244 0.0
H658 H 0.37347 0.18806 0.97178 0.0
H659 H 0.37866 0.26467 0.98321 0.0
H660 H 0.39953 0.21165 0.02011 0.0
H661 H 0.10802 0.2126 0.12862 0.0
H662 H 0.14519 0.26823 0.0722 0.0
H663 H 0.15649 0.1932 0.05022 0.0
H664 H 0.28424 0.35653 0.89586 0.0
H665 H 0.29794 0.17499 0.85251 0.0
H666 H 0.29799 0.34342 0.02297 0.0
H667 H 0.22124 0.34396 0.05062 0.0
H668 H 0.26974 0.39048 0.98828 0.0
H669 H 0.3007 0.12226 0.98291 0.0
H670 H 0.29719 0.10226 0.91749 0.0
H671 H 0.23137 0.11814 0.98832 0.0
C672 C 0.41714 0.35852 0.23165 0.0
C673 C 0.37415 0.32004 0.27334 0.0
C674 C 0.47425 0.35854 0.22119 0.0
C675 C 0.48913 0.31938 0.25337 0.0
C676 C 0.44636 0.27983 0.29489 0.0
C677 C 0.38955 0.28052 0.30423 0.0
C678 C 0.51863 0.40082 0.17581 0.0
C679 C 0.46039 0.23729 0.33008 0.0
C680 C 0.65097 0.28872 0.19083 0.0
C681 C 0.66371 0.32657 0.2252 0.0
C682 C 0.59442 0.28559 0.19975 0.0
C683 C 0.54911 0.32086 0.24442 0.0
C684 C 0.56145 0.35868 0.27968 0.0
C685 C 0.61844 0.36125 0.26951 0.0
C686 C 0.58324 0.24475 0.16107 0.0
C687 C 0.51438 0.39661 0.32823 0.0
H688 H 0.40623 0.38898 0.20702 0.0
H689 H 0.35702 0.25038 0.33632 0.0
H690 H 0.53421 0.43031 0.19849 0.0
H691 H 0.55728 0.37679 0.14035 0.0
H692 H 0.50053 0.42769 0.15363 0.0
H693 H 0.42269 0.20867 0.35982 0.0
H694 H 0.49796 0.20952 0.29863 0.0
H695 H 0.47344 0.26132 0.35845 0.0
H696 H 0.6853 0.26148 0.15665 0.0
H697 H 0.62734 0.39037 0.29674 0.0
H698 H 0.56758 0.2697 0.13548 0.0
H699 H 0.54834 0.21322 0.19008 0.0
H700 H 0.62302 0.22009 0.12843 0.0
H701 H 0.49739 0.42716 0.30774 0.0
H702 H 0.53053 0.42231 0.35304 0.0
H703 H 0.47709 0.36931 0.3612 0.0
C704 C 0.61376 0.69753 0.79544 0.0
C705 C 0.66213 0.71228 0.739 0.0
C706 C 0.55762 0.6925 0.80357 0.0
C707 C 0.55006 0.70193 0.75386 0.0
C708 C 0.59968 0.7129 0.6959 0.0
C709 C 0.65493 0.71868 0.68938 0.0
C710 C 0.5059 0.68126 0.86613 0.0
C711 C 0.59389 0.72278 0.64153 0.0
C712 C 0.4049 0.67263 0.76281 0.0
C713 C 0.37983 0.72833 0.77629 0.0
C714 C 0.45975 0.66264 0.75678 0.0
C715 C 0.49025 0.70962 0.76375 0.0
C716 C 0.46473 0.76573 0.77767 0.0
C717 C 0.40992 0.7742 0.78412 0.0
C718 C 0.48466 0.60187 0.74376 0.0
C719 C 0.49579 0.81735 0.78472 0.0
H720 H 0.61916 0.69367 0.83402 0.0
H721 H 0.69241 0.73016 0.64565 0.0
H722 H 0.47963 0.72161 0.88405 0.0
H723 H 0.47707 0.64753 0.86455 0.0
H724 H 0.51954 0.66727 0.89806 0.0
H725 H 0.63696 0.72182 0.59853 0.0
H726 H 0.56508 0.68937 0.63933 0.0
H727 H 0.57347 0.76587 0.64552 0.0
H728 H 0.38141 0.63685 0.7577 0.0
H729 H 0.391 0.81745 0.79436 0.0
H730 H 0.48319 0.58437 0.78449 0.0
H731 H 0.53119 0.6023 0.70662 0.0
H732 H 0.45984 0.57192 0.73145 0.0
H733 H 0.50622 0.80841 0.82022 0.0
H734 H 0.46931 0.85781 0.79695 0.0
H735 H 0.53781 0.82508 0.7418 0.0
C736 C 0.14461 0.80021 0.20251 0.0
C737 C 0.16002 0.83846 0.23439 0.0
C738 C 0.0879 0.80013 0.21178 0.0
C739 C 0.04525 0.83918 0.25403 0.0
C740 C 0.06035 0.87773 0.28653 0.0
C741 C 0.11737 0.87693 0.27634 0.0
C742 C 0.07363 0.75823 0.17624 0.0
C743 C 1.01621 0.91983 0.3323 0.0
C744 C 0.91458 0.87727 0.23907 0.0
C745 C 0.87036 0.84135 0.28311 0.0
C746 C 0.97152 0.87693 0.22912 0.0
C747 C 0.98491 0.83989 0.26406 0.0
C748 C 0.94062 0.80357 0.30858 0.0
C749 C 0.88405 0.80467 0.3175 0.0
C750 C 0.01745 0.9161 0.18092 0.0
C751 C 0.95303 0.76341 0.3468 0.0
H752 H 0.17693 0.77017 0.17011 0.0
H753 H 0.12843 0.90663 0.30146 0.0
H754 H 0.03694 0.72943 0.20758 0.0
H755 H 0.05915 0.78266 0.14931 0.0
H756 H 0.11162 0.73064 0.14509 0.0
H757 H 0.03542 0.94826 0.35231 0.0
H758 H 0.99823 0.94775 0.31081 0.0
H759 H 0.97903 0.89542 0.36932 0.0
H760 H 0.90488 0.90566 0.21195 0.0
H761 H 0.85051 0.77664 0.35156 0.0
H762 H 0.05396 0.88946 0.14591 0.0
H763 H 0.03603 0.94525 0.20095 0.0
H764 H 0.99975 0.94331 0.15857 0.0
H765 H 0.98834 0.73247 0.3174 0.0
H766 H 0.91383 0.7381 0.3797 0.0
H767 H 0.96867 0.78898 0.37206 0.0
C768 C 0.1187 0.19177 0.76921 0.0
C769 C 0.15729 0.23278 0.72722 0.0
C770 C 0.06263 0.18308 0.77796 0.0
C771 C 0.04488 0.21625 0.74402 0.0
C772 C 0.08525 0.25478 0.69884 0.0
C773 C 0.14069 0.26273 0.69123 0.0
C774 C 0.02156 0.14071 0.82579 0.0
C775 C 0.06882 0.29002 0.66057 0.0
C776 C 0.90653 0.18892 0.73923 0.0
C777 C 0.86966 0.23274 0.77797 0.0
C778 C 0.96278 0.18049 0.73005 0.0
C779 C 0.98252 0.21685 0.76022 0.0
C780 C 0.94401 0.25879 0.80199 0.0
C781 C 0.88832 0.26625 0.81021 0.0
C782 C 1.00168 0.13461 0.68579 0.0
C783 C 0.96262 0.2979 0.83598 0.0
H784 H 0.13128 0.16827 0.79702 0.0
H785 H 0.17058 0.29384 0.65795 0.0
H786 H 0.9926 0.16472 0.86834 0.0
H787 H 0.99348 0.11813 0.81218 0.0
H788 H 0.04596 0.10754 0.83517 0.0
H789 H 0.10669 0.31423 0.624 0.0
H790 H 0.05077 0.26115 0.6398 0.0
H791 H 0.03425 0.32184 0.6895 0.0
H792 H 0.89229 0.16251 0.71452 0.0
H793 H 0.85986 0.29971 0.84095 0.0
H794 H 0.03236 0.11603 0.69815 0.0
H795 H 0.02784 0.15443 0.64018 0.0
H796 H 0.97529 0.0987 0.68315 0.0
H797 H 0.97985 0.2715 0.85923 0.0
H798 H 0.92609 0.32522 0.87016 0.0
H799 H 0.9984 0.32708 0.80366 0.0
loop_
_geom_bond_atom_site_label_1
_geom_bond_atom_site_label_2
_geom_bond_distance
_geom_bond_site_symmetry_2
_ccdc_geom_bond_type
Mn0 O5 2.095 . S
Mn0 O15 2.162 . S
Mn0 O16 2.297 . S
Mn0 O24 2.385 . S
Mn0 O25 2.209 . S
Mn0 O26 2.094 . S
Mn1 O6 2.121 . S
Mn1 N8 2.257 . S
Mn1 N17 2.282 . S
Mn1 O25 2.215 . S
Mn1 O27 2.117 . S
C2 O24 1.234 . S
C2 O25 1.283 . S
C3 O15 1.281 . S
C3 O16 1.236 . S
C4 O26 1.240 . S
C4 O27 1.264 . S
O5 Mn0 2.095 . S
O5 C14 1.250 . S
O6 Mn1 2.121 . S
O6 C14 1.258 . S
C7 N8 1.326 . S
C7 C11 1.460 . S
C7 H13 0.929 . S
N8 Mn1 2.257 . S
N8 C7 1.326 . S
N8 C12 1.362 . S
C9 C10 1.258 . S
C9 C12 1.431 . S
C9 C29 1.449 . S
C10 C9 1.258 . S
C10 C11 1.477 . S
C10 H30 0.931 . S
C11 C7 1.460 . S
C11 C10 1.477 . S
C11 H31 0.930 . S
C12 N8 1.362 . S
C12 C9 1.431 . S
C12 C22 1.476 . S
H13 C7 0.929 . S
C14 O5 1.250 . S
C14 O6 1.258 . S
O15 Mn0 2.162 . S
O15 C3 1.281 . S
O16 Mn0 2.297 . S
O16 C3 1.236 . S
N17 Mn1 2.282 . S
N17 C18 1.328 . S
N17 C22 1.318 . S
C18 N17 1.328 . S
C18 C19 1.457 . S
C18 H23 0.929 . S
C19 C18 1.457 . S
C19 C20 1.291 . S
C19 H32 0.931 . S
C20 C19 1.291 . S
C20 C21 1.373 . S
C20 H33 0.929 . S
C21 C20 1.373 . S
C21 C22 1.396 . S
C21 C28 1.403 . S
C22 C12 1.476 . S
C22 N17 1.318 . S
C22 C21 1.396 . S
H23 C18 0.929 . S
O24 Mn0 2.385 . S
O24 C2 1.234 . S
O25 Mn0 2.209 . S
O25 Mn1 2.215 . S
O25 C2 1.283 . S
O26 Mn0 2.094 . S
O26 C4 1.240 . S
O27 Mn1 2.117 . S
O27 C4 1.264 . S
C28 C21 1.403 . S
C28 C29 1.399 . S
C28 H34 0.929 . S
C29 C9 1.449 . S
C29 C28 1.399 . S
C29 H35 0.930 . S
H30 C10 0.931 . S
H31 C11 0.930 . S
H32 C19 0.931 . S
H33 C20 0.929 . S
H34 C28 0.929 . S
H35 C29 0.930 . S
Mn36 O41 2.095 . S
Mn36 O51 2.162 . S
Mn36 O52 2.297 . S
Mn36 O60 2.385 . S
Mn36 O61 2.209 . S
Mn36 O62 2.094 . S
Mn37 O42 2.121 . S
Mn37 N44 2.257 . S
Mn37 N53 2.282 . S
Mn37 O61 2.215 . S
Mn37 O63 2.117 . S
C38 O60 1.234 . S
C38 O61 1.283 . S
C39 O51 1.281 . S
C39 O52 1.236 . S
C40 O62 1.240 . S
C40 O63 1.264 . S
O41 Mn36 2.095 . S
O41 C50 1.250 . S
O42 Mn37 2.121 . S
O42 C50 1.258 . S
C43 N44 1.326 . S
C43 C47 1.460 . S
C43 H49 0.929 . S
N44 Mn37 2.257 . S
N44 C43 1.326 . S
N44 C48 1.362 . S
C45 C46 1.258 . S
C45 C48 1.431 . S
C45 C65 1.449 . S
C46 C45 1.258 . S
C46 C47 1.477 . S
C46 H66 0.931 . S
C47 C43 1.460 . S
C47 C46 1.477 . S
C47 H67 0.930 . S
C48 N44 1.362 . S
C48 C45 1.431 . S
C48 C58 1.476 . S
H49 C43 0.929 . S
C50 O41 1.250 . S
C50 O42 1.258 . S
O51 Mn36 2.162 . S
O51 C39 1.281 . S
O52 Mn36 2.297 . S
O52 C39 1.236 . S
N53 Mn37 2.282 . S
N53 C54 1.328 . S
N53 C58 1.318 . S
C54 N53 1.328 . S
C54 C55 1.457 . S
C54 H59 0.929 . S
C55 C54 1.457 . S
C55 C56 1.291 . S
C55 H68 0.931 . S
C56 C55 1.291 . S
C56 C57 1.373 . S
C56 H69 0.929 . S
C57 C56 1.373 . S
C57 C58 1.396 . S
C57 C64 1.403 . S
C58 C48 1.476 . S
C58 N53 1.318 . S
C58 C57 1.396 . S
H59 C54 0.929 . S
O60 Mn36 2.385 . S
O60 C38 1.234 . S
O61 Mn36 2.209 . S
O61 Mn37 2.215 . S
O61 C38 1.283 . S
O62 Mn36 2.094 . S
O62 C40 1.240 . S
O63 Mn37 2.117 . S
O63 C40 1.264 . S
C64 C57 1.403 . S
C64 C65 1.399 . S
C64 H70 0.929 . S
C65 C45 1.449 . S
C65 C64 1.399 . S
C65 H71 0.930 . S
H66 C46 0.931 . S
H67 C47 0.930 . S
H68 C55 0.931 . S
H69 C56 0.929 . S
H70 C64 0.929 . S
H71 C65 0.930 . S
Mn72 O77 2.095 . S
Mn72 O87 2.162 . S
Mn72 O88 2.297 . S
Mn72 O96 2.385 . S
Mn72 O97 2.209 . S
Mn72 O98 2.094 . S
Mn73 O78 2.121 . S
Mn73 N80 2.257 . S
Mn73 N89 2.282 . S
Mn73 O97 2.215 . S
Mn73 O99 2.117 . S
C74 O96 1.234 . S
C74 O97 1.283 . S
C75 O87 1.281 . S
C75 O88 1.236 . S
C76 O98 1.240 . S
C76 O99 1.264 . S
O77 Mn72 2.095 . S
O77 C86 1.250 . S
O78 Mn73 2.121 . S
O78 C86 1.258 . S
C79 N80 1.326 . S
C79 C83 1.460 . S
C79 H85 0.929 . S
N80 Mn73 2.257 . S
N80 C79 1.326 . S
N80 C84 1.362 . S
C81 C82 1.258 . S
C81 C84 1.431 . S
C81 C101 1.449 . S
C82 C81 1.258 . S
C82 C83 1.477 . S
C82 H102 0.931 . S
C83 C79 1.460 . S
C83 C82 1.477 . S
C83 H103 0.930 . S
C84 N80 1.362 . S
C84 C81 1.431 . S
C84 C94 1.476 . S
H85 C79 0.929 . S
C86 O77 1.250 . S
C86 O78 1.258 . S
O87 Mn72 2.162 . S
O87 C75 1.281 . S
O88 Mn72 2.297 . S
O88 C75 1.236 . S
N89 Mn73 2.282 . S
N89 C90 1.328 . S
N89 C94 1.318 . S
C90 N89 1.328 . S
C90 C91 1.457 . S
C90 H95 0.929 . S
C91 C90 1.457 . S
C91 C92 1.291 . S
C91 H104 0.931 . S
C92 C91 1.291 . S
C92 C93 1.373 . S
C92 H105 0.929 . S
C93 C92 1.373 . S
C93 C94 1.396 . S
C93 C100 1.403 . S
C94 C84 1.476 . S
C94 N89 1.318 . S
C94 C93 1.396 . S
H95 C90 0.929 . S
O96 Mn72 2.385 . S
O96 C74 1.234 . S
O97 Mn72 2.209 . S
O97 Mn73 2.215 . S
O97 C74 1.283 . S
O98 Mn72 2.094 . S
O98 C76 1.240 . S
O99 Mn73 2.117 . S
O99 C76 1.264 . S
C100 C93 1.403 . S
C100 C101 1.399 . S
C100 H106 0.929 . S
C101 C81 1.449 . S
C101 C100 1.399 . S
C101 H107 0.930 . S
H102 C82 0.931 . S
H103 C83 0.930 . S
H104 C91 0.931 . S
H105 C92 0.929 . S
H106 C100 0.929 . S
H107 C101 0.930 . S
Mn108 O113 2.095 . S
Mn108 O123 2.162 . S
Mn108 O124 2.297 . S
Mn108 O132 2.385 . S
Mn108 O133 2.209 . S
Mn108 O134 2.094 . S
Mn109 O114 2.121 . S
Mn109 N116 2.257 . S
Mn109 N125 2.282 . S
Mn109 O133 2.215 . S
Mn109 O135 2.117 . S
C110 O132 1.234 . S
C110 O133 1.283 . S
C111 O123 1.281 . S
C111 O124 1.236 . S
C112 O134 1.240 . S
C112 O135 1.264 . S
O113 Mn108 2.095 . S
O113 C122 1.250 . S
O114 Mn109 2.121 . S
O114 C122 1.258 . S
C115 N116 1.326 . S
C115 C119 1.460 . S
C115 H121 0.929 . S
N116 Mn109 2.257 . S
N116 C115 1.326 . S
N116 C120 1.362 . S
C117 C118 1.258 . S
C117 C120 1.431 . S
C117 C137 1.449 . S
C118 C117 1.258 . S
C118 C119 1.477 . S
C118 H138 0.931 . S
C119 C115 1.460 . S
C119 C118 1.477 . S
C119 H139 0.930 . S
C120 N116 1.362 . S
C120 C117 1.431 . S
C120 C130 1.476 . S
H121 C115 0.929 . S
C122 O113 1.250 . S
C122 O114 1.258 . S
O123 Mn108 2.162 . S
O123 C111 1.281 . S
O124 Mn108 2.297 . S
O124 C111 1.236 . S
N125 Mn109 2.282 . S
N125 C126 1.328 . S
N125 C130 1.318 . S
C126 N125 1.328 . S
C126 C127 1.457 . S
C126 H131 0.929 . S
C127 C126 1.457 . S
C127 C128 1.291 . S
C127 H140 0.931 . S
C128 C127 1.291 . S
C128 C129 1.373 . S
C128 H141 0.929 . S
C129 C128 1.373 . S
C129 C130 1.396 . S
C129 C136 1.403 . S
C130 C120 1.476 . S
C130 N125 1.318 . S
C130 C129 1.396 . S
H131 C126 0.929 . S
O132 Mn108 2.385 . S
O132 C110 1.234 . S
O133 Mn108 2.209 . S
O133 Mn109 2.215 . S
O133 C110 1.283 . S
O134 Mn108 2.094 . S
O134 C112 1.240 . S
O135 Mn109 2.117 . S
O135 C112 1.264 . S
C136 C129 1.403 . S
C136 C137 1.399 . S
C136 H142 0.929 . S
C137 C117 1.449 . S
C137 C136 1.399 . S
C137 H143 0.930 . S
H138 C118 0.931 . S
H139 C119 0.930 . S
H140 C127 0.931 . S
H141 C128 0.929 . S
H142 C136 0.929 . S
H143 C137 0.930 . S
Mn144 O149 2.095 . S
Mn144 O159 2.162 . S
Mn144 O160 2.297 . S
Mn144 O168 2.385 . S
Mn144 O169 2.209 . S
Mn144 O170 2.094 . S
Mn145 O150 2.121 . S
Mn145 N152 2.257 . S
Mn145 N161 2.282 . S
Mn145 O169 2.215 . S
Mn145 O171 2.117 . S
C146 O168 1.234 . S
C146 O169 1.283 . S
C147 O159 1.281 . S
C147 O160 1.236 . S
C148 O170 1.240 . S
C148 O171 1.264 . S
O149 Mn144 2.095 . S
O149 C158 1.250 . S
O150 Mn145 2.121 . S
O150 C158 1.258 . S
C151 N152 1.326 . S
C151 C155 1.460 . S
C151 H157 0.929 . S
N152 Mn145 2.257 . S
N152 C151 1.326 . S
N152 C156 1.362 . S
C153 C154 1.258 . S
C153 C156 1.431 1_545 S
C153 C173 1.449 . S
C154 C153 1.258 . S
C154 C155 1.477 1_545 S
C154 H174 0.931 . S
C155 C151 1.460 . S
C155 C154 1.477 1_565 S
C155 H175 0.930 . S
C156 N152 1.362 . S
C156 C153 1.431 1_565 S
C156 C166 1.476 1_565 S
H157 C151 0.929 . S
C158 O149 1.250 . S
C158 O150 1.258 . S
O159 Mn144 2.162 . S
O159 C147 1.281 . S
O160 Mn144 2.297 . S
O160 C147 1.236 . S
N161 Mn145 2.282 . S
N161 C162 1.328 . S
N161 C166 1.316 1_565 S
C162 N161 1.328 . S
C162 C163 1.457 1_565 S
C162 H167 0.929 . S
C163 C162 1.457 1_545 S
C163 C164 1.291 . S
C163 H176 0.931 . S
C164 C163 1.291 . S
C164 C165 1.373 . S
C164 H177 0.929 . S
C165 C164 1.373 . S
C165 C166 1.397 . S
C165 C172 1.403 . S
C166 C156 1.476 1_545 S
C166 N161 1.316 1_545 S
C166 C165 1.397 . S
H167 C162 0.929 . S
O168 Mn144 2.385 . S
O168 C146 1.234 . S
O169 Mn144 2.209 . S
O169 Mn145 2.215 . S
O169 C146 1.283 . S
O170 Mn144 2.094 . S
O170 C148 1.240 . S
O171 Mn145 2.117 . S
O171 C148 1.264 . S
C172 C165 1.403 . S
C172 C173 1.399 . S
C172 H178 0.929 . S
C173 C153 1.449 . S
C173 C172 1.399 . S
C173 H179 0.930 . S
H174 C154 0.931 . S
H175 C155 0.930 . S
H176 C163 0.931 . S
H177 C164 0.929 . S
H178 C172 0.929 . S
H179 C173 0.930 . S
Mn180 O185 2.095 . S
Mn180 O195 2.162 . S
Mn180 O196 2.297 . S
Mn180 O204 2.385 . S
Mn180 O205 2.209 . S
Mn180 O206 2.094 . S
Mn181 O186 2.121 . S
Mn181 N188 2.257 . S
Mn181 N197 2.282 . S
Mn181 O205 2.215 . S
Mn181 O207 2.117 . S
C182 O204 1.234 . S
C182 O205 1.283 . S
C183 O195 1.281 . S
C183 O196 1.236 . S
C184 O206 1.240 . S
C184 O207 1.264 . S
O185 Mn180 2.095 . S
O185 C194 1.250 . S
O186 Mn181 2.121 . S
O186 C194 1.258 . S
C187 N188 1.326 . S
C187 C191 1.460 . S
C187 H193 0.929 . S
N188 Mn181 2.257 . S
N188 C187 1.326 . S
N188 C192 1.362 . S
C189 C190 1.258 . S
C189 C192 1.431 1_545 S
C189 C209 1.449 . S
C190 C189 1.258 . S
C190 C191 1.477 1_545 S
C190 H210 0.931 . S
C191 C187 1.460 . S
C191 C190 1.477 1_565 S
C191 H211 0.930 . S
C192 N188 1.362 . S
C192 C189 1.431 1_565 S
C192 C202 1.476 1_565 S
H193 C187 0.929 . S
C194 O185 1.250 . S
C194 O186 1.258 . S
O195 Mn180 2.162 . S
O195 C183 1.281 . S
O196 Mn180 2.297 . S
O196 C183 1.236 . S
N197 Mn181 2.282 . S
N197 C198 1.328 . S
N197 C202 1.316 1_565 S
C198 N197 1.328 . S
C198 C199 1.457 1_565 S
C198 H203 0.929 . S
C199 C198 1.457 1_545 S
C199 C200 1.291 . S
C199 H212 0.931 . S
C200 C199 1.291 . S
C200 C201 1.373 . S
C200 H213 0.929 . S
C201 C200 1.373 . S
C201 C202 1.397 . S
C201 C208 1.403 . S
C202 C192 1.476 1_545 S
C202 N197 1.316 1_545 S
C202 C201 1.397 . S
H203 C198 0.929 . S
O204 Mn180 2.385 . S
O204 C182 1.234 . S
O205 Mn180 2.209 . S
O205 Mn181 2.215 . S
O205 C182 1.283 . S
O206 Mn180 2.094 . S
O206 C184 1.240 . S
O207 Mn181 2.117 . S
O207 C184 1.264 . S
C208 C201 1.403 . S
C208 C209 1.399 . S
C208 H214 0.929 . S
C209 C189 1.449 . S
C209 C208 1.399 . S
C209 H215 0.930 . S
H210 C190 0.931 . S
H211 C191 0.930 . S
H212 C199 0.931 . S
H213 C200 0.929 . S
H214 C208 0.929 . S
H215 C209 0.930 . S
Mn216 O221 2.095 . S
Mn216 O231 2.162 . S
Mn216 O232 2.297 . S
Mn216 O240 2.385 . S
Mn216 O241 2.209 . S
Mn216 O242 2.094 . S
Mn217 O222 2.121 . S
Mn217 N224 2.257 . S
Mn217 N233 2.282 . S
Mn217 O241 2.215 . S
Mn217 O243 2.117 . S
C218 O240 1.234 . S
C218 O241 1.283 . S
C219 O231 1.281 . S
C219 O232 1.236 . S
C220 O242 1.240 . S
C220 O243 1.264 . S
O221 Mn216 2.095 . S
O221 C230 1.250 . S
O222 Mn217 2.121 . S
O222 C230 1.258 . S
C223 N224 1.326 . S
C223 C227 1.460 . S
C223 H229 0.929 . S
N224 Mn217 2.257 . S
N224 C223 1.326 . S
N224 C228 1.362 . S
C225 C226 1.258 . S
C225 C228 1.431 . S
C225 C245 1.449 . S
C226 C225 1.258 . S
C226 C227 1.477 . S
C226 H246 0.931 . S
C227 C223 1.460 . S
C227 C226 1.477 . S
C227 H247 0.930 . S
C228 N224 1.362 . S
C228 C225 1.431 . S
C228 C238 1.476 . S
H229 C223 0.929 . S
C230 O221 1.250 . S
C230 O222 1.258 . S
O231 Mn216 2.162 . S
O231 C219 1.281 . S
O232 Mn216 2.297 . S
O232 C219 1.236 . S
N233 Mn217 2.282 . S
N233 C234 1.328 . S
N233 C238 1.318 . S
C234 N233 1.328 . S
C234 C235 1.457 . S
C234 H239 0.929 . S
C235 C234 1.457 . S
C235 C236 1.291 . S
C235 H248 0.931 . S
C236 C235 1.291 . S
C236 C237 1.373 . S
C236 H249 0.929 . S
C237 C236 1.373 . S
C237 C238 1.396 . S
C237 C244 1.403 . S
C238 C228 1.476 . S
C238 N233 1.318 . S
C238 C237 1.396 . S
H239 C234 0.929 . S
O240 Mn216 2.385 . S
O240 C218 1.234 . S
O241 Mn216 2.209 . S
O241 Mn217 2.215 . S
O241 C218 1.283 . S
O242 Mn216 2.094 . S
O242 C220 1.240 . S
O243 Mn217 2.117 . S
O243 C220 1.264 . S
C244 C237 1.403 . S
C244 C245 1.399 . S
C244 H250 0.929 . S
C245 C225 1.449 . S
C245 C244 1.399 . S
C245 H251 0.930 . S
H246 C226 0.931 . S
H247 C227 0.930 . S
H248 C235 0.931 . S
H249 C236 0.929 . S
H250 C244 0.929 . S
H251 C245 0.930 . S
Mn252 O257 2.095 . S
Mn252 O267 2.162 . S
Mn252 O268 2.297 . S
Mn252 O276 2.385 . S
Mn252 O277 2.209 . S
Mn252 O278 2.094 . S
Mn253 O258 2.121 . S
Mn253 N260 2.257 . S
Mn253 N269 2.282 . S
Mn253 O277 2.215 . S
Mn253 O279 2.117 . S
C254 O276 1.234 . S
C254 O277 1.283 . S
C255 O267 1.281 . S
C255 O268 1.236 . S
C256 O278 1.240 . S
C256 O279 1.264 . S
O257 Mn252 2.095 . S
O257 C266 1.250 . S
O258 Mn253 2.121 . S
O258 C266 1.258 . S
C259 N260 1.326 . S
C259 C263 1.460 . S
C259 H265 0.929 . S
N260 Mn253 2.257 . S
N260 C259 1.326 . S
N260 C264 1.362 . S
C261 C262 1.258 . S
C261 C264 1.431 . S
C261 C281 1.449 . S
C262 C261 1.258 . S
C262 C263 1.477 . S
C262 H282 0.931 . S
C263 C259 1.460 . S
C263 C262 1.477 . S
C263 H283 0.930 . S
C264 N260 1.362 . S
C264 C261 1.431 . S
C264 C274 1.476 . S
H265 C259 0.929 . S
C266 O257 1.250 . S
C266 O258 1.258 . S
O267 Mn252 2.162 . S
O267 C255 1.281 . S
O268 Mn252 2.297 . S
O268 C255 1.236 . S
N269 Mn253 2.282 . S
N269 C270 1.328 . S
N269 C274 1.318 . S
C270 N269 1.328 . S
C270 C271 1.457 . S
C270 H275 0.929 . S
C271 C270 1.457 . S
C271 C272 1.291 . S
C271 H284 0.931 . S
C272 C271 1.291 . S
C272 C273 1.373 . S
C272 H285 0.929 . S
C273 C272 1.373 . S
C273 C274 1.396 . S
C273 C280 1.403 . S
C274 C264 1.476 . S
C274 N269 1.318 . S
C274 C273 1.396 . S
H275 C270 0.929 . S
O276 Mn252 2.385 . S
O276 C254 1.234 . S
O277 Mn252 2.209 . S
O277 Mn253 2.215 . S
O277 C254 1.283 . S
O278 Mn252 2.094 . S
O278 C256 1.240 . S
O279 Mn253 2.117 . S
O279 C256 1.264 . S
C280 C273 1.403 . S
C280 C281 1.399 . S
C280 H286 0.929 . S
C281 C261 1.449 . S
C281 C280 1.399 . S
C281 H287 0.930 . S
H282 C262 0.931 . S
H283 C263 0.930 . S
H284 C271 0.931 . S
H285 C272 0.929 . S
H286 C280 0.929 . S
H287 C281 0.930 . S
C288 C289 1.391 . S
C288 C290 1.394 1_455 S
C288 H304 0.931 1_455 S
C289 C288 1.391 . S
C289 C293 1.376 . S
C290 C288 1.394 1_655 S
C290 C291 1.369 1_655 S
C290 C294 1.531 . S
C291 C290 1.369 1_455 S
C291 C292 1.410 . S
C291 C299 1.503 1_445 S
C292 C291 1.410 . S
C292 C293 1.392 . S
C292 C295 1.511 1_545 S
C293 C289 1.376 . S
C293 C292 1.392 . S
C293 H305 0.929 . S
C294 C290 1.531 . S
C294 H306 0.960 . S
C294 H307 0.962 . S
C294 H308 0.960 . S
C295 C292 1.511 1_565 S
C295 H309 0.961 . S
C295 H310 0.961 . S
C295 H311 0.961 . S
C296 C297 1.370 . S
C296 C298 1.363 . S
C296 H312 0.931 . S
C297 C296 1.370 . S
C297 C301 1.408 . S
C298 C296 1.363 . S
C298 C299 1.370 . S
C298 C302 1.524 1_655 S
C299 C291 1.503 1_665 S
C299 C298 1.370 . S
C299 C300 1.403 . S
C300 C299 1.403 . S
C300 C301 1.404 . S
C300 C303 1.539 . S
C301 C297 1.408 . S
C301 C300 1.404 . S
C301 H313 0.930 . S
C302 C298 1.524 1_455 S
C302 H314 0.956 1_565 S
C302 H315 0.962 . S
C302 H316 0.961 . S
C303 C300 1.539 . S
C303 H317 0.958 . S
C303 H318 0.961 . S
C303 H319 0.960 . S
H304 C288 0.931 1_655 S
H305 C293 0.929 . S
H306 C294 0.960 . S
H307 C294 0.962 . S
H308 C294 0.960 . S
H309 C295 0.961 . S
H310 C295 0.961 . S
H311 C295 0.961 . S
H312 C296 0.931 . S
H313 C301 0.930 . S
H314 C302 0.956 1_545 S
H315 C302 0.962 . S
H316 C302 0.961 . S
H317 C303 0.958 . S
H318 C303 0.961 . S
H319 C303 0.960 . S
C320 C321 1.391 . S
C320 C322 1.394 1_455 S
C320 H336 0.931 1_455 S
C321 C320 1.391 . S
C321 C325 1.376 . S
C322 C320 1.394 1_655 S
C322 C323 1.369 1_655 S
C322 C326 1.531 1_556 S
C323 C322 1.369 1_455 S
C323 C324 1.410 . S
C323 C331 1.503 1_466 S
C324 C323 1.410 . S
C324 C325 1.392 . S
C324 C327 1.511 1_565 S
C325 C321 1.376 . S
C325 C324 1.392 . S
C325 H337 0.929 . S
C326 C322 1.531 1_554 S
C326 H338 0.960 . S
C326 H339 0.962 . S
C326 H340 0.960 . S
C327 C324 1.511 1_545 S
C327 H341 0.961 . S
C327 H342 0.961 . S
C327 H343 0.961 1_556 S
C328 C329 1.370 . S
C328 C330 1.365 . S
C328 H344 0.931 . S
C329 C328 1.370 . S
C329 C333 1.408 . S
C330 C328 1.365 . S
C330 C331 1.376 . S
C330 C334 1.517 1_554 S
C331 C323 1.503 1_644 S
C331 C330 1.376 . S
C331 C332 1.403 . S
C332 C331 1.403 . S
C332 C333 1.404 . S
C332 C335 1.539 1_545 S
C333 C329 1.408 . S
C333 C332 1.404 . S
C333 H345 0.930 . S
C334 C330 1.517 1_556 S
C334 H346 0.956 . S
C334 H347 0.961 1_655 S
C334 H348 0.961 . S
C335 C332 1.539 1_565 S
C335 H349 0.958 . S
C335 H350 0.961 1_565 S
C335 H351 0.960 1_655 S
H336 C320 0.931 1_655 S
H337 C325 0.929 . S
H338 C326 0.960 . S
H339 C326 0.962 . S
H340 C326 0.960 . S
H341 C327 0.961 . S
H342 C327 0.961 . S
H343 C327 0.961 1_554 S
H344 C328 0.931 . S
H345 C333 0.930 . S
H346 C334 0.956 . S
H347 C334 0.961 1_455 S
H348 C334 0.961 . S
H349 C335 0.958 . S
H350 C335 0.961 1_545 S
H351 C335 0.960 1_455 S
C352 C353 1.391 . S
C352 C354 1.394 . S
C352 H368 0.931 . S
C353 C352 1.391 . S
C353 C357 1.376 . S
C354 C352 1.394 . S
C354 C355 1.369 . S
C354 C358 1.531 . S
C355 C354 1.369 . S
C355 C356 1.410 . S
C355 C363 1.503 . S
C356 C355 1.410 . S
C356 C357 1.392 . S
C356 C359 1.511 . S
C357 C353 1.376 . S
C357 C356 1.392 . S
C357 H369 0.929 . S
C358 C354 1.531 . S
C358 H370 0.960 . S
C358 H371 0.962 . S
C358 H372 0.960 . S
C359 C356 1.511 . S
C359 H373 0.961 . S
C359 H374 0.961 . S
C359 H375 0.961 . S
C360 C361 1.370 . S
C360 C362 1.363 . S
C360 H376 0.931 . S
C361 C360 1.370 . S
C361 C365 1.408 . S
C362 C360 1.363 . S
C362 C363 1.370 . S
C362 C366 1.524 . S
C363 C355 1.503 . S
C363 C362 1.370 . S
C363 C364 1.403 . S
C364 C363 1.403 . S
C364 C365 1.404 . S
C364 C367 1.539 . S
C365 C361 1.408 . S
C365 C364 1.404 . S
C365 H377 0.930 . S
C366 C362 1.524 . S
C366 H378 0.956 . S
C366 H379 0.961 . S
C366 H380 0.961 . S
C367 C364 1.539 . S
C367 H381 0.958 . S
C367 H382 0.961 . S
C367 H383 0.960 . S
H368 C352 0.931 . S
H369 C357 0.929 . S
H370 C358 0.960 . S
H371 C358 0.962 . S
H372 C358 0.960 . S
H373 C359 0.961 . S
H374 C359 0.961 . S
H375 C359 0.961 . S
H376 C360 0.931 . S
H377 C365 0.930 . S
H378 C366 0.956 . S
H379 C366 0.961 . S
H380 C366 0.961 . S
H381 C367 0.958 . S
H382 C367 0.961 . S
H383 C367 0.960 . S
C384 C385 1.391 . S
C384 C386 1.394 . S
C384 H400 0.931 . S
C385 C384 1.391 . S
C385 C389 1.376 . S
C386 C384 1.394 . S
C386 C387 1.369 . S
C386 C390 1.531 . S
C387 C386 1.369 . S
C387 C388 1.410 . S
C387 C395 1.503 1_554 S
C388 C387 1.410 . S
C388 C389 1.392 . S
C388 C391 1.511 1_554 S
C389 C385 1.376 . S
C389 C388 1.392 . S
C389 H401 0.929 . S
C390 C386 1.531 . S
C390 H402 0.960 . S
C390 H403 0.962 . S
C390 H404 0.960 . S
C391 C388 1.511 1_556 S
C391 H405 0.961 . S
C391 H406 0.961 . S
C391 H407 0.961 1_556 S
C392 C393 1.370 . S
C392 C394 1.363 . S
C392 H408 0.931 . S
C393 C392 1.370 . S
C393 C397 1.408 . S
C394 C392 1.363 . S
C394 C395 1.370 . S
C394 C398 1.524 . S
C395 C387 1.503 1_556 S
C395 C394 1.370 . S
C395 C396 1.403 1_556 S
C396 C395 1.403 1_554 S
C396 C397 1.404 1_554 S
C396 C399 1.539 . S
C397 C393 1.408 . S
C397 C396 1.404 1_556 S
C397 H409 0.930 . S
C398 C394 1.524 . S
C398 H410 0.956 . S
C398 H411 0.961 . S
C398 H412 0.961 . S
C399 C396 1.539 . S
C399 H413 0.958 . S
C399 H414 0.961 . S
C399 H415 0.960 . S
H400 C384 0.931 . S
H401 C389 0.929 . S
H402 C390 0.960 . S
H403 C390 0.962 . S
H404 C390 0.960 . S
H405 C391 0.961 . S
H406 C391 0.961 . S
H407 C391 0.961 1_554 S
H408 C392 0.931 . S
H409 C397 0.930 . S
H410 C398 0.956 . S
H411 C398 0.961 . S
H412 C398 0.961 . S
H413 C399 0.958 . S
H414 C399 0.961 . S
H415 C399 0.960 . S
C416 C417 1.391 . S
C416 C418 1.394 . S
C416 H432 0.931 . S
C417 C416 1.391 . S
C417 C421 1.376 . S
C418 C416 1.394 . S
C418 C419 1.369 . S
C418 C422 1.531 . S
C419 C418 1.369 . S
C419 C420 1.410 . S
C419 C427 1.503 1_654 S
C420 C419 1.410 . S
C420 C421 1.392 . S
C420 C423 1.511 1_655 S
C421 C417 1.376 . S
C421 C420 1.392 . S
C421 H433 0.929 . S
C422 C418 1.531 . S
C422 H434 0.960 . S
C422 H435 0.962 . S
C422 H436 0.960 . S
C423 C420 1.511 1_455 S
C423 H437 0.961 . S
C423 H438 0.961 1_554 S
C423 H439 0.961 . S
C424 C425 1.370 . S
C424 C426 1.363 . S
C424 H440 0.931 . S
C425 C424 1.370 . S
C425 C429 1.408 . S
C426 C424 1.363 . S
C426 C427 1.370 . S
C426 C430 1.524 . S
C427 C419 1.503 1_456 S
C427 C426 1.370 . S
C427 C428 1.403 1_556 S
C428 C427 1.403 1_554 S
C428 C429 1.404 1_554 S
C428 C431 1.539 . S
C429 C425 1.408 . S
C429 C428 1.404 1_556 S
C429 H441 0.930 1_556 S
C430 C426 1.524 . S
C430 H442 0.956 1_455 S
C430 H443 0.961 . S
C430 H444 0.961 . S
C431 C428 1.539 . S
C431 H445 0.958 1_455 S
C431 H446 0.961 . S
C431 H447 0.960 1_455 S
H432 C416 0.931 . S
H433 C421 0.929 . S
H434 C422 0.960 . S
H435 C422 0.962 . S
H436 C422 0.960 . S
H437 C423 0.961 . S
H438 C423 0.961 1_556 S
H439 C423 0.961 . S
H440 C424 0.931 . S
H441 C429 0.930 1_554 S
H442 C430 0.956 1_655 S
H443 C430 0.961 . S
H444 C430 0.961 . S
H445 C431 0.958 1_655 S
H446 C431 0.961 . S
H447 C431 0.960 1_655 S
C448 C449 1.391 . S
C448 C450 1.394 . S
C448 H464 0.931 . S
C449 C448 1.391 . S
C449 C453 1.376 . S
C450 C448 1.394 . S
C450 C451 1.369 . S
C450 C454 1.531 . S
C451 C450 1.369 . S
C451 C452 1.410 . S
C451 C459 1.503 1_455 S
C452 C451 1.410 . S
C452 C453 1.392 . S
C452 C455 1.511 1_455 S
C453 C449 1.376 . S
C453 C452 1.392 . S
C453 H465 0.929 . S
C454 C450 1.531 . S
C454 H466 0.960 . S
C454 H467 0.962 . S
C454 H468 0.960 . S
C455 C452 1.511 1_655 S
C455 H469 0.961 . S
C455 H470 0.961 . S
C455 H471 0.961 . S
C456 C457 1.370 . S
C456 C458 1.363 . S
C456 H472 0.931 . S
C457 C456 1.370 . S
C457 C461 1.408 . S
C458 C456 1.363 . S
C458 C459 1.370 . S
C458 C462 1.540 . S
C459 C451 1.503 1_655 S
C459 C458 1.370 . S
C459 C460 1.403 . S
C460 C459 1.403 . S
C460 C461 1.404 . S
C460 C463 1.539 . S
C461 C457 1.408 . S
C461 C460 1.404 . S
C461 H473 0.930 . S
C462 C458 1.540 . S
C462 H474 0.939 1_655 S
C462 H475 0.966 . S
C462 H476 0.958 . S
C463 C460 1.539 . S
C463 H477 0.958 . S
C463 H478 0.961 . S
C463 H479 0.960 . S
H464 C448 0.931 . S
H465 C453 0.929 . S
H466 C454 0.960 . S
H467 C454 0.962 . S
H468 C454 0.960 . S
H469 C455 0.961 . S
H470 C455 0.961 . S
H471 C455 0.961 . S
H472 C456 0.931 . S
H473 C461 0.930 . S
H474 C462 0.939 1_455 S
H475 C462 0.966 . S
H476 C462 0.958 . S
H477 C463 0.958 . S
H478 C463 0.961 . S
H479 C463 0.960 . S
C480 C481 1.391 . S
C480 C482 1.394 1_556 S
C480 H496 0.931 . S
C481 C480 1.391 . S
C481 C485 1.376 . S
C482 C480 1.394 1_554 S
C482 C483 1.369 1_554 S
C482 C486 1.531 . S
C483 C482 1.369 1_556 S
C483 C484 1.410 . S
C483 C491 1.503 1_546 S
C484 C483 1.410 . S
C484 C485 1.392 . S
C484 C487 1.511 . S
C485 C481 1.376 . S
C485 C484 1.392 . S
C485 H497 0.929 . S
C486 C482 1.531 . S
C486 H498 0.960 . S
C486 H499 0.962 . S
C486 H500 0.960 . S
C487 C484 1.511 . S
C487 H501 0.961 . S
C487 H502 0.961 1_545 S
C487 H503 0.961 . S
C488 C489 1.370 . S
C488 C490 1.363 . S
C488 H504 0.931 . S
C489 C488 1.370 . S
C489 C493 1.408 . S
C490 C488 1.363 . S
C490 C491 1.370 . S
C490 C494 1.524 1_554 S
C491 C483 1.503 1_564 S
C491 C490 1.370 . S
C491 C492 1.403 . S
C492 C491 1.403 . S
C492 C493 1.404 . S
C492 C495 1.539 1_565 S
C493 C489 1.408 . S
C493 C492 1.404 . S
C493 H505 0.930 . S
C494 C490 1.524 1_556 S
C494 H506 0.956 . S
C494 H507 0.961 . S
C494 H508 0.961 . S
C495 C492 1.539 1_545 S
C495 H509 0.958 . S
C495 H510 0.961 . S
C495 H511 0.960 . S
H496 C480 0.931 . S
H497 C485 0.929 . S
H498 C486 0.960 . S
H499 C486 0.962 . S
H500 C486 0.960 . S
H501 C487 0.961 . S
H502 C487 0.961 1_565 S
H503 C487 0.961 . S
H504 C488 0.931 . S
H505 C493 0.930 . S
H506 C494 0.956 . S
H507 C494 0.961 . S
H508 C494 0.961 . S
H509 C495 0.958 . S
H510 C495 0.961 . S
H511 C495 0.960 . S
C512 C513 1.391 . S
C512 C514 1.394 . S
C512 H528 0.931 . S
C513 C512 1.391 . S
C513 C517 1.376 . S
C514 C512 1.394 . S
C514 C515 1.369 . S
C514 C518 1.531 . S
C515 C514 1.369 . S
C515 C516 1.410 . S
C515 C523 1.503 1_565 S
C516 C515 1.410 . S
C516 C517 1.392 . S
C516 C519 1.511 1_565 S
C517 C513 1.376 . S
C517 C516 1.392 . S
C517 H529 0.929 . S
C518 C514 1.531 . S
C518 H530 0.960 . S
C518 H531 0.962 . S
C518 H532 0.960 . S
C519 C516 1.511 1_545 S
C519 H533 0.961 . S
C519 H534 0.961 . S
C519 H535 0.961 . S
C520 C521 1.370 . S
C520 C522 1.363 . S
C520 H536 0.931 . S
C521 C520 1.370 . S
C521 C525 1.408 . S
C522 C520 1.363 . S
C522 C523 1.370 . S
C522 C526 1.524 . S
C523 C515 1.503 1_545 S
C523 C522 1.370 . S
C523 C524 1.403 . S
C524 C523 1.403 . S
C524 C525 1.404 . S
C524 C527 1.539 . S
C525 C521 1.408 . S
C525 C524 1.404 . S
C525 H537 0.930 . S
C526 C522 1.524 . S
C526 H538 0.956 1_545 S
C526 H539 0.961 . S
C526 H540 0.961 . S
C527 C524 1.539 . S
C527 H541 0.958 1_545 S
C527 H542 0.961 . S
C527 H543 0.960 . S
H528 C512 0.931 . S
H529 C517 0.929 . S
H530 C518 0.960 . S
H531 C518 0.962 . S
H532 C518 0.960 . S
H533 C519 0.961 . S
H534 C519 0.961 . S
H535 C519 0.961 . S
H536 C520 0.931 . S
H537 C525 0.930 . S
H538 C526 0.956 1_565 S
H539 C526 0.961 . S
H540 C526 0.961 . S
H541 C527 0.958 1_565 S
H542 C527 0.961 . S
H543 C527 0.960 . S
C544 C545 1.391 . S
C544 C546 1.394 . S
C544 H560 0.931 . S
C545 C544 1.391 . S
C545 C549 1.376 . S
C546 C544 1.394 . S
C546 C547 1.369 . S
C546 C550 1.531 . S
C547 C546 1.369 . S
C547 C548 1.410 . S
C547 C555 1.503 . S
C548 C547 1.410 . S
C548 C549 1.392 . S
C548 C551 1.511 . S
C549 C545 1.376 . S
C549 C548 1.392 . S
C549 H561 0.929 . S
C550 C546 1.531 . S
C550 H562 0.960 . S
C550 H563 0.962 . S
C550 H564 0.960 . S
C551 C548 1.511 . S
C551 H565 0.961 . S
C551 H566 0.961 . S
C551 H567 0.961 . S
C552 C553 1.370 . S
C552 C554 1.363 . S
C552 H568 0.931 . S
C553 C552 1.370 . S
C553 C557 1.408 . S
C554 C552 1.363 . S
C554 C555 1.370 . S
C554 C558 1.524 . S
C555 C547 1.503 . S
C555 C554 1.370 . S
C555 C556 1.403 . S
C556 C555 1.403 . S
C556 C557 1.404 . S
C556 C559 1.539 . S
C557 C553 1.408 . S
C557 C556 1.404 . S
C557 H569 0.930 . S
C558 C554 1.524 . S
C558 H570 0.956 . S
C558 H571 0.961 . S
C558 H572 0.961 . S
C559 C556 1.539 . S
C559 H573 0.958 . S
C559 H574 0.961 . S
C559 H575 0.960 . S
H560 C544 0.931 . S
H561 C549 0.929 . S
H562 C550 0.960 . S
H563 C550 0.962 . S
H564 C550 0.960 . S
H565 C551 0.961 . S
H566 C551 0.961 . S
H567 C551 0.961 . S
H568 C552 0.931 . S
H569 C557 0.930 . S
H570 C558 0.956 . S
H571 C558 0.961 . S
H572 C558 0.961 . S
H573 C559 0.958 . S
H574 C559 0.961 . S
H575 C559 0.960 . S
C576 C577 1.391 . S
C576 C578 1.394 . S
C576 H592 0.931 . S
C577 C576 1.391 . S
C577 C581 1.376 . S
C578 C576 1.394 . S
C578 C579 1.369 . S
C578 C582 1.531 . S
C579 C578 1.369 . S
C579 C580 1.410 . S
C579 C587 1.503 1_556 S
C580 C579 1.410 . S
C580 C581 1.392 . S
C580 C583 1.509 1_556 S
C581 C577 1.376 . S
C581 C580 1.392 . S
C581 H593 0.929 . S
C582 C578 1.531 . S
C582 H594 0.960 . S
C582 H595 0.962 . S
C582 H596 0.960 . S
C583 C580 1.509 1_554 S
C583 H597 0.956 1_554 S
C583 H598 0.968 . S
C583 H599 0.960 . S
C584 C585 1.370 . S
C584 C586 1.363 . S
C584 H600 0.931 . S
C585 C584 1.370 . S
C585 C589 1.408 . S
C586 C584 1.363 . S
C586 C587 1.370 . S
C586 C590 1.524 1_554 S
C587 C579 1.503 1_554 S
C587 C586 1.370 . S
C587 C588 1.403 . S
C588 C587 1.403 . S
C588 C589 1.404 . S
C588 C591 1.539 . S
C589 C585 1.408 . S
C589 C588 1.404 . S
C589 H601 0.930 . S
C590 C586 1.524 1_556 S
C590 H602 0.956 . S
C590 H603 0.961 . S
C590 H604 0.961 1_556 S
C591 C588 1.539 . S
C591 H605 0.958 . S
C591 H606 0.961 . S
C591 H607 0.960 . S
H592 C576 0.931 . S
H593 C581 0.929 . S
H594 C582 0.960 . S
H595 C582 0.962 . S
H596 C582 0.960 . S
H597 C583 0.956 1_556 S
H598 C583 0.968 . S
H599 C583 0.960 . S
H600 C584 0.931 . S
H601 C589 0.930 . S
H602 C590 0.956 . S
H603 C590 0.961 . S
H604 C590 0.961 1_554 S
H605 C591 0.958 . S
H606 C591 0.961 . S
H607 C591 0.960 . S
C608 C609 1.391 . S
C608 C610 1.394 . S
C608 H624 0.931 . S
C609 C608 1.391 . S
C609 C613 1.376 . S
C610 C608 1.394 . S
C610 C611 1.369 . S
C610 C614 1.531 . S
C611 C610 1.369 . S
C611 C612 1.410 . S
C611 C619 1.503 . S
C612 C611 1.410 . S
C612 C613 1.392 . S
C612 C615 1.511 . S
C613 C609 1.376 . S
C613 C612 1.392 . S
C613 H625 0.929 . S
C614 C610 1.531 . S
C614 H626 0.960 . S
C614 H627 0.962 . S
C614 H628 0.960 . S
C615 C612 1.511 . S
C615 H629 0.961 . S
C615 H630 0.961 . S
C615 H631 0.961 . S
C616 C617 1.370 . S
C616 C618 1.363 . S
C616 H632 0.931 . S
C617 C616 1.370 . S
C617 C621 1.408 . S
C618 C616 1.363 . S
C618 C619 1.370 . S
C618 C622 1.524 . S
C619 C611 1.503 . S
C619 C618 1.370 . S
C619 C620 1.403 . S
C620 C619 1.403 . S
C620 C621 1.404 . S
C620 C623 1.539 . S
C621 C617 1.408 . S
C621 C620 1.404 . S
C621 H633 0.930 . S
C622 C618 1.524 . S
C622 H634 0.956 . S
C622 H635 0.961 . S
C622 H636 0.961 . S
C623 C620 1.539 . S
C623 H637 0.958 . S
C623 H638 0.961 . S
C623 H639 0.960 . S
H624 C608 0.931 . S
H625 C613 0.929 . S
H626 C614 0.960 . S
H627 C614 0.962 . S
H628 C614 0.960 . S
H629 C615 0.961 . S
H630 C615 0.961 . S
H631 C615 0.961 . S
H632 C616 0.931 . S
H633 C621 0.930 . S
H634 C622 0.956 . S
H635 C622 0.961 . S
H636 C622 0.961 . S
H637 C623 0.958 . S
H638 C623 0.961 . S
H639 C623 0.960 . S
C640 C641 1.391 . S
C640 C642 1.394 . S
C640 H656 0.931 . S
C641 C640 1.391 . S
C641 C645 1.376 . S
C642 C640 1.394 . S
C642 C643 1.369 . S
C642 C646 1.531 1_554 S
C643 C642 1.369 . S
C643 C644 1.410 . S
C643 C651 1.503 1_554 S
C644 C643 1.410 . S
C644 C645 1.392 . S
C644 C647 1.511 . S
C645 C641 1.376 . S
C645 C644 1.392 . S
C645 H657 0.929 . S
C646 C642 1.531 1_556 S
C646 H658 0.960 . S
C646 H659 0.962 . S
C646 H660 0.960 1_556 S
C647 C644 1.511 . S
C647 H661 0.961 . S
C647 H662 0.961 . S
C647 H663 0.961 . S
C648 C649 1.370 . S
C648 C650 1.363 . S
C648 H664 0.931 . S
C649 C648 1.370 . S
C649 C653 1.408 . S
C650 C648 1.363 . S
C650 C651 1.370 . S
C650 C654 1.524 . S
C651 C643 1.503 1_556 S
C651 C650 1.370 . S
C651 C652 1.403 . S
C652 C651 1.403 . S
C652 C653 1.404 . S
C652 C655 1.539 . S
C653 C649 1.408 . S
C653 C652 1.404 . S
C653 H665 0.930 . S
C654 C650 1.524 . S
C654 H666 0.956 . S
C654 H667 0.961 . S
C654 H668 0.961 . S
C655 C652 1.539 . S
C655 H669 0.958 . S
C655 H670 0.961 . S
C655 H671 0.960 1_556 S
H656 C640 0.931 . S
H657 C645 0.929 . S
H658 C646 0.960 . S
H659 C646 0.962 . S
H660 C646 0.960 1_554 S
H661 C647 0.961 . S
H662 C647 0.961 . S
H663 C647 0.961 . S
H664 C648 0.931 . S
H665 C653 0.930 . S
H666 C654 0.956 . S
H667 C654 0.961 . S
H668 C654 0.961 . S
H669 C655 0.958 . S
H670 C655 0.961 . S
H671 C655 0.960 1_554 S
C672 C673 1.391 . S
C672 C674 1.394 . S
C672 H688 0.931 . S
C673 C672 1.391 . S
C673 C677 1.376 . S
C674 C672 1.394 . S
C674 C675 1.369 . S
C674 C678 1.531 . S
C675 C674 1.369 . S
C675 C676 1.410 . S
C675 C683 1.503 . S
C676 C675 1.410 . S
C676 C677 1.392 . S
C676 C679 1.511 . S
C677 C673 1.376 . S
C677 C676 1.392 . S
C677 H689 0.929 . S
C678 C674 1.531 . S
C678 H690 0.960 . S
C678 H691 0.962 . S
C678 H692 0.960 . S
C679 C676 1.511 . S
C679 H693 0.961 . S
C679 H694 0.961 . S
C679 H695 0.961 . S
C680 C681 1.370 . S
C680 C682 1.363 . S
C680 H696 0.931 . S
C681 C680 1.370 . S
C681 C685 1.408 . S
C682 C680 1.363 . S
C682 C683 1.370 . S
C682 C686 1.524 . S
C683 C675 1.503 . S
C683 C682 1.370 . S
C683 C684 1.403 . S
C684 C683 1.403 . S
C684 C685 1.404 . S
C684 C687 1.539 . S
C685 C681 1.408 . S
C685 C684 1.404 . S
C685 H697 0.930 . S
C686 C682 1.524 . S
C686 H698 0.956 . S
C686 H699 0.961 . S
C686 H700 0.961 . S
C687 C684 1.539 . S
C687 H701 0.958 . S
C687 H702 0.961 . S
C687 H703 0.960 . S
H688 C672 0.931 . S
H689 C677 0.929 . S
H690 C678 0.960 . S
H691 C678 0.962 . S
H692 C678 0.960 . S
H693 C679 0.961 . S
H694 C679 0.961 . S
H695 C679 0.961 . S
H696 C680 0.931 . S
H697 C685 0.930 . S
H698 C686 0.956 . S
H699 C686 0.961 . S
H700 C686 0.961 . S
H701 C687 0.958 . S
H702 C687 0.961 . S
H703 C687 0.960 . S
C704 C705 1.391 . S
C704 C706 1.394 . S
C704 H720 0.931 . S
C705 C704 1.391 . S
C705 C709 1.376 . S
C706 C704 1.394 . S
C706 C707 1.369 . S
C706 C710 1.531 . S
C707 C706 1.369 . S
C707 C708 1.410 . S
C707 C715 1.503 . S
C708 C707 1.410 . S
C708 C709 1.392 . S
C708 C711 1.511 . S
C709 C705 1.376 . S
C709 C708 1.392 . S
C709 H721 0.929 . S
C710 C706 1.531 . S
C710 H722 0.960 . S
C710 H723 0.962 . S
C710 H724 0.960 . S
C711 C708 1.511 . S
C711 H725 0.961 . S
C711 H726 0.961 . S
C711 H727 0.961 . S
C712 C713 1.370 . S
C712 C714 1.363 . S
C712 H728 0.931 . S
C713 C712 1.370 . S
C713 C717 1.408 . S
C714 C712 1.363 . S
C714 C715 1.370 . S
C714 C718 1.524 . S
C715 C707 1.503 . S
C715 C714 1.370 . S
C715 C716 1.403 . S
C716 C715 1.403 . S
C716 C717 1.404 . S
C716 C719 1.539 . S
C717 C713 1.408 . S
C717 C716 1.404 . S
C717 H729 0.930 . S
C718 C714 1.524 . S
C718 H730 0.956 . S
C718 H731 0.961 . S
C718 H732 0.961 . S
C719 C716 1.539 . S
C719 H733 0.958 . S
C719 H734 0.961 . S
C719 H735 0.960 . S
H720 C704 0.931 . S
H721 C709 0.929 . S
H722 C710 0.960 . S
H723 C710 0.962 . S
H724 C710 0.960 . S
H725 C711 0.961 . S
H726 C711 0.961 . S
H727 C711 0.961 . S
H728 C712 0.931 . S
H729 C717 0.930 . S
H730 C718 0.956 . S
H731 C718 0.961 . S
H732 C718 0.961 . S
H733 C719 0.958 . S
H734 C719 0.961 . S
H735 C719 0.960 . S
C736 C737 1.391 . S
C736 C738 1.394 . S
C736 H752 0.931 . S
C737 C736 1.391 . S
C737 C741 1.376 . S
C738 C736 1.394 . S
C738 C739 1.369 . S
C738 C742 1.531 . S
C739 C738 1.369 . S
C739 C740 1.410 . S
C739 C747 1.503 1_455 S
C740 C739 1.410 . S
C740 C741 1.392 . S
C740 C743 1.511 1_455 S
C741 C737 1.376 . S
C741 C740 1.392 . S
C741 H753 0.929 . S
C742 C738 1.531 . S
C742 H754 0.960 . S
C742 H755 0.962 . S
C742 H756 0.960 . S
C743 C740 1.511 1_655 S
C743 H757 0.961 1_655 S
C743 H758 0.961 . S
C743 H759 0.961 . S
C744 C745 1.370 . S
C744 C746 1.363 . S
C744 H760 0.931 . S
C745 C744 1.370 . S
C745 C749 1.408 . S
C746 C744 1.363 . S
C746 C747 1.370 . S
C746 C750 1.524 1_655 S
C747 C739 1.503 1_655 S
C747 C746 1.370 . S
C747 C748 1.403 . S
C748 C747 1.403 . S
C748 C749 1.404 . S
C748 C751 1.539 . S
C749 C745 1.408 . S
C749 C748 1.404 . S
C749 H761 0.930 . S
C750 C746 1.524 1_455 S
C750 H762 0.956 . S
C750 H763 0.961 . S
C750 H764 0.961 1_455 S
C751 C748 1.539 . S
C751 H765 0.958 . S
C751 H766 0.961 . S
C751 H767 0.960 . S
H752 C736 0.931 . S
H753 C741 0.929 . S
H754 C742 0.960 . S
H755 C742 0.962 . S
H756 C742 0.960 . S
H757 C743 0.961 1_455 S
H758 C743 0.961 . S
H759 C743 0.961 . S
H760 C744 0.931 . S
H761 C749 0.930 . S
H762 C750 0.956 . S
H763 C750 0.961 . S
H764 C750 0.961 1_655 S
H765 C751 0.958 . S
H766 C751 0.961 . S
H767 C751 0.960 . S
C768 C769 1.391 . S
C768 C770 1.394 . S
C768 H784 0.931 . S
C769 C768 1.391 . S
C769 C773 1.376 . S
C770 C768 1.394 . S
C770 C771 1.369 . S
C770 C774 1.531 1_455 S
C771 C770 1.369 . S
C771 C772 1.410 . S
C771 C779 1.503 1_455 S
C772 C771 1.410 . S
C772 C773 1.392 . S
C772 C775 1.511 . S
C773 C769 1.376 . S
C773 C772 1.392 . S
C773 H785 0.929 . S
C774 C770 1.531 1_655 S
C774 H786 0.960 . S
C774 H787 0.962 . S
C774 H788 0.954 1_655 S
C775 C772 1.511 . S
C775 H789 0.961 . S
C775 H790 0.961 . S
C775 H791 0.961 . S
C776 C777 1.370 . S
C776 C778 1.363 . S
C776 H792 0.931 . S
C777 C776 1.370 . S
C777 C781 1.408 . S
C778 C776 1.363 . S
C778 C779 1.370 . S
C778 C782 1.524 . S
C779 C771 1.503 1_655 S
C779 C778 1.370 . S
C779 C780 1.403 . S
C780 C779 1.403 . S
C780 C781 1.404 . S
C780 C783 1.539 . S
C781 C777 1.408 . S
C781 C780 1.404 . S
C781 H793 0.930 . S
C782 C778 1.524 . S
C782 H794 0.948 1_655 S
C782 H795 0.961 1_655 S
C782 H796 0.961 . S
C783 C780 1.539 . S
C783 H797 0.958 . S
C783 H798 0.961 . S
C783 H799 0.960 . S
H784 C768 0.931 . S
H785 C773 0.929 . S
H786 C774 0.960 . S
H787 C774 0.962 . S
H788 C774 0.954 1_455 S
H789 C775 0.961 . S
H790 C775 0.961 . S
H791 C775 0.961 . S
H792 C776 0.931 . S
H793 C781 0.930 . S
H794 C782 0.948 1_455 S
H795 C782 0.961 1_455 S
H796 C782 0.961 . S
H797 C783 0.958 . S
H798 C783 0.961 . S
H799 C783 0.960 . S
C289 C3 1.720 . S
C297 C76 1.730 . S
C321 C112 1.727 . S
C329 C39 1.718 . S
C353 C220 1.726 . S
C361 C147 1.710 . S
C385 C183 1.705 . S
C393 C256 1.731 . S
C417 C38 1.347 . S
C425 C122 1.273 . S
C449 C2 1.344 . S
C457 C86 1.278 . S
C481 C266 1.224 . S
C489 C182 1.346 . S
C513 C146 1.337 . S
C521 C230 1.248 . S
C545 C194 1.478 . S
C553 C110 1.505 . S
C577 C74 1.490 . S
C585 C158 1.446 . S
C609 C50 1.478 . S
C617 C254 1.504 . S
C641 C14 1.478 . S
C649 C218 1.505 . S
C673 C4 1.557 . S
C681 C40 1.562 . S
C705 C75 1.531 . S
C713 C111 1.543 . S
C737 C184 1.557 . S
C745 C148 1.563 . S
C769 C219 1.535 . S
C777 C255 1.542 . S
