# Generated by pormake.
# Topology wjd, (6)-cn, num edge types: 1
# Building blocks:
#     Node 0, Type 0, BuildingBlock: MAKGUD_clean_sbu_1, # of connection points: 6
#     Node 1, Type 0, BuildingBlock: MAKGUD_clean_sbu_1, # of connection points: 6
#     Node 2, Type 0, BuildingBlock: MAKGUD_clean_sbu_1, # of connection points: 6
#     Node 3, Type 0, BuildingBlock: MAKGUD_clean_sbu_1, # of connection points: 6
#     Node 4, Type 0, BuildingBlock: MAKGUD_clean_sbu_1, # of connection points: 6
#     Node 5, Type 0, BuildingBlock: MAKGUD_clean_sbu_1, # of connection points: 6
#     Node 6, Type 0, BuildingBlock: MAKGUD_clean_sbu_1, # of connection points: 6
#     Node 7, Type 0, BuildingBlock: MAKGUD_clean_sbu_1, # of connection points: 6
#     Node 8, Type 0, BuildingBlock: MAKGUD_clean_sbu_1, # of connection points: 6
#     Node 9, Type 0, BuildingBlock: MAKGUD_clean_sbu_1, # of connection points: 6
#     Node 10, Type 0, BuildingBlock: MAKGUD_clean_sbu_1, # of connection points: 6
#     Node 11, Type 0, BuildingBlock: MAKGUD_clean_sbu_1, # of connection points: 6
#     Edge 12, Type (0, 0), None
#     Edge 13, Type (0, 0), None
#     Edge 14, Type (0, 0), None
#     Edge 15, Type (0, 0), None
#     Edge 16, Type (0, 0), None
#     Edge 17, Type (0, 0), None
#     Edge 18, Type (0, 0), None
#     Edge 19, Type (0, 0), None
#     Edge 20, Type (0, 0), None
#     Edge 21, Type (0, 0), None
#     Edge 22, Type (0, 0), None
#     Edge 23, Type (0, 0), None
#     Edge 24, Type (0, 0), None
#     Edge 25, Type (0, 0), None
#     Edge 26, Type (0, 0), None
#     Edge 27, Type (0, 0), None
#     Edge 28, Type (0, 0), None
#     Edge 29, Type (0, 0), None
#     Edge 30, Type (0, 0), None
#     Edge 31, Type (0, 0), None
#     Edge 32, Type (0, 0), None
#     Edge 33, Type (0, 0), None
#     Edge 34, Type (0, 0), None
#     Edge 35, Type (0, 0), None
#     Edge 36, Type (0, 0), None
#     Edge 37, Type (0, 0), None
#     Edge 38, Type (0, 0), None
#     Edge 39, Type (0, 0), None
#     Edge 40, Type (0, 0), None
#     Edge 41, Type (0, 0), None
#     Edge 42, Type (0, 0), None
#     Edge 43, Type (0, 0), None
#     Edge 44, Type (0, 0), None
#     Edge 45, Type (0, 0), None
#     Edge 46, Type (0, 0), None
#     Edge 47, Type (0, 0), None
# Relax obj value: 0.142
# Max RMSD: 0.313
# Mean RMSD: 0.313
data_MOF--net-wjd--node1-MAKGUD_clean_sbu_1--edge1-none
_symmetry_space_group_name_H-M    P1
_symmetry_Int_Tables_number       1
_symmetry_cell_setting            triclinic
loop_
_symmetry_equiv_pos_as_xyz
'x, y, z'
_cell_length_a     19.402003
_cell_length_b     18.751442
_cell_length_c     22.237932
_cell_angle_alpha  87.016715
_cell_angle_beta   91.529933
_cell_angle_gamma 120.12494
loop_
_atom_site_label
_atom_site_type_symbol
_atom_site_fract_x
_atom_site_fract_y
_atom_site_fract_z
_atom_type_partial_charge
O0 O 0.70763 0.27365 0.02857 0.0
Tb1 Tb 0.59625 0.23228 0.07725 0.0
C2 C 0.48084 0.15166 0.18203 0.0
O3 O 0.40108 0.14696 0.01254 0.0
Tb4 Tb 0.34176 0.11412 0.09894 0.0
C5 C 0.19636 0.98023 0.10557 0.0
O6 O 0.51466 0.13419 0.01867 0.0
O7 O 0.32465 0.21716 0.11669 0.0
C8 C 0.32017 0.26377 0.07211 0.0
O9 O 0.34408 0.26072 0.01815 0.0
O10 O 0.55241 0.21288 0.16934 0.0
O11 O 0.43987 0.10452 0.13827 0.0
O12 O 0.62087 0.35782 0.05676 0.0
C13 C 0.44392 0.11487 -0.00416 0.0
C14 C 0.74023 0.24757 0.06896 0.0
O15 O 0.23458 1.01756 0.05592 0.0
O16 O 0.24189 1.01646 0.15132 0.0
C17 C 0.65254 0.41312 0.09829 0.0
O18 O 0.65474 0.38863 0.15431 0.0
O19 O 0.6915 0.21244 0.1142 0.0
O20 O 0.72205 0.52663 0.37855 0.0
Tb21 Tb 0.80049 0.65269 0.34465 0.0
C22 C 0.83498 0.75219 0.22256 0.0
O23 O 0.8785 0.85222 0.40773 0.0
Tb24 Tb 0.91269 0.8839 0.31353 0.0
C25 C 0.94724 1.0382 0.28297 0.0
O26 O 0.76927 0.71877 0.40683 0.0
O27 O 1.02768 0.88942 0.31401 0.0
C28 C 1.07592 0.91915 0.36039 0.0
O29 O 1.04751 0.92766 0.41073 0.0
O30 O 0.84334 0.69632 0.25393 0.0
O31 O 0.82392 0.80591 0.24957 0.0
O32 O 0.88854 0.61585 0.36873 0.0
C33 C 0.81225 0.79086 0.43124 0.0
C34 C 0.66906 0.50671 0.33621 0.0
O35 O 0.90692 0.99544 0.33035 0.0
O36 O 0.96833 0.99432 0.25353 0.0
C37 C 0.93645 0.61481 0.3281 0.0
O38 O 0.95177 0.6599 0.27791 0.0
O39 O 0.68964 0.56943 0.29844 0.0
O40 O 0.96147 0.50442 0.01081 0.0
Tb41 Tb 0.99619 0.41509 0.04343 0.0
C42 C 1.07381 0.38929 0.15908 0.0
O43 O 1.09625 0.33064 -0.01345 0.0
Tb44 Tb 0.13435 0.30894 0.07514 0.0
C45 C 0.26435 0.29426 0.07793 0.0
O46 O 1.09044 0.44964 -0.02234 0.0
O47 O 1.04013 0.18144 0.08892 0.0
C48 C 1.0044 0.13435 0.04329 0.0
O49 O 1.01428 0.16721 -0.01154 0.0
O50 O 1.0105 0.35449 0.12483 0.0
O51 O 0.13875 0.38989 0.14331 0.0
O52 O 0.87242 0.32175 0.02641 0.0
C53 C 1.12032 0.40422 -0.03853 0.0
C54 C 0.98394 0.54853 0.05806 0.0
O55 O 0.24723 0.33354 0.03548 0.0
O56 O 0.20921 0.26522 0.11877 0.0
C57 C 0.82544 0.27457 0.07105 0.0
O58 O 0.85631 0.26984 0.12318 0.0
O59 O 1.01383 0.51759 0.09754 0.0
O60 O 0.68502 0.24489 0.35394 0.0
Tb61 Tb 0.5762 0.24503 0.32726 0.0
C62 C 0.43848 0.1539 0.23458 0.0
O63 O 0.402 0.1515 0.38039 0.0
Tb64 Tb 0.30052 0.10424 0.3192 0.0
C65 C 0.16211 0.97015 0.34945 0.0
O66 O 0.51319 0.14181 0.39062 0.0
O67 O 0.27067 0.19912 0.29808 0.0
C68 C 0.26505 0.24051 0.34155 0.0
O69 O 0.28848 0.23216 0.39607 0.0
O70 O 0.47143 0.21438 0.27189 0.0
O71 O 0.36246 0.09919 0.2413 0.0
O72 O 0.6075 0.36325 0.36119 0.0
C73 C 0.4366 0.10997 0.40055 0.0
C74 C 0.71569 0.26004 0.30037 0.0
O75 O 0.21057 1.0253 0.3863 0.0
O76 O 0.19412 0.98838 0.29609 0.0
C77 C 0.61057 0.42145 0.32404 0.0
O78 O 0.58087 0.40304 0.26961 0.0
O79 O 0.66582 0.26332 0.26106 0.0
O80 O 0.73852 0.52709 0.02813 0.0
Tb81 Tb 0.82788 0.65172 0.05413 0.0
C82 C 0.85411 0.76312 0.15832 0.0
O83 O 0.90455 0.8359 -0.03018 0.0
Tb84 Tb 0.94726 0.89169 0.0562 0.0
C85 C 0.97347 1.04563 0.05126 0.0
O86 O 0.78628 0.71756 -0.0066 0.0
O87 O 1.06643 0.90656 0.05982 0.0
C88 C 1.10895 0.92721 0.10964 0.0
O89 O 1.07362 0.92149 0.16067 0.0
O90 O 0.87884 0.71668 0.13587 0.0
O91 O 0.85984 0.82717 0.12735 0.0
O92 O 0.92105 0.62725 0.02855 0.0
C93 C 0.82923 0.78431 -0.04117 0.0
C94 C 0.70468 0.50068 0.08048 0.0
O95 O 0.93918 0.99299 0.00938 0.0
O96 O 0.99297 1.01167 0.09568 0.0
C97 C 0.95783 0.60716 0.07097 0.0
O98 O 0.9501 0.61918 0.12741 0.0
O99 O 0.73971 0.55975 0.11788 0.0
O100 O 0.92703 0.4871 0.37093 0.0
Tb101 Tb 0.97123 0.41509 0.3282 0.0
C102 C 1.06156 0.39622 0.22284 0.0
O103 O 1.06286 0.31982 0.41452 0.0
Tb104 Tb 1.08577 0.29484 0.32573 0.0
C105 C 0.21158 0.27371 0.33302 0.0
O106 O 1.06911 0.44331 0.3905 0.0
O107 O 0.98312 0.17223 0.31621 0.0
C108 C 0.98135 0.12744 0.27204 0.0
O109 O 1.02953 0.16363 0.22607 0.0
O110 O 0.99462 0.3912 0.23884 0.0
O111 O 1.11326 0.39924 0.26334 0.0
O112 O 0.85008 0.31114 0.33614 0.0
C113 C 1.08291 0.39489 0.4276 0.0
C114 C 0.9555 0.54825 0.33121 0.0
O115 O 0.18633 0.2991 0.37595 0.0
O116 O 0.16692 0.2616 0.28587 0.0
C117 C 0.80146 0.29646 0.28977 0.0
O118 O 0.83063 0.33585 0.23792 0.0
O119 O 0.99113 0.53349 0.28883 0.0
O120 O 0.23435 0.67531 0.53247 0.0
Tb121 Tb 0.23945 0.56502 0.56016 0.0
C122 C 0.19071 0.4157 0.65053 0.0
O123 O 0.17652 0.40469 0.50929 0.0
Tb124 Tb 0.13543 0.28482 0.55475 0.0
C125 C 0.98501 0.16396 0.56715 0.0
O126 O 0.16853 0.51533 0.4806 0.0
O127 O 0.2009 0.22727 0.52511 0.0
C128 C 0.25694 0.22381 0.55749 0.0
O129 O 0.28362 0.26582 0.60643 0.0
O130 O 0.16296 0.44959 0.61115 0.0
O131 O 0.18209 0.34287 0.6406 0.0
O132 O 0.36069 0.59508 0.54095 0.0
C133 C 0.14256 0.43695 0.47421 0.0
C134 C 0.24413 0.70395 0.5859 0.0
O135 O 1.01528 0.21065 0.51837 0.0
O136 O 1.03867 0.18905 0.6094 0.0
C137 C 0.4051 0.57724 0.57721 0.0
O138 O 0.3736 0.52702 0.62443 0.0
O139 O 0.24834 0.65229 0.62543 0.0
O140 O 0.52497 0.94191 0.87727 0.0
Tb141 Tb 0.45263 0.99058 0.83707 0.0
C142 C 0.36792 1.01414 0.72678 0.0
O143 O 0.3448 1.02101 0.92888 0.0
Tb144 Tb 0.2966 1.03335 0.84259 0.0
C145 C 0.32175 0.18644 0.82587 0.0
O146 O 0.47583 1.07827 0.90422 0.0
O147 O 0.16923 0.95149 0.84205 0.0
C148 C 0.12554 0.95035 0.88631 0.0
O149 O 0.16033 0.98921 0.93527 0.0
O150 O 0.43806 1.04263 0.7521 0.0
O151 O 0.30277 0.98177 0.75913 0.0
O152 O 0.35128 0.86523 0.84111 0.0
C153 C 0.42046 1.0689 0.94119 0.0
C154 C 0.57535 0.96588 0.83321 0.0
O155 O 0.26742 0.12837 0.86014 0.0
O156 O 0.36247 0.15842 0.80013 0.0
C157 C 0.3463 0.82001 0.79609 0.0
O158 O 0.3958 0.85631 0.75088 0.0
O159 O 0.5577 1.00541 0.79165 0.0
O160 O 0.52438 0.69442 0.53493 0.0
Tb161 Tb 0.64047 0.75706 0.57826 0.0
C162 C 0.75425 0.80475 0.68508 0.0
O163 O 0.82278 0.87967 0.50851 0.0
Tb164 Tb 0.88553 0.90254 0.59372 0.0
C165 C 1.02139 0.90003 0.5958 0.0
O166 O 0.71863 0.74504 0.5142 0.0
O167 O 0.91445 1.02764 0.61124 0.0
C168 C 0.91864 1.0787 0.5666 0.0
O169 O 0.88598 1.04891 0.51464 0.0
O170 O 0.68257 0.78916 0.67047 0.0
O171 O 0.79506 0.79633 0.64316 0.0
O172 O 0.61945 0.85979 0.56067 0.0
C173 C 0.78399 0.80515 0.48783 0.0
C174 C 0.49165 0.63124 0.57268 0.0
O175 O 0.98147 0.89785 0.54722 0.0
O176 O 0.98439 0.903 0.64263 0.0
C177 C 0.57987 0.87214 0.60217 0.0
O178 O 0.56648 0.83125 0.65427 0.0
O179 O 0.54371 0.6373 0.61344 0.0
O180 O 0.28747 0.68412 0.85038 0.0
Tb181 Tb 0.2668 0.57103 0.80805 0.0
C182 C 0.22779 0.45714 0.70598 0.0
O183 O 0.20487 0.38772 0.8944 0.0
Tb184 Tb 0.21309 0.33847 0.80952 0.0
C185 C 1.0823 0.20255 0.77424 0.0
O186 O 0.17305 0.49111 0.87203 0.0
O187 O 0.2837 0.28544 0.84464 0.0
C188 C 0.32163 0.26292 0.80892 0.0
O189 O 0.33447 0.2907 0.75255 0.0
O190 O 0.21227 0.5122 0.72541 0.0
O191 O 0.27024 0.43417 0.73965 0.0
O192 O 0.37966 0.57508 0.82111 0.0
C193 C 0.16658 0.42742 0.90536 0.0
C194 C 0.30246 0.7292 0.80066 0.0
O195 O 1.08355 0.25203 0.81391 0.0
O196 O 0.15368 0.23198 0.7532 0.0
C197 C 0.43304 0.60984 0.77792 0.0
O198 O 0.41114 0.62641 0.72518 0.0
O199 O 0.29533 0.68437 0.7558 0.0
O200 O 0.51771 0.93125 0.53343 0.0
Tb201 Tb 0.42384 0.95573 0.56153 0.0
C202 C 0.36241 1.01099 0.66135 0.0
O203 O 0.32641 1.01048 0.46237 0.0
Tb204 Tb 0.27084 1.01372 0.54555 0.0
C205 C 0.27167 0.15603 0.54739 0.0
O206 O 0.45498 1.04686 0.48944 0.0
O207 O 0.14311 0.92825 0.54739 0.0
C208 C 1.10483 0.92071 0.59742 0.0
O209 O 0.14587 0.95285 0.64635 0.0
O210 O 0.42724 1.03239 0.63129 0.0
O211 O 0.2924 0.97466 0.63493 0.0
O212 O 0.31076 0.84374 0.5494 0.0
C213 C 0.40372 1.05193 0.45238 0.0
C214 C 0.5338 0.91322 0.5874 0.0
O215 O 0.22344 1.09318 0.51655 0.0
O216 O 0.32156 0.13989 0.57695 0.0
C217 C 0.2781 0.79175 0.59583 0.0
O218 O 0.30262 0.81749 0.65009 0.0
O219 O 0.48843 0.91958 0.62608 0.0
O220 O 0.53951 0.67358 0.85049 0.0
Tb221 Tb 0.65234 0.78528 0.83065 0.0
C222 C 0.79473 0.85402 0.73772 0.0
O223 O 0.81666 0.88046 0.88667 0.0
Tb224 Tb 0.92244 0.94595 0.82998 0.0
C225 C 1.04538 0.93364 0.8718 0.0
O226 O 0.71344 0.7509 0.89871 0.0
O227 O 0.96762 1.07742 0.81197 0.0
C228 C 1.02035 0.11557 0.76875 0.0
O229 O 1.03335 1.07093 0.73204 0.0
O230 O 0.75716 0.87073 0.77791 0.0
O231 O 0.87219 0.88766 0.74466 0.0
O232 O 0.61958 0.8715 0.861 0.0
C233 C 0.78795 0.80488 0.91041 0.0
C234 C 0.51693 0.65795 0.79487 0.0
O235 O 1.01029 0.96563 0.89981 0.0
O236 O 1.0105 0.90741 0.82032 0.0
C237 C 0.62595 0.93095 0.82362 0.0
O238 O 0.65933 0.942 0.7708 0.0
O239 O 0.57259 0.71261 0.75894 0.0
loop_
_geom_bond_atom_site_label_1
_geom_bond_atom_site_label_2
_geom_bond_distance
_geom_bond_site_symmetry_2
_ccdc_geom_bond_type
O0 Tb1 2.506 . S
O0 C14 1.265 . S
Tb1 O0 2.506 . S
Tb1 O6 2.312 . S
Tb1 O10 2.271 . S
Tb1 O12 2.338 . S
Tb1 O19 2.441 . S
C2 O10 1.252 . S
C2 O11 1.253 . S
O3 Tb4 2.271 . S
O3 C13 1.252 . S
Tb4 O3 2.271 . S
Tb4 O7 2.338 . S
Tb4 O11 2.312 . S
Tb4 O15 2.441 1_545 S
Tb4 O16 2.506 1_545 S
C5 O15 1.244 . S
C5 O16 1.265 . S
O6 Tb1 2.312 . S
O6 C13 1.253 . S
O7 Tb4 2.338 . S
O7 C8 1.258 . S
C8 O7 1.258 . S
C8 O9 1.250 1_554 S
O9 C8 1.250 1_556 S
O10 Tb1 2.271 . S
O10 C2 1.252 . S
O11 C2 1.253 . S
O11 Tb4 2.312 . S
O12 Tb1 2.338 . S
O12 C17 1.258 . S
C13 O3 1.252 . S
C13 O6 1.253 . S
C14 O0 1.265 . S
C14 O19 1.244 . S
O15 Tb4 2.441 1_565 S
O15 C5 1.244 . S
O16 Tb4 2.506 1_565 S
O16 C5 1.265 . S
C17 O12 1.258 . S
C17 O18 1.251 . S
O18 C17 1.251 . S
O19 Tb1 2.441 . S
O19 C14 1.244 . S
O20 Tb21 2.506 . S
O20 C34 1.265 . S
Tb21 O20 2.506 . S
Tb21 O26 2.312 . S
Tb21 O30 2.271 . S
Tb21 O32 2.338 . S
Tb21 O39 2.441 . S
C22 O30 1.252 . S
C22 O31 1.253 . S
O23 Tb24 2.271 . S
O23 C33 1.252 . S
Tb24 O23 2.271 . S
Tb24 O27 2.338 . S
Tb24 O31 2.312 . S
Tb24 O35 2.441 . S
Tb24 O36 2.506 . S
C25 O35 1.244 . S
C25 O36 1.265 . S
O26 Tb21 2.312 . S
O26 C33 1.253 . S
O27 Tb24 2.338 . S
O27 C28 1.258 . S
C28 O27 1.258 . S
C28 O29 1.251 . S
O29 C28 1.251 . S
O30 Tb21 2.271 . S
O30 C22 1.252 . S
O31 C22 1.253 . S
O31 Tb24 2.312 . S
O32 Tb21 2.338 . S
O32 C37 1.258 . S
C33 O23 1.252 . S
C33 O26 1.253 . S
C34 O20 1.265 . S
C34 O39 1.244 . S
O35 Tb24 2.441 . S
O35 C25 1.244 . S
O36 Tb24 2.506 . S
O36 C25 1.265 . S
C37 O32 1.258 . S
C37 O38 1.251 . S
O38 C37 1.251 . S
O39 Tb21 2.441 . S
O39 C34 1.244 . S
O40 Tb41 2.506 . S
O40 C54 1.265 . S
Tb41 O40 2.506 . S
Tb41 O46 2.312 . S
Tb41 O50 2.271 . S
Tb41 O52 2.338 . S
Tb41 O59 2.441 . S
C42 O50 1.252 . S
C42 O51 1.253 . S
O43 Tb44 2.271 . S
O43 C53 1.252 . S
Tb44 O43 2.271 . S
Tb44 O47 2.338 . S
Tb44 O51 2.312 . S
Tb44 O55 2.441 1_655 S
Tb44 O56 2.506 1_655 S
C45 O55 1.244 . S
C45 O56 1.265 . S
O46 Tb41 2.312 . S
O46 C53 1.253 . S
O47 Tb44 2.338 . S
O47 C48 1.258 . S
C48 O47 1.258 . S
C48 O49 1.250 1_554 S
O49 C48 1.250 1_556 S
O50 Tb41 2.271 . S
O50 C42 1.252 . S
O51 C42 1.253 . S
O51 Tb44 2.312 . S
O52 Tb41 2.338 . S
O52 C57 1.258 . S
C53 O43 1.252 . S
C53 O46 1.253 . S
C54 O40 1.265 . S
C54 O59 1.244 . S
O55 Tb44 2.441 1_455 S
O55 C45 1.244 . S
O56 Tb44 2.506 1_455 S
O56 C45 1.265 . S
C57 O52 1.258 . S
C57 O58 1.251 . S
O58 C57 1.251 . S
O59 Tb41 2.441 . S
O59 C54 1.244 . S
O60 Tb61 2.506 . S
O60 C74 1.265 . S
Tb61 O60 2.506 . S
Tb61 O66 2.312 . S
Tb61 O70 2.271 . S
Tb61 O72 2.338 . S
Tb61 O79 2.441 . S
C62 O70 1.252 . S
C62 O71 1.253 . S
O63 Tb64 2.271 . S
O63 C73 1.252 . S
Tb64 O63 2.271 . S
Tb64 O67 2.338 . S
Tb64 O71 2.312 . S
Tb64 O75 2.441 1_545 S
Tb64 O76 2.506 1_545 S
C65 O75 1.244 . S
C65 O76 1.265 . S
O66 Tb61 2.312 . S
O66 C73 1.253 . S
O67 Tb64 2.338 . S
O67 C68 1.258 . S
C68 O67 1.258 . S
C68 O69 1.251 . S
O69 C68 1.251 . S
O70 Tb61 2.271 . S
O70 C62 1.252 . S
O71 C62 1.253 . S
O71 Tb64 2.312 . S
O72 Tb61 2.338 . S
O72 C77 1.258 . S
C73 O63 1.252 . S
C73 O66 1.253 . S
C74 O60 1.265 . S
C74 O79 1.244 . S
O75 Tb64 2.441 1_565 S
O75 C65 1.244 . S
O76 Tb64 2.506 1_565 S
O76 C65 1.265 . S
C77 O72 1.258 . S
C77 O78 1.251 . S
O78 C77 1.251 . S
O79 Tb61 2.441 . S
O79 C74 1.244 . S
O80 Tb81 2.506 . S
O80 C94 1.265 . S
Tb81 O80 2.506 . S
Tb81 O86 2.312 . S
Tb81 O90 2.271 . S
Tb81 O92 2.338 . S
Tb81 O99 2.441 . S
C82 O90 1.252 . S
C82 O91 1.253 . S
O83 Tb84 2.271 . S
O83 C93 1.252 . S
Tb84 O83 2.271 . S
Tb84 O87 2.338 . S
Tb84 O91 2.312 . S
Tb84 O95 2.441 . S
Tb84 O96 2.506 . S
C85 O95 1.244 . S
C85 O96 1.265 . S
O86 Tb81 2.312 . S
O86 C93 1.253 . S
O87 Tb84 2.338 . S
O87 C88 1.258 . S
C88 O87 1.258 . S
C88 O89 1.250 1_554 S
O89 C88 1.250 1_556 S
O90 Tb81 2.271 . S
O90 C82 1.252 . S
O91 C82 1.253 . S
O91 Tb84 2.312 . S
O92 Tb81 2.338 . S
O92 C97 1.258 . S
C93 O83 1.252 . S
C93 O86 1.253 . S
C94 O80 1.265 . S
C94 O99 1.244 . S
O95 Tb84 2.441 . S
O95 C85 1.244 . S
O96 Tb84 2.506 . S
O96 C85 1.265 . S
C97 O92 1.258 . S
C97 O98 1.251 . S
O98 C97 1.251 . S
O99 Tb81 2.441 . S
O99 C94 1.244 . S
O100 Tb101 2.506 . S
O100 C114 1.265 . S
Tb101 O100 2.506 . S
Tb101 O106 2.312 . S
Tb101 O110 2.271 . S
Tb101 O112 2.338 . S
Tb101 O119 2.441 . S
C102 O110 1.252 . S
C102 O111 1.253 . S
O103 Tb104 2.271 . S
O103 C113 1.252 . S
Tb104 O103 2.271 . S
Tb104 O107 2.338 . S
Tb104 O111 2.312 . S
Tb104 O115 2.441 1_655 S
Tb104 O116 2.506 1_655 S
C105 O115 1.244 . S
C105 O116 1.265 . S
O106 Tb101 2.312 . S
O106 C113 1.253 . S
O107 Tb104 2.338 . S
O107 C108 1.258 . S
C108 O107 1.258 . S
C108 O109 1.251 . S
O109 C108 1.251 . S
O110 Tb101 2.271 . S
O110 C102 1.252 . S
O111 C102 1.253 . S
O111 Tb104 2.312 . S
O112 Tb101 2.338 . S
O112 C117 1.258 . S
C113 O103 1.252 . S
C113 O106 1.253 . S
C114 O100 1.265 . S
C114 O119 1.244 . S
O115 Tb104 2.441 1_455 S
O115 C105 1.244 . S
O116 Tb104 2.506 1_455 S
O116 C105 1.265 . S
C117 O112 1.258 . S
C117 O118 1.251 . S
O118 C117 1.251 . S
O119 Tb101 2.441 . S
O119 C114 1.244 . S
O120 Tb121 2.506 . S
O120 C134 1.265 . S
Tb121 O120 2.506 . S
Tb121 O126 2.312 . S
Tb121 O130 2.271 . S
Tb121 O132 2.338 . S
Tb121 O139 2.441 . S
C122 O130 1.252 . S
C122 O131 1.253 . S
O123 Tb124 2.271 . S
O123 C133 1.252 . S
Tb124 O123 2.271 . S
Tb124 O127 2.338 . S
Tb124 O131 2.312 . S
Tb124 O135 2.441 1_455 S
Tb124 O136 2.506 1_455 S
C125 O135 1.244 . S
C125 O136 1.265 . S
O126 Tb121 2.312 . S
O126 C133 1.253 . S
O127 Tb124 2.338 . S
O127 C128 1.258 . S
C128 O127 1.258 . S
C128 O129 1.251 . S
O129 C128 1.251 . S
O130 Tb121 2.271 . S
O130 C122 1.252 . S
O131 C122 1.253 . S
O131 Tb124 2.312 . S
O132 Tb121 2.338 . S
O132 C137 1.258 . S
C133 O123 1.252 . S
C133 O126 1.253 . S
C134 O120 1.265 . S
C134 O139 1.244 . S
O135 Tb124 2.441 1_655 S
O135 C125 1.244 . S
O136 Tb124 2.506 1_655 S
O136 C125 1.265 . S
C137 O132 1.258 . S
C137 O138 1.251 . S
O138 C137 1.251 . S
O139 Tb121 2.441 . S
O139 C134 1.244 . S
O140 Tb141 2.506 . S
O140 C154 1.265 . S
Tb141 O140 2.506 . S
Tb141 O146 2.312 . S
Tb141 O150 2.271 . S
Tb141 O152 2.338 . S
Tb141 O159 2.441 . S
C142 O150 1.252 . S
C142 O151 1.253 . S
O143 Tb144 2.271 . S
O143 C153 1.252 . S
Tb144 O143 2.271 . S
Tb144 O147 2.338 . S
Tb144 O151 2.312 . S
Tb144 O155 2.441 1_565 S
Tb144 O156 2.506 1_565 S
C145 O155 1.244 . S
C145 O156 1.265 . S
O146 Tb141 2.312 . S
O146 C153 1.253 . S
O147 Tb144 2.338 . S
O147 C148 1.258 . S
C148 O147 1.258 . S
C148 O149 1.250 1_556 S
O149 C148 1.250 1_554 S
O150 Tb141 2.271 . S
O150 C142 1.252 . S
O151 C142 1.253 . S
O151 Tb144 2.312 . S
O152 Tb141 2.338 . S
O152 C157 1.258 . S
C153 O143 1.252 . S
C153 O146 1.253 . S
C154 O140 1.265 . S
C154 O159 1.244 . S
O155 Tb144 2.441 1_545 S
O155 C145 1.244 . S
O156 Tb144 2.506 1_545 S
O156 C145 1.265 . S
C157 O152 1.258 . S
C157 O158 1.251 . S
O158 C157 1.251 . S
O159 Tb141 2.441 . S
O159 C154 1.244 . S
O160 Tb161 2.506 . S
O160 C174 1.265 . S
Tb161 O160 2.506 . S
Tb161 O166 2.312 . S
Tb161 O170 2.271 . S
Tb161 O172 2.338 . S
Tb161 O179 2.441 . S
C162 O170 1.252 . S
C162 O171 1.253 . S
O163 Tb164 2.271 . S
O163 C173 1.252 . S
Tb164 O163 2.271 . S
Tb164 O167 2.338 . S
Tb164 O171 2.312 . S
Tb164 O175 2.441 . S
Tb164 O176 2.506 . S
C165 O175 1.244 . S
C165 O176 1.265 . S
O166 Tb161 2.312 . S
O166 C173 1.253 . S
O167 Tb164 2.338 . S
O167 C168 1.258 . S
C168 O167 1.258 . S
C168 O169 1.251 . S
O169 C168 1.251 . S
O170 Tb161 2.271 . S
O170 C162 1.252 . S
O171 C162 1.253 . S
O171 Tb164 2.312 . S
O172 Tb161 2.338 . S
O172 C177 1.258 . S
C173 O163 1.252 . S
C173 O166 1.253 . S
C174 O160 1.265 . S
C174 O179 1.244 . S
O175 Tb164 2.441 . S
O175 C165 1.244 . S
O176 Tb164 2.506 . S
O176 C165 1.265 . S
C177 O172 1.258 . S
C177 O178 1.251 . S
O178 C177 1.251 . S
O179 Tb161 2.441 . S
O179 C174 1.244 . S
O180 Tb181 2.506 . S
O180 C194 1.265 . S
Tb181 O180 2.506 . S
Tb181 O186 2.312 . S
Tb181 O190 2.271 . S
Tb181 O192 2.338 . S
Tb181 O199 2.441 . S
C182 O190 1.252 . S
C182 O191 1.253 . S
O183 Tb184 2.271 . S
O183 C193 1.252 . S
Tb184 O183 2.271 . S
Tb184 O187 2.338 . S
Tb184 O191 2.312 . S
Tb184 O195 2.441 1_455 S
Tb184 O196 2.506 1_455 S
C185 O195 1.244 . S
C185 O196 1.265 . S
O186 Tb181 2.312 . S
O186 C193 1.253 . S
O187 Tb184 2.338 . S
O187 C188 1.258 . S
C188 O187 1.258 . S
C188 O189 1.250 1_556 S
O189 C188 1.250 1_554 S
O190 Tb181 2.271 . S
O190 C182 1.252 . S
O191 C182 1.253 . S
O191 Tb184 2.312 . S
O192 Tb181 2.338 . S
O192 C197 1.258 . S
C193 O183 1.252 . S
C193 O186 1.253 . S
C194 O180 1.265 . S
C194 O199 1.244 . S
O195 Tb184 2.441 1_655 S
O195 C185 1.244 . S
O196 Tb184 2.506 1_655 S
O196 C185 1.265 . S
C197 O192 1.258 . S
C197 O198 1.251 . S
O198 C197 1.251 . S
O199 Tb181 2.441 . S
O199 C194 1.244 . S
O200 Tb201 2.506 . S
O200 C214 1.265 . S
Tb201 O200 2.506 . S
Tb201 O206 2.312 . S
Tb201 O210 2.271 . S
Tb201 O212 2.338 . S
Tb201 O219 2.441 . S
C202 O210 1.252 . S
C202 O211 1.253 . S
O203 Tb204 2.271 . S
O203 C213 1.252 . S
Tb204 O203 2.271 . S
Tb204 O207 2.338 . S
Tb204 O211 2.312 . S
Tb204 O215 2.441 1_565 S
Tb204 O216 2.506 1_565 S
C205 O215 1.244 . S
C205 O216 1.265 . S
O206 Tb201 2.312 . S
O206 C213 1.253 . S
O207 Tb204 2.338 . S
O207 C208 1.258 . S
C208 O207 1.258 . S
C208 O209 1.251 . S
O209 C208 1.251 . S
O210 Tb201 2.271 . S
O210 C202 1.252 . S
O211 C202 1.253 . S
O211 Tb204 2.312 . S
O212 Tb201 2.338 . S
O212 C217 1.258 . S
C213 O203 1.252 . S
C213 O206 1.253 . S
C214 O200 1.265 . S
C214 O219 1.244 . S
O215 Tb204 2.441 1_545 S
O215 C205 1.244 . S
O216 Tb204 2.506 1_545 S
O216 C205 1.265 . S
C217 O212 1.258 . S
C217 O218 1.251 . S
O218 C217 1.251 . S
O219 Tb201 2.441 . S
O219 C214 1.244 . S
O220 Tb221 2.506 . S
O220 C234 1.265 . S
Tb221 O220 2.506 . S
Tb221 O226 2.312 . S
Tb221 O230 2.271 . S
Tb221 O232 2.338 . S
Tb221 O239 2.441 . S
C222 O230 1.252 . S
C222 O231 1.253 . S
O223 Tb224 2.271 . S
O223 C233 1.252 . S
Tb224 O223 2.271 . S
Tb224 O227 2.338 . S
Tb224 O231 2.312 . S
Tb224 O235 2.441 . S
Tb224 O236 2.506 . S
C225 O235 1.244 . S
C225 O236 1.265 . S
O226 Tb221 2.312 . S
O226 C233 1.253 . S
O227 Tb224 2.338 . S
O227 C228 1.258 . S
C228 O227 1.258 . S
C228 O229 1.250 1_556 S
O229 C228 1.250 1_554 S
O230 Tb221 2.271 . S
O230 C222 1.252 . S
O231 C222 1.253 . S
O231 Tb224 2.312 . S
O232 Tb221 2.338 . S
O232 C237 1.258 . S
C233 O223 1.252 . S
C233 O226 1.253 . S
C234 O220 1.265 . S
C234 O239 1.244 . S
O235 Tb224 2.441 . S
O235 C225 1.244 . S
O236 Tb224 2.506 . S
O236 C225 1.265 . S
C237 O232 1.258 . S
C237 O238 1.251 . S
O238 C237 1.251 . S
O239 Tb221 2.441 . S
O239 C234 1.244 . S
C45 C8 3.048 . S
C65 C28 3.048 1_455 S
C48 C85 3.049 1_545 S
C68 C105 3.048 . S
C5 C88 3.048 1_455 S
C25 C108 3.049 1_565 S
C205 C128 3.048 . S
C148 C225 3.049 1_455 S
C168 C125 3.048 1_565 S
C188 C145 3.048 . S
C208 C165 3.049 1_455 S
C185 C228 3.048 1_545 S
C62 C2 1.983 . S
C22 C82 1.983 . S
C42 C102 1.984 . S
C122 C182 1.983 . S
C142 C202 1.984 . S
C162 C222 1.983 . S
C153 C13 2.725 1_566 S
C33 C173 2.725 . S
C193 C53 2.725 1_456 S
C73 C213 2.725 1_545 S
C93 C233 2.725 1_554 S
C133 C113 2.725 1_455 S
C57 C14 1.819 . S
C34 C77 1.819 . S
C54 C97 1.819 . S
C74 C117 1.819 . S
C17 C94 1.819 . S
C37 C114 1.819 . S
C217 C134 1.819 . S
C154 C237 1.819 . S
C174 C137 1.819 . S
C157 C194 1.819 . S
C214 C177 1.819 . S
C234 C197 1.819 . S
