# Generated by pormake.
# Topology sra, (4)-cn, num edge types: 1
# Building blocks:
#     Node 0, Type 0, BuildingBlock: QUQFOY_clean_sbu_3, # of connection points: 4
#     Node 1, Type 0, BuildingBlock: QUQFOY_clean_sbu_3, # of connection points: 4
#     Node 2, Type 0, BuildingBlock: QUQFOY_clean_sbu_3, # of connection points: 4
#     Node 3, Type 0, BuildingBlock: QUQFOY_clean_sbu_3, # of connection points: 4
#     Node 4, Type 0, BuildingBlock: QUQFOY_clean_sbu_3, # of connection points: 4
#     Node 5, Type 0, BuildingBlock: QUQFOY_clean_sbu_3, # of connection points: 4
#     Node 6, Type 0, BuildingBlock: QUQFOY_clean_sbu_3, # of connection points: 4
#     Node 7, Type 0, BuildingBlock: QUQFOY_clean_sbu_3, # of connection points: 4
#     Edge 8, Type (0, 0), BuildingBlock: TEMPAE_clean_linker_10, # of connection points: 2
#     Edge 9, Type (0, 0), BuildingBlock: TEMPAE_clean_linker_10, # of connection points: 2
#     Edge 10, Type (0, 0), BuildingBlock: TEMPAE_clean_linker_10, # of connection points: 2
#     Edge 11, Type (0, 0), BuildingBlock: TEMPAE_clean_linker_10, # of connection points: 2
#     Edge 12, Type (0, 0), BuildingBlock: TEMPAE_clean_linker_10, # of connection points: 2
#     Edge 13, Type (0, 0), BuildingBlock: TEMPAE_clean_linker_10, # of connection points: 2
#     Edge 14, Type (0, 0), BuildingBlock: TEMPAE_clean_linker_10, # of connection points: 2
#     Edge 15, Type (0, 0), BuildingBlock: TEMPAE_clean_linker_10, # of connection points: 2
#     Edge 16, Type (0, 0), BuildingBlock: TEMPAE_clean_linker_10, # of connection points: 2
#     Edge 17, Type (0, 0), BuildingBlock: TEMPAE_clean_linker_10, # of connection points: 2
#     Edge 18, Type (0, 0), BuildingBlock: TEMPAE_clean_linker_10, # of connection points: 2
#     Edge 19, Type (0, 0), BuildingBlock: TEMPAE_clean_linker_10, # of connection points: 2
#     Edge 20, Type (0, 0), BuildingBlock: TEMPAE_clean_linker_10, # of connection points: 2
#     Edge 21, Type (0, 0), BuildingBlock: TEMPAE_clean_linker_10, # of connection points: 2
#     Edge 22, Type (0, 0), BuildingBlock: TEMPAE_clean_linker_10, # of connection points: 2
#     Edge 23, Type (0, 0), BuildingBlock: TEMPAE_clean_linker_10, # of connection points: 2
# Relax obj value: 0.028
# Max RMSD: 0.060
# Mean RMSD: 0.060
data_MOF--net-sra--node1-QUQFOY_clean_sbu_3--edge1-TEMPAE_clean_linker_10
_symmetry_space_group_name_H-M    P1
_symmetry_Int_Tables_number       1
_symmetry_cell_setting            triclinic
loop_
_symmetry_equiv_pos_as_xyz
'x, y, z'
_cell_length_a     28.758621
_cell_length_b     55.48349
_cell_length_c     34.270009
_cell_angle_alpha  89.990785
_cell_angle_beta   89.984204
_cell_angle_gamma 89.972101
loop_
_atom_site_label
_atom_site_type_symbol
_atom_site_fract_x
_atom_site_fract_y
_atom_site_fract_z
_atom_type_partial_charge
C0 C 0.08695 0.09084 0.21127 0.0
O1 O 0.0589 0.09227 0.23975 0.0
Cd2 Cd 0.97795 0.09987 0.22745 0.0
O3 O 0.07217 0.08986 0.17635 0.0
Cd4 Cd -0.00099 0.08607 0.13985 0.0
C5 C -0.01289 0.14475 0.15669 0.0
O6 O 0.9487 0.06765 0.18869 0.0
O7 O 0.91465 0.08526 0.1403 0.0
O8 O 0.03397 0.05011 0.11357 0.0
C9 C 0.91118 0.07254 0.17091 0.0
O10 O 0.976 0.13804 0.19106 0.0
C11 C 0.02304 0.05428 0.07836 0.0
O12 O 6e-05 0.12948 0.13116 0.0
O13 O 0.00166 0.07388 0.07129 0.0
C14 C 0.92857 0.37868 0.21608 0.0
O15 O 0.95697 0.37188 0.24222 0.0
Cd16 Cd 0.038 0.36581 0.22778 0.0
O17 O 0.94231 0.38269 0.18143 0.0
Cd18 Cd 0.01227 0.38243 0.14095 0.0
C19 C 0.0236 0.32289 0.1558 0.0
O20 O 0.06452 0.39913 0.18954 0.0
O21 O 0.09661 0.38375 0.13832 0.0
O22 O 0.97714 0.41859 0.11542 0.0
C23 C 0.10127 0.39512 0.17015 0.0
O24 O 0.0388 0.32881 0.18939 0.0
C25 C -0.01337 0.41433 0.07996 0.0
O26 O 0.00769 0.33871 0.13235 0.0
O27 O 0.00743 0.39464 0.07241 0.0
C28 C 0.08098 0.87338 0.76152 0.0
O29 O 0.0525 0.86615 0.73577 0.0
Cd30 Cd 0.97103 0.86169 0.74978 0.0
O31 O 0.06688 0.87907 0.79547 0.0
Cd32 Cd -0.00485 0.88179 0.8339 0.0
C33 C 0.98178 0.82198 0.82689 0.0
O34 O 0.94378 0.89686 0.78301 0.0
O35 O 0.91075 0.88281 0.83483 0.0
O36 O 0.02864 0.91929 0.85587 0.0
C37 C 0.90671 0.89346 0.80228 0.0
O38 O 0.9678 0.82654 0.79238 0.0
C39 C 0.01899 0.91627 0.89164 0.0
O40 O -0.00222 0.83865 0.84864 0.0
O41 O -0.00109 0.89669 0.90099 0.0
C42 C 0.93014 0.59414 0.7616 0.0
O43 O 0.95916 0.60144 0.73632 0.0
Cd44 Cd 0.04016 0.6062 0.75188 0.0
O45 O 0.94338 0.58867 0.79588 0.0
Cd46 Cd 0.0138 0.58651 0.83602 0.0
C47 C 0.02699 0.64631 0.8282 0.0
O48 O 0.06623 0.57118 0.78619 0.0
O49 O 0.09822 0.58523 0.83843 0.0
O50 O 0.9793 0.54926 0.85816 0.0
C51 C 0.1029 0.57452 0.806 0.0
O52 O 0.04189 0.64159 0.79402 0.0
C53 C -0.01161 0.55246 0.89398 0.0
O54 O 0.01058 0.62973 0.84992 0.0
O55 O 0.00856 0.57202 0.90327 0.0
C56 C 0.58602 0.59456 0.71005 0.0
O57 O 0.55794 0.6021 0.73591 0.0
Cd58 Cd 0.47625 0.60655 0.7229 0.0
O59 O 0.57144 0.58861 0.67638 0.0
Cd60 Cd 0.49907 0.58584 0.63886 0.0
C61 C 0.48541 0.64566 0.64488 0.0
O62 O 0.44855 0.57117 0.69068 0.0
O63 O 0.4147 0.58478 0.63894 0.0
O64 O 0.53187 0.54811 0.61703 0.0
C65 C 0.41117 0.57442 0.67177 0.0
O66 O 0.47199 0.64131 0.67961 0.0
C67 C 0.52161 0.55098 0.58135 0.0
O68 O 0.50133 0.62888 0.62327 0.0
O69 O 0.50161 0.57058 0.57197 0.0
C70 C 0.42527 0.87251 0.71016 0.0
O71 O 0.45395 0.86509 0.73563 0.0
Cd72 Cd 0.53541 0.8609 0.72111 0.0
O73 O 0.43905 0.87832 0.67618 0.0
Cd74 Cd 0.51016 0.88097 0.63701 0.0
C75 C 0.52521 0.82123 0.64396 0.0
O76 O 0.56145 0.89629 0.68775 0.0
O77 O 0.5945 0.88299 0.63544 0.0
O78 O 0.47518 0.91808 0.61479 0.0
C79 C 0.59848 0.89337 0.66821 0.0
O80 O 0.5393 0.82583 0.67841 0.0
C81 C 0.48477 0.91498 0.57902 0.0
O82 O 0.50856 0.83782 0.62236 0.0
O83 O 0.50551 0.89555 0.56984 0.0
C84 C 0.5838 0.37756 0.25984 0.0
O85 O 0.55604 0.37081 0.23321 0.0
Cd86 Cd 0.47487 0.36439 0.24648 0.0
O87 O 0.56927 0.3814 0.29431 0.0
Cd88 Cd 0.49831 0.38083 0.33356 0.0
C89 C 0.48857 0.32131 0.31827 0.0
O90 O 0.44686 0.39758 0.28434 0.0
O91 O 0.4139 0.38172 0.3348 0.0
O92 O 0.53233 0.41705 0.35969 0.0
C93 C 0.40978 0.39336 0.30316 0.0
O94 O 0.47399 0.32725 0.2845 0.0
C95 C 0.52217 0.41272 0.395 0.0
O96 O 0.50358 0.33715 0.34207 0.0
O97 O 0.50145 0.39298 0.40222 0.0
C98 C 0.43127 0.0905 0.25859 0.0
O99 O 0.46073 0.09177 0.2311 0.0
Cd100 Cd 0.54115 0.09874 0.24654 0.0
O101 O 0.44424 0.08926 0.29399 0.0
Cd102 Cd 0.51493 0.08474 0.33353 0.0
C103 C 0.52888 0.1434 0.31742 0.0
O104 O 0.5671 0.06621 0.28636 0.0
O105 O 0.59923 0.08298 0.33638 0.0
O106 O 0.4772 0.04914 0.3584 0.0
C107 C 0.60386 0.07061 0.30551 0.0
O108 O 0.54161 0.13678 0.2834 0.0
C109 C 0.48629 0.05327 0.39399 0.0
O110 O 0.51451 0.12809 0.34233 0.0
O111 O 0.50799 0.07264 0.40184 0.0
C112 C 0.05051 0.28069 0.16531 0.0
C113 C 0.02156 0.29703 0.14574 0.0
C114 C 0.04495 0.2558 0.16065 0.0
C115 C 0.00915 0.24701 0.13617 0.0
C116 C 0.98147 0.26339 0.11459 0.0
C117 C -0.01179 0.28829 0.11946 0.0
C118 C 0.07573 0.23894 0.18372 0.0
C119 C 0.9429 0.25467 0.0883 0.0
C120 C 0.01478 0.17975 0.11674 0.0
C121 C -0.01228 0.1708 0.14758 0.0
C122 C 0.02029 0.20468 0.11122 0.0
C123 C -0.00218 0.2209 0.13692 0.0
C124 C 0.96813 0.21194 0.16651 0.0
C125 C 0.96367 0.18701 0.17161 0.0
C126 C 0.05232 0.21357 0.07944 0.0
C127 C 0.94299 0.22866 0.19419 0.0
H128 H 0.07678 0.28738 0.18526 0.0
H129 H 0.96572 0.30087 0.10428 0.0
H130 H 0.0548 0.22977 0.20651 0.0
H131 H 0.09037 0.22478 0.16444 0.0
H132 H 0.10489 0.24855 0.19819 0.0
H133 H 0.92906 0.26932 0.06949 0.0
H134 H 0.9552 0.23972 0.06944 0.0
H135 H 0.914 0.24756 0.1064 0.0
H136 H 0.03343 0.16731 0.09802 0.0
H137 H 0.94218 0.18021 0.19516 0.0
H138 H 0.08461 0.22077 0.09276 0.0
H139 H 0.03587 0.2285 0.06289 0.0
H140 H 0.06197 0.199 0.05872 0.0
H141 H 0.9686 0.23778 0.21337 0.0
H142 H 0.91761 0.21895 0.21289 0.0
H143 H 0.92427 0.24288 0.1777 0.0
C144 C 0.01316 0.78901 0.86957 0.0
C145 C -0.01709 0.79656 0.83986 0.0
C146 C 0.02034 0.76436 0.87691 0.0
C147 C -0.00339 0.74704 0.85403 0.0
C148 C 0.96318 0.75466 0.82633 0.0
C149 C 0.95682 0.7793 0.81956 0.0
C150 C 0.05575 0.75692 0.90708 0.0
C151 C 0.93665 0.73679 0.80161 0.0
C152 C 0.05182 0.689 0.8207 0.0
C153 C 0.02537 0.6718 0.84079 0.0
C154 C 0.04524 0.71367 0.82711 0.0
C155 C 0.0112 0.72136 0.85424 0.0
C156 C -0.013 0.7041 0.87692 0.0
C157 C -0.00557 0.67943 0.86995 0.0
C158 C 0.07226 0.73146 0.80262 0.0
C159 C 0.95091 0.71162 0.90647 0.0
H160 H 0.03323 0.80227 0.88556 0.0
H161 H 0.93273 0.78502 0.79706 0.0
H162 H 0.04325 0.74121 0.92414 0.0
H163 H 0.08836 0.75145 0.8922 0.0
H164 H 0.06397 0.77188 0.92748 0.0
H165 H 0.90844 0.74552 0.78455 0.0
H166 H 0.96087 0.7279 0.78089 0.0
H167 H 0.92115 0.72252 0.82014 0.0
H168 H 0.07644 0.68322 0.79863 0.0
H169 H 0.97406 0.66621 0.88578 0.0
H170 H 0.08738 0.74579 0.82125 0.0
H171 H 0.04846 0.74029 0.7815 0.0
H172 H 0.10082 0.72269 0.78602 0.0
H173 H 0.963 0.72739 0.92359 0.0
H174 H 0.94225 0.69672 0.92688 0.0
H175 H 0.91863 0.71703 0.89105 0.0
C176 C 0.51622 0.67857 0.60181 0.0
C177 C 0.48588 0.67098 0.63143 0.0
C178 C 0.52283 0.70324 0.5942 0.0
C179 C 0.49843 0.7205 0.61673 0.0
C180 C 0.46485 0.7128 0.64423 0.0
C181 C 0.45907 0.68815 0.65127 0.0
C182 C 0.55838 0.71076 0.56421 0.0
C183 C 0.43759 0.7306 0.66856 0.0
C184 C 0.55168 0.77877 0.65088 0.0
C185 C 0.52484 0.79584 0.63084 0.0
C186 C 0.54604 0.75409 0.64407 0.0
C187 C 0.51258 0.74625 0.61658 0.0
C188 C 0.48818 0.7634 0.59385 0.0
C189 C 0.49463 0.7881 0.60124 0.0
C190 C 0.5733 0.73641 0.66862 0.0
C191 C 0.45277 0.75573 0.56385 0.0
H192 H 0.53684 0.66536 0.58617 0.0
H193 H 0.43488 0.68238 0.67367 0.0
H194 H 0.54596 0.72651 0.54719 0.0
H195 H 0.59091 0.71618 0.57923 0.0
H196 H 0.56673 0.69584 0.54375 0.0
H197 H 0.40937 0.72176 0.68547 0.0
H198 H 0.46133 0.7397 0.68939 0.0
H199 H 0.42197 0.74471 0.64976 0.0
H200 H 0.57578 0.78465 0.67327 0.0
H201 H 0.47402 0.80122 0.58541 0.0
H202 H 0.58895 0.72221 0.65 0.0
H203 H 0.54954 0.72739 0.68955 0.0
H204 H 0.60148 0.74533 0.68543 0.0
H205 H 0.46537 0.73997 0.54696 0.0
H206 H 0.44437 0.77058 0.54327 0.0
H207 H 0.42025 0.75028 0.57886 0.0
C208 C 0.46338 0.27893 0.30774 0.0
C209 C 0.49107 0.29543 0.32818 0.0
C210 C 0.46954 0.25408 0.31239 0.0
C211 C 0.50465 0.24549 0.33777 0.0
C212 C 0.53101 0.26201 0.36016 0.0
C213 C 0.52371 0.28688 0.35526 0.0
C214 C 0.44015 0.23704 0.28842 0.0
C215 C 0.5688 0.25351 0.38745 0.0
C216 C 0.49948 0.17822 0.35688 0.0
C217 C 0.52781 0.16942 0.32672 0.0
C218 C 0.49341 0.20311 0.36236 0.0
C219 C 0.5166 0.21946 0.33734 0.0
C220 C 0.54758 0.21066 0.30856 0.0
C221 C 0.55259 0.18575 0.30346 0.0
C222 C 0.46003 0.21183 0.39329 0.0
C223 C 0.5735 0.22752 0.28164 0.0
H224 H 0.43767 0.28547 0.28716 0.0
H225 H 0.54523 0.29957 0.37111 0.0
H226 H 0.46224 0.22799 0.26627 0.0
H227 H 0.42504 0.2228 0.30727 0.0
H228 H 0.41139 0.24649 0.27309 0.0
H229 H 0.58155 0.26822 0.40663 0.0
H230 H 0.55617 0.23847 0.40595 0.0
H231 H 0.59854 0.24659 0.37011 0.0
H232 H 0.48026 0.16569 0.37501 0.0
H233 H 0.57505 0.17906 0.28046 0.0
H234 H 0.42808 0.21884 0.37912 0.0
H235 H 0.4755 0.22684 0.41025 0.0
H236 H 0.44994 0.1972 0.41376 0.0
H237 H 0.54851 0.2365 0.2617 0.0
H238 H 0.59986 0.21795 0.2637 0.0
H239 H 0.5912 0.24183 0.29866 0.0
C240 C 0.35203 0.10583 0.27185 0.0
C241 C 0.38133 0.09087 0.25002 0.0
C242 C 0.30405 0.10622 0.26494 0.0
C243 C 0.28495 0.09053 0.23663 0.0
C244 C 0.31448 0.07516 0.21478 0.0
C245 C 0.36265 0.07588 0.22123 0.0
C246 C 0.27392 0.12352 0.28775 0.0
C247 C 0.2951 0.05765 0.18525 0.0
C248 C 0.15648 0.07671 0.24803 0.0
C249 C 0.13731 0.09075 0.21819 0.0
C250 C 0.20477 0.07593 0.25369 0.0
C251 C 0.23403 0.0903 0.2299 0.0
C252 C 0.21455 0.10488 0.20023 0.0
C253 C 0.16639 0.10455 0.19423 0.0
C254 C 0.22451 0.05959 0.2848 0.0
C255 C 0.24444 0.12114 0.1753 0.0
H256 H 0.36684 0.11752 0.29395 0.0
H257 H 0.38556 0.06417 0.20471 0.0
H258 H 0.2535 0.13495 0.26743 0.0
H259 H 0.24873 0.11336 0.3059 0.0
H260 H 0.29464 0.13542 0.30715 0.0
H261 H 0.32267 0.04642 0.17161 0.0
H262 H 0.26947 0.04557 0.19952 0.0
H263 H 0.27646 0.06755 0.16189 0.0
H264 H 0.13378 0.06589 0.26623 0.0
H265 H 0.15125 0.11553 0.17133 0.0
H266 H 0.2425 0.07045 0.30737 0.0
H267 H 0.25074 0.0473 0.2718 0.0
H268 H 0.19723 0.04858 0.29924 0.0
H269 H 0.26434 0.1337 0.19416 0.0
H270 H 0.22359 0.13188 0.15427 0.0
H271 H 0.27009 0.11027 0.15873 0.0
C272 C 0.66103 0.3955 0.27471 0.0
C273 C 0.63383 0.38008 0.25172 0.0
C274 C 0.70922 0.39693 0.26936 0.0
C275 C 0.73069 0.38214 0.24098 0.0
C276 C 0.70334 0.36675 0.21734 0.0
C277 C 0.65502 0.36612 0.22269 0.0
C278 C 0.73719 0.41401 0.29437 0.0
C279 C 0.72524 0.35045 0.1872 0.0
C280 C 0.85094 0.39661 0.20275 0.0
C281 C 0.87868 0.38099 0.22494 0.0
C282 C 0.80279 0.39772 0.20852 0.0
C283 C 0.78192 0.38241 0.23647 0.0
C284 C 0.80986 0.36688 0.25942 0.0
C285 C 0.85813 0.36657 0.25368 0.0
C286 C 0.7742 0.41497 0.18427 0.0
C287 C 0.7886 0.35002 0.28907 0.0
H288 H 0.64458 0.40644 0.297 0.0
H289 H 0.63403 0.35405 0.20513 0.0
H290 H 0.76165 0.40366 0.31298 0.0
H291 H 0.75837 0.42609 0.27566 0.0
H292 H 0.71481 0.42525 0.31354 0.0
H293 H 0.69902 0.3396 0.17114 0.0
H294 H 0.74529 0.36127 0.16582 0.0
H295 H 0.75007 0.33797 0.20159 0.0
H296 H 0.86691 0.40792 0.18069 0.0
H297 H 0.87956 0.35435 0.27062 0.0
H298 H 0.75252 0.4265 0.20349 0.0
H299 H 0.75019 0.40471 0.16515 0.0
H300 H 0.79617 0.42676 0.16566 0.0
H301 H 0.76802 0.36037 0.3107 0.0
H302 H 0.81526 0.3393 0.30487 0.0
H303 H 0.76438 0.33742 0.27427 0.0
C304 C 0.16023 0.88941 0.77519 0.0
C305 C 0.13117 0.87454 0.75285 0.0
C306 C 0.2083 0.88997 0.76863 0.0
C307 C 0.22778 0.87493 0.73959 0.0
C308 C 0.19862 0.85993 0.71684 0.0
C309 C 0.15049 0.86011 0.72347 0.0
C310 C 0.23824 0.90659 0.79285 0.0
C311 C 0.21835 0.84338 0.68601 0.0
C312 C 0.34645 0.88946 0.69783 0.0
C313 C 0.37522 0.87391 0.71924 0.0
C314 C 0.29846 0.8903 0.7047 0.0
C315 C 0.27875 0.87485 0.73305 0.0
C316 C 0.30764 0.85919 0.7549 0.0
C317 C 0.35573 0.8591 0.74802 0.0
C318 C 0.26885 0.90763 0.68147 0.0
C319 C 0.28763 0.84218 0.78493 0.0
H320 H 0.14534 0.90071 0.79778 0.0
H321 H 0.12814 0.84845 0.70639 0.0
H322 H 0.26367 0.89591 0.80998 0.0
H323 H 0.25841 0.91876 0.77353 0.0
H324 H 0.21741 0.91774 0.81334 0.0
H325 H 0.19095 0.83268 0.67112 0.0
H326 H 0.2374 0.85401 0.66376 0.0
H327 H 0.24368 0.83077 0.69946 0.0
H328 H 0.36151 0.90106 0.67574 0.0
H329 H 0.37788 0.84694 0.76438 0.0
H330 H 0.24891 0.91947 0.70149 0.0
H331 H 0.24323 0.89748 0.66373 0.0
H332 H 0.2899 0.91911 0.66164 0.0
H333 H 0.26871 0.85249 0.80766 0.0
H334 H 0.31485 0.83109 0.79932 0.0
H335 H 0.26213 0.82994 0.77087 0.0
C336 C 0.66484 0.57797 0.69624 0.0
C337 C 0.63627 0.59325 0.71834 0.0
C338 C 0.71293 0.57712 0.70262 0.0
C339 C 0.73293 0.5923 0.73121 0.0
C340 C 0.70427 0.60775 0.75365 0.0
C341 C 0.65611 0.60785 0.74722 0.0
C342 C 0.74232 0.56003 0.67875 0.0
C343 C 0.72457 0.62446 0.78397 0.0
C344 C 0.85108 0.57744 0.77363 0.0
C345 C 0.88024 0.59267 0.75202 0.0
C346 C 0.80314 0.57673 0.76651 0.0
C347 C 0.78389 0.59201 0.73769 0.0
C348 C 0.8132 0.60727 0.71552 0.0
C349 C 0.86122 0.60722 0.72268 0.0
C350 C 0.77307 0.55983 0.79011 0.0
C351 C 0.7937 0.62408 0.68495 0.0
H352 H 0.64954 0.56654 0.67404 0.0
H353 H 0.63414 0.61982 0.76412 0.0
H354 H 0.76811 0.57033 0.66139 0.0
H355 H 0.76207 0.54784 0.69834 0.0
H356 H 0.72113 0.54891 0.65851 0.0
H357 H 0.69755 0.6356 0.79854 0.0
H358 H 0.74323 0.61389 0.80654 0.0
H359 H 0.75035 0.63666 0.77015 0.0
H360 H 0.86577 0.56602 0.79615 0.0
H361 H 0.88368 0.61915 0.70615 0.0
H362 H 0.75267 0.54803 0.77036 0.0
H363 H 0.74785 0.57033 0.80775 0.0
H364 H 0.79382 0.54828 0.81007 0.0
H365 H 0.7743 0.61368 0.66263 0.0
H366 H 0.82126 0.6347 0.67011 0.0
H367 H 0.76871 0.63676 0.69867 0.0
C368 C 0.6493 0.91329 0.7176 0.0
C369 C 0.64449 0.89767 0.68573 0.0
C370 C 0.6923 0.91594 0.73645 0.0
C371 C 0.73077 0.90212 0.72367 0.0
C372 C 0.72634 0.88684 0.6908 0.0
C373 C 0.68333 0.88505 0.67191 0.0
C374 C 0.69617 0.9329 0.77073 0.0
C375 C 0.76636 0.87145 0.67678 0.0
C376 C 0.85519 0.91425 0.75434 0.0
C377 C 0.86073 0.8975 0.78458 0.0
C378 C 0.8122 0.91691 0.73547 0.0
C379 C 0.77458 0.90193 0.74644 0.0
C380 C 0.7798 0.88537 0.77755 0.0
C381 C 0.8227 0.8836 0.79662 0.0
C382 C 0.8074 0.93525 0.70318 0.0
C383 C 0.74077 0.86871 0.78953 0.0
H384 H 0.61933 0.92324 0.72806 0.0
H385 H 0.67967 0.8729 0.64733 0.0
H386 H 0.70077 0.92239 0.79799 0.0
H387 H 0.72715 0.94465 0.76747 0.0
H388 H 0.66483 0.94445 0.77394 0.0
H389 H 0.75766 0.86125 0.64987 0.0
H390 H 0.79727 0.88281 0.67086 0.0
H391 H 0.77618 0.8584 0.6999 0.0
H392 H 0.88455 0.92515 0.74529 0.0
H393 H 0.827 0.87055 0.8199 0.0
H394 H 0.77584 0.94642 0.70777 0.0
H395 H 0.80324 0.92589 0.6748 0.0
H396 H 0.83812 0.94732 0.70126 0.0
H397 H 0.70923 0.87926 0.79692 0.0
H398 H 0.75015 0.85734 0.81503 0.0
H399 H 0.73164 0.8567 0.76479 0.0
C400 C 0.32681 0.58361 0.67713 0.0
C401 C 0.36546 0.57046 0.69002 0.0
C402 C 0.28406 0.58191 0.69645 0.0
C403 C 0.27965 0.56619 0.72878 0.0
C404 C 0.31795 0.55198 0.74075 0.0
C405 C 0.36073 0.55454 0.7215 0.0
C406 C 0.24424 0.59773 0.68333 0.0
C407 C 0.31405 0.53456 0.77443 0.0
C408 C 0.1873 0.58387 0.80192 0.0
C409 C 0.14919 0.57036 0.78895 0.0
C410 C 0.23046 0.58215 0.78323 0.0
C411 C 0.23581 0.56605 0.75151 0.0
C412 C 0.19814 0.55136 0.7397 0.0
C413 C 0.15494 0.55395 0.75826 0.0
C414 C 0.26958 0.59847 0.79613 0.0
C415 C 0.20303 0.53352 0.7067 0.0
H416 H 0.33045 0.59602 0.65287 0.0
H417 H 0.39056 0.54421 0.73125 0.0
H418 H 0.21326 0.58658 0.67667 0.0
H419 H 0.23445 0.61027 0.7072 0.0
H420 H 0.2531 0.60853 0.65705 0.0
H421 H 0.34544 0.52302 0.77735 0.0
H422 H 0.3092 0.54468 0.80204 0.0
H423 H 0.28317 0.5228 0.77064 0.0
H424 H 0.18286 0.59664 0.82558 0.0
H425 H 0.12554 0.54333 0.74848 0.0
H426 H 0.27867 0.61104 0.77212 0.0
H427 H 0.30112 0.58774 0.80281 0.0
H428 H 0.26028 0.60925 0.82232 0.0
H429 H 0.20721 0.54332 0.67871 0.0
H430 H 0.17232 0.52148 0.70428 0.0
H431 H 0.23459 0.52229 0.71087 0.0
C432 C 0.65548 0.0497 0.25765 0.0
C433 C 0.6502 0.06587 0.28876 0.0
C434 C 0.69853 0.04705 0.23885 0.0
C435 C 0.73662 0.06134 0.25096 0.0
C436 C 0.73191 0.07696 0.28338 0.0
C437 C 0.68883 0.07883 0.30217 0.0
C438 C 0.70269 0.02974 0.20505 0.0
C439 C 0.77156 0.09277 0.29681 0.0
C440 C 0.86115 0.05072 0.21892 0.0
C441 C 0.8655 0.06762 0.18872 0.0
C442 C 0.81856 0.04749 0.23823 0.0
C443 C 0.78001 0.06192 0.2276 0.0
C444 C 0.78391 0.07847 0.19633 0.0
C445 C 0.82651 0.08091 0.17697 0.0
C446 C 0.81524 0.02923 0.27076 0.0
C447 C 0.74375 0.09446 0.18452 0.0
H448 H 0.62575 0.03947 0.24751 0.0
H449 H 0.6849 0.09135 0.32623 0.0
H450 H 0.70583 0.04001 0.1774 0.0
H451 H 0.73451 0.01857 0.20804 0.0
H452 H 0.67206 0.01763 0.20279 0.0
H453 H 0.76297 0.10289 0.32383 0.0
H454 H 0.80306 0.08175 0.3023 0.0
H455 H 0.78035 0.10591 0.27354 0.0
H456 H 0.89118 0.04026 0.22779 0.0
H457 H 0.82974 0.09402 0.15366 0.0
H458 H 0.78397 0.01776 0.26691 0.0
H459 H 0.81154 0.03867 0.29912 0.0
H460 H 0.84644 0.01744 0.27219 0.0
H461 H 0.71268 0.0834 0.17777 0.0
H462 H 0.75203 0.10575 0.15866 0.0
H463 H 0.73441 0.10654 0.20912 0.0
C464 C 0.15303 0.41536 0.21845 0.0
C465 C 0.14753 0.39931 0.18724 0.0
C466 C 0.19612 0.4178 0.2372 0.0
C467 C 0.23398 0.40336 0.22495 0.0
C468 C 0.22894 0.3877 0.19264 0.0
C469 C 0.18585 0.38608 0.17386 0.0
C470 C 0.20067 0.43515 0.27091 0.0
C471 C 0.26834 0.37172 0.17915 0.0
C472 C 0.3588 0.41449 0.25523 0.0
C473 C 0.36381 0.39787 0.28574 0.0
C474 C 0.3159 0.41745 0.23637 0.0
C475 C 0.27773 0.40298 0.24775 0.0
C476 C 0.28233 0.38667 0.27927 0.0
C477 C 0.32524 0.38453 0.29821 0.0
C478 C 0.31181 0.43547 0.20354 0.0
C479 C 0.24259 0.37062 0.2918 0.0
H480 H 0.12349 0.42578 0.22857 0.0
H481 H 0.18167 0.37361 0.14976 0.0
H482 H 0.20471 0.42493 0.29853 0.0
H483 H 0.23218 0.44648 0.26734 0.0
H484 H 0.16985 0.44711 0.27367 0.0
H485 H 0.2593 0.36133 0.1525 0.0
H486 H 0.29975 0.38266 0.17298 0.0
H487 H 0.27753 0.3588 0.20265 0.0
H488 H 0.38855 0.42499 0.24582 0.0
H489 H 0.32906 0.37162 0.32175 0.0
H490 H 0.28065 0.44699 0.20774 0.0
H491 H 0.30739 0.42583 0.17543 0.0
H492 H 0.34297 0.44722 0.20132 0.0
H493 H 0.21146 0.38162 0.2987 0.0
H494 H 0.25143 0.35954 0.31776 0.0
H495 H 0.23305 0.35835 0.26752 0.0
C496 C 0.06347 0.01745 0.05443 0.0
C497 C 0.0313 0.03602 0.04794 0.0
C498 C 0.06729 -0.0019 0.02836 0.0
C499 C 0.03753 -0.00286 -0.00444 0.0
C500 C 0.00636 0.01635 -0.01201 0.0
C501 C 0.00396 0.03574 0.01415 0.0
C502 C 0.10174 0.97823 0.03681 0.0
C503 C 0.97377 0.01581 0.95346 0.0
C504 C 0.05849 0.95434 0.91127 0.0
C505 C 0.02774 0.93554 0.92028 0.0
C506 C 0.06352 0.97413 0.93632 0.0
C507 C 0.03642 0.97528 0.97071 0.0
C508 C 0.00637 0.956 0.98053 0.0
C509 C 0.00274 0.9362 0.95532 0.0
C510 C 0.09675 -0.0059 0.92544 0.0
C511 C 0.97658 0.95672 0.01682 0.0
H512 H 0.08494 0.01776 0.08043 0.0
H513 H 0.97895 0.05003 0.00917 0.0
H514 H 0.08283 0.96159 0.04517 0.0
H515 H 0.12242 0.97401 0.01034 0.0
H516 H 0.12592 0.98305 0.06085 0.0
H517 H 0.95344 0.03275 0.95056 0.0
H518 H -0.00647 0.01284 0.92609 0.0
H519 H 0.94911 0.00056 0.95666 0.0
H520 H 0.07815 0.95377 0.88428 0.0
H521 H 0.97881 0.92173 0.96226 0.0
H522 H 0.12004 -0.0017 0.95034 0.0
H523 H 0.07692 0.01073 0.91864 0.0
H524 H 0.11842 -0.01062 0.89971 0.0
H525 H -0.00138 0.95942 0.043 0.0
H526 H 0.95601 0.93996 0.02079 0.0
H527 H 0.95221 0.97221 0.01517 0.0
C528 C 0.9482 0.51461 0.91383 0.0
C529 C 0.97919 0.53332 0.92276 0.0
C530 C 0.94311 0.49481 0.93887 0.0
C531 C 0.97043 0.49354 0.97311 0.0
C532 C 0.0006 0.51278 0.98291 0.0
C533 C 0.00425 0.5326 0.95776 0.0
C534 C 0.9097 0.47492 0.92805 0.0
C535 C 0.03065 0.51192 0.01904 0.0
C536 C 0.94513 0.451 0.05674 0.0
C537 C 0.97743 0.43257 0.04972 0.0
C538 C 0.94054 0.47038 0.03081 0.0
C539 C 0.96974 0.47154 -0.00234 0.0
C540 C 0.00098 0.45244 -0.01045 0.0
C541 C 0.00409 0.433 0.01554 0.0
C542 C 0.90596 0.4901 0.03981 0.0
C543 C 0.03302 0.4532 0.95463 0.0
H544 H 0.9285 0.51524 0.88688 0.0
H545 H 0.02836 0.547 0.96462 0.0
H546 H 0.92944 0.45838 0.92053 0.0
H547 H 0.88695 0.47046 0.95318 0.0
H548 H 0.8875 0.47986 0.90276 0.0
H549 H 0.05114 0.5287 0.02309 0.0
H550 H 0.00882 0.50906 0.04531 0.0
H551 H 0.0551 0.49649 0.01705 0.0
H552 H 0.92416 0.45056 0.08303 0.0
H553 H 0.02921 0.41881 0.01016 0.0
H554 H 0.88506 0.49448 0.01353 0.0
H555 H 0.92477 0.50672 0.04842 0.0
H556 H 0.88198 0.48503 0.06387 0.0
H557 H 0.0128 0.45624 0.92753 0.0
H558 H 0.05342 0.43631 0.95132 0.0
H559 H 0.05761 0.46849 0.95772 0.0
C560 C 0.563 0.44942 0.41875 0.0
C561 C 0.53076 0.43093 0.42541 0.0
C562 C 0.56722 0.46872 0.44486 0.0
C563 C 0.53777 0.46972 0.47787 0.0
C564 C 0.50653 0.45057 0.4856 0.0
C565 C 0.50374 0.43123 0.45939 0.0
C566 C 0.60176 0.48851 0.43624 0.0
C567 C 0.47424 0.45116 0.52035 0.0
C568 C 0.56013 0.51259 0.5618 0.0
C569 C 0.5296 0.53153 0.55287 0.0
C570 C 0.56453 0.49269 0.53688 0.0
C571 C 0.53703 0.49157 0.50273 0.0
C572 C 0.50711 0.51095 0.49304 0.0
C573 C 0.50411 0.53085 0.51809 0.0
C574 C 0.5976 0.47261 0.54761 0.0
C575 C 0.4769 0.51025 0.457 0.0
H576 H 0.58424 0.44909 0.39261 0.0
H577 H 0.47866 0.41698 0.46448 0.0
H578 H 0.58291 0.50521 0.42806 0.0
H579 H 0.62271 0.49265 0.46258 0.0
H580 H 0.62569 0.48365 0.41203 0.0
H581 H 0.45392 0.43424 0.5234 0.0
H582 H 0.49425 0.45412 0.54759 0.0
H583 H 0.44959 0.46644 0.51729 0.0
H584 H 0.58014 0.51317 0.58859 0.0
H585 H 0.48033 0.54541 0.51124 0.0
H586 H 0.62072 0.46835 0.52262 0.0
H587 H 0.57765 0.45604 0.55447 0.0
H588 H 0.61945 0.47725 0.57326 0.0
H589 H 0.49865 0.50753 0.43064 0.0
H590 H 0.45632 0.52704 0.45321 0.0
H591 H 0.45252 0.49479 0.45886 0.0
C592 C 0.501 0.93498 0.51546 0.0
C593 C 0.47552 0.9341 0.55023 0.0
C594 C 0.49739 0.95484 0.49039 0.0
C595 C 0.46683 0.97396 0.50005 0.0
C596 C 0.439 0.97249 0.53399 0.0
C597 C 0.44407 0.95266 0.55897 0.0
C598 C 0.52797 0.95589 0.45458 0.0
C599 C 0.40516 -0.00776 0.54463 0.0
C600 C 0.5016 0.03456 0.45874 0.0
C601 C 0.47587 0.03511 0.42409 0.0
C602 C 0.49765 0.0151 0.4846 0.0
C603 C 0.46652 -0.00391 0.47584 0.0
C604 C 0.4381 -0.00259 0.44224 0.0
C605 C 0.44349 0.01682 0.41648 0.0
C606 C 0.52885 0.0142 0.52003 0.0
C607 C 0.40362 0.97778 0.43255 0.0
H608 H 0.52544 0.92069 0.50873 0.0
H609 H 0.42402 0.95189 0.58574 0.0
H610 H 0.50653 0.95887 0.42812 0.0
H611 H 0.55232 0.97133 0.45702 0.0
H612 H 0.5486 0.93915 0.45051 0.0
H613 H 0.38236 -0.01294 0.56942 0.0
H614 H 0.42458 0.00874 0.55287 0.0
H615 H 0.38302 -0.00311 0.5192 0.0
H616 H 0.52674 0.04866 0.46461 0.0
H617 H 0.42322 0.01734 0.38982 0.0
H618 H 0.5536 -0.00106 0.51713 0.0
H619 H 0.50802 0.011 0.54676 0.0
H620 H 0.54909 0.03108 0.52389 0.0
H621 H 0.42254 0.96123 0.42372 0.0
H622 H 0.37996 0.98308 0.4084 0.0
H623 H 0.38239 0.97319 0.45855 0.0
loop_
_geom_bond_atom_site_label_1
_geom_bond_atom_site_label_2
_geom_bond_distance
_geom_bond_site_symmetry_2
_ccdc_geom_bond_type
C0 O1 1.306 . S
C0 O3 1.160 . S
O1 C0 1.306 . S
O1 Cd2 2.228 . S
Cd2 O1 2.228 . S
Cd2 O6 2.273 1_455 S
Cd2 O10 2.277 . S
O3 C0 1.160 . S
O3 Cd4 2.203 . S
Cd4 O3 2.203 . S
Cd4 O6 2.411 1_455 S
Cd4 O7 2.333 1_455 S
Cd4 O8 2.352 . S
Cd4 O12 2.277 . S
Cd4 O13 2.356 . S
C5 O10 1.209 . S
C5 O12 1.226 . S
O6 Cd2 2.273 1_655 S
O6 Cd4 2.411 1_655 S
O6 C9 1.320 . S
O7 Cd4 2.333 1_655 S
O7 C9 1.214 . S
O8 Cd4 2.352 . S
O8 C11 1.258 . S
C9 O6 1.320 . S
C9 O7 1.214 . S
O10 Cd2 2.277 . S
O10 C5 1.209 . S
C11 O8 1.258 . S
C11 O13 1.282 . S
O12 Cd4 2.277 . S
O12 C5 1.226 . S
O13 Cd4 2.356 . S
O13 C11 1.282 . S
C14 O15 1.306 . S
C14 O17 1.160 . S
O15 C14 1.306 . S
O15 Cd16 2.228 1_655 S
Cd16 O15 2.228 1_455 S
Cd16 O20 2.273 . S
Cd16 O24 2.277 . S
O17 C14 1.160 . S
O17 Cd18 2.203 1_655 S
Cd18 O17 2.203 1_455 S
Cd18 O20 2.411 . S
Cd18 O21 2.333 . S
Cd18 O22 2.352 . S
Cd18 O26 2.277 . S
Cd18 O27 2.356 . S
C19 O24 1.209 . S
C19 O26 1.226 . S
O20 Cd16 2.273 . S
O20 Cd18 2.411 . S
O20 C23 1.320 . S
O21 Cd18 2.333 . S
O21 C23 1.214 . S
O22 Cd18 2.352 . S
O22 C25 1.258 . S
C23 O20 1.320 . S
C23 O21 1.214 . S
O24 Cd16 2.277 . S
O24 C19 1.209 . S
C25 O22 1.258 . S
C25 O27 1.282 . S
O26 Cd18 2.277 . S
O26 C19 1.226 . S
O27 Cd18 2.356 . S
O27 C25 1.282 . S
C28 O29 1.306 . S
C28 O31 1.160 . S
O29 C28 1.306 . S
O29 Cd30 2.228 . S
Cd30 O29 2.228 . S
Cd30 O34 2.273 1_455 S
Cd30 O38 2.277 . S
O31 C28 1.160 . S
O31 Cd32 2.203 . S
Cd32 O31 2.203 . S
Cd32 O34 2.411 1_455 S
Cd32 O35 2.333 1_455 S
Cd32 O36 2.352 . S
Cd32 O40 2.277 . S
Cd32 O41 2.356 . S
C33 O38 1.209 . S
C33 O40 1.226 . S
O34 Cd30 2.273 1_655 S
O34 Cd32 2.411 1_655 S
O34 C37 1.320 . S
O35 Cd32 2.333 1_655 S
O35 C37 1.214 . S
O36 Cd32 2.352 . S
O36 C39 1.258 . S
C37 O34 1.320 . S
C37 O35 1.214 . S
O38 Cd30 2.277 . S
O38 C33 1.209 . S
C39 O36 1.258 . S
C39 O41 1.282 . S
O40 Cd32 2.277 . S
O40 C33 1.226 . S
O41 Cd32 2.356 . S
O41 C39 1.282 . S
C42 O43 1.306 . S
C42 O45 1.160 . S
O43 C42 1.306 . S
O43 Cd44 2.228 1_655 S
Cd44 O43 2.228 1_455 S
Cd44 O48 2.273 . S
Cd44 O52 2.277 . S
O45 C42 1.160 . S
O45 Cd46 2.203 1_655 S
Cd46 O45 2.203 1_455 S
Cd46 O48 2.411 . S
Cd46 O49 2.333 . S
Cd46 O50 2.352 . S
Cd46 O54 2.277 . S
Cd46 O55 2.356 . S
C47 O52 1.209 . S
C47 O54 1.226 . S
O48 Cd44 2.273 . S
O48 Cd46 2.411 . S
O48 C51 1.320 . S
O49 Cd46 2.333 . S
O49 C51 1.214 . S
O50 Cd46 2.352 . S
O50 C53 1.258 . S
C51 O48 1.320 . S
C51 O49 1.214 . S
O52 Cd44 2.277 . S
O52 C47 1.209 . S
C53 O50 1.258 . S
C53 O55 1.282 . S
O54 Cd46 2.277 . S
O54 C47 1.226 . S
O55 Cd46 2.356 . S
O55 C53 1.282 . S
C56 O57 1.306 . S
C56 O59 1.160 . S
O57 C56 1.306 . S
O57 Cd58 2.228 . S
Cd58 O57 2.228 . S
Cd58 O62 2.273 . S
Cd58 O66 2.277 . S
O59 C56 1.160 . S
O59 Cd60 2.203 . S
Cd60 O59 2.203 . S
Cd60 O62 2.411 . S
Cd60 O63 2.333 . S
Cd60 O64 2.352 . S
Cd60 O68 2.277 . S
Cd60 O69 2.356 . S
C61 O66 1.209 . S
C61 O68 1.226 . S
O62 Cd58 2.273 . S
O62 Cd60 2.411 . S
O62 C65 1.320 . S
O63 Cd60 2.333 . S
O63 C65 1.214 . S
O64 Cd60 2.352 . S
O64 C67 1.258 . S
C65 O62 1.320 . S
C65 O63 1.214 . S
O66 Cd58 2.277 . S
O66 C61 1.209 . S
C67 O64 1.258 . S
C67 O69 1.282 . S
O68 Cd60 2.277 . S
O68 C61 1.226 . S
O69 Cd60 2.356 . S
O69 C67 1.282 . S
C70 O71 1.306 . S
C70 O73 1.160 . S
O71 C70 1.306 . S
O71 Cd72 2.228 . S
Cd72 O71 2.228 . S
Cd72 O76 2.273 . S
Cd72 O80 2.277 . S
O73 C70 1.160 . S
O73 Cd74 2.203 . S
Cd74 O73 2.203 . S
Cd74 O76 2.411 . S
Cd74 O77 2.333 . S
Cd74 O78 2.352 . S
Cd74 O82 2.277 . S
Cd74 O83 2.356 . S
C75 O80 1.209 . S
C75 O82 1.226 . S
O76 Cd72 2.273 . S
O76 Cd74 2.411 . S
O76 C79 1.320 . S
O77 Cd74 2.333 . S
O77 C79 1.214 . S
O78 Cd74 2.352 . S
O78 C81 1.258 . S
C79 O76 1.320 . S
C79 O77 1.214 . S
O80 Cd72 2.277 . S
O80 C75 1.209 . S
C81 O78 1.258 . S
C81 O83 1.282 . S
O82 Cd74 2.277 . S
O82 C75 1.226 . S
O83 Cd74 2.356 . S
O83 C81 1.282 . S
C84 O85 1.306 . S
C84 O87 1.160 . S
O85 C84 1.306 . S
O85 Cd86 2.228 . S
Cd86 O85 2.228 . S
Cd86 O90 2.273 . S
Cd86 O94 2.277 . S
O87 C84 1.160 . S
O87 Cd88 2.203 . S
Cd88 O87 2.203 . S
Cd88 O90 2.411 . S
Cd88 O91 2.333 . S
Cd88 O92 2.352 . S
Cd88 O96 2.277 . S
Cd88 O97 2.356 . S
C89 O94 1.209 . S
C89 O96 1.226 . S
O90 Cd86 2.273 . S
O90 Cd88 2.411 . S
O90 C93 1.320 . S
O91 Cd88 2.333 . S
O91 C93 1.214 . S
O92 Cd88 2.352 . S
O92 C95 1.258 . S
C93 O90 1.320 . S
C93 O91 1.214 . S
O94 Cd86 2.277 . S
O94 C89 1.209 . S
C95 O92 1.258 . S
C95 O97 1.282 . S
O96 Cd88 2.277 . S
O96 C89 1.226 . S
O97 Cd88 2.356 . S
O97 C95 1.282 . S
C98 O99 1.306 . S
C98 O101 1.160 . S
O99 C98 1.306 . S
O99 Cd100 2.228 . S
Cd100 O99 2.228 . S
Cd100 O104 2.273 . S
Cd100 O108 2.277 . S
O101 C98 1.160 . S
O101 Cd102 2.203 . S
Cd102 O101 2.203 . S
Cd102 O104 2.411 . S
Cd102 O105 2.333 . S
Cd102 O106 2.352 . S
Cd102 O110 2.277 . S
Cd102 O111 2.356 . S
C103 O108 1.209 . S
C103 O110 1.226 . S
O104 Cd100 2.273 . S
O104 Cd102 2.411 . S
O104 C107 1.320 . S
O105 Cd102 2.333 . S
O105 C107 1.214 . S
O106 Cd102 2.352 . S
O106 C109 1.258 . S
C107 O104 1.320 . S
C107 O105 1.214 . S
O108 Cd100 2.277 . S
O108 C103 1.209 . S
C109 O106 1.258 . S
C109 O111 1.282 . S
O110 Cd102 2.277 . S
O110 C103 1.226 . S
O111 Cd102 2.356 . S
O111 C109 1.282 . S
C112 C113 1.391 . S
C112 C114 1.394 . S
C112 H128 0.931 . S
C113 C112 1.391 . S
C113 C117 1.376 1_455 S
C114 C112 1.394 . S
C114 C115 1.369 . S
C114 C118 1.531 . S
C115 C114 1.369 . S
C115 C116 1.410 1_455 S
C115 C123 1.503 . S
C116 C115 1.410 1_655 S
C116 C117 1.392 . S
C116 C119 1.511 . S
C117 C113 1.376 1_655 S
C117 C116 1.392 . S
C117 H129 0.929 . S
C118 C114 1.531 . S
C118 H130 0.960 . S
C118 H131 0.962 . S
C118 H132 0.960 . S
C119 C116 1.511 . S
C119 H133 0.961 . S
C119 H134 0.961 . S
C119 H135 0.961 . S
C120 C121 1.370 . S
C120 C122 1.363 . S
C120 H136 0.931 1_455 S
C121 C120 1.370 . S
C121 C125 1.408 . S
C122 C120 1.363 . S
C122 C123 1.370 . S
C122 C126 1.524 1_455 S
C123 C115 1.503 . S
C123 C122 1.370 . S
C123 C124 1.403 . S
C124 C123 1.403 . S
C124 C125 1.404 . S
C124 C127 1.539 . S
C125 C121 1.408 . S
C125 C124 1.404 . S
C125 H137 0.930 . S
C126 C122 1.524 1_655 S
C126 H138 0.956 1_655 S
C126 H139 0.961 . S
C126 H140 0.961 . S
C127 C124 1.539 . S
C127 H141 0.958 . S
C127 H142 0.961 . S
C127 H143 0.960 . S
H128 C112 0.931 . S
H129 C117 0.929 . S
H130 C118 0.960 . S
H131 C118 0.962 . S
H132 C118 0.960 . S
H133 C119 0.961 . S
H134 C119 0.961 . S
H135 C119 0.961 . S
H136 C120 0.931 1_655 S
H137 C125 0.930 . S
H138 C126 0.956 1_455 S
H139 C126 0.961 . S
H140 C126 0.961 . S
H141 C127 0.958 . S
H142 C127 0.961 . S
H143 C127 0.960 . S
C144 C145 1.391 . S
C144 C146 1.394 . S
C144 H160 0.931 . S
C145 C144 1.391 . S
C145 C149 1.385 . S
C146 C144 1.394 . S
C146 C147 1.369 . S
C146 C150 1.531 . S
C147 C146 1.369 . S
C147 C148 1.410 1_455 S
C147 C155 1.503 . S
C148 C147 1.410 1_655 S
C148 C149 1.391 1_655 S
C148 C151 1.511 . S
C149 C145 1.385 . S
C149 C148 1.391 1_455 S
C149 H161 0.922 1_455 S
C150 C146 1.531 . S
C150 H162 0.960 . S
C150 H163 0.962 . S
C150 H164 0.960 . S
C151 C148 1.511 . S
C151 H165 0.961 . S
C151 H166 0.961 . S
C151 H167 0.961 . S
C152 C153 1.370 . S
C152 C154 1.363 . S
C152 H168 0.931 . S
C153 C152 1.370 . S
C153 C157 1.408 1_455 S
C154 C152 1.363 . S
C154 C155 1.370 . S
C154 C158 1.524 . S
C155 C147 1.503 . S
C155 C154 1.370 . S
C155 C156 1.403 1_455 S
C156 C155 1.403 1_655 S
C156 C157 1.404 . S
C156 C159 1.539 . S
C157 C153 1.408 1_655 S
C157 C156 1.404 . S
C157 H169 0.930 . S
C158 C154 1.524 . S
C158 H170 0.956 . S
C158 H171 0.961 . S
C158 H172 0.961 . S
C159 C156 1.539 . S
C159 H173 0.958 . S
C159 H174 0.961 . S
C159 H175 0.960 . S
H160 C144 0.931 . S
H161 C149 0.922 1_655 S
H162 C150 0.960 . S
H163 C150 0.962 . S
H164 C150 0.960 . S
H165 C151 0.961 . S
H166 C151 0.961 . S
H167 C151 0.961 . S
H168 C152 0.931 . S
H169 C157 0.930 . S
H170 C158 0.956 . S
H171 C158 0.961 . S
H172 C158 0.961 . S
H173 C159 0.958 . S
H174 C159 0.961 . S
H175 C159 0.960 . S
C176 C177 1.391 . S
C176 C178 1.394 . S
C176 H192 0.931 . S
C177 C176 1.391 . S
C177 C181 1.376 . S
C178 C176 1.394 . S
C178 C179 1.369 . S
C178 C182 1.531 . S
C179 C178 1.369 . S
C179 C180 1.410 . S
C179 C187 1.503 . S
C180 C179 1.410 . S
C180 C181 1.392 . S
C180 C183 1.511 . S
C181 C177 1.376 . S
C181 C180 1.392 . S
C181 H193 0.929 . S
C182 C178 1.531 . S
C182 H194 0.960 . S
C182 H195 0.962 . S
C182 H196 0.960 . S
C183 C180 1.511 . S
C183 H197 0.961 . S
C183 H198 0.961 . S
C183 H199 0.961 . S
C184 C185 1.370 . S
C184 C186 1.363 . S
C184 H200 0.931 . S
C185 C184 1.370 . S
C185 C189 1.408 . S
C186 C184 1.363 . S
C186 C187 1.370 . S
C186 C190 1.524 . S
C187 C179 1.503 . S
C187 C186 1.370 . S
C187 C188 1.403 . S
C188 C187 1.403 . S
C188 C189 1.404 . S
C188 C191 1.539 . S
C189 C185 1.408 . S
C189 C188 1.404 . S
C189 H201 0.930 . S
C190 C186 1.524 . S
C190 H202 0.956 . S
C190 H203 0.961 . S
C190 H204 0.961 . S
C191 C188 1.539 . S
C191 H205 0.958 . S
C191 H206 0.961 . S
C191 H207 0.960 . S
H192 C176 0.931 . S
H193 C181 0.929 . S
H194 C182 0.960 . S
H195 C182 0.962 . S
H196 C182 0.960 . S
H197 C183 0.961 . S
H198 C183 0.961 . S
H199 C183 0.961 . S
H200 C184 0.931 . S
H201 C189 0.930 . S
H202 C190 0.956 . S
H203 C190 0.961 . S
H204 C190 0.961 . S
H205 C191 0.958 . S
H206 C191 0.961 . S
H207 C191 0.960 . S
C208 C209 1.391 . S
C208 C210 1.394 . S
C208 H224 0.931 . S
C209 C208 1.391 . S
C209 C213 1.376 . S
C210 C208 1.394 . S
C210 C211 1.369 . S
C210 C214 1.531 . S
C211 C210 1.369 . S
C211 C212 1.410 . S
C211 C219 1.503 . S
C212 C211 1.410 . S
C212 C213 1.392 . S
C212 C215 1.511 . S
C213 C209 1.376 . S
C213 C212 1.392 . S
C213 H225 0.929 . S
C214 C210 1.531 . S
C214 H226 0.960 . S
C214 H227 0.962 . S
C214 H228 0.960 . S
C215 C212 1.511 . S
C215 H229 0.961 . S
C215 H230 0.961 . S
C215 H231 0.961 . S
C216 C217 1.370 . S
C216 C218 1.363 . S
C216 H232 0.931 . S
C217 C216 1.370 . S
C217 C221 1.408 . S
C218 C216 1.363 . S
C218 C219 1.370 . S
C218 C222 1.524 . S
C219 C211 1.503 . S
C219 C218 1.370 . S
C219 C220 1.403 . S
C220 C219 1.403 . S
C220 C221 1.404 . S
C220 C223 1.539 . S
C221 C217 1.408 . S
C221 C220 1.404 . S
C221 H233 0.930 . S
C222 C218 1.524 . S
C222 H234 0.956 . S
C222 H235 0.961 . S
C222 H236 0.961 . S
C223 C220 1.539 . S
C223 H237 0.958 . S
C223 H238 0.961 . S
C223 H239 0.960 . S
H224 C208 0.931 . S
H225 C213 0.929 . S
H226 C214 0.960 . S
H227 C214 0.962 . S
H228 C214 0.960 . S
H229 C215 0.961 . S
H230 C215 0.961 . S
H231 C215 0.961 . S
H232 C216 0.931 . S
H233 C221 0.930 . S
H234 C222 0.956 . S
H235 C222 0.961 . S
H236 C222 0.961 . S
H237 C223 0.958 . S
H238 C223 0.961 . S
H239 C223 0.960 . S
C240 C241 1.391 . S
C240 C242 1.394 . S
C240 H256 0.931 . S
C241 C240 1.391 . S
C241 C245 1.376 . S
C242 C240 1.394 . S
C242 C243 1.369 . S
C242 C246 1.531 . S
C243 C242 1.369 . S
C243 C244 1.410 . S
C243 C251 1.503 . S
C244 C243 1.410 . S
C244 C245 1.392 . S
C244 C247 1.511 . S
C245 C241 1.376 . S
C245 C244 1.392 . S
C245 H257 0.929 . S
C246 C242 1.531 . S
C246 H258 0.960 . S
C246 H259 0.962 . S
C246 H260 0.960 . S
C247 C244 1.511 . S
C247 H261 0.961 . S
C247 H262 0.961 . S
C247 H263 0.961 . S
C248 C249 1.370 . S
C248 C250 1.363 . S
C248 H264 0.931 . S
C249 C248 1.370 . S
C249 C253 1.408 . S
C250 C248 1.363 . S
C250 C251 1.370 . S
C250 C254 1.524 . S
C251 C243 1.503 . S
C251 C250 1.370 . S
C251 C252 1.403 . S
C252 C251 1.403 . S
C252 C253 1.404 . S
C252 C255 1.539 . S
C253 C249 1.408 . S
C253 C252 1.404 . S
C253 H265 0.930 . S
C254 C250 1.524 . S
C254 H266 0.956 . S
C254 H267 0.961 . S
C254 H268 0.961 . S
C255 C252 1.539 . S
C255 H269 0.958 . S
C255 H270 0.961 . S
C255 H271 0.960 . S
H256 C240 0.931 . S
H257 C245 0.929 . S
H258 C246 0.960 . S
H259 C246 0.962 . S
H260 C246 0.960 . S
H261 C247 0.961 . S
H262 C247 0.961 . S
H263 C247 0.961 . S
H264 C248 0.931 . S
H265 C253 0.930 . S
H266 C254 0.956 . S
H267 C254 0.961 . S
H268 C254 0.961 . S
H269 C255 0.958 . S
H270 C255 0.961 . S
H271 C255 0.960 . S
C272 C273 1.391 . S
C272 C274 1.394 . S
C272 H288 0.931 . S
C273 C272 1.391 . S
C273 C277 1.376 . S
C274 C272 1.394 . S
C274 C275 1.369 . S
C274 C278 1.531 . S
C275 C274 1.369 . S
C275 C276 1.410 . S
C275 C283 1.503 . S
C276 C275 1.410 . S
C276 C277 1.392 . S
C276 C279 1.511 . S
C277 C273 1.376 . S
C277 C276 1.392 . S
C277 H289 0.929 . S
C278 C274 1.531 . S
C278 H290 0.960 . S
C278 H291 0.962 . S
C278 H292 0.960 . S
C279 C276 1.511 . S
C279 H293 0.961 . S
C279 H294 0.961 . S
C279 H295 0.961 . S
C280 C281 1.370 . S
C280 C282 1.363 . S
C280 H296 0.931 . S
C281 C280 1.370 . S
C281 C285 1.408 . S
C282 C280 1.363 . S
C282 C283 1.370 . S
C282 C286 1.524 . S
C283 C275 1.503 . S
C283 C282 1.370 . S
C283 C284 1.403 . S
C284 C283 1.403 . S
C284 C285 1.404 . S
C284 C287 1.539 . S
C285 C281 1.408 . S
C285 C284 1.404 . S
C285 H297 0.930 . S
C286 C282 1.524 . S
C286 H298 0.956 . S
C286 H299 0.961 . S
C286 H300 0.961 . S
C287 C284 1.539 . S
C287 H301 0.958 . S
C287 H302 0.961 . S
C287 H303 0.960 . S
H288 C272 0.931 . S
H289 C277 0.929 . S
H290 C278 0.960 . S
H291 C278 0.962 . S
H292 C278 0.960 . S
H293 C279 0.961 . S
H294 C279 0.961 . S
H295 C279 0.961 . S
H296 C280 0.931 . S
H297 C285 0.930 . S
H298 C286 0.956 . S
H299 C286 0.961 . S
H300 C286 0.961 . S
H301 C287 0.958 . S
H302 C287 0.961 . S
H303 C287 0.960 . S
C304 C305 1.391 . S
C304 C306 1.394 . S
C304 H320 0.931 . S
C305 C304 1.391 . S
C305 C309 1.376 . S
C306 C304 1.394 . S
C306 C307 1.369 . S
C306 C310 1.531 . S
C307 C306 1.369 . S
C307 C308 1.410 . S
C307 C315 1.503 . S
C308 C307 1.410 . S
C308 C309 1.392 . S
C308 C311 1.511 . S
C309 C305 1.376 . S
C309 C308 1.392 . S
C309 H321 0.929 . S
C310 C306 1.531 . S
C310 H322 0.960 . S
C310 H323 0.962 . S
C310 H324 0.960 . S
C311 C308 1.511 . S
C311 H325 0.961 . S
C311 H326 0.961 . S
C311 H327 0.961 . S
C312 C313 1.370 . S
C312 C314 1.363 . S
C312 H328 0.931 . S
C313 C312 1.370 . S
C313 C317 1.408 . S
C314 C312 1.363 . S
C314 C315 1.370 . S
C314 C318 1.524 . S
C315 C307 1.503 . S
C315 C314 1.370 . S
C315 C316 1.403 . S
C316 C315 1.403 . S
C316 C317 1.404 . S
C316 C319 1.539 . S
C317 C313 1.408 . S
C317 C316 1.404 . S
C317 H329 0.930 . S
C318 C314 1.524 . S
C318 H330 0.956 . S
C318 H331 0.961 . S
C318 H332 0.961 . S
C319 C316 1.539 . S
C319 H333 0.958 . S
C319 H334 0.961 . S
C319 H335 0.960 . S
H320 C304 0.931 . S
H321 C309 0.929 . S
H322 C310 0.960 . S
H323 C310 0.962 . S
H324 C310 0.960 . S
H325 C311 0.961 . S
H326 C311 0.961 . S
H327 C311 0.961 . S
H328 C312 0.931 . S
H329 C317 0.930 . S
H330 C318 0.956 . S
H331 C318 0.961 . S
H332 C318 0.961 . S
H333 C319 0.958 . S
H334 C319 0.961 . S
H335 C319 0.960 . S
C336 C337 1.391 . S
C336 C338 1.394 . S
C336 H352 0.931 . S
C337 C336 1.391 . S
C337 C341 1.376 . S
C338 C336 1.394 . S
C338 C339 1.369 . S
C338 C342 1.531 . S
C339 C338 1.369 . S
C339 C340 1.410 . S
C339 C347 1.503 . S
C340 C339 1.410 . S
C340 C341 1.392 . S
C340 C343 1.511 . S
C341 C337 1.376 . S
C341 C340 1.392 . S
C341 H353 0.929 . S
C342 C338 1.531 . S
C342 H354 0.960 . S
C342 H355 0.962 . S
C342 H356 0.960 . S
C343 C340 1.511 . S
C343 H357 0.961 . S
C343 H358 0.961 . S
C343 H359 0.961 . S
C344 C345 1.370 . S
C344 C346 1.363 . S
C344 H360 0.931 . S
C345 C344 1.370 . S
C345 C349 1.408 . S
C346 C344 1.363 . S
C346 C347 1.370 . S
C346 C350 1.524 . S
C347 C339 1.503 . S
C347 C346 1.370 . S
C347 C348 1.403 . S
C348 C347 1.403 . S
C348 C349 1.404 . S
C348 C351 1.539 . S
C349 C345 1.408 . S
C349 C348 1.404 . S
C349 H361 0.930 . S
C350 C346 1.524 . S
C350 H362 0.956 . S
C350 H363 0.961 . S
C350 H364 0.961 . S
C351 C348 1.539 . S
C351 H365 0.958 . S
C351 H366 0.961 . S
C351 H367 0.960 . S
H352 C336 0.931 . S
H353 C341 0.929 . S
H354 C342 0.960 . S
H355 C342 0.962 . S
H356 C342 0.960 . S
H357 C343 0.961 . S
H358 C343 0.961 . S
H359 C343 0.961 . S
H360 C344 0.931 . S
H361 C349 0.930 . S
H362 C350 0.956 . S
H363 C350 0.961 . S
H364 C350 0.961 . S
H365 C351 0.958 . S
H366 C351 0.961 . S
H367 C351 0.960 . S
C368 C369 1.391 . S
C368 C370 1.394 . S
C368 H384 0.931 . S
C369 C368 1.391 . S
C369 C373 1.376 . S
C370 C368 1.394 . S
C370 C371 1.369 . S
C370 C374 1.531 . S
C371 C370 1.369 . S
C371 C372 1.410 . S
C371 C379 1.503 . S
C372 C371 1.410 . S
C372 C373 1.392 . S
C372 C375 1.511 . S
C373 C369 1.376 . S
C373 C372 1.392 . S
C373 H385 0.929 . S
C374 C370 1.531 . S
C374 H386 0.960 . S
C374 H387 0.962 . S
C374 H388 0.960 . S
C375 C372 1.511 . S
C375 H389 0.961 . S
C375 H390 0.961 . S
C375 H391 0.961 . S
C376 C377 1.370 . S
C376 C378 1.363 . S
C376 H392 0.931 . S
C377 C376 1.370 . S
C377 C381 1.408 . S
C378 C376 1.363 . S
C378 C379 1.370 . S
C378 C382 1.524 . S
C379 C371 1.503 . S
C379 C378 1.370 . S
C379 C380 1.403 . S
C380 C379 1.403 . S
C380 C381 1.404 . S
C380 C383 1.539 . S
C381 C377 1.408 . S
C381 C380 1.404 . S
C381 H393 0.930 . S
C382 C378 1.524 . S
C382 H394 0.956 . S
C382 H395 0.961 . S
C382 H396 0.961 . S
C383 C380 1.539 . S
C383 H397 0.958 . S
C383 H398 0.961 . S
C383 H399 0.960 . S
H384 C368 0.931 . S
H385 C373 0.929 . S
H386 C374 0.960 . S
H387 C374 0.962 . S
H388 C374 0.960 . S
H389 C375 0.961 . S
H390 C375 0.961 . S
H391 C375 0.961 . S
H392 C376 0.931 . S
H393 C381 0.930 . S
H394 C382 0.956 . S
H395 C382 0.961 . S
H396 C382 0.961 . S
H397 C383 0.958 . S
H398 C383 0.961 . S
H399 C383 0.960 . S
C400 C401 1.391 . S
C400 C402 1.394 . S
C400 H416 0.931 . S
C401 C400 1.391 . S
C401 C405 1.376 . S
C402 C400 1.394 . S
C402 C403 1.369 . S
C402 C406 1.531 . S
C403 C402 1.369 . S
C403 C404 1.410 . S
C403 C411 1.503 . S
C404 C403 1.410 . S
C404 C405 1.392 . S
C404 C407 1.511 . S
C405 C401 1.376 . S
C405 C404 1.392 . S
C405 H417 0.929 . S
C406 C402 1.531 . S
C406 H418 0.960 . S
C406 H419 0.962 . S
C406 H420 0.960 . S
C407 C404 1.511 . S
C407 H421 0.961 . S
C407 H422 0.961 . S
C407 H423 0.961 . S
C408 C409 1.370 . S
C408 C410 1.363 . S
C408 H424 0.931 . S
C409 C408 1.370 . S
C409 C413 1.408 . S
C410 C408 1.363 . S
C410 C411 1.370 . S
C410 C414 1.524 . S
C411 C403 1.503 . S
C411 C410 1.370 . S
C411 C412 1.403 . S
C412 C411 1.403 . S
C412 C413 1.404 . S
C412 C415 1.539 . S
C413 C409 1.408 . S
C413 C412 1.404 . S
C413 H425 0.930 . S
C414 C410 1.524 . S
C414 H426 0.956 . S
C414 H427 0.961 . S
C414 H428 0.961 . S
C415 C412 1.539 . S
C415 H429 0.958 . S
C415 H430 0.961 . S
C415 H431 0.960 . S
H416 C400 0.931 . S
H417 C405 0.929 . S
H418 C406 0.960 . S
H419 C406 0.962 . S
H420 C406 0.960 . S
H421 C407 0.961 . S
H422 C407 0.961 . S
H423 C407 0.961 . S
H424 C408 0.931 . S
H425 C413 0.930 . S
H426 C414 0.956 . S
H427 C414 0.961 . S
H428 C414 0.961 . S
H429 C415 0.958 . S
H430 C415 0.961 . S
H431 C415 0.960 . S
C432 C433 1.391 . S
C432 C434 1.394 . S
C432 H448 0.931 . S
C433 C432 1.391 . S
C433 C437 1.376 . S
C434 C432 1.394 . S
C434 C435 1.369 . S
C434 C438 1.531 . S
C435 C434 1.369 . S
C435 C436 1.410 . S
C435 C443 1.503 . S
C436 C435 1.410 . S
C436 C437 1.392 . S
C436 C439 1.511 . S
C437 C433 1.376 . S
C437 C436 1.392 . S
C437 H449 0.929 . S
C438 C434 1.531 . S
C438 H450 0.960 . S
C438 H451 0.962 . S
C438 H452 0.960 . S
C439 C436 1.511 . S
C439 H453 0.961 . S
C439 H454 0.961 . S
C439 H455 0.961 . S
C440 C441 1.370 . S
C440 C442 1.363 . S
C440 H456 0.931 . S
C441 C440 1.370 . S
C441 C445 1.408 . S
C442 C440 1.363 . S
C442 C443 1.370 . S
C442 C446 1.524 . S
C443 C435 1.503 . S
C443 C442 1.370 . S
C443 C444 1.403 . S
C444 C443 1.403 . S
C444 C445 1.404 . S
C444 C447 1.539 . S
C445 C441 1.408 . S
C445 C444 1.404 . S
C445 H457 0.930 . S
C446 C442 1.524 . S
C446 H458 0.956 . S
C446 H459 0.961 . S
C446 H460 0.961 . S
C447 C444 1.539 . S
C447 H461 0.958 . S
C447 H462 0.961 . S
C447 H463 0.960 . S
H448 C432 0.931 . S
H449 C437 0.929 . S
H450 C438 0.960 . S
H451 C438 0.962 . S
H452 C438 0.960 . S
H453 C439 0.961 . S
H454 C439 0.961 . S
H455 C439 0.961 . S
H456 C440 0.931 . S
H457 C445 0.930 . S
H458 C446 0.956 . S
H459 C446 0.961 . S
H460 C446 0.961 . S
H461 C447 0.958 . S
H462 C447 0.961 . S
H463 C447 0.960 . S
C464 C465 1.391 . S
C464 C466 1.394 . S
C464 H480 0.931 . S
C465 C464 1.391 . S
C465 C469 1.376 . S
C466 C464 1.394 . S
C466 C467 1.369 . S
C466 C470 1.531 . S
C467 C466 1.369 . S
C467 C468 1.410 . S
C467 C475 1.503 . S
C468 C467 1.410 . S
C468 C469 1.392 . S
C468 C471 1.511 . S
C469 C465 1.376 . S
C469 C468 1.392 . S
C469 H481 0.929 . S
C470 C466 1.531 . S
C470 H482 0.960 . S
C470 H483 0.962 . S
C470 H484 0.960 . S
C471 C468 1.511 . S
C471 H485 0.961 . S
C471 H486 0.961 . S
C471 H487 0.961 . S
C472 C473 1.370 . S
C472 C474 1.363 . S
C472 H488 0.931 . S
C473 C472 1.370 . S
C473 C477 1.408 . S
C474 C472 1.363 . S
C474 C475 1.370 . S
C474 C478 1.524 . S
C475 C467 1.503 . S
C475 C474 1.370 . S
C475 C476 1.403 . S
C476 C475 1.403 . S
C476 C477 1.404 . S
C476 C479 1.539 . S
C477 C473 1.408 . S
C477 C476 1.404 . S
C477 H489 0.930 . S
C478 C474 1.524 . S
C478 H490 0.956 . S
C478 H491 0.961 . S
C478 H492 0.961 . S
C479 C476 1.539 . S
C479 H493 0.958 . S
C479 H494 0.961 . S
C479 H495 0.960 . S
H480 C464 0.931 . S
H481 C469 0.929 . S
H482 C470 0.960 . S
H483 C470 0.962 . S
H484 C470 0.960 . S
H485 C471 0.961 . S
H486 C471 0.961 . S
H487 C471 0.961 . S
H488 C472 0.931 . S
H489 C477 0.930 . S
H490 C478 0.956 . S
H491 C478 0.961 . S
H492 C478 0.961 . S
H493 C479 0.958 . S
H494 C479 0.961 . S
H495 C479 0.960 . S
C496 C497 1.391 . S
C496 C498 1.394 . S
C496 H512 0.931 . S
C497 C496 1.391 . S
C497 C501 1.376 1_455 S
C498 C496 1.394 . S
C498 C499 1.369 . S
C498 C502 1.531 1_545 S
C499 C498 1.369 . S
C499 C500 1.410 1_455 S
C499 C507 1.503 1_544 S
C500 C499 1.410 1_655 S
C500 C501 1.392 . S
C500 C503 1.511 1_554 S
C501 C497 1.376 1_655 S
C501 C500 1.392 . S
C501 H513 0.929 . S
C502 C498 1.531 1_565 S
C502 H514 0.960 . S
C502 H515 0.962 . S
C502 H516 0.960 . S
C503 C500 1.511 1_556 S
C503 H517 0.961 . S
C503 H518 0.961 . S
C503 H519 0.961 1_556 S
C504 C505 1.370 . S
C504 C506 1.363 . S
C504 H520 0.931 . S
C505 C504 1.370 . S
C505 C509 1.408 1_455 S
C506 C504 1.363 . S
C506 C507 1.370 . S
C506 C510 1.524 1_565 S
C507 C499 1.503 1_566 S
C507 C506 1.370 . S
C507 C508 1.403 1_455 S
C508 C507 1.403 1_655 S
C508 C509 1.404 . S
C508 C511 1.539 1_556 S
C509 C505 1.408 1_655 S
C509 C508 1.404 . S
C509 H521 0.930 . S
C510 C506 1.524 1_545 S
C510 H522 0.956 . S
C510 H523 0.961 . S
C510 H524 0.961 . S
C511 C508 1.539 1_554 S
C511 H525 0.958 . S
C511 H526 0.961 . S
C511 H527 0.960 . S
H512 C496 0.931 . S
H513 C501 0.929 . S
H514 C502 0.960 . S
H515 C502 0.962 . S
H516 C502 0.960 . S
H517 C503 0.961 . S
H518 C503 0.961 . S
H519 C503 0.961 1_554 S
H520 C504 0.931 . S
H521 C509 0.930 . S
H522 C510 0.956 . S
H523 C510 0.961 . S
H524 C510 0.961 . S
H525 C511 0.958 . S
H526 C511 0.961 . S
H527 C511 0.960 . S
C528 C529 1.391 1_655 S
C528 C530 1.394 . S
C528 H544 0.931 . S
C529 C528 1.391 1_455 S
C529 C533 1.376 . S
C530 C528 1.394 . S
C530 C531 1.369 1_655 S
C530 C534 1.531 . S
C531 C530 1.369 1_455 S
C531 C532 1.410 . S
C531 C539 1.503 1_556 S
C532 C531 1.410 . S
C532 C533 1.392 . S
C532 C535 1.511 . S
C533 C529 1.376 . S
C533 C532 1.392 . S
C533 H545 0.929 . S
C534 C530 1.531 . S
C534 H546 0.960 . S
C534 H547 0.962 . S
C534 H548 0.960 . S
C535 C532 1.511 . S
C535 H549 0.961 . S
C535 H550 0.961 1_556 S
C535 H551 0.961 . S
C536 C537 1.370 . S
C536 C538 1.363 . S
C536 H552 0.931 . S
C537 C536 1.370 . S
C537 C541 1.408 . S
C538 C536 1.363 . S
C538 C539 1.370 . S
C538 C542 1.524 . S
C539 C531 1.503 1_554 S
C539 C538 1.370 . S
C539 C540 1.405 . S
C540 C539 1.405 . S
C540 C541 1.412 . S
C540 C543 1.528 1_554 S
C541 C537 1.408 . S
C541 C540 1.412 . S
C541 H553 0.930 . S
C542 C538 1.524 . S
C542 H554 0.956 1_455 S
C542 H555 0.961 . S
C542 H556 0.961 . S
C543 C540 1.528 1_556 S
C543 H557 0.958 . S
C543 H558 0.961 . S
C543 H559 0.960 . S
H544 C528 0.931 . S
H545 C533 0.929 . S
H546 C534 0.960 . S
H547 C534 0.962 . S
H548 C534 0.960 . S
H549 C535 0.961 . S
H550 C535 0.961 1_554 S
H551 C535 0.961 . S
H552 C536 0.931 . S
H553 C541 0.930 . S
H554 C542 0.956 1_655 S
H555 C542 0.961 . S
H556 C542 0.961 . S
H557 C543 0.958 . S
H558 C543 0.961 . S
H559 C543 0.960 . S
C560 C561 1.391 . S
C560 C562 1.394 . S
C560 H576 0.931 . S
C561 C560 1.391 . S
C561 C565 1.376 . S
C562 C560 1.394 . S
C562 C563 1.369 . S
C562 C566 1.531 . S
C563 C562 1.369 . S
C563 C564 1.410 . S
C563 C571 1.503 . S
C564 C563 1.410 . S
C564 C565 1.392 . S
C564 C567 1.511 . S
C565 C561 1.376 . S
C565 C564 1.392 . S
C565 H577 0.929 . S
C566 C562 1.531 . S
C566 H578 0.960 . S
C566 H579 0.962 . S
C566 H580 0.960 . S
C567 C564 1.511 . S
C567 H581 0.961 . S
C567 H582 0.961 . S
C567 H583 0.961 . S
C568 C569 1.370 . S
C568 C570 1.363 . S
C568 H584 0.931 . S
C569 C568 1.370 . S
C569 C573 1.408 . S
C570 C568 1.363 . S
C570 C571 1.370 . S
C570 C574 1.524 . S
C571 C563 1.503 . S
C571 C570 1.370 . S
C571 C572 1.403 . S
C572 C571 1.403 . S
C572 C573 1.404 . S
C572 C575 1.539 . S
C573 C569 1.408 . S
C573 C572 1.404 . S
C573 H585 0.930 . S
C574 C570 1.524 . S
C574 H586 0.956 . S
C574 H587 0.961 . S
C574 H588 0.961 . S
C575 C572 1.539 . S
C575 H589 0.958 . S
C575 H590 0.961 . S
C575 H591 0.960 . S
H576 C560 0.931 . S
H577 C565 0.929 . S
H578 C566 0.960 . S
H579 C566 0.962 . S
H580 C566 0.960 . S
H581 C567 0.961 . S
H582 C567 0.961 . S
H583 C567 0.961 . S
H584 C568 0.931 . S
H585 C573 0.930 . S
H586 C574 0.956 . S
H587 C574 0.961 . S
H588 C574 0.961 . S
H589 C575 0.958 . S
H590 C575 0.961 . S
H591 C575 0.960 . S
C592 C593 1.391 . S
C592 C594 1.394 . S
C592 H608 0.931 . S
C593 C592 1.391 . S
C593 C597 1.376 . S
C594 C592 1.394 . S
C594 C595 1.369 . S
C594 C598 1.531 . S
C595 C594 1.369 . S
C595 C596 1.410 . S
C595 C603 1.503 1_565 S
C596 C595 1.410 . S
C596 C597 1.392 . S
C596 C599 1.511 . S
C597 C593 1.376 . S
C597 C596 1.392 . S
C597 H609 0.929 . S
C598 C594 1.531 . S
C598 H610 0.960 . S
C598 H611 0.962 1_565 S
C598 H612 0.960 . S
C599 C596 1.511 . S
C599 H613 0.961 . S
C599 H614 0.961 . S
C599 H615 0.961 . S
C600 C601 1.370 . S
C600 C602 1.363 . S
C600 H616 0.931 . S
C601 C600 1.370 . S
C601 C605 1.408 . S
C602 C600 1.363 . S
C602 C603 1.370 . S
C602 C606 1.524 . S
C603 C595 1.503 1_545 S
C603 C602 1.370 . S
C603 C604 1.403 . S
C604 C603 1.403 . S
C604 C605 1.404 . S
C604 C607 1.539 1_545 S
C605 C601 1.408 . S
C605 C604 1.404 . S
C605 H617 0.930 . S
C606 C602 1.524 . S
C606 H618 0.956 . S
C606 H619 0.961 . S
C606 H620 0.961 . S
C607 C604 1.539 1_565 S
C607 H621 0.958 . S
C607 H622 0.961 . S
C607 H623 0.960 . S
H608 C592 0.931 . S
H609 C597 0.929 . S
H610 C598 0.960 . S
H611 C598 0.962 1_545 S
H612 C598 0.960 . S
H613 C599 0.961 . S
H614 C599 0.961 . S
H615 C599 0.961 . S
H616 C600 0.931 . S
H617 C605 0.930 . S
H618 C606 0.956 . S
H619 C606 0.961 . S
H620 C606 0.961 . S
H621 C607 0.958 . S
H622 C607 0.961 . S
H623 C607 0.960 . S
C113 C19 1.431 . S
C121 C5 1.438 . S
C145 C33 1.440 . S
C153 C47 1.442 . S
C177 C61 1.445 . S
C185 C75 1.444 . S
C209 C89 1.430 . S
C217 C103 1.438 . S
C241 C98 1.399 . S
C249 C0 1.414 . S
C273 C84 1.407 . S
C281 C14 1.412 . S
C305 C28 1.399 . S
C313 C70 1.413 . S
C337 C56 1.403 . S
C345 C42 1.411 . S
C369 C79 1.401 . S
C377 C37 1.417 . S
C401 C65 1.421 . S
C409 C51 1.414 . S
C433 C107 1.414 . S
C441 C9 1.411 . S
C465 C23 1.409 . S
C473 C93 1.413 . S
C497 C11 1.383 . S
C505 C39 1.381 . S
C529 C53 1.385 . S
C537 C25 1.381 . S
C561 C95 1.383 . S
C569 C67 1.381 . S
C593 C81 1.374 . S
C601 C109 1.386 . S
