# Generated by pormake.
# Topology wig, (6)-cn, num edge types: 1
# Building blocks:
#     Node 0, Type 0, BuildingBlock: OJICUG_clean_sbu_0, # of connection points: 6
#     Node 1, Type 0, BuildingBlock: OJICUG_clean_sbu_0, # of connection points: 6
#     Node 2, Type 0, BuildingBlock: OJICUG_clean_sbu_0, # of connection points: 6
#     Node 3, Type 0, BuildingBlock: OJICUG_clean_sbu_0, # of connection points: 6
#     Node 4, Type 0, BuildingBlock: OJICUG_clean_sbu_0, # of connection points: 6
#     Node 5, Type 0, BuildingBlock: OJICUG_clean_sbu_0, # of connection points: 6
#     Node 6, Type 0, BuildingBlock: OJICUG_clean_sbu_0, # of connection points: 6
#     Node 7, Type 0, BuildingBlock: OJICUG_clean_sbu_0, # of connection points: 6
#     Node 8, Type 0, BuildingBlock: OJICUG_clean_sbu_0, # of connection points: 6
#     Node 9, Type 0, BuildingBlock: OJICUG_clean_sbu_0, # of connection points: 6
#     Node 10, Type 0, BuildingBlock: OJICUG_clean_sbu_0, # of connection points: 6
#     Node 11, Type 0, BuildingBlock: OJICUG_clean_sbu_0, # of connection points: 6
#     Node 12, Type 0, BuildingBlock: OJICUG_clean_sbu_0, # of connection points: 6
#     Node 13, Type 0, BuildingBlock: OJICUG_clean_sbu_0, # of connection points: 6
#     Node 14, Type 0, BuildingBlock: OJICUG_clean_sbu_0, # of connection points: 6
#     Node 15, Type 0, BuildingBlock: OJICUG_clean_sbu_0, # of connection points: 6
#     Edge 16, Type (0, 0), None
#     Edge 17, Type (0, 0), None
#     Edge 18, Type (0, 0), None
#     Edge 19, Type (0, 0), None
#     Edge 20, Type (0, 0), None
#     Edge 21, Type (0, 0), None
#     Edge 22, Type (0, 0), None
#     Edge 23, Type (0, 0), None
#     Edge 24, Type (0, 0), None
#     Edge 25, Type (0, 0), None
#     Edge 26, Type (0, 0), None
#     Edge 27, Type (0, 0), None
#     Edge 28, Type (0, 0), None
#     Edge 29, Type (0, 0), None
#     Edge 30, Type (0, 0), None
#     Edge 31, Type (0, 0), None
#     Edge 32, Type (0, 0), None
#     Edge 33, Type (0, 0), None
#     Edge 34, Type (0, 0), None
#     Edge 35, Type (0, 0), None
#     Edge 36, Type (0, 0), None
#     Edge 37, Type (0, 0), None
#     Edge 38, Type (0, 0), None
#     Edge 39, Type (0, 0), None
#     Edge 40, Type (0, 0), None
#     Edge 41, Type (0, 0), None
#     Edge 42, Type (0, 0), None
#     Edge 43, Type (0, 0), None
#     Edge 44, Type (0, 0), None
#     Edge 45, Type (0, 0), None
#     Edge 46, Type (0, 0), None
#     Edge 47, Type (0, 0), None
#     Edge 48, Type (0, 0), None
#     Edge 49, Type (0, 0), None
#     Edge 50, Type (0, 0), None
#     Edge 51, Type (0, 0), None
#     Edge 52, Type (0, 0), None
#     Edge 53, Type (0, 0), None
#     Edge 54, Type (0, 0), None
#     Edge 55, Type (0, 0), None
#     Edge 56, Type (0, 0), None
#     Edge 57, Type (0, 0), None
#     Edge 58, Type (0, 0), None
#     Edge 59, Type (0, 0), None
#     Edge 60, Type (0, 0), None
#     Edge 61, Type (0, 0), None
#     Edge 62, Type (0, 0), None
#     Edge 63, Type (0, 0), None
# Relax obj value: 0.258
# Max RMSD: 0.298
# Mean RMSD: 0.298
data_MOF--net-wig--node1-OJICUG_clean_sbu_0--edge1-none
_symmetry_space_group_name_H-M    P1
_symmetry_Int_Tables_number       1
_symmetry_cell_setting            triclinic
loop_
_symmetry_equiv_pos_as_xyz
'x, y, z'
_cell_length_a     14.062908
_cell_length_b     14.063469
_cell_length_c     46.147142
_cell_angle_alpha  90.000455
_cell_angle_beta   89.999376
_cell_angle_gamma 90.000407
loop_
_atom_site_label
_atom_site_type_symbol
_atom_site_fract_x
_atom_site_fract_y
_atom_site_fract_z
_atom_type_partial_charge
Sc0 Sc 0.09447 0.2602 0.2652 0.0
Sc1 Sc 0.18808 0.19719 0.19841 0.0
Sc2 Sc 0.26116 0.08527 0.2629 0.0
O3 O 0.17798 0.17634 0.24196 0.0
C4 C 0.23874 0.21757 0.3172 0.0
C5 C 0.2063 0.39603 0.22466 0.0
C6 C 0.39721 0.21157 0.2256 0.0
C7 C 0.98589 0.2547 0.20221 0.0
C8 C 0.0387 0.0377 0.27731 0.0
C9 C 0.25916 0.99009 0.2002 0.0
O10 O 0.16674 0.2608 0.30727 0.0
O11 O 0.17084 0.34425 0.20509 0.0
O12 O 0.38618 0.16597 0.24937 0.0
O13 O 0.00462 0.28144 0.22799 0.0
O14 O 0.12645 0.01047 0.27476 0.0
O15 O 0.21214 0.05031 0.18562 0.0
O16 O 0.0143 0.12677 0.27585 0.0
O17 O 0.03779 0.19468 0.18892 0.0
O18 O 0.27592 0.00035 0.22669 0.0
O19 O 0.18515 0.3817 0.25139 0.0
O20 O 0.27642 0.15094 0.30348 0.0
O21 O 0.33439 0.21605 0.20583 0.0
Sc22 Sc 0.26024 0.905 0.6502 0.0
Sc23 Sc 0.19726 0.81134 0.71698 0.0
Sc24 Sc 0.08536 0.73826 0.65248 0.0
O25 O 0.1764 0.82145 0.67343 0.0
C26 C 0.03774 0.96071 0.63807 0.0
C27 C 0.2546 0.01358 0.71319 0.0
C28 C 0.99018 0.74011 0.71518 0.0
C29 C 0.39614 0.79332 0.69075 0.0
C30 C 0.21776 0.76067 0.5982 0.0
C31 C 0.21177 0.60226 0.68977 0.0
O32 O 0.1268 0.98513 0.63953 0.0
O33 O 0.19462 0.96162 0.72648 0.0
O34 O 0.00043 0.72346 0.68869 0.0
O35 O 0.38176 0.81436 0.66401 0.0
O36 O 0.15109 0.723 0.61191 0.0
O37 O 0.21625 0.66506 0.70954 0.0
O38 O 0.26091 0.83271 0.60812 0.0
O39 O 0.34432 0.82873 0.71031 0.0
O40 O 0.16608 0.61326 0.66601 0.0
O41 O 0.28139 0.99485 0.68741 0.0
O42 O 0.01053 0.87296 0.64062 0.0
O43 O 0.05038 0.78714 0.72977 0.0
Sc44 Sc 0.73827 0.91411 0.2629 0.0
Sc45 Sc 0.81135 0.80219 0.19841 0.0
Sc46 Sc 0.90497 0.73918 0.2652 0.0
O47 O 0.82145 0.82304 0.24196 0.0
C48 C 0.96073 0.96168 0.27732 0.0
C49 C 0.74028 0.00929 0.2002 0.0
C50 C 0.01355 0.74468 0.20221 0.0
C51 C 0.60223 0.78781 0.2256 0.0
C52 C 0.7607 0.78181 0.3172 0.0
C53 C 0.79314 0.60335 0.22466 0.0
O54 O 0.87298 0.98891 0.27476 0.0
O55 O 0.7873 0.94907 0.18562 0.0
O56 O 0.99481 0.71794 0.22799 0.0
O57 O 0.61325 0.83341 0.24937 0.0
O58 O 0.83269 0.73859 0.30727 0.0
O59 O 0.8286 0.65513 0.20509 0.0
O60 O 0.723 0.84844 0.30348 0.0
O61 O 0.66505 0.78333 0.20583 0.0
O62 O 0.81429 0.61768 0.25139 0.0
O63 O 0.72352 0.99903 0.22669 0.0
O64 O 0.98513 0.87262 0.27585 0.0
O65 O 0.96165 0.8047 0.18891 0.0
Sc66 Sc 0.91408 0.26112 0.65248 0.0
Sc67 Sc 0.80218 0.18804 0.71698 0.0
Sc68 Sc 0.7392 0.09438 0.6502 0.0
O69 O 0.82304 0.17792 0.67342 0.0
C70 C 0.7817 0.2387 0.5982 0.0
C71 C 0.78767 0.39712 0.68976 0.0
C72 C 0.6033 0.20606 0.69074 0.0
C73 C 0.00926 0.25927 0.71518 0.0
C74 C 0.9617 0.03867 0.63806 0.0
C75 C 0.74484 0.9858 0.71319 0.0
O76 O 0.84837 0.27637 0.6119 0.0
O77 O 0.78319 0.33432 0.70954 0.0
O78 O 0.61768 0.18502 0.66401 0.0
O79 O 0.99901 0.27593 0.68869 0.0
O80 O 0.87265 0.01425 0.63953 0.0
O81 O 0.80482 0.03776 0.72648 0.0
O82 O 0.98892 0.12642 0.64062 0.0
O83 O 0.94906 0.21224 0.72977 0.0
O84 O 0.71805 0.00453 0.68741 0.0
O85 O 0.83336 0.38612 0.66601 0.0
O86 O 0.73855 0.16666 0.60812 0.0
O87 O 0.65512 0.17065 0.71031 0.0
Sc88 Sc 0.26117 0.41412 0.9025 0.0
Sc89 Sc 0.18809 0.3022 -0.03301 0.0
Sc90 Sc 0.09448 0.23919 0.9002 0.0
O91 O 0.17799 0.32305 0.92343 0.0
C92 C 0.0387 0.46168 0.88808 0.0
C93 C 0.25915 0.50931 -0.0348 0.0
C94 C 0.98589 0.24469 -0.03681 0.0
C95 C 0.39721 0.28784 0.9398 0.0
C96 C 0.23875 0.28181 0.8482 0.0
C97 C 0.2063 0.10337 0.94074 0.0
O98 O 0.12645 0.48891 0.89064 0.0
O99 O 0.21214 0.44908 -0.02022 0.0
O100 O 0.00463 0.21795 0.93741 0.0
O101 O 0.38619 0.33343 0.91603 0.0
O102 O 0.16675 0.2386 0.85812 0.0
O103 O 0.17084 0.15514 -0.03969 0.0
O104 O 0.27644 0.34843 0.86192 0.0
O105 O 0.3344 0.28335 -0.04043 0.0
O106 O 0.18516 0.11769 0.91401 0.0
O107 O 0.27591 0.49905 0.93871 0.0
O108 O 0.01431 0.37262 0.88955 0.0
O109 O 0.03779 0.30472 -0.02352 0.0
Sc110 Sc 0.23921 0.90501 0.0152 0.0
Sc111 Sc 0.30215 0.81135 0.94842 0.0
Sc112 Sc 0.41408 0.73827 0.01292 0.0
O113 O 0.32304 0.82146 -0.00803 0.0
C114 C 0.4617 0.96073 0.02733 0.0
C115 C 0.24488 0.01359 0.95222 0.0
C116 C 0.50925 0.74013 0.95021 0.0
C117 C 0.1033 0.79336 -0.02534 0.0
C118 C 0.28169 0.76067 0.06719 0.0
C119 C 0.28757 0.60231 -0.02436 0.0
O120 O 0.37265 0.98514 0.02587 0.0
O121 O 0.30486 0.96164 0.93892 0.0
O122 O 0.49903 0.72351 -0.02329 0.0
O123 O 0.11768 0.81437 0.0014 0.0
O124 O 0.34834 0.72298 0.05349 0.0
O125 O 0.28309 0.66509 0.95585 0.0
O126 O 0.23856 0.83273 0.05728 0.0
O127 O 0.1551 0.82881 0.95509 0.0
O128 O 0.33338 0.61326 -0.00063 0.0
O129 O 0.21807 0.99487 -0.02201 0.0
O130 O 0.4889 0.87297 0.02478 0.0
O131 O 0.44901 0.78709 0.93562 0.0
Sc132 Sc 0.90498 0.7602 0.9002 0.0
Sc133 Sc 0.81135 0.69724 -0.03301 0.0
Sc134 Sc 0.73827 0.58528 0.9025 0.0
O135 O 0.82145 0.67636 0.92343 0.0
C136 C 0.76069 0.71759 0.8482 0.0
C137 C 0.79317 0.89605 0.94073 0.0
C138 C 0.60226 0.71167 0.93978 0.0
C139 C 0.01355 0.75469 -0.03682 0.0
C140 C 0.96074 0.53771 0.88808 0.0
C141 C 0.74027 0.49011 -0.0348 0.0
O142 O 0.8327 0.76078 0.85812 0.0
O143 O 0.82867 0.84429 -0.0397 0.0
O144 O 0.61324 0.66595 0.91604 0.0
O145 O 0.99482 0.78143 0.93741 0.0
O146 O 0.87298 0.51048 0.89064 0.0
O147 O 0.78722 0.55038 -0.02021 0.0
O148 O 0.98514 0.62677 0.88955 0.0
O149 O 0.96164 0.69468 -0.02352 0.0
O150 O 0.72356 0.50035 0.93871 0.0
O151 O 0.8143 0.88172 0.914 0.0
O152 O 0.72298 0.65097 0.86192 0.0
O153 O 0.66505 0.71617 -0.04044 0.0
Sc154 Sc 0.58537 0.26114 0.01292 0.0
Sc155 Sc 0.69726 0.18806 0.94842 0.0
Sc156 Sc 0.76024 0.09439 0.0152 0.0
O157 O 0.67641 0.17794 -0.00803 0.0
C158 C 0.71777 0.23871 0.0672 0.0
C159 C 0.71184 0.39711 -0.02436 0.0
C160 C 0.89613 0.20605 -0.02535 0.0
C161 C 0.4902 0.25933 0.95022 0.0
C162 C 0.53775 0.03868 0.02734 0.0
C163 C 0.75458 0.98582 0.95221 0.0
O164 O 0.65111 0.27639 0.05349 0.0
O165 O 0.7163 0.33433 0.95586 0.0
O166 O 0.88177 0.18501 0.00139 0.0
O167 O 0.50044 0.27594 -0.02328 0.0
O168 O 0.6268 0.01426 0.02587 0.0
O169 O 0.6946 0.03778 0.93892 0.0
O170 O 0.51054 0.12644 0.02478 0.0
O171 O 0.5504 0.2123 0.93563 0.0
O172 O 0.78137 0.00454 -0.02202 0.0
O173 O 0.66608 0.38615 -0.00062 0.0
O174 O 0.7609 0.16666 0.05728 0.0
O175 O 0.84432 0.17066 0.95508 0.0
Sc176 Sc 0.59446 0.7602 0.7652 0.0
Sc177 Sc 0.68809 0.69721 0.69841 0.0
Sc178 Sc 0.76117 0.58527 0.7629 0.0
O179 O 0.67799 0.67635 0.74196 0.0
C180 C 0.73878 0.7176 0.81718 0.0
C181 C 0.70626 0.89602 0.72466 0.0
C182 C 0.89718 0.71165 0.72561 0.0
C183 C 0.48589 0.75467 0.70222 0.0
C184 C 0.5387 0.5377 0.77732 0.0
C185 C 0.75919 0.4901 0.7002 0.0
O186 O 0.66673 0.76078 0.80728 0.0
O187 O 0.6708 0.84426 0.70509 0.0
O188 O 0.88619 0.66595 0.74936 0.0
O189 O 0.50462 0.78142 0.72799 0.0
O190 O 0.62645 0.51048 0.77476 0.0
O191 O 0.7122 0.55034 0.68561 0.0
O192 O 0.5143 0.62676 0.77585 0.0
O193 O 0.53779 0.69465 0.68892 0.0
O194 O 0.77589 0.50035 0.72669 0.0
O195 O 0.68513 0.88171 0.7514 0.0
O196 O 0.77648 0.65097 0.80347 0.0
O197 O 0.83439 0.71613 0.70583 0.0
Sc198 Sc 0.76024 0.405 0.15019 0.0
Sc199 Sc 0.69727 0.31134 0.21698 0.0
Sc200 Sc 0.58536 0.23825 0.15248 0.0
O201 O 0.67641 0.32145 0.17343 0.0
C202 C 0.53774 0.46072 0.13806 0.0
C203 C 0.75456 0.51358 0.21318 0.0
C204 C 0.4902 0.24009 0.21518 0.0
C205 C 0.89613 0.29335 0.19074 0.0
C206 C 0.71779 0.26064 0.09822 0.0
C207 C 0.71185 0.10229 0.18976 0.0
O208 O 0.6268 0.48513 0.13953 0.0
O209 O 0.69458 0.46162 0.22648 0.0
O210 O 0.50042 0.22349 0.18868 0.0
O211 O 0.88177 0.31438 0.164 0.0
O212 O 0.65112 0.22295 0.11191 0.0
O213 O 0.71633 0.16507 0.20954 0.0
O214 O 0.76089 0.33273 0.10812 0.0
O215 O 0.84433 0.32877 0.21031 0.0
O216 O 0.66606 0.11325 0.16603 0.0
O217 O 0.78137 0.49485 0.18741 0.0
O218 O 0.51054 0.37295 0.14061 0.0
O219 O 0.55041 0.28707 0.22977 0.0
Sc220 Sc 0.23827 0.41411 0.7629 0.0
Sc221 Sc 0.31135 0.30217 0.69841 0.0
Sc222 Sc 0.40497 0.23918 0.7652 0.0
O223 O 0.32145 0.32303 0.74196 0.0
C224 C 0.46073 0.46167 0.77733 0.0
C225 C 0.24025 0.50927 0.7002 0.0
C226 C 0.51355 0.24471 0.70221 0.0
C227 C 0.10226 0.28773 0.72561 0.0
C228 C 0.26066 0.28178 0.81718 0.0
C229 C 0.29317 0.10336 0.72466 0.0
O230 O 0.37298 0.4889 0.77477 0.0
O231 O 0.28723 0.44904 0.68561 0.0
O232 O 0.49482 0.21796 0.72799 0.0
O233 O 0.11324 0.33343 0.74936 0.0
O234 O 0.33271 0.2386 0.80728 0.0
O235 O 0.32864 0.15511 0.70509 0.0
O236 O 0.22296 0.34841 0.80347 0.0
O237 O 0.16505 0.28325 0.70583 0.0
O238 O 0.31431 0.11767 0.7514 0.0
O239 O 0.22355 0.49903 0.72669 0.0
O240 O 0.48514 0.37262 0.77585 0.0
O241 O 0.46165 0.30473 0.68892 0.0
Sc242 Sc 0.41408 0.76113 0.15248 0.0
Sc243 Sc 0.30216 0.68804 0.21698 0.0
Sc244 Sc 0.2392 0.59437 0.15019 0.0
O245 O 0.32303 0.67793 0.17342 0.0
C246 C 0.28167 0.73874 0.09821 0.0
C247 C 0.28759 0.89709 0.18976 0.0
C248 C 0.10331 0.70603 0.19074 0.0
C249 C 0.50924 0.7593 0.21518 0.0
C250 C 0.4617 0.53867 0.13806 0.0
C251 C 0.24487 0.4858 0.21318 0.0
O252 O 0.34834 0.77642 0.11191 0.0
O253 O 0.28311 0.83431 0.20954 0.0
O254 O 0.11767 0.685 0.164 0.0
O255 O 0.49901 0.7759 0.18868 0.0
O256 O 0.37265 0.51424 0.13953 0.0
O257 O 0.30485 0.53776 0.22647 0.0
O258 O 0.48891 0.62643 0.14061 0.0
O259 O 0.44903 0.71231 0.22977 0.0
O260 O 0.21807 0.50453 0.18741 0.0
O261 O 0.33338 0.88613 0.16602 0.0
O262 O 0.23856 0.66665 0.10812 0.0
O263 O 0.15511 0.67061 0.21031 0.0
Sc264 Sc 0.76117 0.91413 0.4025 0.0
Sc265 Sc 0.68808 0.80219 0.46699 0.0
Sc266 Sc 0.59447 0.73919 0.4002 0.0
O267 O 0.67799 0.82305 0.42343 0.0
C268 C 0.5387 0.96168 0.38808 0.0
C269 C 0.75914 0.00931 0.4652 0.0
C270 C 0.48589 0.7447 0.46319 0.0
C271 C 0.89721 0.78783 0.4398 0.0
C272 C 0.73879 0.78179 0.34822 0.0
C273 C 0.7063 0.60336 0.44074 0.0
O274 O 0.62645 0.98891 0.39063 0.0
O275 O 0.71216 0.94906 0.47978 0.0
O276 O 0.50463 0.71796 0.43741 0.0
O277 O 0.88619 0.83346 0.41604 0.0
O278 O 0.66674 0.73861 0.35812 0.0
O279 O 0.67081 0.65513 0.4603 0.0
O280 O 0.77648 0.84843 0.36192 0.0
O281 O 0.83439 0.78331 0.45957 0.0
O282 O 0.68515 0.61769 0.414 0.0
O283 O 0.77588 0.99906 0.43871 0.0
O284 O 0.5143 0.87262 0.38954 0.0
O285 O 0.53779 0.80472 0.47648 0.0
Sc286 Sc 0.73921 0.40501 0.51521 0.0
Sc287 Sc 0.80214 0.31135 0.44842 0.0
Sc288 Sc 0.91409 0.23827 0.51291 0.0
O289 O 0.82303 0.32146 0.49197 0.0
C290 C 0.9617 0.46073 0.52734 0.0
C291 C 0.74488 0.51359 0.45222 0.0
C292 C 0.00925 0.24014 0.45021 0.0
C293 C 0.60329 0.29336 0.47466 0.0
C294 C 0.78167 0.26063 0.56718 0.0
C295 C 0.78756 0.10231 0.47564 0.0
O296 O 0.87265 0.48515 0.52587 0.0
O297 O 0.80486 0.46163 0.43892 0.0
O298 O 0.99904 0.22354 0.47671 0.0
O299 O 0.61767 0.31437 0.5014 0.0
O300 O 0.84834 0.22295 0.55348 0.0
O301 O 0.78305 0.16509 0.45586 0.0
O302 O 0.73857 0.33273 0.55728 0.0
O303 O 0.65509 0.32884 0.4551 0.0
O304 O 0.83341 0.11326 0.49936 0.0
O305 O 0.71807 0.49487 0.47799 0.0
O306 O 0.9889 0.37297 0.52478 0.0
O307 O 0.94899 0.28706 0.43562 0.0
Sc308 Sc 0.40498 0.2602 0.40019 0.0
Sc309 Sc 0.31135 0.19725 0.46698 0.0
Sc310 Sc 0.23827 0.08527 0.4025 0.0
O311 O 0.32145 0.17636 0.42343 0.0
C312 C 0.26065 0.2176 0.34822 0.0
C313 C 0.29318 0.39606 0.44073 0.0
C314 C 0.10225 0.21168 0.43978 0.0
C315 C 0.51356 0.25468 0.46318 0.0
C316 C 0.46074 0.03771 0.38807 0.0
C317 C 0.24028 0.99011 0.4652 0.0
O318 O 0.3327 0.26077 0.35812 0.0
O319 O 0.32869 0.3443 0.46029 0.0
O320 O 0.11323 0.16593 0.41604 0.0
O321 O 0.49483 0.28143 0.43741 0.0
O322 O 0.37298 0.01049 0.39063 0.0
O323 O 0.2872 0.05039 0.47979 0.0
O324 O 0.48514 0.12677 0.38954 0.0
O325 O 0.46164 0.19468 0.47648 0.0
O326 O 0.22359 0.00034 0.43871 0.0
O327 O 0.3143 0.38172 0.41399 0.0
O328 O 0.22294 0.15098 0.36193 0.0
O329 O 0.16506 0.2162 0.45956 0.0
Sc330 Sc 0.08536 0.76114 0.51292 0.0
Sc331 Sc 0.19727 0.68806 0.44842 0.0
Sc332 Sc 0.26024 0.59438 0.5152 0.0
O333 O 0.17641 0.67794 0.49197 0.0
C334 C 0.21778 0.73875 0.56718 0.0
C335 C 0.21185 0.89711 0.47564 0.0
C336 C 0.39613 0.70604 0.47465 0.0
C337 C 0.9902 0.75932 0.45022 0.0
C338 C 0.03775 0.53868 0.52734 0.0
C339 C 0.25457 0.48582 0.45221 0.0
O340 O 0.15111 0.77643 0.55349 0.0
O341 O 0.21633 0.83433 0.45586 0.0
O342 O 0.38177 0.68501 0.50139 0.0
O343 O 0.00043 0.77592 0.47672 0.0
O344 O 0.1268 0.51426 0.52587 0.0
O345 O 0.1946 0.53778 0.43892 0.0
O346 O 0.01054 0.62644 0.52478 0.0
O347 O 0.05041 0.71232 0.43563 0.0
O348 O 0.28137 0.50454 0.47798 0.0
O349 O 0.16606 0.88615 0.49938 0.0
O350 O 0.26089 0.66666 0.55728 0.0
O351 O 0.34433 0.67063 0.45508 0.0
loop_
_geom_bond_atom_site_label_1
_geom_bond_atom_site_label_2
_geom_bond_distance
_geom_bond_site_symmetry_2
_ccdc_geom_bond_type
Sc0 O3 2.025 . S
Sc0 O10 2.105 . S
Sc0 O13 2.105 1_455 S
Sc0 O16 2.105 . S
Sc0 O19 2.105 . S
Sc1 O3 2.025 . S
Sc1 O11 2.105 . S
Sc1 O15 2.105 . S
Sc1 O17 2.105 . S
Sc1 O21 2.105 . S
Sc2 O3 2.025 . S
Sc2 O12 2.105 . S
Sc2 O14 2.105 . S
Sc2 O18 2.105 . S
Sc2 O20 2.105 . S
O3 Sc0 2.025 . S
O3 Sc1 2.025 . S
O3 Sc2 2.025 . S
C4 O10 1.268 . S
C4 O20 1.268 . S
C5 O11 1.268 . S
C5 O19 1.268 . S
C6 O12 1.268 . S
C6 O21 1.268 . S
C7 O13 1.268 1_455 S
C7 O17 1.268 . S
C8 O14 1.268 . S
C8 O16 1.268 . S
C9 O15 1.268 . S
C9 O18 1.268 . S
O10 Sc0 2.105 . S
O10 C4 1.268 . S
O11 Sc1 2.105 . S
O11 C5 1.268 . S
O12 Sc2 2.105 . S
O12 C6 1.268 . S
O13 Sc0 2.105 1_655 S
O13 C7 1.268 1_655 S
O14 Sc2 2.105 . S
O14 C8 1.268 . S
O15 Sc1 2.105 . S
O15 C9 1.268 . S
O16 Sc0 2.105 . S
O16 C8 1.268 . S
O17 Sc1 2.105 . S
O17 C7 1.268 . S
O18 Sc2 2.105 . S
O18 C9 1.268 . S
O19 Sc0 2.105 . S
O19 C5 1.268 . S
O20 Sc2 2.105 . S
O20 C4 1.268 . S
O21 Sc1 2.105 . S
O21 C6 1.268 . S
Sc22 O25 2.025 . S
Sc22 O32 2.105 . S
Sc22 O35 2.105 . S
Sc22 O38 2.105 . S
Sc22 O41 2.105 1_565 S
Sc23 O25 2.025 . S
Sc23 O33 2.105 . S
Sc23 O37 2.105 . S
Sc23 O39 2.105 . S
Sc23 O43 2.105 . S
Sc24 O25 2.025 . S
Sc24 O34 2.105 . S
Sc24 O36 2.105 . S
Sc24 O40 2.105 . S
Sc24 O42 2.105 . S
O25 Sc22 2.025 . S
O25 Sc23 2.025 . S
O25 Sc24 2.025 . S
C26 O32 1.268 . S
C26 O42 1.268 . S
C27 O33 1.268 . S
C27 O41 1.268 1_565 S
C28 O34 1.268 . S
C28 O43 1.268 . S
C29 O35 1.268 . S
C29 O39 1.268 . S
C30 O36 1.268 . S
C30 O38 1.268 . S
C31 O37 1.268 . S
C31 O40 1.268 . S
O32 Sc22 2.105 . S
O32 C26 1.268 . S
O33 Sc23 2.105 . S
O33 C27 1.268 . S
O34 Sc24 2.105 . S
O34 C28 1.268 . S
O35 Sc22 2.105 . S
O35 C29 1.268 . S
O36 Sc24 2.105 . S
O36 C30 1.268 . S
O37 Sc23 2.105 . S
O37 C31 1.268 . S
O38 Sc22 2.105 . S
O38 C30 1.268 . S
O39 Sc23 2.105 . S
O39 C29 1.268 . S
O40 Sc24 2.105 . S
O40 C31 1.268 . S
O41 Sc22 2.105 1_545 S
O41 C27 1.268 1_545 S
O42 Sc24 2.105 . S
O42 C26 1.268 . S
O43 Sc23 2.105 . S
O43 C28 1.268 . S
Sc44 O47 2.025 . S
Sc44 O54 2.105 . S
Sc44 O57 2.105 . S
Sc44 O60 2.105 . S
Sc44 O63 2.105 . S
Sc45 O47 2.025 . S
Sc45 O55 2.105 . S
Sc45 O59 2.105 . S
Sc45 O61 2.105 . S
Sc45 O65 2.105 . S
Sc46 O47 2.025 . S
Sc46 O56 2.105 1_655 S
Sc46 O58 2.105 . S
Sc46 O62 2.105 . S
Sc46 O64 2.105 . S
O47 Sc44 2.025 . S
O47 Sc45 2.025 . S
O47 Sc46 2.025 . S
C48 O54 1.268 . S
C48 O64 1.268 . S
C49 O55 1.268 . S
C49 O63 1.268 . S
C50 O56 1.268 1_655 S
C50 O65 1.268 . S
C51 O57 1.268 . S
C51 O61 1.268 . S
C52 O58 1.268 . S
C52 O60 1.268 . S
C53 O59 1.268 . S
C53 O62 1.268 . S
O54 Sc44 2.105 . S
O54 C48 1.268 . S
O55 Sc45 2.105 . S
O55 C49 1.268 . S
O56 Sc46 2.105 1_455 S
O56 C50 1.268 1_455 S
O57 Sc44 2.105 . S
O57 C51 1.268 . S
O58 Sc46 2.105 . S
O58 C52 1.268 . S
O59 Sc45 2.105 . S
O59 C53 1.268 . S
O60 Sc44 2.105 . S
O60 C52 1.268 . S
O61 Sc45 2.105 . S
O61 C51 1.268 . S
O62 Sc46 2.105 . S
O62 C53 1.268 . S
O63 Sc44 2.105 . S
O63 C49 1.268 . S
O64 Sc46 2.105 . S
O64 C48 1.268 . S
O65 Sc45 2.105 . S
O65 C50 1.268 . S
Sc66 O69 2.025 . S
Sc66 O76 2.105 . S
Sc66 O79 2.105 . S
Sc66 O82 2.105 . S
Sc66 O85 2.105 . S
Sc67 O69 2.025 . S
Sc67 O77 2.105 . S
Sc67 O81 2.105 . S
Sc67 O83 2.105 . S
Sc67 O87 2.105 . S
Sc68 O69 2.025 . S
Sc68 O78 2.105 . S
Sc68 O80 2.105 . S
Sc68 O84 2.105 1_545 S
Sc68 O86 2.105 . S
O69 Sc66 2.025 . S
O69 Sc67 2.025 . S
O69 Sc68 2.025 . S
C70 O76 1.268 . S
C70 O86 1.268 . S
C71 O77 1.268 . S
C71 O85 1.268 . S
C72 O78 1.268 . S
C72 O87 1.268 . S
C73 O79 1.268 . S
C73 O83 1.268 . S
C74 O80 1.268 . S
C74 O82 1.268 . S
C75 O81 1.268 . S
C75 O84 1.268 1_545 S
O76 Sc66 2.105 . S
O76 C70 1.268 . S
O77 Sc67 2.105 . S
O77 C71 1.268 . S
O78 Sc68 2.105 . S
O78 C72 1.268 . S
O79 Sc66 2.105 . S
O79 C73 1.268 . S
O80 Sc68 2.105 . S
O80 C74 1.268 . S
O81 Sc67 2.105 . S
O81 C75 1.268 . S
O82 Sc66 2.105 . S
O82 C74 1.268 . S
O83 Sc67 2.105 . S
O83 C73 1.268 . S
O84 Sc68 2.105 1_565 S
O84 C75 1.268 1_565 S
O85 Sc66 2.105 . S
O85 C71 1.268 . S
O86 Sc68 2.105 . S
O86 C70 1.268 . S
O87 Sc67 2.105 . S
O87 C72 1.268 . S
Sc88 O91 2.025 . S
Sc88 O98 2.105 . S
Sc88 O101 2.105 . S
Sc88 O104 2.105 . S
Sc88 O107 2.105 . S
Sc89 O91 2.025 1_554 S
Sc89 O99 2.105 . S
Sc89 O103 2.101 1_554 S
Sc89 O105 2.105 . S
Sc89 O109 2.105 . S
Sc90 O91 2.025 . S
Sc90 O100 2.105 1_455 S
Sc90 O102 2.105 . S
Sc90 O106 2.105 . S
Sc90 O108 2.105 . S
O91 Sc88 2.025 . S
O91 Sc89 2.025 1_556 S
O91 Sc90 2.025 . S
C92 O98 1.268 . S
C92 O108 1.268 . S
C93 O99 1.268 . S
C93 O107 1.268 1_554 S
C94 O100 1.268 1_454 S
C94 O109 1.268 . S
C95 O101 1.268 . S
C95 O105 1.268 1_556 S
C96 O102 1.268 . S
C96 O104 1.268 . S
C97 O103 1.280 . S
C97 O106 1.268 . S
O98 Sc88 2.105 . S
O98 C92 1.268 . S
O99 Sc89 2.105 . S
O99 C93 1.268 . S
O100 Sc90 2.105 1_655 S
O100 C94 1.268 1_656 S
O101 Sc88 2.105 . S
O101 C95 1.268 . S
O102 Sc90 2.105 . S
O102 C96 1.268 . S
O103 Sc89 2.101 1_556 S
O103 C97 1.280 . S
O104 Sc88 2.105 . S
O104 C96 1.268 . S
O105 Sc89 2.105 . S
O105 C95 1.268 1_554 S
O106 Sc90 2.105 . S
O106 C97 1.268 . S
O107 Sc88 2.105 . S
O107 C93 1.268 1_556 S
O108 Sc90 2.105 . S
O108 C92 1.268 . S
O109 Sc89 2.105 . S
O109 C94 1.268 . S
Sc110 O113 2.025 . S
Sc110 O120 2.105 . S
Sc110 O123 2.105 . S
Sc110 O126 2.105 . S
Sc110 O129 2.105 1_565 S
Sc111 O113 2.025 1_556 S
Sc111 O121 2.105 . S
Sc111 O125 2.105 . S
Sc111 O127 2.101 1_556 S
Sc111 O131 2.105 . S
Sc112 O113 2.025 . S
Sc112 O122 2.105 . S
Sc112 O124 2.105 . S
Sc112 O128 2.105 . S
Sc112 O130 2.105 . S
O113 Sc110 2.025 . S
O113 Sc111 2.025 1_554 S
O113 Sc112 2.025 . S
C114 O120 1.268 . S
C114 O130 1.268 . S
C115 O121 1.268 . S
C115 O129 1.268 1_566 S
C116 O122 1.268 1_556 S
C116 O131 1.268 . S
C117 O123 1.268 . S
C117 O127 1.280 . S
C118 O124 1.268 . S
C118 O126 1.268 . S
C119 O125 1.268 1_554 S
C119 O128 1.268 . S
O120 Sc110 2.105 . S
O120 C114 1.268 . S
O121 Sc111 2.105 . S
O121 C115 1.268 . S
O122 Sc112 2.105 . S
O122 C116 1.268 1_554 S
O123 Sc110 2.105 . S
O123 C117 1.268 . S
O124 Sc112 2.105 . S
O124 C118 1.268 . S
O125 Sc111 2.105 . S
O125 C119 1.268 1_556 S
O126 Sc110 2.105 . S
O126 C118 1.268 . S
O127 Sc111 2.101 1_554 S
O127 C117 1.280 . S
O128 Sc112 2.105 . S
O128 C119 1.268 . S
O129 Sc110 2.105 1_545 S
O129 C115 1.268 1_544 S
O130 Sc112 2.105 . S
O130 C114 1.268 . S
O131 Sc111 2.105 . S
O131 C116 1.268 . S
Sc132 O135 2.025 . S
Sc132 O142 2.105 . S
Sc132 O145 2.105 1_655 S
Sc132 O148 2.105 . S
Sc132 O151 2.105 . S
Sc133 O135 2.025 1_554 S
Sc133 O143 2.101 1_554 S
Sc133 O147 2.105 . S
Sc133 O149 2.105 . S
Sc133 O153 2.105 . S
Sc134 O135 2.025 . S
Sc134 O144 2.105 . S
Sc134 O146 2.105 . S
Sc134 O150 2.105 . S
Sc134 O152 2.105 . S
O135 Sc132 2.025 . S
O135 Sc133 2.025 1_556 S
O135 Sc134 2.025 . S
C136 O142 1.268 . S
C136 O152 1.268 . S
C137 O143 1.280 . S
C137 O151 1.268 . S
C138 O144 1.268 . S
C138 O153 1.268 1_556 S
C139 O145 1.268 1_654 S
C139 O149 1.268 . S
C140 O146 1.268 . S
C140 O148 1.268 . S
C141 O147 1.268 . S
C141 O150 1.268 1_554 S
O142 Sc132 2.105 . S
O142 C136 1.268 . S
O143 Sc133 2.101 1_556 S
O143 C137 1.280 . S
O144 Sc134 2.105 . S
O144 C138 1.268 . S
O145 Sc132 2.105 1_455 S
O145 C139 1.268 1_456 S
O146 Sc134 2.105 . S
O146 C140 1.268 . S
O147 Sc133 2.105 . S
O147 C141 1.268 . S
O148 Sc132 2.105 . S
O148 C140 1.268 . S
O149 Sc133 2.105 . S
O149 C139 1.268 . S
O150 Sc134 2.105 . S
O150 C141 1.268 1_556 S
O151 Sc132 2.105 . S
O151 C137 1.268 . S
O152 Sc134 2.105 . S
O152 C136 1.268 . S
O153 Sc133 2.105 . S
O153 C138 1.268 1_554 S
Sc154 O157 2.025 . S
Sc154 O164 2.105 . S
Sc154 O167 2.105 . S
Sc154 O170 2.105 . S
Sc154 O173 2.105 . S
Sc155 O157 2.025 1_556 S
Sc155 O165 2.105 . S
Sc155 O169 2.105 . S
Sc155 O171 2.105 . S
Sc155 O175 2.101 1_556 S
Sc156 O157 2.025 . S
Sc156 O166 2.105 . S
Sc156 O168 2.105 . S
Sc156 O172 2.105 1_545 S
Sc156 O174 2.105 . S
O157 Sc154 2.025 . S
O157 Sc155 2.025 1_554 S
O157 Sc156 2.025 . S
C158 O164 1.268 . S
C158 O174 1.268 . S
C159 O165 1.268 1_554 S
C159 O173 1.268 . S
C160 O166 1.268 . S
C160 O175 1.280 . S
C161 O167 1.268 1_556 S
C161 O171 1.268 . S
C162 O168 1.268 . S
C162 O170 1.268 . S
C163 O169 1.268 . S
C163 O172 1.268 1_546 S
O164 Sc154 2.105 . S
O164 C158 1.268 . S
O165 Sc155 2.105 . S
O165 C159 1.268 1_556 S
O166 Sc156 2.105 . S
O166 C160 1.268 . S
O167 Sc154 2.105 . S
O167 C161 1.268 1_554 S
O168 Sc156 2.105 . S
O168 C162 1.268 . S
O169 Sc155 2.105 . S
O169 C163 1.268 . S
O170 Sc154 2.105 . S
O170 C162 1.268 . S
O171 Sc155 2.105 . S
O171 C161 1.268 . S
O172 Sc156 2.105 1_565 S
O172 C163 1.268 1_564 S
O173 Sc154 2.105 . S
O173 C159 1.268 . S
O174 Sc156 2.105 . S
O174 C158 1.268 . S
O175 Sc155 2.101 1_554 S
O175 C160 1.280 . S
Sc176 O179 2.025 . S
Sc176 O186 2.105 . S
Sc176 O189 2.105 . S
Sc176 O192 2.105 . S
Sc176 O195 2.105 . S
Sc177 O179 2.025 . S
Sc177 O187 2.105 . S
Sc177 O191 2.105 . S
Sc177 O193 2.105 . S
Sc177 O197 2.105 . S
Sc178 O179 2.025 . S
Sc178 O188 2.105 . S
Sc178 O190 2.105 . S
Sc178 O194 2.105 . S
Sc178 O196 2.105 . S
O179 Sc176 2.025 . S
O179 Sc177 2.025 . S
O179 Sc178 2.025 . S
C180 O186 1.268 . S
C180 O196 1.268 . S
C181 O187 1.268 . S
C181 O195 1.268 . S
C182 O188 1.268 . S
C182 O197 1.268 . S
C183 O189 1.268 . S
C183 O193 1.268 . S
C184 O190 1.268 . S
C184 O192 1.268 . S
C185 O191 1.268 . S
C185 O194 1.268 . S
O186 Sc176 2.105 . S
O186 C180 1.268 . S
O187 Sc177 2.105 . S
O187 C181 1.268 . S
O188 Sc178 2.105 . S
O188 C182 1.268 . S
O189 Sc176 2.105 . S
O189 C183 1.268 . S
O190 Sc178 2.105 . S
O190 C184 1.268 . S
O191 Sc177 2.105 . S
O191 C185 1.268 . S
O192 Sc176 2.105 . S
O192 C184 1.268 . S
O193 Sc177 2.105 . S
O193 C183 1.268 . S
O194 Sc178 2.105 . S
O194 C185 1.268 . S
O195 Sc176 2.105 . S
O195 C181 1.268 . S
O196 Sc178 2.105 . S
O196 C180 1.268 . S
O197 Sc177 2.105 . S
O197 C182 1.268 . S
Sc198 O201 2.025 . S
Sc198 O208 2.105 . S
Sc198 O211 2.105 . S
Sc198 O214 2.105 . S
Sc198 O217 2.105 . S
Sc199 O201 2.025 . S
Sc199 O209 2.105 . S
Sc199 O213 2.105 . S
Sc199 O215 2.105 . S
Sc199 O219 2.105 . S
Sc200 O201 2.025 . S
Sc200 O210 2.105 . S
Sc200 O212 2.105 . S
Sc200 O216 2.105 . S
Sc200 O218 2.105 . S
O201 Sc198 2.025 . S
O201 Sc199 2.025 . S
O201 Sc200 2.025 . S
C202 O208 1.268 . S
C202 O218 1.268 . S
C203 O209 1.268 . S
C203 O217 1.268 . S
C204 O210 1.268 . S
C204 O219 1.268 . S
C205 O211 1.268 . S
C205 O215 1.268 . S
C206 O212 1.268 . S
C206 O214 1.268 . S
C207 O213 1.268 . S
C207 O216 1.268 . S
O208 Sc198 2.105 . S
O208 C202 1.268 . S
O209 Sc199 2.105 . S
O209 C203 1.268 . S
O210 Sc200 2.105 . S
O210 C204 1.268 . S
O211 Sc198 2.105 . S
O211 C205 1.268 . S
O212 Sc200 2.105 . S
O212 C206 1.268 . S
O213 Sc199 2.105 . S
O213 C207 1.268 . S
O214 Sc198 2.105 . S
O214 C206 1.268 . S
O215 Sc199 2.105 . S
O215 C205 1.268 . S
O216 Sc200 2.105 . S
O216 C207 1.268 . S
O217 Sc198 2.105 . S
O217 C203 1.268 . S
O218 Sc200 2.105 . S
O218 C202 1.268 . S
O219 Sc199 2.105 . S
O219 C204 1.268 . S
Sc220 O223 2.025 . S
Sc220 O230 2.105 . S
Sc220 O233 2.105 . S
Sc220 O236 2.105 . S
Sc220 O239 2.105 . S
Sc221 O223 2.025 . S
Sc221 O231 2.105 . S
Sc221 O235 2.105 . S
Sc221 O237 2.105 . S
Sc221 O241 2.105 . S
Sc222 O223 2.025 . S
Sc222 O232 2.105 . S
Sc222 O234 2.105 . S
Sc222 O238 2.105 . S
Sc222 O240 2.105 . S
O223 Sc220 2.025 . S
O223 Sc221 2.025 . S
O223 Sc222 2.025 . S
C224 O230 1.268 . S
C224 O240 1.268 . S
C225 O231 1.268 . S
C225 O239 1.268 . S
C226 O232 1.268 . S
C226 O241 1.268 . S
C227 O233 1.268 . S
C227 O237 1.268 . S
C228 O234 1.268 . S
C228 O236 1.268 . S
C229 O235 1.268 . S
C229 O238 1.268 . S
O230 Sc220 2.105 . S
O230 C224 1.268 . S
O231 Sc221 2.105 . S
O231 C225 1.268 . S
O232 Sc222 2.105 . S
O232 C226 1.268 . S
O233 Sc220 2.105 . S
O233 C227 1.268 . S
O234 Sc222 2.105 . S
O234 C228 1.268 . S
O235 Sc221 2.105 . S
O235 C229 1.268 . S
O236 Sc220 2.105 . S
O236 C228 1.268 . S
O237 Sc221 2.105 . S
O237 C227 1.268 . S
O238 Sc222 2.105 . S
O238 C229 1.268 . S
O239 Sc220 2.105 . S
O239 C225 1.268 . S
O240 Sc222 2.105 . S
O240 C224 1.268 . S
O241 Sc221 2.105 . S
O241 C226 1.268 . S
Sc242 O245 2.025 . S
Sc242 O252 2.105 . S
Sc242 O255 2.105 . S
Sc242 O258 2.105 . S
Sc242 O261 2.105 . S
Sc243 O245 2.025 . S
Sc243 O253 2.105 . S
Sc243 O257 2.105 . S
Sc243 O259 2.105 . S
Sc243 O263 2.105 . S
Sc244 O245 2.025 . S
Sc244 O254 2.105 . S
Sc244 O256 2.105 . S
Sc244 O260 2.105 . S
Sc244 O262 2.105 . S
O245 Sc242 2.025 . S
O245 Sc243 2.025 . S
O245 Sc244 2.025 . S
C246 O252 1.268 . S
C246 O262 1.268 . S
C247 O253 1.268 . S
C247 O261 1.268 . S
C248 O254 1.268 . S
C248 O263 1.268 . S
C249 O255 1.268 . S
C249 O259 1.268 . S
C250 O256 1.268 . S
C250 O258 1.268 . S
C251 O257 1.268 . S
C251 O260 1.268 . S
O252 Sc242 2.105 . S
O252 C246 1.268 . S
O253 Sc243 2.105 . S
O253 C247 1.268 . S
O254 Sc244 2.105 . S
O254 C248 1.268 . S
O255 Sc242 2.105 . S
O255 C249 1.268 . S
O256 Sc244 2.105 . S
O256 C250 1.268 . S
O257 Sc243 2.105 . S
O257 C251 1.268 . S
O258 Sc242 2.105 . S
O258 C250 1.268 . S
O259 Sc243 2.105 . S
O259 C249 1.268 . S
O260 Sc244 2.105 . S
O260 C251 1.268 . S
O261 Sc242 2.105 . S
O261 C247 1.268 . S
O262 Sc244 2.105 . S
O262 C246 1.268 . S
O263 Sc243 2.105 . S
O263 C248 1.268 . S
Sc264 O267 2.025 . S
Sc264 O274 2.105 . S
Sc264 O277 2.105 . S
Sc264 O280 2.105 . S
Sc264 O283 2.105 . S
Sc265 O267 2.025 . S
Sc265 O275 2.105 . S
Sc265 O279 2.105 . S
Sc265 O281 2.105 . S
Sc265 O285 2.105 . S
Sc266 O267 2.025 . S
Sc266 O276 2.105 . S
Sc266 O278 2.105 . S
Sc266 O282 2.105 . S
Sc266 O284 2.105 . S
O267 Sc264 2.025 . S
O267 Sc265 2.025 . S
O267 Sc266 2.025 . S
C268 O274 1.268 . S
C268 O284 1.268 . S
C269 O275 1.268 . S
C269 O283 1.268 . S
C270 O276 1.268 . S
C270 O285 1.268 . S
C271 O277 1.268 . S
C271 O281 1.268 . S
C272 O278 1.268 . S
C272 O280 1.268 . S
C273 O279 1.268 . S
C273 O282 1.268 . S
O274 Sc264 2.105 . S
O274 C268 1.268 . S
O275 Sc265 2.105 . S
O275 C269 1.268 . S
O276 Sc266 2.105 . S
O276 C270 1.268 . S
O277 Sc264 2.105 . S
O277 C271 1.268 . S
O278 Sc266 2.105 . S
O278 C272 1.268 . S
O279 Sc265 2.105 . S
O279 C273 1.268 . S
O280 Sc264 2.105 . S
O280 C272 1.268 . S
O281 Sc265 2.105 . S
O281 C271 1.268 . S
O282 Sc266 2.105 . S
O282 C273 1.268 . S
O283 Sc264 2.105 . S
O283 C269 1.268 . S
O284 Sc266 2.105 . S
O284 C268 1.268 . S
O285 Sc265 2.105 . S
O285 C270 1.268 . S
Sc286 O289 2.025 . S
Sc286 O296 2.105 . S
Sc286 O299 2.105 . S
Sc286 O302 2.105 . S
Sc286 O305 2.105 . S
Sc287 O289 2.025 . S
Sc287 O297 2.105 . S
Sc287 O301 2.105 . S
Sc287 O303 2.105 . S
Sc287 O307 2.105 . S
Sc288 O289 2.025 . S
Sc288 O298 2.105 . S
Sc288 O300 2.105 . S
Sc288 O304 2.105 . S
Sc288 O306 2.105 . S
O289 Sc286 2.025 . S
O289 Sc287 2.025 . S
O289 Sc288 2.025 . S
C290 O296 1.268 . S
C290 O306 1.268 . S
C291 O297 1.268 . S
C291 O305 1.268 . S
C292 O298 1.268 . S
C292 O307 1.268 . S
C293 O299 1.268 . S
C293 O303 1.268 . S
C294 O300 1.268 . S
C294 O302 1.268 . S
C295 O301 1.268 . S
C295 O304 1.268 . S
O296 Sc286 2.105 . S
O296 C290 1.268 . S
O297 Sc287 2.105 . S
O297 C291 1.268 . S
O298 Sc288 2.105 . S
O298 C292 1.268 . S
O299 Sc286 2.105 . S
O299 C293 1.268 . S
O300 Sc288 2.105 . S
O300 C294 1.268 . S
O301 Sc287 2.105 . S
O301 C295 1.268 . S
O302 Sc286 2.105 . S
O302 C294 1.268 . S
O303 Sc287 2.105 . S
O303 C293 1.268 . S
O304 Sc288 2.105 . S
O304 C295 1.268 . S
O305 Sc286 2.105 . S
O305 C291 1.268 . S
O306 Sc288 2.105 . S
O306 C290 1.268 . S
O307 Sc287 2.105 . S
O307 C292 1.268 . S
Sc308 O311 2.025 . S
Sc308 O318 2.105 . S
Sc308 O321 2.105 . S
Sc308 O324 2.105 . S
Sc308 O327 2.105 . S
Sc309 O311 2.025 . S
Sc309 O319 2.105 . S
Sc309 O323 2.105 . S
Sc309 O325 2.105 . S
Sc309 O329 2.105 . S
Sc310 O311 2.025 . S
Sc310 O320 2.105 . S
Sc310 O322 2.105 . S
Sc310 O326 2.105 . S
Sc310 O328 2.105 . S
O311 Sc308 2.025 . S
O311 Sc309 2.025 . S
O311 Sc310 2.025 . S
C312 O318 1.268 . S
C312 O328 1.268 . S
C313 O319 1.268 . S
C313 O327 1.268 . S
C314 O320 1.268 . S
C314 O329 1.268 . S
C315 O321 1.268 . S
C315 O325 1.268 . S
C316 O322 1.268 . S
C316 O324 1.268 . S
C317 O323 1.268 . S
C317 O326 1.268 . S
O318 Sc308 2.105 . S
O318 C312 1.268 . S
O319 Sc309 2.105 . S
O319 C313 1.268 . S
O320 Sc310 2.105 . S
O320 C314 1.268 . S
O321 Sc308 2.105 . S
O321 C315 1.268 . S
O322 Sc310 2.105 . S
O322 C316 1.268 . S
O323 Sc309 2.105 . S
O323 C317 1.268 . S
O324 Sc308 2.105 . S
O324 C316 1.268 . S
O325 Sc309 2.105 . S
O325 C315 1.268 . S
O326 Sc310 2.105 . S
O326 C317 1.268 . S
O327 Sc308 2.105 . S
O327 C313 1.268 . S
O328 Sc310 2.105 . S
O328 C312 1.268 . S
O329 Sc309 2.105 . S
O329 C314 1.268 . S
Sc330 O333 2.025 . S
Sc330 O340 2.105 . S
Sc330 O343 2.105 . S
Sc330 O346 2.105 . S
Sc330 O349 2.105 . S
Sc331 O333 2.025 . S
Sc331 O341 2.105 . S
Sc331 O345 2.105 . S
Sc331 O347 2.105 . S
Sc331 O351 2.105 . S
Sc332 O333 2.025 . S
Sc332 O342 2.105 . S
Sc332 O344 2.105 . S
Sc332 O348 2.105 . S
Sc332 O350 2.105 . S
O333 Sc330 2.025 . S
O333 Sc331 2.025 . S
O333 Sc332 2.025 . S
C334 O340 1.268 . S
C334 O350 1.268 . S
C335 O341 1.268 . S
C335 O349 1.268 . S
C336 O342 1.268 . S
C336 O351 1.268 . S
C337 O343 1.268 . S
C337 O347 1.268 . S
C338 O344 1.268 . S
C338 O346 1.268 . S
C339 O345 1.268 . S
C339 O348 1.268 . S
O340 Sc330 2.105 . S
O340 C334 1.268 . S
O341 Sc331 2.105 . S
O341 C335 1.268 . S
O342 Sc332 2.105 . S
O342 C336 1.268 . S
O343 Sc330 2.105 . S
O343 C337 1.268 . S
O344 Sc332 2.105 . S
O344 C338 1.268 . S
O345 Sc331 2.105 . S
O345 C339 1.268 . S
O346 Sc330 2.105 . S
O346 C338 1.268 . S
O347 Sc331 2.105 . S
O347 C337 1.268 . S
O348 Sc332 2.105 . S
O348 C339 1.268 . S
O349 Sc330 2.105 . S
O349 C335 1.268 . S
O350 Sc332 2.105 . S
O350 C334 1.268 . S
O351 Sc331 2.105 . S
O351 C336 1.268 . S
C247 C9 1.634 1_565 S
C28 C182 1.634 1_455 S
C49 C207 1.634 1_565 S
C227 C73 1.634 1_455 S
C93 C119 1.634 . S
C116 C138 1.634 . S
C159 C141 1.634 . S
C95 C161 1.634 . S
C185 C71 1.634 . S
C204 C6 1.634 . S
C31 C225 1.634 . S
C249 C51 1.634 . S
C269 C295 1.634 1_565 S
C314 C292 1.634 1_455 S
C335 C317 1.634 1_565 S
C337 C271 1.634 1_455 S
C4 C312 1.397 . S
C30 C334 1.397 . S
C52 C272 1.397 . S
C70 C294 1.397 . S
C96 C228 1.397 . S
C118 C246 1.397 . S
C136 C180 1.397 . S
C158 C206 1.397 . S
C5 C251 1.288 . S
C29 C183 1.288 . S
C203 C53 1.288 . S
C72 C226 1.288 . S
C97 C115 1.288 1_545 S
C117 C139 1.288 1_455 S
C163 C137 1.288 1_545 S
C94 C160 1.288 1_455 S
C75 C181 1.288 1_545 S
C205 C7 1.288 1_655 S
C229 C27 1.288 1_545 S
C50 C248 1.288 1_655 S
C273 C291 1.288 . S
C293 C315 1.288 . S
C339 C313 1.288 . S
C270 C336 1.288 . S
C8 C48 2.139 1_445 S
C74 C26 2.139 1_645 S
C92 C140 2.139 1_455 S
C114 C162 2.139 1_565 S
C184 C224 2.139 . S
C250 C202 2.139 . S
C268 C316 2.139 1_565 S
C290 C338 2.139 1_655 S
