# Generated by pormake.
# Topology vbx, (6)-cn, num edge types: 1
# Building blocks:
#     Node 0, Type 0, BuildingBlock: OJICUG_clean_sbu_0, # of connection points: 6
#     Node 1, Type 0, BuildingBlock: OJICUG_clean_sbu_0, # of connection points: 6
#     Node 2, Type 0, BuildingBlock: OJICUG_clean_sbu_0, # of connection points: 6
#     Node 3, Type 0, BuildingBlock: OJICUG_clean_sbu_0, # of connection points: 6
#     Node 4, Type 0, BuildingBlock: OJICUG_clean_sbu_0, # of connection points: 6
#     Node 5, Type 0, BuildingBlock: OJICUG_clean_sbu_0, # of connection points: 6
#     Node 6, Type 0, BuildingBlock: OJICUG_clean_sbu_0, # of connection points: 6
#     Node 7, Type 0, BuildingBlock: OJICUG_clean_sbu_0, # of connection points: 6
#     Node 8, Type 0, BuildingBlock: OJICUG_clean_sbu_0, # of connection points: 6
#     Node 9, Type 0, BuildingBlock: OJICUG_clean_sbu_0, # of connection points: 6
#     Node 10, Type 0, BuildingBlock: OJICUG_clean_sbu_0, # of connection points: 6
#     Node 11, Type 0, BuildingBlock: OJICUG_clean_sbu_0, # of connection points: 6
#     Node 12, Type 0, BuildingBlock: OJICUG_clean_sbu_0, # of connection points: 6
#     Node 13, Type 0, BuildingBlock: OJICUG_clean_sbu_0, # of connection points: 6
#     Node 14, Type 0, BuildingBlock: OJICUG_clean_sbu_0, # of connection points: 6
#     Node 15, Type 0, BuildingBlock: OJICUG_clean_sbu_0, # of connection points: 6
#     Edge 16, Type (0, 0), BuildingBlock: EZIPEK_clean_linker_0, # of connection points: 2
#     Edge 17, Type (0, 0), BuildingBlock: EZIPEK_clean_linker_0, # of connection points: 2
#     Edge 18, Type (0, 0), BuildingBlock: EZIPEK_clean_linker_0, # of connection points: 2
#     Edge 19, Type (0, 0), BuildingBlock: EZIPEK_clean_linker_0, # of connection points: 2
#     Edge 20, Type (0, 0), BuildingBlock: EZIPEK_clean_linker_0, # of connection points: 2
#     Edge 21, Type (0, 0), BuildingBlock: EZIPEK_clean_linker_0, # of connection points: 2
#     Edge 22, Type (0, 0), BuildingBlock: EZIPEK_clean_linker_0, # of connection points: 2
#     Edge 23, Type (0, 0), BuildingBlock: EZIPEK_clean_linker_0, # of connection points: 2
#     Edge 24, Type (0, 0), BuildingBlock: EZIPEK_clean_linker_0, # of connection points: 2
#     Edge 25, Type (0, 0), BuildingBlock: EZIPEK_clean_linker_0, # of connection points: 2
#     Edge 26, Type (0, 0), BuildingBlock: EZIPEK_clean_linker_0, # of connection points: 2
#     Edge 27, Type (0, 0), BuildingBlock: EZIPEK_clean_linker_0, # of connection points: 2
#     Edge 28, Type (0, 0), BuildingBlock: EZIPEK_clean_linker_0, # of connection points: 2
#     Edge 29, Type (0, 0), BuildingBlock: EZIPEK_clean_linker_0, # of connection points: 2
#     Edge 30, Type (0, 0), BuildingBlock: EZIPEK_clean_linker_0, # of connection points: 2
#     Edge 31, Type (0, 0), BuildingBlock: EZIPEK_clean_linker_0, # of connection points: 2
#     Edge 32, Type (0, 0), BuildingBlock: EZIPEK_clean_linker_0, # of connection points: 2
#     Edge 33, Type (0, 0), BuildingBlock: EZIPEK_clean_linker_0, # of connection points: 2
#     Edge 34, Type (0, 0), BuildingBlock: EZIPEK_clean_linker_0, # of connection points: 2
#     Edge 35, Type (0, 0), BuildingBlock: EZIPEK_clean_linker_0, # of connection points: 2
#     Edge 36, Type (0, 0), BuildingBlock: EZIPEK_clean_linker_0, # of connection points: 2
#     Edge 37, Type (0, 0), BuildingBlock: EZIPEK_clean_linker_0, # of connection points: 2
#     Edge 38, Type (0, 0), BuildingBlock: EZIPEK_clean_linker_0, # of connection points: 2
#     Edge 39, Type (0, 0), BuildingBlock: EZIPEK_clean_linker_0, # of connection points: 2
#     Edge 40, Type (0, 0), BuildingBlock: EZIPEK_clean_linker_0, # of connection points: 2
#     Edge 41, Type (0, 0), BuildingBlock: EZIPEK_clean_linker_0, # of connection points: 2
#     Edge 42, Type (0, 0), BuildingBlock: EZIPEK_clean_linker_0, # of connection points: 2
#     Edge 43, Type (0, 0), BuildingBlock: EZIPEK_clean_linker_0, # of connection points: 2
#     Edge 44, Type (0, 0), BuildingBlock: EZIPEK_clean_linker_0, # of connection points: 2
#     Edge 45, Type (0, 0), BuildingBlock: EZIPEK_clean_linker_0, # of connection points: 2
#     Edge 46, Type (0, 0), BuildingBlock: EZIPEK_clean_linker_0, # of connection points: 2
#     Edge 47, Type (0, 0), BuildingBlock: EZIPEK_clean_linker_0, # of connection points: 2
#     Edge 48, Type (0, 0), BuildingBlock: EZIPEK_clean_linker_0, # of connection points: 2
#     Edge 49, Type (0, 0), BuildingBlock: EZIPEK_clean_linker_0, # of connection points: 2
#     Edge 50, Type (0, 0), BuildingBlock: EZIPEK_clean_linker_0, # of connection points: 2
#     Edge 51, Type (0, 0), BuildingBlock: EZIPEK_clean_linker_0, # of connection points: 2
#     Edge 52, Type (0, 0), BuildingBlock: EZIPEK_clean_linker_0, # of connection points: 2
#     Edge 53, Type (0, 0), BuildingBlock: EZIPEK_clean_linker_0, # of connection points: 2
#     Edge 54, Type (0, 0), BuildingBlock: EZIPEK_clean_linker_0, # of connection points: 2
#     Edge 55, Type (0, 0), BuildingBlock: EZIPEK_clean_linker_0, # of connection points: 2
#     Edge 56, Type (0, 0), BuildingBlock: EZIPEK_clean_linker_0, # of connection points: 2
#     Edge 57, Type (0, 0), BuildingBlock: EZIPEK_clean_linker_0, # of connection points: 2
#     Edge 58, Type (0, 0), BuildingBlock: EZIPEK_clean_linker_0, # of connection points: 2
#     Edge 59, Type (0, 0), BuildingBlock: EZIPEK_clean_linker_0, # of connection points: 2
#     Edge 60, Type (0, 0), BuildingBlock: EZIPEK_clean_linker_0, # of connection points: 2
#     Edge 61, Type (0, 0), BuildingBlock: EZIPEK_clean_linker_0, # of connection points: 2
#     Edge 62, Type (0, 0), BuildingBlock: EZIPEK_clean_linker_0, # of connection points: 2
#     Edge 63, Type (0, 0), BuildingBlock: EZIPEK_clean_linker_0, # of connection points: 2
# Relax obj value: 0.244
# Max RMSD: 0.241
# Mean RMSD: 0.241
data_MOF--net-vbx--node1-OJICUG_clean_sbu_0--edge1-EZIPEK_clean_linker_0
_symmetry_space_group_name_H-M    P1
_symmetry_Int_Tables_number       1
_symmetry_cell_setting            triclinic
loop_
_symmetry_equiv_pos_as_xyz
'x, y, z'
_cell_length_a     35.718438
_cell_length_b     21.60472
_cell_length_c     44.063676
_cell_angle_alpha  90.168317
_cell_angle_beta   90.141047
_cell_angle_gamma 90.256021
loop_
_atom_site_label
_atom_site_type_symbol
_atom_site_fract_x
_atom_site_fract_y
_atom_site_fract_z
_atom_type_partial_charge
Sc0 Sc 0.33899 0.4204 0.11587 0.0
Sc1 Sc 0.26931 0.30656 0.11594 0.0
Sc2 Sc 0.34973 0.28657 0.0719 0.0
O3 O 0.31949 0.33793 0.10123 0.0
C4 C 0.3591 0.42174 0.04524 0.0
C5 C 0.25324 0.45186 0.11407 0.0
C6 C 0.26603 0.2743 0.04752 0.0
C7 C 0.3092 0.35252 0.17554 0.0
C8 C 0.41425 0.34515 0.11334 0.0
C9 C 0.31479 0.17917 0.10801 0.0
O10 O 0.35652 0.44822 0.07103 0.0
O11 O 0.24342 0.39666 0.11989 0.0
O12 O 0.30063 0.26127 0.04693 0.0
O13 O 0.32369 0.39791 0.16147 0.0
O14 O 0.40272 0.30811 0.09291 0.0
O15 O 0.28561 0.21064 0.11343 0.0
O16 O 0.39364 0.38537 0.12583 0.0
O17 O 0.28858 0.3126 0.16213 0.0
O18 O 0.34512 0.20349 0.09874 0.0
O19 O 0.28678 0.46713 0.10834 0.0
O20 O 0.35547 0.36365 0.04162 0.0
O21 O 0.24954 0.2992 0.07003 0.0
Sc22 Sc 0.65188 0.58484 0.60576 0.0
Sc23 Sc 0.72466 0.69451 0.61234 0.0
Sc24 Sc 0.64746 0.72501 0.56605 0.0
O25 O 0.67457 0.66773 0.59474 0.0
C26 C 0.63692 0.59224 0.5345 0.0
C27 C 0.73722 0.54816 0.6111 0.0
C28 C 0.73375 0.72917 0.54521 0.0
C29 C 0.67979 0.64651 0.66858 0.0
C30 C 0.57844 0.66877 0.60111 0.0
C31 C 0.68551 0.82697 0.60382 0.0
O32 O 0.64296 0.56046 0.55838 0.0
O33 O 0.74792 0.60311 0.6163 0.0
O34 O 0.6993 0.74359 0.54284 0.0
O35 O 0.66118 0.60602 0.65346 0.0
O36 O 0.59397 0.7123 0.58655 0.0
O37 O 0.71285 0.79231 0.6105 0.0
O38 O 0.59551 0.62008 0.60921 0.0
O39 O 0.70205 0.68614 0.65697 0.0
O40 O 0.65477 0.80573 0.59394 0.0
O41 O 0.70381 0.5346 0.6039 0.0
O42 O 0.63616 0.6511 0.53441 0.0
O43 O 0.74816 0.70295 0.56817 0.0
Sc44 Sc 0.34809 0.68276 0.89854 0.0
Sc45 Sc 0.26513 0.64802 0.85899 0.0
Sc46 Sc 0.33732 0.53898 0.86413 0.0
O47 O 0.31656 0.62334 0.87383 0.0
C48 C 0.40888 0.62772 0.85532 0.0
C49 C 0.30224 0.78286 0.86349 0.0
C50 C 0.30739 0.5947 0.80154 0.0
C51 C 0.266 0.68306 0.928 0.0
C52 C 0.36159 0.55468 0.93222 0.0
C53 C 0.25088 0.50296 0.86487 0.0
O54 O 0.39493 0.67406 0.86884 0.0
O55 O 0.27618 0.74559 0.85654 0.0
O56 O 0.32697 0.55635 0.81679 0.0
O57 O 0.30111 0.69457 0.92857 0.0
O58 O 0.34722 0.52066 0.9116 0.0
O59 O 0.24018 0.55771 0.86018 0.0
O60 O 0.3694 0.6113 0.92798 0.0
O61 O 0.24795 0.66282 0.90497 0.0
O62 O 0.28499 0.48912 0.86883 0.0
O63 O 0.33322 0.76502 0.87415 0.0
O64 O 0.39361 0.57449 0.85686 0.0
O65 O 0.284 0.63276 0.81312 0.0
Sc66 Sc 0.66328 0.45632 0.35175 0.0
Sc67 Sc 0.73411 0.3459 0.36053 0.0
Sc68 Sc 0.64658 0.32129 0.39393 0.0
O69 O 0.68118 0.37467 0.36859 0.0
C70 C 0.63479 0.4579 0.42027 0.0
C71 C 0.74881 0.49202 0.36153 0.0
C72 C 0.72479 0.31676 0.42858 0.0
C73 C 0.70328 0.38637 0.29679 0.0
C74 C 0.58805 0.37605 0.34672 0.0
C75 C 0.69024 0.21536 0.36271 0.0
O76 O 0.64304 0.48572 0.39565 0.0
O77 O 0.75988 0.43655 0.35953 0.0
O78 O 0.69087 0.30076 0.42472 0.0
O79 O 0.68286 0.42948 0.30751 0.0
O80 O 0.5977 0.33637 0.36639 0.0
O81 O 0.71931 0.24912 0.36093 0.0
O82 O 0.60924 0.42047 0.33915 0.0
O83 O 0.72293 0.34953 0.31272 0.0
O84 O 0.65809 0.23733 0.36866 0.0
O85 O 0.71445 0.50643 0.36129 0.0
O86 O 0.63407 0.39924 0.42285 0.0
O87 O 0.74517 0.34135 0.40824 0.0
Sc88 Sc 0.63783 0.55161 0.85376 0.0
Sc89 Sc 0.7102 0.66117 0.86142 0.0
Sc90 Sc 0.62462 0.68638 0.89746 0.0
O91 O 0.65749 0.63287 0.87073 0.0
C92 C 0.56374 0.63453 0.85098 0.0
C93 C 0.67573 0.62193 0.79806 0.0
C94 C 0.66781 0.79215 0.86562 0.0
C95 C 0.72365 0.51484 0.85863 0.0
C96 C 0.61488 0.54922 0.92347 0.0
C97 C 0.7046 0.69224 0.92978 0.0
O98 O 0.58304 0.58742 0.84438 0.0
O99 O 0.69687 0.65703 0.814 0.0
O100 O 0.63586 0.7711 0.87309 0.0
O101 O 0.6892 0.50065 0.85883 0.0
O102 O 0.6129 0.60783 0.92578 0.0
O103 O 0.72371 0.66675 0.90886 0.0
O104 O 0.62196 0.52101 0.89865 0.0
O105 O 0.73512 0.5704 0.85895 0.0
O106 O 0.67027 0.7062 0.92733 0.0
O107 O 0.65419 0.58006 0.8088 0.0
O108 O 0.57491 0.67368 0.87053 0.0
O109 O 0.69628 0.75793 0.86243 0.0
Sc110 Sc 0.37419 0.30801 0.40334 0.0
Sc111 Sc 0.28329 0.3262 0.37262 0.0
Sc112 Sc 0.3532 0.43783 0.35896 0.0
O113 O 0.33688 0.35716 0.37814 0.0
C114 C 0.38381 0.44729 0.42679 0.0
C115 C 0.29901 0.29424 0.44128 0.0
C116 C 0.26651 0.47107 0.37193 0.0
C117 C 0.33019 0.19831 0.37207 0.0
C118 C 0.43062 0.36412 0.35564 0.0
C119 C 0.30908 0.36792 0.3064 0.0
O120 O 0.38749 0.38909 0.42984 0.0
O121 O 0.27633 0.31176 0.42067 0.0
O122 O 0.30007 0.48529 0.36525 0.0
O123 O 0.36144 0.22083 0.38089 0.0
O124 O 0.40854 0.40703 0.34796 0.0
O125 O 0.28675 0.33877 0.32392 0.0
O126 O 0.42152 0.32201 0.37417 0.0
O127 O 0.30093 0.23092 0.36846 0.0
O128 O 0.33511 0.40354 0.31593 0.0
O129 O 0.33371 0.28943 0.437 0.0
O130 O 0.37285 0.47263 0.40215 0.0
O131 O 0.25635 0.41562 0.37683 0.0
Sc132 Sc 0.63523 0.29164 0.0693 0.0
Sc133 Sc 0.72074 0.31389 0.10793 0.0
Sc134 Sc 0.65124 0.42971 0.1089 0.0
O135 O 0.66922 0.34494 0.09553 0.0
C136 C 0.62755 0.42731 0.03993 0.0
C137 C 0.71548 0.2752 0.03932 0.0
C138 C 0.73915 0.45764 0.10362 0.0
C139 C 0.67418 0.18623 0.10753 0.0
C140 C 0.57447 0.35163 0.11045 0.0
C141 C 0.68568 0.37058 0.16834 0.0
O142 O 0.62118 0.36921 0.04032 0.0
O143 O 0.73529 0.29091 0.06209 0.0
O144 O 0.70523 0.47399 0.10581 0.0
O145 O 0.64598 0.20729 0.09354 0.0
O146 O 0.59357 0.4008 0.11433 0.0
O147 O 0.7087 0.33562 0.15448 0.0
O148 O 0.58698 0.30443 0.09694 0.0
O149 O 0.70223 0.21979 0.11449 0.0
O150 O 0.66214 0.40608 0.1554 0.0
O151 O 0.68002 0.27231 0.03933 0.0
O152 O 0.64087 0.45701 0.06253 0.0
O153 O 0.74916 0.40151 0.10252 0.0
Sc154 Sc 0.34908 0.7082 0.57091 0.0
Sc155 Sc 0.27574 0.66871 0.61844 0.0
Sc156 Sc 0.35121 0.56843 0.60831 0.0
O157 O 0.32499 0.64808 0.59944 0.0
C158 C 0.36991 0.57995 0.54022 0.0
C159 C 0.26672 0.70269 0.54824 0.0
C160 C 0.26469 0.52614 0.60965 0.0
C161 C 0.30522 0.80189 0.61425 0.0
C162 C 0.41772 0.66944 0.606 0.0
C163 C 0.32319 0.60921 0.67258 0.0
O164 O 0.37717 0.63692 0.54453 0.0
O165 O 0.25371 0.70077 0.57516 0.0
O166 O 0.29957 0.5145 0.61191 0.0
O167 O 0.32336 0.78995 0.59025 0.0
O168 O 0.40577 0.61362 0.60607 0.0
O169 O 0.2942 0.6359 0.66207 0.0
O170 O 0.39681 0.71544 0.60018 0.0
O171 O 0.29446 0.75952 0.63198 0.0
O172 O 0.34928 0.58722 0.65618 0.0
O173 O 0.30148 0.69963 0.54221 0.0
O174 O 0.35423 0.54676 0.56041 0.0
O175 O 0.25176 0.5805 0.60803 0.0
Sc176 Sc 0.83778 0.93364 0.11098 0.0
Sc177 Sc 0.76793 0.81709 0.11006 0.0
Sc178 Sc 0.84975 0.80097 0.0666 0.0
O179 O 0.81824 0.85042 0.0959 0.0
C180 C 0.85546 0.94099 0.04158 0.0
C181 C 0.74926 0.96002 0.11042 0.0
C182 C 0.76749 0.78332 0.04023 0.0
C183 C 0.80823 0.86881 0.1702 0.0
C184 C 0.91407 0.85757 0.10628 0.0
C185 C 0.81276 0.68976 0.10243 0.0
O186 O 0.84443 0.96754 0.06572 0.0
O187 O 0.73936 0.90403 0.10759 0.0
O188 O 0.80289 0.78367 0.03792 0.0
O189 O 0.8319 0.90288 0.15655 0.0
O190 O 0.8995 0.81114 0.09315 0.0
O191 O 0.78639 0.72242 0.11313 0.0
O192 O 0.89601 0.90666 0.11196 0.0
O193 O 0.78317 0.83603 0.15687 0.0
O194 O 0.84032 0.71266 0.0881 0.0
O195 O 0.78324 0.97688 0.11267 0.0
O196 O 0.86148 0.88297 0.03964 0.0
O197 O 0.74983 0.79752 0.06432 0.0
Sc198 Sc 0.14165 0.07257 0.61317 0.0
Sc199 Sc 0.21599 0.17768 0.61541 0.0
Sc200 Sc 0.13695 0.20607 0.57025 0.0
O201 O 0.1652 0.15235 0.59961 0.0
C202 C 0.12403 0.07043 0.54331 0.0
C203 C 0.22846 0.03571 0.61063 0.0
C204 C 0.21782 0.2182 0.54572 0.0
C205 C 0.17458 0.12305 0.674 0.0
C206 C 0.07329 0.16454 0.61413 0.0
C207 C 0.17755 0.30765 0.61281 0.0
O208 O 0.13725 0.04261 0.56639 0.0
O209 O 0.24082 0.08937 0.60451 0.0
O210 O 0.1833 0.20962 0.54019 0.0
O211 O 0.14696 0.09901 0.6599 0.0
O212 O 0.0897 0.20766 0.5999 0.0
O213 O 0.19731 0.26877 0.62727 0.0
O214 O 0.08553 0.1094 0.61327 0.0
O215 O 0.20281 0.1475 0.66098 0.0
O216 O 0.15641 0.29124 0.59095 0.0
O217 O 0.19421 0.0255 0.6166 0.0
O218 O 0.1157 0.12775 0.54376 0.0
O219 O 0.23289 0.21179 0.57172 0.0
Sc220 Sc 0.84802 0.18991 0.89259 0.0
Sc221 Sc 0.76274 0.16349 0.85457 0.0
Sc222 Sc 0.83241 0.04894 0.85685 0.0
O223 O 0.81393 0.13438 0.86798 0.0
C224 C 0.90664 0.13042 0.84938 0.0
C225 C 0.80587 0.29274 0.8529 0.0
C226 C 0.80024 0.10238 0.79605 0.0
C227 C 0.769 0.20672 0.92322 0.0
C228 C 0.85714 0.05774 0.92421 0.0
C229 C 0.74467 0.02084 0.8625 0.0
O230 O 0.89317 0.17913 0.86116 0.0
O231 O 0.78066 0.25556 0.84375 0.0
O232 O 0.82405 0.06947 0.81011 0.0
O233 O 0.8045 0.20423 0.92434 0.0
O234 O 0.8402 0.02713 0.90369 0.0
O235 O 0.7347 0.07697 0.86375 0.0
O236 O 0.86731 0.11394 0.92094 0.0
O237 O 0.74937 0.19488 0.89968 0.0
O238 O 0.7784 0.00444 0.85902 0.0
O239 O 0.8322 0.27524 0.87025 0.0
O240 O 0.89013 0.07853 0.85211 0.0
O241 O 0.7753 0.13571 0.80872 0.0
Sc242 Sc 0.16609 0.94408 0.35864 0.0
Sc243 Sc 0.23295 0.8276 0.36901 0.0
Sc244 Sc 0.14134 0.80968 0.3976 0.0
O245 O 0.18034 0.86001 0.37499 0.0
C246 C 0.13511 0.94822 0.42544 0.0
C247 C 0.25335 0.97049 0.37013 0.0
C248 C 0.21467 0.79341 0.43727 0.0
C249 C 0.20509 0.87548 0.30342 0.0
C250 C 0.08832 0.87155 0.35005 0.0
C251 C 0.1869 0.69878 0.36816 0.0
O252 O 0.15197 0.97545 0.4037 0.0
O253 O 0.26192 0.91461 0.37486 0.0
O254 O 0.17982 0.78962 0.43244 0.0
O255 O 0.18033 0.91208 0.31402 0.0
O256 O 0.09807 0.8234 0.36436 0.0
O257 O 0.21554 0.73252 0.3637 0.0
O258 O 0.10883 0.91942 0.34967 0.0
O259 O 0.22769 0.84424 0.32009 0.0
O260 O 0.15551 0.72095 0.3766 0.0
O261 O 0.22041 0.9871 0.3635 0.0
O262 O 0.12534 0.89116 0.42435 0.0
O263 O 0.2387 0.81027 0.41741 0.0
Sc264 Sc 0.13535 0.04188 0.86144 0.0
Sc265 Sc 0.20681 0.1532 0.86835 0.0
Sc266 Sc 0.11942 0.17871 0.90264 0.0
O267 O 0.15398 0.12477 0.87735 0.0
C268 C 0.06121 0.12358 0.85543 0.0
C269 C 0.17331 0.10608 0.80454 0.0
C270 C 0.16403 0.28378 0.86917 0.0
C271 C 0.22239 0.0092 0.86842 0.0
C272 C 0.11078 0.04113 0.93041 0.0
C273 C 0.19731 0.19072 0.93723 0.0
O274 O 0.07904 0.07324 0.85303 0.0
O275 O 0.19664 0.13849 0.8201 0.0
O276 O 0.13277 0.26437 0.87929 0.0
O277 O 0.18829 0.99429 0.86494 0.0
O278 O 0.10489 0.09943 0.93096 0.0
O279 O 0.2179 0.16841 0.91623 0.0
O280 O 0.12263 0.01242 0.90703 0.0
O281 O 0.23321 0.06459 0.87146 0.0
O282 O 0.16249 0.19994 0.93438 0.0
O283 O 0.14876 0.07019 0.81609 0.0
O284 O 0.07266 0.16662 0.8727 0.0
O285 O 0.19169 0.24857 0.86454 0.0
Sc286 Sc 0.8711 0.82679 0.40166 0.0
Sc287 Sc 0.78315 0.84353 0.36555 0.0
Sc288 Sc 0.8538 0.95477 0.35498 0.0
O289 O 0.83601 0.87473 0.37399 0.0
C290 C 0.87804 0.96834 0.42399 0.0
C291 C 0.79292 0.8129 0.43473 0.0
C292 C 0.76631 0.98676 0.36374 0.0
C293 C 0.82998 0.71593 0.36799 0.0
C294 C 0.93112 0.88045 0.35657 0.0
C295 C 0.81439 0.88492 0.30068 0.0
O296 O 0.88299 0.91031 0.42746 0.0
O297 O 0.77184 0.82801 0.41276 0.0
O298 O 0.79992 1.00062 0.35714 0.0
O299 O 0.85978 0.73813 0.37986 0.0
O300 O 0.91043 0.92478 0.3483 0.0
O301 O 0.7901 0.85816 0.31736 0.0
O302 O 0.92002 0.83833 0.37432 0.0
O303 O 0.8017 0.749 0.36143 0.0
O304 O 0.84112 0.91796 0.31105 0.0
O305 O 0.82809 0.80862 0.43316 0.0
O306 O 0.86736 0.9926 0.39906 0.0
O307 O 0.75601 0.93192 0.36951 0.0
Sc308 Sc 0.13241 0.78622 0.07804 0.0
Sc309 Sc 0.22163 0.80794 0.10897 0.0
Sc310 Sc 0.15289 0.92345 0.11563 0.0
O311 O 0.1696 0.83907 0.10063 0.0
C312 C 0.12626 0.92388 0.04852 0.0
C313 C 0.20645 0.7666 0.0405 0.0
C314 C 0.2407 0.9497 0.10657 0.0
C315 C 0.17644 0.67959 0.112 0.0
C316 C 0.07532 0.84945 0.11752 0.0
C317 C 0.19102 0.86371 0.17266 0.0
O318 O 0.11606 0.8671 0.05063 0.0
O319 O 0.22925 0.78192 0.06167 0.0
O320 O 0.20808 0.96532 0.11485 0.0
O321 O 0.14658 0.69995 0.10001 0.0
O322 O 0.09341 0.90014 0.11743 0.0
O323 O 0.21485 0.83337 0.15675 0.0
O324 O 0.0914 0.79871 0.11267 0.0
O325 O 0.20425 0.71431 0.11813 0.0
O326 O 0.16359 0.89417 0.16151 0.0
O327 O 0.17117 0.76554 0.04333 0.0
O328 O 0.14345 0.95256 0.06975 0.0
O329 O 0.24911 0.8946 0.09973 0.0
Sc330 Sc 0.86 0.23086 0.57168 0.0
Sc331 Sc 0.7772 0.19775 0.61138 0.0
Sc332 Sc 0.84872 0.08727 0.60587 0.0
O333 O 0.82817 0.17195 0.59617 0.0
C334 C 0.873 0.10016 0.5383 0.0
C335 C 0.78016 0.2492 0.54392 0.0
C336 C 0.76097 0.05679 0.59987 0.0
C337 C 0.81898 0.32672 0.61626 0.0
C338 C 0.92009 0.17405 0.61474 0.0
C339 C 0.81438 0.12864 0.66779 0.0
O340 O 0.88035 0.15762 0.54168 0.0
O341 O 0.76224 0.23621 0.56803 0.0
O342 O 0.79495 0.04136 0.60345 0.0
O343 O 0.84261 0.31308 0.59584 0.0
O344 O 0.90554 0.12064 0.61135 0.0
O345 O 0.7888 0.16137 0.65576 0.0
O346 O 0.90574 0.22142 0.60253 0.0
O347 O 0.79614 0.28685 0.62653 0.0
O348 O 0.8406 0.10259 0.65319 0.0
O349 O 0.8154 0.24549 0.54095 0.0
O350 O 0.85722 0.06779 0.55864 0.0
O351 O 0.75021 0.11252 0.5986 0.0
C352 C 0.30359 0.0787 0.13458 0.0
C353 C 0.30978 0.11104 0.10716 0.0
C354 C 0.27998 0.02694 0.0782 0.0
C355 C 0.27027 0.99814 0.10592 0.0
N356 N 0.28383 0.98311 0.15881 0.0
N357 N 0.31413 0.10899 0.05257 0.0
C358 C 0.28569 0.01978 0.13366 0.0
C359 C 0.30158 0.08249 0.0788 0.0
N360 N 0.31382 0.10556 0.16144 0.0
N361 N 0.26744 0.00209 0.0515 0.0
H362 H 0.33062 0.14883 0.05238 0.0
H363 H 0.31118 0.08912 0.03117 0.0
H364 H 0.25473 0.95864 0.05041 0.0
H365 H 0.26892 0.02438 0.03064 0.0
H366 H 0.30608 0.08859 0.18261 0.0
H367 H 0.32961 0.14631 0.16222 0.0
H368 H 0.29683 0.9938 0.17934 0.0
H369 H 0.2719 0.93892 0.15819 0.0
C370 C 0.69768 0.92451 0.57471 0.0
C371 C 0.69274 0.89458 0.60323 0.0
C372 C 0.72034 0.9843 0.62903 0.0
C373 C 0.73239 0.00718 0.60053 0.0
N374 N 0.73121 0.00331 0.54605 0.0
N375 N 0.69699 0.89659 0.65771 0.0
C376 C 0.72003 0.97918 0.57325 0.0
C377 C 0.70289 0.9252 0.6305 0.0
N378 N 0.68199 0.8999 0.54902 0.0
N379 N 0.72528 0.01958 0.65452 0.0
H380 H 0.68209 0.85507 0.6595 0.0
H381 H 0.70797 0.91256 0.67821 0.0
H382 H 0.73755 0.06346 0.65393 0.0
H383 H 0.71438 0.00805 0.67566 0.0
H384 H 0.682 0.92196 0.52807 0.0
H385 H 0.66607 0.85949 0.54885 0.0
H386 H 0.72658 0.98207 0.52516 0.0
H387 H 0.74703 0.04387 0.54446 0.0
C388 C 0.28071 0.87855 0.83677 0.0
C389 C 0.29287 0.84978 0.8639 0.0
C390 C 0.26549 0.93414 0.89407 0.0
C391 C 0.25105 0.9599 0.86704 0.0
N392 N 0.25636 0.97126 0.81299 0.0
N393 N 0.30592 0.85869 0.91783 0.0
C394 C 0.26229 0.93664 0.83841 0.0
C395 C 0.28861 0.88072 0.89236 0.0
N396 N 0.28601 0.84945 0.80955 0.0
N397 N 0.25583 0.95951 0.92139 0.0
H398 H 0.32202 0.8188 0.91831 0.0
H399 H 0.3068 0.88241 0.9384 0.0
H400 H 0.24124 0.00102 0.92308 0.0
H401 H 0.26085 0.93879 0.94229 0.0
H402 H 0.27377 0.86397 0.78933 0.0
H403 H 0.3017 0.80901 0.80751 0.0
H404 H 0.26644 0.95944 0.79161 0.0
H405 H 0.24459 0.01534 0.81398 0.0
C406 C 0.73086 0.06551 0.33375 0.0
C407 C 0.7375 0.03631 0.36201 0.0
C408 C 0.69494 0.11012 0.38643 0.0
C409 C 0.69628 0.14746 0.35993 0.0
N410 N 0.71265 0.15905 0.30734 0.0
N411 N 0.72349 0.0268 0.41526 0.0
C412 C 0.71298 0.12412 0.33313 0.0
C413 C 0.71817 0.05663 0.38829 0.0
N414 N 0.74054 0.03592 0.30752 0.0
N415 N 0.67212 0.12645 0.40993 0.0
H416 H 0.73967 0.98699 0.41728 0.0
H417 H 0.71352 0.04292 0.43598 0.0
H418 H 0.65513 0.16546 0.4094 0.0
H419 H 0.66748 0.09873 0.42884 0.0
H420 H 0.73405 0.05243 0.28597 0.0
H421 H 0.75134 0.99112 0.30753 0.0
H422 H 0.72828 0.14848 0.2881 0.0
H423 H 0.69759 0.20022 0.30576 0.0
C424 C 0.70054 0.94756 0.83657 0.0
C425 C 0.71578 0.97155 0.86397 0.0
C426 C 0.68392 0.89003 0.89269 0.0
C427 C 0.67487 0.85977 0.86494 0.0
N428 N 0.6728 0.85919 0.81046 0.0
N429 N 0.72167 0.96826 0.91835 0.0
C430 C 0.68212 0.88898 0.83683 0.0
C431 C 0.70684 0.9441 0.89221 0.0
N432 N 0.70381 0.98095 0.81041 0.0
N433 N 0.67105 0.86625 0.91943 0.0
H434 H 0.7374 0.00907 0.91873 0.0
H435 H 0.71996 0.94683 0.93941 0.0
H436 H 0.65398 0.82706 0.92036 0.0
H437 H 0.67434 0.88797 0.94038 0.0
H438 H 0.69094 0.96861 0.79004 0.0
H439 H 0.71693 0.02418 0.80974 0.0
H440 H 0.68121 0.87396 0.78906 0.0
H441 H 0.65757 0.81782 0.81021 0.0
C442 C 0.29709 0.04262 0.34301 0.0
C443 C 0.28322 0.01862 0.37078 0.0
C444 C 0.31827 0.09817 0.39869 0.0
C445 C 0.32462 0.12996 0.37103 0.0
N446 N 0.32762 0.12826 0.31681 0.0
N447 N 0.28343 0.01841 0.42535 0.0
C448 C 0.31659 0.10042 0.34307 0.0
C449 C 0.29528 0.04421 0.39877 0.0
N450 N 0.2919 0.00938 0.3169 0.0
N451 N 0.33459 0.11938 0.42476 0.0
H452 H 0.26878 0.9766 0.42607 0.0
H453 H 0.28686 0.03929 0.44651 0.0
H454 H 0.35243 0.1576 0.42506 0.0
H455 H 0.3339 0.09551 0.44523 0.0
H456 H 0.30236 0.02217 0.29582 0.0
H457 H 0.27928 0.96573 0.31686 0.0
H458 H 0.32048 0.11256 0.29522 0.0
H459 H 0.34449 0.16786 0.31696 0.0
C460 C 0.7004 0.02598 0.08519 0.0
C461 C 0.71984 0.00808 0.11175 0.0
C462 C 0.69427 0.09647 0.13945 0.0
C463 C 0.67812 0.11817 0.11208 0.0
N464 N 0.65059 0.08803 0.06392 0.0
N465 N 0.7212 0.00933 0.16625 0.0
C466 C 0.67598 0.07776 0.08654 0.0
C467 C 0.71232 0.03803 0.13968 0.0
N468 N 0.70617 0.99495 0.05855 0.0
N469 N 0.69294 0.13249 0.16492 0.0
H470 H 0.73179 0.96438 0.16662 0.0
H471 H 0.71418 0.02673 0.18754 0.0
H472 H 0.67732 0.17318 0.16577 0.0
H473 H 0.708 0.12293 0.18462 0.0
H474 H 0.69595 0.00988 0.03769 0.0
H475 H 0.72288 0.95561 0.05704 0.0
H476 H 0.64638 0.05766 0.04583 0.0
H477 H 0.63021 0.12215 0.06514 0.0
C478 C 0.2887 0.97626 0.62294 0.0
C479 C 0.25289 0.98021 0.60872 0.0
C480 C 0.2494 0.86814 0.60644 0.0
C481 C 0.28699 0.86326 0.61634 0.0
N482 N 0.3447 0.91417 0.6303 0.0
N483 N 0.2075 0.92966 0.57648 0.0
C484 C 0.30759 0.91795 0.62317 0.0
C485 C 0.2361 0.92599 0.59699 0.0
N486 N 0.30377 0.02627 0.63757 0.0
N487 N 0.22556 0.81875 0.60708 0.0
H488 H 0.19926 0.97152 0.56684 0.0
H489 H 0.19535 0.89068 0.56662 0.0
H490 H 0.2329 0.77558 0.61547 0.0
H491 H 0.1969 0.82373 0.60318 0.0
H492 H 0.32797 0.0237 0.65074 0.0
H493 H 0.29061 0.06911 0.63865 0.0
H494 H 0.36192 0.95298 0.63258 0.0
H495 H 0.35856 0.8719 0.63211 0.0
C496 C 0.79479 0.59413 0.07332 0.0
C497 C 0.80625 0.62167 0.10133 0.0
C498 C 0.78674 0.52756 0.12809 0.0
C499 C 0.76787 0.50722 0.10151 0.0
N500 N 0.75496 0.51799 0.04821 0.0
N501 N 0.81525 0.61378 0.15525 0.0
C502 C 0.77271 0.53912 0.0738 0.0
C503 C 0.80328 0.58766 0.12867 0.0
N504 N 0.80438 0.62084 0.04633 0.0
N505 N 0.78902 0.48918 0.15257 0.0
H506 H 0.8296 0.65596 0.1559 0.0
H507 H 0.80978 0.59496 0.17653 0.0
H508 H 0.77774 0.44454 0.15235 0.0
H509 H 0.80483 0.49919 0.17186 0.0
H510 H 0.79971 0.60009 0.0253 0.0
H511 H 0.82007 0.66127 0.04465 0.0
H512 H 0.75365 0.54243 0.02792 0.0
H513 H 0.73975 0.47666 0.04765 0.0
C514 C 0.21334 0.46011 0.58772 0.0
C515 C 0.23712 0.47511 0.61247 0.0
C516 C 0.20717 0.39427 0.64315 0.0
C517 C 0.18673 0.37496 0.61711 0.0
N518 N 0.15445 0.41329 0.57289 0.0
N519 N 0.24711 0.47227 0.66659 0.0
C520 C 0.18468 0.41532 0.59185 0.0
C521 C 0.23116 0.44695 0.6412 0.0
N522 N 0.21859 0.4874 0.56012 0.0
N523 N 0.20319 0.36227 0.66964 0.0
H524 H 0.26335 0.51243 0.6659 0.0
H525 H 0.24185 0.45709 0.68856 0.0
H526 H 0.18206 0.32925 0.67247 0.0
H527 H 0.22049 0.36809 0.68848 0.0
H528 H 0.20419 0.4736 0.54063 0.0
H529 H 0.23942 0.52041 0.55622 0.0
H530 H 0.15059 0.44442 0.55514 0.0
H531 H 0.13081 0.38663 0.57774 0.0
C532 C 0.75205 0.43146 0.82617 0.0
C533 C 0.75146 0.46455 0.85416 0.0
C534 C 0.80468 0.40319 0.87204 0.0
C535 C 0.79861 0.36054 0.84794 0.0
N536 N 0.77539 0.34292 0.79755 0.0
N537 N 0.77738 0.48237 0.90405 0.0
C538 C 0.77529 0.37819 0.82334 0.0
C539 C 0.77822 0.4512 0.87703 0.0
N540 N 0.73064 0.45144 0.80237 0.0
N541 N 0.83636 0.39953 0.88929 0.0
H542 H 0.75848 0.51789 0.90855 0.0
H543 H 0.79346 0.46973 0.92277 0.0
H544 H 0.85828 0.36991 0.88379 0.0
H545 H 0.8433 0.43176 0.90603 0.0
H546 H 0.73134 0.43252 0.78067 0.0
H547 H 0.71315 0.48982 0.8038 0.0
H548 H 0.75672 0.34785 0.7796 0.0
H549 H 0.79506 0.30796 0.79427 0.0
C550 C 0.22134 0.54495 0.39781 0.0
C551 C 0.23735 0.52084 0.37081 0.0
C552 C 0.20556 0.60126 0.34092 0.0
C553 C 0.19368 0.63021 0.36808 0.0
N554 N 0.18049 0.62129 0.42149 0.0
N555 N 0.23378 0.51177 0.31651 0.0
C556 C 0.19802 0.59875 0.39625 0.0
C557 C 0.22607 0.54475 0.34223 0.0
N558 N 0.22934 0.5172 0.42488 0.0
N559 N 0.19722 0.62862 0.3139 0.0
H560 H 0.24662 0.46853 0.31721 0.0
H561 H 0.22466 0.52391 0.29491 0.0
H562 H 0.17855 0.66555 0.31266 0.0
H563 H 0.20851 0.61533 0.29315 0.0
H564 H 0.2204 0.53298 0.44591 0.0
H565 H 0.24576 0.4776 0.42641 0.0
H566 H 0.18095 0.60033 0.44267 0.0
H567 H 0.16321 0.65992 0.42097 0.0
C568 C 0.20359 0.43312 0.83939 0.0
C569 C 0.22194 0.45349 0.86637 0.0
C570 C 0.18562 0.37851 0.89604 0.0
C571 C 0.17279 0.351 0.86864 0.0
N572 N 0.16454 0.35474 0.81485 0.0
N573 N 0.22957 0.44872 0.92069 0.0
C574 C 0.17989 0.37986 0.84048 0.0
C575 C 0.21237 0.42749 0.89488 0.0
N576 N 0.20916 0.46437 0.81282 0.0
N577 N 0.17219 0.35726 0.92312 0.0
H578 H 0.24795 0.48638 0.92085 0.0
H579 H 0.22712 0.42766 0.94179 0.0
H580 H 0.15198 0.32247 0.92442 0.0
H581 H 0.17821 0.37742 0.94404 0.0
H582 H 0.19474 0.45507 0.79278 0.0
H583 H 0.227 0.50248 0.81105 0.0
H584 H 0.1714 0.36798 0.79287 0.0
H585 H 0.14451 0.3195 0.816 0.0
C586 C 0.82054 0.6099 0.39098 0.0
C587 C 0.82454 0.64766 0.36478 0.0
C588 C 0.78411 0.57777 0.33572 0.0
C589 C 0.77728 0.54252 0.36229 0.0
N590 N 0.79521 0.51541 0.41329 0.0
N591 N 0.82539 0.65084 0.3107 0.0
C592 C 0.79793 0.5551 0.38928 0.0
C593 C 0.81124 0.62584 0.3366 0.0
N594 N 0.83698 0.62781 0.41764 0.0
N595 N 0.76363 0.5673 0.30999 0.0
H596 H 0.84647 0.68452 0.31149 0.0
H597 H 0.81967 0.63309 0.28916 0.0
H598 H 0.74301 0.53316 0.30852 0.0
H599 H 0.76507 0.59573 0.29096 0.0
H600 H 0.83221 0.6066 0.43844 0.0
H601 H 0.8553 0.66527 0.41921 0.0
H602 H 0.81139 0.51869 0.43288 0.0
H603 H 0.77798 0.47635 0.41296 0.0
C604 C 0.20216 0.51485 0.09036 0.0
C605 C 0.2249 0.50162 0.11588 0.0
C606 C 0.19846 0.59051 0.14286 0.0
C607 C 0.18243 0.61149 0.11538 0.0
N608 N 0.16497 0.59014 0.06314 0.0
N609 N 0.24337 0.5232 0.1675 0.0
C610 C 0.18214 0.57186 0.08937 0.0
C611 C 0.22224 0.53793 0.14265 0.0
N612 N 0.20012 0.47309 0.06702 0.0
N613 N 0.19026 0.62104 0.16915 0.0
H614 H 0.25973 0.48337 0.1686 0.0
H615 H 0.24605 0.55168 0.18649 0.0
H616 H 0.17122 0.65749 0.16942 0.0
H617 H 0.19871 0.60647 0.19058 0.0
H618 H 0.18137 0.47637 0.049 0.0
H619 H 0.21533 0.43196 0.06683 0.0
H620 H 0.16827 0.56786 0.04236 0.0
H621 H 0.14812 0.62903 0.06146 0.0
C622 C 0.82093 0.44031 0.60231 0.0
C623 C 0.81091 0.39343 0.62324 0.0
C624 C 0.75891 0.45682 0.64148 0.0
C625 C 0.7642 0.49725 0.61639 0.0
N626 N 0.80054 0.52875 0.57292 0.0
N627 N 0.78452 0.3737 0.67217 0.0
C628 C 0.79578 0.49017 0.59714 0.0
C629 C 0.78426 0.40716 0.64593 0.0
N630 N 0.8553 0.43897 0.58888 0.0
N631 N 0.72886 0.4643 0.66029 0.0
H632 H 0.80479 0.34 0.67618 0.0
H633 H 0.76799 0.38378 0.69095 0.0
H634 H 0.71017 0.50098 0.65841 0.0
H635 H 0.72115 0.43232 0.67677 0.0
H636 H 0.86541 0.47397 0.57488 0.0
H637 H 0.87571 0.40718 0.59532 0.0
H638 H 0.82035 0.52131 0.55601 0.0
H639 H 0.78284 0.56588 0.56849 0.0
C640 C 0.38953 0.44163 -0.00541 0.0
C641 C 0.36448 0.46058 0.01779 0.0
C642 C 0.35051 0.55416 -0.01122 0.0
C643 C 0.3681 0.52773 0.96284 0.0
N644 N 0.40665 0.44724 0.94148 0.0
N645 N 0.31641 0.53129 0.03452 0.0
C646 C 0.38828 0.47158 0.96588 0.0
C647 C 0.34408 0.51632 0.01446 0.0
N648 N 0.41576 0.39734 0.00048 0.0
N649 N 0.33916 0.6145 -0.01091 0.0
H650 H 0.30591 0.50084 0.05069 0.0
H651 H 0.30076 0.57146 0.03303 0.0
H652 H 0.34174 0.6447 0.97098 0.0
H653 H 0.3306 0.63709 0.00879 0.0
H654 H 0.43688 0.38549 -0.01469 0.0
H655 H 0.41909 0.37743 0.02185 0.0
H656 H 0.41769 0.40269 0.94124 0.0
H657 H 0.4097 0.47095 0.92103 0.0
C658 C 0.60254 0.48866 0.46913 0.0
C659 C 0.63296 0.49511 0.44863 0.0
C660 C 0.66164 0.5722 0.48219 0.0
C661 C 0.6342 0.56 0.50466 0.0
N662 N 0.57853 0.5051 0.52015 0.0
N663 N 0.69626 0.53155 0.44 0.0
C664 C 0.60468 0.51743 0.49838 0.0
C665 C 0.66362 0.53415 0.45616 0.0
N666 N 0.57114 0.4571 0.46017 0.0
N667 N 0.68629 0.62015 0.48535 0.0
H668 H 0.70065 0.50142 0.42189 0.0
H669 H 0.72076 0.55383 0.44698 0.0
H670 H 0.68981 0.64558 0.50519 0.0
H671 H 0.7014 0.63729 0.46699 0.0
H672 H 0.54656 0.4554 0.47278 0.0
H673 H 0.56855 0.43691 0.43872 0.0
H674 H 0.55878 0.4697 0.51833 0.0
H675 H 0.57769 0.52854 0.54086 0.0
C676 C 0.5949 0.50235 0.00493 0.0
C677 C 0.62406 0.45938 0.01031 0.0
C678 C 0.64837 0.47818 0.95922 0.0
C679 C 0.61618 0.51399 0.95231 0.0
N680 N 0.55556 0.55186 0.96729 0.0
N681 N 0.6762 0.40046 -0.00901 0.0
C682 C 0.58843 0.52363 0.97483 0.0
C683 C 0.64972 0.44495 -0.01317 0.0
N684 N 0.57416 0.52431 0.02857 0.0
N685 N 0.67929 0.48011 0.94092 0.0
H686 H 0.68131 0.37987 0.01189 0.0
H687 H 0.69147 0.38178 0.97307 0.0
H688 H 0.68138 0.50784 0.92172 0.0
H689 H 0.70475 0.45999 0.9468 0.0
H690 H 0.55466 0.55971 0.02629 0.0
H691 H 0.5793 0.51182 0.051 0.0
H692 H 0.53291 0.555 0.98205 0.0
H693 H 0.54963 0.56655 0.94526 0.0
C694 C 0.4059 0.50431 0.50732 0.0
C695 C 0.37899 0.55223 0.51019 0.0
C696 C 0.35603 0.5297 0.45943 0.0
C697 C 0.38468 0.48569 0.45491 0.0
N698 N 0.44272 0.4416 0.4726 0.0
N699 N 0.34071 0.62621 0.48316 0.0
C700 C 0.41151 0.47593 0.47832 0.0
C701 C 0.35833 0.57049 0.48433 0.0
N702 N 0.42622 0.48643 0.53204 0.0
N703 N 0.32448 0.52896 0.44191 0.0
H704 H 0.34203 0.65875 0.50051 0.0
H705 H 0.32867 0.64259 0.46317 0.0
H706 H 0.31754 0.49311 0.42707 0.0
H707 H 0.30242 0.55875 0.44566 0.0
H708 H 0.44338 0.44757 0.53209 0.0
H709 H 0.42442 0.509 0.55295 0.0
H710 H 0.4647 0.43713 0.48801 0.0
H711 H 0.44836 0.42298 0.45123 0.0
C712 C 0.82456 0.03205 0.9724 0.0
C713 C 0.85801 0.03146 0.9551 0.0
C714 C 0.89157 0.9843 -0.00238 0.0
C715 C 0.85713 0.97771 0.0133 0.0
N716 N 0.79013 0.99278 0.0155 0.0
N717 N 0.92297 0.00456 0.94976 0.0
C718 C 0.82348 0.00159 0.00084 0.0
C719 C 0.89154 0.00713 0.96733 0.0
N720 N 0.79387 0.06288 0.96184 0.0
N721 N 0.92433 0.9713 0.01228 0.0
H722 H 0.92389 0.02214 0.92773 0.0
H723 H 0.94728 0.98154 0.95614 0.0
H724 H 0.92503 0.95825 0.03504 0.0
H725 H 0.95073 0.97955 0.00314 0.0
H726 H 0.77056 0.07201 0.97513 0.0
H727 H 0.79264 0.08349 0.94051 0.0
H728 H 0.76412 0.00147 0.00575 0.0
H729 H 0.78777 0.97166 0.03661 0.0
C730 C 0.16425 0.00279 0.47034 0.0
C731 C 0.13137 0.98181 0.45505 0.0
C732 C 0.09329 0.01506 0.49882 0.0
C733 C 0.12596 0.03894 0.51315 0.0
N734 N 0.19164 0.06475 0.51056 0.0
N735 N 0.06413 0.97594 0.45251 0.0
C736 C 0.16112 0.03546 0.49828 0.0
C737 C 0.09571 0.98997 0.46875 0.0
N738 N 0.19883 0.98836 0.45912 0.0
N739 N 0.06016 0.01522 0.51426 0.0
H740 H 0.06498 0.95836 0.43045 0.0
H741 H 0.03719 0.9863 0.45977 0.0
H742 H 0.05754 0.03419 0.53596 0.0
H743 H 0.03598 0.99305 0.5066 0.0
H744 H 0.22357 0.99497 0.47127 0.0
H745 H 0.20292 0.96327 0.4392 0.0
H746 H 0.21649 0.0718 0.49875 0.0
H747 H 0.1914 0.08628 0.53176 0.0
C748 C 0.08526 0.96394 0.00592 0.0
C749 C 0.12155 0.95563 0.01866 0.0
C750 C 0.14996 0.00341 0.97352 0.0
C751 C 0.11385 0.00914 0.96021 0.0
N752 N 0.04755 0.99033 0.96161 0.0
N753 N 0.18883 0.96286 0.01382 0.0
C754 C 0.08155 0.98818 0.97586 0.0
C755 C 0.15395 0.97473 0.00235 0.0
N756 N 0.0544 0.95104 0.02313 0.0
N757 N 0.18055 0.02732 0.95887 0.0
H758 H 0.19339 0.94123 0.03456 0.0
H759 H 0.21352 0.96797 0.00162 0.0
H760 H 0.17941 0.0469 0.9373 0.0
H761 H 0.20666 0.03342 0.96896 0.0
H762 H 0.02706 0.96064 0.01654 0.0
H763 H 0.05623 0.93466 0.04533 0.0
H764 H 0.02316 0.97076 0.97025 0.0
H765 H 0.04418 0.00853 0.93986 0.0
C766 C 0.91137 0.00904 0.47065 0.0
C767 C 0.87912 0.00787 0.45166 0.0
C768 C 0.84699 0.07746 0.48694 0.0
C769 C 0.87711 0.07225 0.50769 0.0
N770 N 0.93734 0.03049 0.52075 0.0
N771 N 0.81336 0.03158 0.44506 0.0
C772 C 0.90925 0.03738 0.49994 0.0
C773 C 0.8463 0.04018 0.46046 0.0
N774 N 0.94417 0.98458 0.4603 0.0
N775 N 0.81868 0.11807 0.4925 0.0
H776 H 0.81038 0.00233 0.42638 0.0
H777 H 0.78777 0.04812 0.45287 0.0
H778 H 0.81652 0.14317 0.5126 0.0
H779 H 0.79938 0.13068 0.47594 0.0
H780 H 0.9695 0.98854 0.47186 0.0
H781 H 0.94672 0.96482 0.43876 0.0
H782 H 0.9597 1.00031 0.51791 0.0
H783 H 0.93708 0.05261 0.54184 0.0
C784 C 0.47566 0.3104 0.13545 0.0
C785 C 0.45499 0.35194 0.11712 0.0
C786 C 0.51246 0.39256 0.09515 0.0
C787 C 0.53362 0.35439 0.1148 0.0
N788 N 0.53638 0.28294 0.15656 0.0
N789 N 0.45384 0.44316 0.08539 0.0
C790 C 0.5155 0.31506 0.13596 0.0
C791 C 0.47347 0.39679 0.09913 0.0
N792 N 0.45724 0.26608 0.15173 0.0
N793 N 0.52906 0.4208 0.07092 0.0
H794 H 0.42497 0.44779 0.0871 0.0
H795 H 0.46671 0.48064 0.07475 0.0
H796 H 0.55732 0.41601 0.06594 0.0
H797 H 0.51408 0.44293 0.05381 0.0
H798 H 0.47067 0.23028 0.1631 0.0
H799 H 0.42807 0.26347 0.15259 0.0
H800 H 0.52488 0.25745 0.17427 0.0
H801 H 0.56556 0.28566 0.15724 0.0
C802 C 0.51597 0.67627 0.57659 0.0
C803 C 0.53723 0.67056 0.60365 0.0
C804 C 0.47932 0.66707 0.63338 0.0
C805 C 0.45863 0.67866 0.60647 0.0
N806 N 0.45811 0.70841 0.55351 0.0
N807 N 0.54006 0.66737 0.65827 0.0
C808 C 0.47724 0.68824 0.57848 0.0
C809 C 0.51918 0.66782 0.63227 0.0
N810 N 0.53227 0.66604 0.54894 0.0
N811 N 0.46081 0.6546 0.6598 0.0
H812 H 0.56921 0.66655 0.65805 0.0
H813 H 0.52875 0.67188 0.67991 0.0
H814 H 0.43173 0.65726 0.66166 0.0
H815 H 0.474 0.63883 0.67938 0.0
H816 H 0.51708 0.66269 0.52878 0.0
H817 H 0.56024 0.65359 0.54638 0.0
H818 H 0.47136 0.72221 0.53359 0.0
H819 H 0.42957 0.71768 0.55344 0.0
C820 C 0.50617 0.58859 0.82528 0.0
C821 C 0.52489 0.64052 0.8382 0.0
C822 C 0.46466 0.69374 0.84061 0.0
C823 C 0.44662 0.63502 0.84057 0.0
N824 N 0.44804 0.53185 0.81902 0.0
N825 N 0.52283 0.75122 0.84538 0.0
C826 C 0.46663 0.58372 0.82852 0.0
C827 C 0.50439 0.69622 0.84179 0.0
N828 N 0.52548 0.54766 0.80764 0.0
N829 N 0.44397 0.74624 0.83702 0.0
H830 H 0.55135 0.75598 0.8408 0.0
H831 H 0.50982 0.79182 0.85242 0.0
H832 H 0.41548 0.74452 0.83172 0.0
H833 H 0.45552 0.79036 0.83511 0.0
H834 H 0.51311 0.51049 0.7963 0.0
H835 H 0.55283 0.55632 0.80056 0.0
H836 H 0.4612 0.4897 0.81503 0.0
H837 H 0.41952 0.53194 0.81395 0.0
C838 C 0.52709 0.43027 0.33911 0.0
C839 C 0.54827 0.37536 0.3363 0.0
C840 C 0.48946 0.31595 0.33464 0.0
C841 C 0.47031 0.36865 0.346 0.0
N842 N 0.47446 0.47438 0.36487 0.0
N843 N 0.54948 0.26587 0.32643 0.0
C844 C 0.48987 0.42573 0.34948 0.0
C845 C 0.52927 0.31804 0.33225 0.0
N846 N 0.54203 0.48662 0.33199 0.0
N847 N 0.46962 0.26479 0.32577 0.0
H848 H 0.57812 0.26762 0.32178 0.0
H849 H 0.53815 0.22139 0.32684 0.0
H850 H 0.44044 0.26291 0.32652 0.0
H851 H 0.48166 0.22667 0.31516 0.0
H852 H 0.5263 0.52717 0.33243 0.0
H853 H 0.56764 0.49167 0.32104 0.0
H854 H 0.4896 0.51443 0.3701 0.0
H855 H 0.44867 0.47228 0.37579 0.0
C856 C 0.97226 0.86837 0.13874 0.0
C857 C 0.95523 0.85774 0.11003 0.0
C858 C 0.01611 0.83457 0.0878 0.0
C859 C 0.0339 0.8507 0.1157 0.0
N860 N 0.02953 0.88975 0.16688 0.0
N861 N 0.96226 0.84811 0.05565 0.0
C862 C 0.01214 0.87013 0.14091 0.0
C863 C 0.97753 0.84584 0.08415 0.0
N864 N 0.95045 0.87406 0.16402 0.0
N865 N 0.03554 0.80747 0.06463 0.0
H866 H 0.93408 0.8568 0.05149 0.0
H867 H 0.97832 0.84809 0.03592 0.0
H868 H 0.06404 0.79882 0.06507 0.0
H869 H 0.02251 0.78796 0.04568 0.0
H870 H 0.96116 0.87561 0.18601 0.0
H871 H 0.92127 0.8723 0.16322 0.0
H872 H 0.01548 0.91073 0.18483 0.0
H873 H 0.05852 0.8884 0.16977 0.0
C874 C 0.97641 0.12741 0.64144 0.0
C875 C 0.95801 0.17977 0.62909 0.0
C876 C 0.0177 0.23466 0.6256 0.0
C877 C 0.03584 0.17643 0.62822 0.0
N878 N 0.03539 0.08407 0.65868 0.0
N879 N 0.95942 0.29119 0.63107 0.0
C880 C 0.01614 0.12736 0.64246 0.0
C881 C 0.97804 0.23652 0.62774 0.0
N882 N 0.95604 0.07929 0.65288 0.0
N883 N 0.03815 0.28768 0.6222 0.0
H884 H 0.93124 0.29261 0.63723 0.0
H885 H 0.97243 0.33436 0.63171 0.0
H886 H 0.06659 0.28996 0.6275 0.0
H887 H 0.0267 0.32966 0.61541 0.0
H888 H 0.96737 0.03634 0.65817 0.0
H889 H 0.92764 0.0835 0.65793 0.0
H890 H 0.02279 0.04848 0.67085 0.0
H891 H 0.06401 0.08864 0.66303 0.0
C892 C 0.00467 0.07823 0.8278 0.0
C893 C 0.02378 0.13038 0.8401 0.0
C894 C 0.96563 0.18949 0.83605 0.0
C895 C 0.94561 0.13268 0.83659 0.0
N896 N 0.94525 0.02702 0.81833 0.0
N897 N 0.02538 0.24213 0.84158 0.0
C898 C 0.96482 0.07794 0.82779 0.0
C899 C 0.00519 0.18847 0.83964 0.0
N900 N 0.02432 0.03239 0.81367 0.0
N901 N 0.94708 0.24314 0.8298 0.0
H902 H 0.05427 0.24332 0.83812 0.0
H903 H 0.01353 0.28522 0.84582 0.0
H904 H 0.91905 0.24311 0.82302 0.0
H905 H 0.96007 0.28606 0.82753 0.0
H906 H 0.012 0.99434 0.80305 0.0
H907 H 0.05268 0.03706 0.80858 0.0
H908 H 0.95689 0.98306 0.81654 0.0
H909 H 0.91745 0.0296 0.81116 0.0
C910 C 0.03044 0.93357 0.34013 0.0
C911 C 0.04889 0.87585 0.33865 0.0
C912 C 0.98739 0.825 0.33574 0.0
C913 C 0.97086 0.88024 0.34701 0.0
N914 N 0.97949 0.98659 0.364 0.0
N915 N 0.04465 0.76728 0.32674 0.0
C916 C 0.99293 0.93482 0.34993 0.0
C917 C 0.02717 0.82154 0.33366 0.0
N918 N 0.04808 0.98683 0.33156 0.0
N919 N 0.96509 0.77699 0.32642 0.0
H920 H 0.07303 0.76576 0.32117 0.0
H921 H 0.03128 0.72436 0.32662 0.0
H922 H 0.93593 0.77947 0.32657 0.0
H923 H 0.9752 0.73718 0.31598 0.0
H924 H 0.03448 0.02944 0.33105 0.0
H925 H 0.07377 0.9866 0.32038 0.0
H926 H 0.99641 0.02497 0.36866 0.0
H927 H 0.95326 0.98893 0.37419 0.0
C928 C 0.22081 0.20554 0.02092 0.0
C929 C 0.24464 0.25783 0.02038 0.0
C930 C 0.23994 0.26331 0.96511 0.0
C931 C 0.21441 0.21262 0.96578 0.0
N932 N 0.17231 0.1481 -0.00466 0.0
N933 N 0.27165 0.34426 -0.00622 0.0
C934 C 0.20224 0.18759 -0.00604 0.0
C935 C 0.25269 0.28907 -0.00706 0.0
N936 N 0.21717 0.17122 0.0468 0.0
N937 N 0.25156 0.28744 0.93803 0.0
H938 H 0.28061 0.36478 0.01402 0.0
H939 H 0.27572 0.37248 0.97497 0.0
H940 H 0.24054 0.274 0.91711 0.0
H941 H 0.27343 0.31916 0.93604 0.0
H942 H 0.20413 0.12797 0.04722 0.0
H943 H 0.22979 0.18338 0.06735 0.0
H944 H 0.16018 0.13404 0.01568 0.0
H945 H 0.15719 0.13375 0.97641 0.0
C946 C 0.77561 0.83472 0.48799 0.0
C947 C 0.77655 0.79283 0.46322 0.0
C948 C 0.76423 0.7056 0.49661 0.0
C949 C 0.75785 0.74802 0.52026 0.0
N950 N 0.76666 0.84859 0.54232 0.0
N951 N 0.76864 0.69028 0.4424 0.0
C952 C 0.76638 0.81162 0.51711 0.0
C953 C 0.77025 0.72861 0.46711 0.0
N954 N 0.78266 0.89623 0.48322 0.0
N955 N 0.76536 0.64369 0.50269 0.0
H956 H 0.77153 0.70627 0.42022 0.0
H957 H 0.76172 0.64354 0.44358 0.0
H958 H 0.76096 0.6263 0.52446 0.0
H959 H 0.77348 0.6104 0.48691 0.0
H960 H 0.7817 0.93024 0.49992 0.0
H961 H 0.78845 0.91404 0.46176 0.0
H962 H 0.7747 0.89484 0.5425 0.0
H963 H 0.76122 0.83115 0.56394 0.0
C964 C 0.21401 0.7797 0.98474 0.0
C965 C 0.22078 0.74431 0.01128 0.0
C966 C 0.24506 0.65927 0.98031 0.0
C967 C 0.24484 0.69961 0.95511 0.0
N968 N 0.22729 0.79568 0.93152 0.0
N969 N 0.23578 0.64676 0.03462 0.0
C970 C 0.22843 0.75891 0.95671 0.0
C971 C 0.23435 0.68275 0.00916 0.0
N972 N 0.19236 0.83159 -0.01385 0.0
N973 N 0.25558 0.59899 0.97626 0.0
H974 H 0.23006 0.66363 0.05629 0.0
H975 H 0.24129 0.59967 0.03465 0.0
H976 H 0.25535 0.56543 -0.00693 0.0
H977 H 0.26315 0.5813 0.95509 0.0
H978 H 0.18296 0.85574 0.96722 0.0
H979 H 0.18065 0.84747 0.00626 0.0
H980 H 0.21968 0.84209 0.93191 0.0
H981 H 0.23544 0.78041 0.91007 0.0
C982 C 0.76238 0.33227 0.50835 0.0
C983 C 0.75964 0.26948 0.51729 0.0
C984 C 0.74056 0.23852 0.46674 0.0
C985 C 0.74095 0.30148 0.45799 0.0
N986 N 0.74556 0.40978 0.4712 0.0
N987 N 0.7369 0.16597 0.50825 0.0
C988 C 0.75003 0.34907 0.47898 0.0
C989 C 0.74542 0.22363 0.49756 0.0
N990 N 0.77727 0.37528 0.5278 0.0
N991 N 0.73722 0.19303 0.44528 0.0
H992 H 0.74038 0.15386 0.53097 0.0
H993 H 0.72341 0.13222 0.49524 0.0
H994 H 0.73593 0.20266 0.42212 0.0
H995 H 0.73974 0.14611 0.45011 0.0
H996 H 0.78408 0.42031 0.52142 0.0
H997 H 0.78426 0.3649 0.55023 0.0
H998 H 0.74788 0.44628 0.48659 0.0
H999 H 0.73703 0.42344 0.44963 0.0
C1000 C 0.72696 0.70619 0.01326 0.0
C1001 C 0.74681 0.7633 0.01309 0.0
C1002 C 0.74359 0.76801 0.95777 0.0
C1003 C 0.72288 0.71195 0.9579 0.0
N1004 N 0.69084 0.63032 0.98467 0.0
N1005 N 0.76732 0.85488 -0.01304 0.0
C1006 C 0.71323 0.6819 -0.0146 0.0
C1007 C 0.75317 0.79602 -0.01423 0.0
N1008 N 0.72268 0.67406 0.03976 0.0
N1009 N 0.75404 0.7944 0.93086 0.0
H1010 H 0.77361 0.87674 0.00745 0.0
H1011 H 0.76971 0.88402 0.96831 0.0
H1012 H 0.74658 0.77626 0.90975 0.0
H1013 H 0.77227 0.83192 0.9292 0.0
H1014 H 0.71129 0.62981 0.04112 0.0
H1015 H 0.73222 0.69015 0.0607 0.0
H1016 H 0.67894 0.61007 0.00377 0.0
H1017 H 0.68267 0.60882 0.96448 0.0
C1018 C 0.23443 0.29998 0.50844 0.0
C1019 C 0.24139 0.24068 0.52105 0.0
C1020 C 0.29528 0.22681 0.48813 0.0
C1021 C 0.28444 0.28098 0.47197 0.0
N1022 N 0.25519 0.38084 0.47419 0.0
N1023 N 0.27561 0.14466 0.5216 0.0
C1024 C 0.25709 0.32105 0.48423 0.0
C1025 C 0.27122 0.20352 0.51077 0.0
N1026 N 0.20577 0.33545 0.51929 0.0
N1027 N 0.32938 0.19972 0.48378 0.0
H1028 H 0.25903 0.12584 0.53872 0.0
H1029 H 0.29341 0.11239 0.51166 0.0
H1030 H 0.35042 0.21745 0.47015 0.0
H1031 H 0.33937 0.16392 0.4973 0.0
H1032 H 0.19594 0.37508 0.50862 0.0
H1033 H 0.19044 0.32385 0.53853 0.0
H1034 H 0.23804 0.41463 0.48356 0.0
H1035 H 0.27405 0.39872 0.4584 0.0
C1036 C 0.75215 0.30206 -0.00681 0.0
C1037 C 0.7335 0.25711 0.011 0.0
C1038 C 0.72938 0.18615 0.96802 0.0
C1039 C 0.75081 0.22838 0.95087 0.0
N1040 N 0.78228 0.32675 0.94549 0.0
N1041 N 0.71279 0.15208 0.01834 0.0
C1042 C 0.76211 0.28657 0.96304 0.0
C1043 C 0.72448 0.19789 -0.00079 0.0
N1044 N 0.75885 0.35999 0.00468 0.0
N1045 N 0.71367 0.13507 0.95465 0.0
H1046 H 0.71075 0.15879 0.04173 0.0
H1047 H 0.70929 0.10622 0.01157 0.0
H1048 H 0.71738 0.12377 0.93187 0.0
H1049 H 0.69457 0.10632 0.96563 0.0
H1050 H 0.76841 0.39716 -0.00815 0.0
H1051 H 0.7529 0.37235 0.027 0.0
H1052 H 0.79565 0.36623 0.95375 0.0
H1053 H 0.7864 0.31955 0.92232 0.0
C1054 C 0.21169 0.79352 0.49363 0.0
C1055 C 0.22662 0.76787 0.46649 0.0
C1056 C 0.24969 0.67935 0.4952 0.0
C1057 C 0.2416 0.71167 0.52206 0.0
N1058 N 0.19406 0.77259 0.54553 0.0
N1059 N 0.25466 0.68128 0.44039 0.0
C1060 C 0.21652 0.76141 0.52125 0.0
C1061 C 0.24382 0.70876 0.46688 0.0
N1062 N 0.19338 0.84883 0.4931 0.0
N1063 N 0.26046 0.61909 0.49739 0.0
H1064 H 0.25037 0.70047 0.41904 0.0
H1065 H 0.26862 0.63953 0.43933 0.0
H1066 H 0.26438 0.59775 0.51839 0.0
H1067 H 0.2611 0.58893 0.47907 0.0
H1068 H 0.18515 0.87225 0.51265 0.0
H1069 H 0.18862 0.87306 0.4731 0.0
H1070 H 0.1714 0.80272 0.54461 0.0
H1071 H 0.19413 0.74391 0.56449 0.0
C1072 C 0.32542 0.40457 0.22502 0.0
C1073 C 0.31401 0.35017 0.20934 0.0
C1074 C 0.30258 0.30152 0.25897 0.0
C1075 C 0.30576 0.36083 0.27303 0.0
N1076 N 0.31008 0.472 0.26628 0.0
N1077 N 0.297 0.24166 0.21274 0.0
C1078 C 0.31341 0.41339 0.25495 0.0
C1079 C 0.30353 0.29719 0.22668 0.0
N1080 N 0.35077 0.44509 0.21297 0.0
N1081 N 0.3018 0.24892 0.27612 0.0
H1082 H 0.30714 0.23121 0.19122 0.0
H1083 H 0.28243 0.20546 0.22299 0.0
H1084 H 0.30295 0.24868 0.29967 0.0
H1085 H 0.30342 0.2046 0.26694 0.0
H1086 H 0.36047 0.48381 0.22488 0.0
H1087 H 0.36734 0.43412 0.19429 0.0
H1088 H 0.31323 0.51111 0.25265 0.0
H1089 H 0.30038 0.48126 0.28808 0.0
C1090 C 0.64556 0.65478 0.74965 0.0
C1091 C 0.67691 0.62948 0.76502 0.0
C1092 C 0.7099 0.61531 0.71703 0.0
C1093 C 0.67912 0.64269 0.70179 0.0
N1094 N 0.6217 0.7003 0.70323 0.0
N1095 N 0.74091 0.59358 0.7647 0.0
C1096 C 0.64794 0.6656 0.71797 0.0
C1097 C 0.70975 0.61224 0.74912 0.0
N1098 N 0.61364 0.66857 0.76534 0.0
N1099 N 0.7388 0.59062 0.70072 0.0
H1100 H 0.74152 0.58741 0.78814 0.0
H1101 H 0.76707 0.58783 0.75478 0.0
H1102 H 0.74104 0.59467 0.67725 0.0
H1103 H 0.75947 0.56263 0.71004 0.0
H1104 H 0.58843 0.68011 0.75494 0.0
H1105 H 0.6116 0.66517 0.78888 0.0
H1106 H 0.60002 0.72341 0.71413 0.0
H1107 H 0.62357 0.71065 0.68017 0.0
C1108 C 0.31 0.54342 0.75065 0.0
C1109 C 0.31426 0.59754 0.76866 0.0
C1110 C 0.32945 0.65829 0.72357 0.0
C1111 C 0.32596 0.60383 0.70576 0.0
N1112 N 0.32337 0.4922 0.70306 0.0
N1113 N 0.33815 0.70189 0.77379 0.0
C1114 C 0.31982 0.54552 0.71955 0.0
C1115 C 0.32691 0.65382 0.75559 0.0
N1116 N 0.29466 0.49096 0.7628 0.0
N1117 N 0.33498 0.71426 0.70985 0.0
H1118 H 0.338 0.69967 0.79743 0.0
H1119 H 0.35106 0.74176 0.76559 0.0
H1120 H 0.33999 0.71871 0.68663 0.0
H1121 H 0.33287 0.75642 0.72123 0.0
H1122 H 0.28679 0.45265 0.74983 0.0
H1123 H 0.28661 0.4875 0.78545 0.0
H1124 H 0.32301 0.44831 0.71279 0.0
H1125 H 0.32987 0.49163 0.68003 0.0
C1126 C 0.67279 0.32766 0.21972 0.0
C1127 C 0.68912 0.37416 0.20135 0.0
C1128 C 0.72141 0.41829 0.24512 0.0
C1129 C 0.70178 0.37675 0.26398 0.0
N1130 N 0.65566 0.29591 0.27057 0.0
N1131 N 0.72276 0.47096 0.19694 0.0
C1132 C 0.67669 0.33213 0.25169 0.0
C1133 C 0.71159 0.42175 0.21415 0.0
N1134 N 0.65369 0.27955 0.20659 0.0
N1135 N 0.75026 0.45279 0.25668 0.0
H1136 H 0.71575 0.47554 0.17407 0.0
H1137 H 0.73604 0.5099 0.20601 0.0
H1138 H 0.75936 0.44807 0.27907 0.0
H1139 H 0.76769 0.48032 0.24338 0.0
H1140 H 0.64475 0.24067 0.21851 0.0
H1141 H 0.64865 0.27681 0.18328 0.0
H1142 H 0.63393 0.26743 0.26305 0.0
H1143 H 0.65835 0.29716 0.29415 0.0
C1144 C 0.80531 0.93078 0.2179 0.0
C1145 C 0.80829 0.87205 0.20355 0.0
C1146 C 0.80985 0.82107 0.25295 0.0
C1147 C 0.81065 0.88011 0.26734 0.0
N1148 N 0.81228 0.99213 0.26334 0.0
N1149 N 0.81997 0.76248 0.20678 0.0
C1150 C 0.8094 0.93521 0.24977 0.0
C1151 C 0.81195 0.81737 0.22086 0.0
N1152 N 0.79695 0.98234 0.20125 0.0
N1153 N 0.80748 0.76826 0.26978 0.0
H1154 H 0.82285 0.75817 0.18333 0.0
H1155 H 0.82728 0.72236 0.21837 0.0
H1156 H 0.80964 0.76758 0.29329 0.0
H1157 H 0.8009 0.7253 0.26036 0.0
H1158 H 0.78913 0.02443 0.21085 0.0
H1159 H 0.79447 0.98244 0.17773 0.0
H1160 H 0.81782 0.03271 0.25144 0.0
H1161 H 0.81108 0.9994 0.28665 0.0
C1162 C 0.1643 0.16767 0.75691 0.0
C1163 C 0.17405 0.11088 0.77105 0.0
C1164 C 0.18686 0.06426 0.72141 0.0
C1165 C 0.17485 0.11954 0.70731 0.0
N1166 N 0.14818 0.22147 0.7103 0.0
N1167 N 0.1879 0.00162 0.76673 0.0
C1168 C 0.16262 0.1708 0.72469 0.0
C1169 C 0.18333 0.05809 0.7533 0.0
N1170 N 0.15616 0.21829 0.77432 0.0
N1171 N 0.20269 0.01832 0.70435 0.0
H1172 H 0.18645 0.9947 0.79006 0.0
H1173 H 0.19025 0.96039 0.7546 0.0
H1174 H 0.20526 0.02075 0.6808 0.0
H1175 H 0.21614 0.98012 0.71365 0.0
H1176 H 0.15327 0.26274 0.76565 0.0
H1177 H 0.15377 0.21649 0.79787 0.0
H1178 H 0.13503 0.25791 0.72141 0.0
H1179 H 0.14712 0.22547 0.68672 0.0
C1180 C 0.80201 0.06238 0.71268 0.0
C1181 C 0.81329 0.12036 0.70064 0.0
C1182 C 0.8204 0.16333 0.75154 0.0
C1183 C 0.80481 0.10795 0.7633 0.0
N1184 N 0.7783 0.00617 0.75616 0.0
N1185 N 0.8317 0.22716 0.70744 0.0
C1186 C 0.79513 0.05759 0.74421 0.0
C1187 C 0.822 0.17128 0.71974 0.0
N1188 N 0.7983 0.01193 0.69406 0.0
N1189 N 0.83523 0.20689 0.77078 0.0
H1190 H 0.83597 0.23362 0.68425 0.0
H1191 H 0.83365 0.26796 0.72 0.0
H1192 H 0.83488 0.20252 0.79436 0.0
H1193 H 0.85067 0.24501 0.76352 0.0
H1194 H 0.79404 0.96707 0.70193 0.0
H1195 H 0.80198 0.01387 0.67062 0.0
H1196 H 0.76641 0.97101 0.74307 0.0
H1197 H 0.77394 1.00043 0.77938 0.0
C1198 C 0.19996 0.8129 0.25507 0.0
C1199 C 0.20708 0.87056 0.26971 0.0
C1200 C 0.20715 0.92271 0.22008 0.0
C1201 C 0.19657 0.86607 0.20601 0.0
N1202 N 0.17698 0.75988 0.21009 0.0
N1203 N 0.21679 0.98115 0.26649 0.0
C1204 C 0.19182 0.81169 0.22344 0.0
C1205 C 0.21064 0.92565 0.25223 0.0
N1206 N 0.20048 0.75918 0.27129 0.0
N1207 N 0.21469 0.97344 0.20257 0.0
H1208 H 0.22288 0.98499 0.28954 0.0
H1209 H 0.2144 0.02393 0.2559 0.0
H1210 H 0.21086 0.97409 0.17912 0.0
H1211 H 0.22709 0.01387 0.21074 0.0
H1212 H 0.20044 0.71552 0.26123 0.0
H1213 H 0.2038 0.75768 0.29471 0.0
H1214 H 0.16862 0.72072 0.22204 0.0
H1215 H 0.16959 0.75822 0.1872 0.0
loop_
_geom_bond_atom_site_label_1
_geom_bond_atom_site_label_2
_geom_bond_distance
_geom_bond_site_symmetry_2
_ccdc_geom_bond_type
Sc0 O3 2.025 . S
Sc0 O10 2.105 . S
Sc0 O13 2.105 . S
Sc0 O16 2.105 . S
Sc0 O19 2.105 . S
Sc1 O3 2.025 . S
Sc1 O11 2.105 . S
Sc1 O15 2.105 . S
Sc1 O17 2.105 . S
Sc1 O21 2.105 . S
Sc2 O3 2.025 . S
Sc2 O12 2.105 . S
Sc2 O14 2.105 . S
Sc2 O18 2.105 . S
Sc2 O20 2.105 . S
O3 Sc0 2.025 . S
O3 Sc1 2.025 . S
O3 Sc2 2.025 . S
C4 O10 1.268 . S
C4 O20 1.268 . S
C5 O11 1.268 . S
C5 O19 1.268 . S
C6 O12 1.268 . S
C6 O21 1.268 . S
C7 O13 1.268 . S
C7 O17 1.268 . S
C8 O14 1.268 . S
C8 O16 1.268 . S
C9 O15 1.268 . S
C9 O18 1.268 . S
O10 Sc0 2.105 . S
O10 C4 1.268 . S
O11 Sc1 2.105 . S
O11 C5 1.268 . S
O12 Sc2 2.105 . S
O12 C6 1.268 . S
O13 Sc0 2.105 . S
O13 C7 1.268 . S
O14 Sc2 2.105 . S
O14 C8 1.268 . S
O15 Sc1 2.105 . S
O15 C9 1.268 . S
O16 Sc0 2.105 . S
O16 C8 1.268 . S
O17 Sc1 2.105 . S
O17 C7 1.268 . S
O18 Sc2 2.105 . S
O18 C9 1.268 . S
O19 Sc0 2.105 . S
O19 C5 1.268 . S
O20 Sc2 2.105 . S
O20 C4 1.268 . S
O21 Sc1 2.105 . S
O21 C6 1.268 . S
Sc22 O25 2.025 . S
Sc22 O32 2.105 . S
Sc22 O35 2.105 . S
Sc22 O38 2.105 . S
Sc22 O41 2.105 . S
Sc23 O25 2.025 . S
Sc23 O33 2.105 . S
Sc23 O37 2.105 . S
Sc23 O39 2.105 . S
Sc23 O43 2.105 . S
Sc24 O25 2.025 . S
Sc24 O34 2.105 . S
Sc24 O36 2.105 . S
Sc24 O40 2.105 . S
Sc24 O42 2.105 . S
O25 Sc22 2.025 . S
O25 Sc23 2.025 . S
O25 Sc24 2.025 . S
C26 O32 1.268 . S
C26 O42 1.268 . S
C27 O33 1.268 . S
C27 O41 1.268 . S
C28 O34 1.268 . S
C28 O43 1.268 . S
C29 O35 1.268 . S
C29 O39 1.268 . S
C30 O36 1.268 . S
C30 O38 1.268 . S
C31 O37 1.268 . S
C31 O40 1.268 . S
O32 Sc22 2.105 . S
O32 C26 1.268 . S
O33 Sc23 2.105 . S
O33 C27 1.268 . S
O34 Sc24 2.105 . S
O34 C28 1.268 . S
O35 Sc22 2.105 . S
O35 C29 1.268 . S
O36 Sc24 2.105 . S
O36 C30 1.268 . S
O37 Sc23 2.105 . S
O37 C31 1.268 . S
O38 Sc22 2.105 . S
O38 C30 1.268 . S
O39 Sc23 2.105 . S
O39 C29 1.268 . S
O40 Sc24 2.105 . S
O40 C31 1.268 . S
O41 Sc22 2.105 . S
O41 C27 1.268 . S
O42 Sc24 2.105 . S
O42 C26 1.268 . S
O43 Sc23 2.105 . S
O43 C28 1.268 . S
Sc44 O47 2.025 . S
Sc44 O54 2.105 . S
Sc44 O57 2.105 . S
Sc44 O60 2.105 . S
Sc44 O63 2.105 . S
Sc45 O47 2.025 . S
Sc45 O55 2.105 . S
Sc45 O59 2.105 . S
Sc45 O61 2.105 . S
Sc45 O65 2.105 . S
Sc46 O47 2.025 . S
Sc46 O56 2.105 . S
Sc46 O58 2.105 . S
Sc46 O62 2.105 . S
Sc46 O64 2.105 . S
O47 Sc44 2.025 . S
O47 Sc45 2.025 . S
O47 Sc46 2.025 . S
C48 O54 1.268 . S
C48 O64 1.268 . S
C49 O55 1.268 . S
C49 O63 1.268 . S
C50 O56 1.268 . S
C50 O65 1.268 . S
C51 O57 1.268 . S
C51 O61 1.268 . S
C52 O58 1.268 . S
C52 O60 1.268 . S
C53 O59 1.268 . S
C53 O62 1.268 . S
O54 Sc44 2.105 . S
O54 C48 1.268 . S
O55 Sc45 2.105 . S
O55 C49 1.268 . S
O56 Sc46 2.105 . S
O56 C50 1.268 . S
O57 Sc44 2.105 . S
O57 C51 1.268 . S
O58 Sc46 2.105 . S
O58 C52 1.268 . S
O59 Sc45 2.105 . S
O59 C53 1.268 . S
O60 Sc44 2.105 . S
O60 C52 1.268 . S
O61 Sc45 2.105 . S
O61 C51 1.268 . S
O62 Sc46 2.105 . S
O62 C53 1.268 . S
O63 Sc44 2.105 . S
O63 C49 1.268 . S
O64 Sc46 2.105 . S
O64 C48 1.268 . S
O65 Sc45 2.105 . S
O65 C50 1.268 . S
Sc66 O69 2.025 . S
Sc66 O76 2.105 . S
Sc66 O79 2.105 . S
Sc66 O82 2.105 . S
Sc66 O85 2.105 . S
Sc67 O69 2.025 . S
Sc67 O77 2.105 . S
Sc67 O81 2.105 . S
Sc67 O83 2.105 . S
Sc67 O87 2.105 . S
Sc68 O69 2.025 . S
Sc68 O78 2.105 . S
Sc68 O80 2.105 . S
Sc68 O84 2.105 . S
Sc68 O86 2.105 . S
O69 Sc66 2.025 . S
O69 Sc67 2.025 . S
O69 Sc68 2.025 . S
C70 O76 1.268 . S
C70 O86 1.268 . S
C71 O77 1.268 . S
C71 O85 1.268 . S
C72 O78 1.268 . S
C72 O87 1.268 . S
C73 O79 1.268 . S
C73 O83 1.268 . S
C74 O80 1.268 . S
C74 O82 1.268 . S
C75 O81 1.268 . S
C75 O84 1.268 . S
O76 Sc66 2.105 . S
O76 C70 1.268 . S
O77 Sc67 2.105 . S
O77 C71 1.268 . S
O78 Sc68 2.105 . S
O78 C72 1.268 . S
O79 Sc66 2.105 . S
O79 C73 1.268 . S
O80 Sc68 2.105 . S
O80 C74 1.268 . S
O81 Sc67 2.105 . S
O81 C75 1.268 . S
O82 Sc66 2.105 . S
O82 C74 1.268 . S
O83 Sc67 2.105 . S
O83 C73 1.268 . S
O84 Sc68 2.105 . S
O84 C75 1.268 . S
O85 Sc66 2.105 . S
O85 C71 1.268 . S
O86 Sc68 2.105 . S
O86 C70 1.268 . S
O87 Sc67 2.105 . S
O87 C72 1.268 . S
Sc88 O91 2.025 . S
Sc88 O98 2.105 . S
Sc88 O101 2.105 . S
Sc88 O104 2.105 . S
Sc88 O107 2.105 . S
Sc89 O91 2.025 . S
Sc89 O99 2.105 . S
Sc89 O103 2.105 . S
Sc89 O105 2.105 . S
Sc89 O109 2.105 . S
Sc90 O91 2.025 . S
Sc90 O100 2.105 . S
Sc90 O102 2.105 . S
Sc90 O106 2.105 . S
Sc90 O108 2.105 . S
O91 Sc88 2.025 . S
O91 Sc89 2.025 . S
O91 Sc90 2.025 . S
C92 O98 1.268 . S
C92 O108 1.268 . S
C93 O99 1.268 . S
C93 O107 1.268 . S
C94 O100 1.268 . S
C94 O109 1.268 . S
C95 O101 1.268 . S
C95 O105 1.268 . S
C96 O102 1.268 . S
C96 O104 1.268 . S
C97 O103 1.268 . S
C97 O106 1.268 . S
O98 Sc88 2.105 . S
O98 C92 1.268 . S
O99 Sc89 2.105 . S
O99 C93 1.268 . S
O100 Sc90 2.105 . S
O100 C94 1.268 . S
O101 Sc88 2.105 . S
O101 C95 1.268 . S
O102 Sc90 2.105 . S
O102 C96 1.268 . S
O103 Sc89 2.105 . S
O103 C97 1.268 . S
O104 Sc88 2.105 . S
O104 C96 1.268 . S
O105 Sc89 2.105 . S
O105 C95 1.268 . S
O106 Sc90 2.105 . S
O106 C97 1.268 . S
O107 Sc88 2.105 . S
O107 C93 1.268 . S
O108 Sc90 2.105 . S
O108 C92 1.268 . S
O109 Sc89 2.105 . S
O109 C94 1.268 . S
Sc110 O113 2.025 . S
Sc110 O120 2.105 . S
Sc110 O123 2.105 . S
Sc110 O126 2.105 . S
Sc110 O129 2.105 . S
Sc111 O113 2.025 . S
Sc111 O121 2.105 . S
Sc111 O125 2.105 . S
Sc111 O127 2.105 . S
Sc111 O131 2.105 . S
Sc112 O113 2.025 . S
Sc112 O122 2.105 . S
Sc112 O124 2.105 . S
Sc112 O128 2.105 . S
Sc112 O130 2.105 . S
O113 Sc110 2.025 . S
O113 Sc111 2.025 . S
O113 Sc112 2.025 . S
C114 O120 1.268 . S
C114 O130 1.268 . S
C115 O121 1.268 . S
C115 O129 1.268 . S
C116 O122 1.268 . S
C116 O131 1.268 . S
C117 O123 1.268 . S
C117 O127 1.268 . S
C118 O124 1.268 . S
C118 O126 1.268 . S
C119 O125 1.268 . S
C119 O128 1.268 . S
O120 Sc110 2.105 . S
O120 C114 1.268 . S
O121 Sc111 2.105 . S
O121 C115 1.268 . S
O122 Sc112 2.105 . S
O122 C116 1.268 . S
O123 Sc110 2.105 . S
O123 C117 1.268 . S
O124 Sc112 2.105 . S
O124 C118 1.268 . S
O125 Sc111 2.105 . S
O125 C119 1.268 . S
O126 Sc110 2.105 . S
O126 C118 1.268 . S
O127 Sc111 2.105 . S
O127 C117 1.268 . S
O128 Sc112 2.105 . S
O128 C119 1.268 . S
O129 Sc110 2.105 . S
O129 C115 1.268 . S
O130 Sc112 2.105 . S
O130 C114 1.268 . S
O131 Sc111 2.105 . S
O131 C116 1.268 . S
Sc132 O135 2.025 . S
Sc132 O142 2.105 . S
Sc132 O145 2.105 . S
Sc132 O148 2.105 . S
Sc132 O151 2.105 . S
Sc133 O135 2.025 . S
Sc133 O143 2.105 . S
Sc133 O147 2.105 . S
Sc133 O149 2.105 . S
Sc133 O153 2.105 . S
Sc134 O135 2.025 . S
Sc134 O144 2.105 . S
Sc134 O146 2.105 . S
Sc134 O150 2.105 . S
Sc134 O152 2.105 . S
O135 Sc132 2.025 . S
O135 Sc133 2.025 . S
O135 Sc134 2.025 . S
C136 O142 1.268 . S
C136 O152 1.268 . S
C137 O143 1.268 . S
C137 O151 1.268 . S
C138 O144 1.268 . S
C138 O153 1.268 . S
C139 O145 1.268 . S
C139 O149 1.268 . S
C140 O146 1.268 . S
C140 O148 1.268 . S
C141 O147 1.268 . S
C141 O150 1.268 . S
O142 Sc132 2.105 . S
O142 C136 1.268 . S
O143 Sc133 2.105 . S
O143 C137 1.268 . S
O144 Sc134 2.105 . S
O144 C138 1.268 . S
O145 Sc132 2.105 . S
O145 C139 1.268 . S
O146 Sc134 2.105 . S
O146 C140 1.268 . S
O147 Sc133 2.105 . S
O147 C141 1.268 . S
O148 Sc132 2.105 . S
O148 C140 1.268 . S
O149 Sc133 2.105 . S
O149 C139 1.268 . S
O150 Sc134 2.105 . S
O150 C141 1.268 . S
O151 Sc132 2.105 . S
O151 C137 1.268 . S
O152 Sc134 2.105 . S
O152 C136 1.268 . S
O153 Sc133 2.105 . S
O153 C138 1.268 . S
Sc154 O157 2.025 . S
Sc154 O164 2.105 . S
Sc154 O167 2.105 . S
Sc154 O170 2.105 . S
Sc154 O173 2.105 . S
Sc155 O157 2.025 . S
Sc155 O165 2.105 . S
Sc155 O169 2.105 . S
Sc155 O171 2.105 . S
Sc155 O175 2.105 . S
Sc156 O157 2.025 . S
Sc156 O166 2.105 . S
Sc156 O168 2.105 . S
Sc156 O172 2.105 . S
Sc156 O174 2.105 . S
O157 Sc154 2.025 . S
O157 Sc155 2.025 . S
O157 Sc156 2.025 . S
C158 O164 1.268 . S
C158 O174 1.268 . S
C159 O165 1.268 . S
C159 O173 1.268 . S
C160 O166 1.268 . S
C160 O175 1.268 . S
C161 O167 1.268 . S
C161 O171 1.268 . S
C162 O168 1.268 . S
C162 O170 1.268 . S
C163 O169 1.268 . S
C163 O172 1.268 . S
O164 Sc154 2.105 . S
O164 C158 1.268 . S
O165 Sc155 2.105 . S
O165 C159 1.268 . S
O166 Sc156 2.105 . S
O166 C160 1.268 . S
O167 Sc154 2.105 . S
O167 C161 1.268 . S
O168 Sc156 2.105 . S
O168 C162 1.268 . S
O169 Sc155 2.105 . S
O169 C163 1.268 . S
O170 Sc154 2.105 . S
O170 C162 1.268 . S
O171 Sc155 2.105 . S
O171 C161 1.268 . S
O172 Sc156 2.105 . S
O172 C163 1.268 . S
O173 Sc154 2.105 . S
O173 C159 1.268 . S
O174 Sc156 2.105 . S
O174 C158 1.268 . S
O175 Sc155 2.105 . S
O175 C160 1.268 . S
Sc176 O179 2.025 . S
Sc176 O186 2.105 . S
Sc176 O189 2.105 . S
Sc176 O192 2.105 . S
Sc176 O195 2.105 . S
Sc177 O179 2.025 . S
Sc177 O187 2.105 . S
Sc177 O191 2.105 . S
Sc177 O193 2.105 . S
Sc177 O197 2.105 . S
Sc178 O179 2.025 . S
Sc178 O188 2.105 . S
Sc178 O190 2.105 . S
Sc178 O194 2.105 . S
Sc178 O196 2.105 . S
O179 Sc176 2.025 . S
O179 Sc177 2.025 . S
O179 Sc178 2.025 . S
C180 O186 1.268 . S
C180 O196 1.268 . S
C181 O187 1.268 . S
C181 O195 1.268 . S
C182 O188 1.268 . S
C182 O197 1.268 . S
C183 O189 1.268 . S
C183 O193 1.268 . S
C184 O190 1.268 . S
C184 O192 1.268 . S
C185 O191 1.268 . S
C185 O194 1.268 . S
O186 Sc176 2.105 . S
O186 C180 1.268 . S
O187 Sc177 2.105 . S
O187 C181 1.268 . S
O188 Sc178 2.105 . S
O188 C182 1.268 . S
O189 Sc176 2.105 . S
O189 C183 1.268 . S
O190 Sc178 2.105 . S
O190 C184 1.268 . S
O191 Sc177 2.105 . S
O191 C185 1.268 . S
O192 Sc176 2.105 . S
O192 C184 1.268 . S
O193 Sc177 2.105 . S
O193 C183 1.268 . S
O194 Sc178 2.105 . S
O194 C185 1.268 . S
O195 Sc176 2.105 . S
O195 C181 1.268 . S
O196 Sc178 2.105 . S
O196 C180 1.268 . S
O197 Sc177 2.105 . S
O197 C182 1.268 . S
Sc198 O201 2.025 . S
Sc198 O208 2.105 . S
Sc198 O211 2.105 . S
Sc198 O214 2.105 . S
Sc198 O217 2.105 . S
Sc199 O201 2.025 . S
Sc199 O209 2.105 . S
Sc199 O213 2.105 . S
Sc199 O215 2.105 . S
Sc199 O219 2.105 . S
Sc200 O201 2.025 . S
Sc200 O210 2.105 . S
Sc200 O212 2.105 . S
Sc200 O216 2.105 . S
Sc200 O218 2.105 . S
O201 Sc198 2.025 . S
O201 Sc199 2.025 . S
O201 Sc200 2.025 . S
C202 O208 1.268 . S
C202 O218 1.268 . S
C203 O209 1.268 . S
C203 O217 1.268 . S
C204 O210 1.268 . S
C204 O219 1.268 . S
C205 O211 1.268 . S
C205 O215 1.268 . S
C206 O212 1.268 . S
C206 O214 1.268 . S
C207 O213 1.268 . S
C207 O216 1.268 . S
O208 Sc198 2.105 . S
O208 C202 1.268 . S
O209 Sc199 2.105 . S
O209 C203 1.268 . S
O210 Sc200 2.105 . S
O210 C204 1.268 . S
O211 Sc198 2.105 . S
O211 C205 1.268 . S
O212 Sc200 2.105 . S
O212 C206 1.268 . S
O213 Sc199 2.105 . S
O213 C207 1.268 . S
O214 Sc198 2.105 . S
O214 C206 1.268 . S
O215 Sc199 2.105 . S
O215 C205 1.268 . S
O216 Sc200 2.105 . S
O216 C207 1.268 . S
O217 Sc198 2.105 . S
O217 C203 1.268 . S
O218 Sc200 2.105 . S
O218 C202 1.268 . S
O219 Sc199 2.105 . S
O219 C204 1.268 . S
Sc220 O223 2.025 . S
Sc220 O230 2.105 . S
Sc220 O233 2.105 . S
Sc220 O236 2.105 . S
Sc220 O239 2.105 . S
Sc221 O223 2.025 . S
Sc221 O231 2.105 . S
Sc221 O235 2.105 . S
Sc221 O237 2.105 . S
Sc221 O241 2.105 . S
Sc222 O223 2.025 . S
Sc222 O232 2.105 . S
Sc222 O234 2.105 . S
Sc222 O238 2.105 . S
Sc222 O240 2.105 . S
O223 Sc220 2.025 . S
O223 Sc221 2.025 . S
O223 Sc222 2.025 . S
C224 O230 1.268 . S
C224 O240 1.268 . S
C225 O231 1.268 . S
C225 O239 1.268 . S
C226 O232 1.268 . S
C226 O241 1.268 . S
C227 O233 1.268 . S
C227 O237 1.268 . S
C228 O234 1.268 . S
C228 O236 1.268 . S
C229 O235 1.268 . S
C229 O238 1.268 . S
O230 Sc220 2.105 . S
O230 C224 1.268 . S
O231 Sc221 2.105 . S
O231 C225 1.268 . S
O232 Sc222 2.105 . S
O232 C226 1.268 . S
O233 Sc220 2.105 . S
O233 C227 1.268 . S
O234 Sc222 2.105 . S
O234 C228 1.268 . S
O235 Sc221 2.105 . S
O235 C229 1.268 . S
O236 Sc220 2.105 . S
O236 C228 1.268 . S
O237 Sc221 2.105 . S
O237 C227 1.268 . S
O238 Sc222 2.105 . S
O238 C229 1.268 . S
O239 Sc220 2.105 . S
O239 C225 1.268 . S
O240 Sc222 2.105 . S
O240 C224 1.268 . S
O241 Sc221 2.105 . S
O241 C226 1.268 . S
Sc242 O245 2.025 . S
Sc242 O252 2.105 . S
Sc242 O255 2.105 . S
Sc242 O258 2.105 . S
Sc242 O261 2.105 . S
Sc243 O245 2.025 . S
Sc243 O253 2.105 . S
Sc243 O257 2.105 . S
Sc243 O259 2.105 . S
Sc243 O263 2.105 . S
Sc244 O245 2.025 . S
Sc244 O254 2.105 . S
Sc244 O256 2.105 . S
Sc244 O260 2.105 . S
Sc244 O262 2.105 . S
O245 Sc242 2.025 . S
O245 Sc243 2.025 . S
O245 Sc244 2.025 . S
C246 O252 1.268 . S
C246 O262 1.268 . S
C247 O253 1.268 . S
C247 O261 1.268 . S
C248 O254 1.268 . S
C248 O263 1.268 . S
C249 O255 1.268 . S
C249 O259 1.268 . S
C250 O256 1.268 . S
C250 O258 1.268 . S
C251 O257 1.268 . S
C251 O260 1.268 . S
O252 Sc242 2.105 . S
O252 C246 1.268 . S
O253 Sc243 2.105 . S
O253 C247 1.268 . S
O254 Sc244 2.105 . S
O254 C248 1.268 . S
O255 Sc242 2.105 . S
O255 C249 1.268 . S
O256 Sc244 2.105 . S
O256 C250 1.268 . S
O257 Sc243 2.105 . S
O257 C251 1.268 . S
O258 Sc242 2.105 . S
O258 C250 1.268 . S
O259 Sc243 2.105 . S
O259 C249 1.268 . S
O260 Sc244 2.105 . S
O260 C251 1.268 . S
O261 Sc242 2.105 . S
O261 C247 1.268 . S
O262 Sc244 2.105 . S
O262 C246 1.268 . S
O263 Sc243 2.105 . S
O263 C248 1.268 . S
Sc264 O267 2.025 . S
Sc264 O274 2.105 . S
Sc264 O277 2.105 . S
Sc264 O280 2.105 . S
Sc264 O283 2.105 . S
Sc265 O267 2.025 . S
Sc265 O275 2.105 . S
Sc265 O279 2.105 . S
Sc265 O281 2.105 . S
Sc265 O285 2.105 . S
Sc266 O267 2.025 . S
Sc266 O276 2.105 . S
Sc266 O278 2.105 . S
Sc266 O282 2.105 . S
Sc266 O284 2.105 . S
O267 Sc264 2.025 . S
O267 Sc265 2.025 . S
O267 Sc266 2.025 . S
C268 O274 1.268 . S
C268 O284 1.268 . S
C269 O275 1.268 . S
C269 O283 1.268 . S
C270 O276 1.268 . S
C270 O285 1.268 . S
C271 O277 1.268 . S
C271 O281 1.268 . S
C272 O278 1.268 . S
C272 O280 1.268 . S
C273 O279 1.268 . S
C273 O282 1.268 . S
O274 Sc264 2.105 . S
O274 C268 1.268 . S
O275 Sc265 2.105 . S
O275 C269 1.268 . S
O276 Sc266 2.105 . S
O276 C270 1.268 . S
O277 Sc264 2.105 . S
O277 C271 1.268 . S
O278 Sc266 2.105 . S
O278 C272 1.268 . S
O279 Sc265 2.105 . S
O279 C273 1.268 . S
O280 Sc264 2.105 . S
O280 C272 1.268 . S
O281 Sc265 2.105 . S
O281 C271 1.268 . S
O282 Sc266 2.105 . S
O282 C273 1.268 . S
O283 Sc264 2.105 . S
O283 C269 1.268 . S
O284 Sc266 2.105 . S
O284 C268 1.268 . S
O285 Sc265 2.105 . S
O285 C270 1.268 . S
Sc286 O289 2.025 . S
Sc286 O296 2.105 . S
Sc286 O299 2.105 . S
Sc286 O302 2.105 . S
Sc286 O305 2.105 . S
Sc287 O289 2.025 . S
Sc287 O297 2.105 . S
Sc287 O301 2.105 . S
Sc287 O303 2.105 . S
Sc287 O307 2.105 . S
Sc288 O289 2.025 . S
Sc288 O298 2.105 . S
Sc288 O300 2.105 . S
Sc288 O304 2.105 . S
Sc288 O306 2.105 . S
O289 Sc286 2.025 . S
O289 Sc287 2.025 . S
O289 Sc288 2.025 . S
C290 O296 1.268 . S
C290 O306 1.268 . S
C291 O297 1.268 . S
C291 O305 1.268 . S
C292 O298 1.268 . S
C292 O307 1.268 . S
C293 O299 1.268 . S
C293 O303 1.268 . S
C294 O300 1.268 . S
C294 O302 1.268 . S
C295 O301 1.268 . S
C295 O304 1.268 . S
O296 Sc286 2.105 . S
O296 C290 1.268 . S
O297 Sc287 2.105 . S
O297 C291 1.268 . S
O298 Sc288 2.105 . S
O298 C292 1.268 . S
O299 Sc286 2.105 . S
O299 C293 1.268 . S
O300 Sc288 2.105 . S
O300 C294 1.268 . S
O301 Sc287 2.105 . S
O301 C295 1.268 . S
O302 Sc286 2.105 . S
O302 C294 1.268 . S
O303 Sc287 2.105 . S
O303 C293 1.268 . S
O304 Sc288 2.105 . S
O304 C295 1.268 . S
O305 Sc286 2.105 . S
O305 C291 1.268 . S
O306 Sc288 2.105 . S
O306 C290 1.268 . S
O307 Sc287 2.105 . S
O307 C292 1.268 . S
Sc308 O311 2.025 . S
Sc308 O318 2.105 . S
Sc308 O321 2.105 . S
Sc308 O324 2.105 . S
Sc308 O327 2.105 . S
Sc309 O311 2.025 . S
Sc309 O319 2.105 . S
Sc309 O323 2.105 . S
Sc309 O325 2.105 . S
Sc309 O329 2.105 . S
Sc310 O311 2.025 . S
Sc310 O320 2.105 . S
Sc310 O322 2.105 . S
Sc310 O326 2.105 . S
Sc310 O328 2.105 . S
O311 Sc308 2.025 . S
O311 Sc309 2.025 . S
O311 Sc310 2.025 . S
C312 O318 1.268 . S
C312 O328 1.268 . S
C313 O319 1.268 . S
C313 O327 1.268 . S
C314 O320 1.268 . S
C314 O329 1.268 . S
C315 O321 1.268 . S
C315 O325 1.268 . S
C316 O322 1.268 . S
C316 O324 1.268 . S
C317 O323 1.268 . S
C317 O326 1.268 . S
O318 Sc308 2.105 . S
O318 C312 1.268 . S
O319 Sc309 2.105 . S
O319 C313 1.268 . S
O320 Sc310 2.105 . S
O320 C314 1.268 . S
O321 Sc308 2.105 . S
O321 C315 1.268 . S
O322 Sc310 2.105 . S
O322 C316 1.268 . S
O323 Sc309 2.105 . S
O323 C317 1.268 . S
O324 Sc308 2.105 . S
O324 C316 1.268 . S
O325 Sc309 2.105 . S
O325 C315 1.268 . S
O326 Sc310 2.105 . S
O326 C317 1.268 . S
O327 Sc308 2.105 . S
O327 C313 1.268 . S
O328 Sc310 2.105 . S
O328 C312 1.268 . S
O329 Sc309 2.105 . S
O329 C314 1.268 . S
Sc330 O333 2.025 . S
Sc330 O340 2.105 . S
Sc330 O343 2.105 . S
Sc330 O346 2.105 . S
Sc330 O349 2.105 . S
Sc331 O333 2.025 . S
Sc331 O341 2.105 . S
Sc331 O345 2.105 . S
Sc331 O347 2.105 . S
Sc331 O351 2.105 . S
Sc332 O333 2.025 . S
Sc332 O342 2.105 . S
Sc332 O344 2.105 . S
Sc332 O348 2.105 . S
Sc332 O350 2.105 . S
O333 Sc330 2.025 . S
O333 Sc331 2.025 . S
O333 Sc332 2.025 . S
C334 O340 1.268 . S
C334 O350 1.268 . S
C335 O341 1.268 . S
C335 O349 1.268 . S
C336 O342 1.268 . S
C336 O351 1.268 . S
C337 O343 1.268 . S
C337 O347 1.268 . S
C338 O344 1.268 . S
C338 O346 1.268 . S
C339 O345 1.268 . S
C339 O348 1.268 . S
O340 Sc330 2.105 . S
O340 C334 1.268 . S
O341 Sc331 2.105 . S
O341 C335 1.268 . S
O342 Sc332 2.105 . S
O342 C336 1.268 . S
O343 Sc330 2.105 . S
O343 C337 1.268 . S
O344 Sc332 2.105 . S
O344 C338 1.268 . S
O345 Sc331 2.105 . S
O345 C339 1.268 . S
O346 Sc330 2.105 . S
O346 C338 1.268 . S
O347 Sc331 2.105 . S
O347 C337 1.268 . S
O348 Sc332 2.105 . S
O348 C339 1.268 . S
O349 Sc330 2.105 . S
O349 C335 1.268 . S
O350 Sc332 2.105 . S
O350 C334 1.268 . S
O351 Sc331 2.105 . S
O351 C336 1.268 . S
C352 C353 1.363 . S
C352 C358 1.379 . S
C352 N360 1.356 . S
C353 C352 1.363 . S
C353 C359 1.363 . S
C354 C355 1.363 1_545 S
C354 C359 1.379 . S
C354 N361 1.356 . S
C355 C354 1.363 1_565 S
C355 C358 1.363 1_565 S
N356 C358 1.356 1_565 S
N356 H368 0.984 . S
N356 H369 0.985 . S
N357 C359 1.356 . S
N357 H362 0.984 . S
N357 H363 0.985 . S
C358 C352 1.379 . S
C358 C355 1.363 1_545 S
C358 N356 1.356 1_545 S
C359 C353 1.363 . S
C359 C354 1.379 . S
C359 N357 1.356 . S
N360 C352 1.356 . S
N360 H366 0.984 . S
N360 H367 0.984 . S
N361 C354 1.356 . S
N361 H364 0.984 1_545 S
N361 H365 0.985 . S
H362 N357 0.984 . S
H363 N357 0.985 . S
H364 N361 0.984 1_565 S
H365 N361 0.985 . S
H366 N360 0.984 . S
H367 N360 0.984 . S
H368 N356 0.984 . S
H369 N356 0.985 . S
C370 C371 1.363 . S
C370 C376 1.379 . S
C370 N378 1.356 . S
C371 C370 1.363 . S
C371 C377 1.363 . S
C372 C373 1.363 1_565 S
C372 C377 1.379 . S
C372 N379 1.356 1_565 S
C373 C372 1.363 1_545 S
C373 C376 1.363 1_545 S
N374 C376 1.356 . S
N374 H386 0.984 . S
N374 H387 0.985 1_565 S
N375 C377 1.356 . S
N375 H380 0.984 . S
N375 H381 0.985 . S
C376 C370 1.379 . S
C376 C373 1.363 1_565 S
C376 N374 1.356 . S
C377 C371 1.363 . S
C377 C372 1.379 . S
C377 N375 1.356 . S
N378 C370 1.356 . S
N378 H384 0.984 . S
N378 H385 0.984 . S
N379 C372 1.356 1_545 S
N379 H382 0.984 . S
N379 H383 0.985 . S
H380 N375 0.984 . S
H381 N375 0.985 . S
H382 N379 0.984 . S
H383 N379 0.985 . S
H384 N378 0.984 . S
H385 N378 0.984 . S
H386 N374 0.984 . S
H387 N374 0.985 1_545 S
C388 C389 1.363 . S
C388 C394 1.379 . S
C388 N396 1.356 . S
C389 C388 1.363 . S
C389 C395 1.363 . S
C390 C391 1.363 1_565 S
C390 C395 1.379 . S
C390 N397 1.356 . S
C391 C390 1.363 1_545 S
C391 C394 1.363 1_545 S
N392 C394 1.356 1_545 S
N392 H404 0.984 . S
N392 H405 0.985 . S
N393 C395 1.356 . S
N393 H398 0.984 . S
N393 H399 0.985 . S
C394 C388 1.379 . S
C394 C391 1.363 1_565 S
C394 N392 1.356 1_565 S
C395 C389 1.363 . S
C395 C390 1.379 . S
C395 N393 1.356 . S
N396 C388 1.356 . S
N396 H402 0.984 . S
N396 H403 0.984 . S
N397 C390 1.356 . S
N397 H400 0.984 1_565 S
N397 H401 0.985 . S
H398 N393 0.984 . S
H399 N393 0.985 . S
H400 N397 0.984 1_545 S
H401 N397 0.985 . S
H402 N396 0.984 . S
H403 N396 0.984 . S
H404 N392 0.984 . S
H405 N392 0.985 . S
C406 C407 1.363 1_545 S
C406 C412 1.379 . S
C406 N414 1.356 . S
C407 C406 1.363 1_565 S
C407 C413 1.363 1_565 S
C408 C409 1.363 . S
C408 C413 1.379 . S
C408 N415 1.356 . S
C409 C408 1.363 . S
C409 C412 1.363 . S
N410 C412 1.356 . S
N410 H422 0.984 . S
N410 H423 0.985 . S
N411 C413 1.356 1_565 S
N411 H416 0.984 . S
N411 H417 0.985 . S
C412 C406 1.379 . S
C412 C409 1.363 . S
C412 N410 1.356 . S
C413 C407 1.363 1_545 S
C413 C408 1.379 . S
C413 N411 1.356 1_545 S
N414 C406 1.356 . S
N414 H420 0.984 . S
N414 H421 0.984 1_545 S
N415 C408 1.356 . S
N415 H418 0.984 . S
N415 H419 0.985 . S
H416 N411 0.984 . S
H417 N411 0.985 . S
H418 N415 0.984 . S
H419 N415 0.985 . S
H420 N414 0.984 . S
H421 N414 0.984 1_565 S
H422 N410 0.984 . S
H423 N410 0.985 . S
C424 C425 1.363 1_565 S
C424 C430 1.379 . S
C424 N432 1.356 1_565 S
C425 C424 1.363 1_545 S
C425 C431 1.363 1_545 S
C426 C427 1.363 . S
C426 C431 1.379 . S
C426 N433 1.356 . S
C427 C426 1.363 . S
C427 C430 1.363 . S
N428 C430 1.356 . S
N428 H440 0.984 . S
N428 H441 0.985 . S
N429 C431 1.356 . S
N429 H434 0.984 1_565 S
N429 H435 0.985 . S
C430 C424 1.379 . S
C430 C427 1.363 . S
C430 N428 1.356 . S
C431 C425 1.363 1_565 S
C431 C426 1.379 . S
C431 N429 1.356 . S
N432 C424 1.356 1_545 S
N432 H438 0.984 . S
N432 H439 0.984 . S
N433 C426 1.356 . S
N433 H436 0.984 . S
N433 H437 0.985 . S
H434 N429 0.984 1_545 S
H435 N429 0.985 . S
H436 N433 0.984 . S
H437 N433 0.985 . S
H438 N432 0.984 . S
H439 N432 0.984 . S
H440 N428 0.984 . S
H441 N428 0.985 . S
C442 C443 1.363 1_545 S
C442 C448 1.379 . S
C442 N450 1.356 1_545 S
C443 C442 1.363 1_565 S
C443 C449 1.363 1_565 S
C444 C445 1.363 . S
C444 C449 1.379 . S
C444 N451 1.356 . S
C445 C444 1.363 . S
C445 C448 1.363 . S
N446 C448 1.356 . S
N446 H458 0.984 . S
N446 H459 0.985 . S
N447 C449 1.356 . S
N447 H452 0.984 1_545 S
N447 H453 0.985 . S
C448 C442 1.379 . S
C448 C445 1.363 . S
C448 N446 1.356 . S
C449 C443 1.363 1_545 S
C449 C444 1.379 . S
C449 N447 1.356 . S
N450 C442 1.356 1_565 S
N450 H456 0.984 . S
N450 H457 0.984 . S
N451 C444 1.356 . S
N451 H454 0.984 . S
N451 H455 0.985 . S
H452 N447 0.984 1_565 S
H453 N447 0.985 . S
H454 N451 0.984 . S
H455 N451 0.985 . S
H456 N450 0.984 . S
H457 N450 0.984 . S
H458 N446 0.984 . S
H459 N446 0.985 . S
C460 C461 1.363 1_545 S
C460 C466 1.379 . S
C460 N468 1.356 . S
C461 C460 1.363 1_565 S
C461 C467 1.363 . S
C462 C463 1.363 . S
C462 C467 1.380 1_545 S
C462 N469 1.356 . S
C463 C462 1.363 . S
C463 C466 1.363 . S
N464 C466 1.356 . S
N464 H476 0.984 . S
N464 H477 0.985 . S
N465 C467 1.355 . S
N465 H470 0.984 . S
N465 H471 0.985 . S
C466 C460 1.379 . S
C466 C463 1.363 . S
C466 N464 1.356 . S
C467 C461 1.363 . S
C467 C462 1.380 1_565 S
C467 N465 1.355 . S
N468 C460 1.356 . S
N468 H474 0.984 . S
N468 H475 0.984 1_545 S
N469 C462 1.356 . S
N469 H472 0.984 . S
N469 H473 0.985 . S
H470 N465 0.984 . S
H471 N465 0.985 . S
H472 N469 0.984 . S
H473 N469 0.985 . S
H474 N468 0.984 . S
H475 N468 0.984 1_565 S
H476 N464 0.984 . S
H477 N464 0.985 . S
C478 C479 1.363 1_565 S
C478 C484 1.379 . S
C478 N486 1.356 1_565 S
C479 C478 1.363 1_545 S
C479 C485 1.363 1_545 S
C480 C481 1.363 . S
C480 C485 1.379 . S
C480 N487 1.356 . S
C481 C480 1.363 . S
C481 C484 1.363 . S
N482 C484 1.356 . S
N482 H494 0.984 . S
N482 H495 0.985 . S
N483 C485 1.356 . S
N483 H488 0.984 1_565 S
N483 H489 0.985 . S
C484 C478 1.379 . S
C484 C481 1.363 . S
C484 N482 1.356 . S
C485 C479 1.363 1_565 S
C485 C480 1.379 . S
C485 N483 1.356 . S
N486 C478 1.356 1_545 S
N486 H492 0.984 . S
N486 H493 0.984 . S
N487 C480 1.356 . S
N487 H490 0.984 . S
N487 H491 0.985 . S
H488 N483 0.984 1_545 S
H489 N483 0.985 . S
H490 N487 0.984 . S
H491 N487 0.985 . S
H492 N486 0.984 . S
H493 N486 0.984 . S
H494 N482 0.984 . S
H495 N482 0.985 . S
C496 C497 1.363 . S
C496 C502 1.379 . S
C496 N504 1.356 . S
C497 C496 1.363 . S
C497 C503 1.363 . S
C498 C499 1.363 . S
C498 C503 1.379 . S
C498 N505 1.356 . S
C499 C498 1.363 . S
C499 C502 1.363 . S
N500 C502 1.356 . S
N500 H512 0.984 . S
N500 H513 0.985 . S
N501 C503 1.356 . S
N501 H506 0.984 . S
N501 H507 0.985 . S
C502 C496 1.379 . S
C502 C499 1.363 . S
C502 N500 1.356 . S
C503 C497 1.363 . S
C503 C498 1.379 . S
C503 N501 1.356 . S
N504 C496 1.356 . S
N504 H510 0.984 . S
N504 H511 0.984 . S
N505 C498 1.356 . S
N505 H508 0.984 . S
N505 H509 0.985 . S
H506 N501 0.984 . S
H507 N501 0.985 . S
H508 N505 0.984 . S
H509 N505 0.985 . S
H510 N504 0.984 . S
H511 N504 0.984 . S
H512 N500 0.984 . S
H513 N500 0.985 . S
C514 C515 1.363 . S
C514 C520 1.379 . S
C514 N522 1.356 . S
C515 C514 1.363 . S
C515 C521 1.363 . S
C516 C517 1.363 . S
C516 C521 1.379 . S
C516 N523 1.356 . S
C517 C516 1.363 . S
C517 C520 1.363 . S
N518 C520 1.356 . S
N518 H530 0.984 . S
N518 H531 0.985 . S
N519 C521 1.356 . S
N519 H524 0.984 . S
N519 H525 0.985 . S
C520 C514 1.379 . S
C520 C517 1.363 . S
C520 N518 1.356 . S
C521 C515 1.363 . S
C521 C516 1.379 . S
C521 N519 1.356 . S
N522 C514 1.356 . S
N522 H528 0.984 . S
N522 H529 0.984 . S
N523 C516 1.356 . S
N523 H526 0.984 . S
N523 H527 0.985 . S
H524 N519 0.984 . S
H525 N519 0.985 . S
H526 N523 0.984 . S
H527 N523 0.985 . S
H528 N522 0.984 . S
H529 N522 0.984 . S
H530 N518 0.984 . S
H531 N518 0.985 . S
C532 C533 1.363 . S
C532 C538 1.379 . S
C532 N540 1.356 . S
C533 C532 1.363 . S
C533 C539 1.363 . S
C534 C535 1.363 . S
C534 C539 1.379 . S
C534 N541 1.356 . S
C535 C534 1.363 . S
C535 C538 1.363 . S
N536 C538 1.356 . S
N536 H548 0.984 . S
N536 H549 0.985 . S
N537 C539 1.356 . S
N537 H542 0.984 . S
N537 H543 0.985 . S
C538 C532 1.379 . S
C538 C535 1.363 . S
C538 N536 1.356 . S
C539 C533 1.363 . S
C539 C534 1.379 . S
C539 N537 1.356 . S
N540 C532 1.356 . S
N540 H546 0.984 . S
N540 H547 0.984 . S
N541 C534 1.356 . S
N541 H544 0.984 . S
N541 H545 0.985 . S
H542 N537 0.984 . S
H543 N537 0.985 . S
H544 N541 0.984 . S
H545 N541 0.985 . S
H546 N540 0.984 . S
H547 N540 0.984 . S
H548 N536 0.984 . S
H549 N536 0.985 . S
C550 C551 1.363 . S
C550 C556 1.379 . S
C550 N558 1.356 . S
C551 C550 1.363 . S
C551 C557 1.363 . S
C552 C553 1.363 . S
C552 C557 1.379 . S
C552 N559 1.356 . S
C553 C552 1.363 . S
C553 C556 1.363 . S
N554 C556 1.356 . S
N554 H566 0.984 . S
N554 H567 0.985 . S
N555 C557 1.356 . S
N555 H560 0.984 . S
N555 H561 0.985 . S
C556 C550 1.379 . S
C556 C553 1.363 . S
C556 N554 1.356 . S
C557 C551 1.363 . S
C557 C552 1.379 . S
C557 N555 1.356 . S
N558 C550 1.356 . S
N558 H564 0.984 . S
N558 H565 0.984 . S
N559 C552 1.356 . S
N559 H562 0.984 . S
N559 H563 0.985 . S
H560 N555 0.984 . S
H561 N555 0.985 . S
H562 N559 0.984 . S
H563 N559 0.985 . S
H564 N558 0.984 . S
H565 N558 0.984 . S
H566 N554 0.984 . S
H567 N554 0.985 . S
C568 C569 1.363 . S
C568 C574 1.379 . S
C568 N576 1.356 . S
C569 C568 1.363 . S
C569 C575 1.363 . S
C570 C571 1.363 . S
C570 C575 1.379 . S
C570 N577 1.356 . S
C571 C570 1.363 . S
C571 C574 1.363 . S
N572 C574 1.356 . S
N572 H584 0.984 . S
N572 H585 0.985 . S
N573 C575 1.356 . S
N573 H578 0.984 . S
N573 H579 0.985 . S
C574 C568 1.379 . S
C574 C571 1.363 . S
C574 N572 1.356 . S
C575 C569 1.363 . S
C575 C570 1.379 . S
C575 N573 1.356 . S
N576 C568 1.356 . S
N576 H582 0.984 . S
N576 H583 0.984 . S
N577 C570 1.356 . S
N577 H580 0.984 . S
N577 H581 0.985 . S
H578 N573 0.984 . S
H579 N573 0.985 . S
H580 N577 0.984 . S
H581 N577 0.985 . S
H582 N576 0.984 . S
H583 N576 0.984 . S
H584 N572 0.984 . S
H585 N572 0.985 . S
C586 C587 1.363 . S
C586 C592 1.379 . S
C586 N594 1.356 . S
C587 C586 1.363 . S
C587 C593 1.363 . S
C588 C589 1.363 . S
C588 C593 1.379 . S
C588 N595 1.356 . S
C589 C588 1.363 . S
C589 C592 1.363 . S
N590 C592 1.356 . S
N590 H602 0.984 . S
N590 H603 0.985 . S
N591 C593 1.356 . S
N591 H596 0.984 . S
N591 H597 0.985 . S
C592 C586 1.379 . S
C592 C589 1.363 . S
C592 N590 1.356 . S
C593 C587 1.363 . S
C593 C588 1.379 . S
C593 N591 1.356 . S
N594 C586 1.356 . S
N594 H600 0.984 . S
N594 H601 0.984 . S
N595 C588 1.356 . S
N595 H598 0.984 . S
N595 H599 0.985 . S
H596 N591 0.984 . S
H597 N591 0.985 . S
H598 N595 0.984 . S
H599 N595 0.985 . S
H600 N594 0.984 . S
H601 N594 0.984 . S
H602 N590 0.984 . S
H603 N590 0.985 . S
C604 C605 1.363 . S
C604 C610 1.379 . S
C604 N612 1.356 . S
C605 C604 1.363 . S
C605 C611 1.363 . S
C606 C607 1.363 . S
C606 C611 1.379 . S
C606 N613 1.356 . S
C607 C606 1.363 . S
C607 C610 1.363 . S
N608 C610 1.356 . S
N608 H620 0.984 . S
N608 H621 0.985 . S
N609 C611 1.356 . S
N609 H614 0.984 . S
N609 H615 0.985 . S
C610 C604 1.379 . S
C610 C607 1.363 . S
C610 N608 1.356 . S
C611 C605 1.363 . S
C611 C606 1.379 . S
C611 N609 1.356 . S
N612 C604 1.356 . S
N612 H618 0.984 . S
N612 H619 0.984 . S
N613 C606 1.356 . S
N613 H616 0.984 . S
N613 H617 0.985 . S
H614 N609 0.984 . S
H615 N609 0.985 . S
H616 N613 0.984 . S
H617 N613 0.985 . S
H618 N612 0.984 . S
H619 N612 0.984 . S
H620 N608 0.984 . S
H621 N608 0.985 . S
C622 C623 1.363 . S
C622 C628 1.379 . S
C622 N630 1.356 . S
C623 C622 1.363 . S
C623 C629 1.363 . S
C624 C625 1.363 . S
C624 C629 1.379 . S
C624 N631 1.356 . S
C625 C624 1.363 . S
C625 C628 1.363 . S
N626 C628 1.356 . S
N626 H638 0.984 . S
N626 H639 0.985 . S
N627 C629 1.356 . S
N627 H632 0.984 . S
N627 H633 0.985 . S
C628 C622 1.379 . S
C628 C625 1.363 . S
C628 N626 1.356 . S
C629 C623 1.363 . S
C629 C624 1.379 . S
C629 N627 1.356 . S
N630 C622 1.356 . S
N630 H636 0.984 . S
N630 H637 0.984 . S
N631 C624 1.356 . S
N631 H634 0.984 . S
N631 H635 0.985 . S
H632 N627 0.984 . S
H633 N627 0.985 . S
H634 N631 0.984 . S
H635 N631 0.985 . S
H636 N630 0.984 . S
H637 N630 0.984 . S
H638 N626 0.984 . S
H639 N626 0.985 . S
C640 C641 1.363 1_556 S
C640 C646 1.379 . S
C640 N648 1.356 1_556 S
C641 C640 1.363 1_554 S
C641 C647 1.363 . S
C642 C643 1.363 1_554 S
C642 C647 1.379 . S
C642 N649 1.356 1_554 S
C643 C642 1.363 1_556 S
C643 C646 1.363 . S
N644 C646 1.356 . S
N644 H656 0.984 . S
N644 H657 0.985 . S
N645 C647 1.356 . S
N645 H650 0.984 . S
N645 H651 0.985 . S
C646 C640 1.379 . S
C646 C643 1.363 . S
C646 N644 1.356 . S
C647 C641 1.363 . S
C647 C642 1.379 . S
C647 N645 1.356 . S
N648 C640 1.356 1_554 S
N648 H654 0.984 1_554 S
N648 H655 0.984 . S
N649 C642 1.356 1_556 S
N649 H652 0.984 . S
N649 H653 0.985 1_556 S
H650 N645 0.984 . S
H651 N645 0.985 . S
H652 N649 0.984 . S
H653 N649 0.985 1_554 S
H654 N648 0.984 1_556 S
H655 N648 0.984 . S
H656 N644 0.984 . S
H657 N644 0.985 . S
C658 C659 1.363 . S
C658 C664 1.379 . S
C658 N666 1.356 . S
C659 C658 1.363 . S
C659 C665 1.363 . S
C660 C661 1.363 . S
C660 C665 1.379 . S
C660 N667 1.356 . S
C661 C660 1.363 . S
C661 C664 1.363 . S
N662 C664 1.356 . S
N662 H674 0.984 . S
N662 H675 0.985 . S
N663 C665 1.356 . S
N663 H668 0.984 . S
N663 H669 0.985 . S
C664 C658 1.379 . S
C664 C661 1.363 . S
C664 N662 1.356 . S
C665 C659 1.363 . S
C665 C660 1.379 . S
C665 N663 1.356 . S
N666 C658 1.356 . S
N666 H672 0.984 . S
N666 H673 0.984 . S
N667 C660 1.356 . S
N667 H670 0.984 . S
N667 H671 0.985 . S
H668 N663 0.984 . S
H669 N663 0.985 . S
H670 N667 0.984 . S
H671 N667 0.985 . S
H672 N666 0.984 . S
H673 N666 0.984 . S
H674 N662 0.984 . S
H675 N662 0.985 . S
C676 C677 1.363 . S
C676 C682 1.379 . S
C676 N684 1.356 . S
C677 C676 1.363 . S
C677 C683 1.363 1_554 S
C678 C679 1.363 . S
C678 C683 1.379 . S
C678 N685 1.356 . S
C679 C678 1.363 . S
C679 C682 1.363 1_556 S
N680 C682 1.356 . S
N680 H692 0.984 . S
N680 H693 0.985 1_554 S
N681 C683 1.356 . S
N681 H686 0.984 1_556 S
N681 H687 0.985 . S
C682 C676 1.379 . S
C682 C679 1.363 1_554 S
C682 N680 1.356 . S
C683 C677 1.363 1_556 S
C683 C678 1.379 . S
C683 N681 1.356 . S
N684 C676 1.356 . S
N684 H690 0.984 . S
N684 H691 0.984 . S
N685 C678 1.356 . S
N685 H688 0.984 . S
N685 H689 0.985 . S
H686 N681 0.984 1_554 S
H687 N681 0.985 . S
H688 N685 0.984 . S
H689 N685 0.985 . S
H690 N684 0.984 . S
H691 N684 0.984 . S
H692 N680 0.984 . S
H693 N680 0.985 1_556 S
C694 C695 1.363 . S
C694 C700 1.379 . S
C694 N702 1.356 . S
C695 C694 1.363 . S
C695 C701 1.363 . S
C696 C697 1.363 . S
C696 C701 1.379 . S
C696 N703 1.356 . S
C697 C696 1.363 . S
C697 C700 1.363 . S
N698 C700 1.356 . S
N698 H710 0.984 . S
N698 H711 0.985 . S
N699 C701 1.356 . S
N699 H704 0.984 . S
N699 H705 0.985 . S
C700 C694 1.379 . S
C700 C697 1.363 . S
C700 N698 1.356 . S
C701 C695 1.363 . S
C701 C696 1.379 . S
C701 N699 1.356 . S
N702 C694 1.356 . S
N702 H708 0.984 . S
N702 H709 0.984 . S
N703 C696 1.356 . S
N703 H706 0.984 . S
N703 H707 0.985 . S
H704 N699 0.984 . S
H705 N699 0.985 . S
H706 N703 0.984 . S
H707 N703 0.985 . S
H708 N702 0.984 . S
H709 N702 0.984 . S
H710 N698 0.984 . S
H711 N698 0.985 . S
C712 C713 1.363 1_565 S
C712 C718 1.379 . S
C712 N720 1.356 1_565 S
C713 C712 1.363 1_545 S
C713 C719 1.363 1_556 S
C714 C715 1.363 1_545 S
C714 C719 1.379 . S
C714 N721 1.356 1_545 S
C715 C714 1.363 1_565 S
C715 C718 1.363 1_554 S
N716 C718 1.356 1_554 S
N716 H728 0.984 1_554 S
N716 H729 0.985 . S
N717 C719 1.356 1_556 S
N717 H722 0.984 . S
N717 H723 0.985 1_556 S
C718 C712 1.379 . S
C718 C715 1.363 1_556 S
C718 N716 1.356 1_556 S
C719 C713 1.363 1_554 S
C719 C714 1.379 . S
C719 N717 1.356 1_554 S
N720 C712 1.356 1_545 S
N720 H726 0.984 1_545 S
N720 H727 0.984 . S
N721 C714 1.356 1_565 S
N721 H724 0.984 . S
N721 H725 0.985 1_565 S
H722 N717 0.984 . S
H723 N717 0.985 1_554 S
H724 N721 0.984 . S
H725 N721 0.985 1_545 S
H726 N720 0.984 1_565 S
H727 N720 0.984 . S
H728 N716 0.984 1_556 S
H729 N716 0.985 . S
C730 C731 1.356 1_545 S
C730 C736 1.385 . S
C730 N738 1.354 1_545 S
C731 C730 1.356 1_565 S
C731 C737 1.363 . S
C732 C733 1.356 1_565 S
C732 C737 1.385 . S
C732 N739 1.354 1_565 S
C733 C732 1.356 1_545 S
C733 C736 1.363 . S
N734 C736 1.356 . S
N734 H746 0.984 . S
N734 H747 0.985 . S
N735 C737 1.356 . S
N735 H740 0.984 . S
N735 H741 0.985 . S
C736 C730 1.385 . S
C736 C733 1.363 . S
C736 N734 1.356 . S
C737 C731 1.363 . S
C737 C732 1.385 . S
C737 N735 1.356 . S
N738 C730 1.354 1_565 S
N738 H744 0.984 1_565 S
N738 H745 0.984 . S
N739 C732 1.354 1_545 S
N739 H742 0.984 . S
N739 H743 0.985 1_545 S
H740 N735 0.984 . S
H741 N735 0.985 . S
H742 N739 0.984 . S
H743 N739 0.985 1_565 S
H744 N738 0.984 1_545 S
H745 N738 0.984 . S
H746 N734 0.984 . S
H747 N734 0.985 . S
C748 C749 1.357 1_545 S
C748 C754 1.401 . S
C748 N756 1.355 1_545 S
C749 C748 1.357 1_565 S
C749 C755 1.345 1_554 S
C750 C751 1.357 1_565 S
C750 C755 1.401 . S
C750 N757 1.355 1_565 S
C751 C750 1.357 1_545 S
C751 C754 1.345 1_556 S
N752 C754 1.351 1_556 S
N752 H764 0.984 1_556 S
N752 H765 0.985 . S
N753 C755 1.351 1_554 S
N753 H758 0.984 . S
N753 H759 0.985 1_554 S
C754 C748 1.401 . S
C754 C751 1.345 1_554 S
C754 N752 1.351 1_554 S
C755 C749 1.345 1_556 S
C755 C750 1.401 . S
C755 N753 1.351 1_556 S
N756 C748 1.355 1_565 S
N756 H762 0.984 1_565 S
N756 H763 0.984 . S
N757 C750 1.355 1_545 S
N757 H760 0.984 . S
N757 H761 0.985 1_545 S
H758 N753 0.984 . S
H759 N753 0.985 1_556 S
H760 N757 0.984 . S
H761 N757 0.985 1_565 S
H762 N756 0.984 1_545 S
H763 N756 0.984 . S
H764 N752 0.984 1_554 S
H765 N752 0.985 . S
C766 C767 1.363 . S
C766 C772 1.379 . S
C766 N774 1.356 . S
C767 C766 1.363 . S
C767 C773 1.363 1_565 S
C768 C769 1.363 . S
C768 C773 1.379 . S
C768 N775 1.356 . S
C769 C768 1.363 . S
C769 C772 1.363 1_545 S
N770 C772 1.356 . S
N770 H782 0.984 . S
N770 H783 0.985 1_565 S
N771 C773 1.356 . S
N771 H776 0.984 1_545 S
N771 H777 0.985 . S
C772 C766 1.379 . S
C772 C769 1.363 1_565 S
C772 N770 1.356 . S
C773 C767 1.363 1_545 S
C773 C768 1.379 . S
C773 N771 1.356 . S
N774 C766 1.356 . S
N774 H780 0.984 . S
N774 H781 0.984 . S
N775 C768 1.356 . S
N775 H778 0.984 . S
N775 H779 0.985 . S
H776 N771 0.984 1_565 S
H777 N771 0.985 . S
H778 N775 0.984 . S
H779 N775 0.985 . S
H780 N774 0.984 . S
H781 N774 0.984 . S
H782 N770 0.984 . S
H783 N770 0.985 1_545 S
C784 C785 1.363 . S
C784 C790 1.379 . S
C784 N792 1.356 . S
C785 C784 1.363 . S
C785 C791 1.363 . S
C786 C787 1.363 . S
C786 C791 1.379 . S
C786 N793 1.356 . S
C787 C786 1.363 . S
C787 C790 1.363 . S
N788 C790 1.356 . S
N788 H800 0.984 . S
N788 H801 0.985 . S
N789 C791 1.356 . S
N789 H794 0.984 . S
N789 H795 0.985 . S
C790 C784 1.379 . S
C790 C787 1.363 . S
C790 N788 1.356 . S
C791 C785 1.363 . S
C791 C786 1.379 . S
C791 N789 1.356 . S
N792 C784 1.356 . S
N792 H798 0.984 . S
N792 H799 0.984 . S
N793 C786 1.356 . S
N793 H796 0.984 . S
N793 H797 0.985 . S
H794 N789 0.984 . S
H795 N789 0.985 . S
H796 N793 0.984 . S
H797 N793 0.985 . S
H798 N792 0.984 . S
H799 N792 0.984 . S
H800 N788 0.984 . S
H801 N788 0.985 . S
C802 C803 1.363 . S
C802 C808 1.379 . S
C802 N810 1.356 . S
C803 C802 1.363 . S
C803 C809 1.363 . S
C804 C805 1.363 . S
C804 C809 1.379 . S
C804 N811 1.356 . S
C805 C804 1.363 . S
C805 C808 1.363 . S
N806 C808 1.356 . S
N806 H818 0.984 . S
N806 H819 0.985 . S
N807 C809 1.356 . S
N807 H812 0.984 . S
N807 H813 0.985 . S
C808 C802 1.379 . S
C808 C805 1.363 . S
C808 N806 1.356 . S
C809 C803 1.363 . S
C809 C804 1.379 . S
C809 N807 1.356 . S
N810 C802 1.356 . S
N810 H816 0.984 . S
N810 H817 0.984 . S
N811 C804 1.356 . S
N811 H814 0.984 . S
N811 H815 0.985 . S
H812 N807 0.984 . S
H813 N807 0.985 . S
H814 N811 0.984 . S
H815 N811 0.985 . S
H816 N810 0.984 . S
H817 N810 0.984 . S
H818 N806 0.984 . S
H819 N806 0.985 . S
C820 C821 1.363 . S
C820 C826 1.379 . S
C820 N828 1.356 . S
C821 C820 1.363 . S
C821 C827 1.363 . S
C822 C823 1.363 . S
C822 C827 1.379 . S
C822 N829 1.356 . S
C823 C822 1.363 . S
C823 C826 1.363 . S
N824 C826 1.356 . S
N824 H836 0.984 . S
N824 H837 0.985 . S
N825 C827 1.356 . S
N825 H830 0.984 . S
N825 H831 0.985 . S
C826 C820 1.379 . S
C826 C823 1.363 . S
C826 N824 1.356 . S
C827 C821 1.363 . S
C827 C822 1.379 . S
C827 N825 1.356 . S
N828 C820 1.356 . S
N828 H834 0.984 . S
N828 H835 0.984 . S
N829 C822 1.356 . S
N829 H832 0.984 . S
N829 H833 0.985 . S
H830 N825 0.984 . S
H831 N825 0.985 . S
H832 N829 0.984 . S
H833 N829 0.985 . S
H834 N828 0.984 . S
H835 N828 0.984 . S
H836 N824 0.984 . S
H837 N824 0.985 . S
C838 C839 1.363 . S
C838 C844 1.379 . S
C838 N846 1.356 . S
C839 C838 1.363 . S
C839 C845 1.363 . S
C840 C841 1.363 . S
C840 C845 1.379 . S
C840 N847 1.356 . S
C841 C840 1.363 . S
C841 C844 1.363 . S
N842 C844 1.356 . S
N842 H854 0.984 . S
N842 H855 0.985 . S
N843 C845 1.356 . S
N843 H848 0.984 . S
N843 H849 0.985 . S
C844 C838 1.379 . S
C844 C841 1.363 . S
C844 N842 1.356 . S
C845 C839 1.363 . S
C845 C840 1.379 . S
C845 N843 1.356 . S
N846 C838 1.356 . S
N846 H852 0.984 . S
N846 H853 0.984 . S
N847 C840 1.356 . S
N847 H850 0.984 . S
N847 H851 0.985 . S
H848 N843 0.984 . S
H849 N843 0.985 . S
H850 N847 0.984 . S
H851 N847 0.985 . S
H852 N846 0.984 . S
H853 N846 0.984 . S
H854 N842 0.984 . S
H855 N842 0.985 . S
C856 C857 1.363 . S
C856 C862 1.379 1_655 S
C856 N864 1.356 . S
C857 C856 1.363 . S
C857 C863 1.363 . S
C858 C859 1.363 . S
C858 C863 1.379 1_455 S
C858 N865 1.356 . S
C859 C858 1.363 . S
C859 C862 1.363 . S
N860 C862 1.356 . S
N860 H872 0.984 . S
N860 H873 0.985 . S
N861 C863 1.356 . S
N861 H866 0.984 . S
N861 H867 0.985 . S
C862 C856 1.379 1_455 S
C862 C859 1.363 . S
C862 N860 1.356 . S
C863 C857 1.363 . S
C863 C858 1.379 1_655 S
C863 N861 1.356 . S
N864 C856 1.356 . S
N864 H870 0.984 . S
N864 H871 0.984 . S
N865 C858 1.356 . S
N865 H868 0.984 . S
N865 H869 0.985 . S
H866 N861 0.984 . S
H867 N861 0.985 . S
H868 N865 0.984 . S
H869 N865 0.985 . S
H870 N864 0.984 . S
H871 N864 0.984 . S
H872 N860 0.984 . S
H873 N860 0.985 . S
C874 C875 1.363 . S
C874 C880 1.379 1_655 S
C874 N882 1.356 . S
C875 C874 1.363 . S
C875 C881 1.363 . S
C876 C877 1.363 . S
C876 C881 1.379 1_455 S
C876 N883 1.356 . S
C877 C876 1.363 . S
C877 C880 1.363 . S
N878 C880 1.356 . S
N878 H890 0.984 . S
N878 H891 0.985 . S
N879 C881 1.356 . S
N879 H884 0.984 . S
N879 H885 0.985 . S
C880 C874 1.379 1_455 S
C880 C877 1.363 . S
C880 N878 1.356 . S
C881 C875 1.363 . S
C881 C876 1.379 1_655 S
C881 N879 1.356 . S
N882 C874 1.356 . S
N882 H888 0.984 . S
N882 H889 0.984 . S
N883 C876 1.356 . S
N883 H886 0.984 . S
N883 H887 0.985 . S
H884 N879 0.984 . S
H885 N879 0.985 . S
H886 N883 0.984 . S
H887 N883 0.985 . S
H888 N882 0.984 . S
H889 N882 0.984 . S
H890 N878 0.984 . S
H891 N878 0.985 . S
C892 C893 1.363 . S
C892 C898 1.379 1_455 S
C892 N900 1.356 . S
C893 C892 1.363 . S
C893 C899 1.363 . S
C894 C895 1.363 . S
C894 C899 1.379 1_655 S
C894 N901 1.356 . S
C895 C894 1.363 . S
C895 C898 1.363 . S
N896 C898 1.356 . S
N896 H908 0.984 . S
N896 H909 0.985 . S
N897 C899 1.356 . S
N897 H902 0.984 . S
N897 H903 0.985 . S
C898 C892 1.379 1_655 S
C898 C895 1.363 . S
C898 N896 1.356 . S
C899 C893 1.363 . S
C899 C894 1.379 1_455 S
C899 N897 1.356 . S
N900 C892 1.356 . S
N900 H906 0.984 . S
N900 H907 0.984 . S
N901 C894 1.356 . S
N901 H904 0.984 . S
N901 H905 0.985 . S
H902 N897 0.984 . S
H903 N897 0.985 . S
H904 N901 0.984 . S
H905 N901 0.985 . S
H906 N900 0.984 . S
H907 N900 0.984 . S
H908 N896 0.984 . S
H909 N896 0.985 . S
C910 C911 1.363 . S
C910 C916 1.379 1_455 S
C910 N918 1.356 . S
C911 C910 1.363 . S
C911 C917 1.363 . S
C912 C913 1.363 . S
C912 C917 1.379 1_655 S
C912 N919 1.356 . S
C913 C912 1.363 . S
C913 C916 1.363 . S
N914 C916 1.356 . S
N914 H926 0.984 . S
N914 H927 0.985 . S
N915 C917 1.356 . S
N915 H920 0.984 . S
N915 H921 0.985 . S
C916 C910 1.379 1_655 S
C916 C913 1.363 . S
C916 N914 1.356 . S
C917 C911 1.363 . S
C917 C912 1.379 1_455 S
C917 N915 1.356 . S
N918 C910 1.356 . S
N918 H924 0.984 . S
N918 H925 0.984 . S
N919 C912 1.356 . S
N919 H922 0.984 . S
N919 H923 0.985 . S
H920 N915 0.984 . S
H921 N915 0.985 . S
H922 N919 0.984 . S
H923 N919 0.985 . S
H924 N918 0.984 . S
H925 N918 0.984 . S
H926 N914 0.984 . S
H927 N914 0.985 . S
C928 C929 1.363 . S
C928 C934 1.379 1_554 S
C928 N936 1.356 . S
C929 C928 1.363 . S
C929 C935 1.363 . S
C930 C931 1.363 . S
C930 C935 1.379 1_556 S
C930 N937 1.356 . S
C931 C930 1.363 . S
C931 C934 1.363 . S
N932 C934 1.356 . S
N932 H944 0.984 . S
N932 H945 0.985 . S
N933 C935 1.356 . S
N933 H938 0.984 . S
N933 H939 0.985 . S
C934 C928 1.379 1_556 S
C934 C931 1.363 . S
C934 N932 1.356 . S
C935 C929 1.363 . S
C935 C930 1.379 1_554 S
C935 N933 1.356 . S
N936 C928 1.356 . S
N936 H942 0.984 . S
N936 H943 0.984 . S
N937 C930 1.356 . S
N937 H940 0.984 . S
N937 H941 0.985 . S
H938 N933 0.984 . S
H939 N933 0.985 . S
H940 N937 0.984 . S
H941 N937 0.985 . S
H942 N936 0.984 . S
H943 N936 0.984 . S
H944 N932 0.984 . S
H945 N932 0.985 . S
C946 C947 1.363 . S
C946 C952 1.379 . S
C946 N954 1.356 . S
C947 C946 1.363 . S
C947 C953 1.363 . S
C948 C949 1.363 . S
C948 C953 1.379 . S
C948 N955 1.356 . S
C949 C948 1.363 . S
C949 C952 1.363 . S
N950 C952 1.356 . S
N950 H962 0.984 . S
N950 H963 0.985 . S
N951 C953 1.356 . S
N951 H956 0.984 . S
N951 H957 0.985 . S
C952 C946 1.379 . S
C952 C949 1.363 . S
C952 N950 1.356 . S
C953 C947 1.363 . S
C953 C948 1.379 . S
C953 N951 1.356 . S
N954 C946 1.356 . S
N954 H960 0.984 . S
N954 H961 0.984 . S
N955 C948 1.356 . S
N955 H958 0.984 . S
N955 H959 0.985 . S
H956 N951 0.984 . S
H957 N951 0.985 . S
H958 N955 0.984 . S
H959 N955 0.985 . S
H960 N954 0.984 . S
H961 N954 0.984 . S
H962 N950 0.984 . S
H963 N950 0.985 . S
C964 C965 1.363 . S
C964 C970 1.379 1_554 S
C964 N972 1.356 . S
C965 C964 1.363 . S
C965 C971 1.363 . S
C966 C967 1.363 . S
C966 C971 1.379 1_556 S
C966 N973 1.356 . S
C967 C966 1.363 . S
C967 C970 1.363 . S
N968 C970 1.356 . S
N968 H980 0.984 . S
N968 H981 0.985 . S
N969 C971 1.356 . S
N969 H974 0.984 . S
N969 H975 0.985 . S
C970 C964 1.379 1_556 S
C970 C967 1.363 . S
C970 N968 1.356 . S
C971 C965 1.363 . S
C971 C966 1.379 1_554 S
C971 N969 1.356 . S
N972 C964 1.356 . S
N972 H978 0.984 . S
N972 H979 0.984 . S
N973 C966 1.356 . S
N973 H976 0.984 . S
N973 H977 0.985 . S
H974 N969 0.984 . S
H975 N969 0.985 . S
H976 N973 0.984 . S
H977 N973 0.985 . S
H978 N972 0.984 . S
H979 N972 0.984 . S
H980 N968 0.984 . S
H981 N968 0.985 . S
C982 C983 1.363 . S
C982 C988 1.379 . S
C982 N990 1.356 . S
C983 C982 1.363 . S
C983 C989 1.363 . S
C984 C985 1.363 . S
C984 C989 1.379 . S
C984 N991 1.356 . S
C985 C984 1.363 . S
C985 C988 1.363 . S
N986 C988 1.356 . S
N986 H998 0.984 . S
N986 H999 0.985 . S
N987 C989 1.356 . S
N987 H992 0.984 . S
N987 H993 0.985 . S
C988 C982 1.379 . S
C988 C985 1.363 . S
C988 N986 1.356 . S
C989 C983 1.363 . S
C989 C984 1.379 . S
C989 N987 1.356 . S
N990 C982 1.356 . S
N990 H996 0.984 . S
N990 H997 0.984 . S
N991 C984 1.356 . S
N991 H994 0.984 . S
N991 H995 0.985 . S
H992 N987 0.984 . S
H993 N987 0.985 . S
H994 N991 0.984 . S
H995 N991 0.985 . S
H996 N990 0.984 . S
H997 N990 0.984 . S
H998 N986 0.984 . S
H999 N986 0.985 . S
C1000 C1001 1.363 . S
C1000 C1006 1.379 1_554 S
C1000 N1008 1.356 . S
C1001 C1000 1.363 . S
C1001 C1007 1.363 . S
C1002 C1003 1.363 . S
C1002 C1007 1.379 1_556 S
C1002 N1009 1.356 . S
C1003 C1002 1.363 . S
C1003 C1006 1.363 . S
N1004 C1006 1.356 . S
N1004 H1016 0.984 . S
N1004 H1017 0.985 . S
N1005 C1007 1.356 . S
N1005 H1010 0.984 . S
N1005 H1011 0.985 . S
C1006 C1000 1.379 1_556 S
C1006 C1003 1.363 . S
C1006 N1004 1.356 . S
C1007 C1001 1.363 . S
C1007 C1002 1.379 1_554 S
C1007 N1005 1.356 . S
N1008 C1000 1.356 . S
N1008 H1014 0.984 . S
N1008 H1015 0.984 . S
N1009 C1002 1.356 . S
N1009 H1012 0.984 . S
N1009 H1013 0.985 . S
H1010 N1005 0.984 . S
H1011 N1005 0.985 . S
H1012 N1009 0.984 . S
H1013 N1009 0.985 . S
H1014 N1008 0.984 . S
H1015 N1008 0.984 . S
H1016 N1004 0.984 . S
H1017 N1004 0.985 . S
C1018 C1019 1.363 . S
C1018 C1024 1.379 . S
C1018 N1026 1.356 . S
C1019 C1018 1.363 . S
C1019 C1025 1.363 . S
C1020 C1021 1.363 . S
C1020 C1025 1.379 . S
C1020 N1027 1.356 . S
C1021 C1020 1.363 . S
C1021 C1024 1.363 . S
N1022 C1024 1.356 . S
N1022 H1034 0.984 . S
N1022 H1035 0.985 . S
N1023 C1025 1.356 . S
N1023 H1028 0.984 . S
N1023 H1029 0.985 . S
C1024 C1018 1.379 . S
C1024 C1021 1.363 . S
C1024 N1022 1.356 . S
C1025 C1019 1.363 . S
C1025 C1020 1.379 . S
C1025 N1023 1.356 . S
N1026 C1018 1.356 . S
N1026 H1032 0.984 . S
N1026 H1033 0.984 . S
N1027 C1020 1.356 . S
N1027 H1030 0.984 . S
N1027 H1031 0.985 . S
H1028 N1023 0.984 . S
H1029 N1023 0.985 . S
H1030 N1027 0.984 . S
H1031 N1027 0.985 . S
H1032 N1026 0.984 . S
H1033 N1026 0.984 . S
H1034 N1022 0.984 . S
H1035 N1022 0.985 . S
C1036 C1037 1.363 . S
C1036 C1042 1.379 1_554 S
C1036 N1044 1.356 . S
C1037 C1036 1.363 . S
C1037 C1043 1.363 . S
C1038 C1039 1.363 . S
C1038 C1043 1.379 1_556 S
C1038 N1045 1.356 . S
C1039 C1038 1.363 . S
C1039 C1042 1.363 . S
N1040 C1042 1.356 . S
N1040 H1052 0.984 . S
N1040 H1053 0.985 . S
N1041 C1043 1.356 . S
N1041 H1046 0.984 . S
N1041 H1047 0.985 . S
C1042 C1036 1.379 1_556 S
C1042 C1039 1.363 . S
C1042 N1040 1.356 . S
C1043 C1037 1.363 . S
C1043 C1038 1.379 1_554 S
C1043 N1041 1.356 . S
N1044 C1036 1.356 . S
N1044 H1050 0.984 . S
N1044 H1051 0.984 . S
N1045 C1038 1.356 . S
N1045 H1048 0.984 . S
N1045 H1049 0.985 . S
H1046 N1041 0.984 . S
H1047 N1041 0.985 . S
H1048 N1045 0.984 . S
H1049 N1045 0.985 . S
H1050 N1044 0.984 . S
H1051 N1044 0.984 . S
H1052 N1040 0.984 . S
H1053 N1040 0.985 . S
C1054 C1055 1.363 . S
C1054 C1060 1.379 . S
C1054 N1062 1.356 . S
C1055 C1054 1.363 . S
C1055 C1061 1.363 . S
C1056 C1057 1.363 . S
C1056 C1061 1.379 . S
C1056 N1063 1.356 . S
C1057 C1056 1.363 . S
C1057 C1060 1.363 . S
N1058 C1060 1.356 . S
N1058 H1070 0.984 . S
N1058 H1071 0.985 . S
N1059 C1061 1.356 . S
N1059 H1064 0.984 . S
N1059 H1065 0.985 . S
C1060 C1054 1.379 . S
C1060 C1057 1.363 . S
C1060 N1058 1.356 . S
C1061 C1055 1.363 . S
C1061 C1056 1.379 . S
C1061 N1059 1.356 . S
N1062 C1054 1.356 . S
N1062 H1068 0.984 . S
N1062 H1069 0.984 . S
N1063 C1056 1.356 . S
N1063 H1066 0.984 . S
N1063 H1067 0.985 . S
H1064 N1059 0.984 . S
H1065 N1059 0.985 . S
H1066 N1063 0.984 . S
H1067 N1063 0.985 . S
H1068 N1062 0.984 . S
H1069 N1062 0.984 . S
H1070 N1058 0.984 . S
H1071 N1058 0.985 . S
C1072 C1073 1.363 . S
C1072 C1078 1.379 . S
C1072 N1080 1.356 . S
C1073 C1072 1.363 . S
C1073 C1079 1.363 . S
C1074 C1075 1.363 . S
C1074 C1079 1.379 . S
C1074 N1081 1.356 . S
C1075 C1074 1.363 . S
C1075 C1078 1.363 . S
N1076 C1078 1.356 . S
N1076 H1088 0.984 . S
N1076 H1089 0.985 . S
N1077 C1079 1.356 . S
N1077 H1082 0.984 . S
N1077 H1083 0.985 . S
C1078 C1072 1.379 . S
C1078 C1075 1.363 . S
C1078 N1076 1.356 . S
C1079 C1073 1.363 . S
C1079 C1074 1.379 . S
C1079 N1077 1.356 . S
N1080 C1072 1.356 . S
N1080 H1086 0.984 . S
N1080 H1087 0.984 . S
N1081 C1074 1.356 . S
N1081 H1084 0.984 . S
N1081 H1085 0.985 . S
H1082 N1077 0.984 . S
H1083 N1077 0.985 . S
H1084 N1081 0.984 . S
H1085 N1081 0.985 . S
H1086 N1080 0.984 . S
H1087 N1080 0.984 . S
H1088 N1076 0.984 . S
H1089 N1076 0.985 . S
C1090 C1091 1.363 . S
C1090 C1096 1.379 . S
C1090 N1098 1.356 . S
C1091 C1090 1.363 . S
C1091 C1097 1.363 . S
C1092 C1093 1.363 . S
C1092 C1097 1.379 . S
C1092 N1099 1.356 . S
C1093 C1092 1.363 . S
C1093 C1096 1.363 . S
N1094 C1096 1.356 . S
N1094 H1106 0.984 . S
N1094 H1107 0.985 . S
N1095 C1097 1.356 . S
N1095 H1100 0.984 . S
N1095 H1101 0.985 . S
C1096 C1090 1.379 . S
C1096 C1093 1.363 . S
C1096 N1094 1.356 . S
C1097 C1091 1.363 . S
C1097 C1092 1.379 . S
C1097 N1095 1.356 . S
N1098 C1090 1.356 . S
N1098 H1104 0.984 . S
N1098 H1105 0.984 . S
N1099 C1092 1.356 . S
N1099 H1102 0.984 . S
N1099 H1103 0.985 . S
H1100 N1095 0.984 . S
H1101 N1095 0.985 . S
H1102 N1099 0.984 . S
H1103 N1099 0.985 . S
H1104 N1098 0.984 . S
H1105 N1098 0.984 . S
H1106 N1094 0.984 . S
H1107 N1094 0.985 . S
C1108 C1109 1.363 . S
C1108 C1114 1.379 . S
C1108 N1116 1.356 . S
C1109 C1108 1.363 . S
C1109 C1115 1.363 . S
C1110 C1111 1.363 . S
C1110 C1115 1.379 . S
C1110 N1117 1.356 . S
C1111 C1110 1.363 . S
C1111 C1114 1.363 . S
N1112 C1114 1.356 . S
N1112 H1124 0.984 . S
N1112 H1125 0.985 . S
N1113 C1115 1.356 . S
N1113 H1118 0.984 . S
N1113 H1119 0.985 . S
C1114 C1108 1.379 . S
C1114 C1111 1.363 . S
C1114 N1112 1.356 . S
C1115 C1109 1.363 . S
C1115 C1110 1.379 . S
C1115 N1113 1.356 . S
N1116 C1108 1.356 . S
N1116 H1122 0.984 . S
N1116 H1123 0.984 . S
N1117 C1110 1.356 . S
N1117 H1120 0.984 . S
N1117 H1121 0.985 . S
H1118 N1113 0.984 . S
H1119 N1113 0.985 . S
H1120 N1117 0.984 . S
H1121 N1117 0.985 . S
H1122 N1116 0.984 . S
H1123 N1116 0.984 . S
H1124 N1112 0.984 . S
H1125 N1112 0.985 . S
C1126 C1127 1.363 . S
C1126 C1132 1.379 . S
C1126 N1134 1.356 . S
C1127 C1126 1.363 . S
C1127 C1133 1.363 . S
C1128 C1129 1.363 . S
C1128 C1133 1.379 . S
C1128 N1135 1.356 . S
C1129 C1128 1.363 . S
C1129 C1132 1.363 . S
N1130 C1132 1.356 . S
N1130 H1142 0.984 . S
N1130 H1143 0.985 . S
N1131 C1133 1.356 . S
N1131 H1136 0.984 . S
N1131 H1137 0.985 . S
C1132 C1126 1.379 . S
C1132 C1129 1.363 . S
C1132 N1130 1.356 . S
C1133 C1127 1.363 . S
C1133 C1128 1.379 . S
C1133 N1131 1.356 . S
N1134 C1126 1.356 . S
N1134 H1140 0.984 . S
N1134 H1141 0.984 . S
N1135 C1128 1.356 . S
N1135 H1138 0.984 . S
N1135 H1139 0.985 . S
H1136 N1131 0.984 . S
H1137 N1131 0.985 . S
H1138 N1135 0.984 . S
H1139 N1135 0.985 . S
H1140 N1134 0.984 . S
H1141 N1134 0.984 . S
H1142 N1130 0.984 . S
H1143 N1130 0.985 . S
C1144 C1145 1.363 . S
C1144 C1150 1.379 . S
C1144 N1152 1.356 . S
C1145 C1144 1.363 . S
C1145 C1151 1.363 . S
C1146 C1147 1.363 . S
C1146 C1151 1.379 . S
C1146 N1153 1.356 . S
C1147 C1146 1.363 . S
C1147 C1150 1.363 . S
N1148 C1150 1.356 . S
N1148 H1160 0.984 . S
N1148 H1161 0.985 . S
N1149 C1151 1.356 . S
N1149 H1154 0.984 . S
N1149 H1155 0.985 . S
C1150 C1144 1.379 . S
C1150 C1147 1.363 . S
C1150 N1148 1.356 . S
C1151 C1145 1.363 . S
C1151 C1146 1.379 . S
C1151 N1149 1.356 . S
N1152 C1144 1.356 . S
N1152 H1158 0.984 . S
N1152 H1159 0.984 . S
N1153 C1146 1.356 . S
N1153 H1156 0.984 . S
N1153 H1157 0.985 . S
H1154 N1149 0.984 . S
H1155 N1149 0.985 . S
H1156 N1153 0.984 . S
H1157 N1153 0.985 . S
H1158 N1152 0.984 . S
H1159 N1152 0.984 . S
H1160 N1148 0.984 . S
H1161 N1148 0.985 . S
C1162 C1163 1.363 . S
C1162 C1168 1.379 . S
C1162 N1170 1.356 . S
C1163 C1162 1.363 . S
C1163 C1169 1.363 . S
C1164 C1165 1.363 . S
C1164 C1169 1.379 . S
C1164 N1171 1.356 . S
C1165 C1164 1.363 . S
C1165 C1168 1.363 . S
N1166 C1168 1.356 . S
N1166 H1178 0.984 . S
N1166 H1179 0.985 . S
N1167 C1169 1.356 . S
N1167 H1172 0.984 . S
N1167 H1173 0.985 . S
C1168 C1162 1.379 . S
C1168 C1165 1.363 . S
C1168 N1166 1.356 . S
C1169 C1163 1.363 . S
C1169 C1164 1.379 . S
C1169 N1167 1.356 . S
N1170 C1162 1.356 . S
N1170 H1176 0.984 . S
N1170 H1177 0.984 . S
N1171 C1164 1.356 . S
N1171 H1174 0.984 . S
N1171 H1175 0.985 . S
H1172 N1167 0.984 . S
H1173 N1167 0.985 . S
H1174 N1171 0.984 . S
H1175 N1171 0.985 . S
H1176 N1170 0.984 . S
H1177 N1170 0.984 . S
H1178 N1166 0.984 . S
H1179 N1166 0.985 . S
C1180 C1181 1.363 . S
C1180 C1186 1.379 . S
C1180 N1188 1.356 . S
C1181 C1180 1.363 . S
C1181 C1187 1.363 . S
C1182 C1183 1.363 . S
C1182 C1187 1.379 . S
C1182 N1189 1.356 . S
C1183 C1182 1.363 . S
C1183 C1186 1.363 . S
N1184 C1186 1.356 . S
N1184 H1196 0.984 . S
N1184 H1197 0.985 . S
N1185 C1187 1.356 . S
N1185 H1190 0.984 . S
N1185 H1191 0.985 . S
C1186 C1180 1.379 . S
C1186 C1183 1.363 . S
C1186 N1184 1.356 . S
C1187 C1181 1.363 . S
C1187 C1182 1.379 . S
C1187 N1185 1.356 . S
N1188 C1180 1.356 . S
N1188 H1194 0.984 . S
N1188 H1195 0.984 . S
N1189 C1182 1.356 . S
N1189 H1192 0.984 . S
N1189 H1193 0.985 . S
H1190 N1185 0.984 . S
H1191 N1185 0.985 . S
H1192 N1189 0.984 . S
H1193 N1189 0.985 . S
H1194 N1188 0.984 . S
H1195 N1188 0.984 . S
H1196 N1184 0.984 . S
H1197 N1184 0.985 . S
C1198 C1199 1.363 . S
C1198 C1204 1.379 . S
C1198 N1206 1.356 . S
C1199 C1198 1.363 . S
C1199 C1205 1.363 . S
C1200 C1201 1.363 . S
C1200 C1205 1.379 . S
C1200 N1207 1.356 . S
C1201 C1200 1.363 . S
C1201 C1204 1.363 . S
N1202 C1204 1.356 . S
N1202 H1214 0.984 . S
N1202 H1215 0.985 . S
N1203 C1205 1.356 . S
N1203 H1208 0.984 . S
N1203 H1209 0.985 . S
C1204 C1198 1.379 . S
C1204 C1201 1.363 . S
C1204 N1202 1.356 . S
C1205 C1199 1.363 . S
C1205 C1200 1.379 . S
C1205 N1203 1.356 . S
N1206 C1198 1.356 . S
N1206 H1212 0.984 . S
N1206 H1213 0.984 . S
N1207 C1200 1.356 . S
N1207 H1210 0.984 . S
N1207 H1211 0.985 . S
H1208 N1203 0.984 . S
H1209 N1203 0.985 . S
H1210 N1207 0.984 . S
H1211 N1207 0.985 . S
H1212 N1206 0.984 . S
H1213 N1206 0.984 . S
H1214 N1202 0.984 . S
H1215 N1202 0.985 . S
C353 C9 1.486 . S
C355 C314 1.639 . S
C371 C31 1.486 . S
C373 C336 1.639 . S
C389 C49 1.486 . S
C391 C271 1.639 . S
C407 C292 1.639 . S
C409 C75 1.486 . S
C425 C229 1.639 . S
C427 C94 1.486 . S
C443 C247 1.639 . S
C445 C117 1.486 . S
C461 C181 1.639 . S
C463 C139 1.486 . S
C479 C203 1.639 . S
C481 C161 1.486 . S
C497 C185 1.486 . S
C499 C138 1.639 . S
C515 C160 1.639 . S
C517 C207 1.486 . S
C533 C95 1.639 . S
C535 C225 1.486 . S
C551 C116 1.639 . S
C553 C251 1.486 . S
C569 C53 1.639 . S
C571 C270 1.486 . S
C587 C293 1.486 . S
C589 C71 1.639 . S
C605 C5 1.639 . S
C607 C315 1.486 . S
C623 C337 1.486 . S
C625 C27 1.639 . S
C641 C4 1.643 . S
C643 C52 1.643 . S
C659 C70 1.643 . S
C661 C26 1.643 . S
C677 C136 1.643 . S
C679 C96 1.643 . S
C695 C158 1.643 . S
C697 C114 1.643 . S
C713 C228 1.643 . S
C715 C180 1.643 . S
C731 C246 1.643 . S
C733 C202 1.643 . S
C749 C312 1.643 . S
C751 C272 1.643 . S
C767 C290 1.643 . S
C769 C334 1.643 . S
C785 C8 1.534 . S
C787 C140 1.534 . S
C803 C30 1.534 . S
C805 C162 1.534 . S
C821 C92 1.534 . S
C823 C48 1.534 . S
C839 C74 1.534 . S
C841 C118 1.534 . S
C857 C184 1.534 . S
C859 C316 1.534 . S
C875 C338 1.534 . S
C877 C206 1.534 . S
C893 C268 1.534 . S
C895 C224 1.534 . S
C911 C250 1.534 . S
C913 C294 1.534 . S
C929 C6 1.082 . S
C931 C273 1.082 . S
C947 C291 1.082 . S
C949 C28 1.082 . S
C965 C313 1.082 . S
C967 C51 1.082 . S
C983 C335 1.082 . S
C985 C72 1.082 . S
C1001 C182 1.082 . S
C1003 C97 1.082 . S
C1019 C204 1.082 . S
C1021 C115 1.082 . S
C1037 C137 1.082 . S
C1039 C227 1.082 . S
C1055 C248 1.082 . S
C1057 C159 1.082 . S
C1073 C7 1.451 . S
C1075 C119 1.451 . S
C1091 C93 1.451 . S
C1093 C29 1.451 . S
C1109 C50 1.451 . S
C1111 C163 1.451 . S
C1127 C141 1.451 . S
C1129 C73 1.451 . S
C1145 C183 1.451 . S
C1147 C295 1.451 . S
C1163 C269 1.451 . S
C1165 C205 1.451 . S
C1181 C339 1.451 . S
C1183 C226 1.451 . S
C1199 C249 1.451 . S
C1201 C317 1.451 . S
