# Generated by pormake.
# Topology sva, (7)-cn, num edge types: 1
# Building blocks:
#     Node 0, Type 0, BuildingBlock: HICVOG_clean_sbu_0, # of connection points: 7
#     Node 1, Type 0, BuildingBlock: HICVOG_clean_sbu_0, # of connection points: 7
#     Node 2, Type 0, BuildingBlock: HICVOG_clean_sbu_0, # of connection points: 7
#     Node 3, Type 0, BuildingBlock: HICVOG_clean_sbu_0, # of connection points: 7
#     Node 4, Type 0, BuildingBlock: HICVOG_clean_sbu_0, # of connection points: 7
#     Node 5, Type 0, BuildingBlock: HICVOG_clean_sbu_0, # of connection points: 7
#     Node 6, Type 0, BuildingBlock: HICVOG_clean_sbu_0, # of connection points: 7
#     Node 7, Type 0, BuildingBlock: HICVOG_clean_sbu_0, # of connection points: 7
#     Edge 8, Type (0, 0), BuildingBlock: XIVTED_clean_linker_0, # of connection points: 2
#     Edge 9, Type (0, 0), BuildingBlock: XIVTED_clean_linker_0, # of connection points: 2
#     Edge 10, Type (0, 0), BuildingBlock: XIVTED_clean_linker_0, # of connection points: 2
#     Edge 11, Type (0, 0), BuildingBlock: XIVTED_clean_linker_0, # of connection points: 2
#     Edge 12, Type (0, 0), BuildingBlock: XIVTED_clean_linker_0, # of connection points: 2
#     Edge 13, Type (0, 0), BuildingBlock: XIVTED_clean_linker_0, # of connection points: 2
#     Edge 14, Type (0, 0), BuildingBlock: XIVTED_clean_linker_0, # of connection points: 2
#     Edge 15, Type (0, 0), BuildingBlock: XIVTED_clean_linker_0, # of connection points: 2
#     Edge 16, Type (0, 0), BuildingBlock: XIVTED_clean_linker_0, # of connection points: 2
#     Edge 17, Type (0, 0), BuildingBlock: XIVTED_clean_linker_0, # of connection points: 2
#     Edge 18, Type (0, 0), BuildingBlock: XIVTED_clean_linker_0, # of connection points: 2
#     Edge 19, Type (0, 0), BuildingBlock: XIVTED_clean_linker_0, # of connection points: 2
#     Edge 20, Type (0, 0), BuildingBlock: XIVTED_clean_linker_0, # of connection points: 2
#     Edge 21, Type (0, 0), BuildingBlock: XIVTED_clean_linker_0, # of connection points: 2
#     Edge 22, Type (0, 0), BuildingBlock: XIVTED_clean_linker_0, # of connection points: 2
#     Edge 23, Type (0, 0), BuildingBlock: XIVTED_clean_linker_0, # of connection points: 2
#     Edge 24, Type (0, 0), BuildingBlock: XIVTED_clean_linker_0, # of connection points: 2
#     Edge 25, Type (0, 0), BuildingBlock: XIVTED_clean_linker_0, # of connection points: 2
#     Edge 26, Type (0, 0), BuildingBlock: XIVTED_clean_linker_0, # of connection points: 2
#     Edge 27, Type (0, 0), BuildingBlock: XIVTED_clean_linker_0, # of connection points: 2
#     Edge 28, Type (0, 0), BuildingBlock: XIVTED_clean_linker_0, # of connection points: 2
#     Edge 29, Type (0, 0), BuildingBlock: XIVTED_clean_linker_0, # of connection points: 2
#     Edge 30, Type (0, 0), BuildingBlock: XIVTED_clean_linker_0, # of connection points: 2
#     Edge 31, Type (0, 0), BuildingBlock: XIVTED_clean_linker_0, # of connection points: 2
#     Edge 32, Type (0, 0), BuildingBlock: XIVTED_clean_linker_0, # of connection points: 2
#     Edge 33, Type (0, 0), BuildingBlock: XIVTED_clean_linker_0, # of connection points: 2
#     Edge 34, Type (0, 0), BuildingBlock: XIVTED_clean_linker_0, # of connection points: 2
#     Edge 35, Type (0, 0), BuildingBlock: XIVTED_clean_linker_0, # of connection points: 2
# Relax obj value: 0.232
# Max RMSD: 0.271
# Mean RMSD: 0.271
data_MOF--net-sva--node1-HICVOG_clean_sbu_0--edge1-XIVTED_clean_linker_0
_symmetry_space_group_name_H-M    P1
_symmetry_Int_Tables_number       1
_symmetry_cell_setting            triclinic
loop_
_symmetry_equiv_pos_as_xyz
'x, y, z'
_cell_length_a     40.910198
_cell_length_b     40.832257
_cell_length_c     20.345245
_cell_angle_alpha  89.979525
_cell_angle_beta   89.985135
_cell_angle_gamma 89.951041
loop_
_atom_site_label
_atom_site_type_symbol
_atom_site_fract_x
_atom_site_fract_y
_atom_site_fract_z
_atom_type_partial_charge
Zn0 Zn 0.0543 0.19605 0.90136 0.0
C1 C 0.08579 0.2444 0.06208 0.0
N2 N 0.11331 0.22707 0.05183 0.0
C3 C 0.10516 0.20738 0.0016 0.0
N4 N 0.0741 0.21284 0.98137 0.0
N5 N 0.0615 0.23556 0.02059 0.0
C6 C 0.96892 0.28099 0.09719 0.0
O7 O 0.95544 0.25228 0.10791 0.0
O8 O 0.06415 0.14818 0.88958 0.0
Zn9 Zn 0.01534 0.23675 0.04796 0.0
N10 N 0.06794 0.22332 0.82797 0.0
C11 C 0.0951 0.27159 0.792 0.0
C12 C 0.08529 0.25078 0.84238 0.0
C13 C 0.05972 0.21592 0.76486 0.0
N14 N 0.08685 0.26435 0.72916 0.0
C15 C 0.06922 0.23716 0.71351 0.0
O16 O 0.98155 0.21687 0.9859 0.0
C17 C 0.98008 0.20029 0.93311 0.0
O18 O 1.00572 0.19299 0.90142 0.0
H19 H 0.09147 0.25657 0.89265 0.0
H20 H 0.04621 0.19368 0.75545 0.0
C21 C 0.01879 0.21811 0.18664 0.0
C22 C 0.01547 0.1955 0.23865 0.0
C23 C 1.00078 0.15432 0.16171 0.0
C24 C 1.00402 0.1767 0.11067 0.0
N25 N 0.01274 0.20813 0.12391 0.0
N26 N 1.00644 0.16422 0.22421 0.0
H27 H 0.02537 0.24337 0.19562 0.0
C28 C 0.05855 0.13196 0.94169 0.0
O29 O 0.05309 0.148 0.99653 0.0
O30 O 0.99745 0.2819 0.07192 0.0
H31 H 0.99941 0.16907 0.06071 0.0
H32 H 0.10902 0.29346 0.80272 0.0
H33 H 0.99373 0.12927 0.15183 0.0
Zn34 Zn 0.83876 0.55636 0.15494 0.0
C35 C 0.78946 0.58737 0.31479 0.0
N36 N 0.80695 0.6149 0.30573 0.0
C37 C 0.82695 0.60693 0.25586 0.0
N38 N 0.82151 0.57597 0.23472 0.0
N39 N 0.79848 0.56324 0.273 0.0
C40 C 0.75346 0.47095 0.35265 0.0
O41 O 0.78224 0.45783 0.3641 0.0
O42 O 0.8867 0.56556 0.14522 0.0
Zn43 Zn 0.79727 0.51696 0.30016 0.0
N44 N 0.8126 0.57084 0.08066 0.0
C45 C 0.76511 0.59869 0.04267 0.0
C46 C 0.78543 0.58889 0.09386 0.0
C47 C 0.8203 0.56212 0.01795 0.0
N48 N 0.77266 0.58995 0.98019 0.0
C49 C 0.79977 0.57195 0.96584 0.0
O50 O 0.8162 0.48314 0.23699 0.0
C51 C 0.83299 0.4818 0.18445 0.0
O52 O 0.84098 0.50762 0.1539 0.0
H53 H 0.77938 0.59542 0.14385 0.0
H54 H 0.84165 0.54707 0.00944 0.0
C55 C 0.81742 0.52288 0.43736 0.0
C56 C 0.84034 0.52029 0.48904 0.0
C57 C 0.87988 0.50088 0.41268 0.0
C58 C 0.85716 0.50329 0.36222 0.0
N59 N 0.82643 0.51416 0.3753 0.0
N60 N 0.87097 0.50935 0.4745 0.0
H61 H 0.79297 0.53204 0.44551 0.0
C62 C 0.90236 0.55846 0.19724 0.0
O63 O 0.88581 0.55211 0.25104 0.0
O64 O 0.7523 0.49915 0.32567 0.0
H65 H 0.8641 0.49669 0.31276 0.0
H66 H 0.74338 0.61299 0.05247 0.0
H67 H 0.90445 0.49236 0.4029 0.0
Zn68 Zn 0.47804 0.3391 0.40413 0.0
C69 C 0.44719 0.28959 0.56382 0.0
N70 N 0.41949 0.3067 0.55407 0.0
C71 C 0.42736 0.32669 0.50412 0.0
N72 N 0.45843 0.32163 0.48359 0.0
N73 N 0.47133 0.29884 0.52228 0.0
C74 C 0.56377 0.25486 0.60281 0.0
O75 O 0.5766 0.28374 0.61479 0.0
O76 O 0.46785 0.3869 0.39379 0.0
Zn77 Zn 0.51749 0.29839 0.54976 0.0
N78 N 0.4645 0.31234 0.3301 0.0
C79 C 0.43857 0.26368 0.29254 0.0
C80 C 0.44761 0.28446 0.34356 0.0
C81 C 0.47279 0.32032 0.26731 0.0
N82 N 0.44689 0.27151 0.22997 0.0
C83 C 0.46373 0.29934 0.21539 0.0
O84 O 0.55126 0.31799 0.48723 0.0
C85 C 0.55245 0.33487 0.43475 0.0
O86 O 0.52662 0.34235 0.40385 0.0
H87 H 0.44142 0.27819 0.39362 0.0
H88 H 0.48693 0.34226 0.25859 0.0
C89 C 0.51125 0.31842 0.68688 0.0
C90 C 0.51303 0.34153 0.73838 0.0
C91 C 0.53067 0.38175 0.66165 0.0
C92 C 0.52905 0.35884 0.61133 0.0
N93 N 0.51946 0.32768 0.62472 0.0
N94 N 0.52269 0.3726 0.72359 0.0
H95 H 0.50307 0.29361 0.69524 0.0
C96 C 0.47355 0.40282 0.44621 0.0
O97 O 0.4792 0.38647 0.50061 0.0
O98 O 0.53575 0.25358 0.57542 0.0
H99 H 0.53521 0.36597 0.56175 0.0
H100 H 0.42522 0.24138 0.30255 0.0
H101 H 0.53815 0.40667 0.65164 0.0
Zn102 Zn 0.73531 0.01806 0.80044 0.0
C103 C 0.70652 0.92785 0.75551 0.0
N104 N 0.72664 0.9199 0.80517 0.0
C105 C 0.74382 0.94758 0.8146 0.0
N106 N 0.73448 0.97178 0.77321 0.0
N107 N 0.71159 0.95896 0.73482 0.0
C108 C 0.63048 0.97468 0.69851 0.0
O109 O 0.64694 0.98034 0.75272 0.0
O110 O 0.78015 0.03607 0.82599 0.0
Zn111 Zn 0.69408 0.97859 0.65534 0.0
N112 N 0.70606 0.02046 0.87543 0.0
C113 C 0.65224 0.03254 0.91234 0.0
C114 C 0.67509 0.03052 0.86203 0.0
C115 C 0.71517 1.01214 0.93764 0.0
N116 N 0.66125 0.02447 0.97431 0.0
C117 C 0.69212 0.01431 0.98915 0.0
O118 O 0.69146 0.02729 0.65454 0.0
C119 C 0.69925 0.05316 0.68508 0.0
O120 O 0.71608 0.05192 0.73755 0.0
H121 H 0.66807 0.03676 0.81242 0.0
H122 H 0.73982 1.00358 0.94601 0.0
C123 C 0.71256 0.97317 0.51828 0.0
C124 C 0.73321 0.96366 0.46614 0.0
C125 C 0.76819 0.93725 0.54284 0.0
C126 C 0.74775 0.94675 0.59407 0.0
N127 N 0.72036 0.96447 0.58095 0.0
N128 N 0.76054 0.94597 0.48041 0.0
H129 H 0.69103 0.98797 0.50981 0.0
C130 C 0.77895 0.06417 0.85331 0.0
O131 O 0.75017 0.07716 0.86527 0.0
O132 O 0.64621 0.96893 0.6459 0.0
H133 H 0.75389 0.94024 0.64403 0.0
H134 H 0.62748 0.04042 0.90231 0.0
H135 H 0.7901 0.92322 0.5526 0.0
Zn136 Zn 0.55553 0.69452 0.40666 0.0
C137 C 0.58659 0.74429 0.56585 0.0
N138 N 0.61414 0.72689 0.55656 0.0
C139 C 0.60617 0.70677 0.50691 0.0
N140 N 0.57516 0.71201 0.48614 0.0
N141 N 0.56243 0.73507 0.52438 0.0
C142 C 0.46986 0.78035 0.60084 0.0
O143 O 0.45644 0.75162 0.61162 0.0
O144 O 0.56544 0.64662 0.39684 0.0
Zn145 Zn 0.51625 0.73622 0.55134 0.0
N146 N 0.56948 0.72106 0.33248 0.0
C147 C 0.59752 0.76848 0.29473 0.0
C148 C 0.58757 0.74818 0.34581 0.0
C149 C 0.56064 0.71353 0.26978 0.0
N150 N 0.58864 0.76112 0.23229 0.0
C151 C 0.57027 0.73428 0.21773 0.0
O152 O 0.48254 0.71647 0.48908 0.0
C153 C 0.48117 0.69939 0.43693 0.0
O154 O 0.5069 0.69155 0.40604 0.0
H155 H 0.59423 0.75409 0.39578 0.0
H156 H 0.54654 0.69158 0.26125 0.0
C157 C 0.52005 0.71764 0.6897 0.0
C158 C 0.51687 0.69517 0.74196 0.0
C159 C 0.50136 0.65397 0.6657 0.0
C160 C 0.50451 0.67622 0.6144 0.0
N161 N 0.51358 0.7076 0.62721 0.0
N162 N 0.50748 0.66394 0.72799 0.0
H163 H 0.52689 0.74287 0.69828 0.0
C164 C 0.56011 0.63074 0.44949 0.0
O165 O 0.5548 0.6471 0.504 0.0
O166 O 0.49836 0.78132 0.57542 0.0
H167 H 0.49961 0.66853 0.5646 0.0
H168 H 0.61203 0.79006 0.30458 0.0
H169 H 0.49406 0.62896 0.65618 0.0
Zn170 Zn 0.33808 0.05509 0.65393 0.0
C171 C 0.28934 0.08718 0.81344 0.0
N172 N 0.30671 0.11469 0.80315 0.0
C173 C 0.32648 0.10636 0.75317 0.0
N174 N 0.32105 0.07522 0.73322 0.0
N175 N 0.29823 0.06274 0.77223 0.0
C176 C 0.25373 0.97088 0.85483 0.0
O177 O 0.28254 0.95795 0.86679 0.0
O178 O 0.38586 0.06481 0.64268 0.0
Zn179 Zn 0.29726 0.01661 0.80038 0.0
N180 N 0.31111 0.06854 0.58019 0.0
C181 C 0.26216 0.09405 0.54311 0.0
C182 C 0.28304 0.08503 0.59396 0.0
C183 C 0.31918 0.06063 0.51727 0.0
N184 N 0.27008 0.0861 0.4804 0.0
C185 C 0.2981 0.06966 0.46553 0.0
O186 O 0.31625 0.98234 0.73825 0.0
C187 C 0.33306 0.98078 0.68579 0.0
O188 O 0.34085 1.00644 0.65455 0.0
H189 H 0.27671 0.09093 0.64413 0.0
H190 H 0.3413 0.04679 0.5083 0.0
C191 C 0.3175 0.02295 0.93708 0.0
C192 C 0.34057 0.02105 0.98853 0.0
C193 C 0.38058 1.00297 0.91189 0.0
C194 C 0.35769 1.00466 0.86161 0.0
N195 N 0.32666 0.01454 0.87498 0.0
N196 N 0.37152 1.01112 0.9738 0.0
H197 H 0.29279 0.03136 0.94542 0.0
C198 C 0.40187 0.05915 0.69499 0.0
O199 O 0.38568 0.05362 0.7496 0.0
O200 O 0.25247 0.99883 0.82685 0.0
H201 H 0.36471 0.99831 0.81206 0.0
H202 H 0.2397 0.10709 0.55336 0.0
H203 H 0.40539 0.99525 0.9019 0.0
Zn204 Zn 0.97876 0.83913 0.90486 0.0
C205 C 0.94681 0.7905 0.06478 0.0
N206 N 0.91927 0.80778 0.05425 0.0
C207 C 0.92755 0.82756 0.0042 0.0
N208 N 0.9587 0.82223 0.98442 0.0
N209 N 0.97123 0.7995 0.0237 0.0
C210 C 0.06317 0.75464 0.10471 0.0
O211 O 0.07652 0.78331 0.11642 0.0
O212 O 0.96886 0.88698 0.89301 0.0
Zn213 Zn 0.01725 0.79877 0.05211 0.0
N214 N 0.96561 0.8118 0.83132 0.0
C215 C 0.94039 0.76249 0.79525 0.0
C216 C 0.94913 0.78378 0.84562 0.0
C217 C 0.97376 0.81943 0.76827 0.0
N218 N 0.94859 0.76996 0.73245 0.0
C219 C 0.96501 0.79791 0.717 0.0
O220 O 0.05146 0.81802 0.99 0.0
C221 C 0.05294 0.83467 0.93726 0.0
O222 O 0.02729 0.84212 0.90577 0.0
H223 H 0.94305 0.77778 0.89586 0.0
H224 H 0.98756 0.84152 0.75882 0.0
C225 C 1.01104 0.81928 0.18931 0.0
C226 C 0.01274 0.84272 0.24024 0.0
C227 C 0.03014 0.88257 0.16251 0.0
C228 C 0.02858 0.85936 0.11275 0.0
N229 N 0.01916 0.82822 0.12688 0.0
N230 N 0.02225 0.87374 0.22468 0.0
H231 H 1.00294 0.7945 0.19833 0.0
C232 C 0.97401 0.90319 0.94531 0.0
O233 O 0.97925 0.88716 0.00026 0.0
O234 O 0.03498 0.75381 0.07797 0.0
H235 H 0.03463 0.86624 0.06298 0.0
H236 H 0.92736 0.74006 0.80595 0.0
H237 H 0.0375 0.90745 0.15188 0.0
Zn238 Zn 0.23643 0.51744 0.29898 0.0
C239 C 0.20695 0.42763 0.25141 0.0
N240 N 0.22701 0.41912 0.3008 0.0
C241 C 0.24427 0.44667 0.31137 0.0
N242 N 0.23501 0.4713 0.27095 0.0
N243 N 0.21205 0.45895 0.23213 0.0
C244 C 0.13094 0.47388 0.19502 0.0
O245 O 0.14703 0.47874 0.24998 0.0
O246 O 0.28149 0.53473 0.3248 0.0
Zn247 Zn 0.19477 0.47938 0.15338 0.0
N248 N 0.20718 0.51965 0.37377 0.0
C249 C 0.15303 0.53066 0.41012 0.0
C250 C 0.17602 0.52897 0.35999 0.0
C251 C 0.21636 0.51172 0.43611 0.0
N252 N 0.16211 0.52299 0.47226 0.0
C253 C 0.19317 0.51357 0.48738 0.0
O254 O 0.19181 0.52804 0.15483 0.0
C255 C 0.20001 0.55367 0.18571 0.0
O256 O 0.21742 0.552 0.23737 0.0
H257 H 0.16895 0.53483 0.31023 0.0
H258 H 0.24115 0.50364 0.44478 0.0
C259 C 0.21379 0.47443 0.01655 0.0
C260 C 0.23506 0.46577 0.96484 0.0
C261 C 0.27108 0.44144 0.04231 0.0
C262 C 0.25003 0.45009 0.09313 0.0
N263 N 0.22183 0.46638 0.07942 0.0
N264 N 0.2632 0.44954 0.97967 0.0
H265 H 0.19158 0.4881 0.0076 0.0
C266 C 0.28073 0.56304 0.35132 0.0
O267 O 0.25214 0.57662 0.36255 0.0
O268 O 0.14701 0.4694 0.14231 0.0
H269 H 0.25636 0.44409 0.14324 0.0
H270 H 0.12813 0.53795 0.3998 0.0
H271 H 0.29364 0.42857 0.05253 0.0
H272 H 0.98109 0.94463 0.04858 0.0
H273 H 0.04905 0.09345 0.83251 0.0
H274 H 0.98559 0.94148 0.83665 0.0
H275 H 0.04867 0.09085 0.04469 0.0
H276 H 0.02609 0.03801 0.83118 0.0
H277 H 1.00352 0.99971 0.04621 0.0
C278 C 0.98637 0.95575 0.00139 0.0
C279 C 0.98161 0.93841 0.94274 0.0
C280 C 0.03131 0.04954 0.87793 0.0
C281 C 1.00797 1.00139 0.93965 0.0
C282 C 0.0447 0.08102 0.87873 0.0
C283 C 0.05063 0.09681 0.93883 0.0
C284 C 0.02384 0.03394 0.93763 0.0
C285 C 0.04432 0.07969 0.99722 0.0
C286 C 0.99944 0.98715 7e-05 0.0
C287 C 0.98883 0.95406 0.88302 0.0
N288 N 0.03108 0.04932 0.99511 0.0
N289 N 1.00194 0.98466 0.883 0.0
H290 H 0.94181 0.55255 0.0885 0.0
H291 H 0.08953 0.47835 0.29892 0.0
H292 H 0.94214 0.54372 0.30002 0.0
H293 H 0.09256 0.48724 0.08755 0.0
H294 H 0.03429 0.50035 0.29849 0.0
H295 H 0.99702 0.52927 0.08574 0.0
C296 C 0.95368 0.54623 0.13437 0.0
C297 C 0.93735 0.54997 0.19459 0.0
C298 C 0.04686 0.49731 0.25204 0.0
C299 C 0.99999 0.52281 0.19165 0.0
C300 C 0.07835 0.4845 0.25224 0.0
C301 C 0.09569 0.48112 0.19322 0.0
C302 C 0.03256 0.507 0.19239 0.0
C303 C 0.07998 0.4894 0.13417 0.0
C304 C 0.98503 0.53265 0.1327 0.0
C305 C 0.95375 0.54117 0.25246 0.0
N306 N 0.04932 0.50228 0.13528 0.0
N307 N 0.98406 0.52784 0.24948 0.0
H308 H 0.55185 0.58987 0.55349 0.0
H309 H 0.48255 0.44175 0.33753 0.0
H310 H 0.54889 0.59209 0.34139 0.0
H311 H 0.48428 0.44339 0.54973 0.0
H312 H 0.50592 0.49697 0.33647 0.0
H313 H 0.52877 0.53503 0.55154 0.0
C314 C 0.54677 0.5786 0.50638 0.0
C315 C 0.55215 0.5956 0.44752 0.0
C316 C 0.50092 0.48529 0.38319 0.0
C317 C 0.52506 0.53294 0.44491 0.0
C318 C 0.48727 0.45394 0.38384 0.0
C319 C 0.48161 0.43794 0.44384 0.0
C320 C 0.50889 0.50057 0.44292 0.0
C321 C 0.4884 0.45474 0.50234 0.0
C322 C 0.53334 0.54734 0.5053 0.0
C323 C 0.54518 0.57978 0.38792 0.0
N324 N 0.50188 0.48501 0.50037 0.0
N325 N 0.5317 0.54935 0.38812 0.0
H326 H 0.58999 0.98378 0.80273 0.0
H327 H 0.44066 0.04994 0.58623 0.0
H328 H 0.59144 0.98477 0.59053 0.0
H329 H 0.44261 0.04913 0.79844 0.0
H330 H 0.4961 0.02717 0.58531 0.0
H331 H 0.53499 1.00633 0.80066 0.0
C332 C 0.57852 0.98832 0.75559 0.0
C333 C 0.59535 0.98251 0.69672 0.0
C334 C 0.48443 0.03224 0.63199 0.0
C335 C 0.53246 1.00898 0.69393 0.0
C336 C 0.45295 0.04553 0.63255 0.0
C337 C 0.43699 0.05129 0.69253 0.0
C338 C 0.49989 0.02473 0.69179 0.0
C339 C 0.45392 0.04492 0.75106 0.0
C340 C 0.54716 1.00144 0.75443 0.0
C341 C 0.57928 0.98882 0.63708 0.0
N342 N 0.48434 0.0318 0.74918 0.0
N343 N 0.54874 1.002 0.63719 0.0
H344 H 0.283 0.10222 0.94267 0.0
H345 H 0.11422 0.18618 0.87337 0.0
H346 H 0.22729 0.07934 0.76926 0.0
H347 H 0.1501 0.17284 0.07053 0.0
H348 H 0.15456 0.1464 0.83407 0.0
H349 H 0.23385 0.12562 0.99294 0.0
C350 C 0.26 0.10089 0.91638 0.0
C351 C 0.25898 0.08842 0.85228 0.0
C352 C 0.15319 0.15173 0.88613 0.0
C353 C 0.20315 0.11699 0.90752 0.0
C354 C 0.12997 0.17437 0.90861 0.0
C355 C 0.12817 0.18238 0.97549 0.0
C356 C 0.17546 0.13771 0.93069 0.0
C357 C 0.15047 0.16731 0.01849 0.0
C358 C 0.23203 0.11463 0.94465 0.0
C359 C 0.22885 0.08815 0.81937 0.0
N360 N 0.17329 0.14598 0.99538 0.0
N361 N 0.20227 0.10301 0.84666 0.0
H362 H 0.86041 0.65169 0.32708 0.0
H363 H 0.95732 0.7284 0.02178 0.0
H364 H 0.8501 0.61631 0.12878 0.0
H365 H 0.92951 0.78383 0.19288 0.0
H366 H 0.93338 0.6791 0.07191 0.0
H367 H 0.89925 0.69284 0.28806 0.0
C368 C 0.86664 0.65223 0.27533 0.0
C369 C 0.85226 0.63002 0.23126 0.0
C370 C 0.93344 0.70185 0.09926 0.0
C371 C 0.89707 0.67708 0.18636 0.0
C372 C 0.94765 0.7298 0.07129 0.0
C373 C 0.94564 0.76006 0.10369 0.0
C374 C 0.91758 0.70424 0.16036 0.0
C375 C 0.93182 0.76084 0.16673 0.0
C376 C 0.88891 0.67568 0.25324 0.0
C377 C 0.86121 0.63209 0.16481 0.0
N378 N 0.91809 0.73343 0.19283 0.0
N379 N 0.88303 0.65519 0.1443 0.0
H380 H 0.38263 0.3605 0.57483 0.0
H381 H 0.30626 0.45665 0.26807 0.0
H382 H 0.41777 0.34905 0.37659 0.0
H383 H 0.25085 0.42979 0.43971 0.0
H384 H 0.35536 0.43254 0.31846 0.0
H385 H 0.34157 0.39935 0.53519 0.0
C386 C 0.38204 0.36647 0.52295 0.0
C387 C 0.40416 0.35181 0.47907 0.0
C388 C 0.33266 0.43284 0.34586 0.0
C389 C 0.35724 0.39661 0.43347 0.0
C390 C 0.30483 0.44715 0.31773 0.0
C391 C 0.27463 0.44547 0.35025 0.0
C392 C 0.33021 0.41721 0.4072 0.0
C393 C 0.27379 0.43187 0.41349 0.0
C394 C 0.35865 0.38875 0.5005 0.0
C395 C 0.40203 0.36039 0.41243 0.0
N396 N 0.30109 0.41803 0.43974 0.0
N397 N 0.379 0.38224 0.39159 0.0
H398 H 0.67304 0.88318 0.82696 0.0
H399 H 0.57631 0.80628 0.52181 0.0
H400 H 0.68341 0.91838 0.62849 0.0
H401 H 0.6032 0.7513 0.69412 0.0
H402 H 0.60026 0.85563 0.57157 0.0
H403 H 0.63402 0.84215 0.78823 0.0
C404 C 0.6668 0.8826 0.77522 0.0
C405 C 0.68124 0.90472 0.73101 0.0
C406 C 0.59998 0.83298 0.59928 0.0
C407 C 0.63624 0.85781 0.68643 0.0
C408 C 0.58576 0.805 0.5715 0.0
C409 C 0.58751 0.77484 0.60436 0.0
C410 C 0.61561 0.83071 0.66062 0.0
C411 C 0.60105 0.77421 0.66764 0.0
C412 C 0.64442 0.85923 0.75329 0.0
C413 C 0.67228 0.90263 0.66459 0.0
N414 N 0.61482 0.80163 0.69352 0.0
N415 N 0.65037 0.8796 0.64424 0.0
H416 H 0.78399 0.11884 0.92957 0.0
H417 H 0.97028 0.15518 0.83523 0.0
H418 H 0.84187 0.05443 0.80816 0.0
H419 H 0.9192 0.20612 0.99038 0.0
H420 H 0.92179 0.12177 0.81641 0.0
H421 H 0.83182 0.15355 0.946 0.0
C422 C 0.80683 0.11187 0.90653 0.0
C423 C 0.80885 0.08361 0.86731 0.0
C424 C 0.92109 0.1404 0.85427 0.0
C425 C 0.86384 0.12372 0.88542 0.0
C426 C 0.94873 0.15979 0.86476 0.0
C427 C 0.94899 0.1837 0.9146 0.0
C428 C 0.89322 0.14493 0.89343 0.0
C429 C 0.92023 0.18814 0.95135 0.0
C430 C 0.83415 0.13179 0.91595 0.0
C431 C 0.83918 0.07588 0.83895 0.0
N432 N 0.8936 0.16892 0.94012 0.0
N433 N 0.86542 0.09594 0.84821 0.0
H434 H 0.8242 0.42021 0.23715 0.0
H435 H 0.98141 0.34438 0.05741 0.0
H436 H 0.87983 0.4722 0.08998 0.0
H437 H 0.91224 0.28625 0.16708 0.0
H438 H 0.94658 0.39262 0.07492 0.0
H439 H 0.85734 0.37137 0.21587 0.0
C440 C 0.84299 0.42128 0.19969 0.0
C441 C 0.84905 0.45048 0.16529 0.0
C442 C 0.93907 0.36927 0.09512 0.0
C443 C 0.88769 0.39476 0.14179 0.0
C444 C 0.95907 0.34179 0.08551 0.0
C445 C 0.94974 0.31118 0.11065 0.0
C446 C 0.9097 0.36619 0.13067 0.0
C447 C 0.9204 0.30929 0.1465 0.0
C448 C 0.86206 0.39341 0.18782 0.0
C449 C 0.87404 0.45031 0.11764 0.0
N450 N 0.90152 0.33634 0.15549 0.0
N451 N 0.89257 0.42307 0.10781 0.0
H452 H 0.74858 0.41608 0.42839 0.0
H453 H 0.56171 0.38054 0.33764 0.0
H454 H 0.69035 0.48101 0.30875 0.0
H455 H 0.61365 0.32867 0.4904 0.0
H456 H 0.61014 0.41399 0.31827 0.0
H457 H 0.70075 0.38145 0.44534 0.0
C458 C 0.72567 0.42318 0.40584 0.0
C459 C 0.72356 0.45157 0.36696 0.0
C460 C 0.61104 0.39516 0.35571 0.0
C461 C 0.66853 0.41154 0.38569 0.0
C462 C 0.58344 0.37574 0.36651 0.0
C463 C 0.58344 0.35154 0.41584 0.0
C464 C 0.63914 0.39036 0.39405 0.0
C465 C 0.61241 0.34687 0.45177 0.0
C466 C 0.69833 0.40331 0.41557 0.0
C467 C 0.69312 0.45946 0.33926 0.0
N468 N 0.639 0.36612 0.44026 0.0
N469 N 0.66686 0.43944 0.34881 0.0
H470 H 0.65429 0.06283 0.58698 0.0
H471 H 0.61856 0.24998 0.67857 0.0
H472 H 0.70555 0.11442 0.74087 0.0
H473 H 0.55406 0.19175 0.55832 0.0
H474 H 0.65325 0.20204 0.6953 0.0
H475 H 0.62116 0.11154 0.56732 0.0
C476 C 0.65903 0.08454 0.61605 0.0
C477 C 0.68293 0.08435 0.66582 0.0
C478 C 0.63147 0.19966 0.66543 0.0
C479 C 0.64448 0.14036 0.64369 0.0
C480 C 0.61157 0.22704 0.65583 0.0
C481 C 0.58328 0.22495 0.61688 0.0
C482 C 0.62336 0.16984 0.63534 0.0
C483 C 0.57553 0.1945 0.58891 0.0
C484 C 0.6398 0.1123 0.60507 0.0
C485 C 0.68756 0.11332 0.70193 0.0
N486 N 0.59556 0.16821 0.59835 0.0
N487 N 0.66848 0.14006 0.69026 0.0
H488 H 0.72754 0.57704 0.27135 0.0
H489 H 0.65074 0.67292 0.57795 0.0
H490 H 0.78269 0.60394 0.44322 0.0
H491 H 0.61569 0.6841 0.37962 0.0
H492 H 0.6918 0.63399 0.5386 0.0
H493 H 0.67827 0.60076 0.32182 0.0
C494 C 0.72888 0.58646 0.32106 0.0
C495 C 0.75905 0.58832 0.35359 0.0
C496 C 0.67473 0.64455 0.50384 0.0
C497 C 0.70328 0.61611 0.41066 0.0
C498 C 0.65135 0.66687 0.52612 0.0
C499 C 0.62927 0.6815 0.48212 0.0
C500 C 0.67618 0.63662 0.43684 0.0
C501 C 0.63141 0.67281 0.41555 0.0
C502 C 0.70095 0.60054 0.34925 0.0
C503 C 0.75977 0.60178 0.41694 0.0
N504 N 0.65444 0.65094 0.39487 0.0
N505 N 0.73238 0.6154 0.44324 0.0
H506 H 0.4336 0.28319 0.69367 0.0
H507 H 0.34776 0.11504 0.62498 0.0
H508 H 0.45443 0.22744 0.51911 0.0
H509 H 0.36116 0.15133 0.8218 0.0
H510 H 0.38783 0.15494 0.58537 0.0
H511 H 0.41006 0.23418 0.74431 0.0
C512 C 0.4345 0.26018 0.66719 0.0
C513 C 0.4464 0.25915 0.60264 0.0
C514 C 0.38246 0.15376 0.63744 0.0
C515 C 0.4176 0.20348 0.65836 0.0
C516 C 0.35964 0.1308 0.66009 0.0
C517 C 0.35157 0.12922 0.72696 0.0
C518 C 0.39662 0.17603 0.6818 0.0
C519 C 0.36674 0.15153 0.76977 0.0
C520 C 0.42065 0.2323 0.69567 0.0
C521 C 0.44608 0.22901 0.56954 0.0
N522 N 0.38827 0.17411 0.74649 0.0
N523 N 0.43112 0.20254 0.59708 0.0
H524 H 0.75039 0.93393 0.9444 0.0
H525 H 0.91884 0.84865 0.87584 0.0
H526 H 0.8058 0.95483 0.76951 0.0
H527 H 0.88247 0.86222 0.07259 0.0
H528 H 0.87871 0.88852 0.83597 0.0
H529 H 0.79947 0.91059 0.99494 0.0
C530 C 0.77333 0.93487 0.9178 0.0
C531 C 0.77426 0.94675 0.85322 0.0
C532 C 0.87992 0.88323 0.88807 0.0
C533 C 0.83002 0.91819 0.90884 0.0
C534 C 0.90301 0.86053 0.91087 0.0
C535 C 0.90461 0.85256 0.9778 0.0
C536 C 0.85758 0.89736 0.93236 0.0
C537 C 0.88224 0.86772 0.02052 0.0
C538 C 0.80126 0.92114 0.94623 0.0
C539 C 0.80431 0.9465 0.81997 0.0
N540 N 0.85956 0.88912 0.9971 0.0
N541 N 0.83084 0.93165 0.84749 0.0
H542 H 0.18524 0.41933 0.12337 0.0
H543 H 0.10043 0.25046 0.19148 0.0
H544 H 0.17274 0.38224 0.31991 0.0
H545 H 0.07839 0.30673 0.01815 0.0
H546 H 0.12413 0.29936 0.24213 0.0
H547 H 0.14526 0.3793 0.08386 0.0
C548 C 0.17359 0.40336 0.15845 0.0
C549 C 0.18188 0.40474 0.22522 0.0
C550 C 0.11325 0.30138 0.19377 0.0
C551 C 0.13694 0.35782 0.18014 0.0
C552 C 0.0993 0.27355 0.16531 0.0
C553 C 0.08698 0.27477 0.10112 0.0
C554 C 0.11599 0.33034 0.15675 0.0
C555 C 0.08706 0.30501 0.06833 0.0
C556 C 0.15082 0.38033 0.13585 0.0
C557 C 0.16699 0.38219 0.26797 0.0
N558 N 0.10212 0.33144 0.09581 0.0
N559 N 0.14551 0.35957 0.24473 0.0
H560 H 0.3439 0.55058 0.31058 0.0
H561 H 0.41984 0.70788 0.49055 0.0
H562 H 0.28631 0.61927 0.42284 0.0
H563 H 0.47158 0.65211 0.34317 0.0
H564 H 0.3712 0.67448 0.47011 0.0
H565 H 0.3921 0.58532 0.32805 0.0
C566 C 0.34142 0.57279 0.33927 0.0
C567 C 0.31096 0.58202 0.3651 0.0
C568 C 0.39314 0.66977 0.44184 0.0
C569 C 0.36594 0.62198 0.38505 0.0
C570 C 0.4209 0.68899 0.45324 0.0
C571 C 0.44997 0.68299 0.41849 0.0
C572 C 0.39446 0.64405 0.39591 0.0
C573 C 0.44979 0.65787 0.37107 0.0
C574 C 0.36888 0.59274 0.34887 0.0
C575 C 0.30922 0.61119 0.4017 0.0
N576 N 0.42265 0.63921 0.36165 0.0
N577 N 0.33624 0.63004 0.4106 0.0
H578 H 0.32487 0.91947 0.74024 0.0
H579 H 0.48209 0.84369 0.56055 0.0
H580 H 0.37977 0.97093 0.5912 0.0
H581 H 0.41333 0.78555 0.67123 0.0
H582 H 0.44711 0.89182 0.5778 0.0
H583 H 0.35829 0.87072 0.71979 0.0
C584 C 0.34356 0.92044 0.70257 0.0
C585 C 0.34933 0.94946 0.66737 0.0
C586 C 0.43972 0.8685 0.5983 0.0
C587 C 0.38828 0.89387 0.64482 0.0
C588 C 0.45981 0.84108 0.58883 0.0
C589 C 0.45063 0.81049 0.6143 0.0
C590 C 0.41042 0.86538 0.63403 0.0
C591 C 0.42137 0.80857 0.65038 0.0
C592 C 0.36278 0.89262 0.69117 0.0
C593 C 0.3742 0.94918 0.61948 0.0
N594 N 0.40239 0.83556 0.65922 0.0
N595 N 0.39288 0.92201 0.61011 0.0
H596 H 0.06283 0.87917 0.8383 0.0
H597 H 0.24882 0.91672 0.93264 0.0
H598 H 0.11373 0.82932 0.99514 0.0
H599 H 0.1908 0.98022 0.80954 0.0
H600 H 0.20108 0.88195 0.9499 0.0
H601 H 0.11123 0.91263 0.81904 0.0
C602 C 0.08433 0.87481 0.86814 0.0
C603 C 0.08403 0.8512 0.91857 0.0
C604 C 0.19869 0.90353 0.91931 0.0
C605 C 0.1397 0.89003 0.89686 0.0
C606 C 0.22597 0.92348 0.90942 0.0
C607 C 0.22388 0.95149 0.86946 0.0
C608 C 0.16901 0.91131 0.8885 0.0
C609 C 0.19354 0.95897 0.8409 0.0
C610 C 0.11191 0.89424 0.85737 0.0
C611 C 0.11273 0.84706 0.95564 0.0
N612 N 0.16736 0.93888 0.85062 0.0
N613 N 0.13932 0.86632 0.94414 0.0
H614 H 0.05104 0.69154 0.06299 0.0
H615 H 0.20839 0.61478 0.24092 0.0
H616 H 0.11942 0.74894 0.17598 0.0
H617 H 0.15294 0.56392 0.09203 0.0
H618 H 0.17492 0.66363 0.22169 0.0
H619 H 0.08596 0.64331 0.07941 0.0
C620 C 0.07322 0.69397 0.09163 0.0
C621 C 0.08231 0.72439 0.11796 0.0
C622 C 0.17031 0.64184 0.19283 0.0
C623 C 0.1225 0.66936 0.13672 0.0
C624 C 0.18957 0.61397 0.20353 0.0
C625 C 0.18366 0.58507 0.16802 0.0
C626 C 0.14465 0.64079 0.14684 0.0
C627 C 0.15861 0.58556 0.12054 0.0
C628 C 0.09328 0.66649 0.10062 0.0
C629 C 0.11145 0.72606 0.15448 0.0
N630 N 0.13992 0.61278 0.11182 0.0
N631 N 0.13042 0.69901 0.1628 0.0
H632 H 0.9861 0.16924 0.34623 0.0
H633 H 0.09982 0.26191 0.60516 0.0
H634 H 0.05855 0.24095 0.29067 0.0
H635 H 0.01875 0.19986 0.66039 0.0
H636 H 0.08558 0.25404 0.49003 0.0
H637 H 0.9982 0.17985 0.46151 0.0
C638 C 1.00445 0.18739 0.35823 0.0
C639 C 0.02123 0.20428 0.30845 0.0
C640 C 0.07098 0.24209 0.52739 0.0
C641 C 0.03542 0.21639 0.44089 0.0
C642 C 0.07908 0.24652 0.59337 0.0
C643 C 0.06083 0.23121 0.64327 0.0
C644 C 0.04437 0.22215 0.51066 0.0
C645 C 0.03422 0.21159 0.62433 0.0
C646 C 1.0113 0.19346 0.42419 0.0
C647 C 0.04463 0.22764 0.32714 0.0
N648 N 0.02688 0.20761 0.55963 0.0
N649 N 0.05117 0.23284 0.39189 0.0
H650 H 0.85919 0.56109 0.90444 0.0
H651 H 0.77989 0.52453 0.55221 0.0
H652 H 0.75524 0.56353 0.86763 0.0
H653 H 0.88369 0.53522 0.58606 0.0
H654 H 0.77013 0.5369 0.6678 0.0
H655 H 0.86834 0.54853 0.78871 0.0
C656 C 0.83823 0.55856 0.87242 0.0
C657 C 0.80632 0.56308 0.89625 0.0
C658 C 0.79502 0.53668 0.64968 0.0
C659 C 0.81675 0.54928 0.76293 0.0
C660 C 0.80067 0.52988 0.58324 0.0
C661 C 0.83276 0.52906 0.55848 0.0
C662 C 0.82158 0.54249 0.69189 0.0
C663 C 0.85853 0.53539 0.60248 0.0
C664 C 0.84351 0.5517 0.80601 0.0
C665 C 0.78026 0.56034 0.85154 0.0
N666 N 0.85238 0.54175 0.66677 0.0
N667 N 0.78603 0.55357 0.78718 0.0
H668 H 0.51171 0.28097 0.80189 0.0
H669 H 0.47173 0.35919 0.15369 0.0
H670 H 0.49615 0.38442 0.83509 0.0
H671 H 0.47412 0.25499 0.11747 0.0
H672 H 0.48375 0.36876 0.03786 0.0
H673 H 0.49989 0.27081 0.91756 0.0
C674 C 0.5054 0.30156 0.83281 0.0
C675 C 0.50469 0.33369 0.80786 0.0
C676 C 0.48175 0.34378 0.05531 0.0
C677 C 0.49189 0.32209 0.94133 0.0
C678 C 0.47521 0.33828 0.12176 0.0
C679 C 0.47221 0.30618 0.14576 0.0
C680 C 0.48539 0.31705 0.01239 0.0
C681 C 0.47612 0.28015 0.10121 0.0
C682 C 0.49892 0.2957 0.89928 0.0
C683 C 0.49717 0.35925 0.85169 0.0
N684 N 0.48256 0.28615 0.0368 0.0
N685 N 0.49115 0.35291 0.91603 0.0
H686 H 0.67367 0.97369 0.40476 0.0
H687 H 0.75256 1.01145 0.05258 0.0
H688 H 0.77767 0.97289 0.36804 0.0
H689 H 0.64896 0.99876 0.0862 0.0
H690 H 0.76244 0.99944 0.16827 0.0
H691 H 0.66438 0.98615 0.28902 0.0
C692 C 0.69461 0.97656 0.37276 0.0
C693 C 0.72657 0.97251 0.39659 0.0
C694 C 0.73758 0.99915 0.15007 0.0
C695 C 0.71599 0.9862 0.2633 0.0
C696 C 0.73186 1.00574 0.08358 0.0
C697 C 0.69978 1.00588 0.05872 0.0
C698 C 0.71109 0.99287 0.19224 0.0
C699 C 0.6741 0.99912 0.10268 0.0
C700 C 0.68925 0.98336 0.30635 0.0
C701 C 0.7526 0.9757 0.35192 0.0
N702 N 0.68031 0.99297 0.16703 0.0
N703 N 0.74676 0.9824 0.28756 0.0
H704 H 0.51864 0.69774 0.16694 0.0
H705 H 0.56029 0.74079 0.79213 0.0
H706 H 0.60042 0.75801 0.10799 0.0
H707 H 0.48846 0.66903 0.85079 0.0
H708 H 0.57213 0.75123 0.90799 0.0
H709 H 0.50487 0.68989 0.0517 0.0
C710 C 0.53408 0.70899 0.13019 0.0
C711 C 0.5612 0.72818 0.14788 0.0
C712 C 0.55365 0.73333 0.89542 0.0
C713 C 0.54478 0.71991 0.01506 0.0
C714 C 0.54664 0.72757 0.82917 0.0
C715 C 0.5232 0.70406 0.8115 0.0
C716 C 0.53708 0.71554 0.94433 0.0
C717 C 0.50686 0.68723 0.86201 0.0
C718 C 0.52592 0.70472 0.06408 0.0
C719 C 0.57934 0.74296 0.09713 0.0
N720 N 0.51411 0.69328 0.92596 0.0
N721 N 0.57083 0.7385 0.03323 0.0
H722 H 0.35793 0.06268 0.40368 0.0
H723 H 0.28018 0.02214 0.05199 0.0
H724 H 0.25395 0.05903 0.36758 0.0
H725 H 0.38332 0.0383 0.08503 0.0
H726 H 0.26997 0.03399 0.1676 0.0
H727 H 0.36761 0.051 0.28776 0.0
C728 C 0.3371 0.059 0.37175 0.0
C729 C 0.30502 0.06152 0.39581 0.0
C730 C 0.2948 0.0351 0.14931 0.0
C731 C 0.31602 0.04873 0.26236 0.0
C732 C 0.30069 0.02861 0.08288 0.0
C733 C 0.33274 0.02948 0.05793 0.0
C734 C 0.3211 0.04229 0.19131 0.0
C735 C 0.35822 0.03716 0.10168 0.0
C736 C 0.34266 0.05265 0.30525 0.0
C737 C 0.27909 0.05738 0.35127 0.0
N738 N 0.35186 0.04319 0.16601 0.0
N739 N 0.28514 0.05113 0.28682 0.0
H740 H 0.99493 0.88611 0.33533 0.0
H741 H 0.97632 0.75293 0.62071 0.0
H742 H 1.01238 0.78272 0.30574 0.0
H743 H 0.97178 0.85735 0.65312 0.0
H744 H 0.98745 0.76298 0.50454 0.0
H745 H 0.98415 0.87547 0.45081 0.0
C746 C 0.99642 0.8611 0.35282 0.0
C747 C 1.00445 0.83531 0.30993 0.0
C748 C 0.98421 0.78369 0.53715 0.0
C749 C 0.99201 0.82298 0.44322 0.0
C750 C 0.97778 0.778 0.60353 0.0
C751 C 0.97336 0.80432 0.64714 0.0
C752 C 0.98591 0.81596 0.51378 0.0
C753 C 0.97562 0.83625 0.62192 0.0
C754 C 0.99023 0.85508 0.41904 0.0
C755 C 1.00574 0.80343 0.33602 0.0
N756 N 0.98162 0.84114 0.55692 0.0
N757 N 0.99961 0.79821 0.40095 0.0
H758 H 0.25337 0.51375 0.55146 0.0
H759 H 0.1753 0.47222 0.90259 0.0
H760 H 0.15043 0.49586 0.5836 0.0
H761 H 0.2793 0.47728 0.86743 0.0
H762 H 0.16575 0.4839 0.7866 0.0
H763 H 0.26344 0.50232 0.66734 0.0
C764 C 0.23289 0.50699 0.58223 0.0
C765 C 0.20094 0.5055 0.55696 0.0
C766 C 0.19068 0.48257 0.80433 0.0
C767 C 0.21239 0.49317 0.69057 0.0
C768 C 0.19616 0.47622 0.87085 0.0
C769 C 0.2282 0.47406 0.89517 0.0
C770 C 0.21738 0.48686 0.76169 0.0
C771 C 0.25419 0.47862 0.8509 0.0
C772 C 0.23869 0.50075 0.64879 0.0
C773 C 0.17546 0.49748 0.60051 0.0
N774 N 0.24822 0.48486 0.78642 0.0
N775 N 0.18173 0.49169 0.66495 0.0
loop_
_geom_bond_atom_site_label_1
_geom_bond_atom_site_label_2
_geom_bond_distance
_geom_bond_site_symmetry_2
_ccdc_geom_bond_type
Zn0 N4 2.020 . S
Zn0 O8 2.019 . S
Zn0 N10 2.119 . S
Zn0 O18 1.975 1_455 S
C1 N2 1.334 . S
C1 N5 1.336 . S
N2 C1 1.334 . S
N2 C3 1.334 1_554 S
C3 N2 1.334 1_556 S
C3 N4 1.336 . S
N4 Zn0 2.020 . S
N4 C3 1.336 . S
N4 N5 1.354 1_556 S
N5 C1 1.336 . S
N5 N4 1.354 1_554 S
N5 Zn9 2.020 1_455 S
C6 O7 1.244 . S
C6 O30 1.257 . S
O7 C6 1.244 . S
O8 Zn0 2.019 . S
O8 C28 1.257 . S
Zn9 N5 2.020 1_655 S
Zn9 O16 1.975 . S
Zn9 N25 2.119 . S
Zn9 O30 2.019 . S
N10 Zn0 2.119 . S
N10 C12 1.334 1_455 S
N10 C13 1.328 . S
C11 C12 1.391 . S
C11 N14 1.329 . S
C11 H32 0.930 . S
C12 N10 1.334 1_655 S
C12 C11 1.391 . S
C12 H19 0.930 . S
C13 N10 1.328 . S
C13 C15 1.397 . S
C13 H20 0.930 . S
N14 C11 1.329 . S
N14 C15 1.322 1_655 S
C15 C13 1.397 . S
C15 N14 1.322 1_455 S
O16 Zn9 1.975 . S
O16 C17 1.252 1_554 S
C17 O16 1.252 1_556 S
C17 O18 1.252 . S
O18 Zn0 1.975 1_655 S
O18 C17 1.252 . S
H19 C12 0.930 . S
H20 C13 0.930 . S
C21 C22 1.392 . S
C21 N25 1.328 . S
C21 H27 0.930 . S
C22 C21 1.392 . S
C22 N26 1.331 . S
C23 C24 1.391 . S
C23 N26 1.329 . S
C23 H33 0.930 . S
C24 C23 1.391 . S
C24 N25 1.334 . S
C24 H31 0.922 1_655 S
N25 Zn9 2.119 . S
N25 C21 1.328 . S
N25 C24 1.334 . S
N26 C22 1.331 . S
N26 C23 1.329 . S
H27 C21 0.930 . S
C28 O8 1.257 . S
C28 O29 1.244 . S
O29 C28 1.244 . S
O30 C6 1.257 . S
O30 Zn9 2.019 . S
H31 C24 0.922 1_455 S
H32 C11 0.930 . S
H33 C23 0.930 . S
Zn34 N38 2.020 . S
Zn34 O42 2.019 . S
Zn34 N44 2.119 . S
Zn34 O52 1.975 . S
C35 N36 1.334 . S
C35 N39 1.336 . S
N36 C35 1.334 . S
N36 C37 1.334 . S
C37 N36 1.334 . S
C37 N38 1.336 . S
N38 Zn34 2.020 . S
N38 C37 1.336 . S
N38 N39 1.354 . S
N39 C35 1.336 . S
N39 N38 1.354 . S
N39 Zn43 2.020 . S
C40 O41 1.244 . S
C40 O64 1.257 . S
O41 C40 1.244 . S
O42 Zn34 2.019 . S
O42 C62 1.257 . S
Zn43 N39 2.020 . S
Zn43 O50 1.975 . S
Zn43 N59 2.119 . S
Zn43 O64 2.019 . S
N44 Zn34 2.119 . S
N44 C46 1.334 . S
N44 C47 1.328 . S
C45 C46 1.391 . S
C45 N48 1.329 1_554 S
C45 H66 0.930 . S
C46 N44 1.334 . S
C46 C45 1.391 . S
C46 H53 0.930 . S
C47 N44 1.328 . S
C47 C49 1.392 1_554 S
C47 H54 0.930 . S
N48 C45 1.329 1_556 S
N48 C49 1.331 . S
C49 C47 1.392 1_556 S
C49 N48 1.331 . S
O50 Zn43 1.975 . S
O50 C51 1.252 . S
C51 O50 1.252 . S
C51 O52 1.252 . S
O52 Zn34 1.975 . S
O52 C51 1.252 . S
H53 C46 0.930 . S
H54 C47 0.930 . S
C55 C56 1.392 . S
C55 N59 1.328 . S
C55 H61 0.930 . S
C56 C55 1.392 . S
C56 N60 1.331 . S
C57 C58 1.391 . S
C57 N60 1.329 . S
C57 H67 0.930 . S
C58 C57 1.391 . S
C58 N59 1.334 . S
C58 H65 0.930 . S
N59 Zn43 2.119 . S
N59 C55 1.328 . S
N59 C58 1.334 . S
N60 C56 1.331 . S
N60 C57 1.329 . S
H61 C55 0.930 . S
C62 O42 1.257 . S
C62 O63 1.244 . S
O63 C62 1.244 . S
O64 C40 1.257 . S
O64 Zn43 2.019 . S
H65 C58 0.930 . S
H66 C45 0.930 . S
H67 C57 0.930 . S
Zn68 N72 2.020 . S
Zn68 O76 2.019 . S
Zn68 N78 2.119 . S
Zn68 O86 1.975 . S
C69 N70 1.334 . S
C69 N73 1.336 . S
N70 C69 1.334 . S
N70 C71 1.334 . S
C71 N70 1.334 . S
C71 N72 1.336 . S
N72 Zn68 2.020 . S
N72 C71 1.336 . S
N72 N73 1.354 . S
N73 C69 1.336 . S
N73 N72 1.354 . S
N73 Zn77 2.020 . S
C74 O75 1.244 . S
C74 O98 1.257 . S
O75 C74 1.244 . S
O76 Zn68 2.019 . S
O76 C96 1.257 . S
Zn77 N73 2.020 . S
Zn77 O84 1.975 . S
Zn77 N93 2.119 . S
Zn77 O98 2.019 . S
N78 Zn68 2.119 . S
N78 C80 1.334 . S
N78 C81 1.328 . S
C79 C80 1.391 . S
C79 N82 1.329 . S
C79 H100 0.930 . S
C80 N78 1.334 . S
C80 C79 1.391 . S
C80 H87 0.930 . S
C81 N78 1.328 . S
C81 C83 1.392 . S
C81 H88 0.930 . S
N82 C79 1.329 . S
N82 C83 1.331 . S
C83 C81 1.392 . S
C83 N82 1.331 . S
O84 Zn77 1.975 . S
O84 C85 1.252 . S
C85 O84 1.252 . S
C85 O86 1.252 . S
O86 Zn68 1.975 . S
O86 C85 1.252 . S
H87 C80 0.930 . S
H88 C81 0.930 . S
C89 C90 1.392 . S
C89 N93 1.328 . S
C89 H95 0.930 . S
C90 C89 1.392 . S
C90 N94 1.331 . S
C91 C92 1.391 . S
C91 N94 1.329 . S
C91 H101 0.930 . S
C92 C91 1.391 . S
C92 N93 1.334 . S
C92 H99 0.930 . S
N93 Zn77 2.119 . S
N93 C89 1.328 . S
N93 C92 1.334 . S
N94 C90 1.331 . S
N94 C91 1.329 . S
H95 C89 0.930 . S
C96 O76 1.257 . S
C96 O97 1.244 . S
O97 C96 1.244 . S
O98 C74 1.257 . S
O98 Zn77 2.019 . S
H99 C92 0.930 . S
H100 C79 0.930 . S
H101 C91 0.930 . S
Zn102 N106 2.020 1_545 S
Zn102 O110 2.019 . S
Zn102 N112 2.119 . S
Zn102 O120 1.975 . S
C103 N104 1.334 . S
C103 N107 1.336 . S
N104 C103 1.334 . S
N104 C105 1.334 . S
C105 N104 1.334 . S
C105 N106 1.336 . S
N106 Zn102 2.020 1_565 S
N106 C105 1.336 . S
N106 N107 1.354 . S
N107 C103 1.336 . S
N107 N106 1.354 . S
N107 Zn111 2.020 . S
C108 O109 1.244 . S
C108 O132 1.257 . S
O109 C108 1.244 . S
O110 Zn102 2.019 . S
O110 C130 1.257 . S
Zn111 N107 2.020 . S
Zn111 O118 1.975 1_565 S
Zn111 N127 2.119 1_565 S
Zn111 O132 2.019 . S
N112 Zn102 2.119 . S
N112 C114 1.334 . S
N112 C115 1.328 . S
C113 C114 1.391 . S
C113 N116 1.329 1_556 S
C113 H134 0.930 . S
C114 N112 1.334 . S
C114 C113 1.391 . S
C114 H121 0.930 . S
C115 N112 1.328 . S
C115 C117 1.392 1_556 S
C115 H122 0.930 . S
N116 C113 1.329 1_554 S
N116 C117 1.331 . S
C117 C115 1.392 1_554 S
C117 N116 1.331 . S
O118 Zn111 1.975 1_545 S
O118 C119 1.252 . S
C119 O118 1.252 . S
C119 O120 1.252 . S
O120 Zn102 1.975 . S
O120 C119 1.252 . S
H121 C114 0.930 . S
H122 C115 0.930 . S
C123 C124 1.388 1_565 S
C123 N127 1.326 1_565 S
C123 H129 0.937 . S
C124 C123 1.388 1_545 S
C124 N128 1.331 . S
C125 C126 1.391 . S
C125 N128 1.329 . S
C125 H135 0.930 . S
C126 C125 1.391 . S
C126 N127 1.334 . S
C126 H133 0.930 . S
N127 Zn111 2.119 1_545 S
N127 C123 1.326 1_545 S
N127 C126 1.334 . S
N128 C124 1.331 . S
N128 C125 1.329 . S
H129 C123 0.937 . S
C130 O110 1.257 . S
C130 O131 1.244 . S
O131 C130 1.244 . S
O132 C108 1.257 . S
O132 Zn111 2.019 . S
H133 C126 0.930 . S
H134 C113 0.930 . S
H135 C125 0.930 . S
Zn136 N140 2.020 . S
Zn136 O144 2.019 . S
Zn136 N146 2.119 . S
Zn136 O154 1.975 . S
C137 N138 1.334 . S
C137 N141 1.336 . S
N138 C137 1.334 . S
N138 C139 1.334 . S
C139 N138 1.334 . S
C139 N140 1.336 . S
N140 Zn136 2.020 . S
N140 C139 1.336 . S
N140 N141 1.354 . S
N141 C137 1.336 . S
N141 N140 1.354 . S
N141 Zn145 2.020 . S
C142 O143 1.244 . S
C142 O166 1.257 . S
O143 C142 1.244 . S
O144 Zn136 2.019 . S
O144 C164 1.257 . S
Zn145 N141 2.020 . S
Zn145 O152 1.975 . S
Zn145 N161 2.119 . S
Zn145 O166 2.019 . S
N146 Zn136 2.119 . S
N146 C148 1.334 . S
N146 C149 1.328 . S
C147 C148 1.391 . S
C147 N150 1.329 . S
C147 H168 0.930 . S
C148 N146 1.334 . S
C148 C147 1.391 . S
C148 H155 0.930 . S
C149 N146 1.328 . S
C149 C151 1.392 . S
C149 H156 0.930 . S
N150 C147 1.329 . S
N150 C151 1.331 . S
C151 C149 1.392 . S
C151 N150 1.331 . S
O152 Zn145 1.975 . S
O152 C153 1.252 . S
C153 O152 1.252 . S
C153 O154 1.252 . S
O154 Zn136 1.975 . S
O154 C153 1.252 . S
H155 C148 0.930 . S
H156 C149 0.930 . S
C157 C158 1.392 . S
C157 N161 1.328 . S
C157 H163 0.930 . S
C158 C157 1.392 . S
C158 N162 1.331 . S
C159 C160 1.391 . S
C159 N162 1.329 . S
C159 H169 0.930 . S
C160 C159 1.391 . S
C160 N161 1.334 . S
C160 H167 0.930 . S
N161 Zn145 2.119 . S
N161 C157 1.328 . S
N161 C160 1.334 . S
N162 C158 1.331 . S
N162 C159 1.329 . S
H163 C157 0.930 . S
C164 O144 1.257 . S
C164 O165 1.244 . S
O165 C164 1.244 . S
O166 C142 1.257 . S
O166 Zn145 2.019 . S
H167 C160 0.930 . S
H168 C147 0.930 . S
H169 C159 0.930 . S
Zn170 N174 2.020 . S
Zn170 O178 2.019 . S
Zn170 N180 2.119 . S
Zn170 O188 1.975 1_545 S
C171 N172 1.334 . S
C171 N175 1.336 . S
N172 C171 1.334 . S
N172 C173 1.334 . S
C173 N172 1.334 . S
C173 N174 1.336 . S
N174 Zn170 2.020 . S
N174 C173 1.336 . S
N174 N175 1.354 . S
N175 C171 1.336 . S
N175 N174 1.354 . S
N175 Zn179 2.020 1_545 S
C176 O177 1.244 . S
C176 O200 1.257 . S
O177 C176 1.244 . S
O178 Zn170 2.019 . S
O178 C198 1.257 . S
Zn179 N175 2.020 1_565 S
Zn179 O186 1.975 . S
Zn179 N195 2.119 . S
Zn179 O200 2.019 . S
N180 Zn170 2.119 . S
N180 C182 1.334 1_545 S
N180 C183 1.328 . S
C181 C182 1.391 . S
C181 N184 1.329 . S
C181 H202 0.930 . S
C182 N180 1.334 1_565 S
C182 C181 1.391 . S
C182 H189 0.930 . S
C183 N180 1.328 . S
C183 C185 1.397 . S
C183 H190 0.930 . S
N184 C181 1.329 . S
N184 C185 1.322 1_565 S
C185 C183 1.397 . S
C185 N184 1.322 1_545 S
O186 Zn179 1.975 . S
O186 C187 1.252 . S
C187 O186 1.252 . S
C187 O188 1.252 . S
O188 Zn170 1.975 1_565 S
O188 C187 1.252 . S
H189 C182 0.930 . S
H190 C183 0.930 . S
C191 C192 1.392 1_556 S
C191 N195 1.328 . S
C191 H197 0.930 . S
C192 C191 1.392 1_554 S
C192 N196 1.331 . S
C193 C194 1.391 . S
C193 N196 1.329 1_556 S
C193 H203 0.930 . S
C194 C193 1.391 . S
C194 N195 1.334 . S
C194 H201 0.922 1_565 S
N195 Zn179 2.119 . S
N195 C191 1.328 . S
N195 C194 1.334 . S
N196 C192 1.331 . S
N196 C193 1.329 1_554 S
H197 C191 0.930 . S
C198 O178 1.257 . S
C198 O199 1.244 . S
O199 C198 1.244 . S
O200 C176 1.257 . S
O200 Zn179 2.019 . S
H201 C194 0.922 1_545 S
H202 C181 0.930 . S
H203 C193 0.930 . S
Zn204 N208 2.020 . S
Zn204 O212 2.019 . S
Zn204 N214 2.119 1_655 S
Zn204 O222 1.975 1_655 S
C205 N206 1.334 . S
C205 N209 1.336 . S
N206 C205 1.334 . S
N206 C207 1.334 1_554 S
C207 N206 1.334 1_556 S
C207 N208 1.336 . S
N208 Zn204 2.020 . S
N208 C207 1.336 . S
N208 N209 1.354 1_556 S
N209 C205 1.336 . S
N209 N208 1.354 1_554 S
N209 Zn213 2.020 1_655 S
C210 O211 1.244 . S
C210 O234 1.257 . S
O211 C210 1.244 . S
O212 Zn204 2.019 . S
O212 C232 1.257 . S
Zn213 N209 2.020 1_455 S
Zn213 O220 1.975 . S
Zn213 N229 2.119 . S
Zn213 O234 2.019 . S
N214 Zn204 2.119 1_455 S
N214 C216 1.334 . S
N214 C217 1.326 1_455 S
C215 C216 1.391 . S
C215 N218 1.329 . S
C215 H236 0.930 . S
C216 N214 1.334 . S
C216 C215 1.391 . S
C216 H223 0.930 . S
C217 N214 1.326 1_655 S
C217 C219 1.388 1_655 S
C217 H224 0.937 . S
N218 C215 1.329 . S
N218 C219 1.331 . S
C219 C217 1.388 1_455 S
C219 N218 1.331 . S
O220 Zn213 1.975 . S
O220 C221 1.252 1_554 S
C221 O220 1.252 1_556 S
C221 O222 1.252 . S
O222 Zn204 1.975 1_455 S
O222 C221 1.252 . S
H223 C216 0.930 . S
H224 C217 0.937 . S
C225 C226 1.392 . S
C225 N229 1.328 . S
C225 H231 0.930 . S
C226 C225 1.392 . S
C226 N230 1.331 . S
C227 C228 1.391 . S
C227 N230 1.329 . S
C227 H237 0.930 . S
C228 C227 1.391 . S
C228 N229 1.334 . S
C228 H235 0.930 . S
N229 Zn213 2.119 . S
N229 C225 1.328 . S
N229 C228 1.334 . S
N230 C226 1.331 . S
N230 C227 1.329 . S
H231 C225 0.930 . S
C232 O212 1.257 . S
C232 O233 1.244 . S
O233 C232 1.244 . S
O234 C210 1.257 . S
O234 Zn213 2.019 . S
H235 C228 0.930 . S
H236 C215 0.930 . S
H237 C227 0.930 . S
Zn238 N242 2.020 . S
Zn238 O246 2.019 . S
Zn238 N248 2.119 . S
Zn238 O256 1.975 . S
C239 N240 1.334 . S
C239 N243 1.336 . S
N240 C239 1.334 . S
N240 C241 1.334 . S
C241 N240 1.334 . S
C241 N242 1.336 . S
N242 Zn238 2.020 . S
N242 C241 1.336 . S
N242 N243 1.354 . S
N243 C239 1.336 . S
N243 N242 1.354 . S
N243 Zn247 2.020 . S
C244 O245 1.244 . S
C244 O268 1.257 . S
O245 C244 1.244 . S
O246 Zn238 2.019 . S
O246 C266 1.257 . S
Zn247 N243 2.020 . S
Zn247 O254 1.975 . S
Zn247 N263 2.119 . S
Zn247 O268 2.019 . S
N248 Zn238 2.119 . S
N248 C250 1.334 . S
N248 C251 1.328 . S
C249 C250 1.391 . S
C249 N252 1.329 . S
C249 H270 0.930 . S
C250 N248 1.334 . S
C250 C249 1.391 . S
C250 H257 0.930 . S
C251 N248 1.328 . S
C251 C253 1.392 . S
C251 H258 0.930 . S
N252 C249 1.329 . S
N252 C253 1.331 . S
C253 C251 1.392 . S
C253 N252 1.331 . S
O254 Zn247 1.975 . S
O254 C255 1.252 . S
C255 O254 1.252 . S
C255 O256 1.252 . S
O256 Zn238 1.975 . S
O256 C255 1.252 . S
H257 C250 0.930 . S
H258 C251 0.930 . S
C259 C260 1.392 1_554 S
C259 N263 1.328 . S
C259 H265 0.930 . S
C260 C259 1.392 1_556 S
C260 N264 1.331 . S
C261 C262 1.391 . S
C261 N264 1.329 1_554 S
C261 H271 0.930 . S
C262 C261 1.391 . S
C262 N263 1.334 . S
C262 H269 0.930 . S
N263 Zn247 2.119 . S
N263 C259 1.328 . S
N263 C262 1.334 . S
N264 C260 1.331 . S
N264 C261 1.329 1_556 S
H265 C259 0.930 . S
C266 O246 1.257 . S
C266 O267 1.244 . S
O267 C266 1.244 . S
O268 C244 1.257 . S
O268 Zn247 2.019 . S
H269 C262 0.930 . S
H270 C249 0.930 . S
H271 C261 0.930 . S
H272 C278 0.930 1_554 S
H273 C282 0.930 . S
H274 C287 0.929 . S
H275 C285 0.929 1_554 S
H276 C280 0.929 1_655 S
H277 C286 0.929 1_554 S
C278 H272 0.930 1_556 S
C278 C279 1.367 . S
C278 C286 1.378 1_655 S
C279 C278 1.367 . S
C279 C287 1.433 . S
C280 H276 0.929 1_455 S
C280 C282 1.378 . S
C280 C284 1.350 . S
C281 C284 1.463 1_665 S
C281 C286 1.350 1_655 S
C281 N289 1.427 . S
C282 H273 0.930 . S
C282 C280 1.378 . S
C282 C283 1.367 . S
C283 C282 1.367 . S
C283 C285 1.433 . S
C284 C280 1.350 . S
C284 C281 1.463 1_445 S
C284 N288 1.427 . S
C285 H275 0.929 1_556 S
C285 C283 1.433 . S
C285 N288 1.384 . S
C286 H277 0.929 1_556 S
C286 C278 1.378 1_455 S
C286 C281 1.350 1_455 S
C287 H274 0.929 . S
C287 C279 1.433 . S
C287 N289 1.384 . S
N288 C284 1.427 . S
N288 C285 1.384 . S
N289 C281 1.427 . S
N289 C287 1.384 . S
H290 C296 0.930 . S
H291 C300 0.930 . S
H292 C305 0.929 . S
H293 C303 0.929 . S
H294 C298 0.929 . S
H295 C304 0.929 . S
C296 H290 0.930 . S
C296 C297 1.367 . S
C296 C304 1.378 . S
C297 C296 1.367 . S
C297 C305 1.433 . S
C298 H294 0.929 . S
C298 C300 1.378 . S
C298 C302 1.350 . S
C299 C302 1.463 1_655 S
C299 C304 1.350 . S
C299 N307 1.427 . S
C300 H291 0.930 . S
C300 C298 1.378 . S
C300 C301 1.367 . S
C301 C300 1.367 . S
C301 C303 1.433 . S
C302 C298 1.350 . S
C302 C299 1.463 1_455 S
C302 N306 1.427 . S
C303 H293 0.929 . S
C303 C301 1.433 . S
C303 N306 1.384 . S
C304 H295 0.929 . S
C304 C296 1.378 . S
C304 C299 1.350 . S
C305 H292 0.929 . S
C305 C297 1.433 . S
C305 N307 1.384 . S
N306 C302 1.427 . S
N306 C303 1.384 . S
N307 C299 1.427 . S
N307 C305 1.384 . S
H308 C314 0.930 . S
H309 C318 0.930 . S
H310 C323 0.929 . S
H311 C321 0.929 . S
H312 C316 0.929 . S
H313 C322 0.929 . S
C314 H308 0.930 . S
C314 C315 1.367 . S
C314 C322 1.378 . S
C315 C314 1.367 . S
C315 C323 1.433 . S
C316 H312 0.929 . S
C316 C318 1.378 . S
C316 C320 1.350 . S
C317 C320 1.463 . S
C317 C322 1.350 . S
C317 N325 1.427 . S
C318 H309 0.930 . S
C318 C316 1.378 . S
C318 C319 1.367 . S
C319 C318 1.367 . S
C319 C321 1.433 . S
C320 C316 1.350 . S
C320 C317 1.463 . S
C320 N324 1.427 . S
C321 H311 0.929 . S
C321 C319 1.433 . S
C321 N324 1.384 . S
C322 H313 0.929 . S
C322 C314 1.378 . S
C322 C317 1.350 . S
C323 H310 0.929 . S
C323 C315 1.433 . S
C323 N325 1.384 . S
N324 C320 1.427 . S
N324 C321 1.384 . S
N325 C317 1.427 . S
N325 C323 1.384 . S
H326 C332 0.930 . S
H327 C336 0.930 1_565 S
H328 C341 0.929 . S
H329 C339 0.929 . S
H330 C334 0.929 . S
H331 C340 0.929 . S
C332 H326 0.930 . S
C332 C333 1.367 1_545 S
C332 C340 1.378 . S
C333 C332 1.367 1_565 S
C333 C341 1.433 . S
C334 H330 0.929 . S
C334 C336 1.378 1_565 S
C334 C338 1.350 1_565 S
C335 C338 1.463 1_565 S
C335 C340 1.350 1_565 S
C335 N343 1.427 . S
C336 H327 0.930 1_545 S
C336 C334 1.378 1_545 S
C336 C337 1.367 . S
C337 C336 1.367 . S
C337 C339 1.433 . S
C338 C334 1.350 1_545 S
C338 C335 1.463 1_545 S
C338 N342 1.427 . S
C339 H329 0.929 . S
C339 C337 1.433 . S
C339 N342 1.384 . S
C340 H331 0.929 . S
C340 C332 1.378 . S
C340 C335 1.350 1_545 S
C341 H328 0.929 . S
C341 C333 1.433 . S
C341 N343 1.384 . S
N342 C338 1.427 . S
N342 C339 1.384 . S
N343 C335 1.427 . S
N343 C341 1.384 . S
H344 C350 0.930 . S
H345 C354 0.930 . S
H346 C359 0.929 . S
H347 C357 0.929 1_554 S
H348 C352 0.929 . S
H349 C358 0.929 . S
C350 H344 0.930 . S
C350 C351 1.367 . S
C350 C358 1.378 . S
C351 C350 1.367 . S
C351 C359 1.433 . S
C352 H348 0.929 . S
C352 C354 1.378 . S
C352 C356 1.350 . S
C353 C356 1.463 . S
C353 C358 1.350 . S
C353 N361 1.427 . S
C354 H345 0.930 . S
C354 C352 1.378 . S
C354 C355 1.367 . S
C355 C354 1.367 . S
C355 C357 1.433 . S
C356 C352 1.350 . S
C356 C353 1.463 . S
C356 N360 1.427 . S
C357 H347 0.929 1_556 S
C357 C355 1.433 . S
C357 N360 1.384 . S
C358 H349 0.929 . S
C358 C350 1.378 . S
C358 C353 1.350 . S
C359 H346 0.929 . S
C359 C351 1.433 . S
C359 N361 1.384 . S
N360 C356 1.427 . S
N360 C357 1.384 . S
N361 C353 1.427 . S
N361 C359 1.384 . S
H362 C368 0.930 . S
H363 C372 0.930 . S
H364 C377 0.929 . S
H365 C375 0.929 . S
H366 C370 0.929 . S
H367 C376 0.929 . S
C368 H362 0.930 . S
C368 C369 1.367 . S
C368 C376 1.378 . S
C369 C368 1.367 . S
C369 C377 1.433 . S
C370 H366 0.929 . S
C370 C372 1.378 . S
C370 C374 1.350 . S
C371 C374 1.463 . S
C371 C376 1.350 . S
C371 N379 1.427 . S
C372 H363 0.930 . S
C372 C370 1.378 . S
C372 C373 1.367 . S
C373 C372 1.367 . S
C373 C375 1.433 . S
C374 C370 1.350 . S
C374 C371 1.463 . S
C374 N378 1.427 . S
C375 H365 0.929 . S
C375 C373 1.433 . S
C375 N378 1.384 . S
C376 H367 0.929 . S
C376 C368 1.378 . S
C376 C371 1.350 . S
C377 H364 0.929 . S
C377 C369 1.433 . S
C377 N379 1.384 . S
N378 C374 1.427 . S
N378 C375 1.384 . S
N379 C371 1.427 . S
N379 C377 1.384 . S
H380 C386 0.930 . S
H381 C390 0.930 . S
H382 C395 0.929 . S
H383 C393 0.929 . S
H384 C388 0.929 . S
H385 C394 0.929 . S
C386 H380 0.930 . S
C386 C387 1.367 . S
C386 C394 1.378 . S
C387 C386 1.367 . S
C387 C395 1.433 . S
C388 H384 0.929 . S
C388 C390 1.378 . S
C388 C392 1.350 . S
C389 C392 1.463 . S
C389 C394 1.350 . S
C389 N397 1.427 . S
C390 H381 0.930 . S
C390 C388 1.378 . S
C390 C391 1.367 . S
C391 C390 1.367 . S
C391 C393 1.433 . S
C392 C388 1.350 . S
C392 C389 1.463 . S
C392 N396 1.427 . S
C393 H383 0.929 . S
C393 C391 1.433 . S
C393 N396 1.384 . S
C394 H385 0.929 . S
C394 C386 1.378 . S
C394 C389 1.350 . S
C395 H382 0.929 . S
C395 C387 1.433 . S
C395 N397 1.384 . S
N396 C392 1.427 . S
N396 C393 1.384 . S
N397 C389 1.427 . S
N397 C395 1.384 . S
H398 C404 0.930 . S
H399 C408 0.930 . S
H400 C413 0.929 . S
H401 C411 0.929 . S
H402 C406 0.929 . S
H403 C412 0.929 . S
C404 H398 0.930 . S
C404 C405 1.367 . S
C404 C412 1.378 . S
C405 C404 1.367 . S
C405 C413 1.433 . S
C406 H402 0.929 . S
C406 C408 1.378 . S
C406 C410 1.350 . S
C407 C410 1.463 . S
C407 C412 1.350 . S
C407 N415 1.427 . S
C408 H399 0.930 . S
C408 C406 1.378 . S
C408 C409 1.367 . S
C409 C408 1.367 . S
C409 C411 1.433 . S
C410 C406 1.350 . S
C410 C407 1.463 . S
C410 N414 1.427 . S
C411 H401 0.929 . S
C411 C409 1.433 . S
C411 N414 1.384 . S
C412 H403 0.929 . S
C412 C404 1.378 . S
C412 C407 1.350 . S
C413 H400 0.929 . S
C413 C405 1.433 . S
C413 N415 1.384 . S
N414 C410 1.427 . S
N414 C411 1.384 . S
N415 C407 1.427 . S
N415 C413 1.384 . S
H416 C422 0.930 . S
H417 C426 0.930 . S
H418 C431 0.929 . S
H419 C429 0.929 . S
H420 C424 0.929 . S
H421 C430 0.929 . S
C422 H416 0.930 . S
C422 C423 1.367 . S
C422 C430 1.378 . S
C423 C422 1.367 . S
C423 C431 1.433 . S
C424 H420 0.929 . S
C424 C426 1.378 . S
C424 C428 1.350 . S
C425 C428 1.463 . S
C425 C430 1.350 . S
C425 N433 1.427 . S
C426 H417 0.930 . S
C426 C424 1.378 . S
C426 C427 1.367 . S
C427 C426 1.367 . S
C427 C429 1.433 . S
C428 C424 1.350 . S
C428 C425 1.463 . S
C428 N432 1.427 . S
C429 H419 0.929 . S
C429 C427 1.433 . S
C429 N432 1.384 . S
C430 H421 0.929 . S
C430 C422 1.378 . S
C430 C425 1.350 . S
C431 H418 0.929 . S
C431 C423 1.433 . S
C431 N433 1.384 . S
N432 C428 1.427 . S
N432 C429 1.384 . S
N433 C425 1.427 . S
N433 C431 1.384 . S
H434 C440 0.930 . S
H435 C444 0.930 . S
H436 C449 0.929 . S
H437 C447 0.929 . S
H438 C442 0.929 . S
H439 C448 0.929 . S
C440 H434 0.930 . S
C440 C441 1.367 . S
C440 C448 1.378 . S
C441 C440 1.367 . S
C441 C449 1.433 . S
C442 H438 0.929 . S
C442 C444 1.378 . S
C442 C446 1.350 . S
C443 C446 1.463 . S
C443 C448 1.350 . S
C443 N451 1.427 . S
C444 H435 0.930 . S
C444 C442 1.378 . S
C444 C445 1.367 . S
C445 C444 1.367 . S
C445 C447 1.433 . S
C446 C442 1.350 . S
C446 C443 1.463 . S
C446 N450 1.427 . S
C447 H437 0.929 . S
C447 C445 1.433 . S
C447 N450 1.384 . S
C448 H439 0.929 . S
C448 C440 1.378 . S
C448 C443 1.350 . S
C449 H436 0.929 . S
C449 C441 1.433 . S
C449 N451 1.384 . S
N450 C446 1.427 . S
N450 C447 1.384 . S
N451 C443 1.427 . S
N451 C449 1.384 . S
H452 C458 0.930 . S
H453 C462 0.930 . S
H454 C467 0.929 . S
H455 C465 0.929 . S
H456 C460 0.929 . S
H457 C466 0.929 . S
C458 H452 0.930 . S
C458 C459 1.367 . S
C458 C466 1.378 . S
C459 C458 1.367 . S
C459 C467 1.433 . S
C460 H456 0.929 . S
C460 C462 1.378 . S
C460 C464 1.350 . S
C461 C464 1.463 . S
C461 C466 1.350 . S
C461 N469 1.427 . S
C462 H453 0.930 . S
C462 C460 1.378 . S
C462 C463 1.367 . S
C463 C462 1.367 . S
C463 C465 1.433 . S
C464 C460 1.350 . S
C464 C461 1.463 . S
C464 N468 1.427 . S
C465 H455 0.929 . S
C465 C463 1.433 . S
C465 N468 1.384 . S
C466 H457 0.929 . S
C466 C458 1.378 . S
C466 C461 1.350 . S
C467 H454 0.929 . S
C467 C459 1.433 . S
C467 N469 1.384 . S
N468 C464 1.427 . S
N468 C465 1.384 . S
N469 C461 1.427 . S
N469 C467 1.384 . S
H470 C476 0.930 . S
H471 C480 0.930 . S
H472 C485 0.929 . S
H473 C483 0.929 . S
H474 C478 0.929 . S
H475 C484 0.929 . S
C476 H470 0.930 . S
C476 C477 1.367 . S
C476 C484 1.378 . S
C477 C476 1.367 . S
C477 C485 1.433 . S
C478 H474 0.929 . S
C478 C480 1.378 . S
C478 C482 1.350 . S
C479 C482 1.463 . S
C479 C484 1.350 . S
C479 N487 1.427 . S
C480 H471 0.930 . S
C480 C478 1.378 . S
C480 C481 1.367 . S
C481 C480 1.367 . S
C481 C483 1.433 . S
C482 C478 1.350 . S
C482 C479 1.463 . S
C482 N486 1.427 . S
C483 H473 0.929 . S
C483 C481 1.433 . S
C483 N486 1.384 . S
C484 H475 0.929 . S
C484 C476 1.378 . S
C484 C479 1.350 . S
C485 H472 0.929 . S
C485 C477 1.433 . S
C485 N487 1.384 . S
N486 C482 1.427 . S
N486 C483 1.384 . S
N487 C479 1.427 . S
N487 C485 1.384 . S
H488 C494 0.930 . S
H489 C498 0.930 . S
H490 C503 0.929 . S
H491 C501 0.929 . S
H492 C496 0.929 . S
H493 C502 0.929 . S
C494 H488 0.930 . S
C494 C495 1.367 . S
C494 C502 1.378 . S
C495 C494 1.367 . S
C495 C503 1.433 . S
C496 H492 0.929 . S
C496 C498 1.378 . S
C496 C500 1.350 . S
C497 C500 1.463 . S
C497 C502 1.350 . S
C497 N505 1.427 . S
C498 H489 0.930 . S
C498 C496 1.378 . S
C498 C499 1.367 . S
C499 C498 1.367 . S
C499 C501 1.433 . S
C500 C496 1.350 . S
C500 C497 1.463 . S
C500 N504 1.427 . S
C501 H491 0.929 . S
C501 C499 1.433 . S
C501 N504 1.384 . S
C502 H493 0.929 . S
C502 C494 1.378 . S
C502 C497 1.350 . S
C503 H490 0.929 . S
C503 C495 1.433 . S
C503 N505 1.384 . S
N504 C500 1.427 . S
N504 C501 1.384 . S
N505 C497 1.427 . S
N505 C503 1.384 . S
H506 C512 0.930 . S
H507 C516 0.930 . S
H508 C521 0.929 . S
H509 C519 0.929 . S
H510 C514 0.929 . S
H511 C520 0.929 . S
C512 H506 0.930 . S
C512 C513 1.367 . S
C512 C520 1.378 . S
C513 C512 1.367 . S
C513 C521 1.433 . S
C514 H510 0.929 . S
C514 C516 1.378 . S
C514 C518 1.350 . S
C515 C518 1.463 . S
C515 C520 1.350 . S
C515 N523 1.427 . S
C516 H507 0.930 . S
C516 C514 1.378 . S
C516 C517 1.367 . S
C517 C516 1.367 . S
C517 C519 1.433 . S
C518 C514 1.350 . S
C518 C515 1.463 . S
C518 N522 1.427 . S
C519 H509 0.929 . S
C519 C517 1.433 . S
C519 N522 1.384 . S
C520 H511 0.929 . S
C520 C512 1.378 . S
C520 C515 1.350 . S
C521 H508 0.929 . S
C521 C513 1.433 . S
C521 N523 1.384 . S
N522 C518 1.427 . S
N522 C519 1.384 . S
N523 C515 1.427 . S
N523 C521 1.384 . S
H524 C530 0.930 . S
H525 C534 0.930 . S
H526 C539 0.929 . S
H527 C537 0.929 1_554 S
H528 C532 0.929 . S
H529 C538 0.929 . S
C530 H524 0.930 . S
C530 C531 1.367 . S
C530 C538 1.378 . S
C531 C530 1.367 . S
C531 C539 1.433 . S
C532 H528 0.929 . S
C532 C534 1.378 . S
C532 C536 1.350 . S
C533 C536 1.463 . S
C533 C538 1.350 . S
C533 N541 1.427 . S
C534 H525 0.930 . S
C534 C532 1.378 . S
C534 C535 1.367 . S
C535 C534 1.367 . S
C535 C537 1.433 . S
C536 C532 1.350 . S
C536 C533 1.463 . S
C536 N540 1.427 . S
C537 H527 0.929 1_556 S
C537 C535 1.433 . S
C537 N540 1.384 . S
C538 H529 0.929 . S
C538 C530 1.378 . S
C538 C533 1.350 . S
C539 H526 0.929 . S
C539 C531 1.433 . S
C539 N541 1.384 . S
N540 C536 1.427 . S
N540 C537 1.384 . S
N541 C533 1.427 . S
N541 C539 1.384 . S
H542 C548 0.930 . S
H543 C552 0.930 . S
H544 C557 0.929 . S
H545 C555 0.929 . S
H546 C550 0.929 . S
H547 C556 0.929 . S
C548 H542 0.930 . S
C548 C549 1.367 . S
C548 C556 1.378 . S
C549 C548 1.367 . S
C549 C557 1.433 . S
C550 H546 0.929 . S
C550 C552 1.378 . S
C550 C554 1.350 . S
C551 C554 1.463 . S
C551 C556 1.350 . S
C551 N559 1.427 . S
C552 H543 0.930 . S
C552 C550 1.378 . S
C552 C553 1.367 . S
C553 C552 1.367 . S
C553 C555 1.433 . S
C554 C550 1.350 . S
C554 C551 1.463 . S
C554 N558 1.427 . S
C555 H545 0.929 . S
C555 C553 1.433 . S
C555 N558 1.384 . S
C556 H547 0.929 . S
C556 C548 1.378 . S
C556 C551 1.350 . S
C557 H544 0.929 . S
C557 C549 1.433 . S
C557 N559 1.384 . S
N558 C554 1.427 . S
N558 C555 1.384 . S
N559 C551 1.427 . S
N559 C557 1.384 . S
H560 C566 0.930 . S
H561 C570 0.930 . S
H562 C575 0.929 . S
H563 C573 0.929 . S
H564 C568 0.929 . S
H565 C574 0.929 . S
C566 H560 0.930 . S
C566 C567 1.367 . S
C566 C574 1.378 . S
C567 C566 1.367 . S
C567 C575 1.433 . S
C568 H564 0.929 . S
C568 C570 1.378 . S
C568 C572 1.350 . S
C569 C572 1.463 . S
C569 C574 1.350 . S
C569 N577 1.427 . S
C570 H561 0.930 . S
C570 C568 1.378 . S
C570 C571 1.367 . S
C571 C570 1.367 . S
C571 C573 1.433 . S
C572 C568 1.350 . S
C572 C569 1.463 . S
C572 N576 1.427 . S
C573 H563 0.929 . S
C573 C571 1.433 . S
C573 N576 1.384 . S
C574 H565 0.929 . S
C574 C566 1.378 . S
C574 C569 1.350 . S
C575 H562 0.929 . S
C575 C567 1.433 . S
C575 N577 1.384 . S
N576 C572 1.427 . S
N576 C573 1.384 . S
N577 C569 1.427 . S
N577 C575 1.384 . S
H578 C584 0.930 . S
H579 C588 0.930 . S
H580 C593 0.929 . S
H581 C591 0.929 . S
H582 C586 0.929 . S
H583 C592 0.929 . S
C584 H578 0.930 . S
C584 C585 1.367 . S
C584 C592 1.378 . S
C585 C584 1.367 . S
C585 C593 1.433 . S
C586 H582 0.929 . S
C586 C588 1.378 . S
C586 C590 1.350 . S
C587 C590 1.463 . S
C587 C592 1.350 . S
C587 N595 1.427 . S
C588 H579 0.930 . S
C588 C586 1.378 . S
C588 C589 1.367 . S
C589 C588 1.367 . S
C589 C591 1.433 . S
C590 C586 1.350 . S
C590 C587 1.463 . S
C590 N594 1.427 . S
C591 H581 0.929 . S
C591 C589 1.433 . S
C591 N594 1.384 . S
C592 H583 0.929 . S
C592 C584 1.378 . S
C592 C587 1.350 . S
C593 H580 0.929 . S
C593 C585 1.433 . S
C593 N595 1.384 . S
N594 C590 1.427 . S
N594 C591 1.384 . S
N595 C587 1.427 . S
N595 C593 1.384 . S
H596 C602 0.930 1_554 S
H597 C606 0.930 . S
H598 C611 0.929 . S
H599 C609 0.929 . S
H600 C604 0.929 . S
H601 C610 0.929 . S
C602 H596 0.930 1_556 S
C602 C603 1.367 . S
C602 C610 1.378 . S
C603 C602 1.367 . S
C603 C611 1.433 . S
C604 H600 0.929 . S
C604 C606 1.378 . S
C604 C608 1.350 . S
C605 C608 1.463 . S
C605 C610 1.350 . S
C605 N613 1.427 . S
C606 H597 0.930 . S
C606 C604 1.378 . S
C606 C607 1.367 . S
C607 C606 1.367 . S
C607 C609 1.433 . S
C608 C604 1.350 . S
C608 C605 1.463 . S
C608 N612 1.427 . S
C609 H599 0.929 . S
C609 C607 1.433 . S
C609 N612 1.384 . S
C610 H601 0.929 . S
C610 C602 1.378 . S
C610 C605 1.350 . S
C611 H598 0.929 . S
C611 C603 1.433 . S
C611 N613 1.384 . S
N612 C608 1.427 . S
N612 C609 1.384 . S
N613 C605 1.427 . S
N613 C611 1.384 . S
H614 C620 0.930 . S
H615 C624 0.930 . S
H616 C629 0.929 . S
H617 C627 0.929 . S
H618 C622 0.929 . S
H619 C628 0.929 . S
C620 H614 0.930 . S
C620 C621 1.367 . S
C620 C628 1.378 . S
C621 C620 1.367 . S
C621 C629 1.433 . S
C622 H618 0.929 . S
C622 C624 1.378 . S
C622 C626 1.350 . S
C623 C626 1.463 . S
C623 C628 1.350 . S
C623 N631 1.427 . S
C624 H615 0.930 . S
C624 C622 1.378 . S
C624 C625 1.367 . S
C625 C624 1.367 . S
C625 C627 1.433 . S
C626 C622 1.350 . S
C626 C623 1.463 . S
C626 N630 1.427 . S
C627 H617 0.929 . S
C627 C625 1.433 . S
C627 N630 1.384 . S
C628 H619 0.929 . S
C628 C620 1.378 . S
C628 C623 1.350 . S
C629 H616 0.929 . S
C629 C621 1.433 . S
C629 N631 1.384 . S
N630 C626 1.427 . S
N630 C627 1.384 . S
N631 C623 1.427 . S
N631 C629 1.384 . S
H632 C638 0.930 . S
H633 C642 0.930 . S
H634 C647 0.929 . S
H635 C645 0.929 . S
H636 C640 0.929 . S
H637 C646 0.929 . S
C638 H632 0.930 . S
C638 C639 1.367 . S
C638 C646 1.378 . S
C639 C638 1.367 . S
C639 C647 1.433 . S
C640 H636 0.929 . S
C640 C642 1.378 . S
C640 C644 1.350 . S
C641 C644 1.463 . S
C641 C646 1.350 . S
C641 N649 1.427 . S
C642 H633 0.930 . S
C642 C640 1.378 . S
C642 C643 1.361 1_655 S
C643 C642 1.361 1_455 S
C643 C645 1.435 . S
C644 C640 1.350 . S
C644 C641 1.463 . S
C644 N648 1.427 . S
C645 H635 0.929 . S
C645 C643 1.435 . S
C645 N648 1.384 1_455 S
C646 H637 0.929 . S
C646 C638 1.378 . S
C646 C641 1.350 . S
C647 H634 0.929 . S
C647 C639 1.433 . S
C647 N649 1.384 . S
N648 C644 1.427 . S
N648 C645 1.384 1_655 S
N649 C641 1.427 . S
N649 C647 1.384 . S
H650 C656 0.930 . S
H651 C660 0.930 . S
H652 C665 0.929 . S
H653 C663 0.929 . S
H654 C658 0.929 . S
H655 C664 0.929 . S
C656 H650 0.930 . S
C656 C657 1.367 . S
C656 C664 1.378 . S
C657 C656 1.367 . S
C657 C665 1.433 . S
C658 H654 0.929 . S
C658 C660 1.378 . S
C658 C662 1.350 . S
C659 C662 1.463 . S
C659 C664 1.350 . S
C659 N667 1.427 . S
C660 H651 0.930 . S
C660 C658 1.378 . S
C660 C661 1.367 . S
C661 C660 1.367 . S
C661 C663 1.433 . S
C662 C658 1.350 . S
C662 C659 1.463 . S
C662 N666 1.427 . S
C663 H653 0.929 . S
C663 C661 1.433 . S
C663 N666 1.384 . S
C664 H655 0.929 . S
C664 C656 1.378 . S
C664 C659 1.350 . S
C665 H652 0.929 . S
C665 C657 1.433 . S
C665 N667 1.384 . S
N666 C662 1.427 . S
N666 C663 1.384 . S
N667 C659 1.427 . S
N667 C665 1.384 . S
H668 C674 0.930 . S
H669 C678 0.930 . S
H670 C683 0.929 . S
H671 C681 0.929 . S
H672 C676 0.929 . S
H673 C682 0.929 . S
C674 H668 0.930 . S
C674 C675 1.367 . S
C674 C682 1.378 . S
C675 C674 1.367 . S
C675 C683 1.433 . S
C676 H672 0.929 . S
C676 C678 1.378 . S
C676 C680 1.350 . S
C677 C680 1.463 1_556 S
C677 C682 1.350 . S
C677 N685 1.427 . S
C678 H669 0.930 . S
C678 C676 1.378 . S
C678 C679 1.367 . S
C679 C678 1.367 . S
C679 C681 1.433 . S
C680 C676 1.350 . S
C680 C677 1.463 1_554 S
C680 N684 1.427 . S
C681 H671 0.929 . S
C681 C679 1.433 . S
C681 N684 1.384 . S
C682 H673 0.929 . S
C682 C674 1.378 . S
C682 C677 1.350 . S
C683 H670 0.929 . S
C683 C675 1.433 . S
C683 N685 1.384 . S
N684 C680 1.427 . S
N684 C681 1.384 . S
N685 C677 1.427 . S
N685 C683 1.384 . S
H686 C692 0.930 . S
H687 C696 0.930 . S
H688 C701 0.929 . S
H689 C699 0.929 1_565 S
H690 C694 0.929 . S
H691 C700 0.929 . S
C692 H686 0.930 . S
C692 C693 1.367 1_565 S
C692 C700 1.378 . S
C693 C692 1.367 1_545 S
C693 C701 1.433 . S
C694 H690 0.929 . S
C694 C696 1.378 . S
C694 C698 1.350 . S
C695 C698 1.463 . S
C695 C700 1.350 1_545 S
C695 N703 1.427 . S
C696 H687 0.930 . S
C696 C694 1.378 . S
C696 C697 1.367 . S
C697 C696 1.367 . S
C697 C699 1.433 . S
C698 C694 1.350 . S
C698 C695 1.463 . S
C698 N702 1.427 1_545 S
C699 H689 0.929 1_545 S
C699 C697 1.433 . S
C699 N702 1.384 1_545 S
C700 H691 0.929 . S
C700 C692 1.378 . S
C700 C695 1.350 1_565 S
C701 H688 0.929 . S
C701 C693 1.433 . S
C701 N703 1.384 . S
N702 C698 1.427 1_565 S
N702 C699 1.384 1_565 S
N703 C695 1.427 . S
N703 C701 1.384 . S
H704 C710 0.930 . S
H705 C714 0.930 . S
H706 C719 0.929 . S
H707 C717 0.929 . S
H708 C712 0.929 . S
H709 C718 0.929 . S
C710 H704 0.930 . S
C710 C711 1.367 . S
C710 C718 1.378 . S
C711 C710 1.367 . S
C711 C719 1.433 . S
C712 H708 0.929 . S
C712 C714 1.378 . S
C712 C716 1.350 . S
C713 C716 1.463 1_554 S
C713 C718 1.350 . S
C713 N721 1.427 . S
C714 H705 0.930 . S
C714 C712 1.378 . S
C714 C715 1.367 . S
C715 C714 1.367 . S
C715 C717 1.433 . S
C716 C712 1.350 . S
C716 C713 1.463 1_556 S
C716 N720 1.427 . S
C717 H707 0.929 . S
C717 C715 1.433 . S
C717 N720 1.384 . S
C718 H709 0.929 . S
C718 C710 1.378 . S
C718 C713 1.350 . S
C719 H706 0.929 . S
C719 C711 1.433 . S
C719 N721 1.384 . S
N720 C716 1.427 . S
N720 C717 1.384 . S
N721 C713 1.427 . S
N721 C719 1.384 . S
H722 C728 0.930 . S
H723 C732 0.930 . S
H724 C737 0.929 . S
H725 C735 0.929 . S
H726 C730 0.929 . S
H727 C736 0.929 . S
C728 H722 0.930 . S
C728 C729 1.367 . S
C728 C736 1.378 . S
C729 C728 1.367 . S
C729 C737 1.433 1_545 S
C730 H726 0.929 . S
C730 C732 1.378 . S
C730 C734 1.350 . S
C731 C734 1.463 . S
C731 C736 1.350 1_565 S
C731 N739 1.427 . S
C732 H723 0.930 . S
C732 C730 1.378 . S
C732 C733 1.367 . S
C733 C732 1.367 . S
C733 C735 1.433 1_565 S
C734 C730 1.350 . S
C734 C731 1.463 . S
C734 N738 1.427 1_565 S
C735 H725 0.929 . S
C735 C733 1.433 1_545 S
C735 N738 1.384 . S
C736 H727 0.929 . S
C736 C728 1.378 . S
C736 C731 1.350 1_545 S
C737 H724 0.929 . S
C737 C729 1.433 1_565 S
C737 N739 1.384 . S
N738 C734 1.427 1_545 S
N738 C735 1.384 . S
N739 C731 1.427 . S
N739 C737 1.384 . S
H740 C746 0.930 . S
H741 C750 0.930 . S
H742 C755 0.929 . S
H743 C753 0.929 . S
H744 C748 0.929 . S
H745 C754 0.929 . S
C746 H740 0.930 . S
C746 C747 1.367 . S
C746 C754 1.378 . S
C747 C746 1.367 . S
C747 C755 1.433 . S
C748 H744 0.929 . S
C748 C750 1.378 . S
C748 C752 1.350 . S
C749 C752 1.463 . S
C749 C754 1.350 . S
C749 N757 1.427 . S
C750 H741 0.930 . S
C750 C748 1.378 . S
C750 C751 1.367 . S
C751 C750 1.367 . S
C751 C753 1.433 1_455 S
C752 C748 1.350 . S
C752 C749 1.463 . S
C752 N756 1.427 . S
C753 H743 0.929 . S
C753 C751 1.433 1_655 S
C753 N756 1.384 1_655 S
C754 H745 0.929 . S
C754 C746 1.378 . S
C754 C749 1.350 . S
C755 H742 0.929 . S
C755 C747 1.433 . S
C755 N757 1.384 . S
N756 C752 1.427 . S
N756 C753 1.384 1_455 S
N757 C749 1.427 . S
N757 C755 1.384 . S
H758 C764 0.930 . S
H759 C768 0.930 . S
H760 C773 0.929 . S
H761 C771 0.929 . S
H762 C766 0.929 . S
H763 C772 0.929 . S
C764 H758 0.930 . S
C764 C765 1.367 . S
C764 C772 1.378 . S
C765 C764 1.367 . S
C765 C773 1.433 . S
C766 H762 0.929 . S
C766 C768 1.378 . S
C766 C770 1.350 . S
C767 C770 1.463 . S
C767 C772 1.350 . S
C767 N775 1.427 . S
C768 H759 0.930 . S
C768 C766 1.378 . S
C768 C769 1.367 . S
C769 C768 1.367 . S
C769 C771 1.433 . S
C770 C766 1.350 . S
C770 C767 1.463 . S
C770 N774 1.427 . S
C771 H761 0.929 . S
C771 C769 1.433 . S
C771 N774 1.384 . S
C772 H763 0.929 . S
C772 C764 1.378 . S
C772 C767 1.350 . S
C773 H760 0.929 . S
C773 C765 1.433 . S
C773 N775 1.384 . S
N774 C770 1.427 . S
N774 C771 1.384 . S
N775 C767 1.427 . S
N775 C773 1.384 . S
C279 C232 0.496 . S
C283 C28 0.508 . S
C297 C62 0.529 . S
C301 C244 0.519 . S
C315 C164 0.489 . S
C319 C96 0.495 . S
C333 C108 0.489 . S
C337 C198 0.497 . S
C351 C171 2.078 . S
C355 C3 2.117 . S
C369 C37 2.114 . S
C373 C205 2.069 . S
C387 C71 2.112 . S
C391 C241 2.071 . S
C405 C103 2.112 . S
C409 C137 2.070 . S
C423 C130 1.518 . S
C427 C17 1.490 . S
C441 C51 1.502 . S
C445 C6 1.526 . S
C459 C40 1.522 . S
C463 C85 1.496 . S
C477 C119 1.492 . S
C481 C74 1.520 . S
C495 C35 2.069 . S
C499 C139 2.113 . S
C513 C69 2.075 . S
C517 C173 2.119 . S
C531 C105 2.079 . S
C535 C207 2.117 . S
C549 C239 2.119 . S
C553 C1 2.073 . S
C567 C266 1.523 . S
C571 C153 1.497 . S
C585 C187 1.495 . S
C589 C142 1.521 . S
C603 C221 1.495 . S
C607 C176 1.522 . S
C621 C210 1.526 . S
C625 C255 1.501 . S
C639 C22 1.395 . S
C643 C15 1.398 . S
C657 C49 1.420 . S
C661 C56 1.417 . S
C675 C90 1.415 . S
C679 C83 1.418 . S
C693 C124 1.417 . S
C697 C117 1.415 . S
C711 C151 1.415 . S
C715 C158 1.411 . S
C729 C185 1.419 . S
C733 C192 1.416 . S
C747 C226 1.394 . S
C751 C219 1.398 . S
C765 C253 1.407 . S
C769 C260 1.409 . S
