# Generated by pormake.
# Topology zfv, (5)-cn, num edge types: 1
# Building blocks:
#     Node 0, Type 0, BuildingBlock: XOMCOT_clean_sbu_0, # of connection points: 5
#     Node 1, Type 0, BuildingBlock: XOMCOT_clean_sbu_0, # of connection points: 5
#     Node 2, Type 0, BuildingBlock: XOMCOT_clean_sbu_0, # of connection points: 5
#     Node 3, Type 0, BuildingBlock: XOMCOT_clean_sbu_0, # of connection points: 5
#     Node 4, Type 0, BuildingBlock: XOMCOT_clean_sbu_0, # of connection points: 5
#     Node 5, Type 0, BuildingBlock: XOMCOT_clean_sbu_0, # of connection points: 5
#     Node 6, Type 0, BuildingBlock: XOMCOT_clean_sbu_0, # of connection points: 5
#     Node 7, Type 0, BuildingBlock: XOMCOT_clean_sbu_0, # of connection points: 5
#     Node 8, Type 0, BuildingBlock: XOMCOT_clean_sbu_0, # of connection points: 5
#     Node 9, Type 0, BuildingBlock: XOMCOT_clean_sbu_0, # of connection points: 5
#     Node 10, Type 0, BuildingBlock: XOMCOT_clean_sbu_0, # of connection points: 5
#     Node 11, Type 0, BuildingBlock: XOMCOT_clean_sbu_0, # of connection points: 5
#     Node 12, Type 0, BuildingBlock: XOMCOT_clean_sbu_0, # of connection points: 5
#     Node 13, Type 0, BuildingBlock: XOMCOT_clean_sbu_0, # of connection points: 5
#     Node 14, Type 0, BuildingBlock: XOMCOT_clean_sbu_0, # of connection points: 5
#     Node 15, Type 0, BuildingBlock: XOMCOT_clean_sbu_0, # of connection points: 5
#     Edge 16, Type (0, 0), BuildingBlock: OJICUG_clean_linker_0, # of connection points: 2
#     Edge 17, Type (0, 0), BuildingBlock: OJICUG_clean_linker_0, # of connection points: 2
#     Edge 18, Type (0, 0), BuildingBlock: OJICUG_clean_linker_0, # of connection points: 2
#     Edge 19, Type (0, 0), BuildingBlock: OJICUG_clean_linker_0, # of connection points: 2
#     Edge 20, Type (0, 0), BuildingBlock: OJICUG_clean_linker_0, # of connection points: 2
#     Edge 21, Type (0, 0), BuildingBlock: OJICUG_clean_linker_0, # of connection points: 2
#     Edge 22, Type (0, 0), BuildingBlock: OJICUG_clean_linker_0, # of connection points: 2
#     Edge 23, Type (0, 0), BuildingBlock: OJICUG_clean_linker_0, # of connection points: 2
#     Edge 24, Type (0, 0), BuildingBlock: OJICUG_clean_linker_0, # of connection points: 2
#     Edge 25, Type (0, 0), BuildingBlock: OJICUG_clean_linker_0, # of connection points: 2
#     Edge 26, Type (0, 0), BuildingBlock: OJICUG_clean_linker_0, # of connection points: 2
#     Edge 27, Type (0, 0), BuildingBlock: OJICUG_clean_linker_0, # of connection points: 2
#     Edge 28, Type (0, 0), BuildingBlock: OJICUG_clean_linker_0, # of connection points: 2
#     Edge 29, Type (0, 0), BuildingBlock: OJICUG_clean_linker_0, # of connection points: 2
#     Edge 30, Type (0, 0), BuildingBlock: OJICUG_clean_linker_0, # of connection points: 2
#     Edge 31, Type (0, 0), BuildingBlock: OJICUG_clean_linker_0, # of connection points: 2
#     Edge 32, Type (0, 0), BuildingBlock: OJICUG_clean_linker_0, # of connection points: 2
#     Edge 33, Type (0, 0), BuildingBlock: OJICUG_clean_linker_0, # of connection points: 2
#     Edge 34, Type (0, 0), BuildingBlock: OJICUG_clean_linker_0, # of connection points: 2
#     Edge 35, Type (0, 0), BuildingBlock: OJICUG_clean_linker_0, # of connection points: 2
#     Edge 36, Type (0, 0), BuildingBlock: OJICUG_clean_linker_0, # of connection points: 2
#     Edge 37, Type (0, 0), BuildingBlock: OJICUG_clean_linker_0, # of connection points: 2
#     Edge 38, Type (0, 0), BuildingBlock: OJICUG_clean_linker_0, # of connection points: 2
#     Edge 39, Type (0, 0), BuildingBlock: OJICUG_clean_linker_0, # of connection points: 2
#     Edge 40, Type (0, 0), BuildingBlock: OJICUG_clean_linker_0, # of connection points: 2
#     Edge 41, Type (0, 0), BuildingBlock: OJICUG_clean_linker_0, # of connection points: 2
#     Edge 42, Type (0, 0), BuildingBlock: OJICUG_clean_linker_0, # of connection points: 2
#     Edge 43, Type (0, 0), BuildingBlock: OJICUG_clean_linker_0, # of connection points: 2
#     Edge 44, Type (0, 0), BuildingBlock: OJICUG_clean_linker_0, # of connection points: 2
#     Edge 45, Type (0, 0), BuildingBlock: OJICUG_clean_linker_0, # of connection points: 2
#     Edge 46, Type (0, 0), BuildingBlock: OJICUG_clean_linker_0, # of connection points: 2
#     Edge 47, Type (0, 0), BuildingBlock: OJICUG_clean_linker_0, # of connection points: 2
#     Edge 48, Type (0, 0), BuildingBlock: OJICUG_clean_linker_0, # of connection points: 2
#     Edge 49, Type (0, 0), BuildingBlock: OJICUG_clean_linker_0, # of connection points: 2
#     Edge 50, Type (0, 0), BuildingBlock: OJICUG_clean_linker_0, # of connection points: 2
#     Edge 51, Type (0, 0), BuildingBlock: OJICUG_clean_linker_0, # of connection points: 2
#     Edge 52, Type (0, 0), BuildingBlock: OJICUG_clean_linker_0, # of connection points: 2
#     Edge 53, Type (0, 0), BuildingBlock: OJICUG_clean_linker_0, # of connection points: 2
#     Edge 54, Type (0, 0), BuildingBlock: OJICUG_clean_linker_0, # of connection points: 2
#     Edge 55, Type (0, 0), BuildingBlock: OJICUG_clean_linker_0, # of connection points: 2
# Relax obj value: 0.139
# Max RMSD: 0.139
# Mean RMSD: 0.139
data_MOF--net-zfv--node1-XOMCOT_clean_sbu_0--edge1-OJICUG_clean_linker_0
_symmetry_space_group_name_H-M    P1
_symmetry_Int_Tables_number       1
_symmetry_cell_setting            triclinic
loop_
_symmetry_equiv_pos_as_xyz
'x, y, z'
_cell_length_a     57.02647
_cell_length_b     57.381117
_cell_length_c     13.667558
_cell_angle_alpha  90.0293
_cell_angle_beta   89.98816
_cell_angle_gamma 89.995309
loop_
_atom_site_label
_atom_site_type_symbol
_atom_site_fract_x
_atom_site_fract_y
_atom_site_fract_z
_atom_type_partial_charge
Co0 Co 0.08636 0.58759 0.07084 0.0
C1 C 0.08345 0.59019 0.85371 0.0
C2 C 0.1164 0.60259 0.90886 0.0
C3 C 0.11712 0.6033 0.80854 0.0
N4 N 0.09523 0.59463 0.93738 0.0
N5 N 0.0965 0.59539 0.77383 0.0
H6 H 0.06601 0.58278 0.85133 0.0
H7 H 0.13085 0.60659 0.95714 0.0
C8 C 0.10865 0.62964 0.17109 0.0
O9 O 0.09006 0.63341 0.22561 0.0
N10 N 0.07798 0.57979 0.20616 0.0
C11 C 0.06 0.566 0.23458 0.0
C12 C 0.05955 0.56461 0.33466 0.0
C13 C 0.08906 0.5853 0.29064 0.0
N14 N 0.07772 0.57693 0.37034 0.0
C15 C 0.03873 0.60311 0.08611 0.0
C16 C 0.04753 0.64992 0.05991 0.0
C17 C 0.02567 0.64306 0.09793 0.0
C18 C 0.02101 0.61917 0.1057 0.0
C19 C 0.06479 0.63312 0.04135 0.0
N20 N 0.06092 0.61028 0.06412 0.0
H21 H 0.03469 0.58488 0.09204 0.0
H22 H 0.08165 0.63866 1.01384 0.0
H23 H 0.04798 0.55705 0.18651 0.0
H24 H 0.10546 0.59463 0.29424 0.0
O25 O 0.06944 0.56061 0.02646 0.0
O26 O 0.10704 0.56078 0.06808 0.0
O27 O 0.10973 0.61209 0.11379 0.0
C28 C 0.08883 0.54904 0.03819 0.0
H29 H 0.13215 0.60806 0.76445 0.0
H30 H 0.04654 0.55543 0.37748 0.0
H31 H 0.05152 0.66812 0.04722 0.0
H32 H 0.00421 0.61284 0.13129 0.0
Co33 Co 0.7215 0.77279 0.31312 0.0
C34 C 0.72032 0.77129 0.09566 0.0
C35 C 0.71325 0.80544 0.15272 0.0
C36 C 0.71311 0.80664 0.05237 0.0
N37 N 0.71756 0.78328 0.17987 0.0
N38 N 0.71763 0.78522 1.01642 0.0
H39 H 0.72447 0.7529 0.09263 0.0
H40 H 0.71108 0.81996 0.20236 0.0
C41 C 0.68105 0.79818 0.41402 0.0
O42 O 0.67675 0.78049 0.47227 0.0
N43 N 0.72609 0.7626 0.44818 0.0
C44 C 0.73434 0.74166 0.47729 0.0
C45 C 0.7359 0.74123 0.57736 0.0
C46 C 0.72406 0.77506 0.53189 0.0
N47 N 0.72927 0.76218 0.61212 0.0
C48 C 0.70271 0.72635 0.29868 0.0
C49 C 0.65605 0.73909 0.2973 0.0
C50 C 0.66188 0.7159 0.31878 0.0
C51 C 0.68552 0.70934 0.31312 0.0
C52 C 0.6739 0.75542 0.28164 0.0
N53 N 0.69689 0.74939 0.29415 0.0
H54 H 0.72079 0.721 0.29523 0.0
H55 H 0.66907 0.77306 0.26355 0.0
H56 H 0.73973 0.72765 0.42992 0.0
H57 H 0.71922 0.79327 0.53411 0.0
O58 O 0.74865 0.75464 0.27493 0.0
O59 O 0.74965 0.7915 0.32304 0.0
O60 O 0.69794 0.79745 0.35273 0.0
C61 C 0.76106 0.77315 0.29349 0.0
H62 H 0.7108 0.82229 1.00925 0.0
H63 H 0.74133 0.72645 0.62092 0.0
H64 H 0.6379 0.74464 0.29481 0.0
H65 H 0.69086 0.69144 0.32492 0.0
Co66 Co 0.53697 0.41056 0.56341 0.0
C67 C 0.53872 0.40908 0.346 0.0
C68 C 0.50458 0.40095 0.40264 0.0
C69 C 0.50344 0.40072 0.30229 0.0
N70 N 0.5267 0.40597 0.43008 0.0
N71 N 0.52485 0.40591 0.2666 0.0
H72 H 0.55706 0.41388 0.34314 0.0
H73 H 0.48998 0.39843 0.45201 0.0
C74 C 0.51204 0.37004 0.6646 0.0
O75 O 0.52994 0.36595 0.72259 0.0
N76 N 0.54693 0.41581 0.69852 0.0
C77 C 0.56757 0.42506 0.72749 0.0
C78 C 0.56799 0.4266 0.82757 0.0
C79 C 0.53457 0.41317 0.78235 0.0
N80 N 0.5473 0.41895 0.86249 0.0
C81 C 0.58398 0.39235 0.55491 0.0
C82 C 0.57162 0.34587 0.55172 0.0
C83 C 0.5947 0.35184 0.57788 0.0
C84 C 0.60109 0.37543 0.57233 0.0
C85 C 0.55518 0.36348 0.53333 0.0
N86 N 0.56091 0.38637 0.54696 0.0
H87 H 0.58924 0.41035 0.55149 0.0
H88 H 0.53759 0.35855 0.51325 0.0
H89 H 0.58135 0.4311 0.67996 0.0
H90 H 0.5165 0.40753 0.78479 0.0
O91 O 0.55489 0.43763 0.52397 0.0
O92 O 0.51771 0.43829 0.5709 0.0
O93 O 0.51247 0.38691 0.60374 0.0
C94 C 0.53607 0.44978 0.54124 0.0
H95 H 0.4878 0.39793 0.25898 0.0
H96 H 0.58261 0.43271 0.871 0.0
H97 H 0.56587 0.3279 0.55024 0.0
H98 H 0.61903 0.38091 0.58409 0.0
Co99 Co 0.9007 0.22956 0.78918 0.0
C100 C 0.90731 0.23365 0.57348 0.0
C101 C 0.91042 0.19845 0.62473 0.0
C102 C 0.91264 0.1984 0.52483 0.0
N103 N 0.90724 0.22051 0.65551 0.0
N104 N 0.91067 0.2205 0.49207 0.0
H105 H 0.90441 0.25228 0.57356 0.0
H106 H 0.91002 0.18321 0.67086 0.0
C107 C 0.92456 0.1865 0.85837 0.0
O108 O 0.90381 0.17707 0.87156 0.0
N109 N 0.89401 0.2383 0.92462 0.0
C110 C 0.87626 0.25198 0.95598 0.0
C111 C 0.87732 0.25396 0.05587 0.0
C112 C 0.90575 0.23231 1.00698 0.0
N113 N 0.89585 0.24161 0.0884 0.0
C114 C 0.91674 0.27649 0.80809 0.0
C115 C 0.96385 0.26638 0.7848 0.0
C116 C 0.95733 0.2883 0.82087 0.0
C117 C 0.93342 0.29368 0.82809 0.0
C118 C 0.94658 0.24985 0.76397 0.0
N119 N 0.92352 0.25455 0.78203 0.0
H120 H 0.89841 0.2804 0.8192 0.0
H121 H 0.95184 0.23293 0.73738 0.0
H122 H 0.86319 0.26012 0.91016 0.0
H123 H 0.92126 0.22152 1.00754 0.0
O124 O 0.87309 0.24604 0.74544 0.0
O125 O 0.87369 0.20892 0.78949 0.0
O126 O 0.92619 0.20776 0.83266 0.0
C127 C 0.86157 0.22676 0.75932 0.0
H128 H 0.91425 0.183 0.4796 0.0
H129 H 0.86489 0.2633 0.10104 0.0
H130 H 0.98216 0.26186 0.77528 0.0
H131 H 0.92768 0.31055 0.85447 0.0
Co132 Co 0.08701 0.40995 0.97166 0.0
C133 C 0.08556 0.40898 0.18915 0.0
C134 C 0.11942 0.39987 0.1321 0.0
C135 C 0.12065 0.39983 0.23249 0.0
N136 N 0.09741 0.40542 0.10491 0.0
N137 N 0.09941 0.40564 0.26848 0.0
H138 H 0.06733 0.41418 0.19212 0.0
H139 H 0.13386 0.39679 0.08248 0.0
C140 C 0.11056 0.36925 0.86771 0.0
O141 O 0.09245 0.36602 0.80991 0.0
N142 N 0.07689 0.41511 0.83667 0.0
C143 C 0.05591 0.42349 0.80741 0.0
C144 C 0.05562 0.42524 0.7073 0.0
C145 C 0.08951 0.41316 0.75313 0.0
N146 N 0.07669 0.41853 0.67278 0.0
C147 C 0.03959 0.39359 0.98947 0.0
C148 C 0.04995 0.34666 0.98485 0.0
C149 C 0.02681 0.35376 0.96561 0.0
C150 C 0.02153 0.37753 0.97545 0.0
C151 C 0.06736 0.36342 1.00067 0.0
N152 N 0.06244 0.38658 0.99054 0.0
H153 H 0.03516 0.41179 0.99535 0.0
H154 H 0.08492 0.35761 1.01647 0.0
H155 H 0.04174 0.42871 0.85469 0.0
H156 H 0.10776 0.40807 0.75109 0.0
O157 O 0.06984 0.43733 1.01056 0.0
O158 O 0.10697 0.43718 0.96225 0.0
O159 O 0.11071 0.38566 0.93075 0.0
C160 C 0.08885 0.44903 0.99216 0.0
H161 H 0.13626 0.39668 0.27554 0.0
H162 H 0.04082 0.43072 0.66347 0.0
H163 H 0.05497 0.32848 0.98291 0.0
H164 H 0.0037 0.38385 0.96923 0.0
Co165 Co 0.90184 0.7725 0.23529 0.0
C166 C 0.90505 0.76975 0.45293 0.0
C167 C 0.90782 0.80477 0.39961 0.0
C168 C 0.90882 0.80536 0.49979 0.0
N169 N 0.90579 0.78246 0.36977 0.0
N170 N 0.90704 0.78338 0.53345 0.0
H171 H 0.90264 0.75107 0.45477 0.0
H172 H 0.90753 0.81985 0.3527 0.0
C173 C 0.92394 0.81763 0.1728 0.0
O174 O 0.90323 0.82696 0.15754 0.0
N175 N 0.89784 0.76235 0.10142 0.0
C176 C 0.89177 0.74055 0.0751 0.0
C177 C 0.89174 0.73903 0.97493 0.0
C178 C 0.90143 0.77388 1.01669 0.0
N179 N 0.89781 0.75996 0.93791 0.0
C180 C 0.92183 0.72769 0.28541 0.0
C181 C 0.96439 0.73513 0.19351 0.0
C182 C 0.95932 0.71287 0.2283 0.0
C183 C 0.93781 0.70918 0.27581 0.0
C184 C 0.94791 0.7528 0.20211 0.0
N185 N 0.92677 0.74919 0.24747 0.0
H186 H 0.90497 0.72435 0.31846 0.0
H187 H 0.95216 0.76875 0.16523 0.0
H188 H 0.88803 0.72651 0.12549 0.0
H189 H 0.90653 0.79198 1.0127 0.0
O190 O 0.87459 0.75419 0.27177 0.0
O191 O 0.87366 0.79123 0.22702 0.0
O192 O 0.92571 0.79636 0.19762 0.0
C193 C 0.86221 0.7728 0.255 0.0
H194 H 0.90966 0.8209 0.5446 0.0
H195 H 0.88812 0.72345 0.93292 0.0
H196 H 0.98047 0.73859 0.15381 0.0
H197 H 0.93318 0.69207 0.30305 0.0
Co198 Co 0.53663 0.58948 0.47861 0.0
C199 C 0.53838 0.59092 0.69603 0.0
C200 C 0.50425 0.59915 0.63948 0.0
C201 C 0.50312 0.59936 0.73984 0.0
N202 N 0.52636 0.59408 0.61198 0.0
N203 N 0.52452 0.5941 0.77547 0.0
H204 H 0.55671 0.58607 0.69884 0.0
H205 H 0.48967 0.60172 0.59016 0.0
C206 C 0.51158 0.62989 0.37694 0.0
O207 O 0.52946 0.63395 0.31875 0.0
N208 N 0.54659 0.58421 0.34349 0.0
C209 C 0.56729 0.57509 0.31448 0.0
C210 C 0.5677 0.57351 0.21441 0.0
C211 C 0.53419 0.58673 0.25971 0.0
N212 N 0.54695 0.58101 0.17955 0.0
C213 C 0.58361 0.6076 0.48781 0.0
C214 C 0.57139 0.65412 0.48893 0.0
C215 C 0.59448 0.64802 0.4635 0.0
C216 C 0.60079 0.62443 0.47018 0.0
C217 C 0.55486 0.6366 0.50759 0.0
N218 N 0.56055 0.61367 0.49493 0.0
H219 H 0.58881 0.5896 0.49191 0.0
H220 H 0.53726 0.64163 0.52714 0.0
H221 H 0.58114 0.56919 0.36199 0.0
H222 H 0.51609 0.59228 0.2573 0.0
O223 O 0.5546 0.56245 0.51806 0.0
O224 O 0.51742 0.56169 0.47129 0.0
O225 O 0.51207 0.6131 0.4382 0.0
C226 C 0.53582 0.55025 0.50086 0.0
H227 H 0.48749 0.60217 0.78318 0.0
H228 H 0.58236 0.56751 0.17092 0.0
H229 H 0.5657 0.67212 0.48961 0.0
H230 H 0.61874 0.61886 0.45899 0.0
Co231 Co 0.72055 0.22566 0.72152 0.0
C232 C 0.71985 0.22699 0.93903 0.0
C233 C 0.71328 0.19276 0.88175 0.0
C234 C 0.71317 0.19152 0.98211 0.0
N235 N 0.71727 0.21499 0.85477 0.0
N236 N 0.71736 0.213 1.01818 0.0
H237 H 0.72362 0.24546 0.94217 0.0
H238 H 0.7112 0.17826 0.83194 0.0
C239 C 0.67979 0.20048 0.62246 0.0
O240 O 0.67555 0.21809 0.56376 0.0
N241 N 0.72446 0.23606 0.58644 0.0
C242 C 0.73214 0.2572 0.55719 0.0
C243 C 0.7337 0.25762 0.45715 0.0
C244 C 0.72273 0.22352 0.50284 0.0
N245 N 0.72764 0.23649 0.42255 0.0
C246 C 0.70223 0.2722 0.74104 0.0
C247 C 0.65545 0.25993 0.74079 0.0
C248 C 0.66153 0.28313 0.72092 0.0
C249 C 0.68522 0.28945 0.72758 0.0
C250 C 0.67312 0.24335 0.75541 0.0
N251 N 0.69618 0.2492 0.74348 0.0
H252 H 0.72037 0.27735 0.74488 0.0
H253 H 0.6681 0.22571 0.77231 0.0
H254 H 0.73721 0.27134 0.60442 0.0
H255 H 0.71833 0.2052 0.50081 0.0
O256 O 0.74799 0.24357 0.75727 0.0
O257 O 0.74854 0.20678 0.70811 0.0
O258 O 0.69669 0.2012 0.68358 0.0
C259 C 0.76021 0.22507 0.73649 0.0
H260 H 0.71101 0.17584 0.02516 0.0
H261 H 0.7388 0.2725 0.41348 0.0
H262 H 0.63725 0.25454 0.74269 0.0
H263 H 0.69074 0.30733 0.71706 0.0
Co264 Co 0.40103 0.27302 0.72598 0.0
C265 C 0.40187 0.27167 0.94351 0.0
C266 C 0.4084 0.3059 0.88632 0.0
C267 C 0.40842 0.30716 0.98667 0.0
N268 N 0.4045 0.28365 0.85927 0.0
N269 N 0.40425 0.28569 0.02271 0.0
H270 H 0.39808 0.2532 0.94659 0.0
H271 H 0.41042 0.3204 0.83656 0.0
C272 C 0.44143 0.2986 0.62576 0.0
O273 O 0.4457 0.28107 0.56658 0.0
N274 N 0.39693 0.26267 0.59086 0.0
C275 C 0.38941 0.24148 0.5615 0.0
C276 C 0.38777 0.24108 0.46146 0.0
C277 C 0.39849 0.27525 0.50736 0.0
N278 N 0.39364 0.26227 0.42699 0.0
C279 C 0.41962 0.22662 0.74466 0.0
C280 C 0.46634 0.2391 0.74228 0.0
C281 C 0.4603 0.21586 0.72283 0.0
C282 C 0.43665 0.20944 0.73055 0.0
C283 C 0.44863 0.2556 0.75762 0.0
N284 N 0.42558 0.24964 0.74676 0.0
H285 H 0.40151 0.22139 0.74918 0.0
H286 H 0.45363 0.27327 0.77427 0.0
H287 H 0.38454 0.22726 0.60867 0.0
H288 H 0.40277 0.29361 0.50545 0.0
O289 O 0.3738 0.25487 0.7626 0.0
O290 O 0.37293 0.29169 0.71399 0.0
O291 O 0.42466 0.29768 0.6875 0.0
C292 C 0.36144 0.27334 0.7429 0.0
H293 H 0.41047 0.32287 0.02971 0.0
H294 H 0.38281 0.22617 0.41769 0.0
H295 H 0.48452 0.24456 0.74328 0.0
H296 H 0.43118 0.19154 0.72032 0.0
Co297 Co 0.21955 0.72654 0.23973 0.0
C298 C 0.21863 0.72787 0.45718 0.0
C299 C 0.21186 0.69368 0.39992 0.0
C300 C 0.2118 0.69244 0.5003 0.0
N301 N 0.21593 0.71589 0.37292 0.0
N302 N 0.21613 0.71389 0.53637 0.0
H303 H 0.22255 0.74631 0.46028 0.0
H304 H 0.20976 0.67918 0.35013 0.0
C305 C 0.17889 0.7016 0.13938 0.0
O306 O 0.17469 0.71949 0.08211 0.0
N307 N 0.22382 0.73689 0.1047 0.0
C308 C 0.2318 0.75792 0.07551 0.0
C309 C 0.23338 0.75833 0.97542 0.0
C310 C 0.22195 0.72438 0.02105 0.0
N311 N 0.22704 0.73728 0.94075 0.0
C312 C 0.20072 0.77299 0.25707 0.0
C313 C 0.15408 0.76017 0.26191 0.0
C314 C 0.15976 0.78347 0.24228 0.0
C315 C 0.18342 0.79005 0.24597 0.0
C316 C 0.17204 0.7438 0.27461 0.0
N317 N 0.19497 0.74993 0.26059 0.0
H318 H 0.21881 0.77836 0.25937 0.0
H319 H 0.16732 0.72609 0.292 0.0
H320 H 0.23704 0.77199 0.12282 0.0
H321 H 0.21732 0.70612 0.01897 0.0
O322 O 0.24688 0.74455 0.27707 0.0
O323 O 0.24762 0.70776 0.22802 0.0
O324 O 0.19585 0.70201 0.20037 0.0
C325 C 0.25918 0.72601 0.25754 0.0
H326 H 0.20963 0.67676 0.54334 0.0
H327 H 0.23867 0.77315 0.93181 0.0
H328 H 0.13596 0.75459 0.2657 0.0
H329 H 0.18861 0.80803 0.23555 0.0
Co330 Co 0.22073 0.27221 0.79176 0.0
C331 C 0.21979 0.27091 0.57438 0.0
C332 C 0.21259 0.30503 0.63152 0.0
C333 C 0.21248 0.30623 0.53111 0.0
N334 N 0.21698 0.28289 0.65862 0.0
N335 N 0.21708 0.28483 0.49511 0.0
H336 H 0.22393 0.25252 0.57137 0.0
H337 H 0.21028 0.31951 0.68123 0.0
C338 C 0.18026 0.29688 0.89314 0.0
O339 O 0.17598 0.27876 0.94901 0.0
N340 N 0.22515 0.26182 0.92677 0.0
C341 C 0.23332 0.24086 0.95591 0.0
C342 C 0.23487 0.24044 0.05603 0.0
C343 C 0.22318 0.2743 1.0105 0.0
N344 N 0.22832 0.26142 0.09077 0.0
C345 C 0.20147 0.22588 0.77644 0.0
C346 C 0.15503 0.23938 0.76787 0.0
C347 C 0.16031 0.2161 0.78947 0.0
C348 C 0.18387 0.20913 0.78759 0.0
C349 C 0.17327 0.25541 0.75518 0.0
N350 N 0.19604 0.249 0.77115 0.0
H351 H 0.21947 0.22026 0.77531 0.0
H352 H 0.1689 0.27315 0.7367 0.0
H353 H 0.23873 0.22686 0.90856 0.0
H354 H 0.21844 0.29254 1.01268 0.0
O355 O 0.24795 0.25415 0.75374 0.0
O356 O 0.24873 0.29095 0.80313 0.0
O357 O 0.19719 0.29671 0.83206 0.0
C358 C 0.26025 0.2727 0.77329 0.0
H359 H 0.21007 0.32187 0.488 0.0
H360 H 0.24028 0.22566 0.09961 0.0
H361 H 0.13701 0.24522 0.76276 0.0
H362 H 0.18874 0.19111 0.79947 0.0
Co363 Co 0.40001 0.72628 0.31213 0.0
C364 C 0.40128 0.72785 0.09473 0.0
C365 C 0.40871 0.69377 0.15145 0.0
C366 C 0.40893 0.69261 0.05108 0.0
N367 N 0.40413 0.71586 0.17882 0.0
N368 N 0.40417 0.71399 1.01535 0.0
H369 H 0.39691 0.7462 0.09186 0.0
H370 H 0.41102 0.67925 0.20091 0.0
C371 C 0.44061 0.70112 0.41287 0.0
O372 O 0.44489 0.71888 0.47085 0.0
N373 N 0.39525 0.73641 0.44725 0.0
C374 C 0.38663 0.7572 0.47638 0.0
C375 C 0.3851 0.75764 0.57645 0.0
C376 C 0.39753 0.72402 0.53098 0.0
N377 N 0.39213 0.73683 0.61121 0.0
C378 C 0.41866 0.77281 0.29944 0.0
C379 C 0.46536 0.7602 0.29647 0.0
C380 C 0.45949 0.78333 0.319 0.0
C381 C 0.43582 0.78984 0.31418 0.0
C382 C 0.44753 0.74385 0.28057 0.0
N383 N 0.42454 0.7498 0.29379 0.0
H384 H 0.40057 0.77812 0.29653 0.0
H385 H 0.45237 0.72625 0.26182 0.0
H386 H 0.38096 0.77109 0.429 0.0
H387 H 0.40267 0.70589 0.53325 0.0
O388 O 0.3728 0.74431 0.27378 0.0
O389 O 0.37193 0.70744 0.32146 0.0
O390 O 0.42367 0.70171 0.35183 0.0
C391 C 0.36044 0.72575 0.29206 0.0
H392 H 0.41144 0.67701 1.00778 0.0
H393 H 0.37942 0.77234 0.62001 0.0
H394 H 0.48351 0.7547 0.29336 0.0
H395 H 0.43046 0.80769 0.3268 0.0
Co396 Co 0.58435 0.08855 0.56129 0.0
C397 C 0.58259 0.09005 0.34393 0.0
C398 C 0.61672 0.09825 0.40047 0.0
C399 C 0.61783 0.09854 0.30011 0.0
N400 N 0.59462 0.09314 0.42797 0.0
N401 N 0.59642 0.0933 0.2645 0.0
H402 H 0.56426 0.0852 0.34112 0.0
H403 H 0.63131 0.10081 0.4498 0.0
C404 C 0.6091 0.12919 0.66221 0.0
O405 O 0.59115 0.1333 0.7199 0.0
N406 N 0.57439 0.0833 0.69641 0.0
C407 C 0.55382 0.07387 0.72534 0.0
C408 C 0.55338 0.07238 0.82542 0.0
C409 C 0.5867 0.08608 0.78028 0.0
N410 N 0.57399 0.08023 0.86039 0.0
C411 C 0.53734 0.10671 0.55353 0.0
C412 C 0.54971 0.15318 0.54922 0.0
C413 C 0.5267 0.14723 0.57639 0.0
C414 C 0.52028 0.12365 0.57129 0.0
C415 C 0.56611 0.13555 0.53052 0.0
N416 N 0.56039 0.11268 0.54482 0.0
H417 H 0.53207 0.08871 0.55053 0.0
H418 H 0.58368 0.14044 0.5099 0.0
H419 H 0.54011 0.06767 0.67778 0.0
H420 H 0.60472 0.09187 0.78278 0.0
O421 O 0.56647 0.06147 0.52176 0.0
O422 O 0.60365 0.06086 0.56876 0.0
O423 O 0.60879 0.11224 0.60167 0.0
C424 C 0.58531 0.04935 0.53909 0.0
H425 H 0.63344 0.10141 0.25672 0.0
H426 H 0.53881 0.06615 0.86881 0.0
H427 H 0.55546 0.17115 0.54735 0.0
H428 H 0.50235 0.11819 0.58385 0.0
Co429 Co 0.03531 0.91276 0.08651 0.0
C430 C 0.03797 0.91025 0.86939 0.0
C431 C 0.00476 0.89843 0.92395 0.0
C432 C 0.00411 0.89785 0.82356 0.0
N433 N 0.02603 0.90604 0.95295 0.0
N434 N 0.02491 0.90539 0.78915 0.0
H435 H 0.05561 0.91717 0.86739 0.0
H436 H 0.99023 0.89446 0.97175 0.0
C437 C 0.00841 0.87349 0.18843 0.0
O438 O 0.02679 0.86665 0.23884 0.0
N439 N 0.0444 0.92007 0.22136 0.0
C440 C 0.06382 0.9318 0.24943 0.0
C441 C 0.06455 0.93302 0.34967 0.0
C442 C 0.033 0.91546 0.30608 0.0
N443 N 0.04525 0.92256 0.3856 0.0
C444 C 0.08174 0.89368 0.0964 0.0
C445 C 0.06918 0.84735 0.08227 0.0
C446 C 0.09202 0.8529 0.11363 0.0
C447 C 0.0985 0.87649 0.11426 0.0
C448 C 0.05306 0.86526 0.06306 0.0
N449 N 0.05884 0.88799 0.08049 0.0
H450 H 0.08716 0.91162 0.09783 0.0
H451 H 0.03555 0.86071 0.03973 0.0
H452 H 0.07671 0.93931 0.20101 0.0
H453 H 0.01582 0.90768 0.31014 0.0
O454 O 0.05406 0.93872 0.04092 0.0
O455 O 0.01654 0.94066 0.08311 0.0
O456 O 0.00966 0.89105 0.13158 0.0
C457 C 0.03523 0.9513 0.05184 0.0
H458 H 0.98904 0.89332 0.77929 0.0
H459 H 0.07851 0.94069 0.3925 0.0
H460 H 0.06337 0.82945 0.07677 0.0
H461 H 0.1163 0.88178 0.13046 0.0
Co462 Co 0.58486 0.90964 0.47854 0.0
C463 C 0.58318 0.90831 0.69602 0.0
C464 C 0.61736 0.90038 0.63921 0.0
C465 C 0.61854 0.90024 0.73956 0.0
N466 N 0.59519 0.90522 0.61188 0.0
N467 N 0.5971 0.90531 0.77536 0.0
H468 H 0.56481 0.91298 0.69895 0.0
H469 H 0.63195 0.89791 0.58975 0.0
C470 C 0.61007 0.86932 0.37679 0.0
O471 O 0.59229 0.86525 0.31816 0.0
N472 N 0.57483 0.91472 0.34347 0.0
C473 C 0.554 0.92352 0.31446 0.0
C474 C 0.5536 0.92515 0.21441 0.0
C475 C 0.5873 0.91243 0.25973 0.0
N476 N 0.57448 0.91799 0.17957 0.0
C477 C 0.5379 0.89148 0.48944 0.0
C478 C 0.55015 0.84497 0.4886 0.0
C479 C 0.52701 0.8511 0.46419 0.0
C480 C 0.5207 0.87467 0.47189 0.0
C481 C 0.5667 0.86246 0.5072 0.0
N482 N 0.56098 0.88541 0.49545 0.0
H483 H 0.5327 0.90948 0.4942 0.0
H484 H 0.58433 0.85741 0.5261 0.0
H485 H 0.54004 0.92919 0.36195 0.0
H486 H 0.60548 0.90714 0.2574 0.0
O487 O 0.56685 0.93667 0.51767 0.0
O488 O 0.60402 0.93744 0.47056 0.0
O489 O 0.60945 0.88605 0.43836 0.0
C490 C 0.58561 0.94888 0.5001 0.0
H491 H 0.63422 0.89759 0.78277 0.0
H492 H 0.53887 0.93094 0.1709 0.0
H493 H 0.55585 0.82698 0.48851 0.0
H494 H 0.50273 0.88024 0.46152 0.0
Co495 Co 0.03429 0.089 0.94494 0.0
C496 C 0.0367 0.09133 0.16206 0.0
C497 C 0.00324 0.10233 0.10707 0.0
C498 C 1.00248 0.10284 0.20747 0.0
N499 N 0.02473 0.09529 0.0784 0.0
N500 N 0.02344 0.09583 0.24212 0.0
H501 H 0.05452 0.08488 0.16424 0.0
H502 H 0.98868 0.10596 0.05891 0.0
C503 C 0.00792 0.12878 0.84418 0.0
O504 O 0.02647 0.13531 0.79408 0.0
N505 N 0.04362 0.08214 0.81001 0.0
C506 C 0.06317 0.07065 0.78171 0.0
C507 C 0.06383 0.06941 0.68149 0.0
C508 C 0.0321 0.08659 0.72547 0.0
N509 N 0.04437 0.07961 0.64579 0.0
C510 C 0.08079 0.10768 0.93926 0.0
C511 C 0.06865 0.15413 0.95133 0.0
C512 C 0.09149 0.14827 0.92093 0.0
C513 C 0.09777 0.12463 0.92182 0.0
C514 C 0.0523 0.13641 0.97037 0.0
N515 N 0.0579 0.11362 0.95328 0.0
H516 H 0.08606 0.08968 0.93863 0.0
H517 H 0.03479 0.14116 0.99299 0.0
H518 H 0.07614 0.06321 0.82993 0.0
H519 H 0.01482 0.09419 0.72178 0.0
O520 O 0.05304 0.06302 0.98961 0.0
O521 O 0.01562 0.06094 0.94629 0.0
O522 O 0.00878 0.11104 0.90032 0.0
C523 C 0.03437 0.05033 0.97734 0.0
H524 H 0.98727 0.10699 0.25158 0.0
H525 H 0.07784 0.06185 0.63855 0.0
H526 H 0.06303 0.17211 0.95599 0.0
H527 H 0.11557 0.11914 0.90671 0.0
C528 C 0.07737 0.5719 0.64501 0.0
C529 C 0.09108 0.59111 0.67247 0.0
H530 H 0.06312 0.55176 0.52802 0.0
C531 C 0.10056 0.60544 0.59904 0.0
H532 H 0.07022 0.5603 0.69987 0.0
C533 C 0.09642 0.60068 0.50023 0.0
C534 C 0.08282 0.58135 0.47231 0.0
H535 H 0.11104 0.62049 0.61817 0.0
H536 H 0.1036 0.61242 0.44604 0.0
C537 C 0.0734 0.56699 0.54618 0.0
C538 C 0.73598 0.76153 0.88602 0.0
C539 C 0.72048 0.77926 0.91457 0.0
H540 H 0.75161 0.74276 0.76791 0.0
C541 C 0.70834 0.7917 0.84174 0.0
H542 H 0.74592 0.75194 0.94012 0.0
C543 C 0.7115 0.78642 0.74269 0.0
C544 C 0.72696 0.76861 0.71394 0.0
H545 H 0.69608 0.80532 0.86143 0.0
H546 H 0.70141 0.79596 0.68895 0.0
C547 C 0.73926 0.75634 0.78699 0.0
C548 C 0.51875 0.39653 0.09184 0.0
C549 C 0.53075 0.40905 0.16485 0.0
H550 H 0.51467 0.38966 0.93895 0.0
C551 C 0.54789 0.42525 0.13659 0.0
H552 H 0.5056 0.38375 0.11133 0.0
C553 C 0.5529 0.42887 0.03761 0.0
C554 C 0.54105 0.41622 0.96433 0.0
H555 H 0.55711 0.43547 0.1909 0.0
H556 H 0.56598 0.44175 0.01876 0.0
C557 C 0.52386 0.40003 0.99284 0.0
C558 C 0.91884 0.21307 0.31659 0.0
C559 C 0.90951 0.2275 0.39048 0.0
H560 H 0.92169 0.20598 0.16354 0.0
C561 C 0.89765 0.24789 0.36252 0.0
H562 H 0.9286 0.19752 0.33497 0.0
C563 C 0.89409 0.253 0.26353 0.0
C564 C 0.90214 0.2378 0.18974 0.0
H565 H 0.89028 0.25948 0.41682 0.0
H566 H 0.88454 0.26868 0.24518 0.0
C567 C 0.91513 0.21809 0.21767 0.0
C568 C 0.07634 0.425 0.39871 0.0
C569 C 0.0936 0.40891 0.37039 0.0
H570 H 0.05799 0.44129 0.5167 0.0
C571 C 0.10567 0.39651 0.44356 0.0
H572 H 0.06703 0.43515 0.34445 0.0
C573 C 0.1005 0.39998 0.54256 0.0
C574 C 0.08313 0.41599 0.57102 0.0
H575 H 0.11889 0.38378 0.42423 0.0
H576 H 0.10972 0.38968 0.59654 0.0
C577 C 0.07123 0.42856 0.49773 0.0
C578 C 0.91714 0.78988 0.70703 0.0
C579 C 0.9056 0.77669 0.63486 0.0
H580 H 0.924 0.79482 0.8594 0.0
C581 C 0.8917 0.75775 0.66389 0.0
H582 H 0.92822 0.80441 0.68676 0.0
C583 C 0.88906 0.75238 0.76305 0.0
C584 C 0.90043 0.7657 0.83558 0.0
H585 H 0.8823 0.74751 0.61018 0.0
H586 H 0.87771 0.73803 0.78266 0.0
C587 C 0.91462 0.78445 0.80614 0.0
C588 C 0.5184 0.60345 0.95028 0.0
C589 C 0.53041 0.59094 0.87722 0.0
H590 H 0.51432 0.6103 0.10319 0.0
C591 C 0.54754 0.57473 0.90544 0.0
H592 H 0.50527 0.61624 0.93084 0.0
C593 C 0.55255 0.5711 1.00442 0.0
C594 C 0.54069 0.58374 0.07772 0.0
H595 H 0.55677 0.56451 0.85111 0.0
H596 H 0.56563 0.55822 0.02327 0.0
C597 C 0.5235 0.59993 0.04926 0.0
C598 C 0.71064 0.21182 0.2917 0.0
C599 C 0.72569 0.22994 0.32078 0.0
H600 H 0.69585 0.19257 0.17262 0.0
C601 C 0.73796 0.24237 0.24808 0.0
H602 H 0.70061 0.20215 0.34522 0.0
C603 C 0.73502 0.23704 0.14901 0.0
C604 C 0.7199 0.21902 0.12009 0.0
H605 H 0.75001 0.25617 0.26748 0.0
H606 H 0.7449 0.24677 0.09518 0.0
C607 C 0.70782 0.20641 0.1926 0.0
C608 C 0.38352 0.2563 0.25234 0.0
C609 C 0.39562 0.26883 0.32524 0.0
H610 H 0.37679 0.25178 0.0993 0.0
C611 C 0.41057 0.28704 0.29638 0.0
H612 H 0.37155 0.24242 0.27156 0.0
C613 C 0.41349 0.29242 0.19732 0.0
C614 C 0.40159 0.2797 0.1246 0.0
H615 H 0.42048 0.2968 0.35005 0.0
H616 H 0.4254 0.30633 0.17755 0.0
C617 C 0.38655 0.2616 0.1533 0.0
C618 C 0.2068 0.70732 0.71102 0.0
C619 C 0.21884 0.71989 0.63826 0.0
H620 H 0.19976 0.70306 0.86375 0.0
C621 C 0.23406 0.73785 0.66692 0.0
H622 H 0.19476 0.69353 0.69128 0.0
C623 C 0.23715 0.74315 0.76596 0.0
C624 C 0.22493 0.73076 0.83893 0.0
H625 H 0.24392 0.74755 0.61289 0.0
H626 H 0.24928 0.7569 0.7851 0.0
C627 C 0.20977 0.71271 0.81009 0.0
C628 C 0.23522 0.26095 0.36468 0.0
C629 C 0.21985 0.27881 0.39323 0.0
H630 H 0.25061 0.24197 0.24665 0.0
C631 C 0.20773 0.29126 0.32035 0.0
H632 H 0.24514 0.25134 0.41877 0.0
C633 C 0.21078 0.28586 0.22131 0.0
C634 C 0.2261 0.26792 0.19259 0.0
H635 H 0.19557 0.30496 0.33996 0.0
H636 H 0.20071 0.29542 0.16757 0.0
C637 C 0.23838 0.25564 0.26568 0.0
C638 C 0.41036 0.71294 0.74165 0.0
C639 C 0.39459 0.73049 0.71302 0.0
H640 H 0.42609 0.69429 0.86026 0.0
C641 C 0.3821 0.74257 0.78616 0.0
H642 H 0.42059 0.70356 0.68784 0.0
C643 C 0.38548 0.73743 0.88515 0.0
C644 C 0.40127 0.71995 0.91356 0.0
H645 H 0.36953 0.75593 0.76719 0.0
H646 H 0.37539 0.74686 0.93934 0.0
C647 C 0.41361 0.70771 0.84066 0.0
C648 C 0.5973 0.09931 0.99082 0.0
C649 C 0.58021 0.08301 0.96225 0.0
H650 H 0.61548 0.11566 0.10939 0.0
C651 C 0.56845 0.07027 0.03546 0.0
H652 H 0.60641 0.10975 0.93698 0.0
C653 C 0.57346 0.07389 0.13445 0.0
C654 C 0.59051 0.09018 0.16277 0.0
H655 H 0.55545 0.05731 1.01658 0.0
H656 H 0.56432 0.06359 0.18871 0.0
C657 C 0.60241 0.1028 0.08982 0.0
C658 C 0.02035 0.89568 0.61398 0.0
C659 C 0.03067 0.90936 0.68773 0.0
H660 H 0.01701 0.88891 0.46085 0.0
C661 C 0.04573 0.92759 0.66041 0.0
H662 H 0.00888 0.88134 0.63269 0.0
C663 C 0.0502 0.93215 0.56157 0.0
C664 C 0.03986 0.91848 0.48756 0.0
H665 H 0.05362 0.93869 0.71531 0.0
H666 H 0.06157 0.94659 0.54339 0.0
C667 C 0.02491 0.90014 0.51525 0.0
C668 C 0.56881 0.92793 1.00457 0.0
C669 C 0.58082 0.91541 0.07774 0.0
H670 H 0.5645 0.93449 0.85132 0.0
C671 C 0.59824 0.89947 0.04913 0.0
H672 H 0.55554 0.94062 0.02356 0.0
C673 C 0.60339 0.89605 0.95011 0.0
C674 C 0.59121 0.90841 0.87716 0.0
H675 H 0.60756 0.88922 0.10296 0.0
H676 H 0.6167 0.88343 0.93055 0.0
C677 C 0.57387 0.92439 0.90555 0.0
C678 C 0.04472 0.07419 0.37112 0.0
C679 C 0.02926 0.09206 0.34359 0.0
H680 H 0.06103 0.05567 0.48828 0.0
C681 C 0.01866 0.10559 0.41714 0.0
H682 H 0.05282 0.06319 0.31635 0.0
C683 C 0.02339 0.10138 0.51593 0.0
C684 C 0.03877 0.08342 0.54383 0.0
H685 H 0.00686 0.11966 0.39822 0.0
H686 H 0.01528 0.1125 0.57016 0.0
C687 C 0.04934 0.06986 0.46998 0.0
C688 C 0.06817 0.51116 1.01828 0.0
C689 C 0.08937 0.52354 0.02384 0.0
H690 H 0.05148 0.47799 1.005 0.0
C691 C 0.11065 0.51125 1.01802 0.0
H692 H 0.05148 0.52011 0.02305 0.0
C693 C 0.11063 0.48696 1.00649 0.0
C694 C 0.08935 0.47463 1.00247 0.0
H695 H 0.12724 0.52037 0.0221 0.0
H696 H 0.12722 0.47783 1.0021 0.0
C697 C 0.06816 0.48699 1.00846 0.0
C698 C 0.82379 0.75188 0.26976 0.0
C699 C 0.83636 0.77292 0.26558 0.0
H700 H 0.79012 0.73548 0.28042 0.0
C701 C 0.82396 0.79407 0.27051 0.0
H702 H 0.83285 0.73531 0.26575 0.0
C703 C 0.79951 0.79416 0.28022 0.0
C704 C 0.78693 0.77312 0.28339 0.0
H705 H 0.83317 0.81056 0.26765 0.0
H706 H 0.79045 0.81073 0.28433 0.0
C707 C 0.79932 0.75198 0.27771 0.0
C708 C 0.51451 0.51212 0.51599 0.0
C709 C 0.53571 0.52457 0.51174 0.0
H710 H 0.49798 0.47868 0.52982 0.0
C711 C 0.55696 0.51221 0.51678 0.0
H712 H 0.49786 0.52117 0.51237 0.0
C713 C 0.55702 0.48791 0.52511 0.0
C714 C 0.53584 0.47546 0.53028 0.0
H715 H 0.57358 0.5213 0.51321 0.0
H716 H 0.57369 0.4789 0.52861 0.0
C717 C 0.51457 0.48781 0.52611 0.0
C718 C 0.82282 0.24685 0.74707 0.0
C719 C 0.83571 0.22598 0.74996 0.0
H720 H 0.78894 0.26288 0.74217 0.0
C721 C 0.82356 0.20467 0.748 0.0
H722 H 0.83163 0.26357 0.74918 0.0
C723 C 0.799 0.20429 0.7428 0.0
C724 C 0.78615 0.22521 0.74149 0.0
H725 H 0.83303 0.18832 0.75037 0.0
H726 H 0.79007 0.18763 0.74112 0.0
C727 C 0.79833 0.24647 0.74374 0.0
C728 C 0.29845 0.29408 0.76147 0.0
C729 C 0.2861 0.27289 0.76434 0.0
H730 H 0.33198 0.31084 0.75127 0.0
C731 C 0.29872 0.25189 0.7602 0.0
H732 H 0.28919 0.31055 0.7644 0.0
C733 C 0.32322 0.25206 0.75438 0.0
C734 C 0.33557 0.27324 0.75079 0.0
H735 H 0.28968 0.23529 0.76273 0.0
H736 H 0.33247 0.23558 0.75168 0.0
C737 C 0.32294 0.29425 0.75381 0.0
C738 C 0.29753 0.70474 0.26968 0.0
C739 C 0.28507 0.72587 0.26662 0.0
H740 H 0.33112 0.68811 0.2813 0.0
C741 C 0.29762 0.74691 0.27142 0.0
H742 H 0.28834 0.68823 0.26627 0.0
C743 C 0.32211 0.74685 0.27833 0.0
C744 C 0.33456 0.72572 0.2824 0.0
H745 H 0.28853 0.76348 0.26878 0.0
H746 H 0.33128 0.76336 0.28169 0.0
C747 C 0.32201 0.70466 0.27844 0.0
C748 C 0.60682 0.01134 0.52428 0.0
C749 C 0.58555 0.02367 0.52838 0.0
H750 H 0.62355 0.97798 0.51097 0.0
C751 C 0.56437 0.01121 0.52349 0.0
H752 H 0.62342 0.02048 0.5278 0.0
C753 C 0.56445 0.9869 0.51552 0.0
C754 C 0.5857 0.97456 0.51056 0.0
H755 H 0.54769 0.02021 0.52696 0.0
H756 H 0.54782 0.9778 0.51217 0.0
C757 C 0.6069 0.98703 0.51453 0.0
C758 C 0.01372 0.98859 0.02238 0.0
C759 C 0.03507 0.97656 0.03145 0.0
H760 H 0.99677 0.02136 0.99722 0.0
C761 C 0.0562 0.98895 0.0224 0.0
H762 H 0.99716 0.97947 0.02883 0.0
C763 C 0.05596 0.01299 1.00568 0.0
C764 C 0.0346 0.025 0.99617 0.0
H765 H 0.07291 0.98013 0.02944 0.0
H766 H 0.07251 0.02213 0.9994 0.0
C767 C 0.01349 0.01256 1.00413 0.0
C768 C 0.15518 0.67372 0.23921 0.0
C769 C 0.16149 0.68263 0.14687 0.0
H770 H 0.13289 0.65031 0.3195 0.0
C771 C 0.15043 0.67384 0.06305 0.0
H772 H 0.16328 0.68041 0.30518 0.0
C773 C 0.13361 0.65619 0.07127 0.0
C774 C 0.12701 0.64762 0.16366 0.0
H775 H 0.15493 0.68048 0.99126 0.0
H776 H 0.12533 0.64965 1.00547 0.0
C777 C 0.13776 0.65664 0.24765 0.0
C778 C 0.63651 0.84457 0.47888 0.0
C779 C 0.629 0.8519 0.38571 0.0
H780 H 0.65851 0.82128 0.5609 0.0
C781 C 0.63913 0.84185 0.30233 0.0
H782 H 0.62881 0.85194 0.54443 0.0
C783 C 0.65666 0.82493 0.31197 0.0
C784 C 0.6637 0.81715 0.40512 0.0
H785 H 0.6336 0.8472 0.2299 0.0
H786 H 0.66422 0.81743 0.24641 0.0
C787 C 0.6534 0.82703 0.48848 0.0
C788 C 0.48577 0.34525 0.562 0.0
C789 C 0.49322 0.35252 0.65533 0.0
H790 H 0.46389 0.32193 0.47943 0.0
C791 C 0.48316 0.34234 0.73848 0.0
H792 H 0.49342 0.35272 0.49661 0.0
C793 C 0.46572 0.32533 0.72846 0.0
C794 C 0.45873 0.31761 0.63512 0.0
H795 H 0.48865 0.34764 0.81103 0.0
H796 H 0.45819 0.31774 0.79385 0.0
C797 C 0.46898 0.32762 0.55199 0.0
C798 C 0.98731 0.16674 0.81606 0.0
C799 C 0.98645 0.14331 0.84506 0.0
H800 H 0.96882 0.19882 0.80036 0.0
C801 C 0.96516 0.13427 0.88094 0.0
H802 H 0.00348 0.17432 0.78936 0.0
C803 C 0.94513 0.14833 0.88693 0.0
C804 C 0.94601 0.17182 0.85827 0.0
H805 H 0.96392 0.11627 0.90409 0.0
H806 H 0.92897 0.14075 0.91372 0.0
C807 C 0.9674 0.18085 0.82329 0.0
C808 C 0.15311 0.32536 0.9723 0.0
C809 C 0.16303 0.31594 0.88727 0.0
H810 H 0.12915 0.35032 0.03234 0.0
C811 C 0.15588 0.32441 0.79538 0.0
H812 H 0.15836 0.31907 0.04376 0.0
C813 C 0.13863 0.34166 0.7886 0.0
C814 C 0.12895 0.3513 0.87367 0.0
H815 H 0.1632 0.31727 0.72864 0.0
H816 H 0.13304 0.34763 0.71711 0.0
C817 C 0.13652 0.34323 0.9656 0.0
C818 C 0.96571 0.86884 0.14834 0.0
C819 C 0.98647 0.85968 0.18896 0.0
H820 H 0.92967 0.8628 0.1108 0.0
C821 C 0.98638 0.83677 0.22431 0.0
H822 H 0.96516 0.88654 0.12088 0.0
C823 C 0.96614 0.82316 0.21763 0.0
C824 C 0.94541 0.83219 0.17607 0.0
H825 H 1.00206 0.82914 0.25553 0.0
H826 H 0.96678 0.80555 0.24593 0.0
C827 C 0.94536 0.85527 0.14231 0.0
C828 C 0.48264 0.65737 0.30197 0.0
C829 C 0.49267 0.64734 0.38554 0.0
H830 H 0.45763 0.6818 0.24559 0.0
C831 C 0.4851 0.65473 0.47856 0.0
H832 H 0.48823 0.65199 0.22964 0.0
C833 C 0.46821 0.67231 0.48784 0.0
C834 C 0.45799 0.68215 0.40429 0.0
H835 H 0.49273 0.6474 0.54424 0.0
H836 H 0.46304 0.67809 0.56016 0.0
C837 C 0.46512 0.67432 0.31128 0.0
C838 C 0.65205 0.17161 0.54908 0.0
C839 C 0.66238 0.1816 0.63207 0.0
H840 H 0.62755 0.14652 0.49403 0.0
C841 C 0.65543 0.17392 0.72552 0.0
H842 H 0.65711 0.17726 0.47646 0.0
C843 C 0.63797 0.15695 0.73578 0.0
C844 C 0.62786 0.14675 0.65275 0.0
H845 H 0.66304 0.1815 0.7908 0.0
H846 H 0.63253 0.15166 0.8084 0.0
C847 C 0.63524 0.15401 0.55931 0.0
C848 C 0.00889 0.31344 0.9605 0.0
C849 C 0.00865 0.33692 0.93072 0.0
H850 H 0.99299 0.2797 0.94817 0.0
C851 C 0.99141 0.34409 0.86312 0.0
H852 H 0.02156 0.30724 1.01337 0.0
C853 C 0.97479 0.32834 0.82727 0.0
C854 C 0.97528 0.30494 0.85648 0.0
H855 H 0.99093 0.36181 0.8361 0.0
H856 H 0.96176 0.33439 0.7755 0.0
C857 C 0.9925 0.29761 0.92322 0.0
C858 C 0.49391 0.15929 0.68903 0.0
C859 C 0.50986 0.16508 0.61403 0.0
H860 H 0.4661 0.17072 0.78298 0.0
C861 C 0.50994 0.1881 0.57847 0.0
H862 H 0.49369 0.14198 0.7205 0.0
C863 C 0.49435 0.20472 0.61605 0.0
C864 C 0.47816 0.19871 0.68952 0.0
H865 H 0.52172 0.19324 0.52025 0.0
H866 H 0.49448 0.22213 0.58545 0.0
C867 C 0.47819 0.17583 0.72576 0.0
C868 C 0.62729 0.70525 0.42347 0.0
C869 C 0.64378 0.69894 0.35163 0.0
H870 H 0.59942 0.6942 0.51763 0.0
C871 C 0.64378 0.67595 0.31649 0.0
H872 H 0.6271 0.72276 0.45318 0.0
C873 C 0.62781 0.65961 0.35274 0.0
C874 C 0.61156 0.6657 0.42619 0.0
H875 H 0.65611 0.67061 0.26048 0.0
H876 H 0.62808 0.64221 0.32211 0.0
C877 C 0.61143 0.68883 0.4606 0.0
C878 C 0.12497 0.8397 0.22357 0.0
C879 C 0.10884 0.83461 0.14828 0.0
H880 H 0.15348 0.82765 0.31244 0.0
C881 C 0.10891 0.812 0.10814 0.0
H882 H 0.1251 0.8566 0.25881 0.0
C883 C 0.12492 0.79519 0.14109 0.0
C884 C 0.14141 0.80063 0.21414 0.0
H885 H 0.09701 0.80737 0.04961 0.0
H886 H 0.12491 0.77814 0.10706 0.0
C887 C 0.14115 0.82303 0.25533 0.0
C888 C 1.00007 0.69689 0.21909 0.0
C889 C 0.97585 0.69365 0.20565 0.0
H890 H 0.03462 0.68352 0.19638 0.0
C891 C 0.96797 0.67337 0.15852 0.0
H892 H 0.00662 0.71235 0.25545 0.0
C893 C 0.98406 0.65701 0.12273 0.0
C894 C 0.00837 0.66053 0.13391 0.0
H895 H 0.94943 0.67066 0.14552 0.0
H896 H 0.97743 0.64191 0.08411 0.0
C897 C 0.01611 0.68052 0.18393 0.0
C898 C 0.12521 0.20534 0.8907 0.0
C899 C 0.14164 0.19939 0.81806 0.0
H900 H 0.09706 0.19388 0.9826 0.0
C901 C 0.14101 0.17692 0.77779 0.0
H902 H 0.1255 0.22248 0.9239 0.0
C903 C 0.12454 0.16064 0.81022 0.0
C904 C 0.10851 0.1662 0.88531 0.0
H905 H 0.15328 0.17194 0.721 0.0
H906 H 0.12438 0.14364 0.77579 0.0
C907 C 0.10891 0.18891 0.92436 0.0
C908 C 0.64379 0.32327 0.72422 0.0
C909 C 0.64362 0.30034 0.68837 0.0
H910 H 0.62833 0.35715 0.7196 0.0
C911 C 0.62713 0.29431 0.6161 0.0
H912 H 0.65611 0.32842 0.78053 0.0
C913 C 0.61143 0.31093 0.57938 0.0
C914 C 0.61168 0.33399 0.61462 0.0
H915 H 0.62682 0.27687 0.58577 0.0
H916 H 0.59942 0.30575 0.52205 0.0
C917 C 0.62795 0.33981 0.68837 0.0
C918 C 0.49347 0.83966 0.35421 0.0
C919 C 0.50988 0.83346 0.42685 0.0
H920 H 0.46503 0.82877 0.26245 0.0
C921 C 0.51011 0.81026 0.46033 0.0
H922 H 0.4931 0.85712 0.32428 0.0
C923 C 0.49424 0.79387 0.42306 0.0
C924 C 0.4776 0.80028 0.35201 0.0
H925 H 0.52225 0.8048 0.51672 0.0
H926 H 0.49453 0.7763 0.45205 0.0
C927 C 0.47747 0.82334 0.31783 0.0
loop_
_geom_bond_atom_site_label_1
_geom_bond_atom_site_label_2
_geom_bond_distance
_geom_bond_site_symmetry_2
_ccdc_geom_bond_type
Co0 N4 2.148 1_554 S
Co0 N10 2.128 . S
Co0 N20 2.194 . S
Co0 O25 2.351 . S
Co0 O26 2.155 . S
Co0 O27 2.096 . S
C1 N4 1.301 . S
C1 N5 1.328 . S
C1 H6 0.930 . S
C2 C3 1.333 . S
C2 N4 1.317 . S
C2 H7 0.930 . S
C3 C2 1.333 . S
C3 N5 1.350 . S
C3 H29 0.931 . S
N4 Co0 2.148 1_556 S
N4 C1 1.301 . S
N4 C2 1.317 . S
N5 C1 1.328 . S
N5 C3 1.350 . S
H6 C1 0.930 . S
H7 C2 0.930 . S
C8 O9 1.224 . S
C8 O27 1.247 . S
O9 C8 1.224 . S
N10 Co0 2.128 . S
N10 C11 1.355 . S
N10 C13 1.311 . S
C11 N10 1.355 . S
C11 C12 1.363 . S
C11 H23 0.929 . S
C12 C11 1.363 . S
C12 N14 1.375 . S
C12 H30 0.931 . S
C13 N10 1.311 . S
C13 N14 1.347 . S
C13 H24 0.929 . S
N14 C12 1.375 . S
N14 C13 1.347 . S
C15 C18 1.365 . S
C15 N20 1.328 . S
C15 H21 0.929 . S
C16 C17 1.362 . S
C16 C19 1.378 . S
C16 H31 0.929 . S
C17 C16 1.362 . S
C17 C18 1.366 . S
C18 C15 1.365 . S
C18 C17 1.366 . S
C18 H32 0.930 1_455 S
C19 C16 1.378 . S
C19 N20 1.315 . S
C19 H22 0.930 . S
N20 Co0 2.194 . S
N20 C15 1.328 . S
N20 C19 1.315 . S
H21 C15 0.929 . S
H22 C19 0.930 . S
H23 C11 0.929 . S
H24 C13 0.929 . S
O25 Co0 2.351 . S
O25 C28 1.244 . S
O26 Co0 2.155 . S
O26 C28 1.240 . S
O27 Co0 2.096 . S
O27 C8 1.247 . S
C28 O25 1.244 . S
C28 O26 1.240 . S
H29 C3 0.931 . S
H30 C12 0.931 . S
H31 C16 0.929 . S
H32 C18 0.930 1_655 S
Co33 N37 2.148 . S
Co33 N43 2.128 . S
Co33 N53 2.194 . S
Co33 O58 2.351 . S
Co33 O59 2.155 . S
Co33 O60 2.096 . S
C34 N37 1.301 . S
C34 N38 1.328 . S
C34 H39 0.930 . S
C35 C36 1.333 . S
C35 N37 1.317 . S
C35 H40 0.930 . S
C36 C35 1.333 . S
C36 N38 1.350 . S
C36 H62 0.931 . S
N37 Co33 2.148 . S
N37 C34 1.301 . S
N37 C35 1.317 . S
N38 C34 1.328 . S
N38 C36 1.350 . S
H39 C34 0.930 . S
H40 C35 0.930 . S
C41 O42 1.224 . S
C41 O60 1.247 . S
O42 C41 1.224 . S
N43 Co33 2.128 . S
N43 C44 1.355 . S
N43 C46 1.311 . S
C44 N43 1.355 . S
C44 C45 1.363 . S
C44 H56 0.929 . S
C45 C44 1.363 . S
C45 N47 1.375 . S
C45 H63 0.931 . S
C46 N43 1.311 . S
C46 N47 1.347 . S
C46 H57 0.929 . S
N47 C45 1.375 . S
N47 C46 1.347 . S
C48 C51 1.365 . S
C48 N53 1.328 . S
C48 H54 0.929 . S
C49 C50 1.362 . S
C49 C52 1.378 . S
C49 H64 0.929 . S
C50 C49 1.362 . S
C50 C51 1.366 . S
C51 C48 1.365 . S
C51 C50 1.366 . S
C51 H65 0.930 . S
C52 C49 1.378 . S
C52 N53 1.315 . S
C52 H55 0.930 . S
N53 Co33 2.194 . S
N53 C48 1.328 . S
N53 C52 1.315 . S
H54 C48 0.929 . S
H55 C52 0.930 . S
H56 C44 0.929 . S
H57 C46 0.929 . S
O58 Co33 2.351 . S
O58 C61 1.244 . S
O59 Co33 2.155 . S
O59 C61 1.240 . S
O60 Co33 2.096 . S
O60 C41 1.247 . S
C61 O58 1.244 . S
C61 O59 1.240 . S
H62 C36 0.931 . S
H63 C45 0.931 . S
H64 C49 0.929 . S
H65 C51 0.930 . S
Co66 N70 2.148 . S
Co66 N76 2.128 . S
Co66 N86 2.194 . S
Co66 O91 2.351 . S
Co66 O92 2.155 . S
Co66 O93 2.096 . S
C67 N70 1.301 . S
C67 N71 1.328 . S
C67 H72 0.930 . S
C68 C69 1.333 . S
C68 N70 1.317 . S
C68 H73 0.930 . S
C69 C68 1.333 . S
C69 N71 1.350 . S
C69 H95 0.931 . S
N70 Co66 2.148 . S
N70 C67 1.301 . S
N70 C68 1.317 . S
N71 C67 1.328 . S
N71 C69 1.350 . S
H72 C67 0.930 . S
H73 C68 0.930 . S
C74 O75 1.224 . S
C74 O93 1.247 . S
O75 C74 1.224 . S
N76 Co66 2.128 . S
N76 C77 1.355 . S
N76 C79 1.311 . S
C77 N76 1.355 . S
C77 C78 1.363 . S
C77 H89 0.929 . S
C78 C77 1.363 . S
C78 N80 1.375 . S
C78 H96 0.931 . S
C79 N76 1.311 . S
C79 N80 1.347 . S
C79 H90 0.929 . S
N80 C78 1.375 . S
N80 C79 1.347 . S
C81 C84 1.365 . S
C81 N86 1.328 . S
C81 H87 0.929 . S
C82 C83 1.362 . S
C82 C85 1.378 . S
C82 H97 0.929 . S
C83 C82 1.362 . S
C83 C84 1.366 . S
C84 C81 1.365 . S
C84 C83 1.366 . S
C84 H98 0.930 . S
C85 C82 1.378 . S
C85 N86 1.315 . S
C85 H88 0.930 . S
N86 Co66 2.194 . S
N86 C81 1.328 . S
N86 C85 1.315 . S
H87 C81 0.929 . S
H88 C85 0.930 . S
H89 C77 0.929 . S
H90 C79 0.929 . S
O91 Co66 2.351 . S
O91 C94 1.244 . S
O92 Co66 2.155 . S
O92 C94 1.240 . S
O93 Co66 2.096 . S
O93 C74 1.247 . S
C94 O91 1.244 . S
C94 O92 1.240 . S
H95 C69 0.931 . S
H96 C78 0.931 . S
H97 C82 0.929 . S
H98 C84 0.930 . S
Co99 N103 2.148 . S
Co99 N109 2.128 . S
Co99 N119 2.194 . S
Co99 O124 2.351 . S
Co99 O125 2.155 . S
Co99 O126 2.096 . S
C100 N103 1.301 . S
C100 N104 1.328 . S
C100 H105 0.930 . S
C101 C102 1.333 . S
C101 N103 1.317 . S
C101 H106 0.930 . S
C102 C101 1.333 . S
C102 N104 1.350 . S
C102 H128 0.931 . S
N103 Co99 2.148 . S
N103 C100 1.301 . S
N103 C101 1.317 . S
N104 C100 1.328 . S
N104 C102 1.350 . S
H105 C100 0.930 . S
H106 C101 0.930 . S
C107 O108 1.224 . S
C107 O126 1.247 . S
O108 C107 1.224 . S
N109 Co99 2.128 . S
N109 C110 1.355 1_556 S
N109 C112 1.311 1_556 S
C110 N109 1.355 1_554 S
C110 C111 1.363 . S
C110 H122 0.929 1_554 S
C111 C110 1.363 . S
C111 N113 1.375 . S
C111 H129 0.931 . S
C112 N109 1.311 1_554 S
C112 N113 1.347 . S
C112 H123 0.929 . S
N113 C111 1.375 . S
N113 C112 1.347 . S
C114 C117 1.365 . S
C114 N119 1.328 . S
C114 H120 0.929 . S
C115 C116 1.362 . S
C115 C118 1.378 . S
C115 H130 0.929 . S
C116 C115 1.362 . S
C116 C117 1.366 . S
C117 C114 1.365 . S
C117 C116 1.366 . S
C117 H131 0.930 . S
C118 C115 1.378 . S
C118 N119 1.315 . S
C118 H121 0.930 . S
N119 Co99 2.194 . S
N119 C114 1.328 . S
N119 C118 1.315 . S
H120 C114 0.929 . S
H121 C118 0.930 . S
H122 C110 0.929 1_556 S
H123 C112 0.929 . S
O124 Co99 2.351 . S
O124 C127 1.244 . S
O125 Co99 2.155 . S
O125 C127 1.240 . S
O126 Co99 2.096 . S
O126 C107 1.247 . S
C127 O124 1.244 . S
C127 O125 1.240 . S
H128 C102 0.931 . S
H129 C111 0.931 . S
H130 C115 0.929 . S
H131 C117 0.930 . S
Co132 N136 2.148 1_556 S
Co132 N142 2.128 . S
Co132 N152 2.194 . S
Co132 O157 2.351 . S
Co132 O158 2.155 . S
Co132 O159 2.096 . S
C133 N136 1.301 . S
C133 N137 1.328 . S
C133 H138 0.930 . S
C134 C135 1.333 . S
C134 N136 1.317 . S
C134 H139 0.930 . S
C135 C134 1.333 . S
C135 N137 1.350 . S
C135 H161 0.931 . S
N136 Co132 2.148 1_554 S
N136 C133 1.301 . S
N136 C134 1.317 . S
N137 C133 1.328 . S
N137 C135 1.350 . S
H138 C133 0.930 . S
H139 C134 0.930 . S
C140 O141 1.224 . S
C140 O159 1.247 . S
O141 C140 1.224 . S
N142 Co132 2.128 . S
N142 C143 1.355 . S
N142 C145 1.311 . S
C143 N142 1.355 . S
C143 C144 1.363 . S
C143 H155 0.929 . S
C144 C143 1.363 . S
C144 N146 1.375 . S
C144 H162 0.931 . S
C145 N142 1.311 . S
C145 N146 1.347 . S
C145 H156 0.929 . S
N146 C144 1.375 . S
N146 C145 1.347 . S
C147 C150 1.365 . S
C147 N152 1.328 . S
C147 H153 0.929 . S
C148 C149 1.362 . S
C148 C151 1.378 . S
C148 H163 0.929 . S
C149 C148 1.362 . S
C149 C150 1.366 . S
C150 C147 1.365 . S
C150 C149 1.366 . S
C150 H164 0.930 1_455 S
C151 C148 1.378 . S
C151 N152 1.315 . S
C151 H154 0.930 . S
N152 Co132 2.194 . S
N152 C147 1.328 . S
N152 C151 1.315 . S
H153 C147 0.929 . S
H154 C151 0.930 . S
H155 C143 0.929 . S
H156 C145 0.929 . S
O157 Co132 2.351 . S
O157 C160 1.244 . S
O158 Co132 2.155 . S
O158 C160 1.240 . S
O159 Co132 2.096 . S
O159 C140 1.247 . S
C160 O157 1.244 . S
C160 O158 1.240 . S
H161 C135 0.931 . S
H162 C144 0.931 . S
H163 C148 0.929 . S
H164 C150 0.930 1_655 S
Co165 N169 2.148 . S
Co165 N175 2.128 . S
Co165 N185 2.194 . S
Co165 O190 2.351 . S
Co165 O191 2.155 . S
Co165 O192 2.096 . S
C166 N169 1.301 . S
C166 N170 1.328 . S
C166 H171 0.930 . S
C167 C168 1.333 . S
C167 N169 1.317 . S
C167 H172 0.930 . S
C168 C167 1.333 . S
C168 N170 1.350 . S
C168 H194 0.931 . S
N169 Co165 2.148 . S
N169 C166 1.301 . S
N169 C167 1.317 . S
N170 C166 1.328 . S
N170 C168 1.350 . S
H171 C166 0.930 . S
H172 C167 0.930 . S
C173 O174 1.224 . S
C173 O192 1.247 . S
O174 C173 1.224 . S
N175 Co165 2.128 . S
N175 C176 1.355 1_554 S
N175 C178 1.311 1_554 S
C176 N175 1.355 1_556 S
C176 C177 1.363 . S
C176 H188 0.929 1_556 S
C177 C176 1.363 . S
C177 N179 1.375 . S
C177 H195 0.931 . S
C178 N175 1.311 1_556 S
C178 N179 1.347 . S
C178 H189 0.929 . S
N179 C177 1.375 . S
N179 C178 1.347 . S
C180 C183 1.365 . S
C180 N185 1.328 . S
C180 H186 0.929 . S
C181 C182 1.362 . S
C181 C184 1.378 . S
C181 H196 0.929 . S
C182 C181 1.362 . S
C182 C183 1.366 . S
C183 C180 1.365 . S
C183 C182 1.366 . S
C183 H197 0.930 . S
C184 C181 1.378 . S
C184 N185 1.315 . S
C184 H187 0.930 . S
N185 Co165 2.194 . S
N185 C180 1.328 . S
N185 C184 1.315 . S
H186 C180 0.929 . S
H187 C184 0.930 . S
H188 C176 0.929 1_554 S
H189 C178 0.929 . S
O190 Co165 2.351 . S
O190 C193 1.244 . S
O191 Co165 2.155 . S
O191 C193 1.240 . S
O192 Co165 2.096 . S
O192 C173 1.247 . S
C193 O190 1.244 . S
C193 O191 1.240 . S
H194 C168 0.931 . S
H195 C177 0.931 . S
H196 C181 0.929 . S
H197 C183 0.930 . S
Co198 N202 2.148 . S
Co198 N208 2.128 . S
Co198 N218 2.194 . S
Co198 O223 2.351 . S
Co198 O224 2.155 . S
Co198 O225 2.096 . S
C199 N202 1.301 . S
C199 N203 1.328 . S
C199 H204 0.930 . S
C200 C201 1.333 . S
C200 N202 1.317 . S
C200 H205 0.930 . S
C201 C200 1.333 . S
C201 N203 1.350 . S
C201 H227 0.931 . S
N202 Co198 2.148 . S
N202 C199 1.301 . S
N202 C200 1.317 . S
N203 C199 1.328 . S
N203 C201 1.350 . S
H204 C199 0.930 . S
H205 C200 0.930 . S
C206 O207 1.224 . S
C206 O225 1.247 . S
O207 C206 1.224 . S
N208 Co198 2.128 . S
N208 C209 1.355 . S
N208 C211 1.311 . S
C209 N208 1.355 . S
C209 C210 1.363 . S
C209 H221 0.929 . S
C210 C209 1.363 . S
C210 N212 1.375 . S
C210 H228 0.931 . S
C211 N208 1.311 . S
C211 N212 1.347 . S
C211 H222 0.929 . S
N212 C210 1.375 . S
N212 C211 1.347 . S
C213 C216 1.365 . S
C213 N218 1.328 . S
C213 H219 0.929 . S
C214 C215 1.362 . S
C214 C217 1.378 . S
C214 H229 0.929 . S
C215 C214 1.362 . S
C215 C216 1.366 . S
C216 C213 1.365 . S
C216 C215 1.366 . S
C216 H230 0.930 . S
C217 C214 1.378 . S
C217 N218 1.315 . S
C217 H220 0.930 . S
N218 Co198 2.194 . S
N218 C213 1.328 . S
N218 C217 1.315 . S
H219 C213 0.929 . S
H220 C217 0.930 . S
H221 C209 0.929 . S
H222 C211 0.929 . S
O223 Co198 2.351 . S
O223 C226 1.244 . S
O224 Co198 2.155 . S
O224 C226 1.240 . S
O225 Co198 2.096 . S
O225 C206 1.247 . S
C226 O223 1.244 . S
C226 O224 1.240 . S
H227 C201 0.931 . S
H228 C210 0.931 . S
H229 C214 0.929 . S
H230 C216 0.930 . S
Co231 N235 2.148 . S
Co231 N241 2.128 . S
Co231 N251 2.194 . S
Co231 O256 2.351 . S
Co231 O257 2.155 . S
Co231 O258 2.096 . S
C232 N235 1.301 . S
C232 N236 1.328 . S
C232 H237 0.930 . S
C233 C234 1.333 . S
C233 N235 1.317 . S
C233 H238 0.930 . S
C234 C233 1.333 . S
C234 N236 1.350 . S
C234 H260 0.931 . S
N235 Co231 2.148 . S
N235 C232 1.301 . S
N235 C233 1.317 . S
N236 C232 1.328 . S
N236 C234 1.350 . S
H237 C232 0.930 . S
H238 C233 0.930 . S
C239 O240 1.224 . S
C239 O258 1.247 . S
O240 C239 1.224 . S
N241 Co231 2.128 . S
N241 C242 1.355 . S
N241 C244 1.311 . S
C242 N241 1.355 . S
C242 C243 1.363 . S
C242 H254 0.929 . S
C243 C242 1.363 . S
C243 N245 1.375 . S
C243 H261 0.931 . S
C244 N241 1.311 . S
C244 N245 1.347 . S
C244 H255 0.929 . S
N245 C243 1.375 . S
N245 C244 1.347 . S
C246 C249 1.365 . S
C246 N251 1.328 . S
C246 H252 0.929 . S
C247 C248 1.362 . S
C247 C250 1.378 . S
C247 H262 0.929 . S
C248 C247 1.362 . S
C248 C249 1.366 . S
C249 C246 1.365 . S
C249 C248 1.366 . S
C249 H263 0.930 . S
C250 C247 1.378 . S
C250 N251 1.315 . S
C250 H253 0.930 . S
N251 Co231 2.194 . S
N251 C246 1.328 . S
N251 C250 1.315 . S
H252 C246 0.929 . S
H253 C250 0.930 . S
H254 C242 0.929 . S
H255 C244 0.929 . S
O256 Co231 2.351 . S
O256 C259 1.244 . S
O257 Co231 2.155 . S
O257 C259 1.240 . S
O258 Co231 2.096 . S
O258 C239 1.247 . S
C259 O256 1.244 . S
C259 O257 1.240 . S
H260 C234 0.931 . S
H261 C243 0.931 . S
H262 C247 0.929 . S
H263 C249 0.930 . S
Co264 N268 2.148 . S
Co264 N274 2.128 . S
Co264 N284 2.194 . S
Co264 O289 2.351 . S
Co264 O290 2.155 . S
Co264 O291 2.096 . S
C265 N268 1.301 . S
C265 N269 1.328 . S
C265 H270 0.930 . S
C266 C267 1.333 . S
C266 N268 1.317 . S
C266 H271 0.930 . S
C267 C266 1.333 . S
C267 N269 1.350 . S
C267 H293 0.931 . S
N268 Co264 2.148 . S
N268 C265 1.301 . S
N268 C266 1.317 . S
N269 C265 1.328 . S
N269 C267 1.350 . S
H270 C265 0.930 . S
H271 C266 0.930 . S
C272 O273 1.224 . S
C272 O291 1.247 . S
O273 C272 1.224 . S
N274 Co264 2.128 . S
N274 C275 1.355 . S
N274 C277 1.311 . S
C275 N274 1.355 . S
C275 C276 1.363 . S
C275 H287 0.929 . S
C276 C275 1.363 . S
C276 N278 1.375 . S
C276 H294 0.931 . S
C277 N274 1.311 . S
C277 N278 1.347 . S
C277 H288 0.929 . S
N278 C276 1.375 . S
N278 C277 1.347 . S
C279 C282 1.365 . S
C279 N284 1.328 . S
C279 H285 0.929 . S
C280 C281 1.362 . S
C280 C283 1.378 . S
C280 H295 0.929 . S
C281 C280 1.362 . S
C281 C282 1.366 . S
C282 C279 1.365 . S
C282 C281 1.366 . S
C282 H296 0.930 . S
C283 C280 1.378 . S
C283 N284 1.315 . S
C283 H286 0.930 . S
N284 Co264 2.194 . S
N284 C279 1.328 . S
N284 C283 1.315 . S
H285 C279 0.929 . S
H286 C283 0.930 . S
H287 C275 0.929 . S
H288 C277 0.929 . S
O289 Co264 2.351 . S
O289 C292 1.244 . S
O290 Co264 2.155 . S
O290 C292 1.240 . S
O291 Co264 2.096 . S
O291 C272 1.247 . S
C292 O289 1.244 . S
C292 O290 1.240 . S
H293 C267 0.931 . S
H294 C276 0.931 . S
H295 C280 0.929 . S
H296 C282 0.930 . S
Co297 N301 2.148 . S
Co297 N307 2.128 . S
Co297 N317 2.194 . S
Co297 O322 2.351 . S
Co297 O323 2.155 . S
Co297 O324 2.096 . S
C298 N301 1.301 . S
C298 N302 1.328 . S
C298 H303 0.930 . S
C299 C300 1.333 . S
C299 N301 1.317 . S
C299 H304 0.930 . S
C300 C299 1.333 . S
C300 N302 1.350 . S
C300 H326 0.931 . S
N301 Co297 2.148 . S
N301 C298 1.301 . S
N301 C299 1.317 . S
N302 C298 1.328 . S
N302 C300 1.350 . S
H303 C298 0.930 . S
H304 C299 0.930 . S
C305 O306 1.224 . S
C305 O324 1.247 . S
O306 C305 1.224 . S
N307 Co297 2.128 . S
N307 C308 1.355 1_554 S
N307 C310 1.311 1_554 S
C308 N307 1.355 1_556 S
C308 C309 1.363 . S
C308 H320 0.929 1_556 S
C309 C308 1.363 . S
C309 N311 1.375 . S
C309 H327 0.931 . S
C310 N307 1.311 1_556 S
C310 N311 1.347 . S
C310 H321 0.929 . S
N311 C309 1.375 . S
N311 C310 1.347 . S
C312 C315 1.365 . S
C312 N317 1.328 . S
C312 H318 0.929 . S
C313 C314 1.362 . S
C313 C316 1.378 . S
C313 H328 0.929 . S
C314 C313 1.362 . S
C314 C315 1.366 . S
C315 C312 1.365 . S
C315 C314 1.366 . S
C315 H329 0.930 . S
C316 C313 1.378 . S
C316 N317 1.315 . S
C316 H319 0.930 . S
N317 Co297 2.194 . S
N317 C312 1.328 . S
N317 C316 1.315 . S
H318 C312 0.929 . S
H319 C316 0.930 . S
H320 C308 0.929 1_554 S
H321 C310 0.929 . S
O322 Co297 2.351 . S
O322 C325 1.244 . S
O323 Co297 2.155 . S
O323 C325 1.240 . S
O324 Co297 2.096 . S
O324 C305 1.247 . S
C325 O322 1.244 . S
C325 O323 1.240 . S
H326 C300 0.931 . S
H327 C309 0.931 . S
H328 C313 0.929 . S
H329 C315 0.930 . S
Co330 N334 2.148 . S
Co330 N340 2.128 . S
Co330 N350 2.194 . S
Co330 O355 2.351 . S
Co330 O356 2.155 . S
Co330 O357 2.096 . S
C331 N334 1.301 . S
C331 N335 1.328 . S
C331 H336 0.930 . S
C332 C333 1.333 . S
C332 N334 1.317 . S
C332 H337 0.930 . S
C333 C332 1.333 . S
C333 N335 1.350 . S
C333 H359 0.931 . S
N334 Co330 2.148 . S
N334 C331 1.301 . S
N334 C332 1.317 . S
N335 C331 1.328 . S
N335 C333 1.350 . S
H336 C331 0.930 . S
H337 C332 0.930 . S
C338 O339 1.224 . S
C338 O357 1.247 . S
O339 C338 1.224 . S
N340 Co330 2.128 . S
N340 C341 1.355 1_556 S
N340 C343 1.311 1_556 S
C341 N340 1.355 1_554 S
C341 C342 1.363 . S
C341 H353 0.929 1_554 S
C342 C341 1.363 . S
C342 N344 1.375 . S
C342 H360 0.931 . S
C343 N340 1.311 1_554 S
C343 N344 1.347 . S
C343 H354 0.929 . S
N344 C342 1.375 . S
N344 C343 1.347 . S
C345 C348 1.365 . S
C345 N350 1.328 . S
C345 H351 0.929 . S
C346 C347 1.362 . S
C346 C349 1.378 . S
C346 H361 0.929 . S
C347 C346 1.362 . S
C347 C348 1.366 . S
C348 C345 1.365 . S
C348 C347 1.366 . S
C348 H362 0.930 . S
C349 C346 1.378 . S
C349 N350 1.315 . S
C349 H352 0.930 . S
N350 Co330 2.194 . S
N350 C345 1.328 . S
N350 C349 1.315 . S
H351 C345 0.929 . S
H352 C349 0.930 . S
H353 C341 0.929 1_556 S
H354 C343 0.929 . S
O355 Co330 2.351 . S
O355 C358 1.244 . S
O356 Co330 2.155 . S
O356 C358 1.240 . S
O357 Co330 2.096 . S
O357 C338 1.247 . S
C358 O355 1.244 . S
C358 O356 1.240 . S
H359 C333 0.931 . S
H360 C342 0.931 . S
H361 C346 0.929 . S
H362 C348 0.930 . S
Co363 N367 2.148 . S
Co363 N373 2.128 . S
Co363 N383 2.194 . S
Co363 O388 2.351 . S
Co363 O389 2.155 . S
Co363 O390 2.096 . S
C364 N367 1.301 . S
C364 N368 1.328 . S
C364 H369 0.930 . S
C365 C366 1.333 . S
C365 N367 1.317 . S
C365 H370 0.930 . S
C366 C365 1.333 . S
C366 N368 1.350 . S
C366 H392 0.931 . S
N367 Co363 2.148 . S
N367 C364 1.301 . S
N367 C365 1.317 . S
N368 C364 1.328 . S
N368 C366 1.350 . S
H369 C364 0.930 . S
H370 C365 0.930 . S
C371 O372 1.224 . S
C371 O390 1.247 . S
O372 C371 1.224 . S
N373 Co363 2.128 . S
N373 C374 1.355 . S
N373 C376 1.311 . S
C374 N373 1.355 . S
C374 C375 1.363 . S
C374 H386 0.929 . S
C375 C374 1.363 . S
C375 N377 1.375 . S
C375 H393 0.931 . S
C376 N373 1.311 . S
C376 N377 1.347 . S
C376 H387 0.929 . S
N377 C375 1.375 . S
N377 C376 1.347 . S
C378 C381 1.365 . S
C378 N383 1.328 . S
C378 H384 0.929 . S
C379 C380 1.362 . S
C379 C382 1.378 . S
C379 H394 0.929 . S
C380 C379 1.362 . S
C380 C381 1.366 . S
C381 C378 1.365 . S
C381 C380 1.366 . S
C381 H395 0.930 . S
C382 C379 1.378 . S
C382 N383 1.315 . S
C382 H385 0.930 . S
N383 Co363 2.194 . S
N383 C378 1.328 . S
N383 C382 1.315 . S
H384 C378 0.929 . S
H385 C382 0.930 . S
H386 C374 0.929 . S
H387 C376 0.929 . S
O388 Co363 2.351 . S
O388 C391 1.244 . S
O389 Co363 2.155 . S
O389 C391 1.240 . S
O390 Co363 2.096 . S
O390 C371 1.247 . S
C391 O388 1.244 . S
C391 O389 1.240 . S
H392 C366 0.931 . S
H393 C375 0.931 . S
H394 C379 0.929 . S
H395 C381 0.930 . S
Co396 N400 2.148 . S
Co396 N406 2.128 . S
Co396 N416 2.194 . S
Co396 O421 2.351 . S
Co396 O422 2.155 . S
Co396 O423 2.096 . S
C397 N400 1.301 . S
C397 N401 1.328 . S
C397 H402 0.930 . S
C398 C399 1.333 . S
C398 N400 1.317 . S
C398 H403 0.930 . S
C399 C398 1.333 . S
C399 N401 1.350 . S
C399 H425 0.931 . S
N400 Co396 2.148 . S
N400 C397 1.301 . S
N400 C398 1.317 . S
N401 C397 1.328 . S
N401 C399 1.350 . S
H402 C397 0.930 . S
H403 C398 0.930 . S
C404 O405 1.224 . S
C404 O423 1.247 . S
O405 C404 1.224 . S
N406 Co396 2.128 . S
N406 C407 1.355 . S
N406 C409 1.311 . S
C407 N406 1.355 . S
C407 C408 1.363 . S
C407 H419 0.929 . S
C408 C407 1.363 . S
C408 N410 1.375 . S
C408 H426 0.931 . S
C409 N406 1.311 . S
C409 N410 1.347 . S
C409 H420 0.929 . S
N410 C408 1.375 . S
N410 C409 1.347 . S
C411 C414 1.365 . S
C411 N416 1.328 . S
C411 H417 0.929 . S
C412 C413 1.362 . S
C412 C415 1.378 . S
C412 H427 0.929 . S
C413 C412 1.362 . S
C413 C414 1.366 . S
C414 C411 1.365 . S
C414 C413 1.366 . S
C414 H428 0.930 . S
C415 C412 1.378 . S
C415 N416 1.315 . S
C415 H418 0.930 . S
N416 Co396 2.194 . S
N416 C411 1.328 . S
N416 C415 1.315 . S
H417 C411 0.929 . S
H418 C415 0.930 . S
H419 C407 0.929 . S
H420 C409 0.929 . S
O421 Co396 2.351 . S
O421 C424 1.244 . S
O422 Co396 2.155 . S
O422 C424 1.240 . S
O423 Co396 2.096 . S
O423 C404 1.247 . S
C424 O421 1.244 . S
C424 O422 1.240 . S
H425 C399 0.931 . S
H426 C408 0.931 . S
H427 C412 0.929 . S
H428 C414 0.930 . S
Co429 N433 2.148 1_554 S
Co429 N439 2.128 . S
Co429 N449 2.194 . S
Co429 O454 2.351 . S
Co429 O455 2.155 . S
Co429 O456 2.096 1_455 S
C430 N433 1.301 . S
C430 N434 1.328 . S
C430 H435 0.930 . S
C431 C432 1.333 . S
C431 N433 1.317 . S
C431 H436 0.930 1_455 S
C432 C431 1.333 . S
C432 N434 1.350 . S
C432 H458 0.945 . S
N433 Co429 2.148 1_556 S
N433 C430 1.301 . S
N433 C431 1.317 . S
N434 C430 1.328 . S
N434 C432 1.350 . S
H435 C430 0.930 . S
H436 C431 0.930 1_655 S
C437 O438 1.224 1_655 S
C437 O456 1.247 . S
O438 C437 1.224 1_455 S
N439 Co429 2.128 . S
N439 C440 1.355 . S
N439 C442 1.311 . S
C440 N439 1.355 . S
C440 C441 1.363 . S
C440 H452 0.929 . S
C441 C440 1.363 . S
C441 N443 1.375 . S
C441 H459 0.931 . S
C442 N439 1.311 . S
C442 N443 1.347 . S
C442 H453 0.929 . S
N443 C441 1.375 . S
N443 C442 1.347 . S
C444 C447 1.365 . S
C444 N449 1.328 . S
C444 H450 0.929 . S
C445 C446 1.362 . S
C445 C448 1.378 . S
C445 H460 0.929 . S
C446 C445 1.362 . S
C446 C447 1.366 . S
C447 C444 1.365 . S
C447 C446 1.366 . S
C447 H461 0.930 . S
C448 C445 1.378 . S
C448 N449 1.315 . S
C448 H451 0.930 . S
N449 Co429 2.194 . S
N449 C444 1.328 . S
N449 C448 1.315 . S
H450 C444 0.929 . S
H451 C448 0.930 . S
H452 C440 0.929 . S
H453 C442 0.929 . S
O454 Co429 2.351 . S
O454 C457 1.244 . S
O455 Co429 2.155 . S
O455 C457 1.240 . S
O456 Co429 2.096 1_655 S
O456 C437 1.247 . S
C457 O454 1.244 . S
C457 O455 1.240 . S
H458 C432 0.945 . S
H459 C441 0.931 . S
H460 C445 0.929 . S
H461 C447 0.930 . S
Co462 N466 2.148 . S
Co462 N472 2.128 . S
Co462 N482 2.194 . S
Co462 O487 2.351 . S
Co462 O488 2.155 . S
Co462 O489 2.096 . S
C463 N466 1.301 . S
C463 N467 1.328 . S
C463 H468 0.930 . S
C464 C465 1.333 . S
C464 N466 1.317 . S
C464 H469 0.930 . S
C465 C464 1.333 . S
C465 N467 1.350 . S
C465 H491 0.931 . S
N466 Co462 2.148 . S
N466 C463 1.301 . S
N466 C464 1.317 . S
N467 C463 1.328 . S
N467 C465 1.350 . S
H468 C463 0.930 . S
H469 C464 0.930 . S
C470 O471 1.224 . S
C470 O489 1.247 . S
O471 C470 1.224 . S
N472 Co462 2.128 . S
N472 C473 1.355 . S
N472 C475 1.311 . S
C473 N472 1.355 . S
C473 C474 1.363 . S
C473 H485 0.929 . S
C474 C473 1.363 . S
C474 N476 1.375 . S
C474 H492 0.931 . S
C475 N472 1.311 . S
C475 N476 1.347 . S
C475 H486 0.929 . S
N476 C474 1.375 . S
N476 C475 1.347 . S
C477 C480 1.365 . S
C477 N482 1.328 . S
C477 H483 0.929 . S
C478 C479 1.362 . S
C478 C481 1.378 . S
C478 H493 0.929 . S
C479 C478 1.362 . S
C479 C480 1.366 . S
C480 C477 1.365 . S
C480 C479 1.366 . S
C480 H494 0.930 . S
C481 C478 1.378 . S
C481 N482 1.315 . S
C481 H484 0.930 . S
N482 Co462 2.194 . S
N482 C477 1.328 . S
N482 C481 1.315 . S
H483 C477 0.929 . S
H484 C481 0.930 . S
H485 C473 0.929 . S
H486 C475 0.929 . S
O487 Co462 2.351 . S
O487 C490 1.244 . S
O488 Co462 2.155 . S
O488 C490 1.240 . S
O489 Co462 2.096 . S
O489 C470 1.247 . S
C490 O487 1.244 . S
C490 O488 1.240 . S
H491 C465 0.931 . S
H492 C474 0.931 . S
H493 C478 0.929 . S
H494 C480 0.930 . S
Co495 N499 2.148 1_556 S
Co495 N505 2.128 . S
Co495 N515 2.194 . S
Co495 O520 2.351 . S
Co495 O521 2.155 . S
Co495 O522 2.096 1_455 S
C496 N499 1.301 . S
C496 N500 1.328 . S
C496 H501 0.930 . S
C497 C498 1.333 . S
C497 N499 1.317 . S
C497 H502 0.930 1_455 S
C498 C497 1.333 . S
C498 N500 1.350 . S
C498 H524 0.945 . S
N499 Co495 2.148 1_554 S
N499 C496 1.301 . S
N499 C497 1.317 . S
N500 C496 1.328 . S
N500 C498 1.350 . S
H501 C496 0.930 . S
H502 C497 0.930 1_655 S
C503 O504 1.224 1_655 S
C503 O522 1.247 . S
O504 C503 1.224 1_455 S
N505 Co495 2.128 . S
N505 C506 1.355 . S
N505 C508 1.311 . S
C506 N505 1.355 . S
C506 C507 1.363 . S
C506 H518 0.929 . S
C507 C506 1.363 . S
C507 N509 1.375 . S
C507 H525 0.931 . S
C508 N505 1.311 . S
C508 N509 1.347 . S
C508 H519 0.929 . S
N509 C507 1.375 . S
N509 C508 1.347 . S
C510 C513 1.365 . S
C510 N515 1.328 . S
C510 H516 0.929 . S
C511 C512 1.362 . S
C511 C514 1.378 . S
C511 H526 0.929 . S
C512 C511 1.362 . S
C512 C513 1.366 . S
C513 C510 1.365 . S
C513 C512 1.366 . S
C513 H527 0.930 . S
C514 C511 1.378 . S
C514 N515 1.315 . S
C514 H517 0.930 . S
N515 Co495 2.194 . S
N515 C510 1.328 . S
N515 C514 1.315 . S
H516 C510 0.929 . S
H517 C514 0.930 . S
H518 C506 0.929 . S
H519 C508 0.929 . S
O520 Co495 2.351 . S
O520 C523 1.244 . S
O521 Co495 2.155 . S
O521 C523 1.240 . S
O522 Co495 2.096 1_655 S
O522 C503 1.247 . S
C523 O520 1.244 . S
C523 O521 1.240 . S
H524 C498 0.945 . S
H525 C507 0.931 . S
H526 C511 0.929 . S
H527 C513 0.930 . S
C528 C529 1.387 . S
C528 H532 0.950 . S
C528 C537 1.390 . S
C529 C528 1.387 . S
C529 C531 1.387 . S
H530 C537 0.950 . S
C531 C529 1.387 . S
C531 C533 1.390 . S
C531 H535 0.950 . S
H532 C528 0.950 . S
C533 C531 1.390 . S
C533 C534 1.387 . S
C533 H536 0.950 . S
C534 C533 1.387 . S
C534 C537 1.387 . S
H535 C531 0.950 . S
H536 C533 0.950 . S
C537 C528 1.390 . S
C537 H530 0.950 . S
C537 C534 1.387 . S
C538 C539 1.387 . S
C538 H542 0.950 . S
C538 C547 1.390 . S
C539 C538 1.387 . S
C539 C541 1.387 . S
H540 C547 0.950 . S
C541 C539 1.387 . S
C541 C543 1.390 . S
C541 H545 0.950 . S
H542 C538 0.950 . S
C543 C541 1.390 . S
C543 C544 1.387 . S
C543 H546 0.950 . S
C544 C543 1.387 . S
C544 C547 1.387 . S
H545 C541 0.950 . S
H546 C543 0.950 . S
C547 C538 1.390 . S
C547 H540 0.950 . S
C547 C544 1.387 . S
C548 C549 1.387 . S
C548 H552 0.950 . S
C548 C557 1.390 . S
C549 C548 1.387 . S
C549 C551 1.387 . S
H550 C557 0.950 . S
C551 C549 1.387 . S
C551 C553 1.390 . S
C551 H555 0.950 . S
H552 C548 0.950 . S
C553 C551 1.390 . S
C553 C554 1.387 1_554 S
C553 H556 0.950 . S
C554 C553 1.387 1_556 S
C554 C557 1.387 1_556 S
H555 C551 0.950 . S
H556 C553 0.950 . S
C557 C548 1.390 . S
C557 H550 0.950 . S
C557 C554 1.387 1_554 S
C558 C559 1.387 . S
C558 H562 0.950 . S
C558 C567 1.390 . S
C559 C558 1.387 . S
C559 C561 1.387 . S
H560 C567 0.950 . S
C561 C559 1.387 . S
C561 C563 1.390 . S
C561 H565 0.950 . S
H562 C558 0.950 . S
C563 C561 1.390 . S
C563 C564 1.387 . S
C563 H566 0.950 . S
C564 C563 1.387 . S
C564 C567 1.387 . S
H565 C561 0.950 . S
H566 C563 0.950 . S
C567 C558 1.390 . S
C567 H560 0.950 . S
C567 C564 1.387 . S
C568 C569 1.387 . S
C568 H572 0.950 . S
C568 C577 1.390 . S
C569 C568 1.387 . S
C569 C571 1.387 . S
H570 C577 0.950 . S
C571 C569 1.387 . S
C571 C573 1.390 . S
C571 H575 0.950 . S
H572 C568 0.950 . S
C573 C571 1.390 . S
C573 C574 1.387 . S
C573 H576 0.950 . S
C574 C573 1.387 . S
C574 C577 1.387 . S
H575 C571 0.950 . S
H576 C573 0.950 . S
C577 C568 1.390 . S
C577 H570 0.950 . S
C577 C574 1.387 . S
C578 C579 1.387 . S
C578 H582 0.950 . S
C578 C587 1.390 . S
C579 C578 1.387 . S
C579 C581 1.387 . S
H580 C587 0.950 . S
C581 C579 1.387 . S
C581 C583 1.390 . S
C581 H585 0.950 . S
H582 C578 0.950 . S
C583 C581 1.390 . S
C583 C584 1.387 . S
C583 H586 0.950 . S
C584 C583 1.387 . S
C584 C587 1.387 . S
H585 C581 0.950 . S
H586 C583 0.950 . S
C587 C578 1.390 . S
C587 H580 0.950 . S
C587 C584 1.387 . S
C588 C589 1.387 . S
C588 H592 0.950 . S
C588 C597 1.390 . S
C589 C588 1.387 . S
C589 C591 1.387 . S
H590 C597 0.950 . S
C591 C589 1.387 . S
C591 C593 1.390 . S
C591 H595 0.950 . S
H592 C588 0.950 . S
C593 C591 1.390 . S
C593 C594 1.387 1_556 S
C593 H596 0.950 . S
C594 C593 1.387 1_554 S
C594 C597 1.387 1_554 S
H595 C591 0.950 . S
H596 C593 0.950 . S
C597 C588 1.390 . S
C597 H590 0.950 . S
C597 C594 1.387 1_556 S
C598 C599 1.387 . S
C598 H602 0.950 . S
C598 C607 1.390 . S
C599 C598 1.387 . S
C599 C601 1.387 . S
H600 C607 0.950 . S
C601 C599 1.387 . S
C601 C603 1.390 . S
C601 H605 0.950 . S
H602 C598 0.950 . S
C603 C601 1.390 . S
C603 C604 1.387 . S
C603 H606 0.950 . S
C604 C603 1.387 . S
C604 C607 1.387 . S
H605 C601 0.950 . S
H606 C603 0.950 . S
C607 C598 1.390 . S
C607 H600 0.950 . S
C607 C604 1.387 . S
C608 C609 1.387 . S
C608 H612 0.950 . S
C608 C617 1.390 . S
C609 C608 1.387 . S
C609 C611 1.387 . S
H610 C617 0.950 . S
C611 C609 1.387 . S
C611 C613 1.390 . S
C611 H615 0.950 . S
H612 C608 0.950 . S
C613 C611 1.390 . S
C613 C614 1.387 . S
C613 H616 0.950 . S
C614 C613 1.387 . S
C614 C617 1.387 . S
H615 C611 0.950 . S
H616 C613 0.950 . S
C617 C608 1.390 . S
C617 H610 0.950 . S
C617 C614 1.387 . S
C618 C619 1.387 . S
C618 H622 0.950 . S
C618 C627 1.390 . S
C619 C618 1.387 . S
C619 C621 1.387 . S
H620 C627 0.950 . S
C621 C619 1.387 . S
C621 C623 1.390 . S
C621 H625 0.950 . S
H622 C618 0.950 . S
C623 C621 1.390 . S
C623 C624 1.387 . S
C623 H626 0.950 . S
C624 C623 1.387 . S
C624 C627 1.387 . S
H625 C621 0.950 . S
H626 C623 0.950 . S
C627 C618 1.390 . S
C627 H620 0.950 . S
C627 C624 1.387 . S
C628 C629 1.387 . S
C628 H632 0.950 . S
C628 C637 1.390 . S
C629 C628 1.387 . S
C629 C631 1.387 . S
H630 C637 0.950 . S
C631 C629 1.387 . S
C631 C633 1.390 . S
C631 H635 0.950 . S
H632 C628 0.950 . S
C633 C631 1.390 . S
C633 C634 1.387 . S
C633 H636 0.950 . S
C634 C633 1.387 . S
C634 C637 1.387 . S
H635 C631 0.950 . S
H636 C633 0.950 . S
C637 C628 1.390 . S
C637 H630 0.950 . S
C637 C634 1.387 . S
C638 C639 1.387 . S
C638 H642 0.950 . S
C638 C647 1.390 . S
C639 C638 1.387 . S
C639 C641 1.387 . S
H640 C647 0.950 . S
C641 C639 1.387 . S
C641 C643 1.390 . S
C641 H645 0.950 . S
H642 C638 0.950 . S
C643 C641 1.390 . S
C643 C644 1.387 . S
C643 H646 0.950 . S
C644 C643 1.387 . S
C644 C647 1.387 . S
H645 C641 0.950 . S
H646 C643 0.950 . S
C647 C638 1.390 . S
C647 H640 0.950 . S
C647 C644 1.387 . S
C648 C649 1.387 1_554 S
C648 H652 0.950 . S
C648 C657 1.390 . S
C649 C648 1.387 1_556 S
C649 C651 1.387 1_556 S
H650 C657 0.950 . S
C651 C649 1.387 1_554 S
C651 C653 1.390 . S
C651 H655 0.950 . S
H652 C648 0.950 . S
C653 C651 1.390 . S
C653 C654 1.387 . S
C653 H656 0.950 . S
C654 C653 1.387 . S
C654 C657 1.387 . S
H655 C651 0.950 . S
H656 C653 0.950 . S
C657 C648 1.390 . S
C657 H650 0.950 . S
C657 C654 1.387 . S
C658 C659 1.387 . S
C658 H662 0.950 . S
C658 C667 1.390 . S
C659 C658 1.387 . S
C659 C661 1.387 . S
H660 C667 0.950 . S
C661 C659 1.387 . S
C661 C663 1.390 . S
C661 H665 0.950 . S
H662 C658 0.950 . S
C663 C661 1.390 . S
C663 C664 1.387 . S
C663 H666 0.950 . S
C664 C663 1.387 . S
C664 C667 1.387 . S
H665 C661 0.950 . S
H666 C663 0.950 . S
C667 C658 1.390 . S
C667 H660 0.950 . S
C667 C664 1.387 . S
C668 C669 1.387 1_556 S
C668 H672 0.950 . S
C668 C677 1.390 . S
C669 C668 1.387 1_554 S
C669 C671 1.387 1_554 S
H670 C677 0.950 . S
C671 C669 1.387 1_556 S
C671 C673 1.390 . S
C671 H675 0.950 . S
H672 C668 0.950 . S
C673 C671 1.390 . S
C673 C674 1.387 . S
C673 H676 0.950 . S
C674 C673 1.387 . S
C674 C677 1.387 . S
H675 C671 0.950 . S
H676 C673 0.950 . S
C677 C668 1.390 . S
C677 H670 0.950 . S
C677 C674 1.387 . S
C678 C679 1.387 . S
C678 H682 0.950 . S
C678 C687 1.390 . S
C679 C678 1.387 . S
C679 C681 1.387 . S
H680 C687 0.950 . S
C681 C679 1.387 . S
C681 C683 1.390 . S
C681 H685 0.950 . S
H682 C678 0.950 . S
C683 C681 1.390 . S
C683 C684 1.387 . S
C683 H686 0.950 . S
C684 C683 1.387 . S
C684 C687 1.387 . S
H685 C681 0.950 . S
H686 C683 0.950 . S
C687 C678 1.390 . S
C687 H680 0.950 . S
C687 C684 1.387 . S
C688 C689 1.387 . S
C688 H692 0.950 . S
C688 C697 1.390 1_554 S
C689 C688 1.387 . S
C689 C691 1.387 . S
H690 C697 0.950 . S
C691 C689 1.387 . S
C691 C693 1.390 1_554 S
C691 H695 0.950 . S
H692 C688 0.950 . S
C693 C691 1.390 1_556 S
C693 C694 1.387 . S
C693 H696 0.950 . S
C694 C693 1.387 . S
C694 C697 1.387 . S
H695 C691 0.950 . S
H696 C693 0.950 . S
C697 C688 1.390 1_556 S
C697 H690 0.950 . S
C697 C694 1.387 . S
C698 C699 1.387 . S
C698 H702 0.950 . S
C698 C707 1.390 . S
C699 C698 1.387 . S
C699 C701 1.387 . S
H700 C707 0.950 . S
C701 C699 1.387 . S
C701 C703 1.390 . S
C701 H705 0.950 . S
H702 C698 0.950 . S
C703 C701 1.390 . S
C703 C704 1.387 . S
C703 H706 0.950 . S
C704 C703 1.387 . S
C704 C707 1.387 . S
H705 C701 0.950 . S
H706 C703 0.950 . S
C707 C698 1.390 . S
C707 H700 0.950 . S
C707 C704 1.387 . S
C708 C709 1.387 . S
C708 H712 0.950 . S
C708 C717 1.390 . S
C709 C708 1.387 . S
C709 C711 1.387 . S
H710 C717 0.950 . S
C711 C709 1.387 . S
C711 C713 1.390 . S
C711 H715 0.950 . S
H712 C708 0.950 . S
C713 C711 1.390 . S
C713 C714 1.387 . S
C713 H716 0.950 . S
C714 C713 1.387 . S
C714 C717 1.387 . S
H715 C711 0.950 . S
H716 C713 0.950 . S
C717 C708 1.390 . S
C717 H710 0.950 . S
C717 C714 1.387 . S
C718 C719 1.387 . S
C718 H722 0.950 . S
C718 C727 1.390 . S
C719 C718 1.387 . S
C719 C721 1.387 . S
H720 C727 0.950 . S
C721 C719 1.387 . S
C721 C723 1.390 . S
C721 H725 0.950 . S
H722 C718 0.950 . S
C723 C721 1.390 . S
C723 C724 1.387 . S
C723 H726 0.950 . S
C724 C723 1.387 . S
C724 C727 1.387 . S
H725 C721 0.950 . S
H726 C723 0.950 . S
C727 C718 1.390 . S
C727 H720 0.950 . S
C727 C724 1.387 . S
C728 C729 1.387 . S
C728 H732 0.950 . S
C728 C737 1.390 . S
C729 C728 1.387 . S
C729 C731 1.387 . S
H730 C737 0.950 . S
C731 C729 1.387 . S
C731 C733 1.390 . S
C731 H735 0.950 . S
H732 C728 0.950 . S
C733 C731 1.390 . S
C733 C734 1.387 . S
C733 H736 0.950 . S
C734 C733 1.387 . S
C734 C737 1.387 . S
H735 C731 0.950 . S
H736 C733 0.950 . S
C737 C728 1.390 . S
C737 H730 0.950 . S
C737 C734 1.387 . S
C738 C739 1.387 . S
C738 H742 0.950 . S
C738 C747 1.390 . S
C739 C738 1.387 . S
C739 C741 1.387 . S
H740 C747 0.950 . S
C741 C739 1.387 . S
C741 C743 1.390 . S
C741 H745 0.950 . S
H742 C738 0.950 . S
C743 C741 1.390 . S
C743 C744 1.387 . S
C743 H746 0.950 . S
C744 C743 1.387 . S
C744 C747 1.387 . S
H745 C741 0.950 . S
H746 C743 0.950 . S
C747 C738 1.390 . S
C747 H740 0.950 . S
C747 C744 1.387 . S
C748 C749 1.387 . S
C748 H752 0.950 . S
C748 C757 1.390 1_545 S
C749 C748 1.387 . S
C749 C751 1.387 . S
H750 C757 0.950 . S
C751 C749 1.387 . S
C751 C753 1.390 1_545 S
C751 H755 0.950 . S
H752 C748 0.950 . S
C753 C751 1.390 1_565 S
C753 C754 1.387 . S
C753 H756 0.950 . S
C754 C753 1.387 . S
C754 C757 1.387 . S
H755 C751 0.950 . S
H756 C753 0.950 . S
C757 C748 1.390 1_565 S
C757 H750 0.950 . S
C757 C754 1.387 . S
C758 C759 1.387 . S
C758 H762 0.950 . S
C758 C767 1.390 1_564 S
C759 C758 1.387 . S
C759 C761 1.387 . S
H760 C767 0.950 . S
C761 C759 1.387 . S
C761 C763 1.390 1_564 S
C761 H765 0.950 . S
H762 C758 0.950 . S
C763 C761 1.390 1_546 S
C763 C764 1.387 . S
C763 H766 0.950 . S
C764 C763 1.387 . S
C764 C767 1.387 . S
H765 C761 0.950 . S
H766 C763 0.950 . S
C767 C758 1.390 1_546 S
C767 H760 0.950 . S
C767 C764 1.387 . S
C768 C769 1.387 . S
C768 H772 0.950 . S
C768 C777 1.390 . S
C769 C768 1.387 . S
C769 C771 1.387 . S
H770 C777 0.950 . S
C771 C769 1.387 . S
C771 C773 1.390 . S
C771 H775 0.950 1_554 S
H772 C768 0.950 . S
C773 C771 1.390 . S
C773 C774 1.387 . S
C773 H776 0.950 1_554 S
C774 C773 1.387 . S
C774 C777 1.387 . S
H775 C771 0.950 1_556 S
H776 C773 0.950 1_556 S
C777 C768 1.390 . S
C777 H770 0.950 . S
C777 C774 1.387 . S
C778 C779 1.387 . S
C778 H782 0.950 . S
C778 C787 1.390 . S
C779 C778 1.387 . S
C779 C781 1.387 . S
H780 C787 0.950 . S
C781 C779 1.387 . S
C781 C783 1.390 . S
C781 H785 0.950 . S
H782 C778 0.950 . S
C783 C781 1.390 . S
C783 C784 1.387 . S
C783 H786 0.950 . S
C784 C783 1.387 . S
C784 C787 1.387 . S
H785 C781 0.950 . S
H786 C783 0.950 . S
C787 C778 1.390 . S
C787 H780 0.950 . S
C787 C784 1.387 . S
C788 C789 1.387 . S
C788 H792 0.950 . S
C788 C797 1.390 . S
C789 C788 1.387 . S
C789 C791 1.387 . S
H790 C797 0.950 . S
C791 C789 1.387 . S
C791 C793 1.390 . S
C791 H795 0.950 . S
H792 C788 0.950 . S
C793 C791 1.390 . S
C793 C794 1.387 . S
C793 H796 0.950 . S
C794 C793 1.387 . S
C794 C797 1.387 . S
H795 C791 0.950 . S
H796 C793 0.950 . S
C797 C788 1.390 . S
C797 H790 0.950 . S
C797 C794 1.387 . S
C798 C799 1.387 . S
C798 H802 0.950 . S
C798 C807 1.390 . S
C799 C798 1.387 . S
C799 C801 1.387 . S
H800 C807 0.950 . S
C801 C799 1.387 . S
C801 C803 1.390 . S
C801 H805 0.954 . S
H802 C798 0.950 . S
C803 C801 1.390 . S
C803 C804 1.387 . S
C803 H806 0.950 1_556 S
C804 C803 1.387 . S
C804 C807 1.387 . S
H805 C801 0.954 . S
H806 C803 0.950 1_554 S
C807 C798 1.390 . S
C807 H800 0.950 . S
C807 C804 1.387 . S
C808 C809 1.387 . S
C808 H812 0.950 1_556 S
C808 C817 1.390 . S
C809 C808 1.387 . S
C809 C811 1.387 . S
H810 C817 0.950 1_554 S
C811 C809 1.387 . S
C811 C813 1.390 . S
C811 H815 0.950 . S
H812 C808 0.950 1_554 S
C813 C811 1.390 . S
C813 C814 1.387 . S
C813 H816 0.950 . S
C814 C813 1.387 . S
C814 C817 1.387 . S
H815 C811 0.950 . S
H816 C813 0.950 . S
C817 C808 1.390 . S
C817 H810 0.950 1_556 S
C817 C814 1.387 . S
C818 C819 1.387 . S
C818 H822 0.950 1_554 S
C818 C827 1.390 . S
C819 C818 1.387 . S
C819 C821 1.387 . S
H820 C827 0.950 1_556 S
C821 C819 1.387 . S
C821 C823 1.390 . S
C821 H825 0.950 . S
H822 C818 0.950 1_556 S
C823 C821 1.390 . S
C823 C824 1.387 . S
C823 H826 0.950 . S
C824 C823 1.387 . S
C824 C827 1.387 . S
H825 C821 0.950 . S
H826 C823 0.950 . S
C827 C818 1.390 . S
C827 H820 0.950 1_554 S
C827 C824 1.387 . S
C828 C829 1.387 . S
C828 H832 0.950 . S
C828 C837 1.390 . S
C829 C828 1.387 . S
C829 C831 1.387 . S
H830 C837 0.950 . S
C831 C829 1.387 . S
C831 C833 1.390 . S
C831 H835 0.950 . S
H832 C828 0.950 . S
C833 C831 1.390 . S
C833 C834 1.387 . S
C833 H836 0.950 . S
C834 C833 1.387 . S
C834 C837 1.387 . S
H835 C831 0.950 . S
H836 C833 0.950 . S
C837 C828 1.390 . S
C837 H830 0.950 . S
C837 C834 1.387 . S
C838 C839 1.387 . S
C838 H842 0.950 . S
C838 C847 1.390 . S
C839 C838 1.387 . S
C839 C841 1.387 . S
H840 C847 0.950 . S
C841 C839 1.387 . S
C841 C843 1.390 . S
C841 H845 0.950 . S
H842 C838 0.950 . S
C843 C841 1.390 . S
C843 C844 1.387 . S
C843 H846 0.950 . S
C844 C843 1.387 . S
C844 C847 1.387 . S
H845 C841 0.950 . S
H846 C843 0.950 . S
C847 C838 1.390 . S
C847 H840 0.950 . S
C847 C844 1.387 . S
C848 C849 1.387 . S
C848 H852 0.950 1_556 S
C848 C857 1.390 . S
C849 C848 1.387 . S
C849 C851 1.387 . S
H850 C857 0.950 . S
C851 C849 1.387 . S
C851 C853 1.390 . S
C851 H855 0.950 . S
H852 C848 0.950 1_554 S
C853 C851 1.390 . S
C853 C854 1.387 . S
C853 H856 0.950 . S
C854 C853 1.387 . S
C854 C857 1.387 . S
H855 C851 0.950 . S
H856 C853 0.950 . S
C857 C848 1.390 . S
C857 H850 0.950 . S
C857 C854 1.387 . S
C858 C859 1.387 . S
C858 H862 0.950 . S
C858 C867 1.390 . S
C859 C858 1.387 . S
C859 C861 1.387 . S
H860 C867 0.950 . S
C861 C859 1.387 . S
C861 C863 1.390 . S
C861 H865 0.950 . S
H862 C858 0.950 . S
C863 C861 1.390 . S
C863 C864 1.387 . S
C863 H866 0.950 . S
C864 C863 1.387 . S
C864 C867 1.387 . S
H865 C861 0.950 . S
H866 C863 0.950 . S
C867 C858 1.390 . S
C867 H860 0.950 . S
C867 C864 1.387 . S
C868 C869 1.387 . S
C868 H872 0.950 . S
C868 C877 1.390 . S
C869 C868 1.387 . S
C869 C871 1.387 . S
H870 C877 0.950 . S
C871 C869 1.387 . S
C871 C873 1.390 . S
C871 H875 0.950 . S
H872 C868 0.950 . S
C873 C871 1.390 . S
C873 C874 1.387 . S
C873 H876 0.950 . S
C874 C873 1.387 . S
C874 C877 1.387 . S
H875 C871 0.950 . S
H876 C873 0.950 . S
C877 C868 1.390 . S
C877 H870 0.950 . S
C877 C874 1.387 . S
C878 C879 1.387 . S
C878 H882 0.950 . S
C878 C887 1.390 . S
C879 C878 1.387 . S
C879 C881 1.387 . S
H880 C887 0.950 . S
C881 C879 1.387 . S
C881 C883 1.390 . S
C881 H885 0.950 1_554 S
H882 C878 0.950 . S
C883 C881 1.390 . S
C883 C884 1.387 . S
C883 H886 0.950 . S
C884 C883 1.387 . S
C884 C887 1.387 . S
H885 C881 0.950 1_556 S
H886 C883 0.950 . S
C887 C878 1.390 . S
C887 H880 0.950 . S
C887 C884 1.387 . S
C888 C889 1.387 . S
C888 H892 0.950 . S
C888 C897 1.390 . S
C889 C888 1.387 . S
C889 C891 1.387 . S
H890 C897 0.950 . S
C891 C889 1.387 . S
C891 C893 1.390 . S
C891 H895 0.950 . S
H892 C888 0.950 . S
C893 C891 1.390 . S
C893 C894 1.387 . S
C893 H896 0.950 1_554 S
C894 C893 1.387 . S
C894 C897 1.387 . S
H895 C891 0.950 . S
H896 C893 0.950 1_556 S
C897 C888 1.390 . S
C897 H890 0.950 . S
C897 C894 1.387 . S
C898 C899 1.387 . S
C898 H902 0.952 . S
C898 C907 1.390 . S
C899 C898 1.387 . S
C899 C901 1.387 . S
H900 C907 0.950 1_554 S
C901 C899 1.387 . S
C901 C903 1.390 . S
C901 H905 0.950 . S
H902 C898 0.952 . S
C903 C901 1.390 . S
C903 C904 1.387 . S
C903 H906 0.950 . S
C904 C903 1.387 . S
C904 C907 1.387 . S
H905 C901 0.950 . S
H906 C903 0.950 . S
C907 C898 1.390 . S
C907 H900 0.950 1_556 S
C907 C904 1.387 . S
C908 C909 1.387 . S
C908 H912 0.950 . S
C908 C917 1.390 . S
C909 C908 1.387 . S
C909 C911 1.387 . S
H910 C917 0.950 . S
C911 C909 1.387 . S
C911 C913 1.390 . S
C911 H915 0.950 . S
H912 C908 0.950 . S
C913 C911 1.390 . S
C913 C914 1.387 . S
C913 H916 0.950 . S
C914 C913 1.387 . S
C914 C917 1.387 . S
H915 C911 0.950 . S
H916 C913 0.950 . S
C917 C908 1.390 . S
C917 H910 0.950 . S
C917 C914 1.387 . S
C918 C919 1.387 . S
C918 H922 0.950 . S
C918 C927 1.390 . S
C919 C918 1.387 . S
C919 C921 1.387 . S
H920 C927 0.950 . S
C921 C919 1.387 . S
C921 C923 1.390 . S
C921 H925 0.950 . S
H922 C918 0.950 . S
C923 C921 1.390 . S
C923 C924 1.387 . S
C923 H926 0.950 . S
C924 C923 1.387 . S
C924 C927 1.387 . S
H925 C921 0.950 . S
H926 C923 0.950 . S
C927 C918 1.390 . S
C927 H920 0.950 . S
C927 C924 1.387 . S
C529 N5 1.451 . S
C534 N14 1.442 . S
C539 N38 1.451 1_556 S
C544 N47 1.442 . S
C549 N71 1.454 . S
C554 N80 1.445 . S
C559 N104 1.454 . S
C564 N113 1.445 . S
C569 N137 1.451 . S
C574 N146 1.442 . S
C579 N170 1.454 . S
C584 N179 1.445 . S
C589 N203 1.454 . S
C594 N212 1.445 . S
C599 N245 1.445 . S
C604 N236 1.454 1_554 S
C609 N278 1.442 . S
C614 N269 1.451 1_554 S
C619 N302 1.454 . S
C624 N311 1.445 . S
C629 N335 1.451 . S
C634 N344 1.442 . S
C639 N377 1.445 . S
C644 N368 1.454 1_556 S
C649 N410 1.445 . S
C654 N401 1.454 . S
C659 N434 1.454 . S
C664 N443 1.445 . S
C669 N476 1.442 . S
C674 N467 1.451 . S
C679 N500 1.451 . S
C684 N509 1.442 . S
C689 C28 1.122 . S
C694 C160 1.122 . S
C699 C193 1.122 . S
C704 C61 1.122 . S
C709 C226 1.121 . S
C714 C94 1.121 . S
C719 C127 1.122 . S
C724 C259 1.122 . S
C729 C358 1.121 . S
C734 C292 1.121 . S
C739 C325 1.121 . S
C744 C391 1.121 . S
C749 C424 1.121 . S
C754 C490 1.121 . S
C759 C457 1.121 . S
C764 C523 1.121 . S
C769 C305 1.500 . S
C774 C8 1.498 . S
C779 C470 1.500 . S
C784 C41 1.498 . S
C789 C74 1.500 . S
C794 C272 1.498 . S
C799 C503 1.498 . S
C804 C107 1.499 . S
C809 C338 1.498 . S
C814 C140 1.500 . S
C819 C437 1.500 . S
C824 C173 1.498 . S
C829 C206 1.498 . S
C834 C371 1.500 . S
C839 C239 1.498 . S
C844 C404 1.500 . S
C849 C149 1.565 1_655 S
C854 C116 1.566 . S
C859 C413 1.566 . S
C864 C281 1.565 . S
C869 C50 1.566 . S
C874 C215 1.565 . S
C879 C446 1.566 . S
C884 C314 1.565 . S
C889 C182 1.565 . S
C894 C17 1.566 1_655 S
C899 C347 1.566 . S
C904 C512 1.565 . S
C909 C248 1.565 . S
C914 C83 1.566 . S
C919 C479 1.566 . S
C924 C380 1.565 . S
