# Generated by pormake.
# Topology wkr, (6)-cn, num edge types: 1
# Building blocks:
#     Node 0, Type 0, BuildingBlock: MIDCAF_clean_sbu_0, # of connection points: 6
#     Node 1, Type 0, BuildingBlock: MIDCAF_clean_sbu_0, # of connection points: 6
#     Node 2, Type 0, BuildingBlock: MIDCAF_clean_sbu_0, # of connection points: 6
#     Node 3, Type 0, BuildingBlock: MIDCAF_clean_sbu_0, # of connection points: 6
#     Node 4, Type 0, BuildingBlock: MIDCAF_clean_sbu_0, # of connection points: 6
#     Node 5, Type 0, BuildingBlock: MIDCAF_clean_sbu_0, # of connection points: 6
#     Node 6, Type 0, BuildingBlock: MIDCAF_clean_sbu_0, # of connection points: 6
#     Node 7, Type 0, BuildingBlock: MIDCAF_clean_sbu_0, # of connection points: 6
#     Node 8, Type 0, BuildingBlock: MIDCAF_clean_sbu_0, # of connection points: 6
#     Node 9, Type 0, BuildingBlock: MIDCAF_clean_sbu_0, # of connection points: 6
#     Node 10, Type 0, BuildingBlock: MIDCAF_clean_sbu_0, # of connection points: 6
#     Node 11, Type 0, BuildingBlock: MIDCAF_clean_sbu_0, # of connection points: 6
#     Node 12, Type 0, BuildingBlock: MIDCAF_clean_sbu_0, # of connection points: 6
#     Node 13, Type 0, BuildingBlock: MIDCAF_clean_sbu_0, # of connection points: 6
#     Node 14, Type 0, BuildingBlock: MIDCAF_clean_sbu_0, # of connection points: 6
#     Node 15, Type 0, BuildingBlock: MIDCAF_clean_sbu_0, # of connection points: 6
#     Node 16, Type 0, BuildingBlock: MIDCAF_clean_sbu_0, # of connection points: 6
#     Node 17, Type 0, BuildingBlock: MIDCAF_clean_sbu_0, # of connection points: 6
#     Node 18, Type 0, BuildingBlock: MIDCAF_clean_sbu_0, # of connection points: 6
#     Node 19, Type 0, BuildingBlock: MIDCAF_clean_sbu_0, # of connection points: 6
#     Node 20, Type 0, BuildingBlock: MIDCAF_clean_sbu_0, # of connection points: 6
#     Node 21, Type 0, BuildingBlock: MIDCAF_clean_sbu_0, # of connection points: 6
#     Node 22, Type 0, BuildingBlock: MIDCAF_clean_sbu_0, # of connection points: 6
#     Node 23, Type 0, BuildingBlock: MIDCAF_clean_sbu_0, # of connection points: 6
#     Edge 24, Type (0, 0), BuildingBlock: XIVTED_clean_linker_0, # of connection points: 2
#     Edge 25, Type (0, 0), BuildingBlock: XIVTED_clean_linker_0, # of connection points: 2
#     Edge 26, Type (0, 0), BuildingBlock: XIVTED_clean_linker_0, # of connection points: 2
#     Edge 27, Type (0, 0), BuildingBlock: XIVTED_clean_linker_0, # of connection points: 2
#     Edge 28, Type (0, 0), BuildingBlock: XIVTED_clean_linker_0, # of connection points: 2
#     Edge 29, Type (0, 0), BuildingBlock: XIVTED_clean_linker_0, # of connection points: 2
#     Edge 30, Type (0, 0), BuildingBlock: XIVTED_clean_linker_0, # of connection points: 2
#     Edge 31, Type (0, 0), BuildingBlock: XIVTED_clean_linker_0, # of connection points: 2
#     Edge 32, Type (0, 0), BuildingBlock: XIVTED_clean_linker_0, # of connection points: 2
#     Edge 33, Type (0, 0), BuildingBlock: XIVTED_clean_linker_0, # of connection points: 2
#     Edge 34, Type (0, 0), BuildingBlock: XIVTED_clean_linker_0, # of connection points: 2
#     Edge 35, Type (0, 0), BuildingBlock: XIVTED_clean_linker_0, # of connection points: 2
#     Edge 36, Type (0, 0), BuildingBlock: XIVTED_clean_linker_0, # of connection points: 2
#     Edge 37, Type (0, 0), BuildingBlock: XIVTED_clean_linker_0, # of connection points: 2
#     Edge 38, Type (0, 0), BuildingBlock: XIVTED_clean_linker_0, # of connection points: 2
#     Edge 39, Type (0, 0), BuildingBlock: XIVTED_clean_linker_0, # of connection points: 2
#     Edge 40, Type (0, 0), BuildingBlock: XIVTED_clean_linker_0, # of connection points: 2
#     Edge 41, Type (0, 0), BuildingBlock: XIVTED_clean_linker_0, # of connection points: 2
#     Edge 42, Type (0, 0), BuildingBlock: XIVTED_clean_linker_0, # of connection points: 2
#     Edge 43, Type (0, 0), BuildingBlock: XIVTED_clean_linker_0, # of connection points: 2
#     Edge 44, Type (0, 0), BuildingBlock: XIVTED_clean_linker_0, # of connection points: 2
#     Edge 45, Type (0, 0), BuildingBlock: XIVTED_clean_linker_0, # of connection points: 2
#     Edge 46, Type (0, 0), BuildingBlock: XIVTED_clean_linker_0, # of connection points: 2
#     Edge 47, Type (0, 0), BuildingBlock: XIVTED_clean_linker_0, # of connection points: 2
#     Edge 48, Type (0, 0), BuildingBlock: XIVTED_clean_linker_0, # of connection points: 2
#     Edge 49, Type (0, 0), BuildingBlock: XIVTED_clean_linker_0, # of connection points: 2
#     Edge 50, Type (0, 0), BuildingBlock: XIVTED_clean_linker_0, # of connection points: 2
#     Edge 51, Type (0, 0), BuildingBlock: XIVTED_clean_linker_0, # of connection points: 2
#     Edge 52, Type (0, 0), BuildingBlock: XIVTED_clean_linker_0, # of connection points: 2
#     Edge 53, Type (0, 0), BuildingBlock: XIVTED_clean_linker_0, # of connection points: 2
#     Edge 54, Type (0, 0), BuildingBlock: XIVTED_clean_linker_0, # of connection points: 2
#     Edge 55, Type (0, 0), BuildingBlock: XIVTED_clean_linker_0, # of connection points: 2
#     Edge 56, Type (0, 0), BuildingBlock: XIVTED_clean_linker_0, # of connection points: 2
#     Edge 57, Type (0, 0), BuildingBlock: XIVTED_clean_linker_0, # of connection points: 2
#     Edge 58, Type (0, 0), BuildingBlock: XIVTED_clean_linker_0, # of connection points: 2
#     Edge 59, Type (0, 0), BuildingBlock: XIVTED_clean_linker_0, # of connection points: 2
#     Edge 60, Type (0, 0), BuildingBlock: XIVTED_clean_linker_0, # of connection points: 2
#     Edge 61, Type (0, 0), BuildingBlock: XIVTED_clean_linker_0, # of connection points: 2
#     Edge 62, Type (0, 0), BuildingBlock: XIVTED_clean_linker_0, # of connection points: 2
#     Edge 63, Type (0, 0), BuildingBlock: XIVTED_clean_linker_0, # of connection points: 2
#     Edge 64, Type (0, 0), BuildingBlock: XIVTED_clean_linker_0, # of connection points: 2
#     Edge 65, Type (0, 0), BuildingBlock: XIVTED_clean_linker_0, # of connection points: 2
#     Edge 66, Type (0, 0), BuildingBlock: XIVTED_clean_linker_0, # of connection points: 2
#     Edge 67, Type (0, 0), BuildingBlock: XIVTED_clean_linker_0, # of connection points: 2
#     Edge 68, Type (0, 0), BuildingBlock: XIVTED_clean_linker_0, # of connection points: 2
#     Edge 69, Type (0, 0), BuildingBlock: XIVTED_clean_linker_0, # of connection points: 2
#     Edge 70, Type (0, 0), BuildingBlock: XIVTED_clean_linker_0, # of connection points: 2
#     Edge 71, Type (0, 0), BuildingBlock: XIVTED_clean_linker_0, # of connection points: 2
#     Edge 72, Type (0, 0), BuildingBlock: XIVTED_clean_linker_0, # of connection points: 2
#     Edge 73, Type (0, 0), BuildingBlock: XIVTED_clean_linker_0, # of connection points: 2
#     Edge 74, Type (0, 0), BuildingBlock: XIVTED_clean_linker_0, # of connection points: 2
#     Edge 75, Type (0, 0), BuildingBlock: XIVTED_clean_linker_0, # of connection points: 2
#     Edge 76, Type (0, 0), BuildingBlock: XIVTED_clean_linker_0, # of connection points: 2
#     Edge 77, Type (0, 0), BuildingBlock: XIVTED_clean_linker_0, # of connection points: 2
#     Edge 78, Type (0, 0), BuildingBlock: XIVTED_clean_linker_0, # of connection points: 2
#     Edge 79, Type (0, 0), BuildingBlock: XIVTED_clean_linker_0, # of connection points: 2
#     Edge 80, Type (0, 0), BuildingBlock: XIVTED_clean_linker_0, # of connection points: 2
#     Edge 81, Type (0, 0), BuildingBlock: XIVTED_clean_linker_0, # of connection points: 2
#     Edge 82, Type (0, 0), BuildingBlock: XIVTED_clean_linker_0, # of connection points: 2
#     Edge 83, Type (0, 0), BuildingBlock: XIVTED_clean_linker_0, # of connection points: 2
#     Edge 84, Type (0, 0), BuildingBlock: XIVTED_clean_linker_0, # of connection points: 2
#     Edge 85, Type (0, 0), BuildingBlock: XIVTED_clean_linker_0, # of connection points: 2
#     Edge 86, Type (0, 0), BuildingBlock: XIVTED_clean_linker_0, # of connection points: 2
#     Edge 87, Type (0, 0), BuildingBlock: XIVTED_clean_linker_0, # of connection points: 2
#     Edge 88, Type (0, 0), BuildingBlock: XIVTED_clean_linker_0, # of connection points: 2
#     Edge 89, Type (0, 0), BuildingBlock: XIVTED_clean_linker_0, # of connection points: 2
#     Edge 90, Type (0, 0), BuildingBlock: XIVTED_clean_linker_0, # of connection points: 2
#     Edge 91, Type (0, 0), BuildingBlock: XIVTED_clean_linker_0, # of connection points: 2
#     Edge 92, Type (0, 0), BuildingBlock: XIVTED_clean_linker_0, # of connection points: 2
#     Edge 93, Type (0, 0), BuildingBlock: XIVTED_clean_linker_0, # of connection points: 2
#     Edge 94, Type (0, 0), BuildingBlock: XIVTED_clean_linker_0, # of connection points: 2
#     Edge 95, Type (0, 0), BuildingBlock: XIVTED_clean_linker_0, # of connection points: 2
# Relax obj value: 0.671
# Max RMSD: 0.278
# Mean RMSD: 0.270
data_MOF--net-wkr--node1-MIDCAF_clean_sbu_0--edge1-XIVTED_clean_linker_0
_symmetry_space_group_name_H-M    P1
_symmetry_Int_Tables_number       1
_symmetry_cell_setting            triclinic
loop_
_symmetry_equiv_pos_as_xyz
'x, y, z'
_cell_length_a     47.646904
_cell_length_b     48.187445
_cell_length_c     53.611659
_cell_angle_alpha  90.252914
_cell_angle_beta   89.799331
_cell_angle_gamma 119.67162
loop_
_atom_site_label
_atom_site_type_symbol
_atom_site_fract_x
_atom_site_fract_y
_atom_site_fract_z
_atom_type_partial_charge
Zn0 Zn 0.42611 0.1744 0.10908 0.0
Zn1 Zn 0.48619 0.11781 0.09954 0.0
Zn2 Zn 0.45741 0.14238 0.11872 0.0
C3 C 0.51857 0.1519 0.14291 0.0
C4 C 0.52379 0.17453 0.08526 0.0
O5 O 0.4393 0.13029 0.08139 0.0
O6 O 0.41115 0.15459 0.07543 0.0
C7 C 0.40989 0.15528 0.15531 0.0
O8 O 0.5054 0.16758 0.13419 0.0
O9 O 0.51198 0.1256 0.13266 0.0
O10 O 0.51246 0.14922 0.07225 0.0
O11 O 0.50744 0.17526 0.10427 0.0
O12 O 0.39614 0.16211 0.13824 0.0
O13 O 0.43211 0.14893 0.14948 0.0
O14 O 0.49628 0.19148 0.12346 0.0
O15 O 0.4691 0.2161 0.11282 0.0
C16 C 0.49496 0.21744 0.12036 0.0
O17 O 0.44639 0.09653 0.1337 0.0
O18 O 0.44445 0.07626 0.0968 0.0
C19 C 0.4216 0.13666 0.06744 0.0
C20 C 0.43968 0.07216 0.12011 0.0
Zn21 Zn 0.29765 0.45339 0.10652 0.0
Zn22 Zn 0.40195 0.5375 0.12759 0.0
Zn23 Zn 0.35237 0.49999 0.11715 0.0
C24 C 0.373 0.53079 0.17056 0.0
C25 C 0.39128 0.56913 0.09514 0.0
O26 O 0.35907 0.46965 0.08829 0.0
O27 O 0.30941 0.43005 0.08221 0.0
C28 C 0.29591 0.45434 0.157 0.0
O29 O 0.35604 0.50388 0.1591 0.0
O30 O 0.39268 0.5548 0.15812 0.0
O31 O 0.41508 0.56464 0.09717 0.0
O32 O 0.36362 0.54771 0.1036 0.0
O33 O 0.27933 0.43535 0.1398 0.0
O34 O 0.32341 0.47896 0.15179 0.0
O35 O 0.33047 0.52399 0.09718 0.0
O36 O 0.28275 0.48169 0.09055 0.0
C37 C 0.30172 0.51141 0.08828 0.0
O38 O 0.38806 0.48527 0.10366 0.0
O39 O 0.42222 0.51136 0.13382 0.0
C40 C 0.3388 0.4446 0.07588 0.0
C41 C 0.41333 0.49115 0.11644 0.0
Zn42 Zn 0.80324 0.39019 0.10801 0.0
Zn43 Zn 0.82955 0.31085 0.10335 0.0
Zn44 Zn 0.82376 0.35532 0.10889 0.0
C45 C 0.76355 0.2972 0.1023 0.0
C46 C 0.81189 0.30113 0.14969 0.0
O47 O 0.8633 0.39791 0.12263 0.0
O48 O 0.84804 0.42865 0.1039 0.0
C49 C 0.78722 0.36259 0.06323 0.0
O50 O 0.77644 0.31885 0.11932 0.0
O51 O 0.78197 0.29056 0.08953 0.0
O52 O 0.83328 0.2978 0.1382 0.0
O53 O 0.80188 0.31925 0.14016 0.0
O54 O 0.77303 0.3698 0.07976 0.0
O55 O 0.81097 0.35874 0.06979 0.0
O56 O 0.78793 0.34165 0.1405 0.0
O57 O 0.78441 0.38572 0.14125 0.0
C58 C 0.77933 0.36026 0.15165 0.0
O59 O 0.83248 0.34566 0.07007 0.0
O60 O 0.8656 0.3274 0.07825 0.0
C61 C 0.86936 0.42563 0.1157 0.0
C62 C 0.85326 0.33773 0.06256 0.0
Zn63 Zn 0.55639 0.86296 0.13173 0.0
Zn64 Zn 0.41008 0.82364 0.16762 0.0
Zn65 Zn 0.50325 0.85524 0.14448 0.0
C66 C 0.45919 0.80688 0.17966 0.0
C67 C 0.44834 0.82793 0.1169 0.0
O68 O 0.51305 0.8649 0.10487 0.0
O69 O 0.56575 0.89731 0.10636 0.0
C70 C 0.55274 0.84341 0.17811 0.0
O71 O 0.48875 0.81747 0.1733 0.0
O72 O 0.44178 0.80884 0.16288 0.0
O73 O 0.44429 0.83013 0.14007 0.0
O74 O 0.47727 0.83845 0.10943 0.0
O75 O 0.57644 0.86513 0.16618 0.0
O76 O 0.52378 0.83428 0.17052 0.0
O77 O 0.50027 0.80921 0.14918 0.0
O78 O 0.53099 0.8176 0.11643 0.0
C79 C 0.50797 0.79818 0.13013 0.0
O80 O 0.48392 0.88422 0.16215 0.0
O81 O 0.43507 0.87018 0.17886 0.0
C82 C 0.5394 0.88555 0.09431 0.0
C83 C 0.46423 0.89124 0.17349 0.0
Zn84 Zn 0.63432 0.44355 0.0868 0.0
Zn85 Zn 0.733 0.54158 0.1089 0.0
Zn86 Zn 0.67954 0.48302 0.11242 0.0
C87 C 0.73602 0.49939 0.07451 0.0
C88 C 0.73013 0.52767 0.15697 0.0
O89 O 0.63697 0.4908 0.1102 0.0
O90 O 0.61704 0.47007 0.07333 0.0
C91 C 0.67281 0.42007 0.08795 0.0
O92 O 0.70558 0.48655 0.07819 0.0
O93 O 0.75522 0.52158 0.08891 0.0
O94 O 0.7453 0.55319 0.14464 0.0
O95 O 0.7076 0.50292 0.14629 0.0
O96 O 0.65993 0.42586 0.06946 0.0
O97 O 0.679 0.43771 0.10746 0.0
O98 O 0.65497 0.43693 0.13144 0.0
O99 O 0.60645 0.41507 0.11542 0.0
C100 C 0.62494 0.41582 0.13255 0.0
O101 O 0.68201 0.50673 0.07693 0.0
O102 O 0.70921 0.55762 0.08763 0.0
C103 C 0.61688 0.48565 0.09236 0.0
C104 C 0.69164 0.5362 0.07204 0.0
Zn105 Zn 0.15042 0.68953 0.11786 0.0
Zn106 Zn 0.15097 0.59782 0.14014 0.0
Zn107 Zn 0.15831 0.64766 0.12825 0.0
C108 C 0.19676 0.64299 0.1736 0.0
C109 C 0.1775 0.60816 0.09249 0.0
O110 O 0.16069 0.65391 0.08844 0.0
O111 O 0.12103 0.66494 0.08892 0.0
C112 C 0.16365 0.69955 0.1663 0.0
O113 O 0.19185 0.66247 0.16035 0.0
O114 O 0.18248 0.6136 0.16819 0.0
O115 O 0.1644 0.58618 0.10847 0.0
O116 O 0.178 0.63475 0.09606 0.0
O117 O 0.14106 0.69903 0.15342 0.0
O118 O 0.1778 0.68435 0.15813 0.0
O119 O 0.20416 0.68825 0.13911 0.0
O120 O 0.19865 0.71433 0.10775 0.0
C121 C 0.21712 0.70966 0.12193 0.0
O122 O 0.10768 0.62453 0.13666 0.0
O123 O 0.10438 0.57933 0.14833 0.0
C124 C 0.13909 0.65726 0.07671 0.0
C125 C 0.09106 0.59606 0.14483 0.0
Zn126 Zn 0.8291 0.42561 0.37305 0.0
Zn127 Zn 0.83596 0.53253 0.37125 0.0
Zn128 Zn 0.82925 0.47499 0.36793 0.0
C129 C 0.77867 0.48775 0.39719 0.0
C130 C 0.8258 0.51512 0.32074 0.0
O131 O 0.87893 0.48231 0.37731 0.0
O132 O 0.87346 0.43447 0.37147 0.0
C133 C 0.78221 0.41289 0.40093 0.0
O134 O 0.78902 0.46856 0.39124 0.0
O135 O 0.7938 0.51646 0.38986 0.0
O136 O 0.83563 0.53973 0.33434 0.0
O137 O 0.82209 0.48896 0.33013 0.0
O138 O 0.80603 0.40894 0.40502 0.0
O139 O 0.78634 0.43657 0.38727 0.0
O140 O 0.82034 0.4576 0.32983 0.0
O141 O 0.80381 0.40804 0.34163 0.0
C142 C 0.80683 0.42759 0.32478 0.0
O143 O 0.87339 0.50558 0.38957 0.0
O144 O 0.8755 0.55234 0.39262 0.0
C145 C 0.89135 0.46382 0.37551 0.0
C146 C 0.88609 0.53397 0.39896 0.0
Zn147 Zn 0.25526 0.806 0.36697 0.0
Zn148 Zn 0.36976 0.87039 0.37958 0.0
Zn149 Zn 0.31759 0.84134 0.35882 0.0
C150 C 0.37548 0.83791 0.33789 0.0
C151 C 0.3532 0.81388 0.39458 0.0
O152 O 0.30855 0.85353 0.39586 0.0
O153 O 0.25595 0.82429 0.4005 0.0
C154 C 0.25784 0.82519 0.32078 0.0
O155 O 0.34604 0.82025 0.34523 0.0
O156 O 0.39238 0.86492 0.34819 0.0
O157 O 0.3642 0.83936 0.40737 0.0
O158 O 0.33726 0.81147 0.3745 0.0
O159 O 0.2367 0.81655 0.33771 0.0
O160 O 0.2869 0.83345 0.32671 0.0
O161 O 0.3119 0.79388 0.3544 0.0
O162 O 0.25948 0.76607 0.36319 0.0
C163 C 0.28541 0.76686 0.35647 0.0
O164 O 0.35015 0.88746 0.34334 0.0
O165 O 0.36471 0.90955 0.38014 0.0
C166 C 0.28315 0.8448 0.40904 0.0
C167 C 0.36538 0.91269 0.35662 0.0
Zn168 Zn 0.55447 0.3974 0.3194 0.0
Zn169 Zn 0.45903 0.31265 0.34829 0.0
Zn170 Zn 0.50903 0.35202 0.33544 0.0
C171 C 0.50192 0.28785 0.34582 0.0
C172 C 0.4595 0.29758 0.30104 0.0
O173 O 0.4875 0.38012 0.32365 0.0
O174 O 0.53099 0.41872 0.30612 0.0
C175 C 0.5662 0.39451 0.37038 0.0
O176 O 0.51168 0.30848 0.32793 0.0
O177 O 0.47941 0.2856 0.35979 0.0
O178 O 0.43872 0.301 0.31356 0.0
O179 O 0.4892 0.31221 0.30834 0.0
O180 O 0.57734 0.41291 0.35182 0.0
O181 O 0.53973 0.36793 0.36839 0.0
O182 O 0.52587 0.33105 0.30573 0.0
O183 O 0.56971 0.37612 0.29555 0.0
C184 C 0.55161 0.34647 0.29231 0.0
O185 O 0.50421 0.34823 0.37555 0.0
O186 O 0.4533 0.33667 0.37708 0.0
C187 C 0.50154 0.40672 0.31199 0.0
C188 C 0.47965 0.34448 0.38828 0.0
Zn189 Zn 0.16295 0.43117 0.35781 0.0
Zn190 Zn 0.16967 0.53176 0.38117 0.0
Zn191 Zn 0.17439 0.49246 0.35468 0.0
C192 C 0.18548 0.5584 0.33434 0.0
C193 C 0.23227 0.55491 0.37674 0.0
O194 O 0.16471 0.47385 0.39298 0.0
O195 O 0.13194 0.42216 0.38741 0.0
C196 C 0.16978 0.44321 0.31036 0.0
O197 O 0.19553 0.53816 0.33539 0.0
O198 O 0.16778 0.55872 0.35186 0.0
O199 O 0.21463 0.54929 0.39597 0.0
O200 O 0.21952 0.53801 0.35706 0.0
O201 O 0.15259 0.41715 0.32174 0.0
O202 O 0.17867 0.46951 0.32183 0.0
O203 O 0.2014 0.4891 0.38486 0.0
O204 O 0.2123 0.45584 0.36504 0.0
C205 C 0.22106 0.47906 0.38003 0.0
O206 O 0.12454 0.48315 0.35869 0.0
O207 O 0.1271 0.50185 0.39664 0.0
C208 C 0.14409 0.44634 0.40175 0.0
C209 C 0.11036 0.4865 0.37793 0.0
Zn210 Zn 0.54301 0.12842 0.31869 0.0
Zn211 Zn 0.69072 0.14405 0.34453 0.0
Zn212 Zn 0.64014 0.13669 0.33801 0.0
C213 C 0.68801 0.20151 0.34914 0.0
C214 C 0.69749 0.1649 0.29835 0.0
O215 O 0.6071 0.09026 0.32216 0.0
O216 O 0.57841 0.11367 0.3202 0.0
C217 C 0.59365 0.14701 0.36392 0.0
O218 O 0.66917 0.18757 0.33051 0.0
O219 O 0.69971 0.18658 0.36051 0.0
O220 O 0.70652 0.14687 0.3085 0.0
O221 O 0.67457 0.16776 0.30869 0.0
O222 O 0.58179 0.1338 0.3429 0.0
O223 O 0.62041 0.1489 0.37019 0.0
O224 O 0.64574 0.17227 0.30967 0.0
O225 O 0.5939 0.15032 0.31566 0.0
C226 C 0.61853 0.16925 0.30277 0.0
O227 O 0.64618 0.1324 0.37747 0.0
O228 O 0.67494 0.10888 0.36998 0.0
C229 C 0.58019 0.08833 0.31687 0.0
C230 C 0.65892 0.11597 0.3852 0.0
Zn231 Zn 0.56021 0.72765 0.37695 0.0
Zn232 Zn 0.47728 0.60088 0.39119 0.0
Zn233 Zn 0.51443 0.66827 0.36236 0.0
C234 C 0.45122 0.59641 0.34332 0.0
C235 C 0.45175 0.64086 0.39304 0.0
O236 O 0.53667 0.66874 0.39783 0.0
O237 O 0.58028 0.71519 0.40388 0.0
C238 C 0.56469 0.72837 0.32728 0.0
O239 O 0.47471 0.62545 0.34396 0.0
O240 O 0.44552 0.57853 0.36219 0.0
O241 O 0.46672 0.63267 0.40821 0.0
O242 O 0.46579 0.65478 0.3726 0.0
O243 O 0.58265 0.74557 0.34476 0.0
O244 O 0.53997 0.7014 0.33235 0.0
O245 O 0.48657 0.69207 0.36691 0.0
O246 O 0.52331 0.73605 0.38578 0.0
C247 C 0.49457 0.7185 0.3782 0.0
O248 O 0.51458 0.6286 0.34403 0.0
O249 O 0.5232 0.61312 0.37994 0.0
C250 C 0.56147 0.68693 0.41096 0.0
C251 C 0.52172 0.61023 0.35639 0.0
Zn252 Zn 0.47257 0.78916 0.88573 0.0
Zn253 Zn 0.55587 0.87755 0.83877 0.0
Zn254 Zn 0.51264 0.82985 0.86009 0.0
C255 C 0.5033 0.85615 0.80799 0.0
C256 C 0.57275 0.83372 0.83228 0.0
O257 O 0.53123 0.85068 0.89626 0.0
O258 O 0.48504 0.81912 0.91482 0.0
C259 C 0.43804 0.80277 0.85095 0.0
O260 O 0.49159 0.84421 0.82959 0.0
O261 O 0.53356 0.87191 0.805 0.0
O262 O 0.58874 0.86286 0.83863 0.0
O263 O 0.54252 0.81768 0.83739 0.0
O264 O 0.43357 0.78047 0.86557 0.0
O265 O 0.46679 0.8264 0.84753 0.0
O266 O 0.51401 0.78691 0.84827 0.0
O267 O 0.48979 0.75884 0.88177 0.0
C268 C 0.5048 0.76179 0.86158 0.0
O269 O 0.49548 0.86368 0.85419 0.0
O270 O 0.54425 0.90165 0.86472 0.0
C271 C 0.51296 0.84342 0.91542 0.0
C272 C 0.51436 0.89239 0.86209 0.0
Zn273 Zn 0.69278 0.47733 0.8796 0.0
Zn274 Zn 0.67637 0.5423 0.8275 0.0
Zn275 Zn 0.68077 0.50384 0.84822 0.0
C276 C 0.67069 0.4939 0.79429 0.0
C277 C 0.73497 0.55812 0.81438 0.0
O278 O 0.69578 0.53982 0.87661 0.0
O279 O 0.69898 0.5095 0.90572 0.0
C280 C 0.62887 0.43533 0.86083 0.0
O281 O 0.6914 0.49523 0.81039 0.0
O282 O 0.65725 0.51057 0.79818 0.0
O283 O 0.72397 0.57578 0.82226 0.0
O284 O 0.71986 0.52828 0.82025 0.0
O285 O 0.65005 0.43656 0.87571 0.0
O286 O 0.63434 0.4603 0.84859 0.0
O287 O 0.71663 0.49555 0.8282 0.0
O288 O 0.73158 0.48055 0.86225 0.0
C289 C 0.73536 0.48728 0.83927 0.0
O290 O 0.62991 0.48986 0.84573 0.0
O291 O 0.64271 0.54002 0.85162 0.0
C292 C 0.70033 0.53534 0.8993 0.0
C293 C 0.62138 0.51062 0.85136 0.0
Zn294 Zn 0.1997 0.66288 0.85672 0.0
Zn295 Zn 0.11024 0.65942 0.82051 0.0
Zn296 Zn 0.15481 0.65994 0.83723 0.0
C297 C 0.15096 0.65833 0.78263 0.0
C298 C 0.15262 0.71892 0.81131 0.0
O299 O 0.14888 0.67423 0.87437 0.0
O300 O 0.18617 0.66584 0.89091 0.0
C301 C 0.16757 0.60313 0.83283 0.0
O302 O 0.17138 0.67615 0.79943 0.0
O303 O 0.12114 0.64438 0.78792 0.0
O304 O 0.12341 0.70648 0.81842 0.0
O305 O 0.16782 0.70325 0.81432 0.0
O306 O 0.1939 0.62185 0.84346 0.0
O307 O 0.14599 0.6114 0.82987 0.0
O308 O 0.19737 0.69721 0.81535 0.0
O309 O 0.23472 0.70236 0.8423 0.0
C310 C 0.2271 0.71153 0.82277 0.0
O311 O 0.11464 0.61073 0.83263 0.0
O312 O 0.07689 0.62307 0.84127 0.0
C313 C 0.16406 0.67286 0.8935 0.0
C314 C 0.08516 0.60189 0.83853 0.0
Zn315 Zn 0.44143 0.10047 0.81087 0.0
Zn316 Zn 0.54839 0.20278 0.88042 0.0
Zn317 Zn 0.48422 0.13971 0.83445 0.0
C318 C 0.51824 0.20511 0.83207 0.0
C319 C 0.54967 0.15228 0.83693 0.0
O320 O 0.4899 0.09783 0.83102 0.0
O321 O 0.43748 0.06497 0.83307 0.0
C322 C 0.4327 0.14923 0.8033 0.0
O323 O 0.49835 0.18597 0.81588 0.0
O324 O 0.52791 0.19223 0.8476 0.0
O325 O 0.54886 0.17111 0.85333 0.0
O326 O 0.52298 0.12986 0.82842 0.0
O327 O 0.41239 0.12014 0.80749 0.0
O328 O 0.46238 0.16011 0.80963 0.0
O329 O 0.49523 0.16213 0.79756 0.0
O330 O 0.47507 0.11343 0.78273 0.0
C331 C 0.4946 0.14309 0.78033 0.0
O332 O 0.47389 0.14479 0.87344 0.0
O333 O 0.50826 0.17989 0.90177 0.0
C334 C 0.46608 0.06972 0.83504 0.0
C335 C 0.48047 0.15706 0.89548 0.0
Zn336 Zn 0.33612 0.51306 0.87193 0.0
Zn337 Zn 0.33969 0.44514 0.81235 0.0
Zn338 Zn 0.33547 0.47614 0.84308 0.0
C339 C 0.34146 0.50117 0.79259 0.0
C340 C 0.28022 0.42844 0.80387 0.0
O341 O 0.32251 0.4487 0.87785 0.0
O342 O 0.34436 0.49225 0.90081 0.0
C343 C 0.39366 0.54522 0.84499 0.0
O344 O 0.32168 0.49424 0.81107 0.0
O345 O 0.35638 0.48559 0.79008 0.0
O346 O 0.2942 0.41192 0.80445 0.0
O347 O 0.29328 0.45546 0.81558 0.0
O348 O 0.37451 0.55115 0.85724 0.0
O349 O 0.38529 0.51621 0.83934 0.0
O350 O 0.2974 0.48684 0.82949 0.0
O351 O 0.29131 0.50527 0.86571 0.0
C352 C 0.28138 0.49576 0.84382 0.0
O353 O 0.38573 0.48672 0.83766 0.0
O354 O 0.37201 0.43688 0.82963 0.0
C355 C 0.33345 0.46255 0.89889 0.0
C356 C 0.39333 0.46458 0.83637 0.0
Zn357 Zn 0.88981 0.31127 0.81128 0.0
Zn358 Zn 0.80591 0.3136 0.85235 0.0
Zn359 Zn 0.84688 0.31281 0.82916 0.0
C360 C 0.7734 0.2635 0.81921 0.0
C361 C 0.83695 0.37148 0.82607 0.0
O362 O 0.88781 0.36129 0.82427 0.0
O363 O 0.92429 0.34707 0.83214 0.0
C364 C 0.84519 0.25241 0.80202 0.0
O365 O 0.80196 0.27659 0.80944 0.0
O366 O 0.76893 0.27369 0.8397 0.0
O367 O 0.81179 0.35451 0.8387 0.0
O368 O 0.85706 0.36162 0.82163 0.0
O369 O 0.8745 0.26363 0.80847 0.0
O370 O 0.83125 0.2691 0.80618 0.0
O371 O 0.82799 0.2965 0.79187 0.0
O372 O 0.8782 0.32688 0.77952 0.0
C373 C 0.84827 0.31382 0.77481 0.0
O374 O 0.85667 0.29867 0.86451 0.0
O375 O 0.82474 0.31194 0.88473 0.0
C376 C 0.917 0.36902 0.8301 0.0
C377 C 0.84545 0.30283 0.88495 0.0
Zn378 Zn 0.16377 0.52712 0.5957 0.0
Zn379 Zn 0.09251 0.43437 0.64895 0.0
Zn380 Zn 0.1572 0.49263 0.63452 0.0
C381 C 0.12646 0.48419 0.68306 0.0
C382 C 0.14633 0.42817 0.66266 0.0
O383 O 0.14704 0.4642 0.60021 0.0
O384 O 0.12871 0.48981 0.57744 0.0
C385 C 0.17871 0.5625 0.63892 0.0
O386 O 0.14847 0.48077 0.67239 0.0
O387 O 0.09748 0.46573 0.67667 0.0
O388 O 0.11851 0.41021 0.65343 0.0
O389 O 0.15922 0.45863 0.66044 0.0
O390 O 0.16054 0.55808 0.62036 0.0
O391 O 0.18825 0.54237 0.64308 0.0
O392 O 0.20809 0.52673 0.62905 0.0
O393 O 0.20895 0.53404 0.58865 0.0
C394 C 0.22378 0.53502 0.60845 0.0
O395 O 0.11518 0.49655 0.62574 0.0
O396 O 0.07517 0.44748 0.61872 0.0
C397 C 0.13237 0.46576 0.58069 0.0
C398 C 0.08646 0.47762 0.61805 0.0
Zn399 Zn 0.66888 0.10441 0.6372 0.0
Zn400 Zn 0.66831 0.18501 0.58985 0.0
Zn401 Zn 0.66708 0.14638 0.61802 0.0
C402 C 0.71184 0.21835 0.62915 0.0
C403 C 0.60658 0.15395 0.6135 0.0
O404 O 0.61893 0.10614 0.62002 0.0
O405 O 0.63664 0.07249 0.61252 0.0
C406 C 0.72616 0.15185 0.64944 0.0
O407 O 0.69812 0.19029 0.63893 0.0
O408 O 0.7055 0.22212 0.60695 0.0
O409 O 0.62358 0.17655 0.5987 0.0
O410 O 0.61771 0.13654 0.6221 0.0
O411 O 0.71802 0.12416 0.64108 0.0
O412 O 0.70765 0.16367 0.6449 0.0
O413 O 0.67722 0.16347 0.65651 0.0
O414 O 0.64722 0.11325 0.66719 0.0
C415 C 0.65764 0.14248 0.67221 0.0
O416 O 0.68425 0.13304 0.58547 0.0
O417 O 0.67505 0.16368 0.56035 0.0
C418 C 0.6134 0.07836 0.61304 0.0
C419 C 0.68268 0.14228 0.56349 0.0
Zn420 Zn 0.47196 0.6853 0.58034 0.0
Zn421 Zn 0.55018 0.65688 0.67264 0.0
Zn422 Zn 0.52349 0.6672 0.64292 0.0
C423 C 0.4944 0.65791 0.692 0.0
C424 C 0.56936 0.71774 0.68115 0.0
O425 O 0.55432 0.68319 0.61027 0.0
O426 O 0.51139 0.68406 0.59832 0.0
C427 C 0.46239 0.63022 0.61895 0.0
O428 O 0.50424 0.67989 0.67521 0.0
O429 O 0.50819 0.64119 0.69354 0.0
O430 O 0.5846 0.70256 0.67864 0.0
O431 O 0.54131 0.70624 0.671 0.0
O432 O 0.47826 0.65728 0.60815 0.0
O433 O 0.47726 0.62428 0.63605 0.0
O434 O 0.51086 0.70385 0.65482 0.0
O435 O 0.49354 0.69292 0.61658 0.0
C436 C 0.4987 0.71044 0.63594 0.0
O437 O 0.50315 0.61572 0.64392 0.0
O438 O 0.55318 0.62643 0.64842 0.0
C439 C 0.53786 0.68494 0.59238 0.0
C440 C 0.52453 0.60708 0.64172 0.0
Zn441 Zn 0.90206 0.55014 0.66068 0.0
Zn442 Zn 0.81186 0.48561 0.59326 0.0
Zn443 Zn 0.85368 0.51794 0.6288 0.0
C444 C 0.79116 0.52433 0.61813 0.0
C445 C 0.80736 0.44057 0.62669 0.0
O446 O 0.9022 0.53717 0.61075 0.0
O447 O 0.93992 0.56525 0.63857 0.0
C448 C 0.85879 0.57319 0.6667 0.0
O449 O 0.81611 0.53222 0.632 0.0
O450 O 0.786 0.50678 0.5992 0.0
O451 O 0.79401 0.44153 0.60669 0.0
O452 O 0.82955 0.46639 0.63674 0.0
O453 O 0.88692 0.57927 0.67262 0.0
O454 O 0.84252 0.55112 0.65042 0.0
O455 O 0.85219 0.48366 0.65484 0.0
O456 O 0.89207 0.51131 0.68137 0.0
C457 C 0.86845 0.4851 0.67429 0.0
O458 O 0.87866 0.53001 0.59172 0.0
O459 O 0.84144 0.49866 0.56449 0.0
C460 C 0.93227 0.55294 0.61711 0.0
C461 C 0.87007 0.51988 0.56919 0.0
Zn462 Zn 0.31614 0.79881 0.60959 0.0
Zn463 Zn 0.33296 0.89121 0.64925 0.0
Zn464 Zn 0.33045 0.84331 0.63604 0.0
C465 C 0.34941 0.86347 0.68852 0.0
C466 C 0.27637 0.84426 0.6679 0.0
O467 O 0.30787 0.85477 0.60637 0.0
O468 O 0.29588 0.81253 0.58328 0.0
C469 C 0.38304 0.82718 0.6185 0.0
O470 O 0.32806 0.83879 0.67648 0.0
O471 O 0.35871 0.89089 0.67945 0.0
O472 O 0.28363 0.86977 0.65609 0.0
O473 O 0.2953 0.83239 0.66625 0.0
O474 O 0.36108 0.80582 0.60513 0.0
O475 O 0.37689 0.84567 0.63181 0.0
O476 O 0.30378 0.80581 0.66376 0.0
O477 O 0.28973 0.76711 0.63591 0.0
C478 C 0.28942 0.77591 0.65813 0.0
O479 O 0.37949 0.87976 0.63174 0.0
O480 O 0.36273 0.91265 0.61941 0.0
C481 C 0.29612 0.83866 0.58644 0.0
C482 C 0.3852 0.90569 0.62084 0.0
Zn483 Zn 0.55486 0.33855 0.60145 0.0
Zn484 Zn 0.46403 0.33415 0.64155 0.0
Zn485 Zn 0.5089 0.33737 0.62189 0.0
C486 C 0.51653 0.34864 0.67454 0.0
C487 C 0.45523 0.27937 0.65566 0.0
O488 O 0.4858 0.31818 0.58737 0.0
O489 O 0.53097 0.32743 0.569 0.0
C490 C 0.57489 0.40078 0.62047 0.0
O491 O 0.51701 0.32788 0.65959 0.0
O492 O 0.49668 0.35828 0.66996 0.0
O493 O 0.43449 0.28667 0.64816 0.0
O494 O 0.48512 0.29735 0.64942 0.0
O495 O 0.58554 0.3841 0.6103 0.0
O496 O 0.54472 0.38829 0.62567 0.0
O497 O 0.51848 0.30334 0.64356 0.0
O498 O 0.5567 0.30361 0.6198 0.0
C499 C 0.53754 0.29226 0.63804 0.0
O500 O 0.51122 0.38361 0.62325 0.0
O501 O 0.45884 0.36342 0.61774 0.0
C502 C 0.50113 0.31841 0.5678 0.0
C503 C 0.48713 0.38744 0.6176 0.0
H504 H 0.49079 0.26644 0.28487 0.0
H505 H 0.36862 0.17444 0.17446 0.0
H506 H 0.40379 0.27134 0.2732 0.0
H507 H 0.44709 0.1587 0.1953 0.0
H508 H 0.3772 0.20535 0.21272 0.0
H509 H 0.47301 0.22458 0.2534 0.0
C510 C 0.46801 0.25888 0.27552 0.0
C511 C 0.44904 0.2729 0.28131 0.0
C512 C 0.39211 0.19459 0.20916 0.0
C513 C 0.42812 0.22428 0.24545 0.0
C514 C 0.38705 0.17667 0.18739 0.0
C515 C 0.40753 0.16437 0.18137 0.0
C516 C 0.41798 0.20045 0.22491 0.0
C517 C 0.43089 0.16796 0.19896 0.0
C518 C 0.45767 0.23466 0.25772 0.0
C519 C 0.41933 0.26146 0.26906 0.0
N520 N 0.43589 0.1862 0.21965 0.0
N521 N 0.4099 0.23801 0.25151 0.0
H522 H 0.24984 0.39958 0.17944 0.0
H523 H 0.20973 0.49548 0.28251 0.0
H524 H 0.30493 0.50162 0.18974 0.0
H525 H 0.16556 0.39268 0.2829 0.0
H526 H 0.24193 0.49747 0.2465 0.0
H527 H 0.21745 0.39583 0.21625 0.0
C528 C 0.25563 0.42112 0.1898 0.0
C529 C 0.28061 0.45092 0.18176 0.0
C530 C 0.22509 0.47443 0.25434 0.0
C531 C 0.24298 0.44692 0.22341 0.0
C532 C 0.20639 0.47321 0.27482 0.0
C533 C 0.18483 0.44382 0.28589 0.0
C534 C 0.22227 0.44607 0.2446 0.0
C535 C 0.18176 0.41586 0.27499 0.0
C536 C 0.23699 0.41898 0.21069 0.0
C537 C 0.28669 0.47808 0.19565 0.0
N538 N 0.20037 0.41768 0.25501 0.0
N539 N 0.26786 0.47546 0.21562 0.0
H540 H 0.83265 0.26786 0.17843 0.0
H541 H 0.69451 0.21636 0.28048 0.0
H542 H 0.7547 0.28862 0.17156 0.0
H543 H 0.74163 0.16079 0.26731 0.0
H544 H 0.72234 0.24915 0.24443 0.0
H545 H 0.80534 0.23424 0.21469 0.0
C546 C 0.80998 0.26563 0.18466 0.0
C547 C 0.79634 0.28174 0.17224 0.0
C548 C 0.72645 0.22966 0.24932 0.0
C549 C 0.76513 0.24341 0.21368 0.0
C550 C 0.71042 0.21073 0.26985 0.0
C551 C 0.71493 0.18505 0.27655 0.0
C552 C 0.74799 0.2236 0.23568 0.0
C553 C 0.73701 0.17998 0.26259 0.0
C554 C 0.7944 0.24636 0.20528 0.0
C555 C 0.76667 0.27754 0.18096 0.0
N556 N 0.75279 0.19913 0.24281 0.0
N557 N 0.75222 0.25904 0.20125 0.0
H558 H 0.50903 0.78409 0.19465 0.0
H559 H 0.53284 0.69825 0.28437 0.0
H560 H 0.6068 0.85988 0.2072 0.0
H561 H 0.60645 0.78971 0.31228 0.0
H562 H 0.53309 0.72354 0.24506 0.0
H563 H 0.51481 0.75378 0.22769 0.0
C564 C 0.53189 0.79451 0.20433 0.0
C565 C 0.55734 0.82501 0.19825 0.0
C566 C 0.549 0.73823 0.25982 0.0
C567 C 0.5648 0.78898 0.23586 0.0
C568 C 0.54921 0.72363 0.28218 0.0
C569 C 0.56913 0.74195 0.30188 0.0
C570 C 0.56836 0.77156 0.25729 0.0
C571 C 0.59031 0.77468 0.29773 0.0
C572 C 0.53542 0.77663 0.22302 0.0
C573 C 0.58651 0.83655 0.21133 0.0
N574 N 0.58903 0.78854 0.27604 0.0
N575 N 0.58935 0.81864 0.22976 0.0
H576 H 0.70893 0.47467 0.18693 0.0
H577 H 0.84783 0.56619 0.2893 0.0
H578 H 0.77847 0.5754 0.18446 0.0
H579 H 0.77586 0.46667 0.295 0.0
H580 H 0.82369 0.5692 0.24994 0.0
H581 H 0.73309 0.47067 0.22607 0.0
C582 C 0.72898 0.49604 0.19474 0.0
C583 C 0.74159 0.52546 0.1823 0.0
C584 C 0.81337 0.54655 0.25959 0.0
C585 C 0.76974 0.52089 0.227 0.0
C586 C 0.82731 0.54478 0.282 0.0
C587 C 0.81436 0.51593 0.29517 0.0
C588 C 0.78597 0.51932 0.25029 0.0
C589 C 0.78733 0.48911 0.28505 0.0
C590 C 0.74292 0.49368 0.21703 0.0
C591 C 0.76783 0.55222 0.19331 0.0
N592 N 0.774 0.49145 0.26327 0.0
N593 N 0.78104 0.54926 0.21489 0.0
H594 H 0.29235 0.82294 0.28057 0.0
H595 H 0.13514 0.72615 0.1952 0.0
H596 H 0.19827 0.80815 0.30128 0.0
H597 H 0.22392 0.72372 0.18607 0.0
H598 H 0.15977 0.7637 0.23013 0.0
H599 H 0.26995 0.796 0.24093 0.0
C600 C 0.26719 0.81483 0.27655 0.0
C601 C 0.24709 0.81749 0.29448 0.0
C602 C 0.1738 0.75492 0.22041 0.0
C603 C 0.22113 0.78598 0.24925 0.0
C604 C 0.15973 0.73343 0.20057 0.0
C605 C 0.17729 0.72136 0.18797 0.0
C606 C 0.2058 0.76473 0.22742 0.0
C607 C 0.20922 0.7319 0.19551 0.0
C608 C 0.25431 0.79908 0.25399 0.0
C609 C 0.21461 0.80636 0.28813 0.0
N610 N 0.22239 0.7529 0.21471 0.0
N611 N 0.20254 0.79073 0.26619 0.0
H612 H 0.5518 0.76375 0.68761 0.0
H613 H 0.56991 0.77574 0.82863 0.0
H614 H 0.60854 0.7261 0.7206 0.0
H615 H 0.60008 0.86383 0.78919 0.0
H616 H 0.5766 0.75192 0.78993 0.0
H617 H 0.56151 0.79707 0.72507 0.0
C618 C 0.56679 0.76299 0.70244 0.0
C619 C 0.5795 0.74227 0.70095 0.0
C620 C 0.58251 0.77672 0.79002 0.0
C621 C 0.58955 0.77912 0.7438 0.0
C622 C 0.57882 0.79025 0.81202 0.0
C623 C 0.58493 0.82182 0.81207 0.0
C624 C 0.59107 0.79458 0.7679 0.0
C625 C 0.59581 0.83959 0.78996 0.0
C626 C 0.57227 0.7819 0.72372 0.0
C627 C 0.59848 0.74191 0.72086 0.0
N628 N 0.59777 0.82547 0.76852 0.0
N629 N 0.6023 0.75948 0.74173 0.0
H630 H 0.79606 0.5608 0.6665 0.0
H631 H 0.77593 0.61955 0.79747 0.0
H632 H 0.88569 0.61573 0.7056 0.0
H633 H 0.74633 0.5206 0.78265 0.0
H634 H 0.80793 0.63416 0.75843 0.0
H635 H 0.76691 0.56408 0.70308 0.0
C636 C 0.80957 0.57404 0.68244 0.0
C637 C 0.84294 0.58614 0.68337 0.0
C638 C 0.79437 0.60937 0.76405 0.0
C639 C 0.81038 0.59168 0.7248 0.0
C640 C 0.77641 0.60102 0.78629 0.0
C641 C 0.75849 0.56879 0.7935 0.0
C642 C 0.79335 0.58518 0.74881 0.0
C643 C 0.75978 0.54573 0.77815 0.0
C644 C 0.79308 0.57623 0.70323 0.0
C645 C 0.8597 0.60494 0.70425 0.0
N646 N 0.77648 0.55433 0.75642 0.0
N647 N 0.84317 0.60646 0.72448 0.0
H648 H 0.28991 0.86575 0.71511 0.0
H649 H 0.12336 0.72633 0.77039 0.0
H650 H 0.21254 0.79779 0.66875 0.0
H651 H 0.21304 0.77082 0.81084 0.0
H652 H 0.15047 0.76243 0.73522 0.0
H653 H 0.25665 0.84104 0.75217 0.0
C654 C 0.26544 0.8462 0.71278 0.0
C655 C 0.2536 0.83403 0.68897 0.0
C656 C 0.16405 0.76473 0.752 0.0
C657 C 0.21571 0.80522 0.73117 0.0
C658 C 0.14853 0.74447 0.77218 0.0
C659 C 0.16613 0.74576 0.79351 0.0
C660 C 0.19729 0.78665 0.75335 0.0
C661 C 0.19882 0.76907 0.79464 0.0
C662 C 0.24662 0.83194 0.73389 0.0
C663 C 0.22219 0.80812 0.68684 0.0
N664 N 0.21343 0.78851 0.77481 0.0
N665 N 0.2043 0.79441 0.70773 0.0
H666 H 0.38526 0.12791 0.76736 0.0
H667 H 0.49744 0.27501 0.68722 0.0
H668 H 0.46427 0.2137 0.79842 0.0
H669 H 0.39526 0.232 0.67213 0.0
H670 H 0.48537 0.24359 0.72469 0.0
H671 H 0.38596 0.15869 0.73058 0.0
C672 C 0.402 0.15337 0.76687 0.0
C673 C 0.42526 0.16821 0.78573 0.0
C674 C 0.46554 0.24087 0.71313 0.0
C675 C 0.42667 0.20285 0.74373 0.0
C676 C 0.47238 0.25847 0.69136 0.0
C677 C 0.44733 0.25614 0.67621 0.0
C678 C 0.4334 0.22034 0.71995 0.0
C679 C 0.41531 0.2345 0.68325 0.0
C680 C 0.4025 0.17077 0.74582 0.0
C681 C 0.44647 0.20116 0.78406 0.0
N682 N 0.40916 0.21721 0.70469 0.0
N683 N 0.44719 0.2172 0.76317 0.0
H684 H 0.12825 0.42313 0.71092 0.0
H685 H 0.27059 0.3952 0.76053 0.0
H686 H 0.19348 0.41132 0.66205 0.0
H687 H 0.23129 0.44349 0.80389 0.0
H688 H 0.23361 0.38853 0.72662 0.0
H689 H 0.15695 0.41816 0.74708 0.0
C690 C 0.14794 0.41832 0.70786 0.0
C691 C 0.15808 0.41681 0.68353 0.0
C692 C 0.23288 0.40039 0.74362 0.0
C693 C 0.19148 0.4119 0.72472 0.0
C694 C 0.25381 0.40401 0.76314 0.0
C695 C 0.25436 0.42037 0.78509 0.0
C696 C 0.21185 0.41275 0.74608 0.0
C697 C 0.23218 0.43142 0.78716 0.0
C698 C 0.16455 0.41594 0.72847 0.0
C699 C 0.18447 0.41182 0.68051 0.0
N700 N 0.21186 0.42748 0.7679 0.0
N701 N 0.20029 0.40954 0.70087 0.0
H702 H 0.77015 0.13426 0.66609 0.0
H703 H 0.78179 0.20902 0.79688 0.0
H704 H 0.73684 0.20163 0.67984 0.0
H705 H 0.87461 0.23824 0.76374 0.0
H706 H 0.75569 0.18213 0.75786 0.0
H707 H 0.80209 0.1526 0.70496 0.0
C708 C 0.76994 0.15319 0.67691 0.0
C709 C 0.75061 0.1663 0.66961 0.0
C710 C 0.78175 0.19363 0.75945 0.0
C711 C 0.78582 0.18615 0.7141 0.0
C712 C 0.79655 0.20892 0.78163 0.0
C713 C 0.83024 0.22644 0.78334 0.0
C714 C 0.80084 0.19531 0.73896 0.0
C715 C 0.84848 0.22496 0.76319 0.0
C716 C 0.78799 0.16342 0.69905 0.0
C717 C 0.75119 0.19066 0.68451 0.0
N718 N 0.83354 0.21014 0.74152 0.0
N719 N 0.76793 0.1993 0.70621 0.0
H720 H 0.43835 0.02183 0.09566 0.0
H721 H 0.44067 0.91935 0.20551 0.0
H722 H 0.44098 0.05832 0.16991 0.0
H723 H 0.50112 0.93813 0.14055 0.0
H724 H 0.43484 0.96586 0.19518 0.0
H725 H 0.45118 0.98291 0.11302 0.0
C726 C 0.44098 0.02133 0.11569 0.0
C727 C 0.43891 0.04373 0.1313 0.0
C728 C 0.4501 0.96023 0.18368 0.0
C729 C 0.45388 -0.00084 0.15119 0.0
C730 C 0.45371 0.93395 0.18964 0.0
C731 C 0.47114 0.92467 0.1737 0.0
C732 C 0.46336 0.97661 0.16137 0.0
C733 C 0.48743 0.94432 0.15334 0.0
C734 C 0.44879 -0.00063 0.1255 0.0
C735 C 0.44244 0.04158 0.15717 0.0
N736 N 0.48234 0.96881 0.14733 0.0
N737 N 0.44979 0.01963 0.16638 0.0
H738 H 0.58247 0.49392 0.05547 0.0
H739 H 0.43893 0.46634 0.14793 0.0
H740 H 0.58687 0.48786 0.13546 0.0
H741 H 0.4413 0.4932 0.07112 0.0
H742 H 0.48973 0.46642 0.14178 0.0
H743 H 0.52941 0.48996 0.05953 0.0
C744 C 0.57255 0.49245 0.07395 0.0
C745 C 0.58923 0.4914 0.0952 0.0
C746 C 0.47894 0.47171 0.12608 0.0
C747 C 0.52795 0.48573 0.09987 0.0
C748 C 0.44959 0.47105 0.12946 0.0
C749 C 0.43568 0.47936 0.10991 0.0
C750 C 0.49477 0.48098 0.10298 0.0
C751 C 0.45085 0.48597 0.08651 0.0
C752 C 0.54212 0.48987 0.07621 0.0
C753 C 0.57511 0.4892 0.11862 0.0
N754 N 0.47985 0.48702 0.08375 0.0
N755 N 0.54515 0.48608 0.1203 0.0
H756 H 0.89401 0.48651 0.09779 0.0
H757 H 0.05439 0.55207 0.17924 0.0
H758 H 0.91451 0.43016 0.14923 0.0
H759 H 0.04771 0.60222 0.11515 0.0
H760 H 0.99709 0.51334 0.17531 0.0
H761 H 0.9451 0.53369 0.10948 0.0
C762 C 0.9092 0.48406 0.11157 0.0
C763 C 0.90018 0.45427 0.12236 0.0
C764 C 0.00792 0.53312 0.16236 0.0
C765 C 0.95817 0.50818 0.13608 0.0
C766 C 0.04053 0.5554 0.16475 0.0
C767 C 0.05573 0.58007 0.14731 0.0
C768 C 0.99046 0.5353 0.14219 0.0
C769 C 0.03677 0.58348 0.12896 0.0
C770 C 0.93825 0.51101 0.11827 0.0
C771 C 0.92067 0.45253 0.14021 0.0
N772 N 0.0051 0.56086 0.12653 0.0
N773 N 0.9487 0.4791 0.14647 0.0
H774 H 0.92003 0.45458 0.41544 0.0
H775 H 0.07438 0.48292 0.33698 0.0
H776 H 0.93943 0.49447 0.34153 0.0
H777 H 0.0696 0.47484 0.41718 0.0
H778 H 0.02215 0.48148 0.33723 0.0
H779 H 0.97344 0.45905 0.41615 0.0
C780 C 0.93616 0.46546 0.39974 0.0
C781 C 0.92596 0.47527 0.37876 0.0
C782 C 0.03247 0.4798 0.35473 0.0
C783 C 0.98614 0.47844 0.37867 0.0
C784 C 0.06199 0.48007 0.35457 0.0
C785 C 0.07626 0.47887 0.3771 0.0
C786 C 0.01701 0.47791 0.37756 0.0
C787 C 0.05943 0.47582 0.39939 0.0
C788 C 0.9664 0.46753 0.39996 0.0
C789 C 0.94698 0.48765 0.35835 0.0
N790 N 0.03075 0.47546 0.39906 0.0
N791 N 0.97602 0.48857 0.35867 0.0
H792 H 0.38189 0.92621 0.30694 0.0
H793 H 0.56366 0.03109 0.33821 0.0
H794 H 0.41312 0.96383 0.38126 0.0
H795 H 0.52786 0.0773 0.28926 0.0
H796 H 0.5081 0.98712 0.34372 0.0
H797 H 0.4352 0.96667 0.29093 0.0
C798 C 0.39954 0.9433 0.31979 0.0
C799 C 0.39302 0.94139 0.34555 0.0
C800 C 0.51274 0.00647 0.33113 0.0
C801 C 0.45381 0.98617 0.3275 0.0
C802 C 0.54434 0.03128 0.32775 0.0
C803 C 0.55016 0.05778 0.31336 0.0
C804 C 0.48716 0.00802 0.3196 0.0
C805 C 0.52415 0.0572 0.30059 0.0
C806 C 0.42991 0.96602 0.31065 0.0
C807 C 0.41695 0.9641 0.36132 0.0
N808 N 0.49353 0.03281 0.30423 0.0
N809 N 0.44649 0.98507 0.35212 0.0
H810 H 0.4602 0.41094 0.34514 0.0
H811 H 0.51767 0.59176 0.30698 0.0
H812 H 0.51364 0.45291 0.27759 0.0
H813 H 0.50434 0.55543 0.38214 0.0
H814 H 0.50093 0.53756 0.29121 0.0
H815 H 0.45755 0.45968 0.35288 0.0
C816 C 0.47006 0.42978 0.33133 0.0
C817 C 0.48765 0.42813 0.31093 0.0
C818 C 0.50154 0.54167 0.31113 0.0
C819 C 0.48547 0.48416 0.31998 0.0
C820 C 0.51134 0.57254 0.32012 0.0
C821 C 0.51313 0.5784 0.34592 0.0
C822 C 0.49272 0.51648 0.32809 0.0
C823 C 0.50404 0.55241 0.36211 0.0
C824 C 0.46902 0.45782 0.33596 0.0
C825 C 0.50023 0.45347 0.29375 0.0
N826 N 0.49424 0.52275 0.35294 0.0
N827 N 0.49952 0.48078 0.29891 0.0
H828 H 0.42238 0.00579 0.83311 0.0
H829 H 0.5449 0.95127 0.88406 0.0
H830 H 0.52202 0.07218 0.85073 0.0
H831 H 0.46143 0.88968 0.83976 0.0
H832 H 0.53203 0.99421 0.8793 0.0
H833 H 0.43189 0.96145 0.84241 0.0
C834 C 0.44623 0.01107 0.83906 0.0
C835 C 0.4715 0.04278 0.84107 0.0
C836 C 0.51628 0.97114 0.87092 0.0
C837 C 0.48236 0.9921 0.85198 0.0
C838 C 0.52348 0.94656 0.87373 0.0
C839 C 0.50391 0.91664 0.86256 0.0
C840 C 0.48921 0.96578 0.85693 0.0
C841 C 0.47657 0.91198 0.84928 0.0
C842 C 0.45162 0.98573 0.84429 0.0
C843 C 0.50191 0.04814 0.84879 0.0
N844 N 0.47006 0.93632 0.84676 0.0
N845 N 0.50646 0.02305 0.85405 0.0
H846 H 0.56768 0.45158 0.84461 0.0
H847 H 0.44584 0.52093 0.8516 0.0
H848 H 0.5966 0.54907 0.86435 0.0
H849 H 0.4164 0.42282 0.83371 0.0
H850 H 0.50065 0.53085 0.85912 0.0
H851 H 0.51134 0.43939 0.84393 0.0
C852 C 0.56218 0.47031 0.84913 0.0
C853 C 0.58696 0.50147 0.8543 0.0
C854 C 0.48214 0.50711 0.85366 0.0
C855 C 0.5226 0.4878 0.85327 0.0
C856 C 0.45084 0.50147 0.8493 0.0
C857 C 0.4265 0.47108 0.8418 0.0
C858 C 0.48919 0.4822 0.85045 0.0
C859 C 0.4344 0.4467 0.8393 0.0
C860 C 0.53001 0.46338 0.84863 0.0
C861 C 0.57835 0.52477 0.86003 0.0
N862 N 0.46505 0.45283 0.84349 0.0
N863 N 0.54697 0.51754 0.85914 0.0
H864 H 0.98154 0.39388 0.84062 0.0
H865 H 0.01979 0.57543 0.84523 0.0
H866 H 0.91021 0.4221 0.82647 0.0
H867 H 0.09378 0.54963 0.83487 0.0
H868 H 0.979 0.51879 0.84479 0.0
H869 H 0.0227 0.45033 0.84457 0.0
C870 C 0.9744 0.41187 0.83853 0.0
C871 C 0.94214 0.4031 0.83338 0.0
C872 C 0.0042 0.52553 0.84274 0.0
C873 C 0.98922 0.46781 0.83804 0.0
C874 C 0.02758 0.5579 0.84309 0.0
C875 C 0.06044 0.56745 0.84009 0.0
C876 C 0.01365 0.50236 0.83961 0.0
C877 C 0.06888 0.54349 0.83734 0.0
C878 C 0.99796 0.4441 0.84074 0.0
C879 C 0.93451 0.42759 0.83077 0.0
N880 N 0.04569 0.5121 0.83717 0.0
N881 N 0.95778 0.45874 0.83319 0.0
H882 H 0.1014 0.54022 0.61854 0.0
H883 H 0.92244 0.50189 0.58828 0.0
H884 H 0.0249 0.44636 0.59802 0.0
H885 H 0.9978 0.59188 0.61675 0.0
H886 H 0.9625 0.48499 0.58109 0.0
H887 H 0.06682 0.56218 0.60832 0.0
C888 C 0.07755 0.52419 0.61141 0.0
C889 C 0.06625 0.49127 0.60919 0.0
C890 C 0.97043 0.50878 0.58825 0.0
C891 C 0.02576 0.51648 0.59787 0.0
C892 C 0.94762 0.51871 0.59197 0.0
C893 C 0.95672 0.54831 0.60337 0.0
C894 C 0.00253 0.52864 0.59589 0.0
C895 C 0.98966 0.56879 0.60811 0.0
C896 C 0.05763 0.53683 0.60567 0.0
C897 C 0.03469 0.47185 0.60018 0.0
N898 N 0.01122 0.55837 0.60478 0.0
N899 N 0.01543 0.48468 0.59513 0.0
H900 H 0.55955 0.08417 0.6066 0.0
H901 H 0.43864 0.89823 0.61996 0.0
H902 H 0.59107 0.01421 0.60773 0.0
H903 H 0.40758 0.96657 0.6038 0.0
H904 H 0.49444 0.93957 0.61249 0.0
H905 H 0.50384 0.04114 0.60273 0.0
C906 C 0.55481 0.05978 0.60583 0.0
C907 C 0.58002 0.05279 0.60783 0.0
C908 C 0.47538 0.94542 0.61024 0.0
C909 C 0.51613 0.00329 0.60354 0.0
C910 C 0.44346 0.92179 0.6145 0.0
C911 C 0.41838 0.929 0.6128 0.0
C912 C 0.48233 0.97661 0.60453 0.0
C913 C 0.42614 0.95996 0.60554 0.0
C914 C 0.52294 0.03518 0.60353 0.0
C915 C 0.57238 0.0207 0.60642 0.0
N916 N 0.45747 0.98273 0.60201 0.0
N917 N 0.54107 -0.00289 0.60469 0.0
H918 H 0.54376 0.44325 0.61047 0.0
H919 H 0.46471 0.55354 0.63503 0.0
H920 H 0.44092 0.40556 0.61738 0.0
H921 H 0.56693 0.58812 0.62699 0.0
H922 H 0.45422 0.49977 0.62349 0.0
H923 H 0.55158 0.49713 0.61105 0.0
C924 C 0.52278 0.44629 0.6119 0.0
C925 C 0.49172 0.41986 0.61427 0.0
C926 C 0.4789 0.51927 0.62404 0.0
C927 C 0.50043 0.48165 0.61519 0.0
C928 C 0.48486 0.54989 0.6306 0.0
C929 C 0.51674 0.57517 0.6324 0.0
C930 C 0.50503 0.51412 0.6192 0.0
C931 C 0.54197 0.56924 0.62629 0.0
C932 C 0.52722 0.47712 0.61222 0.0
C933 C 0.46535 0.42529 0.61568 0.0
N934 N 0.53558 0.53937 0.62018 0.0
N935 N 0.47033 0.45561 0.61647 0.0
H936 H 0.52517 0.19694 0.17689 0.0
H937 H 0.64697 0.16824 0.25943 0.0
H938 H 0.56464 0.13662 0.15582 0.0
H939 H 0.57841 0.19238 0.29078 0.0
H940 H 0.63139 0.17519 0.21766 0.0
H941 H 0.55833 0.2125 0.21475 0.0
C942 C 0.5413 0.18749 0.18 0.0
C943 C 0.54185 0.16505 0.16352 0.0
C944 C 0.62045 0.17993 0.23367 0.0
C945 C 0.5798 0.18295 0.20636 0.0
C946 C 0.6298 0.1766 0.25751 0.0
C947 C 0.6145 0.18056 0.27845 0.0
C948 C 0.59531 0.18684 0.23084 0.0
C949 C 0.59088 0.1894 0.27496 0.0
C950 C 0.56008 0.19632 0.20157 0.0
C951 C 0.56314 0.15357 0.16831 0.0
N952 N 0.58171 0.19198 0.2515 0.0
N953 N 0.58114 0.16248 0.18943 0.0
H954 H 0.44268 0.63049 0.30694 0.0
H955 H 0.36459 0.48786 0.2079 0.0
H956 H 0.4173 0.5341 0.32638 0.0
H957 H 0.38161 0.58327 0.19544 0.0
H958 H 0.37769 0.50121 0.2524 0.0
H959 H 0.41555 0.61129 0.26707 0.0
C960 C 0.43123 0.60517 0.30282 0.0
C961 C 0.43245 0.58392 0.31995 0.0
C962 C 0.37793 0.51898 0.23997 0.0
C963 C 0.40134 0.56152 0.2739 0.0
C964 C 0.3702 0.51126 0.21465 0.0
C965 C 0.3724 0.53463 0.19796 0.0
C966 C 0.38785 0.55021 0.24842 0.0
C967 C 0.38001 0.56465 0.2076 0.0
C968 C 0.41558 0.59412 0.28002 0.0
C969 C 0.41686 0.55128 0.31368 0.0
N970 N 0.38777 0.57164 0.23201 0.0
N971 N 0.40228 0.54109 0.291 0.0
H972 H 0.73422 0.37128 0.17344 0.0
H973 H 0.82742 0.45888 0.28017 0.0
H974 H 0.80654 0.34494 0.18949 0.0
H975 H 0.76105 0.36719 0.31215 0.0
H976 H 0.81102 0.43507 0.23835 0.0
H977 H 0.7346 0.38535 0.21765 0.0
C978 C 0.74889 0.36689 0.1865 0.0
C979 C 0.7699 0.35629 0.17801 0.0
C980 C 0.79983 0.42053 0.25468 0.0
C981 C 0.77077 0.37275 0.22781 0.0
C982 C 0.80899 0.43402 0.27839 0.0
C983 C 0.79536 0.41504 0.29954 0.0
C984 C 0.77734 0.38792 0.25233 0.0
C985 C 0.77217 0.38262 0.29624 0.0
C986 C 0.74927 0.37518 0.2115 0.0
C987 C 0.78917 0.35188 0.19545 0.0
N988 N 0.76411 0.36988 0.27299 0.0
N989 N 0.78958 0.36069 0.21958 0.0
H990 H 0.49728 0.83246 0.22109 0.0
H991 H 0.34416 0.78458 0.30884 0.0
H992 H 0.39827 0.77394 0.1978 0.0
H993 H 0.43867 0.86525 0.32293 0.0
H994 H 0.36628 0.76983 0.27327 0.0
H995 H 0.47836 0.83382 0.26347 0.0
C996 C 0.47163 0.81933 0.22504 0.0
C997 C 0.44919 0.80342 0.20596 0.0
C998 C 0.38226 0.79051 0.28437 0.0
C999 C 0.42753 0.8049 0.25408 0.0
C1000 C 0.36968 0.79888 0.30471 0.0
C1001 C 0.38952 0.82641 0.31863 0.0
C1002 C 0.41492 0.80979 0.27794 0.0
C1003 C 0.42243 0.84405 0.31248 0.0
C1004 C 0.46086 0.82026 0.24914 0.0
C1005 C 0.41626 0.78684 0.21199 0.0
N1006 N 0.43407 0.83561 0.2924 0.0
N1007 N 0.40638 0.78822 0.23549 0.0
H1008 H 0.60672 0.34702 0.27862 0.0
H1009 H 0.56294 0.36691 0.1403 0.0
H1010 H 0.51063 0.31922 0.25352 0.0
H1011 H 0.65911 0.41004 0.17108 0.0
H1012 H 0.54244 0.33272 0.17719 0.0
H1013 H 0.62406 0.35085 0.23523 0.0
C1014 C 0.58886 0.34 0.26395 0.0
C1015 C 0.55722 0.33279 0.26959 0.0
C1016 C 0.5681 0.34928 0.17563 0.0
C1017 C 0.57714 0.33877 0.21999 0.0
C1018 C 0.57981 0.36892 0.15464 0.0
C1019 C 0.61267 0.392 0.15292 0.0
C1020 C 0.58941 0.3528 0.19501 0.0
C1021 C 0.63349 0.39308 0.17183 0.0
C1022 C 0.59885 0.34267 0.23916 0.0
C1023 C 0.5351 0.32438 0.24995 0.0
N1024 N 0.62145 0.37413 0.19221 0.0
N1025 N 0.54568 0.32851 0.22594 0.0
H1026 H 0.16858 0.60443 0.32514 0.0
H1027 H 0.24639 0.63563 0.18997 0.0
H1028 H 0.2279 0.56665 0.29693 0.0
H1029 H 0.17923 0.66595 0.21329 0.0
H1030 H 0.25326 0.62533 0.23345 0.0
H1031 H 0.18352 0.63952 0.28865 0.0
C1032 C 0.18504 0.60378 0.31147 0.0
C1033 C 0.19656 0.58216 0.31391 0.0
C1034 C 0.23784 0.6353 0.22925 0.0
C1035 C 0.21394 0.62238 0.27228 0.0
C1036 C 0.23439 0.64169 0.20444 0.0
C1037 C 0.21244 0.65187 0.19813 0.0
C1038 C 0.21854 0.63835 0.24775 0.0
C1039 C 0.19686 0.65869 0.21747 0.0
C1040 C 0.19365 0.6239 0.2907 0.0
C1041 C 0.21807 0.58261 0.29574 0.0
N1042 N 0.19953 0.651 0.2414 0.0
N1043 N 0.22577 0.60209 0.27564 0.0
H1044 H 0.45056 0.80456 0.78971 0.0
H1045 H 0.3895 0.91076 0.72006 0.0
H1046 H 0.50524 0.90714 0.7849 0.0
H1047 H 0.34752 0.80946 0.70672 0.0
H1048 H 0.42634 0.90818 0.75005 0.0
H1049 H 0.40831 0.80458 0.76368 0.0
C1050 C 0.45369 0.82702 0.78281 0.0
C1051 C 0.48121 0.85585 0.78908 0.0
C1052 C 0.40887 0.88645 0.74075 0.0
C1053 C 0.43323 0.85624 0.76 0.0
C1054 C 0.38762 0.88782 0.72379 0.0
C1055 C 0.36574 0.86034 0.71066 0.0
C1056 C 0.40824 0.8574 0.74461 0.0
C1057 C 0.36415 0.83123 0.71639 0.0
C1058 C 0.42967 0.82705 0.76812 0.0
C1059 C 0.4845 0.88443 0.77997 0.0
N1060 N 0.38548 0.83057 0.73281 0.0
N1061 N 0.46059 0.88394 0.76596 0.0
H1062 H 0.65915 0.50816 0.74824 0.0
H1063 H 0.56513 0.33656 0.68896 0.0
H1064 H 0.66006 0.43282 0.79069 0.0
H1065 H 0.52574 0.39895 0.7029 0.0
H1066 H 0.61196 0.37169 0.71545 0.0
H1067 H 0.62572 0.46902 0.71675 0.0
C1068 C 0.65323 0.48349 0.75044 0.0
C1069 C 0.66172 0.47341 0.77213 0.0
C1070 C 0.59274 0.37721 0.7127 0.0
C1071 C 0.62309 0.42877 0.73673 0.0
C1072 C 0.56604 0.35723 0.69785 0.0
C1073 C 0.54157 0.36494 0.69369 0.0
C1074 C 0.59497 0.40519 0.72262 0.0
C1075 C 0.54396 0.39203 0.70549 0.0
C1076 C 0.63407 0.46124 0.73261 0.0
C1077 C 0.65371 0.44128 0.77413 0.0
N1078 N 0.5704 0.41138 0.71907 0.0
N1079 N 0.6339 0.41966 0.75687 0.0
H1080 H 0.20286 0.64976 0.77567 0.0
H1081 H 0.09293 0.51597 0.67997 0.0
H1082 H 0.12119 0.64546 0.73776 0.0
H1083 H 0.1805 0.52377 0.70992 0.0
H1084 H 0.10864 0.56881 0.69607 0.0
H1085 H 0.20358 0.61226 0.74502 0.0
C1086 C 0.18604 0.64205 0.76021 0.0
C1087 C 0.16124 0.64968 0.75953 0.0
C1088 C 0.12451 0.5591 0.69924 0.0
C1089 C 0.16105 0.60621 0.72539 0.0
C1090 C 0.11528 0.52868 0.69035 0.0
C1091 C 0.13506 0.51522 0.6943 0.0
C1092 C 0.15347 0.57606 0.71262 0.0
C1093 C 0.16434 0.53321 0.70699 0.0
C1094 C 0.1861 0.62025 0.74298 0.0
C1095 C 0.14012 0.6393 0.7392 0.0
N1096 N 0.17248 0.56261 0.71611 0.0
N1097 N 0.13992 0.61735 0.72327 0.0
H1098 H 0.49141 0.11289 0.73692 0.0
H1099 H 0.66466 0.20131 0.68434 0.0
H1100 H 0.55481 0.19682 0.77969 0.0
H1101 H 0.61683 0.10278 0.7075 0.0
H1102 H 0.62675 0.20977 0.71047 0.0
H1103 H 0.53758 0.11985 0.71236 0.0
C1104 C 0.51495 0.13329 0.74072 0.0
C1105 C 0.51956 0.1538 0.76078 0.0
C1106 C 0.62535 0.18664 0.71019 0.0
C1107 C 0.57229 0.16146 0.73309 0.0
C1108 C 0.64694 0.18182 0.69543 0.0
C1109 C 0.64328 0.15112 0.69319 0.0
C1110 C 0.60008 0.16039 0.72227 0.0
C1111 C 0.62009 0.12667 0.70813 0.0
C1112 C 0.54124 0.13704 0.72688 0.0
C1113 C 0.55052 0.18019 0.76461 0.0
N1114 N 0.59885 0.13162 0.7215 0.0
N1115 N 0.57616 0.183 0.75117 0.0
H1116 H 0.4338 0.63637 0.67487 0.0
H1117 H 0.35059 0.56013 0.80466 0.0
H1118 H 0.48885 0.65597 0.7426 0.0
H1119 H 0.35117 0.50339 0.74252 0.0
H1120 H 0.38134 0.6086 0.7793 0.0
H1121 H 0.38426 0.60181 0.69855 0.0
C1122 C 0.43517 0.63472 0.69493 0.0
C1123 C 0.46522 0.64877 0.70691 0.0
C1124 C 0.37335 0.58535 0.77098 0.0
C1125 C 0.40913 0.61033 0.73392 0.0
C1126 C 0.35576 0.55776 0.78532 0.0
C1127 C 0.34898 0.52796 0.77568 0.0
C1128 C 0.38291 0.58264 0.74673 0.0
C1129 C 0.35647 0.52608 0.75066 0.0
C1130 C 0.40702 0.615 0.70834 0.0
C1131 C 0.46601 0.64552 0.73281 0.0
N1132 N 0.37342 0.55313 0.73709 0.0
N1133 N 0.43833 0.6263 0.74548 0.0
H1134 H 0.90936 0.46253 0.68175 0.0
H1135 H 0.79613 0.32207 0.76798 0.0
H1136 H 0.81069 0.43983 0.69308 0.0
H1137 H 0.87836 0.32697 0.73003 0.0
H1138 H 0.79535 0.35942 0.73747 0.0
H1139 H 0.89599 0.41034 0.69841 0.0
C1140 C 0.88496 0.44654 0.68812 0.0
C1141 C 0.86117 0.45531 0.68657 0.0
C1142 C 0.81285 0.35143 0.73532 0.0
C1143 C 0.84541 0.39561 0.70523 0.0
C1144 C 0.81304 0.32984 0.75254 0.0
C1145 C 0.83803 0.32249 0.75183 0.0
C1146 C 0.838 0.36557 0.71777 0.0
C1147 C 0.85929 0.33295 0.73151 0.0
C1148 C 0.87712 0.41658 0.69717 0.0
C1149 C 0.82967 0.43375 0.69443 0.0
N1150 N 0.85942 0.35476 0.71565 0.0
N1151 N 0.82269 0.40487 0.7038 0.0
H1152 H 0.51721 0.24672 0.0768 0.0
H1153 H 0.67612 0.39034 0.13071 0.0
H1154 H 0.54258 0.25307 0.15449 0.0
H1155 H 0.65382 0.37312 0.05239 0.0
H1156 H 0.63505 0.33533 0.13948 0.0
H1157 H 0.57125 0.28999 0.06752 0.0
C1158 C 0.53413 0.25794 0.092 0.0
C1159 C 0.52549 0.24704 0.11645 0.0
C1160 C 0.63977 0.34328 0.12029 0.0
C1161 C 0.58775 0.29615 0.10603 0.0
C1162 C 0.66353 0.37467 0.11518 0.0
C1163 C 0.66636 0.38694 0.09098 0.0
C1164 C 0.61972 0.32431 0.10086 0.0
C1165 C 0.65095 0.3651 0.07154 0.0
C1166 C 0.56519 0.28219 0.08667 0.0
C1167 C 0.54839 0.26147 0.13546 0.0
N1168 N 0.62726 0.33508 0.07698 0.0
N1169 N 0.57858 0.28564 0.12988 0.0
H1170 H 0.15987 0.55932 0.05969 0.0
H1171 H 0.32884 0.57686 0.0881 0.0
H1172 H 0.24166 0.64696 0.08482 0.0
H1173 H 0.24594 0.49087 0.06183 0.0
H1174 H 0.30301 0.60749 0.07543 0.0
H1175 H 0.19622 0.53995 0.04669 0.0
C1176 C 0.18571 0.57513 0.06129 0.0
C1177 C 0.19784 0.60453 0.0736 0.0
C1178 C 0.29073 0.582 0.07196 0.0
C1179 C 0.23946 0.58185 0.06032 0.0
C1180 C 0.30554 0.56451 0.07929 0.0
C1181 C 0.2893 0.53118 0.07676 0.0
C1182 C 0.25932 0.56594 0.06206 0.0
C1183 C 0.25913 0.51645 0.06481 0.0
C1184 C 0.2065 0.56388 0.05426 0.0
C1185 C 0.23143 0.62405 0.07544 0.0
N1186 N 0.24494 0.53381 0.0583 0.0
N1187 N 0.25109 0.61191 0.06973 0.0
H1188 H 0.7295 0.25504 0.06476 0.0
H1189 H 0.56075 0.21509 0.12194 0.0
H1190 H 0.71768 0.30272 0.12896 0.0
H1191 H 0.5678 0.18526 0.04735 0.0
H1192 H 0.61825 0.24808 0.12354 0.0
H1193 H 0.67112 0.22915 0.05724 0.0
C1194 C 0.71463 0.25996 0.07732 0.0
C1195 C 0.7284 0.28071 0.09775 0.0
C1196 C 0.60745 0.23497 0.10652 0.0
C1197 C 0.66192 0.25156 0.08905 0.0
C1198 C 0.57415 0.21639 0.10536 0.0
C1199 C 0.55883 0.19815 0.08408 0.0
C1200 C 0.62627 0.23474 0.08654 0.0
C1201 C 0.57843 0.19937 0.06399 0.0
C1202 C 0.68142 0.24542 0.07286 0.0
C1203 C 0.70814 0.28666 0.11315 0.0
N1204 N 0.61127 0.21714 0.06579 0.0
N1205 N 0.67597 0.27203 0.10856 0.0
H1206 H 0.43414 0.61295 0.06256 0.0
H1207 H 0.45362 0.75211 0.1531 0.0
H1208 H 0.36747 0.60077 0.12169 0.0
H1209 H 0.5165 0.76751 0.09021 0.0
H1210 H 0.4186 0.69758 0.13897 0.0
H1211 H 0.45993 0.67089 0.06802 0.0
C1212 C 0.42411 0.62259 0.07595 0.0
C1213 C 0.39849 0.60218 0.09151 0.0
C1214 C 0.44001 0.71287 0.12819 0.0
C1215 C 0.42858 0.66804 0.09867 0.0
C1216 C 0.46023 0.74398 0.13641 0.0
C1217 C 0.48825 0.76432 0.12297 0.0
C1218 C 0.44798 0.70184 0.10648 0.0
C1219 C 0.49532 0.75251 0.1013 0.0
C1220 C 0.43904 0.65559 0.0793 0.0
C1221 C 0.38675 0.6157 0.10895 0.0
N1222 N 0.4754 0.72195 0.09379 0.0
N1223 N 0.40225 0.64779 0.11236 0.0
H1224 H 0.7328 0.34199 0.03491 0.0
H1225 H 0.79824 0.51165 0.06797 0.0
H1226 H 0.83487 0.40783 0.03458 0.0
H1227 H 0.70275 0.45678 0.03681 0.0
H1228 H 0.81506 0.47895 0.04455 0.0
H1229 H 0.72308 0.38445 0.02101 0.0
C1230 C 0.75341 0.36494 0.03025 0.0
C1231 C 0.78449 0.37222 0.0378 0.0
C1232 C 0.79056 0.47439 0.04232 0.0
C1233 C 0.77373 0.42113 0.02285 0.0
C1234 C 0.78089 0.49308 0.05584 0.0
C1235 C 0.74851 0.48578 0.05546 0.0
C1236 C 0.7675 0.44777 0.0288 0.0
C1237 C 0.72744 0.46198 0.03885 0.0
C1238 C 0.74782 0.38956 0.02285 0.0
C1239 C 0.81026 0.40183 0.03042 0.0
N1240 N 0.73696 0.44312 0.02682 0.0
N1241 N 0.80436 0.42599 0.02494 0.0
H1242 H 0.4136 0.85189 0.09561 0.0
H1243 H 0.26165 0.6934 0.13725 0.0
H1244 H 0.4165 0.76505 0.10718 0.0
H1245 H 0.25213 0.76484 0.09575 0.0
H1246 H 0.31902 0.72001 0.12617 0.0
H1247 H 0.35474 0.82066 0.09212 0.0
C1248 C 0.4019 0.82605 0.09591 0.0
C1249 C 0.4197 0.81086 0.10137 0.0
C1250 C 0.30431 0.72976 0.11939 0.0
C1251 C 0.35264 0.7753 0.09921 0.0
C1252 C 0.27174 0.71489 0.12606 0.0
C1253 C 0.25228 0.72719 0.11766 0.0
C1254 C 0.31758 0.75739 0.10457 0.0
C1255 C 0.2664 0.75474 0.10278 0.0
C1256 C 0.36829 0.80826 0.09444 0.0
C1257 C 0.40348 0.77746 0.10257 0.0
N1258 N 0.29829 0.76911 0.09689 0.0
N1259 N 0.37069 0.76078 0.10227 0.0
H1260 H 0.74209 0.43105 0.42236 0.0
H1261 H 0.59035 0.45001 0.39596 0.0
H1262 H 0.74242 0.51727 0.40104 0.0
H1263 H 0.58943 0.36023 0.39412 0.0
H1264 H 0.64157 0.47393 0.4184 0.0
H1265 H 0.68411 0.40573 0.43061 0.0
C1266 C 0.73006 0.44466 0.41944 0.0
C1267 C 0.74669 0.47549 0.4093 0.0
C1268 C 0.62965 0.44868 0.41395 0.0
C1269 C 0.68085 0.44749 0.42011 0.0
C1270 C 0.60028 0.43497 0.40138 0.0
C1271 C 0.58622 0.40338 0.39287 0.0
C1272 C 0.64531 0.43081 0.41733 0.0
C1273 C 0.59984 0.38481 0.40025 0.0
C1274 C 0.69707 0.43041 0.42463 0.0
C1275 C 0.73041 0.493 0.40795 0.0
N1276 N 0.62934 0.3991 0.4114 0.0
N1277 N 0.69825 0.47854 0.41275 0.0
H1278 H 0.26547 0.58496 0.33423 0.0
H1279 H 0.28182 0.73707 0.39922 0.0
H1280 H 0.26587 0.5976 0.4139 0.0
H1281 H 0.296 0.73258 0.32024 0.0
H1282 H 0.28767 0.69014 0.40529 0.0
H1283 H 0.2916 0.64268 0.32898 0.0
C1284 C 0.27213 0.59992 0.35071 0.0
C1285 C 0.2615 0.58652 0.37444 0.0
C1286 C 0.28972 0.69933 0.38658 0.0
C1287 C 0.29126 0.65226 0.36861 0.0
C1288 C 0.28584 0.72577 0.38313 0.0
C1289 C 0.2876 0.73786 0.35918 0.0
C1290 C 0.29446 0.68426 0.3658 0.0
C1291 C 0.29393 0.72335 0.33893 0.0
C1292 C 0.28693 0.63295 0.34767 0.0
C1293 C 0.27217 0.60699 0.39515 0.0
N1294 N 0.29656 0.6968 0.34263 0.0
N1295 N 0.28551 0.63891 0.39173 0.0
H1296 H 0.56145 0.29787 0.33127 0.0
H1297 H 0.62924 0.20978 0.37684 0.0
H1298 H 0.47584 0.23202 0.37182 0.0
H1299 H 0.53157 0.1319 0.37196 0.0
H1300 H 0.60898 0.24764 0.37454 0.0
H1301 H 0.58677 0.26617 0.3431 0.0
C1302 C 0.54795 0.27666 0.34252 0.0
C1303 C 0.51648 0.26748 0.35051 0.0
C1304 C 0.59196 0.22225 0.37445 0.0
C1305 C 0.54547 0.23168 0.36463 0.0
C1306 C 0.60348 0.20068 0.37636 0.0
C1307 C 0.58206 0.16777 0.37442 0.0
C1308 C 0.55873 0.21057 0.37097 0.0
C1309 C 0.54884 0.15715 0.37358 0.0
C1310 C 0.56261 0.25895 0.34967 0.0
C1311 C 0.50015 0.23994 0.36525 0.0
N1312 N 0.53817 0.17849 0.3716 0.0
N1313 N 0.51469 0.22282 0.3716 0.0
H1314 H 0.24671 0.51373 0.42262 0.0
H1315 H 0.4099 0.6308 0.35486 0.0
H1316 H 0.27245 0.49372 0.35023 0.0
H1317 H 0.41243 0.611 0.43309 0.0
H1318 H 0.35272 0.59072 0.35387 0.0
H1319 H 0.30259 0.55757 0.4279 0.0
C1320 C 0.26435 0.51807 0.40817 0.0
C1321 C 0.25528 0.49991 0.38613 0.0
C1322 C 0.36579 0.5956 0.37131 0.0
C1323 C 0.318 0.5505 0.39148 0.0
C1324 C 0.39831 0.61871 0.37202 0.0
C1325 C 0.41612 0.62385 0.39403 0.0
C1326 C 0.35086 0.57803 0.39285 0.0
C1327 C 0.39964 0.60743 0.41567 0.0
C1328 C 0.29594 0.54316 0.41109 0.0
C1329 C 0.27868 0.50681 0.36767 0.0
N1330 N 0.36783 0.58496 0.41452 0.0
N1331 N 0.30891 0.53195 0.37059 0.0
H1332 H 0.7326 0.39363 0.36792 0.0
H1333 H 0.70533 0.22265 0.3963 0.0
H1334 H 0.75966 0.36591 0.43607 0.0
H1335 H 0.67825 0.2476 0.32674 0.0
H1336 H 0.71149 0.27115 0.415 0.0
H1337 H 0.69681 0.33742 0.35793 0.0
C1338 C 0.72975 0.37579 0.38146 0.0
C1339 C 0.75006 0.38422 0.40239 0.0
C1340 C 0.70411 0.26618 0.39566 0.0
C1341 C 0.70987 0.32016 0.39081 0.0
C1342 C 0.70105 0.23863 0.38482 0.0
C1343 C 0.69237 0.23167 0.35965 0.0
C1344 C 0.6993 0.2876 0.38115 0.0
C1345 C 0.68584 0.2526 0.34603 0.0
C1346 C 0.70963 0.34362 0.37552 0.0
C1347 C 0.74506 0.36025 0.41938 0.0
N1348 N 0.69006 0.28006 0.35684 0.0
N1349 N 0.72617 0.32918 0.41286 0.0
H1350 H 0.43357 0.69322 0.35887 0.0
H1351 H 0.3892 0.81068 0.43365 0.0
H1352 H 0.499 0.76427 0.41095 0.0
H1353 H 0.3521 0.77068 0.36102 0.0
H1354 H 0.42062 0.78266 0.43332 0.0
H1355 H 0.3939 0.71022 0.36763 0.0
C1356 C 0.43954 0.71224 0.37224 0.0
C1357 C 0.46984 0.72769 0.38387 0.0
C1358 C 0.40471 0.77942 0.41785 0.0
C1359 C 0.42448 0.74697 0.39418 0.0
C1360 C 0.38667 0.79521 0.41808 0.0
C1361 C 0.36705 0.79244 0.39763 0.0
C1362 C 0.40281 0.76055 0.39716 0.0
C1363 C 0.36538 0.77257 0.37773 0.0
C1364 C 0.41689 0.72189 0.37725 0.0
C1365 C 0.47613 0.75207 0.40122 0.0
N1366 N 0.38296 0.75751 0.37798 0.0
N1367 N 0.45369 0.76108 0.40577 0.0
H1368 H 0.5225 0.72585 0.88887 0.0
H1369 H 0.41791 0.57864 0.80165 0.0
H1370 H 0.49221 0.73442 0.81507 0.0
H1371 H 0.44217 0.57392 0.87808 0.0
H1372 H 0.46025 0.63506 0.80034 0.0
H1373 H 0.51023 0.67153 0.87905 0.0
C1374 C 0.51414 0.71651 0.87029 0.0
C1375 C 0.50782 0.7343 0.85289 0.0
C1376 C 0.45708 0.62141 0.81714 0.0
C1377 C 0.49227 0.67159 0.84181 0.0
C1378 C 0.43296 0.58922 0.81783 0.0
C1379 C 0.42622 0.57204 0.84015 0.0
C1380 C 0.4744 0.63621 0.839 0.0
C1381 C 0.44661 0.58653 0.86055 0.0
C1382 C 0.50694 0.68541 0.8647 0.0
C1383 C 0.49716 0.72126 0.82905 0.0
N1384 N 0.46936 0.61791 0.85966 0.0
N1385 N 0.4888 0.69027 0.8244 0.0
H1386 H 0.86925 0.43033 0.8473 0.0
H1387 H 0.73335 0.45872 0.7944 0.0
H1388 H 0.80985 0.37908 0.78454 0.0
H1389 H 0.79668 0.51119 0.85517 0.0
H1390 H 0.7721 0.4419 0.78108 0.0
H1391 H 0.85593 0.47253 0.84066 0.0
C1392 C 0.85479 0.42885 0.83126 0.0
C1393 C 0.84102 0.40156 0.81616 0.0
C1394 C 0.77802 0.45793 0.79687 0.0
C1395 C 0.8235 0.44838 0.80956 0.0
C1396 C 0.75598 0.46763 0.80434 0.0
C1397 C 0.76169 0.48568 0.82618 0.0
C1398 C 0.80563 0.46631 0.81152 0.0
C1399 C 0.79123 0.49666 0.83849 0.0
C1400 C 0.84668 0.4527 0.82766 0.0
C1401 C 0.82131 0.40011 0.79628 0.0
N1402 N 0.8118 0.48632 0.83129 0.0
N1403 N 0.81241 0.42276 0.79391 0.0
H1404 H 0.41364 0.8435 0.84753 0.0
H1405 H 0.2581 0.70641 0.78213 0.0
H1406 H 0.40077 0.75375 0.82032 0.0
H1407 H 0.25813 0.77422 0.83463 0.0
H1408 H 0.31666 0.74005 0.77758 0.0
H1409 H 0.36379 0.83288 0.82593 0.0
C1410 C 0.40086 0.82212 0.83632 0.0
C1411 C 0.41093 0.79933 0.83574 0.0
C1412 C 0.30362 0.74838 0.78914 0.0
C1413 C 0.35436 0.787 0.8112 0.0
C1414 C 0.27012 0.72943 0.79141 0.0
C1415 C 0.25349 0.73752 0.80894 0.0
C1416 C 0.32019 0.77529 0.80464 0.0
C1417 C 0.27021 0.76727 0.82088 0.0
C1418 C 0.37248 0.81602 0.82408 0.0
C1419 C 0.39328 0.77159 0.8215 0.0
N1420 N 0.30287 0.78473 0.81909 0.0
N1421 N 0.36569 0.76605 0.80996 0.0
H1422 H 0.52303 0.23556 0.87556 0.0
H1423 H 0.60059 0.40932 0.81581 0.0
H1424 H 0.52944 0.25032 0.79607 0.0
H1425 H 0.59414 0.38906 0.89448 0.0
H1426 H 0.56551 0.3519 0.80745 0.0
H1427 H 0.54021 0.2916 0.88204 0.0
C1428 C 0.52817 0.25074 0.85941 0.0
C1429 C 0.52554 0.23849 0.83527 0.0
C1430 C 0.57111 0.36015 0.82656 0.0
C1431 C 0.54549 0.30323 0.84249 0.0
C1432 C 0.5908 0.39293 0.83135 0.0
C1433 C 0.60038 0.40379 0.85588 0.0
C1434 C 0.56093 0.33839 0.8465 0.0
C1435 C 0.58747 0.38161 0.8753 0.0
C1436 C 0.53779 0.2828 0.8631 0.0
C1437 C 0.53149 0.25903 0.815 0.0
N1438 N 0.56878 0.35004 0.87019 0.0
N1439 N 0.54175 0.29064 0.81905 0.0
H1440 H 0.13904 0.54705 0.85791 0.0
H1441 H 0.2714 0.51415 0.79778 0.0
H1442 H 0.19104 0.59152 0.79061 0.0
H1443 H 0.22736 0.48177 0.86998 0.0
H1444 H 0.22924 0.52752 0.78738 0.0
H1445 H 0.15613 0.50705 0.85407 0.0
C1446 C 0.15255 0.54728 0.84154 0.0
C1447 C 0.16343 0.57234 0.8244 0.0
C1448 C 0.22836 0.51675 0.80526 0.0
C1449 C 0.18493 0.5281 0.82071 0.0
C1450 C 0.25236 0.5091 0.81114 0.0
C1451 C 0.25302 0.49741 0.83491 0.0
C1452 C 0.20507 0.51262 0.82332 0.0
C1453 C 0.22792 0.49127 0.8516 0.0
C1454 C 0.16285 0.5248 0.83956 0.0
C1455 C 0.18186 0.57225 0.80399 0.0
N1456 N 0.20524 0.49931 0.84563 0.0
N1457 N 0.19277 0.551 0.80301 0.0
H1458 H 0.74155 0.20146 0.83285 0.0
H1459 H 0.58977 0.20988 0.8181 0.0
H1460 H 0.73851 0.26801 0.78119 0.0
H1461 H 0.57978 0.11666 0.82764 0.0
H1462 H 0.64387 0.22942 0.80151 0.0
H1463 H 0.68348 0.16613 0.82723 0.0
C1464 C 0.72888 0.20776 0.81925 0.0
C1465 C 0.74475 0.23746 0.80724 0.0
C1466 C 0.62975 0.20449 0.80666 0.0
C1467 C 0.67818 0.19824 0.80193 0.0
C1468 C 0.59897 0.1934 0.81633 0.0
C1469 C 0.58056 0.16174 0.82436 0.0
C1470 C 0.64295 0.18417 0.80597 0.0
C1471 C 0.59343 0.1413 0.82168 0.0
C1472 C 0.69568 0.18772 0.81621 0.0
C1473 C 0.72715 0.24509 0.7905 0.0
N1474 N 0.62438 0.15313 0.81332 0.0
N1475 N 0.69455 0.22606 0.7889 0.0
H1476 H 0.26306 0.54953 0.56761 0.0
H1477 H 0.42978 0.62982 0.57741 0.0
H1478 H 0.26429 0.54535 0.64798 0.0
H1479 H 0.41582 0.58462 0.64913 0.0
H1480 H 0.37173 0.60475 0.57245 0.0
H1481 H 0.32046 0.56691 0.56686 0.0
C1482 C 0.27553 0.55271 0.58515 0.0
C1483 C 0.2589 0.54646 0.60791 0.0
C1484 C 0.38103 0.59937 0.58899 0.0
C1485 C 0.32516 0.56717 0.60729 0.0
C1486 C 0.41438 0.61402 0.59193 0.0
C1487 C 0.42763 0.60957 0.61382 0.0
C1488 C 0.3606 0.57998 0.60813 0.0
C1489 C 0.40655 0.58866 0.63195 0.0
C1490 C 0.30849 0.56284 0.58473 0.0
C1491 C 0.27621 0.55025 0.63001 0.0
N1492 N 0.37401 0.57504 0.62888 0.0
N1493 N 0.30841 0.56046 0.62915 0.0
H1494 H 0.74897 0.39916 0.6461 0.0
H1495 H 0.77711 0.2557 0.62736 0.0
H1496 H 0.84393 0.41212 0.63296 0.0
H1497 H 0.69143 0.24759 0.66135 0.0
H1498 H 0.80616 0.3127 0.63783 0.0
H1499 H 0.73069 0.34451 0.65974 0.0
C1500 C 0.766 0.39042 0.64644 0.0
C1501 C 0.79769 0.4096 0.63814 0.0
C1502 C 0.78138 0.29824 0.64397 0.0
C1503 C 0.77705 0.34711 0.65304 0.0
C1504 C 0.76494 0.26568 0.63817 0.0
C1505 C 0.73206 0.24709 0.64381 0.0
C1506 C 0.7643 0.31218 0.65466 0.0
C1507 C 0.71699 0.26104 0.65724 0.0
C1508 C 0.75572 0.35935 0.65435 0.0
C1509 C 0.81912 0.39763 0.63903 0.0
N1510 N 0.73301 0.29295 0.66171 0.0
N1511 N 0.80823 0.36679 0.64582 0.0
H1512 H 0.41972 0.82175 0.58218 0.0
H1513 H 0.48553 0.73942 0.67553 0.0
H1514 H 0.41262 0.82739 0.66196 0.0
H1515 H 0.4946 0.74111 0.5954 0.0
H1516 H 0.46721 0.77906 0.67243 0.0
H1517 H 0.45726 0.80174 0.58783 0.0
C1518 C 0.42699 0.81972 0.60091 0.0
C1519 C 0.41315 0.82613 0.62161 0.0
C1520 C 0.47362 0.77098 0.6556 0.0
C1521 C 0.45472 0.80153 0.62842 0.0
C1522 C 0.48397 0.74836 0.65738 0.0
C1523 C 0.49071 0.73639 0.63564 0.0
C1524 C 0.47037 0.7817 0.63194 0.0
C1525 C 0.48871 0.74895 0.6126 0.0
C1526 C 0.44815 0.80794 0.60421 0.0
C1527 C 0.42305 0.82286 0.64553 0.0
N1528 N 0.47852 0.77062 0.61137 0.0
N1529 N 0.44265 0.80997 0.64834 0.0
H1530 H 0.75812 0.54784 0.5927 0.0
H1531 H 0.60208 0.4233 0.6657 0.0
H1532 H 0.75828 0.5022 0.66152 0.0
H1533 H 0.60411 0.45151 0.58938 0.0
H1534 H 0.65653 0.46887 0.67163 0.0
H1535 H 0.70073 0.5301 0.59892 0.0
C1536 C 0.74647 0.53555 0.60979 0.0
C1537 C 0.76311 0.52693 0.6268 0.0
C1538 C 0.64461 0.46588 0.65385 0.0
C1539 C 0.69711 0.50525 0.63353 0.0
C1540 C 0.61335 0.44013 0.65059 0.0
C1541 C 0.5987 0.43385 0.62706 0.0
C1542 C 0.66128 0.48518 0.63331 0.0
C1543 C 0.61463 0.45576 0.60785 0.0
C1544 C 0.7136 0.52506 0.6132 0.0
C1545 C 0.74654 0.50996 0.64821 0.0
N1546 N 0.64531 0.48012 0.61124 0.0
N1547 N 0.71436 0.49919 0.65075 0.0
H1548 H 0.23045 0.58901 0.67084 0.0
H1549 H 0.22613 0.74995 0.66984 0.0
H1550 H 0.15341 0.60223 0.64209 0.0
H1551 H 0.31101 0.7429 0.68483 0.0
H1552 H 0.19257 0.6929 0.67822 0.0
H1553 H 0.25304 0.64101 0.69177 0.0
C1554 C 0.21811 0.60269 0.66916 0.0
C1555 C 0.19062 0.59183 0.65407 0.0
C1556 C 0.21847 0.704 0.68069 0.0
C1557 C 0.21609 0.651 0.67809 0.0
C1558 C 0.23757 0.73671 0.67637 0.0
C1559 C 0.27126 0.75081 0.67637 0.0
C1560 C 0.23346 0.68549 0.68437 0.0
C1561 C 0.285 0.73263 0.6845 0.0
C1562 C 0.23089 0.63225 0.68122 0.0
C1563 C 0.17523 0.61018 0.65292 0.0
N1564 N 0.26611 0.70057 0.68739 0.0
N1565 N 0.18841 0.63904 0.66447 0.0
H1566 H 0.48607 0.23337 0.63267 0.0
H1567 H 0.59343 0.15379 0.66263 0.0
H1568 H 0.58045 0.28403 0.66607 0.0
H1569 H 0.55699 0.15572 0.58974 0.0
H1570 H 0.56396 0.17938 0.67988 0.0
H1571 H 0.4887 0.18378 0.63454 0.0
C1572 C 0.50651 0.23365 0.64172 0.0
C1573 C 0.53319 0.26262 0.64915 0.0
C1574 C 0.56113 0.17259 0.66038 0.0
C1575 C 0.53614 0.20642 0.65151 0.0
C1576 C 0.57778 0.15793 0.65055 0.0
C1577 C 0.57809 0.15338 0.62472 0.0
C1578 C 0.54377 0.18138 0.64428 0.0
C1579 C 0.55753 0.15917 0.60974 0.0
C1580 C 0.50803 0.20545 0.64264 0.0
C1581 C 0.55944 0.26204 0.66021 0.0
N1582 N 0.54154 0.1734 0.61968 0.0
N1583 N 0.56051 0.23437 0.66074 0.0
H1584 H 0.46356 0.1013 0.91875 0.0
H1585 H 0.38805 0.14944 0.03246 0.0
H1586 H 0.4469 0.18136 0.91885 0.0
H1587 H 0.44481 0.10274 0.04157 0.0
H1588 H 0.39064 0.1445 -0.01264 0.0
H1589 H 0.43793 0.08579 0.96007 0.0
C1590 C 0.45322 0.11475 0.92708 0.0
C1591 C 0.45686 0.14237 0.91554 0.0
C1592 C 0.40194 0.13476 -0.00072 0.0
C1593 C 0.42821 0.12523 0.96244 0.0
C1594 C 0.40048 0.13751 0.02505 0.0
C1595 C 0.41691 0.12715 0.04084 0.0
C1596 C 0.41974 0.12138 -0.0108 0.0
C1597 C 0.43222 0.1115 0.03009 0.0
C1598 C 0.43896 0.10612 0.95065 0.0
C1599 C 0.44407 0.15969 0.92719 0.0
N1600 N 0.4337 0.10951 0.00485 0.0
N1601 N 0.43047 0.15096 0.95015 0.0
H1602 H 0.38906 0.47155 0.91889 0.0
H1603 H 0.39225 0.48153 0.04684 0.0
H1604 H 0.28612 0.41962 0.93021 0.0
H1605 H 0.30204 0.39257 0.04635 0.0
H1606 H 0.3949 0.47817 0.00158 0.0
H1607 H 0.39696 0.46028 0.96195 0.0
C1608 C 0.36806 0.45681 0.93029 0.0
C1609 C 0.33688 0.44622 0.92096 0.0
C1610 C 0.37509 0.4587 0.01136 0.0
C1611 C 0.34572 0.43474 0.97077 0.0
C1612 C 0.37372 0.46056 0.03741 0.0
C1613 C 0.34683 0.43745 0.05061 0.0
C1614 C 0.34921 0.43368 -0.00166 0.0
C1615 C 0.32316 0.41116 0.03704 0.0
C1616 C 0.37261 0.45091 0.95503 0.0
C1617 C 0.31051 0.42777 0.93659 0.0
N1618 N 0.32445 0.41046 0.01169 0.0
N1619 N 0.31554 0.42292 0.96085 0.0
H1620 H 0.81081 0.32765 0.02532 0.0
H1621 H 0.90436 0.33809 0.90698 0.0
H1622 H 0.90498 0.33851 0.03903 0.0
H1623 H 0.80826 0.25952 0.91895 0.0
H1624 H 0.91103 0.34598 0.95251 0.0
H1625 H 0.81422 0.31353 0.98213 0.0
C1626 C 0.83251 0.32775 0.01913 0.0
C1627 C 0.85769 0.33433 0.03573 0.0
C1628 C 0.88907 0.32622 0.94509 0.0
C1629 C 0.86149 0.31786 -0.01353 0.0
C1630 C 0.88544 0.32141 0.91924 0.0
C1631 C 0.85576 0.29803 0.90943 0.0
C1632 C 0.86254 0.30794 0.96067 0.0
C1633 C 0.83152 0.27766 0.92594 0.0
C1634 C 0.83421 0.31922 -0.00538 0.0
C1635 C 0.88505 0.33352 0.02672 0.0
N1636 N 0.83506 0.28367 0.95076 0.0
N1637 N 0.8864 0.32556 0.0025 0.0
H1638 H 0.57252 0.87259 0.93867 0.0
H1639 H 0.48902 0.87816 0.0657 0.0
H1640 H 0.47533 0.85635 0.94525 0.0
H1641 H 0.58984 0.90536 0.06127 0.0
H1642 H 0.48675 0.87828 0.02036 0.0
H1643 H 0.58297 0.89294 0.98188 0.0
C1644 C 0.55374 0.87411 0.94898 0.0
C1645 C 0.52289 0.86234 0.93866 0.0
C1646 C 0.50957 0.8847 0.0292 0.0
C1647 C 0.53438 0.88511 -0.01224 0.0
C1648 C 0.51083 0.88464 0.05515 0.0
C1649 C 0.53954 0.89142 0.06726 0.0
C1650 C 0.53705 0.89094 0.01512 0.0
C1651 C 0.56717 0.89991 0.05264 0.0
C1652 C 0.55959 0.88553 0.97363 0.0
C1653 C 0.49929 0.86468 0.95273 0.0
N1654 N 0.56511 0.89884 0.02729 0.0
N1655 N 0.50539 0.8754 0.97657 0.0
H1656 H 0.65027 0.54151 0.91587 0.0
H1657 H 0.64722 0.49992 0.0363 0.0
H1658 H 0.75047 0.57255 0.92987 0.0
H1659 H 0.72861 0.59385 0.04926 0.0
H1660 H 0.64676 0.51381 -0.0072 0.0
H1661 H 0.64359 0.55118 0.9599 0.0
C1662 C 0.67131 0.55226 0.92787 0.0
C1663 C 0.70095 0.55626 0.91942 0.0
C1664 C 0.664 0.53175 0.00539 0.0
C1665 C 0.69336 0.56657 0.96946 0.0
C1666 C 0.66434 0.52378 0.0303 0.0
C1667 C 0.68771 0.54578 0.04666 0.0
C1668 C 0.68799 0.56152 -0.00348 0.0
C1669 C 0.70997 0.57617 0.03736 0.0
C1670 C 0.66735 0.55727 0.95301 0.0
C1671 C 0.7273 0.56935 0.93579 0.0
N1672 N 0.71022 0.58281 0.0127 0.0
N1673 N 0.72278 0.57354 0.96026 0.0
H1674 H 0.18408 0.65723 0.04535 0.0
H1675 H 0.1045 0.6512 0.9159 0.0
H1676 H 0.09384 0.65807 0.04527 0.0
H1677 H 0.20704 0.7049 0.92955 0.0
H1678 H 0.09518 0.64724 0.96149 0.0
H1679 H 0.18758 0.66471 0.0004 0.0
C1680 C 0.16474 0.65856 0.03587 0.0
C1681 C 0.13874 0.65725 0.04914 0.0
C1682 C 0.1196 0.66049 0.95432 0.0
C1683 C 0.14281 0.66609 -0.00244 0.0
C1684 C 0.12488 0.66306 0.92843 0.0
C1685 C 0.15658 0.67819 0.91912 0.0
C1686 C 0.14626 0.67275 0.97052 0.0
C1687 C 0.18225 0.69274 0.93605 0.0
C1688 C 0.16694 0.66317 0.01021 0.0
C1689 C 0.11442 0.65917 0.03571 0.0
N1690 N 0.17657 0.68916 0.96088 0.0
N1691 N 0.11699 0.66348 0.01053 0.0
H1692 H 0.90173 0.57956 0.54874 0.0
H1693 H 0.90552 0.4966 0.42355 0.0
H1694 H 0.8889 0.48494 0.54176 0.0
H1695 H 0.91139 0.58874 0.42738 0.0
H1696 H 0.92022 0.50131 0.46721 0.0
H1697 H 0.9244 0.59164 0.50633 0.0
C1698 C 0.90497 0.56184 0.53861 0.0
C1699 C 0.89329 0.53118 0.54844 0.0
C1700 C 0.91918 0.52096 0.45841 0.0
C1701 C 0.91835 0.54436 0.50007 0.0
C1702 C 0.91118 0.51845 0.43319 0.0
C1703 C 0.90646 0.54192 0.42168 0.0
C1704 C 0.92174 0.5468 0.47246 0.0
C1705 C 0.914 0.56963 0.43553 0.0
C1706 C 0.91765 0.56859 0.51437 0.0
C1707 C 0.8975 0.50881 0.53461 0.0
N1708 N 0.92028 0.57087 0.46038 0.0
N1709 N 0.9092 0.51565 0.51099 0.0
H1710 H 0.2402 0.81349 0.56032 0.0
H1711 H 0.33722 0.88122 0.43782 0.0
H1712 H 0.33746 0.89271 0.56188 0.0
H1713 H 0.23301 0.83331 0.43994 0.0
H1714 H 0.33812 0.89035 0.48296 0.0
H1715 H 0.23583 0.82499 0.51664 0.0
C1716 C 0.26013 0.83418 0.55167 0.0
C1717 C 0.28904 0.85242 0.56464 0.0
C1718 C 0.31512 0.87846 0.47339 0.0
C1719 C 0.28512 0.86461 0.51432 0.0
C1720 C 0.3146 0.87318 0.44764 0.0
C1721 C 0.28499 0.85588 0.43514 0.0
C1722 C 0.28584 0.86601 0.48666 0.0
C1723 C 0.25642 0.84619 0.44882 0.0
C1724 C 0.25783 0.84059 0.52666 0.0
C1725 C 0.31458 0.87845 0.55249 0.0
N1726 N 0.25755 0.85087 0.47385 0.0
N1727 N 0.31238 0.88327 0.52774 0.0
H1728 H 0.52826 0.34768 0.41666 0.0
H1729 H 0.45602 0.33329 0.55026 0.0
H1730 H 0.43266 0.33634 0.42251 0.0
H1731 H 0.51455 0.29178 0.52858 0.0
H1732 H 0.4468 0.33896 0.50577 0.0
H1733 H 0.52667 0.33609 0.46065 0.0
C1734 C 0.50709 0.34331 0.42723 0.0
C1735 C 0.4805 0.34292 0.41576 0.0
C1736 C 0.46091 0.32785 0.51092 0.0
C1737 C 0.47834 0.32888 0.46636 0.0
C1738 C 0.46589 0.32431 0.53618 0.0
C1739 C 0.48642 0.31245 0.54292 0.0
C1740 C 0.47693 0.31976 0.49273 0.0
C1741 C 0.49897 0.30148 0.52409 0.0
C1742 C 0.50603 0.3362 0.45235 0.0
C1743 C 0.45365 0.3368 0.43063 0.0
N1744 N 0.49454 0.30597 0.49986 0.0
N1745 N 0.4532 0.32997 0.45533 0.0
H1746 H 0.07897 0.43735 0.55128 0.0
H1747 H 0.18903 0.47834 0.43731 0.0
H1748 H 0.1752 0.45159 0.55889 0.0
H1749 H 0.0898 0.40451 0.42817 0.0
H1750 H 0.18307 0.47119 0.48242 0.0
H1751 H 0.07937 0.42418 0.50705 0.0
C1752 C 0.09957 0.43622 0.54387 0.0
C1753 C 0.12704 0.44537 0.5587 0.0
C1754 C 0.16267 0.45632 0.47055 0.0
C1755 C 0.12829 0.43212 0.50811 0.0
C1756 C 0.16591 0.46067 0.44484 0.0
C1757 C 0.13978 0.44213 0.42903 0.0
C1758 C 0.1328 0.43391 0.48071 0.0
C1759 C 0.11047 0.4193 0.4398 0.0
C1760 C 0.09989 0.429 0.51863 0.0
C1761 C 0.15343 0.44429 0.54814 0.0
N1762 N 0.10753 0.4162 0.4651 0.0
N1763 N 0.15382 0.43882 0.52326 0.0
H1764 H 0.61564 0.1099 0.42159 0.0
H1765 H 0.73247 0.1562 0.53141 0.0
H1766 H 0.70494 0.10915 0.41005 0.0
H1767 H 0.6312 0.09155 0.5437 0.0
H1768 H 0.72518 0.14097 0.48708 0.0
H1769 H 0.62154 0.1059 0.46674 0.0
C1770 C 0.63621 0.10846 0.42853 0.0
C1771 C 0.65978 0.1098 0.4121 0.0
C1772 C 0.70482 0.12925 0.49969 0.0
C1773 C 0.66704 0.10601 0.46349 0.0
C1774 C 0.70909 0.13762 0.52498 0.0
C1775 C 0.68252 0.12454 0.54117 0.0
C1776 C 0.67356 0.10878 0.49059 0.0
C1777 C 0.65236 0.1016 0.53179 0.0
C1778 C 0.63949 0.10603 0.45421 0.0
C1779 C 0.68609 0.10799 0.42208 0.0
N1780 N 0.64846 0.09507 0.50695 0.0
N1781 N 0.6894 0.10687 0.44718 0.0
H1782 H 0.49396 0.65594 0.556 0.0
H1783 H 0.6124 0.7184 0.44313 0.0
H1784 H 0.59679 0.70526 0.56892 0.0
H1785 H 0.51682 0.63622 0.43825 0.0
H1786 H 0.60982 0.71331 0.48857 0.0
H1787 H 0.50326 0.64927 0.51246 0.0
C1788 C 0.51864 0.66569 0.54959 0.0
C1789 C 0.54472 0.68182 0.56598 0.0
C1790 C 0.58979 0.69593 0.4775 0.0
C1791 C 0.55556 0.67388 0.51587 0.0
C1792 C 0.59122 0.69874 0.45154 0.0
C1793 C 0.56442 0.67815 0.43686 0.0
C1794 C 0.56121 0.6727 0.48879 0.0
C1795 C 0.53782 0.65296 0.44878 0.0
C1796 C 0.52389 0.66141 0.52474 0.0
C1797 C 0.57608 0.69303 0.55675 0.0
N1798 N 0.53658 0.65143 0.47408 0.0
N1799 N 0.58073 0.68934 0.53209 0.0
loop_
_geom_bond_atom_site_label_1
_geom_bond_atom_site_label_2
_geom_bond_distance
_geom_bond_site_symmetry_2
_ccdc_geom_bond_type
Zn0 O6 1.920 . S
Zn0 O12 1.898 . S
Zn0 O15 1.905 . S
Zn1 O9 1.905 . S
Zn1 O10 1.898 . S
Zn1 O18 1.920 . S
Zn2 O5 2.080 . S
Zn2 O8 2.114 . S
Zn2 O11 2.120 . S
Zn2 O13 2.120 . S
Zn2 O14 2.114 . S
Zn2 O17 2.080 . S
C3 O8 1.166 . S
C3 O9 1.182 . S
C4 O10 1.167 . S
C4 O11 1.299 . S
O5 Zn2 2.080 . S
O5 C19 1.305 . S
O6 Zn0 1.920 . S
O6 C19 1.234 . S
C7 O12 1.167 . S
C7 O13 1.299 . S
O8 Zn2 2.114 . S
O8 C3 1.166 . S
O9 Zn1 1.905 . S
O9 C3 1.182 . S
O10 Zn1 1.898 . S
O10 C4 1.167 . S
O11 Zn2 2.120 . S
O11 C4 1.299 . S
O12 Zn0 1.898 . S
O12 C7 1.167 . S
O13 Zn2 2.120 . S
O13 C7 1.299 . S
O14 Zn2 2.114 . S
O14 C16 1.166 . S
O15 Zn0 1.905 . S
O15 C16 1.182 . S
C16 O14 1.166 . S
C16 O15 1.182 . S
O17 Zn2 2.080 . S
O17 C20 1.305 . S
O18 Zn1 1.920 . S
O18 C20 1.234 . S
C19 O5 1.305 . S
C19 O6 1.234 . S
C20 O17 1.305 . S
C20 O18 1.234 . S
Zn21 O27 1.920 . S
Zn21 O33 1.898 . S
Zn21 O36 1.905 . S
Zn22 O30 1.905 . S
Zn22 O31 1.898 . S
Zn22 O39 1.920 . S
Zn23 O26 2.080 . S
Zn23 O29 2.114 . S
Zn23 O32 2.120 . S
Zn23 O34 2.120 . S
Zn23 O35 2.114 . S
Zn23 O38 2.080 . S
C24 O29 1.166 . S
C24 O30 1.182 . S
C25 O31 1.167 . S
C25 O32 1.299 . S
O26 Zn23 2.080 . S
O26 C40 1.305 . S
O27 Zn21 1.920 . S
O27 C40 1.234 . S
C28 O33 1.167 . S
C28 O34 1.299 . S
O29 Zn23 2.114 . S
O29 C24 1.166 . S
O30 Zn22 1.905 . S
O30 C24 1.182 . S
O31 Zn22 1.898 . S
O31 C25 1.167 . S
O32 Zn23 2.120 . S
O32 C25 1.299 . S
O33 Zn21 1.898 . S
O33 C28 1.167 . S
O34 Zn23 2.120 . S
O34 C28 1.299 . S
O35 Zn23 2.114 . S
O35 C37 1.166 . S
O36 Zn21 1.905 . S
O36 C37 1.182 . S
C37 O35 1.166 . S
C37 O36 1.182 . S
O38 Zn23 2.080 . S
O38 C41 1.305 . S
O39 Zn22 1.920 . S
O39 C41 1.234 . S
C40 O26 1.305 . S
C40 O27 1.234 . S
C41 O38 1.305 . S
C41 O39 1.234 . S
Zn42 O48 1.920 . S
Zn42 O54 1.898 . S
Zn42 O57 1.905 . S
Zn43 O51 1.905 . S
Zn43 O52 1.898 . S
Zn43 O60 1.920 . S
Zn44 O47 2.080 . S
Zn44 O50 2.114 . S
Zn44 O53 2.120 . S
Zn44 O55 2.120 . S
Zn44 O56 2.114 . S
Zn44 O59 2.080 . S
C45 O50 1.166 . S
C45 O51 1.182 . S
C46 O52 1.167 . S
C46 O53 1.299 . S
O47 Zn44 2.080 . S
O47 C61 1.305 . S
O48 Zn42 1.920 . S
O48 C61 1.234 . S
C49 O54 1.167 . S
C49 O55 1.299 . S
O50 Zn44 2.114 . S
O50 C45 1.166 . S
O51 Zn43 1.905 . S
O51 C45 1.182 . S
O52 Zn43 1.898 . S
O52 C46 1.167 . S
O53 Zn44 2.120 . S
O53 C46 1.299 . S
O54 Zn42 1.898 . S
O54 C49 1.167 . S
O55 Zn44 2.120 . S
O55 C49 1.299 . S
O56 Zn44 2.114 . S
O56 C58 1.166 . S
O57 Zn42 1.905 . S
O57 C58 1.182 . S
C58 O56 1.166 . S
C58 O57 1.182 . S
O59 Zn44 2.080 . S
O59 C62 1.305 . S
O60 Zn43 1.920 . S
O60 C62 1.234 . S
C61 O47 1.305 . S
C61 O48 1.234 . S
C62 O59 1.305 . S
C62 O60 1.234 . S
Zn63 O69 1.920 . S
Zn63 O75 1.898 . S
Zn63 O78 1.905 . S
Zn64 O72 1.905 . S
Zn64 O73 1.898 . S
Zn64 O81 1.920 . S
Zn65 O68 2.080 . S
Zn65 O71 2.114 . S
Zn65 O74 2.120 . S
Zn65 O76 2.120 . S
Zn65 O77 2.114 . S
Zn65 O80 2.080 . S
C66 O71 1.166 . S
C66 O72 1.182 . S
C67 O73 1.167 . S
C67 O74 1.299 . S
O68 Zn65 2.080 . S
O68 C82 1.305 . S
O69 Zn63 1.920 . S
O69 C82 1.234 . S
C70 O75 1.167 . S
C70 O76 1.299 . S
O71 Zn65 2.114 . S
O71 C66 1.166 . S
O72 Zn64 1.905 . S
O72 C66 1.182 . S
O73 Zn64 1.898 . S
O73 C67 1.167 . S
O74 Zn65 2.120 . S
O74 C67 1.299 . S
O75 Zn63 1.898 . S
O75 C70 1.167 . S
O76 Zn65 2.120 . S
O76 C70 1.299 . S
O77 Zn65 2.114 . S
O77 C79 1.166 . S
O78 Zn63 1.905 . S
O78 C79 1.182 . S
C79 O77 1.166 . S
C79 O78 1.182 . S
O80 Zn65 2.080 . S
O80 C83 1.305 . S
O81 Zn64 1.920 . S
O81 C83 1.234 . S
C82 O68 1.305 . S
C82 O69 1.234 . S
C83 O80 1.305 . S
C83 O81 1.234 . S
Zn84 O90 1.920 . S
Zn84 O96 1.898 . S
Zn84 O99 1.905 . S
Zn85 O93 1.905 . S
Zn85 O94 1.898 . S
Zn85 O102 1.920 . S
Zn86 O89 2.080 . S
Zn86 O92 2.114 . S
Zn86 O95 2.120 . S
Zn86 O97 2.120 . S
Zn86 O98 2.114 . S
Zn86 O101 2.080 . S
C87 O92 1.166 . S
C87 O93 1.182 . S
C88 O94 1.167 . S
C88 O95 1.299 . S
O89 Zn86 2.080 . S
O89 C103 1.305 . S
O90 Zn84 1.920 . S
O90 C103 1.234 . S
C91 O96 1.167 . S
C91 O97 1.299 . S
O92 Zn86 2.114 . S
O92 C87 1.166 . S
O93 Zn85 1.905 . S
O93 C87 1.182 . S
O94 Zn85 1.898 . S
O94 C88 1.167 . S
O95 Zn86 2.120 . S
O95 C88 1.299 . S
O96 Zn84 1.898 . S
O96 C91 1.167 . S
O97 Zn86 2.120 . S
O97 C91 1.299 . S
O98 Zn86 2.114 . S
O98 C100 1.166 . S
O99 Zn84 1.905 . S
O99 C100 1.182 . S
C100 O98 1.166 . S
C100 O99 1.182 . S
O101 Zn86 2.080 . S
O101 C104 1.305 . S
O102 Zn85 1.920 . S
O102 C104 1.234 . S
C103 O89 1.305 . S
C103 O90 1.234 . S
C104 O101 1.305 . S
C104 O102 1.234 . S
Zn105 O111 1.920 . S
Zn105 O117 1.898 . S
Zn105 O120 1.905 . S
Zn106 O114 1.905 . S
Zn106 O115 1.898 . S
Zn106 O123 1.920 . S
Zn107 O110 2.080 . S
Zn107 O113 2.114 . S
Zn107 O116 2.120 . S
Zn107 O118 2.120 . S
Zn107 O119 2.114 . S
Zn107 O122 2.080 . S
C108 O113 1.166 . S
C108 O114 1.182 . S
C109 O115 1.167 . S
C109 O116 1.299 . S
O110 Zn107 2.080 . S
O110 C124 1.305 . S
O111 Zn105 1.920 . S
O111 C124 1.234 . S
C112 O117 1.167 . S
C112 O118 1.299 . S
O113 Zn107 2.114 . S
O113 C108 1.166 . S
O114 Zn106 1.905 . S
O114 C108 1.182 . S
O115 Zn106 1.898 . S
O115 C109 1.167 . S
O116 Zn107 2.120 . S
O116 C109 1.299 . S
O117 Zn105 1.898 . S
O117 C112 1.167 . S
O118 Zn107 2.120 . S
O118 C112 1.299 . S
O119 Zn107 2.114 . S
O119 C121 1.166 . S
O120 Zn105 1.905 . S
O120 C121 1.182 . S
C121 O119 1.166 . S
C121 O120 1.182 . S
O122 Zn107 2.080 . S
O122 C125 1.305 . S
O123 Zn106 1.920 . S
O123 C125 1.234 . S
C124 O110 1.305 . S
C124 O111 1.234 . S
C125 O122 1.305 . S
C125 O123 1.234 . S
Zn126 O132 1.920 . S
Zn126 O138 1.898 . S
Zn126 O141 1.905 . S
Zn127 O135 1.905 . S
Zn127 O136 1.898 . S
Zn127 O144 1.920 . S
Zn128 O131 2.080 . S
Zn128 O134 2.114 . S
Zn128 O137 2.120 . S
Zn128 O139 2.120 . S
Zn128 O140 2.114 . S
Zn128 O143 2.080 . S
C129 O134 1.166 . S
C129 O135 1.182 . S
C130 O136 1.167 . S
C130 O137 1.299 . S
O131 Zn128 2.080 . S
O131 C145 1.305 . S
O132 Zn126 1.920 . S
O132 C145 1.234 . S
C133 O138 1.167 . S
C133 O139 1.299 . S
O134 Zn128 2.114 . S
O134 C129 1.166 . S
O135 Zn127 1.905 . S
O135 C129 1.182 . S
O136 Zn127 1.898 . S
O136 C130 1.167 . S
O137 Zn128 2.120 . S
O137 C130 1.299 . S
O138 Zn126 1.898 . S
O138 C133 1.167 . S
O139 Zn128 2.120 . S
O139 C133 1.299 . S
O140 Zn128 2.114 . S
O140 C142 1.166 . S
O141 Zn126 1.905 . S
O141 C142 1.182 . S
C142 O140 1.166 . S
C142 O141 1.182 . S
O143 Zn128 2.080 . S
O143 C146 1.305 . S
O144 Zn127 1.920 . S
O144 C146 1.234 . S
C145 O131 1.305 . S
C145 O132 1.234 . S
C146 O143 1.305 . S
C146 O144 1.234 . S
Zn147 O153 1.920 . S
Zn147 O159 1.898 . S
Zn147 O162 1.905 . S
Zn148 O156 1.905 . S
Zn148 O157 1.898 . S
Zn148 O165 1.920 . S
Zn149 O152 2.080 . S
Zn149 O155 2.114 . S
Zn149 O158 2.120 . S
Zn149 O160 2.120 . S
Zn149 O161 2.114 . S
Zn149 O164 2.080 . S
C150 O155 1.166 . S
C150 O156 1.182 . S
C151 O157 1.167 . S
C151 O158 1.299 . S
O152 Zn149 2.080 . S
O152 C166 1.305 . S
O153 Zn147 1.920 . S
O153 C166 1.234 . S
C154 O159 1.167 . S
C154 O160 1.299 . S
O155 Zn149 2.114 . S
O155 C150 1.166 . S
O156 Zn148 1.905 . S
O156 C150 1.182 . S
O157 Zn148 1.898 . S
O157 C151 1.167 . S
O158 Zn149 2.120 . S
O158 C151 1.299 . S
O159 Zn147 1.898 . S
O159 C154 1.167 . S
O160 Zn149 2.120 . S
O160 C154 1.299 . S
O161 Zn149 2.114 . S
O161 C163 1.166 . S
O162 Zn147 1.905 . S
O162 C163 1.182 . S
C163 O161 1.166 . S
C163 O162 1.182 . S
O164 Zn149 2.080 . S
O164 C167 1.305 . S
O165 Zn148 1.920 . S
O165 C167 1.234 . S
C166 O152 1.305 . S
C166 O153 1.234 . S
C167 O164 1.305 . S
C167 O165 1.234 . S
Zn168 O174 1.920 . S
Zn168 O180 1.898 . S
Zn168 O183 1.905 . S
Zn169 O177 1.905 . S
Zn169 O178 1.898 . S
Zn169 O186 1.920 . S
Zn170 O173 2.080 . S
Zn170 O176 2.114 . S
Zn170 O179 2.120 . S
Zn170 O181 2.120 . S
Zn170 O182 2.114 . S
Zn170 O185 2.080 . S
C171 O176 1.166 . S
C171 O177 1.182 . S
C172 O178 1.167 . S
C172 O179 1.299 . S
O173 Zn170 2.080 . S
O173 C187 1.305 . S
O174 Zn168 1.920 . S
O174 C187 1.234 . S
C175 O180 1.167 . S
C175 O181 1.299 . S
O176 Zn170 2.114 . S
O176 C171 1.166 . S
O177 Zn169 1.905 . S
O177 C171 1.182 . S
O178 Zn169 1.898 . S
O178 C172 1.167 . S
O179 Zn170 2.120 . S
O179 C172 1.299 . S
O180 Zn168 1.898 . S
O180 C175 1.167 . S
O181 Zn170 2.120 . S
O181 C175 1.299 . S
O182 Zn170 2.114 . S
O182 C184 1.166 . S
O183 Zn168 1.905 . S
O183 C184 1.182 . S
C184 O182 1.166 . S
C184 O183 1.182 . S
O185 Zn170 2.080 . S
O185 C188 1.305 . S
O186 Zn169 1.920 . S
O186 C188 1.234 . S
C187 O173 1.305 . S
C187 O174 1.234 . S
C188 O185 1.305 . S
C188 O186 1.234 . S
Zn189 O195 1.920 . S
Zn189 O201 1.898 . S
Zn189 O204 1.905 . S
Zn190 O198 1.905 . S
Zn190 O199 1.898 . S
Zn190 O207 1.920 . S
Zn191 O194 2.080 . S
Zn191 O197 2.114 . S
Zn191 O200 2.120 . S
Zn191 O202 2.120 . S
Zn191 O203 2.114 . S
Zn191 O206 2.080 . S
C192 O197 1.166 . S
C192 O198 1.182 . S
C193 O199 1.167 . S
C193 O200 1.299 . S
O194 Zn191 2.080 . S
O194 C208 1.305 . S
O195 Zn189 1.920 . S
O195 C208 1.234 . S
C196 O201 1.167 . S
C196 O202 1.299 . S
O197 Zn191 2.114 . S
O197 C192 1.166 . S
O198 Zn190 1.905 . S
O198 C192 1.182 . S
O199 Zn190 1.898 . S
O199 C193 1.167 . S
O200 Zn191 2.120 . S
O200 C193 1.299 . S
O201 Zn189 1.898 . S
O201 C196 1.167 . S
O202 Zn191 2.120 . S
O202 C196 1.299 . S
O203 Zn191 2.114 . S
O203 C205 1.166 . S
O204 Zn189 1.905 . S
O204 C205 1.182 . S
C205 O203 1.166 . S
C205 O204 1.182 . S
O206 Zn191 2.080 . S
O206 C209 1.305 . S
O207 Zn190 1.920 . S
O207 C209 1.234 . S
C208 O194 1.305 . S
C208 O195 1.234 . S
C209 O206 1.305 . S
C209 O207 1.234 . S
Zn210 O216 1.920 . S
Zn210 O222 1.898 . S
Zn210 O225 1.905 . S
Zn211 O219 1.905 . S
Zn211 O220 1.898 . S
Zn211 O228 1.920 . S
Zn212 O215 2.080 . S
Zn212 O218 2.114 . S
Zn212 O221 2.120 . S
Zn212 O223 2.120 . S
Zn212 O224 2.114 . S
Zn212 O227 2.080 . S
C213 O218 1.166 . S
C213 O219 1.182 . S
C214 O220 1.167 . S
C214 O221 1.299 . S
O215 Zn212 2.080 . S
O215 C229 1.305 . S
O216 Zn210 1.920 . S
O216 C229 1.234 . S
C217 O222 1.167 . S
C217 O223 1.299 . S
O218 Zn212 2.114 . S
O218 C213 1.166 . S
O219 Zn211 1.905 . S
O219 C213 1.182 . S
O220 Zn211 1.898 . S
O220 C214 1.167 . S
O221 Zn212 2.120 . S
O221 C214 1.299 . S
O222 Zn210 1.898 . S
O222 C217 1.167 . S
O223 Zn212 2.120 . S
O223 C217 1.299 . S
O224 Zn212 2.114 . S
O224 C226 1.166 . S
O225 Zn210 1.905 . S
O225 C226 1.182 . S
C226 O224 1.166 . S
C226 O225 1.182 . S
O227 Zn212 2.080 . S
O227 C230 1.305 . S
O228 Zn211 1.920 . S
O228 C230 1.234 . S
C229 O215 1.305 . S
C229 O216 1.234 . S
C230 O227 1.305 . S
C230 O228 1.234 . S
Zn231 O237 1.920 . S
Zn231 O243 1.898 . S
Zn231 O246 1.905 . S
Zn232 O240 1.905 . S
Zn232 O241 1.898 . S
Zn232 O249 1.920 . S
Zn233 O236 2.080 . S
Zn233 O239 2.114 . S
Zn233 O242 2.120 . S
Zn233 O244 2.120 . S
Zn233 O245 2.114 . S
Zn233 O248 2.080 . S
C234 O239 1.166 . S
C234 O240 1.182 . S
C235 O241 1.167 . S
C235 O242 1.299 . S
O236 Zn233 2.080 . S
O236 C250 1.305 . S
O237 Zn231 1.920 . S
O237 C250 1.234 . S
C238 O243 1.167 . S
C238 O244 1.299 . S
O239 Zn233 2.114 . S
O239 C234 1.166 . S
O240 Zn232 1.905 . S
O240 C234 1.182 . S
O241 Zn232 1.898 . S
O241 C235 1.167 . S
O242 Zn233 2.120 . S
O242 C235 1.299 . S
O243 Zn231 1.898 . S
O243 C238 1.167 . S
O244 Zn233 2.120 . S
O244 C238 1.299 . S
O245 Zn233 2.114 . S
O245 C247 1.166 . S
O246 Zn231 1.905 . S
O246 C247 1.182 . S
C247 O245 1.166 . S
C247 O246 1.182 . S
O248 Zn233 2.080 . S
O248 C251 1.305 . S
O249 Zn232 1.920 . S
O249 C251 1.234 . S
C250 O236 1.305 . S
C250 O237 1.234 . S
C251 O248 1.305 . S
C251 O249 1.234 . S
Zn252 O258 1.920 . S
Zn252 O264 1.898 . S
Zn252 O267 1.905 . S
Zn253 O261 1.905 . S
Zn253 O262 1.898 . S
Zn253 O270 1.920 . S
Zn254 O257 2.080 . S
Zn254 O260 2.114 . S
Zn254 O263 2.120 . S
Zn254 O265 2.120 . S
Zn254 O266 2.114 . S
Zn254 O269 2.080 . S
C255 O260 1.166 . S
C255 O261 1.182 . S
C256 O262 1.167 . S
C256 O263 1.299 . S
O257 Zn254 2.080 . S
O257 C271 1.305 . S
O258 Zn252 1.920 . S
O258 C271 1.234 . S
C259 O264 1.167 . S
C259 O265 1.299 . S
O260 Zn254 2.114 . S
O260 C255 1.166 . S
O261 Zn253 1.905 . S
O261 C255 1.182 . S
O262 Zn253 1.898 . S
O262 C256 1.167 . S
O263 Zn254 2.120 . S
O263 C256 1.299 . S
O264 Zn252 1.898 . S
O264 C259 1.167 . S
O265 Zn254 2.120 . S
O265 C259 1.299 . S
O266 Zn254 2.114 . S
O266 C268 1.166 . S
O267 Zn252 1.905 . S
O267 C268 1.182 . S
C268 O266 1.166 . S
C268 O267 1.182 . S
O269 Zn254 2.080 . S
O269 C272 1.305 . S
O270 Zn253 1.920 . S
O270 C272 1.234 . S
C271 O257 1.305 . S
C271 O258 1.234 . S
C272 O269 1.305 . S
C272 O270 1.234 . S
Zn273 O279 1.920 . S
Zn273 O285 1.898 . S
Zn273 O288 1.905 . S
Zn274 O282 1.905 . S
Zn274 O283 1.898 . S
Zn274 O291 1.920 . S
Zn275 O278 2.080 . S
Zn275 O281 2.114 . S
Zn275 O284 2.120 . S
Zn275 O286 2.120 . S
Zn275 O287 2.114 . S
Zn275 O290 2.080 . S
C276 O281 1.166 . S
C276 O282 1.182 . S
C277 O283 1.167 . S
C277 O284 1.299 . S
O278 Zn275 2.080 . S
O278 C292 1.305 . S
O279 Zn273 1.920 . S
O279 C292 1.234 . S
C280 O285 1.167 . S
C280 O286 1.299 . S
O281 Zn275 2.114 . S
O281 C276 1.166 . S
O282 Zn274 1.905 . S
O282 C276 1.182 . S
O283 Zn274 1.898 . S
O283 C277 1.167 . S
O284 Zn275 2.120 . S
O284 C277 1.299 . S
O285 Zn273 1.898 . S
O285 C280 1.167 . S
O286 Zn275 2.120 . S
O286 C280 1.299 . S
O287 Zn275 2.114 . S
O287 C289 1.166 . S
O288 Zn273 1.905 . S
O288 C289 1.182 . S
C289 O287 1.166 . S
C289 O288 1.182 . S
O290 Zn275 2.080 . S
O290 C293 1.305 . S
O291 Zn274 1.920 . S
O291 C293 1.234 . S
C292 O278 1.305 . S
C292 O279 1.234 . S
C293 O290 1.305 . S
C293 O291 1.234 . S
Zn294 O300 1.920 . S
Zn294 O306 1.898 . S
Zn294 O309 1.905 . S
Zn295 O303 1.905 . S
Zn295 O304 1.898 . S
Zn295 O312 1.920 . S
Zn296 O299 2.080 . S
Zn296 O302 2.114 . S
Zn296 O305 2.120 . S
Zn296 O307 2.120 . S
Zn296 O308 2.114 . S
Zn296 O311 2.080 . S
C297 O302 1.166 . S
C297 O303 1.182 . S
C298 O304 1.167 . S
C298 O305 1.299 . S
O299 Zn296 2.080 . S
O299 C313 1.305 . S
O300 Zn294 1.920 . S
O300 C313 1.234 . S
C301 O306 1.167 . S
C301 O307 1.299 . S
O302 Zn296 2.114 . S
O302 C297 1.166 . S
O303 Zn295 1.905 . S
O303 C297 1.182 . S
O304 Zn295 1.898 . S
O304 C298 1.167 . S
O305 Zn296 2.120 . S
O305 C298 1.299 . S
O306 Zn294 1.898 . S
O306 C301 1.167 . S
O307 Zn296 2.120 . S
O307 C301 1.299 . S
O308 Zn296 2.114 . S
O308 C310 1.166 . S
O309 Zn294 1.905 . S
O309 C310 1.182 . S
C310 O308 1.166 . S
C310 O309 1.182 . S
O311 Zn296 2.080 . S
O311 C314 1.305 . S
O312 Zn295 1.920 . S
O312 C314 1.234 . S
C313 O299 1.305 . S
C313 O300 1.234 . S
C314 O311 1.305 . S
C314 O312 1.234 . S
Zn315 O321 1.920 . S
Zn315 O327 1.898 . S
Zn315 O330 1.905 . S
Zn316 O324 1.905 . S
Zn316 O325 1.898 . S
Zn316 O333 1.920 . S
Zn317 O320 2.080 . S
Zn317 O323 2.114 . S
Zn317 O326 2.120 . S
Zn317 O328 2.120 . S
Zn317 O329 2.114 . S
Zn317 O332 2.080 . S
C318 O323 1.166 . S
C318 O324 1.182 . S
C319 O325 1.167 . S
C319 O326 1.299 . S
O320 Zn317 2.080 . S
O320 C334 1.305 . S
O321 Zn315 1.920 . S
O321 C334 1.234 . S
C322 O327 1.167 . S
C322 O328 1.299 . S
O323 Zn317 2.114 . S
O323 C318 1.166 . S
O324 Zn316 1.905 . S
O324 C318 1.182 . S
O325 Zn316 1.898 . S
O325 C319 1.167 . S
O326 Zn317 2.120 . S
O326 C319 1.299 . S
O327 Zn315 1.898 . S
O327 C322 1.167 . S
O328 Zn317 2.120 . S
O328 C322 1.299 . S
O329 Zn317 2.114 . S
O329 C331 1.166 . S
O330 Zn315 1.905 . S
O330 C331 1.182 . S
C331 O329 1.166 . S
C331 O330 1.182 . S
O332 Zn317 2.080 . S
O332 C335 1.305 . S
O333 Zn316 1.920 . S
O333 C335 1.234 . S
C334 O320 1.305 . S
C334 O321 1.234 . S
C335 O332 1.305 . S
C335 O333 1.234 . S
Zn336 O342 1.920 . S
Zn336 O348 1.898 . S
Zn336 O351 1.905 . S
Zn337 O345 1.905 . S
Zn337 O346 1.898 . S
Zn337 O354 1.920 . S
Zn338 O341 2.080 . S
Zn338 O344 2.114 . S
Zn338 O347 2.120 . S
Zn338 O349 2.120 . S
Zn338 O350 2.114 . S
Zn338 O353 2.080 . S
C339 O344 1.166 . S
C339 O345 1.182 . S
C340 O346 1.167 . S
C340 O347 1.299 . S
O341 Zn338 2.080 . S
O341 C355 1.305 . S
O342 Zn336 1.920 . S
O342 C355 1.234 . S
C343 O348 1.167 . S
C343 O349 1.299 . S
O344 Zn338 2.114 . S
O344 C339 1.166 . S
O345 Zn337 1.905 . S
O345 C339 1.182 . S
O346 Zn337 1.898 . S
O346 C340 1.167 . S
O347 Zn338 2.120 . S
O347 C340 1.299 . S
O348 Zn336 1.898 . S
O348 C343 1.167 . S
O349 Zn338 2.120 . S
O349 C343 1.299 . S
O350 Zn338 2.114 . S
O350 C352 1.166 . S
O351 Zn336 1.905 . S
O351 C352 1.182 . S
C352 O350 1.166 . S
C352 O351 1.182 . S
O353 Zn338 2.080 . S
O353 C356 1.305 . S
O354 Zn337 1.920 . S
O354 C356 1.234 . S
C355 O341 1.305 . S
C355 O342 1.234 . S
C356 O353 1.305 . S
C356 O354 1.234 . S
Zn357 O363 1.920 . S
Zn357 O369 1.898 . S
Zn357 O372 1.905 . S
Zn358 O366 1.905 . S
Zn358 O367 1.898 . S
Zn358 O375 1.920 . S
Zn359 O362 2.080 . S
Zn359 O365 2.114 . S
Zn359 O368 2.120 . S
Zn359 O370 2.120 . S
Zn359 O371 2.114 . S
Zn359 O374 2.080 . S
C360 O365 1.166 . S
C360 O366 1.182 . S
C361 O367 1.167 . S
C361 O368 1.299 . S
O362 Zn359 2.080 . S
O362 C376 1.305 . S
O363 Zn357 1.920 . S
O363 C376 1.234 . S
C364 O369 1.167 . S
C364 O370 1.299 . S
O365 Zn359 2.114 . S
O365 C360 1.166 . S
O366 Zn358 1.905 . S
O366 C360 1.182 . S
O367 Zn358 1.898 . S
O367 C361 1.167 . S
O368 Zn359 2.120 . S
O368 C361 1.299 . S
O369 Zn357 1.898 . S
O369 C364 1.167 . S
O370 Zn359 2.120 . S
O370 C364 1.299 . S
O371 Zn359 2.114 . S
O371 C373 1.166 . S
O372 Zn357 1.905 . S
O372 C373 1.182 . S
C373 O371 1.166 . S
C373 O372 1.182 . S
O374 Zn359 2.080 . S
O374 C377 1.305 . S
O375 Zn358 1.920 . S
O375 C377 1.234 . S
C376 O362 1.305 . S
C376 O363 1.234 . S
C377 O374 1.305 . S
C377 O375 1.234 . S
Zn378 O384 1.920 . S
Zn378 O390 1.898 . S
Zn378 O393 1.905 . S
Zn379 O387 1.905 . S
Zn379 O388 1.898 . S
Zn379 O396 1.920 . S
Zn380 O383 2.080 . S
Zn380 O386 2.114 . S
Zn380 O389 2.120 . S
Zn380 O391 2.120 . S
Zn380 O392 2.114 . S
Zn380 O395 2.080 . S
C381 O386 1.166 . S
C381 O387 1.182 . S
C382 O388 1.167 . S
C382 O389 1.299 . S
O383 Zn380 2.080 . S
O383 C397 1.305 . S
O384 Zn378 1.920 . S
O384 C397 1.234 . S
C385 O390 1.167 . S
C385 O391 1.299 . S
O386 Zn380 2.114 . S
O386 C381 1.166 . S
O387 Zn379 1.905 . S
O387 C381 1.182 . S
O388 Zn379 1.898 . S
O388 C382 1.167 . S
O389 Zn380 2.120 . S
O389 C382 1.299 . S
O390 Zn378 1.898 . S
O390 C385 1.167 . S
O391 Zn380 2.120 . S
O391 C385 1.299 . S
O392 Zn380 2.114 . S
O392 C394 1.166 . S
O393 Zn378 1.905 . S
O393 C394 1.182 . S
C394 O392 1.166 . S
C394 O393 1.182 . S
O395 Zn380 2.080 . S
O395 C398 1.305 . S
O396 Zn379 1.920 . S
O396 C398 1.234 . S
C397 O383 1.305 . S
C397 O384 1.234 . S
C398 O395 1.305 . S
C398 O396 1.234 . S
Zn399 O405 1.920 . S
Zn399 O411 1.898 . S
Zn399 O414 1.905 . S
Zn400 O408 1.905 . S
Zn400 O409 1.898 . S
Zn400 O417 1.920 . S
Zn401 O404 2.080 . S
Zn401 O407 2.114 . S
Zn401 O410 2.120 . S
Zn401 O412 2.120 . S
Zn401 O413 2.114 . S
Zn401 O416 2.080 . S
C402 O407 1.166 . S
C402 O408 1.182 . S
C403 O409 1.167 . S
C403 O410 1.299 . S
O404 Zn401 2.080 . S
O404 C418 1.305 . S
O405 Zn399 1.920 . S
O405 C418 1.234 . S
C406 O411 1.167 . S
C406 O412 1.299 . S
O407 Zn401 2.114 . S
O407 C402 1.166 . S
O408 Zn400 1.905 . S
O408 C402 1.182 . S
O409 Zn400 1.898 . S
O409 C403 1.167 . S
O410 Zn401 2.120 . S
O410 C403 1.299 . S
O411 Zn399 1.898 . S
O411 C406 1.167 . S
O412 Zn401 2.120 . S
O412 C406 1.299 . S
O413 Zn401 2.114 . S
O413 C415 1.166 . S
O414 Zn399 1.905 . S
O414 C415 1.182 . S
C415 O413 1.166 . S
C415 O414 1.182 . S
O416 Zn401 2.080 . S
O416 C419 1.305 . S
O417 Zn400 1.920 . S
O417 C419 1.234 . S
C418 O404 1.305 . S
C418 O405 1.234 . S
C419 O416 1.305 . S
C419 O417 1.234 . S
Zn420 O426 1.920 . S
Zn420 O432 1.898 . S
Zn420 O435 1.905 . S
Zn421 O429 1.905 . S
Zn421 O430 1.898 . S
Zn421 O438 1.920 . S
Zn422 O425 2.080 . S
Zn422 O428 2.114 . S
Zn422 O431 2.120 . S
Zn422 O433 2.120 . S
Zn422 O434 2.114 . S
Zn422 O437 2.080 . S
C423 O428 1.166 . S
C423 O429 1.182 . S
C424 O430 1.167 . S
C424 O431 1.299 . S
O425 Zn422 2.080 . S
O425 C439 1.305 . S
O426 Zn420 1.920 . S
O426 C439 1.234 . S
C427 O432 1.167 . S
C427 O433 1.299 . S
O428 Zn422 2.114 . S
O428 C423 1.166 . S
O429 Zn421 1.905 . S
O429 C423 1.182 . S
O430 Zn421 1.898 . S
O430 C424 1.167 . S
O431 Zn422 2.120 . S
O431 C424 1.299 . S
O432 Zn420 1.898 . S
O432 C427 1.167 . S
O433 Zn422 2.120 . S
O433 C427 1.299 . S
O434 Zn422 2.114 . S
O434 C436 1.166 . S
O435 Zn420 1.905 . S
O435 C436 1.182 . S
C436 O434 1.166 . S
C436 O435 1.182 . S
O437 Zn422 2.080 . S
O437 C440 1.305 . S
O438 Zn421 1.920 . S
O438 C440 1.234 . S
C439 O425 1.305 . S
C439 O426 1.234 . S
C440 O437 1.305 . S
C440 O438 1.234 . S
Zn441 O447 1.920 . S
Zn441 O453 1.898 . S
Zn441 O456 1.905 . S
Zn442 O450 1.905 . S
Zn442 O451 1.898 . S
Zn442 O459 1.920 . S
Zn443 O446 2.080 . S
Zn443 O449 2.114 . S
Zn443 O452 2.120 . S
Zn443 O454 2.120 . S
Zn443 O455 2.114 . S
Zn443 O458 2.080 . S
C444 O449 1.166 . S
C444 O450 1.182 . S
C445 O451 1.167 . S
C445 O452 1.299 . S
O446 Zn443 2.080 . S
O446 C460 1.305 . S
O447 Zn441 1.920 . S
O447 C460 1.234 . S
C448 O453 1.167 . S
C448 O454 1.299 . S
O449 Zn443 2.114 . S
O449 C444 1.166 . S
O450 Zn442 1.905 . S
O450 C444 1.182 . S
O451 Zn442 1.898 . S
O451 C445 1.167 . S
O452 Zn443 2.120 . S
O452 C445 1.299 . S
O453 Zn441 1.898 . S
O453 C448 1.167 . S
O454 Zn443 2.120 . S
O454 C448 1.299 . S
O455 Zn443 2.114 . S
O455 C457 1.166 . S
O456 Zn441 1.905 . S
O456 C457 1.182 . S
C457 O455 1.166 . S
C457 O456 1.182 . S
O458 Zn443 2.080 . S
O458 C461 1.305 . S
O459 Zn442 1.920 . S
O459 C461 1.234 . S
C460 O446 1.305 . S
C460 O447 1.234 . S
C461 O458 1.305 . S
C461 O459 1.234 . S
Zn462 O468 1.920 . S
Zn462 O474 1.898 . S
Zn462 O477 1.905 . S
Zn463 O471 1.905 . S
Zn463 O472 1.898 . S
Zn463 O480 1.920 . S
Zn464 O467 2.080 . S
Zn464 O470 2.114 . S
Zn464 O473 2.120 . S
Zn464 O475 2.120 . S
Zn464 O476 2.114 . S
Zn464 O479 2.080 . S
C465 O470 1.166 . S
C465 O471 1.182 . S
C466 O472 1.167 . S
C466 O473 1.299 . S
O467 Zn464 2.080 . S
O467 C481 1.305 . S
O468 Zn462 1.920 . S
O468 C481 1.234 . S
C469 O474 1.167 . S
C469 O475 1.299 . S
O470 Zn464 2.114 . S
O470 C465 1.166 . S
O471 Zn463 1.905 . S
O471 C465 1.182 . S
O472 Zn463 1.898 . S
O472 C466 1.167 . S
O473 Zn464 2.120 . S
O473 C466 1.299 . S
O474 Zn462 1.898 . S
O474 C469 1.167 . S
O475 Zn464 2.120 . S
O475 C469 1.299 . S
O476 Zn464 2.114 . S
O476 C478 1.166 . S
O477 Zn462 1.905 . S
O477 C478 1.182 . S
C478 O476 1.166 . S
C478 O477 1.182 . S
O479 Zn464 2.080 . S
O479 C482 1.305 . S
O480 Zn463 1.920 . S
O480 C482 1.234 . S
C481 O467 1.305 . S
C481 O468 1.234 . S
C482 O479 1.305 . S
C482 O480 1.234 . S
Zn483 O489 1.920 . S
Zn483 O495 1.898 . S
Zn483 O498 1.905 . S
Zn484 O492 1.905 . S
Zn484 O493 1.898 . S
Zn484 O501 1.920 . S
Zn485 O488 2.080 . S
Zn485 O491 2.114 . S
Zn485 O494 2.120 . S
Zn485 O496 2.120 . S
Zn485 O497 2.114 . S
Zn485 O500 2.080 . S
C486 O491 1.166 . S
C486 O492 1.182 . S
C487 O493 1.167 . S
C487 O494 1.299 . S
O488 Zn485 2.080 . S
O488 C502 1.305 . S
O489 Zn483 1.920 . S
O489 C502 1.234 . S
C490 O495 1.167 . S
C490 O496 1.299 . S
O491 Zn485 2.114 . S
O491 C486 1.166 . S
O492 Zn484 1.905 . S
O492 C486 1.182 . S
O493 Zn484 1.898 . S
O493 C487 1.167 . S
O494 Zn485 2.120 . S
O494 C487 1.299 . S
O495 Zn483 1.898 . S
O495 C490 1.167 . S
O496 Zn485 2.120 . S
O496 C490 1.299 . S
O497 Zn485 2.114 . S
O497 C499 1.166 . S
O498 Zn483 1.905 . S
O498 C499 1.182 . S
C499 O497 1.166 . S
C499 O498 1.182 . S
O500 Zn485 2.080 . S
O500 C503 1.305 . S
O501 Zn484 1.920 . S
O501 C503 1.234 . S
C502 O488 1.305 . S
C502 O489 1.234 . S
C503 O500 1.305 . S
C503 O501 1.234 . S
H504 C510 0.930 . S
H505 C514 0.930 . S
H506 C519 0.929 . S
H507 C517 0.929 . S
H508 C512 0.929 . S
H509 C518 0.929 . S
C510 H504 0.930 . S
C510 C511 1.367 . S
C510 C518 1.378 . S
C511 C510 1.367 . S
C511 C519 1.433 . S
C512 H508 0.929 . S
C512 C514 1.378 . S
C512 C516 1.350 . S
C513 C516 1.463 . S
C513 C518 1.350 . S
C513 N521 1.427 . S
C514 H505 0.930 . S
C514 C512 1.378 . S
C514 C515 1.367 . S
C515 C514 1.367 . S
C515 C517 1.433 . S
C516 C512 1.350 . S
C516 C513 1.463 . S
C516 N520 1.427 . S
C517 H507 0.929 . S
C517 C515 1.433 . S
C517 N520 1.384 . S
C518 H509 0.929 . S
C518 C510 1.378 . S
C518 C513 1.350 . S
C519 H506 0.929 . S
C519 C511 1.433 . S
C519 N521 1.384 . S
N520 C516 1.427 . S
N520 C517 1.384 . S
N521 C513 1.427 . S
N521 C519 1.384 . S
H522 C528 0.930 . S
H523 C532 0.930 . S
H524 C537 0.929 . S
H525 C535 0.929 . S
H526 C530 0.929 . S
H527 C536 0.929 . S
C528 H522 0.930 . S
C528 C529 1.367 . S
C528 C536 1.378 . S
C529 C528 1.367 . S
C529 C537 1.433 . S
C530 H526 0.929 . S
C530 C532 1.378 . S
C530 C534 1.350 . S
C531 C534 1.463 . S
C531 C536 1.350 . S
C531 N539 1.427 . S
C532 H523 0.930 . S
C532 C530 1.378 . S
C532 C533 1.367 . S
C533 C532 1.367 . S
C533 C535 1.433 . S
C534 C530 1.350 . S
C534 C531 1.463 . S
C534 N538 1.427 . S
C535 H525 0.929 . S
C535 C533 1.433 . S
C535 N538 1.384 . S
C536 H527 0.929 . S
C536 C528 1.378 . S
C536 C531 1.350 . S
C537 H524 0.929 . S
C537 C529 1.433 . S
C537 N539 1.384 . S
N538 C534 1.427 . S
N538 C535 1.384 . S
N539 C531 1.427 . S
N539 C537 1.384 . S
H540 C546 0.930 . S
H541 C550 0.930 . S
H542 C555 0.929 . S
H543 C553 0.929 . S
H544 C548 0.929 . S
H545 C554 0.929 . S
C546 H540 0.930 . S
C546 C547 1.367 . S
C546 C554 1.378 . S
C547 C546 1.367 . S
C547 C555 1.433 . S
C548 H544 0.929 . S
C548 C550 1.378 . S
C548 C552 1.350 . S
C549 C552 1.463 . S
C549 C554 1.350 . S
C549 N557 1.427 . S
C550 H541 0.930 . S
C550 C548 1.378 . S
C550 C551 1.367 . S
C551 C550 1.367 . S
C551 C553 1.433 . S
C552 C548 1.350 . S
C552 C549 1.463 . S
C552 N556 1.427 . S
C553 H543 0.929 . S
C553 C551 1.433 . S
C553 N556 1.384 . S
C554 H545 0.929 . S
C554 C546 1.378 . S
C554 C549 1.350 . S
C555 H542 0.929 . S
C555 C547 1.433 . S
C555 N557 1.384 . S
N556 C552 1.427 . S
N556 C553 1.384 . S
N557 C549 1.427 . S
N557 C555 1.384 . S
H558 C564 0.930 . S
H559 C568 0.930 . S
H560 C573 0.929 . S
H561 C571 0.929 . S
H562 C566 0.929 . S
H563 C572 0.929 . S
C564 H558 0.930 . S
C564 C565 1.367 . S
C564 C572 1.378 . S
C565 C564 1.367 . S
C565 C573 1.433 . S
C566 H562 0.929 . S
C566 C568 1.378 . S
C566 C570 1.350 . S
C567 C570 1.463 . S
C567 C572 1.350 . S
C567 N575 1.427 . S
C568 H559 0.930 . S
C568 C566 1.378 . S
C568 C569 1.367 . S
C569 C568 1.367 . S
C569 C571 1.433 . S
C570 C566 1.350 . S
C570 C567 1.463 . S
C570 N574 1.427 . S
C571 H561 0.929 . S
C571 C569 1.433 . S
C571 N574 1.384 . S
C572 H563 0.929 . S
C572 C564 1.378 . S
C572 C567 1.350 . S
C573 H560 0.929 . S
C573 C565 1.433 . S
C573 N575 1.384 . S
N574 C570 1.427 . S
N574 C571 1.384 . S
N575 C567 1.427 . S
N575 C573 1.384 . S
H576 C582 0.930 . S
H577 C586 0.930 . S
H578 C591 0.929 . S
H579 C589 0.929 . S
H580 C584 0.929 . S
H581 C590 0.929 . S
C582 H576 0.930 . S
C582 C583 1.367 . S
C582 C590 1.378 . S
C583 C582 1.367 . S
C583 C591 1.433 . S
C584 H580 0.929 . S
C584 C586 1.378 . S
C584 C588 1.350 . S
C585 C588 1.463 . S
C585 C590 1.350 . S
C585 N593 1.427 . S
C586 H577 0.930 . S
C586 C584 1.378 . S
C586 C587 1.367 . S
C587 C586 1.367 . S
C587 C589 1.433 . S
C588 C584 1.350 . S
C588 C585 1.463 . S
C588 N592 1.427 . S
C589 H579 0.929 . S
C589 C587 1.433 . S
C589 N592 1.384 . S
C590 H581 0.929 . S
C590 C582 1.378 . S
C590 C585 1.350 . S
C591 H578 0.929 . S
C591 C583 1.433 . S
C591 N593 1.384 . S
N592 C588 1.427 . S
N592 C589 1.384 . S
N593 C585 1.427 . S
N593 C591 1.384 . S
H594 C600 0.930 . S
H595 C604 0.930 . S
H596 C609 0.929 . S
H597 C607 0.929 . S
H598 C602 0.929 . S
H599 C608 0.929 . S
C600 H594 0.930 . S
C600 C601 1.367 . S
C600 C608 1.378 . S
C601 C600 1.367 . S
C601 C609 1.433 . S
C602 H598 0.929 . S
C602 C604 1.378 . S
C602 C606 1.350 . S
C603 C606 1.463 . S
C603 C608 1.350 . S
C603 N611 1.427 . S
C604 H595 0.930 . S
C604 C602 1.378 . S
C604 C605 1.367 . S
C605 C604 1.367 . S
C605 C607 1.433 . S
C606 C602 1.350 . S
C606 C603 1.463 . S
C606 N610 1.427 . S
C607 H597 0.929 . S
C607 C605 1.433 . S
C607 N610 1.384 . S
C608 H599 0.929 . S
C608 C600 1.378 . S
C608 C603 1.350 . S
C609 H596 0.929 . S
C609 C601 1.433 . S
C609 N611 1.384 . S
N610 C606 1.427 . S
N610 C607 1.384 . S
N611 C603 1.427 . S
N611 C609 1.384 . S
H612 C618 0.930 . S
H613 C622 0.930 . S
H614 C627 0.929 . S
H615 C625 0.929 . S
H616 C620 0.929 . S
H617 C626 0.929 . S
C618 H612 0.930 . S
C618 C619 1.367 . S
C618 C626 1.378 . S
C619 C618 1.367 . S
C619 C627 1.433 . S
C620 H616 0.929 . S
C620 C622 1.378 . S
C620 C624 1.350 . S
C621 C624 1.463 . S
C621 C626 1.350 . S
C621 N629 1.427 . S
C622 H613 0.930 . S
C622 C620 1.378 . S
C622 C623 1.367 . S
C623 C622 1.367 . S
C623 C625 1.433 . S
C624 C620 1.350 . S
C624 C621 1.463 . S
C624 N628 1.427 . S
C625 H615 0.929 . S
C625 C623 1.433 . S
C625 N628 1.384 . S
C626 H617 0.929 . S
C626 C618 1.378 . S
C626 C621 1.350 . S
C627 H614 0.929 . S
C627 C619 1.433 . S
C627 N629 1.384 . S
N628 C624 1.427 . S
N628 C625 1.384 . S
N629 C621 1.427 . S
N629 C627 1.384 . S
H630 C636 0.930 . S
H631 C640 0.930 . S
H632 C645 0.929 . S
H633 C643 0.929 . S
H634 C638 0.929 . S
H635 C644 0.929 . S
C636 H630 0.930 . S
C636 C637 1.367 . S
C636 C644 1.378 . S
C637 C636 1.367 . S
C637 C645 1.433 . S
C638 H634 0.929 . S
C638 C640 1.378 . S
C638 C642 1.350 . S
C639 C642 1.463 . S
C639 C644 1.350 . S
C639 N647 1.427 . S
C640 H631 0.930 . S
C640 C638 1.378 . S
C640 C641 1.367 . S
C641 C640 1.367 . S
C641 C643 1.433 . S
C642 C638 1.350 . S
C642 C639 1.463 . S
C642 N646 1.427 . S
C643 H633 0.929 . S
C643 C641 1.433 . S
C643 N646 1.384 . S
C644 H635 0.929 . S
C644 C636 1.378 . S
C644 C639 1.350 . S
C645 H632 0.929 . S
C645 C637 1.433 . S
C645 N647 1.384 . S
N646 C642 1.427 . S
N646 C643 1.384 . S
N647 C639 1.427 . S
N647 C645 1.384 . S
H648 C654 0.930 . S
H649 C658 0.930 . S
H650 C663 0.929 . S
H651 C661 0.929 . S
H652 C656 0.929 . S
H653 C662 0.929 . S
C654 H648 0.930 . S
C654 C655 1.367 . S
C654 C662 1.378 . S
C655 C654 1.367 . S
C655 C663 1.433 . S
C656 H652 0.929 . S
C656 C658 1.378 . S
C656 C660 1.350 . S
C657 C660 1.463 . S
C657 C662 1.350 . S
C657 N665 1.427 . S
C658 H649 0.930 . S
C658 C656 1.378 . S
C658 C659 1.367 . S
C659 C658 1.367 . S
C659 C661 1.433 . S
C660 C656 1.350 . S
C660 C657 1.463 . S
C660 N664 1.427 . S
C661 H651 0.929 . S
C661 C659 1.433 . S
C661 N664 1.384 . S
C662 H653 0.929 . S
C662 C654 1.378 . S
C662 C657 1.350 . S
C663 H650 0.929 . S
C663 C655 1.433 . S
C663 N665 1.384 . S
N664 C660 1.427 . S
N664 C661 1.384 . S
N665 C657 1.427 . S
N665 C663 1.384 . S
H666 C672 0.930 . S
H667 C676 0.930 . S
H668 C681 0.929 . S
H669 C679 0.929 . S
H670 C674 0.929 . S
H671 C680 0.929 . S
C672 H666 0.930 . S
C672 C673 1.367 . S
C672 C680 1.378 . S
C673 C672 1.367 . S
C673 C681 1.433 . S
C674 H670 0.929 . S
C674 C676 1.378 . S
C674 C678 1.350 . S
C675 C678 1.463 . S
C675 C680 1.350 . S
C675 N683 1.427 . S
C676 H667 0.930 . S
C676 C674 1.378 . S
C676 C677 1.367 . S
C677 C676 1.367 . S
C677 C679 1.433 . S
C678 C674 1.350 . S
C678 C675 1.463 . S
C678 N682 1.427 . S
C679 H669 0.929 . S
C679 C677 1.433 . S
C679 N682 1.384 . S
C680 H671 0.929 . S
C680 C672 1.378 . S
C680 C675 1.350 . S
C681 H668 0.929 . S
C681 C673 1.433 . S
C681 N683 1.384 . S
N682 C678 1.427 . S
N682 C679 1.384 . S
N683 C675 1.427 . S
N683 C681 1.384 . S
H684 C690 0.930 . S
H685 C694 0.930 . S
H686 C699 0.929 . S
H687 C697 0.929 . S
H688 C692 0.929 . S
H689 C698 0.929 . S
C690 H684 0.930 . S
C690 C691 1.367 . S
C690 C698 1.378 . S
C691 C690 1.367 . S
C691 C699 1.433 . S
C692 H688 0.929 . S
C692 C694 1.378 . S
C692 C696 1.350 . S
C693 C696 1.463 . S
C693 C698 1.350 . S
C693 N701 1.427 . S
C694 H685 0.930 . S
C694 C692 1.378 . S
C694 C695 1.367 . S
C695 C694 1.367 . S
C695 C697 1.433 . S
C696 C692 1.350 . S
C696 C693 1.463 . S
C696 N700 1.427 . S
C697 H687 0.929 . S
C697 C695 1.433 . S
C697 N700 1.384 . S
C698 H689 0.929 . S
C698 C690 1.378 . S
C698 C693 1.350 . S
C699 H686 0.929 . S
C699 C691 1.433 . S
C699 N701 1.384 . S
N700 C696 1.427 . S
N700 C697 1.384 . S
N701 C693 1.427 . S
N701 C699 1.384 . S
H702 C708 0.930 . S
H703 C712 0.930 . S
H704 C717 0.929 . S
H705 C715 0.929 . S
H706 C710 0.929 . S
H707 C716 0.929 . S
C708 H702 0.930 . S
C708 C709 1.367 . S
C708 C716 1.378 . S
C709 C708 1.367 . S
C709 C717 1.433 . S
C710 H706 0.929 . S
C710 C712 1.378 . S
C710 C714 1.350 . S
C711 C714 1.463 . S
C711 C716 1.350 . S
C711 N719 1.427 . S
C712 H703 0.930 . S
C712 C710 1.378 . S
C712 C713 1.367 . S
C713 C712 1.367 . S
C713 C715 1.433 . S
C714 C710 1.350 . S
C714 C711 1.463 . S
C714 N718 1.427 . S
C715 H705 0.929 . S
C715 C713 1.433 . S
C715 N718 1.384 . S
C716 H707 0.929 . S
C716 C708 1.378 . S
C716 C711 1.350 . S
C717 H704 0.929 . S
C717 C709 1.433 . S
C717 N719 1.384 . S
N718 C714 1.427 . S
N718 C715 1.384 . S
N719 C711 1.427 . S
N719 C717 1.384 . S
H720 C726 0.930 . S
H721 C730 0.930 . S
H722 C735 0.929 . S
H723 C733 0.929 . S
H724 C728 0.929 . S
H725 C734 0.929 . S
C726 H720 0.930 . S
C726 C727 1.367 . S
C726 C734 1.378 . S
C727 C726 1.367 . S
C727 C735 1.433 . S
C728 H724 0.929 . S
C728 C730 1.378 . S
C728 C732 1.350 . S
C729 C732 1.463 1_545 S
C729 C734 1.350 . S
C729 N737 1.427 . S
C730 H721 0.930 . S
C730 C728 1.378 . S
C730 C731 1.367 . S
C731 C730 1.367 . S
C731 C733 1.433 . S
C732 C728 1.350 . S
C732 C729 1.463 1_565 S
C732 N736 1.427 . S
C733 H723 0.929 . S
C733 C731 1.433 . S
C733 N736 1.384 . S
C734 H725 0.929 . S
C734 C726 1.378 . S
C734 C729 1.350 . S
C735 H722 0.929 . S
C735 C727 1.433 . S
C735 N737 1.384 . S
N736 C732 1.427 . S
N736 C733 1.384 . S
N737 C729 1.427 . S
N737 C735 1.384 . S
H738 C744 0.930 . S
H739 C748 0.930 . S
H740 C753 0.929 . S
H741 C751 0.929 . S
H742 C746 0.929 . S
H743 C752 0.929 . S
C744 H738 0.930 . S
C744 C745 1.367 . S
C744 C752 1.378 . S
C745 C744 1.367 . S
C745 C753 1.433 . S
C746 H742 0.929 . S
C746 C748 1.378 . S
C746 C750 1.350 . S
C747 C750 1.463 . S
C747 C752 1.350 . S
C747 N755 1.427 . S
C748 H739 0.930 . S
C748 C746 1.378 . S
C748 C749 1.367 . S
C749 C748 1.367 . S
C749 C751 1.433 . S
C750 C746 1.350 . S
C750 C747 1.463 . S
C750 N754 1.427 . S
C751 H741 0.929 . S
C751 C749 1.433 . S
C751 N754 1.384 . S
C752 H743 0.929 . S
C752 C744 1.378 . S
C752 C747 1.350 . S
C753 H740 0.929 . S
C753 C745 1.433 . S
C753 N755 1.384 . S
N754 C750 1.427 . S
N754 C751 1.384 . S
N755 C747 1.427 . S
N755 C753 1.384 . S
H756 C762 0.930 . S
H757 C766 0.930 . S
H758 C771 0.929 . S
H759 C769 0.929 . S
H760 C764 0.929 . S
H761 C770 0.929 . S
C762 H756 0.930 . S
C762 C763 1.367 . S
C762 C770 1.378 . S
C763 C762 1.367 . S
C763 C771 1.433 . S
C764 H760 0.929 . S
C764 C766 1.378 . S
C764 C768 1.350 . S
C765 C768 1.463 1_655 S
C765 C770 1.350 . S
C765 N773 1.427 . S
C766 H757 0.930 . S
C766 C764 1.378 . S
C766 C767 1.367 . S
C767 C766 1.367 . S
C767 C769 1.433 . S
C768 C764 1.350 . S
C768 C765 1.463 1_455 S
C768 N772 1.427 . S
C769 H759 0.929 . S
C769 C767 1.433 . S
C769 N772 1.384 . S
C770 H761 0.929 . S
C770 C762 1.378 . S
C770 C765 1.350 . S
C771 H758 0.929 . S
C771 C763 1.433 . S
C771 N773 1.384 . S
N772 C768 1.427 . S
N772 C769 1.384 . S
N773 C765 1.427 . S
N773 C771 1.384 . S
H774 C780 0.930 . S
H775 C784 0.930 . S
H776 C789 0.929 . S
H777 C787 0.929 . S
H778 C782 0.929 . S
H779 C788 0.929 . S
C780 H774 0.930 . S
C780 C781 1.367 . S
C780 C788 1.378 . S
C781 C780 1.367 . S
C781 C789 1.433 . S
C782 H778 0.929 . S
C782 C784 1.378 . S
C782 C786 1.350 . S
C783 C786 1.463 1_655 S
C783 C788 1.350 . S
C783 N791 1.427 . S
C784 H775 0.930 . S
C784 C782 1.378 . S
C784 C785 1.367 . S
C785 C784 1.367 . S
C785 C787 1.433 . S
C786 C782 1.350 . S
C786 C783 1.463 1_455 S
C786 N790 1.427 . S
C787 H777 0.929 . S
C787 C785 1.433 . S
C787 N790 1.384 . S
C788 H779 0.929 . S
C788 C780 1.378 . S
C788 C783 1.350 . S
C789 H776 0.929 . S
C789 C781 1.433 . S
C789 N791 1.384 . S
N790 C786 1.427 . S
N790 C787 1.384 . S
N791 C783 1.427 . S
N791 C789 1.384 . S
H792 C798 0.930 . S
H793 C802 0.930 . S
H794 C807 0.929 . S
H795 C805 0.929 . S
H796 C800 0.929 1_565 S
H797 C806 0.929 1_545 S
C798 H792 0.930 . S
C798 C799 1.367 . S
C798 C806 1.378 . S
C799 C798 1.367 . S
C799 C807 1.433 . S
C800 H796 0.929 1_545 S
C800 C802 1.378 . S
C800 C804 1.350 . S
C801 C804 1.463 1_565 S
C801 C806 1.350 . S
C801 N809 1.427 . S
C802 H793 0.930 . S
C802 C800 1.378 . S
C802 C803 1.367 . S
C803 C802 1.367 . S
C803 C805 1.433 . S
C804 C800 1.350 . S
C804 C801 1.463 1_545 S
C804 N808 1.427 . S
C805 H795 0.929 . S
C805 C803 1.433 . S
C805 N808 1.384 . S
C806 H797 0.929 1_565 S
C806 C798 1.378 . S
C806 C801 1.350 . S
C807 H794 0.929 . S
C807 C799 1.433 . S
C807 N809 1.384 . S
N808 C804 1.427 . S
N808 C805 1.384 . S
N809 C801 1.427 . S
N809 C807 1.384 . S
H810 C816 0.930 . S
H811 C820 0.930 . S
H812 C825 0.929 . S
H813 C823 0.929 . S
H814 C818 0.929 . S
H815 C824 0.929 . S
C816 H810 0.930 . S
C816 C817 1.367 . S
C816 C824 1.378 . S
C817 C816 1.367 . S
C817 C825 1.433 . S
C818 H814 0.929 . S
C818 C820 1.378 . S
C818 C822 1.350 . S
C819 C822 1.463 . S
C819 C824 1.350 . S
C819 N827 1.427 . S
C820 H811 0.930 . S
C820 C818 1.378 . S
C820 C821 1.367 . S
C821 C820 1.367 . S
C821 C823 1.433 . S
C822 C818 1.350 . S
C822 C819 1.463 . S
C822 N826 1.427 . S
C823 H813 0.929 . S
C823 C821 1.433 . S
C823 N826 1.384 . S
C824 H815 0.929 . S
C824 C816 1.378 . S
C824 C819 1.350 . S
C825 H812 0.929 . S
C825 C817 1.433 . S
C825 N827 1.384 . S
N826 C822 1.427 . S
N826 C823 1.384 . S
N827 C819 1.427 . S
N827 C825 1.384 . S
H828 C834 0.930 . S
H829 C838 0.930 . S
H830 C843 0.929 . S
H831 C841 0.929 . S
H832 C836 0.929 . S
H833 C842 0.929 . S
C834 H828 0.930 . S
C834 C835 1.367 . S
C834 C842 1.378 . S
C835 C834 1.367 . S
C835 C843 1.433 . S
C836 H832 0.929 . S
C836 C838 1.378 . S
C836 C840 1.350 . S
C837 C840 1.463 1_545 S
C837 C842 1.350 . S
C837 N845 1.427 . S
C838 H829 0.930 . S
C838 C836 1.378 . S
C838 C839 1.367 . S
C839 C838 1.367 . S
C839 C841 1.433 . S
C840 C836 1.350 . S
C840 C837 1.463 1_565 S
C840 N844 1.427 . S
C841 H831 0.929 . S
C841 C839 1.433 . S
C841 N844 1.384 . S
C842 H833 0.929 . S
C842 C834 1.378 . S
C842 C837 1.350 . S
C843 H830 0.929 . S
C843 C835 1.433 . S
C843 N845 1.384 . S
N844 C840 1.427 . S
N844 C841 1.384 . S
N845 C837 1.427 . S
N845 C843 1.384 . S
H846 C852 0.930 . S
H847 C856 0.930 . S
H848 C861 0.929 . S
H849 C859 0.929 . S
H850 C854 0.929 . S
H851 C860 0.929 . S
C852 H846 0.930 . S
C852 C853 1.367 . S
C852 C860 1.378 . S
C853 C852 1.367 . S
C853 C861 1.433 . S
C854 H850 0.929 . S
C854 C856 1.378 . S
C854 C858 1.350 . S
C855 C858 1.463 . S
C855 C860 1.350 . S
C855 N863 1.427 . S
C856 H847 0.930 . S
C856 C854 1.378 . S
C856 C857 1.367 . S
C857 C856 1.367 . S
C857 C859 1.433 . S
C858 C854 1.350 . S
C858 C855 1.463 . S
C858 N862 1.427 . S
C859 H849 0.929 . S
C859 C857 1.433 . S
C859 N862 1.384 . S
C860 H851 0.929 . S
C860 C852 1.378 . S
C860 C855 1.350 . S
C861 H848 0.929 . S
C861 C853 1.433 . S
C861 N863 1.384 . S
N862 C858 1.427 . S
N862 C859 1.384 . S
N863 C855 1.427 . S
N863 C861 1.384 . S
H864 C870 0.930 . S
H865 C874 0.930 . S
H866 C879 0.929 . S
H867 C877 0.929 . S
H868 C872 0.929 . S
H869 C878 0.929 . S
C870 H864 0.930 . S
C870 C871 1.367 . S
C870 C878 1.378 . S
C871 C870 1.367 . S
C871 C879 1.433 . S
C872 H868 0.929 . S
C872 C874 1.378 . S
C872 C876 1.350 . S
C873 C876 1.463 1_655 S
C873 C878 1.350 . S
C873 N881 1.427 . S
C874 H865 0.930 . S
C874 C872 1.378 . S
C874 C875 1.367 . S
C875 C874 1.367 . S
C875 C877 1.433 . S
C876 C872 1.350 . S
C876 C873 1.463 1_455 S
C876 N880 1.427 . S
C877 H867 0.929 . S
C877 C875 1.433 . S
C877 N880 1.384 . S
C878 H869 0.929 . S
C878 C870 1.378 . S
C878 C873 1.350 . S
C879 H866 0.929 . S
C879 C871 1.433 . S
C879 N881 1.384 . S
N880 C876 1.427 . S
N880 C877 1.384 . S
N881 C873 1.427 . S
N881 C879 1.384 . S
H882 C888 0.930 . S
H883 C892 0.930 . S
H884 C897 0.929 . S
H885 C895 0.929 . S
H886 C890 0.929 . S
H887 C896 0.929 . S
C888 H882 0.930 . S
C888 C889 1.367 . S
C888 C896 1.378 . S
C889 C888 1.367 . S
C889 C897 1.433 . S
C890 H886 0.929 . S
C890 C892 1.378 . S
C890 C894 1.350 . S
C891 C894 1.463 1_455 S
C891 C896 1.350 . S
C891 N899 1.427 . S
C892 H883 0.930 . S
C892 C890 1.378 . S
C892 C893 1.367 . S
C893 C892 1.367 . S
C893 C895 1.433 . S
C894 C890 1.350 . S
C894 C891 1.463 1_655 S
C894 N898 1.427 . S
C895 H885 0.929 . S
C895 C893 1.433 . S
C895 N898 1.384 . S
C896 H887 0.929 . S
C896 C888 1.378 . S
C896 C891 1.350 . S
C897 H884 0.929 . S
C897 C889 1.433 . S
C897 N899 1.384 . S
N898 C894 1.427 . S
N898 C895 1.384 . S
N899 C891 1.427 . S
N899 C897 1.384 . S
H900 C906 0.930 . S
H901 C910 0.930 . S
H902 C915 0.929 . S
H903 C913 0.929 . S
H904 C908 0.929 . S
H905 C914 0.929 . S
C906 H900 0.930 . S
C906 C907 1.367 . S
C906 C914 1.378 . S
C907 C906 1.367 . S
C907 C915 1.433 . S
C908 H904 0.929 . S
C908 C910 1.378 . S
C908 C912 1.350 . S
C909 C912 1.463 1_545 S
C909 C914 1.350 . S
C909 N917 1.427 . S
C910 H901 0.930 . S
C910 C908 1.378 . S
C910 C911 1.367 . S
C911 C910 1.367 . S
C911 C913 1.433 . S
C912 C908 1.350 . S
C912 C909 1.463 1_565 S
C912 N916 1.427 . S
C913 H903 0.929 . S
C913 C911 1.433 . S
C913 N916 1.384 . S
C914 H905 0.929 . S
C914 C906 1.378 . S
C914 C909 1.350 . S
C915 H902 0.929 . S
C915 C907 1.433 . S
C915 N917 1.384 . S
N916 C912 1.427 . S
N916 C913 1.384 . S
N917 C909 1.427 . S
N917 C915 1.384 . S
H918 C924 0.930 . S
H919 C928 0.930 . S
H920 C933 0.929 . S
H921 C931 0.929 . S
H922 C926 0.929 . S
H923 C932 0.929 . S
C924 H918 0.930 . S
C924 C925 1.367 . S
C924 C932 1.378 . S
C925 C924 1.367 . S
C925 C933 1.433 . S
C926 H922 0.929 . S
C926 C928 1.378 . S
C926 C930 1.350 . S
C927 C930 1.463 . S
C927 C932 1.350 . S
C927 N935 1.427 . S
C928 H919 0.930 . S
C928 C926 1.378 . S
C928 C929 1.367 . S
C929 C928 1.367 . S
C929 C931 1.433 . S
C930 C926 1.350 . S
C930 C927 1.463 . S
C930 N934 1.427 . S
C931 H921 0.929 . S
C931 C929 1.433 . S
C931 N934 1.384 . S
C932 H923 0.929 . S
C932 C924 1.378 . S
C932 C927 1.350 . S
C933 H920 0.929 . S
C933 C925 1.433 . S
C933 N935 1.384 . S
N934 C930 1.427 . S
N934 C931 1.384 . S
N935 C927 1.427 . S
N935 C933 1.384 . S
H936 C942 0.930 . S
H937 C946 0.930 . S
H938 C951 0.929 . S
H939 C949 0.929 . S
H940 C944 0.929 . S
H941 C950 0.929 . S
C942 H936 0.930 . S
C942 C943 1.367 . S
C942 C950 1.378 . S
C943 C942 1.367 . S
C943 C951 1.433 . S
C944 H940 0.929 . S
C944 C946 1.378 . S
C944 C948 1.350 . S
C945 C948 1.463 . S
C945 C950 1.350 . S
C945 N953 1.427 . S
C946 H937 0.930 . S
C946 C944 1.378 . S
C946 C947 1.367 . S
C947 C946 1.367 . S
C947 C949 1.433 . S
C948 C944 1.350 . S
C948 C945 1.463 . S
C948 N952 1.427 . S
C949 H939 0.929 . S
C949 C947 1.433 . S
C949 N952 1.384 . S
C950 H941 0.929 . S
C950 C942 1.378 . S
C950 C945 1.350 . S
C951 H938 0.929 . S
C951 C943 1.433 . S
C951 N953 1.384 . S
N952 C948 1.427 . S
N952 C949 1.384 . S
N953 C945 1.427 . S
N953 C951 1.384 . S
H954 C960 0.930 . S
H955 C964 0.930 . S
H956 C969 0.929 . S
H957 C967 0.929 . S
H958 C962 0.929 . S
H959 C968 0.929 . S
C960 H954 0.930 . S
C960 C961 1.367 . S
C960 C968 1.378 . S
C961 C960 1.367 . S
C961 C969 1.433 . S
C962 H958 0.929 . S
C962 C964 1.378 . S
C962 C966 1.350 . S
C963 C966 1.463 . S
C963 C968 1.350 . S
C963 N971 1.427 . S
C964 H955 0.930 . S
C964 C962 1.378 . S
C964 C965 1.367 . S
C965 C964 1.367 . S
C965 C967 1.433 . S
C966 C962 1.350 . S
C966 C963 1.463 . S
C966 N970 1.427 . S
C967 H957 0.929 . S
C967 C965 1.433 . S
C967 N970 1.384 . S
C968 H959 0.929 . S
C968 C960 1.378 . S
C968 C963 1.350 . S
C969 H956 0.929 . S
C969 C961 1.433 . S
C969 N971 1.384 . S
N970 C966 1.427 . S
N970 C967 1.384 . S
N971 C963 1.427 . S
N971 C969 1.384 . S
H972 C978 0.930 . S
H973 C982 0.930 . S
H974 C987 0.929 . S
H975 C985 0.929 . S
H976 C980 0.929 . S
H977 C986 0.929 . S
C978 H972 0.930 . S
C978 C979 1.367 . S
C978 C986 1.378 . S
C979 C978 1.367 . S
C979 C987 1.433 . S
C980 H976 0.929 . S
C980 C982 1.378 . S
C980 C984 1.350 . S
C981 C984 1.463 . S
C981 C986 1.350 . S
C981 N989 1.427 . S
C982 H973 0.930 . S
C982 C980 1.378 . S
C982 C983 1.367 . S
C983 C982 1.367 . S
C983 C985 1.433 . S
C984 C980 1.350 . S
C984 C981 1.463 . S
C984 N988 1.427 . S
C985 H975 0.929 . S
C985 C983 1.433 . S
C985 N988 1.384 . S
C986 H977 0.929 . S
C986 C978 1.378 . S
C986 C981 1.350 . S
C987 H974 0.929 . S
C987 C979 1.433 . S
C987 N989 1.384 . S
N988 C984 1.427 . S
N988 C985 1.384 . S
N989 C981 1.427 . S
N989 C987 1.384 . S
H990 C996 0.930 . S
H991 C1000 0.930 . S
H992 C1005 0.929 . S
H993 C1003 0.929 . S
H994 C998 0.929 . S
H995 C1004 0.929 . S
C996 H990 0.930 . S
C996 C997 1.367 . S
C996 C1004 1.378 . S
C997 C996 1.367 . S
C997 C1005 1.433 . S
C998 H994 0.929 . S
C998 C1000 1.378 . S
C998 C1002 1.350 . S
C999 C1002 1.463 . S
C999 C1004 1.350 . S
C999 N1007 1.427 . S
C1000 H991 0.930 . S
C1000 C998 1.378 . S
C1000 C1001 1.367 . S
C1001 C1000 1.367 . S
C1001 C1003 1.433 . S
C1002 C998 1.350 . S
C1002 C999 1.463 . S
C1002 N1006 1.427 . S
C1003 H993 0.929 . S
C1003 C1001 1.433 . S
C1003 N1006 1.384 . S
C1004 H995 0.929 . S
C1004 C996 1.378 . S
C1004 C999 1.350 . S
C1005 H992 0.929 . S
C1005 C997 1.433 . S
C1005 N1007 1.384 . S
N1006 C1002 1.427 . S
N1006 C1003 1.384 . S
N1007 C999 1.427 . S
N1007 C1005 1.384 . S
H1008 C1014 0.930 . S
H1009 C1018 0.930 . S
H1010 C1023 0.929 . S
H1011 C1021 0.929 . S
H1012 C1016 0.929 . S
H1013 C1022 0.929 . S
C1014 H1008 0.930 . S
C1014 C1015 1.367 . S
C1014 C1022 1.378 . S
C1015 C1014 1.367 . S
C1015 C1023 1.433 . S
C1016 H1012 0.929 . S
C1016 C1018 1.378 . S
C1016 C1020 1.350 . S
C1017 C1020 1.463 . S
C1017 C1022 1.350 . S
C1017 N1025 1.427 . S
C1018 H1009 0.930 . S
C1018 C1016 1.378 . S
C1018 C1019 1.367 . S
C1019 C1018 1.367 . S
C1019 C1021 1.433 . S
C1020 C1016 1.350 . S
C1020 C1017 1.463 . S
C1020 N1024 1.427 . S
C1021 H1011 0.929 . S
C1021 C1019 1.433 . S
C1021 N1024 1.384 . S
C1022 H1013 0.929 . S
C1022 C1014 1.378 . S
C1022 C1017 1.350 . S
C1023 H1010 0.929 . S
C1023 C1015 1.433 . S
C1023 N1025 1.384 . S
N1024 C1020 1.427 . S
N1024 C1021 1.384 . S
N1025 C1017 1.427 . S
N1025 C1023 1.384 . S
H1026 C1032 0.930 . S
H1027 C1036 0.930 . S
H1028 C1041 0.929 . S
H1029 C1039 0.929 . S
H1030 C1034 0.929 . S
H1031 C1040 0.929 . S
C1032 H1026 0.930 . S
C1032 C1033 1.367 . S
C1032 C1040 1.378 . S
C1033 C1032 1.367 . S
C1033 C1041 1.433 . S
C1034 H1030 0.929 . S
C1034 C1036 1.378 . S
C1034 C1038 1.350 . S
C1035 C1038 1.463 . S
C1035 C1040 1.350 . S
C1035 N1043 1.427 . S
C1036 H1027 0.930 . S
C1036 C1034 1.378 . S
C1036 C1037 1.367 . S
C1037 C1036 1.367 . S
C1037 C1039 1.433 . S
C1038 C1034 1.350 . S
C1038 C1035 1.463 . S
C1038 N1042 1.427 . S
C1039 H1029 0.929 . S
C1039 C1037 1.433 . S
C1039 N1042 1.384 . S
C1040 H1031 0.929 . S
C1040 C1032 1.378 . S
C1040 C1035 1.350 . S
C1041 H1028 0.929 . S
C1041 C1033 1.433 . S
C1041 N1043 1.384 . S
N1042 C1038 1.427 . S
N1042 C1039 1.384 . S
N1043 C1035 1.427 . S
N1043 C1041 1.384 . S
H1044 C1050 0.930 . S
H1045 C1054 0.930 . S
H1046 C1059 0.929 . S
H1047 C1057 0.929 . S
H1048 C1052 0.929 . S
H1049 C1058 0.929 . S
C1050 H1044 0.930 . S
C1050 C1051 1.367 . S
C1050 C1058 1.378 . S
C1051 C1050 1.367 . S
C1051 C1059 1.433 . S
C1052 H1048 0.929 . S
C1052 C1054 1.378 . S
C1052 C1056 1.350 . S
C1053 C1056 1.463 . S
C1053 C1058 1.350 . S
C1053 N1061 1.427 . S
C1054 H1045 0.930 . S
C1054 C1052 1.378 . S
C1054 C1055 1.367 . S
C1055 C1054 1.367 . S
C1055 C1057 1.433 . S
C1056 C1052 1.350 . S
C1056 C1053 1.463 . S
C1056 N1060 1.427 . S
C1057 H1047 0.929 . S
C1057 C1055 1.433 . S
C1057 N1060 1.384 . S
C1058 H1049 0.929 . S
C1058 C1050 1.378 . S
C1058 C1053 1.350 . S
C1059 H1046 0.929 . S
C1059 C1051 1.433 . S
C1059 N1061 1.384 . S
N1060 C1056 1.427 . S
N1060 C1057 1.384 . S
N1061 C1053 1.427 . S
N1061 C1059 1.384 . S
H1062 C1068 0.930 . S
H1063 C1072 0.930 . S
H1064 C1077 0.929 . S
H1065 C1075 0.929 . S
H1066 C1070 0.929 . S
H1067 C1076 0.929 . S
C1068 H1062 0.930 . S
C1068 C1069 1.367 . S
C1068 C1076 1.378 . S
C1069 C1068 1.367 . S
C1069 C1077 1.433 . S
C1070 H1066 0.929 . S
C1070 C1072 1.378 . S
C1070 C1074 1.350 . S
C1071 C1074 1.463 . S
C1071 C1076 1.350 . S
C1071 N1079 1.427 . S
C1072 H1063 0.930 . S
C1072 C1070 1.378 . S
C1072 C1073 1.367 . S
C1073 C1072 1.367 . S
C1073 C1075 1.433 . S
C1074 C1070 1.350 . S
C1074 C1071 1.463 . S
C1074 N1078 1.427 . S
C1075 H1065 0.929 . S
C1075 C1073 1.433 . S
C1075 N1078 1.384 . S
C1076 H1067 0.929 . S
C1076 C1068 1.378 . S
C1076 C1071 1.350 . S
C1077 H1064 0.929 . S
C1077 C1069 1.433 . S
C1077 N1079 1.384 . S
N1078 C1074 1.427 . S
N1078 C1075 1.384 . S
N1079 C1071 1.427 . S
N1079 C1077 1.384 . S
H1080 C1086 0.930 . S
H1081 C1090 0.930 . S
H1082 C1095 0.929 . S
H1083 C1093 0.929 . S
H1084 C1088 0.929 . S
H1085 C1094 0.929 . S
C1086 H1080 0.930 . S
C1086 C1087 1.367 . S
C1086 C1094 1.378 . S
C1087 C1086 1.367 . S
C1087 C1095 1.433 . S
C1088 H1084 0.929 . S
C1088 C1090 1.378 . S
C1088 C1092 1.350 . S
C1089 C1092 1.463 . S
C1089 C1094 1.350 . S
C1089 N1097 1.427 . S
C1090 H1081 0.930 . S
C1090 C1088 1.378 . S
C1090 C1091 1.367 . S
C1091 C1090 1.367 . S
C1091 C1093 1.433 . S
C1092 C1088 1.350 . S
C1092 C1089 1.463 . S
C1092 N1096 1.427 . S
C1093 H1083 0.929 . S
C1093 C1091 1.433 . S
C1093 N1096 1.384 . S
C1094 H1085 0.929 . S
C1094 C1086 1.378 . S
C1094 C1089 1.350 . S
C1095 H1082 0.929 . S
C1095 C1087 1.433 . S
C1095 N1097 1.384 . S
N1096 C1092 1.427 . S
N1096 C1093 1.384 . S
N1097 C1089 1.427 . S
N1097 C1095 1.384 . S
H1098 C1104 0.930 . S
H1099 C1108 0.930 . S
H1100 C1113 0.929 . S
H1101 C1111 0.929 . S
H1102 C1106 0.929 . S
H1103 C1112 0.929 . S
C1104 H1098 0.930 . S
C1104 C1105 1.367 . S
C1104 C1112 1.378 . S
C1105 C1104 1.367 . S
C1105 C1113 1.433 . S
C1106 H1102 0.929 . S
C1106 C1108 1.378 . S
C1106 C1110 1.350 . S
C1107 C1110 1.463 . S
C1107 C1112 1.350 . S
C1107 N1115 1.427 . S
C1108 H1099 0.930 . S
C1108 C1106 1.378 . S
C1108 C1109 1.367 . S
C1109 C1108 1.367 . S
C1109 C1111 1.433 . S
C1110 C1106 1.350 . S
C1110 C1107 1.463 . S
C1110 N1114 1.427 . S
C1111 H1101 0.929 . S
C1111 C1109 1.433 . S
C1111 N1114 1.384 . S
C1112 H1103 0.929 . S
C1112 C1104 1.378 . S
C1112 C1107 1.350 . S
C1113 H1100 0.929 . S
C1113 C1105 1.433 . S
C1113 N1115 1.384 . S
N1114 C1110 1.427 . S
N1114 C1111 1.384 . S
N1115 C1107 1.427 . S
N1115 C1113 1.384 . S
H1116 C1122 0.930 . S
H1117 C1126 0.930 . S
H1118 C1131 0.929 . S
H1119 C1129 0.929 . S
H1120 C1124 0.929 . S
H1121 C1130 0.929 . S
C1122 H1116 0.930 . S
C1122 C1123 1.367 . S
C1122 C1130 1.378 . S
C1123 C1122 1.367 . S
C1123 C1131 1.433 . S
C1124 H1120 0.929 . S
C1124 C1126 1.378 . S
C1124 C1128 1.350 . S
C1125 C1128 1.463 . S
C1125 C1130 1.350 . S
C1125 N1133 1.427 . S
C1126 H1117 0.930 . S
C1126 C1124 1.378 . S
C1126 C1127 1.367 . S
C1127 C1126 1.367 . S
C1127 C1129 1.433 . S
C1128 C1124 1.350 . S
C1128 C1125 1.463 . S
C1128 N1132 1.427 . S
C1129 H1119 0.929 . S
C1129 C1127 1.433 . S
C1129 N1132 1.384 . S
C1130 H1121 0.929 . S
C1130 C1122 1.378 . S
C1130 C1125 1.350 . S
C1131 H1118 0.929 . S
C1131 C1123 1.433 . S
C1131 N1133 1.384 . S
N1132 C1128 1.427 . S
N1132 C1129 1.384 . S
N1133 C1125 1.427 . S
N1133 C1131 1.384 . S
H1134 C1140 0.930 . S
H1135 C1144 0.930 . S
H1136 C1149 0.929 . S
H1137 C1147 0.929 . S
H1138 C1142 0.929 . S
H1139 C1148 0.929 . S
C1140 H1134 0.930 . S
C1140 C1141 1.367 . S
C1140 C1148 1.378 . S
C1141 C1140 1.367 . S
C1141 C1149 1.433 . S
C1142 H1138 0.929 . S
C1142 C1144 1.378 . S
C1142 C1146 1.350 . S
C1143 C1146 1.463 . S
C1143 C1148 1.350 . S
C1143 N1151 1.427 . S
C1144 H1135 0.930 . S
C1144 C1142 1.378 . S
C1144 C1145 1.367 . S
C1145 C1144 1.367 . S
C1145 C1147 1.433 . S
C1146 C1142 1.350 . S
C1146 C1143 1.463 . S
C1146 N1150 1.427 . S
C1147 H1137 0.929 . S
C1147 C1145 1.433 . S
C1147 N1150 1.384 . S
C1148 H1139 0.929 . S
C1148 C1140 1.378 . S
C1148 C1143 1.350 . S
C1149 H1136 0.929 . S
C1149 C1141 1.433 . S
C1149 N1151 1.384 . S
N1150 C1146 1.427 . S
N1150 C1147 1.384 . S
N1151 C1143 1.427 . S
N1151 C1149 1.384 . S
H1152 C1158 0.930 . S
H1153 C1162 0.930 . S
H1154 C1167 0.929 . S
H1155 C1165 0.929 . S
H1156 C1160 0.929 . S
H1157 C1166 0.929 . S
C1158 H1152 0.930 . S
C1158 C1159 1.367 . S
C1158 C1166 1.378 . S
C1159 C1158 1.367 . S
C1159 C1167 1.433 . S
C1160 H1156 0.929 . S
C1160 C1162 1.378 . S
C1160 C1164 1.350 . S
C1161 C1164 1.463 . S
C1161 C1166 1.350 . S
C1161 N1169 1.427 . S
C1162 H1153 0.930 . S
C1162 C1160 1.378 . S
C1162 C1163 1.367 . S
C1163 C1162 1.367 . S
C1163 C1165 1.433 . S
C1164 C1160 1.350 . S
C1164 C1161 1.463 . S
C1164 N1168 1.427 . S
C1165 H1155 0.929 . S
C1165 C1163 1.433 . S
C1165 N1168 1.384 . S
C1166 H1157 0.929 . S
C1166 C1158 1.378 . S
C1166 C1161 1.350 . S
C1167 H1154 0.929 . S
C1167 C1159 1.433 . S
C1167 N1169 1.384 . S
N1168 C1164 1.427 . S
N1168 C1165 1.384 . S
N1169 C1161 1.427 . S
N1169 C1167 1.384 . S
H1170 C1176 0.930 . S
H1171 C1180 0.930 . S
H1172 C1185 0.929 . S
H1173 C1183 0.929 . S
H1174 C1178 0.929 . S
H1175 C1184 0.929 . S
C1176 H1170 0.930 . S
C1176 C1177 1.367 . S
C1176 C1184 1.378 . S
C1177 C1176 1.367 . S
C1177 C1185 1.433 . S
C1178 H1174 0.929 . S
C1178 C1180 1.378 . S
C1178 C1182 1.350 . S
C1179 C1182 1.463 . S
C1179 C1184 1.350 . S
C1179 N1187 1.427 . S
C1180 H1171 0.930 . S
C1180 C1178 1.378 . S
C1180 C1181 1.367 . S
C1181 C1180 1.367 . S
C1181 C1183 1.433 . S
C1182 C1178 1.350 . S
C1182 C1179 1.463 . S
C1182 N1186 1.427 . S
C1183 H1173 0.929 . S
C1183 C1181 1.433 . S
C1183 N1186 1.384 . S
C1184 H1175 0.929 . S
C1184 C1176 1.378 . S
C1184 C1179 1.350 . S
C1185 H1172 0.929 . S
C1185 C1177 1.433 . S
C1185 N1187 1.384 . S
N1186 C1182 1.427 . S
N1186 C1183 1.384 . S
N1187 C1179 1.427 . S
N1187 C1185 1.384 . S
H1188 C1194 0.930 . S
H1189 C1198 0.930 . S
H1190 C1203 0.929 . S
H1191 C1201 0.929 . S
H1192 C1196 0.929 . S
H1193 C1202 0.929 . S
C1194 H1188 0.930 . S
C1194 C1195 1.367 . S
C1194 C1202 1.378 . S
C1195 C1194 1.367 . S
C1195 C1203 1.433 . S
C1196 H1192 0.929 . S
C1196 C1198 1.378 . S
C1196 C1200 1.350 . S
C1197 C1200 1.463 . S
C1197 C1202 1.350 . S
C1197 N1205 1.427 . S
C1198 H1189 0.930 . S
C1198 C1196 1.378 . S
C1198 C1199 1.367 . S
C1199 C1198 1.367 . S
C1199 C1201 1.433 . S
C1200 C1196 1.350 . S
C1200 C1197 1.463 . S
C1200 N1204 1.427 . S
C1201 H1191 0.929 . S
C1201 C1199 1.433 . S
C1201 N1204 1.384 . S
C1202 H1193 0.929 . S
C1202 C1194 1.378 . S
C1202 C1197 1.350 . S
C1203 H1190 0.929 . S
C1203 C1195 1.433 . S
C1203 N1205 1.384 . S
N1204 C1200 1.427 . S
N1204 C1201 1.384 . S
N1205 C1197 1.427 . S
N1205 C1203 1.384 . S
H1206 C1212 0.930 . S
H1207 C1216 0.930 . S
H1208 C1221 0.929 . S
H1209 C1219 0.929 . S
H1210 C1214 0.929 . S
H1211 C1220 0.929 . S
C1212 H1206 0.930 . S
C1212 C1213 1.367 . S
C1212 C1220 1.378 . S
C1213 C1212 1.367 . S
C1213 C1221 1.433 . S
C1214 H1210 0.929 . S
C1214 C1216 1.378 . S
C1214 C1218 1.350 . S
C1215 C1218 1.463 . S
C1215 C1220 1.350 . S
C1215 N1223 1.427 . S
C1216 H1207 0.930 . S
C1216 C1214 1.378 . S
C1216 C1217 1.367 . S
C1217 C1216 1.367 . S
C1217 C1219 1.433 . S
C1218 C1214 1.350 . S
C1218 C1215 1.463 . S
C1218 N1222 1.427 . S
C1219 H1209 0.929 . S
C1219 C1217 1.433 . S
C1219 N1222 1.384 . S
C1220 H1211 0.929 . S
C1220 C1212 1.378 . S
C1220 C1215 1.350 . S
C1221 H1208 0.929 . S
C1221 C1213 1.433 . S
C1221 N1223 1.384 . S
N1222 C1218 1.427 . S
N1222 C1219 1.384 . S
N1223 C1215 1.427 . S
N1223 C1221 1.384 . S
H1224 C1230 0.930 . S
H1225 C1234 0.930 . S
H1226 C1239 0.929 . S
H1227 C1237 0.929 . S
H1228 C1232 0.929 . S
H1229 C1238 0.929 . S
C1230 H1224 0.930 . S
C1230 C1231 1.367 . S
C1230 C1238 1.378 . S
C1231 C1230 1.367 . S
C1231 C1239 1.433 . S
C1232 H1228 0.929 . S
C1232 C1234 1.378 . S
C1232 C1236 1.350 . S
C1233 C1236 1.463 . S
C1233 C1238 1.350 . S
C1233 N1241 1.427 . S
C1234 H1225 0.930 . S
C1234 C1232 1.378 . S
C1234 C1235 1.367 . S
C1235 C1234 1.367 . S
C1235 C1237 1.433 . S
C1236 C1232 1.350 . S
C1236 C1233 1.463 . S
C1236 N1240 1.427 . S
C1237 H1227 0.929 . S
C1237 C1235 1.433 . S
C1237 N1240 1.384 . S
C1238 H1229 0.929 . S
C1238 C1230 1.378 . S
C1238 C1233 1.350 . S
C1239 H1226 0.929 . S
C1239 C1231 1.433 . S
C1239 N1241 1.384 . S
N1240 C1236 1.427 . S
N1240 C1237 1.384 . S
N1241 C1233 1.427 . S
N1241 C1239 1.384 . S
H1242 C1248 0.930 . S
H1243 C1252 0.930 . S
H1244 C1257 0.929 . S
H1245 C1255 0.929 . S
H1246 C1250 0.929 . S
H1247 C1256 0.929 . S
C1248 H1242 0.930 . S
C1248 C1249 1.367 . S
C1248 C1256 1.378 . S
C1249 C1248 1.367 . S
C1249 C1257 1.433 . S
C1250 H1246 0.929 . S
C1250 C1252 1.378 . S
C1250 C1254 1.350 . S
C1251 C1254 1.463 . S
C1251 C1256 1.350 . S
C1251 N1259 1.427 . S
C1252 H1243 0.930 . S
C1252 C1250 1.378 . S
C1252 C1253 1.367 . S
C1253 C1252 1.367 . S
C1253 C1255 1.433 . S
C1254 C1250 1.350 . S
C1254 C1251 1.463 . S
C1254 N1258 1.427 . S
C1255 H1245 0.929 . S
C1255 C1253 1.433 . S
C1255 N1258 1.384 . S
C1256 H1247 0.929 . S
C1256 C1248 1.378 . S
C1256 C1251 1.350 . S
C1257 H1244 0.929 . S
C1257 C1249 1.433 . S
C1257 N1259 1.384 . S
N1258 C1254 1.427 . S
N1258 C1255 1.384 . S
N1259 C1251 1.427 . S
N1259 C1257 1.384 . S
H1260 C1266 0.930 . S
H1261 C1270 0.930 . S
H1262 C1275 0.929 . S
H1263 C1273 0.929 . S
H1264 C1268 0.929 . S
H1265 C1274 0.929 . S
C1266 H1260 0.930 . S
C1266 C1267 1.367 . S
C1266 C1274 1.378 . S
C1267 C1266 1.367 . S
C1267 C1275 1.433 . S
C1268 H1264 0.929 . S
C1268 C1270 1.378 . S
C1268 C1272 1.350 . S
C1269 C1272 1.463 . S
C1269 C1274 1.350 . S
C1269 N1277 1.427 . S
C1270 H1261 0.930 . S
C1270 C1268 1.378 . S
C1270 C1271 1.367 . S
C1271 C1270 1.367 . S
C1271 C1273 1.433 . S
C1272 C1268 1.350 . S
C1272 C1269 1.463 . S
C1272 N1276 1.427 . S
C1273 H1263 0.929 . S
C1273 C1271 1.433 . S
C1273 N1276 1.384 . S
C1274 H1265 0.929 . S
C1274 C1266 1.378 . S
C1274 C1269 1.350 . S
C1275 H1262 0.929 . S
C1275 C1267 1.433 . S
C1275 N1277 1.384 . S
N1276 C1272 1.427 . S
N1276 C1273 1.384 . S
N1277 C1269 1.427 . S
N1277 C1275 1.384 . S
H1278 C1284 0.930 . S
H1279 C1288 0.930 . S
H1280 C1293 0.929 . S
H1281 C1291 0.929 . S
H1282 C1286 0.929 . S
H1283 C1292 0.929 . S
C1284 H1278 0.930 . S
C1284 C1285 1.367 . S
C1284 C1292 1.378 . S
C1285 C1284 1.367 . S
C1285 C1293 1.433 . S
C1286 H1282 0.929 . S
C1286 C1288 1.378 . S
C1286 C1290 1.350 . S
C1287 C1290 1.463 . S
C1287 C1292 1.350 . S
C1287 N1295 1.427 . S
C1288 H1279 0.930 . S
C1288 C1286 1.378 . S
C1288 C1289 1.367 . S
C1289 C1288 1.367 . S
C1289 C1291 1.433 . S
C1290 C1286 1.350 . S
C1290 C1287 1.463 . S
C1290 N1294 1.427 . S
C1291 H1281 0.929 . S
C1291 C1289 1.433 . S
C1291 N1294 1.384 . S
C1292 H1283 0.929 . S
C1292 C1284 1.378 . S
C1292 C1287 1.350 . S
C1293 H1280 0.929 . S
C1293 C1285 1.433 . S
C1293 N1295 1.384 . S
N1294 C1290 1.427 . S
N1294 C1291 1.384 . S
N1295 C1287 1.427 . S
N1295 C1293 1.384 . S
H1296 C1302 0.930 . S
H1297 C1306 0.930 . S
H1298 C1311 0.929 . S
H1299 C1309 0.929 . S
H1300 C1304 0.929 . S
H1301 C1310 0.929 . S
C1302 H1296 0.930 . S
C1302 C1303 1.367 . S
C1302 C1310 1.378 . S
C1303 C1302 1.367 . S
C1303 C1311 1.433 . S
C1304 H1300 0.929 . S
C1304 C1306 1.378 . S
C1304 C1308 1.350 . S
C1305 C1308 1.463 . S
C1305 C1310 1.350 . S
C1305 N1313 1.427 . S
C1306 H1297 0.930 . S
C1306 C1304 1.378 . S
C1306 C1307 1.367 . S
C1307 C1306 1.367 . S
C1307 C1309 1.433 . S
C1308 C1304 1.350 . S
C1308 C1305 1.463 . S
C1308 N1312 1.427 . S
C1309 H1299 0.929 . S
C1309 C1307 1.433 . S
C1309 N1312 1.384 . S
C1310 H1301 0.929 . S
C1310 C1302 1.378 . S
C1310 C1305 1.350 . S
C1311 H1298 0.929 . S
C1311 C1303 1.433 . S
C1311 N1313 1.384 . S
N1312 C1308 1.427 . S
N1312 C1309 1.384 . S
N1313 C1305 1.427 . S
N1313 C1311 1.384 . S
H1314 C1320 0.930 . S
H1315 C1324 0.930 . S
H1316 C1329 0.929 . S
H1317 C1327 0.929 . S
H1318 C1322 0.929 . S
H1319 C1328 0.929 . S
C1320 H1314 0.930 . S
C1320 C1321 1.367 . S
C1320 C1328 1.378 . S
C1321 C1320 1.367 . S
C1321 C1329 1.433 . S
C1322 H1318 0.929 . S
C1322 C1324 1.378 . S
C1322 C1326 1.350 . S
C1323 C1326 1.463 . S
C1323 C1328 1.350 . S
C1323 N1331 1.427 . S
C1324 H1315 0.930 . S
C1324 C1322 1.378 . S
C1324 C1325 1.367 . S
C1325 C1324 1.367 . S
C1325 C1327 1.433 . S
C1326 C1322 1.350 . S
C1326 C1323 1.463 . S
C1326 N1330 1.427 . S
C1327 H1317 0.929 . S
C1327 C1325 1.433 . S
C1327 N1330 1.384 . S
C1328 H1319 0.929 . S
C1328 C1320 1.378 . S
C1328 C1323 1.350 . S
C1329 H1316 0.929 . S
C1329 C1321 1.433 . S
C1329 N1331 1.384 . S
N1330 C1326 1.427 . S
N1330 C1327 1.384 . S
N1331 C1323 1.427 . S
N1331 C1329 1.384 . S
H1332 C1338 0.930 . S
H1333 C1342 0.930 . S
H1334 C1347 0.929 . S
H1335 C1345 0.929 . S
H1336 C1340 0.929 . S
H1337 C1346 0.929 . S
C1338 H1332 0.930 . S
C1338 C1339 1.367 . S
C1338 C1346 1.378 . S
C1339 C1338 1.367 . S
C1339 C1347 1.433 . S
C1340 H1336 0.929 . S
C1340 C1342 1.378 . S
C1340 C1344 1.350 . S
C1341 C1344 1.463 . S
C1341 C1346 1.350 . S
C1341 N1349 1.427 . S
C1342 H1333 0.930 . S
C1342 C1340 1.378 . S
C1342 C1343 1.367 . S
C1343 C1342 1.367 . S
C1343 C1345 1.433 . S
C1344 C1340 1.350 . S
C1344 C1341 1.463 . S
C1344 N1348 1.427 . S
C1345 H1335 0.929 . S
C1345 C1343 1.433 . S
C1345 N1348 1.384 . S
C1346 H1337 0.929 . S
C1346 C1338 1.378 . S
C1346 C1341 1.350 . S
C1347 H1334 0.929 . S
C1347 C1339 1.433 . S
C1347 N1349 1.384 . S
N1348 C1344 1.427 . S
N1348 C1345 1.384 . S
N1349 C1341 1.427 . S
N1349 C1347 1.384 . S
H1350 C1356 0.930 . S
H1351 C1360 0.930 . S
H1352 C1365 0.929 . S
H1353 C1363 0.929 . S
H1354 C1358 0.929 . S
H1355 C1364 0.929 . S
C1356 H1350 0.930 . S
C1356 C1357 1.367 . S
C1356 C1364 1.378 . S
C1357 C1356 1.367 . S
C1357 C1365 1.433 . S
C1358 H1354 0.929 . S
C1358 C1360 1.378 . S
C1358 C1362 1.350 . S
C1359 C1362 1.463 . S
C1359 C1364 1.350 . S
C1359 N1367 1.427 . S
C1360 H1351 0.930 . S
C1360 C1358 1.378 . S
C1360 C1361 1.367 . S
C1361 C1360 1.367 . S
C1361 C1363 1.433 . S
C1362 C1358 1.350 . S
C1362 C1359 1.463 . S
C1362 N1366 1.427 . S
C1363 H1353 0.929 . S
C1363 C1361 1.433 . S
C1363 N1366 1.384 . S
C1364 H1355 0.929 . S
C1364 C1356 1.378 . S
C1364 C1359 1.350 . S
C1365 H1352 0.929 . S
C1365 C1357 1.433 . S
C1365 N1367 1.384 . S
N1366 C1362 1.427 . S
N1366 C1363 1.384 . S
N1367 C1359 1.427 . S
N1367 C1365 1.384 . S
H1368 C1374 0.930 . S
H1369 C1378 0.930 . S
H1370 C1383 0.929 . S
H1371 C1381 0.929 . S
H1372 C1376 0.929 . S
H1373 C1382 0.929 . S
C1374 H1368 0.930 . S
C1374 C1375 1.367 . S
C1374 C1382 1.378 . S
C1375 C1374 1.367 . S
C1375 C1383 1.433 . S
C1376 H1372 0.929 . S
C1376 C1378 1.378 . S
C1376 C1380 1.350 . S
C1377 C1380 1.463 . S
C1377 C1382 1.350 . S
C1377 N1385 1.427 . S
C1378 H1369 0.930 . S
C1378 C1376 1.378 . S
C1378 C1379 1.367 . S
C1379 C1378 1.367 . S
C1379 C1381 1.433 . S
C1380 C1376 1.350 . S
C1380 C1377 1.463 . S
C1380 N1384 1.427 . S
C1381 H1371 0.929 . S
C1381 C1379 1.433 . S
C1381 N1384 1.384 . S
C1382 H1373 0.929 . S
C1382 C1374 1.378 . S
C1382 C1377 1.350 . S
C1383 H1370 0.929 . S
C1383 C1375 1.433 . S
C1383 N1385 1.384 . S
N1384 C1380 1.427 . S
N1384 C1381 1.384 . S
N1385 C1377 1.427 . S
N1385 C1383 1.384 . S
H1386 C1392 0.930 . S
H1387 C1396 0.930 . S
H1388 C1401 0.929 . S
H1389 C1399 0.929 . S
H1390 C1394 0.929 . S
H1391 C1400 0.929 . S
C1392 H1386 0.930 . S
C1392 C1393 1.367 . S
C1392 C1400 1.378 . S
C1393 C1392 1.367 . S
C1393 C1401 1.433 . S
C1394 H1390 0.929 . S
C1394 C1396 1.378 . S
C1394 C1398 1.350 . S
C1395 C1398 1.463 . S
C1395 C1400 1.350 . S
C1395 N1403 1.427 . S
C1396 H1387 0.930 . S
C1396 C1394 1.378 . S
C1396 C1397 1.367 . S
C1397 C1396 1.367 . S
C1397 C1399 1.433 . S
C1398 C1394 1.350 . S
C1398 C1395 1.463 . S
C1398 N1402 1.427 . S
C1399 H1389 0.929 . S
C1399 C1397 1.433 . S
C1399 N1402 1.384 . S
C1400 H1391 0.929 . S
C1400 C1392 1.378 . S
C1400 C1395 1.350 . S
C1401 H1388 0.929 . S
C1401 C1393 1.433 . S
C1401 N1403 1.384 . S
N1402 C1398 1.427 . S
N1402 C1399 1.384 . S
N1403 C1395 1.427 . S
N1403 C1401 1.384 . S
H1404 C1410 0.930 . S
H1405 C1414 0.930 . S
H1406 C1419 0.929 . S
H1407 C1417 0.929 . S
H1408 C1412 0.929 . S
H1409 C1418 0.929 . S
C1410 H1404 0.930 . S
C1410 C1411 1.367 . S
C1410 C1418 1.378 . S
C1411 C1410 1.367 . S
C1411 C1419 1.433 . S
C1412 H1408 0.929 . S
C1412 C1414 1.378 . S
C1412 C1416 1.350 . S
C1413 C1416 1.463 . S
C1413 C1418 1.350 . S
C1413 N1421 1.427 . S
C1414 H1405 0.930 . S
C1414 C1412 1.378 . S
C1414 C1415 1.367 . S
C1415 C1414 1.367 . S
C1415 C1417 1.433 . S
C1416 C1412 1.350 . S
C1416 C1413 1.463 . S
C1416 N1420 1.427 . S
C1417 H1407 0.929 . S
C1417 C1415 1.433 . S
C1417 N1420 1.384 . S
C1418 H1409 0.929 . S
C1418 C1410 1.378 . S
C1418 C1413 1.350 . S
C1419 H1406 0.929 . S
C1419 C1411 1.433 . S
C1419 N1421 1.384 . S
N1420 C1416 1.427 . S
N1420 C1417 1.384 . S
N1421 C1413 1.427 . S
N1421 C1419 1.384 . S
H1422 C1428 0.930 . S
H1423 C1432 0.930 . S
H1424 C1437 0.929 . S
H1425 C1435 0.929 . S
H1426 C1430 0.929 . S
H1427 C1436 0.929 . S
C1428 H1422 0.930 . S
C1428 C1429 1.367 . S
C1428 C1436 1.378 . S
C1429 C1428 1.367 . S
C1429 C1437 1.433 . S
C1430 H1426 0.929 . S
C1430 C1432 1.378 . S
C1430 C1434 1.350 . S
C1431 C1434 1.463 . S
C1431 C1436 1.350 . S
C1431 N1439 1.427 . S
C1432 H1423 0.930 . S
C1432 C1430 1.378 . S
C1432 C1433 1.367 . S
C1433 C1432 1.367 . S
C1433 C1435 1.433 . S
C1434 C1430 1.350 . S
C1434 C1431 1.463 . S
C1434 N1438 1.427 . S
C1435 H1425 0.929 . S
C1435 C1433 1.433 . S
C1435 N1438 1.384 . S
C1436 H1427 0.929 . S
C1436 C1428 1.378 . S
C1436 C1431 1.350 . S
C1437 H1424 0.929 . S
C1437 C1429 1.433 . S
C1437 N1439 1.384 . S
N1438 C1434 1.427 . S
N1438 C1435 1.384 . S
N1439 C1431 1.427 . S
N1439 C1437 1.384 . S
H1440 C1446 0.930 . S
H1441 C1450 0.930 . S
H1442 C1455 0.929 . S
H1443 C1453 0.929 . S
H1444 C1448 0.929 . S
H1445 C1454 0.929 . S
C1446 H1440 0.930 . S
C1446 C1447 1.367 . S
C1446 C1454 1.378 . S
C1447 C1446 1.367 . S
C1447 C1455 1.433 . S
C1448 H1444 0.929 . S
C1448 C1450 1.378 . S
C1448 C1452 1.350 . S
C1449 C1452 1.463 . S
C1449 C1454 1.350 . S
C1449 N1457 1.427 . S
C1450 H1441 0.930 . S
C1450 C1448 1.378 . S
C1450 C1451 1.367 . S
C1451 C1450 1.367 . S
C1451 C1453 1.433 . S
C1452 C1448 1.350 . S
C1452 C1449 1.463 . S
C1452 N1456 1.427 . S
C1453 H1443 0.929 . S
C1453 C1451 1.433 . S
C1453 N1456 1.384 . S
C1454 H1445 0.929 . S
C1454 C1446 1.378 . S
C1454 C1449 1.350 . S
C1455 H1442 0.929 . S
C1455 C1447 1.433 . S
C1455 N1457 1.384 . S
N1456 C1452 1.427 . S
N1456 C1453 1.384 . S
N1457 C1449 1.427 . S
N1457 C1455 1.384 . S
H1458 C1464 0.930 . S
H1459 C1468 0.930 . S
H1460 C1473 0.929 . S
H1461 C1471 0.929 . S
H1462 C1466 0.929 . S
H1463 C1472 0.929 . S
C1464 H1458 0.930 . S
C1464 C1465 1.367 . S
C1464 C1472 1.378 . S
C1465 C1464 1.367 . S
C1465 C1473 1.433 . S
C1466 H1462 0.929 . S
C1466 C1468 1.378 . S
C1466 C1470 1.350 . S
C1467 C1470 1.463 . S
C1467 C1472 1.350 . S
C1467 N1475 1.427 . S
C1468 H1459 0.930 . S
C1468 C1466 1.378 . S
C1468 C1469 1.367 . S
C1469 C1468 1.367 . S
C1469 C1471 1.433 . S
C1470 C1466 1.350 . S
C1470 C1467 1.463 . S
C1470 N1474 1.427 . S
C1471 H1461 0.929 . S
C1471 C1469 1.433 . S
C1471 N1474 1.384 . S
C1472 H1463 0.929 . S
C1472 C1464 1.378 . S
C1472 C1467 1.350 . S
C1473 H1460 0.929 . S
C1473 C1465 1.433 . S
C1473 N1475 1.384 . S
N1474 C1470 1.427 . S
N1474 C1471 1.384 . S
N1475 C1467 1.427 . S
N1475 C1473 1.384 . S
H1476 C1482 0.930 . S
H1477 C1486 0.930 . S
H1478 C1491 0.929 . S
H1479 C1489 0.929 . S
H1480 C1484 0.929 . S
H1481 C1490 0.929 . S
C1482 H1476 0.930 . S
C1482 C1483 1.367 . S
C1482 C1490 1.378 . S
C1483 C1482 1.367 . S
C1483 C1491 1.433 . S
C1484 H1480 0.929 . S
C1484 C1486 1.378 . S
C1484 C1488 1.350 . S
C1485 C1488 1.463 . S
C1485 C1490 1.350 . S
C1485 N1493 1.427 . S
C1486 H1477 0.930 . S
C1486 C1484 1.378 . S
C1486 C1487 1.367 . S
C1487 C1486 1.367 . S
C1487 C1489 1.433 . S
C1488 C1484 1.350 . S
C1488 C1485 1.463 . S
C1488 N1492 1.427 . S
C1489 H1479 0.929 . S
C1489 C1487 1.433 . S
C1489 N1492 1.384 . S
C1490 H1481 0.929 . S
C1490 C1482 1.378 . S
C1490 C1485 1.350 . S
C1491 H1478 0.929 . S
C1491 C1483 1.433 . S
C1491 N1493 1.384 . S
N1492 C1488 1.427 . S
N1492 C1489 1.384 . S
N1493 C1485 1.427 . S
N1493 C1491 1.384 . S
H1494 C1500 0.930 . S
H1495 C1504 0.930 . S
H1496 C1509 0.929 . S
H1497 C1507 0.929 . S
H1498 C1502 0.929 . S
H1499 C1508 0.929 . S
C1500 H1494 0.930 . S
C1500 C1501 1.367 . S
C1500 C1508 1.378 . S
C1501 C1500 1.367 . S
C1501 C1509 1.433 . S
C1502 H1498 0.929 . S
C1502 C1504 1.378 . S
C1502 C1506 1.350 . S
C1503 C1506 1.463 . S
C1503 C1508 1.350 . S
C1503 N1511 1.427 . S
C1504 H1495 0.930 . S
C1504 C1502 1.378 . S
C1504 C1505 1.367 . S
C1505 C1504 1.367 . S
C1505 C1507 1.433 . S
C1506 C1502 1.350 . S
C1506 C1503 1.463 . S
C1506 N1510 1.427 . S
C1507 H1497 0.929 . S
C1507 C1505 1.433 . S
C1507 N1510 1.384 . S
C1508 H1499 0.929 . S
C1508 C1500 1.378 . S
C1508 C1503 1.350 . S
C1509 H1496 0.929 . S
C1509 C1501 1.433 . S
C1509 N1511 1.384 . S
N1510 C1506 1.427 . S
N1510 C1507 1.384 . S
N1511 C1503 1.427 . S
N1511 C1509 1.384 . S
H1512 C1518 0.930 . S
H1513 C1522 0.930 . S
H1514 C1527 0.929 . S
H1515 C1525 0.929 . S
H1516 C1520 0.929 . S
H1517 C1526 0.929 . S
C1518 H1512 0.930 . S
C1518 C1519 1.367 . S
C1518 C1526 1.378 . S
C1519 C1518 1.367 . S
C1519 C1527 1.433 . S
C1520 H1516 0.929 . S
C1520 C1522 1.378 . S
C1520 C1524 1.350 . S
C1521 C1524 1.463 . S
C1521 C1526 1.350 . S
C1521 N1529 1.427 . S
C1522 H1513 0.930 . S
C1522 C1520 1.378 . S
C1522 C1523 1.367 . S
C1523 C1522 1.367 . S
C1523 C1525 1.433 . S
C1524 C1520 1.350 . S
C1524 C1521 1.463 . S
C1524 N1528 1.427 . S
C1525 H1515 0.929 . S
C1525 C1523 1.433 . S
C1525 N1528 1.384 . S
C1526 H1517 0.929 . S
C1526 C1518 1.378 . S
C1526 C1521 1.350 . S
C1527 H1514 0.929 . S
C1527 C1519 1.433 . S
C1527 N1529 1.384 . S
N1528 C1524 1.427 . S
N1528 C1525 1.384 . S
N1529 C1521 1.427 . S
N1529 C1527 1.384 . S
H1530 C1536 0.930 . S
H1531 C1540 0.930 . S
H1532 C1545 0.929 . S
H1533 C1543 0.929 . S
H1534 C1538 0.929 . S
H1535 C1544 0.929 . S
C1536 H1530 0.930 . S
C1536 C1537 1.367 . S
C1536 C1544 1.378 . S
C1537 C1536 1.367 . S
C1537 C1545 1.433 . S
C1538 H1534 0.929 . S
C1538 C1540 1.378 . S
C1538 C1542 1.350 . S
C1539 C1542 1.463 . S
C1539 C1544 1.350 . S
C1539 N1547 1.427 . S
C1540 H1531 0.930 . S
C1540 C1538 1.378 . S
C1540 C1541 1.367 . S
C1541 C1540 1.367 . S
C1541 C1543 1.433 . S
C1542 C1538 1.350 . S
C1542 C1539 1.463 . S
C1542 N1546 1.427 . S
C1543 H1533 0.929 . S
C1543 C1541 1.433 . S
C1543 N1546 1.384 . S
C1544 H1535 0.929 . S
C1544 C1536 1.378 . S
C1544 C1539 1.350 . S
C1545 H1532 0.929 . S
C1545 C1537 1.433 . S
C1545 N1547 1.384 . S
N1546 C1542 1.427 . S
N1546 C1543 1.384 . S
N1547 C1539 1.427 . S
N1547 C1545 1.384 . S
H1548 C1554 0.930 . S
H1549 C1558 0.930 . S
H1550 C1563 0.929 . S
H1551 C1561 0.929 . S
H1552 C1556 0.929 . S
H1553 C1562 0.929 . S
C1554 H1548 0.930 . S
C1554 C1555 1.367 . S
C1554 C1562 1.378 . S
C1555 C1554 1.367 . S
C1555 C1563 1.433 . S
C1556 H1552 0.929 . S
C1556 C1558 1.378 . S
C1556 C1560 1.350 . S
C1557 C1560 1.463 . S
C1557 C1562 1.350 . S
C1557 N1565 1.427 . S
C1558 H1549 0.930 . S
C1558 C1556 1.378 . S
C1558 C1559 1.367 . S
C1559 C1558 1.367 . S
C1559 C1561 1.433 . S
C1560 C1556 1.350 . S
C1560 C1557 1.463 . S
C1560 N1564 1.427 . S
C1561 H1551 0.929 . S
C1561 C1559 1.433 . S
C1561 N1564 1.384 . S
C1562 H1553 0.929 . S
C1562 C1554 1.378 . S
C1562 C1557 1.350 . S
C1563 H1550 0.929 . S
C1563 C1555 1.433 . S
C1563 N1565 1.384 . S
N1564 C1560 1.427 . S
N1564 C1561 1.384 . S
N1565 C1557 1.427 . S
N1565 C1563 1.384 . S
H1566 C1572 0.930 . S
H1567 C1576 0.930 . S
H1568 C1581 0.929 . S
H1569 C1579 0.929 . S
H1570 C1574 0.929 . S
H1571 C1580 0.929 . S
C1572 H1566 0.930 . S
C1572 C1573 1.367 . S
C1572 C1580 1.378 . S
C1573 C1572 1.367 . S
C1573 C1581 1.433 . S
C1574 H1570 0.929 . S
C1574 C1576 1.378 . S
C1574 C1578 1.350 . S
C1575 C1578 1.463 . S
C1575 C1580 1.350 . S
C1575 N1583 1.427 . S
C1576 H1567 0.930 . S
C1576 C1574 1.378 . S
C1576 C1577 1.367 . S
C1577 C1576 1.367 . S
C1577 C1579 1.433 . S
C1578 C1574 1.350 . S
C1578 C1575 1.463 . S
C1578 N1582 1.427 . S
C1579 H1569 0.929 . S
C1579 C1577 1.433 . S
C1579 N1582 1.384 . S
C1580 H1571 0.929 . S
C1580 C1572 1.378 . S
C1580 C1575 1.350 . S
C1581 H1568 0.929 . S
C1581 C1573 1.433 . S
C1581 N1583 1.384 . S
N1582 C1578 1.427 . S
N1582 C1579 1.384 . S
N1583 C1575 1.427 . S
N1583 C1581 1.384 . S
H1584 C1590 0.930 . S
H1585 C1594 0.930 . S
H1586 C1599 0.929 . S
H1587 C1597 0.929 . S
H1588 C1592 0.929 . S
H1589 C1598 0.929 . S
C1590 H1584 0.930 . S
C1590 C1591 1.367 . S
C1590 C1598 1.378 . S
C1591 C1590 1.367 . S
C1591 C1599 1.433 . S
C1592 H1588 0.929 . S
C1592 C1594 1.378 . S
C1592 C1596 1.350 . S
C1593 C1596 1.463 1_556 S
C1593 C1598 1.350 . S
C1593 N1601 1.427 . S
C1594 H1585 0.930 . S
C1594 C1592 1.378 . S
C1594 C1595 1.367 . S
C1595 C1594 1.367 . S
C1595 C1597 1.433 . S
C1596 C1592 1.350 . S
C1596 C1593 1.463 1_554 S
C1596 N1600 1.427 . S
C1597 H1587 0.929 . S
C1597 C1595 1.433 . S
C1597 N1600 1.384 . S
C1598 H1589 0.929 . S
C1598 C1590 1.378 . S
C1598 C1593 1.350 . S
C1599 H1586 0.929 . S
C1599 C1591 1.433 . S
C1599 N1601 1.384 . S
N1600 C1596 1.427 . S
N1600 C1597 1.384 . S
N1601 C1593 1.427 . S
N1601 C1599 1.384 . S
H1602 C1608 0.930 . S
H1603 C1612 0.930 . S
H1604 C1617 0.929 . S
H1605 C1615 0.929 . S
H1606 C1610 0.929 . S
H1607 C1616 0.929 . S
C1608 H1602 0.930 . S
C1608 C1609 1.367 . S
C1608 C1616 1.378 . S
C1609 C1608 1.367 . S
C1609 C1617 1.433 . S
C1610 H1606 0.929 . S
C1610 C1612 1.378 . S
C1610 C1614 1.350 . S
C1611 C1614 1.463 1_556 S
C1611 C1616 1.350 . S
C1611 N1619 1.427 . S
C1612 H1603 0.930 . S
C1612 C1610 1.378 . S
C1612 C1613 1.367 . S
C1613 C1612 1.367 . S
C1613 C1615 1.433 . S
C1614 C1610 1.350 . S
C1614 C1611 1.463 1_554 S
C1614 N1618 1.427 . S
C1615 H1605 0.929 . S
C1615 C1613 1.433 . S
C1615 N1618 1.384 . S
C1616 H1607 0.929 . S
C1616 C1608 1.378 . S
C1616 C1611 1.350 . S
C1617 H1604 0.929 . S
C1617 C1609 1.433 . S
C1617 N1619 1.384 . S
N1618 C1614 1.427 . S
N1618 C1615 1.384 . S
N1619 C1611 1.427 . S
N1619 C1617 1.384 . S
H1620 C1626 0.930 . S
H1621 C1630 0.930 . S
H1622 C1635 0.929 . S
H1623 C1633 0.929 . S
H1624 C1628 0.929 . S
H1625 C1634 0.929 . S
C1626 H1620 0.930 . S
C1626 C1627 1.367 . S
C1626 C1634 1.378 . S
C1627 C1626 1.367 . S
C1627 C1635 1.433 . S
C1628 H1624 0.929 . S
C1628 C1630 1.378 . S
C1628 C1632 1.350 . S
C1629 C1632 1.463 1_554 S
C1629 C1634 1.350 . S
C1629 N1637 1.427 . S
C1630 H1621 0.930 . S
C1630 C1628 1.378 . S
C1630 C1631 1.367 . S
C1631 C1630 1.367 . S
C1631 C1633 1.433 . S
C1632 C1628 1.350 . S
C1632 C1629 1.463 1_556 S
C1632 N1636 1.427 . S
C1633 H1623 0.929 . S
C1633 C1631 1.433 . S
C1633 N1636 1.384 . S
C1634 H1625 0.929 . S
C1634 C1626 1.378 . S
C1634 C1629 1.350 . S
C1635 H1622 0.929 . S
C1635 C1627 1.433 . S
C1635 N1637 1.384 . S
N1636 C1632 1.427 . S
N1636 C1633 1.384 . S
N1637 C1629 1.427 . S
N1637 C1635 1.384 . S
H1638 C1644 0.930 . S
H1639 C1648 0.930 . S
H1640 C1653 0.929 . S
H1641 C1651 0.929 . S
H1642 C1646 0.929 . S
H1643 C1652 0.929 . S
C1644 H1638 0.930 . S
C1644 C1645 1.367 . S
C1644 C1652 1.378 . S
C1645 C1644 1.367 . S
C1645 C1653 1.433 . S
C1646 H1642 0.929 . S
C1646 C1648 1.378 . S
C1646 C1650 1.350 . S
C1647 C1650 1.463 1_556 S
C1647 C1652 1.350 . S
C1647 N1655 1.427 . S
C1648 H1639 0.930 . S
C1648 C1646 1.378 . S
C1648 C1649 1.367 . S
C1649 C1648 1.367 . S
C1649 C1651 1.433 . S
C1650 C1646 1.350 . S
C1650 C1647 1.463 1_554 S
C1650 N1654 1.427 . S
C1651 H1641 0.929 . S
C1651 C1649 1.433 . S
C1651 N1654 1.384 . S
C1652 H1643 0.929 . S
C1652 C1644 1.378 . S
C1652 C1647 1.350 . S
C1653 H1640 0.929 . S
C1653 C1645 1.433 . S
C1653 N1655 1.384 . S
N1654 C1650 1.427 . S
N1654 C1651 1.384 . S
N1655 C1647 1.427 . S
N1655 C1653 1.384 . S
H1656 C1662 0.930 . S
H1657 C1666 0.930 . S
H1658 C1671 0.929 . S
H1659 C1669 0.929 . S
H1660 C1664 0.929 . S
H1661 C1670 0.929 . S
C1662 H1656 0.930 . S
C1662 C1663 1.367 . S
C1662 C1670 1.378 . S
C1663 C1662 1.367 . S
C1663 C1671 1.433 . S
C1664 H1660 0.929 . S
C1664 C1666 1.378 . S
C1664 C1668 1.350 . S
C1665 C1668 1.463 1_556 S
C1665 C1670 1.350 . S
C1665 N1673 1.427 . S
C1666 H1657 0.930 . S
C1666 C1664 1.378 . S
C1666 C1667 1.367 . S
C1667 C1666 1.367 . S
C1667 C1669 1.433 . S
C1668 C1664 1.350 . S
C1668 C1665 1.463 1_554 S
C1668 N1672 1.427 . S
C1669 H1659 0.929 . S
C1669 C1667 1.433 . S
C1669 N1672 1.384 . S
C1670 H1661 0.929 . S
C1670 C1662 1.378 . S
C1670 C1665 1.350 . S
C1671 H1658 0.929 . S
C1671 C1663 1.433 . S
C1671 N1673 1.384 . S
N1672 C1668 1.427 . S
N1672 C1669 1.384 . S
N1673 C1665 1.427 . S
N1673 C1671 1.384 . S
H1674 C1680 0.930 . S
H1675 C1684 0.930 . S
H1676 C1689 0.929 . S
H1677 C1687 0.929 . S
H1678 C1682 0.929 . S
H1679 C1688 0.929 . S
C1680 H1674 0.930 . S
C1680 C1681 1.367 . S
C1680 C1688 1.378 . S
C1681 C1680 1.367 . S
C1681 C1689 1.433 . S
C1682 H1678 0.929 . S
C1682 C1684 1.378 . S
C1682 C1686 1.350 . S
C1683 C1686 1.463 1_554 S
C1683 C1688 1.350 . S
C1683 N1691 1.427 . S
C1684 H1675 0.930 . S
C1684 C1682 1.378 . S
C1684 C1685 1.367 . S
C1685 C1684 1.367 . S
C1685 C1687 1.433 . S
C1686 C1682 1.350 . S
C1686 C1683 1.463 1_556 S
C1686 N1690 1.427 . S
C1687 H1677 0.929 . S
C1687 C1685 1.433 . S
C1687 N1690 1.384 . S
C1688 H1679 0.929 . S
C1688 C1680 1.378 . S
C1688 C1683 1.350 . S
C1689 H1676 0.929 . S
C1689 C1681 1.433 . S
C1689 N1691 1.384 . S
N1690 C1686 1.427 . S
N1690 C1687 1.384 . S
N1691 C1683 1.427 . S
N1691 C1689 1.384 . S
H1692 C1698 0.930 . S
H1693 C1702 0.930 . S
H1694 C1707 0.929 . S
H1695 C1705 0.929 . S
H1696 C1700 0.929 . S
H1697 C1706 0.929 . S
C1698 H1692 0.930 . S
C1698 C1699 1.367 . S
C1698 C1706 1.378 . S
C1699 C1698 1.367 . S
C1699 C1707 1.433 . S
C1700 H1696 0.929 . S
C1700 C1702 1.378 . S
C1700 C1704 1.350 . S
C1701 C1704 1.463 . S
C1701 C1706 1.350 . S
C1701 N1709 1.427 . S
C1702 H1693 0.930 . S
C1702 C1700 1.378 . S
C1702 C1703 1.367 . S
C1703 C1702 1.367 . S
C1703 C1705 1.433 . S
C1704 C1700 1.350 . S
C1704 C1701 1.463 . S
C1704 N1708 1.427 . S
C1705 H1695 0.929 . S
C1705 C1703 1.433 . S
C1705 N1708 1.384 . S
C1706 H1697 0.929 . S
C1706 C1698 1.378 . S
C1706 C1701 1.350 . S
C1707 H1694 0.929 . S
C1707 C1699 1.433 . S
C1707 N1709 1.384 . S
N1708 C1704 1.427 . S
N1708 C1705 1.384 . S
N1709 C1701 1.427 . S
N1709 C1707 1.384 . S
H1710 C1716 0.930 . S
H1711 C1720 0.930 . S
H1712 C1725 0.929 . S
H1713 C1723 0.929 . S
H1714 C1718 0.929 . S
H1715 C1724 0.929 . S
C1716 H1710 0.930 . S
C1716 C1717 1.367 . S
C1716 C1724 1.378 . S
C1717 C1716 1.367 . S
C1717 C1725 1.433 . S
C1718 H1714 0.929 . S
C1718 C1720 1.378 . S
C1718 C1722 1.350 . S
C1719 C1722 1.463 . S
C1719 C1724 1.350 . S
C1719 N1727 1.427 . S
C1720 H1711 0.930 . S
C1720 C1718 1.378 . S
C1720 C1721 1.367 . S
C1721 C1720 1.367 . S
C1721 C1723 1.433 . S
C1722 C1718 1.350 . S
C1722 C1719 1.463 . S
C1722 N1726 1.427 . S
C1723 H1713 0.929 . S
C1723 C1721 1.433 . S
C1723 N1726 1.384 . S
C1724 H1715 0.929 . S
C1724 C1716 1.378 . S
C1724 C1719 1.350 . S
C1725 H1712 0.929 . S
C1725 C1717 1.433 . S
C1725 N1727 1.384 . S
N1726 C1722 1.427 . S
N1726 C1723 1.384 . S
N1727 C1719 1.427 . S
N1727 C1725 1.384 . S
H1728 C1734 0.930 . S
H1729 C1738 0.930 . S
H1730 C1743 0.929 . S
H1731 C1741 0.929 . S
H1732 C1736 0.929 . S
H1733 C1742 0.929 . S
C1734 H1728 0.930 . S
C1734 C1735 1.367 . S
C1734 C1742 1.378 . S
C1735 C1734 1.367 . S
C1735 C1743 1.433 . S
C1736 H1732 0.929 . S
C1736 C1738 1.378 . S
C1736 C1740 1.350 . S
C1737 C1740 1.463 . S
C1737 C1742 1.350 . S
C1737 N1745 1.427 . S
C1738 H1729 0.930 . S
C1738 C1736 1.378 . S
C1738 C1739 1.367 . S
C1739 C1738 1.367 . S
C1739 C1741 1.433 . S
C1740 C1736 1.350 . S
C1740 C1737 1.463 . S
C1740 N1744 1.427 . S
C1741 H1731 0.929 . S
C1741 C1739 1.433 . S
C1741 N1744 1.384 . S
C1742 H1733 0.929 . S
C1742 C1734 1.378 . S
C1742 C1737 1.350 . S
C1743 H1730 0.929 . S
C1743 C1735 1.433 . S
C1743 N1745 1.384 . S
N1744 C1740 1.427 . S
N1744 C1741 1.384 . S
N1745 C1737 1.427 . S
N1745 C1743 1.384 . S
H1746 C1752 0.930 . S
H1747 C1756 0.930 . S
H1748 C1761 0.929 . S
H1749 C1759 0.929 . S
H1750 C1754 0.929 . S
H1751 C1760 0.929 . S
C1752 H1746 0.930 . S
C1752 C1753 1.367 . S
C1752 C1760 1.378 . S
C1753 C1752 1.367 . S
C1753 C1761 1.433 . S
C1754 H1750 0.929 . S
C1754 C1756 1.378 . S
C1754 C1758 1.350 . S
C1755 C1758 1.463 . S
C1755 C1760 1.350 . S
C1755 N1763 1.427 . S
C1756 H1747 0.930 . S
C1756 C1754 1.378 . S
C1756 C1757 1.367 . S
C1757 C1756 1.367 . S
C1757 C1759 1.433 . S
C1758 C1754 1.350 . S
C1758 C1755 1.463 . S
C1758 N1762 1.427 . S
C1759 H1749 0.929 . S
C1759 C1757 1.433 . S
C1759 N1762 1.384 . S
C1760 H1751 0.929 . S
C1760 C1752 1.378 . S
C1760 C1755 1.350 . S
C1761 H1748 0.929 . S
C1761 C1753 1.433 . S
C1761 N1763 1.384 . S
N1762 C1758 1.427 . S
N1762 C1759 1.384 . S
N1763 C1755 1.427 . S
N1763 C1761 1.384 . S
H1764 C1770 0.930 . S
H1765 C1774 0.930 . S
H1766 C1779 0.929 . S
H1767 C1777 0.929 . S
H1768 C1772 0.929 . S
H1769 C1778 0.929 . S
C1770 H1764 0.930 . S
C1770 C1771 1.367 . S
C1770 C1778 1.378 . S
C1771 C1770 1.367 . S
C1771 C1779 1.433 . S
C1772 H1768 0.929 . S
C1772 C1774 1.378 . S
C1772 C1776 1.350 . S
C1773 C1776 1.463 . S
C1773 C1778 1.350 . S
C1773 N1781 1.427 . S
C1774 H1765 0.930 . S
C1774 C1772 1.378 . S
C1774 C1775 1.367 . S
C1775 C1774 1.367 . S
C1775 C1777 1.433 . S
C1776 C1772 1.350 . S
C1776 C1773 1.463 . S
C1776 N1780 1.427 . S
C1777 H1767 0.929 . S
C1777 C1775 1.433 . S
C1777 N1780 1.384 . S
C1778 H1769 0.929 . S
C1778 C1770 1.378 . S
C1778 C1773 1.350 . S
C1779 H1766 0.929 . S
C1779 C1771 1.433 . S
C1779 N1781 1.384 . S
N1780 C1776 1.427 . S
N1780 C1777 1.384 . S
N1781 C1773 1.427 . S
N1781 C1779 1.384 . S
H1782 C1788 0.930 . S
H1783 C1792 0.930 . S
H1784 C1797 0.929 . S
H1785 C1795 0.929 . S
H1786 C1790 0.929 . S
H1787 C1796 0.929 . S
C1788 H1782 0.930 . S
C1788 C1789 1.367 . S
C1788 C1796 1.378 . S
C1789 C1788 1.367 . S
C1789 C1797 1.433 . S
C1790 H1786 0.929 . S
C1790 C1792 1.378 . S
C1790 C1794 1.350 . S
C1791 C1794 1.463 . S
C1791 C1796 1.350 . S
C1791 N1799 1.427 . S
C1792 H1783 0.930 . S
C1792 C1790 1.378 . S
C1792 C1793 1.367 . S
C1793 C1792 1.367 . S
C1793 C1795 1.433 . S
C1794 C1790 1.350 . S
C1794 C1791 1.463 . S
C1794 N1798 1.427 . S
C1795 H1785 0.929 . S
C1795 C1793 1.433 . S
C1795 N1798 1.384 . S
C1796 H1787 0.929 . S
C1796 C1788 1.378 . S
C1796 C1791 1.350 . S
C1797 H1784 0.929 . S
C1797 C1789 1.433 . S
C1797 N1799 1.384 . S
N1798 C1794 1.427 . S
N1798 C1795 1.384 . S
N1799 C1791 1.427 . S
N1799 C1797 1.384 . S
C511 C172 1.681 . S
C515 C7 1.689 . S
C529 C28 1.680 . S
C533 C196 1.678 . S
C547 C46 1.698 . S
C551 C214 1.692 . S
C565 C70 1.695 . S
C569 C238 1.698 . S
C583 C88 1.686 . S
C587 C130 1.694 . S
C601 C154 1.692 . S
C605 C112 1.698 . S
C619 C424 1.515 . S
C623 C256 1.515 . S
C637 C448 1.494 . S
C641 C277 1.504 . S
C655 C466 1.498 . S
C659 C298 1.492 . S
C673 C322 1.503 . S
C677 C487 1.494 . S
C691 C382 1.496 . S
C695 C340 1.492 . S
C709 C406 1.506 . S
C713 C364 1.495 . S
C727 C20 1.523 . S
C731 C83 1.509 . S
C745 C103 1.518 . S
C749 C41 1.504 . S
C763 C61 1.518 . S
C767 C125 1.504 . S
C781 C145 1.518 . S
C785 C209 1.504 . S
C799 C167 1.515 . S
C803 C229 1.527 . S
C817 C187 1.513 . S
C821 C251 1.501 . S
C835 C334 2.070 . S
C839 C272 2.086 . S
C853 C293 2.069 . S
C857 C356 2.082 . S
C871 C376 2.070 . S
C875 C314 2.086 . S
C889 C398 2.068 . S
C893 C460 2.084 . S
C907 C418 2.085 . S
C911 C482 2.069 . S
C925 C503 2.068 . S
C929 C440 2.084 . S
C943 C3 0.814 . S
C947 C226 0.805 . S
C961 C234 0.812 . S
C965 C24 0.803 . S
C979 C58 0.805 . S
C983 C142 0.799 . S
C997 C66 0.801 . S
C1001 C150 0.809 . S
C1015 C184 0.836 . S
C1019 C100 0.825 . S
C1033 C192 0.813 . S
C1037 C108 0.824 . S
C1051 C255 0.615 . S
C1055 C465 0.586 . S
C1069 C276 0.582 . S
C1073 C486 0.613 . S
C1087 C297 0.587 . S
C1091 C381 0.570 . S
C1105 C331 0.571 . S
C1109 C415 0.602 . S
C1123 C423 0.598 . S
C1127 C339 0.615 . S
C1141 C457 0.570 . S
C1145 C373 0.599 . S
C1159 C16 0.700 . S
C1163 C91 0.683 . S
C1177 C109 0.685 . S
C1181 C37 0.712 . S
C1195 C45 0.690 . S
C1199 C4 0.690 . S
C1213 C25 0.729 . S
C1217 C79 0.682 . S
C1231 C49 0.728 . S
C1235 C87 0.676 . S
C1249 C67 0.686 . S
C1253 C121 0.713 . S
C1267 C129 0.695 . S
C1271 C175 0.723 . S
C1285 C193 0.683 . S
C1289 C163 0.702 . S
C1303 C171 0.678 . S
C1307 C217 0.729 . S
C1321 C205 0.678 . S
C1325 C235 0.706 . S
C1339 C133 0.682 . S
C1343 C213 0.705 . S
C1357 C247 0.709 . S
C1361 C151 0.706 . S
C1375 C268 0.817 . S
C1379 C343 0.885 . S
C1393 C361 0.893 . S
C1397 C289 0.810 . S
C1411 C259 0.894 . S
C1415 C310 0.809 . S
C1429 C318 0.818 . S
C1433 C280 0.885 . S
C1447 C301 0.869 . S
C1451 C352 0.848 . S
C1465 C360 0.854 . S
C1469 C319 0.862 . S
C1483 C394 0.854 . S
C1487 C427 0.862 . S
C1501 C445 0.874 . S
C1505 C402 0.833 . S
C1519 C469 0.871 . S
C1523 C436 0.845 . S
C1537 C444 0.812 . S
C1541 C490 0.889 . S
C1555 C385 0.880 . S
C1559 C478 0.824 . S
C1573 C499 0.809 . S
C1577 C403 0.893 . S
C1591 C335 1.266 . S
C1595 C19 1.360 . S
C1609 C355 1.284 . S
C1613 C40 1.354 . S
C1627 C62 1.356 . S
C1631 C377 1.274 . S
C1645 C271 1.267 . S
C1649 C82 1.372 . S
C1663 C292 1.284 . S
C1667 C104 1.356 . S
C1681 C124 1.354 . S
C1685 C313 1.278 . S
C1699 C461 1.282 . S
C1703 C146 1.360 . S
C1717 C481 1.277 . S
C1721 C166 1.366 . S
C1735 C188 1.353 . S
C1739 C502 1.281 . S
C1753 C397 1.281 . S
C1757 C208 1.353 . S
C1771 C230 1.365 . S
C1775 C419 1.277 . S
C1789 C439 1.258 . S
C1793 C250 1.367 . S
