# Generated by pormake.
# Topology afi, (4)-cn, num edge types: 1
# Building blocks:
#     Node 0, Type 0, BuildingBlock: CEKHIL_clean_sbu_0, # of connection points: 4
#     Node 1, Type 0, BuildingBlock: CEKHIL_clean_sbu_0, # of connection points: 4
#     Node 2, Type 0, BuildingBlock: CEKHIL_clean_sbu_0, # of connection points: 4
#     Node 3, Type 0, BuildingBlock: CEKHIL_clean_sbu_0, # of connection points: 4
#     Node 4, Type 0, BuildingBlock: CEKHIL_clean_sbu_0, # of connection points: 4
#     Node 5, Type 0, BuildingBlock: CEKHIL_clean_sbu_0, # of connection points: 4
#     Node 6, Type 0, BuildingBlock: CEKHIL_clean_sbu_0, # of connection points: 4
#     Node 7, Type 0, BuildingBlock: CEKHIL_clean_sbu_0, # of connection points: 4
#     Node 8, Type 0, BuildingBlock: CEKHIL_clean_sbu_0, # of connection points: 4
#     Node 9, Type 0, BuildingBlock: CEKHIL_clean_sbu_0, # of connection points: 4
#     Node 10, Type 0, BuildingBlock: CEKHIL_clean_sbu_0, # of connection points: 4
#     Node 11, Type 0, BuildingBlock: CEKHIL_clean_sbu_0, # of connection points: 4
#     Node 12, Type 0, BuildingBlock: CEKHIL_clean_sbu_0, # of connection points: 4
#     Node 13, Type 0, BuildingBlock: CEKHIL_clean_sbu_0, # of connection points: 4
#     Node 14, Type 0, BuildingBlock: CEKHIL_clean_sbu_0, # of connection points: 4
#     Node 15, Type 0, BuildingBlock: CEKHIL_clean_sbu_0, # of connection points: 4
#     Node 16, Type 0, BuildingBlock: CEKHIL_clean_sbu_0, # of connection points: 4
#     Node 17, Type 0, BuildingBlock: CEKHIL_clean_sbu_0, # of connection points: 4
#     Node 18, Type 0, BuildingBlock: CEKHIL_clean_sbu_0, # of connection points: 4
#     Node 19, Type 0, BuildingBlock: CEKHIL_clean_sbu_0, # of connection points: 4
#     Node 20, Type 0, BuildingBlock: CEKHIL_clean_sbu_0, # of connection points: 4
#     Node 21, Type 0, BuildingBlock: CEKHIL_clean_sbu_0, # of connection points: 4
#     Node 22, Type 0, BuildingBlock: CEKHIL_clean_sbu_0, # of connection points: 4
#     Node 23, Type 0, BuildingBlock: CEKHIL_clean_sbu_0, # of connection points: 4
#     Edge 24, Type (0, 0), BuildingBlock: KIFKEQ_clean_linker_1, # of connection points: 2
#     Edge 25, Type (0, 0), BuildingBlock: KIFKEQ_clean_linker_1, # of connection points: 2
#     Edge 26, Type (0, 0), BuildingBlock: KIFKEQ_clean_linker_1, # of connection points: 2
#     Edge 27, Type (0, 0), BuildingBlock: KIFKEQ_clean_linker_1, # of connection points: 2
#     Edge 28, Type (0, 0), BuildingBlock: KIFKEQ_clean_linker_1, # of connection points: 2
#     Edge 29, Type (0, 0), BuildingBlock: KIFKEQ_clean_linker_1, # of connection points: 2
#     Edge 30, Type (0, 0), BuildingBlock: KIFKEQ_clean_linker_1, # of connection points: 2
#     Edge 31, Type (0, 0), BuildingBlock: KIFKEQ_clean_linker_1, # of connection points: 2
#     Edge 32, Type (0, 0), BuildingBlock: KIFKEQ_clean_linker_1, # of connection points: 2
#     Edge 33, Type (0, 0), BuildingBlock: KIFKEQ_clean_linker_1, # of connection points: 2
#     Edge 34, Type (0, 0), BuildingBlock: KIFKEQ_clean_linker_1, # of connection points: 2
#     Edge 35, Type (0, 0), BuildingBlock: KIFKEQ_clean_linker_1, # of connection points: 2
#     Edge 36, Type (0, 0), BuildingBlock: KIFKEQ_clean_linker_1, # of connection points: 2
#     Edge 37, Type (0, 0), BuildingBlock: KIFKEQ_clean_linker_1, # of connection points: 2
#     Edge 38, Type (0, 0), BuildingBlock: KIFKEQ_clean_linker_1, # of connection points: 2
#     Edge 39, Type (0, 0), BuildingBlock: KIFKEQ_clean_linker_1, # of connection points: 2
#     Edge 40, Type (0, 0), BuildingBlock: KIFKEQ_clean_linker_1, # of connection points: 2
#     Edge 41, Type (0, 0), BuildingBlock: KIFKEQ_clean_linker_1, # of connection points: 2
#     Edge 42, Type (0, 0), BuildingBlock: KIFKEQ_clean_linker_1, # of connection points: 2
#     Edge 43, Type (0, 0), BuildingBlock: KIFKEQ_clean_linker_1, # of connection points: 2
#     Edge 44, Type (0, 0), BuildingBlock: KIFKEQ_clean_linker_1, # of connection points: 2
#     Edge 45, Type (0, 0), BuildingBlock: KIFKEQ_clean_linker_1, # of connection points: 2
#     Edge 46, Type (0, 0), BuildingBlock: KIFKEQ_clean_linker_1, # of connection points: 2
#     Edge 47, Type (0, 0), BuildingBlock: KIFKEQ_clean_linker_1, # of connection points: 2
#     Edge 48, Type (0, 0), BuildingBlock: KIFKEQ_clean_linker_1, # of connection points: 2
#     Edge 49, Type (0, 0), BuildingBlock: KIFKEQ_clean_linker_1, # of connection points: 2
#     Edge 50, Type (0, 0), BuildingBlock: KIFKEQ_clean_linker_1, # of connection points: 2
#     Edge 51, Type (0, 0), BuildingBlock: KIFKEQ_clean_linker_1, # of connection points: 2
#     Edge 52, Type (0, 0), BuildingBlock: KIFKEQ_clean_linker_1, # of connection points: 2
#     Edge 53, Type (0, 0), BuildingBlock: KIFKEQ_clean_linker_1, # of connection points: 2
#     Edge 54, Type (0, 0), BuildingBlock: KIFKEQ_clean_linker_1, # of connection points: 2
#     Edge 55, Type (0, 0), BuildingBlock: KIFKEQ_clean_linker_1, # of connection points: 2
#     Edge 56, Type (0, 0), BuildingBlock: KIFKEQ_clean_linker_1, # of connection points: 2
#     Edge 57, Type (0, 0), BuildingBlock: KIFKEQ_clean_linker_1, # of connection points: 2
#     Edge 58, Type (0, 0), BuildingBlock: KIFKEQ_clean_linker_1, # of connection points: 2
#     Edge 59, Type (0, 0), BuildingBlock: KIFKEQ_clean_linker_1, # of connection points: 2
#     Edge 60, Type (0, 0), BuildingBlock: KIFKEQ_clean_linker_1, # of connection points: 2
#     Edge 61, Type (0, 0), BuildingBlock: KIFKEQ_clean_linker_1, # of connection points: 2
#     Edge 62, Type (0, 0), BuildingBlock: KIFKEQ_clean_linker_1, # of connection points: 2
#     Edge 63, Type (0, 0), BuildingBlock: KIFKEQ_clean_linker_1, # of connection points: 2
#     Edge 64, Type (0, 0), BuildingBlock: KIFKEQ_clean_linker_1, # of connection points: 2
#     Edge 65, Type (0, 0), BuildingBlock: KIFKEQ_clean_linker_1, # of connection points: 2
#     Edge 66, Type (0, 0), BuildingBlock: KIFKEQ_clean_linker_1, # of connection points: 2
#     Edge 67, Type (0, 0), BuildingBlock: KIFKEQ_clean_linker_1, # of connection points: 2
#     Edge 68, Type (0, 0), BuildingBlock: KIFKEQ_clean_linker_1, # of connection points: 2
#     Edge 69, Type (0, 0), BuildingBlock: KIFKEQ_clean_linker_1, # of connection points: 2
#     Edge 70, Type (0, 0), BuildingBlock: KIFKEQ_clean_linker_1, # of connection points: 2
#     Edge 71, Type (0, 0), BuildingBlock: KIFKEQ_clean_linker_1, # of connection points: 2
# Relax obj value: 0.100
# Max RMSD: 0.107
# Mean RMSD: 0.107
data_MOF--net-afi--node1-CEKHIL_clean_sbu_0--edge1-KIFKEQ_clean_linker_1
_symmetry_space_group_name_H-M    P1
_symmetry_Int_Tables_number       1
_symmetry_cell_setting            triclinic
loop_
_symmetry_equiv_pos_as_xyz
'x, y, z'
_cell_length_a     68.20915
_cell_length_b     68.240178
_cell_length_c     39.566904
_cell_angle_alpha  90.01217
_cell_angle_beta   89.94545
_cell_angle_gamma 119.9865
loop_
_atom_site_label
_atom_site_type_symbol
_atom_site_fract_x
_atom_site_fract_y
_atom_site_fract_z
_atom_type_partial_charge
Co0 Co 0.47428 0.13839 0.19669 0.0
O1 O 0.48783 0.17092 0.19739 0.0
O2 O 0.45378 0.14716 0.21716 0.0
C3 C 0.50529 0.13778 0.21592 0.0
O4 O 0.45514 0.10388 0.20235 0.0
Co5 Co 0.49363 0.11505 0.15085 0.0
O6 O 0.47168 0.08705 0.17482 0.0
C7 C 0.46963 0.13653 0.12068 0.0
C8 C 0.46959 0.16803 0.21218 0.0
C9 C 0.45634 0.08616 0.19425 0.0
O10 O 0.46157 0.13735 0.14982 0.0
O11 O 0.48458 0.13065 0.1166 0.0
O12 O 0.49161 0.13952 0.23704 0.0
O13 O 0.50074 0.13821 0.18444 0.0
Co14 Co 0.34576 0.46963 0.19611 0.0
O15 O 0.3262 0.48251 0.19349 0.0
O16 O 0.31647 0.4495 0.21672 0.0
C17 C 0.37669 0.50174 0.21418 0.0
O18 O 0.36179 0.45133 0.20565 0.0
Co19 Co 0.38954 0.48795 0.15266 0.0
O20 O 0.39757 0.47201 0.18673 0.0
C21 C 0.34488 0.45832 0.12127 0.0
C22 C 0.31105 0.4648 0.20954 0.0
C23 C 0.38252 0.45566 0.20403 0.0
O24 O 0.33473 0.45501 0.15002 0.0
O25 O 0.36616 0.47148 0.11716 0.0
O26 O 0.36105 0.48869 0.23547 0.0
O27 O 0.37235 0.49591 0.18287 0.0
Co28 Co 0.88465 0.34189 0.19307 0.0
O29 O 0.85206 0.32316 0.19214 0.0
O30 O 0.87513 0.31241 0.21322 0.0
C31 C 0.885 0.37338 0.21233 0.0
O32 O 0.91904 0.35677 0.20065 0.0
Co33 Co 0.91004 0.38537 0.14931 0.0
O34 O 0.93688 0.39104 0.17584 0.0
C35 C 0.89276 0.34052 0.11746 0.0
C36 C 0.85443 0.30759 0.20722 0.0
C37 C 0.93706 0.37589 0.19439 0.0
O38 O 0.88666 0.33049 0.14638 0.0
O39 O 0.90109 0.36182 0.11346 0.0
O40 O 0.88271 0.35769 0.23326 0.0
O41 O 0.88543 0.36891 0.18077 0.0
Co42 Co 0.55141 0.88171 0.19679 0.0
O43 O 0.53756 0.84914 0.19541 0.0
O44 O 0.57126 0.87205 0.21696 0.0
C45 C 0.52016 0.88195 0.21576 0.0
O46 O 0.57083 0.91608 0.20496 0.0
Co47 Co 0.53358 0.90732 0.15304 0.0
O48 O 0.55437 0.93394 0.18026 0.0
C49 C 0.56087 0.88972 0.12116 0.0
C50 C 0.55543 0.8514 0.21058 0.0
C51 C 0.56959 0.93407 0.19901 0.0
O52 O 0.56499 0.88387 0.15015 0.0
O53 O 0.54785 0.898 0.11713 0.0
O54 O 0.53343 0.87954 0.23681 0.0
O55 O 0.52527 0.88257 0.18426 0.0
Co56 Co 0.67925 0.546 0.19954 0.0
O57 O 0.69799 0.53216 0.19906 0.0
O58 O 0.70896 0.56635 0.21874 0.0
C59 C 0.64777 0.51535 0.22 0.0
O60 O 0.66418 0.56543 0.2062 0.0
Co61 Co 0.63588 0.52679 0.15508 0.0
O62 O 0.63062 0.54921 0.17918 0.0
C63 C 0.68092 0.54988 0.12348 0.0
C64 C 0.71374 0.55038 0.2133 0.0
C65 C 0.6453 0.56447 0.19842 0.0
O66 O 0.69014 0.55841 0.15225 0.0
O67 O 0.66003 0.53491 0.12018 0.0
O68 O 0.66379 0.52884 0.24044 0.0
O69 O 0.65217 0.51976 0.18833 0.0
Co70 Co 0.14284 0.67503 0.19677 0.0
O71 O 0.17539 0.69401 0.1966 0.0
O72 O 0.1518 0.70453 0.21637 0.0
C73 C 0.14219 0.64357 0.21685 0.0
O74 O 0.10835 0.65974 0.20314 0.0
Co75 Co 0.11911 0.63185 0.15181 0.0
O76 O 0.09129 0.62627 0.17588 0.0
C77 C 0.14035 0.677 0.12069 0.0
C78 C 0.17263 0.70953 0.21105 0.0
C79 C 0.09054 0.64085 0.19518 0.0
O80 O 0.14129 0.68611 0.14965 0.0
O81 O 0.13454 0.65617 0.11701 0.0
O82 O 0.14454 0.65943 0.23749 0.0
O83 O 0.14229 0.64813 0.18524 0.0
Co84 Co 0.8857 0.54686 0.30708 0.0
O85 O 0.85314 0.53324 0.30884 0.0
O86 O 0.87614 0.5669 0.28724 0.0
C87 C 0.88559 0.5155 0.2877 0.0
O88 O 0.92006 0.56608 0.29864 0.0
Co89 Co 0.91116 0.52851 0.35017 0.0
O90 O 0.93785 0.54948 0.32315 0.0
C91 C 0.89457 0.55656 0.38254 0.0
C92 C 0.85547 0.55115 0.29374 0.0
C93 C 0.93803 0.5648 0.30457 0.0
O94 O 0.88828 0.56048 0.35379 0.0
O95 O 0.90274 0.54341 0.38628 0.0
O96 O 0.88322 0.5289 0.26688 0.0
O97 O 0.88635 0.52054 0.31926 0.0
Co98 Co 0.34644 0.88183 0.30772 0.0
O99 O 0.32775 0.84927 0.30923 0.0
O100 O 0.31696 0.87211 0.2874 0.0
C101 C 0.37796 0.88206 0.28893 0.0
O102 O 0.36136 0.91617 0.29941 0.0
Co103 Co 0.38984 0.90753 0.35152 0.0
O104 O 0.39565 0.93411 0.32419 0.0
C105 C 0.34489 0.89016 0.3832 0.0
C106 C 0.31217 0.85149 0.29389 0.0
C107 C 0.38055 0.93419 0.30538 0.0
O108 O 0.33494 0.88409 0.35423 0.0
O109 O 0.36619 0.89849 0.38729 0.0
O110 O 0.36231 0.87962 0.26781 0.0
O111 O 0.37344 0.88272 0.32041 0.0
Co112 Co 0.47425 0.34235 0.31378 0.0
O113 O 0.48728 0.32291 0.31461 0.0
O114 O 0.45361 0.31298 0.2937 0.0
C115 C 0.50581 0.37338 0.29419 0.0
O116 O 0.45565 0.35835 0.30681 0.0
Co117 Co 0.49449 0.38587 0.35841 0.0
O118 O 0.47425 0.39264 0.33152 0.0
C119 C 0.46513 0.34114 0.38961 0.0
C120 C 0.46915 0.30765 0.29957 0.0
C121 C 0.4581 0.37803 0.31342 0.0
O122 O 0.46076 0.33122 0.36056 0.0
O123 O 0.47895 0.36225 0.3939 0.0
O124 O 0.49219 0.35773 0.27341 0.0
O125 O 0.50095 0.36889 0.32575 0.0
Co126 Co 0.14061 0.46925 0.30874 0.0
O127 O 0.17319 0.48285 0.31054 0.0
O128 O 0.15013 0.44927 0.28873 0.0
C129 C 0.14058 0.5006 0.28966 0.0
O130 O 0.10629 0.44999 0.30015 0.0
Co131 Co 0.11478 0.48718 0.35217 0.0
O132 O 0.08821 0.46618 0.32507 0.0
C133 C 0.13162 0.45926 0.38414 0.0
C134 C 0.17081 0.46497 0.29521 0.0
C135 C 0.08821 0.45104 0.30627 0.0
O136 O 0.13789 0.4554 0.35529 0.0
O137 O 0.12342 0.47236 0.38808 0.0
O138 O 0.14339 0.48749 0.26878 0.0
O139 O 0.13962 0.49535 0.32116 0.0
Co140 Co 0.67907 0.13828 0.30798 0.0
O141 O 0.69793 0.17082 0.30728 0.0
O142 O 0.70841 0.14717 0.2877 0.0
C143 C 0.64743 0.13754 0.28853 0.0
O144 O 0.66386 0.10377 0.30233 0.0
Co145 Co 0.63627 0.11472 0.35356 0.0
O146 O 0.6304 0.08677 0.32965 0.0
C147 C 0.68167 0.13657 0.38401 0.0
C148 C 0.71337 0.16801 0.29263 0.0
C149 C 0.64496 0.08598 0.31032 0.0
O150 O 0.69065 0.13732 0.35498 0.0
O151 O 0.6608 0.13059 0.38789 0.0
O152 O 0.66291 0.13933 0.26751 0.0
O153 O 0.65233 0.13795 0.32005 0.0
Co154 Co 0.55029 0.67525 0.30491 0.0
O155 O 0.53637 0.69392 0.30529 0.0
O156 O 0.57057 0.7049 0.28546 0.0
C157 C 0.51963 0.6437 0.2848 0.0
O158 O 0.56979 0.66025 0.2983 0.0
Co159 Co 0.53127 0.63202 0.34969 0.0
O160 O 0.55367 0.62675 0.32553 0.0
C161 C 0.55409 0.67714 0.3809 0.0
C162 C 0.55457 0.70965 0.29093 0.0
C163 C 0.56888 0.6414 0.30616 0.0
O164 O 0.56272 0.68629 0.35212 0.0
O165 O 0.53918 0.65625 0.38431 0.0
O166 O 0.53305 0.65964 0.26417 0.0
O167 O 0.52413 0.64821 0.31641 0.0
Co168 Co 0.54971 0.87854 0.80796 0.0
O169 O 0.53529 0.84595 0.8064 0.0
O170 O 0.57009 0.86925 0.78862 0.0
C171 C 0.51965 0.88041 0.78743 0.0
O172 O 0.56971 0.91304 0.80304 0.0
Co173 Co 0.53061 0.90244 0.85329 0.0
O174 O 0.55332 0.9303 0.82987 0.0
C175 C 0.55305 0.87964 0.88424 0.0
C176 C 0.55366 0.84854 0.79247 0.0
C177 C 0.5688 0.93094 0.811 0.0
O178 O 0.56142 0.87882 0.85536 0.0
O179 O 0.53843 0.88601 0.88783 0.0
O180 O 0.53327 0.8781 0.76691 0.0
O181 O 0.5236 0.87966 0.81909 0.0
Co182 Co 0.67874 0.54714 0.81077 0.0
O183 O 0.69769 0.53351 0.81257 0.0
O184 O 0.7082 0.56708 0.79067 0.0
C185 C 0.64734 0.5158 0.79183 0.0
O186 O 0.66374 0.56643 0.80205 0.0
Co187 Co 0.63502 0.52942 0.85419 0.0
O188 O 0.62944 0.55032 0.82684 0.0
C189 C 0.67982 0.55694 0.8862 0.0
C190 C 0.71317 0.55138 0.79716 0.0
C191 C 0.64461 0.5654 0.80799 0.0
O192 O 0.68991 0.56096 0.8573 0.0
O193 O 0.65852 0.54387 0.89014 0.0
O194 O 0.66324 0.52887 0.77088 0.0
O195 O 0.65165 0.52111 0.82331 0.0
Co196 Co 0.14028 0.67339 0.80856 0.0
O197 O 0.17271 0.69292 0.81102 0.0
O198 O 0.14935 0.70284 0.78859 0.0
C199 C 0.14172 0.64278 0.78964 0.0
O200 O 0.10593 0.65745 0.79935 0.0
Co201 Co 0.11488 0.62922 0.85068 0.0
O202 O 0.09143 0.62125 0.81564 0.0
C203 C 0.12989 0.6735 0.88356 0.0
C204 C 0.17009 0.70821 0.79553 0.0
C205 C 0.08992 0.63655 0.79944 0.0
O206 O 0.13687 0.68402 0.85511 0.0
O207 O 0.12158 0.65214 0.88694 0.0
O208 O 0.14378 0.65834 0.76863 0.0
O209 O 0.1403 0.64685 0.8211 0.0
Co210 Co 0.47237 0.13426 0.8088 0.0
O211 O 0.4861 0.16681 0.81132 0.0
O212 O 0.4525 0.14408 0.78927 0.0
C213 C 0.50368 0.1342 0.78944 0.0
O214 O 0.45304 0.10002 0.79954 0.0
Co215 Co 0.49008 0.10806 0.85167 0.0
O216 O 0.46915 0.08175 0.82407 0.0
C217 C 0.46247 0.12507 0.88421 0.0
C218 C 0.46823 0.16465 0.79623 0.0
C219 C 0.45409 0.08191 0.80527 0.0
O220 O 0.45852 0.13131 0.85543 0.0
O221 O 0.47553 0.11681 0.88793 0.0
O222 O 0.49066 0.13727 0.76874 0.0
O223 O 0.49839 0.13306 0.82097 0.0
Co224 Co 0.34558 0.46946 0.80926 0.0
O225 O 0.32618 0.48244 0.80784 0.0
O226 O 0.31627 0.44826 0.78924 0.0
C227 C 0.37674 0.50055 0.78904 0.0
O228 O 0.36193 0.45104 0.80508 0.0
Co229 Co 0.38807 0.49131 0.8558 0.0
O230 O 0.39545 0.4703 0.83184 0.0
C231 C 0.34253 0.46608 0.8855 0.0
C232 C 0.31092 0.46393 0.79373 0.0
C233 C 0.38156 0.45392 0.81329 0.0
O234 O 0.33409 0.45733 0.85647 0.0
O235 O 0.36306 0.48179 0.88959 0.0
O236 O 0.36149 0.48629 0.7683 0.0
O237 O 0.37171 0.49651 0.82058 0.0
Co238 Co 0.88289 0.341 0.80479 0.0
O239 O 0.85031 0.3223 0.80545 0.0
O240 O 0.87347 0.31151 0.78478 0.0
C241 C 0.88363 0.37262 0.78544 0.0
O242 O 0.91735 0.35607 0.79769 0.0
Co243 Co 0.90734 0.38398 0.84999 0.0
O244 O 0.93487 0.38944 0.82519 0.0
C245 C 0.88537 0.33867 0.88067 0.0
C246 C 0.85275 0.30672 0.79055 0.0
C247 C 0.93531 0.37488 0.80547 0.0
O248 O 0.88454 0.32966 0.85165 0.0
O249 O 0.8914 0.35955 0.88448 0.0
O250 O 0.88104 0.35682 0.7645 0.0
O251 O 0.88379 0.36796 0.81695 0.0
Co252 Co 0.14039 0.46867 0.69697 0.0
O253 O 0.17289 0.482 0.69688 0.0
O254 O 0.14918 0.44802 0.71687 0.0
C255 C 0.14029 0.49985 0.71659 0.0
O256 O 0.10586 0.44976 0.70328 0.0
Co257 Co 0.11704 0.4883 0.65186 0.0
O258 O 0.08911 0.46651 0.67615 0.0
C259 C 0.13849 0.46446 0.62103 0.0
C260 C 0.17004 0.4637 0.71135 0.0
C261 C 0.08818 0.45114 0.69551 0.0
O262 O 0.13897 0.45599 0.64995 0.0
O263 O 0.13282 0.47959 0.61736 0.0
O264 O 0.14202 0.48609 0.73751 0.0
O265 O 0.14038 0.49522 0.68505 0.0
Co266 Co 0.6775 0.1349 0.69643 0.0
O267 O 0.69611 0.1675 0.6942 0.0
O268 O 0.70719 0.14486 0.71599 0.0
C269 C 0.64598 0.13449 0.71589 0.0
O270 O 0.66288 0.10066 0.70545 0.0
Co271 Co 0.63364 0.10847 0.6536 0.0
O272 O 0.62848 0.08217 0.68105 0.0
C273 C 0.67831 0.12603 0.62094 0.0
C274 C 0.71187 0.16542 0.70927 0.0
C275 C 0.64381 0.08245 0.69974 0.0
O276 O 0.68851 0.13226 0.64971 0.0
O277 O 0.65696 0.11758 0.61727 0.0
O278 O 0.66209 0.13759 0.73657 0.0
O279 O 0.65016 0.13348 0.68434 0.0
Co280 Co 0.54978 0.67352 0.69403 0.0
O281 O 0.53549 0.69186 0.69448 0.0
O282 O 0.56983 0.70304 0.71398 0.0
C283 C 0.51903 0.64177 0.71356 0.0
O284 O 0.56968 0.659 0.70051 0.0
Co285 Co 0.53176 0.63023 0.64992 0.0
O286 O 0.55307 0.6246 0.67615 0.0
C287 C 0.55869 0.67523 0.61815 0.0
C288 C 0.55358 0.70748 0.70916 0.0
C289 C 0.56857 0.63987 0.69434 0.0
O290 O 0.56261 0.68519 0.64712 0.0
O291 O 0.54597 0.65389 0.61411 0.0
O292 O 0.53255 0.65742 0.73445 0.0
O293 O 0.52363 0.64639 0.68196 0.0
Co294 Co 0.88232 0.54567 0.69577 0.0
O295 O 0.84989 0.53274 0.69468 0.0
O296 O 0.87364 0.56634 0.71579 0.0
C297 C 0.88166 0.51408 0.71516 0.0
O298 O 0.91683 0.56399 0.70323 0.0
Co299 Co 0.90585 0.52561 0.65128 0.0
O300 O 0.9312 0.54288 0.68312 0.0
C301 C 0.88665 0.55151 0.61981 0.0
C302 C 0.85277 0.55084 0.70984 0.0
C303 C 0.93305 0.55949 0.7004 0.0
O304 O 0.88479 0.55899 0.6489 0.0
O305 O 0.8926 0.53659 0.61597 0.0
O306 O 0.87953 0.52759 0.73609 0.0
O307 O 0.88222 0.51912 0.68368 0.0
Co308 Co 0.34508 0.87802 0.69554 0.0
O309 O 0.32631 0.84545 0.69575 0.0
O310 O 0.31565 0.86892 0.71558 0.0
C311 C 0.37682 0.87904 0.71513 0.0
O312 O 0.36014 0.91249 0.70163 0.0
Co313 Co 0.38799 0.90198 0.64995 0.0
O314 O 0.39354 0.92973 0.67413 0.0
C315 C 0.3426 0.88005 0.61953 0.0
C316 C 0.31078 0.84813 0.71041 0.0
C317 C 0.37896 0.93036 0.69358 0.0
O318 O 0.33363 0.87926 0.64858 0.0
O319 O 0.36347 0.88604 0.61561 0.0
O320 O 0.36103 0.87662 0.73601 0.0
O321 O 0.37205 0.87881 0.68358 0.0
Co322 Co 0.47443 0.34118 0.70209 0.0
O323 O 0.48736 0.32169 0.70101 0.0
O324 O 0.45376 0.31182 0.72223 0.0
C325 C 0.50603 0.37218 0.7213 0.0
O326 O 0.45617 0.3575 0.70943 0.0
Co327 Co 0.49463 0.38435 0.65675 0.0
O328 O 0.47649 0.39236 0.68689 0.0
C329 C 0.46879 0.33909 0.62612 0.0
C330 C 0.46925 0.30644 0.71611 0.0
C331 C 0.46018 0.37798 0.7051 0.0
O332 O 0.46104 0.33013 0.65533 0.0
O333 O 0.48396 0.35982 0.62197 0.0
O334 O 0.49254 0.35659 0.74231 0.0
O335 O 0.50101 0.36755 0.68984 0.0
H336 H 0.44354 0.04449 0.16802 0.0
H337 H 0.43218 0.07693 0.25351 0.0
H338 H 0.42056 1.00767 0.19463 0.0
H339 H 0.4092 0.03987 0.28035 0.0
H340 H 0.4068 0.97611 0.33188 0.0
H341 H 0.42051 0.01257 0.30429 0.0
H342 H 0.38119 0.97886 0.21565 0.0
H343 H 0.36716 0.94207 0.24364 0.0
C344 C 0.43587 0.04375 0.19232 0.0
C345 C 0.43987 0.06372 0.20875 0.0
C346 C 0.42253 0.02258 0.20745 0.0
C347 C 0.41309 0.02081 0.23965 0.0
C348 C 0.41634 0.04069 0.25557 0.0
C349 C 0.42941 0.0619 0.24015 0.0
C350 C 0.40074 0.97645 0.3067 0.0
C351 C 0.38598 0.95617 0.28987 0.0
C352 C 0.4085 0.99739 0.29098 0.0
C353 C 0.40201 0.99865 0.25774 0.0
C354 C 0.38658 0.97843 0.24125 0.0
C355 C 0.37844 0.95739 0.25731 0.0
H356 H 0.42936 0.36136 0.258 0.0
H357 H 0.44994 0.41006 0.33919 0.0
H358 H 0.40723 0.37737 0.23317 0.0
H359 H 0.42819 0.4257 0.31462 0.0
H360 H 0.42394 0.46974 0.23026 0.0
H361 H 0.43822 0.44757 0.25763 0.0
H362 H 0.37295 0.38729 0.24691 0.0
H363 H 0.35828 0.40987 0.21933 0.0
C364 C 0.42883 0.3751 0.27087 0.0
C365 C 0.44183 0.3847 0.3002 0.0
C366 C 0.41612 0.38419 0.25674 0.0
C367 C 0.41625 0.40297 0.27179 0.0
C368 C 0.42802 0.41146 0.30221 0.0
C369 C 0.44058 0.40248 0.31619 0.0
C370 C 0.4125 0.45178 0.23377 0.0
C371 C 0.38994 0.44159 0.22266 0.0
C372 C 0.4207 0.43908 0.24955 0.0
C373 C 0.40672 0.4157 0.25443 0.0
C374 C 0.3841 0.40529 0.24332 0.0
C375 C 0.37568 0.41821 0.22788 0.0
H376 H 0.94518 0.36078 0.25439 0.0
H377 H 0.97899 0.40332 0.16832 0.0
H378 H 0.98201 0.37422 0.28184 0.0
H379 H 0.01549 0.41652 0.19544 0.0
H380 H 0.08034 0.4288 0.24536 0.0
H381 H 0.04356 0.40568 0.21759 0.0
H382 H 1.00981 0.41278 0.30514 0.0
H383 H 0.04624 0.43582 0.33255 0.0
C384 C 0.96046 0.3726 0.24105 0.0
C385 C 0.95914 0.38114 0.20934 0.0
C386 C 0.98152 0.38037 0.2568 0.0
C387 C 1.00169 0.39649 0.24084 0.0
C388 C 1.00036 0.40396 0.20831 0.0
C389 C 0.97938 0.39652 0.19289 0.0
C390 C 0.06502 0.42501 0.25885 0.0
C391 C 0.06622 0.43432 0.29099 0.0
C392 C 0.04398 0.41188 0.24293 0.0
C393 C 0.02375 0.40744 0.25915 0.0
C394 C 0.02498 0.41567 0.29206 0.0
C395 C 0.04593 0.42906 0.30765 0.0
H396 H 0.58527 0.97599 0.17245 0.0
H397 H 0.59072 0.942 0.26087 0.0
H398 H 0.60782 0.01245 0.20009 0.0
H399 H 0.61328 0.97879 0.28892 0.0
H400 H 0.61615 0.04423 0.33642 0.0
H401 H 0.60253 1.00746 0.30978 0.0
H402 H 0.64627 0.03989 0.22429 0.0
H403 H 0.66013 0.0769 0.25117 0.0
C404 C 0.5916 0.97634 0.19768 0.0
C405 C 0.58609 0.95607 0.21454 0.0
C406 C 0.60467 0.99729 0.21344 0.0
C407 C 0.61232 0.99857 0.24675 0.0
C408 C 0.60755 0.97835 0.26327 0.0
C409 C 0.59476 0.95731 0.24718 0.0
C410 C 0.62316 0.04355 0.31216 0.0
C411 C 0.63912 0.06357 0.29582 0.0
C412 C 0.61546 0.02241 0.29701 0.0
C413 C 0.62325 0.02072 0.26487 0.0
C414 C 0.63986 0.04065 0.24902 0.0
C415 C 0.64787 0.06183 0.26447 0.0
H416 H 0.58341 0.61435 0.33373 0.0
H417 H 0.5916 0.65492 0.24545 0.0
H418 H 0.60632 0.60032 0.30742 0.0
H419 H 0.61454 0.64064 0.21882 0.0
H420 H 0.6179 0.57866 0.17106 0.0
H421 H 0.60402 0.60172 0.19728 0.0
H422 H 0.64508 0.6107 0.28521 0.0
H423 H 0.65922 0.58762 0.2587 0.0
C424 C 0.5904 0.62055 0.30885 0.0
C425 C 0.58553 0.63567 0.29162 0.0
C426 C 0.60369 0.61261 0.29385 0.0
C427 C 0.61223 0.61928 0.26096 0.0
C428 C 0.60811 0.63508 0.24414 0.0
C429 C 0.59508 0.64336 0.25945 0.0
C430 C 0.62429 0.58584 0.19578 0.0
C431 C 0.63958 0.58114 0.21287 0.0
C432 C 0.61643 0.59922 0.21071 0.0
C433 C 0.62336 0.60802 0.24339 0.0
C434 C 0.63932 0.60406 0.26005 0.0
C435 C 0.64752 0.59095 0.24481 0.0
H436 H 0.08121 0.65583 0.25435 0.0
H437 H 0.04894 0.61232 0.16862 0.0
H438 H 0.04403 0.64192 0.28083 0.0
H439 H 1.01203 0.59864 0.19485 0.0
H440 H 0.94627 0.58629 0.24295 0.0
H441 H 0.98325 0.60919 0.21546 0.0
H442 H 0.01644 0.60339 0.3046 0.0
H443 H 0.97979 0.5805 0.33169 0.0
C444 C 0.0662 0.64367 0.24087 0.0
C445 C 0.06809 0.63505 0.20951 0.0
C446 C 0.04492 0.63563 0.25608 0.0
C447 C 0.02506 0.61912 0.23997 0.0
C448 C 0.02692 0.61149 0.20781 0.0
C449 C 0.04814 0.61922 0.1929 0.0
C450 C 0.96151 0.59032 0.25683 0.0
C451 C 0.9601 0.58145 0.28937 0.0
C452 C 0.98266 0.60331 0.24106 0.0
C453 C 1.0028 0.60808 0.25784 0.0
C454 C 1.00134 0.60025 0.29107 0.0
C455 C 0.98029 0.58697 0.30651 0.0
H456 H 0.58216 0.97263 0.83757 0.0
H457 H 0.59322 0.94003 0.75202 0.0
H458 H 0.60526 0.00942 0.81096 0.0
H459 H 0.61635 0.97706 0.72519 0.0
H460 H 0.61803 0.04039 0.67347 0.0
H461 H 0.6049 1.00409 0.70121 0.0
H462 H 0.64426 0.03837 0.78955 0.0
H463 H 0.6577 0.07502 0.7614 0.0
C464 C 0.58983 0.97334 0.81328 0.0
C465 C 0.58566 0.95333 0.7968 0.0
C466 C 0.60324 0.99449 0.79814 0.0
C467 C 0.61259 0.9962 0.76589 0.0
C468 C 0.60927 0.97628 0.74999 0.0
C469 C 0.59612 0.95509 0.76542 0.0
C470 C 0.62423 0.04022 0.69861 0.0
C471 C 0.6388 0.06061 0.71533 0.0
C472 C 0.61681 0.01936 0.71442 0.0
C473 C 0.62347 0.0183 0.74763 0.0
C474 C 0.63876 0.03865 0.76398 0.0
C475 C 0.64655 0.05961 0.74783 0.0
H476 H 0.61804 0.58097 0.8338 0.0
H477 H 0.65881 0.587 0.74662 0.0
H478 H 0.60465 0.60382 0.80574 0.0
H479 H 0.64513 0.6099 0.71818 0.0
H480 H 0.58264 0.61192 0.66887 0.0
H481 H 0.60598 0.59885 0.69628 0.0
H482 H 0.61572 0.64233 0.78145 0.0
H483 H 0.59234 0.65565 0.75372 0.0
C484 C 0.62442 0.58748 0.80877 0.0
C485 C 0.63936 0.58202 0.79232 0.0
C486 C 0.61686 0.60075 0.79279 0.0
C487 C 0.62376 0.60864 0.7597 0.0
C488 C 0.63944 0.60397 0.74367 0.0
C489 C 0.64735 0.59097 0.75997 0.0
C490 C 0.59006 0.61901 0.69321 0.0
C491 C 0.58546 0.6347 0.70925 0.0
C492 C 0.60361 0.61164 0.70879 0.0
C493 C 0.61267 0.61948 0.74109 0.0
C494 C 0.60888 0.6359 0.7566 0.0
C495 C 0.59559 0.6436 0.74068 0.0
H496 H 0.95544 0.54389 0.73717 0.0
H497 H 0.95994 0.60607 0.70339 0.0
H498 H 0.99333 0.56485 0.76041 0.0
H499 H 0.99886 0.62743 0.72548 0.0
H500 H 0.06369 0.65698 0.79647 0.0
H501 H 0.02497 0.64016 0.77384 0.0
H502 H 0.0299 0.58306 0.73736 0.0
H503 H 0.0676 0.59926 0.76107 0.0
C504 C 0.96462 0.56216 0.73483 0.0
C505 C 0.95483 0.57332 0.71825 0.0
C506 C 0.9865 0.57423 0.74783 0.0
C507 C 0.99959 0.59786 0.74394 0.0
C508 C 0.98937 0.60926 0.72883 0.0
C509 C 0.96709 0.59707 0.71622 0.0
C510 C 0.05648 0.641 0.78312 0.0
C511 C 0.0685 0.62927 0.78084 0.0
C512 C 0.03431 0.63133 0.77021 0.0
C513 C 0.02394 0.60988 0.75457 0.0
C514 C 0.03683 0.59914 0.75033 0.0
C515 C 0.05862 0.60855 0.7636 0.0
H516 H 0.43354 0.07433 0.74299 0.0
H517 H 0.43759 0.03994 0.83196 0.0
H518 H 0.41087 0.03761 0.71476 0.0
H519 H 0.41496 1.00357 0.80414 0.0
H520 H 0.36327 0.93935 0.75234 0.0
H521 H 0.37691 0.97633 0.77919 0.0
H522 H 0.4214 0.00884 0.69445 0.0
H523 H 0.40797 0.97214 0.66782 0.0
C524 C 0.42917 0.05895 0.75675 0.0
C525 C 0.43748 0.06003 0.78958 0.0
C526 C 0.41632 0.03795 0.74057 0.0
C527 C 0.41115 0.01765 0.7572 0.0
C528 C 0.41842 0.0188 0.7907 0.0
C529 C 0.43154 0.03969 0.80656 0.0
C530 C 0.37565 0.95443 0.73919 0.0
C531 C 0.38467 0.95273 0.70808 0.0
C532 C 0.38353 0.9756 0.75462 0.0
C533 C 0.40029 0.99554 0.73899 0.0
C534 C 0.40835 0.99389 0.70705 0.0
C535 C 0.40076 0.97278 0.69191 0.0
H536 H 0.41796 0.45101 0.83456 0.0
H537 H 0.36289 0.42135 0.76278 0.0
H538 H 0.43411 0.42974 0.80987 0.0
H539 H 0.37939 0.39967 0.73801 0.0
H540 H 0.41562 0.35342 0.72749 0.0
H541 H 0.39336 0.36855 0.75481 0.0
H542 H 0.45113 0.4359 0.7489 0.0
H543 H 0.47299 0.42121 0.72174 0.0
C544 C 0.40909 0.43977 0.81369 0.0
C545 C 0.38923 0.43828 0.80036 0.0
C546 C 0.4184 0.42751 0.7996 0.0
C547 C 0.40816 0.41322 0.77182 0.0
C548 C 0.38759 0.41053 0.75953 0.0
C549 C 0.37821 0.423 0.77364 0.0
C550 C 0.42349 0.37143 0.73211 0.0
C551 C 0.4461 0.38607 0.72236 0.0
C552 C 0.41071 0.38008 0.74749 0.0
C553 C 0.42055 0.40341 0.75404 0.0
C554 C 0.44311 0.41786 0.74438 0.0
C555 C 0.45562 0.40938 0.72866 0.0
H556 H 0.07886 0.42753 0.75535 0.0
H557 H 0.04655 0.4382 0.66914 0.0
H558 H 0.04172 0.4048 0.78224 0.0
H559 H 1.00967 0.41546 0.69575 0.0
H560 H 0.94403 0.36183 0.74405 0.0
H561 H 0.98106 0.37619 0.71674 0.0
H562 H 0.01385 0.4157 0.80563 0.0
H563 H 0.9771 0.40164 0.83263 0.0
C564 C 0.06385 0.42467 0.74185 0.0
C565 C 0.06572 0.43483 0.7102 0.0
C566 C 0.04259 0.41175 0.75732 0.0
C567 C 0.02272 0.40834 0.74115 0.0
C568 C 0.02456 0.41755 0.70877 0.0
C569 C 0.04576 0.43074 0.69363 0.0
C570 C 0.95918 0.37324 0.75795 0.0
C571 C 0.95758 0.38069 0.79042 0.0
C572 C 0.98037 0.38156 0.74225 0.0
C573 C 1.00042 0.39714 0.75899 0.0
C574 C 0.99882 0.40359 0.79213 0.0
C575 C 0.97769 0.39562 0.80752 0.0
H576 H 0.43336 0.16834 0.24287 0.0
H577 H 0.50164 0.21261 0.20799 0.0
H578 H 0.43174 0.20126 0.26444 0.0
H579 H 0.49998 0.24518 0.22923 0.0
H580 H 0.43349 0.27155 0.26726 0.0
H581 H 0.43213 0.23708 0.2459 0.0
H582 H 0.49923 0.26038 0.28519 0.0
H583 H 0.50064 0.29452 0.30622 0.0
C584 C 0.44795 0.18505 0.23961 0.0
C585 C 0.46767 0.18778 0.22384 0.0
C586 C 0.44698 0.20392 0.25185 0.0
C587 C 0.46581 0.22588 0.2489 0.0
C588 C 0.4853 0.22852 0.23251 0.0
C589 C 0.48619 0.20979 0.22012 0.0
C590 C 0.44786 0.2692 0.2715 0.0
C591 C 0.46722 0.2859 0.28832 0.0
C592 C 0.44706 0.24942 0.25936 0.0
C593 C 0.46568 0.24605 0.26348 0.0
C594 C 0.48474 0.26256 0.281 0.0
C595 C 0.48548 0.28213 0.29327 0.0
H596 H 0.17173 0.42909 0.26488 0.0
H597 H 0.21536 0.49729 0.30031 0.0
H598 H 0.20492 0.42778 0.2439 0.0
H599 H 0.24828 0.49596 0.27952 0.0
H600 H 0.27487 0.4294 0.24197 0.0
H601 H 0.24047 0.42823 0.26321 0.0
H602 H 0.26408 0.49533 0.22372 0.0
H603 H 0.2982 0.49653 0.2027 0.0
C604 C 0.18838 0.44373 0.26841 0.0
C605 C 0.19083 0.46332 0.28418 0.0
C606 C 0.2074 0.44295 0.25648 0.0
C607 C 0.22929 0.46184 0.25972 0.0
C608 C 0.23169 0.48123 0.27608 0.0
C609 C 0.21277 0.48193 0.28822 0.0
C610 C 0.27261 0.44382 0.23765 0.0
C611 C 0.28937 0.46309 0.22071 0.0
C612 C 0.25287 0.44312 0.24973 0.0
C613 C 0.24959 0.46178 0.24548 0.0
C614 C 0.26619 0.48081 0.22797 0.0
C615 C 0.28573 0.48143 0.21568 0.0
H616 H 0.72582 0.21258 0.29686 0.0
H617 H 0.75 0.16842 0.26217 0.0
H618 H 0.76018 0.24523 0.27604 0.0
H619 H 0.78463 0.20139 0.24099 0.0
H620 H 0.85325 0.27105 0.23902 0.0
H621 H 0.81983 0.23669 0.2598 0.0
H622 H 0.77685 0.26113 0.22095 0.0
H623 H 0.80997 0.29524 0.20053 0.0
C624 C 0.73851 0.20981 0.28484 0.0
C625 C 0.73505 0.1878 0.28109 0.0
C626 C 0.7582 0.22858 0.27268 0.0
C627 C 0.77513 0.22599 0.25649 0.0
C628 C 0.77199 0.20403 0.25343 0.0
C629 C 0.75211 0.18513 0.26546 0.0
C630 C 0.83664 0.26899 0.23477 0.0
C631 C 0.83434 0.28599 0.21824 0.0
C632 C 0.81748 0.24926 0.24657 0.0
C633 C 0.79562 0.24621 0.24237 0.0
C634 C 0.7934 0.26304 0.22519 0.0
C635 C 0.81245 0.2826 0.21327 0.0
H636 H 0.5908 0.84997 0.24194 0.0
H637 H 0.52332 0.80701 0.2033 0.0
H638 H 0.59182 0.81639 0.26166 0.0
H639 H 0.52439 0.77374 0.22267 0.0
H640 H 0.52224 0.72179 0.29635 0.0
H641 H 0.52373 0.75633 0.27696 0.0
H642 H 0.5921 0.78158 0.24157 0.0
H643 H 0.59066 0.74678 0.26132 0.0
C644 C 0.57626 0.8334 0.23746 0.0
C645 C 0.55694 0.83124 0.22116 0.0
C646 C 0.57688 0.81415 0.24864 0.0
C647 C 0.55811 0.79232 0.24406 0.0
C648 C 0.53901 0.79025 0.22719 0.0
C649 C 0.53845 0.80939 0.21587 0.0
C650 C 0.53767 0.73469 0.28457 0.0
C651 C 0.5563 0.73141 0.28029 0.0
C652 C 0.53847 0.75449 0.27322 0.0
C653 C 0.55796 0.77171 0.25736 0.0
C654 C 0.57685 0.76873 0.25379 0.0
C655 C 0.576 0.74875 0.265 0.0
H656 H 0.75091 0.58653 0.24267 0.0
H657 H 0.72592 0.51808 0.20802 0.0
H658 H 0.78573 0.588 0.26247 0.0
H659 H 0.76046 0.5196 0.22748 0.0
H660 H 0.81102 0.51921 0.30133 0.0
H661 H 0.77779 0.52035 0.28191 0.0
H662 H 0.82059 0.58764 0.24249 0.0
H663 H 0.85414 0.58655 0.26225 0.0
C664 C 0.75288 0.57187 0.23908 0.0
C665 C 0.73553 0.55215 0.22389 0.0
C666 C 0.77287 0.57274 0.25032 0.0
C667 C 0.77585 0.55384 0.24689 0.0
C668 C 0.75863 0.53434 0.23111 0.0
C669 C 0.73882 0.53353 0.21973 0.0
C670 C 0.81344 0.53434 0.28867 0.0
C671 C 0.83533 0.55276 0.28326 0.0
C672 C 0.79433 0.53493 0.27731 0.0
C673 C 0.79645 0.55399 0.26029 0.0
C674 C 0.81831 0.57271 0.25562 0.0
C675 C 0.83754 0.57206 0.26684 0.0
H676 H 0.21726 0.72212 0.20642 0.0
H677 H 0.17302 0.74631 0.24071 0.0
H678 H 0.24993 0.75671 0.22654 0.0
H679 H 0.20598 0.78116 0.26116 0.0
H680 H 0.29999 0.80714 0.30139 0.0
H681 H 0.26592 0.77381 0.28145 0.0
H682 H 0.24117 0.81629 0.24159 0.0
H683 H 0.2755 0.84993 0.26187 0.0
C684 C 0.21448 0.73486 0.21818 0.0
C685 C 0.19244 0.73134 0.22204 0.0
C686 C 0.23326 0.75469 0.22994 0.0
C687 C 0.23063 0.77169 0.24581 0.0
C688 C 0.20864 0.76847 0.24895 0.0
C689 C 0.18974 0.74846 0.23734 0.0
C690 C 0.28729 0.80947 0.28853 0.0
C691 C 0.29059 0.83128 0.28313 0.0
C692 C 0.26776 0.7903 0.27687 0.0
C693 C 0.25085 0.79231 0.25956 0.0
C694 C 0.2538 0.8141 0.25493 0.0
C695 C 0.27351 0.83338 0.26644 0.0
H696 H 0.5189 0.71227 0.73239 0.0
H697 H 0.59079 0.75015 0.71427 0.0
H698 H 0.51978 0.7459 0.75376 0.0
H699 H 0.59168 0.78476 0.73282 0.0
H700 H 0.5901 0.84164 0.79216 0.0
H701 H 0.59083 0.80787 0.77334 0.0
H702 H 0.52088 0.77821 0.7419 0.0
H703 H 0.51993 0.81087 0.76361 0.0
C704 C 0.5349 0.72803 0.73241 0.0
C705 C 0.55474 0.72859 0.72147 0.0
C706 C 0.53545 0.74757 0.74439 0.0
C707 C 0.55575 0.76862 0.74467 0.0
C708 C 0.57569 0.76907 0.73362 0.0
C709 C 0.57522 0.74923 0.72264 0.0
C710 C 0.57492 0.82772 0.78139 0.0
C711 C 0.55489 0.82873 0.77974 0.0
C712 C 0.57531 0.80833 0.77026 0.0
C713 C 0.55582 0.78974 0.75623 0.0
C714 C 0.53608 0.79143 0.75361 0.0
C715 C 0.53553 0.81039 0.76576 0.0
H716 H 0.72553 0.51919 0.80274 0.0
H717 H 0.74974 0.58709 0.76611 0.0
H718 H 0.75969 0.52045 0.78166 0.0
H719 H 0.78411 0.58831 0.74479 0.0
H720 H 0.85244 0.58664 0.74175 0.0
H721 H 0.81944 0.58806 0.76351 0.0
H722 H 0.7755 0.5206 0.72563 0.0
H723 H 0.80815 0.51915 0.70415 0.0
C724 C 0.7382 0.53447 0.79033 0.0
C725 C 0.7348 0.55301 0.78604 0.0
C726 C 0.75776 0.53513 0.77803 0.0
C727 C 0.77459 0.5544 0.76121 0.0
C728 C 0.77154 0.57324 0.75773 0.0
C729 C 0.7518 0.5725 0.76985 0.0
C730 C 0.8357 0.5722 0.73791 0.0
C731 C 0.83299 0.55276 0.72131 0.0
C732 C 0.81679 0.57303 0.75029 0.0
C733 C 0.79481 0.55434 0.74666 0.0
C734 C 0.79217 0.53515 0.72944 0.0
C735 C 0.81095 0.53439 0.71689 0.0
H736 H 0.27388 0.84757 0.74004 0.0
H737 H 0.29864 0.80361 0.70676 0.0
H738 H 0.23927 0.81457 0.76118 0.0
H739 H 0.26431 0.77092 0.72762 0.0
H740 H 0.17092 0.74431 0.76274 0.0
H741 H 0.20425 0.7788 0.74198 0.0
H742 H 0.24763 0.75559 0.78329 0.0
H743 H 0.21464 0.7214 0.80377 0.0
C744 C 0.2719 0.8309 0.73704 0.0
C745 C 0.28912 0.82828 0.72182 0.0
C746 C 0.25204 0.81198 0.74905 0.0
C747 C 0.24907 0.79008 0.74641 0.0
C748 C 0.26615 0.78754 0.73062 0.0
C749 C 0.28583 0.80633 0.71844 0.0
C750 C 0.18759 0.74669 0.76757 0.0
C751 C 0.19005 0.72999 0.78479 0.0
C752 C 0.20669 0.76648 0.75577 0.0
C753 C 0.22864 0.76988 0.76063 0.0
C754 C 0.23101 0.75338 0.77854 0.0
C755 C 0.21203 0.73379 0.7905 0.0
H756 H 0.50095 0.29358 0.70978 0.0
H757 H 0.43324 0.26985 0.74714 0.0
H758 H 0.4993 0.25909 0.72961 0.0
H759 H 0.43162 0.235 0.76726 0.0
H760 H 0.43261 0.16612 0.7659 0.0
H761 H 0.43144 0.19971 0.74664 0.0
H762 H 0.49912 0.24235 0.78473 0.0
H763 H 0.50033 0.20906 0.80373 0.0
C764 C 0.48562 0.28096 0.72216 0.0
C765 C 0.46725 0.2846 0.72696 0.0
C766 C 0.48475 0.26119 0.73375 0.0
C767 C 0.46543 0.24432 0.75039 0.0
C768 C 0.44675 0.24762 0.75447 0.0
C769 C 0.44769 0.26761 0.74304 0.0
C770 C 0.44717 0.18269 0.77033 0.0
C771 C 0.46661 0.18485 0.78622 0.0
C772 C 0.44646 0.20194 0.75941 0.0
C773 C 0.46526 0.22375 0.76383 0.0
C774 C 0.48446 0.22583 0.78038 0.0
C775 C 0.4851 0.20669 0.79148 0.0
H776 H 0.17057 0.42771 0.74247 0.0
H777 H 0.2146 0.49505 0.70403 0.0
H778 H 0.20382 0.42598 0.7623 0.0
H779 H 0.24744 0.49326 0.72348 0.0
H780 H 0.2744 0.42759 0.76286 0.0
H781 H 0.23948 0.4258 0.74235 0.0
H782 H 0.26335 0.49353 0.77927 0.0
H783 H 0.29781 0.49538 0.79937 0.0
C784 C 0.18729 0.44205 0.73804 0.0
C785 C 0.18987 0.46158 0.72187 0.0
C786 C 0.20633 0.44101 0.74927 0.0
C787 C 0.22831 0.45958 0.74483 0.0
C788 C 0.23078 0.4788 0.72789 0.0
C789 C 0.21189 0.47978 0.71657 0.0
C790 C 0.27207 0.44202 0.76669 0.0
C791 C 0.28902 0.46168 0.78256 0.0
C792 C 0.25205 0.44096 0.75506 0.0
C793 C 0.24871 0.45963 0.75879 0.0
C794 C 0.26549 0.479 0.77536 0.0
C795 C 0.28527 0.48 0.78708 0.0
H796 H 0.80828 0.29465 0.79599 0.0
H797 H 0.85168 0.26985 0.76006 0.0
H798 H 0.77523 0.26033 0.77601 0.0
H799 H 0.81834 0.23529 0.73975 0.0
H800 H 0.74883 0.16693 0.73996 0.0
H801 H 0.7834 0.20046 0.75968 0.0
H802 H 0.75836 0.24312 0.72159 0.0
H803 H 0.72399 0.20983 0.70219 0.0
C804 C 0.8108 0.28184 0.78388 0.0
C805 C 0.8327 0.2851 0.77956 0.0
C806 C 0.7918 0.26217 0.77219 0.0
C807 C 0.79407 0.24507 0.75594 0.0
C808 C 0.81594 0.24805 0.75227 0.0
C809 C 0.83506 0.26789 0.76381 0.0
C810 C 0.75079 0.18348 0.73564 0.0
C811 C 0.73355 0.18564 0.7196 0.0
C812 C 0.77065 0.20271 0.74683 0.0
C813 C 0.77362 0.22452 0.74252 0.0
C814 C 0.75653 0.22661 0.72588 0.0
C815 C 0.73683 0.20747 0.71453 0.0
H816 H 0.42684 0.11312 0.09522 0.0
H817 H 0.49355 0.1691 0.0749 0.0
H818 H 0.41674 0.11256 0.03556 0.0
H819 H 0.48364 0.1688 0.01573 0.0
H820 H 0.46592 0.16404 0.90894 0.0
H821 H 0.46059 0.17089 0.96829 0.0
H822 H 0.43274 0.09977 0.98959 0.0
H823 H 0.4383 0.09318 0.93085 0.0
C824 C 0.43892 0.12601 0.07833 0.0
C825 C 0.46092 0.14121 0.08949 0.0
C826 C 0.43324 0.12559 0.04415 0.0
C827 C 0.44946 0.1405 0.02078 0.0
C828 C 0.47065 0.15723 0.03296 0.0
C829 C 0.47638 0.15742 0.06689 0.0
C830 C 0.45773 0.1498 0.92609 0.0
C831 C 0.45252 0.1281 0.9155 0.0
C832 C 0.45483 0.15372 0.96009 0.0
C833 C 0.44642 0.13591 0.98377 0.0
C834 C 0.43904 0.11384 0.97211 0.0
C835 C 0.44228 0.11004 0.93842 0.0
H836 H 0.32278 0.42307 0.91036 0.0
H837 H 0.33375 0.48976 0.93159 0.0
H838 H 0.31247 0.41243 0.96973 0.0
H839 H 0.32331 0.47929 0.99041 0.0
H840 H 0.30905 0.46107 0.09634 0.0
H841 H 0.29721 0.45566 0.0369 0.0
H842 H 0.3409 0.42812 0.01654 0.0
H843 H 0.35275 0.43378 0.07541 0.0
C844 C 0.32189 0.43505 0.92736 0.0
C845 C 0.32901 0.4572 0.91659 0.0
C846 C 0.31617 0.42905 0.96137 0.0
C847 C 0.31725 0.44507 0.98489 0.0
C848 C 0.32204 0.46644 0.97303 0.0
C849 C 0.32809 0.4725 0.93932 0.0
C850 C 0.31523 0.45288 0.0794 0.0
C851 C 0.33182 0.44787 0.09027 0.0
C852 C 0.30861 0.44994 0.04535 0.0
C853 C 0.31828 0.44167 0.02189 0.0
C854 C 0.33294 0.43433 0.03386 0.0
C855 C 0.3398 0.43761 0.06762 0.0
H856 H 0.85266 0.33099 0.92562 0.0
H857 H 0.90743 0.31805 0.90706 0.0
H858 H 0.85158 0.3206 0.98469 0.0
H859 H 0.90657 0.30765 0.96668 0.0
H860 H 0.92519 0.34695 0.07264 0.0
H861 H 0.9194 0.33545 0.01363 0.0
H862 H 0.84748 0.29466 0.03165 0.0
H863 H 0.85353 0.30625 0.09125 0.0
C864 C 0.86379 0.32491 0.93399 0.0
C865 C 0.88006 0.32523 0.91193 0.0
C866 C 0.86317 0.31888 0.96786 0.0
C867 C 0.87914 0.31348 0.98056 0.0
C868 C 0.89412 0.31185 0.95769 0.0
C869 C 0.89452 0.31761 0.92355 0.0
C870 C 0.90828 0.33469 0.0643 0.0
C871 C 0.88981 0.32745 0.08635 0.0
C872 C 0.90492 0.32803 0.03045 0.0
C873 C 0.88293 0.3143 0.01776 0.0
C874 C 0.86462 0.30536 0.04064 0.0
C875 C 0.86806 0.31181 0.07477 0.0
H876 H 0.55491 0.84996 0.09571 0.0
H877 H 0.58681 0.92145 0.07538 0.0
H878 H 0.55946 0.84301 0.0361 0.0
H879 H 0.59161 0.91475 0.01632 0.0
H880 H 0.59592 0.90082 0.90983 0.0
H881 H 0.60578 0.90053 0.96944 0.0
H882 H 0.53728 0.84744 0.98947 0.0
H883 H 0.52761 0.84802 0.93041 0.0
C884 C 0.5639 0.86425 0.07884 0.0
C885 C 0.57057 0.88623 0.08998 0.0
C886 C 0.56634 0.86029 0.0447 0.0
C887 C 0.57572 0.8783 0.02136 0.0
C888 C 0.58454 0.9005 0.03353 0.0
C889 C 0.58177 0.90438 0.0674 0.0
C890 C 0.58336 0.88842 0.92677 0.0
C891 C 0.56105 0.87439 0.91569 0.0
C892 C 0.58891 0.88836 0.9609 0.0
C893 C 0.57227 0.87409 0.9843 0.0
C894 C 0.55059 0.85848 0.9722 0.0
C895 C 0.54499 0.85881 0.93835 0.0
H896 H 0.68727 0.52442 0.07763 0.0
H897 H 0.70236 0.59267 0.09735 0.0
H898 H 0.69778 0.53394 0.0186 0.0
H899 H 0.71279 0.60239 0.03774 0.0
H900 H 0.67375 0.5831 0.93118 0.0
H901 H 0.68487 0.58814 0.99039 0.0
H902 H 0.72467 0.55597 0.97224 0.0
H903 H 0.71353 0.55116 0.91249 0.0
C904 C 0.6938 0.54175 0.06951 0.0
C905 C 0.69409 0.55783 0.09191 0.0
C906 C 0.69989 0.54727 0.03567 0.0
C907 C 0.70597 0.5689 0.02333 0.0
C908 C 0.7081 0.58556 0.04647 0.0
C909 C 0.70231 0.58008 0.08061 0.0
C910 C 0.68575 0.57811 0.93955 0.0
C911 C 0.69285 0.56682 0.91739 0.0
C912 C 0.69218 0.58101 0.9735 0.0
C913 C 0.70548 0.57225 0.98618 0.0
C914 C 0.7143 0.5628 0.96325 0.0
C915 C 0.70812 0.56021 0.92902 0.0
H916 H 0.16838 0.70924 0.90893 0.0
H917 H 0.09752 0.6649 0.92995 0.0
H918 H 0.17475 0.72094 0.96847 0.0
H919 H 0.10365 0.67662 0.9889 0.0
H920 H 0.11659 0.69593 0.09491 0.0
H921 H 0.11603 0.70544 0.0352 0.0
H922 H 0.1726 0.69524 0.01557 0.0
H923 H 0.17287 0.68559 0.07476 0.0
C924 C 0.15402 0.70285 0.92594 0.0
C925 C 0.13248 0.68618 0.91502 0.0
C926 C 0.15767 0.70938 0.96004 0.0
C927 C 0.13974 0.69957 0.98352 0.0
C928 C 0.1178 0.68471 0.97156 0.0
C929 C 0.11426 0.67792 0.93777 0.0
C930 C 0.12953 0.69681 0.07804 0.0
C931 C 0.14484 0.69015 0.08927 0.0
C932 C 0.12911 0.70205 0.04385 0.0
C933 C 0.14416 0.70092 0.02055 0.0
C934 C 0.16094 0.69653 0.03277 0.0
C935 C 0.1611 0.69097 0.0667 0.0
H936 H 0.85335 0.52773 0.57519 0.0
H937 H 0.91084 0.5939 0.59291 0.0
H938 H 0.85291 0.53711 0.51597 0.0
H939 H 0.91057 0.60355 0.5332 0.0
H940 H 0.92735 0.58147 0.42743 0.0
H941 H 0.92197 0.58758 0.48642 0.0
H942 H 0.85035 0.55927 0.46857 0.0
H943 H 0.85599 0.55325 0.40898 0.0
C944 C 0.86525 0.5447 0.5666 0.0
C945 C 0.88205 0.56014 0.58848 0.0
C946 C 0.86501 0.55014 0.53263 0.0
C947 C 0.88185 0.57103 0.51966 0.0
C948 C 0.89745 0.58726 0.54236 0.0
C949 C 0.89751 0.58186 0.57657 0.0
C950 C 0.91063 0.5775 0.43581 0.0
C951 C 0.89209 0.5669 0.41379 0.0
C952 C 0.90751 0.58105 0.46966 0.0
C953 C 0.88567 0.57369 0.48241 0.0
C954 C 0.86736 0.56497 0.45957 0.0
C955 C 0.87058 0.5617 0.42542 0.0
H956 H 0.33519 0.84797 0.57356 0.0
H957 H 0.32175 0.90216 0.59425 0.0
H958 H 0.32481 0.84757 0.51464 0.0
H959 H 0.31143 0.90203 0.53478 0.0
H960 H 0.35127 0.92208 0.42893 0.0
H961 H 0.33959 0.91556 0.48788 0.0
H962 H 0.29864 0.84395 0.46801 0.0
H963 H 0.31037 0.85072 0.40848 0.0
C964 C 0.32901 0.85912 0.56569 0.0
C965 C 0.32919 0.87504 0.58831 0.0
C966 C 0.32299 0.85888 0.53191 0.0
C967 C 0.31747 0.87491 0.51986 0.0
C968 C 0.31571 0.88953 0.54327 0.0
C969 C 0.32142 0.88951 0.57733 0.0
C970 C 0.33893 0.9051 0.43685 0.0
C971 C 0.33169 0.88691 0.41429 0.0
C972 C 0.33216 0.90132 0.47067 0.0
C973 C 0.31835 0.87919 0.4828 0.0
C974 C 0.3094 0.86118 0.45944 0.0
C975 C 0.31594 0.86504 0.42534 0.0
H976 H 0.49243 0.32888 0.58217 0.0
H977 H 0.42643 0.32089 0.59912 0.0
H978 H 0.48312 0.31861 0.52309 0.0
H979 H 0.41683 0.31052 0.53953 0.0
H980 H 0.43973 0.34902 0.43356 0.0
H981 H 0.43303 0.33752 0.49251 0.0
H982 H 0.46114 0.29391 0.4758 0.0
H983 H 0.4678 0.30562 0.41627 0.0
C984 C 0.47551 0.32387 0.57346 0.0
C985 C 0.46011 0.32557 0.59505 0.0
C986 C 0.4701 0.31792 0.53957 0.0
C987 C 0.44928 0.31395 0.52638 0.0
C988 C 0.43307 0.31363 0.54885 0.0
C989 C 0.43844 0.31936 0.583 0.0
C990 C 0.44351 0.33618 0.44217 0.0
C991 C 0.45426 0.32819 0.42052 0.0
C992 C 0.43962 0.32951 0.476 0.0
C993 C 0.44679 0.31497 0.48908 0.0
C994 C 0.45559 0.30528 0.46655 0.0
C995 C 0.45923 0.31179 0.43243 0.0
H996 H 0.17126 0.4894 0.57612 0.0
H997 H 0.11625 0.42184 0.59449 0.0
H998 H 0.17237 0.48008 0.51705 0.0
H999 H 0.11711 0.41231 0.53486 0.0
H1000 H 0.09896 0.43349 0.4288 0.0
H1001 H 0.10453 0.42762 0.48785 0.0
H1002 H 0.17641 0.45801 0.47017 0.0
H1003 H 0.1706 0.46369 0.41054 0.0
C1004 C 0.16007 0.47221 0.56771 0.0
C1005 C 0.14373 0.45632 0.58972 0.0
C1006 C 0.16071 0.46681 0.53384 0.0
C1007 C 0.14469 0.44549 0.52109 0.0
C1008 C 0.12961 0.42891 0.5439 0.0
C1009 C 0.12921 0.43427 0.57805 0.0
C1010 C 0.1158 0.43793 0.43722 0.0
C1011 C 0.13435 0.449 0.41526 0.0
C1012 C 0.11903 0.43454 0.47109 0.0
C1013 C 0.14097 0.44256 0.48388 0.0
C1014 C 0.15933 0.45176 0.4611 0.0
C1015 C 0.15601 0.45485 0.42694 0.0
H1016 H 0.68939 0.1689 0.42971 0.0
H1017 H 0.70194 0.11405 0.40979 0.0
H1018 H 0.69922 0.16906 0.48887 0.0
H1019 H 0.71171 0.11395 0.46947 0.0
H1020 H 0.67131 0.09416 0.57471 0.0
H1021 H 0.68313 0.1007 0.51581 0.0
H1022 H 0.72487 0.17217 0.53612 0.0
H1023 H 0.71302 0.16537 0.59562 0.0
C1024 C 0.6953 0.15757 0.4378 0.0
C1025 C 0.69502 0.14153 0.41531 0.0
C1026 C 0.70098 0.15765 0.47173 0.0
C1027 C 0.70605 0.14137 0.48404 0.0
C1028 C 0.70776 0.12664 0.46078 0.0
C1029 C 0.70238 0.1268 0.42659 0.0
C1030 C 0.68382 0.11111 0.56689 0.0
C1031 C 0.69129 0.12925 0.58959 0.0
C1032 C 0.69067 0.11489 0.5331 0.0
C1033 C 0.7048 0.13701 0.52111 0.0
C1034 C 0.71388 0.15495 0.54457 0.0
C1035 C 0.70727 0.15107 0.57865 0.0
H1036 H 0.52821 0.68372 0.42565 0.0
H1037 H 0.59663 0.69855 0.40794 0.0
H1038 H 0.53702 0.69408 0.48481 0.0
H1039 H 0.60566 0.70891 0.46768 0.0
H1040 H 0.58551 0.66975 0.57377 0.0
H1041 H 0.59117 0.68118 0.51471 0.0
H1042 H 0.55806 0.72021 0.53186 0.0
H1043 H 0.55255 0.70868 0.59148 0.0
C1044 C 0.54545 0.69018 0.43424 0.0
C1045 C 0.56176 0.6904 0.41237 0.0
C1046 C 0.55056 0.6962 0.46817 0.0
C1047 C 0.57201 0.70214 0.48114 0.0
C1048 C 0.58894 0.70428 0.45848 0.0
C1049 C 0.58387 0.69855 0.42427 0.0
C1050 C 0.5804 0.68162 0.56523 0.0
C1051 C 0.56865 0.68838 0.58705 0.0
C1052 C 0.58368 0.68824 0.53135 0.0
C1053 C 0.57486 0.70143 0.51839 0.0
C1054 C 0.56493 0.70992 0.54104 0.0
C1055 C 0.56193 0.70351 0.5752 0.0
H1056 H 0.54167 0.14572 0.17783 0.0
H1057 H 0.51367 0.12574 0.27804 0.0
H1058 H 0.57525 0.14467 0.19517 0.0
H1059 H 0.54672 0.12323 0.29517 0.0
H1060 H 0.61897 0.14548 0.32652 0.0
H1061 H 0.58443 0.14456 0.3091 0.0
H1062 H 0.59167 0.12332 0.20904 0.0
H1063 H 0.62715 0.1257 0.22628 0.0
C1064 C 0.54258 0.14076 0.20353 0.0
C1065 C 0.5251 0.13594 0.22665 0.0
C1066 C 0.56182 0.13995 0.21347 0.0
C1067 C 0.56395 0.13385 0.24668 0.0
C1068 C 0.54608 0.12849 0.26959 0.0
C1069 C 0.527 0.12976 0.25977 0.0
C1070 C 0.61315 0.14059 0.30079 0.0
C1071 C 0.62584 0.13578 0.2777 0.0
C1072 C 0.59315 0.13985 0.2908 0.0
C1073 C 0.58498 0.13383 0.25755 0.0
C1074 C 0.59752 0.12851 0.23465 0.0
C1075 C 0.61782 0.1297 0.24453 0.0
H1076 H 0.50011 0.63303 0.22208 0.0
H1077 H 0.4947 0.60561 0.32216 0.0
H1078 H 0.46592 0.59843 0.20518 0.0
H1079 H 0.46123 0.57069 0.30507 0.0
H1080 H 0.38776 0.522 0.2763 0.0
H1081 H 0.42273 0.55588 0.29269 0.0
H1082 H 0.4498 0.55975 0.19248 0.0
H1083 H 0.41447 0.52653 0.17586 0.0
C1084 C 0.4918 0.61946 0.24029 0.0
C1085 C 0.50004 0.62209 0.27346 0.0
C1086 C 0.47223 0.59953 0.23061 0.0
C1087 C 0.46059 0.58166 0.25378 0.0
C1088 C 0.46933 0.58418 0.2867 0.0
C1089 C 0.48869 0.60417 0.29645 0.0
C1090 C 0.40123 0.53008 0.25785 0.0
C1091 C 0.39832 0.52162 0.22479 0.0
C1092 C 0.42139 0.54947 0.26727 0.0
C1093 C 0.43925 0.56071 0.24393 0.0
C1094 C 0.43637 0.5519 0.211 0.0
C1095 C 0.41613 0.5327 0.20151 0.0
H1096 H 0.89677 0.50701 0.22505 0.0
H1097 H 0.87748 0.4789 0.32527 0.0
H1098 H 0.89881 0.47386 0.20715 0.0
H1099 H 0.87797 0.44515 0.30718 0.0
H1100 H 0.8966 0.39325 0.27479 0.0
H1101 H 0.8989 0.42856 0.29262 0.0
H1102 H 0.87773 0.43633 0.19284 0.0
H1103 H 0.87697 0.40196 0.17479 0.0
C1104 C 0.89278 0.49361 0.24315 0.0
C1105 C 0.88698 0.49554 0.27652 0.0
C1106 C 0.89376 0.47446 0.23289 0.0
C1107 C 0.88847 0.45652 0.25557 0.0
C1108 C 0.88266 0.45863 0.28902 0.0
C1109 C 0.88218 0.47797 0.29941 0.0
C1110 C 0.89259 0.40265 0.25672 0.0
C1111 C 0.88662 0.39486 0.22343 0.0
C1112 C 0.89373 0.42286 0.26695 0.0
C1113 C 0.8884 0.43551 0.24432 0.0
C1114 C 0.88244 0.42753 0.21095 0.0
C1115 C 0.8818 0.40763 0.20059 0.0
H1116 H 0.48377 0.87394 0.17775 0.0
H1117 H 0.51143 0.89327 0.27816 0.0
H1118 H 0.44999 0.87457 0.19533 0.0
H1119 H 0.47825 0.89545 0.29554 0.0
H1120 H 0.40619 0.87385 0.327 0.0
H1121 H 0.4406 0.87443 0.30948 0.0
H1122 H 0.43351 0.89568 0.20937 0.0
H1123 H 0.39816 0.89355 0.22667 0.0
C1124 C 0.48274 0.87867 0.20354 0.0
C1125 C 0.50019 0.88345 0.22663 0.0
C1126 C 0.46338 0.87924 0.21363 0.0
C1127 C 0.46114 0.8851 0.24697 0.0
C1128 C 0.47896 0.89037 0.26987 0.0
C1129 C 0.49813 0.8893 0.25991 0.0
C1130 C 0.41203 0.87866 0.30124 0.0
C1131 C 0.39944 0.88355 0.27815 0.0
C1132 C 0.43194 0.87919 0.29119 0.0
C1133 C 0.44011 0.88513 0.25789 0.0
C1134 C 0.42765 0.89053 0.235 0.0
C1135 C 0.40742 0.88949 0.24492 0.0
H1136 H 0.60935 0.49042 0.18328 0.0
H1137 H 0.63746 0.49601 0.28285 0.0
H1138 H 0.57438 0.45721 0.20109 0.0
H1139 H 0.60285 0.46209 0.30045 0.0
H1140 H 0.53131 0.41131 0.33173 0.0
H1141 H 0.56449 0.44637 0.31414 0.0
H1142 H 0.55894 0.4188 0.2139 0.0
H1143 H 0.52505 0.38411 0.23129 0.0
C1144 C 0.60806 0.4845 0.20902 0.0
C1145 C 0.62617 0.49584 0.23167 0.0
C1146 C 0.58803 0.46528 0.21919 0.0
C1147 C 0.58568 0.45669 0.2522 0.0
C1148 C 0.60379 0.4683 0.27498 0.0
C1149 C 0.62373 0.48772 0.26489 0.0
C1150 C 0.53709 0.4128 0.30586 0.0
C1151 C 0.52555 0.39493 0.28288 0.0
C1152 C 0.55628 0.43289 0.2958 0.0
C1153 C 0.56465 0.43555 0.26258 0.0
C1154 C 0.5529 0.41764 0.23953 0.0
C1155 C 0.5335 0.39764 0.24952 0.0
H1156 H 0.15018 0.63255 0.27991 0.0
H1157 H 0.12926 0.60554 0.17941 0.0
H1158 H 0.149 0.59765 0.29722 0.0
H1159 H 0.12704 0.57032 0.19688 0.0
H1160 H 0.12735 0.52558 0.32701 0.0
H1161 H 0.1259 0.55907 0.30975 0.0
H1162 H 0.14984 0.55475 0.21031 0.0
H1163 H 0.15025 0.52062 0.22733 0.0
C1164 C 0.14501 0.61902 0.26166 0.0
C1165 C 0.13992 0.62185 0.22828 0.0
C1166 C 0.1442 0.59891 0.27159 0.0
C1167 C 0.13801 0.58104 0.24845 0.0
C1168 C 0.13236 0.58379 0.21527 0.0
C1169 C 0.13345 0.60396 0.20528 0.0
C1170 C 0.13214 0.5317 0.30138 0.0
C1171 C 0.1389 0.52044 0.27851 0.0
C1172 C 0.13149 0.55106 0.29152 0.0
C1173 C 0.13787 0.55985 0.25863 0.0
C1174 C 0.14444 0.54837 0.23568 0.0
C1175 C 0.14481 0.52883 0.24545 0.0
H1176 H 0.50043 0.8719 0.72453 0.0
H1177 H 0.49499 0.89409 0.82446 0.0
H1178 H 0.46645 0.87262 0.70736 0.0
H1179 H 0.46174 0.8959 0.8071 0.0
H1180 H 0.38821 0.87116 0.77792 0.0
H1181 H 0.42332 0.87265 0.79477 0.0
H1182 H 0.45027 0.89492 0.69424 0.0
H1183 H 0.4148 0.89234 0.67721 0.0
C1184 C 0.49218 0.8773 0.74264 0.0
C1185 C 0.50031 0.88282 0.77586 0.0
C1186 C 0.47272 0.87784 0.73281 0.0
C1187 C 0.46111 0.8842 0.75586 0.0
C1188 C 0.4698 0.8904 0.78881 0.0
C1189 C 0.48904 0.88956 0.79872 0.0
C1190 C 0.4017 0.87647 0.75953 0.0
C1191 C 0.39869 0.88153 0.72624 0.0
C1192 C 0.42194 0.87747 0.76919 0.0
C1193 C 0.43979 0.88386 0.74588 0.0
C1194 C 0.43685 0.88947 0.71277 0.0
C1195 C 0.41653 0.88817 0.70303 0.0
H1196 H 0.63702 0.49546 0.72974 0.0
H1197 H 0.60917 0.49102 0.82931 0.0
H1198 H 0.60255 0.46111 0.71314 0.0
H1199 H 0.57432 0.45732 0.81245 0.0
H1200 H 0.52545 0.38362 0.78402 0.0
H1201 H 0.5592 0.41868 0.80067 0.0
H1202 H 0.56408 0.44521 0.69984 0.0
H1203 H 0.53108 0.40983 0.68303 0.0
C1204 C 0.62338 0.48731 0.74792 0.0
C1205 C 0.62585 0.4959 0.78084 0.0
C1206 C 0.60352 0.46765 0.73839 0.0
C1207 C 0.58552 0.45625 0.76145 0.0
C1208 C 0.5879 0.46526 0.79417 0.0
C1209 C 0.60785 0.48474 0.80378 0.0
C1210 C 0.53373 0.397 0.76552 0.0
C1211 C 0.52565 0.39391 0.73221 0.0
C1212 C 0.55303 0.41721 0.77506 0.0
C1213 C 0.56455 0.43491 0.75161 0.0
C1214 C 0.55605 0.43188 0.71847 0.0
C1215 C 0.53696 0.41161 0.70886 0.0
H1216 H 0.14985 0.61448 0.82763 0.0
H1217 H 0.13045 0.62278 0.72725 0.0
H1218 H 0.14889 0.57988 0.8102 0.0
H1219 H 0.12798 0.58729 0.71003 0.0
H1220 H 0.14906 0.5365 0.67871 0.0
H1221 H 0.14892 0.5705 0.69622 0.0
H1222 H 0.12728 0.54219 0.79629 0.0
H1223 H 0.12891 0.50868 0.77897 0.0
C1224 C 0.14508 0.60869 0.80186 0.0
C1225 C 0.14037 0.6214 0.77873 0.0
C1226 C 0.14431 0.58867 0.79187 0.0
C1227 C 0.13832 0.58051 0.7586 0.0
C1228 C 0.13316 0.59313 0.73565 0.0
C1229 C 0.13442 0.61345 0.74551 0.0
C1230 C 0.14425 0.53754 0.70446 0.0
C1231 C 0.13908 0.51996 0.72752 0.0
C1232 C 0.14397 0.55704 0.71451 0.0
C1233 C 0.13804 0.55933 0.74777 0.0
C1234 C 0.13241 0.54141 0.77066 0.0
C1235 C 0.13316 0.52206 0.76073 0.0
H1236 H 0.60776 0.12133 0.67873 0.0
H1237 H 0.63547 0.14356 0.77858 0.0
H1238 H 0.57271 0.11957 0.6963 0.0
H1239 H 0.60075 0.14277 0.79596 0.0
H1240 H 0.5288 0.12112 0.82663 0.0
H1241 H 0.56216 0.11949 0.80909 0.0
H1242 H 0.55736 0.14279 0.70947 0.0
H1243 H 0.52337 0.14347 0.72682 0.0
C1244 C 0.60637 0.1259 0.70447 0.0
C1245 C 0.62439 0.13259 0.72728 0.0
C1246 C 0.5863 0.12507 0.71451 0.0
C1247 C 0.5838 0.13116 0.74755 0.0
C1248 C 0.60182 0.13762 0.77046 0.0
C1249 C 0.62182 0.1382 0.76049 0.0
C1250 C 0.53479 0.12575 0.80091 0.0
C1251 C 0.52344 0.13242 0.7781 0.0
C1252 C 0.55407 0.12499 0.79089 0.0
C1253 C 0.56269 0.13114 0.75786 0.0
C1254 C 0.55112 0.1376 0.73496 0.0
C1255 C 0.53166 0.13811 0.74491 0.0
H1256 H 0.3973 0.508 0.72709 0.0
H1257 H 0.40478 0.53772 0.82586 0.0
H1258 H 0.43279 0.54086 0.70923 0.0
H1259 H 0.43935 0.57109 0.80775 0.0
H1260 H 0.51035 0.62232 0.77643 0.0
H1261 H 0.4772 0.58712 0.79436 0.0
H1262 H 0.44918 0.57839 0.69376 0.0
H1263 H 0.48287 0.61269 0.67569 0.0
C1264 C 0.40647 0.52166 0.74487 0.0
C1265 C 0.39827 0.52029 0.77783 0.0
C1266 C 0.42678 0.54063 0.73463 0.0
C1267 C 0.43914 0.5589 0.75693 0.0
C1268 C 0.43077 0.55733 0.78995 0.0
C1269 C 0.41075 0.53821 0.80032 0.0
C1270 C 0.49713 0.61273 0.7582 0.0
C1271 C 0.49921 0.62026 0.7247 0.0
C1272 C 0.47798 0.59259 0.76847 0.0
C1273 C 0.46022 0.57973 0.74564 0.0
C1274 C 0.46252 0.58739 0.71204 0.0
C1275 C 0.48183 0.60724 0.70167 0.0
H1276 H 0.89676 0.41055 0.82326 0.0
H1277 H 0.87452 0.38346 0.7231 0.0
H1278 H 0.89813 0.44553 0.80658 0.0
H1279 H 0.87483 0.41805 0.70665 0.0
H1280 H 0.89492 0.48947 0.67718 0.0
H1281 H 0.89744 0.45656 0.694 0.0
H1282 H 0.87471 0.46072 0.79443 0.0
H1283 H 0.87329 0.49443 0.7778 0.0
C1284 C 0.89212 0.41207 0.79764 0.0
C1285 C 0.88553 0.39425 0.77448 0.0
C1286 C 0.89271 0.43209 0.78812 0.0
C1287 C 0.88644 0.43471 0.75529 0.0
C1288 C 0.88012 0.4169 0.73201 0.0
C1289 C 0.87982 0.39697 0.74144 0.0
C1290 C 0.89062 0.48346 0.70294 0.0
C1291 C 0.88388 0.49454 0.72617 0.0
C1292 C 0.89188 0.46441 0.71254 0.0
C1293 C 0.88611 0.45571 0.74555 0.0
C1294 C 0.87961 0.46703 0.76892 0.0
C1295 C 0.87866 0.48631 0.75939 0.0
loop_
_geom_bond_atom_site_label_1
_geom_bond_atom_site_label_2
_geom_bond_distance
_geom_bond_site_symmetry_2
_ccdc_geom_bond_type
Co0 O1 2.216 . S
Co0 O2 2.091 . S
Co0 O4 2.004 . S
Co0 O10 2.021 . S
Co0 O12 2.137 . S
Co0 O13 2.244 . S
O1 Co0 2.216 . S
O1 C8 1.247 . S
O2 Co0 2.091 . S
O2 C8 1.261 . S
C3 O12 1.247 . S
C3 O13 1.272 . S
O4 Co0 2.004 . S
O4 C9 1.259 . S
Co5 O6 2.061 . S
Co5 O11 2.052 . S
Co5 O13 2.135 . S
O6 Co5 2.061 . S
O6 C9 1.235 . S
C7 O10 1.238 . S
C7 O11 1.241 . S
C8 O1 1.247 . S
C8 O2 1.261 . S
C9 O4 1.259 . S
C9 O6 1.235 . S
O10 Co0 2.021 . S
O10 C7 1.238 . S
O11 Co5 2.052 . S
O11 C7 1.241 . S
O12 Co0 2.137 . S
O12 C3 1.247 . S
O13 Co0 2.244 . S
O13 C3 1.272 . S
O13 Co5 2.135 . S
Co14 O15 2.216 . S
Co14 O16 2.091 . S
Co14 O18 2.004 . S
Co14 O24 2.021 . S
Co14 O26 2.137 . S
Co14 O27 2.244 . S
O15 Co14 2.216 . S
O15 C22 1.247 . S
O16 Co14 2.091 . S
O16 C22 1.261 . S
C17 O26 1.247 . S
C17 O27 1.272 . S
O18 Co14 2.004 . S
O18 C23 1.259 . S
Co19 O20 2.061 . S
Co19 O25 2.052 . S
Co19 O27 2.135 . S
O20 Co19 2.061 . S
O20 C23 1.235 . S
C21 O24 1.238 . S
C21 O25 1.241 . S
C22 O15 1.247 . S
C22 O16 1.261 . S
C23 O18 1.259 . S
C23 O20 1.235 . S
O24 Co14 2.021 . S
O24 C21 1.238 . S
O25 Co19 2.052 . S
O25 C21 1.241 . S
O26 Co14 2.137 . S
O26 C17 1.247 . S
O27 Co14 2.244 . S
O27 C17 1.272 . S
O27 Co19 2.135 . S
Co28 O29 2.216 . S
Co28 O30 2.091 . S
Co28 O32 2.004 . S
Co28 O38 2.021 . S
Co28 O40 2.137 . S
Co28 O41 2.244 . S
O29 Co28 2.216 . S
O29 C36 1.247 . S
O30 Co28 2.091 . S
O30 C36 1.261 . S
C31 O40 1.247 . S
C31 O41 1.272 . S
O32 Co28 2.004 . S
O32 C37 1.259 . S
Co33 O34 2.061 . S
Co33 O39 2.052 . S
Co33 O41 2.135 . S
O34 Co33 2.061 . S
O34 C37 1.235 . S
C35 O38 1.238 . S
C35 O39 1.241 . S
C36 O29 1.247 . S
C36 O30 1.261 . S
C37 O32 1.259 . S
C37 O34 1.235 . S
O38 Co28 2.021 . S
O38 C35 1.238 . S
O39 Co33 2.052 . S
O39 C35 1.241 . S
O40 Co28 2.137 . S
O40 C31 1.247 . S
O41 Co28 2.244 . S
O41 C31 1.272 . S
O41 Co33 2.135 . S
Co42 O43 2.216 . S
Co42 O44 2.091 . S
Co42 O46 2.004 . S
Co42 O52 2.021 . S
Co42 O54 2.137 . S
Co42 O55 2.244 . S
O43 Co42 2.216 . S
O43 C50 1.247 . S
O44 Co42 2.091 . S
O44 C50 1.261 . S
C45 O54 1.247 . S
C45 O55 1.272 . S
O46 Co42 2.004 . S
O46 C51 1.259 . S
Co47 O48 2.061 . S
Co47 O53 2.052 . S
Co47 O55 2.135 . S
O48 Co47 2.061 . S
O48 C51 1.235 . S
C49 O52 1.238 . S
C49 O53 1.241 . S
C50 O43 1.247 . S
C50 O44 1.261 . S
C51 O46 1.259 . S
C51 O48 1.235 . S
O52 Co42 2.021 . S
O52 C49 1.238 . S
O53 Co47 2.052 . S
O53 C49 1.241 . S
O54 Co42 2.137 . S
O54 C45 1.247 . S
O55 Co42 2.244 . S
O55 C45 1.272 . S
O55 Co47 2.135 . S
Co56 O57 2.216 . S
Co56 O58 2.091 . S
Co56 O60 2.004 . S
Co56 O66 2.021 . S
Co56 O68 2.137 . S
Co56 O69 2.244 . S
O57 Co56 2.216 . S
O57 C64 1.247 . S
O58 Co56 2.091 . S
O58 C64 1.261 . S
C59 O68 1.247 . S
C59 O69 1.272 . S
O60 Co56 2.004 . S
O60 C65 1.259 . S
Co61 O62 2.061 . S
Co61 O67 2.052 . S
Co61 O69 2.135 . S
O62 Co61 2.061 . S
O62 C65 1.235 . S
C63 O66 1.238 . S
C63 O67 1.241 . S
C64 O57 1.247 . S
C64 O58 1.261 . S
C65 O60 1.259 . S
C65 O62 1.235 . S
O66 Co56 2.021 . S
O66 C63 1.238 . S
O67 Co61 2.052 . S
O67 C63 1.241 . S
O68 Co56 2.137 . S
O68 C59 1.247 . S
O69 Co56 2.244 . S
O69 C59 1.272 . S
O69 Co61 2.135 . S
Co70 O71 2.216 . S
Co70 O72 2.091 . S
Co70 O74 2.004 . S
Co70 O80 2.021 . S
Co70 O82 2.137 . S
Co70 O83 2.244 . S
O71 Co70 2.216 . S
O71 C78 1.247 . S
O72 Co70 2.091 . S
O72 C78 1.261 . S
C73 O82 1.247 . S
C73 O83 1.272 . S
O74 Co70 2.004 . S
O74 C79 1.259 . S
Co75 O76 2.061 . S
Co75 O81 2.052 . S
Co75 O83 2.135 . S
O76 Co75 2.061 . S
O76 C79 1.235 . S
C77 O80 1.238 . S
C77 O81 1.241 . S
C78 O71 1.247 . S
C78 O72 1.261 . S
C79 O74 1.259 . S
C79 O76 1.235 . S
O80 Co70 2.021 . S
O80 C77 1.238 . S
O81 Co75 2.052 . S
O81 C77 1.241 . S
O82 Co70 2.137 . S
O82 C73 1.247 . S
O83 Co70 2.244 . S
O83 C73 1.272 . S
O83 Co75 2.135 . S
Co84 O85 2.216 . S
Co84 O86 2.091 . S
Co84 O88 2.004 . S
Co84 O94 2.021 . S
Co84 O96 2.137 . S
Co84 O97 2.244 . S
O85 Co84 2.216 . S
O85 C92 1.247 . S
O86 Co84 2.091 . S
O86 C92 1.261 . S
C87 O96 1.247 . S
C87 O97 1.272 . S
O88 Co84 2.004 . S
O88 C93 1.259 . S
Co89 O90 2.061 . S
Co89 O95 2.052 . S
Co89 O97 2.135 . S
O90 Co89 2.061 . S
O90 C93 1.235 . S
C91 O94 1.238 . S
C91 O95 1.241 . S
C92 O85 1.247 . S
C92 O86 1.261 . S
C93 O88 1.259 . S
C93 O90 1.235 . S
O94 Co84 2.021 . S
O94 C91 1.238 . S
O95 Co89 2.052 . S
O95 C91 1.241 . S
O96 Co84 2.137 . S
O96 C87 1.247 . S
O97 Co84 2.244 . S
O97 C87 1.272 . S
O97 Co89 2.135 . S
Co98 O99 2.216 . S
Co98 O100 2.091 . S
Co98 O102 2.004 . S
Co98 O108 2.021 . S
Co98 O110 2.137 . S
Co98 O111 2.244 . S
O99 Co98 2.216 . S
O99 C106 1.247 . S
O100 Co98 2.091 . S
O100 C106 1.261 . S
C101 O110 1.247 . S
C101 O111 1.272 . S
O102 Co98 2.004 . S
O102 C107 1.259 . S
Co103 O104 2.061 . S
Co103 O109 2.052 . S
Co103 O111 2.135 . S
O104 Co103 2.061 . S
O104 C107 1.235 . S
C105 O108 1.238 . S
C105 O109 1.241 . S
C106 O99 1.247 . S
C106 O100 1.261 . S
C107 O102 1.259 . S
C107 O104 1.235 . S
O108 Co98 2.021 . S
O108 C105 1.238 . S
O109 Co103 2.052 . S
O109 C105 1.241 . S
O110 Co98 2.137 . S
O110 C101 1.247 . S
O111 Co98 2.244 . S
O111 C101 1.272 . S
O111 Co103 2.135 . S
Co112 O113 2.216 . S
Co112 O114 2.091 . S
Co112 O116 2.004 . S
Co112 O122 2.021 . S
Co112 O124 2.137 . S
Co112 O125 2.244 . S
O113 Co112 2.216 . S
O113 C120 1.247 . S
O114 Co112 2.091 . S
O114 C120 1.261 . S
C115 O124 1.247 . S
C115 O125 1.272 . S
O116 Co112 2.004 . S
O116 C121 1.259 . S
Co117 O118 2.061 . S
Co117 O123 2.052 . S
Co117 O125 2.135 . S
O118 Co117 2.061 . S
O118 C121 1.235 . S
C119 O122 1.238 . S
C119 O123 1.241 . S
C120 O113 1.247 . S
C120 O114 1.261 . S
C121 O116 1.259 . S
C121 O118 1.235 . S
O122 Co112 2.021 . S
O122 C119 1.238 . S
O123 Co117 2.052 . S
O123 C119 1.241 . S
O124 Co112 2.137 . S
O124 C115 1.247 . S
O125 Co112 2.244 . S
O125 C115 1.272 . S
O125 Co117 2.135 . S
Co126 O127 2.216 . S
Co126 O128 2.091 . S
Co126 O130 2.004 . S
Co126 O136 2.021 . S
Co126 O138 2.137 . S
Co126 O139 2.244 . S
O127 Co126 2.216 . S
O127 C134 1.247 . S
O128 Co126 2.091 . S
O128 C134 1.261 . S
C129 O138 1.247 . S
C129 O139 1.272 . S
O130 Co126 2.004 . S
O130 C135 1.259 . S
Co131 O132 2.061 . S
Co131 O137 2.052 . S
Co131 O139 2.135 . S
O132 Co131 2.061 . S
O132 C135 1.235 . S
C133 O136 1.238 . S
C133 O137 1.241 . S
C134 O127 1.247 . S
C134 O128 1.261 . S
C135 O130 1.259 . S
C135 O132 1.235 . S
O136 Co126 2.021 . S
O136 C133 1.238 . S
O137 Co131 2.052 . S
O137 C133 1.241 . S
O138 Co126 2.137 . S
O138 C129 1.247 . S
O139 Co126 2.244 . S
O139 C129 1.272 . S
O139 Co131 2.135 . S
Co140 O141 2.216 . S
Co140 O142 2.091 . S
Co140 O144 2.004 . S
Co140 O150 2.021 . S
Co140 O152 2.137 . S
Co140 O153 2.244 . S
O141 Co140 2.216 . S
O141 C148 1.247 . S
O142 Co140 2.091 . S
O142 C148 1.261 . S
C143 O152 1.247 . S
C143 O153 1.272 . S
O144 Co140 2.004 . S
O144 C149 1.259 . S
Co145 O146 2.061 . S
Co145 O151 2.052 . S
Co145 O153 2.135 . S
O146 Co145 2.061 . S
O146 C149 1.235 . S
C147 O150 1.238 . S
C147 O151 1.241 . S
C148 O141 1.247 . S
C148 O142 1.261 . S
C149 O144 1.259 . S
C149 O146 1.235 . S
O150 Co140 2.021 . S
O150 C147 1.238 . S
O151 Co145 2.052 . S
O151 C147 1.241 . S
O152 Co140 2.137 . S
O152 C143 1.247 . S
O153 Co140 2.244 . S
O153 C143 1.272 . S
O153 Co145 2.135 . S
Co154 O155 2.216 . S
Co154 O156 2.091 . S
Co154 O158 2.004 . S
Co154 O164 2.021 . S
Co154 O166 2.137 . S
Co154 O167 2.244 . S
O155 Co154 2.216 . S
O155 C162 1.247 . S
O156 Co154 2.091 . S
O156 C162 1.261 . S
C157 O166 1.247 . S
C157 O167 1.272 . S
O158 Co154 2.004 . S
O158 C163 1.259 . S
Co159 O160 2.061 . S
Co159 O165 2.052 . S
Co159 O167 2.135 . S
O160 Co159 2.061 . S
O160 C163 1.235 . S
C161 O164 1.238 . S
C161 O165 1.241 . S
C162 O155 1.247 . S
C162 O156 1.261 . S
C163 O158 1.259 . S
C163 O160 1.235 . S
O164 Co154 2.021 . S
O164 C161 1.238 . S
O165 Co159 2.052 . S
O165 C161 1.241 . S
O166 Co154 2.137 . S
O166 C157 1.247 . S
O167 Co154 2.244 . S
O167 C157 1.272 . S
O167 Co159 2.135 . S
Co168 O169 2.216 . S
Co168 O170 2.091 . S
Co168 O172 2.004 . S
Co168 O178 2.021 . S
Co168 O180 2.137 . S
Co168 O181 2.244 . S
O169 Co168 2.216 . S
O169 C176 1.247 . S
O170 Co168 2.091 . S
O170 C176 1.261 . S
C171 O180 1.247 . S
C171 O181 1.272 . S
O172 Co168 2.004 . S
O172 C177 1.259 . S
Co173 O174 2.061 . S
Co173 O179 2.052 . S
Co173 O181 2.135 . S
O174 Co173 2.061 . S
O174 C177 1.235 . S
C175 O178 1.238 . S
C175 O179 1.241 . S
C176 O169 1.247 . S
C176 O170 1.261 . S
C177 O172 1.259 . S
C177 O174 1.235 . S
O178 Co168 2.021 . S
O178 C175 1.238 . S
O179 Co173 2.052 . S
O179 C175 1.241 . S
O180 Co168 2.137 . S
O180 C171 1.247 . S
O181 Co168 2.244 . S
O181 C171 1.272 . S
O181 Co173 2.135 . S
Co182 O183 2.216 . S
Co182 O184 2.091 . S
Co182 O186 2.004 . S
Co182 O192 2.021 . S
Co182 O194 2.137 . S
Co182 O195 2.244 . S
O183 Co182 2.216 . S
O183 C190 1.247 . S
O184 Co182 2.091 . S
O184 C190 1.261 . S
C185 O194 1.247 . S
C185 O195 1.272 . S
O186 Co182 2.004 . S
O186 C191 1.259 . S
Co187 O188 2.061 . S
Co187 O193 2.052 . S
Co187 O195 2.135 . S
O188 Co187 2.061 . S
O188 C191 1.235 . S
C189 O192 1.238 . S
C189 O193 1.241 . S
C190 O183 1.247 . S
C190 O184 1.261 . S
C191 O186 1.259 . S
C191 O188 1.235 . S
O192 Co182 2.021 . S
O192 C189 1.238 . S
O193 Co187 2.052 . S
O193 C189 1.241 . S
O194 Co182 2.137 . S
O194 C185 1.247 . S
O195 Co182 2.244 . S
O195 C185 1.272 . S
O195 Co187 2.135 . S
Co196 O197 2.216 . S
Co196 O198 2.091 . S
Co196 O200 2.004 . S
Co196 O206 2.021 . S
Co196 O208 2.137 . S
Co196 O209 2.244 . S
O197 Co196 2.216 . S
O197 C204 1.247 . S
O198 Co196 2.091 . S
O198 C204 1.261 . S
C199 O208 1.247 . S
C199 O209 1.272 . S
O200 Co196 2.004 . S
O200 C205 1.259 . S
Co201 O202 2.061 . S
Co201 O207 2.052 . S
Co201 O209 2.135 . S
O202 Co201 2.061 . S
O202 C205 1.235 . S
C203 O206 1.238 . S
C203 O207 1.241 . S
C204 O197 1.247 . S
C204 O198 1.261 . S
C205 O200 1.259 . S
C205 O202 1.235 . S
O206 Co196 2.021 . S
O206 C203 1.238 . S
O207 Co201 2.052 . S
O207 C203 1.241 . S
O208 Co196 2.137 . S
O208 C199 1.247 . S
O209 Co196 2.244 . S
O209 C199 1.272 . S
O209 Co201 2.135 . S
Co210 O211 2.216 . S
Co210 O212 2.091 . S
Co210 O214 2.004 . S
Co210 O220 2.021 . S
Co210 O222 2.137 . S
Co210 O223 2.244 . S
O211 Co210 2.216 . S
O211 C218 1.247 . S
O212 Co210 2.091 . S
O212 C218 1.261 . S
C213 O222 1.247 . S
C213 O223 1.272 . S
O214 Co210 2.004 . S
O214 C219 1.259 . S
Co215 O216 2.061 . S
Co215 O221 2.052 . S
Co215 O223 2.135 . S
O216 Co215 2.061 . S
O216 C219 1.235 . S
C217 O220 1.238 . S
C217 O221 1.241 . S
C218 O211 1.247 . S
C218 O212 1.261 . S
C219 O214 1.259 . S
C219 O216 1.235 . S
O220 Co210 2.021 . S
O220 C217 1.238 . S
O221 Co215 2.052 . S
O221 C217 1.241 . S
O222 Co210 2.137 . S
O222 C213 1.247 . S
O223 Co210 2.244 . S
O223 C213 1.272 . S
O223 Co215 2.135 . S
Co224 O225 2.216 . S
Co224 O226 2.091 . S
Co224 O228 2.004 . S
Co224 O234 2.021 . S
Co224 O236 2.137 . S
Co224 O237 2.244 . S
O225 Co224 2.216 . S
O225 C232 1.247 . S
O226 Co224 2.091 . S
O226 C232 1.261 . S
C227 O236 1.247 . S
C227 O237 1.272 . S
O228 Co224 2.004 . S
O228 C233 1.259 . S
Co229 O230 2.061 . S
Co229 O235 2.052 . S
Co229 O237 2.135 . S
O230 Co229 2.061 . S
O230 C233 1.235 . S
C231 O234 1.238 . S
C231 O235 1.241 . S
C232 O225 1.247 . S
C232 O226 1.261 . S
C233 O228 1.259 . S
C233 O230 1.235 . S
O234 Co224 2.021 . S
O234 C231 1.238 . S
O235 Co229 2.052 . S
O235 C231 1.241 . S
O236 Co224 2.137 . S
O236 C227 1.247 . S
O237 Co224 2.244 . S
O237 C227 1.272 . S
O237 Co229 2.135 . S
Co238 O239 2.216 . S
Co238 O240 2.091 . S
Co238 O242 2.004 . S
Co238 O248 2.021 . S
Co238 O250 2.137 . S
Co238 O251 2.244 . S
O239 Co238 2.216 . S
O239 C246 1.247 . S
O240 Co238 2.091 . S
O240 C246 1.261 . S
C241 O250 1.247 . S
C241 O251 1.272 . S
O242 Co238 2.004 . S
O242 C247 1.259 . S
Co243 O244 2.061 . S
Co243 O249 2.052 . S
Co243 O251 2.135 . S
O244 Co243 2.061 . S
O244 C247 1.235 . S
C245 O248 1.238 . S
C245 O249 1.241 . S
C246 O239 1.247 . S
C246 O240 1.261 . S
C247 O242 1.259 . S
C247 O244 1.235 . S
O248 Co238 2.021 . S
O248 C245 1.238 . S
O249 Co243 2.052 . S
O249 C245 1.241 . S
O250 Co238 2.137 . S
O250 C241 1.247 . S
O251 Co238 2.244 . S
O251 C241 1.272 . S
O251 Co243 2.135 . S
Co252 O253 2.216 . S
Co252 O254 2.091 . S
Co252 O256 2.004 . S
Co252 O262 2.021 . S
Co252 O264 2.137 . S
Co252 O265 2.244 . S
O253 Co252 2.216 . S
O253 C260 1.247 . S
O254 Co252 2.091 . S
O254 C260 1.261 . S
C255 O264 1.247 . S
C255 O265 1.272 . S
O256 Co252 2.004 . S
O256 C261 1.259 . S
Co257 O258 2.061 . S
Co257 O263 2.052 . S
Co257 O265 2.135 . S
O258 Co257 2.061 . S
O258 C261 1.235 . S
C259 O262 1.238 . S
C259 O263 1.241 . S
C260 O253 1.247 . S
C260 O254 1.261 . S
C261 O256 1.259 . S
C261 O258 1.235 . S
O262 Co252 2.021 . S
O262 C259 1.238 . S
O263 Co257 2.052 . S
O263 C259 1.241 . S
O264 Co252 2.137 . S
O264 C255 1.247 . S
O265 Co252 2.244 . S
O265 C255 1.272 . S
O265 Co257 2.135 . S
Co266 O267 2.216 . S
Co266 O268 2.091 . S
Co266 O270 2.004 . S
Co266 O276 2.021 . S
Co266 O278 2.137 . S
Co266 O279 2.244 . S
O267 Co266 2.216 . S
O267 C274 1.247 . S
O268 Co266 2.091 . S
O268 C274 1.261 . S
C269 O278 1.247 . S
C269 O279 1.272 . S
O270 Co266 2.004 . S
O270 C275 1.259 . S
Co271 O272 2.061 . S
Co271 O277 2.052 . S
Co271 O279 2.135 . S
O272 Co271 2.061 . S
O272 C275 1.235 . S
C273 O276 1.238 . S
C273 O277 1.241 . S
C274 O267 1.247 . S
C274 O268 1.261 . S
C275 O270 1.259 . S
C275 O272 1.235 . S
O276 Co266 2.021 . S
O276 C273 1.238 . S
O277 Co271 2.052 . S
O277 C273 1.241 . S
O278 Co266 2.137 . S
O278 C269 1.247 . S
O279 Co266 2.244 . S
O279 C269 1.272 . S
O279 Co271 2.135 . S
Co280 O281 2.216 . S
Co280 O282 2.091 . S
Co280 O284 2.004 . S
Co280 O290 2.021 . S
Co280 O292 2.137 . S
Co280 O293 2.244 . S
O281 Co280 2.216 . S
O281 C288 1.247 . S
O282 Co280 2.091 . S
O282 C288 1.261 . S
C283 O292 1.247 . S
C283 O293 1.272 . S
O284 Co280 2.004 . S
O284 C289 1.259 . S
Co285 O286 2.061 . S
Co285 O291 2.052 . S
Co285 O293 2.135 . S
O286 Co285 2.061 . S
O286 C289 1.235 . S
C287 O290 1.238 . S
C287 O291 1.241 . S
C288 O281 1.247 . S
C288 O282 1.261 . S
C289 O284 1.259 . S
C289 O286 1.235 . S
O290 Co280 2.021 . S
O290 C287 1.238 . S
O291 Co285 2.052 . S
O291 C287 1.241 . S
O292 Co280 2.137 . S
O292 C283 1.247 . S
O293 Co280 2.244 . S
O293 C283 1.272 . S
O293 Co285 2.135 . S
Co294 O295 2.216 . S
Co294 O296 2.091 . S
Co294 O298 2.004 . S
Co294 O304 2.021 . S
Co294 O306 2.137 . S
Co294 O307 2.244 . S
O295 Co294 2.216 . S
O295 C302 1.247 . S
O296 Co294 2.091 . S
O296 C302 1.261 . S
C297 O306 1.247 . S
C297 O307 1.272 . S
O298 Co294 2.004 . S
O298 C303 1.259 . S
Co299 O300 2.061 . S
Co299 O305 2.052 . S
Co299 O307 2.135 . S
O300 Co299 2.061 . S
O300 C303 1.235 . S
C301 O304 1.238 . S
C301 O305 1.241 . S
C302 O295 1.247 . S
C302 O296 1.261 . S
C303 O298 1.259 . S
C303 O300 1.235 . S
O304 Co294 2.021 . S
O304 C301 1.238 . S
O305 Co299 2.052 . S
O305 C301 1.241 . S
O306 Co294 2.137 . S
O306 C297 1.247 . S
O307 Co294 2.244 . S
O307 C297 1.272 . S
O307 Co299 2.135 . S
Co308 O309 2.216 . S
Co308 O310 2.091 . S
Co308 O312 2.004 . S
Co308 O318 2.021 . S
Co308 O320 2.137 . S
Co308 O321 2.244 . S
O309 Co308 2.216 . S
O309 C316 1.247 . S
O310 Co308 2.091 . S
O310 C316 1.261 . S
C311 O320 1.247 . S
C311 O321 1.272 . S
O312 Co308 2.004 . S
O312 C317 1.259 . S
Co313 O314 2.061 . S
Co313 O319 2.052 . S
Co313 O321 2.135 . S
O314 Co313 2.061 . S
O314 C317 1.235 . S
C315 O318 1.238 . S
C315 O319 1.241 . S
C316 O309 1.247 . S
C316 O310 1.261 . S
C317 O312 1.259 . S
C317 O314 1.235 . S
O318 Co308 2.021 . S
O318 C315 1.238 . S
O319 Co313 2.052 . S
O319 C315 1.241 . S
O320 Co308 2.137 . S
O320 C311 1.247 . S
O321 Co308 2.244 . S
O321 C311 1.272 . S
O321 Co313 2.135 . S
Co322 O323 2.216 . S
Co322 O324 2.091 . S
Co322 O326 2.004 . S
Co322 O332 2.021 . S
Co322 O334 2.137 . S
Co322 O335 2.244 . S
O323 Co322 2.216 . S
O323 C330 1.247 . S
O324 Co322 2.091 . S
O324 C330 1.261 . S
C325 O334 1.247 . S
C325 O335 1.272 . S
O326 Co322 2.004 . S
O326 C331 1.259 . S
Co327 O328 2.061 . S
Co327 O333 2.052 . S
Co327 O335 2.135 . S
O328 Co327 2.061 . S
O328 C331 1.235 . S
C329 O332 1.238 . S
C329 O333 1.241 . S
C330 O323 1.247 . S
C330 O324 1.261 . S
C331 O326 1.259 . S
C331 O328 1.235 . S
O332 Co322 2.021 . S
O332 C329 1.238 . S
O333 Co327 2.052 . S
O333 C329 1.241 . S
O334 Co322 2.137 . S
O334 C325 1.247 . S
O335 Co322 2.244 . S
O335 C325 1.272 . S
O335 Co327 2.135 . S
H336 C344 0.950 . S
H337 C349 0.950 . S
H338 C346 0.950 . S
H339 C348 0.950 . S
H340 C350 0.950 . S
H341 C352 0.950 . S
H342 C354 0.950 . S
H343 C355 0.950 . S
C344 H336 0.950 . S
C344 C345 1.386 . S
C344 C346 1.391 . S
C345 C344 1.386 . S
C345 C349 1.393 . S
C346 H338 0.950 . S
C346 C344 1.391 . S
C346 C347 1.400 . S
C347 C346 1.400 . S
C347 C348 1.398 . S
C347 C353 1.491 1_545 S
C348 H339 0.950 . S
C348 C347 1.398 . S
C348 C349 1.391 . S
C349 H337 0.950 . S
C349 C345 1.393 . S
C349 C348 1.391 . S
C350 H340 0.950 . S
C350 C351 1.386 . S
C350 C352 1.391 . S
C351 C350 1.386 . S
C351 C355 1.393 . S
C352 H341 0.950 . S
C352 C350 1.391 . S
C352 C353 1.400 . S
C353 C347 1.491 1_565 S
C353 C352 1.400 . S
C353 C354 1.398 . S
C354 H342 0.950 . S
C354 C353 1.398 . S
C354 C355 1.391 . S
C355 H343 0.950 . S
C355 C351 1.393 . S
C355 C354 1.391 . S
H356 C364 0.950 . S
H357 C369 0.950 . S
H358 C366 0.950 . S
H359 C368 0.950 . S
H360 C370 0.950 . S
H361 C372 0.950 . S
H362 C374 0.950 . S
H363 C375 0.950 . S
C364 H356 0.950 . S
C364 C365 1.386 . S
C364 C366 1.391 . S
C365 C364 1.386 . S
C365 C369 1.393 . S
C366 H358 0.950 . S
C366 C364 1.391 . S
C366 C367 1.400 . S
C367 C366 1.400 . S
C367 C368 1.398 . S
C367 C373 1.491 . S
C368 H359 0.950 . S
C368 C367 1.398 . S
C368 C369 1.391 . S
C369 H357 0.950 . S
C369 C365 1.393 . S
C369 C368 1.391 . S
C370 H360 0.950 . S
C370 C371 1.386 . S
C370 C372 1.391 . S
C371 C370 1.386 . S
C371 C375 1.393 . S
C372 H361 0.950 . S
C372 C370 1.391 . S
C372 C373 1.400 . S
C373 C367 1.491 . S
C373 C372 1.400 . S
C373 C374 1.398 . S
C374 H362 0.950 . S
C374 C373 1.398 . S
C374 C375 1.391 . S
C375 H363 0.950 . S
C375 C371 1.393 . S
C375 C374 1.391 . S
H376 C384 0.950 . S
H377 C389 0.950 . S
H378 C386 0.950 . S
H379 C388 0.950 . S
H380 C390 0.950 . S
H381 C392 0.950 . S
H382 C394 0.950 . S
H383 C395 0.950 . S
C384 H376 0.950 . S
C384 C385 1.386 . S
C384 C386 1.391 . S
C385 C384 1.386 . S
C385 C389 1.393 . S
C386 H378 0.950 . S
C386 C384 1.391 . S
C386 C387 1.400 . S
C387 C386 1.400 . S
C387 C388 1.398 . S
C387 C393 1.491 1_655 S
C388 H379 0.950 . S
C388 C387 1.398 . S
C388 C389 1.391 . S
C389 H377 0.950 . S
C389 C385 1.393 . S
C389 C388 1.391 . S
C390 H380 0.950 . S
C390 C391 1.386 . S
C390 C392 1.391 . S
C391 C390 1.386 . S
C391 C395 1.393 . S
C392 H381 0.950 . S
C392 C390 1.391 . S
C392 C393 1.400 . S
C393 C387 1.491 1_455 S
C393 C392 1.400 . S
C393 C394 1.398 . S
C394 H382 0.950 . S
C394 C393 1.398 . S
C394 C395 1.391 . S
C395 H383 0.950 . S
C395 C391 1.393 . S
C395 C394 1.391 . S
H396 C404 0.950 . S
H397 C409 0.950 . S
H398 C406 0.950 . S
H399 C408 0.950 . S
H400 C410 0.950 . S
H401 C412 0.950 . S
H402 C414 0.950 . S
H403 C415 0.950 . S
C404 H396 0.950 . S
C404 C405 1.386 . S
C404 C406 1.391 . S
C405 C404 1.386 . S
C405 C409 1.393 . S
C406 H398 0.950 . S
C406 C404 1.391 . S
C406 C407 1.400 . S
C407 C406 1.400 . S
C407 C408 1.398 . S
C407 C413 1.491 1_565 S
C408 H399 0.950 . S
C408 C407 1.398 . S
C408 C409 1.391 . S
C409 H397 0.950 . S
C409 C405 1.393 . S
C409 C408 1.391 . S
C410 H400 0.950 . S
C410 C411 1.386 . S
C410 C412 1.391 . S
C411 C410 1.386 . S
C411 C415 1.393 . S
C412 H401 0.950 . S
C412 C410 1.391 . S
C412 C413 1.400 . S
C413 C407 1.491 1_545 S
C413 C412 1.400 . S
C413 C414 1.398 . S
C414 H402 0.950 . S
C414 C413 1.398 . S
C414 C415 1.391 . S
C415 H403 0.950 . S
C415 C411 1.393 . S
C415 C414 1.391 . S
H416 C424 0.950 . S
H417 C429 0.950 . S
H418 C426 0.950 . S
H419 C428 0.950 . S
H420 C430 0.950 . S
H421 C432 0.950 . S
H422 C434 0.950 . S
H423 C435 0.950 . S
C424 H416 0.950 . S
C424 C425 1.386 . S
C424 C426 1.391 . S
C425 C424 1.386 . S
C425 C429 1.393 . S
C426 H418 0.950 . S
C426 C424 1.391 . S
C426 C427 1.400 . S
C427 C426 1.400 . S
C427 C428 1.398 . S
C427 C433 1.491 . S
C428 H419 0.950 . S
C428 C427 1.398 . S
C428 C429 1.391 . S
C429 H417 0.950 . S
C429 C425 1.393 . S
C429 C428 1.391 . S
C430 H420 0.950 . S
C430 C431 1.386 . S
C430 C432 1.391 . S
C431 C430 1.386 . S
C431 C435 1.393 . S
C432 H421 0.950 . S
C432 C430 1.391 . S
C432 C433 1.400 . S
C433 C427 1.491 . S
C433 C432 1.400 . S
C433 C434 1.398 . S
C434 H422 0.950 . S
C434 C433 1.398 . S
C434 C435 1.391 . S
C435 H423 0.950 . S
C435 C431 1.393 . S
C435 C434 1.391 . S
H436 C444 0.950 . S
H437 C449 0.950 . S
H438 C446 0.950 . S
H439 C448 0.950 . S
H440 C450 0.950 . S
H441 C452 0.950 . S
H442 C454 0.950 . S
H443 C455 0.950 . S
C444 H436 0.950 . S
C444 C445 1.386 . S
C444 C446 1.391 . S
C445 C444 1.386 . S
C445 C449 1.393 . S
C446 H438 0.950 . S
C446 C444 1.391 . S
C446 C447 1.400 . S
C447 C446 1.400 . S
C447 C448 1.398 . S
C447 C453 1.491 1_455 S
C448 H439 0.950 . S
C448 C447 1.398 . S
C448 C449 1.391 . S
C449 H437 0.950 . S
C449 C445 1.393 . S
C449 C448 1.391 . S
C450 H440 0.950 . S
C450 C451 1.386 . S
C450 C452 1.391 . S
C451 C450 1.386 . S
C451 C455 1.393 . S
C452 H441 0.950 . S
C452 C450 1.391 . S
C452 C453 1.400 . S
C453 C447 1.491 1_655 S
C453 C452 1.400 . S
C453 C454 1.398 . S
C454 H442 0.950 . S
C454 C453 1.398 . S
C454 C455 1.391 . S
C455 H443 0.950 . S
C455 C451 1.393 . S
C455 C454 1.391 . S
H456 C464 0.950 . S
H457 C469 0.950 . S
H458 C466 0.950 . S
H459 C468 0.950 . S
H460 C470 0.950 . S
H461 C472 0.950 . S
H462 C474 0.950 . S
H463 C475 0.950 . S
C464 H456 0.950 . S
C464 C465 1.386 . S
C464 C466 1.391 . S
C465 C464 1.386 . S
C465 C469 1.393 . S
C466 H458 0.950 . S
C466 C464 1.391 . S
C466 C467 1.400 . S
C467 C466 1.400 . S
C467 C468 1.398 . S
C467 C473 1.491 1_565 S
C468 H459 0.950 . S
C468 C467 1.398 . S
C468 C469 1.391 . S
C469 H457 0.950 . S
C469 C465 1.393 . S
C469 C468 1.391 . S
C470 H460 0.950 . S
C470 C471 1.386 . S
C470 C472 1.391 . S
C471 C470 1.386 . S
C471 C475 1.393 . S
C472 H461 0.950 . S
C472 C470 1.391 . S
C472 C473 1.400 . S
C473 C467 1.491 1_545 S
C473 C472 1.400 . S
C473 C474 1.398 . S
C474 H462 0.950 . S
C474 C473 1.398 . S
C474 C475 1.391 . S
C475 H463 0.950 . S
C475 C471 1.393 . S
C475 C474 1.391 . S
H476 C484 0.950 . S
H477 C489 0.950 . S
H478 C486 0.950 . S
H479 C488 0.950 . S
H480 C490 0.950 . S
H481 C492 0.950 . S
H482 C494 0.950 . S
H483 C495 0.950 . S
C484 H476 0.950 . S
C484 C485 1.386 . S
C484 C486 1.391 . S
C485 C484 1.386 . S
C485 C489 1.393 . S
C486 H478 0.950 . S
C486 C484 1.391 . S
C486 C487 1.400 . S
C487 C486 1.400 . S
C487 C488 1.398 . S
C487 C493 1.491 . S
C488 H479 0.950 . S
C488 C487 1.398 . S
C488 C489 1.391 . S
C489 H477 0.950 . S
C489 C485 1.393 . S
C489 C488 1.391 . S
C490 H480 0.950 . S
C490 C491 1.386 . S
C490 C492 1.391 . S
C491 C490 1.386 . S
C491 C495 1.393 . S
C492 H481 0.950 . S
C492 C490 1.391 . S
C492 C493 1.400 . S
C493 C487 1.491 . S
C493 C492 1.400 . S
C493 C494 1.398 . S
C494 H482 0.950 . S
C494 C493 1.398 . S
C494 C495 1.391 . S
C495 H483 0.950 . S
C495 C491 1.393 . S
C495 C494 1.391 . S
H496 C504 0.950 . S
H497 C509 0.950 . S
H498 C506 0.950 . S
H499 C508 0.950 . S
H500 C510 0.950 . S
H501 C512 0.950 . S
H502 C514 0.950 . S
H503 C515 0.950 . S
C504 H496 0.950 . S
C504 C505 1.386 . S
C504 C506 1.391 . S
C505 C504 1.386 . S
C505 C509 1.393 . S
C506 H498 0.950 . S
C506 C504 1.391 . S
C506 C507 1.400 . S
C507 C506 1.400 . S
C507 C508 1.398 . S
C507 C513 1.491 1_655 S
C508 H499 0.950 . S
C508 C507 1.398 . S
C508 C509 1.391 . S
C509 H497 0.950 . S
C509 C505 1.393 . S
C509 C508 1.391 . S
C510 H500 0.950 . S
C510 C511 1.386 . S
C510 C512 1.391 . S
C511 C510 1.386 . S
C511 C515 1.393 . S
C512 H501 0.950 . S
C512 C510 1.391 . S
C512 C513 1.400 . S
C513 C507 1.491 1_455 S
C513 C512 1.400 . S
C513 C514 1.398 . S
C514 H502 0.950 . S
C514 C513 1.398 . S
C514 C515 1.391 . S
C515 H503 0.950 . S
C515 C511 1.393 . S
C515 C514 1.391 . S
H516 C524 0.950 . S
H517 C529 0.950 . S
H518 C526 0.950 . S
H519 C528 0.950 . S
H520 C530 0.950 . S
H521 C532 0.950 . S
H522 C534 0.950 . S
H523 C535 0.950 . S
C524 H516 0.950 . S
C524 C525 1.386 . S
C524 C526 1.391 . S
C525 C524 1.386 . S
C525 C529 1.393 . S
C526 H518 0.950 . S
C526 C524 1.391 . S
C526 C527 1.400 . S
C527 C526 1.400 . S
C527 C528 1.398 . S
C527 C533 1.491 1_545 S
C528 H519 0.950 . S
C528 C527 1.398 . S
C528 C529 1.391 . S
C529 H517 0.950 . S
C529 C525 1.393 . S
C529 C528 1.391 . S
C530 H520 0.950 . S
C530 C531 1.386 . S
C530 C532 1.391 . S
C531 C530 1.386 . S
C531 C535 1.393 . S
C532 H521 0.950 . S
C532 C530 1.391 . S
C532 C533 1.400 . S
C533 C527 1.491 1_565 S
C533 C532 1.400 . S
C533 C534 1.398 . S
C534 H522 0.950 . S
C534 C533 1.398 . S
C534 C535 1.391 . S
C535 H523 0.950 . S
C535 C531 1.393 . S
C535 C534 1.391 . S
H536 C544 0.950 . S
H537 C549 0.950 . S
H538 C546 0.950 . S
H539 C548 0.950 . S
H540 C550 0.950 . S
H541 C552 0.950 . S
H542 C554 0.950 . S
H543 C555 0.950 . S
C544 H536 0.950 . S
C544 C545 1.386 . S
C544 C546 1.391 . S
C545 C544 1.386 . S
C545 C549 1.393 . S
C546 H538 0.950 . S
C546 C544 1.391 . S
C546 C547 1.400 . S
C547 C546 1.400 . S
C547 C548 1.398 . S
C547 C553 1.491 . S
C548 H539 0.950 . S
C548 C547 1.398 . S
C548 C549 1.391 . S
C549 H537 0.950 . S
C549 C545 1.393 . S
C549 C548 1.391 . S
C550 H540 0.950 . S
C550 C551 1.386 . S
C550 C552 1.391 . S
C551 C550 1.386 . S
C551 C555 1.393 . S
C552 H541 0.950 . S
C552 C550 1.391 . S
C552 C553 1.400 . S
C553 C547 1.491 . S
C553 C552 1.400 . S
C553 C554 1.398 . S
C554 H542 0.950 . S
C554 C553 1.398 . S
C554 C555 1.391 . S
C555 H543 0.950 . S
C555 C551 1.393 . S
C555 C554 1.391 . S
H556 C564 0.950 . S
H557 C569 0.950 . S
H558 C566 0.950 . S
H559 C568 0.950 . S
H560 C570 0.950 . S
H561 C572 0.950 . S
H562 C574 0.950 . S
H563 C575 0.950 . S
C564 H556 0.950 . S
C564 C565 1.386 . S
C564 C566 1.391 . S
C565 C564 1.386 . S
C565 C569 1.393 . S
C566 H558 0.950 . S
C566 C564 1.391 . S
C566 C567 1.400 . S
C567 C566 1.400 . S
C567 C568 1.398 . S
C567 C573 1.491 1_455 S
C568 H559 0.950 . S
C568 C567 1.398 . S
C568 C569 1.391 . S
C569 H557 0.950 . S
C569 C565 1.393 . S
C569 C568 1.391 . S
C570 H560 0.950 . S
C570 C571 1.386 . S
C570 C572 1.391 . S
C571 C570 1.386 . S
C571 C575 1.393 . S
C572 H561 0.950 . S
C572 C570 1.391 . S
C572 C573 1.400 . S
C573 C567 1.491 1_655 S
C573 C572 1.400 . S
C573 C574 1.398 . S
C574 H562 0.950 . S
C574 C573 1.398 . S
C574 C575 1.391 . S
C575 H563 0.950 . S
C575 C571 1.393 . S
C575 C574 1.391 . S
H576 C584 0.950 . S
H577 C589 0.950 . S
H578 C586 0.950 . S
H579 C588 0.950 . S
H580 C590 0.950 . S
H581 C592 0.950 . S
H582 C594 0.950 . S
H583 C595 0.950 . S
C584 H576 0.950 . S
C584 C585 1.386 . S
C584 C586 1.391 . S
C585 C584 1.386 . S
C585 C589 1.393 . S
C586 H578 0.950 . S
C586 C584 1.391 . S
C586 C587 1.400 . S
C587 C586 1.400 . S
C587 C588 1.398 . S
C587 C593 1.491 . S
C588 H579 0.950 . S
C588 C587 1.398 . S
C588 C589 1.391 . S
C589 H577 0.950 . S
C589 C585 1.393 . S
C589 C588 1.391 . S
C590 H580 0.950 . S
C590 C591 1.386 . S
C590 C592 1.391 . S
C591 C590 1.386 . S
C591 C595 1.393 . S
C592 H581 0.950 . S
C592 C590 1.391 . S
C592 C593 1.400 . S
C593 C587 1.491 . S
C593 C592 1.400 . S
C593 C594 1.398 . S
C594 H582 0.950 . S
C594 C593 1.398 . S
C594 C595 1.391 . S
C595 H583 0.950 . S
C595 C591 1.393 . S
C595 C594 1.391 . S
H596 C604 0.950 . S
H597 C609 0.950 . S
H598 C606 0.950 . S
H599 C608 0.950 . S
H600 C610 0.950 . S
H601 C612 0.950 . S
H602 C614 0.950 . S
H603 C615 0.950 . S
C604 H596 0.950 . S
C604 C605 1.386 . S
C604 C606 1.391 . S
C605 C604 1.386 . S
C605 C609 1.393 . S
C606 H598 0.950 . S
C606 C604 1.391 . S
C606 C607 1.400 . S
C607 C606 1.400 . S
C607 C608 1.398 . S
C607 C613 1.491 . S
C608 H599 0.950 . S
C608 C607 1.398 . S
C608 C609 1.391 . S
C609 H597 0.950 . S
C609 C605 1.393 . S
C609 C608 1.391 . S
C610 H600 0.950 . S
C610 C611 1.386 . S
C610 C612 1.391 . S
C611 C610 1.386 . S
C611 C615 1.393 . S
C612 H601 0.950 . S
C612 C610 1.391 . S
C612 C613 1.400 . S
C613 C607 1.491 . S
C613 C612 1.400 . S
C613 C614 1.398 . S
C614 H602 0.950 . S
C614 C613 1.398 . S
C614 C615 1.391 . S
C615 H603 0.950 . S
C615 C611 1.393 . S
C615 C614 1.391 . S
H616 C624 0.950 . S
H617 C629 0.950 . S
H618 C626 0.950 . S
H619 C628 0.950 . S
H620 C630 0.950 . S
H621 C632 0.950 . S
H622 C634 0.950 . S
H623 C635 0.950 . S
C624 H616 0.950 . S
C624 C625 1.386 . S
C624 C626 1.391 . S
C625 C624 1.386 . S
C625 C629 1.393 . S
C626 H618 0.950 . S
C626 C624 1.391 . S
C626 C627 1.400 . S
C627 C626 1.400 . S
C627 C628 1.398 . S
C627 C633 1.491 . S
C628 H619 0.950 . S
C628 C627 1.398 . S
C628 C629 1.391 . S
C629 H617 0.950 . S
C629 C625 1.393 . S
C629 C628 1.391 . S
C630 H620 0.950 . S
C630 C631 1.386 . S
C630 C632 1.391 . S
C631 C630 1.386 . S
C631 C635 1.393 . S
C632 H621 0.950 . S
C632 C630 1.391 . S
C632 C633 1.400 . S
C633 C627 1.491 . S
C633 C632 1.400 . S
C633 C634 1.398 . S
C634 H622 0.950 . S
C634 C633 1.398 . S
C634 C635 1.391 . S
C635 H623 0.950 . S
C635 C631 1.393 . S
C635 C634 1.391 . S
H636 C644 0.950 . S
H637 C649 0.950 . S
H638 C646 0.950 . S
H639 C648 0.950 . S
H640 C650 0.950 . S
H641 C652 0.950 . S
H642 C654 0.950 . S
H643 C655 0.950 . S
C644 H636 0.950 . S
C644 C645 1.386 . S
C644 C646 1.391 . S
C645 C644 1.386 . S
C645 C649 1.393 . S
C646 H638 0.950 . S
C646 C644 1.391 . S
C646 C647 1.400 . S
C647 C646 1.400 . S
C647 C648 1.398 . S
C647 C653 1.491 . S
C648 H639 0.950 . S
C648 C647 1.398 . S
C648 C649 1.391 . S
C649 H637 0.950 . S
C649 C645 1.393 . S
C649 C648 1.391 . S
C650 H640 0.950 . S
C650 C651 1.386 . S
C650 C652 1.391 . S
C651 C650 1.386 . S
C651 C655 1.393 . S
C652 H641 0.950 . S
C652 C650 1.391 . S
C652 C653 1.400 . S
C653 C647 1.491 . S
C653 C652 1.400 . S
C653 C654 1.398 . S
C654 H642 0.950 . S
C654 C653 1.398 . S
C654 C655 1.391 . S
C655 H643 0.950 . S
C655 C651 1.393 . S
C655 C654 1.391 . S
H656 C664 0.950 . S
H657 C669 0.950 . S
H658 C666 0.950 . S
H659 C668 0.950 . S
H660 C670 0.950 . S
H661 C672 0.950 . S
H662 C674 0.950 . S
H663 C675 0.950 . S
C664 H656 0.950 . S
C664 C665 1.386 . S
C664 C666 1.391 . S
C665 C664 1.386 . S
C665 C669 1.393 . S
C666 H658 0.950 . S
C666 C664 1.391 . S
C666 C667 1.400 . S
C667 C666 1.400 . S
C667 C668 1.398 . S
C667 C673 1.491 . S
C668 H659 0.950 . S
C668 C667 1.398 . S
C668 C669 1.391 . S
C669 H657 0.950 . S
C669 C665 1.393 . S
C669 C668 1.391 . S
C670 H660 0.950 . S
C670 C671 1.386 . S
C670 C672 1.391 . S
C671 C670 1.386 . S
C671 C675 1.393 . S
C672 H661 0.950 . S
C672 C670 1.391 . S
C672 C673 1.400 . S
C673 C667 1.491 . S
C673 C672 1.400 . S
C673 C674 1.398 . S
C674 H662 0.950 . S
C674 C673 1.398 . S
C674 C675 1.391 . S
C675 H663 0.950 . S
C675 C671 1.393 . S
C675 C674 1.391 . S
H676 C684 0.950 . S
H677 C689 0.950 . S
H678 C686 0.950 . S
H679 C688 0.950 . S
H680 C690 0.950 . S
H681 C692 0.950 . S
H682 C694 0.950 . S
H683 C695 0.950 . S
C684 H676 0.950 . S
C684 C685 1.386 . S
C684 C686 1.391 . S
C685 C684 1.386 . S
C685 C689 1.393 . S
C686 H678 0.950 . S
C686 C684 1.391 . S
C686 C687 1.400 . S
C687 C686 1.400 . S
C687 C688 1.398 . S
C687 C693 1.491 . S
C688 H679 0.950 . S
C688 C687 1.398 . S
C688 C689 1.391 . S
C689 H677 0.950 . S
C689 C685 1.393 . S
C689 C688 1.391 . S
C690 H680 0.950 . S
C690 C691 1.386 . S
C690 C692 1.391 . S
C691 C690 1.386 . S
C691 C695 1.393 . S
C692 H681 0.950 . S
C692 C690 1.391 . S
C692 C693 1.400 . S
C693 C687 1.491 . S
C693 C692 1.400 . S
C693 C694 1.398 . S
C694 H682 0.950 . S
C694 C693 1.398 . S
C694 C695 1.391 . S
C695 H683 0.950 . S
C695 C691 1.393 . S
C695 C694 1.391 . S
H696 C704 0.950 . S
H697 C709 0.950 . S
H698 C706 0.950 . S
H699 C708 0.950 . S
H700 C710 0.950 . S
H701 C712 0.950 . S
H702 C714 0.950 . S
H703 C715 0.950 . S
C704 H696 0.950 . S
C704 C705 1.386 . S
C704 C706 1.391 . S
C705 C704 1.386 . S
C705 C709 1.393 . S
C706 H698 0.950 . S
C706 C704 1.391 . S
C706 C707 1.400 . S
C707 C706 1.400 . S
C707 C708 1.398 . S
C707 C713 1.491 . S
C708 H699 0.950 . S
C708 C707 1.398 . S
C708 C709 1.391 . S
C709 H697 0.950 . S
C709 C705 1.393 . S
C709 C708 1.391 . S
C710 H700 0.950 . S
C710 C711 1.386 . S
C710 C712 1.391 . S
C711 C710 1.386 . S
C711 C715 1.393 . S
C712 H701 0.950 . S
C712 C710 1.391 . S
C712 C713 1.400 . S
C713 C707 1.491 . S
C713 C712 1.400 . S
C713 C714 1.398 . S
C714 H702 0.950 . S
C714 C713 1.398 . S
C714 C715 1.391 . S
C715 H703 0.950 . S
C715 C711 1.393 . S
C715 C714 1.391 . S
H716 C724 0.950 . S
H717 C729 0.950 . S
H718 C726 0.950 . S
H719 C728 0.950 . S
H720 C730 0.950 . S
H721 C732 0.950 . S
H722 C734 0.950 . S
H723 C735 0.950 . S
C724 H716 0.950 . S
C724 C725 1.386 . S
C724 C726 1.391 . S
C725 C724 1.386 . S
C725 C729 1.393 . S
C726 H718 0.950 . S
C726 C724 1.391 . S
C726 C727 1.400 . S
C727 C726 1.400 . S
C727 C728 1.398 . S
C727 C733 1.491 . S
C728 H719 0.950 . S
C728 C727 1.398 . S
C728 C729 1.391 . S
C729 H717 0.950 . S
C729 C725 1.393 . S
C729 C728 1.391 . S
C730 H720 0.950 . S
C730 C731 1.386 . S
C730 C732 1.391 . S
C731 C730 1.386 . S
C731 C735 1.393 . S
C732 H721 0.950 . S
C732 C730 1.391 . S
C732 C733 1.400 . S
C733 C727 1.491 . S
C733 C732 1.400 . S
C733 C734 1.398 . S
C734 H722 0.950 . S
C734 C733 1.398 . S
C734 C735 1.391 . S
C735 H723 0.950 . S
C735 C731 1.393 . S
C735 C734 1.391 . S
H736 C744 0.950 . S
H737 C749 0.950 . S
H738 C746 0.950 . S
H739 C748 0.950 . S
H740 C750 0.950 . S
H741 C752 0.950 . S
H742 C754 0.950 . S
H743 C755 0.950 . S
C744 H736 0.950 . S
C744 C745 1.386 . S
C744 C746 1.391 . S
C745 C744 1.386 . S
C745 C749 1.393 . S
C746 H738 0.950 . S
C746 C744 1.391 . S
C746 C747 1.400 . S
C747 C746 1.400 . S
C747 C748 1.398 . S
C747 C753 1.491 . S
C748 H739 0.950 . S
C748 C747 1.398 . S
C748 C749 1.391 . S
C749 H737 0.950 . S
C749 C745 1.393 . S
C749 C748 1.391 . S
C750 H740 0.950 . S
C750 C751 1.386 . S
C750 C752 1.391 . S
C751 C750 1.386 . S
C751 C755 1.393 . S
C752 H741 0.950 . S
C752 C750 1.391 . S
C752 C753 1.400 . S
C753 C747 1.491 . S
C753 C752 1.400 . S
C753 C754 1.398 . S
C754 H742 0.950 . S
C754 C753 1.398 . S
C754 C755 1.391 . S
C755 H743 0.950 . S
C755 C751 1.393 . S
C755 C754 1.391 . S
H756 C764 0.950 . S
H757 C769 0.950 . S
H758 C766 0.950 . S
H759 C768 0.950 . S
H760 C770 0.950 . S
H761 C772 0.950 . S
H762 C774 0.950 . S
H763 C775 0.950 . S
C764 H756 0.950 . S
C764 C765 1.386 . S
C764 C766 1.391 . S
C765 C764 1.386 . S
C765 C769 1.393 . S
C766 H758 0.950 . S
C766 C764 1.391 . S
C766 C767 1.400 . S
C767 C766 1.400 . S
C767 C768 1.398 . S
C767 C773 1.491 . S
C768 H759 0.950 . S
C768 C767 1.398 . S
C768 C769 1.391 . S
C769 H757 0.950 . S
C769 C765 1.393 . S
C769 C768 1.391 . S
C770 H760 0.950 . S
C770 C771 1.386 . S
C770 C772 1.391 . S
C771 C770 1.386 . S
C771 C775 1.393 . S
C772 H761 0.950 . S
C772 C770 1.391 . S
C772 C773 1.400 . S
C773 C767 1.491 . S
C773 C772 1.400 . S
C773 C774 1.398 . S
C774 H762 0.950 . S
C774 C773 1.398 . S
C774 C775 1.391 . S
C775 H763 0.950 . S
C775 C771 1.393 . S
C775 C774 1.391 . S
H776 C784 0.950 . S
H777 C789 0.950 . S
H778 C786 0.950 . S
H779 C788 0.950 . S
H780 C790 0.950 . S
H781 C792 0.950 . S
H782 C794 0.950 . S
H783 C795 0.950 . S
C784 H776 0.950 . S
C784 C785 1.386 . S
C784 C786 1.391 . S
C785 C784 1.386 . S
C785 C789 1.393 . S
C786 H778 0.950 . S
C786 C784 1.391 . S
C786 C787 1.400 . S
C787 C786 1.400 . S
C787 C788 1.398 . S
C787 C793 1.491 . S
C788 H779 0.950 . S
C788 C787 1.398 . S
C788 C789 1.391 . S
C789 H777 0.950 . S
C789 C785 1.393 . S
C789 C788 1.391 . S
C790 H780 0.950 . S
C790 C791 1.386 . S
C790 C792 1.391 . S
C791 C790 1.386 . S
C791 C795 1.393 . S
C792 H781 0.950 . S
C792 C790 1.391 . S
C792 C793 1.400 . S
C793 C787 1.491 . S
C793 C792 1.400 . S
C793 C794 1.398 . S
C794 H782 0.950 . S
C794 C793 1.398 . S
C794 C795 1.391 . S
C795 H783 0.950 . S
C795 C791 1.393 . S
C795 C794 1.391 . S
H796 C804 0.950 . S
H797 C809 0.950 . S
H798 C806 0.950 . S
H799 C808 0.950 . S
H800 C810 0.950 . S
H801 C812 0.950 . S
H802 C814 0.950 . S
H803 C815 0.950 . S
C804 H796 0.950 . S
C804 C805 1.386 . S
C804 C806 1.391 . S
C805 C804 1.386 . S
C805 C809 1.393 . S
C806 H798 0.950 . S
C806 C804 1.391 . S
C806 C807 1.400 . S
C807 C806 1.400 . S
C807 C808 1.398 . S
C807 C813 1.491 . S
C808 H799 0.950 . S
C808 C807 1.398 . S
C808 C809 1.391 . S
C809 H797 0.950 . S
C809 C805 1.393 . S
C809 C808 1.391 . S
C810 H800 0.950 . S
C810 C811 1.386 . S
C810 C812 1.391 . S
C811 C810 1.386 . S
C811 C815 1.393 . S
C812 H801 0.950 . S
C812 C810 1.391 . S
C812 C813 1.400 . S
C813 C807 1.491 . S
C813 C812 1.400 . S
C813 C814 1.398 . S
C814 H802 0.950 . S
C814 C813 1.398 . S
C814 C815 1.391 . S
C815 H803 0.950 . S
C815 C811 1.393 . S
C815 C814 1.391 . S
H816 C824 0.950 . S
H817 C829 0.950 . S
H818 C826 0.950 . S
H819 C828 0.950 . S
H820 C830 0.950 . S
H821 C832 0.950 . S
H822 C834 0.950 . S
H823 C835 0.950 . S
C824 H816 0.950 . S
C824 C825 1.386 . S
C824 C826 1.391 . S
C825 C824 1.386 . S
C825 C829 1.393 . S
C826 H818 0.950 . S
C826 C824 1.391 . S
C826 C827 1.400 . S
C827 C826 1.400 . S
C827 C828 1.398 . S
C827 C833 1.491 1_554 S
C828 H819 0.950 . S
C828 C827 1.398 . S
C828 C829 1.391 . S
C829 H817 0.950 . S
C829 C825 1.393 . S
C829 C828 1.391 . S
C830 H820 0.950 . S
C830 C831 1.386 . S
C830 C832 1.391 . S
C831 C830 1.386 . S
C831 C835 1.393 . S
C832 H821 0.950 . S
C832 C830 1.391 . S
C832 C833 1.400 . S
C833 C827 1.491 1_556 S
C833 C832 1.400 . S
C833 C834 1.398 . S
C834 H822 0.950 . S
C834 C833 1.398 . S
C834 C835 1.391 . S
C835 H823 0.950 . S
C835 C831 1.393 . S
C835 C834 1.391 . S
H836 C844 0.950 . S
H837 C849 0.950 . S
H838 C846 0.950 . S
H839 C848 0.950 . S
H840 C850 0.950 . S
H841 C852 0.950 . S
H842 C854 0.950 . S
H843 C855 0.950 . S
C844 H836 0.950 . S
C844 C845 1.386 . S
C844 C846 1.391 . S
C845 C844 1.386 . S
C845 C849 1.393 . S
C846 H838 0.950 . S
C846 C844 1.391 . S
C846 C847 1.400 . S
C847 C846 1.400 . S
C847 C848 1.398 . S
C847 C853 1.491 1_556 S
C848 H839 0.950 . S
C848 C847 1.398 . S
C848 C849 1.391 . S
C849 H837 0.950 . S
C849 C845 1.393 . S
C849 C848 1.391 . S
C850 H840 0.950 . S
C850 C851 1.386 . S
C850 C852 1.391 . S
C851 C850 1.386 . S
C851 C855 1.393 . S
C852 H841 0.950 . S
C852 C850 1.391 . S
C852 C853 1.400 . S
C853 C847 1.491 1_554 S
C853 C852 1.400 . S
C853 C854 1.398 . S
C854 H842 0.950 . S
C854 C853 1.398 . S
C854 C855 1.391 . S
C855 H843 0.950 . S
C855 C851 1.393 . S
C855 C854 1.391 . S
H856 C864 0.950 . S
H857 C869 0.950 . S
H858 C866 0.950 . S
H859 C868 0.950 . S
H860 C870 0.950 . S
H861 C872 0.950 . S
H862 C874 0.950 . S
H863 C875 0.950 . S
C864 H856 0.950 . S
C864 C865 1.386 . S
C864 C866 1.391 . S
C865 C864 1.386 . S
C865 C869 1.393 . S
C866 H858 0.950 . S
C866 C864 1.391 . S
C866 C867 1.400 . S
C867 C866 1.400 . S
C867 C868 1.398 . S
C867 C873 1.491 1_556 S
C868 H859 0.950 . S
C868 C867 1.398 . S
C868 C869 1.391 . S
C869 H857 0.950 . S
C869 C865 1.393 . S
C869 C868 1.391 . S
C870 H860 0.950 . S
C870 C871 1.386 . S
C870 C872 1.391 . S
C871 C870 1.386 . S
C871 C875 1.393 . S
C872 H861 0.950 . S
C872 C870 1.391 . S
C872 C873 1.400 . S
C873 C867 1.491 1_554 S
C873 C872 1.400 . S
C873 C874 1.398 . S
C874 H862 0.950 . S
C874 C873 1.398 . S
C874 C875 1.391 . S
C875 H863 0.950 . S
C875 C871 1.393 . S
C875 C874 1.391 . S
H876 C884 0.950 . S
H877 C889 0.950 . S
H878 C886 0.950 . S
H879 C888 0.950 . S
H880 C890 0.950 . S
H881 C892 0.950 . S
H882 C894 0.950 . S
H883 C895 0.950 . S
C884 H876 0.950 . S
C884 C885 1.386 . S
C884 C886 1.391 . S
C885 C884 1.386 . S
C885 C889 1.393 . S
C886 H878 0.950 . S
C886 C884 1.391 . S
C886 C887 1.400 . S
C887 C886 1.400 . S
C887 C888 1.398 . S
C887 C893 1.491 1_554 S
C888 H879 0.950 . S
C888 C887 1.398 . S
C888 C889 1.391 . S
C889 H877 0.950 . S
C889 C885 1.393 . S
C889 C888 1.391 . S
C890 H880 0.950 . S
C890 C891 1.386 . S
C890 C892 1.391 . S
C891 C890 1.386 . S
C891 C895 1.393 . S
C892 H881 0.950 . S
C892 C890 1.391 . S
C892 C893 1.400 . S
C893 C887 1.491 1_556 S
C893 C892 1.400 . S
C893 C894 1.398 . S
C894 H882 0.950 . S
C894 C893 1.398 . S
C894 C895 1.391 . S
C895 H883 0.950 . S
C895 C891 1.393 . S
C895 C894 1.391 . S
H896 C904 0.950 . S
H897 C909 0.950 . S
H898 C906 0.950 . S
H899 C908 0.950 . S
H900 C910 0.950 . S
H901 C912 0.950 . S
H902 C914 0.950 . S
H903 C915 0.950 . S
C904 H896 0.950 . S
C904 C905 1.386 . S
C904 C906 1.391 . S
C905 C904 1.386 . S
C905 C909 1.393 . S
C906 H898 0.950 . S
C906 C904 1.391 . S
C906 C907 1.400 . S
C907 C906 1.400 . S
C907 C908 1.398 . S
C907 C913 1.491 1_554 S
C908 H899 0.950 . S
C908 C907 1.398 . S
C908 C909 1.391 . S
C909 H897 0.950 . S
C909 C905 1.393 . S
C909 C908 1.391 . S
C910 H900 0.950 . S
C910 C911 1.386 . S
C910 C912 1.391 . S
C911 C910 1.386 . S
C911 C915 1.393 . S
C912 H901 0.950 . S
C912 C910 1.391 . S
C912 C913 1.400 . S
C913 C907 1.491 1_556 S
C913 C912 1.400 . S
C913 C914 1.398 . S
C914 H902 0.950 . S
C914 C913 1.398 . S
C914 C915 1.391 . S
C915 H903 0.950 . S
C915 C911 1.393 . S
C915 C914 1.391 . S
H916 C924 0.950 . S
H917 C929 0.950 . S
H918 C926 0.950 . S
H919 C928 0.950 . S
H920 C930 0.950 . S
H921 C932 0.950 . S
H922 C934 0.950 . S
H923 C935 0.950 . S
C924 H916 0.950 . S
C924 C925 1.386 . S
C924 C926 1.391 . S
C925 C924 1.386 . S
C925 C929 1.393 . S
C926 H918 0.950 . S
C926 C924 1.391 . S
C926 C927 1.400 . S
C927 C926 1.400 . S
C927 C928 1.398 . S
C927 C933 1.491 1_556 S
C928 H919 0.950 . S
C928 C927 1.398 . S
C928 C929 1.391 . S
C929 H917 0.950 . S
C929 C925 1.393 . S
C929 C928 1.391 . S
C930 H920 0.950 . S
C930 C931 1.386 . S
C930 C932 1.391 . S
C931 C930 1.386 . S
C931 C935 1.393 . S
C932 H921 0.950 . S
C932 C930 1.391 . S
C932 C933 1.400 . S
C933 C927 1.491 1_554 S
C933 C932 1.400 . S
C933 C934 1.398 . S
C934 H922 0.950 . S
C934 C933 1.398 . S
C934 C935 1.391 . S
C935 H923 0.950 . S
C935 C931 1.393 . S
C935 C934 1.391 . S
H936 C944 0.950 . S
H937 C949 0.950 . S
H938 C946 0.950 . S
H939 C948 0.950 . S
H940 C950 0.950 . S
H941 C952 0.950 . S
H942 C954 0.950 . S
H943 C955 0.950 . S
C944 H936 0.950 . S
C944 C945 1.386 . S
C944 C946 1.391 . S
C945 C944 1.386 . S
C945 C949 1.393 . S
C946 H938 0.950 . S
C946 C944 1.391 . S
C946 C947 1.400 . S
C947 C946 1.400 . S
C947 C948 1.398 . S
C947 C953 1.491 . S
C948 H939 0.950 . S
C948 C947 1.398 . S
C948 C949 1.391 . S
C949 H937 0.950 . S
C949 C945 1.393 . S
C949 C948 1.391 . S
C950 H940 0.950 . S
C950 C951 1.386 . S
C950 C952 1.391 . S
C951 C950 1.386 . S
C951 C955 1.393 . S
C952 H941 0.950 . S
C952 C950 1.391 . S
C952 C953 1.400 . S
C953 C947 1.491 . S
C953 C952 1.400 . S
C953 C954 1.398 . S
C954 H942 0.950 . S
C954 C953 1.398 . S
C954 C955 1.391 . S
C955 H943 0.950 . S
C955 C951 1.393 . S
C955 C954 1.391 . S
H956 C964 0.950 . S
H957 C969 0.950 . S
H958 C966 0.950 . S
H959 C968 0.950 . S
H960 C970 0.950 . S
H961 C972 0.950 . S
H962 C974 0.950 . S
H963 C975 0.950 . S
C964 H956 0.950 . S
C964 C965 1.386 . S
C964 C966 1.391 . S
C965 C964 1.386 . S
C965 C969 1.393 . S
C966 H958 0.950 . S
C966 C964 1.391 . S
C966 C967 1.400 . S
C967 C966 1.400 . S
C967 C968 1.398 . S
C967 C973 1.491 . S
C968 H959 0.950 . S
C968 C967 1.398 . S
C968 C969 1.391 . S
C969 H957 0.950 . S
C969 C965 1.393 . S
C969 C968 1.391 . S
C970 H960 0.950 . S
C970 C971 1.386 . S
C970 C972 1.391 . S
C971 C970 1.386 . S
C971 C975 1.393 . S
C972 H961 0.950 . S
C972 C970 1.391 . S
C972 C973 1.400 . S
C973 C967 1.491 . S
C973 C972 1.400 . S
C973 C974 1.398 . S
C974 H962 0.950 . S
C974 C973 1.398 . S
C974 C975 1.391 . S
C975 H963 0.950 . S
C975 C971 1.393 . S
C975 C974 1.391 . S
H976 C984 0.950 . S
H977 C989 0.950 . S
H978 C986 0.950 . S
H979 C988 0.950 . S
H980 C990 0.950 . S
H981 C992 0.950 . S
H982 C994 0.950 . S
H983 C995 0.950 . S
C984 H976 0.950 . S
C984 C985 1.386 . S
C984 C986 1.391 . S
C985 C984 1.386 . S
C985 C989 1.393 . S
C986 H978 0.950 . S
C986 C984 1.391 . S
C986 C987 1.400 . S
C987 C986 1.400 . S
C987 C988 1.398 . S
C987 C993 1.491 . S
C988 H979 0.950 . S
C988 C987 1.398 . S
C988 C989 1.391 . S
C989 H977 0.950 . S
C989 C985 1.393 . S
C989 C988 1.391 . S
C990 H980 0.950 . S
C990 C991 1.386 . S
C990 C992 1.391 . S
C991 C990 1.386 . S
C991 C995 1.393 . S
C992 H981 0.950 . S
C992 C990 1.391 . S
C992 C993 1.400 . S
C993 C987 1.491 . S
C993 C992 1.400 . S
C993 C994 1.398 . S
C994 H982 0.950 . S
C994 C993 1.398 . S
C994 C995 1.391 . S
C995 H983 0.950 . S
C995 C991 1.393 . S
C995 C994 1.391 . S
H996 C1004 0.950 . S
H997 C1009 0.950 . S
H998 C1006 0.950 . S
H999 C1008 0.950 . S
H1000 C1010 0.950 . S
H1001 C1012 0.950 . S
H1002 C1014 0.950 . S
H1003 C1015 0.950 . S
C1004 H996 0.950 . S
C1004 C1005 1.386 . S
C1004 C1006 1.391 . S
C1005 C1004 1.386 . S
C1005 C1009 1.393 . S
C1006 H998 0.950 . S
C1006 C1004 1.391 . S
C1006 C1007 1.400 . S
C1007 C1006 1.400 . S
C1007 C1008 1.398 . S
C1007 C1013 1.491 . S
C1008 H999 0.950 . S
C1008 C1007 1.398 . S
C1008 C1009 1.391 . S
C1009 H997 0.950 . S
C1009 C1005 1.393 . S
C1009 C1008 1.391 . S
C1010 H1000 0.950 . S
C1010 C1011 1.386 . S
C1010 C1012 1.391 . S
C1011 C1010 1.386 . S
C1011 C1015 1.393 . S
C1012 H1001 0.950 . S
C1012 C1010 1.391 . S
C1012 C1013 1.400 . S
C1013 C1007 1.491 . S
C1013 C1012 1.400 . S
C1013 C1014 1.398 . S
C1014 H1002 0.950 . S
C1014 C1013 1.398 . S
C1014 C1015 1.391 . S
C1015 H1003 0.950 . S
C1015 C1011 1.393 . S
C1015 C1014 1.391 . S
H1016 C1024 0.950 . S
H1017 C1029 0.950 . S
H1018 C1026 0.950 . S
H1019 C1028 0.950 . S
H1020 C1030 0.950 . S
H1021 C1032 0.950 . S
H1022 C1034 0.950 . S
H1023 C1035 0.950 . S
C1024 H1016 0.950 . S
C1024 C1025 1.386 . S
C1024 C1026 1.391 . S
C1025 C1024 1.386 . S
C1025 C1029 1.393 . S
C1026 H1018 0.950 . S
C1026 C1024 1.391 . S
C1026 C1027 1.400 . S
C1027 C1026 1.400 . S
C1027 C1028 1.398 . S
C1027 C1033 1.491 . S
C1028 H1019 0.950 . S
C1028 C1027 1.398 . S
C1028 C1029 1.391 . S
C1029 H1017 0.950 . S
C1029 C1025 1.393 . S
C1029 C1028 1.391 . S
C1030 H1020 0.950 . S
C1030 C1031 1.386 . S
C1030 C1032 1.391 . S
C1031 C1030 1.386 . S
C1031 C1035 1.393 . S
C1032 H1021 0.950 . S
C1032 C1030 1.391 . S
C1032 C1033 1.400 . S
C1033 C1027 1.491 . S
C1033 C1032 1.400 . S
C1033 C1034 1.398 . S
C1034 H1022 0.950 . S
C1034 C1033 1.398 . S
C1034 C1035 1.391 . S
C1035 H1023 0.950 . S
C1035 C1031 1.393 . S
C1035 C1034 1.391 . S
H1036 C1044 0.950 . S
H1037 C1049 0.950 . S
H1038 C1046 0.950 . S
H1039 C1048 0.950 . S
H1040 C1050 0.950 . S
H1041 C1052 0.950 . S
H1042 C1054 0.950 . S
H1043 C1055 0.950 . S
C1044 H1036 0.950 . S
C1044 C1045 1.386 . S
C1044 C1046 1.391 . S
C1045 C1044 1.386 . S
C1045 C1049 1.393 . S
C1046 H1038 0.950 . S
C1046 C1044 1.391 . S
C1046 C1047 1.400 . S
C1047 C1046 1.400 . S
C1047 C1048 1.398 . S
C1047 C1053 1.491 . S
C1048 H1039 0.950 . S
C1048 C1047 1.398 . S
C1048 C1049 1.391 . S
C1049 H1037 0.950 . S
C1049 C1045 1.393 . S
C1049 C1048 1.391 . S
C1050 H1040 0.950 . S
C1050 C1051 1.386 . S
C1050 C1052 1.391 . S
C1051 C1050 1.386 . S
C1051 C1055 1.393 . S
C1052 H1041 0.950 . S
C1052 C1050 1.391 . S
C1052 C1053 1.400 . S
C1053 C1047 1.491 . S
C1053 C1052 1.400 . S
C1053 C1054 1.398 . S
C1054 H1042 0.950 . S
C1054 C1053 1.398 . S
C1054 C1055 1.391 . S
C1055 H1043 0.950 . S
C1055 C1051 1.393 . S
C1055 C1054 1.391 . S
H1056 C1064 0.950 . S
H1057 C1069 0.950 . S
H1058 C1066 0.950 . S
H1059 C1068 0.950 . S
H1060 C1070 0.950 . S
H1061 C1072 0.950 . S
H1062 C1074 0.950 . S
H1063 C1075 0.950 . S
C1064 H1056 0.950 . S
C1064 C1065 1.386 . S
C1064 C1066 1.391 . S
C1065 C1064 1.386 . S
C1065 C1069 1.393 . S
C1066 H1058 0.950 . S
C1066 C1064 1.391 . S
C1066 C1067 1.400 . S
C1067 C1066 1.400 . S
C1067 C1068 1.398 . S
C1067 C1073 1.491 . S
C1068 H1059 0.950 . S
C1068 C1067 1.398 . S
C1068 C1069 1.391 . S
C1069 H1057 0.950 . S
C1069 C1065 1.393 . S
C1069 C1068 1.391 . S
C1070 H1060 0.950 . S
C1070 C1071 1.386 . S
C1070 C1072 1.391 . S
C1071 C1070 1.386 . S
C1071 C1075 1.393 . S
C1072 H1061 0.950 . S
C1072 C1070 1.391 . S
C1072 C1073 1.400 . S
C1073 C1067 1.491 . S
C1073 C1072 1.400 . S
C1073 C1074 1.398 . S
C1074 H1062 0.950 . S
C1074 C1073 1.398 . S
C1074 C1075 1.391 . S
C1075 H1063 0.950 . S
C1075 C1071 1.393 . S
C1075 C1074 1.391 . S
H1076 C1084 0.950 . S
H1077 C1089 0.950 . S
H1078 C1086 0.950 . S
H1079 C1088 0.950 . S
H1080 C1090 0.950 . S
H1081 C1092 0.950 . S
H1082 C1094 0.950 . S
H1083 C1095 0.950 . S
C1084 H1076 0.950 . S
C1084 C1085 1.386 . S
C1084 C1086 1.391 . S
C1085 C1084 1.386 . S
C1085 C1089 1.393 . S
C1086 H1078 0.950 . S
C1086 C1084 1.391 . S
C1086 C1087 1.400 . S
C1087 C1086 1.400 . S
C1087 C1088 1.398 . S
C1087 C1093 1.491 . S
C1088 H1079 0.950 . S
C1088 C1087 1.398 . S
C1088 C1089 1.391 . S
C1089 H1077 0.950 . S
C1089 C1085 1.393 . S
C1089 C1088 1.391 . S
C1090 H1080 0.950 . S
C1090 C1091 1.386 . S
C1090 C1092 1.391 . S
C1091 C1090 1.386 . S
C1091 C1095 1.393 . S
C1092 H1081 0.950 . S
C1092 C1090 1.391 . S
C1092 C1093 1.400 . S
C1093 C1087 1.491 . S
C1093 C1092 1.400 . S
C1093 C1094 1.398 . S
C1094 H1082 0.950 . S
C1094 C1093 1.398 . S
C1094 C1095 1.391 . S
C1095 H1083 0.950 . S
C1095 C1091 1.393 . S
C1095 C1094 1.391 . S
H1096 C1104 0.950 . S
H1097 C1109 0.950 . S
H1098 C1106 0.950 . S
H1099 C1108 0.950 . S
H1100 C1110 0.950 . S
H1101 C1112 0.950 . S
H1102 C1114 0.950 . S
H1103 C1115 0.950 . S
C1104 H1096 0.950 . S
C1104 C1105 1.386 . S
C1104 C1106 1.391 . S
C1105 C1104 1.386 . S
C1105 C1109 1.393 . S
C1106 H1098 0.950 . S
C1106 C1104 1.391 . S
C1106 C1107 1.400 . S
C1107 C1106 1.400 . S
C1107 C1108 1.398 . S
C1107 C1113 1.491 . S
C1108 H1099 0.950 . S
C1108 C1107 1.398 . S
C1108 C1109 1.391 . S
C1109 H1097 0.950 . S
C1109 C1105 1.393 . S
C1109 C1108 1.391 . S
C1110 H1100 0.950 . S
C1110 C1111 1.386 . S
C1110 C1112 1.391 . S
C1111 C1110 1.386 . S
C1111 C1115 1.393 . S
C1112 H1101 0.950 . S
C1112 C1110 1.391 . S
C1112 C1113 1.400 . S
C1113 C1107 1.491 . S
C1113 C1112 1.400 . S
C1113 C1114 1.398 . S
C1114 H1102 0.950 . S
C1114 C1113 1.398 . S
C1114 C1115 1.391 . S
C1115 H1103 0.950 . S
C1115 C1111 1.393 . S
C1115 C1114 1.391 . S
H1116 C1124 0.950 . S
H1117 C1129 0.950 . S
H1118 C1126 0.950 . S
H1119 C1128 0.950 . S
H1120 C1130 0.950 . S
H1121 C1132 0.950 . S
H1122 C1134 0.950 . S
H1123 C1135 0.950 . S
C1124 H1116 0.950 . S
C1124 C1125 1.386 . S
C1124 C1126 1.391 . S
C1125 C1124 1.386 . S
C1125 C1129 1.393 . S
C1126 H1118 0.950 . S
C1126 C1124 1.391 . S
C1126 C1127 1.400 . S
C1127 C1126 1.400 . S
C1127 C1128 1.398 . S
C1127 C1133 1.491 . S
C1128 H1119 0.950 . S
C1128 C1127 1.398 . S
C1128 C1129 1.391 . S
C1129 H1117 0.950 . S
C1129 C1125 1.393 . S
C1129 C1128 1.391 . S
C1130 H1120 0.950 . S
C1130 C1131 1.386 . S
C1130 C1132 1.391 . S
C1131 C1130 1.386 . S
C1131 C1135 1.393 . S
C1132 H1121 0.950 . S
C1132 C1130 1.391 . S
C1132 C1133 1.400 . S
C1133 C1127 1.491 . S
C1133 C1132 1.400 . S
C1133 C1134 1.398 . S
C1134 H1122 0.950 . S
C1134 C1133 1.398 . S
C1134 C1135 1.391 . S
C1135 H1123 0.950 . S
C1135 C1131 1.393 . S
C1135 C1134 1.391 . S
H1136 C1144 0.950 . S
H1137 C1149 0.950 . S
H1138 C1146 0.950 . S
H1139 C1148 0.950 . S
H1140 C1150 0.950 . S
H1141 C1152 0.950 . S
H1142 C1154 0.950 . S
H1143 C1155 0.950 . S
C1144 H1136 0.950 . S
C1144 C1145 1.386 . S
C1144 C1146 1.391 . S
C1145 C1144 1.386 . S
C1145 C1149 1.393 . S
C1146 H1138 0.950 . S
C1146 C1144 1.391 . S
C1146 C1147 1.400 . S
C1147 C1146 1.400 . S
C1147 C1148 1.398 . S
C1147 C1153 1.491 . S
C1148 H1139 0.950 . S
C1148 C1147 1.398 . S
C1148 C1149 1.391 . S
C1149 H1137 0.950 . S
C1149 C1145 1.393 . S
C1149 C1148 1.391 . S
C1150 H1140 0.950 . S
C1150 C1151 1.386 . S
C1150 C1152 1.391 . S
C1151 C1150 1.386 . S
C1151 C1155 1.393 . S
C1152 H1141 0.950 . S
C1152 C1150 1.391 . S
C1152 C1153 1.400 . S
C1153 C1147 1.491 . S
C1153 C1152 1.400 . S
C1153 C1154 1.398 . S
C1154 H1142 0.950 . S
C1154 C1153 1.398 . S
C1154 C1155 1.391 . S
C1155 H1143 0.950 . S
C1155 C1151 1.393 . S
C1155 C1154 1.391 . S
H1156 C1164 0.950 . S
H1157 C1169 0.950 . S
H1158 C1166 0.950 . S
H1159 C1168 0.950 . S
H1160 C1170 0.950 . S
H1161 C1172 0.950 . S
H1162 C1174 0.950 . S
H1163 C1175 0.950 . S
C1164 H1156 0.950 . S
C1164 C1165 1.386 . S
C1164 C1166 1.391 . S
C1165 C1164 1.386 . S
C1165 C1169 1.393 . S
C1166 H1158 0.950 . S
C1166 C1164 1.391 . S
C1166 C1167 1.400 . S
C1167 C1166 1.400 . S
C1167 C1168 1.398 . S
C1167 C1173 1.491 . S
C1168 H1159 0.950 . S
C1168 C1167 1.398 . S
C1168 C1169 1.391 . S
C1169 H1157 0.950 . S
C1169 C1165 1.393 . S
C1169 C1168 1.391 . S
C1170 H1160 0.950 . S
C1170 C1171 1.386 . S
C1170 C1172 1.391 . S
C1171 C1170 1.386 . S
C1171 C1175 1.393 . S
C1172 H1161 0.950 . S
C1172 C1170 1.391 . S
C1172 C1173 1.400 . S
C1173 C1167 1.491 . S
C1173 C1172 1.400 . S
C1173 C1174 1.398 . S
C1174 H1162 0.950 . S
C1174 C1173 1.398 . S
C1174 C1175 1.391 . S
C1175 H1163 0.950 . S
C1175 C1171 1.393 . S
C1175 C1174 1.391 . S
H1176 C1184 0.950 . S
H1177 C1189 0.950 . S
H1178 C1186 0.950 . S
H1179 C1188 0.950 . S
H1180 C1190 0.950 . S
H1181 C1192 0.950 . S
H1182 C1194 0.950 . S
H1183 C1195 0.950 . S
C1184 H1176 0.950 . S
C1184 C1185 1.386 . S
C1184 C1186 1.391 . S
C1185 C1184 1.386 . S
C1185 C1189 1.393 . S
C1186 H1178 0.950 . S
C1186 C1184 1.391 . S
C1186 C1187 1.400 . S
C1187 C1186 1.400 . S
C1187 C1188 1.398 . S
C1187 C1193 1.491 . S
C1188 H1179 0.950 . S
C1188 C1187 1.398 . S
C1188 C1189 1.391 . S
C1189 H1177 0.950 . S
C1189 C1185 1.393 . S
C1189 C1188 1.391 . S
C1190 H1180 0.950 . S
C1190 C1191 1.386 . S
C1190 C1192 1.391 . S
C1191 C1190 1.386 . S
C1191 C1195 1.393 . S
C1192 H1181 0.950 . S
C1192 C1190 1.391 . S
C1192 C1193 1.400 . S
C1193 C1187 1.491 . S
C1193 C1192 1.400 . S
C1193 C1194 1.398 . S
C1194 H1182 0.950 . S
C1194 C1193 1.398 . S
C1194 C1195 1.391 . S
C1195 H1183 0.950 . S
C1195 C1191 1.393 . S
C1195 C1194 1.391 . S
H1196 C1204 0.950 . S
H1197 C1209 0.950 . S
H1198 C1206 0.950 . S
H1199 C1208 0.950 . S
H1200 C1210 0.950 . S
H1201 C1212 0.950 . S
H1202 C1214 0.950 . S
H1203 C1215 0.950 . S
C1204 H1196 0.950 . S
C1204 C1205 1.386 . S
C1204 C1206 1.391 . S
C1205 C1204 1.386 . S
C1205 C1209 1.393 . S
C1206 H1198 0.950 . S
C1206 C1204 1.391 . S
C1206 C1207 1.400 . S
C1207 C1206 1.400 . S
C1207 C1208 1.398 . S
C1207 C1213 1.491 . S
C1208 H1199 0.950 . S
C1208 C1207 1.398 . S
C1208 C1209 1.391 . S
C1209 H1197 0.950 . S
C1209 C1205 1.393 . S
C1209 C1208 1.391 . S
C1210 H1200 0.950 . S
C1210 C1211 1.386 . S
C1210 C1212 1.391 . S
C1211 C1210 1.386 . S
C1211 C1215 1.393 . S
C1212 H1201 0.950 . S
C1212 C1210 1.391 . S
C1212 C1213 1.400 . S
C1213 C1207 1.491 . S
C1213 C1212 1.400 . S
C1213 C1214 1.398 . S
C1214 H1202 0.950 . S
C1214 C1213 1.398 . S
C1214 C1215 1.391 . S
C1215 H1203 0.950 . S
C1215 C1211 1.393 . S
C1215 C1214 1.391 . S
H1216 C1224 0.950 . S
H1217 C1229 0.950 . S
H1218 C1226 0.950 . S
H1219 C1228 0.950 . S
H1220 C1230 0.950 . S
H1221 C1232 0.950 . S
H1222 C1234 0.950 . S
H1223 C1235 0.950 . S
C1224 H1216 0.950 . S
C1224 C1225 1.386 . S
C1224 C1226 1.391 . S
C1225 C1224 1.386 . S
C1225 C1229 1.393 . S
C1226 H1218 0.950 . S
C1226 C1224 1.391 . S
C1226 C1227 1.400 . S
C1227 C1226 1.400 . S
C1227 C1228 1.398 . S
C1227 C1233 1.491 . S
C1228 H1219 0.950 . S
C1228 C1227 1.398 . S
C1228 C1229 1.391 . S
C1229 H1217 0.950 . S
C1229 C1225 1.393 . S
C1229 C1228 1.391 . S
C1230 H1220 0.950 . S
C1230 C1231 1.386 . S
C1230 C1232 1.391 . S
C1231 C1230 1.386 . S
C1231 C1235 1.393 . S
C1232 H1221 0.950 . S
C1232 C1230 1.391 . S
C1232 C1233 1.400 . S
C1233 C1227 1.491 . S
C1233 C1232 1.400 . S
C1233 C1234 1.398 . S
C1234 H1222 0.950 . S
C1234 C1233 1.398 . S
C1234 C1235 1.391 . S
C1235 H1223 0.950 . S
C1235 C1231 1.393 . S
C1235 C1234 1.391 . S
H1236 C1244 0.950 . S
H1237 C1249 0.950 . S
H1238 C1246 0.950 . S
H1239 C1248 0.950 . S
H1240 C1250 0.950 . S
H1241 C1252 0.950 . S
H1242 C1254 0.950 . S
H1243 C1255 0.950 . S
C1244 H1236 0.950 . S
C1244 C1245 1.386 . S
C1244 C1246 1.391 . S
C1245 C1244 1.386 . S
C1245 C1249 1.393 . S
C1246 H1238 0.950 . S
C1246 C1244 1.391 . S
C1246 C1247 1.400 . S
C1247 C1246 1.400 . S
C1247 C1248 1.398 . S
C1247 C1253 1.491 . S
C1248 H1239 0.950 . S
C1248 C1247 1.398 . S
C1248 C1249 1.391 . S
C1249 H1237 0.950 . S
C1249 C1245 1.393 . S
C1249 C1248 1.391 . S
C1250 H1240 0.950 . S
C1250 C1251 1.386 . S
C1250 C1252 1.391 . S
C1251 C1250 1.386 . S
C1251 C1255 1.393 . S
C1252 H1241 0.950 . S
C1252 C1250 1.391 . S
C1252 C1253 1.400 . S
C1253 C1247 1.491 . S
C1253 C1252 1.400 . S
C1253 C1254 1.398 . S
C1254 H1242 0.950 . S
C1254 C1253 1.398 . S
C1254 C1255 1.391 . S
C1255 H1243 0.950 . S
C1255 C1251 1.393 . S
C1255 C1254 1.391 . S
H1256 C1264 0.950 . S
H1257 C1269 0.950 . S
H1258 C1266 0.950 . S
H1259 C1268 0.950 . S
H1260 C1270 0.950 . S
H1261 C1272 0.950 . S
H1262 C1274 0.950 . S
H1263 C1275 0.950 . S
C1264 H1256 0.950 . S
C1264 C1265 1.386 . S
C1264 C1266 1.391 . S
C1265 C1264 1.386 . S
C1265 C1269 1.393 . S
C1266 H1258 0.950 . S
C1266 C1264 1.391 . S
C1266 C1267 1.400 . S
C1267 C1266 1.400 . S
C1267 C1268 1.398 . S
C1267 C1273 1.491 . S
C1268 H1259 0.950 . S
C1268 C1267 1.398 . S
C1268 C1269 1.391 . S
C1269 H1257 0.950 . S
C1269 C1265 1.393 . S
C1269 C1268 1.391 . S
C1270 H1260 0.950 . S
C1270 C1271 1.386 . S
C1270 C1272 1.391 . S
C1271 C1270 1.386 . S
C1271 C1275 1.393 . S
C1272 H1261 0.950 . S
C1272 C1270 1.391 . S
C1272 C1273 1.400 . S
C1273 C1267 1.491 . S
C1273 C1272 1.400 . S
C1273 C1274 1.398 . S
C1274 H1262 0.950 . S
C1274 C1273 1.398 . S
C1274 C1275 1.391 . S
C1275 H1263 0.950 . S
C1275 C1271 1.393 . S
C1275 C1274 1.391 . S
H1276 C1284 0.950 . S
H1277 C1289 0.950 . S
H1278 C1286 0.950 . S
H1279 C1288 0.950 . S
H1280 C1290 0.950 . S
H1281 C1292 0.950 . S
H1282 C1294 0.950 . S
H1283 C1295 0.950 . S
C1284 H1276 0.950 . S
C1284 C1285 1.386 . S
C1284 C1286 1.391 . S
C1285 C1284 1.386 . S
C1285 C1289 1.393 . S
C1286 H1278 0.950 . S
C1286 C1284 1.391 . S
C1286 C1287 1.400 . S
C1287 C1286 1.400 . S
C1287 C1288 1.398 . S
C1287 C1293 1.491 . S
C1288 H1279 0.950 . S
C1288 C1287 1.398 . S
C1288 C1289 1.391 . S
C1289 H1277 0.950 . S
C1289 C1285 1.393 . S
C1289 C1288 1.391 . S
C1290 H1280 0.950 . S
C1290 C1291 1.386 . S
C1290 C1292 1.391 . S
C1291 C1290 1.386 . S
C1291 C1295 1.393 . S
C1292 H1281 0.950 . S
C1292 C1290 1.391 . S
C1292 C1293 1.400 . S
C1293 C1287 1.491 . S
C1293 C1292 1.400 . S
C1293 C1294 1.398 . S
C1294 H1282 0.950 . S
C1294 C1293 1.398 . S
C1294 C1295 1.391 . S
C1295 H1283 0.950 . S
C1295 C1291 1.393 . S
C1295 C1294 1.391 . S
C345 C9 1.523 . S
C351 C107 1.541 . S
C365 C121 1.537 . S
C371 C23 1.527 . S
C385 C37 1.539 . S
C391 C135 1.524 . S
C405 C51 1.527 . S
C411 C149 1.536 . S
C425 C163 1.523 . S
C431 C65 1.540 . S
C445 C79 1.535 . S
C451 C93 1.529 . S
C465 C177 1.535 . S
C471 C275 1.527 . S
C485 C191 1.536 . S
C491 C289 1.527 . S
C505 C303 1.532 . S
C511 C205 1.532 . S
C525 C219 1.530 . S
C531 C317 1.534 . S
C545 C233 1.538 . S
C551 C331 1.526 . S
C565 C261 1.524 . S
C571 C247 1.539 . S
C585 C8 1.392 . S
C591 C120 1.392 . S
C605 C134 1.393 . S
C611 C22 1.392 . S
C625 C148 1.395 . S
C631 C36 1.395 . S
C645 C50 1.389 . S
C651 C162 1.388 . S
C665 C64 1.387 . S
C671 C92 1.387 . S
C685 C78 1.391 . S
C691 C106 1.392 . S
C705 C288 1.388 . S
C711 C176 1.388 . S
C725 C190 1.386 . S
C731 C302 1.386 . S
C745 C316 1.392 . S
C751 C204 1.392 . S
C765 C330 1.388 . S
C771 C218 1.389 . S
C785 C260 1.390 . S
C791 C232 1.391 . S
C805 C246 1.386 . S
C811 C274 1.387 . S
C825 C7 1.542 . S
C831 C217 1.518 . S
C845 C231 1.517 . S
C851 C21 1.543 . S
C865 C245 1.542 . S
C871 C35 1.519 . S
C885 C49 1.519 . S
C891 C175 1.541 . S
C905 C63 1.527 . S
C911 C189 1.533 . S
C925 C203 1.542 . S
C931 C77 1.519 . S
C945 C301 1.535 . S
C951 C91 1.525 . S
C965 C315 1.538 . S
C971 C105 1.522 . S
C985 C329 1.528 . S
C991 C119 1.532 . S
C1005 C259 1.541 . S
C1011 C133 1.520 . S
C1025 C147 1.520 . S
C1031 C273 1.541 . S
C1045 C161 1.518 . S
C1051 C287 1.542 . S
C1065 C3 1.436 . S
C1071 C143 1.432 . S
C1085 C157 1.435 . S
C1091 C17 1.440 . S
C1105 C87 1.433 . S
C1111 C31 1.434 . S
C1125 C45 1.434 . S
C1131 C101 1.432 . S
C1145 C59 1.438 . S
C1151 C115 1.433 . S
C1165 C73 1.439 . S
C1171 C129 1.440 . S
C1185 C171 1.437 . S
C1191 C311 1.432 . S
C1205 C185 1.437 . S
C1211 C325 1.432 . S
C1225 C199 1.439 . S
C1231 C255 1.440 . S
C1245 C269 1.438 . S
C1251 C213 1.440 . S
C1265 C227 1.440 . S
C1271 C283 1.438 . S
C1285 C241 1.432 . S
C1291 C297 1.436 . S
