# Generated by pormake.
# Topology reo, (8)-cn, num edge types: 1
# Building blocks:
#     Node 0, Type 0, BuildingBlock: TAGTUT_clean_sbu_1, # of connection points: 8
#     Node 1, Type 0, BuildingBlock: TAGTUT_clean_sbu_1, # of connection points: 8
#     Node 2, Type 0, BuildingBlock: TAGTUT_clean_sbu_1, # of connection points: 8
#     Edge 3, Type (0, 0), BuildingBlock: TEMPAE_clean_linker_10, # of connection points: 2
#     Edge 4, Type (0, 0), BuildingBlock: TEMPAE_clean_linker_10, # of connection points: 2
#     Edge 5, Type (0, 0), BuildingBlock: TEMPAE_clean_linker_10, # of connection points: 2
#     Edge 6, Type (0, 0), BuildingBlock: TEMPAE_clean_linker_10, # of connection points: 2
#     Edge 7, Type (0, 0), BuildingBlock: TEMPAE_clean_linker_10, # of connection points: 2
#     Edge 8, Type (0, 0), BuildingBlock: TEMPAE_clean_linker_10, # of connection points: 2
#     Edge 9, Type (0, 0), BuildingBlock: TEMPAE_clean_linker_10, # of connection points: 2
#     Edge 10, Type (0, 0), BuildingBlock: TEMPAE_clean_linker_10, # of connection points: 2
#     Edge 11, Type (0, 0), BuildingBlock: TEMPAE_clean_linker_10, # of connection points: 2
#     Edge 12, Type (0, 0), BuildingBlock: TEMPAE_clean_linker_10, # of connection points: 2
#     Edge 13, Type (0, 0), BuildingBlock: TEMPAE_clean_linker_10, # of connection points: 2
#     Edge 14, Type (0, 0), BuildingBlock: TEMPAE_clean_linker_10, # of connection points: 2
# Relax obj value: 0.196
# Max RMSD: 0.232
# Mean RMSD: 0.181
data_MOF--net-reo--node1-TAGTUT_clean_sbu_1--edge1-TEMPAE_clean_linker_10
_symmetry_space_group_name_H-M    P1
_symmetry_Int_Tables_number       1
_symmetry_cell_setting            triclinic
loop_
_symmetry_equiv_pos_as_xyz
'x, y, z'
_cell_length_a     21.070287
_cell_length_b     23.592254
_cell_length_c     26.832464
_cell_angle_alpha  91.05523
_cell_angle_beta   89.254132
_cell_angle_gamma 92.510633
loop_
_atom_site_label
_atom_site_type_symbol
_atom_site_fract_x
_atom_site_fract_y
_atom_site_fract_z
_atom_type_partial_charge
C0 C 0.02996 0.78687 0.52353 0.0
C1 C 0.92339 0.85853 0.40038 0.0
C2 C 0.10986 0.00923 0.38853 0.0
Mg3 Mg 0.93441 0.8813 0.51145 0.0
O4 O 0.0128 0.92124 0.50214 0.0
Mg5 Mg 0.06945 0.89434 0.44708 0.0
Mg6 Mg 0.0095 1.00103 0.48159 0.0
O7 O 0.00627 0.08079 0.46097 0.0
Mg8 Mg 0.08467 0.12072 0.45153 0.0
Mg9 Mg 0.94972 0.10773 0.51605 0.0
C10 C 0.90914 0.99278 0.57452 0.0
C11 C 0.86839 0.02179 0.44294 0.0
O12 O 0.06815 0.81118 0.49198 0.0
O13 O 0.97575 0.80586 0.5355 0.0
O14 O 0.98418 0.86311 0.39866 0.0
O15 O 0.89218 0.86678 0.44057 0.0
O16 O 0.89338 0.94063 0.5645 0.0
O17 O 0.954 0.01996 0.55138 0.0
C18 C 0.15062 0.9803 0.52025 0.0
O19 O 0.10476 0.01401 0.51955 0.0
O20 O 0.14871 0.93241 0.49681 0.0
O21 O 0.95101 0.19088 0.47116 0.0
O22 O 0.04335 0.19619 0.42755 0.0
O23 O 0.03508 0.13893 0.56437 0.0
C24 C 0.98917 0.2152 0.4396 0.0
O25 O 0.12702 0.13525 0.52237 0.0
O26 O 0.12565 0.0614 0.39841 0.0
C27 C 0.09587 0.14349 0.56259 0.0
O28 O 0.06509 0.98217 0.41188 0.0
O29 O 0.91424 0.98805 0.44363 0.0
O30 O 0.87035 0.06968 0.46637 0.0
C31 C 0.55857 0.96691 0.1715 0.0
C32 C 0.37559 0.97968 0.10432 0.0
C33 C 0.46181 0.87137 0.95206 0.0
Mg34 Mg 0.50097 0.04943 0.09616 0.0
O35 O 0.53461 0.99461 0.05251 0.0
Mg36 Mg 0.5038 0.91342 0.06247 0.0
Mg37 Mg 0.50956 1.0009 0.98157 0.0
O38 O 0.48449 0.00713 0.91062 0.0
Mg39 Mg 0.51806 0.95227 0.86696 0.0
Mg40 Mg 0.51534 0.08829 0.90064 0.0
C41 C 0.55723 0.13039 0.01106 0.0
C42 C 0.39327 0.09097 0.97494 0.0
O43 O 0.548 0.92466 0.14127 0.0
O44 O 0.54445 0.01786 0.16172 0.0
O45 O 0.40779 0.93656 0.09378 0.0
O46 O 0.40055 0.0299 0.10346 0.0
O47 O 0.53785 0.12569 0.0566 0.0
O48 O 0.55547 0.08823 0.98024 0.0
C49 C 0.62586 0.91081 -0.01182 0.0
O50 O 0.60309 0.95133 0.96316 0.0
O51 O 0.59775 0.89176 0.02736 0.0
O52 O 0.47112 0.07706 0.82186 0.0
O53 O 0.4746 0.98386 0.8014 0.0
O54 O 0.61131 0.06509 0.86935 0.0
C55 C 0.46052 0.03483 0.79163 0.0
O56 O 0.61849 0.97175 0.85966 0.0
O57 O 0.48111 0.87602 0.9065 0.0
C58 C 0.64349 0.02196 0.85881 0.0
O59 O 0.46376 0.91357 -0.01717 0.0
O60 O 0.41602 0.05046 -4e-05 0.0
O61 O 0.4214 0.11 0.93575 0.0
C62 C 0.10793 0.41945 0.81491 0.0
C63 C 0.05146 0.58726 0.83748 0.0
C64 C 0.13766 0.56936 0.02189 0.0
Mg65 Mg 0.98743 0.47339 0.86237 0.0
O66 O 0.03929 0.46723 0.91778 0.0
Mg67 Mg 0.12757 0.50348 0.91557 0.0
Mg68 Mg 0.00944 0.50085 0.98151 0.0
O69 O 0.97967 0.5345 0.04524 0.0
Mg70 Mg 0.03157 0.52845 0.10066 0.0
Mg71 Mg 0.8914 0.49828 0.0475 0.0
C72 C 0.88125 0.43245 0.94114 0.0
C73 C 0.89753 0.59069 0.95951 0.0
O74 O 0.14418 0.4446 0.84731 0.0
O75 O 0.04746 0.42434 0.81436 0.0
O76 O 0.09923 0.57145 0.86158 0.0
O77 O 0.99816 0.55943 0.83805 0.0
O78 O 0.89736 0.43919 0.8951 0.0
O79 O 0.91863 0.44712 0.97688 0.0
C80 C 0.12138 0.411 0.0035 0.0
O81 O 0.0657 0.42659 0.01698 0.0
O82 O 0.15214 0.43506 0.96782 0.0
O83 O 0.87483 0.55725 0.11572 0.0
O84 O 0.97156 0.57752 0.14865 0.0
O85 O 0.91978 0.43041 0.10155 0.0
C86 C 0.91109 0.58242 0.1481 0.0
O87 O 0.02086 0.44244 0.12504 0.0
O88 O 0.12162 0.5627 0.06795 0.0
C89 C 0.96756 0.41462 0.12565 0.0
O90 O 0.10024 0.5545 -0.01376 0.0
O91 O 0.95321 0.5751 0.94604 0.0
O92 O 0.86679 0.56664 -0.00479 0.0
C93 C 0.99685 0.33564 0.18014 0.0
C94 C 0.95453 0.37681 0.16752 0.0
C95 C 0.99074 0.30847 0.22615 0.0
C96 C 0.94368 0.32565 0.26091 0.0
C97 C 0.89954 0.36578 0.24739 0.0
C98 C 0.90469 0.38998 0.2003 0.0
C99 C 0.03637 0.26332 0.23843 0.0
C100 C 0.84992 0.38623 0.28384 0.0
C101 C 0.91505 0.23327 0.37317 0.0
C102 C 0.96344 0.2545 0.40453 0.0
C103 C 0.90576 0.25744 0.32675 0.0
C104 C 0.94433 0.3052 0.31269 0.0
C105 C 0.98795 0.33078 0.34701 0.0
C106 C 0.9983 0.30407 0.39219 0.0
C107 C 0.85973 0.22764 0.29127 0.0
C108 C 0.02703 0.38392 0.33452 0.0
H109 H 0.03544 0.32588 0.1547 0.0
H110 H 0.87271 0.42281 0.19075 0.0
H111 H 0.07061 0.28013 0.26667 0.0
H112 H 0.01025 0.226 0.25463 0.0
H113 H 0.06356 0.24915 0.20505 0.0
H114 H 0.81723 0.41568 0.26655 0.0
H115 H 0.8214 0.34979 0.29912 0.0
H116 H 0.87372 0.40858 0.31572 0.0
H117 H 0.88924 0.19394 0.38238 0.0
H118 H 0.03619 0.31985 0.4164 0.0
H119 H 0.88534 0.19541 0.26916 0.0
H120 H 0.83914 0.25712 0.26484 0.0
H121 H 0.82035 0.2053 0.31194 0.0
H122 H 0.06452 0.37351 0.30686 0.0
H123 H 0.05033 0.40337 0.36799 0.0
H124 H 0.99685 0.41566 0.31765 0.0
C125 C 0.8052 0.04405 0.36982 0.0
C126 C 0.81573 0.00792 0.40922 0.0
C127 C 0.76019 0.02905 0.33349 0.0
C128 C 0.72333 0.97762 0.3379 0.0
C129 C 0.73281 0.94159 0.37851 0.0
C130 C 0.77989 0.95683 0.41343 0.0
C131 C 0.75288 0.0679 0.28997 0.0
C132 C 0.69297 0.88747 0.38524 0.0
C133 C 0.5754 0.98616 0.26163 0.0
C134 C 0.59344 0.95822 0.21758 0.0
C135 C 0.6148 0.98778 0.30331 0.0
C136 C 0.6746 0.9628 0.2999 0.0
C137 C 0.69114 0.9313 0.25651 0.0
C138 C 0.64966 0.92869 0.21595 0.0
C139 C 0.59442 0.01983 0.34961 0.0
C140 C 0.75504 0.90505 0.25104 0.0
H141 H 0.83394 0.08313 0.36646 0.0
H142 H 0.78833 0.92922 0.44427 0.0
H143 H 0.75603 0.04362 0.25427 0.0
H144 H 0.70546 0.08653 0.29179 0.0
H145 H 0.78967 0.10306 0.28951 0.0
H146 H 0.70682 0.86395 0.41862 0.0
H147 H 0.64214 0.89746 0.38904 0.0
H148 H 0.6974 0.85931 0.35195 0.0
H149 H 0.5315 0.00853 0.26283 0.0
H150 H 0.6636 0.9074 0.18161 0.0
H151 H 0.62065 0.06161 0.35156 0.0
H152 H 0.60577 0.99635 0.38359 0.0
H153 H 0.54272 0.0273 0.34978 0.0
H154 H 0.79264 0.9392 0.24726 0.0
H155 H 0.75746 0.87638 0.21782 0.0
H156 H 0.76593 0.88077 0.28459 0.0
C157 C 0.8331 0.80354 0.36103 0.0
C158 C 0.88946 0.8369 0.35589 0.0
C159 C 0.81215 0.76752 0.32191 0.0
C160 C 0.84876 0.76536 0.27746 0.0
C161 C 0.89806 0.80695 0.26915 0.0
C162 C 0.91849 0.84195 0.30891 0.0
C163 C 0.75675 0.72627 0.331 0.0
C164 C 0.93616 0.80849 0.22117 0.0
C165 C 0.91051 0.62683 0.23195 0.0
C166 C 0.8835 0.62143 0.18479 0.0
C167 C 0.8947 0.67101 0.26441 0.0
C168 C 0.85126 0.71123 0.24885 0.0
C169 C 0.81941 0.70302 0.203 0.0
C170 C 0.83594 0.6578 0.17129 0.0
C171 C 0.92867 0.67698 0.31367 0.0
C172 C 0.77191 0.74412 0.18551 0.0
H173 H 0.80915 0.80094 0.39698 0.0
H174 H 0.96057 0.8696 0.30429 0.0
H175 H 0.73147 0.71516 0.29591 0.0
H176 H 0.77446 0.68666 0.34638 0.0
H177 H 0.72262 0.74396 0.35844 0.0
H178 H 0.95825 0.85138 0.21498 0.0
H179 H 0.9747 0.77802 0.22322 0.0
H180 H 0.90631 0.79641 0.18866 0.0
H181 H 0.94636 0.59786 0.24258 0.0
H182 H 0.81486 0.65336 0.13469 0.0
H183 H 0.894 0.68231 0.34467 0.0
H184 H 0.9613 0.7152 0.3134 0.0
H185 H 0.95701 0.63961 0.3215 0.0
H186 H 0.74507 0.76273 0.21719 0.0
H187 H 0.73779 0.7232 0.15903 0.0
H188 H 0.79738 0.77937 0.16574 0.0
C189 C 0.29429 0.91611 0.14518 0.0
C190 C 0.31185 0.96992 0.12659 0.0
C191 C 0.24618 0.90992 0.18131 0.0
C192 C 0.21501 0.9585 0.19822 0.0
C193 C 0.22421 0.01019 0.1726 0.0
C194 C 0.27349 0.0156 0.13735 0.0
C195 C 0.2353 0.85345 0.20615 0.0
C196 C 0.18805 0.06189 0.18712 0.0
C197 C 0.09899 0.95915 0.30721 0.0
C198 C 0.13831 0.98319 0.34438 0.0
C199 C 0.12322 0.94863 0.25917 0.0
C200 C 0.1886 0.96024 0.24946 0.0
C201 C 0.22932 0.9794 0.28858 0.0
C202 C 0.2033 0.9917 0.33542 0.0
C203 C 0.0782 0.92766 0.21891 0.0
C204 C 0.29983 0.99068 0.28025 0.0
H205 H 0.32238 0.87993 0.13576 0.0
H206 H 0.28512 0.05668 0.12154 0.0
H207 H 0.26044 0.85441 0.24228 0.0
H208 H 0.18403 0.84482 0.21399 0.0
H209 H 0.25341 0.81811 0.18281 0.0
H210 H 0.18848 0.09294 0.15647 0.0
H211 H 0.13803 0.04992 0.19712 0.0
H212 H 0.21057 0.08297 0.22016 0.0
H213 H 0.04844 0.95289 0.31453 0.0
H214 H 0.23329 0.01022 0.36455 0.0
H215 H 0.07847 0.88069 0.21653 0.0
H216 H 0.09217 0.94449 0.18183 0.0
H217 H 0.02876 0.93958 0.2275 0.0
H218 H 0.32103 0.95383 0.26111 0.0
H219 H 0.32538 0.99935 0.31573 0.0
H220 H 0.30778 0.02803 0.25604 0.0
C221 C 0.02095 0.69802 0.57098 0.0
C222 C 0.05569 0.74768 0.5587 0.0
C223 C 0.03126 0.67134 0.61619 0.0
C224 C 0.07469 0.69704 0.6506 0.0
C225 C 0.11312 0.74493 0.63662 0.0
C226 C 0.10389 0.76905 0.59017 0.0
C227 C 0.99235 0.61809 0.62859 0.0
C228 C 0.15894 0.77486 0.67217 0.0
C229 C 0.02199 0.66623 0.78305 0.0
C230 C 0.06446 0.6252 0.79569 0.0
C231 C 0.02808 0.69349 0.73708 0.0
C232 C 0.07531 0.67654 0.70237 0.0
C233 C 0.11962 0.63657 0.71592 0.0
C234 C 0.11446 0.61229 0.76298 0.0
C235 C 0.98228 0.73849 0.72478 0.0
C236 C 0.16945 0.61638 0.67954 0.0
H237 H 0.9832 0.68214 0.54669 0.0
H238 H 0.12959 0.80845 0.58101 0.0
H239 H 0.02262 0.58643 0.64549 0.0
H240 H 0.95475 0.62835 0.6562 0.0
H241 H 0.96921 0.59859 0.59508 0.0
H242 H 0.19845 0.79709 0.65157 0.0
H243 H 0.13322 0.80721 0.69406 0.0
H244 H 0.17936 0.7455 0.69881 0.0
H245 H 0.98327 0.67581 0.80844 0.0
H246 H 0.14659 0.57958 0.77255 0.0
H247 H 0.94816 0.7216 0.69647 0.0
H248 H 0.00828 0.77592 0.70865 0.0
H249 H 0.95495 0.75253 0.75814 0.0
H250 H 0.14585 0.59409 0.64754 0.0
H251 H 0.20218 0.58697 0.69682 0.0
H252 H 0.19792 0.65296 0.66443 0.0
C253 C 0.36956 0.07328 0.74718 0.0
C254 C 0.42566 0.04356 0.74556 0.0
C255 C 0.32807 0.07076 0.70663 0.0
C256 C 0.34446 0.03917 0.66327 0.0
C257 C 0.40415 0.01399 0.65986 0.0
C258 C 0.44357 0.01553 0.70152 0.0
C259 C 0.26428 0.09721 0.71211 0.0
C260 C 0.42437 0.98182 0.61358 0.0
C261 C 0.21362 0.95811 0.59348 0.0
C262 C 0.20325 0.99417 0.554 0.0
C263 C 0.25863 0.97309 0.62981 0.0
C264 C 0.29565 0.02443 0.62531 0.0
C265 C 0.28629 0.0604 0.58464 0.0
C266 C 0.2392 0.04518 0.54972 0.0
C267 C 0.26582 0.93431 0.67339 0.0
C268 C 0.32627 0.11443 0.57784 0.0
H269 H 0.35572 0.09464 0.78151 0.0
H270 H 0.48738 0.99302 0.70032 0.0
H271 H 0.25351 0.12155 0.67857 0.0
H272 H 0.22654 0.06317 0.71586 0.0
H273 H 0.26194 0.12586 0.74534 0.0
H274 H 0.47603 0.97418 0.6134 0.0
H275 H 0.39797 0.94012 0.61167 0.0
H276 H 0.4131 0.00531 0.57958 0.0
H277 H 0.18478 0.9191 0.59689 0.0
H278 H 0.23087 0.07275 0.51883 0.0
H279 H 0.26286 0.95868 0.70906 0.0
H280 H 0.31311 0.91547 0.67155 0.0
H281 H 0.22883 0.89931 0.67396 0.0
H282 H 0.32194 0.14265 0.61109 0.0
H283 H 0.31248 0.13793 0.54444 0.0
H284 H 0.37707 0.10431 0.57404 0.0
C285 C 0.10847 0.37498 0.73107 0.0
C286 C 0.13553 0.38045 0.77821 0.0
C287 C 0.12435 0.33083 0.69862 0.0
C288 C 0.16791 0.29069 0.71414 0.0
C289 C 0.1998 0.29898 0.75997 0.0
C290 C 0.18319 0.34417 0.79169 0.0
C291 C 0.09035 0.32479 0.64937 0.0
C292 C 0.24744 0.25799 0.77744 0.0
C293 C 0.10091 0.15994 0.65407 0.0
C294 C 0.12986 0.16509 0.60706 0.0
C295 C 0.12134 0.19492 0.69385 0.0
C296 C 0.17055 0.23659 0.68552 0.0
C297 C 0.2071 0.23454 0.64103 0.0
C298 C 0.18616 0.19854 0.6019 0.0
C299 C 0.08331 0.19328 0.74186 0.0
C300 C 0.26241 0.27588 0.63194 0.0
H301 H 0.07255 0.40389 0.72046 0.0
H302 H 0.20432 0.34866 0.82826 0.0
H303 H 0.125 0.31956 0.61835 0.0
H304 H 0.05783 0.2865 0.64965 0.0
H305 H 0.06188 0.3621 0.64156 0.0
H306 H 0.28161 0.27903 0.8038 0.0
H307 H 0.2221 0.22277 0.79733 0.0
H308 H 0.2742 0.23934 0.74573 0.0
H309 H 0.05887 0.13223 0.6587 0.0
H310 H 0.21005 0.20121 0.56594 0.0
H311 H 0.04488 0.22388 0.73996 0.0
H312 H 0.11327 0.20515 0.77436 0.0
H313 H 0.06108 0.15041 0.74794 0.0
H314 H 0.24461 0.31548 0.61659 0.0
H315 H 0.29655 0.25827 0.60447 0.0
H316 H 0.2877 0.287 0.66702 0.0
C317 C 0.72489 0.08551 0.81807 0.0
C318 C 0.70725 0.03169 0.83659 0.0
C319 C 0.773 0.0917 0.78195 0.0
C320 C 0.80412 0.04311 0.765 0.0
C321 C 0.79488 0.9914 0.79058 0.0
C322 C 0.74558 0.98599 0.82581 0.0
C323 C 0.78393 0.14819 0.75715 0.0
C324 C 0.83102 0.9397 0.77605 0.0
C325 C 0.81573 0.01001 0.62777 0.0
C326 C 0.88069 0.01862 0.61878 0.0
C327 C 0.78974 0.02223 0.67464 0.0
C328 C 0.83049 0.0414 0.71375 0.0
C329 C 0.89585 0.05306 0.70401 0.0
C330 C 0.92003 0.04264 0.65594 0.0
C331 C 0.71925 0.01091 0.68301 0.0
C332 C 0.94091 0.07402 0.74425 0.0
H333 H 0.69684 0.12172 0.82752 0.0
H334 H 0.7339 0.9449 0.84158 0.0
H335 H 0.83521 0.15682 0.74936 0.0
H336 H 0.75884 0.14725 0.72099 0.0
H337 H 0.76578 0.18352 0.78048 0.0
H338 H 0.83061 0.90865 0.80669 0.0
H339 H 0.80847 0.91863 0.74302 0.0
H340 H 0.88104 0.95167 0.76602 0.0
H341 H 0.78572 0.99151 0.59865 0.0
H342 H 0.97057 0.04898 0.64859 0.0
H343 H 0.69804 0.04772 0.70221 0.0
H344 H 0.71134 0.97351 0.70716 0.0
H345 H 0.69367 0.0023 0.64753 0.0
H346 H 0.94075 0.121 0.74656 0.0
H347 H 0.99032 0.06201 0.73567 0.0
H348 H 0.92691 0.05728 0.78136 0.0
C349 C 0.21786 0.36047 0.02435 0.0
C350 C 0.15125 0.36094 0.02468 0.0
C351 C 0.24968 0.30967 0.02679 0.0
C352 C 0.21422 0.25751 0.03076 0.0
C353 C 0.14721 0.2583 0.0373 0.0
C354 C 0.11628 0.31012 0.0338 0.0
C355 C 0.32103 0.31166 0.01964 0.0
C356 C 0.10762 0.20412 0.04376 0.0
C357 C 0.29722 0.14412 0.95615 0.0
C358 C 0.33601 0.12106 -0.00796 0.0
C359 C 0.25319 0.18509 0.96905 0.0
C360 C 0.24696 0.20345 0.01942 0.0
C361 C 0.28167 0.17647 0.05652 0.0
C362 C 0.32645 0.13612 0.04232 0.0
C363 C 0.21787 0.21251 0.92786 0.0
C364 C 0.27506 0.19338 0.11076 0.0
H365 H 0.24524 0.39973 0.01795 0.0
H366 H 0.06482 0.31 0.03417 0.0
H367 H 0.3437 0.28607 0.04812 0.0
H368 H 0.33304 0.2932 0.98253 0.0
H369 H 0.342 0.35566 0.02183 0.0
H370 H 0.06105 0.21237 0.06175 0.0
H371 H 0.09847 0.18411 0.00666 0.0
H372 H 0.13272 0.17345 0.06643 0.0
H373 H 0.30422 0.1327 0.91719 0.0
H374 H 0.35718 0.11991 0.07015 0.0
H375 H 0.23692 0.25673 0.92308 0.0
H376 H 0.16668 0.21446 0.93751 0.0
H377 H 0.22258 0.18937 0.89166 0.0
H378 H 0.2986 0.23579 0.11727 0.0
H379 H 0.29699 0.16276 0.13558 0.0
H380 H 0.2242 0.19653 0.12126 0.0
C381 C 0.24902 0.60171 0.04319 0.0
C382 C 0.19862 0.59928 0.00952 0.0
C383 C 0.3032 0.63713 0.03453 0.0
C384 C 0.30562 0.67219 -0.00777 0.0
C385 C 0.25651 0.66722 0.95668 0.0
C386 C 0.20405 0.6302 0.96547 0.0
C387 C 0.35603 0.63935 0.07204 0.0
C388 C 0.25644 0.70457 0.91152 0.0
C389 C 0.37857 0.82072 0.00208 0.0
C390 C 0.42948 0.81806 0.96814 0.0
C391 C 0.33958 0.7727 0.01202 0.0
C392 C 0.35327 0.7202 -0.01124 0.0
C393 C 0.40783 0.71621 0.9577 0.0
C394 C 0.44467 0.76564 0.94681 0.0
C395 C 0.28123 0.77922 0.04468 0.0
C396 C 0.42562 0.66045 0.93418 0.0
H397 H 0.2454 0.57712 0.07693 0.0
H398 H 0.16517 0.62857 0.93936 0.0
H399 H 0.40314 0.6431 0.0531 0.0
H400 H 0.35156 0.67715 0.09681 0.0
H401 H 0.35428 0.60109 0.09563 0.0
H402 H 0.21693 0.69262 0.88584 0.0
H403 H 0.25163 0.74941 0.92376 0.0
H404 H 0.30193 0.70223 0.89055 0.0
H405 H 0.36649 0.86127 0.0184 0.0
H406 H 0.48457 0.76348 0.92101 0.0
H407 H 0.23786 0.76723 0.0232 0.0
H408 H 0.27702 0.82331 0.05918 0.0
H409 H 0.28248 0.75046 0.07682 0.0
H410 H 0.41829 0.62536 0.96093 0.0
H411 H 0.4759 0.66182 0.92107 0.0
H412 H 0.39491 0.65056 0.90163 0.0
C413 C 0.57418 0.23616 0.01617 0.0
C414 C 0.58957 0.18371 -0.00498 0.0
C415 C 0.61092 0.28562 0.00519 0.0
C416 C 0.66561 0.28164 0.97426 0.0
C417 C 0.67951 0.22908 0.9512 0.0
C418 C 0.64061 0.18104 0.9612 0.0
C419 C 0.59287 0.34144 0.02847 0.0
C420 C 0.73801 0.22255 0.91869 0.0
C421 C 0.76997 0.39994 0.91964 0.0
C422 C 0.82024 0.40254 0.95344 0.0
C423 C 0.71575 0.36455 0.92831 0.0
C424 C 0.71317 0.32971 0.97075 0.0
C425 C 0.76213 0.33488 0.00641 0.0
C426 C 0.81462 0.37185 -0.00239 0.0
C427 C 0.66307 0.36213 0.89068 0.0
C428 C 0.76203 0.29776 0.05173 0.0
H429 H 0.53418 0.23833 0.04186 0.0
H430 H 0.65284 0.14045 0.94501 0.0
H431 H 0.62324 0.35141 0.0612 0.0
H432 H 0.60044 0.37647 0.0017 0.0
H433 H 0.54247 0.34005 0.04127 0.0
H434 H 0.73685 0.25122 0.88648 0.0
H435 H 0.78127 0.23464 0.94026 0.0
H436 H 0.74233 0.17843 0.90429 0.0
H437 H 0.77371 0.42436 0.88581 0.0
H438 H 0.85338 0.37363 0.02383 0.0
H439 H 0.6159 0.35844 0.90951 0.0
H440 H 0.66765 0.32423 0.86605 0.0
H441 H 0.66489 0.40028 0.86695 0.0
H442 H 0.71646 0.30021 0.07258 0.0
H443 H 0.80144 0.30985 0.07747 0.0
H444 H 0.76688 0.25287 0.0397 0.0
C445 C 0.90265 0.69153 0.92915 0.0
C446 C 0.86765 0.64075 0.93834 0.0
C447 C 0.87175 0.74336 0.92565 0.0
C448 C 0.80476 0.7442 0.93227 0.0
C449 C 0.76926 0.69206 0.9363 0.0
C450 C 0.80105 0.64125 0.93873 0.0
C451 C 0.91137 0.79752 0.91911 0.0
C452 C 0.69792 0.69012 0.94352 0.0
C453 C 0.72196 0.85769 0.00689 0.0
C454 C 0.6831 0.88072 0.97103 0.0
C455 C 0.76596 0.81671 -0.00603 0.0
C456 C 0.77208 0.79829 0.94361 0.0
C457 C 0.7373 0.82524 0.90653 0.0
C458 C 0.69255 0.8656 0.92075 0.0
C459 C 0.80134 0.7893 0.03514 0.0
C460 C 0.7438 0.80828 0.85229 0.0
H461 H 0.95411 0.69162 0.92872 0.0
H462 H 0.77365 0.602 0.94517 0.0
H463 H 0.88623 0.8282 0.89646 0.0
H464 H 0.92064 0.81754 0.95618 0.0
H465 H 0.95788 0.78922 0.90103 0.0
H466 H 0.67692 0.64613 0.94141 0.0
H467 H 0.686 0.70864 0.98063 0.0
H468 H 0.67522 0.71568 0.91505 0.0
H469 H 0.71503 0.86915 0.04585 0.0
H470 H 0.66175 0.88177 0.89295 0.0
H471 H 0.85251 0.78733 0.02543 0.0
H472 H 0.78228 0.7451 0.03997 0.0
H473 H 0.79671 0.81249 0.07133 0.0
H474 H 0.79464 0.80508 0.84173 0.0
H475 H 0.72185 0.83888 0.82747 0.0
H476 H 0.72023 0.76587 0.84583 0.0
loop_
_geom_bond_atom_site_label_1
_geom_bond_atom_site_label_2
_geom_bond_distance
_geom_bond_site_symmetry_2
_ccdc_geom_bond_type
C0 O12 1.241 . S
C0 O13 1.280 1_455 S
C1 O14 1.277 1_655 S
C1 O15 1.245 . S
C2 O26 1.247 . S
C2 O28 1.289 1_545 S
Mg3 O4 1.926 . S
Mg3 O13 1.984 . S
Mg3 O15 1.988 . S
Mg3 O16 2.061 . S
O4 Mg3 1.926 . S
O4 Mg5 1.986 1_655 S
O4 Mg6 1.917 1_665 S
Mg5 O4 1.986 1_455 S
Mg5 O12 2.042 . S
Mg5 O14 2.041 . S
Mg5 O20 2.038 . S
Mg5 O28 2.238 . S
Mg6 O4 1.917 1_445 S
Mg6 O7 1.917 . S
Mg6 O17 2.106 1_455 S
Mg6 O19 2.079 . S
Mg6 O28 2.106 1_545 S
Mg6 O29 2.079 1_445 S
O7 Mg6 1.917 . S
O7 Mg8 1.926 . S
O7 Mg9 1.986 1_455 S
Mg8 O7 1.926 . S
Mg8 O22 1.984 . S
Mg8 O25 1.988 . S
Mg8 O26 2.061 . S
Mg9 O7 1.986 1_655 S
Mg9 O17 2.238 . S
Mg9 O21 2.042 . S
Mg9 O23 2.041 . S
Mg9 O30 2.038 . S
C10 O16 1.247 . S
C10 O17 1.289 1_565 S
C11 O29 1.245 1_545 S
C11 O30 1.274 . S
O12 C0 1.241 . S
O12 Mg5 2.042 . S
O13 C0 1.280 1_655 S
O13 Mg3 1.984 . S
O14 C1 1.277 1_455 S
O14 Mg5 2.041 . S
O15 C1 1.245 . S
O15 Mg3 1.988 . S
O16 Mg3 2.061 . S
O16 C10 1.247 . S
O17 Mg6 2.106 1_655 S
O17 Mg9 2.238 . S
O17 C10 1.289 1_545 S
C18 O19 1.245 1_565 S
C18 O20 1.274 . S
O19 Mg6 2.079 . S
O19 C18 1.245 1_545 S
O20 Mg5 2.038 . S
O20 C18 1.274 . S
O21 Mg9 2.042 . S
O21 C24 1.241 . S
O22 Mg8 1.984 . S
O22 C24 1.280 1_455 S
O23 Mg9 2.041 . S
O23 C27 1.277 1_655 S
C24 O21 1.241 . S
C24 O22 1.280 1_655 S
O25 Mg8 1.988 . S
O25 C27 1.245 . S
O26 C2 1.247 . S
O26 Mg8 2.061 . S
C27 O23 1.277 1_455 S
C27 O25 1.245 . S
O28 C2 1.289 1_565 S
O28 Mg5 2.238 . S
O28 Mg6 2.106 1_565 S
O29 Mg6 2.079 1_665 S
O29 C11 1.245 1_565 S
O30 Mg9 2.038 . S
O30 C11 1.274 . S
C31 O43 1.241 . S
C31 O44 1.280 1_565 S
C32 O45 1.277 1_545 S
C32 O46 1.245 . S
C33 O57 1.247 . S
C33 O59 1.289 1_556 S
Mg34 O35 1.926 . S
Mg34 O44 1.984 . S
Mg34 O46 1.988 . S
Mg34 O47 2.061 . S
O35 Mg34 1.926 . S
O35 Mg36 1.986 1_545 S
O35 Mg37 1.917 . S
Mg36 O35 1.986 1_565 S
Mg36 O43 2.042 . S
Mg36 O45 2.041 . S
Mg36 O51 2.038 . S
Mg36 O59 2.238 . S
Mg37 O35 1.917 . S
Mg37 O38 1.917 1_544 S
Mg37 O48 2.106 1_554 S
Mg37 O50 2.079 1_544 S
Mg37 O59 2.106 1_545 S
Mg37 O60 2.079 . S
O38 Mg37 1.917 1_566 S
O38 Mg39 1.926 . S
O38 Mg40 1.986 1_565 S
Mg39 O38 1.926 . S
Mg39 O53 1.984 . S
Mg39 O56 1.988 . S
Mg39 O57 2.061 . S
Mg40 O38 1.986 1_545 S
Mg40 O48 2.238 . S
Mg40 O52 2.042 . S
Mg40 O54 2.041 . S
Mg40 O61 2.038 . S
C41 O47 1.247 . S
C41 O48 1.289 1_554 S
C42 O60 1.245 1_556 S
C42 O61 1.274 . S
O43 C31 1.241 . S
O43 Mg36 2.042 . S
O44 C31 1.280 1_545 S
O44 Mg34 1.984 . S
O45 C32 1.277 1_565 S
O45 Mg36 2.041 . S
O46 C32 1.245 . S
O46 Mg34 1.988 . S
O47 Mg34 2.061 . S
O47 C41 1.247 . S
O48 Mg37 2.106 1_556 S
O48 Mg40 2.238 . S
O48 C41 1.289 1_556 S
C49 O50 1.245 1_554 S
C49 O51 1.274 . S
O50 Mg37 2.079 1_566 S
O50 C49 1.245 1_556 S
O51 Mg36 2.038 . S
O51 C49 1.274 . S
O52 Mg40 2.042 . S
O52 C55 1.241 . S
O53 Mg39 1.984 . S
O53 C55 1.280 1_565 S
O54 Mg40 2.041 . S
O54 C58 1.277 1_545 S
C55 O52 1.241 . S
C55 O53 1.280 1_545 S
O56 Mg39 1.988 . S
O56 C58 1.245 . S
O57 C33 1.247 . S
O57 Mg39 2.061 . S
C58 O54 1.277 1_565 S
C58 O56 1.245 . S
O59 C33 1.289 1_554 S
O59 Mg36 2.238 . S
O59 Mg37 2.106 1_565 S
O60 Mg37 2.079 . S
O60 C42 1.245 1_554 S
O61 Mg40 2.038 . S
O61 C42 1.274 . S
C62 O74 1.241 . S
C62 O75 1.280 1_455 S
C63 O76 1.277 1_655 S
C63 O77 1.245 . S
C64 O88 1.247 . S
C64 O90 1.289 1_554 S
Mg65 O66 1.926 . S
Mg65 O75 1.984 . S
Mg65 O77 1.988 . S
Mg65 O78 2.061 . S
O66 Mg65 1.926 . S
O66 Mg67 1.986 1_655 S
O66 Mg68 1.917 1_656 S
Mg67 O66 1.986 1_455 S
Mg67 O74 2.042 . S
Mg67 O76 2.041 . S
Mg67 O82 2.038 . S
Mg67 O90 2.238 . S
Mg68 O66 1.917 1_454 S
Mg68 O69 1.917 . S
Mg68 O79 2.106 1_455 S
Mg68 O81 2.079 . S
Mg68 O90 2.106 1_554 S
Mg68 O91 2.079 1_454 S
O69 Mg68 1.917 . S
O69 Mg70 1.926 . S
O69 Mg71 1.986 1_455 S
Mg70 O69 1.926 . S
Mg70 O84 1.984 . S
Mg70 O87 1.988 . S
Mg70 O88 2.061 . S
Mg71 O69 1.986 1_655 S
Mg71 O79 2.238 . S
Mg71 O83 2.042 . S
Mg71 O85 2.041 . S
Mg71 O92 2.038 . S
C72 O78 1.247 . S
C72 O79 1.289 1_556 S
C73 O91 1.245 1_554 S
C73 O92 1.274 . S
O74 C62 1.241 . S
O74 Mg67 2.042 . S
O75 C62 1.280 1_655 S
O75 Mg65 1.984 . S
O76 C63 1.277 1_455 S
O76 Mg67 2.041 . S
O77 C63 1.245 . S
O77 Mg65 1.988 . S
O78 Mg65 2.061 . S
O78 C72 1.247 . S
O79 Mg68 2.106 1_655 S
O79 Mg71 2.238 . S
O79 C72 1.289 1_554 S
C80 O81 1.245 1_556 S
C80 O82 1.274 . S
O81 Mg68 2.079 . S
O81 C80 1.245 1_554 S
O82 Mg67 2.038 . S
O82 C80 1.274 . S
O83 Mg71 2.042 . S
O83 C86 1.241 . S
O84 Mg70 1.984 . S
O84 C86 1.280 1_455 S
O85 Mg71 2.041 . S
O85 C89 1.277 1_655 S
C86 O83 1.241 . S
C86 O84 1.280 1_655 S
O87 Mg70 1.988 . S
O87 C89 1.245 . S
O88 C64 1.247 . S
O88 Mg70 2.061 . S
C89 O85 1.277 1_455 S
C89 O87 1.245 . S
O90 C64 1.289 1_556 S
O90 Mg67 2.238 . S
O90 Mg68 2.106 1_556 S
O91 Mg68 2.079 1_656 S
O91 C73 1.245 1_556 S
O92 Mg71 2.038 . S
O92 C73 1.274 . S
C93 C94 1.391 . S
C93 C95 1.394 . S
C93 H109 0.931 . S
C94 C93 1.391 . S
C94 C98 1.376 . S
C95 C93 1.394 . S
C95 C96 1.369 . S
C95 C99 1.531 1_455 S
C96 C95 1.369 . S
C96 C97 1.410 . S
C96 C104 1.504 . S
C97 C96 1.410 . S
C97 C98 1.392 . S
C97 C100 1.511 . S
C98 C94 1.376 . S
C98 C97 1.392 . S
C98 H110 0.929 . S
C99 C95 1.531 1_655 S
C99 H111 0.960 1_655 S
C99 H112 0.962 . S
C99 H113 0.960 1_655 S
C100 C97 1.511 . S
C100 H114 0.961 . S
C100 H115 0.961 . S
C100 H116 0.961 . S
C101 C102 1.370 . S
C101 C103 1.363 . S
C101 H117 0.931 . S
C102 C101 1.370 . S
C102 C106 1.408 1_655 S
C103 C101 1.363 . S
C103 C104 1.360 1_655 S
C103 C107 1.524 . S
C104 C96 1.504 . S
C104 C103 1.360 1_455 S
C104 C105 1.412 . S
C105 C104 1.412 . S
C105 C106 1.404 . S
C105 C108 1.539 . S
C106 C102 1.408 1_455 S
C106 C105 1.404 . S
C106 H118 0.930 . S
C107 C103 1.524 . S
C107 H119 0.956 . S
C107 H120 0.961 . S
C107 H121 0.961 . S
C108 C105 1.539 . S
C108 H122 0.958 . S
C108 H123 0.961 . S
C108 H124 0.960 . S
H109 C93 0.931 . S
H110 C98 0.929 . S
H111 C99 0.960 1_455 S
H112 C99 0.962 . S
H113 C99 0.960 1_455 S
H114 C100 0.961 . S
H115 C100 0.961 . S
H116 C100 0.961 . S
H117 C101 0.931 . S
H118 C106 0.930 . S
H119 C107 0.956 . S
H120 C107 0.961 . S
H121 C107 0.961 . S
H122 C108 0.958 . S
H123 C108 0.961 . S
H124 C108 0.960 . S
C125 C126 1.391 1_545 S
C125 C127 1.394 . S
C125 H141 0.931 . S
C126 C125 1.391 1_565 S
C126 C130 1.376 . S
C127 C125 1.394 . S
C127 C128 1.369 1_545 S
C127 C131 1.531 . S
C128 C127 1.369 1_565 S
C128 C129 1.410 . S
C128 C136 1.503 . S
C129 C128 1.410 . S
C129 C130 1.392 . S
C129 C132 1.511 . S
C130 C126 1.376 . S
C130 C129 1.392 . S
C130 H142 0.929 . S
C131 C127 1.531 . S
C131 H143 0.960 . S
C131 H144 0.962 . S
C131 H145 0.960 . S
C132 C129 1.511 . S
C132 H146 0.961 . S
C132 H147 0.961 . S
C132 H148 0.961 . S
C133 C134 1.370 . S
C133 C135 1.363 . S
C133 H149 0.931 . S
C134 C133 1.370 . S
C134 C138 1.408 . S
C135 C133 1.363 . S
C135 C136 1.370 . S
C135 C139 1.524 . S
C136 C128 1.503 . S
C136 C135 1.370 . S
C136 C137 1.403 . S
C137 C136 1.403 . S
C137 C138 1.404 . S
C137 C140 1.539 . S
C138 C134 1.408 . S
C138 C137 1.404 . S
C138 H150 0.930 . S
C139 C135 1.524 . S
C139 H151 0.956 1_565 S
C139 H152 0.961 . S
C139 H153 0.961 . S
C140 C137 1.539 . S
C140 H154 0.958 1_565 S
C140 H155 0.961 . S
C140 H156 0.960 . S
H141 C125 0.931 . S
H142 C130 0.929 . S
H143 C131 0.960 . S
H144 C131 0.962 . S
H145 C131 0.960 . S
H146 C132 0.961 . S
H147 C132 0.961 . S
H148 C132 0.961 . S
H149 C133 0.931 . S
H150 C138 0.930 . S
H151 C139 0.956 1_545 S
H152 C139 0.961 . S
H153 C139 0.961 . S
H154 C140 0.958 1_545 S
H155 C140 0.961 . S
H156 C140 0.960 . S
C157 C158 1.391 . S
C157 C159 1.394 . S
C157 H173 0.931 . S
C158 C157 1.391 . S
C158 C162 1.376 1_655 S
C159 C157 1.394 . S
C159 C160 1.369 . S
C159 C163 1.531 . S
C160 C159 1.369 . S
C160 C161 1.410 1_655 S
C160 C168 1.503 . S
C161 C160 1.410 1_455 S
C161 C162 1.392 . S
C161 C164 1.511 . S
C162 C158 1.376 1_455 S
C162 C161 1.392 . S
C162 H174 0.929 . S
C163 C159 1.531 . S
C163 H175 0.960 . S
C163 H176 0.962 . S
C163 H177 0.960 . S
C164 C161 1.511 . S
C164 H178 0.961 . S
C164 H179 0.961 . S
C164 H180 0.961 . S
C165 C166 1.370 . S
C165 C167 1.363 . S
C165 H181 0.931 . S
C166 C165 1.370 . S
C166 C170 1.411 . S
C167 C165 1.363 . S
C167 C168 1.370 . S
C167 C171 1.524 . S
C168 C160 1.503 . S
C168 C167 1.370 . S
C168 C169 1.403 1_655 S
C169 C168 1.403 1_455 S
C169 C170 1.404 1_455 S
C169 C172 1.539 . S
C170 C166 1.411 . S
C170 C169 1.404 1_655 S
C170 H182 0.928 1_655 S
C171 C167 1.524 . S
C171 H183 0.956 . S
C171 H184 0.961 . S
C171 H185 0.961 . S
C172 C169 1.539 . S
C172 H186 0.958 . S
C172 H187 0.961 . S
C172 H188 0.960 . S
H173 C157 0.931 . S
H174 C162 0.929 . S
H175 C163 0.960 . S
H176 C163 0.962 . S
H177 C163 0.960 . S
H178 C164 0.961 . S
H179 C164 0.961 . S
H180 C164 0.961 . S
H181 C165 0.931 . S
H182 C170 0.928 1_455 S
H183 C171 0.956 . S
H184 C171 0.961 . S
H185 C171 0.961 . S
H186 C172 0.958 . S
H187 C172 0.961 . S
H188 C172 0.960 . S
C189 C190 1.391 1_565 S
C189 C191 1.394 . S
C189 H205 0.931 . S
C190 C189 1.391 1_545 S
C190 C194 1.376 . S
C191 C189 1.394 . S
C191 C192 1.369 1_565 S
C191 C195 1.531 . S
C192 C191 1.369 1_545 S
C192 C193 1.410 . S
C192 C200 1.503 . S
C193 C192 1.410 . S
C193 C194 1.392 . S
C193 C196 1.511 . S
C194 C190 1.376 . S
C194 C193 1.392 . S
C194 H206 0.929 . S
C195 C191 1.531 . S
C195 H207 0.960 . S
C195 H208 0.962 . S
C195 H209 0.960 . S
C196 C193 1.511 . S
C196 H210 0.961 . S
C196 H211 0.961 . S
C196 H212 0.961 . S
C197 C198 1.370 1_565 S
C197 C199 1.363 . S
C197 H213 0.931 . S
C198 C197 1.370 1_545 S
C198 C202 1.408 . S
C199 C197 1.363 . S
C199 C200 1.370 1_565 S
C199 C203 1.524 . S
C200 C192 1.503 . S
C200 C199 1.370 1_545 S
C200 C201 1.403 . S
C201 C200 1.403 . S
C201 C202 1.404 . S
C201 C204 1.539 . S
C202 C198 1.408 . S
C202 C201 1.404 . S
C202 H214 0.930 . S
C203 C199 1.524 . S
C203 H215 0.956 . S
C203 H216 0.961 . S
C203 H217 0.961 . S
C204 C201 1.539 . S
C204 H218 0.958 . S
C204 H219 0.961 . S
C204 H220 0.960 . S
H205 C189 0.931 . S
H206 C194 0.929 . S
H207 C195 0.960 . S
H208 C195 0.962 . S
H209 C195 0.960 . S
H210 C196 0.961 . S
H211 C196 0.961 . S
H212 C196 0.961 . S
H213 C197 0.931 . S
H214 C202 0.930 . S
H215 C203 0.956 . S
H216 C203 0.961 . S
H217 C203 0.961 . S
H218 C204 0.958 . S
H219 C204 0.961 . S
H220 C204 0.960 . S
C221 C222 1.391 1_655 S
C221 C223 1.394 . S
C221 H237 0.931 . S
C222 C221 1.391 1_455 S
C222 C226 1.376 . S
C223 C221 1.394 . S
C223 C224 1.369 1_655 S
C223 C227 1.531 . S
C224 C223 1.369 1_455 S
C224 C225 1.410 . S
C224 C232 1.503 . S
C225 C224 1.410 . S
C225 C226 1.392 . S
C225 C228 1.511 . S
C226 C222 1.376 . S
C226 C225 1.392 . S
C226 H238 0.929 . S
C227 C223 1.531 . S
C227 H239 0.960 . S
C227 H240 0.962 . S
C227 H241 0.960 . S
C228 C225 1.511 . S
C228 H242 0.961 . S
C228 H243 0.961 . S
C228 H244 0.961 . S
C229 C230 1.370 . S
C229 C231 1.363 . S
C229 H245 0.931 . S
C230 C229 1.370 . S
C230 C234 1.408 1_655 S
C231 C229 1.363 . S
C231 C232 1.370 1_655 S
C231 C235 1.524 . S
C232 C224 1.503 . S
C232 C231 1.370 1_455 S
C232 C233 1.403 . S
C233 C232 1.403 . S
C233 C234 1.404 . S
C233 C236 1.539 . S
C234 C230 1.408 1_455 S
C234 C233 1.404 . S
C234 H246 0.930 . S
C235 C231 1.524 . S
C235 H247 0.956 . S
C235 H248 0.961 . S
C235 H249 0.961 . S
C236 C233 1.539 . S
C236 H250 0.958 . S
C236 H251 0.961 . S
C236 H252 0.960 . S
H237 C221 0.931 . S
H238 C226 0.929 . S
H239 C227 0.960 . S
H240 C227 0.962 . S
H241 C227 0.960 . S
H242 C228 0.961 . S
H243 C228 0.961 . S
H244 C228 0.961 . S
H245 C229 0.931 . S
H246 C234 0.930 . S
H247 C235 0.956 . S
H248 C235 0.961 . S
H249 C235 0.961 . S
H250 C236 0.958 . S
H251 C236 0.961 . S
H252 C236 0.960 . S
C253 C254 1.391 . S
C253 C255 1.394 . S
C253 H269 0.931 . S
C254 C253 1.391 . S
C254 C258 1.376 1_545 S
C255 C253 1.394 . S
C255 C256 1.369 . S
C255 C259 1.531 . S
C256 C255 1.369 . S
C256 C257 1.410 1_545 S
C256 C264 1.503 . S
C257 C256 1.410 1_565 S
C257 C258 1.392 . S
C257 C260 1.511 . S
C258 C254 1.376 1_565 S
C258 C257 1.392 . S
C258 H270 0.929 . S
C259 C255 1.531 . S
C259 H271 0.960 . S
C259 H272 0.962 . S
C259 H273 0.960 . S
C260 C257 1.511 . S
C260 H274 0.961 . S
C260 H275 0.961 . S
C260 H276 0.961 . S
C261 C262 1.370 1_565 S
C261 C263 1.363 . S
C261 H277 0.931 . S
C262 C261 1.370 1_545 S
C262 C266 1.408 . S
C263 C261 1.363 . S
C263 C264 1.370 1_565 S
C263 C267 1.524 . S
C264 C256 1.503 . S
C264 C263 1.370 1_545 S
C264 C265 1.403 . S
C265 C264 1.403 . S
C265 C266 1.404 . S
C265 C268 1.539 . S
C266 C262 1.408 . S
C266 C265 1.404 . S
C266 H278 0.930 . S
C267 C263 1.524 . S
C267 H279 0.956 . S
C267 H280 0.961 . S
C267 H281 0.961 . S
C268 C265 1.539 . S
C268 H282 0.958 . S
C268 H283 0.961 . S
C268 H284 0.960 . S
H269 C253 0.931 . S
H270 C258 0.929 . S
H271 C259 0.960 . S
H272 C259 0.962 . S
H273 C259 0.960 . S
H274 C260 0.961 . S
H275 C260 0.961 . S
H276 C260 0.961 . S
H277 C261 0.931 . S
H278 C266 0.930 . S
H279 C267 0.956 . S
H280 C267 0.961 . S
H281 C267 0.961 . S
H282 C268 0.958 . S
H283 C268 0.961 . S
H284 C268 0.960 . S
C285 C286 1.391 1_655 S
C285 C287 1.394 . S
C285 H301 0.931 . S
C286 C285 1.391 1_455 S
C286 C290 1.376 . S
C287 C285 1.394 . S
C287 C288 1.369 1_655 S
C287 C291 1.531 . S
C288 C287 1.369 1_455 S
C288 C289 1.410 . S
C288 C296 1.503 . S
C289 C288 1.410 . S
C289 C290 1.392 . S
C289 C292 1.511 . S
C290 C286 1.376 . S
C290 C289 1.392 . S
C290 H302 0.929 . S
C291 C287 1.531 . S
C291 H303 0.960 . S
C291 H304 0.962 . S
C291 H305 0.960 . S
C292 C289 1.511 . S
C292 H306 0.961 . S
C292 H307 0.961 . S
C292 H308 0.961 . S
C293 C294 1.370 1_655 S
C293 C295 1.363 . S
C293 H309 0.931 . S
C294 C293 1.370 1_455 S
C294 C298 1.408 . S
C295 C293 1.363 . S
C295 C296 1.370 1_655 S
C295 C299 1.524 . S
C296 C288 1.503 . S
C296 C295 1.370 1_455 S
C296 C297 1.403 . S
C297 C296 1.403 . S
C297 C298 1.404 . S
C297 C300 1.539 . S
C298 C294 1.408 . S
C298 C297 1.404 . S
C298 H310 0.930 . S
C299 C295 1.524 . S
C299 H311 0.956 . S
C299 H312 0.961 . S
C299 H313 0.961 . S
C300 C297 1.539 . S
C300 H314 0.958 . S
C300 H315 0.961 . S
C300 H316 0.960 . S
H301 C285 0.931 . S
H302 C290 0.929 . S
H303 C291 0.960 . S
H304 C291 0.962 . S
H305 C291 0.960 . S
H306 C292 0.961 . S
H307 C292 0.961 . S
H308 C292 0.961 . S
H309 C293 0.931 . S
H310 C298 0.930 . S
H311 C299 0.956 . S
H312 C299 0.961 . S
H313 C299 0.961 . S
H314 C300 0.958 . S
H315 C300 0.961 . S
H316 C300 0.960 . S
C317 C318 1.391 1_545 S
C317 C319 1.394 . S
C317 H333 0.931 . S
C318 C317 1.391 1_565 S
C318 C322 1.376 . S
C319 C317 1.394 . S
C319 C320 1.369 1_545 S
C319 C323 1.531 . S
C320 C319 1.369 1_565 S
C320 C321 1.410 . S
C320 C328 1.503 . S
C321 C320 1.410 . S
C321 C322 1.392 . S
C321 C324 1.511 . S
C322 C318 1.376 . S
C322 C321 1.392 . S
C322 H334 0.929 . S
C323 C319 1.531 . S
C323 H335 0.960 . S
C323 H336 0.962 . S
C323 H337 0.960 . S
C324 C321 1.511 . S
C324 H338 0.961 . S
C324 H339 0.961 . S
C324 H340 0.961 . S
C325 C326 1.370 1_545 S
C325 C327 1.363 . S
C325 H341 0.931 . S
C326 C325 1.370 1_565 S
C326 C330 1.408 . S
C327 C325 1.363 . S
C327 C328 1.370 1_545 S
C327 C331 1.524 . S
C328 C320 1.503 . S
C328 C327 1.370 1_565 S
C328 C329 1.403 . S
C329 C328 1.403 . S
C329 C330 1.404 . S
C329 C332 1.539 . S
C330 C326 1.408 . S
C330 C329 1.404 . S
C330 H342 0.930 . S
C331 C327 1.524 . S
C331 H343 0.956 . S
C331 H344 0.961 . S
C331 H345 0.961 . S
C332 C329 1.539 . S
C332 H346 0.958 . S
C332 H347 0.961 . S
C332 H348 0.960 . S
H333 C317 0.931 . S
H334 C322 0.929 . S
H335 C323 0.960 . S
H336 C323 0.962 . S
H337 C323 0.960 . S
H338 C324 0.961 . S
H339 C324 0.961 . S
H340 C324 0.961 . S
H341 C325 0.931 . S
H342 C330 0.930 . S
H343 C331 0.956 . S
H344 C331 0.961 . S
H345 C331 0.961 . S
H346 C332 0.958 . S
H347 C332 0.961 . S
H348 C332 0.960 . S
C349 C350 1.391 . S
C349 C351 1.394 . S
C349 H365 0.931 . S
C350 C349 1.391 . S
C350 C354 1.376 1_556 S
C351 C349 1.394 . S
C351 C352 1.369 1_556 S
C351 C355 1.531 . S
C352 C351 1.369 1_554 S
C352 C353 1.410 . S
C352 C360 1.503 . S
C353 C352 1.410 . S
C353 C354 1.392 . S
C353 C356 1.511 . S
C354 C350 1.376 1_554 S
C354 C353 1.392 . S
C354 H366 0.929 . S
C355 C351 1.531 . S
C355 H367 0.960 1_556 S
C355 H368 0.962 . S
C355 H369 0.960 . S
C356 C353 1.511 . S
C356 H370 0.961 . S
C356 H371 0.961 . S
C356 H372 0.961 . S
C357 C358 1.370 . S
C357 C359 1.363 . S
C357 H373 0.931 . S
C358 C357 1.370 . S
C358 C362 1.408 1_556 S
C359 C357 1.363 . S
C359 C360 1.370 1_556 S
C359 C363 1.524 . S
C360 C352 1.503 . S
C360 C359 1.370 1_554 S
C360 C361 1.403 . S
C361 C360 1.403 . S
C361 C362 1.404 . S
C361 C364 1.539 . S
C362 C358 1.408 1_554 S
C362 C361 1.404 . S
C362 H374 0.930 . S
C363 C359 1.524 . S
C363 H375 0.956 . S
C363 H376 0.961 . S
C363 H377 0.961 . S
C364 C361 1.539 . S
C364 H378 0.958 . S
C364 H379 0.961 . S
C364 H380 0.960 . S
H365 C349 0.931 . S
H366 C354 0.929 . S
H367 C355 0.960 1_554 S
H368 C355 0.962 . S
H369 C355 0.960 . S
H370 C356 0.961 . S
H371 C356 0.961 . S
H372 C356 0.961 . S
H373 C357 0.931 . S
H374 C362 0.930 . S
H375 C363 0.956 . S
H376 C363 0.961 . S
H377 C363 0.961 . S
H378 C364 0.958 . S
H379 C364 0.961 . S
H380 C364 0.960 . S
C381 C382 1.391 . S
C381 C383 1.394 . S
C381 H397 0.930 1_556 S
C382 C381 1.391 . S
C382 C386 1.376 . S
C383 C381 1.394 . S
C383 C384 1.369 . S
C383 C387 1.531 1_556 S
C384 C383 1.369 . S
C384 C385 1.410 . S
C384 C392 1.503 . S
C385 C384 1.410 . S
C385 C386 1.392 . S
C385 C388 1.511 . S
C386 C382 1.376 . S
C386 C385 1.392 . S
C386 H398 0.929 . S
C387 C383 1.531 1_554 S
C387 H399 0.960 1_554 S
C387 H400 0.962 . S
C387 H401 0.960 1_554 S
C388 C385 1.511 . S
C388 H402 0.961 . S
C388 H403 0.961 . S
C388 H404 0.961 . S
C389 C390 1.370 . S
C389 C391 1.363 . S
C389 H405 0.931 . S
C390 C389 1.370 . S
C390 C394 1.408 1_554 S
C391 C389 1.363 . S
C391 C392 1.370 1_554 S
C391 C395 1.524 . S
C392 C384 1.503 . S
C392 C391 1.370 1_556 S
C392 C393 1.403 . S
C393 C392 1.403 . S
C393 C394 1.404 . S
C393 C396 1.539 . S
C394 C390 1.408 1_556 S
C394 C393 1.404 . S
C394 H406 0.930 . S
C395 C391 1.524 . S
C395 H407 0.956 . S
C395 H408 0.961 . S
C395 H409 0.961 . S
C396 C393 1.539 . S
C396 H410 0.958 . S
C396 H411 0.961 . S
C396 H412 0.960 . S
H397 C381 0.930 1_554 S
H398 C386 0.929 . S
H399 C387 0.960 1_556 S
H400 C387 0.962 . S
H401 C387 0.960 1_556 S
H402 C388 0.961 . S
H403 C388 0.961 . S
H404 C388 0.961 . S
H405 C389 0.931 . S
H406 C394 0.930 . S
H407 C395 0.956 . S
H408 C395 0.961 . S
H409 C395 0.961 . S
H410 C396 0.958 . S
H411 C396 0.961 . S
H412 C396 0.960 . S
C413 C414 1.391 1_554 S
C413 C415 1.394 . S
C413 H429 0.931 . S
C414 C413 1.391 1_556 S
C414 C418 1.376 . S
C415 C413 1.394 . S
C415 C416 1.369 . S
C415 C419 1.531 . S
C416 C415 1.369 . S
C416 C417 1.410 1_554 S
C416 C424 1.503 . S
C417 C416 1.410 1_556 S
C417 C418 1.392 . S
C417 C420 1.511 . S
C418 C414 1.376 . S
C418 C417 1.392 . S
C418 H430 0.929 . S
C419 C415 1.531 . S
C419 H431 0.960 . S
C419 H432 0.962 . S
C419 H433 0.960 . S
C420 C417 1.511 . S
C420 H434 0.961 . S
C420 H435 0.961 . S
C420 H436 0.961 . S
C421 C422 1.370 1_556 S
C421 C423 1.363 . S
C421 H437 0.931 . S
C422 C421 1.370 1_554 S
C422 C426 1.408 . S
C423 C421 1.363 . S
C423 C424 1.370 1_556 S
C423 C427 1.524 . S
C424 C416 1.503 . S
C424 C423 1.370 1_554 S
C424 C425 1.403 . S
C425 C424 1.403 . S
C425 C426 1.404 . S
C425 C428 1.539 . S
C426 C422 1.408 . S
C426 C425 1.404 . S
C426 H438 0.930 . S
C427 C423 1.524 . S
C427 H439 0.956 . S
C427 H440 0.961 . S
C427 H441 0.961 . S
C428 C425 1.539 . S
C428 H442 0.958 . S
C428 H443 0.961 . S
C428 H444 0.960 . S
H429 C413 0.931 . S
H430 C418 0.929 . S
H431 C419 0.960 . S
H432 C419 0.962 . S
H433 C419 0.960 . S
H434 C420 0.961 . S
H435 C420 0.961 . S
H436 C420 0.961 . S
H437 C421 0.931 . S
H438 C426 0.930 . S
H439 C427 0.956 . S
H440 C427 0.961 . S
H441 C427 0.961 . S
H442 C428 0.958 . S
H443 C428 0.961 . S
H444 C428 0.960 . S
C445 C446 1.391 1_556 S
C445 C447 1.394 . S
C445 H461 0.931 . S
C446 C445 1.391 1_554 S
C446 C450 1.376 . S
C447 C445 1.394 . S
C447 C448 1.369 . S
C447 C451 1.531 . S
C448 C447 1.369 . S
C448 C449 1.410 1_556 S
C448 C456 1.503 . S
C449 C448 1.410 1_554 S
C449 C450 1.392 . S
C449 C452 1.511 . S
C450 C446 1.376 . S
C450 C449 1.392 . S
C450 H462 0.929 . S
C451 C447 1.531 . S
C451 H463 0.960 . S
C451 H464 0.962 . S
C451 H465 0.960 . S
C452 C449 1.511 . S
C452 H466 0.961 . S
C452 H467 0.961 . S
C452 H468 0.961 . S
C453 C454 1.370 . S
C453 C455 1.363 . S
C453 H469 0.931 . S
C454 C453 1.370 . S
C454 C458 1.408 1_554 S
C455 C453 1.363 . S
C455 C456 1.361 1_554 S
C455 C459 1.524 . S
C456 C448 1.503 . S
C456 C455 1.361 1_556 S
C456 C457 1.413 . S
C457 C456 1.413 . S
C457 C458 1.404 . S
C457 C460 1.539 . S
C458 C454 1.408 1_556 S
C458 C457 1.404 . S
C458 H470 0.930 . S
C459 C455 1.524 . S
C459 H471 0.956 . S
C459 H472 0.961 . S
C459 H473 0.961 . S
C460 C457 1.539 . S
C460 H474 0.958 . S
C460 H475 0.961 . S
C460 H476 0.960 . S
H461 C445 0.931 . S
H462 C450 0.929 . S
H463 C451 0.960 . S
H464 C451 0.962 . S
H465 C451 0.960 . S
H466 C452 0.961 . S
H467 C452 0.961 . S
H468 C452 0.961 . S
H469 C453 0.931 . S
H470 C458 0.930 . S
H471 C459 0.956 . S
H472 C459 0.961 . S
H473 C459 0.961 . S
H474 C460 0.958 . S
H475 C460 0.961 . S
H476 C460 0.960 . S
C94 C89 1.083 . S
C102 C24 1.071 . S
C126 C11 1.269 1_565 S
C134 C31 1.265 . S
C158 C1 0.940 . S
C166 C86 0.922 . S
C190 C32 1.196 . S
C198 C2 1.196 . S
C222 C0 1.084 . S
C230 C63 1.066 . S
C254 C55 1.242 . S
C262 C18 1.237 1_545 S
C286 C62 0.896 . S
C294 C27 0.922 . S
C318 C58 1.234 . S
C326 C10 1.206 . S
C350 C80 1.897 . S
C358 C42 1.856 . S
C382 C64 1.227 1_556 S
C390 C33 1.171 1_554 S
C414 C41 1.186 1_556 S
C422 C72 1.213 1_554 S
C446 C73 1.885 . S
C454 C49 1.852 . S
