# Generated by pormake.
# Topology fno, (5)-cn, num edge types: 1
# Building blocks:
#     Node 0, Type 0, BuildingBlock: XOMCOT_clean_sbu_1, # of connection points: 5
#     Node 1, Type 0, BuildingBlock: XOMCOT_clean_sbu_1, # of connection points: 5
#     Node 2, Type 0, BuildingBlock: XOMCOT_clean_sbu_1, # of connection points: 5
#     Node 3, Type 0, BuildingBlock: XOMCOT_clean_sbu_1, # of connection points: 5
#     Node 4, Type 0, BuildingBlock: XOMCOT_clean_sbu_1, # of connection points: 5
#     Node 5, Type 0, BuildingBlock: XOMCOT_clean_sbu_1, # of connection points: 5
#     Node 6, Type 0, BuildingBlock: XOMCOT_clean_sbu_1, # of connection points: 5
#     Node 7, Type 0, BuildingBlock: XOMCOT_clean_sbu_1, # of connection points: 5
#     Node 8, Type 0, BuildingBlock: XOMCOT_clean_sbu_1, # of connection points: 5
#     Node 9, Type 0, BuildingBlock: XOMCOT_clean_sbu_1, # of connection points: 5
#     Node 10, Type 0, BuildingBlock: XOMCOT_clean_sbu_1, # of connection points: 5
#     Node 11, Type 0, BuildingBlock: XOMCOT_clean_sbu_1, # of connection points: 5
#     Node 12, Type 0, BuildingBlock: XOMCOT_clean_sbu_1, # of connection points: 5
#     Node 13, Type 0, BuildingBlock: XOMCOT_clean_sbu_1, # of connection points: 5
#     Node 14, Type 0, BuildingBlock: XOMCOT_clean_sbu_1, # of connection points: 5
#     Node 15, Type 0, BuildingBlock: XOMCOT_clean_sbu_1, # of connection points: 5
#     Node 16, Type 0, BuildingBlock: XOMCOT_clean_sbu_1, # of connection points: 5
#     Node 17, Type 0, BuildingBlock: XOMCOT_clean_sbu_1, # of connection points: 5
#     Node 18, Type 0, BuildingBlock: XOMCOT_clean_sbu_1, # of connection points: 5
#     Node 19, Type 0, BuildingBlock: XOMCOT_clean_sbu_1, # of connection points: 5
#     Node 20, Type 0, BuildingBlock: XOMCOT_clean_sbu_1, # of connection points: 5
#     Node 21, Type 0, BuildingBlock: XOMCOT_clean_sbu_1, # of connection points: 5
#     Node 22, Type 0, BuildingBlock: XOMCOT_clean_sbu_1, # of connection points: 5
#     Node 23, Type 0, BuildingBlock: XOMCOT_clean_sbu_1, # of connection points: 5
#     Node 24, Type 0, BuildingBlock: XOMCOT_clean_sbu_1, # of connection points: 5
#     Node 25, Type 0, BuildingBlock: XOMCOT_clean_sbu_1, # of connection points: 5
#     Node 26, Type 0, BuildingBlock: XOMCOT_clean_sbu_1, # of connection points: 5
#     Node 27, Type 0, BuildingBlock: XOMCOT_clean_sbu_1, # of connection points: 5
#     Node 28, Type 0, BuildingBlock: XOMCOT_clean_sbu_1, # of connection points: 5
#     Node 29, Type 0, BuildingBlock: XOMCOT_clean_sbu_1, # of connection points: 5
#     Node 30, Type 0, BuildingBlock: XOMCOT_clean_sbu_1, # of connection points: 5
#     Node 31, Type 0, BuildingBlock: XOMCOT_clean_sbu_1, # of connection points: 5
#     Node 32, Type 0, BuildingBlock: XOMCOT_clean_sbu_1, # of connection points: 5
#     Node 33, Type 0, BuildingBlock: XOMCOT_clean_sbu_1, # of connection points: 5
#     Node 34, Type 0, BuildingBlock: XOMCOT_clean_sbu_1, # of connection points: 5
#     Node 35, Type 0, BuildingBlock: XOMCOT_clean_sbu_1, # of connection points: 5
#     Node 36, Type 0, BuildingBlock: XOMCOT_clean_sbu_1, # of connection points: 5
#     Node 37, Type 0, BuildingBlock: XOMCOT_clean_sbu_1, # of connection points: 5
#     Node 38, Type 0, BuildingBlock: XOMCOT_clean_sbu_1, # of connection points: 5
#     Node 39, Type 0, BuildingBlock: XOMCOT_clean_sbu_1, # of connection points: 5
#     Node 40, Type 0, BuildingBlock: XOMCOT_clean_sbu_1, # of connection points: 5
#     Node 41, Type 0, BuildingBlock: XOMCOT_clean_sbu_1, # of connection points: 5
#     Node 42, Type 0, BuildingBlock: XOMCOT_clean_sbu_1, # of connection points: 5
#     Node 43, Type 0, BuildingBlock: XOMCOT_clean_sbu_1, # of connection points: 5
#     Node 44, Type 0, BuildingBlock: XOMCOT_clean_sbu_1, # of connection points: 5
#     Node 45, Type 0, BuildingBlock: XOMCOT_clean_sbu_1, # of connection points: 5
#     Node 46, Type 0, BuildingBlock: XOMCOT_clean_sbu_1, # of connection points: 5
#     Node 47, Type 0, BuildingBlock: XOMCOT_clean_sbu_1, # of connection points: 5
#     Edge 48, Type (0, 0), BuildingBlock: AJUNOK_clean_linker_0, # of connection points: 2
#     Edge 49, Type (0, 0), BuildingBlock: AJUNOK_clean_linker_0, # of connection points: 2
#     Edge 50, Type (0, 0), BuildingBlock: AJUNOK_clean_linker_0, # of connection points: 2
#     Edge 51, Type (0, 0), BuildingBlock: AJUNOK_clean_linker_0, # of connection points: 2
#     Edge 52, Type (0, 0), BuildingBlock: AJUNOK_clean_linker_0, # of connection points: 2
#     Edge 53, Type (0, 0), BuildingBlock: AJUNOK_clean_linker_0, # of connection points: 2
#     Edge 54, Type (0, 0), BuildingBlock: AJUNOK_clean_linker_0, # of connection points: 2
#     Edge 55, Type (0, 0), BuildingBlock: AJUNOK_clean_linker_0, # of connection points: 2
#     Edge 56, Type (0, 0), BuildingBlock: AJUNOK_clean_linker_0, # of connection points: 2
#     Edge 57, Type (0, 0), BuildingBlock: AJUNOK_clean_linker_0, # of connection points: 2
#     Edge 58, Type (0, 0), BuildingBlock: AJUNOK_clean_linker_0, # of connection points: 2
#     Edge 59, Type (0, 0), BuildingBlock: AJUNOK_clean_linker_0, # of connection points: 2
#     Edge 60, Type (0, 0), BuildingBlock: AJUNOK_clean_linker_0, # of connection points: 2
#     Edge 61, Type (0, 0), BuildingBlock: AJUNOK_clean_linker_0, # of connection points: 2
#     Edge 62, Type (0, 0), BuildingBlock: AJUNOK_clean_linker_0, # of connection points: 2
#     Edge 63, Type (0, 0), BuildingBlock: AJUNOK_clean_linker_0, # of connection points: 2
#     Edge 64, Type (0, 0), BuildingBlock: AJUNOK_clean_linker_0, # of connection points: 2
#     Edge 65, Type (0, 0), BuildingBlock: AJUNOK_clean_linker_0, # of connection points: 2
#     Edge 66, Type (0, 0), BuildingBlock: AJUNOK_clean_linker_0, # of connection points: 2
#     Edge 67, Type (0, 0), BuildingBlock: AJUNOK_clean_linker_0, # of connection points: 2
#     Edge 68, Type (0, 0), BuildingBlock: AJUNOK_clean_linker_0, # of connection points: 2
#     Edge 69, Type (0, 0), BuildingBlock: AJUNOK_clean_linker_0, # of connection points: 2
#     Edge 70, Type (0, 0), BuildingBlock: AJUNOK_clean_linker_0, # of connection points: 2
#     Edge 71, Type (0, 0), BuildingBlock: AJUNOK_clean_linker_0, # of connection points: 2
#     Edge 72, Type (0, 0), BuildingBlock: AJUNOK_clean_linker_0, # of connection points: 2
#     Edge 73, Type (0, 0), BuildingBlock: AJUNOK_clean_linker_0, # of connection points: 2
#     Edge 74, Type (0, 0), BuildingBlock: AJUNOK_clean_linker_0, # of connection points: 2
#     Edge 75, Type (0, 0), BuildingBlock: AJUNOK_clean_linker_0, # of connection points: 2
#     Edge 76, Type (0, 0), BuildingBlock: AJUNOK_clean_linker_0, # of connection points: 2
#     Edge 77, Type (0, 0), BuildingBlock: AJUNOK_clean_linker_0, # of connection points: 2
#     Edge 78, Type (0, 0), BuildingBlock: AJUNOK_clean_linker_0, # of connection points: 2
#     Edge 79, Type (0, 0), BuildingBlock: AJUNOK_clean_linker_0, # of connection points: 2
#     Edge 80, Type (0, 0), BuildingBlock: AJUNOK_clean_linker_0, # of connection points: 2
#     Edge 81, Type (0, 0), BuildingBlock: AJUNOK_clean_linker_0, # of connection points: 2
#     Edge 82, Type (0, 0), BuildingBlock: AJUNOK_clean_linker_0, # of connection points: 2
#     Edge 83, Type (0, 0), BuildingBlock: AJUNOK_clean_linker_0, # of connection points: 2
#     Edge 84, Type (0, 0), BuildingBlock: AJUNOK_clean_linker_0, # of connection points: 2
#     Edge 85, Type (0, 0), BuildingBlock: AJUNOK_clean_linker_0, # of connection points: 2
#     Edge 86, Type (0, 0), BuildingBlock: AJUNOK_clean_linker_0, # of connection points: 2
#     Edge 87, Type (0, 0), BuildingBlock: AJUNOK_clean_linker_0, # of connection points: 2
#     Edge 88, Type (0, 0), BuildingBlock: AJUNOK_clean_linker_0, # of connection points: 2
#     Edge 89, Type (0, 0), BuildingBlock: AJUNOK_clean_linker_0, # of connection points: 2
#     Edge 90, Type (0, 0), BuildingBlock: AJUNOK_clean_linker_0, # of connection points: 2
#     Edge 91, Type (0, 0), BuildingBlock: AJUNOK_clean_linker_0, # of connection points: 2
#     Edge 92, Type (0, 0), BuildingBlock: AJUNOK_clean_linker_0, # of connection points: 2
#     Edge 93, Type (0, 0), BuildingBlock: AJUNOK_clean_linker_0, # of connection points: 2
#     Edge 94, Type (0, 0), BuildingBlock: AJUNOK_clean_linker_0, # of connection points: 2
#     Edge 95, Type (0, 0), BuildingBlock: AJUNOK_clean_linker_0, # of connection points: 2
#     Edge 96, Type (0, 0), BuildingBlock: AJUNOK_clean_linker_0, # of connection points: 2
#     Edge 97, Type (0, 0), BuildingBlock: AJUNOK_clean_linker_0, # of connection points: 2
#     Edge 98, Type (0, 0), BuildingBlock: AJUNOK_clean_linker_0, # of connection points: 2
#     Edge 99, Type (0, 0), BuildingBlock: AJUNOK_clean_linker_0, # of connection points: 2
#     Edge 100, Type (0, 0), BuildingBlock: AJUNOK_clean_linker_0, # of connection points: 2
#     Edge 101, Type (0, 0), BuildingBlock: AJUNOK_clean_linker_0, # of connection points: 2
#     Edge 102, Type (0, 0), BuildingBlock: AJUNOK_clean_linker_0, # of connection points: 2
#     Edge 103, Type (0, 0), BuildingBlock: AJUNOK_clean_linker_0, # of connection points: 2
#     Edge 104, Type (0, 0), BuildingBlock: AJUNOK_clean_linker_0, # of connection points: 2
#     Edge 105, Type (0, 0), BuildingBlock: AJUNOK_clean_linker_0, # of connection points: 2
#     Edge 106, Type (0, 0), BuildingBlock: AJUNOK_clean_linker_0, # of connection points: 2
#     Edge 107, Type (0, 0), BuildingBlock: AJUNOK_clean_linker_0, # of connection points: 2
#     Edge 108, Type (0, 0), BuildingBlock: AJUNOK_clean_linker_0, # of connection points: 2
#     Edge 109, Type (0, 0), BuildingBlock: AJUNOK_clean_linker_0, # of connection points: 2
#     Edge 110, Type (0, 0), BuildingBlock: AJUNOK_clean_linker_0, # of connection points: 2
#     Edge 111, Type (0, 0), BuildingBlock: AJUNOK_clean_linker_0, # of connection points: 2
#     Edge 112, Type (0, 0), BuildingBlock: AJUNOK_clean_linker_0, # of connection points: 2
#     Edge 113, Type (0, 0), BuildingBlock: AJUNOK_clean_linker_0, # of connection points: 2
#     Edge 114, Type (0, 0), BuildingBlock: AJUNOK_clean_linker_0, # of connection points: 2
#     Edge 115, Type (0, 0), BuildingBlock: AJUNOK_clean_linker_0, # of connection points: 2
#     Edge 116, Type (0, 0), BuildingBlock: AJUNOK_clean_linker_0, # of connection points: 2
#     Edge 117, Type (0, 0), BuildingBlock: AJUNOK_clean_linker_0, # of connection points: 2
#     Edge 118, Type (0, 0), BuildingBlock: AJUNOK_clean_linker_0, # of connection points: 2
#     Edge 119, Type (0, 0), BuildingBlock: AJUNOK_clean_linker_0, # of connection points: 2
#     Edge 120, Type (0, 0), BuildingBlock: AJUNOK_clean_linker_0, # of connection points: 2
#     Edge 121, Type (0, 0), BuildingBlock: AJUNOK_clean_linker_0, # of connection points: 2
#     Edge 122, Type (0, 0), BuildingBlock: AJUNOK_clean_linker_0, # of connection points: 2
#     Edge 123, Type (0, 0), BuildingBlock: AJUNOK_clean_linker_0, # of connection points: 2
#     Edge 124, Type (0, 0), BuildingBlock: AJUNOK_clean_linker_0, # of connection points: 2
#     Edge 125, Type (0, 0), BuildingBlock: AJUNOK_clean_linker_0, # of connection points: 2
#     Edge 126, Type (0, 0), BuildingBlock: AJUNOK_clean_linker_0, # of connection points: 2
#     Edge 127, Type (0, 0), BuildingBlock: AJUNOK_clean_linker_0, # of connection points: 2
#     Edge 128, Type (0, 0), BuildingBlock: AJUNOK_clean_linker_0, # of connection points: 2
#     Edge 129, Type (0, 0), BuildingBlock: AJUNOK_clean_linker_0, # of connection points: 2
#     Edge 130, Type (0, 0), BuildingBlock: AJUNOK_clean_linker_0, # of connection points: 2
#     Edge 131, Type (0, 0), BuildingBlock: AJUNOK_clean_linker_0, # of connection points: 2
#     Edge 132, Type (0, 0), BuildingBlock: AJUNOK_clean_linker_0, # of connection points: 2
#     Edge 133, Type (0, 0), BuildingBlock: AJUNOK_clean_linker_0, # of connection points: 2
#     Edge 134, Type (0, 0), BuildingBlock: AJUNOK_clean_linker_0, # of connection points: 2
#     Edge 135, Type (0, 0), BuildingBlock: AJUNOK_clean_linker_0, # of connection points: 2
#     Edge 136, Type (0, 0), BuildingBlock: AJUNOK_clean_linker_0, # of connection points: 2
#     Edge 137, Type (0, 0), BuildingBlock: AJUNOK_clean_linker_0, # of connection points: 2
#     Edge 138, Type (0, 0), BuildingBlock: AJUNOK_clean_linker_0, # of connection points: 2
#     Edge 139, Type (0, 0), BuildingBlock: AJUNOK_clean_linker_0, # of connection points: 2
#     Edge 140, Type (0, 0), BuildingBlock: AJUNOK_clean_linker_0, # of connection points: 2
#     Edge 141, Type (0, 0), BuildingBlock: AJUNOK_clean_linker_0, # of connection points: 2
#     Edge 142, Type (0, 0), BuildingBlock: AJUNOK_clean_linker_0, # of connection points: 2
#     Edge 143, Type (0, 0), BuildingBlock: AJUNOK_clean_linker_0, # of connection points: 2
#     Edge 144, Type (0, 0), BuildingBlock: AJUNOK_clean_linker_0, # of connection points: 2
#     Edge 145, Type (0, 0), BuildingBlock: AJUNOK_clean_linker_0, # of connection points: 2
#     Edge 146, Type (0, 0), BuildingBlock: AJUNOK_clean_linker_0, # of connection points: 2
#     Edge 147, Type (0, 0), BuildingBlock: AJUNOK_clean_linker_0, # of connection points: 2
#     Edge 148, Type (0, 0), BuildingBlock: AJUNOK_clean_linker_0, # of connection points: 2
#     Edge 149, Type (0, 0), BuildingBlock: AJUNOK_clean_linker_0, # of connection points: 2
#     Edge 150, Type (0, 0), BuildingBlock: AJUNOK_clean_linker_0, # of connection points: 2
#     Edge 151, Type (0, 0), BuildingBlock: AJUNOK_clean_linker_0, # of connection points: 2
#     Edge 152, Type (0, 0), BuildingBlock: AJUNOK_clean_linker_0, # of connection points: 2
#     Edge 153, Type (0, 0), BuildingBlock: AJUNOK_clean_linker_0, # of connection points: 2
#     Edge 154, Type (0, 0), BuildingBlock: AJUNOK_clean_linker_0, # of connection points: 2
#     Edge 155, Type (0, 0), BuildingBlock: AJUNOK_clean_linker_0, # of connection points: 2
#     Edge 156, Type (0, 0), BuildingBlock: AJUNOK_clean_linker_0, # of connection points: 2
#     Edge 157, Type (0, 0), BuildingBlock: AJUNOK_clean_linker_0, # of connection points: 2
#     Edge 158, Type (0, 0), BuildingBlock: AJUNOK_clean_linker_0, # of connection points: 2
#     Edge 159, Type (0, 0), BuildingBlock: AJUNOK_clean_linker_0, # of connection points: 2
#     Edge 160, Type (0, 0), BuildingBlock: AJUNOK_clean_linker_0, # of connection points: 2
#     Edge 161, Type (0, 0), BuildingBlock: AJUNOK_clean_linker_0, # of connection points: 2
#     Edge 162, Type (0, 0), BuildingBlock: AJUNOK_clean_linker_0, # of connection points: 2
#     Edge 163, Type (0, 0), BuildingBlock: AJUNOK_clean_linker_0, # of connection points: 2
#     Edge 164, Type (0, 0), BuildingBlock: AJUNOK_clean_linker_0, # of connection points: 2
#     Edge 165, Type (0, 0), BuildingBlock: AJUNOK_clean_linker_0, # of connection points: 2
#     Edge 166, Type (0, 0), BuildingBlock: AJUNOK_clean_linker_0, # of connection points: 2
#     Edge 167, Type (0, 0), BuildingBlock: AJUNOK_clean_linker_0, # of connection points: 2
# Relax obj value: 0.408
# Max RMSD: 0.278
# Mean RMSD: 0.182
data_MOF--net-fno--node1-XOMCOT_clean_sbu_1--edge1-AJUNOK_clean_linker_0
_symmetry_space_group_name_H-M    P1
_symmetry_Int_Tables_number       1
_symmetry_cell_setting            triclinic
loop_
_symmetry_equiv_pos_as_xyz
'x, y, z'
_cell_length_a     44.418198
_cell_length_b     43.531037
_cell_length_c     44.267967
_cell_angle_alpha  91.91284
_cell_angle_beta   91.005259
_cell_angle_gamma 93.173293
loop_
_atom_site_label
_atom_site_type_symbol
_atom_site_fract_x
_atom_site_fract_y
_atom_site_fract_z
_atom_type_partial_charge
C0 C 0.13553 0.32638 0.06818 0.0
C1 C 0.14084 0.33016 0.03804 0.0
N2 N 0.12465 0.35346 0.02843 0.0
N3 N 0.11635 0.34743 0.07746 0.0
C4 C 0.10886 0.36238 0.05259 0.0
H5 H 0.1474 0.31176 0.08306 0.0
Co6 Co 0.11043 0.35992 0.11682 0.0
C7 C 0.11859 0.42836 0.11726 0.0
O8 O 0.13539 0.42551 0.14163 0.0
N9 N 0.10287 0.37184 0.15656 0.0
C10 C 0.08267 0.39622 0.19536 0.0
C11 C 0.08392 0.3938 0.16465 0.0
C12 C 0.11037 0.35919 0.18283 0.0
N13 N 0.09898 0.37409 0.20681 0.0
O14 O 0.06737 0.34521 0.11293 0.0
H15 H 0.07162 0.40744 0.14923 0.0
H16 H 0.12261 0.33859 0.18455 0.0
O17 O 0.10494 0.40421 0.10427 0.0
C18 C 0.06838 0.31715 0.12088 0.0
O19 O 0.09539 0.30755 0.12648 0.0
N20 N 0.1533 0.37002 0.12102 0.0
C21 C 0.21473 0.38707 0.12807 0.0
C22 C 0.19798 0.39755 0.1039 0.0
C23 C 0.16764 0.38807 0.10028 0.0
C24 C 0.17032 0.35676 0.14253 0.0
C25 C 0.20101 0.36546 0.14691 0.0
H26 H 0.15546 0.3962 0.08112 0.0
H27 H 0.16057 0.33892 0.15605 0.0
H28 H 0.09379 0.38099 0.05293 0.0
H29 H 0.15785 0.31893 0.02518 0.0
H30 H 0.0712 0.41354 0.20806 0.0
H31 H 0.20824 0.41315 0.08798 0.0
H32 H 0.21375 0.3557 0.16497 0.0
C33 C 0.95516 0.86423 0.30507 0.0
C34 C 0.94491 0.86315 0.27543 0.0
N35 N 0.92287 0.84058 0.2714 0.0
N36 N 0.93943 0.84301 0.3208 0.0
C37 C 0.9228 0.82684 0.29883 0.0
H38 H 0.97036 0.88208 0.31522 0.0
Co39 Co 0.93404 0.84634 0.36468 0.0
C40 C 0.86442 0.84179 0.34262 0.0
O41 O 0.86687 0.82874 0.31602 0.0
N42 N 0.92818 0.84986 0.40911 0.0
C43 C 0.9003 0.85201 0.45077 0.0
C44 C 0.9016 0.84103 0.42144 0.0
C45 C 0.94349 0.86458 0.43324 0.0
N46 N 0.92669 0.86708 0.45882 0.0
O47 O 0.9403 0.80066 0.36744 0.0
H48 H 0.88315 0.82829 0.4097 0.0
H49 H 0.96646 0.87389 0.43209 0.0
O50 O 0.8879 0.84554 0.36013 0.0
C51 C 0.96859 0.79657 0.37249 0.0
O52 O 0.98649 0.82146 0.37673 0.0
N53 N 0.93155 0.88956 0.36187 0.0
C54 C 0.9121 0.94813 0.3711 0.0
C55 C 0.90116 0.92994 0.34626 0.0
C56 C 0.91147 0.90078 0.34187 0.0
C57 C 0.94743 0.90958 0.38129 0.0
C58 C 0.93707 0.9388 0.38748 0.0
H59 H 0.90111 0.88638 0.32387 0.0
H60 H 0.96688 0.90238 0.39336 0.0
H61 H 0.90986 0.806 0.30365 0.0
H62 H 0.95172 0.87988 0.25905 0.0
H63 H 0.88022 0.85028 0.4641 0.0
H64 H 0.88234 0.93641 0.33244 0.0
H65 H 0.94725 0.9531 0.40581 0.0
C66 C 0.46582 0.67066 0.6837 0.0
C67 C 0.46117 0.66858 0.71417 0.0
N68 N 0.434 0.67962 0.72093 0.0
N69 N 0.44122 0.68162 0.67082 0.0
C70 C 0.42392 0.68982 0.69423 0.0
H71 H 0.48388 0.66077 0.67126 0.0
Co72 Co 0.43186 0.67817 0.62946 0.0
C73 C 0.36685 0.66543 0.65407 0.0
O74 O 0.37722 0.64973 0.67623 0.0
N75 N 0.42298 0.67666 0.58775 0.0
C76 C 0.39789 0.66422 0.5449 0.0
C77 C 0.39638 0.66554 0.57559 0.0
C78 C 0.44091 0.68104 0.5636 0.0
N79 N 0.42593 0.67356 0.53733 0.0
O80 O 0.44067 0.72322 0.62771 0.0
H81 H 0.37915 0.65353 0.588 0.0
H82 H 0.46495 0.68644 0.5653 0.0
O83 O 0.38561 0.68007 0.63667 0.0
C84 C 0.46909 0.72772 0.6229 0.0
O85 O 0.48521 0.70342 0.62009 0.0
N86 N 0.42761 0.63279 0.63032 0.0
C87 C 0.40463 0.57202 0.62756 0.0
C88 C 0.41027 0.58716 0.65542 0.0
C89 C 0.42246 0.61723 0.65633 0.0
C90 C 0.42944 0.61523 0.60408 0.0
C91 C 0.41661 0.58515 0.60179 0.0
H92 H 0.4247 0.62803 0.67836 0.0
H93 H 0.4391 0.62451 0.58399 0.0
H94 H 0.40287 0.70068 0.69127 0.0
H95 H 0.47548 0.65611 0.7287 0.0
H96 H 0.38107 0.65318 0.52951 0.0
H97 H 0.40324 0.57669 0.67622 0.0
H98 H 0.4146 0.57312 0.57997 0.0
C99 C 0.5995 0.19144 0.94116 0.0
C100 C 0.60417 0.18517 0.97127 0.0
N101 N 0.6108 0.15547 0.97289 0.0
N102 N 0.60278 0.1657 0.92402 0.0
C103 C 0.60995 0.14432 0.94417 0.0
H104 H 0.59516 0.21359 0.93224 0.0
Co105 Co 0.60078 0.16118 0.88161 0.0
C106 C 0.6035 0.09234 0.87032 0.0
O107 O 0.61536 0.09848 0.8441 0.0
N108 N 0.59888 0.15612 0.83804 0.0
C109 C 0.58237 0.14042 0.79166 0.0
C110 C 0.57513 0.14304 0.82186 0.0
C111 C 0.62004 0.16161 0.81666 0.0
N112 N 0.6107 0.15229 0.78844 0.0
O113 O 0.55683 0.17137 0.88194 0.0
H114 H 0.55413 0.13483 0.83157 0.0
H115 H 0.64251 0.17108 0.82121 0.0
O116 O 0.59341 0.11477 0.88628 0.0
C117 C 0.55281 0.19905 0.87336 0.0
O118 O 0.57649 0.21527 0.86413 0.0
N119 N 0.643 0.15758 0.88198 0.0
C120 C 0.70413 0.1576 0.87087 0.0
C121 C 0.68964 0.13267 0.88477 0.0
C122 C 0.659 0.13331 0.89064 0.0
C123 C 0.65807 0.18406 0.8737 0.0
C124 C 0.68858 0.18417 0.86656 0.0
H125 H 0.64854 0.11389 0.90142 0.0
H126 H 0.64554 0.2041 0.86925 0.0
H127 H 0.61511 0.12104 0.93818 0.0
H128 H 0.60393 0.20141 0.99032 0.0
H129 H 0.56789 0.13062 0.77348 0.0
H130 H 0.7015 0.11222 0.88953 0.0
H131 H 0.69946 0.20414 0.85651 0.0
C132 C 0.12384 0.69517 0.43454 0.0
C133 C 0.12956 0.68859 0.46429 0.0
N134 N 0.11452 0.66181 0.47033 0.0
N135 N 0.10557 0.67242 0.42177 0.0
C136 C 0.09949 0.6531 0.44446 0.0
H137 H 0.13488 0.7135 0.42221 0.0
Co138 Co 0.10193 0.66218 0.38048 0.0
C139 C 0.10985 0.59191 0.38037 0.0
O140 O 0.12484 0.59452 0.35518 0.0
N141 N 0.09843 0.65088 0.33821 0.0
C142 C 0.08503 0.62253 0.29658 0.0
C143 C 0.07893 0.62839 0.32662 0.0
C144 C 0.1151 0.65931 0.31397 0.0
N145 N 0.10818 0.64167 0.28897 0.0
O146 O 0.05759 0.67154 0.38093 0.0
H147 H 0.06207 0.61606 0.33959 0.0
H148 H 0.13179 0.67816 0.31383 0.0
O149 O 0.09723 0.61587 0.39146 0.0
C150 C 0.0565 0.70016 0.37401 0.0
O151 O 0.08247 0.71481 0.36881 0.0
N152 N 0.14416 0.65988 0.37954 0.0
C153 C 0.20323 0.65218 0.36488 0.0
C154 C 0.18968 0.63444 0.38719 0.0
C155 C 0.16017 0.6395 0.39492 0.0
C156 C 0.15942 0.68211 0.36399 0.0
C157 C 0.18897 0.67801 0.35508 0.0
H158 H 0.14987 0.62626 0.4121 0.0
H159 H 0.14779 0.70167 0.35631 0.0
H160 H 0.08675 0.63136 0.44138 0.0
H161 H 0.14515 0.70146 0.47964 0.0
H162 H 0.07347 0.6055 0.2815 0.0
H163 H 0.20115 0.61586 0.39726 0.0
H164 H 0.19961 0.69351 0.33931 0.0
C165 C 0.63352 0.81694 0.56844 0.0
C166 C 0.63582 0.81923 0.5377 0.0
N167 N 0.61977 0.84291 0.5289 0.0
N168 N 0.61649 0.83944 0.57888 0.0
C169 C 0.60606 0.85266 0.55408 0.0
H170 H 0.64701 0.80305 0.5826 0.0
Co171 Co 0.61775 0.85508 0.61828 0.0
C172 C 0.62304 0.92028 0.58561 0.0
O173 O 0.63244 0.91105 0.55913 0.0
N174 N 0.61908 0.87047 0.65805 0.0
C175 C 0.63628 0.90005 0.69709 0.0
C176 C 0.63723 0.89527 0.66666 0.0
C177 C 0.60769 0.85997 0.68412 0.0
N178 N 0.61775 0.87798 0.70802 0.0
O179 O 0.5733 0.84813 0.61911 0.0
H180 H 0.65199 0.9081 0.65187 0.0
H181 H 0.59314 0.83935 0.68572 0.0
O182 O 0.61648 0.90043 0.60601 0.0
C183 C 0.56557 0.8204 0.62616 0.0
O184 O 0.58707 0.80226 0.6333 0.0
N185 N 0.66106 0.85831 0.61815 0.0
C186 C 0.72153 0.8774 0.62733 0.0
C187 C 0.70677 0.88198 0.59975 0.0
C188 C 0.67666 0.87207 0.59558 0.0
C189 C 0.6766 0.84847 0.64266 0.0
C190 C 0.70666 0.85886 0.64837 0.0
H191 H 0.66595 0.87591 0.57436 0.0
H192 H 0.66484 0.83534 0.65959 0.0
H193 H 0.59217 0.87228 0.555 0.0
H194 H 0.65205 0.8079 0.52386 0.0
H195 H 0.64924 0.91758 0.71046 0.0
H196 H 0.71806 0.89425 0.58189 0.0
H197 H 0.7173 0.85399 0.66973 0.0
C198 C 0.45295 0.35687 0.80304 0.0
C199 C 0.44121 0.3576 0.77394 0.0
N200 N 0.41359 0.34299 0.77291 0.0
N201 N 0.43296 0.34195 0.82073 0.0
C202 C 0.4099 0.33246 0.80129 0.0
H203 H 0.47345 0.36908 0.81138 0.0
Co204 Co 0.43302 0.34619 0.8641 0.0
C205 C 0.36942 0.35811 0.87865 0.0
O206 O 0.38139 0.37565 0.90091 0.0
N207 N 0.43268 0.34972 0.90879 0.0
C208 C 0.41541 0.34075 0.95517 0.0
C209 C 0.41567 0.33017 0.9254 0.0
C210 C 0.44404 0.3709 0.93015 0.0
N211 N 0.43306 0.36695 0.95844 0.0
O212 O 0.44103 0.30114 0.86707 0.0
H213 H 0.40247 0.31038 0.91604 0.0
H214 H 0.45982 0.38912 0.9252 0.0
O215 O 0.38685 0.34107 0.86298 0.0
C216 C 0.46914 0.29711 0.87278 0.0
O217 O 0.48734 0.32187 0.87624 0.0
N218 N 0.42888 0.3896 0.86009 0.0
C219 C 0.40966 0.44843 0.86807 0.0
C220 C 0.39588 0.42845 0.84605 0.0
C221 C 0.40649 0.39938 0.84182 0.0
C222 C 0.44738 0.4114 0.87488 0.0
C223 C 0.43702 0.44072 0.88128 0.0
H224 H 0.39442 0.38387 0.82611 0.0
H225 H 0.46934 0.40565 0.88297 0.0
H226 H 0.38941 0.32066 0.80853 0.0
H227 H 0.45161 0.36961 0.75545 0.0
H228 H 0.40245 0.33 0.97277 0.0
H229 H 0.37543 0.43403 0.8342 0.0
H230 H 0.44959 0.45664 0.89674 0.0
C231 C 0.9642 0.16968 0.19211 0.0
C232 C 0.95705 0.16809 0.22214 0.0
N233 N 0.92973 0.17951 0.22609 0.0
N234 N 0.94106 0.18121 0.17697 0.0
C235 C 0.92178 0.18956 0.19868 0.0
H236 H 0.9827 0.15874 0.18137 0.0
Co237 Co 0.9345 0.17374 0.13526 0.0
C238 C 0.86551 0.16389 0.15347 0.0
O239 O 0.87087 0.15341 0.18026 0.0
N240 N 0.92751 0.16698 0.0932 0.0
C241 C 0.90371 0.14545 0.05257 0.0
C242 C 0.90697 0.1449 0.08296 0.0
C243 C 0.9364 0.18127 0.06778 0.0
N244 N 0.92196 0.16838 0.043 0.0
O245 O 0.94277 0.21839 0.12961 0.0
H246 H 0.89568 0.12838 0.09691 0.0
H247 H 0.95224 0.20102 0.06734 0.0
O248 O 0.88754 0.17435 0.13711 0.0
C249 C 0.97138 0.21905 0.1251 0.0
O250 O 0.98338 0.19233 0.12086 0.0
N251 N 0.93243 0.12975 0.1411 0.0
C252 C 0.91077 0.06924 0.13703 0.0
C253 C 0.90742 0.08661 0.16368 0.0
C254 C 0.91877 0.11686 0.16531 0.0
C255 C 0.94433 0.11029 0.12004 0.0
C256 C 0.93212 0.07995 0.11631 0.0
H257 H 0.91512 0.12986 0.18557 0.0
H258 H 0.95919 0.1194 0.10299 0.0
H259 H 0.90036 0.19914 0.19397 0.0
H260 H 0.96886 0.15528 0.23875 0.0
H261 H 0.88901 0.13016 0.03835 0.0
H262 H 0.89409 0.07778 0.18209 0.0
H263 H 0.93721 0.06633 0.09632 0.0
C264 C 0.1556 0.07012 0.40773 0.0
C265 C 0.18641 0.07349 0.40897 0.0
N266 N 0.19556 0.09144 0.3864 0.0
N267 N 0.14502 0.08678 0.38506 0.0
C268 C 0.17012 0.09749 0.37113 0.0
H269 H 0.14191 0.05791 0.42381 0.0
Co270 Co 0.10413 0.09511 0.37889 0.0
C271 C 0.1337 0.16494 0.37528 0.0
O272 O 0.16163 0.1594 0.36921 0.0
N273 N 0.06205 0.10328 0.373 0.0
C274 C 0.02193 0.12722 0.35631 0.0
C275 C 0.0521 0.12238 0.35203 0.0
C276 C 0.03691 0.09657 0.3895 0.0
N277 N 1.01245 0.11097 0.37995 0.0
O278 O 0.10789 0.08347 0.33599 0.0
H279 H 0.06632 0.13342 0.33553 0.0
H280 H 0.03608 0.08218 0.40878 0.0
O281 O 0.1137 0.14223 0.37701 0.0
C282 C 0.10675 0.05374 0.33651 0.0
O283 O 0.10151 0.04103 0.36255 0.0
N284 N 0.1003 0.10006 0.41996 0.0
C285 C 0.08423 0.1031 0.47919 0.0
C286 C 0.10306 0.12654 0.46776 0.0
C287 C 0.11162 0.12415 0.4379 0.0
C288 C 0.08633 0.07494 0.43229 0.0
C289 C 0.0773 0.07619 0.46207 0.0
H290 H 0.12658 0.14196 0.4294 0.0
H291 H 0.08008 0.05478 0.41814 0.0
H292 H 0.16984 0.11051 0.35081 0.0
H293 H 0.20085 0.06583 0.42685 0.0
H294 H 1.00841 0.14271 0.34397 0.0
H295 H 0.10981 0.14702 0.48134 0.0
H296 H 0.0634 0.05743 0.47087 0.0
C297 C 0.21847 0.97513 0.62092 0.0
C298 C 0.20954 1.00366 0.63052 0.0
N299 N 0.18297 1.00845 0.61694 0.0
N300 N 0.19746 0.96186 0.60154 0.0
C301 C 0.17656 0.98325 0.59892 0.0
H302 H 0.23739 0.96349 0.62991 0.0
Co303 Co 0.19317 0.91923 0.5926 0.0
C304 C 0.1271 0.90483 0.5907 0.0
O305 O 0.13347 0.87868 0.60261 0.0
N306 N 0.18877 0.87612 0.58283 0.0
C307 C 0.16955 0.83366 0.55838 0.0
C308 C 0.17473 0.86499 0.55706 0.0
C309 C 0.19385 0.85049 0.59828 0.0
N310 N 0.18137 0.82463 0.5846 0.0
O311 O 0.20755 0.92516 0.55088 0.0
H312 H 0.16619 0.87916 0.53959 0.0
H313 H 0.20557 0.85005 0.61959 0.0
O314 O 0.14902 0.92308 0.58223 0.0
C315 C 0.2341 0.91517 0.5478 0.0
O316 O 0.24751 0.90461 0.5717 0.0
N317 N 0.1826 0.91371 0.63386 0.0
C318 C 0.16159 0.89482 0.68954 0.0
C319 C 0.14769 0.91808 0.67425 0.0
C320 C 0.15877 0.92741 0.64665 0.0
C321 C 0.20044 0.8972 0.65173 0.0
C322 C 0.18937 0.88546 0.67867 0.0
H323 H 0.14704 0.94443 0.63489 0.0
H324 H 0.22231 0.89107 0.64394 0.0
H325 H 0.15592 0.97963 0.58589 0.0
H326 H 0.22039 0.01856 0.64803 0.0
H327 H 0.15584 0.81932 0.54249 0.0
H328 H 0.12767 0.92821 0.68284 0.0
H329 H 0.20194 0.8683 0.68962 0.0
C330 C 0.43377 0.94072 0.85893 0.0
C331 C 0.46373 0.93794 0.8666 0.0
N332 N 0.46665 0.93961 0.89691 0.0
N333 N 0.41766 0.94386 0.88436 0.0
C334 C 0.43871 0.94421 0.90699 0.0
H335 H 0.42419 0.93727 0.83645 0.0
Co336 Co 0.37526 0.93789 0.88945 0.0
C337 C 0.36964 0.89434 0.94068 0.0
O338 O 0.34728 0.8796 0.92546 0.0
N339 N 0.33254 0.93362 0.89657 0.0
C340 C 0.2923 0.93208 0.92639 0.0
C341 C 0.32231 0.94134 0.92425 0.0
C342 C 0.30713 0.92202 0.88161 0.0
N343 N 0.28292 0.91919 0.89964 0.0
O344 O 0.36758 0.96028 0.85116 0.0
H345 H 0.33636 0.95156 0.94254 0.0
H346 H 0.30535 0.91668 0.85783 0.0
O347 O 0.38281 0.91816 0.92928 0.0
C348 C 0.36668 0.95759 0.82211 0.0
O349 O 0.37301 0.93153 0.80856 0.0
N350 N 0.37626 0.89739 0.86965 0.0
C351 C 0.36835 0.83377 0.86395 0.0
C352 C 0.39419 0.84727 0.87822 0.0
C353 C 0.3978 0.87908 0.88062 0.0
C354 C 0.35478 0.88424 0.85003 0.0
C355 C 0.34949 0.85226 0.8479 0.0
H356 H 0.41589 0.88835 0.89509 0.0
H357 H 0.34059 0.89795 0.83698 0.0
H358 H 0.43337 0.94531 0.93056 0.0
H359 H 0.4814 0.93207 0.85125 0.0
H360 H 0.27882 0.93352 0.94647 0.0
H361 H 0.40956 0.8336 0.89064 0.0
H362 H 0.33007 0.84224 0.83527 0.0
C363 C 0.34103 0.06986 0.10502 0.0
C364 C 0.34406 0.0391 0.11067 0.0
N365 N 0.37178 0.0315 0.10238 0.0
N366 N 0.36703 0.08182 0.09386 0.0
C367 C 0.38494 0.05747 0.09174 0.0
H368 H 0.32222 0.08329 0.11136 0.0
Co369 Co 0.37916 0.12417 0.09155 0.0
C370 C 0.44395 0.1119 0.10881 0.0
O371 O 0.4396 0.1246 0.13545 0.0
N372 N 0.39304 0.16622 0.08789 0.0
C373 C 0.42432 0.20794 0.08614 0.0
C374 C 0.42226 0.17697 0.08846 0.0
C375 C 0.37767 0.19202 0.08425 0.0
N376 N 0.39641 0.21748 0.08328 0.0
O377 O 0.37006 0.12252 0.04707 0.0
H378 H 0.44171 0.16407 0.09049 0.0
H379 H 0.35334 0.19241 0.08406 0.0
O380 O 0.42301 0.1118 0.08811 0.0
C381 C 0.34301 0.13148 0.04303 0.0
O382 O 0.32732 0.13747 0.06718 0.0
N383 N 0.38122 0.1281 0.13572 0.0
C384 C 0.3861 0.13992 0.19832 0.0
C385 C 0.39051 0.11051 0.1861 0.0
C386 C 0.38712 0.10478 0.15482 0.0
C387 C 0.37291 0.15548 0.14835 0.0
C388 C 0.37613 0.16222 0.17932 0.0
H389 H 0.39224 0.08234 0.14612 0.0
H390 H 0.36348 0.17264 0.13485 0.0
H391 H 0.40825 0.05896 0.08521 0.0
H392 H 0.32803 0.02412 0.1221 0.0
H393 H 0.44476 0.22271 0.08823 0.0
H394 H 0.39756 0.09243 0.20043 0.0
H395 H 0.37131 0.18487 0.18824 0.0
C396 C 0.1728 0.95882 0.17347 0.0
C397 C 0.20339 0.9587 0.16927 0.0
N398 N 0.21424 0.93608 0.18563 0.0
N399 N 0.16465 0.936 0.19198 0.0
C400 C 0.1905 0.92345 0.1999 0.0
H401 H 0.15715 0.97223 0.16124 0.0
Co402 Co 0.12615 0.91955 0.19745 0.0
C403 C 0.15284 0.85085 0.20802 0.0
O404 O 0.16786 0.84806 0.2335 0.0
N405 N 0.0871 0.90292 0.20341 0.0
C406 C 0.04846 0.86876 0.20707 0.0
C407 C 0.07867 0.87461 0.21294 0.0
C408 C 0.06111 0.91466 0.19427 0.0
N409 N 0.03765 0.89399 0.19522 0.0
O410 O 0.1283 0.93486 0.23954 0.0
H411 H 0.09359 0.85811 0.22155 0.0
H412 H 0.05945 0.93709 0.18492 0.0
O413 O 0.14212 0.87723 0.203 0.0
C414 C 0.11937 0.96234 0.23655 0.0
O415 O 0.11185 0.97006 0.20912 0.0
N416 N 0.12279 0.91012 0.1563 0.0
C417 C 0.10865 0.89402 0.09681 0.0
C418 C 0.13337 0.88166 0.11123 0.0
C419 C 0.14029 0.89027 0.14111 0.0
C420 C 0.10256 0.92635 0.14089 0.0
C421 C 0.09383 0.91755 0.11152 0.0
H422 H 0.15936 0.88065 0.15198 0.0
H423 H 0.09266 0.94582 0.15159 0.0
H424 H 0.19166 0.90298 0.21288 0.0
H425 H 0.21597 0.97151 0.15264 0.0
H426 H 0.03593 0.84686 0.20889 0.0
H427 H 0.1468 0.86499 0.09976 0.0
H428 H 0.07537 0.92862 0.10089 0.0
C429 C 0.38694 0.83183 0.44395 0.0
C430 C 0.38904 0.80166 0.43384 0.0
N431 N 0.37457 0.7977 0.40689 0.0
N432 N 0.37159 0.84708 0.42324 0.0
C433 C 0.36368 0.82532 0.40127 0.0
H434 H 0.39841 0.84266 0.46361 0.0
Co435 Co 0.37168 0.89049 0.42067 0.0
C436 C 0.37612 0.89935 0.35465 0.0
O437 O 0.39451 0.92339 0.36131 0.0
N438 N 0.37015 0.93425 0.4171 0.0
C439 C 0.35188 0.97684 0.39876 0.0
C440 C 0.34769 0.94551 0.40037 0.0
C441 C 0.38673 0.96003 0.4269 0.0
N442 N 0.37635 0.98584 0.41557 0.0
O443 O 0.32868 0.88983 0.43268 0.0
H444 H 0.32991 0.9315 0.38879 0.0
H445 H 0.40629 0.9607 0.44154 0.0
O446 O 0.36309 0.8847 0.37601 0.0
C447 C 0.32795 0.90001 0.46027 0.0
O448 O 0.35397 0.9056 0.47456 0.0
N449 N 0.4142 0.89145 0.41279 0.0
C450 C 0.47293 0.90127 0.39256 0.0
C451 C 0.45437 0.87647 0.38094 0.0
C452 C 0.42527 0.8719 0.39156 0.0
C453 C 0.43429 0.91034 0.42928 0.0
C454 C 0.46344 0.91701 0.41862 0.0
H455 H 0.41134 0.85319 0.382 0.0
H456 H 0.42773 0.9205 0.4505 0.0
H457 H 0.35296 0.83015 0.37997 0.0
H458 H 0.40227 0.7847 0.4443 0.0
H459 H 0.33864 0.99179 0.38545 0.0
H460 H 0.46185 0.86118 0.36314 0.0
H461 H 0.4779 0.9346 0.43024 0.0
C462 C 0.421 0.08224 0.70464 0.0
C463 C 0.45078 0.08691 0.69762 0.0
N464 N 0.45336 0.08189 0.66774 0.0
N465 N 0.40462 0.07472 0.67916 0.0
C466 C 0.42536 0.07362 0.65722 0.0
H467 H 0.41202 0.08825 0.72621 0.0
Co468 Co 0.36283 0.07713 0.67264 0.0
C469 C 0.3571 0.11555 0.61659 0.0
O470 O 0.33425 0.12853 0.62924 0.0
N471 N 0.32042 0.07763 0.66451 0.0
C472 C 0.28095 0.07206 0.63231 0.0
C473 C 0.30958 0.06315 0.63874 0.0
C474 C 0.29666 0.09341 0.67434 0.0
N475 N 0.27315 0.09143 0.65469 0.0
O476 O 0.35561 0.05695 0.71266 0.0
H477 H 0.32286 0.04921 0.62398 0.0
H478 H 0.2962 0.10797 0.69419 0.0
O479 O 0.37033 0.09452 0.63077 0.0
C480 C 0.35808 0.06173 0.74152 0.0
O481 O 0.36612 0.08936 0.7526 0.0
N482 N 0.36589 0.11883 0.68942 0.0
C483 C 0.35698 0.18093 0.68564 0.0
C484 C 0.38231 0.16854 0.67281 0.0
C485 C 0.38675 0.13765 0.67569 0.0
C486 C 0.34619 0.13208 0.70854 0.0
C487 C 0.34013 0.16315 0.70583 0.0
H488 H 0.40402 0.12844 0.66203 0.0
H489 H 0.33253 0.11827 0.72332 0.0
H490 H 0.41967 0.07056 0.63345 0.0
H491 H 0.46849 0.09695 0.71258 0.0
H492 H 0.26772 0.06633 0.61192 0.0
H493 H 0.3963 0.1811 0.65708 0.0
H494 H 0.3212 0.17239 0.71746 0.0
C495 C 0.19815 0.23714 0.94886 0.0
C496 C 0.19686 0.26742 0.94113 0.0
N497 N 0.21083 0.27143 0.91462 0.0
N498 N 0.21261 0.22149 0.9273 0.0
C499 C 0.22227 0.24369 0.90826 0.0
H500 H 0.18526 0.22632 0.96651 0.0
Co501 Co 0.20256 0.17842 0.92063 0.0
C502 C 0.20013 0.19364 0.85132 0.0
O503 O 0.20735 0.22305 0.84926 0.0
N504 N 0.19143 0.13596 0.91332 0.0
C505 C 0.16664 0.09655 0.88862 0.0
C506 C 0.17209 0.12752 0.89013 0.0
C507 C 0.19668 0.10892 0.92633 0.0
N508 N 0.18223 0.08477 0.91112 0.0
O509 O 0.24557 0.16829 0.9299 0.0
H510 H 0.16086 0.14317 0.87605 0.0
H511 H 0.20991 0.10695 0.94671 0.0
O512 O 0.20842 0.17905 0.87477 0.0
C513 C 0.25024 0.161 0.95761 0.0
O514 O 0.2273 0.16133 0.97591 0.0
N515 N 0.16113 0.18707 0.91628 0.0
C516 C 0.10046 0.18313 0.9 0.0
C517 C 0.12011 0.20526 0.88748 0.0
C518 C 0.15043 0.20713 0.89632 0.0
C519 C 0.14127 0.16984 0.93292 0.0
C520 C 0.11074 0.16681 0.92454 0.0
H521 H 0.16545 0.22342 0.88575 0.0
H522 H 0.14962 0.15562 0.95046 0.0
H523 H 0.23633 0.23939 0.88925 0.0
H524 H 0.18289 0.28403 0.95192 0.0
H525 H 0.1513 0.08362 0.87301 0.0
H526 H 0.11273 0.21926 0.86929 0.0
H527 H 0.09585 0.15046 0.93576 0.0
C528 C 0.89714 0.33416 0.94069 0.0
C529 C 0.90013 0.30437 0.93004 0.0
N530 N 0.87949 0.29755 0.90774 0.0
N531 N 0.87498 0.34672 0.92496 0.0
C532 C 0.8632 0.32294 0.90698 0.0
H533 H 0.91309 0.34715 0.95557 0.0
Co534 Co 0.87438 0.38998 0.9185 0.0
C535 C 0.86002 0.37001 0.8486 0.0
O536 O 0.84521 0.34313 0.84636 0.0
N537 N 0.87399 0.43302 0.91126 0.0
C538 C 0.8748 0.47615 0.88538 0.0
C539 C 0.86772 0.44519 0.88422 0.0
C540 C 0.88363 0.45792 0.92895 0.0
N541 N 0.8852 0.48404 0.91327 0.0
O542 O 0.83052 0.38954 0.92956 0.0
H543 H 0.85885 0.43278 0.86427 0.0
H544 H 0.89016 0.4569 0.95254 0.0
O545 O 0.8678 0.38161 0.87468 0.0
C546 C 0.82536 0.40185 0.9558 0.0
O547 O 0.84855 0.4132 0.97214 0.0
N548 N 0.91664 0.39128 0.9103 0.0
C549 C 0.97548 0.40159 0.88993 0.0
C550 C 0.95682 0.377 0.87797 0.0
C551 C 0.92761 0.37223 0.88846 0.0
C552 C 0.93591 0.41246 0.92511 0.0
C553 C 0.96511 0.41879 0.91463 0.0
H554 H 0.91338 0.35397 0.87784 0.0
H555 H 0.92851 0.42539 0.94448 0.0
H556 H 0.84366 0.32446 0.89277 0.0
H557 H 0.91874 0.29035 0.93545 0.0
H558 H 0.8724 0.49187 0.86714 0.0
H559 H 0.96429 0.36222 0.85975 0.0
H560 H 0.97884 0.43767 0.92509 0.0
C561 C 0.92872 0.58 0.20306 0.0
C562 C 0.95804 0.58168 0.19396 0.0
N563 N 0.95823 0.57638 0.1639 0.0
N564 N 0.91041 0.574 0.17868 0.0
C565 C 0.92926 0.57068 0.1554 0.0
H566 H 0.92168 0.58697 0.22517 0.0
Co567 Co 0.86932 0.57878 0.17391 0.0
C568 C 0.8638 0.61642 0.11654 0.0
O569 O 0.84043 0.62985 0.12745 0.0
N570 N 0.82756 0.58089 0.16774 0.0
C571 C 0.78522 0.57672 0.1401 0.0
C572 C 0.81484 0.56958 0.1415 0.0
C573 C 0.80418 0.59211 0.18307 0.0
N574 N 0.77868 0.59154 0.16614 0.0
O575 O 0.86219 0.5596 0.21381 0.0
H576 H 0.82698 0.55851 0.12359 0.0
H577 H 0.80488 0.59962 0.20636 0.0
O578 O 0.87651 0.59601 0.13199 0.0
C579 C 0.86592 0.56417 0.2425 0.0
O580 O 0.87719 0.59085 0.25344 0.0
N581 N 0.8746 0.62073 0.19039 0.0
C582 C 0.86602 0.68247 0.18398 0.0
C583 C 0.89182 0.66994 0.17256 0.0
C584 C 0.89596 0.6389 0.17646 0.0
C585 C 0.85512 0.63499 0.20905 0.0
C586 C 0.84949 0.66597 0.20524 0.0
H587 H 0.91379 0.62895 0.16406 0.0
H588 H 0.84242 0.62239 0.22539 0.0
H589 H 0.92192 0.56847 0.13196 0.0
H590 H 0.97727 0.59059 0.20758 0.0
H591 H 0.77027 0.57305 0.12059 0.0
H592 H 0.90637 0.68277 0.15754 0.0
H593 H 0.83143 0.67632 0.2172 0.0
C594 C 0.69481 0.7329 0.45173 0.0
C595 C 0.69461 0.76324 0.4436 0.0
N596 N 0.70523 0.76547 0.41526 0.0
N597 N 0.70512 0.71597 0.42848 0.0
C598 C 0.71429 0.7369 0.40826 0.0
H599 H 0.68466 0.72333 0.47162 0.0
Co600 Co 0.69804 0.67307 0.42189 0.0
C601 C 0.6853 0.69121 0.354 0.0
O602 O 0.67911 0.72002 0.35864 0.0
N603 N 0.69372 0.6295 0.41498 0.0
C604 C 0.69905 0.58489 0.38989 0.0
C605 C 0.70549 0.61592 0.3902 0.0
C606 C 0.68272 0.60523 0.43076 0.0
N607 N 0.68432 0.57823 0.41519 0.0
O608 O 0.74229 0.66817 0.42734 0.0
H609 H 0.71804 0.62762 0.37292 0.0
H610 H 0.67322 0.60705 0.45303 0.0
O611 O 0.69587 0.6754 0.37563 0.0
C612 C 0.74792 0.65671 0.45325 0.0
O613 O 0.72502 0.64998 0.47066 0.0
N614 N 0.65413 0.67786 0.41987 0.0
C615 C 0.59397 0.67983 0.40076 0.0
C616 C 0.61311 0.70614 0.40055 0.0
C617 C 0.64298 0.70451 0.40962 0.0
C618 C 0.6334 0.65495 0.42715 0.0
C619 C 0.60349 0.65479 0.41671 0.0
H620 H 0.65672 0.72487 0.40638 0.0
H621 H 0.63927 0.63617 0.44028 0.0
H622 H 0.72451 0.73055 0.38719 0.0
H623 H 0.68536 0.78156 0.45694 0.0
H624 H 0.70331 0.56858 0.37165 0.0
H625 H 0.60585 0.72725 0.3912 0.0
H626 H 0.5888 0.63441 0.4194 0.0
C627 C 0.92744 0.44604 0.35678 0.0
C628 C 0.9575 0.44084 0.36048 0.0
N629 N 0.96449 0.44201 0.39026 0.0
N630 N 0.9151 0.45053 0.38411 0.0
C631 C 0.93875 0.44946 0.404 0.0
H632 H 0.91488 0.44314 0.33566 0.0
Co633 Co 0.87297 0.44529 0.39172 0.0
C634 C 0.87208 0.41176 0.45078 0.0
O635 O 0.84866 0.39383 0.4418 0.0
N636 N 0.83033 0.44096 0.40013 0.0
C637 C 0.78921 0.4364 0.42843 0.0
C638 C 0.81876 0.44777 0.4274 0.0
C639 C 0.80595 0.42843 0.38415 0.0
N640 N 0.78121 0.42338 0.40125 0.0
O641 O 0.86403 0.46188 0.35091 0.0
H642 H 0.8316 0.45855 0.44626 0.0
H643 H 0.80574 0.42401 0.36019 0.0
O644 O 0.88282 0.43265 0.43362 0.0
C645 C 0.85255 0.46032 0.324 0.0
O646 O 0.83814 0.43491 0.31388 0.0
N647 N 0.87408 0.4021 0.37836 0.0
C648 C 0.86357 0.33979 0.38927 0.0
C649 C 0.88979 0.35594 0.40023 0.0
C650 C 0.8954 0.38629 0.39301 0.0
C651 C 0.85256 0.38501 0.36176 0.0
C652 C 0.84684 0.3537 0.36689 0.0
H653 H 0.91449 0.39762 0.40435 0.0
H654 H 0.83853 0.39495 0.34565 0.0
H655 H 0.93618 0.4493 0.42824 0.0
H656 H 0.97243 0.43411 0.34266 0.0
H657 H 0.77531 0.43642 0.44825 0.0
H658 H 0.9049 0.3468 0.41655 0.0
H659 H 0.82896 0.3411 0.35412 0.0
C660 C 0.66118 0.57475 0.86582 0.0
C661 C 0.69143 0.58264 0.86882 0.0
N662 N 0.69553 0.61302 0.86475 0.0
N663 N 0.64621 0.60021 0.86031 0.0
C664 C 0.66795 0.62315 0.85926 0.0
H665 H 0.65063 0.55245 0.87036 0.0
Co666 Co 0.60468 0.60318 0.86325 0.0
C667 C 0.59692 0.66755 0.89303 0.0
O668 O 0.57171 0.6579 0.90536 0.0
N669 N 0.56204 0.60677 0.86531 0.0
C670 C 0.52104 0.63238 0.85595 0.0
C671 C 0.55041 0.62848 0.84825 0.0
C672 C 0.53822 0.59667 0.88223 0.0
N673 N 0.51323 0.61207 0.87696 0.0
O674 O 0.59942 0.55918 0.84636 0.0
H675 H 0.56343 0.64252 0.83293 0.0
H676 H 0.53852 0.5792 0.89874 0.0
O677 O 0.61135 0.64871 0.87645 0.0
C678 C 0.58761 0.53156 0.84218 0.0
O679 O 0.56311 0.52337 0.85674 0.0
N680 N 0.60783 0.59176 0.90475 0.0
C681 C 0.59865 0.59395 0.96637 0.0
C682 C 0.62282 0.61102 0.95445 0.0
C683 C 0.62677 0.60999 0.92337 0.0
C684 C 0.59024 0.56903 0.91726 0.0
C685 C 0.58377 0.57082 0.94816 0.0
H686 H 0.64319 0.62621 0.91435 0.0
H687 H 0.57804 0.55193 0.90314 0.0
H688 H 0.66356 0.64725 0.85769 0.0
H689 H 0.70878 0.56781 0.876 0.0
H690 H 0.50744 0.65047 0.84849 0.0
H691 H 0.63594 0.62787 0.96846 0.0
H692 H 0.56557 0.55635 0.95694 0.0
C693 C 0.90701 0.71132 0.97336 0.0
C694 C 0.90103 0.70528 1.00324 0.0
N695 N 0.9018 0.67473 1.00674 0.0
N696 N 0.91162 0.68469 0.95812 0.0
C697 C 0.90866 0.66289 0.97936 0.0
H698 H 0.90678 0.73351 0.96312 0.0
Co699 Co 0.91574 0.67918 0.91576 0.0
C700 C 0.90607 0.61161 0.90612 0.0
O701 O 0.88891 0.61729 0.88273 0.0
N702 N 0.92076 0.67229 0.87307 0.0
C703 C 0.9444 0.6546 0.83248 0.0
C704 C 0.94556 0.65856 0.86328 0.0
C705 C 0.90463 0.67617 0.84711 0.0
N706 N 0.9186 0.66549 0.82226 0.0
O707 O 0.95959 0.69014 0.9198 0.0
H708 H 0.96323 0.65086 0.87782 0.0
H709 H 0.88307 0.68626 0.8459 0.0
O710 O 0.91998 0.63403 0.92116 0.0
C711 C 0.96557 0.71691 0.90915 0.0
O712 O 0.94304 0.73204 0.89874 0.0
N713 N 0.87319 0.67381 0.91208 0.0
C714 C 0.81088 0.66724 0.90226 0.0
C715 C 0.82545 0.64826 0.92213 0.0
C716 C 0.85641 0.65249 0.92733 0.0
C717 C 0.85884 0.69559 0.89676 0.0
C718 C 0.82773 0.69233 0.8908 0.0
H719 H 0.86692 0.63799 0.94303 0.0
H720 H 0.87179 0.71508 0.88818 0.0
H721 H 0.91019 0.63847 0.97485 0.0
H722 H 0.89535 0.72183 0.02073 0.0
H723 H 0.96082 0.64352 0.81869 0.0
H724 H 0.81331 0.62948 0.93285 0.0
H725 H 0.81717 0.7091 0.87723 0.0
C726 C 0.0583 0.18827 0.62039 0.0
C727 C 0.04987 0.1794 0.59147 0.0
N728 N 0.04446 0.14859 0.59017 0.0
N729 N 0.0584 0.16308 0.63732 0.0
C730 C 0.04835 0.13961 0.61869 0.0
H731 H 0.06747 0.21089 0.62716 0.0
Co732 Co 0.07409 0.15815 0.67553 0.0
C733 C 0.11701 0.10682 0.66779 0.0
O734 O 0.13548 0.12117 0.68767 0.0
N735 N 0.08704 0.15119 0.71588 0.0
C736 C 0.09689 0.12167 0.75479 0.0
C737 C 0.08316 0.12264 0.72682 0.0
C738 C 0.10044 0.1678 0.7394 0.0
N739 N 0.10863 0.15006 0.76237 0.0
O740 O 0.05406 0.19672 0.688 0.0
H741 H 0.07198 0.1032 0.71458 0.0
H742 H 0.10394 0.19246 0.74028 0.0
O743 O 0.09157 0.11807 0.66145 0.0
C744 C 0.05812 0.2258 0.68428 0.0
O745 O 0.08472 0.23674 0.67596 0.0
N746 N 0.11296 0.17826 0.66394 0.0
C747 C 0.17461 0.17268 0.65541 0.0
C748 C 0.15425 0.16745 0.63116 0.0
C749 C 0.1235 0.16914 0.6362 0.0
C750 C 0.13345 0.19267 0.68388 0.0
C751 C 0.1644 0.18832 0.68113 0.0
H752 H 0.10886 0.15826 0.61892 0.0
H753 H 0.12633 0.20608 0.70276 0.0
H754 H 0.04634 0.116 0.62555 0.0
H755 H 0.05168 0.19401 0.57218 0.0
H756 H 0.09839 0.10149 0.76821 0.0
H757 H 0.16111 0.15733 0.60991 0.0
H758 H 0.17978 0.19538 0.69964 0.0
C759 C 0.57327 0.38094 0.33818 0.0
C760 C 0.57546 0.38283 0.30745 0.0
N761 N 0.59522 0.36254 0.29732 0.0
N762 N 0.59202 0.36006 0.34805 0.0
C763 C 0.60362 0.34788 0.32251 0.0
H764 H 0.56041 0.39553 0.35273 0.0
Co765 Co 0.60032 0.35557 0.38942 0.0
C766 C 0.66835 0.35543 0.36764 0.0
O767 O 0.66417 0.35677 0.33857 0.0
N768 N 0.60832 0.35028 0.43052 0.0
C769 C 0.63304 0.33699 0.47167 0.0
C770 C 0.63066 0.33335 0.44094 0.0
C771 C 0.59605 0.36205 0.45574 0.0
N772 N 0.61154 0.3555 0.48087 0.0
O773 O 0.5893 0.31115 0.38545 0.0
H774 H 0.64524 0.31997 0.42706 0.0
H775 H 0.57627 0.37522 0.4561 0.0
O776 O 0.64536 0.35358 0.38475 0.0
C777 C 0.56313 0.30656 0.39711 0.0
O778 O 0.54957 0.33053 0.40788 0.0
N779 N 0.60773 0.39905 0.3941 0.0
C780 C 0.62466 0.46008 0.4084 0.0
C781 C 0.63918 0.44427 0.38552 0.0
C782 C 0.62965 0.41407 0.37802 0.0
C783 C 0.59019 0.41586 0.41266 0.0
C784 C 0.59879 0.44644 0.42091 0.0
H785 H 0.63976 0.40312 0.35899 0.0
H786 H 0.56932 0.40579 0.42084 0.0
H787 H 0.61834 0.32899 0.32265 0.0
H788 H 0.56514 0.39991 0.29408 0.0
H789 H 0.65056 0.32843 0.48592 0.0
H790 H 0.6575 0.45532 0.3733 0.0
H791 H 0.58532 0.4593 0.43648 0.0
C792 C 0.40114 0.81107 0.09352 0.0
C793 C 0.39574 0.81246 0.0629 0.0
N794 N 0.40539 0.84054 0.05376 0.0
N795 N 0.41413 0.83811 0.10388 0.0
C796 C 0.41726 0.85519 0.07905 0.0
H797 H 0.39405 0.79237 0.10773 0.0
Co798 Co 0.41768 0.84988 0.14482 0.0
C799 C 0.41569 0.91917 0.14723 0.0
O800 O 0.40131 0.91569 0.17267 0.0
N801 N 0.42177 0.8612 0.18675 0.0
C802 C 0.44126 0.88534 0.22848 0.0
C803 C 0.44558 0.87878 0.1983 0.0
C804 C 0.40403 0.85629 0.21104 0.0
N805 N 0.4152 0.87101 0.23627 0.0
O806 O 0.46023 0.83871 0.14546 0.0
H807 H 0.46418 0.88772 0.18514 0.0
H808 H 0.38313 0.8427 0.21106 0.0
O809 O 0.42619 0.8952 0.13385 0.0
C810 C 0.4607 0.81129 0.15546 0.0
O811 O 0.43464 0.79769 0.16222 0.0
N812 N 0.37599 0.85608 0.14444 0.0
C813 C 0.3172 0.87056 0.15391 0.0
C814 C 0.33417 0.88574 0.13213 0.0
C815 C 0.3633 0.87731 0.12701 0.0
C816 C 0.35772 0.83691 0.16068 0.0
C817 C 0.32843 0.84478 0.16727 0.0
H818 H 0.37594 0.88879 0.10996 0.0
H819 H 0.36663 0.81672 0.17033 0.0
H820 H 0.42619 0.87862 0.07995 0.0
H821 H 0.38405 0.79466 0.04881 0.0
H822 H 0.45534 0.90062 0.2431 0.0
H823 H 0.32554 0.90482 0.12015 0.0
H824 H 0.31506 0.83143 0.18292 0.0
C825 C 0.92911 0.32867 0.59106 0.0
C826 C 0.92454 0.33351 0.56067 0.0
N827 N 0.92754 0.36396 0.55633 0.0
N828 N 0.93475 0.35607 0.60586 0.0
C829 C 0.93462 0.37695 0.58377 0.0
H830 H 0.92527 0.30698 0.60187 0.0
Co831 Co 0.93275 0.36616 0.64767 0.0
C832 C 0.89525 0.42057 0.65022 0.0
O833 O 0.88116 0.40899 0.67345 0.0
N834 N 0.93293 0.37877 0.6894 0.0
C835 C 0.93886 0.41428 0.7272 0.0
C836 C 0.94602 0.40665 0.69781 0.0
C837 C 0.91985 0.36915 0.71513 0.0
N838 N 0.92175 0.3908 0.73774 0.0
O839 O 0.95287 0.32763 0.65795 0.0
H840 H 0.95823 0.42159 0.68265 0.0
H841 H 0.90885 0.34702 0.71808 0.0
O842 O 0.91629 0.40592 0.63799 0.0
C843 C 0.9512 0.29837 0.66123 0.0
O844 O 0.92523 0.28291 0.65647 0.0
N845 N 0.89099 0.34807 0.64762 0.0
C846 C 0.82881 0.35047 0.65717 0.0
C847 C 0.84118 0.35864 0.62947 0.0
C848 C 0.87216 0.35773 0.6254 0.0
C849 C 0.87792 0.33122 0.66985 0.0
C850 C 0.84707 0.33344 0.67609 0.0
H851 H 0.88092 0.36874 0.6059 0.0
H852 H 0.89136 0.3177 0.68414 0.0
H853 H 0.93658 0.40159 0.58796 0.0
H854 H 0.91656 0.31633 0.54371 0.0
H855 H 0.94419 0.43606 0.73915 0.0
H856 H 0.82784 0.3688 0.61214 0.0
H857 H 0.83871 0.32355 0.69651 0.0
C858 C 0.39556 0.20848 0.47035 0.0
C859 C 0.3876 0.20279 0.49967 0.0
N860 N 0.39663 0.17484 0.50677 0.0
N861 N 0.40931 0.18414 0.45858 0.0
C862 C 0.41025 0.16424 0.48162 0.0
H863 H 0.38956 0.22808 0.45759 0.0
Co864 Co 0.41522 0.17849 0.41655 0.0
C865 C 0.41163 0.11175 0.40394 0.0
O866 O 0.39554 0.11824 0.38003 0.0
N867 N 0.42213 0.1727 0.374 0.0
C868 C 0.44694 0.15506 0.33424 0.0
C869 C 0.44751 0.15958 0.36494 0.0
C870 C 0.40682 0.17666 0.34761 0.0
N871 N 0.4212 0.1655 0.32317 0.0
O872 O 0.45841 0.19252 0.42159 0.0
H873 H 0.46489 0.15216 0.38001 0.0
H874 H 0.38556 0.18716 0.34594 0.0
O875 O 0.42257 0.13373 0.42183 0.0
C876 C 0.46409 0.21847 0.40919 0.0
O877 O 0.44137 0.23238 0.39741 0.0
N878 N 0.37295 0.16855 0.41186 0.0
C879 C 0.31175 0.15348 0.40187 0.0
C880 C 0.32846 0.13708 0.42219 0.0
C881 C 0.35886 0.14532 0.42727 0.0
C882 C 0.35594 0.18735 0.39535 0.0
C883 C 0.3254 0.1795 0.38892 0.0
H884 H 0.37107 0.13248 0.44325 0.0
H885 H 0.36622 0.20826 0.38667 0.0
H886 H 0.41837 0.14139 0.47928 0.0
H887 H 0.37457 0.21735 0.51413 0.0
H888 H 0.46363 0.14351 0.32122 0.0
H889 H 0.31823 0.11761 0.43363 0.0
H890 H 0.3126 0.19362 0.37429 0.0
C891 C 0.57192 0.69605 0.1065 0.0
C892 C 0.56961 0.68793 0.07645 0.0
N893 N 0.56239 0.65746 0.07357 0.0
N894 N 0.56688 0.67073 0.12283 0.0
C895 C 0.55997 0.64782 0.10209 0.0
H896 H 0.58108 0.71801 0.11515 0.0
Co897 Co 0.57752 0.66518 0.16315 0.0
C898 C 0.61402 0.60804 0.15995 0.0
O899 O 0.63189 0.61886 0.18221 0.0
N900 N 0.58624 0.65776 0.20515 0.0
C901 C 0.59331 0.62696 0.24379 0.0
C902 C 0.57957 0.62956 0.21598 0.0
C903 C 0.60105 0.67287 0.22894 0.0
N904 N 0.60745 0.65421 0.25177 0.0
O905 O 0.56014 0.70574 0.17344 0.0
H906 H 0.56748 0.61098 0.20327 0.0
H907 H 0.60669 0.69719 0.2304 0.0
O908 O 0.59195 0.6235 0.15118 0.0
C909 C 0.56587 0.73482 0.17075 0.0
O910 O 0.59312 0.74484 0.16354 0.0
N911 N 0.61829 0.68196 0.1557 0.0
C912 C 0.67835 0.6686 0.15909 0.0
C913 C 0.66228 0.66392 0.13171 0.0
C914 C 0.63193 0.66989 0.13076 0.0
C915 C 0.63658 0.69663 0.17735 0.0
C916 C 0.66636 0.68818 0.18108 0.0
H917 H 0.61915 0.6597 0.11177 0.0
H918 H 0.62788 0.71289 0.19311 0.0
H919 H 0.55628 0.62394 0.10771 0.0
H920 H 0.57679 0.70274 0.05849 0.0
H921 H 0.59438 0.60594 0.25604 0.0
H922 H 0.6715 0.6513 0.11283 0.0
H923 H 0.67842 0.69501 0.20182 0.0
C924 C 0.07066 0.87478 0.83382 0.0
C925 C 0.07433 0.87474 0.80302 0.0
N926 N 0.09802 0.85788 0.79586 0.0
N927 N 0.09253 0.85883 0.84622 0.0
C928 C 0.10729 0.84699 0.8225 0.0
H929 H 0.0549 0.88784 0.84659 0.0
Co930 Co 0.10146 0.85621 0.88729 0.0
C931 C 0.16591 0.86484 0.86505 0.0
O932 O 0.15851 0.88151 0.84241 0.0
N933 N 0.10993 0.85098 0.92814 0.0
C934 C 0.1332 0.84672 0.97235 0.0
C935 C 0.13699 0.84786 0.94189 0.0
C936 C 0.08995 0.85066 0.95079 0.0
N937 N 0.10376 0.84882 0.97783 0.0
O938 O 0.08811 0.81198 0.88496 0.0
H939 H 0.15864 0.84825 0.93123 0.0
H940 H 0.0665 0.85557 0.94784 0.0
O941 O 0.14539 0.85035 0.88008 0.0
C942 C 0.05993 0.80988 0.89138 0.0
O943 O 0.04588 0.83559 0.89392 0.0
N944 N 0.1114 0.90114 0.89154 0.0
C945 C 0.1363 0.96139 0.90411 0.0
C946 C 0.13224 0.94985 0.87421 0.0
C947 C 0.11944 0.92001 0.86844 0.0
C948 C 0.11057 0.91465 0.91983 0.0
C949 C 0.12448 0.94338 0.92696 0.0
H950 H 0.11702 0.9124 0.84514 0.0
H951 H 0.09943 0.90364 0.9377 0.0
H952 H 0.12551 0.83182 0.82508 0.0
H953 H 0.06217 0.88854 0.78756 0.0
H954 H 0.15101 0.84728 0.98942 0.0
H955 H 0.13918 0.96354 0.8553 0.0
H956 H 0.12633 0.95071 0.95049 0.0
C957 C 0.98239 0.93362 0.67679 0.0
C958 C 1.01305 0.93206 0.67445 0.0
N959 N 0.02189 0.94643 0.64932 0.0
N960 N 0.97181 0.94846 0.65296 0.0
C961 C 0.99664 0.95805 0.6381 0.0
H962 H 0.96835 0.92174 0.6929 0.0
Co963 Co 0.93116 0.94704 0.64164 0.0
C964 C 0.95686 0.93804 0.57245 0.0
O965 O 0.98617 0.94031 0.57668 0.0
N966 N 0.88979 0.94604 0.63106 0.0
C967 C 0.84794 0.94854 0.60314 0.0
C968 C 0.87856 0.95443 0.60418 0.0
C969 C 0.86508 0.93648 0.64648 0.0
N970 N 0.83955 0.93697 0.62965 0.0
O971 O 0.93184 0.99265 0.6454 0.0
H972 H 0.89168 0.96388 0.58603 0.0
H973 H 0.86535 0.92963 0.66965 0.0
O974 O 0.93929 0.94154 0.59535 0.0
C975 C 0.92205 0.99961 0.67196 0.0
O976 O 0.91296 0.97688 0.68897 0.0
N977 N 0.93003 0.90364 0.64294 0.0
C978 C 0.9219 0.84022 0.64135 0.0
C979 C 0.94385 0.8545 0.62364 0.0
C980 C 0.94798 0.88636 0.62521 0.0
C981 C 0.91235 0.88955 0.6639 0.0
C982 C 0.90689 0.85765 0.6627 0.0
H983 H 0.9655 0.89692 0.612 0.0
H984 H 0.90224 0.90297 0.68144 0.0
H985 H 0.99615 0.97189 0.61841 0.0
H986 H 0.02706 0.91786 0.68781 0.0
H987 H 0.83307 0.95144 0.58392 0.0
H988 H 0.95671 0.84126 0.60778 0.0
H989 H 0.89063 0.8469 0.67756 0.0
C990 C 0.79272 0.06653 0.40442 0.0
C991 C 0.79923 0.03624 0.39961 0.0
N992 N 0.82632 0.03213 0.4125 0.0
N993 N 0.81597 0.08137 0.41972 0.0
C994 C 0.83535 0.05947 0.42552 0.0
H995 H 0.77474 0.07791 0.39336 0.0
Co996 Co 0.82609 0.12285 0.41646 0.0
C997 C 0.89458 0.12984 0.43235 0.0
O998 O 0.89168 0.15504 0.44898 0.0
N999 N 0.83695 0.16434 0.41196 0.0
C1000 C 0.86065 0.20365 0.39031 0.0
C1001 C 0.85878 0.1728 0.39242 0.0
C1002 C 0.82645 0.1912 0.42239 0.0
N1003 N 0.84088 0.21534 0.40945 0.0
O1004 O 0.81776 0.12964 0.46084 0.0
H1005 H 0.87279 0.15747 0.38009 0.0
H1006 H 0.80928 0.19309 0.43928 0.0
O1007 O 0.87067 0.1154 0.42131 0.0
C1008 C 0.78905 0.13251 0.4624 0.0
O1009 O 0.77407 0.13138 0.43646 0.0
N1010 N 0.82947 0.11665 0.37381 0.0
C1011 C 0.85007 0.12949 0.31641 0.0
C1012 C 0.86283 0.10657 0.33332 0.0
C1013 C 0.85156 0.09994 0.36172 0.0
C1014 C 0.81299 0.13439 0.35559 0.0
C1015 C 0.82314 0.14141 0.32668 0.0
H1016 H 0.86245 0.0836 0.37518 0.0
H1017 H 0.7944 0.14641 0.3649 0.0
H1018 H 0.85796 0.06423 0.43454 0.0
H1019 H 0.78721 0.01988 0.38418 0.0
H1020 H 0.87646 0.21684 0.37678 0.0
H1021 H 0.88298 0.09576 0.32609 0.0
H1022 H 0.81136 0.15774 0.31361 0.0
C1023 C 0.59774 0.11594 0.1797 0.0
C1024 C 0.56739 0.11649 0.17298 0.0
N1025 N 0.56143 0.09984 0.14714 0.0
N1026 N 0.61098 0.09955 0.15782 0.0
C1027 C 0.5881 0.08933 0.13873 0.0
H1028 H 0.60983 0.12913 0.19765 0.0
Co1029 Co 0.65231 0.10077 0.15064 0.0
C1030 C 0.65603 0.10797 0.08354 0.0
O1031 O 0.68108 0.12478 0.08917 0.0
N1032 N 0.69471 0.10124 0.14259 0.0
C1033 C 0.73729 0.0844 0.12366 0.0
C1034 C 0.70709 0.07753 0.12784 0.0
C1035 C 0.7184 0.12217 0.14729 0.0
N1036 N 0.74437 0.1128 0.13561 0.0
O1037 O 0.65286 0.05611 0.16018 0.0
H1038 H 0.69475 0.05658 0.12001 0.0
H1039 H 0.71729 0.14432 0.15836 0.0
O1040 O 0.64281 0.0943 0.10552 0.0
C1041 C 0.66596 0.053 0.18608 0.0
O1042 O 0.67747 0.07806 0.20025 0.0
N1043 N 0.65153 0.14411 0.14659 0.0
C1044 C 0.65788 0.20677 0.13783 0.0
C1045 C 0.63704 0.18841 0.12039 0.0
C1046 C 0.63363 0.15715 0.12581 0.0
C1047 C 0.66698 0.16277 0.16759 0.0
C1048 C 0.67193 0.19425 0.16273 0.0
H1049 H 0.61708 0.14338 0.11296 0.0
H1050 H 0.67745 0.15283 0.18694 0.0
H1051 H 0.59118 0.07685 0.1176 0.0
H1052 H 0.55135 0.13009 0.18484 0.0
H1053 H 0.75272 0.06924 0.11301 0.0
H1054 H 0.6244 0.19788 0.10208 0.0
H1055 H 0.68705 0.20833 0.17761 0.0
C1056 C 0.67834 0.94199 0.92537 0.0
C1057 C 0.67647 0.97206 0.91695 0.0
N1058 N 0.64845 0.98111 0.92239 0.0
N1059 N 0.65162 0.93158 0.93604 0.0
C1060 C 0.63417 0.9563 0.9347 0.0
H1061 H 0.69723 0.92778 0.92157 0.0
Co1062 Co 0.64101 0.88891 0.94015 0.0
C1063 C 0.57272 0.88551 0.94293 0.0
O1064 O 0.57238 0.85739 0.93121 0.0
N1065 N 0.63061 0.84532 0.94384 0.0
C1066 C 0.61353 0.80222 0.96533 0.0
C1067 C 0.61866 0.83359 0.96911 0.0
C1068 C 0.63273 0.81993 0.92503 0.0
N1069 N 0.6226 0.79338 0.93765 0.0
O1070 O 0.65543 0.89137 0.98318 0.0
H1071 H 0.61325 0.84719 0.98896 0.0
H1072 H 0.64175 0.82034 0.9026 0.0
O1073 O 0.5983 0.89976 0.94969 0.0
C1074 C 0.68134 0.87961 0.98528 0.0
O1075 O 0.69322 0.86955 0.96009 0.0
N1076 N 0.63178 0.88624 0.89869 0.0
C1077 C 0.62297 0.87893 0.8365 0.0
C1078 C 0.60251 0.89449 0.85417 0.0
C1079 C 0.60802 0.89896 0.88494 0.0
C1080 C 0.65328 0.87335 0.8816 0.0
C1081 C 0.64918 0.86904 0.85039 0.0
H1082 H 0.59359 0.91344 0.89718 0.0
H1083 H 0.6735 0.86587 0.89244 0.0
H1084 H 0.61095 0.95565 0.94081 0.0
H1085 H 0.69388 0.9856 0.90578 0.0
H1086 H 0.60316 0.78717 0.98162 0.0
H1087 H 0.58263 0.90378 0.84425 0.0
H1088 H 0.6666 0.85871 0.83732 0.0
C1089 C 0.85221 0.09128 0.8195 0.0
C1090 C 0.82177 0.09233 0.82419 0.0
N1091 N 0.81382 0.12121 0.81966 0.0
N1092 N 0.86332 0.11953 0.81261 0.0
C1093 C 0.83924 0.13714 0.81216 0.0
H1094 H 0.86588 0.07202 0.82375 0.0
Co1095 Co 0.90403 0.13057 0.81366 0.0
C1096 C 0.91028 0.19864 0.82775 0.0
O1097 O 0.93438 0.19163 0.84305 0.0
N1098 N 0.94608 0.14109 0.81365 0.0
C1099 C 0.9879 0.16804 0.80103 0.0
C1100 C 0.95854 0.15963 0.79274 0.0
C1101 C 0.96916 0.13701 0.83332 0.0
N1102 N 0.99432 0.15375 0.82654 0.0
O1103 O 0.90568 0.12108 0.76928 0.0
H1104 H 0.94624 0.16865 0.77402 0.0
H1105 H 0.96776 0.1239 0.85341 0.0
O1106 O 0.89564 0.17706 0.81152 0.0
C1107 C 0.91591 0.0941 0.76539 0.0
O1108 O 0.92305 0.07936 0.7897 0.0
N1109 N 0.90188 0.13506 0.8566 0.0
C1110 C 0.90847 0.15012 0.91783 0.0
C1111 C 0.88813 0.16513 0.89984 0.0
C1112 C 0.88382 0.1558 0.86984 0.0
C1113 C 0.91665 0.11597 0.87475 0.0
C1114 C 0.92096 0.12353 0.90558 0.0
H1115 H 0.86742 0.16706 0.85691 0.0
H1116 H 0.92659 0.09587 0.86502 0.0
H1117 H 0.84069 0.16184 0.80996 0.0
H1118 H 0.80722 0.0742 0.83319 0.0
H1119 H 1.00282 0.18461 0.79017 0.0
H1120 H 0.87625 0.18459 0.9083 0.0
H1121 H 0.93419 0.10903 0.91938 0.0
C1122 C 0.64624 0.20475 0.57833 0.0
C1123 C 0.64617 0.23499 0.58826 0.0
N1124 N 0.6659 0.23954 0.61166 0.0
N1125 N 0.6654 0.18984 0.59583 0.0
C1126 C 0.67923 0.2124 0.61378 0.0
H1127 H 0.63014 0.1935 0.56239 0.0
Co1128 Co 0.66008 0.1469 0.60206 0.0
C1129 C 0.66176 0.17179 0.6713 0.0
O1130 O 0.65597 0.20026 0.66603 0.0
N1131 N 0.65349 0.10359 0.60942 0.0
C1132 C 0.62771 0.06625 0.63271 0.0
C1133 C 0.63426 0.09683 0.6319 0.0
C1134 C 0.65871 0.07527 0.59698 0.0
N1135 N 0.64354 0.05202 0.61145 0.0
O1136 O 0.70373 0.14226 0.59214 0.0
H1137 H 0.62285 0.11342 0.64535 0.0
H1138 H 0.67234 0.07184 0.57726 0.0
O1139 O 0.66526 0.15232 0.64898 0.0
C1140 C 0.70205 0.13863 0.56301 0.0
O1141 O 0.67468 0.13569 0.55106 0.0
N1142 N 0.61781 0.15052 0.60427 0.0
C1143 C 0.55672 0.13708 0.61145 0.0
C1144 C 0.57202 0.16027 0.62943 0.0
C1145 C 0.6025 0.16724 0.62486 0.0
C1146 C 0.60223 0.13173 0.58342 0.0
C1147 C 0.57163 0.12417 0.58692 0.0
H1148 H 0.6136 0.18486 0.63883 0.0
H1149 H 0.61427 0.11999 0.56586 0.0
H1150 H 0.69562 0.20796 0.63124 0.0
H1151 H 0.6301 0.25133 0.5813 0.0
H1152 H 0.61053 0.05572 0.64664 0.0
H1153 H 0.56137 0.17135 0.64838 0.0
H1154 H 0.56034 0.10686 0.57192 0.0
C1155 C 0.73758 0.96119 0.35963 0.0
C1156 C 0.76703 0.95295 0.36085 0.0
N1157 N 0.77156 0.9319 0.33841 0.0
N1158 N 0.72283 0.94497 0.337 0.0
C1159 C 0.74479 0.93036 0.32257 0.0
H1160 H 0.72686 0.97509 0.37657 0.0
Co1161 Co 0.68029 0.936 0.33382 0.0
C1162 C 0.70268 0.86786 0.33775 0.0
O1163 O 0.73127 0.8757 0.34072 0.0
N1164 N 0.63791 0.92661 0.32977 0.0
C1165 C 0.59645 0.89906 0.31382 0.0
C1166 C 0.62697 0.9038 0.31045 0.0
C1167 C 0.61292 0.93619 0.34372 0.0
N1168 N 0.58768 0.9194 0.33491 0.0
O1169 O 0.68185 0.94126 0.28893 0.0
H1170 H 0.64059 0.89049 0.29545 0.0
H1171 H 0.61248 0.95496 0.36006 0.0
O1172 O 0.68366 0.88876 0.33359 0.0
C1173 C 0.66828 0.96495 0.27999 0.0
O1174 O 0.65435 0.98136 0.30026 0.0
N1175 N 0.67844 0.93461 0.37694 0.0
C1176 C 0.66424 0.92101 0.43601 0.0
C1177 C 0.68803 0.90712 0.42161 0.0
C1178 C 0.6952 0.91487 0.39246 0.0
C1179 C 0.66069 0.95359 0.393 0.0
C1180 C 0.65197 0.94629 0.42235 0.0
H1181 H 0.71394 0.90441 0.38246 0.0
H1182 H 0.65223 0.97356 0.38263 0.0
H1183 H 0.73946 0.91568 0.30295 0.0
H1184 H 0.7826 0.95963 0.37922 0.0
H1185 H 0.58217 0.88094 0.30279 0.0
H1186 H 0.69973 0.8887 0.43164 0.0
H1187 H 0.63545 0.95965 0.43374 0.0
C1188 C 0.8423 0.81519 0.07724 0.0
C1189 C 0.84584 0.78453 0.08219 0.0
N1190 N 0.83009 0.7768 0.10677 0.0
N1191 N 0.82518 0.82664 0.09929 0.0
C1192 C 0.81705 0.80243 0.11604 0.0
H1193 H 0.85478 0.82906 0.06138 0.0
Co1194 Co 0.82478 0.86733 0.11195 0.0
C1195 C 0.82132 0.84751 0.18379 0.0
O1196 O 0.79452 0.84134 0.19486 0.0
N1197 N 0.82392 0.90845 0.12498 0.0
C1198 C 0.82089 0.95024 0.1547 0.0
C1199 C 0.81385 0.91921 0.15172 0.0
C1200 C 0.83532 0.93374 0.11145 0.0
N1201 N 0.83465 0.95914 0.1294 0.0
O1202 O 0.78056 0.86601 0.10381 0.0
H1203 H 0.80305 0.90544 0.16869 0.0
H1204 H 0.84448 0.93389 0.08907 0.0
O1205 O 0.8227 0.85521 0.15588 0.0
C1206 C 0.77396 0.87941 0.0792 0.0
O1207 O 0.79606 0.89323 0.06465 0.0
N1208 N 0.86726 0.8688 0.11592 0.0
C1209 C 0.9281 0.87866 0.12843 0.0
C1210 C 0.9118 0.8546 0.14175 0.0
C1211 C 0.8813 0.84974 0.1348 0.0
C1212 C 0.88429 0.88799 0.09841 0.0
C1213 C 0.91481 0.8945 0.10529 0.0
H1214 H 0.86888 0.83134 0.14555 0.0
H1215 H 0.87423 0.89874 0.07948 0.0
H1216 H 0.80535 0.80425 0.13717 0.0
H1217 H 0.86176 0.77019 0.07106 0.0
H1218 H 0.81796 0.96471 0.17468 0.0
H1219 H 0.9221 0.84093 0.15871 0.0
H1220 H 0.92753 0.9121 0.09338 0.0
C1221 C 0.14723 0.71269 0.08149 0.0
C1222 C 0.14422 0.74232 0.0929 0.0
N1223 N 0.15414 0.74429 0.12192 0.0
N1224 N 0.15909 0.69549 0.10298 0.0
C1225 C 0.1636 0.71569 0.12722 0.0
H1226 H 0.13949 0.70376 0.05945 0.0
Co1227 Co 0.15916 0.65103 0.10111 0.0
C1228 C 0.14505 0.63548 0.16519 0.0
O1229 O 0.12688 0.61313 0.15368 0.0
N1230 N 0.15982 0.60604 0.10107 0.0
C1231 C 0.17988 0.56152 0.11226 0.0
C1232 C 0.18414 0.59305 0.11303 0.0
C1233 C 0.14064 0.58103 0.09378 0.0
N1234 N 0.15251 0.55394 0.10015 0.0
O1235 O 0.20326 0.65277 0.0925 0.0
H1236 H 0.20365 0.60579 0.12295 0.0
H1237 H 0.11804 0.58186 0.08485 0.0
O1238 O 0.16163 0.65183 0.14734 0.0
C1239 C 0.20126 0.64878 0.06344 0.0
O1240 O 0.17399 0.64889 0.0514 0.0
N1241 N 0.11723 0.64942 0.10141 0.0
C1242 C 0.05609 0.63618 0.10445 0.0
C1243 C 0.07058 0.65792 0.12475 0.0
C1244 C 0.10124 0.66503 0.122 0.0
C1245 C 0.10243 0.63496 0.07725 0.0
C1246 C 0.07163 0.62706 0.07869 0.0
H1247 H 0.11266 0.6818 0.13701 0.0
H1248 H 0.11502 0.62691 0.05814 0.0
H1249 H 0.17161 0.70907 0.14915 0.0
H1250 H 0.1348 0.76084 0.08077 0.0
H1251 H 0.19518 0.5454 0.12118 0.0
H1252 H 0.05909 0.66766 0.14382 0.0
H1253 H 0.06072 0.61263 0.06087 0.0
C1254 C 0.23882 0.46426 0.84309 0.0
C1255 C 0.26718 0.45558 0.85105 0.0
N1256 N 0.27067 0.42721 0.83906 0.0
N1257 N 0.22428 0.44109 0.82676 0.0
C1258 C 0.24483 0.41942 0.82353 0.0
H1259 H 0.22811 0.48423 0.85209 0.0
Co1260 Co 0.18228 0.43472 0.8246 0.0
C1261 C 0.17048 0.36899 0.84006 0.0
O1262 O 0.14685 0.3793 0.85371 0.0
N1263 N 0.13914 0.42777 0.82149 0.0
C1264 C 0.0961 0.40291 0.80567 0.0
C1265 C 0.12639 0.40758 0.80047 0.0
C1266 C 0.11528 0.43642 0.83799 0.0
N1267 N 0.08925 0.42069 0.8297 0.0
O1268 O 0.18284 0.44062 0.77985 0.0
H1269 H 0.13883 0.39527 0.78362 0.0
H1270 H 0.11621 0.45374 0.85581 0.0
O1271 O 0.18639 0.38775 0.82375 0.0
C1272 C 0.17083 0.46576 0.77244 0.0
O1273 O 0.15914 0.48253 0.79398 0.0
N1274 N 0.18264 0.43336 0.86763 0.0
C1275 C 0.16878 0.41908 0.92608 0.0
C1276 C 0.19329 0.40603 0.91212 0.0
C1277 C 0.20003 0.41371 0.88278 0.0
C1278 C 0.166 0.45286 0.8841 0.0
C1279 C 0.15677 0.44483 0.91292 0.0
H1280 H 0.21704 0.40123 0.87149 0.0
H1281 H 0.15766 0.47299 0.87388 0.0
H1282 H 0.23966 0.3966 0.81378 0.0
H1283 H 0.28289 0.46786 0.86675 0.0
H1284 H 0.08071 0.38632 0.79381 0.0
H1285 H 0.20529 0.388 0.92254 0.0
H1286 H 0.13903 0.45725 0.92326 0.0
C1287 C 0.3324 0.31781 0.58466 0.0
C1288 C 0.33464 0.28668 0.58785 0.0
N1289 N 0.32003 0.27841 0.61301 0.0
N1290 N 0.31692 0.32903 0.60804 0.0
C1291 C 0.30855 0.30428 0.62407 0.0
H1292 H 0.3444 0.3319 0.56863 0.0
Co1293 Co 0.31732 0.37008 0.62023 0.0
C1294 C 0.3096 0.35209 0.69115 0.0
O1295 O 0.28474 0.34492 0.70555 0.0
N1296 N 0.31703 0.4115 0.63214 0.0
C1297 C 0.31543 0.45484 0.65974 0.0
C1298 C 0.30783 0.42391 0.65855 0.0
C1299 C 0.32822 0.43575 0.6169 0.0
N1300 N 0.3285 0.46218 0.63357 0.0
O1301 O 0.27431 0.3713 0.60582 0.0
H1302 H 0.29745 0.41145 0.67664 0.0
H1303 H 0.33691 0.43407 0.59428 0.0
O1304 O 0.30687 0.35873 0.66292 0.0
C1305 C 0.27369 0.37978 0.57824 0.0
O1306 O 0.29991 0.38578 0.56576 0.0
N1307 N 0.35932 0.36943 0.6305 0.0
C1308 C 0.41934 0.3735 0.6516 0.0
C1309 C 0.3989 0.35013 0.6608 0.0
C1310 C 0.36958 0.34775 0.64896 0.0
C1311 C 0.37983 0.38969 0.61815 0.0
C1312 C 0.40975 0.3926 0.62882 0.0
H1313 H 0.35469 0.32921 0.65606 0.0
H1314 H 0.37339 0.40362 0.5998 0.0
H1315 H 0.29827 0.30565 0.64598 0.0
H1316 H 0.3493 0.27219 0.57516 0.0
H1317 H 0.31339 0.47023 0.67922 0.0
H1318 H 0.40457 0.33467 0.67834 0.0
H1319 H 0.42516 0.40961 0.61923 0.0
C1320 C 0.09258 0.60709 0.68122 0.0
C1321 C 0.06179 0.6068 0.67543 0.0
N1322 N 0.05589 0.5948 0.64737 0.0
N1323 N 0.10656 0.59606 0.65665 0.0
C1324 C 0.08324 0.58746 0.63704 0.0
H1325 H 0.10427 0.61807 0.70069 0.0
Co1326 Co 0.14901 0.6032 0.64806 0.0
C1327 C 0.12324 0.61133 0.58409 0.0
O1328 O 0.10456 0.63074 0.59435 0.0
N1329 N 0.19106 0.61107 0.63621 0.0
C1330 C 0.22303 0.63917 0.60847 0.0
C1331 C 0.19408 0.62919 0.61209 0.0
C1332 C 0.22024 0.61022 0.64666 0.0
N1333 N 0.24031 0.62728 0.62979 0.0
O1334 O 0.15478 0.55862 0.65322 0.0
H1335 H 0.17583 0.63958 0.60076 0.0
H1336 H 0.22624 0.59955 0.66747 0.0
O1337 O 0.14021 0.5975 0.60246 0.0
C1338 C 0.16611 0.55452 0.67975 0.0
O1339 O 0.17399 0.57909 0.69669 0.0
N1340 N 0.145 0.64751 0.65021 0.0
C1341 C 0.15247 0.70985 0.64112 0.0
C1342 C 0.12415 0.6947 0.63638 0.0
C1343 C 0.12046 0.66365 0.64323 0.0
C1344 C 0.16948 0.66406 0.66288 0.0
C1345 C 0.17452 0.69519 0.65711 0.0
H1346 H 0.09831 0.65263 0.64136 0.0
H1347 H 0.18676 0.65267 0.67493 0.0
H1348 H 0.08611 0.57794 0.61453 0.0
H1349 H 0.04542 0.61746 0.68962 0.0
H1350 H 0.22946 0.65745 0.59363 0.0
H1351 H 0.10559 0.7063 0.62651 0.0
H1352 H 0.19604 0.70693 0.66316 0.0
C1353 C 0.47688 0.43338 0.17493 0.0
C1354 C 0.5076 0.43126 0.17421 0.0
N1355 N 0.51819 0.44493 0.14927 0.0
N1356 N 0.46775 0.44818 0.15051 0.0
C1357 C 0.49365 0.45716 0.13682 0.0
H1358 H 0.46181 0.42226 0.19066 0.0
Co1359 Co 0.42689 0.44757 0.13821 0.0
C1360 C 0.45529 0.43772 0.0721 0.0
O1361 O 0.48348 0.43373 0.07938 0.0
N1362 N 0.38536 0.44775 0.12649 0.0
C1363 C 0.34357 0.44616 0.09768 0.0
C1364 C 0.37427 0.4515 0.09822 0.0
C1365 C 0.36033 0.44194 0.14299 0.0
N1366 N 0.33495 0.43992 0.12576 0.0
O1367 O 0.42762 0.49303 0.14411 0.0
H1368 H 0.38734 0.45677 0.07857 0.0
H1369 H 0.36058 0.43809 0.167 0.0
O1370 O 0.4362 0.44459 0.0927 0.0
C1371 C 0.41771 0.49794 0.171 0.0
O1372 O 0.4109 0.47377 0.18706 0.0
N1373 N 0.4249 0.40372 0.13672 0.0
C1374 C 0.41192 0.34192 0.12172 0.0
C1375 C 0.43969 0.35628 0.11417 0.0
C1376 C 0.44568 0.38727 0.12185 0.0
C1377 C 0.40168 0.38813 0.15033 0.0
C1378 C 0.39381 0.35757 0.14198 0.0
H1379 H 0.46688 0.39792 0.11555 0.0
H1380 H 0.38859 0.39932 0.1671 0.0
H1381 H 0.49426 0.47081 0.11693 0.0
H1382 H 0.52065 0.4179 0.18932 0.0
H1383 H 0.32884 0.44523 0.07789 0.0
H1384 H 0.45641 0.34405 0.10184 0.0
H1385 H 0.37333 0.34685 0.15066 0.0
C1386 C 0.71427 0.47696 0.11742 0.0
C1387 C 0.70441 0.50548 0.12556 0.0
N1388 N 0.6785 0.50956 0.11033 0.0
N1389 N 0.69434 0.46269 0.09759 0.0
C1390 C 0.67326 0.48357 0.09311 0.0
H1391 H 0.73269 0.46587 0.12808 0.0
Co1392 Co 0.69099 0.41971 0.09115 0.0
C1393 C 0.62455 0.40354 0.08754 0.0
O1394 O 0.6304 0.37528 0.09392 0.0
N1395 N 0.68791 0.37587 0.08413 0.0
C1396 C 0.67665 0.33099 0.0591 0.0
C1397 C 0.67959 0.36248 0.0569 0.0
C1398 C 0.69052 0.35147 0.10216 0.0
N1399 N 0.68349 0.32444 0.08765 0.0
O1400 O 0.70664 0.42347 0.0488 0.0
H1401 H 0.67397 0.37492 0.03703 0.0
H1402 H 0.69596 0.35236 0.12582 0.0
O1403 O 0.64655 0.42227 0.08011 0.0
C1404 C 0.73327 0.41326 0.04606 0.0
O1405 O 0.74662 0.40393 0.07057 0.0
N1406 N 0.67955 0.41649 0.13256 0.0
C1407 C 0.65811 0.39945 0.18919 0.0
C1408 C 0.64419 0.42197 0.1725 0.0
C1409 C 0.6551 0.42995 0.14429 0.0
C1410 C 0.69783 0.40207 0.15176 0.0
C1411 C 0.68669 0.39111 0.17901 0.0
H1412 H 0.64313 0.44625 0.1316 0.0
H1413 H 0.71975 0.39564 0.14426 0.0
H1414 H 0.65284 0.47872 0.08005 0.0
H1415 H 0.71382 0.52062 0.14362 0.0
H1416 H 0.66829 0.31444 0.04173 0.0
H1417 H 0.62439 0.43294 0.18033 0.0
H1418 H 0.70036 0.37521 0.19017 0.0
C1419 C 0.83435 0.57402 0.58736 0.0
C1420 C 0.83278 0.54293 0.59229 0.0
N1421 N 0.86035 0.53493 0.60113 0.0
N1422 N 0.86274 0.58542 0.59314 0.0
C1423 C 0.87814 0.56098 0.60117 0.0
H1424 H 0.8159 0.58759 0.58049 0.0
Co1425 Co 0.8755 0.62629 0.5909 0.0
C1426 C 0.94355 0.62894 0.59516 0.0
O1427 O 0.94184 0.65649 0.60774 0.0
N1428 N 0.88804 0.66787 0.58761 0.0
C1429 C 0.90741 0.71057 0.56731 0.0
C1430 C 0.90097 0.67957 0.56267 0.0
C1431 C 0.88702 0.69233 0.60711 0.0
N1432 N 0.89882 0.71814 0.59533 0.0
O1433 O 0.86445 0.62463 0.54665 0.0
H1434 H 0.90601 0.66628 0.54251 0.0
H1435 H 0.87816 0.69189 0.62955 0.0
O1436 O 0.91906 0.61394 0.58563 0.0
C1437 C 0.84093 0.63991 0.54123 0.0
O1438 O 0.82858 0.65408 0.56414 0.0
N1439 N 0.88094 0.62861 0.63408 0.0
C1440 C 0.88667 0.64112 0.6965 0.0
C1441 C 0.90757 0.62365 0.68126 0.0
C1442 C 0.90388 0.61702 0.65033 0.0
C1443 C 0.85827 0.64202 0.64924 0.0
C1444 C 0.86104 0.64932 0.68035 0.0
H1445 H 0.91969 0.60261 0.6399 0.0
H1446 H 0.83894 0.64927 0.63667 0.0
H1447 H 0.90164 0.56224 0.60798 0.0
H1448 H 0.81283 0.52751 0.59012 0.0
H1449 H 0.91809 0.72622 0.55173 0.0
H1450 H 0.92681 0.61523 0.69316 0.0
H1451 H 0.84394 0.66231 0.69126 0.0
C1452 C 0.69152 0.4511 0.70014 0.0
C1453 C 0.72175 0.44574 0.69758 0.0
N1454 N 0.72553 0.41547 0.70125 0.0
N1455 N 0.67612 0.42431 0.7052 0.0
C1456 C 0.69771 0.40355 0.70728 0.0
H1457 H 0.68115 0.47224 0.6949 0.0
Co1458 Co 0.63474 0.4142 0.69703 0.0
C1459 C 0.65159 0.34965 0.67255 0.0
O1460 O 0.65325 0.35953 0.64516 0.0
N1461 N 0.59342 0.40081 0.68844 0.0
C1462 C 0.55757 0.37278 0.66257 0.0
C1463 C 0.58739 0.38007 0.6653 0.0
C1464 C 0.56564 0.40574 0.69959 0.0
N1465 N 0.54366 0.38843 0.68419 0.0
O1466 O 0.62678 0.41761 0.74092 0.0
H1467 H 0.60322 0.37196 0.64944 0.0
H1468 H 0.56162 0.42138 0.71842 0.0
O1469 O 0.64353 0.3675 0.69475 0.0
C1470 C 0.62222 0.44678 0.74306 0.0
O1471 O 0.62178 0.46171 0.71774 0.0
N1472 N 0.64094 0.42107 0.65526 0.0
C1473 C 0.63507 0.4193 0.59376 0.0
C1474 C 0.66306 0.41411 0.60712 0.0
C1475 C 0.66601 0.4166 0.63852 0.0
C1476 C 0.61788 0.43573 0.64206 0.0
C1477 C 0.6135 0.43354 0.61093 0.0
H1478 H 0.68652 0.40935 0.64875 0.0
H1479 H 0.60057 0.44541 0.6557 0.0
H1480 H 0.69293 0.37932 0.70952 0.0
H1481 H 0.73908 0.46238 0.6907 0.0
H1482 H 0.54663 0.35764 0.64527 0.0
H1483 H 0.68093 0.40466 0.59398 0.0
H1484 H 0.59223 0.4396 0.60107 0.0
C1485 C 0.29538 0.57344 0.89728 0.0
C1486 C 0.30153 0.54331 0.8907 0.0
N1487 N 0.32682 0.53704 0.90602 0.0
N1488 N 0.31709 0.58604 0.91619 0.0
C1489 C 0.33491 0.56283 0.92234 0.0
H1490 H 0.27883 0.5864 0.88578 0.0
Co1491 Co 0.32768 0.62776 0.92077 0.0
C1492 C 0.39475 0.63096 0.91438 0.0
O1493 O 0.39119 0.6548 0.89752 0.0
N1494 N 0.33829 0.66999 0.92676 0.0
C1495 C 0.36536 0.71228 0.94245 0.0
C1496 C 0.3597 0.68143 0.94685 0.0
C1497 C 0.32923 0.69507 0.91274 0.0
N1498 N 0.34606 0.72056 0.92096 0.0
O1499 O 0.31649 0.62665 0.96427 0.0
H1500 H 0.37202 0.66777 0.96227 0.0
H1501 H 0.31116 0.69535 0.89638 0.0
O1502 O 0.37174 0.61829 0.92755 0.0
C1503 C 0.28879 0.63365 0.96562 0.0
O1504 O 0.27549 0.63992 0.93995 0.0
N1505 N 0.33512 0.62868 0.87746 0.0
C1506 C 0.35799 0.63956 0.82021 0.0
C1507 C 0.36495 0.61306 0.8354 0.0
C1508 C 0.35344 0.60818 0.86411 0.0
C1509 C 0.32143 0.64853 0.85908 0.0
C1510 C 0.33384 0.65593 0.83107 0.0
H1511 H 0.3612 0.58918 0.87643 0.0
H1512 H 0.30131 0.65912 0.86615 0.0
H1513 H 0.35618 0.56589 0.93463 0.0
H1514 H 0.29067 0.52859 0.87306 0.0
H1515 H 0.38336 0.72704 0.9528 0.0
H1516 H 0.38082 0.59742 0.82617 0.0
H1517 H 0.32537 0.67486 0.81882 0.0
C1518 C 0.18211 0.44054 0.42583 0.0
C1519 C 0.17974 0.47161 0.42096 0.0
N1520 N 0.1527 0.48007 0.43052 0.0
N1521 N 0.15618 0.42884 0.43747 0.0
C1522 C 0.13961 0.45412 0.44178 0.0
H1523 H 0.20004 0.4267 0.41788 0.0
Co1524 Co 0.14309 0.3854 0.43699 0.0
C1525 C 0.0815 0.41291 0.42349 0.0
O1526 O 0.09211 0.43098 0.40284 0.0
N1527 N 0.12809 0.34123 0.43729 0.0
C1528 C 0.09395 0.30162 0.42961 0.0
C1529 C 0.09828 0.33261 0.43521 0.0
C1530 C 0.14122 0.31341 0.43413 0.0
N1531 N 0.12081 0.28906 0.42843 0.0
O1532 O 0.15058 0.3859 0.48151 0.0
H1533 H 0.07981 0.34754 0.4355 0.0
H1534 H 0.16538 0.31142 0.43328 0.0
O1535 O 0.0991 0.3969 0.43945 0.0
C1536 C 0.17814 0.3785 0.4848 0.0
O1537 O 0.19222 0.37035 0.46017 0.0
N1538 N 0.1419 0.38386 0.39301 0.0
C1539 C 0.13444 0.37602 0.33083 0.0
C1540 C 0.13395 0.40526 0.34441 0.0
C1541 C 0.13897 0.40882 0.37534 0.0
C1542 C 0.14919 0.357 0.37859 0.0
C1543 C 0.14425 0.35199 0.34764 0.0
H1544 H 0.13976 0.43193 0.38439 0.0
H1545 H 0.15991 0.33949 0.39031 0.0
H1546 H 0.11728 0.45343 0.451 0.0
H1547 H 0.1955 0.48613 0.40869 0.0
H1548 H 0.07237 0.28979 0.42417 0.0
H1549 H 0.12905 0.42507 0.33134 0.0
H1550 H 0.14761 0.32961 0.33718 0.0
C1551 C 0.3542 0.58098 0.32633 0.0
C1552 C 0.32341 0.58053 0.32944 0.0
N1553 N 0.31373 0.60782 0.32086 0.0
N1554 N 0.3638 0.60858 0.31628 0.0
C1555 C 0.33868 0.62411 0.31247 0.0
H1556 H 0.36889 0.56332 0.33306 0.0
Co1557 Co 0.40311 0.62381 0.31395 0.0
C1558 C 0.4032 0.69022 0.33679 0.0
O1559 O 0.42853 0.68441 0.35068 0.0
N1560 N 0.44305 0.63993 0.3101 0.0
C1561 C 0.47852 0.67632 0.30096 0.0
C1562 C 0.44999 0.66456 0.29325 0.0
C1563 C 0.46888 0.63539 0.32535 0.0
N1564 N 0.49012 0.65808 0.32163 0.0
O1565 O 0.39974 0.6193 0.26931 0.0
H1566 H 0.43409 0.67538 0.27882 0.0
H1567 H 0.47238 0.61666 0.33987 0.0
O1568 O 0.38983 0.669 0.31907 0.0
C1569 C 0.41435 0.59579 0.26073 0.0
O1570 O 0.4298 0.58197 0.28132 0.0
N1571 N 0.40652 0.62262 0.35688 0.0
C1572 C 0.42115 0.63301 0.41729 0.0
C1573 C 0.39494 0.64457 0.40513 0.0
C1574 C 0.38734 0.63784 0.37496 0.0
C1575 C 0.42669 0.60461 0.37025 0.0
C1576 C 0.43561 0.61053 0.40047 0.0
H1577 H 0.36724 0.64648 0.36554 0.0
H1578 H 0.43726 0.58705 0.35701 0.0
H1579 H 0.33881 0.64766 0.30546 0.0
H1580 H 0.30972 0.56256 0.33976 0.0
H1581 H 0.48843 0.69817 0.29407 0.0
H1582 H 0.38112 0.65945 0.41844 0.0
H1583 H 0.45423 0.5988 0.41003 0.0
C1584 C 0.14125 0.35482 0.97596 0.0
C1585 C 0.13069 0.37041 1.00156 0.0
C1586 C 0.15271 0.37086 0.95158 0.0
C1587 C 0.15449 0.40332 0.95182 0.0
H1588 H 0.14134 0.32994 0.97506 0.0
H1589 H 0.16058 0.35753 0.93248 0.0
S1590 S 0.12584 0.45533 1.01138 0.0
N1591 N 0.11966 0.42044 0.02418 0.0
N1592 N 0.14196 0.45045 0.97847 0.0
C1593 C 0.14233 0.41926 0.97639 0.0
C1594 C 0.13027 0.40287 1.00124 0.0
C1595 C 0.89848 0.86239 0.22532 0.0
C1596 C 0.89926 0.8391 0.24714 0.0
C1597 C 0.87399 0.86475 0.2047 0.0
C1598 C 0.84882 0.84364 0.20398 0.0
H1599 H 0.91646 0.87995 0.22447 0.0
H1600 H 0.87443 0.88396 0.18975 0.0
S1601 S 0.83917 0.77626 0.253 0.0
N1602 N 0.87223 0.79253 0.26382 0.0
N1603 N 0.82655 0.79771 0.22603 0.0
C1604 C 0.8494 0.81969 0.22473 0.0
C1605 C 0.87442 0.81707 0.24571 0.0
C1606 C 0.43936 0.63398 0.50075 0.0
C1607 C 0.43793 0.66545 0.50863 0.0
C1608 C 0.43651 0.62344 0.47054 0.0
C1609 C 0.4323 0.64423 0.4475 0.0
H1610 H 0.43913 0.61724 0.51833 0.0
H1611 H 0.43479 0.59886 0.46557 0.0
S1612 S 0.43475 0.72931 0.45606 0.0
N1613 N 0.43738 0.71741 0.49102 0.0
N1614 N 0.43303 0.69795 0.4339 0.0
C1615 C 0.43487 0.67598 0.45485 0.0
C1616 C 0.43756 0.68655 0.48558 0.0
C1617 C 0.63946 0.13512 0.70977 0.0
C1618 C 0.65616 0.16252 0.70318 0.0
C1619 C 0.62512 0.1316 0.73781 0.0
C1620 C 0.62751 0.15499 0.7607 0.0
H1621 H 0.63599 0.11685 0.69292 0.0
H1622 H 0.61155 0.11065 0.7414 0.0
S1623 S 0.67184 0.22949 0.75651 0.0
N1624 N 0.67678 0.212 0.72349 0.0
N1625 N 0.64996 0.20547 0.77554 0.0
C1626 C 0.646 0.18141 0.75524 0.0
C1627 C 0.66039 0.18503 0.72681 0.0
C1628 C 0.14655 0.64379 0.51189 0.0
C1629 C 0.1185 0.6432 0.49642 0.0
C1630 C 0.15024 0.62758 0.53851 0.0
C1631 C 0.12587 0.61064 0.55097 0.0
H1632 H 0.1656 0.65757 0.50384 0.0
H1633 H 0.17154 0.63079 0.55064 0.0
S1634 S 0.04894 0.59847 0.51754 0.0
N1635 N 0.06688 0.62142 0.49404 0.0
N1636 N 0.07395 0.59126 0.54401 0.0
C1637 C 0.09872 0.6074 0.53409 0.0
C1638 C 0.09486 0.62387 0.50706 0.0
C1639 C 0.60852 0.90165 0.788 0.0
C1640 C 0.61818 0.87611 0.8034 0.0
C1641 C 0.60571 0.90084 0.75665 0.0
C1642 C 0.61275 0.87469 0.73948 0.0
H1643 H 0.60442 0.92302 0.80006 0.0
H1644 H 0.59972 0.92148 0.74548 0.0
S1645 S 0.63741 0.80123 0.76843 0.0
N1646 N 0.63286 0.82305 0.79909 0.0
N1647 N 0.62873 0.82232 0.7395 0.0
C1648 C 0.62126 0.84854 0.75433 0.0
C1649 C 0.6239 0.84916 0.78648 0.0
C1650 C 0.41815 0.38306 1.01113 0.0
C1651 C 0.43711 0.38715 0.98585 0.0
C1652 C 0.42221 0.40122 0.03823 0.0
C1653 C 0.44527 0.42469 0.0415 0.0
H1654 H 0.40017 0.36529 1.01046 0.0
H1655 H 0.40816 0.39569 0.05729 0.0
S1656 S 0.50016 0.44742 0.98312 0.0
N1657 N 0.47956 0.41858 0.9669 0.0
N1658 N 0.48627 0.45225 0.01711 0.0
C1659 C 0.46351 0.43 0.01639 0.0
C1660 C 0.45968 0.41153 0.98886 0.0
C1661 C 0.90344 0.13579 0.2505 0.0
C1662 C 0.90829 0.16779 0.24755 0.0
C1663 C 0.88299 0.12361 0.27128 0.0
C1664 C 0.867 0.1429 0.29061 0.0
H1665 H 0.91584 0.11996 0.23684 0.0
H1666 H 0.88036 0.09882 0.27276 0.0
S1667 S 0.87143 0.22853 0.29119 0.0
N1668 N 0.89456 0.2185 0.26422 0.0
N1669 N 0.8574 0.19605 0.30489 0.0
C1670 C 0.87112 0.17506 0.28727 0.0
C1671 C 0.89149 0.18737 0.26543 0.0
C1672 C 0.92905 0.10193 0.39606 0.0
C1673 C 0.92555 0.12215 0.42133 0.0
C1674 C 0.95741 0.09792 0.3829 0.0
C1675 C 0.98384 0.11316 0.39498 0.0
H1676 H 0.90982 0.08951 0.38567 0.0
H1677 H 0.95867 0.08303 0.36292 0.0
S1678 S 0.98867 0.16648 0.46199 0.0
N1679 N 0.95238 0.15645 0.45845 0.0
N1680 N 1.00534 0.14778 0.43444 0.0
C1681 C 0.98119 0.13217 0.42091 0.0
C1682 C 0.95227 0.13686 0.43392 0.0
C1683 C 0.17248 0.79422 0.63022 0.0
C1684 C 0.17577 0.79543 0.59856 0.0
C1685 C 0.16502 0.76642 0.64408 0.0
C1686 C 0.16004 0.7391 0.6267 0.0
H1687 H 0.17491 0.81495 0.64443 0.0
H1688 H 0.16264 0.76636 0.66839 0.0
S1689 S 0.1685 0.72878 0.54398 0.0
N1690 N 0.17583 0.76599 0.55089 0.0
N1691 N 0.16067 0.71398 0.57698 0.0
C1692 C 0.16381 0.73967 0.59534 0.0
C1693 C 0.17188 0.7678 0.58124 0.0
C1694 C 0.51987 0.94488 0.91414 0.0
C1695 C 0.49169 0.92877 0.91402 0.0
C1696 C 0.54557 0.93239 0.92678 0.0
C1697 C 0.54453 0.9026 0.93867 0.0
H1698 H 0.5222 0.96686 0.90341 0.0
H1699 H 0.56651 0.9455 0.92481 0.0
S1700 S 0.47507 0.85214 0.94592 0.0
N1701 N 0.46339 0.88279 0.9292 0.0
N1702 N 0.51175 0.85866 0.95165 0.0
C1703 C 0.51595 0.88704 0.94 0.0
C1704 C 0.48962 0.90016 0.92789 0.0
C1705 C 0.38668 0.2893 0.12691 0.0
C1706 C 0.40229 0.31087 0.10898 0.0
C1707 C 0.38057 0.25888 0.11641 0.0
C1708 C 0.39025 0.249 0.08793 0.0
H1709 H 0.38093 0.2952 0.14996 0.0
H1710 H 0.37114 0.24223 0.13179 0.0
S1711 S 0.42807 0.29657 0.03059 0.0
N1712 N 0.4232 0.32077 0.05937 0.0
N1713 N 0.4136 0.2629 0.041 0.0
C1714 C 0.40369 0.27063 0.06896 0.0
C1715 C 0.4094 0.30169 0.07922 0.0
C1716 C 1.00989 0.87644 0.14911 0.0
C1717 C 1.01142 0.8941 0.17631 0.0
C1718 C 0.9832 0.87348 0.1318 0.0
C1719 C 0.9577 0.88842 0.14128 0.0
H1720 H 0.02912 0.86398 0.14195 0.0
H1721 H 0.98197 0.85821 0.11193 0.0
S1722 S 0.95161 0.93957 0.20919 0.0
N1723 N 0.98657 0.9284 0.2107 0.0
N1724 N 0.93604 0.92307 0.1781 0.0
C1725 C 0.95964 0.90766 0.16741 0.0
C1726 C 0.98673 0.91052 0.185 0.0
C1727 C 0.40284 0.77294 0.36583 0.0
C1728 C 0.37807 0.77264 0.38518 0.0
C1729 C 0.4087 0.74696 0.34738 0.0
C1730 C 0.38983 0.7197 0.34701 0.0
H1731 H 0.41859 0.79285 0.36615 0.0
H1732 H 0.42934 0.74751 0.33466 0.0
S1733 S 0.3213 0.70841 0.39338 0.0
N1734 N 0.3342 0.74381 0.40264 0.0
N1735 N 0.3444 0.69545 0.36767 0.0
C1736 C 0.36409 0.72006 0.36533 0.0
C1737 C 0.35846 0.74637 0.38447 0.0
C1738 C 0.52355 0.091 0.62305 0.0
C1739 C 0.52743 0.12328 0.62113 0.0
C1740 C 0.49855 0.07737 0.63732 0.0
C1741 C 0.47696 0.0956 0.65031 0.0
H1742 H 0.54072 0.07623 0.61491 0.0
H1743 H 0.49667 0.05263 0.63937 0.0
S1744 S 0.47454 0.1805 0.64856 0.0
N1745 N 0.50564 0.17266 0.63063 0.0
N1746 N 0.45956 0.147 0.65889 0.0
C1747 C 0.47981 0.12765 0.64753 0.0
C1748 C 0.50485 0.14152 0.63254 0.0
C1749 C 0.22255 0.31256 0.87727 0.0
C1750 C 0.2016 0.29323 0.89238 0.0
C1751 C 0.21288 0.33563 0.8578 0.0
C1752 C 0.18188 0.3398 0.85236 0.0
H1753 H 0.24644 0.3108 0.88162 0.0
H1754 H 0.22974 0.3513 0.84845 0.0
S1755 S 0.11821 0.29237 0.88342 0.0
N1756 N 0.1486 0.27863 0.89859 0.0
N1757 N 0.13073 0.3199 0.86141 0.0
C1758 C 0.16108 0.31889 0.86567 0.0
C1759 C 0.17079 0.29628 0.88583 0.0
C1760 C 0.41054 0.97604 0.15142 0.0
C1761 C 0.41214 0.94945 0.13239 0.0
C1762 C 0.3984 1.00314 0.14122 0.0
C1763 C 0.38709 1.00483 0.11155 0.0
H1764 H 0.41725 0.97537 0.17503 0.0
H1765 H 0.3967 0.02252 0.15695 0.0
S1766 S 0.38754 0.94405 0.05145 0.0
N1767 N 0.40321 0.92859 0.081 0.0
N1768 N 0.37971 0.97919 0.06265 0.0
C1769 C 0.38995 0.97953 0.09174 0.0
C1770 C 0.40272 0.95197 0.1019 0.0
C1771 C 0.92734 0.56025 0.91402 0.0
C1772 C 0.9036 0.58001 0.91776 0.0
C1773 C 0.92227 0.52814 0.9163 0.0
C1774 C 0.89356 0.51507 0.92309 0.0
H1775 H 0.9491 0.56929 0.90663 0.0
H1776 H 0.94008 0.51325 0.91014 0.0
S1777 S 0.82483 0.55647 0.93773 0.0
N1778 N 0.85073 0.58364 0.93023 0.0
N1779 N 0.84225 0.52399 0.93607 0.0
C1780 C 0.87066 0.53471 0.92962 0.0
C1781 C 0.87538 0.56703 0.92643 0.0
C1782 C 0.72534 0.59871 0.15615 0.0
C1783 C 0.75226 0.60869 0.17111 0.0
C1784 C 0.70166 0.61803 0.15365 0.0
C1785 C 0.70367 0.64854 0.16551 0.0
H1786 H 0.72302 0.57616 0.14506 0.0
H1787 H 0.68183 0.60902 0.14144 0.0
S1788 S 0.76649 0.68356 0.21348 0.0
N1789 N 0.77746 0.64908 0.2035 0.0
N1790 N 0.73307 0.68612 0.19726 0.0
C1791 C 0.72927 0.65793 0.18319 0.0
C1792 C 0.7535 0.63783 0.18635 0.0
C1793 C 0.65763 0.49931 0.43727 0.0
C1794 C 0.63463 0.49215 0.41549 0.0
C1795 C 0.67269 0.52861 0.43877 0.0
C1796 C 0.66523 0.55101 0.41827 0.0
H1797 H 0.66513 0.48168 0.45191 0.0
H1798 H 0.69139 0.53317 0.45459 0.0
S1799 S 0.60648 0.54307 0.3577 0.0
N1800 N 0.60456 0.50956 0.37403 0.0
N1801 N 0.63307 0.56429 0.37645 0.0
C1802 C 0.64143 0.54427 0.39742 0.0
C1803 C 0.62606 0.51484 0.3961 0.0
C1804 C 0.28577 0.89522 0.19269 0.0
C1805 C 0.28869 0.88305 0.16311 0.0
C1806 C 0.2613 0.91285 0.20009 0.0
C1807 C 0.23967 0.919 0.17795 0.0
H1808 H 0.30306 0.89218 0.20974 0.0
H1809 H 0.25953 0.92226 0.2229 0.0
S1810 S 0.23486 0.88801 0.09899 0.0
N1811 N 0.26644 0.87529 0.11281 0.0
N1812 N 0.22041 0.90833 0.12679 0.0
C1813 C 0.24153 0.90541 0.14893 0.0
C1814 C 0.26614 0.88745 0.14147 0.0
C1815 C 0.16639 0.06141 0.6158 0.0
C1816 C 0.16255 0.03146 0.62617 0.0
C1817 C 0.14951 0.08518 0.6277 0.0
C1818 C 0.12827 0.08008 0.65052 0.0
H1819 H 0.18331 0.06666 0.59914 0.0
H1820 H 0.15404 0.10786 0.61961 0.0
S1821 S 0.10969 1.00532 0.68519 0.0
N1822 N 0.13561 0.99755 0.66015 0.0
N1823 N 0.10411 0.04239 0.68264 0.0
C1824 C 0.12358 0.04993 0.6604 0.0
C1825 C 0.14068 0.0256 0.64819 0.0
C1826 C 0.69988 0.39119 0.40339 0.0
C1827 C 0.69813 0.36865 0.3797 0.0
C1828 C 0.72686 0.40901 0.41007 0.0
C1829 C 0.75345 0.40496 0.39361 0.0
H1830 H 0.67993 0.3962 0.41595 0.0
H1831 H 0.72657 0.42666 0.42784 0.0
S1832 S 0.76119 0.34642 0.33132 0.0
N1833 N 0.72557 0.34202 0.34099 0.0
N1834 N 0.7762 0.37423 0.35398 0.0
C1835 C 0.75212 0.38146 0.37071 0.0
C1836 C 0.7246 0.36366 0.36376 0.0
C1837 C 0.75871 0.64668 0.91403 0.0
C1838 C 0.7789 0.65935 0.89292 0.0
C1839 C 0.73085 0.63265 0.90478 0.0
C1840 C 0.72181 0.63149 0.87427 0.0
H1841 H 0.76497 0.64641 0.93778 0.0
H1842 H 0.7166 0.62171 0.92139 0.0
S1843 S 0.7632 0.66493 0.81056 0.0
N1844 N 0.78607 0.67199 0.84012 0.0
N1845 N 0.73271 0.64677 0.82348 0.0
C1846 C 0.74023 0.64617 0.8533 0.0
C1847 C 0.769 0.65996 0.86246 0.0
C1848 C 0.85791 0.62491 0.06086 0.0
C1849 C 0.87615 0.62734 0.08734 0.0
C1850 C 0.86688 0.63941 0.03413 0.0
C1851 C 0.89384 0.65793 0.03332 0.0
H1852 H 0.83625 0.61218 0.06101 0.0
H1853 H 0.85216 0.63715 0.01432 0.0
S1854 S 0.94904 0.67294 0.09607 0.0
N1855 N 0.92287 0.64942 0.11023 0.0
N1856 N 0.93833 0.67823 0.06084 0.0
C1857 C 0.91217 0.66056 0.05938 0.0
C1858 C 0.90368 0.64491 0.08618 0.0
C1859 C 0.15395 0.19988 0.81954 0.0
C1860 C 0.17615 0.18051 0.82978 0.0
C1861 C 0.13127 0.18937 0.79872 0.0
C1862 C 0.12986 0.15905 0.78671 0.0
H1863 H 0.15398 0.22362 0.82773 0.0
H1864 H 0.11488 0.20532 0.79168 0.0
S1865 S 0.18343 0.09921 0.80477 0.0
N1866 N 0.19583 0.12969 0.82553 0.0
N1867 N 0.1533 0.10971 0.78625 0.0
C1868 C 0.15185 0.13923 0.79679 0.0
C1869 C 0.17504 0.15005 0.81815 0.0
C1870 C 0.62743 0.37139 0.56262 0.0
C1871 C 0.62605 0.40354 0.56504 0.0
C1872 C 0.6201 0.35542 0.53548 0.0
C1873 C 0.61132 0.37108 0.50988 0.0
H1874 H 0.63475 0.35856 0.58172 0.0
H1875 H 0.62258 0.33081 0.53406 0.0
S1876 S 0.60059 0.45498 0.50619 0.0
N1877 N 0.61217 0.45018 0.54127 0.0
N1878 N 0.59907 0.42039 0.48953 0.0
C1879 C 0.60781 0.40305 0.5127 0.0
C1880 C 0.61507 0.41926 0.54054 0.0
C1881 C 0.40791 0.85591 0.28872 0.0
C1882 C 0.40035 0.87416 0.26461 0.0
C1883 C 0.39621 0.8613 0.31754 0.0
C1884 C 0.37761 0.88599 0.32349 0.0
H1885 H 0.42371 0.83807 0.28544 0.0
H1886 H 0.40342 0.84695 0.33522 0.0
S1887 S 0.34738 0.93674 0.26617 0.0
N1888 N 0.36956 0.91432 0.24688 0.0
N1889 N 0.34928 0.92609 0.30163 0.0
C1890 C 0.36831 0.90285 0.29886 0.0
C1891 C 0.37937 0.89662 0.2693 0.0
C1892 C 0.91509 0.38759 0.47631 0.0
C1893 C 0.88867 0.40395 0.47842 0.0
C1894 C 0.92811 0.37501 0.50198 0.0
C1895 C 0.91579 0.37936 0.53069 0.0
H1896 H 0.92514 0.3834 0.45462 0.0
H1897 H 0.94767 0.36144 0.49939 0.0
S1898 S 0.84811 0.42243 0.54845 0.0
N1899 N 0.85121 0.42456 0.51143 0.0
N1900 N 0.87663 0.40267 0.55988 0.0
C1901 C 0.89027 0.39702 0.53322 0.0
C1902 C 0.87649 0.4089 0.50701 0.0
C1903 C 0.43264 0.16141 0.26888 0.0
C1904 C 0.4111 0.16222 0.29189 0.0
C1905 C 0.42425 0.15424 0.23874 0.0
C1906 C 0.39393 0.14803 0.23026 0.0
H1907 H 0.45636 0.16594 0.27427 0.0
H1908 H 0.44164 0.15338 0.22191 0.0
S1909 S 0.32822 0.14924 0.28035 0.0
N1910 N 0.35756 0.15711 0.30331 0.0
N1911 N 0.34199 0.14491 0.24616 0.0
C1912 C 0.37192 0.15004 0.25243 0.0
C1913 C 0.38043 0.15692 0.28337 0.0
C1914 C 0.58799 0.59389 0.02193 0.0
C1915 C 0.5845 0.60671 0.99355 0.0
C1916 C 0.57887 0.60964 0.04818 0.0
C1917 C 0.56606 0.63861 0.04665 0.0
H1918 H 0.59916 0.57254 0.02398 0.0
H1919 H 0.58358 0.59989 0.0698 0.0
S1920 S 0.55174 0.68104 0.97721 0.0
N1921 N 0.56678 0.64912 0.9653 0.0
N1922 N 0.54889 0.6781 0.01407 0.0
C1923 C 0.56106 0.65052 0.0181 0.0
C1924 C 0.57051 0.63474 0.9917 0.0
C1925 C 0.11453 0.8769 0.71578 0.0
C1926 C 0.14629 0.88059 0.71586 0.0
C1927 C 0.099 0.86703 0.74122 0.0
C1928 C 0.11438 0.85969 0.76781 0.0
H1929 H 0.10132 0.88249 0.69612 0.0
H1930 H 0.0746 0.86623 0.74041 0.0
S1931 S 0.19786 0.85846 0.77735 0.0
N1932 N 0.19272 0.87271 0.74377 0.0
N1933 N 0.1637 0.85065 0.79001 0.0
C1934 C 0.14623 0.8597 0.76689 0.0
C1935 C 0.16212 0.87106 0.74137 0.0
C1936 C 0.09289 0.94798 0.60385 0.0
C1937 C 0.09694 0.91634 0.59826 0.0
C1938 C 0.06795 0.95803 0.61999 0.0
C1939 C 0.04624 0.93676 0.63087 0.0
H1940 H 0.10981 0.96509 0.59754 0.0
H1941 H 0.06627 0.98238 0.62505 0.0
S1942 S 0.0423 0.8522 0.61679 0.0
N1943 N 0.07398 0.86438 0.60103 0.0
N1944 N 0.02749 0.88337 0.6309 0.0
C1945 C 0.04846 0.90546 0.62305 0.0
C1946 C 0.0736 0.89526 0.60674 0.0
C1947 C 0.87702 0.29111 0.41341 0.0
C1948 C 0.85463 0.30903 0.40114 0.0
C1949 C 0.87023 0.26161 0.42282 0.0
C1950 C 0.84164 0.24731 0.41723 0.0
H1951 H 0.90063 0.29847 0.41401 0.0
H1952 H 0.88868 0.24804 0.42989 0.0
S1953 S 0.7729 0.28524 0.39433 0.0
N1954 N 0.80026 0.31242 0.39273 0.0
N1955 N 0.78916 0.25398 0.40491 0.0
C1956 C 0.81819 0.26523 0.40818 0.0
C1957 C 0.82447 0.2966 0.40087 0.0
C1958 C 0.5245 0.13029 0.1215 0.0
C1959 C 0.5348 0.10145 0.12836 0.0
C1960 C 0.49603 0.13302 0.1082 0.0
C1961 C 0.47598 0.10708 0.10266 0.0
H1962 H 0.53801 0.15104 0.12792 0.0
H1963 H 0.48839 0.15602 0.1062 0.0
S1964 S 0.49479 0.0259 0.11115 0.0
N1965 N 0.52544 0.04608 0.12354 0.0
N1966 N 0.47062 0.05124 0.10057 0.0
C1967 C 0.48736 0.07789 0.10634 0.0
C1968 C 0.517 0.07507 0.11899 0.0
C1969 C 0.61177 0.75532 0.89443 0.0
C1970 C 0.62095 0.76201 0.9248 0.0
C1971 C 0.60598 0.72452 0.88332 0.0
C1972 C 0.60961 0.69927 0.90199 0.0
H1973 H 0.6075 0.77398 0.87965 0.0
H1974 H 0.59722 0.72053 0.86046 0.0
S1975 S 0.63727 0.7041 0.98166 0.0
N1976 N 0.63643 0.74034 0.97205 0.0
N1977 N 0.62561 0.68338 0.95136 0.0
C1978 C 0.62048 0.70579 0.93165 0.0
C1979 C 0.6262 0.73684 0.94296 0.0
C1980 C 0.02705 0.19082 0.8568 0.0
C1981 C 0.01982 0.16044 0.84637 0.0
C1982 C 0.05229 0.19785 0.87571 0.0
C1983 C 0.07112 0.1747 0.88467 0.0
H1984 H 1.01315 0.20919 0.85009 0.0
H1985 H 0.05755 0.22164 0.88277 0.0
S1986 S 0.06151 0.09158 0.86283 0.0
N1987 N 0.03259 0.10712 0.84645 0.0
N1988 N 0.0807 0.12014 0.88127 0.0
C1989 C 0.06357 0.14409 0.87482 0.0
C1990 C 0.03772 0.137 0.85582 0.0
C1991 C 0.68861 0.28094 0.64644 0.0
C1992 C 0.66336 0.26268 0.63576 0.0
C1993 C 0.68519 0.30732 0.66525 0.0
C1994 C 0.65643 0.31642 0.67405 0.0
H1995 H 0.71076 0.27632 0.63815 0.0
H1996 H 0.70479 0.3229 0.66956 0.0
S1997 S 0.58409 0.27191 0.65823 0.0
N1998 N 0.60934 0.25193 0.64043 0.0
N1999 N 0.60309 0.30169 0.67489 0.0
C2000 C 0.63167 0.29592 0.66683 0.0
C2001 C 0.63503 0.26919 0.64767 0.0
C2002 C 0.55618 0.92278 0.38034 0.0
C2003 C 0.55856 0.9193 0.34876 0.0
C2004 C 0.52827 0.91813 0.39446 0.0
C2005 C 0.50182 0.90982 0.37748 0.0
H2006 H 0.57621 0.92779 0.39426 0.0
H2007 H 0.52759 0.91995 0.41884 0.0
S2008 S 0.49542 0.90464 0.29372 0.0
N2009 N 0.53177 0.91158 0.30078 0.0
N2010 N 0.47927 0.9036 0.32696 0.0
C2011 C 0.50371 0.90881 0.34571 0.0
C2012 C 0.53207 0.91329 0.33146 0.0
C2013 C 0.86444 0.75779 0.14485 0.0
C2014 C 0.83788 0.75367 0.12713 0.0
C2015 C 0.87236 0.73565 0.16528 0.0
C2016 C 0.85388 0.7088 0.16861 0.0
H2017 H 0.87938 0.778 0.1424 0.0
H2018 H 0.89362 0.73892 0.17766 0.0
S2019 S 0.78199 0.68782 0.1268 0.0
N2020 N 0.79288 0.72191 0.11431 0.0
N2021 N 0.80793 0.6794 0.15195 0.0
C2022 C 0.82684 0.70495 0.15137 0.0
C2023 C 0.8188 0.72765 0.13076 0.0
C2024 C 0.63172 0.04379 0.86852 0.0
C2025 C 0.61142 0.06233 0.88406 0.0
C2026 C 0.64328 0.01763 0.88116 0.0
C2027 C 0.6351 1.00799 0.91003 0.0
H2028 H 0.63966 0.04986 0.8464 0.0
H2029 H 0.6589 1.00472 0.86799 0.0
S2030 S 0.58183 0.04668 0.96041 0.0
N2031 N 0.58292 0.068 0.93019 0.0
N2032 N 0.60453 0.01849 0.95373 0.0
C2033 C 0.61415 0.02546 0.92572 0.0
C2034 C 0.60246 0.05262 0.91288 0.0
C2035 C 0.14303 0.46835 0.08547 0.0
C2036 C 0.11933 0.45953 0.10466 0.0
C2037 C 0.15227 0.49955 0.08224 0.0
C2038 C 0.13836 0.52318 0.09826 0.0
H2039 H 0.15618 0.45101 0.07474 0.0
H2040 H 0.17166 0.50519 0.06857 0.0
S2041 S 0.0771 0.51231 0.15316 0.0
N2042 N 0.08306 0.47705 0.14063 0.0
N2043 N 0.10023 0.53554 0.13448 0.0
C2044 C 0.11403 0.5148 0.11668 0.0
C2045 C 0.10468 0.48303 0.11998 0.0
C2046 C 0.32123 0.38295 0.88849 0.0
C2047 C 0.33923 0.36746 0.86749 0.0
C2048 C 0.2986 0.40202 0.87918 0.0
C2049 C 0.29264 0.40617 0.84842 0.0
H2050 H 0.32599 0.38196 0.91251 0.0
H2051 H 0.28613 0.4142 0.89615 0.0
S2052 S 0.32831 0.36795 0.7842 0.0
N2053 N 0.34558 0.35479 0.81405 0.0
N2054 N 0.3034 0.39142 0.79709 0.0
C2055 C 0.30827 0.38914 0.82723 0.0
C2056 C 0.33133 0.36947 0.83659 0.0
C2057 C 0.3929 0.5165 0.61324 0.0
C2058 C 0.38385 0.54449 0.62572 0.0
C2059 C 0.374 0.4897 0.61448 0.0
C2060 C 0.34552 0.49033 0.62801 0.0
H2061 H 0.4151 0.51509 0.60371 0.0
H2062 H 0.38233 0.46816 0.60616 0.0
S2063 S 0.31 0.55897 0.65968 0.0
N2064 N 0.34364 0.57204 0.64908 0.0
N2065 N 0.3081 0.52174 0.65099 0.0
C2066 C 0.33568 0.51858 0.63883 0.0
C2067 C 0.35486 0.54568 0.63776 0.0
C2068 C 0.76319 0.14035 0.8137 0.0
C2069 C 0.78793 0.13445 0.83224 0.0
C2070 C 0.73648 0.15007 0.82641 0.0
C2071 C 0.734 0.15396 0.85795 0.0
H2072 H 0.7642 0.13628 0.78948 0.0
H2073 H 0.71717 0.153 0.81168 0.0
S2074 S 0.79388 0.14463 0.91552 0.0
N2075 N 0.80952 0.13566 0.88303 0.0
N2076 N 0.7591 0.15351 0.90705 0.0
C2077 C 0.75915 0.14957 0.87648 0.0
C2078 C 0.78627 0.13992 0.86355 0.0
C2079 C 0.88436 0.97327 0.41259 0.0
C2080 C 0.89391 0.97318 0.3824 0.0
C2081 C 0.86175 0.99228 0.42227 0.0
C2082 C 0.84741 1.01084 0.40184 0.0
H2083 H 0.89354 0.95771 0.42851 0.0
H2084 H 0.85501 0.99219 0.44566 0.0
S2085 S 0.86645 0.02139 0.32149 0.0
N2086 N 0.88982 0.99595 0.33326 0.0
N2087 N 0.8455 0.02963 0.3508 0.0
C2088 C 0.85729 1.01154 0.37189 0.0
C2089 C 0.88104 0.99323 0.36236 0.0
C2090 C 0.31518 0.64678 0.67038 0.0
C2091 C 0.33337 0.66084 0.64808 0.0
C2092 C 0.28524 0.63556 0.66436 0.0
C2093 C 0.27205 0.63686 0.6354 0.0
H2094 H 0.32434 0.64381 0.69288 0.0
H2095 H 0.27249 0.62568 0.6826 0.0
S2096 S 0.30932 0.67214 0.56886 0.0
N2097 N 0.33392 0.67888 0.59691 0.0
N2098 N 0.28086 0.65217 0.58343 0.0
C2099 C 0.29014 0.65064 0.61274 0.0
C2100 C 0.31977 0.66418 0.61965 0.0
C2101 C 0.28167 0.44433 0.1375 0.0
C2102 C 0.30617 0.42591 0.13299 0.0
C2103 C 0.25213 0.43121 0.13761 0.0
C2104 C 0.24623 0.39925 0.13313 0.0
H2105 H 0.28535 0.46912 0.13939 0.0
H2106 H 0.23364 0.44628 0.13994 0.0
S2107 S 0.3031 0.34124 0.1206 0.0
N2108 N 0.32305 0.37437 0.12441 0.0
N2109 N 0.26748 0.34948 0.12478 0.0
C2110 C 0.27073 0.38045 0.12987 0.0
C2111 C 0.30077 0.39388 0.1297 0.0
C2112 C 0.67135 0.89384 0.48402 0.0
C2113 C 0.65159 0.90673 0.46341 0.0
C2114 C 0.6608 0.87254 0.50471 0.0
C2115 C 0.62991 0.8639 0.50637 0.0
H2116 H 0.69544 0.89918 0.48327 0.0
H2117 H 0.67701 0.86279 0.51966 0.0
S2118 S 0.5681 0.89541 0.4624 0.0
N2119 N 0.59904 0.912 0.44866 0.0
N2120 N 0.5793 0.87314 0.48938 0.0
C2121 C 0.6096 0.87874 0.48817 0.0
C2122 C 0.62037 0.90001 0.46639 0.0
C2123 C 0.34394 0.32222 0.72375 0.0
C2124 C 0.33894 0.34954 0.70845 0.0
C2125 C 0.36889 0.3198 0.74369 0.0
C2126 C 0.39026 0.34458 0.74935 0.0
H2127 H 0.32784 0.30268 0.72093 0.0
H2128 H 0.37101 0.29861 0.75547 0.0
S2129 S 0.38861 0.421 0.71416 0.0
N2130 N 0.35821 0.40174 0.70005 0.0
N2131 N 0.40506 0.39728 0.73675 0.0
C2132 C 0.38613 0.37177 0.73339 0.0
C2133 C 0.36044 0.37431 0.71339 0.0
C2134 C 0.89607 0.18106 0.99723 0.0
C2135 C 0.92339 0.17596 0.01203 0.0
C2136 C 0.89169 0.17341 0.96664 0.0
C2137 C 0.91496 0.16142 0.9494 0.0
H2138 H 0.87684 0.18744 1.0103 0.0
H2139 H 0.86918 0.17486 0.95723 0.0
S2140 S 0.99319 0.15119 0.97666 0.0
N2141 N 0.97527 0.16257 1.0071 0.0
N2142 N 0.96826 0.15063 0.94848 0.0
C2143 C 0.94364 0.15994 0.96328 0.0
C2144 C 0.94769 0.16698 0.99482 0.0
C2145 C 0.15584 0.62779 0.22042 0.0
C2146 C 0.14109 0.64399 0.19795 0.0
C2147 C 0.1461 0.62826 0.25072 0.0
C2148 C 0.1209 0.6445 0.2594 0.0
H2149 H 0.17397 0.61331 0.21422 0.0
H2150 H 0.15736 0.61473 0.26711 0.0
S2151 S 0.07465 0.69124 0.21085 0.0
N2152 N 0.10038 0.67787 0.18825 0.0
N2153 N 0.0822 0.67769 0.2443 0.0
C2154 C 0.10672 0.66149 0.23783 0.0
C2155 C 0.11671 0.66144 0.20732 0.0
C2156 C 0.6493 0.12885 1.00141 0.0
C2157 C 0.62019 0.13967 0.99927 0.0
C2158 C 0.65967 0.11593 0.02812 0.0
C2159 C 0.64103 0.11218 0.05341 0.0
H2160 H 0.66464 0.13191 0.98286 0.0
H2161 H 0.68305 0.11012 0.0295 0.0
S2162 S 0.56069 0.13214 0.05613 0.0
N2163 N 0.57194 0.1437 0.02286 0.0
N2164 N 0.58991 0.11652 0.07188 0.0
C2165 C 0.61077 0.12034 0.05014 0.0
C2166 C 0.60079 0.1349 0.02341 0.0
C2167 C 0.13391 0.35932 0.24691 0.0
C2168 C 0.10563 0.3696 0.23809 0.0
C2169 C 0.14283 0.35988 0.27736 0.0
C2170 C 0.12378 0.37103 0.29959 0.0
H2171 H 0.14991 0.35244 0.23016 0.0
H2172 H 0.16522 0.35316 0.28339 0.0
S2173 S 0.04574 0.39501 0.28912 0.0
N2174 N 0.05704 0.38648 0.25468 0.0
N2175 N 0.07446 0.38878 0.3118 0.0
C2176 C 0.09481 0.37925 0.29139 0.0
C2177 C 0.08554 0.37822 0.2606 0.0
C2178 C 0.96269 0.92647 0.51632 0.0
C2179 C 0.9459 0.92223 0.5429 0.0
C2180 C 0.95649 0.9086 0.48931 0.0
C2181 C 0.93351 0.88479 0.4874 0.0
H2182 H 0.98125 0.94371 0.51645 0.0
H2183 H 0.96995 0.91363 0.46978 0.0
S2184 S 0.88438 0.86224 0.55151 0.0
N2185 N 0.90567 0.89167 0.56562 0.0
N2186 N 0.89516 0.85698 0.51636 0.0
C2187 C 0.91689 0.87993 0.5142 0.0
C2188 C 0.92274 0.8988 0.5414 0.0
C2189 C 0.38371 0.67449 0.74589 0.0
C2190 C 0.41551 0.6727 0.74713 0.0
C2191 C 0.36516 0.6639 0.76931 0.0
C2192 C 0.37742 0.65094 0.79512 0.0
H2193 H 0.37254 0.68343 0.72649 0.0
H2194 H 0.34098 0.66526 0.7668 0.0
S2195 S 0.4587 0.64437 0.81194 0.0
N2196 N 0.45799 0.65979 0.7786 0.0
N2197 N 0.42335 0.63961 0.82189 0.0
C2198 C 0.40901 0.65025 0.79733 0.0
C2199 C 0.42791 0.66122 0.77369 0.0
C2200 C 0.45921 0.59621 0.87431 0.0
C2201 C 0.48421 0.60888 0.89107 0.0
C2202 C 0.42971 0.59948 0.88442 0.0
C2203 C 0.42394 0.61604 0.91145 0.0
H2204 H 0.46247 0.58535 0.85233 0.0
H2205 H 0.41151 0.59086 0.86964 0.0
S2206 S 0.48176 0.64839 0.96625 0.0
N2207 N 0.50159 0.63428 0.93824 0.0
N2208 N 0.44592 0.64139 0.95663 0.0
C2209 C 0.44884 0.62628 0.92964 0.0
C2210 C 0.47901 0.62252 0.91959 0.0
C2211 C 0.69683 0.2715 0.09653 0.0
C2212 C 0.67784 0.29568 0.10176 0.0
C2213 C 0.69108 0.24303 0.10982 0.0
C2214 C 0.66603 0.23809 0.12839 0.0
H2215 H 0.71598 0.27464 0.08193 0.0
H2216 H 0.70568 0.22447 0.10477 0.0
S2217 S 0.61004 0.29451 0.14932 0.0
N2218 N 0.63379 0.31345 0.12734 0.0
N2219 N 0.62243 0.25953 0.15162 0.0
C2220 C 0.6472 0.26226 0.13413 0.0
C2221 C 0.65329 0.29128 0.12098 0.0
C2222 C 1.0051 0.40515 0.38948 0.0
C2223 C 0.99101 0.42973 0.40395 0.0
C2224 C 0.03313 0.39575 0.39966 0.0
C2225 C 0.04834 0.41052 0.42472 0.0
H2226 H 0.99512 0.39399 0.3692 0.0
H2227 H 0.0444 0.37896 0.38593 0.0
S2228 S 0.01951 0.47272 0.47331 0.0
N2229 N 0.99284 0.46587 0.44706 0.0
N2230 N 0.04591 0.44849 0.46568 0.0
C2231 C 0.03334 0.43305 0.44102 0.0
C2232 C 1.00459 0.44259 0.43078 0.0
C2233 C 0.89219 0.802 0.60967 0.0
C2234 C 0.91232 0.80818 0.63416 0.0
C2235 C 0.88738 0.77222 0.59735 0.0
C2236 C 0.90191 0.74781 0.60986 0.0
H2237 H 0.88107 0.82054 0.59931 0.0
H2238 H 0.87271 0.76821 0.57765 0.0
S2239 S 0.95427 0.75156 0.67599 0.0
N2240 N 0.94557 0.78761 0.67162 0.0
N2241 N 0.93528 0.73085 0.64925 0.0
C2242 C 0.92056 0.75328 0.63558 0.0
C2243 C 0.92607 0.7838 0.64764 0.0
C2244 C 0.49468 0.41162 0.68003 0.0
C2245 C 0.51148 0.38626 0.68668 0.0
C2246 C 0.46447 0.40742 0.66988 0.0
C2247 C 0.45039 0.37766 0.66525 0.0
H2248 H 0.50562 0.43448 0.68038 0.0
H2249 H 0.45252 0.4276 0.66448 0.0
S2250 S 0.48558 0.30403 0.68058 0.0
N2251 N 0.51158 0.33102 0.69083 0.0
N2252 N 0.45653 0.32259 0.66865 0.0
C2253 C 0.4669 0.35234 0.67323 0.0
C2254 C 0.4969 0.35683 0.6849 0.0
C2255 C 0.86189 0.25361 0.87211 0.0
C2256 C 0.88411 0.27624 0.88231 0.0
C2257 C 0.86855 0.23028 0.8503 0.0
C2258 C 0.89778 0.22862 0.83818 0.0
H2259 H 0.83985 0.25296 0.88221 0.0
H2260 H 0.8513 0.21243 0.84467 0.0
S2261 S 0.96152 0.28636 0.85265 0.0
N2262 N 0.93461 0.29823 0.87463 0.0
N2263 N 0.94703 0.25505 0.83459 0.0
C2264 C 0.91874 0.25322 0.8459 0.0
C2265 C 0.91206 0.27663 0.86783 0.0
C2266 C 1.0064 0.63769 0.12927 0.0
C2267 C 0.02705 0.62071 0.11288 0.0
C2268 C 0.9835 0.62293 0.14534 0.0
C2269 C 0.97992 0.59075 0.14487 0.0
H2270 H 1.00886 0.66258 0.13106 0.0
H2271 H 0.969 0.63668 0.15903 0.0
S2272 S 0.02335 0.53551 0.10117 0.0
N2273 N 0.03989 0.5695 0.0946 0.0
N2274 N 0.99512 0.54228 0.12379 0.0
C2275 C 0.99815 0.57346 0.12644 0.0
C2276 C 0.02209 0.58834 0.1105 0.0
C2277 C 0.71813 0.79114 0.36759 0.0
C2278 C 0.7006 0.78953 0.39374 0.0
C2279 C 0.71487 0.81428 0.34669 0.0
C2280 C 0.69443 0.83758 0.35103 0.0
H2281 H 0.73562 0.77523 0.36372 0.0
H2282 H 0.73056 0.81554 0.32826 0.0
S2283 S 0.63773 0.84009 0.4115 0.0
N2284 N 0.65743 0.8102 0.41936 0.0
N2285 N 0.65259 0.85454 0.38073 0.0
C2286 C 0.67462 0.83473 0.37536 0.0
C2287 C 0.67759 0.81074 0.39666 0.0
C2288 C 0.90371 0.46505 0.616 0.0
C2289 C 0.88581 0.44975 0.63747 0.0
C2290 C 0.89528 0.49288 0.60404 0.0
C2291 C 0.86833 0.50591 0.61256 0.0
H2292 H 0.9246 0.45576 0.60868 0.0
H2293 H 0.9098 0.50424 0.58794 0.0
S2294 S 0.8144 0.47652 0.6689 0.0
N2295 N 0.84049 0.45098 0.66761 0.0
N2296 N 0.82454 0.50256 0.64431 0.0
C2297 C 0.85028 0.49097 0.6338 0.0
C2298 C 0.85905 0.46308 0.64646 0.0
C2299 C 0.40368 0.02668 0.38884 0.0
C2300 C 0.39148 1.01581 0.4157 0.0
C2301 C 0.41363 0.05756 0.3866 0.0
C2302 C 0.41159 0.07879 0.41109 0.0
H2303 H 0.40399 1.01148 0.36899 0.0
H2304 H 0.42095 0.06539 0.36479 0.0
S2305 S 0.38292 0.0607 0.48711 0.0
N2306 N 0.37947 0.02749 0.46782 0.0
N2307 N 0.39804 0.08586 0.46382 0.0
C2308 C 0.40125 0.06761 0.43878 0.0
C2309 C 0.39112 0.03598 0.441 0.0
C2310 C 0.23188 0.11658 0.68051 0.0
C2311 C 0.24903 0.11223 0.65454 0.0
C2312 C 0.2091 0.13769 0.68124 0.0
C2313 C 0.20286 0.15561 0.65611 0.0
H2314 H 0.23578 0.10308 0.70017 0.0
H2315 H 0.19551 0.13904 0.70127 0.0
S2316 S 0.24517 0.15634 0.58455 0.0
N2317 N 0.26077 0.12978 0.60444 0.0
N2318 N 0.21827 0.16972 0.60575 0.0
C2319 C 0.22106 0.15251 0.63058 0.0
C2320 C 0.24403 0.13079 0.6298 0.0
C2321 C 0.17673 1.00174 0.89314 0.0
C2322 C 0.15235 0.99195 0.91108 0.0
C2323 C 0.1897 0.03173 0.89616 0.0
C2324 C 0.17938 0.05287 0.91766 0.0
H2325 H 0.18499 0.98663 0.8756 0.0
H2326 H 0.20615 0.03937 0.87985 0.0
S2327 S 0.11956 0.03854 0.97317 0.0
N2328 N 0.1203 1.00589 0.95321 0.0
N2329 N 0.14623 0.06164 0.95935 0.0
C2330 C 0.15735 0.04273 0.93774 0.0
C2331 C 0.1434 1.01243 0.93432 0.0
C2332 C 0.79272 0.39322 0.65635 0.0
C2333 C 0.79997 0.36432 0.66732 0.0
C2334 C 0.76856 0.40926 0.66738 0.0
C2335 C 0.75067 0.39812 0.69085 0.0
H2336 H 0.80617 0.40446 0.63941 0.0
H2337 H 0.76382 0.43069 0.65709 0.0
S2338 S 0.75599 0.32155 0.72481 0.0
N2339 N 0.78336 0.32304 0.70004 0.0
N2340 N 0.74006 0.35484 0.72319 0.0
C2341 C 0.75659 0.36875 0.70148 0.0
C2342 C 0.78069 0.35163 0.68928 0.0
C2343 C 0.63464 0.58117 0.11434 0.0
C2344 C 0.62227 0.5796 0.14342 0.0
C2345 C 0.65189 0.55737 0.10263 0.0
C2346 C 0.65645 0.53103 0.11931 0.0
H2347 H 0.63351 0.60208 0.10189 0.0
H2348 H 0.66315 0.56033 0.08135 0.0
S2349 S 0.62234 0.51256 0.19271 0.0
N2350 N 0.61167 0.54751 0.18609 0.0
N2351 N 0.64283 0.50249 0.16359 0.0
C2352 C 0.64137 0.52785 0.14673 0.0
C2353 C 0.62448 0.55219 0.15887 0.0
C2354 C 0.22747 0.91381 0.90575 0.0
C2355 C 0.25391 0.9033 0.89279 0.0
C2356 C 0.19905 0.89916 0.89881 0.0
C2357 C 0.19591 0.87325 0.87886 0.0
H2358 H 0.22862 0.93422 0.92048 0.0
H2359 H 0.17922 0.90916 0.90792 0.0
S2360 S 0.25793 0.83439 0.84145 0.0
N2361 N 0.27507 0.8634 0.86113 0.0
N2362 N 0.22154 0.83668 0.84759 0.0
C2363 C 0.2221 0.86179 0.86668 0.0
C2364 C 0.2511 0.87656 0.87378 0.0
C2365 C 0.25919 0.14311 0.41834 0.0
C2366 C 0.28017 0.14293 0.39503 0.0
C2367 C 0.23101 0.12735 0.41468 0.0
C2368 C 0.22298 0.11058 0.38773 0.0
H2369 H 0.26514 0.15439 0.43999 0.0
H2370 H 0.21571 0.12731 0.43346 0.0
S2371 S 0.26924 0.10438 0.31946 0.0
N2372 N 0.29065 0.12602 0.34364 0.0
N2373 N 0.23727 0.09629 0.33683 0.0
C2374 C 0.24303 0.11159 0.3637 0.0
C2375 C 0.27182 0.12775 0.36738 0.0
C2376 C 0.34787 0.14326 0.56879 0.0
C2377 C 0.36804 0.12778 0.58711 0.0
C2378 C 0.35727 0.15792 0.54247 0.0
C2379 C 0.38733 0.15779 0.53297 0.0
H2380 H 0.32448 0.1445 0.57503 0.0
H2381 H 0.34085 0.16968 0.52945 0.0
S2382 S 0.44968 0.12168 0.57258 0.0
N2383 N 0.42004 0.11403 0.59369 0.0
N2384 N 0.43739 0.14115 0.54388 0.0
C2385 C 0.40773 0.14203 0.55053 0.0
C2386 C 0.39821 0.12719 0.57764 0.0
C2387 C 0.67362 0.68963 0.2985 0.0
C2388 C 0.67024 0.67582 0.32666 0.0
C2389 C 0.65353 0.68208 0.27405 0.0
C2390 C 0.62873 0.66075 0.2768 0.0
H2391 H 0.69122 0.7075 0.29575 0.0
H2392 H 0.65708 0.69362 0.25306 0.0
S2393 S 0.60772 0.62063 0.34627 0.0
N2394 N 0.6394 0.64043 0.35588 0.0
N2395 N 0.60112 0.62733 0.31046 0.0
C2396 C 0.62527 0.64653 0.30465 0.0
C2397 C 0.64607 0.6538 0.3294 0.0
C2398 C 0.09857 0.85042 0.06 0.0
C2399 C 0.09904 0.8823 0.06646 0.0
C2400 C 0.09585 0.83879 0.03039 0.0
C2401 C 0.09312 0.8586 1.00646 0.0
H2402 H 0.10262 0.8345 0.07765 0.0
H2403 H 0.09883 0.81456 0.02583 0.0
S2404 S 0.08844 0.94336 1.01144 0.0
N2405 N 0.09341 0.93327 0.0467 0.0
N2406 N 0.08687 0.9109 0.991 0.0
C2407 C 0.09005 0.89008 0.01279 0.0
C2408 C 0.09344 0.90214 0.04291 0.0
C2409 C 0.91765 0.40171 0.79298 0.0
C2410 C 0.90474 0.39039 0.76525 0.0
C2411 C 0.90212 0.39786 0.82026 0.0
C2412 C 0.87346 0.38212 0.82053 0.0
H2413 H 0.94028 0.41234 0.79369 0.0
H2414 H 0.91321 0.40599 0.84114 0.0
S2415 S 0.8269 0.35652 0.75347 0.0
N2416 N 0.85918 0.36931 0.7394 0.0
N2417 N 0.83075 0.36115 0.79039 0.0
C2418 C 0.85938 0.37382 0.79269 0.0
C2419 C 0.87485 0.37803 0.76514 0.0
C2420 C 0.36291 0.85686 0.98203 0.0
C2421 C 0.37979 0.88179 0.97003 0.0
C2422 C 0.37162 0.8435 1.00895 0.0
C2423 C 0.39793 0.85405 0.02521 0.0
H2424 H 0.34246 0.84749 0.97068 0.0
H2425 H 0.35711 0.82502 0.0173 0.0
S2426 S 0.45092 0.91824 1.00355 0.0
N2427 N 0.42417 0.91676 0.9771 0.0
N2428 N 0.4415 0.89048 0.02666 0.0
C2429 C 0.41534 0.87875 0.01342 0.0
C2430 C 0.40606 0.89285 0.98618 0.0
C2431 C 0.92929 0.66922 0.76814 0.0
C2432 C 0.90836 0.66381 0.79109 0.0
C2433 C 0.92158 0.66301 0.73766 0.0
C2434 C 0.8926 0.65093 0.72875 0.0
H2435 H 0.95215 0.67756 0.77394 0.0
H2436 H 0.93875 0.66702 0.72093 0.0
S2437 S 0.82921 0.63339 0.77994 0.0
N2438 N 0.85706 0.64666 0.80284 0.0
N2439 N 0.84252 0.63476 0.74537 0.0
C2440 C 0.87099 0.64666 0.75133 0.0
C2441 C 0.87887 0.65313 0.78253 0.0
C2442 C 0.04852 0.1322 0.50828 0.0
C2443 C 0.06884 0.10882 0.50723 0.0
C2444 C 0.03715 0.14226 0.53567 0.0
C2445 C 0.04693 0.13017 0.56294 0.0
H2446 H 0.04289 0.14394 0.48797 0.0
H2447 H 0.02284 0.16161 0.53581 0.0
S2448 S 0.09651 0.06438 0.57045 0.0
N2449 N 0.09487 0.07023 0.53385 0.0
N2450 N 0.0753 0.09015 0.58633 0.0
C2451 C 0.06528 0.10458 0.56167 0.0
C2452 C 0.07605 0.09381 0.53344 0.0
C2453 C 0.61051 0.38745 0.21847 0.0
C2454 C 0.64209 0.38529 0.21589 0.0
C2455 C 0.59492 0.37771 0.24398 0.0
C2456 C 0.60954 0.3639 0.26798 0.0
H2457 H 0.59716 0.39713 0.20091 0.0
H2458 H 0.57116 0.38183 0.24516 0.0
S2459 S 0.68907 0.3413 0.26812 0.0
N2460 N 0.686 0.36242 0.2382 0.0
N2461 N 0.65521 0.33954 0.28271 0.0
C2462 C 0.63979 0.35687 0.26359 0.0
C2463 C 0.6564 0.36865 0.23852 0.0
C2464 C 0.57998 0.3963 0.12082 0.0
C2465 C 0.59588 0.41502 0.10031 0.0
C2466 C 0.5554 0.40656 0.13679 0.0
C2467 C 0.54499 0.43622 0.13338 0.0
H2468 H 0.58684 0.3734 0.12539 0.0
H2469 H 0.54421 0.39057 0.15168 0.0
S2470 S 0.57704 0.49432 0.08158 0.0
N2471 N 0.59799 0.46447 0.07633 0.0
N2472 N 0.55208 0.4842 0.10719 0.0
C2473 C 0.56006 0.45521 0.11258 0.0
C2474 C 0.58534 0.44457 0.09598 0.0
C2475 C 0.32919 0.77069 0.90633 0.0
C2476 C 0.34939 0.74726 0.9033 0.0
C2477 C 0.33382 0.79799 0.89078 0.0
C2478 C 0.3587 0.80228 0.87177 0.0
H2479 H 0.31063 0.76833 0.92177 0.0
H2480 H 0.31913 0.81662 0.89527 0.0
S2481 S 0.415 0.74542 0.85303 0.0
N2482 N 0.39267 0.72812 0.87749 0.0
N2483 N 0.40173 0.77973 0.84847 0.0
C2484 C 0.37772 0.77804 0.86706 0.0
C2485 C 0.37297 0.75036 0.88281 0.0
C2486 C 0.97523 0.5873 0.61642 0.0
C2487 C 0.97305 0.61442 0.59994 0.0
C2488 C 1.00262 0.58022 0.63098 0.0
C2489 C 0.02895 0.59969 0.62925 0.0
H2490 H 0.95534 0.57249 0.6199 0.0
H2491 H 1.00292 0.5601 0.64469 0.0
S2492 S 0.0358 0.67173 0.58662 0.0
N2493 N 1.0005 0.65893 0.58057 0.0
N2494 N 0.05072 0.64653 0.6086 0.0
C2495 C 0.02725 0.62574 0.61144 0.0
C2496 C 0.99974 0.6327 0.59648 0.0
C2497 C 0.14809 0.25119 0.39674 0.0
C2498 C 0.12496 0.25767 0.41695 0.0
C2499 C 0.14985 0.22166 0.38266 0.0
C2500 C 0.12835 0.19707 0.3876 0.0
H2501 H 0.16466 0.26924 0.39127 0.0
H2502 H 0.16846 0.21809 0.36769 0.0
S2503 S 0.06413 0.20143 0.43983 0.0
N2504 N 0.08111 0.23611 0.44262 0.0
N2505 N 0.08326 0.18186 0.41484 0.0
C2506 C 0.10502 0.20338 0.40765 0.0
C2507 C 0.10369 0.23318 0.42261 0.0
C2508 C 0.54031 0.6612 0.391 0.0
C2509 C 0.56646 0.67716 0.38124 0.0
C2510 C 0.51544 0.65534 0.37151 0.0
C2511 C 0.5159 0.66484 0.34133 0.0
H2512 H 0.53905 0.65306 0.41383 0.0
H2513 H 0.49566 0.64341 0.38035 0.0
S2514 S 0.57834 0.70868 0.30494 0.0
N2515 N 0.59091 0.70343 0.33955 0.0
N2516 N 0.54421 0.69177 0.303 0.0
C2517 C 0.54157 0.68145 0.33151 0.0
C2518 C 0.56681 0.68777 0.35141 0.0
C2519 C 0.17607 0.80376 0.18474 0.0
C2520 C 0.15236 0.82425 0.18472 0.0
C2521 C 0.17637 0.77779 0.1646 0.0
C2522 C 0.15302 0.77081 0.14312 0.0
H2523 H 0.19488 0.80785 0.20052 0.0
H2524 H 0.19534 0.76325 0.16562 0.0
S2525 S 0.08333 0.81386 0.136 0.0
N2526 N 0.10341 0.83349 0.16261 0.0
N2527 N 0.1039 0.78518 0.12509 0.0
C2528 C 0.12876 0.79058 0.1432 0.0
C2529 C 0.12846 0.81706 0.16379 0.0
C2530 C 0.0338 0.4136 0.82906 0.0
C2531 C 0.06099 0.41945 0.84547 0.0
C2532 C 1.00636 0.40883 0.84371 0.0
C2533 C 1.00484 0.40945 0.87549 0.0
H2534 H 0.03382 0.41231 0.8046 0.0
H2535 H 0.98612 0.40422 0.82993 0.0
S2536 S 0.06945 0.42433 0.92927 0.0
N2537 N 0.08461 0.42613 0.89554 0.0
N2538 N 0.03295 0.41716 0.92303 0.0
C2539 C 0.03169 0.41626 0.89231 0.0
C2540 C 0.05977 0.4212 0.87733 0.0
C2541 C 0.31617 0.20892 0.66085 0.0
C2542 C 0.34582 0.2092 0.67288 0.0
C2543 C 0.30762 0.23169 0.64118 0.0
C2544 C 0.32876 0.25458 0.63227 0.0
H2545 H 0.29998 0.19014 0.6653 0.0
H2546 H 0.28478 0.23091 0.63212 0.0
S2547 S 0.40796 0.26686 0.65924 0.0
N2548 N 0.39496 0.23645 0.67712 0.0
N2549 N 0.37969 0.27731 0.63797 0.0
C2550 C 0.35796 0.25569 0.64493 0.0
C2551 C 0.36624 0.23353 0.66586 0.0
C2552 C 0.12247 0.50698 0.39266 0.0
C2553 C 0.13758 0.50705 0.4209 0.0
C2554 C 0.11125 0.53415 0.38111 0.0
C2555 C 0.11379 0.56267 0.39747 0.0
H2556 H 0.12063 0.48604 0.37871 0.0
H2557 H 0.10162 0.53309 0.35842 0.0
S2558 S 0.15049 0.57415 0.47368 0.0
N2559 N 0.15435 0.53743 0.46514 0.0
N2560 N 0.13135 0.58775 0.4452 0.0
C2561 C 0.12735 0.56234 0.42675 0.0
C2562 C 0.13972 0.5348 0.43794 0.0
C2563 C 0.63472 0.9748 0.56961 0.0
C2564 C 0.62616 0.95436 0.59267 0.0
C2565 C 0.64149 1.00647 0.57571 0.0
C2566 C 0.64087 0.019 0.60531 0.0
H2567 H 0.6362 0.96635 0.54642 0.0
H2568 H 0.64667 0.02126 0.5571 0.0
S2569 S 0.6208 0.97612 0.67408 0.0
N2570 N 0.61533 0.95051 0.64596 0.0
N2571 N 0.63362 1.00786 0.65833 0.0
C2572 C 0.63348 0.99868 0.62865 0.0
C2573 C 0.62456 0.96707 0.62212 0.0
C2574 C 0.83982 0.889 0.36423 0.0
C2575 C 0.8381 0.86188 0.34593 0.0
C2576 C 0.81891 0.91203 0.36076 0.0
C2577 C 0.79502 0.90924 0.33885 0.0
H2578 H 0.85819 0.89319 0.38051 0.0
H2579 H 0.82217 0.93239 0.3753 0.0
S2580 S 0.7803 0.84101 0.28601 0.0
N2581 N 0.80893 0.83193 0.30735 0.0
N2582 N 0.77276 0.87603 0.29765 0.0
C2583 C 0.79336 0.88184 0.32045 0.0
C2584 C 0.81367 0.8579 0.32517 0.0
C2585 C 0.8824 0.98714 0.11752 0.0
C2586 C 0.85203 0.98743 0.12611 0.0
C2587 C 0.9013 1.01403 0.11978 0.0
C2588 C 0.89024 0.04183 0.13062 0.0
H2589 H 0.892 0.9657 0.11077 0.0
H2590 H 0.92493 1.01268 0.11453 0.0
S2591 S 0.81092 0.05513 0.15051 0.0
N2592 N 0.81093 0.01789 0.14219 0.0
N2593 N 0.84581 0.06882 0.14552 0.0
C2594 C 0.85922 0.04271 0.13681 0.0
C2595 C 0.84028 1.01536 0.13484 0.0
C2596 C 0.28315 0.65082 0.33735 0.0
C2597 C 0.28493 0.6199 0.32733 0.0
C2598 C 0.25646 0.66165 0.34892 0.0
C2599 C 0.23059 0.6419 0.35036 0.0
H2600 H 0.30276 0.66646 0.33734 0.0
H2601 H 0.25634 0.68519 0.35767 0.0
S2602 S 0.22103 0.56161 0.31973 0.0
N2603 N 0.25697 0.57153 0.31469 0.0
N2604 N 0.20651 0.59195 0.33598 0.0
C2605 C 0.23121 0.61184 0.33791 0.0
C2606 C 0.25843 0.60081 0.32642 0.0
C2607 C 0.36132 0.49656 0.91765 0.0
C2608 C 0.34819 0.51538 0.89653 0.0
C2609 C 0.38329 0.47629 0.90883 0.0
C2610 C 0.39313 0.47491 0.87879 0.0
H2611 H 0.35399 0.4971 0.94085 0.0
H2612 H 0.39155 0.46063 0.92518 0.0
S2613 S 0.36935 0.52314 0.81636 0.0
N2614 N 0.34885 0.53374 0.84527 0.0
N2615 N 0.39062 0.49622 0.82894 0.0
C2616 C 0.38154 0.49505 0.85807 0.0
C2617 C 0.35892 0.51516 0.86686 0.0
C2618 C 0.78148 0.15067 0.16069 0.0
C2619 C 0.77347 0.12976 0.13652 0.0
C2620 C 0.8107 0.16476 0.16371 0.0
C2621 C 0.83333 0.15902 0.14263 0.0
H2622 H 0.7657 0.15482 0.1785 0.0
H2623 H 0.81626 0.17866 0.18402 0.0
S2624 S 0.82224 0.10978 0.07249 0.0
N2625 N 0.78936 0.10689 0.08912 0.0
N2626 N 0.84363 0.1335 0.09459 0.0
C2627 C 0.82463 0.14019 0.11703 0.0
C2628 C 0.79496 0.1255 0.11408 0.0
C2629 C 0.75599 0.92438 0.62528 0.0
C2630 C 0.75141 0.89361 0.63385 0.0
C2631 C 0.78469 0.93918 0.62611 0.0
C2632 C 0.80993 0.92409 0.63601 0.0
H2633 H 0.73738 0.93678 0.61663 0.0
H2634 H 0.78745 0.9622 0.61763 0.0
S2635 S 0.80976 0.84532 0.6655 0.0
N2636 N 0.7742 0.84971 0.65581 0.0
N2637 N 0.8283 0.87803 0.65795 0.0
C2638 C 0.80544 0.89438 0.64732 0.0
C2639 C 0.7761 0.87903 0.64615 0.0
C2640 C 0.98814 0.27578 0.11521 0.0
C2641 C 0.99303 0.24706 0.12798 0.0
C2642 C 1.01191 0.2992 0.11366 0.0
C2643 C 0.04145 0.29467 0.1247 0.0
H2644 H 0.96636 0.27967 0.10513 0.0
H2645 H 1.0074 0.32043 0.10281 0.0
S2646 S 0.06478 0.22471 0.16347 0.0
N2647 N 0.029 0.21704 0.15437 0.0
N2648 N 0.07266 0.25952 0.15132 0.0
C2649 C 0.04575 0.26654 0.13889 0.0
C2650 C 0.0219 0.24325 0.14055 0.0
C2651 C 0.03014 0.74309 0.34987 0.0
C2652 C 0.02839 0.71865 0.37019 0.0
C2653 C 1.00892 0.76604 0.34917 0.0
C2654 C 0.98407 0.76633 0.36854 0.0
H2655 H 0.04922 0.74555 0.33506 0.0
H2656 H 1.01308 0.78496 0.33422 0.0
S2657 S 0.96631 0.70647 0.42452 0.0
N2658 N 0.99768 0.69517 0.40905 0.0
N2659 N 0.95781 0.73833 0.40768 0.0
C2660 C 0.98064 0.74107 0.38782 0.0
C2661 C 1.0026 0.71733 0.3886 0.0
C2662 C 0.51507 0.80159 0.64625 0.0
C2663 C 0.53445 0.80563 0.62153 0.0
C2664 C 0.49096 0.77868 0.64544 0.0
C2665 C 0.48554 0.75856 0.62002 0.0
H2666 H 0.52005 0.81453 0.66723 0.0
H2667 H 0.47836 0.77486 0.66583 0.0
S2668 S 0.52909 0.76004 0.5492 0.0
N2669 N 0.54547 0.78821 0.57059 0.0
N2670 N 0.50102 0.74541 0.56914 0.0
C2671 C 0.50376 0.76362 0.5947 0.0
C2672 C 0.52795 0.78698 0.59543 0.0
C2673 C 0.48275 0.24326 0.85346 0.0
C2674 C 0.48292 0.26629 0.87681 0.0
C2675 C 0.50322 0.21905 0.85382 0.0
C2676 C 0.52438 0.2163 0.87781 0.0
H2677 H 0.46853 0.24536 0.8336 0.0
H2678 H 0.50394 0.20371 0.83411 0.0
S2679 S 0.53322 0.2697 0.94492 0.0
N2680 N 0.50564 0.28364 0.92502 0.0
N2681 N 0.54294 0.23869 0.92583 0.0
C2682 C 0.52339 0.23822 0.90187 0.0
C2683 C 0.50303 0.26287 0.90137 0.0
C2684 C 0.1252 0.98024 0.29187 0.0
C2685 C 0.1173 0.98622 0.26186 0.0
C2686 C 0.12256 1.00267 0.31535 0.0
C2687 C 0.11217 0.03231 0.31006 0.0
H2688 H 0.13316 0.95799 0.29738 0.0
H2689 H 0.12855 0.99652 0.33811 0.0
S2690 S 0.08825 0.05999 0.23577 0.0
N2691 N 0.09834 0.02465 0.22836 0.0
N2692 N 0.09391 0.06612 0.27246 0.0
C2693 C 0.10469 0.03881 0.28022 0.0
C2694 C 0.10706 1.01598 0.25625 0.0
C2695 C 0.27319 0.88858 0.47597 0.0
C2696 C 0.29981 0.90793 0.4768 0.0
C2697 C 0.24988 0.8928 0.49714 0.0
C2698 C 0.25202 0.91689 0.51949 0.0
H2699 H 0.27134 0.86876 0.46046 0.0
H2700 H 0.2311 0.87584 0.49737 0.0
S2701 S 0.31535 0.97559 0.52946 0.0
N2702 N 0.32527 0.95366 0.50057 0.0
N2703 N 0.28208 0.96112 0.53968 0.0
C2704 C 0.27753 0.93734 0.51912 0.0
C2705 C 0.30114 0.93306 0.49795 0.0
C2706 C 0.3735 0.03848 0.79066 0.0
C2707 C 0.35747 0.03534 0.76271 0.0
C2708 C 0.37533 1.01377 0.81035 0.0
C2709 C 0.36133 0.98464 0.80299 0.0
H2710 H 0.38561 0.06005 0.79712 0.0
H2711 H 0.3888 0.0172 0.83095 0.0
S2712 S 0.31301 0.96505 0.73499 0.0
N2713 N 0.32485 1.00122 0.73043 0.0
N2714 N 0.32843 0.95492 0.76715 0.0
C2715 C 0.34425 0.98146 0.77578 0.0
C2716 C 0.3423 1.00667 0.75575 0.0
C2717 C 0.30424 0.17096 0.97807 0.0
C2718 C 0.27957 0.15008 0.97038 0.0
C2719 C 0.32732 0.16349 0.99898 0.0
C2720 C 0.32709 0.13466 0.01293 0.0
H2721 H 0.3044 0.19417 0.96996 0.0
H2722 H 0.3441 0.18138 1.00614 0.0
S2723 S 0.26826 0.07152 1.00015 0.0
N2724 N 0.25736 0.09886 0.97815 0.0
N2725 N 0.30013 0.08513 0.01657 0.0
C2726 C 0.30343 0.11321 1.00413 0.0
C2727 C 0.27998 0.1208 0.98318 0.0
C2728 C 0.75862 0.43317 0.9985 0.0
C2729 C 0.74924 0.40839 0.01648 0.0
C2730 C 0.78116 0.43006 0.97629 0.0
C2731 C 0.7949 0.4019 0.97046 0.0
H2732 H 0.75039 0.45575 1.00329 0.0
H2733 H 0.7894 0.45048 0.965 0.0
S2734 S 0.77725 0.32957 1.0101 0.0
N2735 N 0.75478 0.35431 0.02572 0.0
N2736 N 0.79617 0.34859 0.98417 0.0
C2737 C 0.78432 0.37662 0.98704 0.0
C2738 C 0.7618 0.37984 1.00985 0.0
C2739 C 0.88022 0.53627 0.28931 0.0
C2740 C 0.86136 0.5381 0.26347 0.0
C2741 C 0.87716 0.51142 0.30894 0.0
C2742 C 0.85496 0.48734 0.30372 0.0
H2743 H 0.89798 0.5539 0.29411 0.0
H2744 H 0.89266 0.51086 0.32806 0.0
S2745 S 0.79763 0.48299 0.24113 0.0
N2746 N 0.81848 0.51466 0.23497 0.0
N2747 N 0.81223 0.46847 0.27173 0.0
C2748 C 0.83542 0.48943 0.27838 0.0
C2749 C 0.83874 0.51458 0.25832 0.0
C2750 C 0.78481 0.62199 0.47634 0.0
C2751 C 0.77882 0.65151 0.46598 0.0
C2752 C 0.80795 0.61752 0.49798 0.0
C2753 C 0.82596 0.64246 0.51072 0.0
H2754 H 0.76986 0.60241 0.46942 0.0
H2755 H 0.80975 0.59479 0.50688 0.0
S2756 S 0.82085 0.72422 0.49067 0.0
N2757 N 0.79438 0.70577 0.46925 0.0
N2758 N 0.83711 0.69763 0.51001 0.0
C2759 C 0.8214 0.67178 0.49923 0.0
C2760 C 0.79814 0.67625 0.47691 0.0
C2761 C 0.5898 0.47735 0.81802 0.0
C2762 C 0.59989 0.50895 0.81916 0.0
C2763 C 0.5987 0.45631 0.79497 0.0
C2764 C 0.61803 0.46588 0.77178 0.0
H2765 H 0.57416 0.46885 0.83469 0.0
H2766 H 0.58908 0.43288 0.79445 0.0
S2767 S 0.65257 0.54527 0.7649 0.0
N2768 N 0.63176 0.5478 0.79529 0.0
N2769 N 0.64834 0.50903 0.75267 0.0
C2770 C 0.62923 0.49706 0.77346 0.0
C2771 C 0.62029 0.5183 0.79685 0.0
C2772 C 0.01514 0.73189 0.88478 0.0
C2773 C 0.99608 0.73333 0.91001 0.0
C2774 C 0.03828 0.75503 0.88005 0.0
C2775 C 0.04282 0.78081 0.90011 0.0
H2776 H 1.01063 0.71404 0.86738 0.0
H2777 H 0.05088 0.75404 0.85935 0.0
S2778 S 1.00006 0.79458 0.97028 0.0
N2779 N 0.98462 0.76187 0.9558 0.0
N2780 N 0.0273 0.80493 0.94718 0.0
C2781 C 0.02498 0.78136 0.9262 0.0
C2782 C 1.00184 0.75785 0.93104 0.0
C2783 C 0.97603 0.25 0.67723 0.0
C2784 C 0.97888 0.28116 0.66909 0.0
C2785 C 1.00144 0.23277 0.68331 0.0
C2786 C 0.03122 0.24566 0.6815 0.0
H2787 H 0.95386 0.23853 0.67863 0.0
H2788 H 0.99759 0.20881 0.68874 0.0
S2789 S 0.05159 0.32644 0.66127 0.0
N2790 N 0.01437 0.32417 0.65992 0.0
N2791 N 0.06169 0.29219 0.67109 0.0
C2792 C 0.03438 0.27699 0.67382 0.0
C2793 C 1.00847 0.29455 0.66774 0.0
C2794 C 0.51378 0.2426 0.42982 0.0
C2795 C 0.49518 0.23269 0.40493 0.0
C2796 C 0.5385 0.26414 0.42651 0.0
C2797 C 0.54608 0.27607 0.39813 0.0
H2798 H 0.50767 0.23585 0.45233 0.0
H2799 H 0.55038 0.27334 0.44671 0.0
S2800 S 0.50605 0.25551 0.32557 0.0
N2801 N 0.48738 0.23502 0.35061 0.0
N2802 N 0.53379 0.27474 0.34459 0.0
C2803 C 0.52899 0.26454 0.37287 0.0
C2804 C 0.50363 0.24308 0.37624 0.0
C2805 C 0.51069 0.74551 0.17576 0.0
C2806 C 0.54018 0.75616 0.16887 0.0
C2807 C 0.48581 0.76374 0.17158 0.0
C2808 C 0.48876 0.79372 0.16008 0.0
H2809 H 0.50657 0.72258 0.18412 0.0
H2810 H 0.46383 0.75379 0.17723 0.0
S2811 S 0.561 0.83314 0.13854 0.0
N2812 N 0.57085 0.79935 0.15006 0.0
N2813 N 0.52407 0.83328 0.14226 0.0
C2814 C 0.51812 0.80494 0.15341 0.0
C2815 C 0.54369 0.78634 0.15777 0.0
C2816 C 0.89683 0.07147 0.71406 0.0
C2817 C 0.92066 0.07796 0.73524 0.0
C2818 C 0.89865 0.04831 0.69076 0.0
C2819 C 0.92458 0.03113 0.68714 0.0
H2820 H 0.87568 0.08232 0.71708 0.0
H2821 H 0.87871 0.04218 0.67695 0.0
S2822 S 0.9936 0.04009 0.73572 0.0
N2823 N 0.97145 0.06592 0.74994 0.0
N2824 N 0.97477 0.0233 0.70659 0.0
C2825 C 0.94905 0.03882 0.70708 0.0
C2826 C 0.94713 0.06195 0.73086 0.0
C2827 C 0.74087 0.146 0.48695 0.0
C2828 C 0.7707 0.13704 0.49095 0.0
C2829 C 0.72044 0.14747 0.51069 0.0
C2830 C 0.72791 0.14014 0.54066 0.0
H2831 H 0.73254 0.15152 0.46475 0.0
H2832 H 0.69793 0.15406 0.50498 0.0
S2833 S 0.80409 0.11851 0.56535 0.0
N2834 N 0.8076 0.12296 0.52857 0.0
N2835 N 0.76892 0.12585 0.5735 0.0
C2836 C 0.75819 0.13268 0.54581 0.0
C2837 C 0.77947 0.13109 0.52107 0.0
C2838 C 0.69494 0.01864 0.21913 0.0
C2839 C 0.66834 0.0231 0.20213 0.0
C2840 C 0.69602 0.99652 0.24179 0.0
C2841 C 0.67045 0.9778 0.2489 0.0
H2842 H 0.7147 0.03395 0.21636 0.0
H2843 H 0.7163 0.99611 0.25571 0.0
S2844 S 0.59582 0.97781 0.20965 0.0
N2845 N 0.61642 1.00459 0.19256 0.0
N2846 N 0.61818 0.96376 0.2354 0.0
C2847 C 0.64428 0.98053 0.23075 0.0
C2848 C 0.6433 1.00282 0.2073 0.0
C2849 C 0.70242 0.90004 0.03687 0.0
C2850 C 0.69899 0.87625 0.0144 0.0
C2851 C 0.72488 0.89959 0.06016 0.0
C2852 C 0.7442 0.87495 0.06256 0.0
H2853 H 0.68937 0.92021 0.03512 0.0
H2854 H 0.72843 0.91962 0.07524 0.0
S2855 S 0.74325 0.80617 1.01084 0.0
N2856 N 0.71607 0.82655 0.99745 0.0
N2857 N 0.75732 0.82582 0.04088 0.0
C2858 C 0.73964 0.85033 0.04136 0.0
C2859 C 0.7173 0.85093 0.01753 0.0
C2860 C 0.23835 0.62774 0.98899 0.0
C2861 C 0.26959 0.6335 0.99358 0.0
C2862 C 0.21767 0.63174 0.0121 0.0
C2863 C 0.22647 0.64204 0.04175 0.0
H2864 H 0.22935 0.62063 0.96678 0.0
H2865 H 0.19409 0.62717 1.006 0.0
S2866 S 0.30615 0.65673 0.06763 0.0
N2867 N 0.30893 0.64735 0.03129 0.0
N2868 N 0.26973 0.65496 0.07512 0.0
C2869 C 0.2579 0.64618 0.04752 0.0
C2870 C 0.27941 0.64191 0.02348 0.0
C2871 C 0.14209 0.5078 0.70439 0.0
C2872 C 0.16828 0.52382 0.69425 0.0
C2873 C 0.14345 0.48607 0.72754 0.0
C2874 C 0.17105 0.4788 0.74132 0.0
H2875 H 0.12015 0.51418 0.69649 0.0
H2876 H 0.12244 0.47659 0.73635 0.0
S2877 S 0.24626 0.51297 0.72194 0.0
N2878 N 0.22277 0.52973 0.6992 0.0
N2879 N 0.22526 0.48871 0.7417 0.0
C2880 C 0.19746 0.4931 0.7299 0.0
C2881 C 0.19606 0.51557 0.70674 0.0
C2882 C 0.24883 0.39951 0.53192 0.0
C2883 C 0.24556 0.38306 0.55877 0.0
C2884 C 0.2257 0.39987 0.50987 0.0
C2885 C 0.19749 0.38404 0.51309 0.0
H2886 H 0.27013 0.41149 0.52706 0.0
H2887 H 0.2306 0.41161 0.48916 0.0
S2888 S 0.17493 0.34018 0.58035 0.0
N2889 N 0.21014 0.35258 0.58842 0.0
N2890 N 0.16659 0.35325 0.54672 0.0
C2891 C 0.19282 0.36908 0.54061 0.0
C2892 C 0.21674 0.36864 0.56342 0.0
C2893 C 0.43601 0.57582 0.21203 0.0
C2894 C 0.4106 0.57926 0.23048 0.0
C2895 C 0.43718 0.5515 0.18991 0.0
C2896 C 0.41322 0.52903 0.18581 0.0
H2897 H 0.45611 0.59068 0.21634 0.0
H2898 H 0.45801 0.54871 0.17803 0.0
S2899 S 0.34143 0.52752 0.22785 0.0
N2900 N 0.36067 0.55837 0.24208 0.0
N2901 N 0.3628 0.51286 0.20147 0.0
C2902 C 0.38717 0.53322 0.20307 0.0
C2903 C 0.38586 0.55815 0.2251 0.0
loop_
_geom_bond_atom_site_label_1
_geom_bond_atom_site_label_2
_geom_bond_distance
_geom_bond_site_symmetry_2
_ccdc_geom_bond_type
C0 C1 1.351 . S
C0 N3 1.368 . S
C0 H5 0.931 . S
C1 C0 1.351 . S
C1 N2 1.373 . S
C1 H29 0.930 . S
N2 C1 1.373 . S
N2 C4 1.340 . S
N3 C0 1.368 . S
N3 C4 1.321 . S
N3 Co6 2.135 . S
C4 N2 1.340 . S
C4 N3 1.321 . S
C4 H28 0.930 . S
H5 C0 0.931 . S
Co6 N3 2.135 . S
Co6 N9 2.121 . S
Co6 O14 2.055 . S
Co6 O17 2.039 . S
Co6 N20 2.140 . S
C7 O8 1.227 . S
C7 O17 1.265 . S
O8 C7 1.227 . S
N9 Co6 2.121 . S
N9 C11 1.375 . S
N9 C12 1.313 . S
C10 C11 1.338 . S
C10 N13 1.377 . S
C10 H30 0.930 . S
C11 N9 1.375 . S
C11 C10 1.338 . S
C11 H15 0.931 . S
C12 N9 1.313 . S
C12 N13 1.344 . S
C12 H16 0.930 . S
N13 C10 1.377 . S
N13 C12 1.344 . S
O14 Co6 2.055 . S
O14 C18 1.253 . S
H15 C11 0.931 . S
H16 C12 0.930 . S
O17 Co6 2.039 . S
O17 C7 1.265 . S
C18 O14 1.253 . S
C18 O19 1.227 . S
O19 C18 1.227 . S
N20 Co6 2.140 . S
N20 C23 1.346 . S
N20 C24 1.345 . S
C21 C22 1.387 . S
C21 C25 1.391 . S
C22 C21 1.387 . S
C22 C23 1.369 . S
C22 H31 0.929 . S
C23 N20 1.346 . S
C23 C22 1.369 . S
C23 H26 0.928 . S
C24 N20 1.345 . S
C24 C25 1.371 . S
C24 H27 0.931 . S
C25 C21 1.391 . S
C25 C24 1.371 . S
C25 H32 0.930 . S
H26 C23 0.928 . S
H27 C24 0.931 . S
H28 C4 0.930 . S
H29 C1 0.930 . S
H30 C10 0.930 . S
H31 C22 0.929 . S
H32 C25 0.930 . S
C33 C34 1.351 . S
C33 N36 1.368 . S
C33 H38 0.931 . S
C34 C33 1.351 . S
C34 N35 1.373 . S
C34 H62 0.930 . S
N35 C34 1.373 . S
N35 C37 1.340 . S
N36 C33 1.368 . S
N36 C37 1.321 . S
N36 Co39 2.135 . S
C37 N35 1.340 . S
C37 N36 1.321 . S
C37 H61 0.930 . S
H38 C33 0.931 . S
Co39 N36 2.135 . S
Co39 N42 2.121 . S
Co39 O47 2.055 . S
Co39 O50 2.039 . S
Co39 N53 2.140 . S
C40 O41 1.227 . S
C40 O50 1.265 . S
O41 C40 1.227 . S
N42 Co39 2.121 . S
N42 C44 1.375 . S
N42 C45 1.313 . S
C43 C44 1.338 . S
C43 N46 1.377 . S
C43 H63 0.930 . S
C44 N42 1.375 . S
C44 C43 1.338 . S
C44 H48 0.931 . S
C45 N42 1.313 . S
C45 N46 1.344 . S
C45 H49 0.930 . S
N46 C43 1.377 . S
N46 C45 1.344 . S
O47 Co39 2.055 . S
O47 C51 1.253 . S
H48 C44 0.931 . S
H49 C45 0.930 . S
O50 Co39 2.039 . S
O50 C40 1.265 . S
C51 O47 1.253 . S
C51 O52 1.227 . S
O52 C51 1.227 . S
N53 Co39 2.140 . S
N53 C56 1.346 . S
N53 C57 1.345 . S
C54 C55 1.387 . S
C54 C58 1.391 . S
C55 C54 1.387 . S
C55 C56 1.369 . S
C55 H64 0.929 . S
C56 N53 1.346 . S
C56 C55 1.369 . S
C56 H59 0.928 . S
C57 N53 1.345 . S
C57 C58 1.371 . S
C57 H60 0.931 . S
C58 C54 1.391 . S
C58 C57 1.371 . S
C58 H65 0.930 . S
H59 C56 0.928 . S
H60 C57 0.931 . S
H61 C37 0.930 . S
H62 C34 0.930 . S
H63 C43 0.930 . S
H64 C55 0.929 . S
H65 C58 0.930 . S
C66 C67 1.351 . S
C66 N69 1.368 . S
C66 H71 0.931 . S
C67 C66 1.351 . S
C67 N68 1.373 . S
C67 H95 0.930 . S
N68 C67 1.373 . S
N68 C70 1.340 . S
N69 C66 1.368 . S
N69 C70 1.321 . S
N69 Co72 2.135 . S
C70 N68 1.340 . S
C70 N69 1.321 . S
C70 H94 0.930 . S
H71 C66 0.931 . S
Co72 N69 2.135 . S
Co72 N75 2.121 . S
Co72 O80 2.055 . S
Co72 O83 2.039 . S
Co72 N86 2.140 . S
C73 O74 1.227 . S
C73 O83 1.265 . S
O74 C73 1.227 . S
N75 Co72 2.121 . S
N75 C77 1.375 . S
N75 C78 1.313 . S
C76 C77 1.338 . S
C76 N79 1.377 . S
C76 H96 0.930 . S
C77 N75 1.375 . S
C77 C76 1.338 . S
C77 H81 0.931 . S
C78 N75 1.313 . S
C78 N79 1.344 . S
C78 H82 0.930 . S
N79 C76 1.377 . S
N79 C78 1.344 . S
O80 Co72 2.055 . S
O80 C84 1.253 . S
H81 C77 0.931 . S
H82 C78 0.930 . S
O83 Co72 2.039 . S
O83 C73 1.265 . S
C84 O80 1.253 . S
C84 O85 1.227 . S
O85 C84 1.227 . S
N86 Co72 2.140 . S
N86 C89 1.346 . S
N86 C90 1.345 . S
C87 C88 1.387 . S
C87 C91 1.391 . S
C88 C87 1.387 . S
C88 C89 1.369 . S
C88 H97 0.929 . S
C89 N86 1.346 . S
C89 C88 1.369 . S
C89 H92 0.928 . S
C90 N86 1.345 . S
C90 C91 1.371 . S
C90 H93 0.931 . S
C91 C87 1.391 . S
C91 C90 1.371 . S
C91 H98 0.930 . S
H92 C89 0.928 . S
H93 C90 0.931 . S
H94 C70 0.930 . S
H95 C67 0.930 . S
H96 C76 0.930 . S
H97 C88 0.929 . S
H98 C91 0.930 . S
C99 C100 1.351 . S
C99 N102 1.368 . S
C99 H104 0.931 . S
C100 C99 1.351 . S
C100 N101 1.373 . S
C100 H128 0.930 . S
N101 C100 1.373 . S
N101 C103 1.340 . S
N102 C99 1.368 . S
N102 C103 1.321 . S
N102 Co105 2.135 . S
C103 N101 1.340 . S
C103 N102 1.321 . S
C103 H127 0.930 . S
H104 C99 0.931 . S
Co105 N102 2.135 . S
Co105 N108 2.121 . S
Co105 O113 2.055 . S
Co105 O116 2.039 . S
Co105 N119 2.140 . S
C106 O107 1.227 . S
C106 O116 1.265 . S
O107 C106 1.227 . S
N108 Co105 2.121 . S
N108 C110 1.375 . S
N108 C111 1.313 . S
C109 C110 1.338 . S
C109 N112 1.377 . S
C109 H129 0.930 . S
C110 N108 1.375 . S
C110 C109 1.338 . S
C110 H114 0.931 . S
C111 N108 1.313 . S
C111 N112 1.344 . S
C111 H115 0.930 . S
N112 C109 1.377 . S
N112 C111 1.344 . S
O113 Co105 2.055 . S
O113 C117 1.253 . S
H114 C110 0.931 . S
H115 C111 0.930 . S
O116 Co105 2.039 . S
O116 C106 1.265 . S
C117 O113 1.253 . S
C117 O118 1.227 . S
O118 C117 1.227 . S
N119 Co105 2.140 . S
N119 C122 1.346 . S
N119 C123 1.345 . S
C120 C121 1.387 . S
C120 C124 1.391 . S
C121 C120 1.387 . S
C121 C122 1.369 . S
C121 H130 0.929 . S
C122 N119 1.346 . S
C122 C121 1.369 . S
C122 H125 0.928 . S
C123 N119 1.345 . S
C123 C124 1.371 . S
C123 H126 0.931 . S
C124 C120 1.391 . S
C124 C123 1.371 . S
C124 H131 0.930 . S
H125 C122 0.928 . S
H126 C123 0.931 . S
H127 C103 0.930 . S
H128 C100 0.930 . S
H129 C109 0.930 . S
H130 C121 0.929 . S
H131 C124 0.930 . S
C132 C133 1.351 . S
C132 N135 1.368 . S
C132 H137 0.931 . S
C133 C132 1.351 . S
C133 N134 1.373 . S
C133 H161 0.930 . S
N134 C133 1.373 . S
N134 C136 1.340 . S
N135 C132 1.368 . S
N135 C136 1.321 . S
N135 Co138 2.135 . S
C136 N134 1.340 . S
C136 N135 1.321 . S
C136 H160 0.930 . S
H137 C132 0.931 . S
Co138 N135 2.135 . S
Co138 N141 2.121 . S
Co138 O146 2.055 . S
Co138 O149 2.039 . S
Co138 N152 2.140 . S
C139 O140 1.227 . S
C139 O149 1.265 . S
O140 C139 1.227 . S
N141 Co138 2.121 . S
N141 C143 1.375 . S
N141 C144 1.313 . S
C142 C143 1.338 . S
C142 N145 1.377 . S
C142 H162 0.930 . S
C143 N141 1.375 . S
C143 C142 1.338 . S
C143 H147 0.931 . S
C144 N141 1.313 . S
C144 N145 1.344 . S
C144 H148 0.930 . S
N145 C142 1.377 . S
N145 C144 1.344 . S
O146 Co138 2.055 . S
O146 C150 1.253 . S
H147 C143 0.931 . S
H148 C144 0.930 . S
O149 Co138 2.039 . S
O149 C139 1.265 . S
C150 O146 1.253 . S
C150 O151 1.227 . S
O151 C150 1.227 . S
N152 Co138 2.140 . S
N152 C155 1.346 . S
N152 C156 1.345 . S
C153 C154 1.387 . S
C153 C157 1.391 . S
C154 C153 1.387 . S
C154 C155 1.369 . S
C154 H163 0.929 . S
C155 N152 1.346 . S
C155 C154 1.369 . S
C155 H158 0.928 . S
C156 N152 1.345 . S
C156 C157 1.371 . S
C156 H159 0.931 . S
C157 C153 1.391 . S
C157 C156 1.371 . S
C157 H164 0.930 . S
H158 C155 0.928 . S
H159 C156 0.931 . S
H160 C136 0.930 . S
H161 C133 0.930 . S
H162 C142 0.930 . S
H163 C154 0.929 . S
H164 C157 0.930 . S
C165 C166 1.351 . S
C165 N168 1.368 . S
C165 H170 0.931 . S
C166 C165 1.351 . S
C166 N167 1.373 . S
C166 H194 0.930 . S
N167 C166 1.373 . S
N167 C169 1.340 . S
N168 C165 1.368 . S
N168 C169 1.321 . S
N168 Co171 2.135 . S
C169 N167 1.340 . S
C169 N168 1.321 . S
C169 H193 0.930 . S
H170 C165 0.931 . S
Co171 N168 2.135 . S
Co171 N174 2.121 . S
Co171 O179 2.055 . S
Co171 O182 2.039 . S
Co171 N185 2.140 . S
C172 O173 1.227 . S
C172 O182 1.265 . S
O173 C172 1.227 . S
N174 Co171 2.121 . S
N174 C176 1.375 . S
N174 C177 1.313 . S
C175 C176 1.338 . S
C175 N178 1.377 . S
C175 H195 0.930 . S
C176 N174 1.375 . S
C176 C175 1.338 . S
C176 H180 0.931 . S
C177 N174 1.313 . S
C177 N178 1.344 . S
C177 H181 0.930 . S
N178 C175 1.377 . S
N178 C177 1.344 . S
O179 Co171 2.055 . S
O179 C183 1.253 . S
H180 C176 0.931 . S
H181 C177 0.930 . S
O182 Co171 2.039 . S
O182 C172 1.265 . S
C183 O179 1.253 . S
C183 O184 1.227 . S
O184 C183 1.227 . S
N185 Co171 2.140 . S
N185 C188 1.346 . S
N185 C189 1.345 . S
C186 C187 1.387 . S
C186 C190 1.391 . S
C187 C186 1.387 . S
C187 C188 1.369 . S
C187 H196 0.929 . S
C188 N185 1.346 . S
C188 C187 1.369 . S
C188 H191 0.928 . S
C189 N185 1.345 . S
C189 C190 1.371 . S
C189 H192 0.931 . S
C190 C186 1.391 . S
C190 C189 1.371 . S
C190 H197 0.930 . S
H191 C188 0.928 . S
H192 C189 0.931 . S
H193 C169 0.930 . S
H194 C166 0.930 . S
H195 C175 0.930 . S
H196 C187 0.929 . S
H197 C190 0.930 . S
C198 C199 1.351 . S
C198 N201 1.368 . S
C198 H203 0.931 . S
C199 C198 1.351 . S
C199 N200 1.373 . S
C199 H227 0.930 . S
N200 C199 1.373 . S
N200 C202 1.340 . S
N201 C198 1.368 . S
N201 C202 1.321 . S
N201 Co204 2.135 . S
C202 N200 1.340 . S
C202 N201 1.321 . S
C202 H226 0.930 . S
H203 C198 0.931 . S
Co204 N201 2.135 . S
Co204 N207 2.121 . S
Co204 O212 2.055 . S
Co204 O215 2.039 . S
Co204 N218 2.140 . S
C205 O206 1.227 . S
C205 O215 1.265 . S
O206 C205 1.227 . S
N207 Co204 2.121 . S
N207 C209 1.375 . S
N207 C210 1.313 . S
C208 C209 1.338 . S
C208 N211 1.377 . S
C208 H228 0.930 . S
C209 N207 1.375 . S
C209 C208 1.338 . S
C209 H213 0.931 . S
C210 N207 1.313 . S
C210 N211 1.344 . S
C210 H214 0.930 . S
N211 C208 1.377 . S
N211 C210 1.344 . S
O212 Co204 2.055 . S
O212 C216 1.253 . S
H213 C209 0.931 . S
H214 C210 0.930 . S
O215 Co204 2.039 . S
O215 C205 1.265 . S
C216 O212 1.253 . S
C216 O217 1.227 . S
O217 C216 1.227 . S
N218 Co204 2.140 . S
N218 C221 1.346 . S
N218 C222 1.345 . S
C219 C220 1.387 . S
C219 C223 1.391 . S
C220 C219 1.387 . S
C220 C221 1.369 . S
C220 H229 0.929 . S
C221 N218 1.346 . S
C221 C220 1.369 . S
C221 H224 0.928 . S
C222 N218 1.345 . S
C222 C223 1.371 . S
C222 H225 0.931 . S
C223 C219 1.391 . S
C223 C222 1.371 . S
C223 H230 0.930 . S
H224 C221 0.928 . S
H225 C222 0.931 . S
H226 C202 0.930 . S
H227 C199 0.930 . S
H228 C208 0.930 . S
H229 C220 0.929 . S
H230 C223 0.930 . S
C231 C232 1.351 . S
C231 N234 1.368 . S
C231 H236 0.931 . S
C232 C231 1.351 . S
C232 N233 1.373 . S
C232 H260 0.930 . S
N233 C232 1.373 . S
N233 C235 1.340 . S
N234 C231 1.368 . S
N234 C235 1.321 . S
N234 Co237 2.135 . S
C235 N233 1.340 . S
C235 N234 1.321 . S
C235 H259 0.930 . S
H236 C231 0.931 . S
Co237 N234 2.135 . S
Co237 N240 2.121 . S
Co237 O245 2.055 . S
Co237 O248 2.039 . S
Co237 N251 2.140 . S
C238 O239 1.227 . S
C238 O248 1.265 . S
O239 C238 1.227 . S
N240 Co237 2.121 . S
N240 C242 1.375 . S
N240 C243 1.313 . S
C241 C242 1.338 . S
C241 N244 1.377 . S
C241 H261 0.930 . S
C242 N240 1.375 . S
C242 C241 1.338 . S
C242 H246 0.931 . S
C243 N240 1.313 . S
C243 N244 1.344 . S
C243 H247 0.930 . S
N244 C241 1.377 . S
N244 C243 1.344 . S
O245 Co237 2.055 . S
O245 C249 1.253 . S
H246 C242 0.931 . S
H247 C243 0.930 . S
O248 Co237 2.039 . S
O248 C238 1.265 . S
C249 O245 1.253 . S
C249 O250 1.227 . S
O250 C249 1.227 . S
N251 Co237 2.140 . S
N251 C254 1.346 . S
N251 C255 1.345 . S
C252 C253 1.387 . S
C252 C256 1.391 . S
C253 C252 1.387 . S
C253 C254 1.369 . S
C253 H262 0.929 . S
C254 N251 1.346 . S
C254 C253 1.369 . S
C254 H257 0.928 . S
C255 N251 1.345 . S
C255 C256 1.371 . S
C255 H258 0.931 . S
C256 C252 1.391 . S
C256 C255 1.371 . S
C256 H263 0.930 . S
H257 C254 0.928 . S
H258 C255 0.931 . S
H259 C235 0.930 . S
H260 C232 0.930 . S
H261 C241 0.930 . S
H262 C253 0.929 . S
H263 C256 0.930 . S
C264 C265 1.351 . S
C264 N267 1.368 . S
C264 H269 0.931 . S
C265 C264 1.351 . S
C265 N266 1.373 . S
C265 H293 0.930 . S
N266 C265 1.373 . S
N266 C268 1.340 . S
N267 C264 1.368 . S
N267 C268 1.321 . S
N267 Co270 2.135 . S
C268 N266 1.340 . S
C268 N267 1.321 . S
C268 H292 0.930 . S
H269 C264 0.931 . S
Co270 N267 2.135 . S
Co270 N273 2.121 . S
Co270 O278 2.055 . S
Co270 O281 2.039 . S
Co270 N284 2.140 . S
C271 O272 1.227 . S
C271 O281 1.265 . S
O272 C271 1.227 . S
N273 Co270 2.121 . S
N273 C275 1.375 . S
N273 C276 1.313 . S
C274 C275 1.338 . S
C274 N277 1.377 1_455 S
C274 H294 0.930 1_455 S
C275 N273 1.375 . S
C275 C274 1.338 . S
C275 H279 0.931 . S
C276 N273 1.313 . S
C276 N277 1.344 1_455 S
C276 H280 0.930 . S
N277 C274 1.377 1_655 S
N277 C276 1.344 1_655 S
O278 Co270 2.055 . S
O278 C282 1.253 . S
H279 C275 0.931 . S
H280 C276 0.930 . S
O281 Co270 2.039 . S
O281 C271 1.265 . S
C282 O278 1.253 . S
C282 O283 1.227 . S
O283 C282 1.227 . S
N284 Co270 2.140 . S
N284 C287 1.346 . S
N284 C288 1.345 . S
C285 C286 1.387 . S
C285 C289 1.391 . S
C286 C285 1.387 . S
C286 C287 1.369 . S
C286 H295 0.929 . S
C287 N284 1.346 . S
C287 C286 1.369 . S
C287 H290 0.928 . S
C288 N284 1.345 . S
C288 C289 1.371 . S
C288 H291 0.931 . S
C289 C285 1.391 . S
C289 C288 1.371 . S
C289 H296 0.930 . S
H290 C287 0.928 . S
H291 C288 0.931 . S
H292 C268 0.930 . S
H293 C265 0.930 . S
H294 C274 0.930 1_655 S
H295 C286 0.929 . S
H296 C289 0.930 . S
C297 C298 1.351 . S
C297 N300 1.368 . S
C297 H302 0.931 . S
C298 C297 1.351 . S
C298 N299 1.373 . S
C298 H326 0.930 1_565 S
N299 C298 1.373 . S
N299 C301 1.340 . S
N300 C297 1.368 . S
N300 C301 1.321 . S
N300 Co303 2.135 . S
C301 N299 1.340 . S
C301 N300 1.321 . S
C301 H325 0.930 . S
H302 C297 0.931 . S
Co303 N300 2.135 . S
Co303 N306 2.121 . S
Co303 O311 2.055 . S
Co303 O314 2.039 . S
Co303 N317 2.140 . S
C304 O305 1.227 . S
C304 O314 1.265 . S
O305 C304 1.227 . S
N306 Co303 2.121 . S
N306 C308 1.375 . S
N306 C309 1.313 . S
C307 C308 1.338 . S
C307 N310 1.377 . S
C307 H327 0.930 . S
C308 N306 1.375 . S
C308 C307 1.338 . S
C308 H312 0.931 . S
C309 N306 1.313 . S
C309 N310 1.344 . S
C309 H313 0.930 . S
N310 C307 1.377 . S
N310 C309 1.344 . S
O311 Co303 2.055 . S
O311 C315 1.253 . S
H312 C308 0.931 . S
H313 C309 0.930 . S
O314 Co303 2.039 . S
O314 C304 1.265 . S
C315 O311 1.253 . S
C315 O316 1.227 . S
O316 C315 1.227 . S
N317 Co303 2.140 . S
N317 C320 1.346 . S
N317 C321 1.345 . S
C318 C319 1.387 . S
C318 C322 1.391 . S
C319 C318 1.387 . S
C319 C320 1.369 . S
C319 H328 0.929 . S
C320 N317 1.346 . S
C320 C319 1.369 . S
C320 H323 0.928 . S
C321 N317 1.345 . S
C321 C322 1.371 . S
C321 H324 0.931 . S
C322 C318 1.391 . S
C322 C321 1.371 . S
C322 H329 0.930 . S
H323 C320 0.928 . S
H324 C321 0.931 . S
H325 C301 0.930 . S
H326 C298 0.930 1_545 S
H327 C307 0.930 . S
H328 C319 0.929 . S
H329 C322 0.930 . S
C330 C331 1.351 . S
C330 N333 1.368 . S
C330 H335 0.931 . S
C331 C330 1.351 . S
C331 N332 1.373 . S
C331 H359 0.930 . S
N332 C331 1.373 . S
N332 C334 1.340 . S
N333 C330 1.368 . S
N333 C334 1.321 . S
N333 Co336 2.135 . S
C334 N332 1.340 . S
C334 N333 1.321 . S
C334 H358 0.930 . S
H335 C330 0.931 . S
Co336 N333 2.135 . S
Co336 N339 2.121 . S
Co336 O344 2.055 . S
Co336 O347 2.039 . S
Co336 N350 2.140 . S
C337 O338 1.227 . S
C337 O347 1.265 . S
O338 C337 1.227 . S
N339 Co336 2.121 . S
N339 C341 1.375 . S
N339 C342 1.313 . S
C340 C341 1.338 . S
C340 N343 1.377 . S
C340 H360 0.930 . S
C341 N339 1.375 . S
C341 C340 1.338 . S
C341 H345 0.931 . S
C342 N339 1.313 . S
C342 N343 1.344 . S
C342 H346 0.930 . S
N343 C340 1.377 . S
N343 C342 1.344 . S
O344 Co336 2.055 . S
O344 C348 1.253 . S
H345 C341 0.931 . S
H346 C342 0.930 . S
O347 Co336 2.039 . S
O347 C337 1.265 . S
C348 O344 1.253 . S
C348 O349 1.227 . S
O349 C348 1.227 . S
N350 Co336 2.140 . S
N350 C353 1.346 . S
N350 C354 1.345 . S
C351 C352 1.387 . S
C351 C355 1.391 . S
C352 C351 1.387 . S
C352 C353 1.369 . S
C352 H361 0.929 . S
C353 N350 1.346 . S
C353 C352 1.369 . S
C353 H356 0.928 . S
C354 N350 1.345 . S
C354 C355 1.371 . S
C354 H357 0.931 . S
C355 C351 1.391 . S
C355 C354 1.371 . S
C355 H362 0.930 . S
H356 C353 0.928 . S
H357 C354 0.931 . S
H358 C334 0.930 . S
H359 C331 0.930 . S
H360 C340 0.930 . S
H361 C352 0.929 . S
H362 C355 0.930 . S
C363 C364 1.351 . S
C363 N366 1.368 . S
C363 H368 0.931 . S
C364 C363 1.351 . S
C364 N365 1.373 . S
C364 H392 0.930 . S
N365 C364 1.373 . S
N365 C367 1.340 . S
N366 C363 1.368 . S
N366 C367 1.321 . S
N366 Co369 2.135 . S
C367 N365 1.340 . S
C367 N366 1.321 . S
C367 H391 0.930 . S
H368 C363 0.931 . S
Co369 N366 2.135 . S
Co369 N372 2.121 . S
Co369 O377 2.055 . S
Co369 O380 2.039 . S
Co369 N383 2.140 . S
C370 O371 1.227 . S
C370 O380 1.265 . S
O371 C370 1.227 . S
N372 Co369 2.121 . S
N372 C374 1.375 . S
N372 C375 1.313 . S
C373 C374 1.338 . S
C373 N376 1.377 . S
C373 H393 0.930 . S
C374 N372 1.375 . S
C374 C373 1.338 . S
C374 H378 0.931 . S
C375 N372 1.313 . S
C375 N376 1.344 . S
C375 H379 0.930 . S
N376 C373 1.377 . S
N376 C375 1.344 . S
O377 Co369 2.055 . S
O377 C381 1.253 . S
H378 C374 0.931 . S
H379 C375 0.930 . S
O380 Co369 2.039 . S
O380 C370 1.265 . S
C381 O377 1.253 . S
C381 O382 1.227 . S
O382 C381 1.227 . S
N383 Co369 2.140 . S
N383 C386 1.346 . S
N383 C387 1.345 . S
C384 C385 1.387 . S
C384 C388 1.391 . S
C385 C384 1.387 . S
C385 C386 1.369 . S
C385 H394 0.929 . S
C386 N383 1.346 . S
C386 C385 1.369 . S
C386 H389 0.928 . S
C387 N383 1.345 . S
C387 C388 1.371 . S
C387 H390 0.931 . S
C388 C384 1.391 . S
C388 C387 1.371 . S
C388 H395 0.930 . S
H389 C386 0.928 . S
H390 C387 0.931 . S
H391 C367 0.930 . S
H392 C364 0.930 . S
H393 C373 0.930 . S
H394 C385 0.929 . S
H395 C388 0.930 . S
C396 C397 1.351 . S
C396 N399 1.368 . S
C396 H401 0.931 . S
C397 C396 1.351 . S
C397 N398 1.373 . S
C397 H425 0.930 . S
N398 C397 1.373 . S
N398 C400 1.340 . S
N399 C396 1.368 . S
N399 C400 1.321 . S
N399 Co402 2.135 . S
C400 N398 1.340 . S
C400 N399 1.321 . S
C400 H424 0.930 . S
H401 C396 0.931 . S
Co402 N399 2.135 . S
Co402 N405 2.121 . S
Co402 O410 2.055 . S
Co402 O413 2.039 . S
Co402 N416 2.140 . S
C403 O404 1.227 . S
C403 O413 1.265 . S
O404 C403 1.227 . S
N405 Co402 2.121 . S
N405 C407 1.375 . S
N405 C408 1.313 . S
C406 C407 1.338 . S
C406 N409 1.377 . S
C406 H426 0.930 1_455 S
C407 N405 1.375 . S
C407 C406 1.338 . S
C407 H411 0.931 . S
C408 N405 1.313 . S
C408 N409 1.344 . S
C408 H412 0.930 . S
N409 C406 1.377 . S
N409 C408 1.344 . S
O410 Co402 2.055 . S
O410 C414 1.253 . S
H411 C407 0.931 . S
H412 C408 0.930 . S
O413 Co402 2.039 . S
O413 C403 1.265 . S
C414 O410 1.253 . S
C414 O415 1.227 . S
O415 C414 1.227 . S
N416 Co402 2.140 . S
N416 C419 1.346 . S
N416 C420 1.345 . S
C417 C418 1.387 . S
C417 C421 1.391 . S
C418 C417 1.387 . S
C418 C419 1.369 . S
C418 H427 0.929 . S
C419 N416 1.346 . S
C419 C418 1.369 . S
C419 H422 0.928 . S
C420 N416 1.345 . S
C420 C421 1.371 . S
C420 H423 0.931 . S
C421 C417 1.391 . S
C421 C420 1.371 . S
C421 H428 0.930 . S
H422 C419 0.928 . S
H423 C420 0.931 . S
H424 C400 0.930 . S
H425 C397 0.930 . S
H426 C406 0.930 1_655 S
H427 C418 0.929 . S
H428 C421 0.930 . S
C429 C430 1.351 . S
C429 N432 1.368 . S
C429 H434 0.931 . S
C430 C429 1.351 . S
C430 N431 1.373 . S
C430 H458 0.930 . S
N431 C430 1.373 . S
N431 C433 1.340 . S
N432 C429 1.368 . S
N432 C433 1.321 . S
N432 Co435 2.135 . S
C433 N431 1.340 . S
C433 N432 1.321 . S
C433 H457 0.930 . S
H434 C429 0.931 . S
Co435 N432 2.135 . S
Co435 N438 2.121 . S
Co435 O443 2.055 . S
Co435 O446 2.039 . S
Co435 N449 2.140 . S
C436 O437 1.227 . S
C436 O446 1.265 . S
O437 C436 1.227 . S
N438 Co435 2.121 . S
N438 C440 1.375 . S
N438 C441 1.313 . S
C439 C440 1.338 . S
C439 N442 1.377 . S
C439 H459 0.930 . S
C440 N438 1.375 . S
C440 C439 1.338 . S
C440 H444 0.931 . S
C441 N438 1.313 . S
C441 N442 1.344 . S
C441 H445 0.930 . S
N442 C439 1.377 . S
N442 C441 1.344 . S
O443 Co435 2.055 . S
O443 C447 1.253 . S
H444 C440 0.931 . S
H445 C441 0.930 . S
O446 Co435 2.039 . S
O446 C436 1.265 . S
C447 O443 1.253 . S
C447 O448 1.227 . S
O448 C447 1.227 . S
N449 Co435 2.140 . S
N449 C452 1.346 . S
N449 C453 1.345 . S
C450 C451 1.387 . S
C450 C454 1.391 . S
C451 C450 1.387 . S
C451 C452 1.369 . S
C451 H460 0.929 . S
C452 N449 1.346 . S
C452 C451 1.369 . S
C452 H455 0.928 . S
C453 N449 1.345 . S
C453 C454 1.371 . S
C453 H456 0.931 . S
C454 C450 1.391 . S
C454 C453 1.371 . S
C454 H461 0.930 . S
H455 C452 0.928 . S
H456 C453 0.931 . S
H457 C433 0.930 . S
H458 C430 0.930 . S
H459 C439 0.930 . S
H460 C451 0.929 . S
H461 C454 0.930 . S
C462 C463 1.351 . S
C462 N465 1.368 . S
C462 H467 0.931 . S
C463 C462 1.351 . S
C463 N464 1.373 . S
C463 H491 0.930 . S
N464 C463 1.373 . S
N464 C466 1.340 . S
N465 C462 1.368 . S
N465 C466 1.321 . S
N465 Co468 2.135 . S
C466 N464 1.340 . S
C466 N465 1.321 . S
C466 H490 0.930 . S
H467 C462 0.931 . S
Co468 N465 2.135 . S
Co468 N471 2.121 . S
Co468 O476 2.055 . S
Co468 O479 2.039 . S
Co468 N482 2.140 . S
C469 O470 1.227 . S
C469 O479 1.265 . S
O470 C469 1.227 . S
N471 Co468 2.121 . S
N471 C473 1.375 . S
N471 C474 1.313 . S
C472 C473 1.338 . S
C472 N475 1.377 . S
C472 H492 0.930 . S
C473 N471 1.375 . S
C473 C472 1.338 . S
C473 H477 0.931 . S
C474 N471 1.313 . S
C474 N475 1.344 . S
C474 H478 0.930 . S
N475 C472 1.377 . S
N475 C474 1.344 . S
O476 Co468 2.055 . S
O476 C480 1.253 . S
H477 C473 0.931 . S
H478 C474 0.930 . S
O479 Co468 2.039 . S
O479 C469 1.265 . S
C480 O476 1.253 . S
C480 O481 1.227 . S
O481 C480 1.227 . S
N482 Co468 2.140 . S
N482 C485 1.346 . S
N482 C486 1.345 . S
C483 C484 1.387 . S
C483 C487 1.391 . S
C484 C483 1.387 . S
C484 C485 1.369 . S
C484 H493 0.929 . S
C485 N482 1.346 . S
C485 C484 1.369 . S
C485 H488 0.928 . S
C486 N482 1.345 . S
C486 C487 1.371 . S
C486 H489 0.931 . S
C487 C483 1.391 . S
C487 C486 1.371 . S
C487 H494 0.930 . S
H488 C485 0.928 . S
H489 C486 0.931 . S
H490 C466 0.930 . S
H491 C463 0.930 . S
H492 C472 0.930 . S
H493 C484 0.929 . S
H494 C487 0.930 . S
C495 C496 1.351 . S
C495 N498 1.368 . S
C495 H500 0.931 . S
C496 C495 1.351 . S
C496 N497 1.373 . S
C496 H524 0.930 . S
N497 C496 1.373 . S
N497 C499 1.340 . S
N498 C495 1.368 . S
N498 C499 1.321 . S
N498 Co501 2.135 . S
C499 N497 1.340 . S
C499 N498 1.321 . S
C499 H523 0.930 . S
H500 C495 0.931 . S
Co501 N498 2.135 . S
Co501 N504 2.121 . S
Co501 O509 2.055 . S
Co501 O512 2.039 . S
Co501 N515 2.140 . S
C502 O503 1.227 . S
C502 O512 1.265 . S
O503 C502 1.227 . S
N504 Co501 2.121 . S
N504 C506 1.375 . S
N504 C507 1.313 . S
C505 C506 1.338 . S
C505 N508 1.377 . S
C505 H525 0.930 . S
C506 N504 1.375 . S
C506 C505 1.338 . S
C506 H510 0.931 . S
C507 N504 1.313 . S
C507 N508 1.344 . S
C507 H511 0.930 . S
N508 C505 1.377 . S
N508 C507 1.344 . S
O509 Co501 2.055 . S
O509 C513 1.253 . S
H510 C506 0.931 . S
H511 C507 0.930 . S
O512 Co501 2.039 . S
O512 C502 1.265 . S
C513 O509 1.253 . S
C513 O514 1.227 . S
O514 C513 1.227 . S
N515 Co501 2.140 . S
N515 C518 1.346 . S
N515 C519 1.345 . S
C516 C517 1.387 . S
C516 C520 1.391 . S
C517 C516 1.387 . S
C517 C518 1.369 . S
C517 H526 0.929 . S
C518 N515 1.346 . S
C518 C517 1.369 . S
C518 H521 0.928 . S
C519 N515 1.345 . S
C519 C520 1.371 . S
C519 H522 0.931 . S
C520 C516 1.391 . S
C520 C519 1.371 . S
C520 H527 0.930 . S
H521 C518 0.928 . S
H522 C519 0.931 . S
H523 C499 0.930 . S
H524 C496 0.930 . S
H525 C505 0.930 . S
H526 C517 0.929 . S
H527 C520 0.930 . S
C528 C529 1.351 . S
C528 N531 1.368 . S
C528 H533 0.931 . S
C529 C528 1.351 . S
C529 N530 1.373 . S
C529 H557 0.930 . S
N530 C529 1.373 . S
N530 C532 1.340 . S
N531 C528 1.368 . S
N531 C532 1.321 . S
N531 Co534 2.135 . S
C532 N530 1.340 . S
C532 N531 1.321 . S
C532 H556 0.930 . S
H533 C528 0.931 . S
Co534 N531 2.135 . S
Co534 N537 2.121 . S
Co534 O542 2.055 . S
Co534 O545 2.039 . S
Co534 N548 2.140 . S
C535 O536 1.227 . S
C535 O545 1.265 . S
O536 C535 1.227 . S
N537 Co534 2.121 . S
N537 C539 1.375 . S
N537 C540 1.313 . S
C538 C539 1.338 . S
C538 N541 1.377 . S
C538 H558 0.930 . S
C539 N537 1.375 . S
C539 C538 1.338 . S
C539 H543 0.931 . S
C540 N537 1.313 . S
C540 N541 1.344 . S
C540 H544 0.930 . S
N541 C538 1.377 . S
N541 C540 1.344 . S
O542 Co534 2.055 . S
O542 C546 1.253 . S
H543 C539 0.931 . S
H544 C540 0.930 . S
O545 Co534 2.039 . S
O545 C535 1.265 . S
C546 O542 1.253 . S
C546 O547 1.227 . S
O547 C546 1.227 . S
N548 Co534 2.140 . S
N548 C551 1.346 . S
N548 C552 1.345 . S
C549 C550 1.387 . S
C549 C553 1.391 . S
C550 C549 1.387 . S
C550 C551 1.369 . S
C550 H559 0.929 . S
C551 N548 1.346 . S
C551 C550 1.369 . S
C551 H554 0.928 . S
C552 N548 1.345 . S
C552 C553 1.371 . S
C552 H555 0.931 . S
C553 C549 1.391 . S
C553 C552 1.371 . S
C553 H560 0.930 . S
H554 C551 0.928 . S
H555 C552 0.931 . S
H556 C532 0.930 . S
H557 C529 0.930 . S
H558 C538 0.930 . S
H559 C550 0.929 . S
H560 C553 0.930 . S
C561 C562 1.351 . S
C561 N564 1.368 . S
C561 H566 0.931 . S
C562 C561 1.351 . S
C562 N563 1.373 . S
C562 H590 0.930 . S
N563 C562 1.373 . S
N563 C565 1.340 . S
N564 C561 1.368 . S
N564 C565 1.321 . S
N564 Co567 2.135 . S
C565 N563 1.340 . S
C565 N564 1.321 . S
C565 H589 0.930 . S
H566 C561 0.931 . S
Co567 N564 2.135 . S
Co567 N570 2.121 . S
Co567 O575 2.055 . S
Co567 O578 2.039 . S
Co567 N581 2.140 . S
C568 O569 1.227 . S
C568 O578 1.265 . S
O569 C568 1.227 . S
N570 Co567 2.121 . S
N570 C572 1.375 . S
N570 C573 1.313 . S
C571 C572 1.338 . S
C571 N574 1.377 . S
C571 H591 0.930 . S
C572 N570 1.375 . S
C572 C571 1.338 . S
C572 H576 0.931 . S
C573 N570 1.313 . S
C573 N574 1.344 . S
C573 H577 0.930 . S
N574 C571 1.377 . S
N574 C573 1.344 . S
O575 Co567 2.055 . S
O575 C579 1.253 . S
H576 C572 0.931 . S
H577 C573 0.930 . S
O578 Co567 2.039 . S
O578 C568 1.265 . S
C579 O575 1.253 . S
C579 O580 1.227 . S
O580 C579 1.227 . S
N581 Co567 2.140 . S
N581 C584 1.346 . S
N581 C585 1.345 . S
C582 C583 1.387 . S
C582 C586 1.391 . S
C583 C582 1.387 . S
C583 C584 1.369 . S
C583 H592 0.929 . S
C584 N581 1.346 . S
C584 C583 1.369 . S
C584 H587 0.928 . S
C585 N581 1.345 . S
C585 C586 1.371 . S
C585 H588 0.931 . S
C586 C582 1.391 . S
C586 C585 1.371 . S
C586 H593 0.930 . S
H587 C584 0.928 . S
H588 C585 0.931 . S
H589 C565 0.930 . S
H590 C562 0.930 . S
H591 C571 0.930 . S
H592 C583 0.929 . S
H593 C586 0.930 . S
C594 C595 1.351 . S
C594 N597 1.368 . S
C594 H599 0.931 . S
C595 C594 1.351 . S
C595 N596 1.373 . S
C595 H623 0.930 . S
N596 C595 1.373 . S
N596 C598 1.340 . S
N597 C594 1.368 . S
N597 C598 1.321 . S
N597 Co600 2.135 . S
C598 N596 1.340 . S
C598 N597 1.321 . S
C598 H622 0.930 . S
H599 C594 0.931 . S
Co600 N597 2.135 . S
Co600 N603 2.121 . S
Co600 O608 2.055 . S
Co600 O611 2.039 . S
Co600 N614 2.140 . S
C601 O602 1.227 . S
C601 O611 1.265 . S
O602 C601 1.227 . S
N603 Co600 2.121 . S
N603 C605 1.375 . S
N603 C606 1.313 . S
C604 C605 1.338 . S
C604 N607 1.377 . S
C604 H624 0.930 . S
C605 N603 1.375 . S
C605 C604 1.338 . S
C605 H609 0.931 . S
C606 N603 1.313 . S
C606 N607 1.344 . S
C606 H610 0.930 . S
N607 C604 1.377 . S
N607 C606 1.344 . S
O608 Co600 2.055 . S
O608 C612 1.253 . S
H609 C605 0.931 . S
H610 C606 0.930 . S
O611 Co600 2.039 . S
O611 C601 1.265 . S
C612 O608 1.253 . S
C612 O613 1.227 . S
O613 C612 1.227 . S
N614 Co600 2.140 . S
N614 C617 1.346 . S
N614 C618 1.345 . S
C615 C616 1.387 . S
C615 C619 1.391 . S
C616 C615 1.387 . S
C616 C617 1.369 . S
C616 H625 0.929 . S
C617 N614 1.346 . S
C617 C616 1.369 . S
C617 H620 0.928 . S
C618 N614 1.345 . S
C618 C619 1.371 . S
C618 H621 0.931 . S
C619 C615 1.391 . S
C619 C618 1.371 . S
C619 H626 0.930 . S
H620 C617 0.928 . S
H621 C618 0.931 . S
H622 C598 0.930 . S
H623 C595 0.930 . S
H624 C604 0.930 . S
H625 C616 0.929 . S
H626 C619 0.930 . S
C627 C628 1.351 . S
C627 N630 1.368 . S
C627 H632 0.931 . S
C628 C627 1.351 . S
C628 N629 1.373 . S
C628 H656 0.930 . S
N629 C628 1.373 . S
N629 C631 1.340 . S
N630 C627 1.368 . S
N630 C631 1.321 . S
N630 Co633 2.135 . S
C631 N629 1.340 . S
C631 N630 1.321 . S
C631 H655 0.930 . S
H632 C627 0.931 . S
Co633 N630 2.135 . S
Co633 N636 2.121 . S
Co633 O641 2.055 . S
Co633 O644 2.039 . S
Co633 N647 2.140 . S
C634 O635 1.227 . S
C634 O644 1.265 . S
O635 C634 1.227 . S
N636 Co633 2.121 . S
N636 C638 1.375 . S
N636 C639 1.313 . S
C637 C638 1.338 . S
C637 N640 1.377 . S
C637 H657 0.930 . S
C638 N636 1.375 . S
C638 C637 1.338 . S
C638 H642 0.931 . S
C639 N636 1.313 . S
C639 N640 1.344 . S
C639 H643 0.930 . S
N640 C637 1.377 . S
N640 C639 1.344 . S
O641 Co633 2.055 . S
O641 C645 1.253 . S
H642 C638 0.931 . S
H643 C639 0.930 . S
O644 Co633 2.039 . S
O644 C634 1.265 . S
C645 O641 1.253 . S
C645 O646 1.227 . S
O646 C645 1.227 . S
N647 Co633 2.140 . S
N647 C650 1.346 . S
N647 C651 1.345 . S
C648 C649 1.387 . S
C648 C652 1.391 . S
C649 C648 1.387 . S
C649 C650 1.369 . S
C649 H658 0.929 . S
C650 N647 1.346 . S
C650 C649 1.369 . S
C650 H653 0.928 . S
C651 N647 1.345 . S
C651 C652 1.371 . S
C651 H654 0.931 . S
C652 C648 1.391 . S
C652 C651 1.371 . S
C652 H659 0.930 . S
H653 C650 0.928 . S
H654 C651 0.931 . S
H655 C631 0.930 . S
H656 C628 0.930 . S
H657 C637 0.930 . S
H658 C649 0.929 . S
H659 C652 0.930 . S
C660 C661 1.351 . S
C660 N663 1.368 . S
C660 H665 0.931 . S
C661 C660 1.351 . S
C661 N662 1.373 . S
C661 H689 0.930 . S
N662 C661 1.373 . S
N662 C664 1.340 . S
N663 C660 1.368 . S
N663 C664 1.321 . S
N663 Co666 2.135 . S
C664 N662 1.340 . S
C664 N663 1.321 . S
C664 H688 0.930 . S
H665 C660 0.931 . S
Co666 N663 2.135 . S
Co666 N669 2.121 . S
Co666 O674 2.055 . S
Co666 O677 2.039 . S
Co666 N680 2.140 . S
C667 O668 1.227 . S
C667 O677 1.265 . S
O668 C667 1.227 . S
N669 Co666 2.121 . S
N669 C671 1.375 . S
N669 C672 1.313 . S
C670 C671 1.338 . S
C670 N673 1.377 . S
C670 H690 0.930 . S
C671 N669 1.375 . S
C671 C670 1.338 . S
C671 H675 0.931 . S
C672 N669 1.313 . S
C672 N673 1.344 . S
C672 H676 0.930 . S
N673 C670 1.377 . S
N673 C672 1.344 . S
O674 Co666 2.055 . S
O674 C678 1.253 . S
H675 C671 0.931 . S
H676 C672 0.930 . S
O677 Co666 2.039 . S
O677 C667 1.265 . S
C678 O674 1.253 . S
C678 O679 1.227 . S
O679 C678 1.227 . S
N680 Co666 2.140 . S
N680 C683 1.346 . S
N680 C684 1.345 . S
C681 C682 1.387 . S
C681 C685 1.391 . S
C682 C681 1.387 . S
C682 C683 1.369 . S
C682 H691 0.929 . S
C683 N680 1.346 . S
C683 C682 1.369 . S
C683 H686 0.928 . S
C684 N680 1.345 . S
C684 C685 1.371 . S
C684 H687 0.931 . S
C685 C681 1.391 . S
C685 C684 1.371 . S
C685 H692 0.930 . S
H686 C683 0.928 . S
H687 C684 0.931 . S
H688 C664 0.930 . S
H689 C661 0.930 . S
H690 C670 0.930 . S
H691 C682 0.929 . S
H692 C685 0.930 . S
C693 C694 1.351 . S
C693 N696 1.368 . S
C693 H698 0.931 . S
C694 C693 1.351 . S
C694 N695 1.373 . S
C694 H722 0.930 1_556 S
N695 C694 1.373 . S
N695 C697 1.340 . S
N696 C693 1.368 . S
N696 C697 1.321 . S
N696 Co699 2.135 . S
C697 N695 1.340 . S
C697 N696 1.321 . S
C697 H721 0.930 . S
H698 C693 0.931 . S
Co699 N696 2.135 . S
Co699 N702 2.121 . S
Co699 O707 2.055 . S
Co699 O710 2.039 . S
Co699 N713 2.140 . S
C700 O701 1.227 . S
C700 O710 1.265 . S
O701 C700 1.227 . S
N702 Co699 2.121 . S
N702 C704 1.375 . S
N702 C705 1.313 . S
C703 C704 1.338 . S
C703 N706 1.377 . S
C703 H723 0.930 . S
C704 N702 1.375 . S
C704 C703 1.338 . S
C704 H708 0.931 . S
C705 N702 1.313 . S
C705 N706 1.344 . S
C705 H709 0.930 . S
N706 C703 1.377 . S
N706 C705 1.344 . S
O707 Co699 2.055 . S
O707 C711 1.253 . S
H708 C704 0.931 . S
H709 C705 0.930 . S
O710 Co699 2.039 . S
O710 C700 1.265 . S
C711 O707 1.253 . S
C711 O712 1.227 . S
O712 C711 1.227 . S
N713 Co699 2.140 . S
N713 C716 1.346 . S
N713 C717 1.345 . S
C714 C715 1.387 . S
C714 C718 1.391 . S
C715 C714 1.387 . S
C715 C716 1.369 . S
C715 H724 0.929 . S
C716 N713 1.346 . S
C716 C715 1.369 . S
C716 H719 0.928 . S
C717 N713 1.345 . S
C717 C718 1.371 . S
C717 H720 0.931 . S
C718 C714 1.391 . S
C718 C717 1.371 . S
C718 H725 0.930 . S
H719 C716 0.928 . S
H720 C717 0.931 . S
H721 C697 0.930 . S
H722 C694 0.930 1_554 S
H723 C703 0.930 . S
H724 C715 0.929 . S
H725 C718 0.930 . S
C726 C727 1.351 . S
C726 N729 1.368 . S
C726 H731 0.931 . S
C727 C726 1.351 . S
C727 N728 1.373 . S
C727 H755 0.930 . S
N728 C727 1.373 . S
N728 C730 1.340 . S
N729 C726 1.368 . S
N729 C730 1.321 . S
N729 Co732 2.135 . S
C730 N728 1.340 . S
C730 N729 1.321 . S
C730 H754 0.930 . S
H731 C726 0.931 . S
Co732 N729 2.135 . S
Co732 N735 2.121 . S
Co732 O740 2.055 . S
Co732 O743 2.039 . S
Co732 N746 2.140 . S
C733 O734 1.227 . S
C733 O743 1.265 . S
O734 C733 1.227 . S
N735 Co732 2.121 . S
N735 C737 1.375 . S
N735 C738 1.313 . S
C736 C737 1.338 . S
C736 N739 1.377 . S
C736 H756 0.930 . S
C737 N735 1.375 . S
C737 C736 1.338 . S
C737 H741 0.931 . S
C738 N735 1.313 . S
C738 N739 1.344 . S
C738 H742 0.930 . S
N739 C736 1.377 . S
N739 C738 1.344 . S
O740 Co732 2.055 . S
O740 C744 1.253 . S
H741 C737 0.931 . S
H742 C738 0.930 . S
O743 Co732 2.039 . S
O743 C733 1.265 . S
C744 O740 1.253 . S
C744 O745 1.227 . S
O745 C744 1.227 . S
N746 Co732 2.140 . S
N746 C749 1.346 . S
N746 C750 1.345 . S
C747 C748 1.387 . S
C747 C751 1.391 . S
C748 C747 1.387 . S
C748 C749 1.369 . S
C748 H757 0.929 . S
C749 N746 1.346 . S
C749 C748 1.369 . S
C749 H752 0.928 . S
C750 N746 1.345 . S
C750 C751 1.371 . S
C750 H753 0.931 . S
C751 C747 1.391 . S
C751 C750 1.371 . S
C751 H758 0.930 . S
H752 C749 0.928 . S
H753 C750 0.931 . S
H754 C730 0.930 . S
H755 C727 0.930 . S
H756 C736 0.930 . S
H757 C748 0.929 . S
H758 C751 0.930 . S
C759 C760 1.351 . S
C759 N762 1.368 . S
C759 H764 0.931 . S
C760 C759 1.351 . S
C760 N761 1.373 . S
C760 H788 0.930 . S
N761 C760 1.373 . S
N761 C763 1.340 . S
N762 C759 1.368 . S
N762 C763 1.321 . S
N762 Co765 2.135 . S
C763 N761 1.340 . S
C763 N762 1.321 . S
C763 H787 0.930 . S
H764 C759 0.931 . S
Co765 N762 2.135 . S
Co765 N768 2.121 . S
Co765 O773 2.055 . S
Co765 O776 2.039 . S
Co765 N779 2.140 . S
C766 O767 1.227 . S
C766 O776 1.265 . S
O767 C766 1.227 . S
N768 Co765 2.121 . S
N768 C770 1.375 . S
N768 C771 1.313 . S
C769 C770 1.338 . S
C769 N772 1.377 . S
C769 H789 0.930 . S
C770 N768 1.375 . S
C770 C769 1.338 . S
C770 H774 0.931 . S
C771 N768 1.313 . S
C771 N772 1.344 . S
C771 H775 0.930 . S
N772 C769 1.377 . S
N772 C771 1.344 . S
O773 Co765 2.055 . S
O773 C777 1.253 . S
H774 C770 0.931 . S
H775 C771 0.930 . S
O776 Co765 2.039 . S
O776 C766 1.265 . S
C777 O773 1.253 . S
C777 O778 1.227 . S
O778 C777 1.227 . S
N779 Co765 2.140 . S
N779 C782 1.346 . S
N779 C783 1.345 . S
C780 C781 1.387 . S
C780 C784 1.391 . S
C781 C780 1.387 . S
C781 C782 1.369 . S
C781 H790 0.929 . S
C782 N779 1.346 . S
C782 C781 1.369 . S
C782 H785 0.928 . S
C783 N779 1.345 . S
C783 C784 1.371 . S
C783 H786 0.931 . S
C784 C780 1.391 . S
C784 C783 1.371 . S
C784 H791 0.930 . S
H785 C782 0.928 . S
H786 C783 0.931 . S
H787 C763 0.930 . S
H788 C760 0.930 . S
H789 C769 0.930 . S
H790 C781 0.929 . S
H791 C784 0.930 . S
C792 C793 1.351 . S
C792 N795 1.368 . S
C792 H797 0.931 . S
C793 C792 1.351 . S
C793 N794 1.373 . S
C793 H821 0.930 . S
N794 C793 1.373 . S
N794 C796 1.340 . S
N795 C792 1.368 . S
N795 C796 1.321 . S
N795 Co798 2.135 . S
C796 N794 1.340 . S
C796 N795 1.321 . S
C796 H820 0.930 . S
H797 C792 0.931 . S
Co798 N795 2.135 . S
Co798 N801 2.121 . S
Co798 O806 2.055 . S
Co798 O809 2.039 . S
Co798 N812 2.140 . S
C799 O800 1.227 . S
C799 O809 1.265 . S
O800 C799 1.227 . S
N801 Co798 2.121 . S
N801 C803 1.375 . S
N801 C804 1.313 . S
C802 C803 1.338 . S
C802 N805 1.377 . S
C802 H822 0.930 . S
C803 N801 1.375 . S
C803 C802 1.338 . S
C803 H807 0.931 . S
C804 N801 1.313 . S
C804 N805 1.344 . S
C804 H808 0.930 . S
N805 C802 1.377 . S
N805 C804 1.344 . S
O806 Co798 2.055 . S
O806 C810 1.253 . S
H807 C803 0.931 . S
H808 C804 0.930 . S
O809 Co798 2.039 . S
O809 C799 1.265 . S
C810 O806 1.253 . S
C810 O811 1.227 . S
O811 C810 1.227 . S
N812 Co798 2.140 . S
N812 C815 1.346 . S
N812 C816 1.345 . S
C813 C814 1.387 . S
C813 C817 1.391 . S
C814 C813 1.387 . S
C814 C815 1.369 . S
C814 H823 0.929 . S
C815 N812 1.346 . S
C815 C814 1.369 . S
C815 H818 0.928 . S
C816 N812 1.345 . S
C816 C817 1.371 . S
C816 H819 0.931 . S
C817 C813 1.391 . S
C817 C816 1.371 . S
C817 H824 0.930 . S
H818 C815 0.928 . S
H819 C816 0.931 . S
H820 C796 0.930 . S
H821 C793 0.930 . S
H822 C802 0.930 . S
H823 C814 0.929 . S
H824 C817 0.930 . S
C825 C826 1.351 . S
C825 N828 1.368 . S
C825 H830 0.931 . S
C826 C825 1.351 . S
C826 N827 1.373 . S
C826 H854 0.930 . S
N827 C826 1.373 . S
N827 C829 1.340 . S
N828 C825 1.368 . S
N828 C829 1.321 . S
N828 Co831 2.135 . S
C829 N827 1.340 . S
C829 N828 1.321 . S
C829 H853 0.930 . S
H830 C825 0.931 . S
Co831 N828 2.135 . S
Co831 N834 2.121 . S
Co831 O839 2.055 . S
Co831 O842 2.039 . S
Co831 N845 2.140 . S
C832 O833 1.227 . S
C832 O842 1.265 . S
O833 C832 1.227 . S
N834 Co831 2.121 . S
N834 C836 1.375 . S
N834 C837 1.313 . S
C835 C836 1.338 . S
C835 N838 1.377 . S
C835 H855 0.930 . S
C836 N834 1.375 . S
C836 C835 1.338 . S
C836 H840 0.931 . S
C837 N834 1.313 . S
C837 N838 1.344 . S
C837 H841 0.930 . S
N838 C835 1.377 . S
N838 C837 1.344 . S
O839 Co831 2.055 . S
O839 C843 1.253 . S
H840 C836 0.931 . S
H841 C837 0.930 . S
O842 Co831 2.039 . S
O842 C832 1.265 . S
C843 O839 1.253 . S
C843 O844 1.227 . S
O844 C843 1.227 . S
N845 Co831 2.140 . S
N845 C848 1.346 . S
N845 C849 1.345 . S
C846 C847 1.387 . S
C846 C850 1.391 . S
C847 C846 1.387 . S
C847 C848 1.369 . S
C847 H856 0.929 . S
C848 N845 1.346 . S
C848 C847 1.369 . S
C848 H851 0.928 . S
C849 N845 1.345 . S
C849 C850 1.371 . S
C849 H852 0.931 . S
C850 C846 1.391 . S
C850 C849 1.371 . S
C850 H857 0.930 . S
H851 C848 0.928 . S
H852 C849 0.931 . S
H853 C829 0.930 . S
H854 C826 0.930 . S
H855 C835 0.930 . S
H856 C847 0.929 . S
H857 C850 0.930 . S
C858 C859 1.351 . S
C858 N861 1.368 . S
C858 H863 0.931 . S
C859 C858 1.351 . S
C859 N860 1.373 . S
C859 H887 0.930 . S
N860 C859 1.373 . S
N860 C862 1.340 . S
N861 C858 1.368 . S
N861 C862 1.321 . S
N861 Co864 2.135 . S
C862 N860 1.340 . S
C862 N861 1.321 . S
C862 H886 0.930 . S
H863 C858 0.931 . S
Co864 N861 2.135 . S
Co864 N867 2.121 . S
Co864 O872 2.055 . S
Co864 O875 2.039 . S
Co864 N878 2.140 . S
C865 O866 1.227 . S
C865 O875 1.265 . S
O866 C865 1.227 . S
N867 Co864 2.121 . S
N867 C869 1.375 . S
N867 C870 1.313 . S
C868 C869 1.338 . S
C868 N871 1.377 . S
C868 H888 0.930 . S
C869 N867 1.375 . S
C869 C868 1.338 . S
C869 H873 0.931 . S
C870 N867 1.313 . S
C870 N871 1.344 . S
C870 H874 0.930 . S
N871 C868 1.377 . S
N871 C870 1.344 . S
O872 Co864 2.055 . S
O872 C876 1.253 . S
H873 C869 0.931 . S
H874 C870 0.930 . S
O875 Co864 2.039 . S
O875 C865 1.265 . S
C876 O872 1.253 . S
C876 O877 1.227 . S
O877 C876 1.227 . S
N878 Co864 2.140 . S
N878 C881 1.346 . S
N878 C882 1.345 . S
C879 C880 1.387 . S
C879 C883 1.391 . S
C880 C879 1.387 . S
C880 C881 1.369 . S
C880 H889 0.929 . S
C881 N878 1.346 . S
C881 C880 1.369 . S
C881 H884 0.928 . S
C882 N878 1.345 . S
C882 C883 1.371 . S
C882 H885 0.931 . S
C883 C879 1.391 . S
C883 C882 1.371 . S
C883 H890 0.930 . S
H884 C881 0.928 . S
H885 C882 0.931 . S
H886 C862 0.930 . S
H887 C859 0.930 . S
H888 C868 0.930 . S
H889 C880 0.929 . S
H890 C883 0.930 . S
C891 C892 1.351 . S
C891 N894 1.368 . S
C891 H896 0.931 . S
C892 C891 1.351 . S
C892 N893 1.373 . S
C892 H920 0.930 . S
N893 C892 1.373 . S
N893 C895 1.340 . S
N894 C891 1.368 . S
N894 C895 1.321 . S
N894 Co897 2.135 . S
C895 N893 1.340 . S
C895 N894 1.321 . S
C895 H919 0.930 . S
H896 C891 0.931 . S
Co897 N894 2.135 . S
Co897 N900 2.121 . S
Co897 O905 2.055 . S
Co897 O908 2.039 . S
Co897 N911 2.140 . S
C898 O899 1.227 . S
C898 O908 1.265 . S
O899 C898 1.227 . S
N900 Co897 2.121 . S
N900 C902 1.375 . S
N900 C903 1.313 . S
C901 C902 1.338 . S
C901 N904 1.377 . S
C901 H921 0.930 . S
C902 N900 1.375 . S
C902 C901 1.338 . S
C902 H906 0.931 . S
C903 N900 1.313 . S
C903 N904 1.344 . S
C903 H907 0.930 . S
N904 C901 1.377 . S
N904 C903 1.344 . S
O905 Co897 2.055 . S
O905 C909 1.253 . S
H906 C902 0.931 . S
H907 C903 0.930 . S
O908 Co897 2.039 . S
O908 C898 1.265 . S
C909 O905 1.253 . S
C909 O910 1.227 . S
O910 C909 1.227 . S
N911 Co897 2.140 . S
N911 C914 1.346 . S
N911 C915 1.345 . S
C912 C913 1.387 . S
C912 C916 1.391 . S
C913 C912 1.387 . S
C913 C914 1.369 . S
C913 H922 0.929 . S
C914 N911 1.346 . S
C914 C913 1.369 . S
C914 H917 0.928 . S
C915 N911 1.345 . S
C915 C916 1.371 . S
C915 H918 0.931 . S
C916 C912 1.391 . S
C916 C915 1.371 . S
C916 H923 0.930 . S
H917 C914 0.928 . S
H918 C915 0.931 . S
H919 C895 0.930 . S
H920 C892 0.930 . S
H921 C901 0.930 . S
H922 C913 0.929 . S
H923 C916 0.930 . S
C924 C925 1.351 . S
C924 N927 1.368 . S
C924 H929 0.931 . S
C925 C924 1.351 . S
C925 N926 1.373 . S
C925 H953 0.930 . S
N926 C925 1.373 . S
N926 C928 1.340 . S
N927 C924 1.368 . S
N927 C928 1.321 . S
N927 Co930 2.135 . S
C928 N926 1.340 . S
C928 N927 1.321 . S
C928 H952 0.930 . S
H929 C924 0.931 . S
Co930 N927 2.135 . S
Co930 N933 2.121 . S
Co930 O938 2.055 . S
Co930 O941 2.039 . S
Co930 N944 2.140 . S
C931 O932 1.227 . S
C931 O941 1.265 . S
O932 C931 1.227 . S
N933 Co930 2.121 . S
N933 C935 1.375 . S
N933 C936 1.313 . S
C934 C935 1.338 . S
C934 N937 1.377 . S
C934 H954 0.930 . S
C935 N933 1.375 . S
C935 C934 1.338 . S
C935 H939 0.931 . S
C936 N933 1.313 . S
C936 N937 1.344 . S
C936 H940 0.930 . S
N937 C934 1.377 . S
N937 C936 1.344 . S
O938 Co930 2.055 . S
O938 C942 1.253 . S
H939 C935 0.931 . S
H940 C936 0.930 . S
O941 Co930 2.039 . S
O941 C931 1.265 . S
C942 O938 1.253 . S
C942 O943 1.227 . S
O943 C942 1.227 . S
N944 Co930 2.140 . S
N944 C947 1.346 . S
N944 C948 1.345 . S
C945 C946 1.387 . S
C945 C949 1.391 . S
C946 C945 1.387 . S
C946 C947 1.369 . S
C946 H955 0.929 . S
C947 N944 1.346 . S
C947 C946 1.369 . S
C947 H950 0.928 . S
C948 N944 1.345 . S
C948 C949 1.371 . S
C948 H951 0.931 . S
C949 C945 1.391 . S
C949 C948 1.371 . S
C949 H956 0.930 . S
H950 C947 0.928 . S
H951 C948 0.931 . S
H952 C928 0.930 . S
H953 C925 0.930 . S
H954 C934 0.930 . S
H955 C946 0.929 . S
H956 C949 0.930 . S
C957 C958 1.351 1_655 S
C957 N960 1.368 . S
C957 H962 0.931 . S
C958 C957 1.351 1_455 S
C958 N959 1.373 . S
C958 H986 0.930 . S
N959 C958 1.373 . S
N959 C961 1.340 1_455 S
N960 C957 1.368 . S
N960 C961 1.321 . S
N960 Co963 2.135 . S
C961 N959 1.340 1_655 S
C961 N960 1.321 . S
C961 H985 0.930 . S
H962 C957 0.931 . S
Co963 N960 2.135 . S
Co963 N966 2.121 . S
Co963 O971 2.055 . S
Co963 O974 2.039 . S
Co963 N977 2.140 . S
C964 O965 1.227 . S
C964 O974 1.265 . S
O965 C964 1.227 . S
N966 Co963 2.121 . S
N966 C968 1.375 . S
N966 C969 1.313 . S
C967 C968 1.338 . S
C967 N970 1.377 . S
C967 H987 0.930 . S
C968 N966 1.375 . S
C968 C967 1.338 . S
C968 H972 0.931 . S
C969 N966 1.313 . S
C969 N970 1.344 . S
C969 H973 0.930 . S
N970 C967 1.377 . S
N970 C969 1.344 . S
O971 Co963 2.055 . S
O971 C975 1.253 . S
H972 C968 0.931 . S
H973 C969 0.930 . S
O974 Co963 2.039 . S
O974 C964 1.265 . S
C975 O971 1.253 . S
C975 O976 1.227 . S
O976 C975 1.227 . S
N977 Co963 2.140 . S
N977 C980 1.346 . S
N977 C981 1.345 . S
C978 C979 1.387 . S
C978 C982 1.391 . S
C979 C978 1.387 . S
C979 C980 1.369 . S
C979 H988 0.929 . S
C980 N977 1.346 . S
C980 C979 1.369 . S
C980 H983 0.928 . S
C981 N977 1.345 . S
C981 C982 1.371 . S
C981 H984 0.931 . S
C982 C978 1.391 . S
C982 C981 1.371 . S
C982 H989 0.930 . S
H983 C980 0.928 . S
H984 C981 0.931 . S
H985 C961 0.930 . S
H986 C958 0.930 . S
H987 C967 0.930 . S
H988 C979 0.929 . S
H989 C982 0.930 . S
C990 C991 1.351 . S
C990 N993 1.368 . S
C990 H995 0.931 . S
C991 C990 1.351 . S
C991 N992 1.373 . S
C991 H1019 0.930 . S
N992 C991 1.373 . S
N992 C994 1.340 . S
N993 C990 1.368 . S
N993 C994 1.321 . S
N993 Co996 2.135 . S
C994 N992 1.340 . S
C994 N993 1.321 . S
C994 H1018 0.930 . S
H995 C990 0.931 . S
Co996 N993 2.135 . S
Co996 N999 2.121 . S
Co996 O1004 2.055 . S
Co996 O1007 2.039 . S
Co996 N1010 2.140 . S
C997 O998 1.227 . S
C997 O1007 1.265 . S
O998 C997 1.227 . S
N999 Co996 2.121 . S
N999 C1001 1.375 . S
N999 C1002 1.313 . S
C1000 C1001 1.338 . S
C1000 N1003 1.377 . S
C1000 H1020 0.930 . S
C1001 N999 1.375 . S
C1001 C1000 1.338 . S
C1001 H1005 0.931 . S
C1002 N999 1.313 . S
C1002 N1003 1.344 . S
C1002 H1006 0.930 . S
N1003 C1000 1.377 . S
N1003 C1002 1.344 . S
O1004 Co996 2.055 . S
O1004 C1008 1.253 . S
H1005 C1001 0.931 . S
H1006 C1002 0.930 . S
O1007 Co996 2.039 . S
O1007 C997 1.265 . S
C1008 O1004 1.253 . S
C1008 O1009 1.227 . S
O1009 C1008 1.227 . S
N1010 Co996 2.140 . S
N1010 C1013 1.346 . S
N1010 C1014 1.345 . S
C1011 C1012 1.387 . S
C1011 C1015 1.391 . S
C1012 C1011 1.387 . S
C1012 C1013 1.369 . S
C1012 H1021 0.929 . S
C1013 N1010 1.346 . S
C1013 C1012 1.369 . S
C1013 H1016 0.928 . S
C1014 N1010 1.345 . S
C1014 C1015 1.371 . S
C1014 H1017 0.931 . S
C1015 C1011 1.391 . S
C1015 C1014 1.371 . S
C1015 H1022 0.930 . S
H1016 C1013 0.928 . S
H1017 C1014 0.931 . S
H1018 C994 0.930 . S
H1019 C991 0.930 . S
H1020 C1000 0.930 . S
H1021 C1012 0.929 . S
H1022 C1015 0.930 . S
C1023 C1024 1.351 . S
C1023 N1026 1.368 . S
C1023 H1028 0.931 . S
C1024 C1023 1.351 . S
C1024 N1025 1.373 . S
C1024 H1052 0.930 . S
N1025 C1024 1.373 . S
N1025 C1027 1.340 . S
N1026 C1023 1.368 . S
N1026 C1027 1.321 . S
N1026 Co1029 2.135 . S
C1027 N1025 1.340 . S
C1027 N1026 1.321 . S
C1027 H1051 0.930 . S
H1028 C1023 0.931 . S
Co1029 N1026 2.135 . S
Co1029 N1032 2.121 . S
Co1029 O1037 2.055 . S
Co1029 O1040 2.039 . S
Co1029 N1043 2.140 . S
C1030 O1031 1.227 . S
C1030 O1040 1.265 . S
O1031 C1030 1.227 . S
N1032 Co1029 2.121 . S
N1032 C1034 1.375 . S
N1032 C1035 1.313 . S
C1033 C1034 1.338 . S
C1033 N1036 1.377 . S
C1033 H1053 0.930 . S
C1034 N1032 1.375 . S
C1034 C1033 1.338 . S
C1034 H1038 0.931 . S
C1035 N1032 1.313 . S
C1035 N1036 1.344 . S
C1035 H1039 0.930 . S
N1036 C1033 1.377 . S
N1036 C1035 1.344 . S
O1037 Co1029 2.055 . S
O1037 C1041 1.253 . S
H1038 C1034 0.931 . S
H1039 C1035 0.930 . S
O1040 Co1029 2.039 . S
O1040 C1030 1.265 . S
C1041 O1037 1.253 . S
C1041 O1042 1.227 . S
O1042 C1041 1.227 . S
N1043 Co1029 2.140 . S
N1043 C1046 1.346 . S
N1043 C1047 1.345 . S
C1044 C1045 1.387 . S
C1044 C1048 1.391 . S
C1045 C1044 1.387 . S
C1045 C1046 1.369 . S
C1045 H1054 0.929 . S
C1046 N1043 1.346 . S
C1046 C1045 1.369 . S
C1046 H1049 0.928 . S
C1047 N1043 1.345 . S
C1047 C1048 1.371 . S
C1047 H1050 0.931 . S
C1048 C1044 1.391 . S
C1048 C1047 1.371 . S
C1048 H1055 0.930 . S
H1049 C1046 0.928 . S
H1050 C1047 0.931 . S
H1051 C1027 0.930 . S
H1052 C1024 0.930 . S
H1053 C1033 0.930 . S
H1054 C1045 0.929 . S
H1055 C1048 0.930 . S
C1056 C1057 1.351 . S
C1056 N1059 1.368 . S
C1056 H1061 0.931 . S
C1057 C1056 1.351 . S
C1057 N1058 1.373 . S
C1057 H1085 0.930 . S
N1058 C1057 1.373 . S
N1058 C1060 1.340 . S
N1059 C1056 1.368 . S
N1059 C1060 1.321 . S
N1059 Co1062 2.135 . S
C1060 N1058 1.340 . S
C1060 N1059 1.321 . S
C1060 H1084 0.930 . S
H1061 C1056 0.931 . S
Co1062 N1059 2.135 . S
Co1062 N1065 2.121 . S
Co1062 O1070 2.055 . S
Co1062 O1073 2.039 . S
Co1062 N1076 2.140 . S
C1063 O1064 1.227 . S
C1063 O1073 1.265 . S
O1064 C1063 1.227 . S
N1065 Co1062 2.121 . S
N1065 C1067 1.375 . S
N1065 C1068 1.313 . S
C1066 C1067 1.338 . S
C1066 N1069 1.377 . S
C1066 H1086 0.930 . S
C1067 N1065 1.375 . S
C1067 C1066 1.338 . S
C1067 H1071 0.931 . S
C1068 N1065 1.313 . S
C1068 N1069 1.344 . S
C1068 H1072 0.930 . S
N1069 C1066 1.377 . S
N1069 C1068 1.344 . S
O1070 Co1062 2.055 . S
O1070 C1074 1.253 . S
H1071 C1067 0.931 . S
H1072 C1068 0.930 . S
O1073 Co1062 2.039 . S
O1073 C1063 1.265 . S
C1074 O1070 1.253 . S
C1074 O1075 1.227 . S
O1075 C1074 1.227 . S
N1076 Co1062 2.140 . S
N1076 C1079 1.346 . S
N1076 C1080 1.345 . S
C1077 C1078 1.387 . S
C1077 C1081 1.391 . S
C1078 C1077 1.387 . S
C1078 C1079 1.369 . S
C1078 H1087 0.929 . S
C1079 N1076 1.346 . S
C1079 C1078 1.369 . S
C1079 H1082 0.928 . S
C1080 N1076 1.345 . S
C1080 C1081 1.371 . S
C1080 H1083 0.931 . S
C1081 C1077 1.391 . S
C1081 C1080 1.371 . S
C1081 H1088 0.930 . S
H1082 C1079 0.928 . S
H1083 C1080 0.931 . S
H1084 C1060 0.930 . S
H1085 C1057 0.930 . S
H1086 C1066 0.930 . S
H1087 C1078 0.929 . S
H1088 C1081 0.930 . S
C1089 C1090 1.351 . S
C1089 N1092 1.368 . S
C1089 H1094 0.931 . S
C1090 C1089 1.351 . S
C1090 N1091 1.373 . S
C1090 H1118 0.930 . S
N1091 C1090 1.373 . S
N1091 C1093 1.340 . S
N1092 C1089 1.368 . S
N1092 C1093 1.321 . S
N1092 Co1095 2.135 . S
C1093 N1091 1.340 . S
C1093 N1092 1.321 . S
C1093 H1117 0.930 . S
H1094 C1089 0.931 . S
Co1095 N1092 2.135 . S
Co1095 N1098 2.121 . S
Co1095 O1103 2.055 . S
Co1095 O1106 2.039 . S
Co1095 N1109 2.140 . S
C1096 O1097 1.227 . S
C1096 O1106 1.265 . S
O1097 C1096 1.227 . S
N1098 Co1095 2.121 . S
N1098 C1100 1.375 . S
N1098 C1101 1.313 . S
C1099 C1100 1.338 . S
C1099 N1102 1.377 . S
C1099 H1119 0.930 . S
C1100 N1098 1.375 . S
C1100 C1099 1.338 . S
C1100 H1104 0.931 . S
C1101 N1098 1.313 . S
C1101 N1102 1.344 . S
C1101 H1105 0.930 . S
N1102 C1099 1.377 . S
N1102 C1101 1.344 . S
O1103 Co1095 2.055 . S
O1103 C1107 1.253 . S
H1104 C1100 0.931 . S
H1105 C1101 0.930 . S
O1106 Co1095 2.039 . S
O1106 C1096 1.265 . S
C1107 O1103 1.253 . S
C1107 O1108 1.227 . S
O1108 C1107 1.227 . S
N1109 Co1095 2.140 . S
N1109 C1112 1.346 . S
N1109 C1113 1.345 . S
C1110 C1111 1.387 . S
C1110 C1114 1.391 . S
C1111 C1110 1.387 . S
C1111 C1112 1.369 . S
C1111 H1120 0.929 . S
C1112 N1109 1.346 . S
C1112 C1111 1.369 . S
C1112 H1115 0.928 . S
C1113 N1109 1.345 . S
C1113 C1114 1.371 . S
C1113 H1116 0.931 . S
C1114 C1110 1.391 . S
C1114 C1113 1.371 . S
C1114 H1121 0.930 . S
H1115 C1112 0.928 . S
H1116 C1113 0.931 . S
H1117 C1093 0.930 . S
H1118 C1090 0.930 . S
H1119 C1099 0.930 . S
H1120 C1111 0.929 . S
H1121 C1114 0.930 . S
C1122 C1123 1.351 . S
C1122 N1125 1.368 . S
C1122 H1127 0.931 . S
C1123 C1122 1.351 . S
C1123 N1124 1.373 . S
C1123 H1151 0.930 . S
N1124 C1123 1.373 . S
N1124 C1126 1.340 . S
N1125 C1122 1.368 . S
N1125 C1126 1.321 . S
N1125 Co1128 2.135 . S
C1126 N1124 1.340 . S
C1126 N1125 1.321 . S
C1126 H1150 0.930 . S
H1127 C1122 0.931 . S
Co1128 N1125 2.135 . S
Co1128 N1131 2.121 . S
Co1128 O1136 2.055 . S
Co1128 O1139 2.039 . S
Co1128 N1142 2.140 . S
C1129 O1130 1.227 . S
C1129 O1139 1.265 . S
O1130 C1129 1.227 . S
N1131 Co1128 2.121 . S
N1131 C1133 1.375 . S
N1131 C1134 1.313 . S
C1132 C1133 1.338 . S
C1132 N1135 1.377 . S
C1132 H1152 0.930 . S
C1133 N1131 1.375 . S
C1133 C1132 1.338 . S
C1133 H1137 0.931 . S
C1134 N1131 1.313 . S
C1134 N1135 1.344 . S
C1134 H1138 0.930 . S
N1135 C1132 1.377 . S
N1135 C1134 1.344 . S
O1136 Co1128 2.055 . S
O1136 C1140 1.253 . S
H1137 C1133 0.931 . S
H1138 C1134 0.930 . S
O1139 Co1128 2.039 . S
O1139 C1129 1.265 . S
C1140 O1136 1.253 . S
C1140 O1141 1.227 . S
O1141 C1140 1.227 . S
N1142 Co1128 2.140 . S
N1142 C1145 1.346 . S
N1142 C1146 1.345 . S
C1143 C1144 1.387 . S
C1143 C1147 1.391 . S
C1144 C1143 1.387 . S
C1144 C1145 1.369 . S
C1144 H1153 0.929 . S
C1145 N1142 1.346 . S
C1145 C1144 1.369 . S
C1145 H1148 0.928 . S
C1146 N1142 1.345 . S
C1146 C1147 1.371 . S
C1146 H1149 0.931 . S
C1147 C1143 1.391 . S
C1147 C1146 1.371 . S
C1147 H1154 0.930 . S
H1148 C1145 0.928 . S
H1149 C1146 0.931 . S
H1150 C1126 0.930 . S
H1151 C1123 0.930 . S
H1152 C1132 0.930 . S
H1153 C1144 0.929 . S
H1154 C1147 0.930 . S
C1155 C1156 1.351 . S
C1155 N1158 1.368 . S
C1155 H1160 0.931 . S
C1156 C1155 1.351 . S
C1156 N1157 1.373 . S
C1156 H1184 0.930 . S
N1157 C1156 1.373 . S
N1157 C1159 1.340 . S
N1158 C1155 1.368 . S
N1158 C1159 1.321 . S
N1158 Co1161 2.135 . S
C1159 N1157 1.340 . S
C1159 N1158 1.321 . S
C1159 H1183 0.930 . S
H1160 C1155 0.931 . S
Co1161 N1158 2.135 . S
Co1161 N1164 2.121 . S
Co1161 O1169 2.055 . S
Co1161 O1172 2.039 . S
Co1161 N1175 2.140 . S
C1162 O1163 1.227 . S
C1162 O1172 1.265 . S
O1163 C1162 1.227 . S
N1164 Co1161 2.121 . S
N1164 C1166 1.375 . S
N1164 C1167 1.313 . S
C1165 C1166 1.338 . S
C1165 N1168 1.377 . S
C1165 H1185 0.930 . S
C1166 N1164 1.375 . S
C1166 C1165 1.338 . S
C1166 H1170 0.931 . S
C1167 N1164 1.313 . S
C1167 N1168 1.344 . S
C1167 H1171 0.930 . S
N1168 C1165 1.377 . S
N1168 C1167 1.344 . S
O1169 Co1161 2.055 . S
O1169 C1173 1.253 . S
H1170 C1166 0.931 . S
H1171 C1167 0.930 . S
O1172 Co1161 2.039 . S
O1172 C1162 1.265 . S
C1173 O1169 1.253 . S
C1173 O1174 1.227 . S
O1174 C1173 1.227 . S
N1175 Co1161 2.140 . S
N1175 C1178 1.346 . S
N1175 C1179 1.345 . S
C1176 C1177 1.387 . S
C1176 C1180 1.391 . S
C1177 C1176 1.387 . S
C1177 C1178 1.369 . S
C1177 H1186 0.929 . S
C1178 N1175 1.346 . S
C1178 C1177 1.369 . S
C1178 H1181 0.928 . S
C1179 N1175 1.345 . S
C1179 C1180 1.371 . S
C1179 H1182 0.931 . S
C1180 C1176 1.391 . S
C1180 C1179 1.371 . S
C1180 H1187 0.930 . S
H1181 C1178 0.928 . S
H1182 C1179 0.931 . S
H1183 C1159 0.930 . S
H1184 C1156 0.930 . S
H1185 C1165 0.930 . S
H1186 C1177 0.929 . S
H1187 C1180 0.930 . S
C1188 C1189 1.351 . S
C1188 N1191 1.368 . S
C1188 H1193 0.931 . S
C1189 C1188 1.351 . S
C1189 N1190 1.373 . S
C1189 H1217 0.930 . S
N1190 C1189 1.373 . S
N1190 C1192 1.340 . S
N1191 C1188 1.368 . S
N1191 C1192 1.321 . S
N1191 Co1194 2.135 . S
C1192 N1190 1.340 . S
C1192 N1191 1.321 . S
C1192 H1216 0.930 . S
H1193 C1188 0.931 . S
Co1194 N1191 2.135 . S
Co1194 N1197 2.121 . S
Co1194 O1202 2.055 . S
Co1194 O1205 2.039 . S
Co1194 N1208 2.140 . S
C1195 O1196 1.227 . S
C1195 O1205 1.265 . S
O1196 C1195 1.227 . S
N1197 Co1194 2.121 . S
N1197 C1199 1.375 . S
N1197 C1200 1.313 . S
C1198 C1199 1.338 . S
C1198 N1201 1.377 . S
C1198 H1218 0.930 . S
C1199 N1197 1.375 . S
C1199 C1198 1.338 . S
C1199 H1203 0.931 . S
C1200 N1197 1.313 . S
C1200 N1201 1.344 . S
C1200 H1204 0.930 . S
N1201 C1198 1.377 . S
N1201 C1200 1.344 . S
O1202 Co1194 2.055 . S
O1202 C1206 1.253 . S
H1203 C1199 0.931 . S
H1204 C1200 0.930 . S
O1205 Co1194 2.039 . S
O1205 C1195 1.265 . S
C1206 O1202 1.253 . S
C1206 O1207 1.227 . S
O1207 C1206 1.227 . S
N1208 Co1194 2.140 . S
N1208 C1211 1.346 . S
N1208 C1212 1.345 . S
C1209 C1210 1.387 . S
C1209 C1213 1.391 . S
C1210 C1209 1.387 . S
C1210 C1211 1.369 . S
C1210 H1219 0.929 . S
C1211 N1208 1.346 . S
C1211 C1210 1.369 . S
C1211 H1214 0.928 . S
C1212 N1208 1.345 . S
C1212 C1213 1.371 . S
C1212 H1215 0.931 . S
C1213 C1209 1.391 . S
C1213 C1212 1.371 . S
C1213 H1220 0.930 . S
H1214 C1211 0.928 . S
H1215 C1212 0.931 . S
H1216 C1192 0.930 . S
H1217 C1189 0.930 . S
H1218 C1198 0.930 . S
H1219 C1210 0.929 . S
H1220 C1213 0.930 . S
C1221 C1222 1.351 . S
C1221 N1224 1.368 . S
C1221 H1226 0.931 . S
C1222 C1221 1.351 . S
C1222 N1223 1.373 . S
C1222 H1250 0.930 . S
N1223 C1222 1.373 . S
N1223 C1225 1.340 . S
N1224 C1221 1.368 . S
N1224 C1225 1.321 . S
N1224 Co1227 2.135 . S
C1225 N1223 1.340 . S
C1225 N1224 1.321 . S
C1225 H1249 0.930 . S
H1226 C1221 0.931 . S
Co1227 N1224 2.135 . S
Co1227 N1230 2.121 . S
Co1227 O1235 2.055 . S
Co1227 O1238 2.039 . S
Co1227 N1241 2.140 . S
C1228 O1229 1.227 . S
C1228 O1238 1.265 . S
O1229 C1228 1.227 . S
N1230 Co1227 2.121 . S
N1230 C1232 1.375 . S
N1230 C1233 1.313 . S
C1231 C1232 1.338 . S
C1231 N1234 1.377 . S
C1231 H1251 0.930 . S
C1232 N1230 1.375 . S
C1232 C1231 1.338 . S
C1232 H1236 0.931 . S
C1233 N1230 1.313 . S
C1233 N1234 1.344 . S
C1233 H1237 0.930 . S
N1234 C1231 1.377 . S
N1234 C1233 1.344 . S
O1235 Co1227 2.055 . S
O1235 C1239 1.253 . S
H1236 C1232 0.931 . S
H1237 C1233 0.930 . S
O1238 Co1227 2.039 . S
O1238 C1228 1.265 . S
C1239 O1235 1.253 . S
C1239 O1240 1.227 . S
O1240 C1239 1.227 . S
N1241 Co1227 2.140 . S
N1241 C1244 1.346 . S
N1241 C1245 1.345 . S
C1242 C1243 1.387 . S
C1242 C1246 1.391 . S
C1243 C1242 1.387 . S
C1243 C1244 1.369 . S
C1243 H1252 0.929 . S
C1244 N1241 1.346 . S
C1244 C1243 1.369 . S
C1244 H1247 0.928 . S
C1245 N1241 1.345 . S
C1245 C1246 1.371 . S
C1245 H1248 0.931 . S
C1246 C1242 1.391 . S
C1246 C1245 1.371 . S
C1246 H1253 0.930 . S
H1247 C1244 0.928 . S
H1248 C1245 0.931 . S
H1249 C1225 0.930 . S
H1250 C1222 0.930 . S
H1251 C1231 0.930 . S
H1252 C1243 0.929 . S
H1253 C1246 0.930 . S
C1254 C1255 1.351 . S
C1254 N1257 1.368 . S
C1254 H1259 0.931 . S
C1255 C1254 1.351 . S
C1255 N1256 1.373 . S
C1255 H1283 0.930 . S
N1256 C1255 1.373 . S
N1256 C1258 1.340 . S
N1257 C1254 1.368 . S
N1257 C1258 1.321 . S
N1257 Co1260 2.135 . S
C1258 N1256 1.340 . S
C1258 N1257 1.321 . S
C1258 H1282 0.930 . S
H1259 C1254 0.931 . S
Co1260 N1257 2.135 . S
Co1260 N1263 2.121 . S
Co1260 O1268 2.055 . S
Co1260 O1271 2.039 . S
Co1260 N1274 2.140 . S
C1261 O1262 1.227 . S
C1261 O1271 1.265 . S
O1262 C1261 1.227 . S
N1263 Co1260 2.121 . S
N1263 C1265 1.375 . S
N1263 C1266 1.313 . S
C1264 C1265 1.338 . S
C1264 N1267 1.377 . S
C1264 H1284 0.930 . S
C1265 N1263 1.375 . S
C1265 C1264 1.338 . S
C1265 H1269 0.931 . S
C1266 N1263 1.313 . S
C1266 N1267 1.344 . S
C1266 H1270 0.930 . S
N1267 C1264 1.377 . S
N1267 C1266 1.344 . S
O1268 Co1260 2.055 . S
O1268 C1272 1.253 . S
H1269 C1265 0.931 . S
H1270 C1266 0.930 . S
O1271 Co1260 2.039 . S
O1271 C1261 1.265 . S
C1272 O1268 1.253 . S
C1272 O1273 1.227 . S
O1273 C1272 1.227 . S
N1274 Co1260 2.140 . S
N1274 C1277 1.346 . S
N1274 C1278 1.345 . S
C1275 C1276 1.387 . S
C1275 C1279 1.391 . S
C1276 C1275 1.387 . S
C1276 C1277 1.369 . S
C1276 H1285 0.929 . S
C1277 N1274 1.346 . S
C1277 C1276 1.369 . S
C1277 H1280 0.928 . S
C1278 N1274 1.345 . S
C1278 C1279 1.371 . S
C1278 H1281 0.931 . S
C1279 C1275 1.391 . S
C1279 C1278 1.371 . S
C1279 H1286 0.930 . S
H1280 C1277 0.928 . S
H1281 C1278 0.931 . S
H1282 C1258 0.930 . S
H1283 C1255 0.930 . S
H1284 C1264 0.930 . S
H1285 C1276 0.929 . S
H1286 C1279 0.930 . S
C1287 C1288 1.351 . S
C1287 N1290 1.368 . S
C1287 H1292 0.931 . S
C1288 C1287 1.351 . S
C1288 N1289 1.373 . S
C1288 H1316 0.930 . S
N1289 C1288 1.373 . S
N1289 C1291 1.340 . S
N1290 C1287 1.368 . S
N1290 C1291 1.321 . S
N1290 Co1293 2.135 . S
C1291 N1289 1.340 . S
C1291 N1290 1.321 . S
C1291 H1315 0.930 . S
H1292 C1287 0.931 . S
Co1293 N1290 2.135 . S
Co1293 N1296 2.121 . S
Co1293 O1301 2.055 . S
Co1293 O1304 2.039 . S
Co1293 N1307 2.140 . S
C1294 O1295 1.227 . S
C1294 O1304 1.265 . S
O1295 C1294 1.227 . S
N1296 Co1293 2.121 . S
N1296 C1298 1.375 . S
N1296 C1299 1.313 . S
C1297 C1298 1.338 . S
C1297 N1300 1.377 . S
C1297 H1317 0.930 . S
C1298 N1296 1.375 . S
C1298 C1297 1.338 . S
C1298 H1302 0.931 . S
C1299 N1296 1.313 . S
C1299 N1300 1.344 . S
C1299 H1303 0.930 . S
N1300 C1297 1.377 . S
N1300 C1299 1.344 . S
O1301 Co1293 2.055 . S
O1301 C1305 1.253 . S
H1302 C1298 0.931 . S
H1303 C1299 0.930 . S
O1304 Co1293 2.039 . S
O1304 C1294 1.265 . S
C1305 O1301 1.253 . S
C1305 O1306 1.227 . S
O1306 C1305 1.227 . S
N1307 Co1293 2.140 . S
N1307 C1310 1.346 . S
N1307 C1311 1.345 . S
C1308 C1309 1.387 . S
C1308 C1312 1.391 . S
C1309 C1308 1.387 . S
C1309 C1310 1.369 . S
C1309 H1318 0.929 . S
C1310 N1307 1.346 . S
C1310 C1309 1.369 . S
C1310 H1313 0.928 . S
C1311 N1307 1.345 . S
C1311 C1312 1.371 . S
C1311 H1314 0.931 . S
C1312 C1308 1.391 . S
C1312 C1311 1.371 . S
C1312 H1319 0.930 . S
H1313 C1310 0.928 . S
H1314 C1311 0.931 . S
H1315 C1291 0.930 . S
H1316 C1288 0.930 . S
H1317 C1297 0.930 . S
H1318 C1309 0.929 . S
H1319 C1312 0.930 . S
C1320 C1321 1.351 . S
C1320 N1323 1.368 . S
C1320 H1325 0.931 . S
C1321 C1320 1.351 . S
C1321 N1322 1.373 . S
C1321 H1349 0.930 . S
N1322 C1321 1.373 . S
N1322 C1324 1.340 . S
N1323 C1320 1.368 . S
N1323 C1324 1.321 . S
N1323 Co1326 2.135 . S
C1324 N1322 1.340 . S
C1324 N1323 1.321 . S
C1324 H1348 0.930 . S
H1325 C1320 0.931 . S
Co1326 N1323 2.135 . S
Co1326 N1329 2.121 . S
Co1326 O1334 2.055 . S
Co1326 O1337 2.039 . S
Co1326 N1340 2.140 . S
C1327 O1328 1.227 . S
C1327 O1337 1.265 . S
O1328 C1327 1.227 . S
N1329 Co1326 2.121 . S
N1329 C1331 1.375 . S
N1329 C1332 1.313 . S
C1330 C1331 1.338 . S
C1330 N1333 1.377 . S
C1330 H1350 0.930 . S
C1331 N1329 1.375 . S
C1331 C1330 1.338 . S
C1331 H1335 0.931 . S
C1332 N1329 1.313 . S
C1332 N1333 1.344 . S
C1332 H1336 0.930 . S
N1333 C1330 1.377 . S
N1333 C1332 1.344 . S
O1334 Co1326 2.055 . S
O1334 C1338 1.253 . S
H1335 C1331 0.931 . S
H1336 C1332 0.930 . S
O1337 Co1326 2.039 . S
O1337 C1327 1.265 . S
C1338 O1334 1.253 . S
C1338 O1339 1.227 . S
O1339 C1338 1.227 . S
N1340 Co1326 2.140 . S
N1340 C1343 1.346 . S
N1340 C1344 1.345 . S
C1341 C1342 1.387 . S
C1341 C1345 1.391 . S
C1342 C1341 1.387 . S
C1342 C1343 1.369 . S
C1342 H1351 0.929 . S
C1343 N1340 1.346 . S
C1343 C1342 1.369 . S
C1343 H1346 0.928 . S
C1344 N1340 1.345 . S
C1344 C1345 1.371 . S
C1344 H1347 0.931 . S
C1345 C1341 1.391 . S
C1345 C1344 1.371 . S
C1345 H1352 0.930 . S
H1346 C1343 0.928 . S
H1347 C1344 0.931 . S
H1348 C1324 0.930 . S
H1349 C1321 0.930 . S
H1350 C1330 0.930 . S
H1351 C1342 0.929 . S
H1352 C1345 0.930 . S
C1353 C1354 1.351 . S
C1353 N1356 1.368 . S
C1353 H1358 0.931 . S
C1354 C1353 1.351 . S
C1354 N1355 1.373 . S
C1354 H1382 0.930 . S
N1355 C1354 1.373 . S
N1355 C1357 1.340 . S
N1356 C1353 1.368 . S
N1356 C1357 1.321 . S
N1356 Co1359 2.135 . S
C1357 N1355 1.340 . S
C1357 N1356 1.321 . S
C1357 H1381 0.930 . S
H1358 C1353 0.931 . S
Co1359 N1356 2.135 . S
Co1359 N1362 2.121 . S
Co1359 O1367 2.055 . S
Co1359 O1370 2.039 . S
Co1359 N1373 2.140 . S
C1360 O1361 1.227 . S
C1360 O1370 1.265 . S
O1361 C1360 1.227 . S
N1362 Co1359 2.121 . S
N1362 C1364 1.375 . S
N1362 C1365 1.313 . S
C1363 C1364 1.338 . S
C1363 N1366 1.377 . S
C1363 H1383 0.930 . S
C1364 N1362 1.375 . S
C1364 C1363 1.338 . S
C1364 H1368 0.931 . S
C1365 N1362 1.313 . S
C1365 N1366 1.344 . S
C1365 H1369 0.930 . S
N1366 C1363 1.377 . S
N1366 C1365 1.344 . S
O1367 Co1359 2.055 . S
O1367 C1371 1.253 . S
H1368 C1364 0.931 . S
H1369 C1365 0.930 . S
O1370 Co1359 2.039 . S
O1370 C1360 1.265 . S
C1371 O1367 1.253 . S
C1371 O1372 1.227 . S
O1372 C1371 1.227 . S
N1373 Co1359 2.140 . S
N1373 C1376 1.346 . S
N1373 C1377 1.345 . S
C1374 C1375 1.387 . S
C1374 C1378 1.391 . S
C1375 C1374 1.387 . S
C1375 C1376 1.369 . S
C1375 H1384 0.929 . S
C1376 N1373 1.346 . S
C1376 C1375 1.369 . S
C1376 H1379 0.928 . S
C1377 N1373 1.345 . S
C1377 C1378 1.371 . S
C1377 H1380 0.931 . S
C1378 C1374 1.391 . S
C1378 C1377 1.371 . S
C1378 H1385 0.930 . S
H1379 C1376 0.928 . S
H1380 C1377 0.931 . S
H1381 C1357 0.930 . S
H1382 C1354 0.930 . S
H1383 C1363 0.930 . S
H1384 C1375 0.929 . S
H1385 C1378 0.930 . S
C1386 C1387 1.351 . S
C1386 N1389 1.368 . S
C1386 H1391 0.931 . S
C1387 C1386 1.351 . S
C1387 N1388 1.373 . S
C1387 H1415 0.930 . S
N1388 C1387 1.373 . S
N1388 C1390 1.340 . S
N1389 C1386 1.368 . S
N1389 C1390 1.321 . S
N1389 Co1392 2.135 . S
C1390 N1388 1.340 . S
C1390 N1389 1.321 . S
C1390 H1414 0.930 . S
H1391 C1386 0.931 . S
Co1392 N1389 2.135 . S
Co1392 N1395 2.121 . S
Co1392 O1400 2.055 . S
Co1392 O1403 2.039 . S
Co1392 N1406 2.140 . S
C1393 O1394 1.227 . S
C1393 O1403 1.265 . S
O1394 C1393 1.227 . S
N1395 Co1392 2.121 . S
N1395 C1397 1.375 . S
N1395 C1398 1.313 . S
C1396 C1397 1.338 . S
C1396 N1399 1.377 . S
C1396 H1416 0.930 . S
C1397 N1395 1.375 . S
C1397 C1396 1.338 . S
C1397 H1401 0.931 . S
C1398 N1395 1.313 . S
C1398 N1399 1.344 . S
C1398 H1402 0.930 . S
N1399 C1396 1.377 . S
N1399 C1398 1.344 . S
O1400 Co1392 2.055 . S
O1400 C1404 1.253 . S
H1401 C1397 0.931 . S
H1402 C1398 0.930 . S
O1403 Co1392 2.039 . S
O1403 C1393 1.265 . S
C1404 O1400 1.253 . S
C1404 O1405 1.227 . S
O1405 C1404 1.227 . S
N1406 Co1392 2.140 . S
N1406 C1409 1.346 . S
N1406 C1410 1.345 . S
C1407 C1408 1.387 . S
C1407 C1411 1.391 . S
C1408 C1407 1.387 . S
C1408 C1409 1.369 . S
C1408 H1417 0.929 . S
C1409 N1406 1.346 . S
C1409 C1408 1.369 . S
C1409 H1412 0.928 . S
C1410 N1406 1.345 . S
C1410 C1411 1.371 . S
C1410 H1413 0.931 . S
C1411 C1407 1.391 . S
C1411 C1410 1.371 . S
C1411 H1418 0.930 . S
H1412 C1409 0.928 . S
H1413 C1410 0.931 . S
H1414 C1390 0.930 . S
H1415 C1387 0.930 . S
H1416 C1396 0.930 . S
H1417 C1408 0.929 . S
H1418 C1411 0.930 . S
C1419 C1420 1.351 . S
C1419 N1422 1.368 . S
C1419 H1424 0.931 . S
C1420 C1419 1.351 . S
C1420 N1421 1.373 . S
C1420 H1448 0.930 . S
N1421 C1420 1.373 . S
N1421 C1423 1.340 . S
N1422 C1419 1.368 . S
N1422 C1423 1.321 . S
N1422 Co1425 2.135 . S
C1423 N1421 1.340 . S
C1423 N1422 1.321 . S
C1423 H1447 0.930 . S
H1424 C1419 0.931 . S
Co1425 N1422 2.135 . S
Co1425 N1428 2.121 . S
Co1425 O1433 2.055 . S
Co1425 O1436 2.039 . S
Co1425 N1439 2.140 . S
C1426 O1427 1.227 . S
C1426 O1436 1.265 . S
O1427 C1426 1.227 . S
N1428 Co1425 2.121 . S
N1428 C1430 1.375 . S
N1428 C1431 1.313 . S
C1429 C1430 1.338 . S
C1429 N1432 1.377 . S
C1429 H1449 0.930 . S
C1430 N1428 1.375 . S
C1430 C1429 1.338 . S
C1430 H1434 0.931 . S
C1431 N1428 1.313 . S
C1431 N1432 1.344 . S
C1431 H1435 0.930 . S
N1432 C1429 1.377 . S
N1432 C1431 1.344 . S
O1433 Co1425 2.055 . S
O1433 C1437 1.253 . S
H1434 C1430 0.931 . S
H1435 C1431 0.930 . S
O1436 Co1425 2.039 . S
O1436 C1426 1.265 . S
C1437 O1433 1.253 . S
C1437 O1438 1.227 . S
O1438 C1437 1.227 . S
N1439 Co1425 2.140 . S
N1439 C1442 1.346 . S
N1439 C1443 1.345 . S
C1440 C1441 1.387 . S
C1440 C1444 1.391 . S
C1441 C1440 1.387 . S
C1441 C1442 1.369 . S
C1441 H1450 0.929 . S
C1442 N1439 1.346 . S
C1442 C1441 1.369 . S
C1442 H1445 0.928 . S
C1443 N1439 1.345 . S
C1443 C1444 1.371 . S
C1443 H1446 0.931 . S
C1444 C1440 1.391 . S
C1444 C1443 1.371 . S
C1444 H1451 0.930 . S
H1445 C1442 0.928 . S
H1446 C1443 0.931 . S
H1447 C1423 0.930 . S
H1448 C1420 0.930 . S
H1449 C1429 0.930 . S
H1450 C1441 0.929 . S
H1451 C1444 0.930 . S
C1452 C1453 1.351 . S
C1452 N1455 1.368 . S
C1452 H1457 0.931 . S
C1453 C1452 1.351 . S
C1453 N1454 1.373 . S
C1453 H1481 0.930 . S
N1454 C1453 1.373 . S
N1454 C1456 1.340 . S
N1455 C1452 1.368 . S
N1455 C1456 1.321 . S
N1455 Co1458 2.135 . S
C1456 N1454 1.340 . S
C1456 N1455 1.321 . S
C1456 H1480 0.930 . S
H1457 C1452 0.931 . S
Co1458 N1455 2.135 . S
Co1458 N1461 2.121 . S
Co1458 O1466 2.055 . S
Co1458 O1469 2.039 . S
Co1458 N1472 2.140 . S
C1459 O1460 1.227 . S
C1459 O1469 1.265 . S
O1460 C1459 1.227 . S
N1461 Co1458 2.121 . S
N1461 C1463 1.375 . S
N1461 C1464 1.313 . S
C1462 C1463 1.338 . S
C1462 N1465 1.377 . S
C1462 H1482 0.930 . S
C1463 N1461 1.375 . S
C1463 C1462 1.338 . S
C1463 H1467 0.931 . S
C1464 N1461 1.313 . S
C1464 N1465 1.344 . S
C1464 H1468 0.930 . S
N1465 C1462 1.377 . S
N1465 C1464 1.344 . S
O1466 Co1458 2.055 . S
O1466 C1470 1.253 . S
H1467 C1463 0.931 . S
H1468 C1464 0.930 . S
O1469 Co1458 2.039 . S
O1469 C1459 1.265 . S
C1470 O1466 1.253 . S
C1470 O1471 1.227 . S
O1471 C1470 1.227 . S
N1472 Co1458 2.140 . S
N1472 C1475 1.346 . S
N1472 C1476 1.345 . S
C1473 C1474 1.387 . S
C1473 C1477 1.391 . S
C1474 C1473 1.387 . S
C1474 C1475 1.369 . S
C1474 H1483 0.929 . S
C1475 N1472 1.346 . S
C1475 C1474 1.369 . S
C1475 H1478 0.928 . S
C1476 N1472 1.345 . S
C1476 C1477 1.371 . S
C1476 H1479 0.931 . S
C1477 C1473 1.391 . S
C1477 C1476 1.371 . S
C1477 H1484 0.930 . S
H1478 C1475 0.928 . S
H1479 C1476 0.931 . S
H1480 C1456 0.930 . S
H1481 C1453 0.930 . S
H1482 C1462 0.930 . S
H1483 C1474 0.929 . S
H1484 C1477 0.930 . S
C1485 C1486 1.351 . S
C1485 N1488 1.368 . S
C1485 H1490 0.931 . S
C1486 C1485 1.351 . S
C1486 N1487 1.373 . S
C1486 H1514 0.930 . S
N1487 C1486 1.373 . S
N1487 C1489 1.340 . S
N1488 C1485 1.368 . S
N1488 C1489 1.321 . S
N1488 Co1491 2.135 . S
C1489 N1487 1.340 . S
C1489 N1488 1.321 . S
C1489 H1513 0.930 . S
H1490 C1485 0.931 . S
Co1491 N1488 2.135 . S
Co1491 N1494 2.121 . S
Co1491 O1499 2.055 . S
Co1491 O1502 2.039 . S
Co1491 N1505 2.140 . S
C1492 O1493 1.227 . S
C1492 O1502 1.265 . S
O1493 C1492 1.227 . S
N1494 Co1491 2.121 . S
N1494 C1496 1.375 . S
N1494 C1497 1.313 . S
C1495 C1496 1.338 . S
C1495 N1498 1.377 . S
C1495 H1515 0.930 . S
C1496 N1494 1.375 . S
C1496 C1495 1.338 . S
C1496 H1500 0.931 . S
C1497 N1494 1.313 . S
C1497 N1498 1.344 . S
C1497 H1501 0.930 . S
N1498 C1495 1.377 . S
N1498 C1497 1.344 . S
O1499 Co1491 2.055 . S
O1499 C1503 1.253 . S
H1500 C1496 0.931 . S
H1501 C1497 0.930 . S
O1502 Co1491 2.039 . S
O1502 C1492 1.265 . S
C1503 O1499 1.253 . S
C1503 O1504 1.227 . S
O1504 C1503 1.227 . S
N1505 Co1491 2.140 . S
N1505 C1508 1.346 . S
N1505 C1509 1.345 . S
C1506 C1507 1.387 . S
C1506 C1510 1.391 . S
C1507 C1506 1.387 . S
C1507 C1508 1.369 . S
C1507 H1516 0.929 . S
C1508 N1505 1.346 . S
C1508 C1507 1.369 . S
C1508 H1511 0.928 . S
C1509 N1505 1.345 . S
C1509 C1510 1.371 . S
C1509 H1512 0.931 . S
C1510 C1506 1.391 . S
C1510 C1509 1.371 . S
C1510 H1517 0.930 . S
H1511 C1508 0.928 . S
H1512 C1509 0.931 . S
H1513 C1489 0.930 . S
H1514 C1486 0.930 . S
H1515 C1495 0.930 . S
H1516 C1507 0.929 . S
H1517 C1510 0.930 . S
C1518 C1519 1.351 . S
C1518 N1521 1.368 . S
C1518 H1523 0.931 . S
C1519 C1518 1.351 . S
C1519 N1520 1.373 . S
C1519 H1547 0.930 . S
N1520 C1519 1.373 . S
N1520 C1522 1.340 . S
N1521 C1518 1.368 . S
N1521 C1522 1.321 . S
N1521 Co1524 2.135 . S
C1522 N1520 1.340 . S
C1522 N1521 1.321 . S
C1522 H1546 0.930 . S
H1523 C1518 0.931 . S
Co1524 N1521 2.135 . S
Co1524 N1527 2.121 . S
Co1524 O1532 2.055 . S
Co1524 O1535 2.039 . S
Co1524 N1538 2.140 . S
C1525 O1526 1.227 . S
C1525 O1535 1.265 . S
O1526 C1525 1.227 . S
N1527 Co1524 2.121 . S
N1527 C1529 1.375 . S
N1527 C1530 1.313 . S
C1528 C1529 1.338 . S
C1528 N1531 1.377 . S
C1528 H1548 0.930 . S
C1529 N1527 1.375 . S
C1529 C1528 1.338 . S
C1529 H1533 0.931 . S
C1530 N1527 1.313 . S
C1530 N1531 1.344 . S
C1530 H1534 0.930 . S
N1531 C1528 1.377 . S
N1531 C1530 1.344 . S
O1532 Co1524 2.055 . S
O1532 C1536 1.253 . S
H1533 C1529 0.931 . S
H1534 C1530 0.930 . S
O1535 Co1524 2.039 . S
O1535 C1525 1.265 . S
C1536 O1532 1.253 . S
C1536 O1537 1.227 . S
O1537 C1536 1.227 . S
N1538 Co1524 2.140 . S
N1538 C1541 1.346 . S
N1538 C1542 1.345 . S
C1539 C1540 1.387 . S
C1539 C1543 1.391 . S
C1540 C1539 1.387 . S
C1540 C1541 1.369 . S
C1540 H1549 0.929 . S
C1541 N1538 1.346 . S
C1541 C1540 1.369 . S
C1541 H1544 0.928 . S
C1542 N1538 1.345 . S
C1542 C1543 1.371 . S
C1542 H1545 0.931 . S
C1543 C1539 1.391 . S
C1543 C1542 1.371 . S
C1543 H1550 0.930 . S
H1544 C1541 0.928 . S
H1545 C1542 0.931 . S
H1546 C1522 0.930 . S
H1547 C1519 0.930 . S
H1548 C1528 0.930 . S
H1549 C1540 0.929 . S
H1550 C1543 0.930 . S
C1551 C1552 1.351 . S
C1551 N1554 1.368 . S
C1551 H1556 0.931 . S
C1552 C1551 1.351 . S
C1552 N1553 1.373 . S
C1552 H1580 0.930 . S
N1553 C1552 1.373 . S
N1553 C1555 1.340 . S
N1554 C1551 1.368 . S
N1554 C1555 1.321 . S
N1554 Co1557 2.135 . S
C1555 N1553 1.340 . S
C1555 N1554 1.321 . S
C1555 H1579 0.930 . S
H1556 C1551 0.931 . S
Co1557 N1554 2.135 . S
Co1557 N1560 2.121 . S
Co1557 O1565 2.055 . S
Co1557 O1568 2.039 . S
Co1557 N1571 2.140 . S
C1558 O1559 1.227 . S
C1558 O1568 1.265 . S
O1559 C1558 1.227 . S
N1560 Co1557 2.121 . S
N1560 C1562 1.375 . S
N1560 C1563 1.313 . S
C1561 C1562 1.338 . S
C1561 N1564 1.377 . S
C1561 H1581 0.930 . S
C1562 N1560 1.375 . S
C1562 C1561 1.338 . S
C1562 H1566 0.931 . S
C1563 N1560 1.313 . S
C1563 N1564 1.344 . S
C1563 H1567 0.930 . S
N1564 C1561 1.377 . S
N1564 C1563 1.344 . S
O1565 Co1557 2.055 . S
O1565 C1569 1.253 . S
H1566 C1562 0.931 . S
H1567 C1563 0.930 . S
O1568 Co1557 2.039 . S
O1568 C1558 1.265 . S
C1569 O1565 1.253 . S
C1569 O1570 1.227 . S
O1570 C1569 1.227 . S
N1571 Co1557 2.140 . S
N1571 C1574 1.346 . S
N1571 C1575 1.345 . S
C1572 C1573 1.387 . S
C1572 C1576 1.391 . S
C1573 C1572 1.387 . S
C1573 C1574 1.369 . S
C1573 H1582 0.929 . S
C1574 N1571 1.346 . S
C1574 C1573 1.369 . S
C1574 H1577 0.928 . S
C1575 N1571 1.345 . S
C1575 C1576 1.371 . S
C1575 H1578 0.931 . S
C1576 C1572 1.391 . S
C1576 C1575 1.371 . S
C1576 H1583 0.930 . S
H1577 C1574 0.928 . S
H1578 C1575 0.931 . S
H1579 C1555 0.930 . S
H1580 C1552 0.930 . S
H1581 C1561 0.930 . S
H1582 C1573 0.929 . S
H1583 C1576 0.930 . S
C1584 C1585 1.369 . S
C1584 C1586 1.419 . S
C1584 H1588 0.930 . S
C1585 C1584 1.369 . S
C1585 C1594 1.429 . S
C1586 C1584 1.419 . S
C1586 C1587 1.363 . S
C1586 H1589 0.929 . S
C1587 C1586 1.363 . S
C1587 C1593 1.428 . S
H1588 C1584 0.930 . S
H1589 C1586 0.929 . S
S1590 N1591 1.613 . S
S1590 N1592 1.610 . S
N1591 S1590 1.613 . S
N1591 C1594 1.350 . S
N1592 S1590 1.610 . S
N1592 C1593 1.351 . S
C1593 C1587 1.428 . S
C1593 N1592 1.351 . S
C1593 C1594 1.434 . S
C1594 C1585 1.429 . S
C1594 N1591 1.350 . S
C1594 C1593 1.434 . S
C1595 C1596 1.369 . S
C1595 C1597 1.419 . S
C1595 H1599 0.930 . S
C1596 C1595 1.369 . S
C1596 C1605 1.429 . S
C1597 C1595 1.419 . S
C1597 C1598 1.363 . S
C1597 H1600 0.929 . S
C1598 C1597 1.363 . S
C1598 C1604 1.428 . S
H1599 C1595 0.930 . S
H1600 C1597 0.929 . S
S1601 N1602 1.613 . S
S1601 N1603 1.610 . S
N1602 S1601 1.613 . S
N1602 C1605 1.350 . S
N1603 S1601 1.610 . S
N1603 C1604 1.351 . S
C1604 C1598 1.428 . S
C1604 N1603 1.351 . S
C1604 C1605 1.434 . S
C1605 C1596 1.429 . S
C1605 N1602 1.350 . S
C1605 C1604 1.434 . S
C1606 C1607 1.369 . S
C1606 C1608 1.419 . S
C1606 H1610 0.930 . S
C1607 C1606 1.369 . S
C1607 C1616 1.429 . S
C1608 C1606 1.419 . S
C1608 C1609 1.363 . S
C1608 H1611 0.929 . S
C1609 C1608 1.363 . S
C1609 C1615 1.428 . S
H1610 C1606 0.930 . S
H1611 C1608 0.929 . S
S1612 N1613 1.613 . S
S1612 N1614 1.610 . S
N1613 S1612 1.613 . S
N1613 C1616 1.350 . S
N1614 S1612 1.610 . S
N1614 C1615 1.351 . S
C1615 C1609 1.428 . S
C1615 N1614 1.351 . S
C1615 C1616 1.434 . S
C1616 C1607 1.429 . S
C1616 N1613 1.350 . S
C1616 C1615 1.434 . S
C1617 C1618 1.369 . S
C1617 C1619 1.419 . S
C1617 H1621 0.930 . S
C1618 C1617 1.369 . S
C1618 C1627 1.429 . S
C1619 C1617 1.419 . S
C1619 C1620 1.363 . S
C1619 H1622 0.929 . S
C1620 C1619 1.363 . S
C1620 C1626 1.428 . S
H1621 C1617 0.930 . S
H1622 C1619 0.929 . S
S1623 N1624 1.613 . S
S1623 N1625 1.610 . S
N1624 S1623 1.613 . S
N1624 C1627 1.350 . S
N1625 S1623 1.610 . S
N1625 C1626 1.351 . S
C1626 C1620 1.428 . S
C1626 N1625 1.351 . S
C1626 C1627 1.434 . S
C1627 C1618 1.429 . S
C1627 N1624 1.350 . S
C1627 C1626 1.434 . S
C1628 C1629 1.369 . S
C1628 C1630 1.419 . S
C1628 H1632 0.930 . S
C1629 C1628 1.369 . S
C1629 C1638 1.429 . S
C1630 C1628 1.419 . S
C1630 C1631 1.363 . S
C1630 H1633 0.929 . S
C1631 C1630 1.363 . S
C1631 C1637 1.428 . S
H1632 C1628 0.930 . S
H1633 C1630 0.929 . S
S1634 N1635 1.613 . S
S1634 N1636 1.610 . S
N1635 S1634 1.613 . S
N1635 C1638 1.350 . S
N1636 S1634 1.610 . S
N1636 C1637 1.351 . S
C1637 C1631 1.428 . S
C1637 N1636 1.351 . S
C1637 C1638 1.434 . S
C1638 C1629 1.429 . S
C1638 N1635 1.350 . S
C1638 C1637 1.434 . S
C1639 C1640 1.369 . S
C1639 C1641 1.419 . S
C1639 H1643 0.930 . S
C1640 C1639 1.369 . S
C1640 C1649 1.429 . S
C1641 C1639 1.419 . S
C1641 C1642 1.363 . S
C1641 H1644 0.929 . S
C1642 C1641 1.363 . S
C1642 C1648 1.428 . S
H1643 C1639 0.930 . S
H1644 C1641 0.929 . S
S1645 N1646 1.613 . S
S1645 N1647 1.610 . S
N1646 S1645 1.613 . S
N1646 C1649 1.350 . S
N1647 S1645 1.610 . S
N1647 C1648 1.351 . S
C1648 C1642 1.428 . S
C1648 N1647 1.351 . S
C1648 C1649 1.434 . S
C1649 C1640 1.429 . S
C1649 N1646 1.350 . S
C1649 C1648 1.434 . S
C1650 C1651 1.369 1_554 S
C1650 C1652 1.419 . S
C1650 H1654 0.930 . S
C1651 C1650 1.369 1_556 S
C1651 C1660 1.429 . S
C1652 C1650 1.419 . S
C1652 C1653 1.363 . S
C1652 H1655 0.929 . S
C1653 C1652 1.363 . S
C1653 C1659 1.428 . S
H1654 C1650 0.930 . S
H1655 C1652 0.929 . S
S1656 N1657 1.613 . S
S1656 N1658 1.610 . S
N1657 S1656 1.613 . S
N1657 C1660 1.350 . S
N1658 S1656 1.610 . S
N1658 C1659 1.351 1_556 S
C1659 C1653 1.428 . S
C1659 N1658 1.351 1_554 S
C1659 C1660 1.434 1_554 S
C1660 C1651 1.429 . S
C1660 N1657 1.350 . S
C1660 C1659 1.434 1_556 S
C1661 C1662 1.369 . S
C1661 C1663 1.419 . S
C1661 H1665 0.930 . S
C1662 C1661 1.369 . S
C1662 C1671 1.429 . S
C1663 C1661 1.419 . S
C1663 C1664 1.363 . S
C1663 H1666 0.929 . S
C1664 C1663 1.363 . S
C1664 C1670 1.428 . S
H1665 C1661 0.930 . S
H1666 C1663 0.929 . S
S1667 N1668 1.613 . S
S1667 N1669 1.610 . S
N1668 S1667 1.613 . S
N1668 C1671 1.350 . S
N1669 S1667 1.610 . S
N1669 C1670 1.351 . S
C1670 C1664 1.428 . S
C1670 N1669 1.351 . S
C1670 C1671 1.434 . S
C1671 C1662 1.429 . S
C1671 N1668 1.350 . S
C1671 C1670 1.434 . S
C1672 C1673 1.369 . S
C1672 C1674 1.419 . S
C1672 H1676 0.930 . S
C1673 C1672 1.369 . S
C1673 C1682 1.429 . S
C1674 C1672 1.419 . S
C1674 C1675 1.363 . S
C1674 H1677 0.929 . S
C1675 C1674 1.363 . S
C1675 C1681 1.428 . S
H1676 C1672 0.930 . S
H1677 C1674 0.929 . S
S1678 N1679 1.613 . S
S1678 N1680 1.610 1_655 S
N1679 S1678 1.613 . S
N1679 C1682 1.350 . S
N1680 S1678 1.610 1_455 S
N1680 C1681 1.351 1_455 S
C1681 C1675 1.428 . S
C1681 N1680 1.351 1_655 S
C1681 C1682 1.434 . S
C1682 C1673 1.429 . S
C1682 N1679 1.350 . S
C1682 C1681 1.434 . S
C1683 C1684 1.369 . S
C1683 C1685 1.419 . S
C1683 H1687 0.930 . S
C1684 C1683 1.369 . S
C1684 C1693 1.429 . S
C1685 C1683 1.419 . S
C1685 C1686 1.363 . S
C1685 H1688 0.929 . S
C1686 C1685 1.363 . S
C1686 C1692 1.428 . S
H1687 C1683 0.930 . S
H1688 C1685 0.929 . S
S1689 N1690 1.613 . S
S1689 N1691 1.610 . S
N1690 S1689 1.613 . S
N1690 C1693 1.350 . S
N1691 S1689 1.610 . S
N1691 C1692 1.351 . S
C1692 C1686 1.428 . S
C1692 N1691 1.351 . S
C1692 C1693 1.434 . S
C1693 C1684 1.429 . S
C1693 N1690 1.350 . S
C1693 C1692 1.434 . S
C1694 C1695 1.369 . S
C1694 C1696 1.419 . S
C1694 H1698 0.930 . S
C1695 C1694 1.369 . S
C1695 C1704 1.429 . S
C1696 C1694 1.419 . S
C1696 C1697 1.363 . S
C1696 H1699 0.929 . S
C1697 C1696 1.363 . S
C1697 C1703 1.428 . S
H1698 C1694 0.930 . S
H1699 C1696 0.929 . S
S1700 N1701 1.613 . S
S1700 N1702 1.610 . S
N1701 S1700 1.613 . S
N1701 C1704 1.350 . S
N1702 S1700 1.610 . S
N1702 C1703 1.351 . S
C1703 C1697 1.428 . S
C1703 N1702 1.351 . S
C1703 C1704 1.434 . S
C1704 C1695 1.429 . S
C1704 N1701 1.350 . S
C1704 C1703 1.434 . S
C1705 C1706 1.369 . S
C1705 C1707 1.419 . S
C1705 H1709 0.930 . S
C1706 C1705 1.369 . S
C1706 C1715 1.429 . S
C1707 C1705 1.419 . S
C1707 C1708 1.363 . S
C1707 H1710 0.929 . S
C1708 C1707 1.363 . S
C1708 C1714 1.428 . S
H1709 C1705 0.930 . S
H1710 C1707 0.929 . S
S1711 N1712 1.613 . S
S1711 N1713 1.610 . S
N1712 S1711 1.613 . S
N1712 C1715 1.350 . S
N1713 S1711 1.610 . S
N1713 C1714 1.351 . S
C1714 C1708 1.428 . S
C1714 N1713 1.351 . S
C1714 C1715 1.434 . S
C1715 C1706 1.429 . S
C1715 N1712 1.350 . S
C1715 C1714 1.434 . S
C1716 C1717 1.369 . S
C1716 C1718 1.419 . S
C1716 H1720 0.930 1_655 S
C1717 C1716 1.369 . S
C1717 C1726 1.429 . S
C1718 C1716 1.419 . S
C1718 C1719 1.363 . S
C1718 H1721 0.929 . S
C1719 C1718 1.363 . S
C1719 C1725 1.428 . S
H1720 C1716 0.930 1_455 S
H1721 C1718 0.929 . S
S1722 N1723 1.613 . S
S1722 N1724 1.610 . S
N1723 S1722 1.613 . S
N1723 C1726 1.350 . S
N1724 S1722 1.610 . S
N1724 C1725 1.351 . S
C1725 C1719 1.428 . S
C1725 N1724 1.351 . S
C1725 C1726 1.434 . S
C1726 C1717 1.429 . S
C1726 N1723 1.350 . S
C1726 C1725 1.434 . S
C1727 C1728 1.369 . S
C1727 C1729 1.419 . S
C1727 H1731 0.930 . S
C1728 C1727 1.369 . S
C1728 C1737 1.429 . S
C1729 C1727 1.419 . S
C1729 C1730 1.363 . S
C1729 H1732 0.929 . S
C1730 C1729 1.363 . S
C1730 C1736 1.428 . S
H1731 C1727 0.930 . S
H1732 C1729 0.929 . S
S1733 N1734 1.613 . S
S1733 N1735 1.610 . S
N1734 S1733 1.613 . S
N1734 C1737 1.350 . S
N1735 S1733 1.610 . S
N1735 C1736 1.351 . S
C1736 C1730 1.428 . S
C1736 N1735 1.351 . S
C1736 C1737 1.434 . S
C1737 C1728 1.429 . S
C1737 N1734 1.350 . S
C1737 C1736 1.434 . S
C1738 C1739 1.369 . S
C1738 C1740 1.419 . S
C1738 H1742 0.930 . S
C1739 C1738 1.369 . S
C1739 C1748 1.429 . S
C1740 C1738 1.419 . S
C1740 C1741 1.363 . S
C1740 H1743 0.929 . S
C1741 C1740 1.363 . S
C1741 C1747 1.428 . S
H1742 C1738 0.930 . S
H1743 C1740 0.929 . S
S1744 N1745 1.613 . S
S1744 N1746 1.610 . S
N1745 S1744 1.613 . S
N1745 C1748 1.350 . S
N1746 S1744 1.610 . S
N1746 C1747 1.351 . S
C1747 C1741 1.428 . S
C1747 N1746 1.351 . S
C1747 C1748 1.434 . S
C1748 C1739 1.429 . S
C1748 N1745 1.350 . S
C1748 C1747 1.434 . S
C1749 C1750 1.369 . S
C1749 C1751 1.419 . S
C1749 H1753 0.930 . S
C1750 C1749 1.369 . S
C1750 C1759 1.429 . S
C1751 C1749 1.419 . S
C1751 C1752 1.363 . S
C1751 H1754 0.929 . S
C1752 C1751 1.363 . S
C1752 C1758 1.428 . S
H1753 C1749 0.930 . S
H1754 C1751 0.929 . S
S1755 N1756 1.613 . S
S1755 N1757 1.610 . S
N1756 S1755 1.613 . S
N1756 C1759 1.350 . S
N1757 S1755 1.610 . S
N1757 C1758 1.351 . S
C1758 C1752 1.428 . S
C1758 N1757 1.351 . S
C1758 C1759 1.434 . S
C1759 C1750 1.429 . S
C1759 N1756 1.350 . S
C1759 C1758 1.434 . S
C1760 C1761 1.369 . S
C1760 C1762 1.441 . S
C1760 H1764 0.930 . S
C1761 C1760 1.369 . S
C1761 C1770 1.429 . S
C1762 C1760 1.441 . S
C1762 C1763 1.363 . S
C1762 H1765 0.906 1_565 S
C1763 C1762 1.363 . S
C1763 C1769 1.428 . S
H1764 C1760 0.930 . S
H1765 C1762 0.906 1_545 S
S1766 N1767 1.613 . S
S1766 N1768 1.610 . S
N1767 S1766 1.613 . S
N1767 C1770 1.350 . S
N1768 S1766 1.610 . S
N1768 C1769 1.351 . S
C1769 C1763 1.428 . S
C1769 N1768 1.351 . S
C1769 C1770 1.434 . S
C1770 C1761 1.429 . S
C1770 N1767 1.350 . S
C1770 C1769 1.434 . S
C1771 C1772 1.369 . S
C1771 C1773 1.419 . S
C1771 H1775 0.930 . S
C1772 C1771 1.369 . S
C1772 C1781 1.429 . S
C1773 C1771 1.419 . S
C1773 C1774 1.363 . S
C1773 H1776 0.929 . S
C1774 C1773 1.363 . S
C1774 C1780 1.428 . S
H1775 C1771 0.930 . S
H1776 C1773 0.929 . S
S1777 N1778 1.613 . S
S1777 N1779 1.610 . S
N1778 S1777 1.613 . S
N1778 C1781 1.350 . S
N1779 S1777 1.610 . S
N1779 C1780 1.351 . S
C1780 C1774 1.428 . S
C1780 N1779 1.351 . S
C1780 C1781 1.434 . S
C1781 C1772 1.429 . S
C1781 N1778 1.350 . S
C1781 C1780 1.434 . S
C1782 C1783 1.369 . S
C1782 C1784 1.419 . S
C1782 H1786 0.930 . S
C1783 C1782 1.369 . S
C1783 C1792 1.429 . S
C1784 C1782 1.419 . S
C1784 C1785 1.363 . S
C1784 H1787 0.929 . S
C1785 C1784 1.363 . S
C1785 C1791 1.428 . S
H1786 C1782 0.930 . S
H1787 C1784 0.929 . S
S1788 N1789 1.613 . S
S1788 N1790 1.610 . S
N1789 S1788 1.613 . S
N1789 C1792 1.350 . S
N1790 S1788 1.610 . S
N1790 C1791 1.351 . S
C1791 C1785 1.428 . S
C1791 N1790 1.351 . S
C1791 C1792 1.434 . S
C1792 C1783 1.429 . S
C1792 N1789 1.350 . S
C1792 C1791 1.434 . S
C1793 C1794 1.369 . S
C1793 C1795 1.419 . S
C1793 H1797 0.930 . S
C1794 C1793 1.369 . S
C1794 C1803 1.429 . S
C1795 C1793 1.419 . S
C1795 C1796 1.363 . S
C1795 H1798 0.929 . S
C1796 C1795 1.363 . S
C1796 C1802 1.428 . S
H1797 C1793 0.930 . S
H1798 C1795 0.929 . S
S1799 N1800 1.613 . S
S1799 N1801 1.610 . S
N1800 S1799 1.613 . S
N1800 C1803 1.350 . S
N1801 S1799 1.610 . S
N1801 C1802 1.351 . S
C1802 C1796 1.428 . S
C1802 N1801 1.351 . S
C1802 C1803 1.434 . S
C1803 C1794 1.429 . S
C1803 N1800 1.350 . S
C1803 C1802 1.434 . S
C1804 C1805 1.369 . S
C1804 C1806 1.419 . S
C1804 H1808 0.930 . S
C1805 C1804 1.369 . S
C1805 C1814 1.429 . S
C1806 C1804 1.419 . S
C1806 C1807 1.363 . S
C1806 H1809 0.929 . S
C1807 C1806 1.363 . S
C1807 C1813 1.428 . S
H1808 C1804 0.930 . S
H1809 C1806 0.929 . S
S1810 N1811 1.613 . S
S1810 N1812 1.610 . S
N1811 S1810 1.613 . S
N1811 C1814 1.350 . S
N1812 S1810 1.610 . S
N1812 C1813 1.351 . S
C1813 C1807 1.428 . S
C1813 N1812 1.351 . S
C1813 C1814 1.434 . S
C1814 C1805 1.429 . S
C1814 N1811 1.350 . S
C1814 C1813 1.434 . S
C1815 C1816 1.369 . S
C1815 C1817 1.419 . S
C1815 H1819 0.930 . S
C1816 C1815 1.369 . S
C1816 C1825 1.429 1_545 S
C1817 C1815 1.419 . S
C1817 C1818 1.363 . S
C1817 H1820 0.929 . S
C1818 C1817 1.363 . S
C1818 C1824 1.428 . S
H1819 C1815 0.930 . S
H1820 C1817 0.929 . S
S1821 N1822 1.613 . S
S1821 N1823 1.610 . S
N1822 S1821 1.613 . S
N1822 C1825 1.350 . S
N1823 S1821 1.610 . S
N1823 C1824 1.351 1_565 S
C1824 C1818 1.428 . S
C1824 N1823 1.351 1_545 S
C1824 C1825 1.434 1_545 S
C1825 C1816 1.429 1_565 S
C1825 N1822 1.350 . S
C1825 C1824 1.434 1_565 S
C1826 C1827 1.369 . S
C1826 C1828 1.419 . S
C1826 H1830 0.930 . S
C1827 C1826 1.369 . S
C1827 C1836 1.429 . S
C1828 C1826 1.419 . S
C1828 C1829 1.363 . S
C1828 H1831 0.929 . S
C1829 C1828 1.363 . S
C1829 C1835 1.428 . S
H1830 C1826 0.930 . S
H1831 C1828 0.929 . S
S1832 N1833 1.613 . S
S1832 N1834 1.610 . S
N1833 S1832 1.613 . S
N1833 C1836 1.350 . S
N1834 S1832 1.610 . S
N1834 C1835 1.351 . S
C1835 C1829 1.428 . S
C1835 N1834 1.351 . S
C1835 C1836 1.434 . S
C1836 C1827 1.429 . S
C1836 N1833 1.350 . S
C1836 C1835 1.434 . S
C1837 C1838 1.369 . S
C1837 C1839 1.419 . S
C1837 H1841 0.930 . S
C1838 C1837 1.369 . S
C1838 C1847 1.429 . S
C1839 C1837 1.419 . S
C1839 C1840 1.363 . S
C1839 H1842 0.929 . S
C1840 C1839 1.363 . S
C1840 C1846 1.428 . S
H1841 C1837 0.930 . S
H1842 C1839 0.929 . S
S1843 N1844 1.613 . S
S1843 N1845 1.610 . S
N1844 S1843 1.613 . S
N1844 C1847 1.350 . S
N1845 S1843 1.610 . S
N1845 C1846 1.351 . S
C1846 C1840 1.428 . S
C1846 N1845 1.351 . S
C1846 C1847 1.434 . S
C1847 C1838 1.429 . S
C1847 N1844 1.350 . S
C1847 C1846 1.434 . S
C1848 C1849 1.369 . S
C1848 C1850 1.419 . S
C1848 H1852 0.930 . S
C1849 C1848 1.369 . S
C1849 C1858 1.429 . S
C1850 C1848 1.419 . S
C1850 C1851 1.363 . S
C1850 H1853 0.929 1_554 S
C1851 C1850 1.363 . S
C1851 C1857 1.428 . S
H1852 C1848 0.930 . S
H1853 C1850 0.929 1_556 S
S1854 N1855 1.613 . S
S1854 N1856 1.610 . S
N1855 S1854 1.613 . S
N1855 C1858 1.350 . S
N1856 S1854 1.610 . S
N1856 C1857 1.351 . S
C1857 C1851 1.428 . S
C1857 N1856 1.351 . S
C1857 C1858 1.434 . S
C1858 C1849 1.429 . S
C1858 N1855 1.350 . S
C1858 C1857 1.434 . S
C1859 C1860 1.369 . S
C1859 C1861 1.419 . S
C1859 H1863 0.930 . S
C1860 C1859 1.369 . S
C1860 C1869 1.429 . S
C1861 C1859 1.419 . S
C1861 C1862 1.363 . S
C1861 H1864 0.929 . S
C1862 C1861 1.363 . S
C1862 C1868 1.428 . S
H1863 C1859 0.930 . S
H1864 C1861 0.929 . S
S1865 N1866 1.613 . S
S1865 N1867 1.610 . S
N1866 S1865 1.613 . S
N1866 C1869 1.350 . S
N1867 S1865 1.610 . S
N1867 C1868 1.351 . S
C1868 C1862 1.428 . S
C1868 N1867 1.351 . S
C1868 C1869 1.434 . S
C1869 C1860 1.429 . S
C1869 N1866 1.350 . S
C1869 C1868 1.434 . S
C1870 C1871 1.369 . S
C1870 C1872 1.419 . S
C1870 H1874 0.930 . S
C1871 C1870 1.369 . S
C1871 C1880 1.429 . S
C1872 C1870 1.419 . S
C1872 C1873 1.363 . S
C1872 H1875 0.929 . S
C1873 C1872 1.363 . S
C1873 C1879 1.428 . S
H1874 C1870 0.930 . S
H1875 C1872 0.929 . S
S1876 N1877 1.613 . S
S1876 N1878 1.610 . S
N1877 S1876 1.613 . S
N1877 C1880 1.350 . S
N1878 S1876 1.610 . S
N1878 C1879 1.351 . S
C1879 C1873 1.428 . S
C1879 N1878 1.351 . S
C1879 C1880 1.434 . S
C1880 C1871 1.429 . S
C1880 N1877 1.350 . S
C1880 C1879 1.434 . S
C1881 C1882 1.369 . S
C1881 C1883 1.419 . S
C1881 H1885 0.930 . S
C1882 C1881 1.369 . S
C1882 C1891 1.429 . S
C1883 C1881 1.419 . S
C1883 C1884 1.363 . S
C1883 H1886 0.929 . S
C1884 C1883 1.363 . S
C1884 C1890 1.428 . S
H1885 C1881 0.930 . S
H1886 C1883 0.929 . S
S1887 N1888 1.613 . S
S1887 N1889 1.610 . S
N1888 S1887 1.613 . S
N1888 C1891 1.350 . S
N1889 S1887 1.610 . S
N1889 C1890 1.351 . S
C1890 C1884 1.428 . S
C1890 N1889 1.351 . S
C1890 C1891 1.434 . S
C1891 C1882 1.429 . S
C1891 N1888 1.350 . S
C1891 C1890 1.434 . S
C1892 C1893 1.369 . S
C1892 C1894 1.419 . S
C1892 H1896 0.930 . S
C1893 C1892 1.369 . S
C1893 C1902 1.429 . S
C1894 C1892 1.419 . S
C1894 C1895 1.363 . S
C1894 H1897 0.929 . S
C1895 C1894 1.363 . S
C1895 C1901 1.428 . S
H1896 C1892 0.930 . S
H1897 C1894 0.929 . S
S1898 N1899 1.613 . S
S1898 N1900 1.610 . S
N1899 S1898 1.613 . S
N1899 C1902 1.350 . S
N1900 S1898 1.610 . S
N1900 C1901 1.351 . S
C1901 C1895 1.428 . S
C1901 N1900 1.351 . S
C1901 C1902 1.434 . S
C1902 C1893 1.429 . S
C1902 N1899 1.350 . S
C1902 C1901 1.434 . S
C1903 C1904 1.369 . S
C1903 C1905 1.419 . S
C1903 H1907 0.930 . S
C1904 C1903 1.369 . S
C1904 C1913 1.429 . S
C1905 C1903 1.419 . S
C1905 C1906 1.363 . S
C1905 H1908 0.929 . S
C1906 C1905 1.363 . S
C1906 C1912 1.428 . S
H1907 C1903 0.930 . S
H1908 C1905 0.929 . S
S1909 N1910 1.613 . S
S1909 N1911 1.610 . S
N1910 S1909 1.613 . S
N1910 C1913 1.350 . S
N1911 S1909 1.610 . S
N1911 C1912 1.351 . S
C1912 C1906 1.428 . S
C1912 N1911 1.351 . S
C1912 C1913 1.434 . S
C1913 C1904 1.429 . S
C1913 N1910 1.350 . S
C1913 C1912 1.434 . S
C1914 C1915 1.369 1_554 S
C1914 C1916 1.419 . S
C1914 H1918 0.930 . S
C1915 C1914 1.369 1_556 S
C1915 C1924 1.429 . S
C1916 C1914 1.419 . S
C1916 C1917 1.363 . S
C1916 H1919 0.929 . S
C1917 C1916 1.363 . S
C1917 C1923 1.428 . S
H1918 C1914 0.930 . S
H1919 C1916 0.929 . S
S1920 N1921 1.613 . S
S1920 N1922 1.610 1_556 S
N1921 S1920 1.613 . S
N1921 C1924 1.350 . S
N1922 S1920 1.610 1_554 S
N1922 C1923 1.351 . S
C1923 C1917 1.428 . S
C1923 N1922 1.351 . S
C1923 C1924 1.434 1_554 S
C1924 C1915 1.429 . S
C1924 N1921 1.350 . S
C1924 C1923 1.434 1_556 S
C1925 C1926 1.369 . S
C1925 C1927 1.419 . S
C1925 H1929 0.930 . S
C1926 C1925 1.369 . S
C1926 C1935 1.429 . S
C1927 C1925 1.419 . S
C1927 C1928 1.363 . S
C1927 H1930 0.929 . S
C1928 C1927 1.363 . S
C1928 C1934 1.428 . S
H1929 C1925 0.930 . S
H1930 C1927 0.929 . S
S1931 N1932 1.613 . S
S1931 N1933 1.610 . S
N1932 S1931 1.613 . S
N1932 C1935 1.350 . S
N1933 S1931 1.610 . S
N1933 C1934 1.351 . S
C1934 C1928 1.428 . S
C1934 N1933 1.351 . S
C1934 C1935 1.434 . S
C1935 C1926 1.429 . S
C1935 N1932 1.350 . S
C1935 C1934 1.434 . S
C1936 C1937 1.369 . S
C1936 C1938 1.419 . S
C1936 H1940 0.930 . S
C1937 C1936 1.369 . S
C1937 C1946 1.429 . S
C1938 C1936 1.419 . S
C1938 C1939 1.363 . S
C1938 H1941 0.929 . S
C1939 C1938 1.363 . S
C1939 C1945 1.428 . S
H1940 C1936 0.930 . S
H1941 C1938 0.929 . S
S1942 N1943 1.613 . S
S1942 N1944 1.610 . S
N1943 S1942 1.613 . S
N1943 C1946 1.350 . S
N1944 S1942 1.610 . S
N1944 C1945 1.351 . S
C1945 C1939 1.428 . S
C1945 N1944 1.351 . S
C1945 C1946 1.434 . S
C1946 C1937 1.429 . S
C1946 N1943 1.350 . S
C1946 C1945 1.434 . S
C1947 C1948 1.369 . S
C1947 C1949 1.419 . S
C1947 H1951 0.930 . S
C1948 C1947 1.369 . S
C1948 C1957 1.429 . S
C1949 C1947 1.419 . S
C1949 C1950 1.363 . S
C1949 H1952 0.929 . S
C1950 C1949 1.363 . S
C1950 C1956 1.428 . S
H1951 C1947 0.930 . S
H1952 C1949 0.929 . S
S1953 N1954 1.613 . S
S1953 N1955 1.610 . S
N1954 S1953 1.613 . S
N1954 C1957 1.350 . S
N1955 S1953 1.610 . S
N1955 C1956 1.351 . S
C1956 C1950 1.428 . S
C1956 N1955 1.351 . S
C1956 C1957 1.434 . S
C1957 C1948 1.429 . S
C1957 N1954 1.350 . S
C1957 C1956 1.434 . S
C1958 C1959 1.369 . S
C1958 C1960 1.419 . S
C1958 H1962 0.930 . S
C1959 C1958 1.369 . S
C1959 C1968 1.429 . S
C1960 C1958 1.419 . S
C1960 C1961 1.363 . S
C1960 H1963 0.929 . S
C1961 C1960 1.363 . S
C1961 C1967 1.428 . S
H1962 C1958 0.930 . S
H1963 C1960 0.929 . S
S1964 N1965 1.613 . S
S1964 N1966 1.610 . S
N1965 S1964 1.613 . S
N1965 C1968 1.350 . S
N1966 S1964 1.610 . S
N1966 C1967 1.351 . S
C1967 C1961 1.428 . S
C1967 N1966 1.351 . S
C1967 C1968 1.434 . S
C1968 C1959 1.429 . S
C1968 N1965 1.350 . S
C1968 C1967 1.434 . S
C1969 C1970 1.369 . S
C1969 C1971 1.419 . S
C1969 H1973 0.930 . S
C1970 C1969 1.369 . S
C1970 C1979 1.429 . S
C1971 C1969 1.419 . S
C1971 C1972 1.363 . S
C1971 H1974 0.929 . S
C1972 C1971 1.363 . S
C1972 C1978 1.428 . S
H1973 C1969 0.930 . S
H1974 C1971 0.929 . S
S1975 N1976 1.613 . S
S1975 N1977 1.610 . S
N1976 S1975 1.613 . S
N1976 C1979 1.350 . S
N1977 S1975 1.610 . S
N1977 C1978 1.351 . S
C1978 C1972 1.428 . S
C1978 N1977 1.351 . S
C1978 C1979 1.434 . S
C1979 C1970 1.429 . S
C1979 N1976 1.350 . S
C1979 C1978 1.434 . S
C1980 C1981 1.369 . S
C1980 C1982 1.419 . S
C1980 H1984 0.930 1_455 S
C1981 C1980 1.369 . S
C1981 C1990 1.429 . S
C1982 C1980 1.419 . S
C1982 C1983 1.363 . S
C1982 H1985 0.929 . S
C1983 C1982 1.363 . S
C1983 C1989 1.428 . S
H1984 C1980 0.930 1_655 S
H1985 C1982 0.929 . S
S1986 N1987 1.613 . S
S1986 N1988 1.610 . S
N1987 S1986 1.613 . S
N1987 C1990 1.350 . S
N1988 S1986 1.610 . S
N1988 C1989 1.351 . S
C1989 C1983 1.428 . S
C1989 N1988 1.351 . S
C1989 C1990 1.434 . S
C1990 C1981 1.429 . S
C1990 N1987 1.350 . S
C1990 C1989 1.434 . S
C1991 C1992 1.369 . S
C1991 C1993 1.419 . S
C1991 H1995 0.930 . S
C1992 C1991 1.369 . S
C1992 C2001 1.429 . S
C1993 C1991 1.419 . S
C1993 C1994 1.363 . S
C1993 H1996 0.929 . S
C1994 C1993 1.363 . S
C1994 C2000 1.428 . S
H1995 C1991 0.930 . S
H1996 C1993 0.929 . S
S1997 N1998 1.613 . S
S1997 N1999 1.610 . S
N1998 S1997 1.613 . S
N1998 C2001 1.350 . S
N1999 S1997 1.610 . S
N1999 C2000 1.351 . S
C2000 C1994 1.428 . S
C2000 N1999 1.351 . S
C2000 C2001 1.434 . S
C2001 C1992 1.429 . S
C2001 N1998 1.350 . S
C2001 C2000 1.434 . S
C2002 C2003 1.369 . S
C2002 C2004 1.419 . S
C2002 H2006 0.930 . S
C2003 C2002 1.369 . S
C2003 C2012 1.429 . S
C2004 C2002 1.419 . S
C2004 C2005 1.363 . S
C2004 H2007 0.929 . S
C2005 C2004 1.363 . S
C2005 C2011 1.428 . S
H2006 C2002 0.930 . S
H2007 C2004 0.929 . S
S2008 N2009 1.613 . S
S2008 N2010 1.610 . S
N2009 S2008 1.613 . S
N2009 C2012 1.350 . S
N2010 S2008 1.610 . S
N2010 C2011 1.351 . S
C2011 C2005 1.428 . S
C2011 N2010 1.351 . S
C2011 C2012 1.434 . S
C2012 C2003 1.429 . S
C2012 N2009 1.350 . S
C2012 C2011 1.434 . S
C2013 C2014 1.369 . S
C2013 C2015 1.419 . S
C2013 H2017 0.930 . S
C2014 C2013 1.369 . S
C2014 C2023 1.429 . S
C2015 C2013 1.419 . S
C2015 C2016 1.363 . S
C2015 H2018 0.929 . S
C2016 C2015 1.363 . S
C2016 C2022 1.428 . S
H2017 C2013 0.930 . S
H2018 C2015 0.929 . S
S2019 N2020 1.613 . S
S2019 N2021 1.610 . S
N2020 S2019 1.613 . S
N2020 C2023 1.350 . S
N2021 S2019 1.610 . S
N2021 C2022 1.351 . S
C2022 C2016 1.428 . S
C2022 N2021 1.351 . S
C2022 C2023 1.434 . S
C2023 C2014 1.429 . S
C2023 N2020 1.350 . S
C2023 C2022 1.434 . S
C2024 C2025 1.369 . S
C2024 C2026 1.419 . S
C2024 H2028 0.930 . S
C2025 C2024 1.369 . S
C2025 C2034 1.429 . S
C2026 C2024 1.419 . S
C2026 C2027 1.363 1_545 S
C2026 H2029 0.916 1_545 S
C2027 C2026 1.363 1_565 S
C2027 C2033 1.428 1_565 S
H2028 C2024 0.930 . S
H2029 C2026 0.916 1_565 S
S2030 N2031 1.613 . S
S2030 N2032 1.610 . S
N2031 S2030 1.613 . S
N2031 C2034 1.350 . S
N2032 S2030 1.610 . S
N2032 C2033 1.351 . S
C2033 C2027 1.428 1_545 S
C2033 N2032 1.351 . S
C2033 C2034 1.434 . S
C2034 C2025 1.429 . S
C2034 N2031 1.350 . S
C2034 C2033 1.434 . S
C2035 C2036 1.369 . S
C2035 C2037 1.419 . S
C2035 H2039 0.930 . S
C2036 C2035 1.369 . S
C2036 C2045 1.429 . S
C2037 C2035 1.419 . S
C2037 C2038 1.363 . S
C2037 H2040 0.929 . S
C2038 C2037 1.363 . S
C2038 C2044 1.428 . S
H2039 C2035 0.930 . S
H2040 C2037 0.929 . S
S2041 N2042 1.613 . S
S2041 N2043 1.610 . S
N2042 S2041 1.613 . S
N2042 C2045 1.350 . S
N2043 S2041 1.610 . S
N2043 C2044 1.351 . S
C2044 C2038 1.428 . S
C2044 N2043 1.351 . S
C2044 C2045 1.434 . S
C2045 C2036 1.429 . S
C2045 N2042 1.350 . S
C2045 C2044 1.434 . S
C2046 C2047 1.369 . S
C2046 C2048 1.419 . S
C2046 H2050 0.930 . S
C2047 C2046 1.369 . S
C2047 C2056 1.429 . S
C2048 C2046 1.419 . S
C2048 C2049 1.363 . S
C2048 H2051 0.929 . S
C2049 C2048 1.363 . S
C2049 C2055 1.428 . S
H2050 C2046 0.930 . S
H2051 C2048 0.929 . S
S2052 N2053 1.613 . S
S2052 N2054 1.610 . S
N2053 S2052 1.613 . S
N2053 C2056 1.350 . S
N2054 S2052 1.610 . S
N2054 C2055 1.351 . S
C2055 C2049 1.428 . S
C2055 N2054 1.351 . S
C2055 C2056 1.434 . S
C2056 C2047 1.429 . S
C2056 N2053 1.350 . S
C2056 C2055 1.434 . S
C2057 C2058 1.369 . S
C2057 C2059 1.419 . S
C2057 H2061 0.930 . S
C2058 C2057 1.369 . S
C2058 C2067 1.429 . S
C2059 C2057 1.419 . S
C2059 C2060 1.363 . S
C2059 H2062 0.929 . S
C2060 C2059 1.363 . S
C2060 C2066 1.428 . S
H2061 C2057 0.930 . S
H2062 C2059 0.929 . S
S2063 N2064 1.613 . S
S2063 N2065 1.610 . S
N2064 S2063 1.613 . S
N2064 C2067 1.350 . S
N2065 S2063 1.610 . S
N2065 C2066 1.351 . S
C2066 C2060 1.428 . S
C2066 N2065 1.351 . S
C2066 C2067 1.434 . S
C2067 C2058 1.429 . S
C2067 N2064 1.350 . S
C2067 C2066 1.434 . S
C2068 C2069 1.369 . S
C2068 C2070 1.419 . S
C2068 H2072 0.930 . S
C2069 C2068 1.369 . S
C2069 C2078 1.429 . S
C2070 C2068 1.419 . S
C2070 C2071 1.363 . S
C2070 H2073 0.929 . S
C2071 C2070 1.363 . S
C2071 C2077 1.428 . S
H2072 C2068 0.930 . S
H2073 C2070 0.929 . S
S2074 N2075 1.613 . S
S2074 N2076 1.610 . S
N2075 S2074 1.613 . S
N2075 C2078 1.350 . S
N2076 S2074 1.610 . S
N2076 C2077 1.351 . S
C2077 C2071 1.428 . S
C2077 N2076 1.351 . S
C2077 C2078 1.434 . S
C2078 C2069 1.429 . S
C2078 N2075 1.350 . S
C2078 C2077 1.434 . S
C2079 C2080 1.369 . S
C2079 C2081 1.419 . S
C2079 H2083 0.930 . S
C2080 C2079 1.369 . S
C2080 C2089 1.429 . S
C2081 C2079 1.419 . S
C2081 C2082 1.363 . S
C2081 H2084 0.929 . S
C2082 C2081 1.363 . S
C2082 C2088 1.428 1_565 S
H2083 C2079 0.930 . S
H2084 C2081 0.929 . S
S2085 N2086 1.613 . S
S2085 N2087 1.610 . S
N2086 S2085 1.613 . S
N2086 C2089 1.350 1_545 S
N2087 S2085 1.610 . S
N2087 C2088 1.351 . S
C2088 C2082 1.428 1_545 S
C2088 N2087 1.351 . S
C2088 C2089 1.434 1_545 S
C2089 C2080 1.429 . S
C2089 N2086 1.350 1_565 S
C2089 C2088 1.434 1_565 S
C2090 C2091 1.369 . S
C2090 C2092 1.419 . S
C2090 H2094 0.930 . S
C2091 C2090 1.369 . S
C2091 C2100 1.429 . S
C2092 C2090 1.419 . S
C2092 C2093 1.363 . S
C2092 H2095 0.929 . S
C2093 C2092 1.363 . S
C2093 C2099 1.428 . S
H2094 C2090 0.930 . S
H2095 C2092 0.929 . S
S2096 N2097 1.613 . S
S2096 N2098 1.610 . S
N2097 S2096 1.613 . S
N2097 C2100 1.350 . S
N2098 S2096 1.610 . S
N2098 C2099 1.351 . S
C2099 C2093 1.428 . S
C2099 N2098 1.351 . S
C2099 C2100 1.434 . S
C2100 C2091 1.429 . S
C2100 N2097 1.350 . S
C2100 C2099 1.434 . S
C2101 C2102 1.369 . S
C2101 C2103 1.419 . S
C2101 H2105 0.930 . S
C2102 C2101 1.369 . S
C2102 C2111 1.429 . S
C2103 C2101 1.419 . S
C2103 C2104 1.363 . S
C2103 H2106 0.929 . S
C2104 C2103 1.363 . S
C2104 C2110 1.428 . S
H2105 C2101 0.930 . S
H2106 C2103 0.929 . S
S2107 N2108 1.613 . S
S2107 N2109 1.610 . S
N2108 S2107 1.613 . S
N2108 C2111 1.350 . S
N2109 S2107 1.610 . S
N2109 C2110 1.351 . S
C2110 C2104 1.428 . S
C2110 N2109 1.351 . S
C2110 C2111 1.434 . S
C2111 C2102 1.429 . S
C2111 N2108 1.350 . S
C2111 C2110 1.434 . S
C2112 C2113 1.369 . S
C2112 C2114 1.419 . S
C2112 H2116 0.930 . S
C2113 C2112 1.369 . S
C2113 C2122 1.429 . S
C2114 C2112 1.419 . S
C2114 C2115 1.363 . S
C2114 H2117 0.929 . S
C2115 C2114 1.363 . S
C2115 C2121 1.428 . S
H2116 C2112 0.930 . S
H2117 C2114 0.929 . S
S2118 N2119 1.613 . S
S2118 N2120 1.610 . S
N2119 S2118 1.613 . S
N2119 C2122 1.350 . S
N2120 S2118 1.610 . S
N2120 C2121 1.351 . S
C2121 C2115 1.428 . S
C2121 N2120 1.351 . S
C2121 C2122 1.434 . S
C2122 C2113 1.429 . S
C2122 N2119 1.350 . S
C2122 C2121 1.434 . S
C2123 C2124 1.369 . S
C2123 C2125 1.419 . S
C2123 H2127 0.930 . S
C2124 C2123 1.369 . S
C2124 C2133 1.429 . S
C2125 C2123 1.419 . S
C2125 C2126 1.363 . S
C2125 H2128 0.929 . S
C2126 C2125 1.363 . S
C2126 C2132 1.428 . S
H2127 C2123 0.930 . S
H2128 C2125 0.929 . S
S2129 N2130 1.613 . S
S2129 N2131 1.610 . S
N2130 S2129 1.613 . S
N2130 C2133 1.350 . S
N2131 S2129 1.610 . S
N2131 C2132 1.351 . S
C2132 C2126 1.428 . S
C2132 N2131 1.351 . S
C2132 C2133 1.434 . S
C2133 C2124 1.429 . S
C2133 N2130 1.350 . S
C2133 C2132 1.434 . S
C2134 C2135 1.369 . S
C2134 C2136 1.419 . S
C2134 H2138 0.929 . S
C2135 C2134 1.369 . S
C2135 C2144 1.429 . S
C2136 C2134 1.419 . S
C2136 C2137 1.363 . S
C2136 H2139 0.929 . S
C2137 C2136 1.363 . S
C2137 C2143 1.428 . S
H2138 C2134 0.929 . S
H2139 C2136 0.929 . S
S2140 N2141 1.613 . S
S2140 N2142 1.610 . S
N2141 S2140 1.613 . S
N2141 C2144 1.350 . S
N2142 S2140 1.610 . S
N2142 C2143 1.351 . S
C2143 C2137 1.428 . S
C2143 N2142 1.351 . S
C2143 C2144 1.434 . S
C2144 C2135 1.429 . S
C2144 N2141 1.350 . S
C2144 C2143 1.434 . S
C2145 C2146 1.369 . S
C2145 C2147 1.419 . S
C2145 H2149 0.930 . S
C2146 C2145 1.369 . S
C2146 C2155 1.429 . S
C2147 C2145 1.419 . S
C2147 C2148 1.363 . S
C2147 H2150 0.929 . S
C2148 C2147 1.363 . S
C2148 C2154 1.428 . S
H2149 C2145 0.930 . S
H2150 C2147 0.929 . S
S2151 N2152 1.613 . S
S2151 N2153 1.610 . S
N2152 S2151 1.613 . S
N2152 C2155 1.350 . S
N2153 S2151 1.610 . S
N2153 C2154 1.351 . S
C2154 C2148 1.428 . S
C2154 N2153 1.351 . S
C2154 C2155 1.434 . S
C2155 C2146 1.429 . S
C2155 N2152 1.350 . S
C2155 C2154 1.434 . S
C2156 C2157 1.369 . S
C2156 C2158 1.419 1_556 S
C2156 H2160 0.930 . S
C2157 C2156 1.369 . S
C2157 C2166 1.429 1_556 S
C2158 C2156 1.419 1_554 S
C2158 C2159 1.363 . S
C2158 H2161 0.929 1_554 S
C2159 C2158 1.363 . S
C2159 C2165 1.428 . S
H2160 C2156 0.930 . S
H2161 C2158 0.929 1_556 S
S2162 N2163 1.613 . S
S2162 N2164 1.610 . S
N2163 S2162 1.613 . S
N2163 C2166 1.350 . S
N2164 S2162 1.610 . S
N2164 C2165 1.351 . S
C2165 C2159 1.428 . S
C2165 N2164 1.351 . S
C2165 C2166 1.434 . S
C2166 C2157 1.429 1_554 S
C2166 N2163 1.350 . S
C2166 C2165 1.434 . S
C2167 C2168 1.369 . S
C2167 C2169 1.419 . S
C2167 H2171 0.930 . S
C2168 C2167 1.369 . S
C2168 C2177 1.429 . S
C2169 C2167 1.419 . S
C2169 C2170 1.363 . S
C2169 H2172 0.929 . S
C2170 C2169 1.363 . S
C2170 C2176 1.428 . S
H2171 C2167 0.930 . S
H2172 C2169 0.929 . S
S2173 N2174 1.613 . S
S2173 N2175 1.610 . S
N2174 S2173 1.613 . S
N2174 C2177 1.350 . S
N2175 S2173 1.610 . S
N2175 C2176 1.351 . S
C2176 C2170 1.428 . S
C2176 N2175 1.351 . S
C2176 C2177 1.434 . S
C2177 C2168 1.429 . S
C2177 N2174 1.350 . S
C2177 C2176 1.434 . S
C2178 C2179 1.369 . S
C2178 C2180 1.419 . S
C2178 H2182 0.930 . S
C2179 C2178 1.369 . S
C2179 C2188 1.429 . S
C2180 C2178 1.419 . S
C2180 C2181 1.363 . S
C2180 H2183 0.929 . S
C2181 C2180 1.363 . S
C2181 C2187 1.428 . S
H2182 C2178 0.930 . S
H2183 C2180 0.929 . S
S2184 N2185 1.613 . S
S2184 N2186 1.610 . S
N2185 S2184 1.613 . S
N2185 C2188 1.350 . S
N2186 S2184 1.610 . S
N2186 C2187 1.351 . S
C2187 C2181 1.428 . S
C2187 N2186 1.351 . S
C2187 C2188 1.434 . S
C2188 C2179 1.429 . S
C2188 N2185 1.350 . S
C2188 C2187 1.434 . S
C2189 C2190 1.369 . S
C2189 C2191 1.419 . S
C2189 H2193 0.930 . S
C2190 C2189 1.369 . S
C2190 C2199 1.429 . S
C2191 C2189 1.419 . S
C2191 C2192 1.363 . S
C2191 H2194 0.929 . S
C2192 C2191 1.363 . S
C2192 C2198 1.428 . S
H2193 C2189 0.930 . S
H2194 C2191 0.929 . S
S2195 N2196 1.613 . S
S2195 N2197 1.610 . S
N2196 S2195 1.613 . S
N2196 C2199 1.350 . S
N2197 S2195 1.610 . S
N2197 C2198 1.351 . S
C2198 C2192 1.428 . S
C2198 N2197 1.351 . S
C2198 C2199 1.434 . S
C2199 C2190 1.429 . S
C2199 N2196 1.350 . S
C2199 C2198 1.434 . S
C2200 C2201 1.369 . S
C2200 C2202 1.419 . S
C2200 H2204 0.930 . S
C2201 C2200 1.369 . S
C2201 C2210 1.429 . S
C2202 C2200 1.419 . S
C2202 C2203 1.363 . S
C2202 H2205 0.929 . S
C2203 C2202 1.363 . S
C2203 C2209 1.428 . S
H2204 C2200 0.930 . S
H2205 C2202 0.929 . S
S2206 N2207 1.613 . S
S2206 N2208 1.610 . S
N2207 S2206 1.613 . S
N2207 C2210 1.350 . S
N2208 S2206 1.610 . S
N2208 C2209 1.351 . S
C2209 C2203 1.428 . S
C2209 N2208 1.351 . S
C2209 C2210 1.434 . S
C2210 C2201 1.429 . S
C2210 N2207 1.350 . S
C2210 C2209 1.434 . S
C2211 C2212 1.369 . S
C2211 C2213 1.419 . S
C2211 H2215 0.930 . S
C2212 C2211 1.369 . S
C2212 C2221 1.429 . S
C2213 C2211 1.419 . S
C2213 C2214 1.363 . S
C2213 H2216 0.929 . S
C2214 C2213 1.363 . S
C2214 C2220 1.428 . S
H2215 C2211 0.930 . S
H2216 C2213 0.929 . S
S2217 N2218 1.613 . S
S2217 N2219 1.610 . S
N2218 S2217 1.613 . S
N2218 C2221 1.350 . S
N2219 S2217 1.610 . S
N2219 C2220 1.351 . S
C2220 C2214 1.428 . S
C2220 N2219 1.351 . S
C2220 C2221 1.434 . S
C2221 C2212 1.429 . S
C2221 N2218 1.350 . S
C2221 C2220 1.434 . S
C2222 C2223 1.390 . S
C2222 C2224 1.395 1_655 S
C2222 H2226 0.934 . S
C2223 C2222 1.390 . S
C2223 C2232 1.429 . S
C2224 C2222 1.395 1_455 S
C2224 C2225 1.363 . S
C2224 H2227 0.929 . S
C2225 C2224 1.363 . S
C2225 C2231 1.428 . S
H2226 C2222 0.934 . S
H2227 C2224 0.929 . S
S2228 N2229 1.613 . S
S2228 N2230 1.610 1_655 S
N2229 S2228 1.613 . S
N2229 C2232 1.350 . S
N2230 S2228 1.610 1_455 S
N2230 C2231 1.351 . S
C2231 C2225 1.428 . S
C2231 N2230 1.351 . S
C2231 C2232 1.434 1_455 S
C2232 C2223 1.429 . S
C2232 N2229 1.350 . S
C2232 C2231 1.434 1_655 S
C2233 C2234 1.369 . S
C2233 C2235 1.419 . S
C2233 H2237 0.930 . S
C2234 C2233 1.369 . S
C2234 C2243 1.429 . S
C2235 C2233 1.419 . S
C2235 C2236 1.363 . S
C2235 H2238 0.929 . S
C2236 C2235 1.363 . S
C2236 C2242 1.428 . S
H2237 C2233 0.930 . S
H2238 C2235 0.929 . S
S2239 N2240 1.613 . S
S2239 N2241 1.610 . S
N2240 S2239 1.613 . S
N2240 C2243 1.350 . S
N2241 S2239 1.610 . S
N2241 C2242 1.351 . S
C2242 C2236 1.428 . S
C2242 N2241 1.351 . S
C2242 C2243 1.434 . S
C2243 C2234 1.429 . S
C2243 N2240 1.350 . S
C2243 C2242 1.434 . S
C2244 C2245 1.369 . S
C2244 C2246 1.419 . S
C2244 H2248 0.930 . S
C2245 C2244 1.369 . S
C2245 C2254 1.429 . S
C2246 C2244 1.419 . S
C2246 C2247 1.363 . S
C2246 H2249 0.929 . S
C2247 C2246 1.363 . S
C2247 C2253 1.428 . S
H2248 C2244 0.930 . S
H2249 C2246 0.929 . S
S2250 N2251 1.613 . S
S2250 N2252 1.610 . S
N2251 S2250 1.613 . S
N2251 C2254 1.350 . S
N2252 S2250 1.610 . S
N2252 C2253 1.351 . S
C2253 C2247 1.428 . S
C2253 N2252 1.351 . S
C2253 C2254 1.434 . S
C2254 C2245 1.429 . S
C2254 N2251 1.350 . S
C2254 C2253 1.434 . S
C2255 C2256 1.369 . S
C2255 C2257 1.419 . S
C2255 H2259 0.930 . S
C2256 C2255 1.369 . S
C2256 C2265 1.429 . S
C2257 C2255 1.419 . S
C2257 C2258 1.363 . S
C2257 H2260 0.929 . S
C2258 C2257 1.363 . S
C2258 C2264 1.428 . S
H2259 C2255 0.930 . S
H2260 C2257 0.929 . S
S2261 N2262 1.613 . S
S2261 N2263 1.610 . S
N2262 S2261 1.613 . S
N2262 C2265 1.350 . S
N2263 S2261 1.610 . S
N2263 C2264 1.351 . S
C2264 C2258 1.428 . S
C2264 N2263 1.351 . S
C2264 C2265 1.434 . S
C2265 C2256 1.429 . S
C2265 N2262 1.350 . S
C2265 C2264 1.434 . S
C2266 C2267 1.369 1_655 S
C2266 C2268 1.419 . S
C2266 H2270 0.929 . S
C2267 C2266 1.369 1_455 S
C2267 C2276 1.429 1_455 S
C2268 C2266 1.419 . S
C2268 C2269 1.363 . S
C2268 H2271 0.929 . S
C2269 C2268 1.363 . S
C2269 C2275 1.428 . S
H2270 C2266 0.929 . S
H2271 C2268 0.929 . S
S2272 N2273 1.613 1_655 S
S2272 N2274 1.610 . S
N2273 S2272 1.613 1_455 S
N2273 C2276 1.350 1_455 S
N2274 S2272 1.610 . S
N2274 C2275 1.351 . S
C2275 C2269 1.428 . S
C2275 N2274 1.351 . S
C2275 C2276 1.434 . S
C2276 C2267 1.429 1_655 S
C2276 N2273 1.350 1_655 S
C2276 C2275 1.434 . S
C2277 C2278 1.369 . S
C2277 C2279 1.419 . S
C2277 H2281 0.930 . S
C2278 C2277 1.369 . S
C2278 C2287 1.429 . S
C2279 C2277 1.419 . S
C2279 C2280 1.363 . S
C2279 H2282 0.929 . S
C2280 C2279 1.363 . S
C2280 C2286 1.428 . S
H2281 C2277 0.930 . S
H2282 C2279 0.929 . S
S2283 N2284 1.613 . S
S2283 N2285 1.610 . S
N2284 S2283 1.613 . S
N2284 C2287 1.350 . S
N2285 S2283 1.610 . S
N2285 C2286 1.351 . S
C2286 C2280 1.428 . S
C2286 N2285 1.351 . S
C2286 C2287 1.434 . S
C2287 C2278 1.429 . S
C2287 N2284 1.350 . S
C2287 C2286 1.434 . S
C2288 C2289 1.369 . S
C2288 C2290 1.419 . S
C2288 H2292 0.930 . S
C2289 C2288 1.369 . S
C2289 C2298 1.429 . S
C2290 C2288 1.419 . S
C2290 C2291 1.363 . S
C2290 H2293 0.929 . S
C2291 C2290 1.363 . S
C2291 C2297 1.428 . S
H2292 C2288 0.930 . S
H2293 C2290 0.929 . S
S2294 N2295 1.613 . S
S2294 N2296 1.610 . S
N2295 S2294 1.613 . S
N2295 C2298 1.350 . S
N2296 S2294 1.610 . S
N2296 C2297 1.351 . S
C2297 C2291 1.428 . S
C2297 N2296 1.351 . S
C2297 C2298 1.434 . S
C2298 C2289 1.429 . S
C2298 N2295 1.350 . S
C2298 C2297 1.434 . S
C2299 C2300 1.369 . S
C2299 C2301 1.419 . S
C2299 H2303 0.930 . S
C2300 C2299 1.369 . S
C2300 C2309 1.429 . S
C2301 C2299 1.419 . S
C2301 C2302 1.363 . S
C2301 H2304 0.929 . S
C2302 C2301 1.363 . S
C2302 C2308 1.428 . S
H2303 C2299 0.930 . S
H2304 C2301 0.929 . S
S2305 N2306 1.613 . S
S2305 N2307 1.610 . S
N2306 S2305 1.613 . S
N2306 C2309 1.350 . S
N2307 S2305 1.610 . S
N2307 C2308 1.351 . S
C2308 C2302 1.428 . S
C2308 N2307 1.351 . S
C2308 C2309 1.434 . S
C2309 C2300 1.429 . S
C2309 N2306 1.350 . S
C2309 C2308 1.434 . S
C2310 C2311 1.369 . S
C2310 C2312 1.419 . S
C2310 H2314 0.930 . S
C2311 C2310 1.369 . S
C2311 C2320 1.429 . S
C2312 C2310 1.419 . S
C2312 C2313 1.363 . S
C2312 H2315 0.929 . S
C2313 C2312 1.363 . S
C2313 C2319 1.428 . S
H2314 C2310 0.930 . S
H2315 C2312 0.929 . S
S2316 N2317 1.613 . S
S2316 N2318 1.610 . S
N2317 S2316 1.613 . S
N2317 C2320 1.350 . S
N2318 S2316 1.610 . S
N2318 C2319 1.351 . S
C2319 C2313 1.428 . S
C2319 N2318 1.351 . S
C2319 C2320 1.434 . S
C2320 C2311 1.429 . S
C2320 N2317 1.350 . S
C2320 C2319 1.434 . S
C2321 C2322 1.373 . S
C2321 C2323 1.411 1_565 S
C2321 H2325 0.934 . S
C2322 C2321 1.373 . S
C2322 C2331 1.429 1_565 S
C2323 C2321 1.411 1_545 S
C2323 C2324 1.363 . S
C2323 H2326 0.929 . S
C2324 C2323 1.363 . S
C2324 C2330 1.428 . S
H2325 C2321 0.934 . S
H2326 C2323 0.929 . S
S2327 N2328 1.613 1_545 S
S2327 N2329 1.610 . S
N2328 S2327 1.613 1_565 S
N2328 C2331 1.350 1_565 S
N2329 S2327 1.610 . S
N2329 C2330 1.351 . S
C2330 C2324 1.428 . S
C2330 N2329 1.351 . S
C2330 C2331 1.434 . S
C2331 C2322 1.429 1_545 S
C2331 N2328 1.350 1_545 S
C2331 C2330 1.434 . S
C2332 C2333 1.369 . S
C2332 C2334 1.419 . S
C2332 H2336 0.930 . S
C2333 C2332 1.369 . S
C2333 C2342 1.429 . S
C2334 C2332 1.419 . S
C2334 C2335 1.363 . S
C2334 H2337 0.929 . S
C2335 C2334 1.363 . S
C2335 C2341 1.428 . S
H2336 C2332 0.930 . S
H2337 C2334 0.929 . S
S2338 N2339 1.613 . S
S2338 N2340 1.610 . S
N2339 S2338 1.613 . S
N2339 C2342 1.350 . S
N2340 S2338 1.610 . S
N2340 C2341 1.351 . S
C2341 C2335 1.428 . S
C2341 N2340 1.351 . S
C2341 C2342 1.434 . S
C2342 C2333 1.429 . S
C2342 N2339 1.350 . S
C2342 C2341 1.434 . S
C2343 C2344 1.369 . S
C2343 C2345 1.419 . S
C2343 H2347 0.930 . S
C2344 C2343 1.369 . S
C2344 C2353 1.429 . S
C2345 C2343 1.419 . S
C2345 C2346 1.363 . S
C2345 H2348 0.929 . S
C2346 C2345 1.363 . S
C2346 C2352 1.428 . S
H2347 C2343 0.930 . S
H2348 C2345 0.929 . S
S2349 N2350 1.613 . S
S2349 N2351 1.610 . S
N2350 S2349 1.613 . S
N2350 C2353 1.350 . S
N2351 S2349 1.610 . S
N2351 C2352 1.351 . S
C2352 C2346 1.428 . S
C2352 N2351 1.351 . S
C2352 C2353 1.434 . S
C2353 C2344 1.429 . S
C2353 N2350 1.350 . S
C2353 C2352 1.434 . S
C2354 C2355 1.369 . S
C2354 C2356 1.419 . S
C2354 H2358 0.930 . S
C2355 C2354 1.369 . S
C2355 C2364 1.429 . S
C2356 C2354 1.419 . S
C2356 C2357 1.363 . S
C2356 H2359 0.929 . S
C2357 C2356 1.363 . S
C2357 C2363 1.428 . S
H2358 C2354 0.930 . S
H2359 C2356 0.929 . S
S2360 N2361 1.613 . S
S2360 N2362 1.610 . S
N2361 S2360 1.613 . S
N2361 C2364 1.350 . S
N2362 S2360 1.610 . S
N2362 C2363 1.351 . S
C2363 C2357 1.428 . S
C2363 N2362 1.351 . S
C2363 C2364 1.434 . S
C2364 C2355 1.429 . S
C2364 N2361 1.350 . S
C2364 C2363 1.434 . S
C2365 C2366 1.369 . S
C2365 C2367 1.419 . S
C2365 H2369 0.930 . S
C2366 C2365 1.369 . S
C2366 C2375 1.429 . S
C2367 C2365 1.419 . S
C2367 C2368 1.363 . S
C2367 H2370 0.929 . S
C2368 C2367 1.363 . S
C2368 C2374 1.428 . S
H2369 C2365 0.930 . S
H2370 C2367 0.929 . S
S2371 N2372 1.613 . S
S2371 N2373 1.610 . S
N2372 S2371 1.613 . S
N2372 C2375 1.350 . S
N2373 S2371 1.610 . S
N2373 C2374 1.351 . S
C2374 C2368 1.428 . S
C2374 N2373 1.351 . S
C2374 C2375 1.434 . S
C2375 C2366 1.429 . S
C2375 N2372 1.350 . S
C2375 C2374 1.434 . S
C2376 C2377 1.369 . S
C2376 C2378 1.419 . S
C2376 H2380 0.930 . S
C2377 C2376 1.369 . S
C2377 C2386 1.429 . S
C2378 C2376 1.419 . S
C2378 C2379 1.363 . S
C2378 H2381 0.929 . S
C2379 C2378 1.363 . S
C2379 C2385 1.428 . S
H2380 C2376 0.930 . S
H2381 C2378 0.929 . S
S2382 N2383 1.613 . S
S2382 N2384 1.610 . S
N2383 S2382 1.613 . S
N2383 C2386 1.350 . S
N2384 S2382 1.610 . S
N2384 C2385 1.351 . S
C2385 C2379 1.428 . S
C2385 N2384 1.351 . S
C2385 C2386 1.434 . S
C2386 C2377 1.429 . S
C2386 N2383 1.350 . S
C2386 C2385 1.434 . S
C2387 C2388 1.369 . S
C2387 C2389 1.419 . S
C2387 H2391 0.930 . S
C2388 C2387 1.369 . S
C2388 C2397 1.429 . S
C2389 C2387 1.419 . S
C2389 C2390 1.363 . S
C2389 H2392 0.929 . S
C2390 C2389 1.363 . S
C2390 C2396 1.428 . S
H2391 C2387 0.930 . S
H2392 C2389 0.929 . S
S2393 N2394 1.613 . S
S2393 N2395 1.610 . S
N2394 S2393 1.613 . S
N2394 C2397 1.350 . S
N2395 S2393 1.610 . S
N2395 C2396 1.351 . S
C2396 C2390 1.428 . S
C2396 N2395 1.351 . S
C2396 C2397 1.434 . S
C2397 C2388 1.429 . S
C2397 N2394 1.350 . S
C2397 C2396 1.434 . S
C2398 C2399 1.369 . S
C2398 C2400 1.419 . S
C2398 H2402 0.930 . S
C2399 C2398 1.369 . S
C2399 C2408 1.429 . S
C2400 C2398 1.419 . S
C2400 C2401 1.363 1_554 S
C2400 H2403 0.929 . S
C2401 C2400 1.363 1_556 S
C2401 C2407 1.428 . S
H2402 C2398 0.930 . S
H2403 C2400 0.929 . S
S2404 N2405 1.613 1_556 S
S2404 N2406 1.610 . S
N2405 S2404 1.613 1_554 S
N2405 C2408 1.350 . S
N2406 S2404 1.610 . S
N2406 C2407 1.351 . S
C2407 C2401 1.428 . S
C2407 N2406 1.351 . S
C2407 C2408 1.434 1_556 S
C2408 C2399 1.429 . S
C2408 N2405 1.350 . S
C2408 C2407 1.434 1_554 S
C2409 C2410 1.369 . S
C2409 C2411 1.419 . S
C2409 H2413 0.930 . S
C2410 C2409 1.369 . S
C2410 C2419 1.429 . S
C2411 C2409 1.419 . S
C2411 C2412 1.363 . S
C2411 H2414 0.929 . S
C2412 C2411 1.363 . S
C2412 C2418 1.428 . S
H2413 C2409 0.930 . S
H2414 C2411 0.929 . S
S2415 N2416 1.613 . S
S2415 N2417 1.610 . S
N2416 S2415 1.613 . S
N2416 C2419 1.350 . S
N2417 S2415 1.610 . S
N2417 C2418 1.351 . S
C2418 C2412 1.428 . S
C2418 N2417 1.351 . S
C2418 C2419 1.434 . S
C2419 C2410 1.429 . S
C2419 N2416 1.350 . S
C2419 C2418 1.434 . S
C2420 C2421 1.369 . S
C2420 C2422 1.419 . S
C2420 H2424 0.930 . S
C2421 C2420 1.369 . S
C2421 C2430 1.429 . S
C2422 C2420 1.419 . S
C2422 C2423 1.363 1_556 S
C2422 H2425 0.928 1_556 S
C2423 C2422 1.363 1_554 S
C2423 C2429 1.428 . S
H2424 C2420 0.930 . S
H2425 C2422 0.928 1_554 S
S2426 N2427 1.613 1_554 S
S2426 N2428 1.610 . S
N2427 S2426 1.613 1_556 S
N2427 C2430 1.350 . S
N2428 S2426 1.610 . S
N2428 C2429 1.351 . S
C2429 C2423 1.428 . S
C2429 N2428 1.351 . S
C2429 C2430 1.434 1_554 S
C2430 C2421 1.429 . S
C2430 N2427 1.350 . S
C2430 C2429 1.434 1_556 S
C2431 C2432 1.369 . S
C2431 C2433 1.419 . S
C2431 H2435 0.930 . S
C2432 C2431 1.369 . S
C2432 C2441 1.429 . S
C2433 C2431 1.419 . S
C2433 C2434 1.363 . S
C2433 H2436 0.929 . S
C2434 C2433 1.363 . S
C2434 C2440 1.428 . S
H2435 C2431 0.930 . S
H2436 C2433 0.929 . S
S2437 N2438 1.613 . S
S2437 N2439 1.610 . S
N2438 S2437 1.613 . S
N2438 C2441 1.350 . S
N2439 S2437 1.610 . S
N2439 C2440 1.351 . S
C2440 C2434 1.428 . S
C2440 N2439 1.351 . S
C2440 C2441 1.434 . S
C2441 C2432 1.429 . S
C2441 N2438 1.350 . S
C2441 C2440 1.434 . S
C2442 C2443 1.369 . S
C2442 C2444 1.419 . S
C2442 H2446 0.930 . S
C2443 C2442 1.369 . S
C2443 C2452 1.429 . S
C2444 C2442 1.419 . S
C2444 C2445 1.363 . S
C2444 H2447 0.929 . S
C2445 C2444 1.363 . S
C2445 C2451 1.428 . S
H2446 C2442 0.930 . S
H2447 C2444 0.929 . S
S2448 N2449 1.613 . S
S2448 N2450 1.610 . S
N2449 S2448 1.613 . S
N2449 C2452 1.350 . S
N2450 S2448 1.610 . S
N2450 C2451 1.351 . S
C2451 C2445 1.428 . S
C2451 N2450 1.351 . S
C2451 C2452 1.434 . S
C2452 C2443 1.429 . S
C2452 N2449 1.350 . S
C2452 C2451 1.434 . S
C2453 C2454 1.369 . S
C2453 C2455 1.419 . S
C2453 H2457 0.930 . S
C2454 C2453 1.369 . S
C2454 C2463 1.429 . S
C2455 C2453 1.419 . S
C2455 C2456 1.363 . S
C2455 H2458 0.929 . S
C2456 C2455 1.363 . S
C2456 C2462 1.428 . S
H2457 C2453 0.930 . S
H2458 C2455 0.929 . S
S2459 N2460 1.613 . S
S2459 N2461 1.610 . S
N2460 S2459 1.613 . S
N2460 C2463 1.350 . S
N2461 S2459 1.610 . S
N2461 C2462 1.351 . S
C2462 C2456 1.428 . S
C2462 N2461 1.351 . S
C2462 C2463 1.434 . S
C2463 C2454 1.429 . S
C2463 N2460 1.350 . S
C2463 C2462 1.434 . S
C2464 C2465 1.369 . S
C2464 C2466 1.419 . S
C2464 H2468 0.930 . S
C2465 C2464 1.369 . S
C2465 C2474 1.429 . S
C2466 C2464 1.419 . S
C2466 C2467 1.363 . S
C2466 H2469 0.929 . S
C2467 C2466 1.363 . S
C2467 C2473 1.428 . S
H2468 C2464 0.930 . S
H2469 C2466 0.929 . S
S2470 N2471 1.613 . S
S2470 N2472 1.610 . S
N2471 S2470 1.613 . S
N2471 C2474 1.350 . S
N2472 S2470 1.610 . S
N2472 C2473 1.351 . S
C2473 C2467 1.428 . S
C2473 N2472 1.351 . S
C2473 C2474 1.434 . S
C2474 C2465 1.429 . S
C2474 N2471 1.350 . S
C2474 C2473 1.434 . S
C2475 C2476 1.369 . S
C2475 C2477 1.419 . S
C2475 H2479 0.930 . S
C2476 C2475 1.369 . S
C2476 C2485 1.429 . S
C2477 C2475 1.419 . S
C2477 C2478 1.363 . S
C2477 H2480 0.929 . S
C2478 C2477 1.363 . S
C2478 C2484 1.428 . S
H2479 C2475 0.930 . S
H2480 C2477 0.929 . S
S2481 N2482 1.613 . S
S2481 N2483 1.610 . S
N2482 S2481 1.613 . S
N2482 C2485 1.350 . S
N2483 S2481 1.610 . S
N2483 C2484 1.351 . S
C2484 C2478 1.428 . S
C2484 N2483 1.351 . S
C2484 C2485 1.434 . S
C2485 C2476 1.429 . S
C2485 N2482 1.350 . S
C2485 C2484 1.434 . S
C2486 C2487 1.369 . S
C2486 C2488 1.419 . S
C2486 H2490 0.930 . S
C2487 C2486 1.369 . S
C2487 C2496 1.429 . S
C2488 C2486 1.419 . S
C2488 C2489 1.363 1_655 S
C2488 H2491 0.931 . S
C2489 C2488 1.363 1_455 S
C2489 C2495 1.428 . S
H2490 C2486 0.930 . S
H2491 C2488 0.931 . S
S2492 N2493 1.613 1_455 S
S2492 N2494 1.610 . S
N2493 S2492 1.613 1_655 S
N2493 C2496 1.350 . S
N2494 S2492 1.610 . S
N2494 C2495 1.351 . S
C2495 C2489 1.428 . S
C2495 N2494 1.351 . S
C2495 C2496 1.434 1_455 S
C2496 C2487 1.429 . S
C2496 N2493 1.350 . S
C2496 C2495 1.434 1_655 S
C2497 C2498 1.369 . S
C2497 C2499 1.419 . S
C2497 H2501 0.930 . S
C2498 C2497 1.369 . S
C2498 C2507 1.429 . S
C2499 C2497 1.419 . S
C2499 C2500 1.363 . S
C2499 H2502 0.929 . S
C2500 C2499 1.363 . S
C2500 C2506 1.428 . S
H2501 C2497 0.930 . S
H2502 C2499 0.929 . S
S2503 N2504 1.613 . S
S2503 N2505 1.610 . S
N2504 S2503 1.613 . S
N2504 C2507 1.350 . S
N2505 S2503 1.610 . S
N2505 C2506 1.351 . S
C2506 C2500 1.428 . S
C2506 N2505 1.351 . S
C2506 C2507 1.434 . S
C2507 C2498 1.429 . S
C2507 N2504 1.350 . S
C2507 C2506 1.434 . S
C2508 C2509 1.369 . S
C2508 C2510 1.419 . S
C2508 H2512 0.930 . S
C2509 C2508 1.369 . S
C2509 C2518 1.429 . S
C2510 C2508 1.419 . S
C2510 C2511 1.363 . S
C2510 H2513 0.929 . S
C2511 C2510 1.363 . S
C2511 C2517 1.428 . S
H2512 C2508 0.930 . S
H2513 C2510 0.929 . S
S2514 N2515 1.613 . S
S2514 N2516 1.610 . S
N2515 S2514 1.613 . S
N2515 C2518 1.350 . S
N2516 S2514 1.610 . S
N2516 C2517 1.351 . S
C2517 C2511 1.428 . S
C2517 N2516 1.351 . S
C2517 C2518 1.434 . S
C2518 C2509 1.429 . S
C2518 N2515 1.350 . S
C2518 C2517 1.434 . S
C2519 C2520 1.369 . S
C2519 C2521 1.419 . S
C2519 H2523 0.930 . S
C2520 C2519 1.369 . S
C2520 C2529 1.429 . S
C2521 C2519 1.419 . S
C2521 C2522 1.363 . S
C2521 H2524 0.929 . S
C2522 C2521 1.363 . S
C2522 C2528 1.428 . S
H2523 C2519 0.930 . S
H2524 C2521 0.929 . S
S2525 N2526 1.613 . S
S2525 N2527 1.610 . S
N2526 S2525 1.613 . S
N2526 C2529 1.350 . S
N2527 S2525 1.610 . S
N2527 C2528 1.351 . S
C2528 C2522 1.428 . S
C2528 N2527 1.351 . S
C2528 C2529 1.434 . S
C2529 C2520 1.429 . S
C2529 N2526 1.350 . S
C2529 C2528 1.434 . S
C2530 C2531 1.369 . S
C2530 C2532 1.419 1_455 S
C2530 H2534 0.939 . S
C2531 C2530 1.369 . S
C2531 C2540 1.429 . S
C2532 C2530 1.419 1_655 S
C2532 C2533 1.355 1_655 S
C2532 H2535 0.929 . S
C2533 C2532 1.355 1_455 S
C2533 C2539 1.453 . S
H2534 C2530 0.939 . S
H2535 C2532 0.929 . S
S2536 N2537 1.613 . S
S2536 N2538 1.610 . S
N2537 S2536 1.613 . S
N2537 C2540 1.350 . S
N2538 S2536 1.610 . S
N2538 C2539 1.351 . S
C2539 C2533 1.453 . S
C2539 N2538 1.351 . S
C2539 C2540 1.434 . S
C2540 C2531 1.429 . S
C2540 N2537 1.350 . S
C2540 C2539 1.434 . S
C2541 C2542 1.369 . S
C2541 C2543 1.419 . S
C2541 H2545 0.930 . S
C2542 C2541 1.369 . S
C2542 C2551 1.429 . S
C2543 C2541 1.419 . S
C2543 C2544 1.363 . S
C2543 H2546 0.929 . S
C2544 C2543 1.363 . S
C2544 C2550 1.428 . S
H2545 C2541 0.930 . S
H2546 C2543 0.929 . S
S2547 N2548 1.613 . S
S2547 N2549 1.610 . S
N2548 S2547 1.613 . S
N2548 C2551 1.350 . S
N2549 S2547 1.610 . S
N2549 C2550 1.351 . S
C2550 C2544 1.428 . S
C2550 N2549 1.351 . S
C2550 C2551 1.434 . S
C2551 C2542 1.429 . S
C2551 N2548 1.350 . S
C2551 C2550 1.434 . S
C2552 C2553 1.369 . S
C2552 C2554 1.419 . S
C2552 H2556 0.930 . S
C2553 C2552 1.369 . S
C2553 C2562 1.429 . S
C2554 C2552 1.419 . S
C2554 C2555 1.363 . S
C2554 H2557 0.929 . S
C2555 C2554 1.363 . S
C2555 C2561 1.428 . S
H2556 C2552 0.930 . S
H2557 C2554 0.929 . S
S2558 N2559 1.613 . S
S2558 N2560 1.610 . S
N2559 S2558 1.613 . S
N2559 C2562 1.350 . S
N2560 S2558 1.610 . S
N2560 C2561 1.351 . S
C2561 C2555 1.428 . S
C2561 N2560 1.351 . S
C2561 C2562 1.434 . S
C2562 C2553 1.429 . S
C2562 N2559 1.350 . S
C2562 C2561 1.434 . S
C2563 C2564 1.369 . S
C2563 C2565 1.419 . S
C2563 H2567 0.930 . S
C2564 C2563 1.369 . S
C2564 C2573 1.429 . S
C2565 C2563 1.419 . S
C2565 C2566 1.363 1_565 S
C2565 H2568 0.929 . S
C2566 C2565 1.363 1_545 S
C2566 C2572 1.428 . S
H2567 C2563 0.930 . S
H2568 C2565 0.929 . S
S2569 N2570 1.587 1_545 S
S2569 N2571 1.626 . S
N2570 S2569 1.587 1_565 S
N2570 C2573 1.350 . S
N2571 S2569 1.626 . S
N2571 C2572 1.349 . S
C2572 C2566 1.428 . S
C2572 N2571 1.349 . S
C2572 C2573 1.436 1_545 S
C2573 C2564 1.429 . S
C2573 N2570 1.350 . S
C2573 C2572 1.436 1_565 S
C2574 C2575 1.369 . S
C2574 C2576 1.419 . S
C2574 H2578 0.930 . S
C2575 C2574 1.369 . S
C2575 C2584 1.429 . S
C2576 C2574 1.419 . S
C2576 C2577 1.363 . S
C2576 H2579 0.929 . S
C2577 C2576 1.363 . S
C2577 C2583 1.428 . S
H2578 C2574 0.930 . S
H2579 C2576 0.929 . S
S2580 N2581 1.613 . S
S2580 N2582 1.610 . S
N2581 S2580 1.613 . S
N2581 C2584 1.350 . S
N2582 S2580 1.610 . S
N2582 C2583 1.351 . S
C2583 C2577 1.428 . S
C2583 N2582 1.351 . S
C2583 C2584 1.434 . S
C2584 C2575 1.429 . S
C2584 N2581 1.350 . S
C2584 C2583 1.434 . S
C2585 C2586 1.369 . S
C2585 C2587 1.419 . S
C2585 H2589 0.930 . S
C2586 C2585 1.369 . S
C2586 C2595 1.429 1_565 S
C2587 C2585 1.419 . S
C2587 C2588 1.363 1_565 S
C2587 H2590 0.929 . S
C2588 C2587 1.363 1_545 S
C2588 C2594 1.428 . S
H2589 C2585 0.930 . S
H2590 C2587 0.929 . S
S2591 N2592 1.613 . S
S2591 N2593 1.610 . S
N2592 S2591 1.613 . S
N2592 C2595 1.350 . S
N2593 S2591 1.610 . S
N2593 C2594 1.351 . S
C2594 C2588 1.428 . S
C2594 N2593 1.351 . S
C2594 C2595 1.434 . S
C2595 C2586 1.429 1_545 S
C2595 N2592 1.350 . S
C2595 C2594 1.434 . S
C2596 C2597 1.369 . S
C2596 C2598 1.419 . S
C2596 H2600 0.930 . S
C2597 C2596 1.369 . S
C2597 C2606 1.429 . S
C2598 C2596 1.419 . S
C2598 C2599 1.363 . S
C2598 H2601 0.929 . S
C2599 C2598 1.363 . S
C2599 C2605 1.428 . S
H2600 C2596 0.930 . S
H2601 C2598 0.929 . S
S2602 N2603 1.613 . S
S2602 N2604 1.610 . S
N2603 S2602 1.613 . S
N2603 C2606 1.350 . S
N2604 S2602 1.610 . S
N2604 C2605 1.351 . S
C2605 C2599 1.428 . S
C2605 N2604 1.351 . S
C2605 C2606 1.434 . S
C2606 C2597 1.429 . S
C2606 N2603 1.350 . S
C2606 C2605 1.434 . S
C2607 C2608 1.369 . S
C2607 C2609 1.419 . S
C2607 H2611 0.930 . S
C2608 C2607 1.369 . S
C2608 C2617 1.429 . S
C2609 C2607 1.419 . S
C2609 C2610 1.363 . S
C2609 H2612 0.929 . S
C2610 C2609 1.363 . S
C2610 C2616 1.428 . S
H2611 C2607 0.930 . S
H2612 C2609 0.929 . S
S2613 N2614 1.613 . S
S2613 N2615 1.610 . S
N2614 S2613 1.613 . S
N2614 C2617 1.350 . S
N2615 S2613 1.610 . S
N2615 C2616 1.351 . S
C2616 C2610 1.428 . S
C2616 N2615 1.351 . S
C2616 C2617 1.434 . S
C2617 C2608 1.429 . S
C2617 N2614 1.350 . S
C2617 C2616 1.434 . S
C2618 C2619 1.369 . S
C2618 C2620 1.419 . S
C2618 H2622 0.930 . S
C2619 C2618 1.369 . S
C2619 C2628 1.429 . S
C2620 C2618 1.419 . S
C2620 C2621 1.363 . S
C2620 H2623 0.929 . S
C2621 C2620 1.363 . S
C2621 C2627 1.428 . S
H2622 C2618 0.930 . S
H2623 C2620 0.929 . S
S2624 N2625 1.613 . S
S2624 N2626 1.610 . S
N2625 S2624 1.613 . S
N2625 C2628 1.350 . S
N2626 S2624 1.610 . S
N2626 C2627 1.351 . S
C2627 C2621 1.428 . S
C2627 N2626 1.351 . S
C2627 C2628 1.434 . S
C2628 C2619 1.429 . S
C2628 N2625 1.350 . S
C2628 C2627 1.434 . S
C2629 C2630 1.369 . S
C2629 C2631 1.419 . S
C2629 H2633 0.930 . S
C2630 C2629 1.369 . S
C2630 C2639 1.429 . S
C2631 C2629 1.419 . S
C2631 C2632 1.363 . S
C2631 H2634 0.929 . S
C2632 C2631 1.363 . S
C2632 C2638 1.428 . S
H2633 C2629 0.930 . S
H2634 C2631 0.929 . S
S2635 N2636 1.613 . S
S2635 N2637 1.610 . S
N2636 S2635 1.613 . S
N2636 C2639 1.350 . S
N2637 S2635 1.610 . S
N2637 C2638 1.351 . S
C2638 C2632 1.428 . S
C2638 N2637 1.351 . S
C2638 C2639 1.434 . S
C2639 C2630 1.429 . S
C2639 N2636 1.350 . S
C2639 C2638 1.434 . S
C2640 C2641 1.369 . S
C2640 C2642 1.419 1_655 S
C2640 H2644 0.930 . S
C2641 C2640 1.369 . S
C2641 C2650 1.429 1_655 S
C2642 C2640 1.419 1_455 S
C2642 C2643 1.363 . S
C2642 H2645 0.929 . S
C2643 C2642 1.363 . S
C2643 C2649 1.428 . S
H2644 C2640 0.930 . S
H2645 C2642 0.929 . S
S2646 N2647 1.613 . S
S2646 N2648 1.610 . S
N2647 S2646 1.613 . S
N2647 C2650 1.350 . S
N2648 S2646 1.610 . S
N2648 C2649 1.351 . S
C2649 C2643 1.428 . S
C2649 N2648 1.351 . S
C2649 C2650 1.434 . S
C2650 C2641 1.429 1_455 S
C2650 N2647 1.350 . S
C2650 C2649 1.434 . S
C2651 C2652 1.369 . S
C2651 C2653 1.419 . S
C2651 H2655 0.930 . S
C2652 C2651 1.369 . S
C2652 C2661 1.412 1_455 S
C2653 C2651 1.419 . S
C2653 C2654 1.363 1_455 S
C2653 H2656 0.929 . S
C2654 C2653 1.363 1_655 S
C2654 C2660 1.428 . S
H2655 C2651 0.930 . S
H2656 C2653 0.929 . S
S2657 N2658 1.613 . S
S2657 N2659 1.610 . S
N2658 S2657 1.613 . S
N2658 C2661 1.356 . S
N2659 S2657 1.610 . S
N2659 C2660 1.351 . S
C2660 C2654 1.428 . S
C2660 N2659 1.351 . S
C2660 C2661 1.448 . S
C2661 C2652 1.412 1_655 S
C2661 N2658 1.356 . S
C2661 C2660 1.448 . S
C2662 C2663 1.369 . S
C2662 C2664 1.419 . S
C2662 H2666 0.930 . S
C2663 C2662 1.369 . S
C2663 C2672 1.429 . S
C2664 C2662 1.419 . S
C2664 C2665 1.363 . S
C2664 H2667 0.929 . S
C2665 C2664 1.363 . S
C2665 C2671 1.428 . S
H2666 C2662 0.930 . S
H2667 C2664 0.929 . S
S2668 N2669 1.613 . S
S2668 N2670 1.610 . S
N2669 S2668 1.613 . S
N2669 C2672 1.350 . S
N2670 S2668 1.610 . S
N2670 C2671 1.351 . S
C2671 C2665 1.428 . S
C2671 N2670 1.351 . S
C2671 C2672 1.434 . S
C2672 C2663 1.429 . S
C2672 N2669 1.350 . S
C2672 C2671 1.434 . S
C2673 C2674 1.369 . S
C2673 C2675 1.419 . S
C2673 H2677 0.930 . S
C2674 C2673 1.369 . S
C2674 C2683 1.429 . S
C2675 C2673 1.419 . S
C2675 C2676 1.363 . S
C2675 H2678 0.929 . S
C2676 C2675 1.363 . S
C2676 C2682 1.428 . S
H2677 C2673 0.930 . S
H2678 C2675 0.929 . S
S2679 N2680 1.613 . S
S2679 N2681 1.610 . S
N2680 S2679 1.613 . S
N2680 C2683 1.350 . S
N2681 S2679 1.610 . S
N2681 C2682 1.351 . S
C2682 C2676 1.428 . S
C2682 N2681 1.351 . S
C2682 C2683 1.434 . S
C2683 C2674 1.429 . S
C2683 N2680 1.350 . S
C2683 C2682 1.434 . S
C2684 C2685 1.369 . S
C2684 C2686 1.419 . S
C2684 H2688 0.930 . S
C2685 C2684 1.369 . S
C2685 C2694 1.429 . S
C2686 C2684 1.419 . S
C2686 C2687 1.363 1_565 S
C2686 H2689 0.929 . S
C2687 C2686 1.363 1_545 S
C2687 C2693 1.428 . S
H2688 C2684 0.930 . S
H2689 C2686 0.929 . S
S2690 N2691 1.613 1_545 S
S2690 N2692 1.610 . S
N2691 S2690 1.613 1_565 S
N2691 C2694 1.350 . S
N2692 S2690 1.610 . S
N2692 C2693 1.351 . S
C2693 C2687 1.428 . S
C2693 N2692 1.351 . S
C2693 C2694 1.434 1_545 S
C2694 C2685 1.429 . S
C2694 N2691 1.350 . S
C2694 C2693 1.434 1_565 S
C2695 C2696 1.369 . S
C2695 C2697 1.419 . S
C2695 H2699 0.930 . S
C2696 C2695 1.369 . S
C2696 C2705 1.429 . S
C2697 C2695 1.419 . S
C2697 C2698 1.363 . S
C2697 H2700 0.929 . S
C2698 C2697 1.363 . S
C2698 C2704 1.428 . S
H2699 C2695 0.930 . S
H2700 C2697 0.929 . S
S2701 N2702 1.613 . S
S2701 N2703 1.610 . S
N2702 S2701 1.613 . S
N2702 C2705 1.350 . S
N2703 S2701 1.610 . S
N2703 C2704 1.351 . S
C2704 C2698 1.428 . S
C2704 N2703 1.351 . S
C2704 C2705 1.434 . S
C2705 C2696 1.429 . S
C2705 N2702 1.350 . S
C2705 C2704 1.434 . S
C2706 C2707 1.369 . S
C2706 C2708 1.419 1_545 S
C2706 H2710 0.930 . S
C2707 C2706 1.369 . S
C2707 C2716 1.429 1_545 S
C2708 C2706 1.419 1_565 S
C2708 C2709 1.363 . S
C2708 H2711 0.929 1_565 S
C2709 C2708 1.363 . S
C2709 C2715 1.428 . S
H2710 C2706 0.930 . S
H2711 C2708 0.929 1_545 S
S2712 N2713 1.613 . S
S2712 N2714 1.610 . S
N2713 S2712 1.613 . S
N2713 C2716 1.350 . S
N2714 S2712 1.610 . S
N2714 C2715 1.351 . S
C2715 C2709 1.428 . S
C2715 N2714 1.351 . S
C2715 C2716 1.434 . S
C2716 C2707 1.429 1_565 S
C2716 N2713 1.350 . S
C2716 C2715 1.434 . S
C2717 C2718 1.369 . S
C2717 C2719 1.419 1_556 S
C2717 H2721 0.930 . S
C2718 C2717 1.369 . S
C2718 C2727 1.429 . S
C2719 C2717 1.419 1_554 S
C2719 C2720 1.363 . S
C2719 H2722 0.929 . S
C2720 C2719 1.363 . S
C2720 C2726 1.428 . S
H2721 C2717 0.930 . S
H2722 C2719 0.929 . S
S2723 N2724 1.613 1_554 S
S2723 N2725 1.610 . S
N2724 S2723 1.613 1_556 S
N2724 C2727 1.350 . S
N2725 S2723 1.610 . S
N2725 C2726 1.351 . S
C2726 C2720 1.428 . S
C2726 N2725 1.351 . S
C2726 C2727 1.434 1_554 S
C2727 C2718 1.429 . S
C2727 N2724 1.350 . S
C2727 C2726 1.434 1_556 S
C2728 C2729 1.369 . S
C2728 C2730 1.419 1_554 S
C2728 H2732 0.930 . S
C2729 C2728 1.369 . S
C2729 C2738 1.429 . S
C2730 C2728 1.419 1_556 S
C2730 C2731 1.363 . S
C2730 H2733 0.929 . S
C2731 C2730 1.363 . S
C2731 C2737 1.428 . S
H2732 C2728 0.930 . S
H2733 C2730 0.929 . S
S2734 N2735 1.613 . S
S2734 N2736 1.610 1_554 S
N2735 S2734 1.613 . S
N2735 C2738 1.350 . S
N2736 S2734 1.610 1_556 S
N2736 C2737 1.351 . S
C2737 C2731 1.428 . S
C2737 N2736 1.351 . S
C2737 C2738 1.434 1_556 S
C2738 C2729 1.429 . S
C2738 N2735 1.350 . S
C2738 C2737 1.434 1_554 S
C2739 C2740 1.369 . S
C2739 C2741 1.419 . S
C2739 H2743 0.930 . S
C2740 C2739 1.369 . S
C2740 C2749 1.429 . S
C2741 C2739 1.419 . S
C2741 C2742 1.363 . S
C2741 H2744 0.929 . S
C2742 C2741 1.363 . S
C2742 C2748 1.428 . S
H2743 C2739 0.930 . S
H2744 C2741 0.929 . S
S2745 N2746 1.613 . S
S2745 N2747 1.610 . S
N2746 S2745 1.613 . S
N2746 C2749 1.350 . S
N2747 S2745 1.610 . S
N2747 C2748 1.351 . S
C2748 C2742 1.428 . S
C2748 N2747 1.351 . S
C2748 C2749 1.434 . S
C2749 C2740 1.429 . S
C2749 N2746 1.350 . S
C2749 C2748 1.434 . S
C2750 C2751 1.369 . S
C2750 C2752 1.419 . S
C2750 H2754 0.930 . S
C2751 C2750 1.369 . S
C2751 C2760 1.429 . S
C2752 C2750 1.419 . S
C2752 C2753 1.363 . S
C2752 H2755 0.929 . S
C2753 C2752 1.363 . S
C2753 C2759 1.428 . S
H2754 C2750 0.930 . S
H2755 C2752 0.929 . S
S2756 N2757 1.613 . S
S2756 N2758 1.610 . S
N2757 S2756 1.613 . S
N2757 C2760 1.350 . S
N2758 S2756 1.610 . S
N2758 C2759 1.351 . S
C2759 C2753 1.428 . S
C2759 N2758 1.351 . S
C2759 C2760 1.434 . S
C2760 C2751 1.429 . S
C2760 N2757 1.350 . S
C2760 C2759 1.434 . S
C2761 C2762 1.369 . S
C2761 C2763 1.419 . S
C2761 H2765 0.930 . S
C2762 C2761 1.369 . S
C2762 C2771 1.429 . S
C2763 C2761 1.419 . S
C2763 C2764 1.363 . S
C2763 H2766 0.929 . S
C2764 C2763 1.363 . S
C2764 C2770 1.428 . S
H2765 C2761 0.930 . S
H2766 C2763 0.929 . S
S2767 N2768 1.613 . S
S2767 N2769 1.610 . S
N2768 S2767 1.613 . S
N2768 C2771 1.350 . S
N2769 S2767 1.610 . S
N2769 C2770 1.351 . S
C2770 C2764 1.428 . S
C2770 N2769 1.351 . S
C2770 C2771 1.434 . S
C2771 C2762 1.429 . S
C2771 N2768 1.350 . S
C2771 C2770 1.434 . S
C2772 C2773 1.369 . S
C2772 C2774 1.419 1_655 S
C2772 H2776 0.930 . S
C2773 C2772 1.369 . S
C2773 C2782 1.429 . S
C2774 C2772 1.419 1_455 S
C2774 C2775 1.363 . S
C2774 H2777 0.929 . S
C2775 C2774 1.363 . S
C2775 C2781 1.428 1_455 S
H2776 C2772 0.930 . S
H2777 C2774 0.929 . S
S2778 N2779 1.613 . S
S2778 N2780 1.610 . S
N2779 S2778 1.613 . S
N2779 C2782 1.350 . S
N2780 S2778 1.610 . S
N2780 C2781 1.351 . S
C2781 C2775 1.428 1_655 S
C2781 N2780 1.351 . S
C2781 C2782 1.434 . S
C2782 C2773 1.429 . S
C2782 N2779 1.350 . S
C2782 C2781 1.434 . S
C2783 C2784 1.369 . S
C2783 C2785 1.419 . S
C2783 H2787 0.930 . S
C2784 C2783 1.369 . S
C2784 C2793 1.424 1_655 S
C2785 C2783 1.419 . S
C2785 C2786 1.363 1_655 S
C2785 H2788 0.929 . S
C2786 C2785 1.363 1_455 S
C2786 C2792 1.428 . S
H2787 C2783 0.930 . S
H2788 C2785 0.929 . S
S2789 N2790 1.613 . S
S2789 N2791 1.610 . S
N2790 S2789 1.613 . S
N2790 C2793 1.352 . S
N2791 S2789 1.610 . S
N2791 C2792 1.351 . S
C2792 C2786 1.428 . S
C2792 N2791 1.351 . S
C2792 C2793 1.437 . S
C2793 C2784 1.424 1_455 S
C2793 N2790 1.352 . S
C2793 C2792 1.437 . S
C2794 C2795 1.369 . S
C2794 C2796 1.419 . S
C2794 H2798 0.930 . S
C2795 C2794 1.369 . S
C2795 C2804 1.429 . S
C2796 C2794 1.419 . S
C2796 C2797 1.363 . S
C2796 H2799 0.929 . S
C2797 C2796 1.363 . S
C2797 C2803 1.428 . S
H2798 C2794 0.930 . S
H2799 C2796 0.929 . S
S2800 N2801 1.613 . S
S2800 N2802 1.610 . S
N2801 S2800 1.613 . S
N2801 C2804 1.350 . S
N2802 S2800 1.610 . S
N2802 C2803 1.351 . S
C2803 C2797 1.428 . S
C2803 N2802 1.351 . S
C2803 C2804 1.434 . S
C2804 C2795 1.429 . S
C2804 N2801 1.350 . S
C2804 C2803 1.434 . S
C2805 C2806 1.369 . S
C2805 C2807 1.419 . S
C2805 H2809 0.930 . S
C2806 C2805 1.369 . S
C2806 C2815 1.429 . S
C2807 C2805 1.419 . S
C2807 C2808 1.363 . S
C2807 H2810 0.929 . S
C2808 C2807 1.363 . S
C2808 C2814 1.428 . S
H2809 C2805 0.930 . S
H2810 C2807 0.929 . S
S2811 N2812 1.613 . S
S2811 N2813 1.610 . S
N2812 S2811 1.613 . S
N2812 C2815 1.350 . S
N2813 S2811 1.610 . S
N2813 C2814 1.351 . S
C2814 C2808 1.428 . S
C2814 N2813 1.351 . S
C2814 C2815 1.434 . S
C2815 C2806 1.429 . S
C2815 N2812 1.350 . S
C2815 C2814 1.434 . S
C2816 C2817 1.369 . S
C2816 C2818 1.419 . S
C2816 H2820 0.930 . S
C2817 C2816 1.369 . S
C2817 C2826 1.429 . S
C2818 C2816 1.419 . S
C2818 C2819 1.363 1_545 S
C2818 H2821 0.929 . S
C2819 C2818 1.363 1_565 S
C2819 C2825 1.428 1_565 S
H2820 C2816 0.930 . S
H2821 C2818 0.929 . S
S2822 N2823 1.613 . S
S2822 N2824 1.610 1_545 S
N2823 S2822 1.613 . S
N2823 C2826 1.350 . S
N2824 S2822 1.610 1_565 S
N2824 C2825 1.352 1_565 S
C2825 C2819 1.428 1_545 S
C2825 N2824 1.352 1_545 S
C2825 C2826 1.433 . S
C2826 C2817 1.429 . S
C2826 N2823 1.350 . S
C2826 C2825 1.433 . S
C2827 C2828 1.369 . S
C2827 C2829 1.419 . S
C2827 H2831 0.930 . S
C2828 C2827 1.369 . S
C2828 C2837 1.429 . S
C2829 C2827 1.419 . S
C2829 C2830 1.363 . S
C2829 H2832 0.929 . S
C2830 C2829 1.363 . S
C2830 C2836 1.428 . S
H2831 C2827 0.930 . S
H2832 C2829 0.929 . S
S2833 N2834 1.613 . S
S2833 N2835 1.610 . S
N2834 S2833 1.613 . S
N2834 C2837 1.350 . S
N2835 S2833 1.610 . S
N2835 C2836 1.351 . S
C2836 C2830 1.428 . S
C2836 N2835 1.351 . S
C2836 C2837 1.434 . S
C2837 C2828 1.429 . S
C2837 N2834 1.350 . S
C2837 C2836 1.434 . S
C2838 C2839 1.369 . S
C2838 C2840 1.419 . S
C2838 H2842 0.930 . S
C2839 C2838 1.369 . S
C2839 C2848 1.429 1_545 S
C2840 C2838 1.419 . S
C2840 C2841 1.363 1_545 S
C2840 H2843 0.929 . S
C2841 C2840 1.363 1_565 S
C2841 C2847 1.428 . S
H2842 C2838 0.930 . S
H2843 C2840 0.929 . S
S2844 N2845 1.613 . S
S2844 N2846 1.610 . S
N2845 S2844 1.613 . S
N2845 C2848 1.350 . S
N2846 S2844 1.610 . S
N2846 C2847 1.351 . S
C2847 C2841 1.428 . S
C2847 N2846 1.351 . S
C2847 C2848 1.434 . S
C2848 C2839 1.429 1_565 S
C2848 N2845 1.350 . S
C2848 C2847 1.434 . S
C2849 C2850 1.369 1_554 S
C2849 C2851 1.419 . S
C2849 H2853 0.930 . S
C2850 C2849 1.369 1_556 S
C2850 C2859 1.429 . S
C2851 C2849 1.419 . S
C2851 C2852 1.363 . S
C2851 H2854 0.929 . S
C2852 C2851 1.363 . S
C2852 C2858 1.428 . S
H2853 C2849 0.930 . S
H2854 C2851 0.929 . S
S2855 N2856 1.613 . S
S2855 N2857 1.610 1_556 S
N2856 S2855 1.613 . S
N2856 C2859 1.350 . S
N2857 S2855 1.610 1_554 S
N2857 C2858 1.351 . S
C2858 C2852 1.428 . S
C2858 N2857 1.351 . S
C2858 C2859 1.434 1_554 S
C2859 C2850 1.429 . S
C2859 N2856 1.350 . S
C2859 C2858 1.434 1_556 S
C2860 C2861 1.369 . S
C2860 C2862 1.419 . S
C2860 H2864 0.930 . S
C2861 C2860 1.369 . S
C2861 C2870 1.429 . S
C2862 C2860 1.419 . S
C2862 C2863 1.363 1_556 S
C2862 H2865 0.929 . S
C2863 C2862 1.363 1_554 S
C2863 C2869 1.428 . S
H2864 C2860 0.930 . S
H2865 C2862 0.929 . S
S2866 N2867 1.653 . S
S2866 N2868 1.610 . S
N2867 S2866 1.653 . S
N2867 C2870 1.338 1_554 S
N2868 S2866 1.610 . S
N2868 C2869 1.351 . S
C2869 C2863 1.428 . S
C2869 N2868 1.351 . S
C2869 C2870 1.434 1_554 S
C2870 C2861 1.429 . S
C2870 N2867 1.338 1_556 S
C2870 C2869 1.434 1_556 S
C2871 C2872 1.369 . S
C2871 C2873 1.419 . S
C2871 H2875 0.930 . S
C2872 C2871 1.369 . S
C2872 C2881 1.429 . S
C2873 C2871 1.419 . S
C2873 C2874 1.363 . S
C2873 H2876 0.929 . S
C2874 C2873 1.363 . S
C2874 C2880 1.428 . S
H2875 C2871 0.930 . S
H2876 C2873 0.929 . S
S2877 N2878 1.613 . S
S2877 N2879 1.610 . S
N2878 S2877 1.613 . S
N2878 C2881 1.350 . S
N2879 S2877 1.610 . S
N2879 C2880 1.351 . S
C2880 C2874 1.428 . S
C2880 N2879 1.351 . S
C2880 C2881 1.434 . S
C2881 C2872 1.429 . S
C2881 N2878 1.350 . S
C2881 C2880 1.434 . S
C2882 C2883 1.369 . S
C2882 C2884 1.419 . S
C2882 H2886 0.930 . S
C2883 C2882 1.369 . S
C2883 C2892 1.429 . S
C2884 C2882 1.419 . S
C2884 C2885 1.363 . S
C2884 H2887 0.929 . S
C2885 C2884 1.363 . S
C2885 C2891 1.428 . S
H2886 C2882 0.930 . S
H2887 C2884 0.929 . S
S2888 N2889 1.613 . S
S2888 N2890 1.610 . S
N2889 S2888 1.613 . S
N2889 C2892 1.350 . S
N2890 S2888 1.610 . S
N2890 C2891 1.351 . S
C2891 C2885 1.428 . S
C2891 N2890 1.351 . S
C2891 C2892 1.434 . S
C2892 C2883 1.429 . S
C2892 N2889 1.350 . S
C2892 C2891 1.434 . S
C2893 C2894 1.369 . S
C2893 C2895 1.419 . S
C2893 H2897 0.930 . S
C2894 C2893 1.369 . S
C2894 C2903 1.429 . S
C2895 C2893 1.419 . S
C2895 C2896 1.363 . S
C2895 H2898 0.929 . S
C2896 C2895 1.363 . S
C2896 C2902 1.428 . S
H2897 C2893 0.930 . S
H2898 C2895 0.929 . S
S2899 N2900 1.613 . S
S2899 N2901 1.610 . S
N2900 S2899 1.613 . S
N2900 C2903 1.350 . S
N2901 S2899 1.610 . S
N2901 C2902 1.351 . S
C2902 C2896 1.428 . S
C2902 N2901 1.351 . S
C2902 C2903 1.434 . S
C2903 C2894 1.429 . S
C2903 N2900 1.350 . S
C2903 C2902 1.434 . S
C1585 N2 1.317 1_556 S
C1587 C1275 1.123 . S
C1596 N35 1.235 . S
C1598 C1195 1.037 . S
C1607 N79 0.977 . S
C1609 C1572 0.997 . S
C1618 C1129 1.383 . S
C1620 N112 1.371 . S
C1629 N134 1.290 . S
C1631 C1327 1.131 . S
C1640 C1077 1.170 . S
C1642 N178 1.124 . S
C1651 N211 1.356 . S
C1653 C1360 1.359 . S
C1662 N233 1.224 . S
C1664 C1011 1.063 . S
C1673 C997 1.159 . S
C1675 N277 1.112 . S
C1684 N310 1.282 . S
C1686 C1341 1.345 . S
C1695 N332 1.256 . S
C1697 C1063 1.186 . S
C1706 C1374 1.163 . S
C1708 N376 1.136 . S
C1717 N409 1.183 1_655 S
C1719 C1209 1.183 . S
C1728 N431 1.205 . S
C1730 C1558 1.055 . S
C1739 C1143 1.073 . S
C1741 N464 1.196 . S
C1750 N497 1.141 . S
C1752 C1261 1.015 . S
C1761 C799 1.201 . S
C1763 N365 1.329 1_565 S
C1772 C700 1.036 . S
C1774 N541 1.045 . S
C1783 N574 1.284 . S
C1785 C912 1.330 . S
C1794 C780 1.181 . S
C1796 N607 1.135 . S
C1805 C813 1.181 . S
C1807 N398 1.263 . S
C1816 N299 1.687 1_545 S
C1818 C733 1.341 . S
C1827 C766 1.047 . S
C1829 N640 1.041 . S
C1838 C714 1.123 . S
C1840 N662 1.207 . S
C1849 C568 1.235 . S
C1851 N695 1.488 1_554 S
C1860 C502 1.304 . S
C1862 N739 1.342 . S
C1871 C1473 1.002 . S
C1873 N772 0.969 . S
C1882 N805 1.092 . S
C1884 C436 1.125 . S
C1893 C634 1.289 . S
C1895 N827 1.456 . S
C1904 N871 1.209 . S
C1906 C384 1.310 . S
C1915 C681 0.866 . S
C1917 N893 0.923 . S
C1926 C318 1.165 . S
C1928 N926 1.292 . S
C1937 C304 0.857 . S
C1939 N959 0.893 . S
C1948 C648 1.150 . S
C1950 N1003 1.109 . S
C1959 N1025 1.086 . S
C1961 C370 1.028 . S
C1970 N1069 1.426 . S
C1972 C667 1.430 . S
C1981 N1102 1.381 1_455 S
C1983 C516 1.386 . S
C1992 N1124 1.246 . S
C1994 C1459 1.089 . S
C2003 N1168 1.456 . S
C2005 C450 1.495 . S
C2014 N1190 1.053 . S
C2016 C582 0.948 . S
C2025 C106 1.288 . S
C2027 N1058 1.415 . S
C2036 C7 1.071 . S
C2038 N1234 1.023 . S
C2047 C205 1.117 . S
C2049 N1256 1.370 . S
C2058 C87 1.233 . S
C2060 N1300 1.231 . S
C2069 N1091 1.214 . S
C2071 C120 1.141 . S
C2080 C54 1.264 . S
C2082 N992 1.529 1_565 S
C2091 C73 1.111 . S
C2093 N1333 1.108 . S
C2102 N1366 1.179 . S
C2104 C21 1.235 . S
C2113 C1176 1.128 . S
C2115 N167 1.315 . S
C2124 C1294 1.018 . S
C2126 N200 1.241 . S
C2135 N244 0.979 1_556 S
C2137 C1110 1.001 . S
C2146 C1228 1.371 . S
C2148 N145 1.378 . S
C2157 N101 1.291 . S
C2159 C1030 1.126 . S
C2168 N13 1.120 . S
C2170 C1539 1.163 . S
C2179 C964 1.350 . S
C2181 N46 1.356 . S
C2190 N68 1.221 . S
C2192 C1506 1.065 . S
C2201 N673 1.112 . S
C2203 C1492 1.158 . S
C2212 N1399 1.268 . S
C2214 C1044 1.355 . S
C2223 N629 1.256 . S
C2225 C1525 1.184 . S
C2234 C978 1.176 . S
C2236 N1432 1.125 . S
C2245 N1465 1.165 . S
C2247 C1308 1.194 . S
C2256 N530 1.201 . S
C2258 C1096 1.070 . S
C2267 C1242 1.074 . S
C2269 N563 1.196 . S
C2278 N596 1.143 . S
C2280 C1162 1.009 . S
C2289 C832 1.199 . S
C2291 N1421 1.329 . S
C2300 N442 1.047 1_545 S
C2302 C865 1.039 . S
C2311 N475 1.279 . S
C2313 C747 1.328 . S
C2322 C945 1.180 . S
C2324 N508 1.144 . S
C2333 C846 1.188 . S
C2335 N1454 1.264 . S
C2344 C898 1.342 . S
C2346 N1388 1.688 . S
C2355 N343 1.041 . S
C2357 C931 1.045 . S
C2366 C879 1.117 . S
C2368 N266 1.208 . S
C2377 C469 1.235 . S
C2379 N860 1.488 . S
C2388 C601 1.295 . S
C2390 N904 1.348 . S
C2399 C417 1.001 . S
C2401 N937 0.971 . S
C2410 N838 1.092 . S
C2412 C535 1.126 . S
C2421 C337 1.282 . S
C2423 N794 1.457 . S
C2432 N706 1.209 . S
C2434 C1440 1.310 . S
C2443 C285 0.887 . S
C2445 N728 0.921 . S
C2454 C1407 1.162 . S
C2456 N761 1.293 . S
C2465 C1393 0.844 . S
C2467 N1355 0.896 . S
C2476 N1498 1.093 . S
C2478 C351 1.158 . S
C2487 C1426 1.037 . S
C2489 N1322 1.085 . S
C2498 N1531 1.423 . S
C2500 C271 1.430 . S
C2509 C615 1.379 . S
C2511 N1564 1.382 . S
C2520 C403 1.079 . S
C2522 N1223 1.249 . S
C2531 N1267 1.440 . S
C2533 C549 1.484 1_455 S
C2542 C483 0.963 . S
C2544 N1289 1.045 . S
C2553 N1520 1.416 . S
C2555 C139 1.285 . S
C2564 C172 1.069 . S
C2566 N1135 1.021 . S
C2575 C40 1.132 . S
C2577 N1157 1.366 . S
C2586 N1201 1.240 . S
C2588 C252 1.230 . S
C2597 N1553 1.219 . S
C2599 C153 1.134 . S
C2608 N1487 1.533 . S
C2610 C219 1.256 . S
C2619 N1036 1.123 . S
C2621 C238 1.095 . S
C2630 C186 1.233 . S
C2632 N970 1.189 . S
C2641 C249 2.601 . S
C2643 C18 2.599 . S
C2652 C150 2.457 . S
C2654 C51 2.456 . S
C2663 C183 2.598 . S
C2665 C84 2.602 . S
C2674 C216 2.457 . S
C2676 C117 2.457 . S
C2685 C414 2.483 . S
C2687 C282 2.483 . S
C2696 C447 2.522 . S
C2698 C315 2.522 . S
C2707 C480 2.525 . S
C2709 C348 2.524 . S
C2718 C513 2.618 . S
C2720 C381 2.618 . S
C2729 C1404 2.522 . S
C2731 C546 2.522 . S
C2740 C579 2.525 . S
C2742 C645 2.524 . S
C2751 C612 2.619 . S
C2753 C1437 2.618 . S
C2762 C678 2.483 . S
C2764 C1470 2.483 . S
C2773 C711 2.490 . S
C2775 C942 2.491 . S
C2784 C843 2.638 . S
C2786 C744 2.627 . S
C2795 C876 2.489 . S
C2797 C777 2.492 . S
C2806 C909 2.627 . S
C2808 C810 2.638 . S
C2817 C1107 2.588 . S
C2819 C975 2.592 . S
C2828 C1008 2.508 . S
C2830 C1140 2.511 . S
C2839 C1041 2.499 . S
C2841 C1173 2.500 . S
C2850 C1074 2.479 . S
C2852 C1206 2.479 . S
C2861 C1503 2.508 . S
C2863 C1239 2.511 . S
C2872 C1338 2.499 . S
C2874 C1272 2.500 . S
C2883 C1305 2.479 . S
C2885 C1536 2.479 . S
C2894 C1569 2.588 . S
C2896 C1371 2.592 . S
