# Generated by pormake.
# Topology ukh, (4)-cn, num edge types: 1
# Building blocks:
#     Node 0, Type 0, BuildingBlock: UXUYUI_clean_sbu_0, # of connection points: 4
#     Node 1, Type 0, BuildingBlock: UXUYUI_clean_sbu_0, # of connection points: 4
#     Node 2, Type 0, BuildingBlock: UXUYUI_clean_sbu_0, # of connection points: 4
#     Node 3, Type 0, BuildingBlock: UXUYUI_clean_sbu_0, # of connection points: 4
#     Node 4, Type 0, BuildingBlock: UXUYUI_clean_sbu_0, # of connection points: 4
#     Node 5, Type 0, BuildingBlock: UXUYUI_clean_sbu_0, # of connection points: 4
#     Node 6, Type 0, BuildingBlock: UXUYUI_clean_sbu_0, # of connection points: 4
#     Node 7, Type 0, BuildingBlock: UXUYUI_clean_sbu_0, # of connection points: 4
#     Node 8, Type 0, BuildingBlock: UXUYUI_clean_sbu_0, # of connection points: 4
#     Node 9, Type 0, BuildingBlock: UXUYUI_clean_sbu_0, # of connection points: 4
#     Node 10, Type 0, BuildingBlock: UXUYUI_clean_sbu_0, # of connection points: 4
#     Node 11, Type 0, BuildingBlock: UXUYUI_clean_sbu_0, # of connection points: 4
#     Edge 12, Type (0, 0), BuildingBlock: OJICUG_clean_linker_0, # of connection points: 2
#     Edge 13, Type (0, 0), BuildingBlock: OJICUG_clean_linker_0, # of connection points: 2
#     Edge 14, Type (0, 0), BuildingBlock: OJICUG_clean_linker_0, # of connection points: 2
#     Edge 15, Type (0, 0), BuildingBlock: OJICUG_clean_linker_0, # of connection points: 2
#     Edge 16, Type (0, 0), BuildingBlock: OJICUG_clean_linker_0, # of connection points: 2
#     Edge 17, Type (0, 0), BuildingBlock: OJICUG_clean_linker_0, # of connection points: 2
#     Edge 18, Type (0, 0), BuildingBlock: OJICUG_clean_linker_0, # of connection points: 2
#     Edge 19, Type (0, 0), BuildingBlock: OJICUG_clean_linker_0, # of connection points: 2
#     Edge 20, Type (0, 0), BuildingBlock: OJICUG_clean_linker_0, # of connection points: 2
#     Edge 21, Type (0, 0), BuildingBlock: OJICUG_clean_linker_0, # of connection points: 2
#     Edge 22, Type (0, 0), BuildingBlock: OJICUG_clean_linker_0, # of connection points: 2
#     Edge 23, Type (0, 0), BuildingBlock: OJICUG_clean_linker_0, # of connection points: 2
#     Edge 24, Type (0, 0), BuildingBlock: OJICUG_clean_linker_0, # of connection points: 2
#     Edge 25, Type (0, 0), BuildingBlock: OJICUG_clean_linker_0, # of connection points: 2
#     Edge 26, Type (0, 0), BuildingBlock: OJICUG_clean_linker_0, # of connection points: 2
#     Edge 27, Type (0, 0), BuildingBlock: OJICUG_clean_linker_0, # of connection points: 2
#     Edge 28, Type (0, 0), BuildingBlock: OJICUG_clean_linker_0, # of connection points: 2
#     Edge 29, Type (0, 0), BuildingBlock: OJICUG_clean_linker_0, # of connection points: 2
#     Edge 30, Type (0, 0), BuildingBlock: OJICUG_clean_linker_0, # of connection points: 2
#     Edge 31, Type (0, 0), BuildingBlock: OJICUG_clean_linker_0, # of connection points: 2
#     Edge 32, Type (0, 0), BuildingBlock: OJICUG_clean_linker_0, # of connection points: 2
#     Edge 33, Type (0, 0), BuildingBlock: OJICUG_clean_linker_0, # of connection points: 2
#     Edge 34, Type (0, 0), BuildingBlock: OJICUG_clean_linker_0, # of connection points: 2
#     Edge 35, Type (0, 0), BuildingBlock: OJICUG_clean_linker_0, # of connection points: 2
# Relax obj value: 0.278
# Max RMSD: 0.251
# Mean RMSD: 0.251
data_MOF--net-ukh--node1-UXUYUI_clean_sbu_0--edge1-OJICUG_clean_linker_0
_symmetry_space_group_name_H-M    P1
_symmetry_Int_Tables_number       1
_symmetry_cell_setting            triclinic
loop_
_symmetry_equiv_pos_as_xyz
'x, y, z'
_cell_length_a     37.657643
_cell_length_b     37.682678
_cell_length_c     73.268674
_cell_angle_alpha  90.000618
_cell_angle_beta   89.997753
_cell_angle_gamma 119.96836
loop_
_atom_site_label
_atom_site_type_symbol
_atom_site_fract_x
_atom_site_fract_y
_atom_site_fract_z
_atom_type_partial_charge
Li0 Li 0.36794 0.27127 0.04255 0.0
Li1 Li 0.32896 0.2148 0.06645 0.0
Li2 Li 0.34385 0.19943 0.0365 0.0
Li3 Li 0.2951 0.22117 0.0392 0.0
C4 C 0.41353 0.22337 0.05414 0.0
N5 N 0.47131 0.19892 0.05109 0.0
C6 C 0.40992 0.19071 0.06459 0.0
C7 C 0.44698 0.24413 0.04241 0.0
C8 C 0.4393 0.17864 0.06277 0.0
C9 C 0.47575 0.23118 0.04099 0.0
C10 C 0.29227 0.27177 0.06249 0.0
C11 C 0.22867 0.2573 0.0767 0.0
N12 N 0.23013 0.2895 0.06762 0.0
C13 C 0.29329 0.30483 0.05337 0.0
C14 C 0.25983 0.24784 0.07429 0.0
C15 C 0.26152 0.31325 0.05613 0.0
C16 C 0.39819 0.34835 0.02649 0.0
N17 N 0.40623 0.32758 0.03947 0.0
C18 C 0.46291 0.38971 0.05053 0.0
C19 C 0.43809 0.34712 0.05126 0.0
C20 C 0.45466 0.41222 0.03757 0.0
C21 C 0.42224 0.39088 0.02523 0.0
H22 H 0.37212 0.33194 0.01752 0.0
H23 H 0.44339 0.32975 0.06157 0.0
C24 C 0.31533 0.16178 0.09549 0.0
N25 N 0.32427 0.20053 0.09136 0.0
C26 C 0.31372 0.14996 0.11365 0.0
C27 C 0.32918 0.2178 0.12297 0.0
C28 C 0.33092 0.22845 0.10459 0.0
C29 C 0.32095 0.17822 0.12765 0.0
H30 H 0.31007 0.14027 0.08462 0.0
H31 H 0.33806 0.25909 0.10084 0.0
C32 C 0.354 0.24513 0.00361 0.0
N33 N 0.38516 0.25652 0.96859 0.0
C34 C 0.32757 0.2278 0.98873 0.0
C35 C 0.3962 0.26882 0.00063 0.0
C36 C 0.34394 0.23373 0.97115 0.0
C37 C 0.41137 0.27409 0.98284 0.0
C38 C 0.26144 0.13682 0.04169 0.0
C39 C 0.25786 0.13511 0.0227 0.0
C40 C 0.23506 0.10263 0.05212 0.0
C41 C 0.22795 0.09913 0.01441 0.0
C42 C 0.20547 0.06721 0.04334 0.0
N43 N 0.20258 0.06619 0.02482 0.0
C44 C 0.34036 0.12473 0.03599 0.0
C45 C 0.36342 0.15856 0.00757 0.0
C46 C 0.33513 0.08838 0.02859 0.0
N47 N 0.35271 0.15841 0.02531 0.0
C48 C 0.35861 0.12273 -0.00043 0.0
C49 C 0.34263 0.08656 0.00995 0.0
H50 H 0.33164 0.12522 0.05001 0.0
H51 H 0.37345 0.1855 0.99928 0.0
C52 C 0.25079 0.24298 0.01604 0.0
N53 N 0.24613 0.21689 0.02982 0.0
C54 C 0.2167 0.24267 0.00848 0.0
C55 C 0.17347 0.18841 0.02938 0.0
C56 C 0.20853 0.18986 0.03659 0.0
C57 C 0.17739 0.21521 0.01517 0.0
H58 H 0.28115 0.26429 0.01103 0.0
H59 H 0.20582 0.16976 0.04771 0.0
O60 O 0.38472 0.23523 0.05553 0.0
O61 O 0.32228 0.26213 0.0595 0.0
O62 O 0.33842 0.23992 0.0209 0.0
O63 O 0.29097 0.17147 0.05013 0.0
H64 H 0.3845 0.17459 0.07388 0.0
H65 H 0.45087 0.27014 0.03459 0.0
H66 H 0.43665 0.15315 0.07065 0.0
H67 H 0.50169 0.24685 0.03189 0.0
H68 H 0.20324 0.23892 0.08571 0.0
H69 H 0.31809 0.32348 0.04411 0.0
H70 H 0.25847 0.22193 0.08133 0.0
H71 H 0.26174 0.33858 0.04907 0.0
H72 H 0.48787 0.40491 0.06017 0.0
H73 H 0.41445 0.407 0.0152 0.0
H74 H 0.30684 0.11904 0.11671 0.0
H75 H 0.33524 0.24054 0.13338 0.0
H76 H 0.29474 0.21005 0.9907 0.0
H77 H 0.41701 0.28313 0.01189 0.0
H78 H 0.32387 0.22031 0.95953 0.0
H79 H 0.44399 0.29222 0.98036 0.0
H80 H 0.27817 0.16115 0.01445 0.0
H81 H 0.23751 0.10346 0.06686 0.0
H82 H 0.22496 0.09736 -0.00029 0.0
H83 H 0.18486 0.04049 0.05124 0.0
H84 H 0.3223 0.06125 0.03709 0.0
H85 H 0.36531 0.12279 0.9852 0.0
H86 H 0.22108 0.26352 0.99741 0.0
H87 H 0.14377 0.16714 0.03508 0.0
Li88 Li 0.09681 0.3643 0.37564 0.0
Li89 Li 0.11222 0.32844 0.39962 0.0
Li90 Li 0.14691 0.34294 0.37027 0.0
Li91 Li 0.07396 0.29132 0.37308 0.0
C92 C 0.18988 0.4105 0.38933 0.0
N93 N 0.27329 0.46461 0.38999 0.0
C94 C 0.21451 0.40607 0.40235 0.0
C95 C 0.20754 0.44263 0.37676 0.0
C96 C 0.25666 0.43369 0.40243 0.0
C97 C 0.24981 0.46962 0.37729 0.0
C98 C 0.03945 0.31621 0.40774 0.0
C99 C 0.00745 0.27968 0.43547 0.0
N100 N 0.00549 0.31274 0.44158 0.0
C101 C 0.03699 0.34977 0.41426 0.0
C102 C 0.0244 0.28079 0.41837 0.0
C103 C 0.01973 0.34742 0.43141 0.0
C104 C 0.04182 0.38791 0.36272 0.0
N105 N 0.07853 0.40241 0.37129 0.0
C106 C 0.08133 0.46606 0.37744 0.0
C107 C 0.09865 0.44079 0.37848 0.0
C108 C 0.04341 0.45171 0.36867 0.0
C109 C 0.02396 0.41244 0.36096 0.0
H110 H 0.02563 0.35668 0.35786 0.0
H111 H 0.12728 0.45112 0.38565 0.0
C112 C 0.12784 0.2962 0.43134 0.0
N113 N 0.12114 0.32623 0.42501 0.0
C114 C 0.13725 0.2953 0.44968 0.0
C115 C 0.13277 0.35637 0.45467 0.0
C116 C 0.12353 0.35612 0.43619 0.0
C117 C 0.14004 0.32578 0.46161 0.0
H118 H 0.12689 0.27348 0.42206 0.0
H119 H 0.11884 0.38009 0.43068 0.0
C120 C 0.09273 0.35034 0.33945 0.0
N121 N 0.07404 0.38415 0.31014 0.0
C122 C 0.05553 0.32763 0.33023 0.0
C123 C 0.12058 0.39006 0.33367 0.0
C124 C 0.04661 0.34531 0.31546 0.0
C125 C 0.11051 0.40667 0.31885 0.0
C126 C 0.11231 0.25185 0.38108 0.0
C127 C 0.13074 0.24316 0.36652 0.0
C128 C 0.08302 0.21978 0.39174 0.0
C129 C 0.11953 0.2025 0.36286 0.0
C130 C 0.07257 0.17953 0.38761 0.0
N131 N 0.0909 0.17179 0.37338 0.0
C132 C 0.22089 0.34361 0.36999 0.0
C133 C 0.20256 0.35743 0.341 0.0
C134 C 0.25158 0.3381 0.3622 0.0
N135 N 0.19638 0.35181 0.35929 0.0
C136 C 0.23307 0.35231 0.33262 0.0
C137 C 0.25687 0.34071 0.34316 0.0
H138 H 0.21434 0.33791 0.3844 0.0
H139 H 0.18204 0.36299 0.33275 0.0
C140 C 0.99385 0.22327 0.37161 0.0
N141 N 0.03141 0.24118 0.36363 0.0
C142 C 0.96161 0.18743 0.36431 0.0
C143 C 0.00747 0.189 0.34081 0.0
C144 C 0.03872 0.22501 0.34849 0.0
C145 C 0.96812 0.16986 0.34864 0.0
H146 H 0.98871 0.23727 0.38342 0.0
H147 H 0.06877 0.24038 0.34226 0.0
O148 O 0.14868 0.38345 0.38886 0.0
O149 O 0.05693 0.31815 0.39113 0.0
O150 O 0.10183 0.33369 0.35405 0.0
O151 O 0.12229 0.29141 0.38471 0.0
H152 H 0.20131 0.38132 0.41216 0.0
H153 H 0.18881 0.44668 0.36672 0.0
H154 H 0.27615 0.43051 0.41235 0.0
H155 H 0.26394 0.49456 0.36761 0.0
H156 H 0.99593 0.25256 0.44389 0.0
H157 H 0.04852 0.37745 0.40625 0.0
H158 H 0.0262 0.2546 0.41356 0.0
H159 H 0.01777 0.37321 0.43667 0.0
H160 H 0.09699 0.49618 0.38364 0.0
H161 H 0.99435 0.40017 0.35439 0.0
H162 H 0.1434 0.27162 0.45434 0.0
H163 H 0.13428 0.38027 0.46339 0.0
H164 H 0.03361 0.29683 0.33454 0.0
H165 H 0.14956 0.40793 0.34062 0.0
H166 H 0.01785 0.3282 0.30825 0.0
H167 H 0.13169 0.43747 0.31428 0.0
H168 H 0.15303 0.2674 0.35794 0.0
H169 H 0.06815 0.22587 0.40296 0.0
H170 H 0.13345 0.19534 0.35159 0.0
H171 H 0.0498 0.15442 0.39569 0.0
H172 H 0.26856 0.32852 0.37086 0.0
H173 H 0.23636 0.35505 0.31792 0.0
H174 H 0.93165 0.17432 0.37059 0.0
H175 H 0.01407 0.17642 0.32885 0.0
Li176 Li 0.77862 0.11711 0.73311 0.0
Li177 Li 0.73103 0.10081 0.70801 0.0
Li178 Li 0.77651 0.07356 0.70697 0.0
Li179 Li 0.80254 0.14755 0.70375 0.0
C180 C 0.69498 0.03851 0.73118 0.0
N181 N 0.61349 0.99274 0.74113 0.0
C182 C 0.67911 0.05275 0.74475 0.0
C183 C 0.66953 0.00083 0.72279 0.0
C184 C 0.63781 0.02917 0.74957 0.0
C185 C 0.62837 0.9782 0.72797 0.0
C186 C 0.76637 0.18915 0.71385 0.0
C187 C 0.75375 0.2258 0.69012 0.0
N188 N 0.77309 0.26062 0.70027 0.0
C189 C 0.78615 0.22526 0.72404 0.0
C190 C 0.75005 0.18934 0.69674 0.0
C191 C 0.78921 0.26109 0.71694 0.0
C192 C 0.81788 0.16716 0.76299 0.0
N193 N 0.79017 0.12801 0.75832 0.0
C194 C 0.78442 0.10642 0.78935 0.0
C195 C 0.77347 0.09768 0.771 0.0
C196 C 0.81298 0.1467 0.79463 0.0
C197 C 0.82972 0.17728 0.78116 0.0
H198 H 0.83118 0.19041 0.75253 0.0
H199 H 0.75225 0.0666 0.76681 0.0
C200 C 0.65656 0.05529 0.68937 0.0
N201 N 0.67566 0.08464 0.70234 0.0
C202 C 0.61403 0.03581 0.68736 0.0
C203 C 0.61199 0.07843 0.71155 0.0
C204 C 0.6546 0.09733 0.71299 0.0
C205 C 0.59109 0.04648 0.69893 0.0
H206 H 0.67411 0.04535 0.68135 0.0
H207 H 0.67061 0.12037 0.72334 0.0
C208 C 0.84914 0.11645 0.73166 0.0
N209 N 0.8969 0.10976 0.75856 0.0
C210 C 0.88896 0.14859 0.73476 0.0
C211 C 0.83363 0.08087 0.74222 0.0
C212 C 0.91263 0.14461 0.74842 0.0
C213 C 0.85824 0.0781 0.75576 0.0
C214 C 0.78443 0.10203 0.67147 0.0
C215 C 0.82378 0.10701 0.67244 0.0
C216 C 0.76533 0.0962 0.65451 0.0
C217 C 0.84341 0.10631 0.65638 0.0
C218 C 0.786 0.09571 0.63876 0.0
N219 N 0.82428 0.10074 0.64001 0.0
C220 C 0.75041 0.00187 0.68739 0.0
C221 C 0.81474 0.02477 0.70168 0.0
C222 C 0.75224 0.96936 0.67928 0.0
N223 N 0.78128 0.02861 0.69838 0.0
C224 C 0.81763 0.99236 0.69402 0.0
C225 C 0.78619 0.96434 0.68257 0.0
H226 H 0.72469 0.00635 0.68466 0.0
H227 H 0.83963 0.04726 0.70988 0.0
C228 C 0.87298 0.2227 0.7063 0.0
N229 N 0.84561 0.19728 0.69371 0.0
C230 C 0.91065 0.25536 0.70082 0.0
C231 C 0.88996 0.23712 0.66942 0.0
C232 C 0.85237 0.20509 0.67555 0.0
C233 C 0.92046 0.26165 0.68215 0.0
H234 H 0.86641 0.21614 0.72067 0.0
H235 H 0.82978 0.18514 0.66575 0.0
O236 O 0.73503 0.06173 0.7259 0.0
O237 O 0.76412 0.15404 0.7203 0.0
O238 O 0.82509 0.12006 0.71864 0.0
O239 O 0.76409 0.10195 0.68696 0.0
H240 H 0.69827 0.08208 0.75123 0.0
H241 H 0.68131 0.98935 0.71228 0.0
H242 H 0.62502 0.03998 0.75993 0.0
H243 H 0.60824 0.94914 0.72149 0.0
H244 H 0.74137 0.22645 0.67688 0.0
H245 H 0.79911 0.22566 0.73727 0.0
H246 H 0.73513 0.16176 0.68857 0.0
H247 H 0.80448 0.2893 0.72466 0.0
H248 H 0.7713 0.08178 0.79924 0.0
H249 H 0.85153 0.20876 0.78461 0.0
H250 H 0.59908 0.0111 0.67759 0.0
H251 H 0.59543 0.0878 0.7206 0.0
H252 H 0.90158 0.17626 0.72667 0.0
H253 H 0.80276 0.05579 0.74007 0.0
H254 H 0.94352 0.16923 0.75096 0.0
H255 H 0.84656 0.05081 0.76408 0.0
H256 H 0.83917 0.11153 0.68538 0.0
H257 H 0.73479 0.09207 0.65354 0.0
H258 H 0.87387 0.11022 0.65693 0.0
H259 H 0.77158 0.09128 0.62554 0.0
H260 H 0.72732 0.94829 0.67058 0.0
H261 H 0.8446 0.98985 0.69662 0.0
H262 H 0.93263 0.27414 0.71114 0.0
H263 H 0.89594 0.24066 0.65489 0.0
Li264 Li 0.67113 0.78438 0.06576 0.0
Li265 Li 0.6323 0.73064 0.04303 0.0
Li266 Li 0.70795 0.78161 0.03922 0.0
Li267 Li 0.65729 0.80273 0.03711 0.0
C268 C 0.69021 0.72814 0.07398 0.0
N269 N 0.70981 0.70833 0.10733 0.0
C270 C 0.66106 0.69372 0.08352 0.0
C271 C 0.72938 0.75234 0.08131 0.0
C272 C 0.67157 0.68425 0.10038 0.0
C273 C 0.73867 0.74186 0.09822 0.0
C274 C 0.59141 0.78343 0.0571 0.0
C275 C 0.53287 0.78814 0.04712 0.0
N276 N 0.54231 0.81849 0.05948 0.0
C277 C 0.60032 0.81441 0.06982 0.0
C278 C 0.55723 0.76992 0.04575 0.0
C279 C 0.57521 0.83185 0.07078 0.0
C280 C 0.70595 0.83142 0.09749 0.0
N281 N 0.67489 0.79532 0.09115 0.0
C282 C 0.64557 0.77675 0.12094 0.0
C283 C 0.645 0.76802 0.10239 0.0
C284 C 0.67675 0.81426 0.1278 0.0
C285 C 0.70737 0.84169 0.11588 0.0
H286 H 0.72919 0.8525 0.0882 0.0
H287 H 0.62035 0.73982 0.09686 0.0
C288 C 0.60333 0.65358 0.02737 0.0
N289 N 0.59389 0.67447 0.03974 0.0
C290 C 0.57919 0.61107 0.02601 0.0
C291 C 0.53572 0.61253 0.04996 0.0
C292 C 0.56064 0.6551 0.0508 0.0
C293 C 0.54528 0.58989 0.03763 0.0
H294 H 0.63047 0.66987 0.019 0.0
H295 H 0.55431 0.67258 0.06067 0.0
C296 C 0.73888 0.86414 0.04099 0.0
N297 N 0.79435 0.93256 0.0216 0.0
C298 C 0.74154 0.86234 0.02201 0.0
C299 C 0.76448 0.90085 0.05008 0.0
C300 C 0.76975 0.89721 0.01246 0.0
C301 C 0.79233 0.93507 0.04005 0.0
C302 C 0.64339 0.75527 0.00466 0.0
C303 C 0.66654 0.76828 0.98862 0.0
C304 C 0.60062 0.73394 0.00365 0.0
C305 C 0.64642 0.76021 0.97182 0.0
C306 C 0.58165 0.72641 0.98659 0.0
N307 N 0.60475 0.73963 0.97116 0.0
C308 C 0.75143 0.75986 0.01569 0.0
C309 C 0.79424 0.81293 0.03615 0.0
C310 C 0.78536 0.7605 0.00774 0.0
N311 N 0.75645 0.78578 0.0296 0.0
C312 C 0.82914 0.8147 0.02855 0.0
C313 C 0.82487 0.78806 0.01421 0.0
H314 H 0.72093 0.73859 0.0108 0.0
H315 H 0.79723 0.83305 0.0473 0.0
C316 C 0.66087 0.87752 0.03697 0.0
N317 N 0.64878 0.84419 0.02608 0.0
C318 C 0.66648 0.91419 0.02977 0.0
C319 C 0.64405 0.88094 0.00048 0.0
C320 C 0.6389 0.84479 0.00827 0.0
C321 C 0.65966 0.91672 0.01111 0.0
H322 H 0.66928 0.87659 0.05099 0.0
H323 H 0.62937 0.81826 -0.00024 0.0
O324 O 0.68021 0.73854 0.0577 0.0
O325 O 0.61593 0.76632 0.05581 0.0
O326 O 0.71069 0.83071 0.05067 0.0
O327 O 0.66263 0.76267 0.0212 0.0
H328 H 0.63057 0.67478 0.07802 0.0
H329 H 0.75217 0.77919 0.0741 0.0
H330 H 0.64929 0.65782 0.10797 0.0
H331 H 0.76878 0.76043 0.10413 0.0
H332 H 0.50642 0.7781 0.03836 0.0
H333 H 0.62664 0.82532 0.07871 0.0
H334 H 0.54951 0.74561 0.036 0.0
H335 H 0.58194 0.85608 0.08046 0.0
H336 H 0.62124 0.75501 0.12971 0.0
H337 H 0.73205 0.87077 0.12073 0.0
H338 H 0.58801 0.59485 0.0165 0.0
H339 H 0.50964 0.59744 0.05904 0.0
H340 H 0.72194 0.83449 0.01467 0.0
H341 H 0.76268 0.90304 0.06474 0.0
H342 H 0.77199 0.89619 0.99777 0.0
H343 H 0.81224 0.96367 0.04692 0.0
H344 H 0.6997 0.78448 0.98913 0.0
H345 H 0.58229 0.7233 0.01589 0.0
H346 H 0.66393 0.77024 0.9593 0.0
H347 H 0.54856 0.71004 0.98562 0.0
H348 H 0.78071 0.73981 0.99656 0.0
H349 H 0.85902 0.8361 0.03406 0.0
H350 H 0.67911 0.941 0.03846 0.0
H351 H 0.6379 0.88142 0.98607 0.0
Li352 Li 0.9072 0.63268 0.37656 0.0
Li353 Li 0.89386 0.66901 0.40124 0.0
Li354 Li 0.85695 0.65483 0.3723 0.0
Li355 Li 0.93046 0.7059 0.37429 0.0
C356 C 0.81601 0.58514 0.39181 0.0
N357 N 0.7342 0.52611 0.39434 0.0
C358 C 0.79185 0.58691 0.40586 0.0
C359 C 0.79876 0.55307 0.3792 0.0
C360 C 0.75049 0.55686 0.40686 0.0
C361 C 0.75729 0.52359 0.38067 0.0
C362 C 0.96743 0.68082 0.40802 0.0
C363 C 0.0006 0.71698 0.43566 0.0
N364 N 0.00504 0.68481 0.44094 0.0
C365 C 0.97249 0.6482 0.41368 0.0
C366 C 0.98178 0.7156 0.41904 0.0
C367 C 0.99155 0.65079 0.43038 0.0
C368 C 0.95874 0.60659 0.36145 0.0
N369 N 0.92426 0.59387 0.37162 0.0
C370 C 0.92316 0.53158 0.3791 0.0
C371 C 0.906 0.55697 0.38023 0.0
C372 C 0.95894 0.54421 0.36879 0.0
C373 C 0.97628 0.58178 0.35957 0.0
H374 H 0.97373 0.63683 0.35547 0.0
H375 H 0.87929 0.54816 0.38866 0.0
C376 C 0.8744 0.69862 0.43242 0.0
N377 N 0.88578 0.67147 0.42669 0.0
C378 C 0.86464 0.69967 0.45068 0.0
C379 C 0.87872 0.64489 0.4569 0.0
C380 C 0.88787 0.64466 0.43844 0.0
C381 C 0.86658 0.67248 0.46323 0.0
H382 H 0.87178 0.71874 0.4227 0.0
H383 H 0.89601 0.62269 0.43341 0.0
C384 C 0.90585 0.64626 0.33995 0.0
N385 N 0.91609 0.61121 0.30875 0.0
C386 C 0.94191 0.66712 0.32976 0.0
C387 C 0.87482 0.60783 0.33418 0.0
C388 C 0.94656 0.64881 0.31405 0.0
C389 C 0.88063 0.59055 0.3184 0.0
C390 C 0.89322 0.74586 0.38336 0.0
C391 C 0.87489 0.75485 0.36885 0.0
C392 C 0.92228 0.77764 0.3942 0.0
C393 C 0.88611 0.79559 0.36539 0.0
C394 C 0.93274 0.81799 0.39027 0.0
N395 N 0.91459 0.82605 0.37607 0.0
C396 C 0.78204 0.65089 0.37509 0.0
C397 C 0.8 0.64686 0.34446 0.0
C398 C 0.75033 0.65714 0.36933 0.0
N399 N 0.80666 0.6469 0.3627 0.0
C400 C 0.76865 0.65332 0.33806 0.0
C401 C 0.74444 0.66026 0.3506 0.0
H402 H 0.78907 0.65252 0.38947 0.0
H403 H 0.82095 0.64514 0.3349 0.0
C404 C 0.01004 0.77443 0.37287 0.0
N405 N 0.97276 0.75594 0.36463 0.0
C406 C 0.04232 0.81016 0.36554 0.0
C407 C 0.99715 0.80728 0.3414 0.0
C408 C 0.96574 0.77149 0.34919 0.0
C409 C 0.03619 0.82697 0.34953 0.0
H410 H 0.01494 0.76098 0.38494 0.0
H411 H 0.93585 0.75576 0.34282 0.0
O412 O 0.85649 0.61437 0.39054 0.0
O413 O 0.94838 0.67869 0.39182 0.0
O414 O 0.90088 0.6636 0.35542 0.0
O415 O 0.88332 0.70625 0.38675 0.0
H416 H 0.8048 0.61143 0.41579 0.0
H417 H 0.81724 0.55088 0.36845 0.0
H418 H 0.73134 0.55799 0.41759 0.0
H419 H 0.74347 0.49866 0.37097 0.0
H420 H 0.01159 0.74359 0.44438 0.0
H421 H 0.9617 0.62109 0.40533 0.0
H422 H 0.97801 0.74107 0.4149 0.0
H423 H 0.99555 0.62571 0.43496 0.0
H424 H 0.90917 0.50283 0.38647 0.0
H425 H 0.00428 0.59275 0.35177 0.0
H426 H 0.85452 0.72079 0.45478 0.0
H427 H 0.88098 0.62358 0.46608 0.0
H428 H 0.9662 0.69696 0.33403 0.0
H429 H 0.84655 0.59157 0.34181 0.0
H430 H 0.9744 0.66447 0.30608 0.0
H431 H 0.85692 0.56074 0.31381 0.0
H432 H 0.85259 0.73077 0.36022 0.0
H433 H 0.93685 0.77124 0.40544 0.0
H434 H 0.87228 0.803 0.35417 0.0
H435 H 0.95533 0.84289 0.3985 0.0
H436 H 0.73226 0.66204 0.37945 0.0
H437 H 0.76561 0.65612 0.32351 0.0
H438 H 0.07206 0.82379 0.37207 0.0
H439 H 0.99094 0.81932 0.32915 0.0
Li440 Li 0.27376 0.89916 0.70785 0.0
Li441 Li 0.22622 0.88511 0.73182 0.0
Li442 Li 0.20126 0.8532 0.70313 0.0
Li443 Li 0.22871 0.92812 0.7067 0.0
C444 C 0.24657 0.81693 0.71244 0.0
N445 N 0.26351 0.75956 0.69764 0.0
C446 C 0.24946 0.78858 0.72371 0.0
C447 C 0.25226 0.81608 0.69361 0.0
C448 C 0.25807 0.75982 0.71598 0.0
C449 C 0.2608 0.78684 0.6864 0.0
C450 C 0.30514 0.95529 0.73598 0.0
C451 C 0.36665 0.01319 0.74769 0.0
N452 N 0.37389 0.98739 0.75797 0.0
C453 C 0.3132 0.92933 0.74663 0.0
C454 C 0.33206 0.99754 0.73648 0.0
C455 C 0.34811 0.94616 0.75766 0.0
C456 C 0.34862 0.94562 0.69017 0.0
N457 N 0.32897 0.91466 0.70239 0.0
C458 C 0.3921 0.9186 0.71084 0.0
C459 C 0.34954 0.90026 0.71236 0.0
C460 C 0.41352 0.95187 0.6989 0.0
C461 C 0.3911 0.96459 0.6881 0.0
H462 H 0.33151 0.95696 0.68273 0.0
H463 H 0.33323 0.87606 0.7222 0.0
C464 C 0.19217 0.83429 0.7619 0.0
N465 N 0.21463 0.8744 0.75713 0.0
C466 C 0.17954 0.8233 0.77991 0.0
C467 C 0.21386 0.89519 0.78785 0.0
C468 C 0.22583 0.9048 0.76964 0.0
C469 C 0.19018 0.85394 0.79316 0.0
H470 H 0.18335 0.81086 0.75156 0.0
H471 H 0.24336 0.93648 0.76541 0.0
C472 C 0.22305 0.90093 0.6708 0.0
N473 N 0.18833 0.90634 0.63845 0.0
C474 C 0.18478 0.89856 0.67086 0.0
C475 C 0.24371 0.90623 0.6543 0.0
C476 C 0.16774 0.90133 0.65436 0.0
C477 C 0.22561 0.9088 0.63808 0.0
C478 C 0.15612 0.88397 0.73159 0.0
C479 C 0.12019 0.84874 0.73696 0.0
C480 C 0.16868 0.92083 0.74082 0.0
C481 C 0.09757 0.85092 0.75159 0.0
C482 C 0.14519 0.92177 0.75537 0.0
N483 N 0.11044 0.88707 0.76043 0.0
C484 C 0.1337 0.77629 0.70612 0.0
C485 C 0.14636 0.79806 0.67532 0.0
C486 C 0.09499 0.74388 0.70162 0.0
N487 N 0.15753 0.80374 0.69319 0.0
C488 C 0.10764 0.76632 0.67022 0.0
C489 C 0.08054 0.73988 0.68363 0.0
H490 H 0.14372 0.78119 0.72019 0.0
H491 H 0.16622 0.8194 0.66512 0.0
C492 C 0.25959 0.00378 0.68969 0.0
N493 N 0.22576 0.97409 0.69827 0.0
C494 C 0.25899 0.03717 0.6818 0.0
C495 C 0.18894 0.00913 0.69203 0.0
C496 C 0.19072 0.97598 0.69951 0.0
C497 C 0.2233 0.04004 0.68291 0.0
H498 H 0.2868 0.00104 0.68873 0.0
H499 H 0.16387 0.95135 0.70593 0.0
O500 O 0.23827 0.84522 0.71998 0.0
O501 O 0.27167 0.93956 0.72475 0.0
O502 O 0.24101 0.89939 0.68678 0.0
O503 O 0.17941 0.8823 0.71764 0.0
H504 H 0.24515 0.78887 0.73831 0.0
H505 H 0.25013 0.83763 0.68462 0.0
H506 H 0.26043 0.73772 0.72455 0.0
H507 H 0.26527 0.78583 0.67187 0.0
H508 H 0.38778 0.04584 0.74821 0.0
H509 H 0.29302 0.8965 0.74623 0.0
H510 H 0.32635 0.01799 0.72821 0.0
H511 H 0.35479 0.92643 0.76593 0.0
H512 H 0.40822 0.90766 0.71931 0.0
H513 H 0.40644 0.9904 0.6789 0.0
H514 H 0.16084 0.79117 0.78333 0.0
H515 H 0.22312 0.91977 0.79764 0.0
H516 H 0.16821 0.89431 0.68347 0.0
H517 H 0.27349 0.9084 0.65405 0.0
H518 H 0.13812 0.89945 0.65421 0.0
H519 H 0.24125 0.91286 0.6252 0.0
H520 H 0.10987 0.81999 0.72996 0.0
H521 H 0.19673 0.94827 0.73701 0.0
H522 H 0.06979 0.82385 0.75594 0.0
H523 H 0.15472 0.95002 0.76272 0.0
H524 H 0.07576 0.72359 0.71234 0.0
H525 H 0.09811 0.76455 0.65615 0.0
H526 H 0.28614 0.06054 0.67494 0.0
H527 H 0.1607 0.01004 0.69292 0.0
Li528 Li 0.77995 0.70713 0.62568 0.0
Li529 Li 0.80196 0.65726 0.63045 0.0
Li530 Li 0.78307 0.66951 0.60008 0.0
Li531 Li 0.73029 0.63369 0.62282 0.0
C532 C 0.85867 0.74821 0.61549 0.0
N533 N 0.91779 0.8303 0.6157 0.0
C534 C 0.89483 0.76171 0.62545 0.0
C535 C 0.85298 0.77642 0.60536 0.0
C536 C 0.92426 0.80334 0.62545 0.0
C537 C 0.88308 0.81779 0.60572 0.0
C538 C 0.74948 0.63889 0.6597 0.0
C539 C 0.72868 0.57293 0.67313 0.0
N540 N 0.72509 0.58743 0.68962 0.0
C541 C 0.74564 0.65316 0.67677 0.0
C542 C 0.741 0.59847 0.65783 0.0
C543 C 0.73326 0.62666 0.69173 0.0
C544 C 0.75804 0.7679 0.62923 0.0
N545 N 0.7856 0.75681 0.63467 0.0
C546 C 0.81818 0.81469 0.65452 0.0
C547 C 0.81519 0.77915 0.64713 0.0
C548 C 0.7899 0.82686 0.64929 0.0
C549 C 0.75961 0.80294 0.6364 0.0
H550 H 0.73425 0.74899 0.61962 0.0
H551 H 0.83627 0.76915 0.65143 0.0
C552 C 0.85457 0.62435 0.64138 0.0
N553 N 0.8406 0.65074 0.64485 0.0
C554 C 0.8901 0.6297 0.64999 0.0
C555 C 0.89345 0.68638 0.66686 0.0
C556 C 0.85813 0.68005 0.65791 0.0
C557 C 0.9109 0.6621 0.66241 0.0
H558 H 0.83955 0.60041 0.63136 0.0
H559 H 0.84639 0.70062 0.66036 0.0
C560 C 0.72178 0.68094 0.59032 0.0
N561 N 0.69055 0.68373 0.55655 0.0
C562 C 0.69057 0.64516 0.58241 0.0
C563 C 0.73673 0.71825 0.58115 0.0
C564 C 0.67527 0.64716 0.5653 0.0
C565 C 0.72066 0.719 0.56406 0.0
C566 C 0.78621 0.59696 0.60391 0.0
C567 C 0.82636 0.62092 0.59752 0.0
C568 C 0.76615 0.55444 0.60184 0.0
C569 C 0.84579 0.60183 0.58919 0.0
C570 C 0.78668 0.53651 0.59347 0.0
N571 N 0.82573 0.56038 0.58737 0.0
C572 C 0.83236 0.70252 0.56862 0.0
C573 C 0.77011 0.64066 0.56353 0.0
C574 C 0.84407 0.70331 0.55051 0.0
N575 N 0.7959 0.67161 0.57475 0.0
C576 C 0.7804 0.64041 0.54523 0.0
C577 C 0.81799 0.67197 0.5385 0.0
H578 H 0.85301 0.726 0.5779 0.0
H579 H 0.74183 0.61578 0.56887 0.0
C580 C 0.65339 0.60688 0.63819 0.0
N581 N 0.67422 0.59503 0.62692 0.0
C582 C 0.61091 0.58284 0.63993 0.0
C583 C 0.61223 0.53442 0.61867 0.0
C584 C 0.65482 0.5592 0.61751 0.0
C585 C 0.58969 0.54657 0.62975 0.0
H586 H 0.66967 0.63584 0.64531 0.0
H587 H 0.67221 0.55083 0.6085 0.0
O588 O 0.82925 0.70758 0.61547 0.0
O589 O 0.76171 0.66464 0.64498 0.0
O590 O 0.73747 0.67948 0.60698 0.0
O591 O 0.76593 0.61483 0.61165 0.0
H592 H 0.9004 0.74032 0.63297 0.0
H593 H 0.82549 0.76645 0.5974 0.0
H594 H 0.9523 0.81419 0.63316 0.0
H595 H 0.87886 0.83995 0.59806 0.0
H596 H 0.72198 0.54157 0.67189 0.0
H597 H 0.7522 0.68442 0.67842 0.0
H598 H 0.74388 0.58687 0.64475 0.0
H599 H 0.73014 0.63729 0.70503 0.0
H600 H 0.8423 0.83232 0.66425 0.0
H601 H 0.73658 0.81049 0.63225 0.0
H602 H 0.90203 0.60974 0.64644 0.0
H603 H 0.90849 0.712 0.67618 0.0
H604 H 0.67865 0.61603 0.58925 0.0
H605 H 0.76034 0.74638 0.58716 0.0
H606 H 0.65134 0.61963 0.55897 0.0
H607 H 0.73207 0.74764 0.55679 0.0
H608 H 0.84253 0.65383 0.59907 0.0
H609 H 0.735 0.53551 0.60663 0.0
H610 H 0.87686 0.61998 0.58421 0.0
H611 H 0.77153 0.50362 0.5918 0.0
H612 H 0.87377 0.72771 0.54612 0.0
H613 H 0.75915 0.61575 0.53648 0.0
H614 H 0.59467 0.5935 0.64848 0.0
H615 H 0.59701 0.50649 0.61072 0.0
Li616 Li 0.148 0.80338 0.9596 0.0
Li617 Li 0.07663 0.78146 0.95792 0.0
Li618 Li 0.10068 0.73153 0.95492 0.0
Li619 Li 0.11493 0.78385 0.93054 0.0
C620 C 0.11533 0.75915 0.99313 0.0
N621 N 0.13831 0.74743 0.02741 0.0
C622 C 0.10546 0.77426 0.00858 0.0
C623 C 0.13621 0.73745 0.99515 0.0
C624 C 0.11755 0.76821 0.02578 0.0
C625 C 0.14774 0.73201 0.01258 0.0
C626 C 0.12806 0.8648 0.95449 0.0
C627 C 0.14593 0.93584 0.95356 0.0
N628 N 0.14273 0.93583 0.97204 0.0
C629 C 0.1248 0.86551 0.97347 0.0
C630 C 0.1386 0.90024 0.94443 0.0
C631 C 0.13239 0.90169 0.9821 0.0
C632 C 0.22155 0.87497 0.95691 0.0
N633 N 0.19827 0.84628 0.96954 0.0
C634 C 0.23804 0.89119 0.99372 0.0
C635 C 0.20674 0.85309 0.98767 0.0
C636 C 0.26067 0.92239 0.98097 0.0
C637 C 0.25332 0.91315 0.96231 0.0
H638 H 0.21346 0.8693 0.94263 0.0
H639 H 0.18753 0.83037 0.99754 0.0
C640 C 0.01055 0.75909 0.98095 0.0
N641 N 0.03221 0.7858 0.9674 0.0
C642 C 0.97713 0.75962 0.98882 0.0
C643 C 0.98894 0.81528 0.96864 0.0
C644 C 0.02218 0.81361 0.96112 0.0
C645 C 0.96585 0.7879 0.98264 0.0
H646 H 0.01932 0.73732 0.98562 0.0
H647 H 0.03982 0.83431 0.95022 0.0
C648 C 0.19375 0.78222 0.93969 0.0
N649 N 0.27771 0.81573 0.93684 0.0
C650 C 0.21433 0.80354 0.92394 0.0
C651 C 0.21585 0.7774 0.95386 0.0
C652 C 0.25678 0.82038 0.92279 0.0
C653 C 0.25828 0.79474 0.9522 0.0
C654 C 0.02821 0.73381 0.92937 0.0
C655 C 0.99302 0.69531 0.92794 0.0
C656 C 0.02929 0.76773 0.92106 0.0
C657 C 0.95941 0.69133 0.91812 0.0
C658 C 0.99505 0.76249 0.91137 0.0
N659 N 0.96111 0.72472 0.91011 0.0
C660 C 0.05327 0.65532 0.97162 0.0
C661 C 0.09569 0.65543 0.94766 0.0
C662 C 0.03461 0.61281 0.97326 0.0
N663 N 0.08282 0.6755 0.95885 0.0
C664 C 0.07772 0.61287 0.94878 0.0
C665 C 0.0462 0.59093 0.96149 0.0
H666 H 0.04315 0.67213 0.98006 0.0
H667 H 0.11887 0.67234 0.93747 0.0
C668 C 0.14339 0.83413 0.8998 0.0
N669 N 0.12157 0.79439 0.90519 0.0
C670 C 0.1523 0.84382 0.88138 0.0
C671 C 0.11566 0.7714 0.87439 0.0
C672 C 0.10735 0.76312 0.89298 0.0
C673 C 0.1388 0.81223 0.86842 0.0
H674 H 0.15503 0.85823 0.90989 0.0
H675 H 0.09029 0.73179 0.89774 0.0
O676 O 0.10346 0.76464 0.97622 0.0
O677 O 0.1219 0.83002 0.94574 0.0
O678 O 0.15219 0.76586 0.9411 0.0
O679 O 0.06115 0.73823 0.9391 0.0
H680 H 0.08872 0.79058 0.0073 0.0
H681 H 0.14305 0.72455 0.98342 0.0
H682 H 0.11035 0.77996 0.03784 0.0
H683 H 0.16403 0.71537 0.01433 0.0
H684 H 0.15421 0.96349 0.94594 0.0
H685 H 0.11679 0.83856 0.9815 0.0
H686 H 0.1412 0.90035 0.92973 0.0
H687 H 0.13013 0.90263 0.99679 0.0
H688 H 0.24227 0.89703 0.00825 0.0
H689 H 0.27031 0.936 0.95199 0.0
H690 H 0.9605 0.73832 -0.00028 0.0
H691 H 0.98097 0.83723 0.96334 0.0
H692 H 0.19783 0.80718 0.91273 0.0
H693 H 0.20059 0.76085 0.96608 0.0
H694 H 0.27309 0.83714 0.91073 0.0
H695 H 0.27577 0.79152 0.96314 0.0
H696 H 0.99171 0.66881 0.93437 0.0
H697 H 0.05616 0.79783 0.92216 0.0
H698 H 0.93195 0.66171 0.91688 0.0
H699 H 0.99543 0.78847 0.90489 0.0
H700 H 0.01011 0.59712 0.98308 0.0
H701 H 0.08785 0.59722 0.93957 0.0
H702 H 0.17081 0.87564 0.87743 0.0
H703 H 0.10437 0.74617 0.86481 0.0
Li704 Li 0.29799 0.07419 0.29304 0.0
Li705 Li 0.34705 0.14487 0.29521 0.0
Li706 Li 0.33331 0.11179 0.26523 0.0
Li707 Li 0.3711 0.09601 0.29064 0.0
C708 C 0.26113 0.12083 0.28276 0.0
N709 N 0.18985 0.12417 0.28637 0.0
C710 C 0.25104 0.13113 0.29953 0.0
C711 C 0.23519 0.11256 0.26778 0.0
C712 C 0.21484 0.13262 0.30109 0.0
C713 C 0.1992 0.11426 0.2699 0.0
C714 C 0.34274 0.11051 0.32965 0.0
C715 C 0.38048 0.13584 0.35776 0.0
N716 N 0.34603 0.13102 0.36606 0.0
C717 C 0.30764 0.10552 0.33849 0.0
C718 C 0.37943 0.12557 0.33937 0.0
C719 C 0.30996 0.11618 0.35689 0.0
C720 C 0.25057 0.01147 0.31745 0.0
N721 N 0.24772 0.03057 0.30226 0.0
C722 C 0.17513 0.98591 0.30125 0.0
C723 C 0.21106 0.01827 0.29398 0.0
C724 C 0.17712 0.96623 0.31717 0.0
C725 C 0.2155 0.97927 0.32524 0.0
H726 H 0.28024 0.02119 0.32348 0.0
H727 H 0.2097 0.03322 0.28164 0.0
C728 C 0.34626 0.21647 0.29153 0.0
N729 N 0.35453 0.19584 0.30451 0.0
C730 C 0.33912 0.2481 0.29638 0.0
C731 C 0.35213 0.23904 0.32782 0.0
C732 C 0.3595 0.20773 0.3223 0.0
C733 C 0.33986 0.25833 0.31485 0.0
H734 H 0.34233 0.20637 0.2775 0.0
H735 H 0.3665 0.19147 0.33244 0.0
C736 C 0.29777 0.0175 0.27257 0.0
N737 N 0.23975 0.93526 0.27117 0.0
C738 C 0.3018 0.98955 0.28366 0.0
C739 C 0.26438 0.00369 0.26071 0.0
C740 C 0.2721 0.94808 0.28276 0.0
C741 C 0.23534 0.96196 0.26022 0.0
C742 C 0.41958 0.1868 0.28051 0.0
C743 C 0.42636 0.21939 0.26916 0.0
C744 C 0.44413 0.19403 0.29591 0.0
C745 C 0.45746 0.25893 0.27355 0.0
C746 C 0.47491 0.234 0.29984 0.0
N747 N 0.48086 0.26536 0.28868 0.0
C748 C 0.33005 0.15544 0.23551 0.0
C749 C 0.32613 0.09275 0.22728 0.0
C750 C 0.32771 0.16449 0.21726 0.0
N751 N 0.32939 0.12022 0.24012 0.0
C752 C 0.32336 0.10039 0.20881 0.0
C753 C 0.32428 0.13679 0.20358 0.0
H754 H 0.33261 0.17663 0.24608 0.0
H755 H 0.32566 0.06494 0.23138 0.0
C756 C 0.41027 0.06022 0.3104 0.0
N757 N 0.40916 0.07771 0.29433 0.0
C758 C 0.43356 0.04083 0.31195 0.0
C759 C 0.4541 0.05801 0.28044 0.0
C760 C 0.43077 0.07738 0.27955 0.0
C761 C 0.45516 0.03883 0.29672 0.0
H762 H 0.39171 0.05978 0.32175 0.0
H763 H 0.42859 0.09085 0.26686 0.0
O764 O 0.29665 0.1197 0.28081 0.0
O765 O 0.34102 0.09974 0.31171 0.0
O766 O 0.32576 0.05835 0.27369 0.0
O767 O 0.38862 0.14803 0.27677 0.0
H768 H 0.27109 0.13828 0.31117 0.0
H769 H 0.24273 0.10474 0.25468 0.0
H770 H 0.20666 0.1406 0.31398 0.0
H771 H 0.17872 0.10776 0.25844 0.0
H772 H 0.40869 0.14767 0.36543 0.0
H773 H 0.27887 0.09343 0.33127 0.0
H774 H 0.40683 0.12942 0.33277 0.0
H775 H 0.28306 0.1126 0.36389 0.0
H776 H 0.14612 0.97667 0.29459 0.0
H777 H 0.21848 0.96433 0.3373 0.0
H778 H 0.33071 0.26273 0.28585 0.0
H779 H 0.35307 0.24584 0.34223 0.0
H780 H 0.32735 0.99986 0.293 0.0
H781 H 0.26062 0.02507 0.2522 0.0
H782 H 0.27468 0.92609 0.29133 0.0
H783 H 0.20919 0.95083 0.2512 0.0
H784 H 0.40761 0.21424 0.25717 0.0
H785 H 0.43928 0.16903 0.30478 0.0
H786 H 0.46294 0.28452 0.26496 0.0
H787 H 0.49404 0.24011 0.31177 0.0
H788 H 0.32926 0.19322 0.21392 0.0
H789 H 0.32021 0.07788 0.19879 0.0
H790 H 0.4332 0.026 0.32467 0.0
H791 H 0.4706 0.05746 0.26844 0.0
Li792 Li 0.22098 0.29378 0.62588 0.0
Li793 Li 0.1986 0.34334 0.62851 0.0
Li794 Li 0.21838 0.33111 0.59911 0.0
Li795 Li 0.27163 0.37022 0.62314 0.0
C796 C 0.14191 0.25241 0.6157 0.0
N797 N 0.07958 0.1719 0.61844 0.0
C798 C 0.11272 0.24063 0.62961 0.0
C799 C 0.13925 0.22324 0.60315 0.0
C800 C 0.08146 0.19978 0.63076 0.0
C801 C 0.10758 0.18269 0.60479 0.0
C802 C 0.23344 0.34589 0.66204 0.0
C803 C 0.2543 0.39152 0.68791 0.0
N804 N 0.22329 0.36171 0.69789 0.0
C805 C 0.2019 0.31565 0.67257 0.0
C806 C 0.25995 0.38412 0.66975 0.0
C807 C 0.19721 0.32428 0.69067 0.0
C808 C 0.24863 0.23763 0.63066 0.0
N809 N 0.21756 0.24468 0.63491 0.0
C810 C 0.18597 0.18467 0.65359 0.0
C811 C 0.1867 0.21917 0.64624 0.0
C812 C 0.21787 0.17675 0.64962 0.0
C813 C 0.24944 0.20375 0.63789 0.0
H814 H 0.27339 0.25891 0.622 0.0
H815 H 0.16294 0.22584 0.64989 0.0
C816 C 0.12226 0.33607 0.62834 0.0
N817 N 0.15641 0.35164 0.63895 0.0
C818 C 0.08582 0.33174 0.63521 0.0
C819 C 0.12118 0.36337 0.66326 0.0
C820 C 0.15715 0.36736 0.65575 0.0
C821 C 0.08448 0.34376 0.65321 0.0
H822 H 0.12266 0.32455 0.61487 0.0
H823 H 0.18495 0.38137 0.66368 0.0
C824 C 0.27972 0.31627 0.59184 0.0
N825 N 0.30941 0.30229 0.55979 0.0
C826 C 0.31559 0.34751 0.58399 0.0
C827 C 0.25921 0.27779 0.58352 0.0
C828 C 0.33005 0.33987 0.56775 0.0
C829 C 0.27463 0.27137 0.56728 0.0
C830 C 0.22284 0.41333 0.61287 0.0
C831 C 0.19239 0.41278 0.60178 0.0
C832 C 0.23936 0.44149 0.62717 0.0
C833 C 0.17866 0.44037 0.60531 0.0
C834 C 0.2248 0.46856 0.63025 0.0
N835 N 0.19499 0.46742 0.61936 0.0
C836 C 0.16738 0.30283 0.56832 0.0
C837 C 0.23583 0.35376 0.56178 0.0
C838 C 0.15641 0.30142 0.55005 0.0
N839 N 0.20656 0.32845 0.57378 0.0
C840 C 0.22624 0.3533 0.54333 0.0
C841 C 0.18599 0.32694 0.53726 0.0
H842 H 0.14433 0.28416 0.57824 0.0
H843 H 0.26644 0.37478 0.56658 0.0
C844 C 0.34786 0.40086 0.64012 0.0
N845 N 0.32746 0.40932 0.6271 0.0
C846 C 0.39038 0.42505 0.64171 0.0
C847 C 0.38993 0.4665 0.61661 0.0
C848 C 0.34732 0.44176 0.61564 0.0
C849 C 0.41204 0.45777 0.62957 0.0
H850 H 0.33124 0.37434 0.6488 0.0
H851 H 0.33027 0.44727 0.60523 0.0
O852 O 0.17268 0.29233 0.61426 0.0
O853 O 0.23889 0.33793 0.64439 0.0
O854 O 0.26478 0.3233 0.6076 0.0
O855 O 0.23579 0.3858 0.60999 0.0
H856 H 0.11458 0.26251 0.63965 0.0
H857 H 0.16133 0.23184 0.59222 0.0
H858 H 0.05884 0.19021 0.64152 0.0
H859 H 0.10522 0.15981 0.59518 0.0
H860 H 0.27451 0.42099 0.69404 0.0
H861 H 0.18098 0.28604 0.66679 0.0
H862 H 0.28453 0.40787 0.66178 0.0
H863 H 0.17278 0.30124 0.69895 0.0
H864 H 0.16071 0.16458 0.66237 0.0
H865 H 0.27515 0.19951 0.63471 0.0
H866 H 0.05835 0.31634 0.62696 0.0
H867 H 0.12165 0.37389 0.67707 0.0
H868 H 0.33193 0.37742 0.59028 0.0
H869 H 0.23174 0.25316 0.58956 0.0
H870 H 0.35765 0.36384 0.56146 0.0
H871 H 0.25897 0.24178 0.56065 0.0
H872 H 0.17924 0.39098 0.5907 0.0
H873 H 0.26289 0.44212 0.63588 0.0
H874 H 0.15493 0.44018 0.59692 0.0
H875 H 0.23712 0.4904 0.64133 0.0
H876 H 0.12482 0.28135 0.54609 0.0
H877 H 0.25006 0.3734 0.53394 0.0
H878 H 0.4063 0.41702 0.65175 0.0
H879 H 0.4055 0.49164 0.60709 0.0
Li880 Li 0.85396 0.20069 0.96148 0.0
Li881 Li 0.92516 0.22218 0.95965 0.0
Li882 Li 0.90152 0.27236 0.95641 0.0
Li883 Li 0.88633 0.21897 0.93218 0.0
C884 C 0.88741 0.24534 0.99486 0.0
N885 N 0.86538 0.25741 0.02928 0.0
C886 C 0.89712 0.22981 0.01021 0.0
C887 C 0.86724 0.26769 0.99705 0.0
C888 C 0.8855 0.23603 0.02749 0.0
C889 C 0.85617 0.27328 0.01455 0.0
C890 C 0.87282 0.13844 0.95636 0.0
C891 C 0.85216 0.06669 0.95532 0.0
N892 N 0.85641 0.06671 0.97375 0.0
C893 C 0.87711 0.13775 0.97529 0.0
C894 C 0.86033 0.10264 0.94627 0.0
C895 C 0.86864 0.10121 0.98383 0.0
C896 C 0.78008 0.12959 0.95892 0.0
N897 N 0.8038 0.15799 0.97157 0.0
C898 C 0.7647 0.11264 0.99575 0.0
C899 C 0.79588 0.15084 0.98972 0.0
C900 C 0.7417 0.08171 0.98295 0.0
C901 C 0.74848 0.09132 0.96431 0.0
H902 H 0.78776 0.13554 0.94461 0.0
H903 H 0.81547 0.17334 -0.00041 0.0
C904 C 0.99148 0.24467 0.98256 0.0
N905 N 0.96964 0.21787 0.96907 0.0
C906 C 0.02492 0.2441 0.99038 0.0
C907 C 0.01279 0.18826 0.97026 0.0
C908 C 0.97952 0.18996 0.96279 0.0
C909 C 0.03606 0.21571 0.98422 0.0
H910 H 0.98283 0.26654 0.98723 0.0
H911 H 0.96173 0.16919 0.95194 0.0
C912 C 0.80821 0.22221 0.9417 0.0
N913 N 0.72436 0.19022 0.93953 0.0
C914 C 0.78694 0.202 0.92589 0.0
C915 C 0.78686 0.22674 0.95629 0.0
C916 C 0.74456 0.1859 0.92508 0.0
C917 C 0.74447 0.21017 0.95497 0.0
C918 C 0.97408 0.26949 0.93135 0.0
C919 C 0.00982 0.30773 0.93102 0.0
C920 C 0.97327 0.23615 0.92258 0.0
C921 C 0.04426 0.31205 0.92181 0.0
C922 C 0.00834 0.24171 0.91354 0.0
N923 N 0.04281 0.27923 0.91334 0.0
C924 C 0.94976 0.34909 0.97255 0.0
C925 C 0.90679 0.34839 0.94872 0.0
C926 C 0.96864 0.39166 0.97391 0.0
N927 N 0.91982 0.32858 0.95998 0.0
C928 C 0.92496 0.391 0.94956 0.0
C929 C 0.95686 0.41326 0.96206 0.0
H930 H 0.95998 0.33246 0.98106 0.0
H931 H 0.88329 0.33121 0.93869 0.0
C932 C 0.85306 0.16743 0.90221 0.0
N933 N 0.87873 0.20707 0.90695 0.0
C934 C 0.84337 0.1567 0.88393 0.0
C935 C 0.88744 0.22779 0.8757 0.0
C936 C 0.89621 0.23716 0.8942 0.0
C937 C 0.86024 0.18714 0.8704 0.0
H938 H 0.83921 0.14433 0.91271 0.0
H939 H 0.91625 0.2685 0.89845 0.0
O940 O 0.89888 0.23973 0.97787 0.0
O941 O 0.87962 0.17356 0.94775 0.0
O942 O 0.84971 0.23782 0.94277 0.0
O943 O 0.94028 0.26466 0.94046 0.0
H944 H 0.91338 0.21304 0.00881 0.0
H945 H 0.86063 0.281 0.9854 0.0
H946 H 0.89256 0.22395 0.03948 0.0
H947 H 0.84042 0.29042 0.01644 0.0
H948 H 0.84236 0.03874 0.94768 0.0
H949 H 0.88654 0.16501 0.98332 0.0
H950 H 0.85684 0.10254 0.93162 0.0
H951 H 0.87167 0.10026 0.99847 0.0
H952 H 0.76088 0.10648 0.01027 0.0
H953 H 0.7312 0.06864 0.95396 0.0
H954 H 0.04167 0.26547 0.00125 0.0
H955 H 0.02065 0.16622 0.96497 0.0
H956 H 0.80292 0.19876 0.91434 0.0
H957 H 0.80264 0.2424 0.96859 0.0
H958 H 0.72774 0.17001 0.91296 0.0
H959 H 0.72755 0.21314 0.96623 0.0
H960 H 0.01091 0.33377 0.93783 0.0
H961 H 0.94598 0.20621 0.92289 0.0
H962 H 0.07214 0.34148 0.92141 0.0
H963 H 0.00819 0.21617 0.90672 0.0
H964 H 0.99342 0.4076 0.98357 0.0
H965 H 0.91467 0.40643 0.9403 0.0
H966 H 0.82265 0.12495 0.88044 0.0
H967 H 0.90078 0.25224 0.86573 0.0
Li968 Li 0.7069 0.92299 0.29184 0.0
Li969 Li 0.65575 0.8501 0.29478 0.0
Li970 Li 0.66914 0.88403 0.26524 0.0
Li971 Li 0.63378 0.89923 0.28966 0.0
C972 C 0.74668 0.88505 0.28261 0.0
N973 N 0.82764 0.90659 0.28795 0.0
C974 C 0.75755 0.86864 0.29726 0.0
C975 C 0.77697 0.91229 0.27065 0.0
C976 C 0.79865 0.87992 0.29973 0.0
C977 C 0.81773 0.92286 0.2736 0.0
C978 C 0.64947 0.90724 0.32507 0.0
C979 C 0.59481 0.89368 0.34607 0.0
N980 N 0.61732 0.93234 0.3528 0.0
C981 C 0.67219 0.94675 0.33226 0.0
C982 C 0.61059 0.88036 0.33209 0.0
C983 C 0.65536 0.95889 0.34625 0.0
C984 C 0.7745 0.00345 0.29303 0.0
N985 N 0.75739 0.96581 0.30086 0.0
C986 C 0.81045 0.99013 0.3233 0.0
C987 C 0.77441 0.95864 0.31575 0.0
C988 C 0.82873 0.02958 0.31562 0.0
C989 C 0.81034 0.03593 0.30021 0.0
H990 H 0.75978 0.00851 0.28147 0.0
H991 H 0.75959 0.92857 0.32193 0.0
C992 C 0.65865 0.77819 0.29485 0.0
N993 N 0.64832 0.80104 0.30559 0.0
C994 C 0.66494 0.7479 0.3025 0.0
C995 C 0.64679 0.76307 0.33196 0.0
C996 C 0.64115 0.7934 0.32373 0.0
C997 C 0.66065 0.74108 0.32144 0.0
H998 H 0.66521 0.78574 0.28055 0.0
H999 H 0.63369 0.81253 0.332 0.0
C1000 C 0.68175 0.95858 0.25779 0.0
N1001 N 0.6867 0.9975 0.22514 0.0
C1002 C 0.64894 0.96316 0.25192 0.0
C1003 C 0.71715 0.97399 0.24711 0.0
C1004 C 0.65204 0.98292 0.23537 0.0
C1005 C 0.71902 0.99347 0.23062 0.0
C1006 C 0.58877 0.8058 0.27657 0.0
C1007 C 0.59222 0.78128 0.26319 0.0
C1008 C 0.55942 0.78771 0.29034 0.0
C1009 C 0.56642 0.73884 0.26392 0.0
C1010 C 0.53421 0.74516 0.29061 0.0
N1011 N 0.53822 0.72181 0.27752 0.0
C1012 C 0.69671 0.86017 0.23466 0.0
C1013 C 0.64785 0.88032 0.22764 0.0
C1014 C 0.69841 0.85061 0.21641 0.0
N1015 N 0.67188 0.87491 0.23988 0.0
C1016 C 0.64911 0.8718 0.20917 0.0
C1017 C 0.67445 0.85647 0.20343 0.0
H1018 H 0.71465 0.85508 0.24473 0.0
H1019 H 0.62727 0.89065 0.23224 0.0
C1020 C 0.6126 0.9572 0.29986 0.0
N1021 N 0.59584 0.91758 0.29438 0.0
C1022 C 0.58818 0.9751 0.30193 0.0
C1023 C 0.5295 0.91116 0.29252 0.0
C1024 C 0.55508 0.89427 0.29084 0.0
C1025 C 0.54616 0.95225 0.29796 0.0
H1026 H 0.64532 0.97536 0.30202 0.0
H1027 H 0.5427 0.86305 0.28619 0.0
O1028 O 0.70671 0.87495 0.28011 0.0
O1029 O 0.66514 0.89498 0.31119 0.0
O1030 O 0.67924 0.9391 0.2739 0.0
O1031 O 0.61431 0.84729 0.27631 0.0
H1032 H 0.73465 0.84791 0.3068 0.0
H1033 H 0.76909 0.92529 0.25925 0.0
H1034 H 0.80752 0.86762 0.31106 0.0
H1035 H 0.8415 0.94402 0.26448 0.0
H1036 H 0.56466 0.87328 0.35156 0.0
H1037 H 0.70231 0.96798 0.32696 0.0
H1038 H 0.59268 0.84967 0.3267 0.0
H1039 H 0.67248 0.98946 0.35188 0.0
H1040 H 0.82367 0.98366 0.33506 0.0
H1041 H 0.82275 0.06594 0.29407 0.0
H1042 H 0.6762 0.73239 0.29384 0.0
H1043 H 0.6425 0.75848 0.34656 0.0
H1044 H 0.62122 0.95129 0.25994 0.0
H1045 H 0.74279 0.97066 0.25144 0.0
H1046 H 0.62683 0.98655 0.23062 0.0
H1047 H 0.74614 0.00535 0.22217 0.0
H1048 H 0.61483 0.79482 0.25244 0.0
H1049 H 0.5563 0.80631 0.30076 0.0
H1050 H 0.56889 0.71944 0.25372 0.0
H1051 H 0.51147 0.7307 0.30124 0.0
H1052 H 0.7183 0.83882 0.21248 0.0
H1053 H 0.6297 0.87608 0.19957 0.0
H1054 H 0.6024 0.00705 0.30582 0.0
H1055 H 0.49721 0.89252 0.28935 0.0
C1056 C 0.51153 0.5225 0.02099 0.0
C1057 C 0.52143 0.54438 0.03752 0.0
H1058 H 0.48312 0.46368 0.00804 0.0
C1059 C 0.50951 0.52244 0.05402 0.0
H1060 H 0.52009 0.5385 0.00805 0.0
C1061 C 0.48826 0.47965 0.05401 0.0
C1062 C 0.47832 0.45774 0.0375 0.0
H1063 H 0.51713 0.53835 0.06699 0.0
H1064 H 0.47913 0.46372 0.06696 0.0
C1065 C 0.49012 0.47965 0.02099 0.0
C1066 C 0.01392 0.48916 0.38509 0.0
C1067 C 0.02269 0.47627 0.36857 0.0
H1068 H 0.98588 0.52008 0.39806 0.0
C1069 C 0.00991 0.48535 0.35208 0.0
H1070 H 0.02314 0.48212 0.39797 0.0
C1071 C 0.98917 0.5075 0.35211 0.0
C1072 C 0.97992 0.5199 0.36866 0.0
H1073 H 0.01627 0.47557 0.33918 0.0
H1074 H 0.97998 0.51462 0.33924 0.0
C1075 C 0.99233 0.51043 0.38515 0.0
C1076 C 0.48101 0.98582 0.71522 0.0
C1077 C 0.45906 0.97515 0.69871 0.0
H1078 H 0.53977 0.01672 0.72819 0.0
C1079 C 0.48087 0.98832 0.6822 0.0
H1080 H 0.46508 0.97662 0.72818 0.0
C1081 C 0.52374 0.01153 0.68221 0.0
C1082 C 0.5456 0.02249 0.69874 0.0
H1083 H 0.46478 0.98047 0.66927 0.0
H1084 H 0.53977 0.02128 0.66929 0.0
C1085 C 0.52375 0.0093 0.71524 0.0
C1086 C 0.52237 0.50972 0.61338 0.0
C1087 C 0.54419 0.52303 0.62987 0.0
H1088 H 0.46362 0.47897 0.60038 0.0
C1089 C 0.52223 0.51508 0.64631 0.0
H1090 H 0.53844 0.51586 0.60047 0.0
C1091 C 0.47933 0.49402 0.64625 0.0
C1092 C 0.45755 0.48098 0.62973 0.0
H1093 H 0.53823 0.5249 0.65922 0.0
H1094 H 0.46319 0.48826 0.65911 0.0
C1095 C 0.47955 0.48909 0.6133 0.0
C1096 C 0.99034 0.48044 0.94547 0.0
C1097 C 0.97928 0.45878 0.96205 0.0
H1098 H 0.02001 0.53893 0.93231 0.0
C1099 C 0.99085 0.48093 0.97851 0.0
H1100 H 0.98241 0.46431 0.93255 0.0
C1101 C 0.01279 0.52379 0.97837 0.0
C1102 C 0.02391 0.54541 0.96177 0.0
H1103 H 0.98263 0.46513 0.99151 0.0
H1104 H 0.02134 0.54001 0.99126 0.0
C1105 C 0.01244 0.52322 0.94533 0.0
C1106 C 0.50265 0.01972 0.31239 0.0
C1107 C 0.4773 0.01547 0.2975 0.0
H1108 H 0.54419 0.00289 0.32426 0.0
C1109 C 0.47324 0.98873 0.28323 0.0
H1110 H 0.50641 0.04014 0.32356 0.0
C1111 C 0.49458 0.96724 0.28369 0.0
C1112 C 0.52077 0.97229 0.29834 0.0
H1113 H 0.45349 0.98439 0.27169 0.0
H1114 H 0.49149 0.94755 0.2723 0.0
C1115 C 0.52437 0.99855 0.31275 0.0
C1116 C 0.30117 0.16655 0.17862 0.0
C1117 C 0.32231 0.14626 0.184 0.0
H1118 H 0.28408 0.19242 0.15661 0.0
C1119 C 0.34233 0.13595 0.17058 0.0
H1120 H 0.28474 0.17428 0.1885 0.0
C1121 C 0.34146 0.14592 0.15229 0.0
C1122 C 0.32086 0.16673 0.147 0.0
H1123 H 0.3595 0.12099 0.17424 0.0
H1124 H 0.35775 0.13818 0.14231 0.0
C1125 C 0.30065 0.17687 0.16034 0.0
C1126 C 0.13595 0.28939 0.49093 0.0
C1127 C 0.15151 0.32615 0.48105 0.0
H1128 H 0.13509 0.26071 0.51625 0.0
C1129 C 0.1787 0.36319 0.48977 0.0
H1130 H 0.11466 0.26036 0.48468 0.0
C1131 C 0.19007 0.36344 0.50795 0.0
C1132 C 0.17452 0.32666 0.51783 0.0
H1133 H 0.19166 0.39201 0.48249 0.0
H1134 H 0.21066 0.39254 0.51432 0.0
C1135 C 0.14735 0.28963 0.50909 0.0
C1136 C 0.86633 0.18415 0.81875 0.0
C1137 C 0.82528 0.1568 0.81404 0.0
H1138 H 0.90967 0.2148 0.84022 0.0
C1139 C 0.79597 0.13942 0.82802 0.0
H1140 H 0.88978 0.1976 0.80833 0.0
C1141 C 0.80739 0.14921 0.84627 0.0
C1142 C 0.8484 0.17661 0.85098 0.0
H1143 H 0.76399 0.11878 0.82486 0.0
H1144 H 0.78389 0.13584 0.85668 0.0
C1145 C 0.87775 0.194 0.83702 0.0
C1146 C 0.68125 0.86345 0.15187 0.0
C1147 C 0.67666 0.82522 0.14719 0.0
H1148 H 0.68376 0.90315 0.17342 0.0
C1149 C 0.67139 0.79736 0.1611 0.0
H1150 H 0.68501 0.88532 0.14138 0.0
C1151 C 0.67102 0.80769 0.17938 0.0
C1152 C 0.67526 0.84578 0.18406 0.0
H1153 H 0.66792 0.76776 0.15782 0.0
H1154 H 0.66686 0.78566 0.18987 0.0
C1155 C 0.68023 0.87352 0.17015 0.0
C1156 C 0.82104 0.63514 0.5104 0.0
C1157 C 0.83041 0.67197 0.51922 0.0
H1158 H 0.8245 0.60628 0.48587 0.0
C1159 C 0.85227 0.70895 0.50953 0.0
H1160 H 0.80478 0.60612 0.5175 0.0
C1161 C 0.86451 0.70914 0.49153 0.0
C1162 C 0.85485 0.6723 0.48265 0.0
H1163 H 0.85965 0.73788 0.51578 0.0
H1164 H 0.88175 0.73828 0.4846 0.0
C1165 C 0.83298 0.63529 0.49232 0.0
C1166 C 0.14982 0.85517 0.84049 0.0
C1167 C 0.15043 0.82198 0.84893 0.0
H1168 H 0.1613 0.89092 0.81622 0.0
C1169 C 0.16373 0.79909 0.83883 0.0
H1170 H 0.13924 0.87308 0.84785 0.0
C1171 C 0.17657 0.80942 0.82076 0.0
C1172 C 0.17632 0.84285 0.81235 0.0
H1173 H 0.16522 0.77377 0.84504 0.0
H1174 H 0.18747 0.7917 0.81348 0.0
C1175 C 0.16259 0.86547 0.8224 0.0
C1176 C 0.31128 0.97486 0.00293 0.0
C1177 C 0.28729 0.96548 0.98704 0.0
H1178 H 0.3487 0.02091 0.02244 0.0
C1179 C 0.28564 0.99735 0.97779 0.0
H1180 H 0.31357 0.95112 0.01025 0.0
C1181 C 0.30583 0.03715 0.98469 0.0
C1182 C 0.32807 0.04617 0.00106 0.0
H1183 H 0.26677 0.99123 0.96575 0.0
H1184 H 0.30179 0.06027 0.97775 0.0
C1185 C 0.33147 0.01482 0.00987 0.0
C1186 C 0.26698 0.29973 0.31898 0.0
C1187 C 0.28219 0.3253 0.33435 0.0
H1188 H 0.27272 0.25837 0.30104 0.0
C1189 C 0.31895 0.33169 0.34233 0.0
H1190 H 0.2383 0.29323 0.31271 0.0
C1191 C 0.33891 0.31144 0.33558 0.0
C1192 C 0.32256 0.28446 0.32069 0.0
H1193 H 0.33172 0.3515 0.35409 0.0
H1194 H 0.3666 0.31621 0.34226 0.0
C1195 C 0.28683 0.27959 0.31226 0.0
C1196 C 0.99623 0.29145 0.68622 0.0
C1197 C 0.96348 0.28949 0.67613 0.0
H1198 H 0.05992 0.31026 0.68694 0.0
C1199 C 0.97214 0.31062 0.65942 0.0
H1200 H 0.99087 0.27503 0.69898 0.0
C1201 C 0.01208 0.33077 0.65243 0.0
C1202 C 0.04423 0.3304 0.66204 0.0
H1203 H 0.94785 0.31043 0.65144 0.0
H1204 H 0.01754 0.34533 0.63918 0.0
C1205 C 0.03606 0.31174 0.6793 0.0
C1206 C 0.67107 0.98858 0.01152 0.0
C1207 C 0.67451 0.95745 0.0025 0.0
H1208 H 0.68898 0.05228 0.01227 0.0
C1209 C 0.6969 0.96695 0.98614 0.0
H1210 H 0.65373 0.98215 0.02407 0.0
C1211 C 0.71705 0.00692 0.97945 0.0
C1212 C 0.71529 0.03851 0.98889 0.0
H1213 H 0.70101 0.94404 0.97905 0.0
H1214 H 0.73595 0.01339 0.96739 0.0
C1215 C 0.69129 0.02873 0.00479 0.0
C1216 C 0.69887 0.72951 0.34657 0.0
C1217 C 0.67625 0.71589 0.33028 0.0
H1218 H 0.73815 0.72297 0.36555 0.0
C1219 C 0.67307 0.68107 0.32158 0.0
H1220 H 0.70292 0.7567 0.35346 0.0
C1221 C 0.6938 0.66176 0.32851 0.0
C1222 C 0.71781 0.67662 0.34437 0.0
H1223 H 0.65549 0.66938 0.30914 0.0
H1224 H 0.69177 0.63577 0.32125 0.0
C1225 C 0.71928 0.71013 0.35352 0.0
C1226 C 0.02356 0.69391 0.66214 0.0
C1227 C 0.03626 0.71254 0.67936 0.0
H1228 H 0.97397 0.66327 0.64326 0.0
C1229 C 0.00617 0.70889 0.69184 0.0
H1230 H 0.04573 0.69548 0.65229 0.0
C1231 C 0.96494 0.68973 0.68679 0.0
C1232 C 0.9527 0.67401 0.66909 0.0
H1233 H 0.01458 0.72308 0.70518 0.0
H1234 H 0.94288 0.68899 0.6965 0.0
C1235 C 0.98225 0.67492 0.65704 0.0
C1236 C 0.07067 0.17812 0.99621 0.0
C1237 C 0.0721 0.21529 0.99217 0.0
H1238 H 0.10283 0.14891 0.00663 0.0
C1239 C 0.10826 0.25229 0.99588 0.0
H1240 H 0.04312 0.14911 0.99366 0.0
C1241 C 0.14223 0.25217 0.00342 0.0
C1242 C 0.14088 0.21505 0.00744 0.0
H1243 H 0.11051 0.28144 0.99276 0.0
H1244 H 0.1695 0.28124 0.00624 0.0
C1245 C 0.10468 0.178 0.00382 0.0
C1246 C 0.86997 0.06778 0.34314 0.0
C1247 C 0.8657 0.0643 0.32405 0.0
H1248 H 0.90589 0.10313 0.36584 0.0
C1249 C 0.89633 0.09501 0.31313 0.0
H1250 H 0.8468 0.04499 0.35201 0.0
C1251 C 0.92981 0.12887 0.32108 0.0
C1252 C 0.93368 0.13273 0.34018 0.0
H1253 H 0.89436 0.09306 0.29838 0.0
H1254 H 0.9521 0.15252 0.31223 0.0
C1255 C 0.90361 0.10148 0.3511 0.0
C1256 C 0.78102 0.88858 0.64724 0.0
C1257 C 0.79095 0.86336 0.65764 0.0
H1258 H 0.7719 0.94031 0.64697 0.0
C1259 C 0.80061 0.87256 0.67623 0.0
H1260 H 0.77425 0.88297 0.63282 0.0
C1261 C 0.79978 0.90579 0.68425 0.0
C1262 C 0.78886 0.93024 0.67392 0.0
H1263 H 0.80775 0.85348 0.68475 0.0
H1264 H 0.80659 0.91167 0.69867 0.0
C1265 C 0.77977 0.9215 0.65531 0.0
C1266 C 0.89731 0.82543 0.0025 0.0
C1267 C 0.8612 0.78834 0.00618 0.0
H1268 H 0.95876 0.85443 0.99219 0.0
C1269 C 0.85982 0.75127 0.00202 0.0
H1270 H 0.89918 0.8545 0.00541 0.0
C1271 C 0.89371 0.75123 0.99435 0.0
C1272 C 0.92982 0.78826 0.99064 0.0
H1273 H 0.83262 0.72216 0.00486 0.0
H1274 H 0.89147 0.72211 0.99116 0.0
C1275 C 0.93124 0.8254 0.99475 0.0
C1276 C 0.09962 0.89603 0.35209 0.0
C1277 C 0.0708 0.86396 0.34109 0.0
H1278 H 0.15547 0.95363 0.35312 0.0
C1279 C 0.07625 0.86679 0.32204 0.0
H1280 H 0.09594 0.89521 0.36677 0.0
C1281 C 0.11027 0.90044 0.31422 0.0
C1282 C 0.13963 0.93184 0.32529 0.0
H1283 H 0.05494 0.8424 0.31319 0.0
H1284 H 0.11427 0.90121 0.29956 0.0
C1285 C 0.13369 0.92952 0.34428 0.0
C1286 C 0.23568 0.08681 0.65642 0.0
C1287 C 0.22171 0.07482 0.67436 0.0
H1288 H 0.24428 0.12742 0.63433 0.0
C1289 C 0.20617 0.09618 0.68408 0.0
H1290 H 0.24732 0.07046 0.64854 0.0
C1291 C 0.205 0.12922 0.67607 0.0
C1292 C 0.21883 0.14129 0.65806 0.0
H1293 H 0.19562 0.08781 0.69801 0.0
H1294 H 0.19389 0.14571 0.68416 0.0
C1295 C 0.23404 0.11952 0.64831 0.0
loop_
_geom_bond_atom_site_label_1
_geom_bond_atom_site_label_2
_geom_bond_distance
_geom_bond_site_symmetry_2
_ccdc_geom_bond_type
Li0 N17 1.990 . S
Li0 O60 1.956 . S
Li0 O61 1.970 . S
Li0 O62 1.961 . S
Li1 N25 1.990 . S
Li1 O60 1.970 . S
Li1 O61 1.956 . S
Li1 O63 1.961 . S
Li2 N47 1.990 . S
Li2 O60 1.961 . S
Li2 O62 1.956 . S
Li2 O63 1.970 . S
Li3 N53 1.990 . S
Li3 O61 1.961 . S
Li3 O62 1.970 . S
Li3 O63 1.956 . S
C4 C6 1.348 . S
C4 C7 1.356 . S
C4 O60 1.325 . S
N5 C8 1.314 . S
N5 C9 1.279 . S
C6 C4 1.348 . S
C6 C8 1.353 . S
C6 H64 0.929 . S
C7 C4 1.356 . S
C7 C9 1.358 . S
C7 H65 0.930 . S
C8 N5 1.314 . S
C8 C6 1.353 . S
C8 H66 0.930 . S
C9 N5 1.279 . S
C9 C7 1.358 . S
C9 H67 0.930 . S
C10 C13 1.348 . S
C10 C14 1.356 . S
C10 O61 1.325 . S
C11 N12 1.279 . S
C11 C14 1.358 . S
C11 H68 0.930 . S
N12 C11 1.279 . S
N12 C15 1.314 . S
C13 C10 1.348 . S
C13 C15 1.353 . S
C13 H69 0.929 . S
C14 C10 1.356 . S
C14 C11 1.358 . S
C14 H70 0.930 . S
C15 N12 1.314 . S
C15 C13 1.353 . S
C15 H71 0.930 . S
C16 N17 1.314 . S
C16 C21 1.353 . S
C16 H22 0.930 . S
N17 Li0 1.990 . S
N17 C16 1.314 . S
N17 C19 1.279 . S
C18 C19 1.358 . S
C18 C20 1.356 . S
C18 H72 0.930 . S
C19 N17 1.279 . S
C19 C18 1.358 . S
C19 H23 0.930 . S
C20 C18 1.356 . S
C20 C21 1.348 . S
C21 C16 1.353 . S
C21 C20 1.348 . S
C21 H73 0.929 . S
H22 C16 0.930 . S
H23 C19 0.930 . S
C24 N25 1.314 . S
C24 C26 1.353 . S
C24 H30 0.930 . S
N25 Li1 1.990 . S
N25 C24 1.314 . S
N25 C28 1.279 . S
C26 C24 1.353 . S
C26 C29 1.348 . S
C26 H74 0.929 . S
C27 C28 1.358 . S
C27 C29 1.356 . S
C27 H75 0.930 . S
C28 N25 1.279 . S
C28 C27 1.358 . S
C28 H31 0.930 . S
C29 C26 1.348 . S
C29 C27 1.356 . S
H30 C24 0.930 . S
H31 C28 0.930 . S
C32 C34 1.348 1_554 S
C32 C35 1.356 1_554 S
C32 O62 1.325 . S
N33 C36 1.314 . S
N33 C37 1.279 . S
C34 C32 1.348 1_556 S
C34 C36 1.353 . S
C34 H76 0.929 . S
C35 C32 1.356 1_556 S
C35 C37 1.358 . S
C35 H77 0.930 . S
C36 N33 1.314 . S
C36 C34 1.353 . S
C36 H78 0.930 . S
C37 N33 1.279 . S
C37 C35 1.358 . S
C37 H79 0.930 . S
C38 C39 1.348 . S
C38 C40 1.356 . S
C38 O63 1.325 . S
C39 C38 1.348 . S
C39 C41 1.353 . S
C39 H80 0.929 . S
C40 C38 1.356 . S
C40 C42 1.358 . S
C40 H81 0.930 . S
C41 C39 1.353 . S
C41 N43 1.314 . S
C41 H82 0.930 . S
C42 C40 1.358 . S
C42 N43 1.279 . S
C42 H83 0.930 . S
N43 C41 1.314 . S
N43 C42 1.279 . S
C44 C46 1.353 . S
C44 N47 1.314 . S
C44 H50 0.930 . S
C45 N47 1.279 1_556 S
C45 C48 1.358 . S
C45 H51 0.930 . S
C46 C44 1.353 . S
C46 C49 1.348 1_554 S
C46 H84 0.929 . S
N47 Li2 1.990 . S
N47 C44 1.314 . S
N47 C45 1.279 1_554 S
C48 C45 1.358 . S
C48 C49 1.356 . S
C48 H85 0.930 . S
C49 C46 1.348 1_556 S
C49 C48 1.356 . S
H50 C44 0.930 . S
H51 C45 0.930 . S
C52 N53 1.314 . S
C52 C54 1.353 . S
C52 H58 0.930 . S
N53 Li3 1.990 . S
N53 C52 1.314 . S
N53 C56 1.279 . S
C54 C52 1.353 . S
C54 C57 1.348 . S
C54 H86 0.929 . S
C55 C56 1.358 . S
C55 C57 1.356 . S
C55 H87 0.930 . S
C56 N53 1.279 . S
C56 C55 1.358 . S
C56 H59 0.930 . S
C57 C54 1.348 . S
C57 C55 1.356 . S
H58 C52 0.930 . S
H59 C56 0.930 . S
O60 Li0 1.956 . S
O60 Li1 1.970 . S
O60 Li2 1.961 . S
O60 C4 1.325 . S
O61 Li0 1.970 . S
O61 Li1 1.956 . S
O61 Li3 1.961 . S
O61 C10 1.325 . S
O62 Li0 1.961 . S
O62 Li2 1.956 . S
O62 Li3 1.970 . S
O62 C32 1.325 . S
O63 Li1 1.961 . S
O63 Li2 1.970 . S
O63 Li3 1.956 . S
O63 C38 1.325 . S
H64 C6 0.929 . S
H65 C7 0.930 . S
H66 C8 0.930 . S
H67 C9 0.930 . S
H68 C11 0.930 . S
H69 C13 0.929 . S
H70 C14 0.930 . S
H71 C15 0.930 . S
H72 C18 0.930 . S
H73 C21 0.929 . S
H74 C26 0.929 . S
H75 C27 0.930 . S
H76 C34 0.929 . S
H77 C35 0.930 . S
H78 C36 0.930 . S
H79 C37 0.930 . S
H80 C39 0.929 . S
H81 C40 0.930 . S
H82 C41 0.930 . S
H83 C42 0.930 . S
H84 C46 0.929 . S
H85 C48 0.930 . S
H86 C54 0.929 . S
H87 C55 0.930 . S
Li88 N105 1.990 . S
Li88 O148 1.956 . S
Li88 O149 1.970 . S
Li88 O150 1.961 . S
Li89 N113 1.990 . S
Li89 O148 1.970 . S
Li89 O149 1.956 . S
Li89 O151 1.961 . S
Li90 N135 1.990 . S
Li90 O148 1.961 . S
Li90 O150 1.956 . S
Li90 O151 1.970 . S
Li91 N141 1.990 . S
Li91 O149 1.961 . S
Li91 O150 1.970 . S
Li91 O151 1.956 . S
C92 C94 1.348 . S
C92 C95 1.356 . S
C92 O148 1.325 . S
N93 C96 1.314 . S
N93 C97 1.279 . S
C94 C92 1.348 . S
C94 C96 1.353 . S
C94 H152 0.929 . S
C95 C92 1.356 . S
C95 C97 1.358 . S
C95 H153 0.930 . S
C96 N93 1.314 . S
C96 C94 1.353 . S
C96 H154 0.930 . S
C97 N93 1.279 . S
C97 C95 1.358 . S
C97 H155 0.930 . S
C98 C101 1.348 . S
C98 C102 1.356 . S
C98 O149 1.325 . S
C99 N100 1.279 . S
C99 C102 1.358 1_655 S
C99 H156 0.930 . S
N100 C99 1.279 . S
N100 C103 1.314 1_655 S
C101 C98 1.348 . S
C101 C103 1.353 . S
C101 H157 0.929 . S
C102 C98 1.356 . S
C102 C99 1.358 1_455 S
C102 H158 0.930 . S
C103 N100 1.314 1_455 S
C103 C101 1.353 . S
C103 H159 0.930 . S
C104 N105 1.314 . S
C104 C109 1.353 . S
C104 H110 0.930 . S
N105 Li88 1.990 . S
N105 C104 1.314 . S
N105 C107 1.279 . S
C106 C107 1.358 . S
C106 C108 1.356 . S
C106 H160 0.930 . S
C107 N105 1.279 . S
C107 C106 1.358 . S
C107 H111 0.930 . S
C108 C106 1.356 . S
C108 C109 1.348 . S
C109 C104 1.353 . S
C109 C108 1.348 . S
C109 H161 0.929 . S
H110 C104 0.930 . S
H111 C107 0.930 . S
C112 N113 1.314 . S
C112 C114 1.353 . S
C112 H118 0.930 . S
N113 Li89 1.990 . S
N113 C112 1.314 . S
N113 C116 1.279 . S
C114 C112 1.353 . S
C114 C117 1.348 . S
C114 H162 0.929 . S
C115 C116 1.358 . S
C115 C117 1.356 . S
C115 H163 0.930 . S
C116 N113 1.279 . S
C116 C115 1.358 . S
C116 H119 0.930 . S
C117 C114 1.348 . S
C117 C115 1.356 . S
H118 C112 0.930 . S
H119 C116 0.930 . S
C120 C122 1.348 . S
C120 C123 1.356 . S
C120 O150 1.325 . S
N121 C124 1.314 . S
N121 C125 1.279 . S
C122 C120 1.348 . S
C122 C124 1.353 . S
C122 H164 0.929 . S
C123 C120 1.356 . S
C123 C125 1.358 . S
C123 H165 0.930 . S
C124 N121 1.314 . S
C124 C122 1.353 . S
C124 H166 0.930 . S
C125 N121 1.279 . S
C125 C123 1.358 . S
C125 H167 0.930 . S
C126 C127 1.348 . S
C126 C128 1.356 . S
C126 O151 1.325 . S
C127 C126 1.348 . S
C127 C129 1.353 . S
C127 H168 0.929 . S
C128 C126 1.356 . S
C128 C130 1.358 . S
C128 H169 0.930 . S
C129 C127 1.353 . S
C129 N131 1.314 . S
C129 H170 0.930 . S
C130 C128 1.358 . S
C130 N131 1.279 . S
C130 H171 0.930 . S
N131 C129 1.314 . S
N131 C130 1.279 . S
C132 C134 1.353 . S
C132 N135 1.314 . S
C132 H138 0.930 . S
C133 N135 1.279 . S
C133 C136 1.358 . S
C133 H139 0.930 . S
C134 C132 1.353 . S
C134 C137 1.348 . S
C134 H172 0.929 . S
N135 Li90 1.990 . S
N135 C132 1.314 . S
N135 C133 1.279 . S
C136 C133 1.358 . S
C136 C137 1.356 . S
C136 H173 0.930 . S
C137 C134 1.348 . S
C137 C136 1.356 . S
H138 C132 0.930 . S
H139 C133 0.930 . S
C140 N141 1.314 1_655 S
C140 C142 1.353 . S
C140 H146 0.930 . S
N141 Li91 1.990 . S
N141 C140 1.314 1_455 S
N141 C144 1.279 . S
C142 C140 1.353 . S
C142 C145 1.348 . S
C142 H174 0.929 . S
C143 C144 1.358 1_655 S
C143 C145 1.356 . S
C143 H175 0.930 . S
C144 N141 1.279 . S
C144 C143 1.358 1_455 S
C144 H147 0.930 . S
C145 C142 1.348 . S
C145 C143 1.356 . S
H146 C140 0.930 . S
H147 C144 0.930 . S
O148 Li88 1.956 . S
O148 Li89 1.970 . S
O148 Li90 1.961 . S
O148 C92 1.325 . S
O149 Li88 1.970 . S
O149 Li89 1.956 . S
O149 Li91 1.961 . S
O149 C98 1.325 . S
O150 Li88 1.961 . S
O150 Li90 1.956 . S
O150 Li91 1.970 . S
O150 C120 1.325 . S
O151 Li89 1.961 . S
O151 Li90 1.970 . S
O151 Li91 1.956 . S
O151 C126 1.325 . S
H152 C94 0.929 . S
H153 C95 0.930 . S
H154 C96 0.930 . S
H155 C97 0.930 . S
H156 C99 0.930 . S
H157 C101 0.929 . S
H158 C102 0.930 . S
H159 C103 0.930 . S
H160 C106 0.930 . S
H161 C109 0.929 . S
H162 C114 0.929 . S
H163 C115 0.930 . S
H164 C122 0.929 . S
H165 C123 0.930 . S
H166 C124 0.930 . S
H167 C125 0.930 . S
H168 C127 0.929 . S
H169 C128 0.930 . S
H170 C129 0.930 . S
H171 C130 0.930 . S
H172 C134 0.929 . S
H173 C136 0.930 . S
H174 C142 0.929 . S
H175 C143 0.930 . S
Li176 N193 1.990 . S
Li176 O236 1.956 . S
Li176 O237 1.970 . S
Li176 O238 1.961 . S
Li177 N201 1.990 . S
Li177 O236 1.970 . S
Li177 O237 1.956 . S
Li177 O239 1.961 . S
Li178 N223 1.990 . S
Li178 O236 1.961 . S
Li178 O238 1.956 . S
Li178 O239 1.970 . S
Li179 N229 1.990 . S
Li179 O237 1.961 . S
Li179 O238 1.970 . S
Li179 O239 1.956 . S
C180 C182 1.348 . S
C180 C183 1.356 . S
C180 O236 1.325 . S
N181 C184 1.314 1_565 S
N181 C185 1.279 . S
C182 C180 1.348 . S
C182 C184 1.353 . S
C182 H240 0.929 . S
C183 C180 1.356 . S
C183 C185 1.358 1_545 S
C183 H241 0.930 . S
C184 N181 1.314 1_545 S
C184 C182 1.353 . S
C184 H242 0.930 . S
C185 N181 1.279 . S
C185 C183 1.358 1_565 S
C185 H243 0.930 . S
C186 C189 1.348 . S
C186 C190 1.356 . S
C186 O237 1.325 . S
C187 N188 1.279 . S
C187 C190 1.358 . S
C187 H244 0.930 . S
N188 C187 1.279 . S
N188 C191 1.314 . S
C189 C186 1.348 . S
C189 C191 1.353 . S
C189 H245 0.929 . S
C190 C186 1.356 . S
C190 C187 1.358 . S
C190 H246 0.930 . S
C191 N188 1.314 . S
C191 C189 1.353 . S
C191 H247 0.930 . S
C192 N193 1.314 . S
C192 C197 1.353 . S
C192 H198 0.930 . S
N193 Li176 1.990 . S
N193 C192 1.314 . S
N193 C195 1.279 . S
C194 C195 1.358 . S
C194 C196 1.356 . S
C194 H248 0.930 . S
C195 N193 1.279 . S
C195 C194 1.358 . S
C195 H199 0.930 . S
C196 C194 1.356 . S
C196 C197 1.348 . S
C197 C192 1.353 . S
C197 C196 1.348 . S
C197 H249 0.929 . S
H198 C192 0.930 . S
H199 C195 0.930 . S
C200 N201 1.314 . S
C200 C202 1.353 . S
C200 H206 0.930 . S
N201 Li177 1.990 . S
N201 C200 1.314 . S
N201 C204 1.279 . S
C202 C200 1.353 . S
C202 C205 1.348 . S
C202 H250 0.929 . S
C203 C204 1.358 . S
C203 C205 1.356 . S
C203 H251 0.930 . S
C204 N201 1.279 . S
C204 C203 1.358 . S
C204 H207 0.930 . S
C205 C202 1.348 . S
C205 C203 1.356 . S
H206 C200 0.930 . S
H207 C204 0.930 . S
C208 C210 1.348 . S
C208 C211 1.356 . S
C208 O238 1.325 . S
N209 C212 1.314 . S
N209 C213 1.279 . S
C210 C208 1.348 . S
C210 C212 1.353 . S
C210 H252 0.929 . S
C211 C208 1.356 . S
C211 C213 1.358 . S
C211 H253 0.930 . S
C212 N209 1.314 . S
C212 C210 1.353 . S
C212 H254 0.930 . S
C213 N209 1.279 . S
C213 C211 1.358 . S
C213 H255 0.930 . S
C214 C215 1.348 . S
C214 C216 1.356 . S
C214 O239 1.325 . S
C215 C214 1.348 . S
C215 C217 1.353 . S
C215 H256 0.929 . S
C216 C214 1.356 . S
C216 C218 1.358 . S
C216 H257 0.930 . S
C217 C215 1.353 . S
C217 N219 1.314 . S
C217 H258 0.930 . S
C218 C216 1.358 . S
C218 N219 1.279 . S
C218 H259 0.930 . S
N219 C217 1.314 . S
N219 C218 1.279 . S
C220 C222 1.353 . S
C220 N223 1.314 1_565 S
C220 H226 0.930 . S
C221 N223 1.279 . S
C221 C224 1.358 1_545 S
C221 H227 0.930 . S
C222 C220 1.353 . S
C222 C225 1.348 . S
C222 H260 0.929 . S
N223 Li178 1.990 . S
N223 C220 1.314 1_545 S
N223 C221 1.279 . S
C224 C221 1.358 1_565 S
C224 C225 1.356 . S
C224 H261 0.930 . S
C225 C222 1.348 . S
C225 C224 1.356 . S
H226 C220 0.930 . S
H227 C221 0.930 . S
C228 N229 1.314 . S
C228 C230 1.353 . S
C228 H234 0.930 . S
N229 Li179 1.990 . S
N229 C228 1.314 . S
N229 C232 1.279 . S
C230 C228 1.353 . S
C230 C233 1.348 . S
C230 H262 0.929 . S
C231 C232 1.358 . S
C231 C233 1.356 . S
C231 H263 0.930 . S
C232 N229 1.279 . S
C232 C231 1.358 . S
C232 H235 0.930 . S
C233 C230 1.348 . S
C233 C231 1.356 . S
H234 C228 0.930 . S
H235 C232 0.930 . S
O236 Li176 1.956 . S
O236 Li177 1.970 . S
O236 Li178 1.961 . S
O236 C180 1.325 . S
O237 Li176 1.970 . S
O237 Li177 1.956 . S
O237 Li179 1.961 . S
O237 C186 1.325 . S
O238 Li176 1.961 . S
O238 Li178 1.956 . S
O238 Li179 1.970 . S
O238 C208 1.325 . S
O239 Li177 1.961 . S
O239 Li178 1.970 . S
O239 Li179 1.956 . S
O239 C214 1.325 . S
H240 C182 0.929 . S
H241 C183 0.930 . S
H242 C184 0.930 . S
H243 C185 0.930 . S
H244 C187 0.930 . S
H245 C189 0.929 . S
H246 C190 0.930 . S
H247 C191 0.930 . S
H248 C194 0.930 . S
H249 C197 0.929 . S
H250 C202 0.929 . S
H251 C203 0.930 . S
H252 C210 0.929 . S
H253 C211 0.930 . S
H254 C212 0.930 . S
H255 C213 0.930 . S
H256 C215 0.929 . S
H257 C216 0.930 . S
H258 C217 0.930 . S
H259 C218 0.930 . S
H260 C222 0.929 . S
H261 C224 0.930 . S
H262 C230 0.929 . S
H263 C231 0.930 . S
Li264 N281 1.990 . S
Li264 O324 1.956 . S
Li264 O325 1.970 . S
Li264 O326 1.961 . S
Li265 N289 1.990 . S
Li265 O324 1.970 . S
Li265 O325 1.956 . S
Li265 O327 1.961 . S
Li266 N311 1.990 . S
Li266 O324 1.961 . S
Li266 O326 1.956 . S
Li266 O327 1.970 . S
Li267 N317 1.990 . S
Li267 O325 1.961 . S
Li267 O326 1.970 . S
Li267 O327 1.956 . S
C268 C270 1.348 . S
C268 C271 1.356 . S
C268 O324 1.325 . S
N269 C272 1.314 . S
N269 C273 1.279 . S
C270 C268 1.348 . S
C270 C272 1.353 . S
C270 H328 0.929 . S
C271 C268 1.356 . S
C271 C273 1.358 . S
C271 H329 0.930 . S
C272 N269 1.314 . S
C272 C270 1.353 . S
C272 H330 0.930 . S
C273 N269 1.279 . S
C273 C271 1.358 . S
C273 H331 0.930 . S
C274 C277 1.348 . S
C274 C278 1.356 . S
C274 O325 1.325 . S
C275 N276 1.279 . S
C275 C278 1.358 . S
C275 H332 0.930 . S
N276 C275 1.279 . S
N276 C279 1.314 . S
C277 C274 1.348 . S
C277 C279 1.353 . S
C277 H333 0.929 . S
C278 C274 1.356 . S
C278 C275 1.358 . S
C278 H334 0.930 . S
C279 N276 1.314 . S
C279 C277 1.353 . S
C279 H335 0.930 . S
C280 N281 1.314 . S
C280 C285 1.353 . S
C280 H286 0.930 . S
N281 Li264 1.990 . S
N281 C280 1.314 . S
N281 C283 1.279 . S
C282 C283 1.358 . S
C282 C284 1.356 . S
C282 H336 0.930 . S
C283 N281 1.279 . S
C283 C282 1.358 . S
C283 H287 0.930 . S
C284 C282 1.356 . S
C284 C285 1.348 . S
C285 C280 1.353 . S
C285 C284 1.348 . S
C285 H337 0.929 . S
H286 C280 0.930 . S
H287 C283 0.930 . S
C288 N289 1.314 . S
C288 C290 1.353 . S
C288 H294 0.930 . S
N289 Li265 1.990 . S
N289 C288 1.314 . S
N289 C292 1.279 . S
C290 C288 1.353 . S
C290 C293 1.348 . S
C290 H338 0.929 . S
C291 C292 1.358 . S
C291 C293 1.356 . S
C291 H339 0.930 . S
C292 N289 1.279 . S
C292 C291 1.358 . S
C292 H295 0.930 . S
C293 C290 1.348 . S
C293 C291 1.356 . S
H294 C288 0.930 . S
H295 C292 0.930 . S
C296 C298 1.348 . S
C296 C299 1.356 . S
C296 O326 1.325 . S
N297 C300 1.314 . S
N297 C301 1.279 . S
C298 C296 1.348 . S
C298 C300 1.353 . S
C298 H340 0.929 . S
C299 C296 1.356 . S
C299 C301 1.358 . S
C299 H341 0.930 . S
C300 N297 1.314 . S
C300 C298 1.353 . S
C300 H342 0.930 . S
C301 N297 1.279 . S
C301 C299 1.358 . S
C301 H343 0.930 . S
C302 C303 1.348 1_554 S
C302 C304 1.356 1_554 S
C302 O327 1.325 . S
C303 C302 1.348 1_556 S
C303 C305 1.353 . S
C303 H344 0.929 . S
C304 C302 1.356 1_556 S
C304 C306 1.358 . S
C304 H345 0.930 . S
C305 C303 1.353 . S
C305 N307 1.314 . S
C305 H346 0.930 . S
C306 C304 1.358 . S
C306 N307 1.279 . S
C306 H347 0.930 . S
N307 C305 1.314 . S
N307 C306 1.279 . S
C308 C310 1.353 . S
C308 N311 1.314 . S
C308 H314 0.930 . S
C309 N311 1.279 . S
C309 C312 1.358 . S
C309 H315 0.930 . S
C310 C308 1.353 . S
C310 C313 1.348 . S
C310 H348 0.929 . S
N311 Li266 1.990 . S
N311 C308 1.314 . S
N311 C309 1.279 . S
C312 C309 1.358 . S
C312 C313 1.356 . S
C312 H349 0.930 . S
C313 C310 1.348 . S
C313 C312 1.356 . S
H314 C308 0.930 . S
H315 C309 0.930 . S
C316 N317 1.314 . S
C316 C318 1.353 . S
C316 H322 0.930 . S
N317 Li267 1.990 . S
N317 C316 1.314 . S
N317 C320 1.279 1_554 S
C318 C316 1.353 . S
C318 C321 1.348 1_554 S
C318 H350 0.929 . S
C319 C320 1.358 . S
C319 C321 1.356 . S
C319 H351 0.930 . S
C320 N317 1.279 1_556 S
C320 C319 1.358 . S
C320 H323 0.930 . S
C321 C318 1.348 1_556 S
C321 C319 1.356 . S
H322 C316 0.930 . S
H323 C320 0.930 . S
O324 Li264 1.956 . S
O324 Li265 1.970 . S
O324 Li266 1.961 . S
O324 C268 1.325 . S
O325 Li264 1.970 . S
O325 Li265 1.956 . S
O325 Li267 1.961 . S
O325 C274 1.325 . S
O326 Li264 1.961 . S
O326 Li266 1.956 . S
O326 Li267 1.970 . S
O326 C296 1.325 . S
O327 Li265 1.961 . S
O327 Li266 1.970 . S
O327 Li267 1.956 . S
O327 C302 1.325 . S
H328 C270 0.929 . S
H329 C271 0.930 . S
H330 C272 0.930 . S
H331 C273 0.930 . S
H332 C275 0.930 . S
H333 C277 0.929 . S
H334 C278 0.930 . S
H335 C279 0.930 . S
H336 C282 0.930 . S
H337 C285 0.929 . S
H338 C290 0.929 . S
H339 C291 0.930 . S
H340 C298 0.929 . S
H341 C299 0.930 . S
H342 C300 0.930 . S
H343 C301 0.930 . S
H344 C303 0.929 . S
H345 C304 0.930 . S
H346 C305 0.930 . S
H347 C306 0.930 . S
H348 C310 0.929 . S
H349 C312 0.930 . S
H350 C318 0.929 . S
H351 C319 0.930 . S
Li352 N369 1.990 . S
Li352 O412 1.956 . S
Li352 O413 1.970 . S
Li352 O414 1.961 . S
Li353 N377 1.990 . S
Li353 O412 1.970 . S
Li353 O413 1.956 . S
Li353 O415 1.961 . S
Li354 N399 1.990 . S
Li354 O412 1.961 . S
Li354 O414 1.956 . S
Li354 O415 1.970 . S
Li355 N405 1.990 . S
Li355 O413 1.961 . S
Li355 O414 1.970 . S
Li355 O415 1.956 . S
C356 C358 1.348 . S
C356 C359 1.356 . S
C356 O412 1.325 . S
N357 C360 1.314 . S
N357 C361 1.279 . S
C358 C356 1.348 . S
C358 C360 1.353 . S
C358 H416 0.929 . S
C359 C356 1.356 . S
C359 C361 1.358 . S
C359 H417 0.930 . S
C360 N357 1.314 . S
C360 C358 1.353 . S
C360 H418 0.930 . S
C361 N357 1.279 . S
C361 C359 1.358 . S
C361 H419 0.930 . S
C362 C365 1.348 . S
C362 C366 1.356 . S
C362 O413 1.325 . S
C363 N364 1.279 . S
C363 C366 1.358 1_455 S
C363 H420 0.930 . S
N364 C363 1.279 . S
N364 C367 1.314 1_455 S
C365 C362 1.348 . S
C365 C367 1.353 . S
C365 H421 0.929 . S
C366 C362 1.356 . S
C366 C363 1.358 1_655 S
C366 H422 0.930 . S
C367 N364 1.314 1_655 S
C367 C365 1.353 . S
C367 H423 0.930 . S
C368 N369 1.314 . S
C368 C373 1.353 . S
C368 H374 0.930 . S
N369 Li352 1.990 . S
N369 C368 1.314 . S
N369 C371 1.279 . S
C370 C371 1.358 . S
C370 C372 1.356 . S
C370 H424 0.930 . S
C371 N369 1.279 . S
C371 C370 1.358 . S
C371 H375 0.930 . S
C372 C370 1.356 . S
C372 C373 1.348 . S
C373 C368 1.353 . S
C373 C372 1.348 . S
C373 H425 0.929 . S
H374 C368 0.930 . S
H375 C371 0.930 . S
C376 N377 1.314 . S
C376 C378 1.353 . S
C376 H382 0.930 . S
N377 Li353 1.990 . S
N377 C376 1.314 . S
N377 C380 1.279 . S
C378 C376 1.353 . S
C378 C381 1.348 . S
C378 H426 0.929 . S
C379 C380 1.358 . S
C379 C381 1.356 . S
C379 H427 0.930 . S
C380 N377 1.279 . S
C380 C379 1.358 . S
C380 H383 0.930 . S
C381 C378 1.348 . S
C381 C379 1.356 . S
H382 C376 0.930 . S
H383 C380 0.930 . S
C384 C386 1.348 . S
C384 C387 1.356 . S
C384 O414 1.325 . S
N385 C388 1.314 . S
N385 C389 1.279 . S
C386 C384 1.348 . S
C386 C388 1.353 . S
C386 H428 0.929 . S
C387 C384 1.356 . S
C387 C389 1.358 . S
C387 H429 0.930 . S
C388 N385 1.314 . S
C388 C386 1.353 . S
C388 H430 0.930 . S
C389 N385 1.279 . S
C389 C387 1.358 . S
C389 H431 0.930 . S
C390 C391 1.348 . S
C390 C392 1.356 . S
C390 O415 1.325 . S
C391 C390 1.348 . S
C391 C393 1.353 . S
C391 H432 0.929 . S
C392 C390 1.356 . S
C392 C394 1.358 . S
C392 H433 0.930 . S
C393 C391 1.353 . S
C393 N395 1.314 . S
C393 H434 0.930 . S
C394 C392 1.358 . S
C394 N395 1.279 . S
C394 H435 0.930 . S
N395 C393 1.314 . S
N395 C394 1.279 . S
C396 C398 1.353 . S
C396 N399 1.314 . S
C396 H402 0.930 . S
C397 N399 1.279 . S
C397 C400 1.358 . S
C397 H403 0.930 . S
C398 C396 1.353 . S
C398 C401 1.348 . S
C398 H436 0.929 . S
N399 Li354 1.990 . S
N399 C396 1.314 . S
N399 C397 1.279 . S
C400 C397 1.358 . S
C400 C401 1.356 . S
C400 H437 0.930 . S
C401 C398 1.348 . S
C401 C400 1.356 . S
H402 C396 0.930 . S
H403 C397 0.930 . S
C404 N405 1.314 1_455 S
C404 C406 1.353 . S
C404 H410 0.930 . S
N405 Li355 1.990 . S
N405 C404 1.314 1_655 S
N405 C408 1.279 . S
C406 C404 1.353 . S
C406 C409 1.348 . S
C406 H438 0.929 . S
C407 C408 1.358 1_455 S
C407 C409 1.356 . S
C407 H439 0.930 . S
C408 N405 1.279 . S
C408 C407 1.358 1_655 S
C408 H411 0.930 . S
C409 C406 1.348 . S
C409 C407 1.356 . S
H410 C404 0.930 . S
H411 C408 0.930 . S
O412 Li352 1.956 . S
O412 Li353 1.970 . S
O412 Li354 1.961 . S
O412 C356 1.325 . S
O413 Li352 1.970 . S
O413 Li353 1.956 . S
O413 Li355 1.961 . S
O413 C362 1.325 . S
O414 Li352 1.961 . S
O414 Li354 1.956 . S
O414 Li355 1.970 . S
O414 C384 1.325 . S
O415 Li353 1.961 . S
O415 Li354 1.970 . S
O415 Li355 1.956 . S
O415 C390 1.325 . S
H416 C358 0.929 . S
H417 C359 0.930 . S
H418 C360 0.930 . S
H419 C361 0.930 . S
H420 C363 0.930 . S
H421 C365 0.929 . S
H422 C366 0.930 . S
H423 C367 0.930 . S
H424 C370 0.930 . S
H425 C373 0.929 . S
H426 C378 0.929 . S
H427 C379 0.930 . S
H428 C386 0.929 . S
H429 C387 0.930 . S
H430 C388 0.930 . S
H431 C389 0.930 . S
H432 C391 0.929 . S
H433 C392 0.930 . S
H434 C393 0.930 . S
H435 C394 0.930 . S
H436 C398 0.929 . S
H437 C400 0.930 . S
H438 C406 0.929 . S
H439 C407 0.930 . S
Li440 N457 1.990 . S
Li440 O500 1.956 . S
Li440 O501 1.970 . S
Li440 O502 1.961 . S
Li441 N465 1.990 . S
Li441 O500 1.970 . S
Li441 O501 1.956 . S
Li441 O503 1.961 . S
Li442 N487 1.990 . S
Li442 O500 1.961 . S
Li442 O502 1.956 . S
Li442 O503 1.970 . S
Li443 N493 1.990 . S
Li443 O501 1.961 . S
Li443 O502 1.970 . S
Li443 O503 1.956 . S
C444 C446 1.348 . S
C444 C447 1.356 . S
C444 O500 1.325 . S
N445 C448 1.314 . S
N445 C449 1.279 . S
C446 C444 1.348 . S
C446 C448 1.353 . S
C446 H504 0.929 . S
C447 C444 1.356 . S
C447 C449 1.358 . S
C447 H505 0.930 . S
C448 N445 1.314 . S
C448 C446 1.353 . S
C448 H506 0.930 . S
C449 N445 1.279 . S
C449 C447 1.358 . S
C449 H507 0.930 . S
C450 C453 1.348 . S
C450 C454 1.356 . S
C450 O501 1.325 . S
C451 N452 1.279 . S
C451 C454 1.358 1_545 S
C451 H508 0.930 . S
N452 C451 1.279 . S
N452 C455 1.314 1_545 S
C453 C450 1.348 . S
C453 C455 1.353 . S
C453 H509 0.929 . S
C454 C450 1.356 . S
C454 C451 1.358 1_565 S
C454 H510 0.930 . S
C455 N452 1.314 1_565 S
C455 C453 1.353 . S
C455 H511 0.930 . S
C456 N457 1.314 . S
C456 C461 1.353 . S
C456 H462 0.930 . S
N457 Li440 1.990 . S
N457 C456 1.314 . S
N457 C459 1.279 . S
C458 C459 1.358 . S
C458 C460 1.356 . S
C458 H512 0.930 . S
C459 N457 1.279 . S
C459 C458 1.358 . S
C459 H463 0.930 . S
C460 C458 1.356 . S
C460 C461 1.348 . S
C461 C456 1.353 . S
C461 C460 1.348 . S
C461 H513 0.929 . S
H462 C456 0.930 . S
H463 C459 0.930 . S
C464 N465 1.314 . S
C464 C466 1.353 . S
C464 H470 0.930 . S
N465 Li441 1.990 . S
N465 C464 1.314 . S
N465 C468 1.279 . S
C466 C464 1.353 . S
C466 C469 1.348 . S
C466 H514 0.929 . S
C467 C468 1.358 . S
C467 C469 1.356 . S
C467 H515 0.930 . S
C468 N465 1.279 . S
C468 C467 1.358 . S
C468 H471 0.930 . S
C469 C466 1.348 . S
C469 C467 1.356 . S
H470 C464 0.930 . S
H471 C468 0.930 . S
C472 C474 1.348 . S
C472 C475 1.356 . S
C472 O502 1.325 . S
N473 C476 1.314 . S
N473 C477 1.279 . S
C474 C472 1.348 . S
C474 C476 1.353 . S
C474 H516 0.929 . S
C475 C472 1.356 . S
C475 C477 1.358 . S
C475 H517 0.930 . S
C476 N473 1.314 . S
C476 C474 1.353 . S
C476 H518 0.930 . S
C477 N473 1.279 . S
C477 C475 1.358 . S
C477 H519 0.930 . S
C478 C479 1.348 . S
C478 C480 1.356 . S
C478 O503 1.325 . S
C479 C478 1.348 . S
C479 C481 1.353 . S
C479 H520 0.929 . S
C480 C478 1.356 . S
C480 C482 1.358 . S
C480 H521 0.930 . S
C481 C479 1.353 . S
C481 N483 1.314 . S
C481 H522 0.930 . S
C482 C480 1.358 . S
C482 N483 1.279 . S
C482 H523 0.930 . S
N483 C481 1.314 . S
N483 C482 1.279 . S
C484 C486 1.353 . S
C484 N487 1.314 . S
C484 H490 0.930 . S
C485 N487 1.279 . S
C485 C488 1.358 . S
C485 H491 0.930 . S
C486 C484 1.353 . S
C486 C489 1.348 . S
C486 H524 0.929 . S
N487 Li442 1.990 . S
N487 C484 1.314 . S
N487 C485 1.279 . S
C488 C485 1.358 . S
C488 C489 1.356 . S
C488 H525 0.930 . S
C489 C486 1.348 . S
C489 C488 1.356 . S
H490 C484 0.930 . S
H491 C485 0.930 . S
C492 N493 1.314 1_545 S
C492 C494 1.353 . S
C492 H498 0.930 . S
N493 Li443 1.990 . S
N493 C492 1.314 1_565 S
N493 C496 1.279 . S
C494 C492 1.353 . S
C494 C497 1.348 . S
C494 H526 0.929 . S
C495 C496 1.358 1_545 S
C495 C497 1.356 . S
C495 H527 0.930 . S
C496 N493 1.279 . S
C496 C495 1.358 1_565 S
C496 H499 0.930 . S
C497 C494 1.348 . S
C497 C495 1.356 . S
H498 C492 0.930 . S
H499 C496 0.930 . S
O500 Li440 1.956 . S
O500 Li441 1.970 . S
O500 Li442 1.961 . S
O500 C444 1.325 . S
O501 Li440 1.970 . S
O501 Li441 1.956 . S
O501 Li443 1.961 . S
O501 C450 1.325 . S
O502 Li440 1.961 . S
O502 Li442 1.956 . S
O502 Li443 1.970 . S
O502 C472 1.325 . S
O503 Li441 1.961 . S
O503 Li442 1.970 . S
O503 Li443 1.956 . S
O503 C478 1.325 . S
H504 C446 0.929 . S
H505 C447 0.930 . S
H506 C448 0.930 . S
H507 C449 0.930 . S
H508 C451 0.930 . S
H509 C453 0.929 . S
H510 C454 0.930 . S
H511 C455 0.930 . S
H512 C458 0.930 . S
H513 C461 0.929 . S
H514 C466 0.929 . S
H515 C467 0.930 . S
H516 C474 0.929 . S
H517 C475 0.930 . S
H518 C476 0.930 . S
H519 C477 0.930 . S
H520 C479 0.929 . S
H521 C480 0.930 . S
H522 C481 0.930 . S
H523 C482 0.930 . S
H524 C486 0.929 . S
H525 C488 0.930 . S
H526 C494 0.929 . S
H527 C495 0.930 . S
Li528 N545 1.990 . S
Li528 O588 1.956 . S
Li528 O589 1.970 . S
Li528 O590 1.961 . S
Li529 N553 1.990 . S
Li529 O588 1.970 . S
Li529 O589 1.956 . S
Li529 O591 1.961 . S
Li530 N575 1.990 . S
Li530 O588 1.961 . S
Li530 O590 1.956 . S
Li530 O591 1.970 . S
Li531 N581 1.990 . S
Li531 O589 1.961 . S
Li531 O590 1.970 . S
Li531 O591 1.956 . S
C532 C534 1.348 . S
C532 C535 1.356 . S
C532 O588 1.325 . S
N533 C536 1.314 . S
N533 C537 1.279 . S
C534 C532 1.348 . S
C534 C536 1.353 . S
C534 H592 0.929 . S
C535 C532 1.356 . S
C535 C537 1.358 . S
C535 H593 0.930 . S
C536 N533 1.314 . S
C536 C534 1.353 . S
C536 H594 0.930 . S
C537 N533 1.279 . S
C537 C535 1.358 . S
C537 H595 0.930 . S
C538 C541 1.348 . S
C538 C542 1.356 . S
C538 O589 1.325 . S
C539 N540 1.279 . S
C539 C542 1.358 . S
C539 H596 0.930 . S
N540 C539 1.279 . S
N540 C543 1.314 . S
C541 C538 1.348 . S
C541 C543 1.353 . S
C541 H597 0.929 . S
C542 C538 1.356 . S
C542 C539 1.358 . S
C542 H598 0.930 . S
C543 N540 1.314 . S
C543 C541 1.353 . S
C543 H599 0.930 . S
C544 N545 1.314 . S
C544 C549 1.353 . S
C544 H550 0.930 . S
N545 Li528 1.990 . S
N545 C544 1.314 . S
N545 C547 1.279 . S
C546 C547 1.358 . S
C546 C548 1.356 . S
C546 H600 0.930 . S
C547 N545 1.279 . S
C547 C546 1.358 . S
C547 H551 0.930 . S
C548 C546 1.356 . S
C548 C549 1.348 . S
C549 C544 1.353 . S
C549 C548 1.348 . S
C549 H601 0.929 . S
H550 C544 0.930 . S
H551 C547 0.930 . S
C552 N553 1.314 . S
C552 C554 1.353 . S
C552 H558 0.930 . S
N553 Li529 1.990 . S
N553 C552 1.314 . S
N553 C556 1.279 . S
C554 C552 1.353 . S
C554 C557 1.348 . S
C554 H602 0.929 . S
C555 C556 1.358 . S
C555 C557 1.356 . S
C555 H603 0.930 . S
C556 N553 1.279 . S
C556 C555 1.358 . S
C556 H559 0.930 . S
C557 C554 1.348 . S
C557 C555 1.356 . S
H558 C552 0.930 . S
H559 C556 0.930 . S
C560 C562 1.348 . S
C560 C563 1.356 . S
C560 O590 1.325 . S
N561 C564 1.314 . S
N561 C565 1.279 . S
C562 C560 1.348 . S
C562 C564 1.353 . S
C562 H604 0.929 . S
C563 C560 1.356 . S
C563 C565 1.358 . S
C563 H605 0.930 . S
C564 N561 1.314 . S
C564 C562 1.353 . S
C564 H606 0.930 . S
C565 N561 1.279 . S
C565 C563 1.358 . S
C565 H607 0.930 . S
C566 C567 1.348 . S
C566 C568 1.356 . S
C566 O591 1.325 . S
C567 C566 1.348 . S
C567 C569 1.353 . S
C567 H608 0.929 . S
C568 C566 1.356 . S
C568 C570 1.358 . S
C568 H609 0.930 . S
C569 C567 1.353 . S
C569 N571 1.314 . S
C569 H610 0.930 . S
C570 C568 1.358 . S
C570 N571 1.279 . S
C570 H611 0.930 . S
N571 C569 1.314 . S
N571 C570 1.279 . S
C572 C574 1.353 . S
C572 N575 1.314 . S
C572 H578 0.930 . S
C573 N575 1.279 . S
C573 C576 1.358 . S
C573 H579 0.930 . S
C574 C572 1.353 . S
C574 C577 1.348 . S
C574 H612 0.929 . S
N575 Li530 1.990 . S
N575 C572 1.314 . S
N575 C573 1.279 . S
C576 C573 1.358 . S
C576 C577 1.356 . S
C576 H613 0.930 . S
C577 C574 1.348 . S
C577 C576 1.356 . S
H578 C572 0.930 . S
H579 C573 0.930 . S
C580 N581 1.314 . S
C580 C582 1.353 . S
C580 H586 0.930 . S
N581 Li531 1.990 . S
N581 C580 1.314 . S
N581 C584 1.279 . S
C582 C580 1.353 . S
C582 C585 1.348 . S
C582 H614 0.929 . S
C583 C584 1.358 . S
C583 C585 1.356 . S
C583 H615 0.930 . S
C584 N581 1.279 . S
C584 C583 1.358 . S
C584 H587 0.930 . S
C585 C582 1.348 . S
C585 C583 1.356 . S
H586 C580 0.930 . S
H587 C584 0.930 . S
O588 Li528 1.956 . S
O588 Li529 1.970 . S
O588 Li530 1.961 . S
O588 C532 1.325 . S
O589 Li528 1.970 . S
O589 Li529 1.956 . S
O589 Li531 1.961 . S
O589 C538 1.325 . S
O590 Li528 1.961 . S
O590 Li530 1.956 . S
O590 Li531 1.970 . S
O590 C560 1.325 . S
O591 Li529 1.961 . S
O591 Li530 1.970 . S
O591 Li531 1.956 . S
O591 C566 1.325 . S
H592 C534 0.929 . S
H593 C535 0.930 . S
H594 C536 0.930 . S
H595 C537 0.930 . S
H596 C539 0.930 . S
H597 C541 0.929 . S
H598 C542 0.930 . S
H599 C543 0.930 . S
H600 C546 0.930 . S
H601 C549 0.929 . S
H602 C554 0.929 . S
H603 C555 0.930 . S
H604 C562 0.929 . S
H605 C563 0.930 . S
H606 C564 0.930 . S
H607 C565 0.930 . S
H608 C567 0.929 . S
H609 C568 0.930 . S
H610 C569 0.930 . S
H611 C570 0.930 . S
H612 C574 0.929 . S
H613 C576 0.930 . S
H614 C582 0.929 . S
H615 C583 0.930 . S
Li616 N633 1.990 . S
Li616 O676 1.956 . S
Li616 O677 1.970 . S
Li616 O678 1.961 . S
Li617 N641 1.990 . S
Li617 O676 1.970 . S
Li617 O677 1.956 . S
Li617 O679 1.961 . S
Li618 N663 1.990 . S
Li618 O676 1.961 . S
Li618 O678 1.956 . S
Li618 O679 1.970 . S
Li619 N669 1.990 . S
Li619 O677 1.961 . S
Li619 O678 1.970 . S
Li619 O679 1.956 . S
C620 C622 1.348 1_556 S
C620 C623 1.356 1_556 S
C620 O676 1.325 . S
N621 C624 1.314 . S
N621 C625 1.279 . S
C622 C620 1.348 1_554 S
C622 C624 1.353 . S
C622 H680 0.929 . S
C623 C620 1.356 1_554 S
C623 C625 1.358 . S
C623 H681 0.930 . S
C624 N621 1.314 . S
C624 C622 1.353 . S
C624 H682 0.930 . S
C625 N621 1.279 . S
C625 C623 1.358 . S
C625 H683 0.930 . S
C626 C629 1.348 . S
C626 C630 1.356 . S
C626 O677 1.325 . S
C627 N628 1.279 . S
C627 C630 1.358 . S
C627 H684 0.930 . S
N628 C627 1.279 . S
N628 C631 1.314 . S
C629 C626 1.348 . S
C629 C631 1.353 . S
C629 H685 0.929 . S
C630 C626 1.356 . S
C630 C627 1.358 . S
C630 H686 0.930 . S
C631 N628 1.314 . S
C631 C629 1.353 . S
C631 H687 0.930 . S
C632 N633 1.314 . S
C632 C637 1.353 . S
C632 H638 0.930 . S
N633 Li616 1.990 . S
N633 C632 1.314 . S
N633 C635 1.279 1_556 S
C634 C635 1.358 . S
C634 C636 1.356 . S
C634 H688 0.930 . S
C635 N633 1.279 1_554 S
C635 C634 1.358 . S
C635 H639 0.930 . S
C636 C634 1.356 . S
C636 C637 1.348 1_554 S
C637 C632 1.353 . S
C637 C636 1.348 1_556 S
C637 H689 0.929 . S
H638 C632 0.930 . S
H639 C635 0.930 . S
C640 N641 1.314 1_655 S
C640 C642 1.353 . S
C640 H646 0.930 . S
N641 Li617 1.990 . S
N641 C640 1.314 1_455 S
N641 C644 1.279 . S
C642 C640 1.353 . S
C642 C645 1.348 . S
C642 H690 0.929 . S
C643 C644 1.358 1_655 S
C643 C645 1.356 . S
C643 H691 0.930 . S
C644 N641 1.279 . S
C644 C643 1.358 1_455 S
C644 H647 0.930 . S
C645 C642 1.348 . S
C645 C643 1.356 . S
H646 C640 0.930 . S
H647 C644 0.930 . S
C648 C650 1.348 . S
C648 C651 1.356 . S
C648 O678 1.325 . S
N649 C652 1.314 . S
N649 C653 1.279 . S
C650 C648 1.348 . S
C650 C652 1.353 . S
C650 H692 0.929 . S
C651 C648 1.356 . S
C651 C653 1.358 . S
C651 H693 0.930 . S
C652 N649 1.314 . S
C652 C650 1.353 . S
C652 H694 0.930 . S
C653 N649 1.279 . S
C653 C651 1.358 . S
C653 H695 0.930 . S
C654 C655 1.348 . S
C654 C656 1.356 . S
C654 O679 1.325 . S
C655 C654 1.348 . S
C655 C657 1.353 . S
C655 H696 0.929 . S
C656 C654 1.356 . S
C656 C658 1.358 1_455 S
C656 H697 0.930 . S
C657 C655 1.353 . S
C657 N659 1.314 1_455 S
C657 H698 0.930 . S
C658 C656 1.358 1_655 S
C658 N659 1.279 . S
C658 H699 0.930 . S
N659 C657 1.314 1_655 S
N659 C658 1.279 . S
C660 C662 1.353 . S
C660 N663 1.314 . S
C660 H666 0.930 . S
C661 N663 1.279 . S
C661 C664 1.358 . S
C661 H667 0.930 . S
C662 C660 1.353 . S
C662 C665 1.348 . S
C662 H700 0.929 . S
N663 Li618 1.990 . S
N663 C660 1.314 . S
N663 C661 1.279 . S
C664 C661 1.358 . S
C664 C665 1.356 . S
C664 H701 0.930 . S
C665 C662 1.348 . S
C665 C664 1.356 . S
H666 C660 0.930 . S
H667 C661 0.930 . S
C668 N669 1.314 . S
C668 C670 1.353 . S
C668 H674 0.930 . S
N669 Li619 1.990 . S
N669 C668 1.314 . S
N669 C672 1.279 . S
C670 C668 1.353 . S
C670 C673 1.348 . S
C670 H702 0.929 . S
C671 C672 1.358 . S
C671 C673 1.356 . S
C671 H703 0.930 . S
C672 N669 1.279 . S
C672 C671 1.358 . S
C672 H675 0.930 . S
C673 C670 1.348 . S
C673 C671 1.356 . S
H674 C668 0.930 . S
H675 C672 0.930 . S
O676 Li616 1.956 . S
O676 Li617 1.970 . S
O676 Li618 1.961 . S
O676 C620 1.325 . S
O677 Li616 1.970 . S
O677 Li617 1.956 . S
O677 Li619 1.961 . S
O677 C626 1.325 . S
O678 Li616 1.961 . S
O678 Li618 1.956 . S
O678 Li619 1.970 . S
O678 C648 1.325 . S
O679 Li617 1.961 . S
O679 Li618 1.970 . S
O679 Li619 1.956 . S
O679 C654 1.325 . S
H680 C622 0.929 . S
H681 C623 0.930 . S
H682 C624 0.930 . S
H683 C625 0.930 . S
H684 C627 0.930 . S
H685 C629 0.929 . S
H686 C630 0.930 . S
H687 C631 0.930 . S
H688 C634 0.930 . S
H689 C637 0.929 . S
H690 C642 0.929 . S
H691 C643 0.930 . S
H692 C650 0.929 . S
H693 C651 0.930 . S
H694 C652 0.930 . S
H695 C653 0.930 . S
H696 C655 0.929 . S
H697 C656 0.930 . S
H698 C657 0.930 . S
H699 C658 0.930 . S
H700 C662 0.929 . S
H701 C664 0.930 . S
H702 C670 0.929 . S
H703 C671 0.930 . S
Li704 N721 1.990 . S
Li704 O764 1.956 . S
Li704 O765 1.970 . S
Li704 O766 1.961 . S
Li705 N729 1.990 . S
Li705 O764 1.970 . S
Li705 O765 1.956 . S
Li705 O767 1.961 . S
Li706 N751 1.990 . S
Li706 O764 1.961 . S
Li706 O766 1.956 . S
Li706 O767 1.970 . S
Li707 N757 1.990 . S
Li707 O765 1.961 . S
Li707 O766 1.970 . S
Li707 O767 1.956 . S
C708 C710 1.348 . S
C708 C711 1.356 . S
C708 O764 1.325 . S
N709 C712 1.314 . S
N709 C713 1.279 . S
C710 C708 1.348 . S
C710 C712 1.353 . S
C710 H768 0.929 . S
C711 C708 1.356 . S
C711 C713 1.358 . S
C711 H769 0.930 . S
C712 N709 1.314 . S
C712 C710 1.353 . S
C712 H770 0.930 . S
C713 N709 1.279 . S
C713 C711 1.358 . S
C713 H771 0.930 . S
C714 C717 1.348 . S
C714 C718 1.356 . S
C714 O765 1.325 . S
C715 N716 1.279 . S
C715 C718 1.358 . S
C715 H772 0.930 . S
N716 C715 1.279 . S
N716 C719 1.314 . S
C717 C714 1.348 . S
C717 C719 1.353 . S
C717 H773 0.929 . S
C718 C714 1.356 . S
C718 C715 1.358 . S
C718 H774 0.930 . S
C719 N716 1.314 . S
C719 C717 1.353 . S
C719 H775 0.930 . S
C720 N721 1.314 1_565 S
C720 C725 1.353 . S
C720 H726 0.930 . S
N721 Li704 1.990 . S
N721 C720 1.314 1_545 S
N721 C723 1.279 . S
C722 C723 1.358 1_565 S
C722 C724 1.356 . S
C722 H776 0.930 . S
C723 N721 1.279 . S
C723 C722 1.358 1_545 S
C723 H727 0.930 . S
C724 C722 1.356 . S
C724 C725 1.348 . S
C725 C720 1.353 . S
C725 C724 1.348 . S
C725 H777 0.929 . S
H726 C720 0.930 . S
H727 C723 0.930 . S
C728 N729 1.314 . S
C728 C730 1.353 . S
C728 H734 0.930 . S
N729 Li705 1.990 . S
N729 C728 1.314 . S
N729 C732 1.279 . S
C730 C728 1.353 . S
C730 C733 1.348 . S
C730 H778 0.929 . S
C731 C732 1.358 . S
C731 C733 1.356 . S
C731 H779 0.930 . S
C732 N729 1.279 . S
C732 C731 1.358 . S
C732 H735 0.930 . S
C733 C730 1.348 . S
C733 C731 1.356 . S
H734 C728 0.930 . S
H735 C732 0.930 . S
C736 C738 1.348 . S
C736 C739 1.356 . S
C736 O766 1.325 . S
N737 C740 1.314 1_565 S
N737 C741 1.279 . S
C738 C736 1.348 . S
C738 C740 1.353 . S
C738 H780 0.929 . S
C739 C736 1.356 . S
C739 C741 1.358 1_545 S
C739 H781 0.930 . S
C740 N737 1.314 1_545 S
C740 C738 1.353 . S
C740 H782 0.930 . S
C741 N737 1.279 . S
C741 C739 1.358 1_565 S
C741 H783 0.930 . S
C742 C743 1.348 . S
C742 C744 1.356 . S
C742 O767 1.325 . S
C743 C742 1.348 . S
C743 C745 1.353 . S
C743 H784 0.929 . S
C744 C742 1.356 . S
C744 C746 1.358 . S
C744 H785 0.930 . S
C745 C743 1.353 . S
C745 N747 1.314 . S
C745 H786 0.930 . S
C746 C744 1.358 . S
C746 N747 1.279 . S
C746 H787 0.930 . S
N747 C745 1.314 . S
N747 C746 1.279 . S
C748 C750 1.353 . S
C748 N751 1.314 . S
C748 H754 0.930 . S
C749 N751 1.279 . S
C749 C752 1.358 . S
C749 H755 0.930 . S
C750 C748 1.353 . S
C750 C753 1.348 . S
C750 H788 0.929 . S
N751 Li706 1.990 . S
N751 C748 1.314 . S
N751 C749 1.279 . S
C752 C749 1.358 . S
C752 C753 1.356 . S
C752 H789 0.930 . S
C753 C750 1.348 . S
C753 C752 1.356 . S
H754 C748 0.930 . S
H755 C749 0.930 . S
C756 N757 1.314 . S
C756 C758 1.353 . S
C756 H762 0.930 . S
N757 Li707 1.990 . S
N757 C756 1.314 . S
N757 C760 1.279 . S
C758 C756 1.353 . S
C758 C761 1.348 . S
C758 H790 0.929 . S
C759 C760 1.358 . S
C759 C761 1.356 . S
C759 H791 0.930 . S
C760 N757 1.279 . S
C760 C759 1.358 . S
C760 H763 0.930 . S
C761 C758 1.348 . S
C761 C759 1.356 . S
H762 C756 0.930 . S
H763 C760 0.930 . S
O764 Li704 1.956 . S
O764 Li705 1.970 . S
O764 Li706 1.961 . S
O764 C708 1.325 . S
O765 Li704 1.970 . S
O765 Li705 1.956 . S
O765 Li707 1.961 . S
O765 C714 1.325 . S
O766 Li704 1.961 . S
O766 Li706 1.956 . S
O766 Li707 1.970 . S
O766 C736 1.325 . S
O767 Li705 1.961 . S
O767 Li706 1.970 . S
O767 Li707 1.956 . S
O767 C742 1.325 . S
H768 C710 0.929 . S
H769 C711 0.930 . S
H770 C712 0.930 . S
H771 C713 0.930 . S
H772 C715 0.930 . S
H773 C717 0.929 . S
H774 C718 0.930 . S
H775 C719 0.930 . S
H776 C722 0.930 . S
H777 C725 0.929 . S
H778 C730 0.929 . S
H779 C731 0.930 . S
H780 C738 0.929 . S
H781 C739 0.930 . S
H782 C740 0.930 . S
H783 C741 0.930 . S
H784 C743 0.929 . S
H785 C744 0.930 . S
H786 C745 0.930 . S
H787 C746 0.930 . S
H788 C750 0.929 . S
H789 C752 0.930 . S
H790 C758 0.929 . S
H791 C759 0.930 . S
Li792 N809 1.990 . S
Li792 O852 1.956 . S
Li792 O853 1.970 . S
Li792 O854 1.961 . S
Li793 N817 1.990 . S
Li793 O852 1.970 . S
Li793 O853 1.956 . S
Li793 O855 1.961 . S
Li794 N839 1.990 . S
Li794 O852 1.961 . S
Li794 O854 1.956 . S
Li794 O855 1.970 . S
Li795 N845 1.990 . S
Li795 O853 1.961 . S
Li795 O854 1.970 . S
Li795 O855 1.956 . S
C796 C798 1.348 . S
C796 C799 1.356 . S
C796 O852 1.325 . S
N797 C800 1.314 . S
N797 C801 1.279 . S
C798 C796 1.348 . S
C798 C800 1.353 . S
C798 H856 0.929 . S
C799 C796 1.356 . S
C799 C801 1.358 . S
C799 H857 0.930 . S
C800 N797 1.314 . S
C800 C798 1.353 . S
C800 H858 0.930 . S
C801 N797 1.279 . S
C801 C799 1.358 . S
C801 H859 0.930 . S
C802 C805 1.348 . S
C802 C806 1.356 . S
C802 O853 1.325 . S
C803 N804 1.279 . S
C803 C806 1.358 . S
C803 H860 0.930 . S
N804 C803 1.279 . S
N804 C807 1.314 . S
C805 C802 1.348 . S
C805 C807 1.353 . S
C805 H861 0.929 . S
C806 C802 1.356 . S
C806 C803 1.358 . S
C806 H862 0.930 . S
C807 N804 1.314 . S
C807 C805 1.353 . S
C807 H863 0.930 . S
C808 N809 1.314 . S
C808 C813 1.353 . S
C808 H814 0.930 . S
N809 Li792 1.990 . S
N809 C808 1.314 . S
N809 C811 1.279 . S
C810 C811 1.358 . S
C810 C812 1.356 . S
C810 H864 0.930 . S
C811 N809 1.279 . S
C811 C810 1.358 . S
C811 H815 0.930 . S
C812 C810 1.356 . S
C812 C813 1.348 . S
C813 C808 1.353 . S
C813 C812 1.348 . S
C813 H865 0.929 . S
H814 C808 0.930 . S
H815 C811 0.930 . S
C816 N817 1.314 . S
C816 C818 1.353 . S
C816 H822 0.930 . S
N817 Li793 1.990 . S
N817 C816 1.314 . S
N817 C820 1.279 . S
C818 C816 1.353 . S
C818 C821 1.348 . S
C818 H866 0.929 . S
C819 C820 1.358 . S
C819 C821 1.356 . S
C819 H867 0.930 . S
C820 N817 1.279 . S
C820 C819 1.358 . S
C820 H823 0.930 . S
C821 C818 1.348 . S
C821 C819 1.356 . S
H822 C816 0.930 . S
H823 C820 0.930 . S
C824 C826 1.348 . S
C824 C827 1.356 . S
C824 O854 1.325 . S
N825 C828 1.314 . S
N825 C829 1.279 . S
C826 C824 1.348 . S
C826 C828 1.353 . S
C826 H868 0.929 . S
C827 C824 1.356 . S
C827 C829 1.358 . S
C827 H869 0.930 . S
C828 N825 1.314 . S
C828 C826 1.353 . S
C828 H870 0.930 . S
C829 N825 1.279 . S
C829 C827 1.358 . S
C829 H871 0.930 . S
C830 C831 1.348 . S
C830 C832 1.356 . S
C830 O855 1.325 . S
C831 C830 1.348 . S
C831 C833 1.353 . S
C831 H872 0.929 . S
C832 C830 1.356 . S
C832 C834 1.358 . S
C832 H873 0.930 . S
C833 C831 1.353 . S
C833 N835 1.314 . S
C833 H874 0.930 . S
C834 C832 1.358 . S
C834 N835 1.279 . S
C834 H875 0.930 . S
N835 C833 1.314 . S
N835 C834 1.279 . S
C836 C838 1.353 . S
C836 N839 1.314 . S
C836 H842 0.930 . S
C837 N839 1.279 . S
C837 C840 1.358 . S
C837 H843 0.930 . S
C838 C836 1.353 . S
C838 C841 1.348 . S
C838 H876 0.929 . S
N839 Li794 1.990 . S
N839 C836 1.314 . S
N839 C837 1.279 . S
C840 C837 1.358 . S
C840 C841 1.356 . S
C840 H877 0.930 . S
C841 C838 1.348 . S
C841 C840 1.356 . S
H842 C836 0.930 . S
H843 C837 0.930 . S
C844 N845 1.314 . S
C844 C846 1.353 . S
C844 H850 0.930 . S
N845 Li795 1.990 . S
N845 C844 1.314 . S
N845 C848 1.279 . S
C846 C844 1.353 . S
C846 C849 1.348 . S
C846 H878 0.929 . S
C847 C848 1.358 . S
C847 C849 1.356 . S
C847 H879 0.930 . S
C848 N845 1.279 . S
C848 C847 1.358 . S
C848 H851 0.930 . S
C849 C846 1.348 . S
C849 C847 1.356 . S
H850 C844 0.930 . S
H851 C848 0.930 . S
O852 Li792 1.956 . S
O852 Li793 1.970 . S
O852 Li794 1.961 . S
O852 C796 1.325 . S
O853 Li792 1.970 . S
O853 Li793 1.956 . S
O853 Li795 1.961 . S
O853 C802 1.325 . S
O854 Li792 1.961 . S
O854 Li794 1.956 . S
O854 Li795 1.970 . S
O854 C824 1.325 . S
O855 Li793 1.961 . S
O855 Li794 1.970 . S
O855 Li795 1.956 . S
O855 C830 1.325 . S
H856 C798 0.929 . S
H857 C799 0.930 . S
H858 C800 0.930 . S
H859 C801 0.930 . S
H860 C803 0.930 . S
H861 C805 0.929 . S
H862 C806 0.930 . S
H863 C807 0.930 . S
H864 C810 0.930 . S
H865 C813 0.929 . S
H866 C818 0.929 . S
H867 C819 0.930 . S
H868 C826 0.929 . S
H869 C827 0.930 . S
H870 C828 0.930 . S
H871 C829 0.930 . S
H872 C831 0.929 . S
H873 C832 0.930 . S
H874 C833 0.930 . S
H875 C834 0.930 . S
H876 C838 0.929 . S
H877 C840 0.930 . S
H878 C846 0.929 . S
H879 C847 0.930 . S
Li880 N897 1.990 . S
Li880 O940 1.956 . S
Li880 O941 1.970 . S
Li880 O942 1.961 . S
Li881 N905 1.990 . S
Li881 O940 1.970 . S
Li881 O941 1.956 . S
Li881 O943 1.961 . S
Li882 N927 1.990 . S
Li882 O940 1.961 . S
Li882 O942 1.956 . S
Li882 O943 1.970 . S
Li883 N933 1.990 . S
Li883 O941 1.961 . S
Li883 O942 1.970 . S
Li883 O943 1.956 . S
C884 C886 1.348 1_556 S
C884 C887 1.356 1_556 S
C884 O940 1.325 . S
N885 C888 1.314 . S
N885 C889 1.279 . S
C886 C884 1.348 1_554 S
C886 C888 1.353 . S
C886 H944 0.929 . S
C887 C884 1.356 1_554 S
C887 C889 1.358 . S
C887 H945 0.930 . S
C888 N885 1.314 . S
C888 C886 1.353 . S
C888 H946 0.930 . S
C889 N885 1.279 . S
C889 C887 1.358 . S
C889 H947 0.930 . S
C890 C893 1.348 . S
C890 C894 1.356 . S
C890 O941 1.325 . S
C891 N892 1.279 . S
C891 C894 1.358 . S
C891 H948 0.930 . S
N892 C891 1.279 . S
N892 C895 1.314 . S
C893 C890 1.348 . S
C893 C895 1.353 . S
C893 H949 0.929 . S
C894 C890 1.356 . S
C894 C891 1.358 . S
C894 H950 0.930 . S
C895 N892 1.314 . S
C895 C893 1.353 . S
C895 H951 0.930 . S
C896 N897 1.314 . S
C896 C901 1.353 . S
C896 H902 0.930 . S
N897 Li880 1.990 . S
N897 C896 1.314 . S
N897 C899 1.279 1_556 S
C898 C899 1.358 . S
C898 C900 1.356 . S
C898 H952 0.930 . S
C899 N897 1.279 1_554 S
C899 C898 1.358 . S
C899 H903 0.930 . S
C900 C898 1.356 . S
C900 C901 1.348 1_554 S
C901 C896 1.353 . S
C901 C900 1.348 1_556 S
C901 H953 0.929 . S
H902 C896 0.930 . S
H903 C899 0.930 . S
C904 N905 1.314 1_455 S
C904 C906 1.353 . S
C904 H910 0.930 . S
N905 Li881 1.990 . S
N905 C904 1.314 1_655 S
N905 C908 1.279 . S
C906 C904 1.353 . S
C906 C909 1.348 . S
C906 H954 0.929 . S
C907 C908 1.358 1_455 S
C907 C909 1.356 . S
C907 H955 0.930 . S
C908 N905 1.279 . S
C908 C907 1.358 1_655 S
C908 H911 0.930 . S
C909 C906 1.348 . S
C909 C907 1.356 . S
H910 C904 0.930 . S
H911 C908 0.930 . S
C912 C914 1.348 . S
C912 C915 1.356 . S
C912 O942 1.325 . S
N913 C916 1.314 . S
N913 C917 1.279 . S
C914 C912 1.348 . S
C914 C916 1.353 . S
C914 H956 0.929 . S
C915 C912 1.356 . S
C915 C917 1.358 . S
C915 H957 0.930 . S
C916 N913 1.314 . S
C916 C914 1.353 . S
C916 H958 0.930 . S
C917 N913 1.279 . S
C917 C915 1.358 . S
C917 H959 0.930 . S
C918 C919 1.348 . S
C918 C920 1.356 . S
C918 O943 1.325 . S
C919 C918 1.348 . S
C919 C921 1.353 . S
C919 H960 0.929 . S
C920 C918 1.356 . S
C920 C922 1.358 1_655 S
C920 H961 0.930 . S
C921 C919 1.353 . S
C921 N923 1.314 1_655 S
C921 H962 0.930 . S
C922 C920 1.358 1_455 S
C922 N923 1.279 . S
C922 H963 0.930 . S
N923 C921 1.314 1_455 S
N923 C922 1.279 . S
C924 C926 1.353 . S
C924 N927 1.314 . S
C924 H930 0.930 . S
C925 N927 1.279 . S
C925 C928 1.358 . S
C925 H931 0.930 . S
C926 C924 1.353 . S
C926 C929 1.348 . S
C926 H964 0.929 . S
N927 Li882 1.990 . S
N927 C924 1.314 . S
N927 C925 1.279 . S
C928 C925 1.358 . S
C928 C929 1.356 . S
C928 H965 0.930 . S
C929 C926 1.348 . S
C929 C928 1.356 . S
H930 C924 0.930 . S
H931 C925 0.930 . S
C932 N933 1.314 . S
C932 C934 1.353 . S
C932 H938 0.930 . S
N933 Li883 1.990 . S
N933 C932 1.314 . S
N933 C936 1.279 . S
C934 C932 1.353 . S
C934 C937 1.348 . S
C934 H966 0.929 . S
C935 C936 1.358 . S
C935 C937 1.356 . S
C935 H967 0.930 . S
C936 N933 1.279 . S
C936 C935 1.358 . S
C936 H939 0.930 . S
C937 C934 1.348 . S
C937 C935 1.356 . S
H938 C932 0.930 . S
H939 C936 0.930 . S
O940 Li880 1.956 . S
O940 Li881 1.970 . S
O940 Li882 1.961 . S
O940 C884 1.325 . S
O941 Li880 1.970 . S
O941 Li881 1.956 . S
O941 Li883 1.961 . S
O941 C890 1.325 . S
O942 Li880 1.961 . S
O942 Li882 1.956 . S
O942 Li883 1.970 . S
O942 C912 1.325 . S
O943 Li881 1.961 . S
O943 Li882 1.970 . S
O943 Li883 1.956 . S
O943 C918 1.325 . S
H944 C886 0.929 . S
H945 C887 0.930 . S
H946 C888 0.930 . S
H947 C889 0.930 . S
H948 C891 0.930 . S
H949 C893 0.929 . S
H950 C894 0.930 . S
H951 C895 0.930 . S
H952 C898 0.930 . S
H953 C901 0.929 . S
H954 C906 0.929 . S
H955 C907 0.930 . S
H956 C914 0.929 . S
H957 C915 0.930 . S
H958 C916 0.930 . S
H959 C917 0.930 . S
H960 C919 0.929 . S
H961 C920 0.930 . S
H962 C921 0.930 . S
H963 C922 0.930 . S
H964 C926 0.929 . S
H965 C928 0.930 . S
H966 C934 0.929 . S
H967 C935 0.930 . S
Li968 N985 1.990 . S
Li968 O1028 1.956 . S
Li968 O1029 1.970 . S
Li968 O1030 1.961 . S
Li969 N993 1.990 . S
Li969 O1028 1.970 . S
Li969 O1029 1.956 . S
Li969 O1031 1.961 . S
Li970 N1015 1.990 . S
Li970 O1028 1.961 . S
Li970 O1030 1.956 . S
Li970 O1031 1.970 . S
Li971 N1021 1.990 . S
Li971 O1029 1.961 . S
Li971 O1030 1.970 . S
Li971 O1031 1.956 . S
C972 C974 1.348 . S
C972 C975 1.356 . S
C972 O1028 1.325 . S
N973 C976 1.314 . S
N973 C977 1.279 . S
C974 C972 1.348 . S
C974 C976 1.353 . S
C974 H1032 0.929 . S
C975 C972 1.356 . S
C975 C977 1.358 . S
C975 H1033 0.930 . S
C976 N973 1.314 . S
C976 C974 1.353 . S
C976 H1034 0.930 . S
C977 N973 1.279 . S
C977 C975 1.358 . S
C977 H1035 0.930 . S
C978 C981 1.348 . S
C978 C982 1.356 . S
C978 O1029 1.325 . S
C979 N980 1.279 . S
C979 C982 1.358 . S
C979 H1036 0.930 . S
N980 C979 1.279 . S
N980 C983 1.314 . S
C981 C978 1.348 . S
C981 C983 1.353 . S
C981 H1037 0.929 . S
C982 C978 1.356 . S
C982 C979 1.358 . S
C982 H1038 0.930 . S
C983 N980 1.314 . S
C983 C981 1.353 . S
C983 H1039 0.930 . S
C984 N985 1.314 1_545 S
C984 C989 1.353 . S
C984 H990 0.930 . S
N985 Li968 1.990 . S
N985 C984 1.314 1_565 S
N985 C987 1.279 . S
C986 C987 1.358 1_545 S
C986 C988 1.356 . S
C986 H1040 0.930 . S
C987 N985 1.279 . S
C987 C986 1.358 1_565 S
C987 H991 0.930 . S
C988 C986 1.356 . S
C988 C989 1.348 . S
C989 C984 1.353 . S
C989 C988 1.348 . S
C989 H1041 0.929 . S
H990 C984 0.930 . S
H991 C987 0.930 . S
C992 N993 1.314 . S
C992 C994 1.353 . S
C992 H998 0.930 . S
N993 Li969 1.990 . S
N993 C992 1.314 . S
N993 C996 1.279 . S
C994 C992 1.353 . S
C994 C997 1.348 . S
C994 H1042 0.929 . S
C995 C996 1.358 . S
C995 C997 1.356 . S
C995 H1043 0.930 . S
C996 N993 1.279 . S
C996 C995 1.358 . S
C996 H999 0.930 . S
C997 C994 1.348 . S
C997 C995 1.356 . S
H998 C992 0.930 . S
H999 C996 0.930 . S
C1000 C1002 1.348 . S
C1000 C1003 1.356 . S
C1000 O1030 1.325 . S
N1001 C1004 1.314 1_545 S
N1001 C1005 1.279 . S
C1002 C1000 1.348 . S
C1002 C1004 1.353 . S
C1002 H1044 0.929 . S
C1003 C1000 1.356 . S
C1003 C1005 1.358 1_565 S
C1003 H1045 0.930 . S
C1004 N1001 1.314 1_565 S
C1004 C1002 1.353 . S
C1004 H1046 0.930 . S
C1005 N1001 1.279 . S
C1005 C1003 1.358 1_545 S
C1005 H1047 0.930 . S
C1006 C1007 1.348 . S
C1006 C1008 1.356 . S
C1006 O1031 1.325 . S
C1007 C1006 1.348 . S
C1007 C1009 1.353 . S
C1007 H1048 0.929 . S
C1008 C1006 1.356 . S
C1008 C1010 1.358 . S
C1008 H1049 0.930 . S
C1009 C1007 1.353 . S
C1009 N1011 1.314 . S
C1009 H1050 0.930 . S
C1010 C1008 1.358 . S
C1010 N1011 1.279 . S
C1010 H1051 0.930 . S
N1011 C1009 1.314 . S
N1011 C1010 1.279 . S
C1012 C1014 1.353 . S
C1012 N1015 1.314 . S
C1012 H1018 0.930 . S
C1013 N1015 1.279 . S
C1013 C1016 1.358 . S
C1013 H1019 0.930 . S
C1014 C1012 1.353 . S
C1014 C1017 1.348 . S
C1014 H1052 0.929 . S
N1015 Li970 1.990 . S
N1015 C1012 1.314 . S
N1015 C1013 1.279 . S
C1016 C1013 1.358 . S
C1016 C1017 1.356 . S
C1016 H1053 0.930 . S
C1017 C1014 1.348 . S
C1017 C1016 1.356 . S
H1018 C1012 0.930 . S
H1019 C1013 0.930 . S
C1020 N1021 1.314 . S
C1020 C1022 1.353 . S
C1020 H1026 0.930 . S
N1021 Li971 1.990 . S
N1021 C1020 1.314 . S
N1021 C1024 1.279 . S
C1022 C1020 1.353 . S
C1022 C1025 1.348 . S
C1022 H1054 0.929 . S
C1023 C1024 1.358 . S
C1023 C1025 1.356 . S
C1023 H1055 0.930 . S
C1024 N1021 1.279 . S
C1024 C1023 1.358 . S
C1024 H1027 0.930 . S
C1025 C1022 1.348 . S
C1025 C1023 1.356 . S
H1026 C1020 0.930 . S
H1027 C1024 0.930 . S
O1028 Li968 1.956 . S
O1028 Li969 1.970 . S
O1028 Li970 1.961 . S
O1028 C972 1.325 . S
O1029 Li968 1.970 . S
O1029 Li969 1.956 . S
O1029 Li971 1.961 . S
O1029 C978 1.325 . S
O1030 Li968 1.961 . S
O1030 Li970 1.956 . S
O1030 Li971 1.970 . S
O1030 C1000 1.325 . S
O1031 Li969 1.961 . S
O1031 Li970 1.970 . S
O1031 Li971 1.956 . S
O1031 C1006 1.325 . S
H1032 C974 0.929 . S
H1033 C975 0.930 . S
H1034 C976 0.930 . S
H1035 C977 0.930 . S
H1036 C979 0.930 . S
H1037 C981 0.929 . S
H1038 C982 0.930 . S
H1039 C983 0.930 . S
H1040 C986 0.930 . S
H1041 C989 0.929 . S
H1042 C994 0.929 . S
H1043 C995 0.930 . S
H1044 C1002 0.929 . S
H1045 C1003 0.930 . S
H1046 C1004 0.930 . S
H1047 C1005 0.930 . S
H1048 C1007 0.929 . S
H1049 C1008 0.930 . S
H1050 C1009 0.930 . S
H1051 C1010 0.930 . S
H1052 C1014 0.929 . S
H1053 C1016 0.930 . S
H1054 C1022 0.929 . S
H1055 C1023 0.930 . S
C1056 C1057 1.387 . S
C1056 H1060 0.950 1_554 S
C1056 C1065 1.390 . S
C1057 C1056 1.387 . S
C1057 C1059 1.387 . S
H1058 C1065 0.950 1_556 S
C1059 C1057 1.387 . S
C1059 C1061 1.390 . S
C1059 H1063 0.950 . S
H1060 C1056 0.950 1_556 S
C1061 C1059 1.390 . S
C1061 C1062 1.387 . S
C1061 H1064 0.950 . S
C1062 C1061 1.387 . S
C1062 C1065 1.387 . S
H1063 C1059 0.950 . S
H1064 C1061 0.950 . S
C1065 C1056 1.390 . S
C1065 H1058 0.950 1_554 S
C1065 C1062 1.387 . S
C1066 C1067 1.387 . S
C1066 H1070 0.950 . S
C1066 C1075 1.390 1_455 S
C1067 C1066 1.387 . S
C1067 C1069 1.387 . S
H1068 C1075 0.950 . S
C1069 C1067 1.387 . S
C1069 C1071 1.390 1_455 S
C1069 H1073 0.950 . S
H1070 C1066 0.950 . S
C1071 C1069 1.390 1_655 S
C1071 C1072 1.387 . S
C1071 H1074 0.950 . S
C1072 C1071 1.387 . S
C1072 C1075 1.387 . S
H1073 C1069 0.950 . S
H1074 C1071 0.950 . S
C1075 C1066 1.390 1_655 S
C1075 H1068 0.950 . S
C1075 C1072 1.387 . S
C1076 C1077 1.387 . S
C1076 H1080 0.950 . S
C1076 C1085 1.390 1_565 S
C1077 C1076 1.387 . S
C1077 C1079 1.387 . S
H1078 C1085 0.950 . S
C1079 C1077 1.387 . S
C1079 C1081 1.390 1_565 S
C1079 H1083 0.950 . S
H1080 C1076 0.950 . S
C1081 C1079 1.390 1_545 S
C1081 C1082 1.387 . S
C1081 H1084 0.950 . S
C1082 C1081 1.387 . S
C1082 C1085 1.387 . S
H1083 C1079 0.950 . S
H1084 C1081 0.950 . S
C1085 C1076 1.390 1_545 S
C1085 H1078 0.950 . S
C1085 C1082 1.387 . S
C1086 C1087 1.387 . S
C1086 H1090 0.950 . S
C1086 C1095 1.390 . S
C1087 C1086 1.387 . S
C1087 C1089 1.387 . S
H1088 C1095 0.950 . S
C1089 C1087 1.387 . S
C1089 C1091 1.390 . S
C1089 H1093 0.950 . S
H1090 C1086 0.950 . S
C1091 C1089 1.390 . S
C1091 C1092 1.387 . S
C1091 H1094 0.950 . S
C1092 C1091 1.387 . S
C1092 C1095 1.387 . S
H1093 C1089 0.950 . S
H1094 C1091 0.950 . S
C1095 C1086 1.390 . S
C1095 H1088 0.950 . S
C1095 C1092 1.387 . S
C1096 C1097 1.387 . S
C1096 H1100 0.950 . S
C1096 C1105 1.390 1_655 S
C1097 C1096 1.387 . S
C1097 C1099 1.387 . S
H1098 C1105 0.950 . S
C1099 C1097 1.387 . S
C1099 C1101 1.390 1_655 S
C1099 H1103 0.950 1_556 S
H1100 C1096 0.950 . S
C1101 C1099 1.390 1_455 S
C1101 C1102 1.387 . S
C1101 H1104 0.950 1_556 S
C1102 C1101 1.387 . S
C1102 C1105 1.387 . S
H1103 C1099 0.950 1_554 S
H1104 C1101 0.950 1_554 S
C1105 C1096 1.390 1_455 S
C1105 H1098 0.950 . S
C1105 C1102 1.387 . S
C1106 C1107 1.387 . S
C1106 H1110 0.950 . S
C1106 C1115 1.390 1_545 S
C1107 C1106 1.387 . S
C1107 C1109 1.387 . S
H1108 C1115 0.950 . S
C1109 C1107 1.387 . S
C1109 C1111 1.390 1_545 S
C1109 H1113 0.950 . S
H1110 C1106 0.950 . S
C1111 C1109 1.390 1_565 S
C1111 C1112 1.387 . S
C1111 H1114 0.950 . S
C1112 C1111 1.387 . S
C1112 C1115 1.387 . S
H1113 C1109 0.950 . S
H1114 C1111 0.950 . S
C1115 C1106 1.390 1_565 S
C1115 H1108 0.950 . S
C1115 C1112 1.387 . S
C1116 C1117 1.387 . S
C1116 H1120 0.950 . S
C1116 C1125 1.390 . S
C1117 C1116 1.387 . S
C1117 C1119 1.387 . S
H1118 C1125 0.950 . S
C1119 C1117 1.387 . S
C1119 C1121 1.390 . S
C1119 H1123 0.950 . S
H1120 C1116 0.950 . S
C1121 C1119 1.390 . S
C1121 C1122 1.387 . S
C1121 H1124 0.950 . S
C1122 C1121 1.387 . S
C1122 C1125 1.387 . S
H1123 C1119 0.950 . S
H1124 C1121 0.950 . S
C1125 C1116 1.390 . S
C1125 H1118 0.950 . S
C1125 C1122 1.387 . S
C1126 C1127 1.387 . S
C1126 H1130 0.950 . S
C1126 C1135 1.390 . S
C1127 C1126 1.387 . S
C1127 C1129 1.387 . S
H1128 C1135 0.950 . S
C1129 C1127 1.387 . S
C1129 C1131 1.390 . S
C1129 H1133 0.950 . S
H1130 C1126 0.950 . S
C1131 C1129 1.390 . S
C1131 C1132 1.387 . S
C1131 H1134 0.950 . S
C1132 C1131 1.387 . S
C1132 C1135 1.387 . S
H1133 C1129 0.950 . S
H1134 C1131 0.950 . S
C1135 C1126 1.390 . S
C1135 H1128 0.950 . S
C1135 C1132 1.387 . S
C1136 C1137 1.387 . S
C1136 H1140 0.950 . S
C1136 C1145 1.390 . S
C1137 C1136 1.387 . S
C1137 C1139 1.387 . S
H1138 C1145 0.950 . S
C1139 C1137 1.387 . S
C1139 C1141 1.390 . S
C1139 H1143 0.950 . S
H1140 C1136 0.950 . S
C1141 C1139 1.390 . S
C1141 C1142 1.387 . S
C1141 H1144 0.950 . S
C1142 C1141 1.387 . S
C1142 C1145 1.387 . S
H1143 C1139 0.950 . S
H1144 C1141 0.950 . S
C1145 C1136 1.390 . S
C1145 H1138 0.950 . S
C1145 C1142 1.387 . S
C1146 C1147 1.387 . S
C1146 H1150 0.950 . S
C1146 C1155 1.390 . S
C1147 C1146 1.387 . S
C1147 C1149 1.387 . S
H1148 C1155 0.950 . S
C1149 C1147 1.387 . S
C1149 C1151 1.390 . S
C1149 H1153 0.950 . S
H1150 C1146 0.950 . S
C1151 C1149 1.390 . S
C1151 C1152 1.387 . S
C1151 H1154 0.950 . S
C1152 C1151 1.387 . S
C1152 C1155 1.387 . S
H1153 C1149 0.950 . S
H1154 C1151 0.950 . S
C1155 C1146 1.390 . S
C1155 H1148 0.950 . S
C1155 C1152 1.387 . S
C1156 C1157 1.387 . S
C1156 H1160 0.950 . S
C1156 C1165 1.390 . S
C1157 C1156 1.387 . S
C1157 C1159 1.387 . S
H1158 C1165 0.950 . S
C1159 C1157 1.387 . S
C1159 C1161 1.390 . S
C1159 H1163 0.950 . S
H1160 C1156 0.950 . S
C1161 C1159 1.390 . S
C1161 C1162 1.387 . S
C1161 H1164 0.950 . S
C1162 C1161 1.387 . S
C1162 C1165 1.387 . S
H1163 C1159 0.950 . S
H1164 C1161 0.950 . S
C1165 C1156 1.390 . S
C1165 H1158 0.950 . S
C1165 C1162 1.387 . S
C1166 C1167 1.387 . S
C1166 H1170 0.950 . S
C1166 C1175 1.390 . S
C1167 C1166 1.387 . S
C1167 C1169 1.387 . S
H1168 C1175 0.950 . S
C1169 C1167 1.387 . S
C1169 C1171 1.390 . S
C1169 H1173 0.950 . S
H1170 C1166 0.950 . S
C1171 C1169 1.390 . S
C1171 C1172 1.387 . S
C1171 H1174 0.950 . S
C1172 C1171 1.387 . S
C1172 C1175 1.387 . S
H1173 C1169 0.950 . S
H1174 C1171 0.950 . S
C1175 C1166 1.390 . S
C1175 H1168 0.950 . S
C1175 C1172 1.387 . S
C1176 C1177 1.387 . S
C1176 H1180 0.950 . S
C1176 C1185 1.390 1_564 S
C1177 C1176 1.387 . S
C1177 C1179 1.387 . S
H1178 C1185 0.950 . S
C1179 C1177 1.387 . S
C1179 C1181 1.390 1_564 S
C1179 H1183 0.950 . S
H1180 C1176 0.950 . S
C1181 C1179 1.390 1_546 S
C1181 C1182 1.387 . S
C1181 H1184 0.950 . S
C1182 C1181 1.387 . S
C1182 C1185 1.387 . S
H1183 C1179 0.950 . S
H1184 C1181 0.950 . S
C1185 C1176 1.390 1_546 S
C1185 H1178 0.950 . S
C1185 C1182 1.387 . S
C1186 C1187 1.387 . S
C1186 H1190 0.950 . S
C1186 C1195 1.390 . S
C1187 C1186 1.387 . S
C1187 C1189 1.387 . S
H1188 C1195 0.950 . S
C1189 C1187 1.387 . S
C1189 C1191 1.390 . S
C1189 H1193 0.950 . S
H1190 C1186 0.950 . S
C1191 C1189 1.390 . S
C1191 C1192 1.387 . S
C1191 H1194 0.950 . S
C1192 C1191 1.387 . S
C1192 C1195 1.387 . S
H1193 C1189 0.950 . S
H1194 C1191 0.950 . S
C1195 C1186 1.390 . S
C1195 H1188 0.950 . S
C1195 C1192 1.387 . S
C1196 C1197 1.387 . S
C1196 H1200 0.950 . S
C1196 C1205 1.390 1_655 S
C1197 C1196 1.387 . S
C1197 C1199 1.387 . S
H1198 C1205 0.950 . S
C1199 C1197 1.387 . S
C1199 C1201 1.390 1_655 S
C1199 H1203 0.950 . S
H1200 C1196 0.950 . S
C1201 C1199 1.390 1_455 S
C1201 C1202 1.387 . S
C1201 H1204 0.950 . S
C1202 C1201 1.387 . S
C1202 C1205 1.387 . S
H1203 C1199 0.950 . S
H1204 C1201 0.950 . S
C1205 C1196 1.390 1_455 S
C1205 H1198 0.950 . S
C1205 C1202 1.387 . S
C1206 C1207 1.387 . S
C1206 H1210 0.950 . S
C1206 C1215 1.390 1_566 S
C1207 C1206 1.387 . S
C1207 C1209 1.387 . S
H1208 C1215 0.950 . S
C1209 C1207 1.387 . S
C1209 C1211 1.390 1_566 S
C1209 H1213 0.950 . S
H1210 C1206 0.950 . S
C1211 C1209 1.390 1_544 S
C1211 C1212 1.387 . S
C1211 H1214 0.950 . S
C1212 C1211 1.387 . S
C1212 C1215 1.387 . S
H1213 C1209 0.950 . S
H1214 C1211 0.950 . S
C1215 C1206 1.390 1_544 S
C1215 H1208 0.950 . S
C1215 C1212 1.387 . S
C1216 C1217 1.387 . S
C1216 H1220 0.950 . S
C1216 C1225 1.390 . S
C1217 C1216 1.387 . S
C1217 C1219 1.387 . S
H1218 C1225 0.950 . S
C1219 C1217 1.387 . S
C1219 C1221 1.390 . S
C1219 H1223 0.950 . S
H1220 C1216 0.950 . S
C1221 C1219 1.390 . S
C1221 C1222 1.387 . S
C1221 H1224 0.950 . S
C1222 C1221 1.387 . S
C1222 C1225 1.387 . S
H1223 C1219 0.950 . S
H1224 C1221 0.950 . S
C1225 C1216 1.390 . S
C1225 H1218 0.950 . S
C1225 C1222 1.387 . S
C1226 C1227 1.387 . S
C1226 H1230 0.950 . S
C1226 C1235 1.390 1_455 S
C1227 C1226 1.387 . S
C1227 C1229 1.387 . S
H1228 C1235 0.950 . S
C1229 C1227 1.387 . S
C1229 C1231 1.390 1_455 S
C1229 H1233 0.950 . S
H1230 C1226 0.950 . S
C1231 C1229 1.390 1_655 S
C1231 C1232 1.387 . S
C1231 H1234 0.950 . S
C1232 C1231 1.387 . S
C1232 C1235 1.387 . S
H1233 C1229 0.950 . S
H1234 C1231 0.950 . S
C1235 C1226 1.390 1_655 S
C1235 H1228 0.950 . S
C1235 C1232 1.387 . S
C1236 C1237 1.387 . S
C1236 H1240 0.950 . S
C1236 C1245 1.390 1_556 S
C1237 C1236 1.387 . S
C1237 C1239 1.387 . S
H1238 C1245 0.950 . S
C1239 C1237 1.387 . S
C1239 C1241 1.390 1_556 S
C1239 H1243 0.950 . S
H1240 C1236 0.950 . S
C1241 C1239 1.390 1_554 S
C1241 C1242 1.387 . S
C1241 H1244 0.950 . S
C1242 C1241 1.387 . S
C1242 C1245 1.387 . S
H1243 C1239 0.950 . S
H1244 C1241 0.950 . S
C1245 C1236 1.390 1_554 S
C1245 H1238 0.950 . S
C1245 C1242 1.387 . S
C1246 C1247 1.387 . S
C1246 H1250 0.950 . S
C1246 C1255 1.390 . S
C1247 C1246 1.387 . S
C1247 C1249 1.387 . S
H1248 C1255 0.950 . S
C1249 C1247 1.387 . S
C1249 C1251 1.390 . S
C1249 H1253 0.950 . S
H1250 C1246 0.950 . S
C1251 C1249 1.390 . S
C1251 C1252 1.387 . S
C1251 H1254 0.950 . S
C1252 C1251 1.387 . S
C1252 C1255 1.387 . S
H1253 C1249 0.950 . S
H1254 C1251 0.950 . S
C1255 C1246 1.390 . S
C1255 H1248 0.950 . S
C1255 C1252 1.387 . S
C1256 C1257 1.387 . S
C1256 H1260 0.950 . S
C1256 C1265 1.390 . S
C1257 C1256 1.387 . S
C1257 C1259 1.387 . S
H1258 C1265 0.950 . S
C1259 C1257 1.387 . S
C1259 C1261 1.390 . S
C1259 H1263 0.950 . S
H1260 C1256 0.950 . S
C1261 C1259 1.390 . S
C1261 C1262 1.387 . S
C1261 H1264 0.950 . S
C1262 C1261 1.387 . S
C1262 C1265 1.387 . S
H1263 C1259 0.950 . S
H1264 C1261 0.950 . S
C1265 C1256 1.390 . S
C1265 H1258 0.950 . S
C1265 C1262 1.387 . S
C1266 C1267 1.387 . S
C1266 H1270 0.950 . S
C1266 C1275 1.390 1_554 S
C1267 C1266 1.387 . S
C1267 C1269 1.387 . S
H1268 C1275 0.950 . S
C1269 C1267 1.387 . S
C1269 C1271 1.390 1_554 S
C1269 H1273 0.950 . S
H1270 C1266 0.950 . S
C1271 C1269 1.390 1_556 S
C1271 C1272 1.387 . S
C1271 H1274 0.950 . S
C1272 C1271 1.387 . S
C1272 C1275 1.387 . S
H1273 C1269 0.950 . S
H1274 C1271 0.950 . S
C1275 C1266 1.390 1_556 S
C1275 H1268 0.950 . S
C1275 C1272 1.387 . S
C1276 C1277 1.387 . S
C1276 H1280 0.950 . S
C1276 C1285 1.390 . S
C1277 C1276 1.387 . S
C1277 C1279 1.387 . S
H1278 C1285 0.950 . S
C1279 C1277 1.387 . S
C1279 C1281 1.390 . S
C1279 H1283 0.950 . S
H1280 C1276 0.950 . S
C1281 C1279 1.390 . S
C1281 C1282 1.387 . S
C1281 H1284 0.950 . S
C1282 C1281 1.387 . S
C1282 C1285 1.387 . S
H1283 C1279 0.950 . S
H1284 C1281 0.950 . S
C1285 C1276 1.390 . S
C1285 H1278 0.950 . S
C1285 C1282 1.387 . S
C1286 C1287 1.387 . S
C1286 H1290 0.950 . S
C1286 C1295 1.390 . S
C1287 C1286 1.387 . S
C1287 C1289 1.387 . S
H1288 C1295 0.950 . S
C1289 C1287 1.387 . S
C1289 C1291 1.390 . S
C1289 H1293 0.950 . S
H1290 C1286 0.950 . S
C1291 C1289 1.390 . S
C1291 C1292 1.387 . S
C1291 H1294 0.950 . S
C1292 C1291 1.387 . S
C1292 C1295 1.387 . S
H1293 C1289 0.950 . S
H1294 C1291 0.950 . S
C1295 C1286 1.390 . S
C1295 H1288 0.950 . S
C1295 C1292 1.387 . S
C1057 C293 2.281 . S
C1062 C20 2.281 . S
C1067 C108 2.278 . S
C1072 C372 2.278 . S
C1077 C460 2.278 . S
C1082 C205 2.278 . S
C1087 C585 2.278 . S
C1092 C849 2.278 . S
C1097 C929 2.278 . S
C1102 C665 2.278 . S
C1107 C761 2.281 . S
C1112 C1025 2.281 . S
C1117 C753 1.578 . S
C1122 C29 1.578 . S
C1127 C117 1.578 . S
C1132 C841 1.578 . S
C1137 C196 1.578 . S
C1142 C937 1.578 . S
C1147 C284 1.578 . S
C1152 C1017 1.578 . S
C1157 C577 1.578 . S
C1162 C381 1.578 . S
C1167 C673 1.578 . S
C1172 C469 1.578 . S
C1177 C636 1.557 . S
C1182 C49 1.558 . S
C1187 C137 1.553 . S
C1192 C733 1.554 . S
C1197 C233 1.555 . S
C1202 C821 1.554 . S
C1207 C321 1.558 . S
C1212 C900 1.557 . S
C1217 C997 1.553 . S
C1222 C401 1.554 . S
C1227 C489 1.555 . S
C1232 C557 1.557 . S
C1237 C909 1.289 . S
C1242 C57 1.289 . S
C1247 C988 1.289 . S
C1252 C145 1.289 . S
C1257 C548 1.291 . S
C1262 C225 1.292 . S
C1267 C313 1.289 . S
C1272 C645 1.289 . S
C1277 C409 1.290 . S
C1282 C724 1.291 . S
C1287 C497 1.291 . S
C1292 C812 1.291 . S
