# Generated by pormake.
# Topology pcl, (4)-cn, num edge types: 1
# Building blocks:
#     Node 0, Type 0, BuildingBlock: AZAVOO_clean_sbu_0, # of connection points: 4
#     Node 1, Type 0, BuildingBlock: AZAVOO_clean_sbu_0, # of connection points: 4
#     Node 2, Type 0, BuildingBlock: AZAVOO_clean_sbu_0, # of connection points: 4
#     Node 3, Type 0, BuildingBlock: AZAVOO_clean_sbu_0, # of connection points: 4
#     Node 4, Type 0, BuildingBlock: AZAVOO_clean_sbu_0, # of connection points: 4
#     Node 5, Type 0, BuildingBlock: AZAVOO_clean_sbu_0, # of connection points: 4
#     Node 6, Type 0, BuildingBlock: AZAVOO_clean_sbu_0, # of connection points: 4
#     Node 7, Type 0, BuildingBlock: AZAVOO_clean_sbu_0, # of connection points: 4
#     Node 8, Type 0, BuildingBlock: AZAVOO_clean_sbu_0, # of connection points: 4
#     Node 9, Type 0, BuildingBlock: AZAVOO_clean_sbu_0, # of connection points: 4
#     Node 10, Type 0, BuildingBlock: AZAVOO_clean_sbu_0, # of connection points: 4
#     Node 11, Type 0, BuildingBlock: AZAVOO_clean_sbu_0, # of connection points: 4
#     Node 12, Type 0, BuildingBlock: AZAVOO_clean_sbu_0, # of connection points: 4
#     Node 13, Type 0, BuildingBlock: AZAVOO_clean_sbu_0, # of connection points: 4
#     Node 14, Type 0, BuildingBlock: AZAVOO_clean_sbu_0, # of connection points: 4
#     Node 15, Type 0, BuildingBlock: AZAVOO_clean_sbu_0, # of connection points: 4
#     Edge 16, Type (0, 0), BuildingBlock: ZUJKAS_clean_linker_0, # of connection points: 2
#     Edge 17, Type (0, 0), BuildingBlock: ZUJKAS_clean_linker_0, # of connection points: 2
#     Edge 18, Type (0, 0), BuildingBlock: ZUJKAS_clean_linker_0, # of connection points: 2
#     Edge 19, Type (0, 0), BuildingBlock: ZUJKAS_clean_linker_0, # of connection points: 2
#     Edge 20, Type (0, 0), BuildingBlock: ZUJKAS_clean_linker_0, # of connection points: 2
#     Edge 21, Type (0, 0), BuildingBlock: ZUJKAS_clean_linker_0, # of connection points: 2
#     Edge 22, Type (0, 0), BuildingBlock: ZUJKAS_clean_linker_0, # of connection points: 2
#     Edge 23, Type (0, 0), BuildingBlock: ZUJKAS_clean_linker_0, # of connection points: 2
#     Edge 24, Type (0, 0), BuildingBlock: ZUJKAS_clean_linker_0, # of connection points: 2
#     Edge 25, Type (0, 0), BuildingBlock: ZUJKAS_clean_linker_0, # of connection points: 2
#     Edge 26, Type (0, 0), BuildingBlock: ZUJKAS_clean_linker_0, # of connection points: 2
#     Edge 27, Type (0, 0), BuildingBlock: ZUJKAS_clean_linker_0, # of connection points: 2
#     Edge 28, Type (0, 0), BuildingBlock: ZUJKAS_clean_linker_0, # of connection points: 2
#     Edge 29, Type (0, 0), BuildingBlock: ZUJKAS_clean_linker_0, # of connection points: 2
#     Edge 30, Type (0, 0), BuildingBlock: ZUJKAS_clean_linker_0, # of connection points: 2
#     Edge 31, Type (0, 0), BuildingBlock: ZUJKAS_clean_linker_0, # of connection points: 2
#     Edge 32, Type (0, 0), BuildingBlock: ZUJKAS_clean_linker_0, # of connection points: 2
#     Edge 33, Type (0, 0), BuildingBlock: ZUJKAS_clean_linker_0, # of connection points: 2
#     Edge 34, Type (0, 0), BuildingBlock: ZUJKAS_clean_linker_0, # of connection points: 2
#     Edge 35, Type (0, 0), BuildingBlock: ZUJKAS_clean_linker_0, # of connection points: 2
#     Edge 36, Type (0, 0), BuildingBlock: ZUJKAS_clean_linker_0, # of connection points: 2
#     Edge 37, Type (0, 0), BuildingBlock: ZUJKAS_clean_linker_0, # of connection points: 2
#     Edge 38, Type (0, 0), BuildingBlock: ZUJKAS_clean_linker_0, # of connection points: 2
#     Edge 39, Type (0, 0), BuildingBlock: ZUJKAS_clean_linker_0, # of connection points: 2
#     Edge 40, Type (0, 0), BuildingBlock: ZUJKAS_clean_linker_0, # of connection points: 2
#     Edge 41, Type (0, 0), BuildingBlock: ZUJKAS_clean_linker_0, # of connection points: 2
#     Edge 42, Type (0, 0), BuildingBlock: ZUJKAS_clean_linker_0, # of connection points: 2
#     Edge 43, Type (0, 0), BuildingBlock: ZUJKAS_clean_linker_0, # of connection points: 2
#     Edge 44, Type (0, 0), BuildingBlock: ZUJKAS_clean_linker_0, # of connection points: 2
#     Edge 45, Type (0, 0), BuildingBlock: ZUJKAS_clean_linker_0, # of connection points: 2
#     Edge 46, Type (0, 0), BuildingBlock: ZUJKAS_clean_linker_0, # of connection points: 2
#     Edge 47, Type (0, 0), BuildingBlock: ZUJKAS_clean_linker_0, # of connection points: 2
# Relax obj value: 0.077
# Max RMSD: 0.071
# Mean RMSD: 0.070
data_MOF--net-pcl--node1-AZAVOO_clean_sbu_0--edge1-ZUJKAS_clean_linker_0
_symmetry_space_group_name_H-M    P1
_symmetry_Int_Tables_number       1
_symmetry_cell_setting            triclinic
loop_
_symmetry_equiv_pos_as_xyz
'x, y, z'
_cell_length_a     51.050594
_cell_length_b     66.591318
_cell_length_c     59.315137
_cell_angle_alpha  89.988582
_cell_angle_beta   90.017637
_cell_angle_gamma 89.963294
loop_
_atom_site_label
_atom_site_type_symbol
_atom_site_fract_x
_atom_site_fract_y
_atom_site_fract_z
_atom_type_partial_charge
Mg0 Mg 0.20611 0.36833 0.07033 0.0
O1 O 0.16232 0.36344 0.06413 0.0
O2 O 0.15443 0.36588 0.02719 0.0
Mg3 Mg 0.19387 0.37075 0.00975 0.0
C4 C 0.14655 0.36332 0.04742 0.0
C5 C 0.21578 0.36696 0.1206 0.0
O6 O 0.23285 0.38018 0.11321 0.0
O7 O 0.2148 0.33665 0.05852 0.0
O8 O 0.20731 0.33939 0.02152 0.0
O9 O 0.19847 0.401 0.072 0.0
O10 O 0.2091 0.38477 0.04065 0.0
C11 C 0.21397 0.32907 0.03879 0.0
C12 C 0.20174 0.40114 0.05035 0.0
O13 O 0.20109 0.35815 0.10645 0.0
Mg14 Mg 0.79929 0.62317 0.57597 0.0
O15 O 0.84314 0.6241 0.56822 0.0
O16 O 0.84899 0.61953 0.53128 0.0
Mg17 Mg 0.80834 0.61605 0.51545 0.0
C18 C 0.85807 0.62244 0.55107 0.0
C19 C 0.79053 0.6454 0.62147 0.0
O20 O 0.76824 0.64978 0.61153 0.0
O21 O 0.79431 0.65446 0.56168 0.0
O22 O 0.79852 0.64887 0.52472 0.0
O23 O 0.80175 0.59021 0.58033 0.0
O24 O 0.79285 0.6052 0.54789 0.0
C25 C 0.79431 0.66067 0.54134 0.0
C26 C 0.7976 0.58887 0.55884 0.0
O27 O 0.80757 0.63528 0.61081 0.0
Mg28 Mg 0.19772 0.61744 0.90903 0.0
O29 O 0.15437 0.62238 0.91716 0.0
O30 O 0.14821 0.61829 0.95413 0.0
Mg31 Mg 0.18838 0.61221 0.96979 0.0
C32 C 0.13942 0.62187 0.93439 0.0
C33 C 0.20896 0.63866 0.86344 0.0
O34 O 0.23134 0.64194 0.87375 0.0
O35 O 0.2078 0.64839 0.92247 0.0
O36 O 0.20189 0.64391 0.95949 0.0
O37 O 0.18971 0.58482 0.90587 0.0
O38 O 0.20211 0.5997 0.93755 0.0
C39 C 0.20803 0.65496 0.94267 0.0
C40 C 0.19436 0.58373 0.9273 0.0
O41 O 0.19084 0.6295 0.87388 0.0
Mg42 Mg 0.79257 0.36965 0.41886 0.0
O43 O 0.83693 0.36798 0.42449 0.0
O44 O 0.84477 0.36967 0.46149 0.0
Mg45 Mg 0.80521 0.37175 0.47941 0.0
C46 C 0.85277 0.36832 0.44115 0.0
C47 C 0.78443 0.36989 0.36829 0.0
O48 O 0.76773 0.38342 0.3756 0.0
O49 O 0.7883 0.33733 0.43004 0.0
O50 O 0.79504 0.33979 0.46716 0.0
O51 O 0.79514 0.40278 0.41776 0.0
O52 O 0.7881 0.38531 0.44893 0.0
C53 C 0.78975 0.32942 0.44958 0.0
C54 C 0.79247 0.40241 0.43946 0.0
O55 O 0.79827 0.3604 0.38253 0.0
Mg56 Mg 0.80257 0.62473 0.90231 0.0
O57 O 0.84682 0.63064 0.90336 0.0
O58 O 0.85466 0.6603 0.88709 0.0
Mg59 Mg 0.81542 0.67362 0.87623 0.0
C60 C 0.86261 0.64439 0.89698 0.0
C61 C 0.79878 0.58165 0.91975 0.0
O62 O 0.78715 0.58061 0.90002 0.0
O63 O 0.79645 0.64675 0.93118 0.0
O64 O 0.80356 0.67589 0.91348 0.0
O65 O 0.80656 0.61113 0.8682 0.0
O66 O 0.79875 0.64331 0.87429 0.0
C67 C 0.79764 0.6659 0.93116 0.0
C68 C 0.80344 0.62906 0.86021 0.0
O69 O 0.80768 0.59847 0.92635 0.0
Mg70 Mg 0.18931 0.36782 0.40236 0.0
O71 O 0.14477 0.36319 0.40302 0.0
O72 O 0.1359 0.33449 0.38509 0.0
Mg73 Mg 0.1745 0.32086 0.37304 0.0
C74 C 0.1285 0.35008 0.39587 0.0
C75 C 0.20697 0.40202 0.4329 0.0
O76 O 0.229 0.39577 0.42384 0.0
O77 O 0.19436 0.3441 0.42958 0.0
O78 O 0.18673 0.31604 0.40998 0.0
O79 O 0.1864 0.38361 0.36946 0.0
O80 O 0.19226 0.35088 0.37303 0.0
C81 C 0.19288 0.325 0.4283 0.0
C82 C 0.18862 0.36614 0.36007 0.0
O83 O 0.18588 0.39286 0.42808 0.0
Mg84 Mg 0.81085 0.3685 0.08667 0.0
O85 O 0.85502 0.36205 0.08554 0.0
O86 O 0.86223 0.33324 0.10386 0.0
Mg87 Mg 0.82298 0.32124 0.11641 0.0
C88 C 0.87049 0.34839 0.09275 0.0
C89 C 0.80473 0.40975 0.0655 0.0
O90 O 0.79228 0.41131 0.0848 0.0
O91 O 0.80378 0.34478 0.05983 0.0
O92 O 0.81012 0.31662 0.07963 0.0
O93 O 0.81552 0.38437 0.1194 0.0
O94 O 0.80729 0.35193 0.11623 0.0
C95 C 0.80423 0.32566 0.06129 0.0
C96 C 0.81225 0.36709 0.12899 0.0
O97 O 0.81541 0.3931 0.06046 0.0
Mg98 Mg 0.19564 0.62458 0.58191 0.0
O99 O 0.15112 0.62925 0.58216 0.0
O100 O 0.14252 0.65848 0.59907 0.0
Mg101 Mg 0.1815 0.67255 0.60944 0.0
C102 C 0.13495 0.64252 0.5891 0.0
C103 C 0.21157 0.59042 0.54991 0.0
O104 O 0.23447 0.59775 0.5558 0.0
O105 O 0.19958 0.64729 0.55347 0.0
O106 O 0.19208 0.67597 0.57198 0.0
O107 O 0.19381 0.61014 0.61569 0.0
O108 O 0.19963 0.64266 0.61024 0.0
C109 C 0.19772 0.6664 0.55393 0.0
C110 C 0.19636 0.62799 0.62408 0.0
O111 O 0.19093 0.59871 0.5574 0.0
Mg112 Mg 0.70424 0.86955 0.07147 0.0
O113 O 0.65974 0.86967 0.06628 0.0
O114 O 0.65174 0.87186 0.02933 0.0
Mg115 Mg 0.69111 0.87303 0.01108 0.0
C116 C 0.64381 0.87063 0.0497 0.0
C117 C 0.71424 0.86754 0.12185 0.0
O118 O 0.73259 0.87977 0.11461 0.0
O119 O 0.70616 0.83728 0.05965 0.0
O120 O 0.69977 0.8406 0.02258 0.0
O121 O 0.70423 0.90273 0.07332 0.0
O122 O 0.70925 0.88556 0.04169 0.0
C123 C 0.70436 0.82976 0.03995 0.0
C124 C 0.70651 0.90267 0.05158 0.0
O125 O 0.69858 0.85985 0.10765 0.0
Mg126 Mg 0.29495 0.12128 0.5695 0.0
O127 O 0.33957 0.12202 0.56478 0.0
O128 O 0.34796 0.12001 0.52789 0.0
Mg129 Mg 0.30892 0.11812 0.50919 0.0
C130 C 0.35567 0.12137 0.54831 0.0
C131 C 0.28347 0.12304 0.61953 0.0
O132 O 0.26529 0.11101 0.61156 0.0
O133 O 0.29187 0.15358 0.55766 0.0
O134 O 0.29877 0.15025 0.52066 0.0
O135 O 0.29597 0.08803 0.57115 0.0
O136 O 0.2908 0.10526 0.53959 0.0
C137 C 0.29351 0.16105 0.53791 0.0
C138 C 0.29384 0.08815 0.5494 0.0
O139 O 0.29968 0.13085 0.60588 0.0
Mg140 Mg 0.70579 0.12381 0.91438 0.0
O141 O 0.66116 0.12383 0.91885 0.0
O142 O 0.65249 0.12005 0.95552 0.0
Mg143 Mg 0.69144 0.11773 0.97429 0.0
C144 C 0.64493 0.12225 0.93514 0.0
C145 C 0.71805 0.12863 0.86482 0.0
O146 O 0.73693 0.11697 0.8723 0.0
O147 O 0.70799 0.15547 0.92807 0.0
O148 O 0.70089 0.15053 0.96482 0.0
O149 O 0.70535 0.09075 0.91063 0.0
O150 O 0.70997 0.10643 0.94328 0.0
C151 C 0.706 0.16209 0.94817 0.0
C152 C 0.70717 0.08981 0.93238 0.0
O153 O 0.7011 0.13509 0.87868 0.0
Mg154 Mg 0.29232 0.86919 0.4077 0.0
O155 O 0.33641 0.86796 0.41474 0.0
O156 O 0.34295 0.87107 0.4518 0.0
Mg157 Mg 0.30273 0.87403 0.4684 0.0
C158 C 0.35165 0.86891 0.43177 0.0
C159 C 0.28367 0.84726 0.36169 0.0
O160 O 0.26221 0.84135 0.37196 0.0
O161 O 0.2879 0.83735 0.42061 0.0
O162 O 0.29295 0.84161 0.45771 0.0
O163 O 0.29442 0.9023 0.4048 0.0
O164 O 0.28666 0.88619 0.43673 0.0
C165 C 0.28846 0.8304 0.44064 0.0
C166 C 0.291 0.90291 0.42643 0.0
O167 O 0.29987 0.85828 0.3722 0.0
Mg168 Mg 0.30813 0.12176 0.90205 0.0
O169 O 0.3527 0.12597 0.90021 0.0
O170 O 0.36075 0.15444 0.88152 0.0
Mg171 Mg 0.32156 0.16841 0.87162 0.0
C172 C 0.36865 0.13884 0.89204 0.0
C173 C 0.29301 0.08663 0.93245 0.0
O174 O 0.27065 0.09148 0.9229 0.0
O175 O 0.30571 0.14568 0.92926 0.0
O176 O 0.31271 0.1736 0.90923 0.0
O177 O 0.3084 0.10571 0.86927 0.0
O178 O 0.30335 0.13854 0.87275 0.0
C179 C 0.30778 0.16474 0.92787 0.0
C180 C 0.30594 0.12314 0.8598 0.0
O181 O 0.31325 0.09693 0.92786 0.0
Mg182 Mg 0.68917 0.86717 0.40309 0.0
O183 O 0.64478 0.86183 0.40287 0.0
O184 O 0.63693 0.83314 0.38459 0.0
Mg185 Mg 0.67618 0.82007 0.37338 0.0
C186 C 0.62895 0.8486 0.39531 0.0
C187 C 0.70331 0.89694 0.44121 0.0
O188 O 0.72538 0.88689 0.43944 0.0
O189 O 0.69429 0.84344 0.43029 0.0
O190 O 0.68755 0.81534 0.41051 0.0
O191 O 0.6864 0.88297 0.37019 0.0
O192 O 0.69324 0.85035 0.37379 0.0
C193 C 0.69317 0.82433 0.42893 0.0
C194 C 0.68922 0.86554 0.36081 0.0
O195 O 0.68402 0.89193 0.42892 0.0
Mg196 Mg 0.30629 0.86287 0.08064 0.0
O197 O 0.3512 0.86018 0.08226 0.0
O198 O 0.36114 0.83136 0.09954 0.0
Mg199 Mg 0.32307 0.8151 0.10763 0.0
C200 C 0.36798 0.84769 0.08995 0.0
C201 C 0.29639 0.90482 0.06211 0.0
O202 O 0.28114 0.90394 0.07992 0.0
O203 O 0.30502 0.84057 0.05165 0.0
O204 O 0.31554 0.81204 0.06953 0.0
O205 O 0.30584 0.8767 0.11469 0.0
O206 O 0.30249 0.84407 0.1085 0.0
C207 C 0.30952 0.82172 0.05165 0.0
C208 C 0.30427 0.85865 0.12268 0.0
O209 O 0.31 0.88951 0.05695 0.0
Mg210 Mg 0.69279 0.12311 0.58346 0.0
O211 O 0.64808 0.12715 0.58396 0.0
O212 O 0.63928 0.15625 0.60111 0.0
Mg213 Mg 0.67796 0.17083 0.61123 0.0
C214 C 0.6318 0.14025 0.59117 0.0
C215 C 0.7078 0.08468 0.55936 0.0
O216 O 0.72786 0.08828 0.57263 0.0
O217 O 0.69608 0.14592 0.55512 0.0
O218 O 0.68819 0.17452 0.57368 0.0
O219 O 0.69158 0.10838 0.61697 0.0
O220 O 0.69646 0.14106 0.61198 0.0
C221 C 0.69387 0.16501 0.5556 0.0
C222 C 0.69362 0.12617 0.62561 0.0
O223 O 0.68892 0.09711 0.55903 0.0
H224 H 0.12212 0.35808 0.0881 0.0
H225 H 0.0752 0.35488 0.09527 0.0
H226 H 0.05961 0.3599 0.02405 0.0
H227 H 0.10652 0.36291 0.01659 0.0
H228 H 0.03584 0.38272 0.08451 0.0
H229 H 0.01892 0.30925 0.04266 0.0
H230 H 0.05123 0.31814 0.04996 0.0
H231 H 0.0349 0.32769 0.02535 0.0
C232 C 0.10878 0.35836 0.0739 0.0
C233 C 0.11815 0.3607 0.05174 0.0
C234 C 0.08196 0.35656 0.07806 0.0
C235 C 0.064 0.35693 0.06018 0.0
C236 C 0.07321 0.35922 0.03805 0.0
H237 H 0.89614 0.37825 0.06976 0.0
H238 H 0.94305 0.38059 0.06181 0.0
C239 C 0.10004 0.36103 0.03385 0.0
C240 C 0.03557 0.35557 0.06479 0.0
H241 H 0.98123 0.3271 0.05477 0.0
C242 C 0.02387 0.37055 0.07805 0.0
C243 C 0.02013 0.33957 0.0565 0.0
C244 C 0.03191 0.32263 0.04299 0.0
C245 C 0.99702 0.37007 0.08307 0.0
C246 C 0.98147 0.35434 0.07432 0.0
C247 C 0.99321 0.33924 0.06126 0.0
C248 C 0.95305 0.35298 0.07902 0.0
C249 C 0.98563 0.38619 0.09802 0.0
C250 C 0.94311 0.33648 0.09093 0.0
C251 C 0.91634 0.33503 0.09544 0.0
C252 C 0.89893 0.35003 0.08799 0.0
C253 C 0.90897 0.36648 0.07586 0.0
C254 C 0.93579 0.36791 0.07138 0.0
H255 H 0.00107 0.3943 0.10757 0.0
H256 H 0.97504 0.39729 0.08745 0.0
H257 H 0.97145 0.37969 0.1102 0.0
H258 H 0.95613 0.32477 0.09689 0.0
H259 H 0.90934 0.32213 0.10477 0.0
H260 H 0.89657 0.62013 0.51892 0.0
H261 H 0.94396 0.62206 0.5246 0.0
H262 H 0.93212 0.62993 0.59602 0.0
H263 H 0.88479 0.62784 0.59064 0.0
H264 H 0.97302 0.6537 0.54334 0.0
H265 H 0.98503 0.58343 0.5926 0.0
H266 H 0.95591 0.58888 0.57642 0.0
H267 H 0.96062 0.60019 0.60363 0.0
C268 C 0.904 0.6222 0.53587 0.0
C269 C 0.88682 0.62374 0.55434 0.0
C270 C 0.9311 0.6233 0.53905 0.0
C271 C 0.94151 0.62582 0.56075 0.0
C272 C 0.92447 0.62756 0.57919 0.0
H273 H 0.09463 0.66771 0.60042 0.0
H274 H 0.04801 0.66321 0.59281 0.0
C275 C 0.8974 0.62649 0.57604 0.0
C276 C 0.97019 0.62725 0.56407 0.0
H277 H 0.02172 0.60549 0.59149 0.0
C278 C 0.98372 0.64311 0.55376 0.0
C279 C 0.9841 0.61325 0.57744 0.0
C280 C 0.97076 0.59536 0.588 0.0
C281 C 0.01074 0.64566 0.55695 0.0
C282 C 0.02446 0.63213 0.57106 0.0
C283 C 0.01107 0.61595 0.58088 0.0
C284 C 0.05269 0.63463 0.57596 0.0
C285 C 0.02443 0.66273 0.54507 0.0
C286 C 0.07068 0.61977 0.56955 0.0
C287 C 0.09739 0.62222 0.57395 0.0
C288 C 0.10656 0.63955 0.58501 0.0
C289 C 0.08833 0.65423 0.59177 0.0
C290 C 0.06166 0.65176 0.58733 0.0
H291 H 0.0128 0.6684 0.53056 0.0
H292 H 0.0272 0.67532 0.55708 0.0
H293 H 0.04402 0.658 0.53889 0.0
H294 H 0.06407 0.60637 0.56088 0.0
H295 H 0.11083 0.61059 0.56856 0.0
H296 H 0.88743 0.61294 0.91788 0.0
H297 H 0.93427 0.60931 0.92553 0.0
H298 H 0.94902 0.66633 0.89352 0.0
H299 H 0.90229 0.67026 0.88598 0.0
H300 H 0.97586 0.60856 0.89477 0.0
H301 H 0.98553 0.67197 0.9549 0.0
H302 H 0.95421 0.66155 0.94697 0.0
H303 H 0.97081 0.67871 0.92845 0.0
C304 C 0.90059 0.62476 0.9125 0.0
C305 C 0.89103 0.64195 0.9014 0.0
C306 C 0.92735 0.62264 0.9169 0.0
C307 C 0.94501 0.63769 0.9104 0.0
C308 C 0.93563 0.65473 0.89908 0.0
H309 H 0.11313 0.62903 0.89493 0.0
H310 H 0.06593 0.6327 0.88958 0.0
C311 C 0.9089 0.65688 0.89468 0.0
C312 C 0.97336 0.63536 0.91495 0.0
H313 H 0.02516 0.65712 0.94192 0.0
C314 C 0.98665 0.61911 0.90515 0.0
C315 C 0.98726 0.64903 0.92873 0.0
C316 C 0.97372 0.6662 0.94056 0.0
C317 C 0.01364 0.6164 0.90837 0.0
C318 C 0.02772 0.63048 0.92147 0.0
C319 C 0.01433 0.64648 0.93169 0.0
C320 C 0.05636 0.62881 0.92484 0.0
C321 C 0.02683 0.59837 0.89793 0.0
C322 C 0.06664 0.626 0.94654 0.0
C323 C 0.09364 0.62399 0.94971 0.0
C324 C 0.11087 0.62487 0.93122 0.0
C325 C 0.10047 0.62815 0.90955 0.0
C326 C 0.07347 0.63014 0.90641 0.0
H327 H 0.01246 0.58652 0.89336 0.0
H328 H 0.03709 0.60307 0.88231 0.0
H329 H 0.04157 0.59183 0.9096 0.0
H330 H 0.05371 0.62506 0.96099 0.0
H331 H 0.10094 0.62155 0.96664 0.0
H332 H 0.10467 0.38096 0.41865 0.0
H333 H 0.05802 0.38478 0.42708 0.0
H334 H 0.04155 0.32955 0.39192 0.0
H335 H 0.08804 0.32544 0.38357 0.0
H336 H 0.01504 0.3871 0.39719 0.0
H337 H 0.0076 0.32119 0.45413 0.0
H338 H 0.03861 0.33202 0.44599 0.0
H339 H 0.02141 0.31564 0.42699 0.0
C340 C 0.09116 0.3696 0.41271 0.0
C341 C 0.10019 0.35281 0.40054 0.0
C342 C 0.06451 0.37183 0.41754 0.0
C343 C 0.04644 0.35729 0.41042 0.0
C344 C 0.05527 0.34074 0.39794 0.0
H345 H 0.8776 0.36537 0.40031 0.0
H346 H 0.92468 0.36347 0.39322 0.0
C347 C 0.08187 0.33848 0.39309 0.0
C348 C 0.01829 0.35948 0.41585 0.0
H349 H 0.96756 0.33653 0.44304 0.0
C350 C 0.00464 0.37611 0.40729 0.0
C351 C 0.00492 0.34524 0.42928 0.0
C352 C 0.01889 0.32761 0.43983 0.0
C353 C 0.97776 0.37865 0.41138 0.0
C354 C 0.9642 0.36401 0.42412 0.0
C355 C 0.97798 0.34762 0.4331 0.0
C356 C 0.93568 0.36541 0.42838 0.0
C357 C 0.96417 0.39707 0.40227 0.0
C358 C 0.92626 0.36668 0.45054 0.0
C359 C 0.89935 0.36764 0.4547 0.0
C360 C 0.88132 0.36724 0.43674 0.0
C361 C 0.89089 0.36581 0.41454 0.0
C362 C 0.91781 0.36485 0.41042 0.0
H363 H 0.97835 0.40916 0.39807 0.0
H364 H 0.95349 0.39304 0.38662 0.0
H365 H 0.94975 0.40301 0.41459 0.0
H366 H 0.93976 0.36701 0.46463 0.0
H367 H 0.89273 0.36869 0.472 0.0
H368 H 0.40918 0.82504 0.10485 0.0
H369 H 0.45578 0.831 0.09886 0.0
H370 H 0.43792 0.88536 0.06246 0.0
H371 H 0.39109 0.87969 0.06854 0.0
H372 H 0.48075 0.8338 0.05717 0.0
H373 H 0.49444 0.9032 0.10783 0.0
H374 H 0.46611 0.8872 0.11082 0.0
H375 H 0.46841 0.90426 0.08745 0.0
C376 C 0.41507 0.83838 0.09572 0.0
C377 C 0.39632 0.85188 0.08717 0.0
C378 C 0.44175 0.84174 0.09231 0.0
C379 C 0.45029 0.8587 0.08042 0.0
C380 C 0.43174 0.87235 0.07203 0.0
H381 H 0.60379 0.87196 0.01896 0.0
H382 H 0.55681 0.86979 0.02631 0.0
C383 C 0.40497 0.86902 0.07543 0.0
C384 C 0.47857 0.86145 0.07589 0.0
H385 H 0.53055 0.8925 0.08568 0.0
C386 C 0.49165 0.84663 0.0634 0.0
C387 C 0.49273 0.87811 0.08423 0.0
C388 C 0.47983 0.89404 0.0985 0.0
C389 C 0.51854 0.84806 0.05889 0.0
C390 C 0.53261 0.86493 0.06683 0.0
C391 C 0.5196 0.87969 0.07948 0.0
C392 C 0.56098 0.86724 0.06249 0.0
C393 C 0.53179 0.83133 0.04606 0.0
C394 C 0.57881 0.86707 0.08047 0.0
C395 C 0.60572 0.86836 0.07637 0.0
C396 C 0.61526 0.86995 0.05417 0.0
C397 C 0.5972 0.8706 0.03624 0.0
C398 C 0.57033 0.8693 0.04038 0.0
H399 H 0.51972 0.81745 0.0458 0.0
H400 H 0.53497 0.83615 0.02836 0.0
H401 H 0.55117 0.82773 0.05354 0.0
H402 H 0.57192 0.86556 0.09766 0.0
H403 H 0.61902 0.8679 0.09059 0.0
H404 H 0.60766 0.10872 0.5698 0.0
H405 H 0.56079 0.10449 0.56248 0.0
H406 H 0.54473 0.16012 0.59699 0.0
H407 H 0.5914 0.16464 0.60422 0.0
H408 H 0.51805 0.10269 0.59318 0.0
H409 H 0.51014 0.16755 0.53474 0.0
H410 H 0.5412 0.15671 0.54276 0.0
H411 H 0.52442 0.17348 0.56161 0.0
C412 C 0.59418 0.12006 0.57587 0.0
C413 C 0.60337 0.1371 0.58745 0.0
C414 C 0.56741 0.11759 0.57169 0.0
C415 C 0.5494 0.13215 0.5789 0.0
C416 C 0.5584 0.14891 0.59092 0.0
H417 H 0.38018 0.12459 0.58933 0.0
H418 H 0.42725 0.12634 0.59669 0.0
C419 C 0.5851 0.1514 0.59511 0.0
C420 C 0.52117 0.12992 0.5738 0.0
H421 H 0.47025 0.15243 0.54635 0.0
C422 C 0.50757 0.11349 0.58288 0.0
C423 C 0.5077 0.14393 0.56013 0.0
C424 C 0.52161 0.16132 0.54905 0.0
C425 C 0.48064 0.11094 0.57901 0.0
C426 C 0.467 0.12533 0.56596 0.0
C427 C 0.48074 0.14152 0.55653 0.0
C428 C 0.4385 0.12381 0.56164 0.0
C429 C 0.4671 0.09273 0.58866 0.0
C430 C 0.42923 0.12222 0.53946 0.0
C431 C 0.40237 0.12134 0.53515 0.0
C432 C 0.38419 0.12216 0.55297 0.0
C433 C 0.39359 0.12383 0.5752 0.0
C434 C 0.4205 0.1247 0.57948 0.0
H435 H 0.48129 0.08075 0.59323 0.0
H436 H 0.45638 0.09713 0.60416 0.0
H437 H 0.4527 0.0865 0.57649 0.0
H438 H 0.44283 0.12161 0.52545 0.0
H439 H 0.39589 0.12009 0.51782 0.0
H440 H 0.60445 0.11997 0.9653 0.0
H441 H 0.55755 0.12128 0.95736 0.0
H442 H 0.57375 0.12768 0.88639 0.0
H443 H 0.62077 0.1262 0.89406 0.0
H444 H 0.52988 0.15255 0.93659 0.0
H445 H 0.52055 0.08122 0.88875 0.0
H446 H 0.54872 0.08695 0.90601 0.0
H447 H 0.54545 0.09794 0.87848 0.0
C448 C 0.59812 0.12156 0.94797 0.0
C449 C 0.61645 0.12293 0.93031 0.0
C450 C 0.57128 0.12231 0.94348 0.0
C451 C 0.56222 0.12431 0.92128 0.0
C452 C 0.58037 0.12575 0.90361 0.0
H453 H 0.40848 0.16346 0.87828 0.0
H454 H 0.45531 0.15948 0.88527 0.0
C455 C 0.60725 0.12503 0.90806 0.0
C456 C 0.53375 0.12563 0.91677 0.0
H457 H 0.48331 0.10266 0.88913 0.0
C458 C 0.51967 0.14162 0.92626 0.0
C459 C 0.52049 0.11121 0.90351 0.0
C460 C 0.53447 0.09324 0.89374 0.0
C461 C 0.49269 0.14379 0.92254 0.0
C462 C 0.47957 0.12972 0.90871 0.0
C463 C 0.49353 0.11351 0.89954 0.0
C464 C 0.4513 0.13161 0.90368 0.0
C465 C 0.47837 0.16098 0.93364 0.0
C466 C 0.43363 0.11694 0.91117 0.0
C467 C 0.40679 0.11911 0.90716 0.0
C468 C 0.39718 0.13597 0.89545 0.0
C469 C 0.41511 0.15036 0.88747 0.0
C470 C 0.4419 0.14817 0.89152 0.0
H471 H 0.48977 0.16745 0.94785 0.0
H472 H 0.47504 0.17304 0.92105 0.0
H473 H 0.45899 0.15604 0.94007 0.0
H474 H 0.44058 0.10399 0.92049 0.0
H475 H 0.39358 0.1077 0.91347 0.0
H476 H 0.3778 0.86441 0.39175 0.0
H477 H 0.42501 0.86124 0.38599 0.0
H478 H 0.43775 0.86693 0.45756 0.0
H479 H 0.39056 0.86992 0.46361 0.0
H480 H 0.46524 0.88842 0.3978 0.0
H481 H 0.4767 0.81479 0.44078 0.0
H482 H 0.44521 0.8245 0.43219 0.0
H483 H 0.46073 0.83382 0.45729 0.0
C484 C 0.39058 0.86495 0.40631 0.0
C485 C 0.38032 0.86731 0.42818 0.0
C486 C 0.41757 0.86317 0.40296 0.0
C487 C 0.43478 0.86359 0.42138 0.0
C488 C 0.42471 0.86621 0.44317 0.0
H489 H 0.60395 0.87948 0.4171 0.0
H490 H 0.5569 0.88349 0.42336 0.0
C491 C 0.39773 0.86801 0.44656 0.0
C492 C 0.46332 0.86143 0.41772 0.0
H493 H 0.51568 0.83133 0.42959 0.0
C494 C 0.47631 0.87594 0.40472 0.0
C495 C 0.47757 0.84501 0.42659 0.0
C496 C 0.46437 0.82852 0.43983 0.0
C497 C 0.50331 0.87459 0.40054 0.0
C498 C 0.51766 0.85842 0.40985 0.0
C499 C 0.50462 0.8438 0.42265 0.0
C500 C 0.54615 0.85611 0.40606 0.0
C501 C 0.51615 0.89024 0.38584 0.0
C502 C 0.5557 0.83918 0.39465 0.0
C503 C 0.58256 0.83677 0.39113 0.0
C504 C 0.60044 0.85122 0.39906 0.0
C505 C 0.59077 0.86811 0.41066 0.0
C506 C 0.56387 0.87049 0.41416 0.0
H507 H 0.50155 0.89878 0.37578 0.0
H508 H 0.52689 0.90105 0.39666 0.0
H509 H 0.53046 0.88321 0.37415 0.0
H510 H 0.54232 0.82787 0.38836 0.0
H511 H 0.58927 0.82356 0.38218 0.0
H512 H 0.18125 0.3417 0.14172 0.0
H513 H 0.17432 0.33795 0.18237 0.0
H514 H 0.23552 0.38108 0.19523 0.0
H515 H 0.24288 0.3847 0.15479 0.0
H516 H 0.23817 0.34729 0.22278 0.0
H517 H 0.13813 0.38045 0.22178 0.0
H518 H 0.14306 0.35939 0.20333 0.0
H519 H 0.16027 0.38245 0.19817 0.0
C520 C 0.19333 0.3503 0.15322 0.0
C521 C 0.2125 0.36361 0.14505 0.0
C522 C 0.18923 0.34822 0.1764 0.0
C523 C 0.20412 0.35949 0.19172 0.0
C524 C 0.22375 0.37232 0.18363 0.0
H525 H 0.18112 0.39549 0.32859 0.0
H526 H 0.18328 0.39207 0.2876 0.0
C527 C 0.2279 0.37438 0.16052 0.0
C528 C 0.19924 0.35825 0.21624 0.0
H529 H 0.15422 0.36934 0.25692 0.0
C530 C 0.21977 0.35196 0.23028 0.0
C531 C 0.17528 0.36458 0.22587 0.0
C532 C 0.15295 0.37227 0.21159 0.0
C533 C 0.21715 0.35211 0.2538 0.0
C534 C 0.19315 0.35837 0.26345 0.0
C535 C 0.17249 0.3644 0.2494 0.0
C536 C 0.18975 0.35995 0.28813 0.0
C537 C 0.24043 0.34633 0.26811 0.0
C538 C 0.192 0.34294 0.30192 0.0
C539 C 0.19097 0.34486 0.32534 0.0
C540 C 0.18735 0.36381 0.33533 0.0
C541 C 0.18399 0.3807 0.32141 0.0
C542 C 0.18517 0.37877 0.298 0.0
H543 H 0.25895 0.34636 0.25827 0.0
H544 H 0.24265 0.35673 0.28261 0.0
H545 H 0.23745 0.33095 0.27485 0.0
H546 H 0.19507 0.32823 0.29458 0.0
H547 H 0.19363 0.33155 0.33556 0.0
H548 H 0.83407 0.6378 0.64679 0.0
H549 H 0.83781 0.63926 0.68778 0.0
H550 H 0.75966 0.66353 0.69219 0.0
H551 H 0.75553 0.66194 0.65111 0.0
H552 H 0.83117 0.67051 0.72093 0.0
H553 H 0.75718 0.60941 0.72711 0.0
H554 H 0.77297 0.61596 0.70091 0.0
H555 H 0.74705 0.63139 0.71182 0.0
C556 C 0.81778 0.64373 0.65642 0.0
C557 C 0.79431 0.64943 0.64574 0.0
C558 C 0.82002 0.64461 0.67983 0.0
C559 C 0.79885 0.65116 0.69293 0.0
C560 C 0.77605 0.65814 0.68229 0.0
H561 H 0.7942 0.66452 0.83847 0.0
H562 H 0.79492 0.67075 0.79792 0.0
C563 C 0.77377 0.65727 0.65884 0.0
C564 C 0.79994 0.649 0.71767 0.0
H565 H 0.77387 0.62221 0.76122 0.0
C566 C 0.81859 0.66005 0.72982 0.0
C567 C 0.78378 0.63504 0.72903 0.0
C568 C 0.76424 0.62211 0.7166 0.0
C569 C 0.82139 0.65758 0.7532 0.0
C570 C 0.80495 0.64382 0.76457 0.0
C571 C 0.78637 0.63276 0.75238 0.0
C572 C 0.80662 0.64053 0.78914 0.0
C573 C 0.84223 0.66932 0.76548 0.0
C574 C 0.81278 0.62141 0.79757 0.0
C575 C 0.81235 0.61777 0.82074 0.0
C576 C 0.8056 0.63318 0.83584 0.0
C577 C 0.79979 0.65239 0.82732 0.0
C578 C 0.80026 0.65601 0.80415 0.0
H579 H 0.85706 0.67559 0.7537 0.0
H580 H 0.83294 0.68203 0.77457 0.0
H581 H 0.85235 0.65975 0.7781 0.0
H582 H 0.81758 0.60924 0.78616 0.0
H583 H 0.81687 0.60281 0.82678 0.0
H584 H 0.24529 0.65494 0.83491 0.0
H585 H 0.24206 0.65817 0.79392 0.0
H586 H 0.16314 0.63517 0.7961 0.0
H587 H 0.166 0.63216 0.837 0.0
H588 H 0.23433 0.62579 0.76608 0.0
H589 H 0.15619 0.68234 0.7527 0.0
H590 H 0.17286 0.67935 0.77936 0.0
H591 H 0.14669 0.66263 0.77165 0.0
C592 C 0.22706 0.65096 0.82672 0.0
C593 C 0.20596 0.64318 0.83919 0.0
C594 C 0.22526 0.65281 0.80331 0.0
C595 C 0.20229 0.64707 0.79203 0.0
C596 C 0.18085 0.64006 0.80452 0.0
H597 H 0.18628 0.60062 0.65729 0.0
H598 H 0.18744 0.60619 0.69807 0.0
C599 C 0.18261 0.63821 0.8279 0.0
C600 C 0.20168 0.64628 0.76713 0.0
H601 H 0.16701 0.66157 0.72099 0.0
C602 C 0.21979 0.63378 0.75619 0.0
C603 C 0.18279 0.65682 0.7543 0.0
C604 C 0.16369 0.6712 0.76507 0.0
C605 C 0.21905 0.63106 0.73279 0.0
C606 C 0.19939 0.64084 0.72009 0.0
C607 C 0.1818 0.65386 0.73089 0.0
C608 C 0.197 0.63776 0.69552 0.0
C609 C 0.23935 0.61777 0.72184 0.0
C610 C 0.20119 0.65382 0.68071 0.0
C611 C 0.20047 0.65072 0.65745 0.0
C612 C 0.19535 0.6315 0.64864 0.0
C613 C 0.19039 0.61556 0.66356 0.0
C614 C 0.19114 0.61869 0.68683 0.0
H615 H 0.25665 0.61548 0.73293 0.0
H616 H 0.23059 0.60284 0.71833 0.0
H617 H 0.24608 0.62426 0.7056 0.0
H618 H 0.20568 0.66865 0.68715 0.0
H619 H 0.20452 0.66329 0.64643 0.0
H620 H 0.80508 0.33295 0.15386 0.0
H621 H 0.80379 0.33001 0.19488 0.0
H622 H 0.82046 0.39324 0.20112 0.0
H623 H 0.82248 0.39626 0.16008 0.0
H624 H 0.84777 0.36927 0.23215 0.0
H625 H 0.7413 0.35166 0.23072 0.0
H626 H 0.76152 0.33512 0.21431 0.0
H627 H 0.7585 0.36105 0.20635 0.0
C628 C 0.80888 0.34618 0.16392 0.0
C629 C 0.81377 0.36487 0.15371 0.0
C630 C 0.80794 0.34449 0.18736 0.0
C631 C 0.81157 0.36148 0.20095 0.0
C632 C 0.8175 0.37998 0.19087 0.0
H633 H 0.75965 0.38928 0.33391 0.0
H634 H 0.76734 0.38549 0.29354 0.0
C635 C 0.81859 0.38167 0.16743 0.0
C636 C 0.808 0.36027 0.22562 0.0
H637 H 0.762 0.35182 0.26624 0.0
C638 C 0.82909 0.36534 0.23967 0.0
C639 C 0.78348 0.35534 0.23525 0.0
C640 C 0.75981 0.35064 0.22093 0.0
C641 C 0.82625 0.36584 0.26318 0.0
C642 C 0.80176 0.36082 0.27279 0.0
C643 C 0.78078 0.35549 0.25876 0.0
C644 C 0.7969 0.36242 0.29728 0.0
C645 C 0.84914 0.37244 0.27747 0.0
C646 C 0.81067 0.35043 0.31269 0.0
C647 C 0.80639 0.35261 0.33584 0.0
C648 C 0.78812 0.36672 0.34386 0.0
C649 C 0.7739 0.37832 0.32829 0.0
C650 C 0.77825 0.37617 0.30522 0.0
H651 H 0.86464 0.3798 0.26726 0.0
H652 H 0.84266 0.38303 0.29081 0.0
H653 H 0.85789 0.35912 0.28583 0.0
H654 H 0.82479 0.33946 0.30684 0.0
H655 H 0.81754 0.34337 0.34741 0.0
H656 H 0.67999 0.89457 0.32927 0.0
H657 H 0.68076 0.89088 0.2883 0.0
H658 H 0.69551 0.82741 0.29552 0.0
H659 H 0.69558 0.83106 0.33645 0.0
H660 H 0.72939 0.84492 0.26684 0.0
H661 H 0.62813 0.86718 0.24465 0.0
H662 H 0.64422 0.88563 0.26178 0.0
H663 H 0.63778 0.86105 0.27312 0.0
C664 C 0.68308 0.87978 0.32215 0.0
C665 C 0.68759 0.86309 0.33612 0.0
C666 C 0.6833 0.87767 0.29873 0.0
C667 C 0.68774 0.85881 0.28889 0.0
C668 C 0.69183 0.84207 0.3028 0.0
H669 H 0.67796 0.8435 0.14249 0.0
H670 H 0.67154 0.83869 0.18304 0.0
C671 C 0.69176 0.84418 0.3262 0.0
C672 C 0.69026 0.85687 0.26416 0.0
H673 H 0.6596 0.86769 0.21452 0.0
C674 C 0.714 0.84965 0.25539 0.0
C675 C 0.67002 0.86274 0.24926 0.0
C676 C 0.64351 0.86938 0.25768 0.0
C677 C 0.71848 0.84896 0.2321 0.0
C678 C 0.69889 0.8561 0.21727 0.0
C679 C 0.67471 0.86246 0.22597 0.0
C680 C 0.70359 0.85807 0.1928 0.0
C681 C 0.74419 0.84072 0.22362 0.0
C682 C 0.72367 0.87061 0.18493 0.0
C683 C 0.72744 0.87335 0.16185 0.0
C684 C 0.71102 0.86373 0.14621 0.0
C685 C 0.69097 0.85108 0.15413 0.0
C686 C 0.68725 0.84833 0.17726 0.0
H687 H 0.75322 0.83033 0.23606 0.0
H688 H 0.74162 0.83262 0.20741 0.0
H689 H 0.75803 0.85333 0.22085 0.0
H690 H 0.73611 0.87863 0.19667 0.0
H691 H 0.74295 0.88328 0.15632 0.0
H692 H 0.30088 0.15762 0.83506 0.0
H693 H 0.29954 0.1608 0.79406 0.0
H694 H 0.30961 0.09676 0.78746 0.0
H695 H 0.31177 0.09349 0.82845 0.0
H696 H 0.33991 0.11838 0.75742 0.0
H697 H 0.23645 0.14441 0.75623 0.0
H698 H 0.2581 0.15945 0.77308 0.0
H699 H 0.25156 0.1339 0.78108 0.0
C700 C 0.30312 0.14423 0.82492 0.0
C701 C 0.30642 0.12529 0.83502 0.0
C702 C 0.30211 0.14607 0.80148 0.0
C703 C 0.30402 0.12897 0.78778 0.0
C704 C 0.308 0.11012 0.79778 0.0
H705 H 0.25376 0.10649 0.65286 0.0
H706 H 0.25976 0.10975 0.69349 0.0
C707 C 0.30917 0.10828 0.8212 0.0
C708 C 0.30139 0.13056 0.76301 0.0
H709 H 0.2584 0.14312 0.72124 0.0
C710 C 0.32216 0.12387 0.74947 0.0
C711 C 0.27808 0.13757 0.75277 0.0
C712 C 0.25466 0.14408 0.76649 0.0
C713 C 0.32014 0.12376 0.72589 0.0
C714 C 0.2969 0.1309 0.71565 0.0
C715 C 0.27627 0.13783 0.72919 0.0
C716 C 0.29284 0.12993 0.69099 0.0
C717 C 0.34248 0.11531 0.71219 0.0
C718 C 0.30915 0.14054 0.67615 0.0
C719 C 0.30585 0.13864 0.65285 0.0
C720 C 0.28605 0.1262 0.64408 0.0
C721 C 0.26925 0.11613 0.65905 0.0
C722 C 0.27262 0.11799 0.68228 0.0
H723 H 0.35628 0.10644 0.72273 0.0
H724 H 0.33505 0.10555 0.69842 0.0
H725 H 0.35359 0.12784 0.70442 0.0
H726 H 0.32454 0.15016 0.68257 0.0
H727 H 0.31899 0.1467 0.64174 0.0
H728 H 0.68161 0.15227 0.84367 0.0
H729 H 0.67535 0.15649 0.80301 0.0
H730 H 0.74156 0.11783 0.79036 0.0
H731 H 0.74833 0.11387 0.83082 0.0
H732 H 0.74078 0.15117 0.76286 0.0
H733 H 0.64425 0.11245 0.76329 0.0
H734 H 0.64667 0.13395 0.78146 0.0
H735 H 0.6661 0.11202 0.78719 0.0
C736 C 0.69496 0.14479 0.83222 0.0
C737 C 0.71532 0.13258 0.84044 0.0
C738 C 0.69125 0.14714 0.80902 0.0
C739 C 0.70769 0.13716 0.79374 0.0
C740 C 0.72859 0.12558 0.80191 0.0
H741 H 0.68835 0.09761 0.65824 0.0
H742 H 0.69028 0.10237 0.69903 0.0
C743 C 0.7324 0.12331 0.82505 0.0
C744 C 0.70291 0.13816 0.76919 0.0
H745 H 0.65961 0.12419 0.72825 0.0
C746 C 0.72296 0.14543 0.75525 0.0
C747 C 0.67973 0.13044 0.75941 0.0
C748 C 0.65801 0.12161 0.77354 0.0
C749 C 0.72074 0.1448 0.73171 0.0
C750 C 0.69755 0.13708 0.72192 0.0
C751 C 0.67726 0.13022 0.73587 0.0
C752 C 0.69477 0.13465 0.69727 0.0
C753 C 0.74368 0.15156 0.71756 0.0
C754 C 0.69609 0.15128 0.68282 0.0
C755 C 0.69525 0.14859 0.65948 0.0
C756 C 0.69268 0.12924 0.65024 0.0
C757 C 0.69038 0.1127 0.66482 0.0
C758 C 0.69143 0.11539 0.68812 0.0
H759 H 0.762 0.15262 0.72762 0.0
H760 H 0.74707 0.14109 0.70329 0.0
H761 H 0.73946 0.16665 0.71051 0.0
H762 H 0.69815 0.1663 0.68957 0.0
H763 H 0.6971 0.16165 0.64875 0.0
H764 H 0.31155 0.88599 0.15634 0.0
H765 H 0.30979 0.88002 0.19698 0.0
H766 H 0.29587 0.81704 0.18512 0.0
H767 H 0.2977 0.82281 0.14446 0.0
H768 H 0.26612 0.86401 0.21994 0.0
H769 H 0.35548 0.81748 0.23238 0.0
H770 H 0.35034 0.83266 0.20753 0.0
H771 H 0.3335 0.80916 0.21061 0.0
C772 C 0.3084 0.87083 0.16236 0.0
C773 C 0.30488 0.85486 0.14719 0.0
C774 C 0.30739 0.86746 0.18556 0.0
C775 C 0.30297 0.84807 0.19399 0.0
C776 C 0.29979 0.83204 0.17893 0.0
H777 H 0.25051 0.82794 0.33257 0.0
H778 H 0.25503 0.82518 0.29157 0.0
C779 C 0.30078 0.83539 0.1557 0.0
C780 C 0.30013 0.84494 0.21851 0.0
H781 H 0.32801 0.82209 0.26411 0.0
C782 C 0.27957 0.85479 0.22962 0.0
C783 C 0.31781 0.83294 0.23098 0.0
C784 C 0.34068 0.82255 0.21987 0.0
C785 C 0.27634 0.85317 0.25299 0.0
C786 C 0.29394 0.84111 0.26549 0.0
C787 C 0.3144 0.83111 0.25437 0.0
C788 C 0.2926 0.84016 0.29034 0.0
C789 C 0.25467 0.86493 0.26423 0.0
C790 C 0.31277 0.84869 0.30318 0.0
C791 C 0.31031 0.85022 0.32652 0.0
C792 C 0.28763 0.84321 0.33744 0.0
C793 C 0.26811 0.83363 0.32464 0.0
C794 C 0.2706 0.8321 0.30124 0.0
H795 H 0.24617 0.87646 0.25283 0.0
H796 H 0.23876 0.8545 0.26924 0.0
H797 H 0.26197 0.8725 0.27968 0.0
H798 H 0.32994 0.85491 0.29503 0.0
H799 H 0.32583 0.85752 0.3359 0.0
H800 H 0.31789 0.20463 0.93307 0.0
H801 H 0.3045 0.22626 0.96397 0.0
H802 H 0.27293 0.17517 -0.00056 0.0
H803 H 0.28609 0.15323 0.96824 0.0
H804 H 0.2374 0.20522 -0.00535 0.0
H805 H 0.32918 0.23726 0.02756 0.0
H806 H 0.3287 0.23893 -0.00259 0.0
H807 H 0.32856 0.21461 0.01078 0.0
C808 C 0.30853 0.19786 0.94758 0.0
C809 C 0.30287 0.17721 0.94808 0.0
C810 C 0.30115 0.21025 0.9654 0.0
C811 C 0.28809 0.20229 0.98419 0.0
C812 C 0.28325 0.18156 0.9852 0.0
H813 H 0.23817 0.30381 0.06896 0.0
H814 H 0.25405 0.26961 0.0619 0.0
C815 C 0.29077 0.16907 0.96735 0.0
C816 C 0.27647 0.21621 0.00087 0.0
H817 H 0.29062 0.25933 0.02932 0.0
C818 C 0.24908 0.21671 0.00283 0.0
C819 C 0.29165 0.23095 0.01196 0.0
C820 C 0.32118 0.23026 0.01202 0.0
C821 C 0.23642 0.23277 0.01354 0.0
C822 C 0.25158 0.24879 0.02213 0.0
C823 C 0.27899 0.2472 0.02234 0.0
C824 C 0.23967 0.26844 0.02762 0.0
C825 C 0.20691 0.23295 0.01451 0.0
C826 C 0.22643 0.27906 0.01066 0.0
C827 C 0.21753 0.29852 0.01454 0.0
C828 C 0.22177 0.30786 0.03547 0.0
C829 C 0.23452 0.29703 0.05267 0.0
C830 C 0.24359 0.2775 0.04869 0.0
H831 H 0.19897 0.21743 0.01506 0.0
H832 H 0.1997 0.24135 0.02945 0.0
H833 H 0.19913 0.24029 -0.0009 0.0
H834 H 0.22376 0.27253 -0.00591 0.0
H835 H 0.20777 0.30639 0.00093 0.0
H836 H 0.7787 0.68975 0.57137 0.0
H837 H 0.76323 0.7237 0.56254 0.0
H838 H 0.77885 0.71338 0.49205 0.0
H839 H 0.79459 0.67971 0.5006 0.0
H840 H 0.79388 0.75207 0.50792 0.0
H841 H 0.69145 0.73171 0.53127 0.0
H842 H 0.71669 0.72833 0.55211 0.0
H843 H 0.71649 0.7129 0.52732 0.0
C844 C 0.77915 0.69479 0.55401 0.0
C845 C 0.7876 0.6819 0.53664 0.0
C846 C 0.77022 0.71417 0.54903 0.0
C847 C 0.76959 0.72089 0.52663 0.0
C848 C 0.77915 0.70843 0.50945 0.0
H849 H 0.6859 0.78411 0.43427 0.0
H850 H 0.70346 0.76274 0.46391 0.0
C851 C 0.78805 0.68913 0.51438 0.0
C852 C 0.75746 0.74028 0.52041 0.0
H853 H 0.69764 0.76179 0.51164 0.0
C854 C 0.77292 0.75453 0.50921 0.0
C855 C 0.73011 0.74331 0.52215 0.0
C856 C 0.71256 0.72827 0.53375 0.0
C857 C 0.76153 0.77102 0.49822 0.0
C858 C 0.73399 0.77336 0.49877 0.0
C859 C 0.71875 0.75993 0.51139 0.0
C860 C 0.72049 0.78712 0.48302 0.0
C861 C 0.77878 0.78487 0.48461 0.0
C862 C 0.72354 0.80803 0.48437 0.0
C863 C 0.71354 0.82039 0.4673 0.0
C864 C 0.70043 0.81195 0.44869 0.0
C865 C 0.69616 0.7911 0.4482 0.0
C866 C 0.70606 0.77885 0.4652 0.0
H867 H 0.79945 0.77965 0.48405 0.0
H868 H 0.77136 0.7861 0.46706 0.0
H869 H 0.77843 0.8001 0.49217 0.0
H870 H 0.73436 0.81469 0.49818 0.0
H871 H 0.71704 0.83641 0.46823 0.0
H872 H 0.34117 0.79304 0.0341 0.0
H873 H 0.32952 0.76849 0.00514 0.0
H874 H 0.25506 0.7982 -0.00413 0.0
H875 H 0.2676 0.82353 0.02362 0.0
H876 H 0.2938 0.74369 0.01266 0.0
H877 H 0.26627 0.78079 0.93311 0.0
H878 H 0.28422 0.79377 0.95491 0.0
H879 H 0.24895 0.79226 0.95598 0.0
C880 C 0.3228 0.79473 0.02514 0.0
C881 C 0.30523 0.81005 0.03098 0.0
C882 C 0.31611 0.78071 0.00864 0.0
C883 C 0.29138 0.78142 -0.00178 0.0
C884 C 0.2745 0.79754 0.0031 0.0
H885 H 0.19721 0.67817 0.9792 0.0
H886 H 0.21771 0.70994 0.98956 0.0
C887 C 0.28158 0.81195 0.01912 0.0
C888 C 0.28146 0.76354 0.98589 0.0
H889 H 0.24482 0.7486 0.94066 0.0
C890 C 0.28363 0.74482 -0.00335 0.0
C891 C 0.26829 0.76477 0.9649 0.0
C892 C 0.26708 0.78398 0.95149 0.0
C893 C 0.27207 0.72758 0.98765 0.0
C894 C 0.25696 0.72917 0.96776 0.0
C895 C 0.25588 0.74756 0.95623 0.0
C896 C 0.24152 0.71191 0.95946 0.0
C897 C 0.27593 0.70784 -0.00025 0.0
C898 C 0.2469 0.70319 0.93843 0.0
C899 C 0.23485 0.68513 0.93228 0.0
C900 C 0.21746 0.67553 0.94719 0.0
C901 C 0.21088 0.68503 0.96755 0.0
C902 C 0.2226 0.70316 0.97351 0.0
H903 H 0.29411 0.70792 0.01007 0.0
H904 H 0.25919 0.70523 0.01131 0.0
H905 H 0.27699 0.69512 0.98768 0.0
H906 H 0.26132 0.70983 0.9273 0.0
H907 H 0.24022 0.67816 0.91643 0.0
H908 H 0.68212 0.20426 0.54774 0.0
H909 H 0.6978 0.22527 0.5171 0.0
H910 H 0.73515 0.17398 0.48641 0.0
H911 H 0.71965 0.15268 0.51739 0.0
H912 H 0.76888 0.20493 0.49308 0.0
H913 H 0.68034 0.23412 0.45141 0.0
H914 H 0.67707 0.23649 0.48136 0.0
H915 H 0.67979 0.21188 0.46889 0.0
C916 C 0.69321 0.19729 0.53427 0.0
C917 C 0.69984 0.17683 0.53512 0.0
C918 C 0.70192 0.20931 0.51659 0.0
C919 C 0.71732 0.20114 0.49929 0.0
C920 C 0.72305 0.18052 0.49949 0.0
H921 H 0.77061 0.30326 0.41781 0.0
H922 H 0.75657 0.26849 0.42374 0.0
C923 C 0.71418 0.1684 0.5172 0.0
C924 C 0.73033 0.21489 0.48321 0.0
H925 H 0.71792 0.25722 0.45274 0.0
C926 C 0.75779 0.21601 0.48365 0.0
C927 C 0.71598 0.22908 0.47048 0.0
C928 C 0.68667 0.22767 0.46781 0.0
C929 C 0.77101 0.23222 0.47377 0.0
C930 C 0.75632 0.24777 0.4636 0.0
C931 C 0.72916 0.24549 0.46096 0.0
C932 C 0.76795 0.26767 0.45886 0.0
C933 C 0.80047 0.23304 0.47536 0.0
C934 C 0.77906 0.27868 0.47661 0.0
C935 C 0.78698 0.29849 0.47335 0.0
C936 C 0.78378 0.3078 0.45227 0.0
C937 C 0.77338 0.29654 0.43426 0.0
C938 C 0.76536 0.27667 0.43759 0.0
H939 H 0.809 0.21768 0.47544 0.0
H940 H 0.80908 0.24166 0.46115 0.0
H941 H 0.80613 0.24042 0.49141 0.0
H942 H 0.78062 0.27221 0.49332 0.0
H943 H 0.79491 0.30666 0.48759 0.0
H944 H 0.71696 0.80162 0.07213 0.0
H945 H 0.72963 0.76657 0.06584 0.0
H946 H 0.71612 0.7739 -0.00547 0.0
H947 H 0.70302 0.80859 0.00059 0.0
H948 H 0.69848 0.73693 0.01166 0.0
H949 H 0.80118 0.75387 0.03758 0.0
H950 H 0.77535 0.75862 0.05749 0.0
H951 H 0.77768 0.77357 0.0324 0.0
C952 C 0.71637 0.79569 0.05514 0.0
C953 C 0.70932 0.80802 0.03681 0.0
C954 C 0.72369 0.77568 0.0516 0.0
C955 C 0.72417 0.76777 0.0297 0.0
C956 C 0.71589 0.77974 0.01159 0.0
H957 H 0.80636 0.70546 0.93949 0.0
H958 H 0.7891 0.72552 0.97028 0.0
C959 C 0.70852 0.79963 0.01508 0.0
C960 C 0.73513 0.74767 0.02484 0.0
H961 H 0.79393 0.72418 0.01767 0.0
C962 C 0.71922 0.73377 0.01351 0.0
C963 C 0.76219 0.74367 0.02742 0.0
C964 C 0.78025 0.75818 0.03928 0.0
C965 C 0.73004 0.71693 0.0028 0.0
C966 C 0.75744 0.71384 0.00381 0.0
C967 C 0.77294 0.72665 0.017 0.0
C968 C 0.77078 0.70054 0.98747 0.0
C969 C 0.71248 0.70368 0.98873 0.0
C970 C 0.76689 0.67968 0.98731 0.0
C971 C 0.7767 0.66807 0.96952 0.0
C972 C 0.79044 0.67723 0.95169 0.0
C973 C 0.79557 0.69794 0.95275 0.0
C974 C 0.78585 0.70944 0.97045 0.0
H975 H 0.69196 0.70922 0.98825 0.0
H976 H 0.71995 0.70278 0.97118 0.0
H977 H 0.71241 0.68826 -0.00418 0.0
H978 H 0.75558 0.67252 0.0005 0.0
H979 H 0.77257 0.65212 0.96924 0.0
H980 H 0.27586 0.18847 0.5691 0.0
H981 H 0.2605 0.22274 0.56177 0.0
H982 H 0.28113 0.21627 0.49164 0.0
H983 H 0.29687 0.18238 0.49876 0.0
H984 H 0.29336 0.25421 0.50974 0.0
H985 H 0.19064 0.23102 0.52835 0.0
H986 H 0.21482 0.22764 0.55008 0.0
H987 H 0.21656 0.21287 0.52482 0.0
C988 C 0.27749 0.19446 0.55219 0.0
C989 C 0.28726 0.18255 0.53444 0.0
C990 C 0.2686 0.214 0.54804 0.0
C991 C 0.26931 0.22188 0.52611 0.0
C992 C 0.28037 0.21044 0.50869 0.0
H993 H 0.18712 0.28456 0.43306 0.0
H994 H 0.20442 0.26335 0.46292 0.0
C995 C 0.28926 0.191 0.51279 0.0
C996 C 0.25682 0.24128 0.52041 0.0
H997 H 0.1967 0.26166 0.50995 0.0
C998 C 0.27228 0.25617 0.51029 0.0
C999 C 0.2293 0.24367 0.52119 0.0
C1000 C 0.21172 0.22797 0.53157 0.0
C1001 C 0.26082 0.27263 0.49928 0.0
C1002 C 0.2332 0.2743 0.49875 0.0
C1003 C 0.21787 0.26029 0.51048 0.0
C1004 C 0.21995 0.28793 0.48268 0.0
C1005 C 0.27822 0.28712 0.4867 0.0
C1006 C 0.22226 0.30888 0.48425 0.0
C1007 C 0.21244 0.32115 0.46702 0.0
C1008 C 0.2002 0.3126 0.44804 0.0
C1009 C 0.19668 0.29167 0.44728 0.0
C1010 C 0.20645 0.2795 0.46441 0.0
H1011 H 0.29908 0.28236 0.4868 0.0
H1012 H 0.27166 0.28857 0.46892 0.0
H1013 H 0.27692 0.30217 0.49464 0.0
H1014 H 0.2323 0.31567 0.49841 0.0
H1015 H 0.21532 0.33723 0.4682 0.0
H1016 H 0.78045 0.33809 0.02206 0.0
H1017 H 0.76291 0.31668 0.99195 0.0
H1018 H 0.79215 0.26422 0.0264 0.0
H1019 H 0.80989 0.28527 0.05621 0.0
H1020 H 0.79947 0.26392 0.97859 0.0
H1021 H 0.69702 0.28175 0.00449 0.0
H1022 H 0.71853 0.30215 -0.00277 0.0
H1023 H 0.72463 0.28775 0.02224 0.0
C1024 C 0.78347 0.32202 0.02303 0.0
C1025 C 0.79627 0.31336 0.04169 0.0
C1026 C 0.77335 0.30984 0.00587 0.0
C1027 C 0.77598 0.2889 0.00716 0.0
C1028 C 0.7899 0.28037 0.02514 0.0
H1029 H 0.7033 0.18166 0.98853 0.0
H1030 H 0.7178 0.21564 -0.00302 0.0
C1031 C 0.79991 0.29244 0.04223 0.0
C1032 C 0.76282 0.27536 0.991 0.0
H1033 H 0.70321 0.25408 0.98083 0.0
C1034 C 0.77836 0.26204 0.9785 0.0
C1035 C 0.73529 0.27303 0.99109 0.0
C1036 C 0.71775 0.28682 0.00451 0.0
C1037 C 0.7673 0.24545 0.96749 0.0
C1038 C 0.73992 0.24237 0.96884 0.0
C1039 C 0.72417 0.25658 0.97985 0.0
C1040 C 0.72807 0.22291 0.96254 0.0
C1041 C 0.78518 0.23049 0.95615 0.0
C1042 C 0.72833 0.21596 0.94023 0.0
C1043 C 0.72017 0.19639 0.93531 0.0
C1044 C 0.71157 0.18354 0.95267 0.0
C1045 C 0.71001 0.19104 0.97478 0.0
C1046 C 0.71818 0.21051 0.97964 0.0
H1047 H 0.80621 0.23392 0.95903 0.0
H1048 H 0.78115 0.21508 0.96241 0.0
H1049 H 0.78153 0.23064 0.93771 0.0
H1050 H 0.73554 0.22544 0.92676 0.0
H1051 H 0.72141 0.19116 0.91806 0.0
H1052 H 0.22047 0.65338 0.51447 0.0
H1053 H 0.23567 0.67434 0.48304 0.0
H1054 H 0.2044 0.72686 0.51602 0.0
H1055 H 0.18888 0.70623 0.54705 0.0
H1056 H 0.1967 0.72648 0.46883 0.0
H1057 H 0.30017 0.71053 0.49336 0.0
H1058 H 0.27926 0.68972 0.4863 0.0
H1059 H 0.27313 0.70393 0.51145 0.0
C1060 C 0.21645 0.66935 0.51481 0.0
C1061 C 0.20384 0.67819 0.53345 0.0
C1062 C 0.22523 0.68128 0.49689 0.0
C1063 C 0.22148 0.70216 0.49741 0.0
C1064 C 0.20752 0.71077 0.51532 0.0
H1065 H 0.29025 0.81001 0.48047 0.0
H1066 H 0.27614 0.77575 0.48777 0.0
C1067 C 0.1988 0.69894 0.53314 0.0
C1068 C 0.2339 0.71568 0.48079 0.0
H1069 H 0.29261 0.73818 0.47007 0.0
C1070 C 0.21774 0.72874 0.46847 0.0
C1071 C 0.26136 0.71851 0.48049 0.0
C1072 C 0.27962 0.70504 0.49363 0.0
C1073 C 0.22808 0.74563 0.45751 0.0
C1074 C 0.25533 0.74929 0.45869 0.0
C1075 C 0.27173 0.73525 0.46926 0.0
C1076 C 0.26635 0.76919 0.45305 0.0
C1077 C 0.20956 0.76034 0.4465 0.0
C1078 C 0.26606 0.77672 0.43096 0.0
C1079 C 0.27404 0.79647 0.4267 0.0
C1080 C 0.28243 0.80893 0.44449 0.0
C1081 C 0.28372 0.80094 0.46639 0.0
C1082 C 0.27577 0.7813 0.4706 0.0
H1083 H 0.18869 0.75622 0.44909 0.0
H1084 H 0.21277 0.77568 0.45332 0.0
H1085 H 0.21341 0.76082 0.4281 0.0
H1086 H 0.25916 0.76749 0.41716 0.0
H1087 H 0.27296 0.80211 0.4096 0.0
H1088 H 0.15862 0.55434 0.91826 0.0
H1089 H 0.15116 0.52344 0.93978 0.0
H1090 H 0.21391 0.53974 0.98507 0.0
H1091 H 0.22003 0.57114 0.96461 0.0
H1092 H 0.17874 0.49274 0.94614 0.0
H1093 H 0.1619 0.52446 0.03043 0.0
H1094 H 0.16303 0.54009 0.00564 0.0
H1095 H 0.19278 0.5334 0.02036 0.0
C1096 C 0.17054 0.55135 0.933 0.0
C1097 C 0.18974 0.56509 0.93995 0.0
C1098 C 0.16628 0.53374 0.94529 0.0
C1099 C 0.18151 0.52944 0.96445 0.0
C1100 C 0.20112 0.54304 0.97098 0.0
H1101 H 0.22589 0.4137 0.01224 0.0
H1102 H 0.21723 0.44436 0.99095 0.0
C1103 C 0.20484 0.56088 0.95913 0.0
C1104 C 0.17825 0.5102 0.97677 0.0
H1105 H 0.17866 0.49023 0.02967 0.0
C1106 C 0.17819 0.49222 0.96441 0.0
C1107 C 0.17664 0.50937 0.00059 0.0
C1108 C 0.17325 0.52791 0.01493 0.0
C1109 C 0.17817 0.47349 0.97523 0.0
C1110 C 0.1797 0.47273 -0.00094 0.0
C1111 C 0.17814 0.49069 0.0114 0.0
C1112 C 0.18427 0.4537 0.01152 0.0
C1113 C 0.17638 0.45483 0.96088 0.0
C1114 C 0.16949 0.4491 0.03084 0.0
C1115 C 0.17526 0.43203 0.04361 0.0
C1116 C 0.1955 0.41906 0.03696 0.0
C1117 C 0.20998 0.42341 0.0175 0.0
C1118 C 0.20479 0.4408 0.00517 0.0
H1119 H 0.16483 0.45775 0.94533 0.0
H1120 H 0.19634 0.45027 0.95553 0.0
H1121 H 0.16713 0.44219 0.97012 0.0
H1122 H 0.15364 0.45881 0.03618 0.0
H1123 H 0.16374 0.42887 0.05853 0.0
H1124 H 0.78337 0.58048 0.51553 0.0
H1125 H 0.78449 0.54784 0.49661 0.0
H1126 H 0.81637 0.52062 0.5566 0.0
H1127 H 0.81528 0.55321 0.57576 0.0
H1128 H 0.84202 0.51153 0.51086 0.0
H1129 H 0.73433 0.49919 0.51633 0.0
H1130 H 0.7451 0.52344 0.50662 0.0
H1131 H 0.75161 0.51595 0.53512 0.0
C1132 C 0.79078 0.56759 0.52467 0.0
C1133 C 0.7992 0.56938 0.54714 0.0
C1134 C 0.79131 0.54898 0.51386 0.0
C1135 C 0.80034 0.53194 0.52533 0.0
C1136 C 0.80928 0.53369 0.54757 0.0
H1137 H 0.78193 0.40752 0.48423 0.0
H1138 H 0.7856 0.43852 0.50619 0.0
C1139 C 0.80858 0.55227 0.55846 0.0
C1140 C 0.80004 0.5122 0.51414 0.0
H1141 H 0.75873 0.47583 0.49486 0.0
C1142 C 0.82388 0.50363 0.50741 0.0
C1143 C 0.7763 0.50199 0.50995 0.0
C1144 C 0.75032 0.51046 0.51747 0.0
C1145 C 0.82451 0.48518 0.49602 0.0
C1146 C 0.80069 0.47525 0.49127 0.0
C1147 C 0.77692 0.4836 0.4985 0.0
C1148 C 0.7999 0.45636 0.47832 0.0
C1149 C 0.85057 0.47641 0.48916 0.0
C1150 C 0.80664 0.45627 0.45542 0.0
C1151 C 0.80447 0.43865 0.44282 0.0
C1152 C 0.79554 0.42085 0.45297 0.0
C1153 C 0.78904 0.42096 0.47599 0.0
C1154 C 0.79107 0.43863 0.48854 0.0
H1155 H 0.86711 0.48361 0.49825 0.0
H1156 H 0.85105 0.45999 0.49243 0.0
H1157 H 0.8535 0.47877 0.47081 0.0
H1158 H 0.81312 0.46992 0.44721 0.0
H1159 H 0.80959 0.43904 0.42511 0.0
H1160 H 0.78484 0.44725 0.07227 0.0
H1161 H 0.78558 0.4757 0.04635 0.0
H1162 H 0.82753 0.44008 -0.00245 0.0
H1163 H 0.82718 0.41145 0.02354 0.0
H1164 H 0.84782 0.47937 0.00368 0.0
H1165 H 0.74044 0.47994 0.9891 0.0
H1166 H 0.74955 0.48069 0.01833 0.0
H1167 H 0.75724 0.45889 0.00172 0.0
C1168 C 0.79423 0.44541 0.05603 0.0
C1169 C 0.80578 0.42704 0.04989 0.0
C1170 C 0.79454 0.46168 0.04121 0.0
C1171 C 0.80622 0.45985 0.01993 0.0
C1172 C 0.81828 0.4417 0.01388 0.0
H1173 H 0.78236 0.54369 0.90988 0.0
H1174 H 0.78585 0.51373 0.93345 0.0
C1175 C 0.81802 0.42538 0.02872 0.0
C1176 C 0.80577 0.47696 0.00405 0.0
H1177 H 0.76427 0.50818 0.97566 0.0
C1178 C 0.8296 0.48563 -0.00258 0.0
C1179 C 0.78195 0.48488 -0.00427 0.0
C1180 C 0.75584 0.47553 0.00139 0.0
C1181 C 0.83019 0.5024 0.98308 0.0
C1182 C 0.80631 0.51079 0.9755 0.0
C1183 C 0.78253 0.50181 0.9817 0.0
C1184 C 0.80542 0.52885 0.96098 0.0
C1185 C 0.85634 0.51085 0.976 0.0
C1186 C 0.81515 0.5473 0.96874 0.0
C1187 C 0.81321 0.56448 0.95531 0.0
C1188 C 0.80132 0.5635 0.93394 0.0
C1189 C 0.79162 0.54497 0.92625 0.0
C1190 C 0.79361 0.52782 0.93967 0.0
H1191 H 0.8724 0.49977 0.97836 0.0
H1192 H 0.85597 0.5156 0.95806 0.0
H1193 H 0.86087 0.52422 0.98646 0.0
H1194 H 0.82386 0.54848 0.98534 0.0
H1195 H 0.82078 0.57855 0.96175 0.0
H1196 H 0.2486 0.42498 0.44581 0.0
H1197 H 0.24762 0.45686 0.46616 0.0
H1198 H 0.16348 0.45311 0.47105 0.0
H1199 H 0.16425 0.42104 0.45093 0.0
H1200 H 0.22151 0.4916 0.45201 0.0
H1201 H 0.18586 0.4662 0.53581 0.0
H1202 H 0.19884 0.44904 0.51505 0.0
H1203 H 0.16603 0.45851 0.51233 0.0
C1204 C 0.22989 0.43079 0.45144 0.0
C1205 C 0.2065 0.42047 0.44676 0.0
C1206 C 0.22938 0.44902 0.46303 0.0
C1207 C 0.20552 0.45723 0.47026 0.0
C1208 C 0.18215 0.44684 0.46595 0.0
H1209 H 0.16753 0.56968 0.53768 0.0
H1210 H 0.16527 0.5379 0.51705 0.0
C1211 C 0.18263 0.42856 0.45437 0.0
C1212 C 0.20509 0.47716 0.48126 0.0
H1213 H 0.18926 0.50131 0.53014 0.0
C1214 C 0.21452 0.49374 0.46911 0.0
C1215 C 0.19579 0.47987 0.5035 0.0
C1216 C 0.18625 0.46246 0.51756 0.0
C1217 C 0.21483 0.51302 0.4786 0.0
C1218 C 0.20585 0.51569 0.50093 0.0
C1219 C 0.1961 0.49917 0.513 0.0
C1220 C 0.20716 0.53539 0.51237 0.0
C1221 C 0.22449 0.53041 0.46458 0.0
C1222 C 0.23148 0.54445 0.51653 0.0
C1223 C 0.23286 0.56258 0.52829 0.0
C1224 C 0.20993 0.57192 0.5362 0.0
C1225 C 0.18556 0.5629 0.53176 0.0
C1226 C 0.18421 0.54473 0.52003 0.0
H1227 H 0.22405 0.52689 0.44627 0.0
H1228 H 0.21253 0.54407 0.46764 0.0
H1229 H 0.24505 0.53383 0.46928 0.0
H1230 H 0.24945 0.53728 0.51108 0.0
H1231 H 0.25195 0.56908 0.5315 0.0
H1232 H 0.70049 0.05269 0.91377 0.0
H1233 H 0.6982 0.02041 0.93342 0.0
H1234 H 0.70685 0.05065 -0.00277 0.0
H1235 H 0.70954 0.08295 0.97782 0.0
H1236 H 0.73967 0.00575 0.96557 0.0
H1237 H 0.63995 0.01288 0.00265 0.0
H1238 H 0.65012 0.02691 0.97808 0.0
H1239 H 0.66142 0.03416 0.00553 0.0
C1240 C 0.70176 0.0525 0.932 0.0
C1241 C 0.70501 0.07041 0.94426 0.0
C1242 C 0.70044 0.03407 0.94315 0.0
C1243 C 0.70206 0.03329 0.96671 0.0
C1244 C 0.70518 0.05108 0.97903 0.0
H1245 H 0.70041 0.94063 0.06802 0.0
H1246 H 0.69932 0.97201 0.0467 0.0
C1247 C 0.70671 0.0695 0.96789 0.0
C1248 C 0.70168 0.01378 0.97841 0.0
H1249 H 0.66535 0.98499 0.01416 0.0
C1250 C 0.7234 0.00108 0.9761 0.0
C1251 C 0.68045 0.00798 0.99217 0.0
C1252 C 0.65652 0.02108 -0.00526 0.0
C1253 C 0.72474 0.98276 0.9877 0.0
C1254 C 0.70343 0.97686 0.00144 0.0
C1255 C 0.68161 0.98955 0.00358 0.0
C1256 C 0.70364 0.95775 0.01413 0.0
C1257 C 0.7493 0.97025 0.98568 0.0
C1258 C 0.70606 0.93934 0.00282 0.0
C1259 C 0.70695 0.9214 0.01497 0.0
C1260 C 0.70499 0.92155 0.0386 0.0
C1261 C 0.70199 0.94 0.04983 0.0
C1262 C 0.70131 0.95794 0.03768 0.0
H1263 H 0.7662 0.97932 0.97971 0.0
H1264 H 0.75455 0.9633 0.00209 0.0
H1265 H 0.74596 0.95806 0.97327 0.0
H1266 H 0.70731 0.93885 0.98461 0.0
H1267 H 0.70935 0.90748 0.00581 0.0
H1268 H 0.30089 0.94019 0.40926 0.0
H1269 H 0.3035 0.97195 0.42993 0.0
H1270 H 0.28871 0.9407 0.49227 0.0
H1271 H 0.28559 0.90894 0.47182 0.0
H1272 H 0.25962 0.98658 0.46186 0.0
H1273 H 0.35826 0.97677 0.50051 0.0
H1274 H 0.34883 0.96423 0.47473 0.0
H1275 H 0.3361 0.95574 0.50123 0.0
C1276 C 0.2983 0.94004 0.42738 0.0
C1277 C 0.29323 0.92201 0.43893 0.0
C1278 C 0.29982 0.95818 0.43912 0.0
C1279 C 0.29657 0.95851 0.46256 0.0
C1280 C 0.2916 0.9406 0.47417 0.0
H1281 H 0.29967 0.05004 0.56559 0.0
H1282 H 0.30042 0.01877 0.54402 0.0
C1283 C 0.28986 0.92248 0.46245 0.0
C1284 C 0.29723 0.97772 0.47484 0.0
H1285 H 0.33392 0.00527 0.51156 0.0
C1286 C 0.27587 0.99079 0.47265 0.0
C1287 C 0.31841 0.9829 0.48898 0.0
C1288 C 0.34185 0.96929 0.49153 0.0
C1289 C 0.27488 0.0089 0.48465 0.0
C1290 C 0.29623 0.01426 0.49866 0.0
C1291 C 0.31765 0.00115 0.50075 0.0
C1292 C 0.29651 0.03327 0.51153 0.0
C1293 C 0.25066 0.02181 0.48271 0.0
C1294 C 0.29454 0.05178 0.50037 0.0
C1295 C 0.29382 0.06965 0.51265 0.0
C1296 C 0.29555 0.06934 0.5363 0.0
C1297 C 0.29827 0.05079 0.54739 0.0
C1298 C 0.29874 0.03292 0.5351 0.0
H1299 H 0.23354 0.01303 0.47665 0.0
H1300 H 0.24557 0.02873 0.49917 0.0
H1301 H 0.25432 0.03402 0.47039 0.0
H1302 H 0.29341 0.05241 0.48215 0.0
H1303 H 0.29166 0.08364 0.50358 0.0
H1304 H 0.32623 0.91204 0.02456 0.0
H1305 H 0.32894 0.94328 0.00287 0.0
H1306 H 0.27272 0.97085 0.04744 0.0
H1307 H 0.27007 0.93988 0.06932 0.0
H1308 H 0.28864 0.96342 0.98047 0.0
H1309 H 0.33296 0.01153 0.04653 0.0
H1310 H 0.33261 0.98446 0.04834 0.0
H1311 H 0.30391 -0.00129 0.05566 0.0
C1312 C 0.31452 0.92478 0.02979 0.0
C1313 C 0.29801 0.92351 0.04871 0.0
C1314 C 0.31611 0.9426 0.01739 0.0
C1315 C 0.30137 0.95945 0.0238 0.0
C1316 C 0.2847 0.95816 0.04253 0.0
H1317 H 0.25337 0.06167 0.94533 0.0
H1318 H 0.25675 0.03081 0.96741 0.0
C1319 C 0.28308 0.94038 0.05491 0.0
C1320 C 0.30257 0.97819 0.01045 0.0
H1321 H 0.31518 0.02841 0.01444 0.0
C1322 C 0.29464 0.97761 0.98782 0.0
C1323 C 0.31074 -0.0034 0.02003 0.0
C1324 C 0.32079 -0.0021 0.04391 0.0
C1325 C 0.29385 -0.00489 0.97468 0.0
C1326 C 0.30078 0.01368 0.98459 0.0
C1327 C 0.30956 0.01417 0.00699 0.0
C1328 C 0.29871 0.0328 0.97201 0.0
C1329 C 0.28568 0.99355 0.95029 0.0
C1330 C 0.32107 0.0445 0.96801 0.0
C1331 C 0.31919 0.06225 0.95552 0.0
C1332 C 0.29488 0.06861 0.94692 0.0
C1333 C 0.27242 0.05712 0.95155 0.0
C1334 C 0.27432 0.03941 0.96405 0.0
H1335 H 0.28795 0.978 0.94377 0.0
H1336 H 0.26473 -0.00222 0.94873 0.0
H1337 H 0.29734 0.00387 0.93954 0.0
H1338 H 0.34004 0.0397 0.97419 0.0
H1339 H 0.33685 0.07079 0.95231 0.0
H1340 H 0.74545 0.05576 0.55598 0.0
H1341 H 0.74275 0.02378 0.53597 0.0
H1342 H 0.66462 0.03853 0.51374 0.0
H1343 H 0.66726 0.07075 0.53345 0.0
H1344 H 0.70652 0.99315 0.54323 0.0
H1345 H 0.70118 0.02172 0.45531 0.0
H1346 H 0.71135 0.03727 0.47865 0.0
H1347 H 0.67719 0.03211 0.47415 0.0
C1348 C 0.72776 0.05231 0.54667 0.0
C1349 C 0.70659 0.06582 0.54625 0.0
C1350 C 0.72625 0.03401 0.53529 0.0
C1351 C 0.7036 0.0289 0.52321 0.0
C1352 C 0.68246 0.04236 0.52263 0.0
H1353 H 0.66191 0.92268 0.44593 0.0
H1354 H 0.6607 0.95407 0.46728 0.0
C1355 C 0.68397 0.06073 0.53397 0.0
C1356 C 0.7019 0.00914 0.5119 0.0
H1357 H 0.69521 0.98677 0.46047 0.0
C1358 C 0.70408 0.99173 0.52513 0.0
C1359 C 0.69863 0.00739 0.48831 0.0
C1360 C 0.69717 0.02559 0.4732 0.0
C1361 C 0.70297 0.97256 0.51539 0.0
C1362 C 0.69994 0.97082 0.49179 0.0
C1363 C 0.69746 0.98821 0.47859 0.0
C1364 C 0.70009 0.95112 0.4803 0.0
C1365 C 0.70475 0.95434 0.53042 0.0
C1366 C 0.72262 0.93906 0.48069 0.0
C1367 C 0.72341 0.92112 0.46851 0.0
C1368 C 0.7017 0.915 0.45564 0.0
C1369 C 0.67896 0.92694 0.45568 0.0
C1370 C 0.67823 0.9449 0.46783 0.0
H1371 H 0.70018 0.95806 0.54825 0.0
H1372 H 0.69115 0.94238 0.52466 0.0
H1373 H 0.72498 0.94827 0.52979 0.0
H1374 H 0.73986 0.94379 0.48992 0.0
H1375 H 0.74124 0.9123 0.46877 0.0
loop_
_geom_bond_atom_site_label_1
_geom_bond_atom_site_label_2
_geom_bond_distance
_geom_bond_site_symmetry_2
_ccdc_geom_bond_type
Mg0 O1 2.028 . S
Mg0 O7 1.986 . S
Mg0 O9 2.114 . S
Mg0 O10 2.251 . S
Mg0 O13 2.010 . S
O1 Mg0 2.028 . S
O1 C4 1.250 . S
O2 Mg3 2.028 . S
O2 C4 1.248 . S
Mg3 O2 2.028 . S
Mg3 O8 2.032 . S
Mg3 O10 2.079 . S
C4 O1 1.250 . S
C4 O2 1.248 . S
C5 O6 1.264 . S
C5 O13 1.249 . S
O6 C5 1.264 . S
O7 Mg0 1.986 . S
O7 C11 1.246 . S
O8 Mg3 2.032 . S
O8 C11 1.259 . S
O9 Mg0 2.114 . S
O9 C12 1.252 . S
O10 Mg0 2.251 . S
O10 Mg3 2.079 . S
O10 C12 1.273 . S
C11 O7 1.246 . S
C11 O8 1.259 . S
C12 O9 1.252 . S
C12 O10 1.273 . S
O13 Mg0 2.010 . S
O13 C5 1.249 . S
Mg14 O15 2.028 . S
Mg14 O21 1.986 . S
Mg14 O23 2.114 . S
Mg14 O24 2.251 . S
Mg14 O27 2.010 . S
O15 Mg14 2.028 . S
O15 C18 1.250 . S
O16 Mg17 2.028 . S
O16 C18 1.248 . S
Mg17 O16 2.028 . S
Mg17 O22 2.032 . S
Mg17 O24 2.079 . S
C18 O15 1.250 . S
C18 O16 1.248 . S
C19 O20 1.264 . S
C19 O27 1.249 . S
O20 C19 1.264 . S
O21 Mg14 1.986 . S
O21 C25 1.246 . S
O22 Mg17 2.032 . S
O22 C25 1.259 . S
O23 Mg14 2.114 . S
O23 C26 1.252 . S
O24 Mg14 2.251 . S
O24 Mg17 2.079 . S
O24 C26 1.273 . S
C25 O21 1.246 . S
C25 O22 1.259 . S
C26 O23 1.252 . S
C26 O24 1.273 . S
O27 Mg14 2.010 . S
O27 C19 1.249 . S
Mg28 O29 2.028 . S
Mg28 O35 1.986 . S
Mg28 O37 2.114 . S
Mg28 O38 2.251 . S
Mg28 O41 2.010 . S
O29 Mg28 2.028 . S
O29 C32 1.250 . S
O30 Mg31 2.028 . S
O30 C32 1.248 . S
Mg31 O30 2.028 . S
Mg31 O36 2.032 . S
Mg31 O38 2.079 . S
C32 O29 1.250 . S
C32 O30 1.248 . S
C33 O34 1.264 . S
C33 O41 1.249 . S
O34 C33 1.264 . S
O35 Mg28 1.986 . S
O35 C39 1.246 . S
O36 Mg31 2.032 . S
O36 C39 1.259 . S
O37 Mg28 2.114 . S
O37 C40 1.252 . S
O38 Mg28 2.251 . S
O38 Mg31 2.079 . S
O38 C40 1.273 . S
C39 O35 1.246 . S
C39 O36 1.259 . S
C40 O37 1.252 . S
C40 O38 1.273 . S
O41 Mg28 2.010 . S
O41 C33 1.249 . S
Mg42 O43 2.028 . S
Mg42 O49 1.986 . S
Mg42 O51 2.114 . S
Mg42 O52 2.251 . S
Mg42 O55 2.010 . S
O43 Mg42 2.028 . S
O43 C46 1.250 . S
O44 Mg45 2.028 . S
O44 C46 1.248 . S
Mg45 O44 2.028 . S
Mg45 O50 2.032 . S
Mg45 O52 2.079 . S
C46 O43 1.250 . S
C46 O44 1.248 . S
C47 O48 1.264 . S
C47 O55 1.249 . S
O48 C47 1.264 . S
O49 Mg42 1.986 . S
O49 C53 1.246 . S
O50 Mg45 2.032 . S
O50 C53 1.259 . S
O51 Mg42 2.114 . S
O51 C54 1.252 . S
O52 Mg42 2.251 . S
O52 Mg45 2.079 . S
O52 C54 1.273 . S
C53 O49 1.246 . S
C53 O50 1.259 . S
C54 O51 1.252 . S
C54 O52 1.273 . S
O55 Mg42 2.010 . S
O55 C47 1.249 . S
Mg56 O57 2.028 . S
Mg56 O63 1.986 . S
Mg56 O65 2.114 . S
Mg56 O66 2.251 . S
Mg56 O69 2.010 . S
O57 Mg56 2.028 . S
O57 C60 1.250 . S
O58 Mg59 2.028 . S
O58 C60 1.248 . S
Mg59 O58 2.028 . S
Mg59 O64 2.032 . S
Mg59 O66 2.079 . S
C60 O57 1.250 . S
C60 O58 1.248 . S
C61 O62 1.264 . S
C61 O69 1.249 . S
O62 C61 1.264 . S
O63 Mg56 1.986 . S
O63 C67 1.246 . S
O64 Mg59 2.032 . S
O64 C67 1.259 . S
O65 Mg56 2.114 . S
O65 C68 1.252 . S
O66 Mg56 2.251 . S
O66 Mg59 2.079 . S
O66 C68 1.273 . S
C67 O63 1.246 . S
C67 O64 1.259 . S
C68 O65 1.252 . S
C68 O66 1.273 . S
O69 Mg56 2.010 . S
O69 C61 1.249 . S
Mg70 O71 2.028 . S
Mg70 O77 1.986 . S
Mg70 O79 2.114 . S
Mg70 O80 2.251 . S
Mg70 O83 2.010 . S
O71 Mg70 2.028 . S
O71 C74 1.250 . S
O72 Mg73 2.028 . S
O72 C74 1.248 . S
Mg73 O72 2.028 . S
Mg73 O78 2.032 . S
Mg73 O80 2.079 . S
C74 O71 1.250 . S
C74 O72 1.248 . S
C75 O76 1.264 . S
C75 O83 1.249 . S
O76 C75 1.264 . S
O77 Mg70 1.986 . S
O77 C81 1.246 . S
O78 Mg73 2.032 . S
O78 C81 1.259 . S
O79 Mg70 2.114 . S
O79 C82 1.252 . S
O80 Mg70 2.251 . S
O80 Mg73 2.079 . S
O80 C82 1.273 . S
C81 O77 1.246 . S
C81 O78 1.259 . S
C82 O79 1.252 . S
C82 O80 1.273 . S
O83 Mg70 2.010 . S
O83 C75 1.249 . S
Mg84 O85 2.028 . S
Mg84 O91 1.986 . S
Mg84 O93 2.114 . S
Mg84 O94 2.251 . S
Mg84 O97 2.010 . S
O85 Mg84 2.028 . S
O85 C88 1.250 . S
O86 Mg87 2.028 . S
O86 C88 1.248 . S
Mg87 O86 2.028 . S
Mg87 O92 2.032 . S
Mg87 O94 2.079 . S
C88 O85 1.250 . S
C88 O86 1.248 . S
C89 O90 1.264 . S
C89 O97 1.249 . S
O90 C89 1.264 . S
O91 Mg84 1.986 . S
O91 C95 1.246 . S
O92 Mg87 2.032 . S
O92 C95 1.259 . S
O93 Mg84 2.114 . S
O93 C96 1.252 . S
O94 Mg84 2.251 . S
O94 Mg87 2.079 . S
O94 C96 1.273 . S
C95 O91 1.246 . S
C95 O92 1.259 . S
C96 O93 1.252 . S
C96 O94 1.273 . S
O97 Mg84 2.010 . S
O97 C89 1.249 . S
Mg98 O99 2.028 . S
Mg98 O105 1.986 . S
Mg98 O107 2.114 . S
Mg98 O108 2.251 . S
Mg98 O111 2.010 . S
O99 Mg98 2.028 . S
O99 C102 1.250 . S
O100 Mg101 2.028 . S
O100 C102 1.248 . S
Mg101 O100 2.028 . S
Mg101 O106 2.032 . S
Mg101 O108 2.079 . S
C102 O99 1.250 . S
C102 O100 1.248 . S
C103 O104 1.264 . S
C103 O111 1.249 . S
O104 C103 1.264 . S
O105 Mg98 1.986 . S
O105 C109 1.246 . S
O106 Mg101 2.032 . S
O106 C109 1.259 . S
O107 Mg98 2.114 . S
O107 C110 1.252 . S
O108 Mg98 2.251 . S
O108 Mg101 2.079 . S
O108 C110 1.273 . S
C109 O105 1.246 . S
C109 O106 1.259 . S
C110 O107 1.252 . S
C110 O108 1.273 . S
O111 Mg98 2.010 . S
O111 C103 1.249 . S
Mg112 O113 2.028 . S
Mg112 O119 1.986 . S
Mg112 O121 2.114 . S
Mg112 O122 2.251 . S
Mg112 O125 2.010 . S
O113 Mg112 2.028 . S
O113 C116 1.250 . S
O114 Mg115 2.028 . S
O114 C116 1.248 . S
Mg115 O114 2.028 . S
Mg115 O120 2.032 . S
Mg115 O122 2.079 . S
C116 O113 1.250 . S
C116 O114 1.248 . S
C117 O118 1.264 . S
C117 O125 1.249 . S
O118 C117 1.264 . S
O119 Mg112 1.986 . S
O119 C123 1.246 . S
O120 Mg115 2.032 . S
O120 C123 1.259 . S
O121 Mg112 2.114 . S
O121 C124 1.252 . S
O122 Mg112 2.251 . S
O122 Mg115 2.079 . S
O122 C124 1.273 . S
C123 O119 1.246 . S
C123 O120 1.259 . S
C124 O121 1.252 . S
C124 O122 1.273 . S
O125 Mg112 2.010 . S
O125 C117 1.249 . S
Mg126 O127 2.028 . S
Mg126 O133 1.986 . S
Mg126 O135 2.114 . S
Mg126 O136 2.251 . S
Mg126 O139 2.010 . S
O127 Mg126 2.028 . S
O127 C130 1.250 . S
O128 Mg129 2.028 . S
O128 C130 1.248 . S
Mg129 O128 2.028 . S
Mg129 O134 2.032 . S
Mg129 O136 2.079 . S
C130 O127 1.250 . S
C130 O128 1.248 . S
C131 O132 1.264 . S
C131 O139 1.249 . S
O132 C131 1.264 . S
O133 Mg126 1.986 . S
O133 C137 1.246 . S
O134 Mg129 2.032 . S
O134 C137 1.259 . S
O135 Mg126 2.114 . S
O135 C138 1.252 . S
O136 Mg126 2.251 . S
O136 Mg129 2.079 . S
O136 C138 1.273 . S
C137 O133 1.246 . S
C137 O134 1.259 . S
C138 O135 1.252 . S
C138 O136 1.273 . S
O139 Mg126 2.010 . S
O139 C131 1.249 . S
Mg140 O141 2.028 . S
Mg140 O147 1.986 . S
Mg140 O149 2.114 . S
Mg140 O150 2.251 . S
Mg140 O153 2.010 . S
O141 Mg140 2.028 . S
O141 C144 1.250 . S
O142 Mg143 2.028 . S
O142 C144 1.248 . S
Mg143 O142 2.028 . S
Mg143 O148 2.032 . S
Mg143 O150 2.079 . S
C144 O141 1.250 . S
C144 O142 1.248 . S
C145 O146 1.264 . S
C145 O153 1.249 . S
O146 C145 1.264 . S
O147 Mg140 1.986 . S
O147 C151 1.246 . S
O148 Mg143 2.032 . S
O148 C151 1.259 . S
O149 Mg140 2.114 . S
O149 C152 1.252 . S
O150 Mg140 2.251 . S
O150 Mg143 2.079 . S
O150 C152 1.273 . S
C151 O147 1.246 . S
C151 O148 1.259 . S
C152 O149 1.252 . S
C152 O150 1.273 . S
O153 Mg140 2.010 . S
O153 C145 1.249 . S
Mg154 O155 2.028 . S
Mg154 O161 1.986 . S
Mg154 O163 2.114 . S
Mg154 O164 2.251 . S
Mg154 O167 2.010 . S
O155 Mg154 2.028 . S
O155 C158 1.250 . S
O156 Mg157 2.028 . S
O156 C158 1.248 . S
Mg157 O156 2.028 . S
Mg157 O162 2.032 . S
Mg157 O164 2.079 . S
C158 O155 1.250 . S
C158 O156 1.248 . S
C159 O160 1.264 . S
C159 O167 1.249 . S
O160 C159 1.264 . S
O161 Mg154 1.986 . S
O161 C165 1.246 . S
O162 Mg157 2.032 . S
O162 C165 1.259 . S
O163 Mg154 2.114 . S
O163 C166 1.252 . S
O164 Mg154 2.251 . S
O164 Mg157 2.079 . S
O164 C166 1.273 . S
C165 O161 1.246 . S
C165 O162 1.259 . S
C166 O163 1.252 . S
C166 O164 1.273 . S
O167 Mg154 2.010 . S
O167 C159 1.249 . S
Mg168 O169 2.028 . S
Mg168 O175 1.986 . S
Mg168 O177 2.114 . S
Mg168 O178 2.251 . S
Mg168 O181 2.010 . S
O169 Mg168 2.028 . S
O169 C172 1.250 . S
O170 Mg171 2.028 . S
O170 C172 1.248 . S
Mg171 O170 2.028 . S
Mg171 O176 2.032 . S
Mg171 O178 2.079 . S
C172 O169 1.250 . S
C172 O170 1.248 . S
C173 O174 1.264 . S
C173 O181 1.249 . S
O174 C173 1.264 . S
O175 Mg168 1.986 . S
O175 C179 1.246 . S
O176 Mg171 2.032 . S
O176 C179 1.259 . S
O177 Mg168 2.114 . S
O177 C180 1.252 . S
O178 Mg168 2.251 . S
O178 Mg171 2.079 . S
O178 C180 1.273 . S
C179 O175 1.246 . S
C179 O176 1.259 . S
C180 O177 1.252 . S
C180 O178 1.273 . S
O181 Mg168 2.010 . S
O181 C173 1.249 . S
Mg182 O183 2.028 . S
Mg182 O189 1.986 . S
Mg182 O191 2.114 . S
Mg182 O192 2.251 . S
Mg182 O195 2.010 . S
O183 Mg182 2.028 . S
O183 C186 1.250 . S
O184 Mg185 2.028 . S
O184 C186 1.248 . S
Mg185 O184 2.028 . S
Mg185 O190 2.032 . S
Mg185 O192 2.079 . S
C186 O183 1.250 . S
C186 O184 1.248 . S
C187 O188 1.264 . S
C187 O195 1.249 . S
O188 C187 1.264 . S
O189 Mg182 1.986 . S
O189 C193 1.246 . S
O190 Mg185 2.032 . S
O190 C193 1.259 . S
O191 Mg182 2.114 . S
O191 C194 1.252 . S
O192 Mg182 2.251 . S
O192 Mg185 2.079 . S
O192 C194 1.273 . S
C193 O189 1.246 . S
C193 O190 1.259 . S
C194 O191 1.252 . S
C194 O192 1.273 . S
O195 Mg182 2.010 . S
O195 C187 1.249 . S
Mg196 O197 2.028 . S
Mg196 O203 1.986 . S
Mg196 O205 2.114 . S
Mg196 O206 2.251 . S
Mg196 O209 2.010 . S
O197 Mg196 2.028 . S
O197 C200 1.250 . S
O198 Mg199 2.028 . S
O198 C200 1.248 . S
Mg199 O198 2.028 . S
Mg199 O204 2.032 . S
Mg199 O206 2.079 . S
C200 O197 1.250 . S
C200 O198 1.248 . S
C201 O202 1.264 . S
C201 O209 1.249 . S
O202 C201 1.264 . S
O203 Mg196 1.986 . S
O203 C207 1.246 . S
O204 Mg199 2.032 . S
O204 C207 1.259 . S
O205 Mg196 2.114 . S
O205 C208 1.252 . S
O206 Mg196 2.251 . S
O206 Mg199 2.079 . S
O206 C208 1.273 . S
C207 O203 1.246 . S
C207 O204 1.259 . S
C208 O205 1.252 . S
C208 O206 1.273 . S
O209 Mg196 2.010 . S
O209 C201 1.249 . S
Mg210 O211 2.028 . S
Mg210 O217 1.986 . S
Mg210 O219 2.114 . S
Mg210 O220 2.251 . S
Mg210 O223 2.010 . S
O211 Mg210 2.028 . S
O211 C214 1.250 . S
O212 Mg213 2.028 . S
O212 C214 1.248 . S
Mg213 O212 2.028 . S
Mg213 O218 2.032 . S
Mg213 O220 2.079 . S
C214 O211 1.250 . S
C214 O212 1.248 . S
C215 O216 1.264 . S
C215 O223 1.249 . S
O216 C215 1.264 . S
O217 Mg210 1.986 . S
O217 C221 1.246 . S
O218 Mg213 2.032 . S
O218 C221 1.259 . S
O219 Mg210 2.114 . S
O219 C222 1.252 . S
O220 Mg210 2.251 . S
O220 Mg213 2.079 . S
O220 C222 1.273 . S
C221 O217 1.246 . S
C221 O218 1.259 . S
C222 O219 1.252 . S
C222 O220 1.273 . S
O223 Mg210 2.010 . S
O223 C215 1.249 . S
H224 C232 0.929 . S
H225 C234 0.930 . S
H226 C236 0.930 . S
H227 C239 0.929 . S
H228 C242 0.930 . S
H229 C244 0.960 . S
H230 C244 0.960 . S
H231 C244 0.960 . S
C232 H224 0.929 . S
C232 C233 1.377 . S
C232 C234 1.384 . S
C233 C232 1.377 . S
C233 C239 1.390 . S
C234 H225 0.930 . S
C234 C232 1.384 . S
C234 C235 1.372 . S
C235 C234 1.372 . S
C235 C236 1.400 . S
C235 C240 1.490 . S
C236 H226 0.930 . S
C236 C235 1.400 . S
C236 C239 1.386 . S
H237 C253 0.930 . S
H238 C254 0.931 . S
C239 H227 0.929 . S
C239 C233 1.390 . S
C239 C236 1.386 . S
C240 C235 1.490 . S
C240 C242 1.395 . S
C240 C243 1.403 . S
H241 C247 0.930 . S
C242 H228 0.930 . S
C242 C240 1.395 . S
C242 C245 1.403 1_455 S
C243 C240 1.403 . S
C243 C244 1.524 . S
C243 C247 1.400 1_455 S
C244 H229 0.960 . S
C244 H230 0.960 . S
C244 H231 0.960 . S
C244 C243 1.524 . S
C245 C242 1.403 1_655 S
C245 C246 1.392 . S
C245 C249 1.495 . S
C246 C245 1.392 . S
C246 C247 1.385 . S
C246 C248 1.478 . S
C247 H241 0.930 . S
C247 C243 1.400 1_655 S
C247 C246 1.385 . S
C248 C246 1.478 . S
C248 C250 1.381 . S
C248 C254 1.383 . S
C249 C245 1.495 . S
C249 H255 0.959 . S
C249 H256 0.961 . S
C249 H257 0.960 . S
C250 C248 1.381 . S
C250 C251 1.394 . S
C250 H258 0.930 . S
C251 C250 1.394 . S
C251 C252 1.383 . S
C251 H259 0.929 . S
C252 C251 1.383 . S
C252 C253 1.377 . S
C253 H237 0.930 . S
C253 C252 1.377 . S
C253 C254 1.379 . S
C254 H238 0.931 . S
C254 C248 1.383 . S
C254 C253 1.379 . S
H255 C249 0.959 . S
H256 C249 0.961 . S
H257 C249 0.960 . S
H258 C250 0.930 . S
H259 C251 0.929 . S
H260 C268 0.929 . S
H261 C270 0.930 . S
H262 C272 0.930 . S
H263 C275 0.929 . S
H264 C278 0.930 . S
H265 C280 0.960 . S
H266 C280 0.960 . S
H267 C280 0.960 . S
C268 H260 0.929 . S
C268 C269 1.377 . S
C268 C270 1.384 . S
C269 C268 1.377 . S
C269 C275 1.390 . S
C270 H261 0.930 . S
C270 C268 1.384 . S
C270 C271 1.372 . S
C271 C270 1.372 . S
C271 C272 1.400 . S
C271 C276 1.490 . S
C272 H262 0.930 . S
C272 C271 1.400 . S
C272 C275 1.386 . S
H273 C289 0.930 . S
H274 C290 0.931 . S
C275 H263 0.929 . S
C275 C269 1.390 . S
C275 C272 1.386 . S
C276 C271 1.490 . S
C276 C278 1.395 . S
C276 C279 1.403 . S
H277 C283 0.930 . S
C278 H264 0.930 . S
C278 C276 1.395 . S
C278 C281 1.403 1_655 S
C279 C276 1.403 . S
C279 C280 1.524 . S
C279 C283 1.400 1_655 S
C280 H265 0.960 . S
C280 H266 0.960 . S
C280 H267 0.960 . S
C280 C279 1.524 . S
C281 C278 1.403 1_455 S
C281 C282 1.392 . S
C281 C285 1.495 . S
C282 C281 1.392 . S
C282 C283 1.385 . S
C282 C284 1.478 . S
C283 H277 0.930 . S
C283 C279 1.400 1_455 S
C283 C282 1.385 . S
C284 C282 1.478 . S
C284 C286 1.381 . S
C284 C290 1.383 . S
C285 C281 1.495 . S
C285 H291 0.959 . S
C285 H292 0.961 . S
C285 H293 0.960 . S
C286 C284 1.381 . S
C286 C287 1.394 . S
C286 H294 0.930 . S
C287 C286 1.394 . S
C287 C288 1.383 . S
C287 H295 0.929 . S
C288 C287 1.383 . S
C288 C289 1.377 . S
C289 H273 0.930 . S
C289 C288 1.377 . S
C289 C290 1.379 . S
C290 H274 0.931 . S
C290 C284 1.383 . S
C290 C289 1.379 . S
H291 C285 0.959 . S
H292 C285 0.961 . S
H293 C285 0.960 . S
H294 C286 0.930 . S
H295 C287 0.929 . S
H296 C304 0.929 . S
H297 C306 0.930 . S
H298 C308 0.930 . S
H299 C311 0.929 . S
H300 C314 0.930 . S
H301 C316 0.960 . S
H302 C316 0.960 . S
H303 C316 0.960 . S
C304 H296 0.929 . S
C304 C305 1.377 . S
C304 C306 1.384 . S
C305 C304 1.377 . S
C305 C311 1.390 . S
C306 H297 0.930 . S
C306 C304 1.384 . S
C306 C307 1.372 . S
C307 C306 1.372 . S
C307 C308 1.400 . S
C307 C312 1.490 . S
C308 H298 0.930 . S
C308 C307 1.400 . S
C308 C311 1.386 . S
H309 C325 0.930 . S
H310 C326 0.931 . S
C311 H299 0.929 . S
C311 C305 1.390 . S
C311 C308 1.386 . S
C312 C307 1.490 . S
C312 C314 1.395 . S
C312 C315 1.403 . S
H313 C319 0.930 . S
C314 H300 0.930 . S
C314 C312 1.395 . S
C314 C317 1.403 1_655 S
C315 C312 1.403 . S
C315 C316 1.524 . S
C315 C319 1.400 1_655 S
C316 H301 0.960 . S
C316 H302 0.960 . S
C316 H303 0.960 . S
C316 C315 1.524 . S
C317 C314 1.403 1_455 S
C317 C318 1.392 . S
C317 C321 1.495 . S
C318 C317 1.392 . S
C318 C319 1.385 . S
C318 C320 1.478 . S
C319 H313 0.930 . S
C319 C315 1.400 1_455 S
C319 C318 1.385 . S
C320 C318 1.478 . S
C320 C322 1.381 . S
C320 C326 1.383 . S
C321 C317 1.495 . S
C321 H327 0.959 . S
C321 H328 0.961 . S
C321 H329 0.960 . S
C322 C320 1.381 . S
C322 C323 1.394 . S
C322 H330 0.930 . S
C323 C322 1.394 . S
C323 C324 1.383 . S
C323 H331 0.929 . S
C324 C323 1.383 . S
C324 C325 1.377 . S
C325 H309 0.930 . S
C325 C324 1.377 . S
C325 C326 1.379 . S
C326 H310 0.931 . S
C326 C320 1.383 . S
C326 C325 1.379 . S
H327 C321 0.959 . S
H328 C321 0.961 . S
H329 C321 0.960 . S
H330 C322 0.930 . S
H331 C323 0.929 . S
H332 C340 0.929 . S
H333 C342 0.930 . S
H334 C344 0.930 . S
H335 C347 0.929 . S
H336 C350 0.930 . S
H337 C352 0.960 . S
H338 C352 0.960 . S
H339 C352 0.960 . S
C340 H332 0.929 . S
C340 C341 1.377 . S
C340 C342 1.384 . S
C341 C340 1.377 . S
C341 C347 1.390 . S
C342 H333 0.930 . S
C342 C340 1.384 . S
C342 C343 1.372 . S
C343 C342 1.372 . S
C343 C344 1.400 . S
C343 C348 1.490 . S
C344 H334 0.930 . S
C344 C343 1.400 . S
C344 C347 1.386 . S
H345 C361 0.930 . S
H346 C362 0.931 . S
C347 H335 0.929 . S
C347 C341 1.390 . S
C347 C344 1.386 . S
C348 C343 1.490 . S
C348 C350 1.395 . S
C348 C351 1.403 . S
H349 C355 0.930 . S
C350 H336 0.930 . S
C350 C348 1.395 . S
C350 C353 1.403 1_455 S
C351 C348 1.403 . S
C351 C352 1.524 . S
C351 C355 1.400 1_455 S
C352 H337 0.960 . S
C352 H338 0.960 . S
C352 H339 0.960 . S
C352 C351 1.524 . S
C353 C350 1.403 1_655 S
C353 C354 1.392 . S
C353 C357 1.495 . S
C354 C353 1.392 . S
C354 C355 1.385 . S
C354 C356 1.478 . S
C355 H349 0.930 . S
C355 C351 1.400 1_655 S
C355 C354 1.385 . S
C356 C354 1.478 . S
C356 C358 1.381 . S
C356 C362 1.383 . S
C357 C353 1.495 . S
C357 H363 0.959 . S
C357 H364 0.961 . S
C357 H365 0.960 . S
C358 C356 1.381 . S
C358 C359 1.394 . S
C358 H366 0.930 . S
C359 C358 1.394 . S
C359 C360 1.383 . S
C359 H367 0.929 . S
C360 C359 1.383 . S
C360 C361 1.377 . S
C361 H345 0.930 . S
C361 C360 1.377 . S
C361 C362 1.379 . S
C362 H346 0.931 . S
C362 C356 1.383 . S
C362 C361 1.379 . S
H363 C357 0.959 . S
H364 C357 0.961 . S
H365 C357 0.960 . S
H366 C358 0.930 . S
H367 C359 0.929 . S
H368 C376 0.929 . S
H369 C378 0.930 . S
H370 C380 0.930 . S
H371 C383 0.929 . S
H372 C386 0.930 . S
H373 C388 0.960 . S
H374 C388 0.960 . S
H375 C388 0.960 . S
C376 H368 0.929 . S
C376 C377 1.377 . S
C376 C378 1.384 . S
C377 C376 1.377 . S
C377 C383 1.390 . S
C378 H369 0.930 . S
C378 C376 1.384 . S
C378 C379 1.372 . S
C379 C378 1.372 . S
C379 C380 1.400 . S
C379 C384 1.490 . S
C380 H370 0.930 . S
C380 C379 1.400 . S
C380 C383 1.386 . S
H381 C397 0.930 . S
H382 C398 0.931 . S
C383 H371 0.929 . S
C383 C377 1.390 . S
C383 C380 1.386 . S
C384 C379 1.490 . S
C384 C386 1.395 . S
C384 C387 1.403 . S
H385 C391 0.930 . S
C386 H372 0.930 . S
C386 C384 1.395 . S
C386 C389 1.403 . S
C387 C384 1.403 . S
C387 C388 1.524 . S
C387 C391 1.400 . S
C388 H373 0.960 . S
C388 H374 0.960 . S
C388 H375 0.960 . S
C388 C387 1.524 . S
C389 C386 1.403 . S
C389 C390 1.392 . S
C389 C393 1.495 . S
C390 C389 1.392 . S
C390 C391 1.385 . S
C390 C392 1.478 . S
C391 H385 0.930 . S
C391 C387 1.400 . S
C391 C390 1.385 . S
C392 C390 1.478 . S
C392 C394 1.381 . S
C392 C398 1.383 . S
C393 C389 1.495 . S
C393 H399 0.959 . S
C393 H400 0.961 . S
C393 H401 0.960 . S
C394 C392 1.381 . S
C394 C395 1.394 . S
C394 H402 0.930 . S
C395 C394 1.394 . S
C395 C396 1.383 . S
C395 H403 0.929 . S
C396 C395 1.383 . S
C396 C397 1.377 . S
C397 H381 0.930 . S
C397 C396 1.377 . S
C397 C398 1.379 . S
C398 H382 0.931 . S
C398 C392 1.383 . S
C398 C397 1.379 . S
H399 C393 0.959 . S
H400 C393 0.961 . S
H401 C393 0.960 . S
H402 C394 0.930 . S
H403 C395 0.929 . S
H404 C412 0.929 . S
H405 C414 0.930 . S
H406 C416 0.930 . S
H407 C419 0.929 . S
H408 C422 0.930 . S
H409 C424 0.960 . S
H410 C424 0.960 . S
H411 C424 0.960 . S
C412 H404 0.929 . S
C412 C413 1.377 . S
C412 C414 1.384 . S
C413 C412 1.377 . S
C413 C419 1.390 . S
C414 H405 0.930 . S
C414 C412 1.384 . S
C414 C415 1.372 . S
C415 C414 1.372 . S
C415 C416 1.400 . S
C415 C420 1.490 . S
C416 H406 0.930 . S
C416 C415 1.400 . S
C416 C419 1.386 . S
H417 C433 0.930 . S
H418 C434 0.931 . S
C419 H407 0.929 . S
C419 C413 1.390 . S
C419 C416 1.386 . S
C420 C415 1.490 . S
C420 C422 1.395 . S
C420 C423 1.403 . S
H421 C427 0.930 . S
C422 H408 0.930 . S
C422 C420 1.395 . S
C422 C425 1.403 . S
C423 C420 1.403 . S
C423 C424 1.524 . S
C423 C427 1.400 . S
C424 H409 0.960 . S
C424 H410 0.960 . S
C424 H411 0.960 . S
C424 C423 1.524 . S
C425 C422 1.403 . S
C425 C426 1.392 . S
C425 C429 1.495 . S
C426 C425 1.392 . S
C426 C427 1.385 . S
C426 C428 1.478 . S
C427 H421 0.930 . S
C427 C423 1.400 . S
C427 C426 1.385 . S
C428 C426 1.478 . S
C428 C430 1.381 . S
C428 C434 1.383 . S
C429 C425 1.495 . S
C429 H435 0.959 . S
C429 H436 0.961 . S
C429 H437 0.960 . S
C430 C428 1.381 . S
C430 C431 1.394 . S
C430 H438 0.930 . S
C431 C430 1.394 . S
C431 C432 1.383 . S
C431 H439 0.929 . S
C432 C431 1.383 . S
C432 C433 1.377 . S
C433 H417 0.930 . S
C433 C432 1.377 . S
C433 C434 1.379 . S
C434 H418 0.931 . S
C434 C428 1.383 . S
C434 C433 1.379 . S
H435 C429 0.959 . S
H436 C429 0.961 . S
H437 C429 0.960 . S
H438 C430 0.930 . S
H439 C431 0.929 . S
H440 C448 0.929 . S
H441 C450 0.930 . S
H442 C452 0.930 . S
H443 C455 0.929 . S
H444 C458 0.930 . S
H445 C460 0.960 . S
H446 C460 0.960 . S
H447 C460 0.960 . S
C448 H440 0.929 . S
C448 C449 1.377 . S
C448 C450 1.384 . S
C449 C448 1.377 . S
C449 C455 1.390 . S
C450 H441 0.930 . S
C450 C448 1.384 . S
C450 C451 1.372 . S
C451 C450 1.372 . S
C451 C452 1.400 . S
C451 C456 1.490 . S
C452 H442 0.930 . S
C452 C451 1.400 . S
C452 C455 1.386 . S
H453 C469 0.930 . S
H454 C470 0.931 . S
C455 H443 0.929 . S
C455 C449 1.390 . S
C455 C452 1.386 . S
C456 C451 1.490 . S
C456 C458 1.395 . S
C456 C459 1.403 . S
H457 C463 0.930 . S
C458 H444 0.930 . S
C458 C456 1.395 . S
C458 C461 1.403 . S
C459 C456 1.403 . S
C459 C460 1.524 . S
C459 C463 1.400 . S
C460 H445 0.960 . S
C460 H446 0.960 . S
C460 H447 0.960 . S
C460 C459 1.524 . S
C461 C458 1.403 . S
C461 C462 1.392 . S
C461 C465 1.495 . S
C462 C461 1.392 . S
C462 C463 1.385 . S
C462 C464 1.478 . S
C463 H457 0.930 . S
C463 C459 1.400 . S
C463 C462 1.385 . S
C464 C462 1.478 . S
C464 C466 1.381 . S
C464 C470 1.383 . S
C465 C461 1.495 . S
C465 H471 0.959 . S
C465 H472 0.961 . S
C465 H473 0.960 . S
C466 C464 1.381 . S
C466 C467 1.394 . S
C466 H474 0.930 . S
C467 C466 1.394 . S
C467 C468 1.383 . S
C467 H475 0.929 . S
C468 C467 1.383 . S
C468 C469 1.377 . S
C469 H453 0.930 . S
C469 C468 1.377 . S
C469 C470 1.379 . S
C470 H454 0.931 . S
C470 C464 1.383 . S
C470 C469 1.379 . S
H471 C465 0.959 . S
H472 C465 0.961 . S
H473 C465 0.960 . S
H474 C466 0.930 . S
H475 C467 0.929 . S
H476 C484 0.929 . S
H477 C486 0.930 . S
H478 C488 0.930 . S
H479 C491 0.929 . S
H480 C494 0.930 . S
H481 C496 0.960 . S
H482 C496 0.960 . S
H483 C496 0.960 . S
C484 H476 0.929 . S
C484 C485 1.377 . S
C484 C486 1.384 . S
C485 C484 1.377 . S
C485 C491 1.390 . S
C486 H477 0.930 . S
C486 C484 1.384 . S
C486 C487 1.372 . S
C487 C486 1.372 . S
C487 C488 1.400 . S
C487 C492 1.490 . S
C488 H478 0.930 . S
C488 C487 1.400 . S
C488 C491 1.386 . S
H489 C505 0.930 . S
H490 C506 0.931 . S
C491 H479 0.929 . S
C491 C485 1.390 . S
C491 C488 1.386 . S
C492 C487 1.490 . S
C492 C494 1.395 . S
C492 C495 1.403 . S
H493 C499 0.930 . S
C494 H480 0.930 . S
C494 C492 1.395 . S
C494 C497 1.403 . S
C495 C492 1.403 . S
C495 C496 1.524 . S
C495 C499 1.400 . S
C496 H481 0.960 . S
C496 H482 0.960 . S
C496 H483 0.960 . S
C496 C495 1.524 . S
C497 C494 1.403 . S
C497 C498 1.392 . S
C497 C501 1.495 . S
C498 C497 1.392 . S
C498 C499 1.385 . S
C498 C500 1.478 . S
C499 H493 0.930 . S
C499 C495 1.400 . S
C499 C498 1.385 . S
C500 C498 1.478 . S
C500 C502 1.381 . S
C500 C506 1.383 . S
C501 C497 1.495 . S
C501 H507 0.959 . S
C501 H508 0.961 . S
C501 H509 0.960 . S
C502 C500 1.381 . S
C502 C503 1.394 . S
C502 H510 0.930 . S
C503 C502 1.394 . S
C503 C504 1.383 . S
C503 H511 0.929 . S
C504 C503 1.383 . S
C504 C505 1.377 . S
C505 H489 0.930 . S
C505 C504 1.377 . S
C505 C506 1.379 . S
C506 H490 0.931 . S
C506 C500 1.383 . S
C506 C505 1.379 . S
H507 C501 0.959 . S
H508 C501 0.961 . S
H509 C501 0.960 . S
H510 C502 0.930 . S
H511 C503 0.929 . S
H512 C520 0.929 . S
H513 C522 0.930 . S
H514 C524 0.930 . S
H515 C527 0.929 . S
H516 C530 0.930 . S
H517 C532 0.960 . S
H518 C532 0.960 . S
H519 C532 0.960 . S
C520 H512 0.929 . S
C520 C521 1.377 . S
C520 C522 1.384 . S
C521 C520 1.377 . S
C521 C527 1.390 . S
C522 H513 0.930 . S
C522 C520 1.384 . S
C522 C523 1.372 . S
C523 C522 1.372 . S
C523 C524 1.400 . S
C523 C528 1.490 . S
C524 H514 0.930 . S
C524 C523 1.400 . S
C524 C527 1.386 . S
H525 C541 0.930 . S
H526 C542 0.931 . S
C527 H515 0.929 . S
C527 C521 1.390 . S
C527 C524 1.386 . S
C528 C523 1.490 . S
C528 C530 1.395 . S
C528 C531 1.403 . S
H529 C535 0.930 . S
C530 H516 0.930 . S
C530 C528 1.395 . S
C530 C533 1.403 . S
C531 C528 1.403 . S
C531 C532 1.524 . S
C531 C535 1.400 . S
C532 H517 0.960 . S
C532 H518 0.960 . S
C532 H519 0.960 . S
C532 C531 1.524 . S
C533 C530 1.403 . S
C533 C534 1.392 . S
C533 C537 1.495 . S
C534 C533 1.392 . S
C534 C535 1.385 . S
C534 C536 1.478 . S
C535 H529 0.930 . S
C535 C531 1.400 . S
C535 C534 1.385 . S
C536 C534 1.478 . S
C536 C538 1.381 . S
C536 C542 1.383 . S
C537 C533 1.495 . S
C537 H543 0.959 . S
C537 H544 0.961 . S
C537 H545 0.960 . S
C538 C536 1.381 . S
C538 C539 1.394 . S
C538 H546 0.930 . S
C539 C538 1.394 . S
C539 C540 1.383 . S
C539 H547 0.929 . S
C540 C539 1.383 . S
C540 C541 1.377 . S
C541 H525 0.930 . S
C541 C540 1.377 . S
C541 C542 1.379 . S
C542 H526 0.931 . S
C542 C536 1.383 . S
C542 C541 1.379 . S
H543 C537 0.959 . S
H544 C537 0.961 . S
H545 C537 0.960 . S
H546 C538 0.930 . S
H547 C539 0.929 . S
H548 C556 0.929 . S
H549 C558 0.930 . S
H550 C560 0.930 . S
H551 C563 0.929 . S
H552 C566 0.930 . S
H553 C568 0.960 . S
H554 C568 0.960 . S
H555 C568 0.960 . S
C556 H548 0.929 . S
C556 C557 1.377 . S
C556 C558 1.384 . S
C557 C556 1.377 . S
C557 C563 1.390 . S
C558 H549 0.930 . S
C558 C556 1.384 . S
C558 C559 1.372 . S
C559 C558 1.372 . S
C559 C560 1.400 . S
C559 C564 1.490 . S
C560 H550 0.930 . S
C560 C559 1.400 . S
C560 C563 1.386 . S
H561 C577 0.930 . S
H562 C578 0.931 . S
C563 H551 0.929 . S
C563 C557 1.390 . S
C563 C560 1.386 . S
C564 C559 1.490 . S
C564 C566 1.395 . S
C564 C567 1.403 . S
H565 C571 0.930 . S
C566 H552 0.930 . S
C566 C564 1.395 . S
C566 C569 1.403 . S
C567 C564 1.403 . S
C567 C568 1.524 . S
C567 C571 1.400 . S
C568 H553 0.960 . S
C568 H554 0.960 . S
C568 H555 0.960 . S
C568 C567 1.524 . S
C569 C566 1.403 . S
C569 C570 1.392 . S
C569 C573 1.495 . S
C570 C569 1.392 . S
C570 C571 1.385 . S
C570 C572 1.478 . S
C571 H565 0.930 . S
C571 C567 1.400 . S
C571 C570 1.385 . S
C572 C570 1.478 . S
C572 C574 1.381 . S
C572 C578 1.383 . S
C573 C569 1.495 . S
C573 H579 0.959 . S
C573 H580 0.961 . S
C573 H581 0.960 . S
C574 C572 1.381 . S
C574 C575 1.394 . S
C574 H582 0.930 . S
C575 C574 1.394 . S
C575 C576 1.383 . S
C575 H583 0.929 . S
C576 C575 1.383 . S
C576 C577 1.377 . S
C577 H561 0.930 . S
C577 C576 1.377 . S
C577 C578 1.379 . S
C578 H562 0.931 . S
C578 C572 1.383 . S
C578 C577 1.379 . S
H579 C573 0.959 . S
H580 C573 0.961 . S
H581 C573 0.960 . S
H582 C574 0.930 . S
H583 C575 0.929 . S
H584 C592 0.929 . S
H585 C594 0.930 . S
H586 C596 0.930 . S
H587 C599 0.929 . S
H588 C602 0.930 . S
H589 C604 0.960 . S
H590 C604 0.960 . S
H591 C604 0.960 . S
C592 H584 0.929 . S
C592 C593 1.377 . S
C592 C594 1.384 . S
C593 C592 1.377 . S
C593 C599 1.390 . S
C594 H585 0.930 . S
C594 C592 1.384 . S
C594 C595 1.372 . S
C595 C594 1.372 . S
C595 C596 1.400 . S
C595 C600 1.490 . S
C596 H586 0.930 . S
C596 C595 1.400 . S
C596 C599 1.386 . S
H597 C613 0.930 . S
H598 C614 0.931 . S
C599 H587 0.929 . S
C599 C593 1.390 . S
C599 C596 1.386 . S
C600 C595 1.490 . S
C600 C602 1.395 . S
C600 C603 1.403 . S
H601 C607 0.930 . S
C602 H588 0.930 . S
C602 C600 1.395 . S
C602 C605 1.403 . S
C603 C600 1.403 . S
C603 C604 1.524 . S
C603 C607 1.400 . S
C604 H589 0.960 . S
C604 H590 0.960 . S
C604 H591 0.960 . S
C604 C603 1.524 . S
C605 C602 1.403 . S
C605 C606 1.392 . S
C605 C609 1.495 . S
C606 C605 1.392 . S
C606 C607 1.385 . S
C606 C608 1.478 . S
C607 H601 0.930 . S
C607 C603 1.400 . S
C607 C606 1.385 . S
C608 C606 1.478 . S
C608 C610 1.381 . S
C608 C614 1.383 . S
C609 C605 1.495 . S
C609 H615 0.959 . S
C609 H616 0.961 . S
C609 H617 0.960 . S
C610 C608 1.381 . S
C610 C611 1.394 . S
C610 H618 0.930 . S
C611 C610 1.394 . S
C611 C612 1.383 . S
C611 H619 0.929 . S
C612 C611 1.383 . S
C612 C613 1.377 . S
C613 H597 0.930 . S
C613 C612 1.377 . S
C613 C614 1.379 . S
C614 H598 0.931 . S
C614 C608 1.383 . S
C614 C613 1.379 . S
H615 C609 0.959 . S
H616 C609 0.961 . S
H617 C609 0.960 . S
H618 C610 0.930 . S
H619 C611 0.929 . S
H620 C628 0.929 . S
H621 C630 0.930 . S
H622 C632 0.930 . S
H623 C635 0.929 . S
H624 C638 0.930 . S
H625 C640 0.960 . S
H626 C640 0.960 . S
H627 C640 0.960 . S
C628 H620 0.929 . S
C628 C629 1.377 . S
C628 C630 1.384 . S
C629 C628 1.377 . S
C629 C635 1.390 . S
C630 H621 0.930 . S
C630 C628 1.384 . S
C630 C631 1.372 . S
C631 C630 1.372 . S
C631 C632 1.400 . S
C631 C636 1.490 . S
C632 H622 0.930 . S
C632 C631 1.400 . S
C632 C635 1.386 . S
H633 C649 0.930 . S
H634 C650 0.931 . S
C635 H623 0.929 . S
C635 C629 1.390 . S
C635 C632 1.386 . S
C636 C631 1.490 . S
C636 C638 1.395 . S
C636 C639 1.403 . S
H637 C643 0.930 . S
C638 H624 0.930 . S
C638 C636 1.395 . S
C638 C641 1.403 . S
C639 C636 1.403 . S
C639 C640 1.524 . S
C639 C643 1.400 . S
C640 H625 0.960 . S
C640 H626 0.960 . S
C640 H627 0.960 . S
C640 C639 1.524 . S
C641 C638 1.403 . S
C641 C642 1.392 . S
C641 C645 1.495 . S
C642 C641 1.392 . S
C642 C643 1.385 . S
C642 C644 1.478 . S
C643 H637 0.930 . S
C643 C639 1.400 . S
C643 C642 1.385 . S
C644 C642 1.478 . S
C644 C646 1.381 . S
C644 C650 1.383 . S
C645 C641 1.495 . S
C645 H651 0.959 . S
C645 H652 0.961 . S
C645 H653 0.960 . S
C646 C644 1.381 . S
C646 C647 1.394 . S
C646 H654 0.930 . S
C647 C646 1.394 . S
C647 C648 1.383 . S
C647 H655 0.929 . S
C648 C647 1.383 . S
C648 C649 1.377 . S
C649 H633 0.930 . S
C649 C648 1.377 . S
C649 C650 1.379 . S
C650 H634 0.931 . S
C650 C644 1.383 . S
C650 C649 1.379 . S
H651 C645 0.959 . S
H652 C645 0.961 . S
H653 C645 0.960 . S
H654 C646 0.930 . S
H655 C647 0.929 . S
H656 C664 0.929 . S
H657 C666 0.930 . S
H658 C668 0.930 . S
H659 C671 0.929 . S
H660 C674 0.930 . S
H661 C676 0.960 . S
H662 C676 0.960 . S
H663 C676 0.960 . S
C664 H656 0.929 . S
C664 C665 1.377 . S
C664 C666 1.384 . S
C665 C664 1.377 . S
C665 C671 1.390 . S
C666 H657 0.930 . S
C666 C664 1.384 . S
C666 C667 1.372 . S
C667 C666 1.372 . S
C667 C668 1.400 . S
C667 C672 1.490 . S
C668 H658 0.930 . S
C668 C667 1.400 . S
C668 C671 1.386 . S
H669 C685 0.930 . S
H670 C686 0.931 . S
C671 H659 0.929 . S
C671 C665 1.390 . S
C671 C668 1.386 . S
C672 C667 1.490 . S
C672 C674 1.395 . S
C672 C675 1.403 . S
H673 C679 0.930 . S
C674 H660 0.930 . S
C674 C672 1.395 . S
C674 C677 1.403 . S
C675 C672 1.403 . S
C675 C676 1.524 . S
C675 C679 1.400 . S
C676 H661 0.960 . S
C676 H662 0.960 . S
C676 H663 0.960 . S
C676 C675 1.524 . S
C677 C674 1.403 . S
C677 C678 1.392 . S
C677 C681 1.495 . S
C678 C677 1.392 . S
C678 C679 1.385 . S
C678 C680 1.478 . S
C679 H673 0.930 . S
C679 C675 1.400 . S
C679 C678 1.385 . S
C680 C678 1.478 . S
C680 C682 1.381 . S
C680 C686 1.383 . S
C681 C677 1.495 . S
C681 H687 0.959 . S
C681 H688 0.961 . S
C681 H689 0.960 . S
C682 C680 1.381 . S
C682 C683 1.394 . S
C682 H690 0.930 . S
C683 C682 1.394 . S
C683 C684 1.383 . S
C683 H691 0.929 . S
C684 C683 1.383 . S
C684 C685 1.377 . S
C685 H669 0.930 . S
C685 C684 1.377 . S
C685 C686 1.379 . S
C686 H670 0.931 . S
C686 C680 1.383 . S
C686 C685 1.379 . S
H687 C681 0.959 . S
H688 C681 0.961 . S
H689 C681 0.960 . S
H690 C682 0.930 . S
H691 C683 0.929 . S
H692 C700 0.929 . S
H693 C702 0.930 . S
H694 C704 0.930 . S
H695 C707 0.929 . S
H696 C710 0.930 . S
H697 C712 0.960 . S
H698 C712 0.960 . S
H699 C712 0.960 . S
C700 H692 0.929 . S
C700 C701 1.377 . S
C700 C702 1.384 . S
C701 C700 1.377 . S
C701 C707 1.390 . S
C702 H693 0.930 . S
C702 C700 1.384 . S
C702 C703 1.372 . S
C703 C702 1.372 . S
C703 C704 1.400 . S
C703 C708 1.490 . S
C704 H694 0.930 . S
C704 C703 1.400 . S
C704 C707 1.386 . S
H705 C721 0.930 . S
H706 C722 0.931 . S
C707 H695 0.929 . S
C707 C701 1.390 . S
C707 C704 1.386 . S
C708 C703 1.490 . S
C708 C710 1.395 . S
C708 C711 1.403 . S
H709 C715 0.930 . S
C710 H696 0.930 . S
C710 C708 1.395 . S
C710 C713 1.403 . S
C711 C708 1.403 . S
C711 C712 1.524 . S
C711 C715 1.400 . S
C712 H697 0.960 . S
C712 H698 0.960 . S
C712 H699 0.960 . S
C712 C711 1.524 . S
C713 C710 1.403 . S
C713 C714 1.392 . S
C713 C717 1.495 . S
C714 C713 1.392 . S
C714 C715 1.385 . S
C714 C716 1.478 . S
C715 H709 0.930 . S
C715 C711 1.400 . S
C715 C714 1.385 . S
C716 C714 1.478 . S
C716 C718 1.381 . S
C716 C722 1.383 . S
C717 C713 1.495 . S
C717 H723 0.959 . S
C717 H724 0.961 . S
C717 H725 0.960 . S
C718 C716 1.381 . S
C718 C719 1.394 . S
C718 H726 0.930 . S
C719 C718 1.394 . S
C719 C720 1.383 . S
C719 H727 0.929 . S
C720 C719 1.383 . S
C720 C721 1.377 . S
C721 H705 0.930 . S
C721 C720 1.377 . S
C721 C722 1.379 . S
C722 H706 0.931 . S
C722 C716 1.383 . S
C722 C721 1.379 . S
H723 C717 0.959 . S
H724 C717 0.961 . S
H725 C717 0.960 . S
H726 C718 0.930 . S
H727 C719 0.929 . S
H728 C736 0.929 . S
H729 C738 0.930 . S
H730 C740 0.930 . S
H731 C743 0.929 . S
H732 C746 0.930 . S
H733 C748 0.960 . S
H734 C748 0.960 . S
H735 C748 0.960 . S
C736 H728 0.929 . S
C736 C737 1.377 . S
C736 C738 1.384 . S
C737 C736 1.377 . S
C737 C743 1.390 . S
C738 H729 0.930 . S
C738 C736 1.384 . S
C738 C739 1.372 . S
C739 C738 1.372 . S
C739 C740 1.400 . S
C739 C744 1.490 . S
C740 H730 0.930 . S
C740 C739 1.400 . S
C740 C743 1.386 . S
H741 C757 0.930 . S
H742 C758 0.931 . S
C743 H731 0.929 . S
C743 C737 1.390 . S
C743 C740 1.386 . S
C744 C739 1.490 . S
C744 C746 1.395 . S
C744 C747 1.403 . S
H745 C751 0.930 . S
C746 H732 0.930 . S
C746 C744 1.395 . S
C746 C749 1.403 . S
C747 C744 1.403 . S
C747 C748 1.524 . S
C747 C751 1.400 . S
C748 H733 0.960 . S
C748 H734 0.960 . S
C748 H735 0.960 . S
C748 C747 1.524 . S
C749 C746 1.403 . S
C749 C750 1.392 . S
C749 C753 1.495 . S
C750 C749 1.392 . S
C750 C751 1.385 . S
C750 C752 1.478 . S
C751 H745 0.930 . S
C751 C747 1.400 . S
C751 C750 1.385 . S
C752 C750 1.478 . S
C752 C754 1.381 . S
C752 C758 1.383 . S
C753 C749 1.495 . S
C753 H759 0.959 . S
C753 H760 0.961 . S
C753 H761 0.960 . S
C754 C752 1.381 . S
C754 C755 1.394 . S
C754 H762 0.930 . S
C755 C754 1.394 . S
C755 C756 1.383 . S
C755 H763 0.929 . S
C756 C755 1.383 . S
C756 C757 1.377 . S
C757 H741 0.930 . S
C757 C756 1.377 . S
C757 C758 1.379 . S
C758 H742 0.931 . S
C758 C752 1.383 . S
C758 C757 1.379 . S
H759 C753 0.959 . S
H760 C753 0.961 . S
H761 C753 0.960 . S
H762 C754 0.930 . S
H763 C755 0.929 . S
H764 C772 0.929 . S
H765 C774 0.930 . S
H766 C776 0.930 . S
H767 C779 0.929 . S
H768 C782 0.930 . S
H769 C784 0.960 . S
H770 C784 0.960 . S
H771 C784 0.960 . S
C772 H764 0.929 . S
C772 C773 1.377 . S
C772 C774 1.384 . S
C773 C772 1.377 . S
C773 C779 1.390 . S
C774 H765 0.930 . S
C774 C772 1.384 . S
C774 C775 1.372 . S
C775 C774 1.372 . S
C775 C776 1.400 . S
C775 C780 1.490 . S
C776 H766 0.930 . S
C776 C775 1.400 . S
C776 C779 1.386 . S
H777 C793 0.930 . S
H778 C794 0.931 . S
C779 H767 0.929 . S
C779 C773 1.390 . S
C779 C776 1.386 . S
C780 C775 1.490 . S
C780 C782 1.395 . S
C780 C783 1.403 . S
H781 C787 0.930 . S
C782 H768 0.930 . S
C782 C780 1.395 . S
C782 C785 1.403 . S
C783 C780 1.403 . S
C783 C784 1.524 . S
C783 C787 1.400 . S
C784 H769 0.960 . S
C784 H770 0.960 . S
C784 H771 0.960 . S
C784 C783 1.524 . S
C785 C782 1.403 . S
C785 C786 1.392 . S
C785 C789 1.495 . S
C786 C785 1.392 . S
C786 C787 1.385 . S
C786 C788 1.478 . S
C787 H781 0.930 . S
C787 C783 1.400 . S
C787 C786 1.385 . S
C788 C786 1.478 . S
C788 C790 1.381 . S
C788 C794 1.383 . S
C789 C785 1.495 . S
C789 H795 0.959 . S
C789 H796 0.961 . S
C789 H797 0.960 . S
C790 C788 1.381 . S
C790 C791 1.394 . S
C790 H798 0.930 . S
C791 C790 1.394 . S
C791 C792 1.383 . S
C791 H799 0.929 . S
C792 C791 1.383 . S
C792 C793 1.377 . S
C793 H777 0.930 . S
C793 C792 1.377 . S
C793 C794 1.379 . S
C794 H778 0.931 . S
C794 C788 1.383 . S
C794 C793 1.379 . S
H795 C789 0.959 . S
H796 C789 0.961 . S
H797 C789 0.960 . S
H798 C790 0.930 . S
H799 C791 0.929 . S
H800 C808 0.929 . S
H801 C810 0.930 . S
H802 C812 0.930 . S
H803 C815 0.929 . S
H804 C818 0.930 . S
H805 C820 0.960 . S
H806 C820 0.960 . S
H807 C820 0.960 . S
C808 H800 0.929 . S
C808 C809 1.377 . S
C808 C810 1.384 . S
C809 C808 1.377 . S
C809 C815 1.390 . S
C810 H801 0.930 . S
C810 C808 1.384 . S
C810 C811 1.372 . S
C811 C810 1.372 . S
C811 C812 1.400 . S
C811 C816 1.490 . S
C812 H802 0.930 . S
C812 C811 1.400 . S
C812 C815 1.386 . S
H813 C829 0.930 . S
H814 C830 0.931 . S
C815 H803 0.929 . S
C815 C809 1.390 . S
C815 C812 1.386 . S
C816 C811 1.490 . S
C816 C818 1.395 . S
C816 C819 1.403 . S
H817 C823 0.936 . S
C818 H804 0.930 . S
C818 C816 1.395 . S
C818 C821 1.403 1_556 S
C819 C816 1.403 . S
C819 C820 1.524 . S
C819 C823 1.373 1_556 S
C820 H805 0.960 . S
C820 H806 0.960 . S
C820 H807 0.960 . S
C820 C819 1.524 . S
C821 C818 1.403 1_554 S
C821 C822 1.392 . S
C821 C825 1.495 . S
C822 C821 1.392 . S
C822 C823 1.410 . S
C822 C824 1.478 . S
C823 H817 0.936 . S
C823 C819 1.373 1_554 S
C823 C822 1.410 . S
C824 C822 1.478 . S
C824 C826 1.381 . S
C824 C830 1.383 . S
C825 C821 1.495 . S
C825 H831 0.959 . S
C825 H832 0.961 . S
C825 H833 0.960 . S
C826 C824 1.381 . S
C826 C827 1.394 . S
C826 H834 0.930 . S
C827 C826 1.394 . S
C827 C828 1.383 . S
C827 H835 0.929 . S
C828 C827 1.383 . S
C828 C829 1.377 . S
C829 H813 0.930 . S
C829 C828 1.377 . S
C829 C830 1.379 . S
C830 H814 0.931 . S
C830 C824 1.383 . S
C830 C829 1.379 . S
H831 C825 0.959 . S
H832 C825 0.961 . S
H833 C825 0.960 . S
H834 C826 0.930 . S
H835 C827 0.929 . S
H836 C844 0.929 . S
H837 C846 0.930 . S
H838 C848 0.930 . S
H839 C851 0.929 . S
H840 C854 0.930 . S
H841 C856 0.960 . S
H842 C856 0.960 . S
H843 C856 0.960 . S
C844 H836 0.929 . S
C844 C845 1.377 . S
C844 C846 1.384 . S
C845 C844 1.377 . S
C845 C851 1.390 . S
C846 H837 0.930 . S
C846 C844 1.384 . S
C846 C847 1.372 . S
C847 C846 1.372 . S
C847 C848 1.400 . S
C847 C852 1.490 . S
C848 H838 0.930 . S
C848 C847 1.400 . S
C848 C851 1.386 . S
H849 C865 0.930 . S
H850 C866 0.931 . S
C851 H839 0.929 . S
C851 C845 1.390 . S
C851 C848 1.386 . S
C852 C847 1.490 . S
C852 C854 1.395 . S
C852 C855 1.403 . S
H853 C859 0.930 . S
C854 H840 0.930 . S
C854 C852 1.395 . S
C854 C857 1.403 . S
C855 C852 1.403 . S
C855 C856 1.524 . S
C855 C859 1.400 . S
C856 H841 0.960 . S
C856 H842 0.960 . S
C856 H843 0.960 . S
C856 C855 1.524 . S
C857 C854 1.403 . S
C857 C858 1.392 . S
C857 C861 1.495 . S
C858 C857 1.392 . S
C858 C859 1.385 . S
C858 C860 1.478 . S
C859 H853 0.930 . S
C859 C855 1.400 . S
C859 C858 1.385 . S
C860 C858 1.478 . S
C860 C862 1.381 . S
C860 C866 1.383 . S
C861 C857 1.495 . S
C861 H867 0.959 . S
C861 H868 0.961 . S
C861 H869 0.960 . S
C862 C860 1.381 . S
C862 C863 1.394 . S
C862 H870 0.930 . S
C863 C862 1.394 . S
C863 C864 1.383 . S
C863 H871 0.929 . S
C864 C863 1.383 . S
C864 C865 1.377 . S
C865 H849 0.930 . S
C865 C864 1.377 . S
C865 C866 1.379 . S
C866 H850 0.931 . S
C866 C860 1.383 . S
C866 C865 1.379 . S
H867 C861 0.959 . S
H868 C861 0.961 . S
H869 C861 0.960 . S
H870 C862 0.930 . S
H871 C863 0.929 . S
H872 C880 0.929 . S
H873 C882 0.930 . S
H874 C884 0.930 . S
H875 C887 0.929 . S
H876 C890 0.930 . S
H877 C892 0.960 . S
H878 C892 0.960 . S
H879 C892 0.960 . S
C880 H872 0.929 . S
C880 C881 1.377 . S
C880 C882 1.384 . S
C881 C880 1.377 . S
C881 C887 1.390 . S
C882 H873 0.930 . S
C882 C880 1.384 . S
C882 C883 1.372 . S
C883 C882 1.372 . S
C883 C884 1.400 . S
C883 C888 1.490 . S
C884 H874 0.930 . S
C884 C883 1.400 . S
C884 C887 1.386 . S
H885 C901 0.930 . S
H886 C902 0.931 . S
C887 H875 0.929 . S
C887 C881 1.390 . S
C887 C884 1.386 . S
C888 C883 1.490 . S
C888 C890 1.395 . S
C888 C891 1.403 1_554 S
H889 C895 0.930 . S
C890 H876 0.930 . S
C890 C888 1.395 . S
C890 C893 1.403 . S
C891 C888 1.403 1_556 S
C891 C892 1.524 . S
C891 C895 1.400 . S
C892 H877 0.960 . S
C892 H878 0.960 . S
C892 H879 0.960 . S
C892 C891 1.524 . S
C893 C890 1.403 . S
C893 C894 1.392 1_554 S
C893 C897 1.495 . S
C894 C893 1.392 1_556 S
C894 C895 1.385 . S
C894 C896 1.478 . S
C895 H889 0.930 . S
C895 C891 1.400 . S
C895 C894 1.385 . S
C896 C894 1.478 . S
C896 C898 1.381 . S
C896 C902 1.383 . S
C897 C893 1.495 . S
C897 H903 0.959 . S
C897 H904 0.961 . S
C897 H905 0.960 . S
C898 C896 1.381 . S
C898 C899 1.394 . S
C898 H906 0.930 . S
C899 C898 1.394 . S
C899 C900 1.383 . S
C899 H907 0.929 . S
C900 C899 1.383 . S
C900 C901 1.377 . S
C901 H885 0.930 . S
C901 C900 1.377 . S
C901 C902 1.379 . S
C902 H886 0.931 . S
C902 C896 1.383 . S
C902 C901 1.379 . S
H903 C897 0.959 . S
H904 C897 0.961 . S
H905 C897 0.960 . S
H906 C898 0.930 . S
H907 C899 0.929 . S
H908 C916 0.929 . S
H909 C918 0.930 . S
H910 C920 0.930 . S
H911 C923 0.929 . S
H912 C926 0.930 . S
H913 C928 0.960 . S
H914 C928 0.960 . S
H915 C928 0.960 . S
C916 H908 0.929 . S
C916 C917 1.377 . S
C916 C918 1.384 . S
C917 C916 1.377 . S
C917 C923 1.390 . S
C918 H909 0.930 . S
C918 C916 1.384 . S
C918 C919 1.372 . S
C919 C918 1.372 . S
C919 C920 1.400 . S
C919 C924 1.490 . S
C920 H910 0.930 . S
C920 C919 1.400 . S
C920 C923 1.386 . S
H921 C937 0.930 . S
H922 C938 0.931 . S
C923 H911 0.929 . S
C923 C917 1.390 . S
C923 C920 1.386 . S
C924 C919 1.490 . S
C924 C926 1.395 . S
C924 C927 1.403 . S
H925 C931 0.930 . S
C926 H912 0.930 . S
C926 C924 1.395 . S
C926 C929 1.403 . S
C927 C924 1.403 . S
C927 C928 1.524 . S
C927 C931 1.400 . S
C928 H913 0.960 . S
C928 H914 0.960 . S
C928 H915 0.960 . S
C928 C927 1.524 . S
C929 C926 1.403 . S
C929 C930 1.392 . S
C929 C933 1.495 . S
C930 C929 1.392 . S
C930 C931 1.385 . S
C930 C932 1.478 . S
C931 H925 0.930 . S
C931 C927 1.400 . S
C931 C930 1.385 . S
C932 C930 1.478 . S
C932 C934 1.381 . S
C932 C938 1.383 . S
C933 C929 1.495 . S
C933 H939 0.959 . S
C933 H940 0.961 . S
C933 H941 0.960 . S
C934 C932 1.381 . S
C934 C935 1.394 . S
C934 H942 0.930 . S
C935 C934 1.394 . S
C935 C936 1.383 . S
C935 H943 0.929 . S
C936 C935 1.383 . S
C936 C937 1.377 . S
C937 H921 0.930 . S
C937 C936 1.377 . S
C937 C938 1.379 . S
C938 H922 0.931 . S
C938 C932 1.383 . S
C938 C937 1.379 . S
H939 C933 0.959 . S
H940 C933 0.961 . S
H941 C933 0.960 . S
H942 C934 0.930 . S
H943 C935 0.929 . S
H944 C952 0.929 . S
H945 C954 0.930 . S
H946 C956 0.897 1_556 S
H947 C959 0.929 . S
H948 C962 0.930 . S
H949 C964 0.962 1_556 S
H950 C964 0.960 . S
H951 C964 0.960 . S
C952 H944 0.929 . S
C952 C953 1.377 . S
C952 C954 1.384 . S
C953 C952 1.377 . S
C953 C959 1.390 . S
C954 H945 0.930 . S
C954 C952 1.384 . S
C954 C955 1.372 . S
C955 C954 1.372 . S
C955 C956 1.400 . S
C955 C960 1.490 . S
C956 H946 0.897 1_554 S
C956 C955 1.400 . S
C956 C959 1.386 . S
H957 C973 0.930 . S
H958 C974 0.931 . S
C959 H947 0.929 . S
C959 C953 1.390 . S
C959 C956 1.386 . S
C960 C955 1.490 . S
C960 C962 1.395 . S
C960 C963 1.403 . S
H961 C967 0.930 . S
C962 H948 0.930 . S
C962 C960 1.395 . S
C962 C965 1.403 1_554 S
C963 C960 1.403 . S
C963 C964 1.524 . S
C963 C967 1.400 1_554 S
C964 H949 0.962 1_554 S
C964 H950 0.960 . S
C964 H951 0.960 . S
C964 C963 1.524 . S
C965 C962 1.403 1_556 S
C965 C966 1.392 . S
C965 C969 1.495 . S
C966 C965 1.392 . S
C966 C967 1.385 . S
C966 C968 1.478 . S
C967 H961 0.930 . S
C967 C963 1.400 1_556 S
C967 C966 1.385 . S
C968 C966 1.478 . S
C968 C970 1.381 . S
C968 C974 1.383 . S
C969 C965 1.495 . S
C969 H975 0.959 1_556 S
C969 H976 0.961 . S
C969 H977 0.946 1_556 S
C970 C968 1.381 . S
C970 C971 1.394 . S
C970 H978 0.883 1_556 S
C971 C970 1.394 . S
C971 C972 1.383 . S
C971 H979 0.929 . S
C972 C971 1.383 . S
C972 C973 1.377 . S
C973 H957 0.930 . S
C973 C972 1.377 . S
C973 C974 1.379 . S
C974 H958 0.931 . S
C974 C968 1.383 . S
C974 C973 1.379 . S
H975 C969 0.959 1_554 S
H976 C969 0.961 . S
H977 C969 0.946 1_554 S
H978 C970 0.883 1_554 S
H979 C971 0.929 . S
H980 C988 0.929 . S
H981 C990 0.930 . S
H982 C992 0.930 . S
H983 C995 0.929 . S
H984 C998 0.930 . S
H985 C1000 0.960 . S
H986 C1000 0.960 . S
H987 C1000 0.960 . S
C988 H980 0.929 . S
C988 C989 1.377 . S
C988 C990 1.384 . S
C989 C988 1.377 . S
C989 C995 1.390 . S
C990 H981 0.930 . S
C990 C988 1.384 . S
C990 C991 1.372 . S
C991 C990 1.372 . S
C991 C992 1.400 . S
C991 C996 1.490 . S
C992 H982 0.930 . S
C992 C991 1.400 . S
C992 C995 1.386 . S
H993 C1009 0.930 . S
H994 C1010 0.931 . S
C995 H983 0.929 . S
C995 C989 1.390 . S
C995 C992 1.386 . S
C996 C991 1.490 . S
C996 C998 1.395 . S
C996 C999 1.403 . S
H997 C1003 0.930 . S
C998 H984 0.930 . S
C998 C996 1.395 . S
C998 C1001 1.403 . S
C999 C996 1.403 . S
C999 C1000 1.524 . S
C999 C1003 1.400 . S
C1000 H985 0.960 . S
C1000 H986 0.960 . S
C1000 H987 0.960 . S
C1000 C999 1.524 . S
C1001 C998 1.403 . S
C1001 C1002 1.392 . S
C1001 C1005 1.495 . S
C1002 C1001 1.392 . S
C1002 C1003 1.385 . S
C1002 C1004 1.478 . S
C1003 H997 0.930 . S
C1003 C999 1.400 . S
C1003 C1002 1.385 . S
C1004 C1002 1.478 . S
C1004 C1006 1.381 . S
C1004 C1010 1.383 . S
C1005 C1001 1.495 . S
C1005 H1011 0.959 . S
C1005 H1012 0.961 . S
C1005 H1013 0.960 . S
C1006 C1004 1.381 . S
C1006 C1007 1.394 . S
C1006 H1014 0.930 . S
C1007 C1006 1.394 . S
C1007 C1008 1.383 . S
C1007 H1015 0.929 . S
C1008 C1007 1.383 . S
C1008 C1009 1.377 . S
C1009 H993 0.930 . S
C1009 C1008 1.377 . S
C1009 C1010 1.379 . S
C1010 H994 0.931 . S
C1010 C1004 1.383 . S
C1010 C1009 1.379 . S
H1011 C1005 0.959 . S
H1012 C1005 0.961 . S
H1013 C1005 0.960 . S
H1014 C1006 0.930 . S
H1015 C1007 0.929 . S
H1016 C1024 0.929 . S
H1017 C1026 0.930 1_556 S
H1018 C1028 0.930 . S
H1019 C1031 0.929 . S
H1020 C1034 0.930 . S
H1021 C1036 0.960 . S
H1022 C1036 0.960 . S
H1023 C1036 0.960 . S
C1024 H1016 0.929 . S
C1024 C1025 1.377 . S
C1024 C1026 1.384 . S
C1025 C1024 1.377 . S
C1025 C1031 1.390 . S
C1026 H1017 0.930 1_554 S
C1026 C1024 1.384 . S
C1026 C1027 1.372 . S
C1027 C1026 1.372 . S
C1027 C1028 1.400 . S
C1027 C1032 1.490 . S
C1028 H1018 0.930 . S
C1028 C1027 1.400 . S
C1028 C1031 1.386 . S
H1029 C1045 0.930 . S
H1030 C1046 0.886 1_554 S
C1031 H1019 0.929 . S
C1031 C1025 1.390 . S
C1031 C1028 1.386 . S
C1032 C1027 1.490 . S
C1032 C1034 1.395 1_554 S
C1032 C1035 1.403 . S
H1033 C1039 0.930 . S
C1034 H1020 0.930 . S
C1034 C1032 1.395 1_556 S
C1034 C1037 1.403 . S
C1035 C1032 1.403 . S
C1035 C1036 1.524 . S
C1035 C1039 1.400 . S
C1036 H1021 0.960 . S
C1036 H1022 0.960 . S
C1036 H1023 0.960 . S
C1036 C1035 1.524 . S
C1037 C1034 1.403 . S
C1037 C1038 1.392 . S
C1037 C1041 1.495 . S
C1038 C1037 1.392 . S
C1038 C1039 1.385 1_556 S
C1038 C1040 1.478 . S
C1039 H1033 0.930 . S
C1039 C1035 1.400 . S
C1039 C1038 1.385 1_554 S
C1040 C1038 1.478 . S
C1040 C1042 1.381 . S
C1040 C1046 1.383 . S
C1041 C1037 1.495 . S
C1041 H1047 0.959 . S
C1041 H1048 0.961 . S
C1041 H1049 0.960 . S
C1042 C1040 1.381 . S
C1042 C1043 1.394 . S
C1042 H1050 0.930 . S
C1043 C1042 1.394 . S
C1043 C1044 1.383 . S
C1043 H1051 0.929 . S
C1044 C1043 1.383 . S
C1044 C1045 1.377 . S
C1045 H1029 0.930 . S
C1045 C1044 1.377 . S
C1045 C1046 1.379 . S
C1046 H1030 0.886 1_556 S
C1046 C1040 1.383 . S
C1046 C1045 1.379 . S
H1047 C1041 0.959 . S
H1048 C1041 0.961 . S
H1049 C1041 0.960 . S
H1050 C1042 0.930 . S
H1051 C1043 0.929 . S
H1052 C1060 0.929 . S
H1053 C1062 0.930 . S
H1054 C1064 0.930 . S
H1055 C1067 0.929 . S
H1056 C1070 0.930 . S
H1057 C1072 0.960 . S
H1058 C1072 0.960 . S
H1059 C1072 0.960 . S
C1060 H1052 0.929 . S
C1060 C1061 1.377 . S
C1060 C1062 1.384 . S
C1061 C1060 1.377 . S
C1061 C1067 1.390 . S
C1062 H1053 0.930 . S
C1062 C1060 1.384 . S
C1062 C1063 1.372 . S
C1063 C1062 1.372 . S
C1063 C1064 1.400 . S
C1063 C1068 1.490 . S
C1064 H1054 0.930 . S
C1064 C1063 1.400 . S
C1064 C1067 1.386 . S
H1065 C1081 0.930 . S
H1066 C1082 0.931 . S
C1067 H1055 0.929 . S
C1067 C1061 1.390 . S
C1067 C1064 1.386 . S
C1068 C1063 1.490 . S
C1068 C1070 1.395 . S
C1068 C1071 1.403 . S
H1069 C1075 0.930 . S
C1070 H1056 0.930 . S
C1070 C1068 1.395 . S
C1070 C1073 1.403 . S
C1071 C1068 1.403 . S
C1071 C1072 1.524 . S
C1071 C1075 1.400 . S
C1072 H1057 0.960 . S
C1072 H1058 0.960 . S
C1072 H1059 0.960 . S
C1072 C1071 1.524 . S
C1073 C1070 1.403 . S
C1073 C1074 1.392 . S
C1073 C1077 1.495 . S
C1074 C1073 1.392 . S
C1074 C1075 1.385 . S
C1074 C1076 1.478 . S
C1075 H1069 0.930 . S
C1075 C1071 1.400 . S
C1075 C1074 1.385 . S
C1076 C1074 1.478 . S
C1076 C1078 1.381 . S
C1076 C1082 1.383 . S
C1077 C1073 1.495 . S
C1077 H1083 0.959 . S
C1077 H1084 0.961 . S
C1077 H1085 0.960 . S
C1078 C1076 1.381 . S
C1078 C1079 1.394 . S
C1078 H1086 0.930 . S
C1079 C1078 1.394 . S
C1079 C1080 1.383 . S
C1079 H1087 0.929 . S
C1080 C1079 1.383 . S
C1080 C1081 1.377 . S
C1081 H1065 0.930 . S
C1081 C1080 1.377 . S
C1081 C1082 1.379 . S
C1082 H1066 0.931 . S
C1082 C1076 1.383 . S
C1082 C1081 1.379 . S
H1083 C1077 0.959 . S
H1084 C1077 0.961 . S
H1085 C1077 0.960 . S
H1086 C1078 0.930 . S
H1087 C1079 0.929 . S
H1088 C1096 0.929 . S
H1089 C1098 0.930 . S
H1090 C1100 0.930 . S
H1091 C1103 0.929 . S
H1092 C1106 0.930 . S
H1093 C1108 0.960 . S
H1094 C1108 0.960 . S
H1095 C1108 0.960 . S
C1096 H1088 0.929 . S
C1096 C1097 1.377 . S
C1096 C1098 1.384 . S
C1097 C1096 1.377 . S
C1097 C1103 1.390 . S
C1098 H1089 0.930 . S
C1098 C1096 1.384 . S
C1098 C1099 1.372 . S
C1099 C1098 1.372 . S
C1099 C1100 1.400 . S
C1099 C1104 1.490 . S
C1100 H1090 0.930 . S
C1100 C1099 1.400 . S
C1100 C1103 1.386 . S
H1101 C1117 0.930 . S
H1102 C1118 0.931 . S
C1103 H1091 0.929 . S
C1103 C1097 1.390 . S
C1103 C1100 1.386 . S
C1104 C1099 1.490 . S
C1104 C1106 1.395 . S
C1104 C1107 1.403 1_556 S
H1105 C1111 0.930 . S
C1106 H1092 0.930 . S
C1106 C1104 1.395 . S
C1106 C1109 1.403 . S
C1107 C1104 1.403 1_554 S
C1107 C1108 1.524 . S
C1107 C1111 1.400 . S
C1108 H1093 0.960 . S
C1108 H1094 0.960 . S
C1108 H1095 0.960 . S
C1108 C1107 1.524 . S
C1109 C1106 1.403 . S
C1109 C1110 1.392 1_556 S
C1109 C1113 1.495 . S
C1110 C1109 1.392 1_554 S
C1110 C1111 1.385 . S
C1110 C1112 1.478 . S
C1111 H1105 0.930 . S
C1111 C1107 1.400 . S
C1111 C1110 1.385 . S
C1112 C1110 1.478 . S
C1112 C1114 1.381 . S
C1112 C1118 1.383 . S
C1113 C1109 1.495 . S
C1113 H1119 0.959 . S
C1113 H1120 0.961 . S
C1113 H1121 0.960 . S
C1114 C1112 1.381 . S
C1114 C1115 1.394 . S
C1114 H1122 0.930 . S
C1115 C1114 1.394 . S
C1115 C1116 1.383 . S
C1115 H1123 0.929 . S
C1116 C1115 1.383 . S
C1116 C1117 1.377 . S
C1117 H1101 0.930 . S
C1117 C1116 1.377 . S
C1117 C1118 1.379 . S
C1118 H1102 0.931 . S
C1118 C1112 1.383 . S
C1118 C1117 1.379 . S
H1119 C1113 0.959 . S
H1120 C1113 0.961 . S
H1121 C1113 0.960 . S
H1122 C1114 0.930 . S
H1123 C1115 0.929 . S
H1124 C1132 0.929 . S
H1125 C1134 0.930 . S
H1126 C1136 0.930 . S
H1127 C1139 0.929 . S
H1128 C1142 0.930 . S
H1129 C1144 0.960 . S
H1130 C1144 0.960 . S
H1131 C1144 0.960 . S
C1132 H1124 0.929 . S
C1132 C1133 1.377 . S
C1132 C1134 1.384 . S
C1133 C1132 1.377 . S
C1133 C1139 1.390 . S
C1134 H1125 0.930 . S
C1134 C1132 1.384 . S
C1134 C1135 1.372 . S
C1135 C1134 1.372 . S
C1135 C1136 1.400 . S
C1135 C1140 1.490 . S
C1136 H1126 0.930 . S
C1136 C1135 1.400 . S
C1136 C1139 1.386 . S
H1137 C1153 0.930 . S
H1138 C1154 0.931 . S
C1139 H1127 0.929 . S
C1139 C1133 1.390 . S
C1139 C1136 1.386 . S
C1140 C1135 1.490 . S
C1140 C1142 1.395 . S
C1140 C1143 1.403 . S
H1141 C1147 0.930 . S
C1142 H1128 0.930 . S
C1142 C1140 1.395 . S
C1142 C1145 1.403 . S
C1143 C1140 1.403 . S
C1143 C1144 1.524 . S
C1143 C1147 1.400 . S
C1144 H1129 0.960 . S
C1144 H1130 0.960 . S
C1144 H1131 0.960 . S
C1144 C1143 1.524 . S
C1145 C1142 1.403 . S
C1145 C1146 1.392 . S
C1145 C1149 1.495 . S
C1146 C1145 1.392 . S
C1146 C1147 1.385 . S
C1146 C1148 1.478 . S
C1147 H1141 0.930 . S
C1147 C1143 1.400 . S
C1147 C1146 1.385 . S
C1148 C1146 1.478 . S
C1148 C1150 1.381 . S
C1148 C1154 1.383 . S
C1149 C1145 1.495 . S
C1149 H1155 0.959 . S
C1149 H1156 0.961 . S
C1149 H1157 0.960 . S
C1150 C1148 1.381 . S
C1150 C1151 1.394 . S
C1150 H1158 0.930 . S
C1151 C1150 1.394 . S
C1151 C1152 1.383 . S
C1151 H1159 0.929 . S
C1152 C1151 1.383 . S
C1152 C1153 1.377 . S
C1153 H1137 0.930 . S
C1153 C1152 1.377 . S
C1153 C1154 1.379 . S
C1154 H1138 0.931 . S
C1154 C1148 1.383 . S
C1154 C1153 1.379 . S
H1155 C1149 0.959 . S
H1156 C1149 0.961 . S
H1157 C1149 0.960 . S
H1158 C1150 0.930 . S
H1159 C1151 0.929 . S
H1160 C1168 0.929 . S
H1161 C1170 0.930 . S
H1162 C1172 0.930 . S
H1163 C1175 0.929 . S
H1164 C1178 0.930 . S
H1165 C1180 0.960 . S
H1166 C1180 0.960 . S
H1167 C1180 0.960 . S
C1168 H1160 0.929 . S
C1168 C1169 1.377 . S
C1168 C1170 1.384 . S
C1169 C1168 1.377 . S
C1169 C1175 1.390 . S
C1170 H1161 0.930 . S
C1170 C1168 1.384 . S
C1170 C1171 1.372 . S
C1171 C1170 1.372 . S
C1171 C1172 1.400 . S
C1171 C1176 1.490 . S
C1172 H1162 0.930 . S
C1172 C1171 1.400 . S
C1172 C1175 1.386 . S
H1173 C1189 0.930 . S
H1174 C1190 0.931 . S
C1175 H1163 0.929 . S
C1175 C1169 1.390 . S
C1175 C1172 1.386 . S
C1176 C1171 1.490 . S
C1176 C1178 1.395 . S
C1176 C1179 1.403 . S
H1177 C1183 0.930 . S
C1178 H1164 0.930 . S
C1178 C1176 1.395 . S
C1178 C1181 1.403 1_554 S
C1179 C1176 1.403 . S
C1179 C1180 1.524 . S
C1179 C1183 1.400 1_554 S
C1180 H1165 0.960 . S
C1180 H1166 0.960 . S
C1180 H1167 0.960 . S
C1180 C1179 1.524 . S
C1181 C1178 1.403 1_556 S
C1181 C1182 1.392 . S
C1181 C1185 1.495 . S
C1182 C1181 1.392 . S
C1182 C1183 1.385 . S
C1182 C1184 1.478 . S
C1183 H1177 0.930 . S
C1183 C1179 1.400 1_556 S
C1183 C1182 1.385 . S
C1184 C1182 1.478 . S
C1184 C1186 1.381 . S
C1184 C1190 1.383 . S
C1185 C1181 1.495 . S
C1185 H1191 0.959 . S
C1185 H1192 0.961 . S
C1185 H1193 0.960 . S
C1186 C1184 1.381 . S
C1186 C1187 1.394 . S
C1186 H1194 0.930 . S
C1187 C1186 1.394 . S
C1187 C1188 1.383 . S
C1187 H1195 0.929 . S
C1188 C1187 1.383 . S
C1188 C1189 1.377 . S
C1189 H1173 0.930 . S
C1189 C1188 1.377 . S
C1189 C1190 1.379 . S
C1190 H1174 0.931 . S
C1190 C1184 1.383 . S
C1190 C1189 1.379 . S
H1191 C1185 0.959 . S
H1192 C1185 0.961 . S
H1193 C1185 0.960 . S
H1194 C1186 0.930 . S
H1195 C1187 0.929 . S
H1196 C1204 0.929 . S
H1197 C1206 0.930 . S
H1198 C1208 0.930 . S
H1199 C1211 0.929 . S
H1200 C1214 0.930 . S
H1201 C1216 0.960 . S
H1202 C1216 0.960 . S
H1203 C1216 0.960 . S
C1204 H1196 0.929 . S
C1204 C1205 1.377 . S
C1204 C1206 1.384 . S
C1205 C1204 1.377 . S
C1205 C1211 1.390 . S
C1206 H1197 0.930 . S
C1206 C1204 1.384 . S
C1206 C1207 1.372 . S
C1207 C1206 1.372 . S
C1207 C1208 1.400 . S
C1207 C1212 1.490 . S
C1208 H1198 0.930 . S
C1208 C1207 1.400 . S
C1208 C1211 1.386 . S
H1209 C1225 0.930 . S
H1210 C1226 0.931 . S
C1211 H1199 0.929 . S
C1211 C1205 1.390 . S
C1211 C1208 1.386 . S
C1212 C1207 1.490 . S
C1212 C1214 1.395 . S
C1212 C1215 1.403 . S
H1213 C1219 0.930 . S
C1214 H1200 0.930 . S
C1214 C1212 1.395 . S
C1214 C1217 1.403 . S
C1215 C1212 1.403 . S
C1215 C1216 1.524 . S
C1215 C1219 1.400 . S
C1216 H1201 0.960 . S
C1216 H1202 0.960 . S
C1216 H1203 0.960 . S
C1216 C1215 1.524 . S
C1217 C1214 1.403 . S
C1217 C1218 1.392 . S
C1217 C1221 1.495 . S
C1218 C1217 1.392 . S
C1218 C1219 1.385 . S
C1218 C1220 1.478 . S
C1219 H1213 0.930 . S
C1219 C1215 1.400 . S
C1219 C1218 1.385 . S
C1220 C1218 1.478 . S
C1220 C1222 1.381 . S
C1220 C1226 1.383 . S
C1221 C1217 1.495 . S
C1221 H1227 0.959 . S
C1221 H1228 0.961 . S
C1221 H1229 0.960 . S
C1222 C1220 1.381 . S
C1222 C1223 1.394 . S
C1222 H1230 0.930 . S
C1223 C1222 1.394 . S
C1223 C1224 1.383 . S
C1223 H1231 0.929 . S
C1224 C1223 1.383 . S
C1224 C1225 1.377 . S
C1225 H1209 0.930 . S
C1225 C1224 1.377 . S
C1225 C1226 1.379 . S
C1226 H1210 0.931 . S
C1226 C1220 1.383 . S
C1226 C1225 1.379 . S
H1227 C1221 0.959 . S
H1228 C1221 0.961 . S
H1229 C1221 0.960 . S
H1230 C1222 0.930 . S
H1231 C1223 0.929 . S
H1232 C1240 0.929 . S
H1233 C1242 0.930 . S
H1234 C1244 0.930 1_554 S
H1235 C1247 0.929 . S
H1236 C1250 0.930 . S
H1237 C1252 0.960 . S
H1238 C1252 0.960 1_556 S
H1239 C1252 0.960 . S
C1240 H1232 0.929 . S
C1240 C1241 1.377 . S
C1240 C1242 1.384 . S
C1241 C1240 1.377 . S
C1241 C1247 1.390 . S
C1242 H1233 0.930 . S
C1242 C1240 1.384 . S
C1242 C1243 1.372 . S
C1243 C1242 1.372 . S
C1243 C1244 1.400 . S
C1243 C1248 1.490 . S
C1244 H1234 0.930 1_556 S
C1244 C1243 1.400 . S
C1244 C1247 1.386 . S
H1245 C1261 0.930 . S
H1246 C1262 0.931 . S
C1247 H1235 0.929 . S
C1247 C1241 1.390 . S
C1247 C1244 1.386 . S
C1248 C1243 1.490 . S
C1248 C1250 1.395 . S
C1248 C1251 1.403 1_556 S
H1249 C1255 0.930 . S
C1250 H1236 0.930 . S
C1250 C1248 1.395 . S
C1250 C1253 1.403 1_545 S
C1251 C1248 1.403 1_554 S
C1251 C1252 1.524 . S
C1251 C1255 1.400 1_545 S
C1252 H1237 0.960 . S
C1252 H1238 0.960 1_554 S
C1252 H1239 0.960 . S
C1252 C1251 1.524 . S
C1253 C1250 1.403 1_565 S
C1253 C1254 1.392 1_556 S
C1253 C1257 1.495 . S
C1254 C1253 1.392 1_554 S
C1254 C1255 1.385 . S
C1254 C1256 1.478 . S
C1255 H1249 0.930 . S
C1255 C1251 1.400 1_565 S
C1255 C1254 1.385 . S
C1256 C1254 1.478 . S
C1256 C1258 1.381 . S
C1256 C1262 1.383 . S
C1257 C1253 1.495 . S
C1257 H1263 0.959 . S
C1257 H1264 0.961 1_556 S
C1257 H1265 0.960 . S
C1258 C1256 1.381 . S
C1258 C1259 1.394 . S
C1258 H1266 0.930 1_554 S
C1259 C1258 1.394 . S
C1259 C1260 1.383 . S
C1259 H1267 0.929 . S
C1260 C1259 1.383 . S
C1260 C1261 1.377 . S
C1261 H1245 0.930 . S
C1261 C1260 1.377 . S
C1261 C1262 1.379 . S
C1262 H1246 0.931 . S
C1262 C1256 1.383 . S
C1262 C1261 1.379 . S
H1263 C1257 0.959 . S
H1264 C1257 0.961 1_554 S
H1265 C1257 0.960 . S
H1266 C1258 0.930 1_556 S
H1267 C1259 0.929 . S
H1268 C1276 0.929 . S
H1269 C1278 0.930 . S
H1270 C1280 0.930 . S
H1271 C1283 0.929 . S
H1272 C1286 0.930 1_565 S
H1273 C1288 0.960 . S
H1274 C1288 0.960 . S
H1275 C1288 0.960 . S
C1276 H1268 0.929 . S
C1276 C1277 1.377 . S
C1276 C1278 1.384 . S
C1277 C1276 1.377 . S
C1277 C1283 1.390 . S
C1278 H1269 0.930 . S
C1278 C1276 1.384 . S
C1278 C1279 1.372 . S
C1279 C1278 1.372 . S
C1279 C1280 1.400 . S
C1279 C1284 1.490 . S
C1280 H1270 0.930 . S
C1280 C1279 1.400 . S
C1280 C1283 1.386 . S
H1281 C1297 0.930 . S
H1282 C1298 0.931 . S
C1283 H1271 0.929 . S
C1283 C1277 1.390 . S
C1283 C1280 1.386 . S
C1284 C1279 1.490 . S
C1284 C1286 1.399 1_565 S
C1284 C1287 1.403 . S
H1285 C1291 0.930 . S
C1286 H1272 0.930 1_545 S
C1286 C1284 1.399 1_545 S
C1286 C1289 1.399 . S
C1287 C1284 1.403 . S
C1287 C1288 1.524 . S
C1287 C1291 1.400 1_565 S
C1288 H1273 0.960 . S
C1288 H1274 0.960 . S
C1288 H1275 0.960 . S
C1288 C1287 1.524 . S
C1289 C1286 1.399 . S
C1289 C1290 1.392 . S
C1289 C1293 1.495 . S
C1290 C1289 1.392 . S
C1290 C1291 1.385 . S
C1290 C1292 1.478 . S
C1291 H1285 0.930 . S
C1291 C1287 1.400 1_545 S
C1291 C1290 1.385 . S
C1292 C1290 1.478 . S
C1292 C1294 1.381 . S
C1292 C1298 1.383 . S
C1293 C1289 1.495 . S
C1293 H1299 0.959 . S
C1293 H1300 0.961 . S
C1293 H1301 0.960 . S
C1294 C1292 1.381 . S
C1294 C1295 1.394 . S
C1294 H1302 0.930 . S
C1295 C1294 1.394 . S
C1295 C1296 1.383 . S
C1295 H1303 0.929 . S
C1296 C1295 1.383 . S
C1296 C1297 1.377 . S
C1297 H1281 0.930 . S
C1297 C1296 1.377 . S
C1297 C1298 1.379 . S
C1298 H1282 0.931 . S
C1298 C1292 1.383 . S
C1298 C1297 1.379 . S
H1299 C1293 0.959 . S
H1300 C1293 0.961 . S
H1301 C1293 0.960 . S
H1302 C1294 0.930 . S
H1303 C1295 0.929 . S
H1304 C1312 0.929 . S
H1305 C1314 0.930 . S
H1306 C1316 0.930 . S
H1307 C1319 0.929 . S
H1308 C1322 0.930 . S
H1309 C1324 0.956 . S
H1310 C1324 0.963 1_565 S
H1311 C1324 0.962 1_565 S
C1312 H1304 0.929 . S
C1312 C1313 1.377 . S
C1312 C1314 1.384 . S
C1313 C1312 1.377 . S
C1313 C1319 1.390 . S
C1314 H1305 0.930 . S
C1314 C1312 1.384 . S
C1314 C1315 1.372 . S
C1315 C1314 1.372 . S
C1315 C1316 1.400 . S
C1315 C1320 1.490 . S
C1316 H1306 0.930 . S
C1316 C1315 1.400 . S
C1316 C1319 1.386 . S
H1317 C1333 0.930 . S
H1318 C1334 0.931 . S
C1319 H1307 0.929 . S
C1319 C1313 1.390 . S
C1319 C1316 1.386 . S
C1320 C1315 1.490 . S
C1320 C1322 1.395 1_554 S
C1320 C1323 1.403 . S
H1321 C1327 0.930 . S
C1322 H1308 0.930 . S
C1322 C1320 1.395 1_556 S
C1322 C1325 1.403 . S
C1323 C1320 1.403 . S
C1323 C1324 1.524 1_565 S
C1323 C1327 1.400 1_565 S
C1324 H1309 0.956 . S
C1324 H1310 0.963 1_545 S
C1324 H1311 0.962 1_545 S
C1324 C1323 1.524 1_545 S
C1325 C1322 1.403 . S
C1325 C1326 1.392 1_565 S
C1325 C1329 1.495 . S
C1326 C1325 1.392 1_545 S
C1326 C1327 1.385 1_556 S
C1326 C1328 1.478 . S
C1327 H1321 0.930 . S
C1327 C1323 1.400 1_545 S
C1327 C1326 1.385 1_554 S
C1328 C1326 1.478 . S
C1328 C1330 1.381 . S
C1328 C1334 1.383 . S
C1329 C1325 1.495 . S
C1329 H1335 0.959 . S
C1329 H1336 0.961 1_565 S
C1329 H1337 0.960 1_565 S
C1330 C1328 1.381 . S
C1330 C1331 1.394 . S
C1330 H1338 0.930 . S
C1331 C1330 1.394 . S
C1331 C1332 1.383 . S
C1331 H1339 0.929 . S
C1332 C1331 1.383 . S
C1332 C1333 1.377 . S
C1333 H1317 0.930 . S
C1333 C1332 1.377 . S
C1333 C1334 1.379 . S
C1334 H1318 0.931 . S
C1334 C1328 1.383 . S
C1334 C1333 1.379 . S
H1335 C1329 0.959 . S
H1336 C1329 0.961 1_545 S
H1337 C1329 0.960 1_545 S
H1338 C1330 0.930 . S
H1339 C1331 0.929 . S
H1340 C1348 0.929 . S
H1341 C1350 0.930 . S
H1342 C1352 0.930 . S
H1343 C1355 0.929 . S
H1344 C1358 0.933 . S
H1345 C1360 0.960 . S
H1346 C1360 0.960 . S
H1347 C1360 0.960 . S
C1348 H1340 0.929 . S
C1348 C1349 1.377 . S
C1348 C1350 1.384 . S
C1349 C1348 1.377 . S
C1349 C1355 1.390 . S
C1350 H1341 0.930 . S
C1350 C1348 1.384 . S
C1350 C1351 1.372 . S
C1351 C1350 1.372 . S
C1351 C1352 1.400 . S
C1351 C1356 1.490 . S
C1352 H1342 0.930 . S
C1352 C1351 1.400 . S
C1352 C1355 1.386 . S
H1353 C1369 0.930 . S
H1354 C1370 0.931 . S
C1355 H1343 0.929 . S
C1355 C1349 1.390 . S
C1355 C1352 1.386 . S
C1356 C1351 1.490 . S
C1356 C1358 1.417 . S
C1356 C1359 1.403 . S
H1357 C1363 0.930 . S
C1358 H1344 0.933 . S
C1358 C1356 1.417 . S
C1358 C1361 1.379 1_545 S
C1359 C1356 1.403 . S
C1359 C1360 1.524 . S
C1359 C1363 1.400 1_545 S
C1360 H1345 0.960 . S
C1360 H1346 0.960 . S
C1360 H1347 0.960 . S
C1360 C1359 1.524 . S
C1361 C1358 1.379 1_565 S
C1361 C1362 1.392 . S
C1361 C1365 1.495 . S
C1362 C1361 1.392 . S
C1362 C1363 1.385 . S
C1362 C1364 1.478 . S
C1363 H1357 0.930 . S
C1363 C1359 1.400 1_565 S
C1363 C1362 1.385 . S
C1364 C1362 1.478 . S
C1364 C1366 1.381 . S
C1364 C1370 1.383 . S
C1365 C1361 1.495 . S
C1365 H1371 0.959 . S
C1365 H1372 0.961 . S
C1365 H1373 0.960 . S
C1366 C1364 1.381 . S
C1366 C1367 1.394 . S
C1366 H1374 0.930 . S
C1367 C1366 1.394 . S
C1367 C1368 1.383 . S
C1367 H1375 0.929 . S
C1368 C1367 1.383 . S
C1368 C1369 1.377 . S
C1369 H1353 0.930 . S
C1369 C1368 1.377 . S
C1369 C1370 1.379 . S
C1370 H1354 0.931 . S
C1370 C1364 1.383 . S
C1370 C1369 1.379 . S
H1371 C1365 0.959 . S
H1372 C1365 0.961 . S
H1373 C1365 0.960 . S
H1374 C1366 0.930 . S
H1375 C1367 0.929 . S
C233 C4 1.464 . S
C252 C88 1.462 . S
C269 C18 1.457 . S
C288 C102 1.450 . S
C305 C60 1.460 . S
C324 C32 1.441 . S
C341 C74 1.462 . S
C360 C46 1.448 . S
C377 C200 1.458 . S
C396 C116 1.447 . S
C413 C214 1.462 . S
C432 C130 1.449 . S
C449 C144 1.457 . S
C468 C172 1.450 . S
C485 C158 1.464 . S
C504 C186 1.466 . S
C521 C5 1.263 . S
C540 C82 1.397 . S
C557 C19 1.252 . S
C576 C68 1.382 . S
C593 C33 1.248 . S
C612 C110 1.389 . S
C629 C96 1.394 . S
C648 C47 1.298 . S
C665 C194 1.390 . S
C684 C117 1.205 . S
C701 C180 1.391 . S
C720 C131 1.268 . S
C737 C145 1.262 . S
C756 C222 1.393 . S
C773 C208 1.390 . S
C792 C159 1.220 . S
C809 C179 1.283 . S
C828 C11 1.275 . S
C845 C25 1.285 . S
C864 C193 1.287 . S
C881 C207 1.286 . S
C900 C39 1.269 . S
C917 C221 1.282 . S
C936 C53 1.267 . S
C953 C123 1.288 . S
C972 C67 1.303 . S
C989 C137 1.287 . S
C1008 C81 1.302 . S
C1025 C95 1.291 . S
C1044 C151 1.302 . S
C1061 C109 1.288 . S
C1080 C165 1.279 . S
C1097 C40 1.521 . S
C1116 C12 1.518 . S
C1133 C26 1.524 . S
C1152 C54 1.510 . S
C1169 C89 1.133 . S
C1188 C61 1.181 . S
C1205 C75 1.130 . S
C1224 C103 1.121 . S
C1241 C152 1.521 . S
C1260 C124 1.528 . S
C1277 C166 1.521 . S
C1296 C138 1.522 . S
C1313 C201 1.147 . S
C1332 C173 1.101 . S
C1349 C215 1.125 . S
C1368 C187 1.163 . S
