# Generated by pormake.
# Topology rob, (6)-cn, num edge types: 1
# Building blocks:
#     Node 0, Type 0, BuildingBlock: GEDQOX_clean_sbu_0, # of connection points: 6
#     Node 1, Type 0, BuildingBlock: GEDQOX_clean_sbu_0, # of connection points: 6
#     Node 2, Type 0, BuildingBlock: GEDQOX_clean_sbu_0, # of connection points: 6
#     Node 3, Type 0, BuildingBlock: GEDQOX_clean_sbu_0, # of connection points: 6
#     Edge 4, Type (0, 0), BuildingBlock: CIFDUS_clean_linker_0, # of connection points: 2
#     Edge 5, Type (0, 0), BuildingBlock: CIFDUS_clean_linker_0, # of connection points: 2
#     Edge 6, Type (0, 0), BuildingBlock: CIFDUS_clean_linker_0, # of connection points: 2
#     Edge 7, Type (0, 0), BuildingBlock: CIFDUS_clean_linker_0, # of connection points: 2
#     Edge 8, Type (0, 0), BuildingBlock: CIFDUS_clean_linker_0, # of connection points: 2
#     Edge 9, Type (0, 0), BuildingBlock: CIFDUS_clean_linker_0, # of connection points: 2
#     Edge 10, Type (0, 0), BuildingBlock: CIFDUS_clean_linker_0, # of connection points: 2
#     Edge 11, Type (0, 0), BuildingBlock: CIFDUS_clean_linker_0, # of connection points: 2
#     Edge 12, Type (0, 0), BuildingBlock: CIFDUS_clean_linker_0, # of connection points: 2
#     Edge 13, Type (0, 0), BuildingBlock: CIFDUS_clean_linker_0, # of connection points: 2
#     Edge 14, Type (0, 0), BuildingBlock: CIFDUS_clean_linker_0, # of connection points: 2
#     Edge 15, Type (0, 0), BuildingBlock: CIFDUS_clean_linker_0, # of connection points: 2
# Relax obj value: 0.066
# Max RMSD: 0.220
# Mean RMSD: 0.153
data_MOF--net-rob--node1-GEDQOX_clean_sbu_0--edge1-CIFDUS_clean_linker_0
_symmetry_space_group_name_H-M    P1
_symmetry_Int_Tables_number       1
_symmetry_cell_setting            triclinic
loop_
_symmetry_equiv_pos_as_xyz
'x, y, z'
_cell_length_a     17.614941
_cell_length_b     32.140207
_cell_length_c     26.965071
_cell_angle_alpha  110.05488
_cell_angle_beta   112.21732
_cell_angle_gamma 53.19756
loop_
_atom_site_label
_atom_site_type_symbol
_atom_site_fract_x
_atom_site_fract_y
_atom_site_fract_z
_atom_type_partial_charge
Nd0 Nd 0.14152 0.3611 0.00284 0.0
Nd1 Nd 0.22215 0.24519 0.9752 0.0
C2 C 0.09716 0.45681 0.00721 0.0
C3 C 0.15145 0.47692 0.00289 0.0
C4 C 0.16609 0.47165 0.95272 0.0
C5 C 0.22574 0.48575 0.9501 0.0
C6 C 0.27294 0.50508 -0.00253 0.0
C7 C 0.25454 0.51279 0.0473 0.0
C8 C 0.19437 0.49899 0.04994 0.0
C9 C 0.26938 0.30617 0.08637 0.0
C10 C 0.3275 0.28015 0.94175 0.0
C11 C 0.274 0.14867 0.97423 0.0
C12 C 0.2227 0.12603 0.9762 0.0
C13 C 0.16193 0.15016 0.01243 0.0
C14 C 0.10637 0.1313 0.01003 0.0
C15 C 0.11026 0.08784 0.97135 0.0
C16 C 0.17337 0.06291 0.9362 0.0
C17 C 0.22879 0.08183 0.9386 0.0
C18 C 0.09299 0.29988 0.89177 0.0
C19 C 0.02991 0.3269 0.03183 0.0
O20 O 0.06913 0.43075 0.96336 0.0
O21 O 0.13107 0.43535 0.05018 0.0
O22 O 0.18888 0.35132 0.09077 0.0
O23 O 0.28276 0.29108 0.03895 0.0
O24 O 0.25145 0.32783 0.95169 0.0
O25 O 0.34383 0.23921 0.95524 0.0
O26 O 0.29222 0.17825 0.01817 0.0
O27 O 0.24368 0.16795 0.93022 0.0
O28 O 0.17179 0.25392 0.88647 0.0
O29 O 0.08099 0.31519 0.93947 0.0
O30 O 0.10447 0.27878 0.02111 0.0
O31 O 0.01783 0.3682 0.02181 0.0
H32 H 0.13342 0.45546 0.91551 0.0
H33 H 0.23576 0.48107 0.91091 0.0
H34 H 0.28953 0.52766 0.08455 0.0
H35 H 0.18386 0.50408 0.08918 0.0
H36 H 0.15551 0.18438 0.04183 0.0
H37 H 0.05802 0.15189 0.03739 0.0
H38 H 0.17958 1.02886 0.9065 0.0
H39 H 0.2751 0.06252 0.91026 0.0
Nd40 Nd 0.6698 0.84596 -0.00137 0.0
Nd41 Nd 0.74834 0.73145 0.98077 0.0
C42 C 0.61786 0.94075 -0.00764 0.0
C43 C 0.66864 0.96334 -0.01046 0.0
C44 C 0.72733 0.93982 0.95228 0.0
C45 C 0.78157 0.95916 0.95379 0.0
C46 C 0.77934 1.00205 -0.0071 0.0
C47 C 0.71802 1.02646 0.02896 0.0
C48 C 0.66336 1.00735 0.02723 0.0
C49 C 0.79748 0.79826 0.08736 0.0
C50 C 0.86344 0.75863 0.94406 0.0
C51 C 0.79212 0.63787 0.98462 0.0
C52 C 0.73932 0.61974 -0.00557 0.0
C53 C 0.72003 0.63206 0.0454 0.0
C54 C 0.6618 0.61905 0.05217 0.0
C55 C 0.62069 0.59382 0.00813 0.0
C56 C 0.64292 0.58 0.95767 0.0
C57 C 0.7018 0.59254 0.95104 0.0
C58 C 0.63168 0.77789 0.89057 0.0
C59 C 0.56336 0.81791 0.04178 0.0
O60 O 0.6043 0.9084 0.95014 0.0
O61 O 0.64434 0.92498 0.03805 0.0
O62 O 0.71767 0.84416 0.08914 0.0
O63 O 0.81077 0.77868 0.0398 0.0
O64 O 0.78987 0.80771 0.95263 0.0
O65 O 0.87394 0.71985 0.95868 0.0
O66 O 0.82321 0.66476 0.02545 0.0
O67 O 0.75448 0.65715 0.93973 0.0
O68 O 0.71122 0.73179 0.89086 0.0
O69 O 0.61147 0.79818 0.93685 0.0
O70 O 0.63869 0.76948 0.03387 0.0
O71 O 0.5473 0.85606 0.02292 0.0
H72 H 0.73313 0.90576 0.92273 0.0
H73 H 0.82759 0.93947 0.92537 0.0
H74 H 0.71266 0.06023 0.0589 0.0
H75 H 0.61839 1.02633 0.05625 0.0
H76 H 0.74812 0.65273 0.07988 0.0
H77 H 0.64855 0.62905 0.09193 0.0
H78 H 0.6122 0.561 0.92262 0.0
H79 H 0.71556 0.58233 0.91131 0.0
Nd80 Nd 0.24343 0.82121 0.47646 0.0
Nd81 Nd 0.08985 0.82753 0.52299 0.0
C82 C 0.30653 0.85019 0.42737 0.0
C83 C 0.33397 0.83946 0.37617 0.0
C84 C 0.27059 0.87465 0.33829 0.0
C85 C 0.29736 0.86709 0.29151 0.0
C86 C 0.38863 0.82415 0.28124 0.0
C87 C 0.45205 0.78903 0.31932 0.0
C88 C 0.42523 0.79659 0.36605 0.0
C89 C 0.30168 0.72157 0.48475 0.0
C90 C 0.07005 0.79929 0.39373 0.0
C91 C 0.00368 0.81505 0.57392 0.0
C92 C 0.0157 0.80199 0.62498 0.0
C93 C 0.06668 0.81585 0.67494 0.0
C94 C 0.06908 0.80717 0.72324 0.0
C95 C 0.0207 0.78437 0.72254 0.0
C96 C -0.02701 0.76879 0.67205 0.0
C97 C -0.02946 0.77755 0.62392 0.0
C98 C 0.03531 0.91909 0.49608 0.0
C99 C 0.27248 0.83833 0.60767 0.0
O100 O 0.2141 0.87217 0.4246 0.0
O101 O 0.36502 0.81575 0.46112 0.0
O102 O 0.3524 0.72987 0.46904 0.0
O103 O 0.22694 0.76538 0.49543 0.0
O104 O 0.13313 0.81174 0.40028 0.0
O105 O 0.04796 0.79777 0.43442 0.0
O106 O 0.05912 0.77708 0.54102 0.0
O107 O -0.00991 0.86039 0.57618 0.0
O108 O -0.02597 0.9065 0.48995 0.0
O109 O 0.12001 0.88486 0.51796 0.0
O110 O 0.2063 0.82753 0.59854 0.0
O111 O 0.29606 0.84185 0.56854 0.0
H112 H 0.20019 0.90852 0.34506 0.0
H113 H 0.24603 0.89475 0.26317 0.0
H114 H 0.52369 0.75602 0.31365 0.0
H115 H 0.47673 0.76909 0.39455 0.0
H116 H 0.10274 0.83442 0.67675 0.0
H117 H 0.10754 0.8191 0.76124 0.0
H118 H 0.93376 0.75187 0.6698 0.0
H119 H 0.93069 0.7666 0.58582 0.0
Nd120 Nd 0.73364 0.31874 0.46458 0.0
Nd121 Nd 0.60241 0.32245 0.51823 0.0
C122 C 0.80171 0.33988 0.41012 0.0
C123 C 0.80087 0.34393 0.35663 0.0
C124 C 0.74204 0.3932 0.33913 0.0
C125 C 0.75156 0.39935 0.29329 0.0
C126 C 0.82047 0.35645 0.26386 0.0
C127 C 0.87667 0.30673 0.28015 0.0
C128 C 0.86727 0.30059 0.32609 0.0
C129 C 0.79442 0.22217 0.4819 0.0
C130 C 0.54913 0.30688 0.38833 0.0
C131 C 0.53726 0.30018 0.57331 0.0
C132 C 0.52521 0.30513 0.62708 0.0
C133 C 0.59647 0.2662 0.66041 0.0
C134 C 0.57973 0.26757 0.708 0.0
C135 C 0.49125 0.30782 0.72328 0.0
C136 C 0.42066 0.34699 0.69017 0.0
C137 C 0.43733 0.3456 0.64273 0.0
C138 C 0.54129 0.41951 0.50191 0.0
C139 C 0.7907 0.33191 0.59443 0.0
O140 O 0.72373 0.37513 0.42936 0.0
O141 O 0.84568 0.29331 0.4227 0.0
O142 O 0.85407 0.23522 0.48628 0.0
O143 O 0.70744 0.25844 0.46601 0.0
O144 O 0.60978 0.31996 0.39249 0.0
O145 O 0.54048 0.29943 0.43048 0.0
O146 O 0.62519 0.26921 0.56452 0.0
O147 O 0.48297 0.34201 0.54958 0.0
O148 O 0.48187 0.40682 0.49888 0.0
O149 O 0.62842 0.38287 0.517 0.0
O150 O 0.72431 0.32306 0.59063 0.0
O151 O 0.80388 0.33654 0.55215 0.0
H152 H 0.6909 0.42759 0.36201 0.0
H153 H 0.70637 0.43805 0.2816 0.0
H154 H 0.93142 0.27294 0.25894 0.0
H155 H 0.91478 0.26227 0.33883 0.0
H156 H 0.66446 0.23393 0.64915 0.0
H157 H 0.63589 0.237 0.73266 0.0
H158 H 0.35083 0.37804 0.69996 0.0
H159 H 0.37999 0.37554 0.61751 0.0
H160 H 0.60499 0.50816 0.962 0.0
H161 H 0.48021 0.65727 0.06736 0.0
H162 H 0.36385 0.64283 0.07454 0.0
H163 H 0.29314 0.58904 0.0485 0.0
H164 H 0.41715 0.44087 0.94209 0.0
H165 H 0.53563 0.45448 0.93657 0.0
C166 C 0.55197 0.53778 0.98625 0.0
C167 C 0.55202 0.58376 0.01407 0.0
C168 C 0.48391 0.52967 -0.01047 0.0
C169 C 0.48346 0.62108 0.04609 0.0
C170 C 0.41605 0.61309 0.04988 0.0
C171 C 0.34635 0.55968 0.02428 0.0
C172 C 0.34499 0.51432 -0.00498 0.0
C173 C 0.41512 0.56766 0.02153 0.0
C174 C 0.41457 0.47675 0.96379 0.0
C175 C 0.48314 0.48428 0.96105 0.0
H176 H 0.48263 0.63264 0.49467 0.0
H177 H 0.18484 0.69186 0.48492 0.0
H178 H 0.23155 0.60388 0.48846 0.0
H179 H 0.35776 0.50904 0.49259 0.0
H180 H 0.65713 0.45212 0.50879 0.0
H181 H 0.60944 0.53956 0.50387 0.0
C182 C 0.428 0.62631 0.49354 0.0
C183 C 0.33027 0.6689 0.48973 0.0
C184 C 0.45582 0.57567 0.4962 0.0
C185 C 0.26057 0.66004 0.48857 0.0
C186 C 0.28731 0.60956 0.4902 0.0
C187 C 0.41251 0.51578 0.49497 0.0
C188 C 0.51091 0.4735 0.49988 0.0
C189 C 0.38475 0.56691 0.49377 0.0
C190 C 0.58086 0.48336 0.50381 0.0
C191 C 0.55362 0.53359 0.50136 0.0
H192 H 0.06503 0.07965 0.05285 0.0
H193 H 0.01074 1.05553 0.87842 0.0
H194 H 0.90491 1.02683 0.86956 0.0
H195 H 0.82481 1.01002 0.91111 0.0
H196 H 0.88006 1.03372 0.08562 0.0
H197 H -0.0142 0.06233 0.09438 0.0
C198 C 0.02956 0.06849 0.01286 0.0
C199 C 0.0465 0.06969 0.96643 0.0
C200 C -0.03206 1.05232 0.00794 0.0
C201 C 0.00064 1.05429 0.91497 0.0
C202 C -0.06066 1.0382 0.9098 0.0
C203 C 0.86045 1.02106 0.9511 0.0
C204 C 0.84343 1.01994 -0.00242 0.0
C205 C 0.92232 1.03708 0.95599 0.0
C206 C 0.88982 1.03507 0.04901 0.0
C207 C -0.04885 1.05109 0.05414 0.0
H208 H -0.02067 0.13537 0.50262 0.0
H209 H 0.67691 0.18696 0.46298 0.0
H210 H 0.72394 0.09802 0.46173 0.0
H211 H 0.85113 1.00508 0.47222 0.0
H212 H 0.15368 0.95365 0.51379 0.0
H213 H 0.1068 1.04222 0.51327 0.0
C214 C 0.92376 0.12714 0.49381 0.0
C215 C 0.82458 0.168 0.48292 0.0
C216 C -0.04854 0.07559 0.49309 0.0
C217 C 0.75367 0.15647 0.47156 0.0
C218 C 0.78057 0.10546 0.47071 0.0
C219 C 0.90683 1.01316 0.48083 0.0
C220 C 0.00595 0.97247 0.49268 0.0
C221 C 0.87922 0.06461 0.48131 0.0
C222 C 0.07696 0.98395 0.50416 0.0
C223 C 0.05013 1.03477 0.50411 0.0
H224 H 0.60056 0.27276 0.29291 0.0
H225 H 0.37281 0.31989 0.36415 0.0
H226 H 0.27111 0.31371 0.27396 0.0
H227 H 0.23924 0.3073 0.17613 0.0
H228 H 0.46499 0.2609 0.10404 0.0
H229 H 0.57752 0.25252 0.19358 0.0
C230 C 0.52889 0.28129 0.2885 0.0
C231 C 0.49261 0.29808 0.33456 0.0
C232 C 0.4714 0.27735 0.23672 0.0
C233 C 0.40122 0.30755 0.32892 0.0
C234 C 0.34329 0.30398 0.27753 0.0
C235 C 0.31408 0.29392 0.18011 0.0
C236 C 0.34435 0.2854 0.13456 0.0
C237 C 0.37657 0.29056 0.23134 0.0
C238 C 0.44102 0.26753 0.13912 0.0
C239 C 0.50459 0.26345 0.1902 0.0
H240 H 0.56964 0.74742 0.0799 0.0
H241 H 0.43209 0.9143 0.09086 0.0
H242 H 0.36227 0.93133 0.16416 0.0
H243 H 0.35218 0.89812 0.23068 0.0
H244 H 0.49097 0.73071 0.21805 0.0
H245 H 0.54939 0.71498 0.1409 0.0
C246 C 0.52349 0.78768 0.09773 0.0
C247 C 0.50685 0.82947 0.0797 0.0
C248 C 0.48504 0.79713 0.14051 0.0
C249 C 0.44611 0.88128 0.10346 0.0
C250 C 0.40672 0.89102 0.14581 0.0
C251 C 0.39402 0.85818 0.21065 0.0
C252 C 0.41814 0.81566 0.2313 0.0
C253 C 0.42744 0.84917 0.16555 0.0
C254 C 0.47306 0.76427 0.20447 0.0
C255 C 0.50602 0.75514 0.15982 0.0
H256 H 0.43451 0.84074 0.85826 0.0
H257 H 0.70261 0.76555 0.8107 0.0
H258 H 0.61273 0.78591 0.71905 0.0
H259 H 0.46042 0.81173 0.64882 0.0
H260 H 0.19355 0.88088 0.69488 0.0
H261 H 0.27916 0.87699 0.79005 0.0
C262 C 0.47251 0.83026 0.82809 0.0
C263 C 0.57445 0.8013 0.84061 0.0
C264 C 0.42053 0.84027 0.77476 0.0
C265 C 0.62371 0.78742 0.8014 0.0
C266 C 0.57251 0.79889 0.74899 0.0
C267 C 0.4209 0.82716 0.67993 0.0
C268 C 0.32154 0.84571 0.66495 0.0
C269 C 0.47122 0.82325 0.73453 0.0
C270 C 0.2708 0.86548 0.70552 0.0
C271 C 0.31959 0.86331 0.75998 0.0
H272 H 0.53398 0.22492 0.761 0.0
H273 H 0.40095 0.39335 0.7968 0.0
H274 H 0.34667 0.39809 0.87015 0.0
H275 H 0.32759 0.35658 0.92085 0.0
H276 H 0.45624 0.18871 0.88595 0.0
H277 H 0.52607 0.18151 0.81782 0.0
C278 C 0.49512 0.26254 0.7857 0.0
C279 C 0.47033 0.30885 0.77258 0.0
C280 C 0.46438 0.26518 0.82865 0.0
C281 C 0.4193 0.35722 0.80497 0.0
C282 C 0.38898 0.36001 0.84746 0.0
C283 C 0.37184 0.31818 0.8989 0.0
C284 C 0.3857 0.27332 0.90824 0.0
C285 C 0.40947 0.31454 0.85904 0.0
C286 C 0.4444 0.22392 0.87974 0.0
C287 C 0.48368 0.21986 0.84041 0.0
H288 H 0.76536 0.80058 0.17704 0.0
H289 H -0.00758 0.75735 0.10833 0.0
H290 H 0.10257 0.74989 0.19882 0.0
H291 H 0.1244 0.76785 0.29857 0.0
H292 H 0.89502 0.80979 0.36514 0.0
H293 H 0.79561 0.80519 0.27425 0.0
C294 C 0.83994 0.78819 0.18194 0.0
C295 C 0.8713 0.77991 0.13695 0.0
C296 C 0.90152 0.78462 0.23363 0.0
C297 C -0.03237 0.76358 0.14288 0.0
C298 C 0.02991 0.75994 0.19454 0.0
C299 C 0.05308 0.77542 0.29302 0.0
C300 C 0.01637 0.79009 0.33845 0.0
C301 C -0.00382 0.77239 0.24043 0.0
C302 C 0.92475 0.79875 0.33085 0.0
C303 C 0.86765 0.79623 0.2789 0.0
H304 H 0.85431 0.29275 0.16654 0.0
H305 H 0.83011 0.43744 0.26092 0.0
H306 H 0.87804 0.44575 0.19266 0.0
H307 H -0.05412 0.40642 0.11136 0.0
H308 H -0.0234 0.25984 0.01952 0.0
H309 H 0.90714 0.25784 0.08106 0.0
C310 C 0.85905 0.32624 0.17206 0.0
C311 C 0.83925 0.36413 0.21912 0.0
C312 C 0.88833 0.33036 0.13302 0.0
C313 C 0.84411 0.4078 0.225 0.0
C314 C 0.8722 0.41246 0.18608 0.0
C315 C 0.93461 0.37493 0.10401 0.0
C316 C -0.03321 0.33319 0.06117 0.0
C317 C 0.89672 0.37336 0.14052 0.0
C318 C -0.04686 0.29218 0.05255 0.0
C319 C 0.9137 0.29092 0.08784 0.0
H320 H 0.74472 0.36571 0.69145 0.0
H321 H -0.02408 0.30689 0.61646 0.0
H322 H 0.08859 0.29933 0.70531 0.0
H323 H 0.1259 0.29696 0.80176 0.0
H324 H 0.89583 0.35614 0.87751 0.0
H325 H 0.77661 0.3773 0.79072 0.0
C326 C 0.8195 0.35191 0.6948 0.0
C327 C 0.85315 0.33567 0.64786 0.0
C328 C 0.88351 0.34768 0.7458 0.0
C329 C -0.0509 0.31913 0.6523 0.0
C330 C 0.01345 0.31465 0.70293 0.0
C331 C 0.04918 0.31555 0.79924 0.0
C332 C 0.01893 0.32418 0.84486 0.0
C333 C -0.01782 0.32696 0.74956 0.0
C334 C 0.91988 0.34908 0.84229 0.0
C335 C 0.85222 0.36071 0.79278 0.0
H336 H 0.03057 0.70453 0.7467 0.0
H337 H -0.00927 0.85735 0.8147 0.0
H338 H -0.0445 0.85833 0.89421 0.0
H339 H 0.91064 0.82268 0.9379 0.0
H340 H -0.05246 0.67073 0.87051 0.0
H341 H 0.00824 0.66284 0.79756 0.0
C342 C 0.01438 0.73803 0.77899 0.0
C343 C 0.01213 0.78112 0.77403 0.0
C344 C -0.0081 0.73899 0.8245 0.0
C345 C -0.00662 0.82353 0.81709 0.0
C346 C -0.02811 0.8245 0.86248 0.0
C347 C 0.93406 0.78729 0.90792 0.0
C348 C 0.92386 0.74754 0.90941 0.0
C349 C -0.03246 0.78339 0.86573 0.0
C350 C -0.04471 0.70174 0.87057 0.0
C351 C -0.01109 0.69751 0.82843 0.0
loop_
_geom_bond_atom_site_label_1
_geom_bond_atom_site_label_2
_geom_bond_distance
_geom_bond_site_symmetry_2
_ccdc_geom_bond_type
Nd0 C2 2.836 . S
Nd0 O20 2.500 1_554 S
Nd0 O21 2.492 . S
Nd0 O22 2.487 . S
Nd0 O23 2.682 . S
Nd0 O24 2.410 1_554 S
Nd0 O29 2.414 1_554 S
Nd0 O31 2.424 . S
Nd1 C11 2.836 1_556 S
Nd1 O23 2.414 1_556 S
Nd1 O25 2.424 . S
Nd1 O26 2.500 1_556 S
Nd1 O27 2.492 . S
Nd1 O28 2.487 . S
Nd1 O29 2.682 . S
Nd1 O30 2.410 1_556 S
C2 Nd0 2.836 . S
C2 C3 1.498 1_554 S
C2 O20 1.258 1_554 S
C2 O21 1.239 . S
C3 C2 1.498 1_556 S
C3 C4 1.366 . S
C3 C8 1.407 1_556 S
C4 C3 1.366 . S
C4 C5 1.392 . S
C4 H32 0.930 . S
C5 C4 1.392 . S
C5 C6 1.398 . S
C5 H33 0.929 . S
C6 C5 1.398 . S
C6 C7 1.352 1_556 S
C7 C6 1.352 1_554 S
C7 C8 1.384 . S
C7 H34 0.930 . S
C8 C3 1.407 1_554 S
C8 C7 1.384 . S
C8 H35 0.929 . S
C9 O22 1.241 . S
C9 O23 1.273 . S
C10 O24 1.251 . S
C10 O25 1.268 . S
C11 Nd1 2.836 1_554 S
C11 C12 1.498 . S
C11 O26 1.258 . S
C11 O27 1.239 1_554 S
C12 C11 1.498 . S
C12 C13 1.366 . S
C12 C17 1.407 1_554 S
C13 C12 1.366 . S
C13 C14 1.392 . S
C13 H36 0.930 . S
C14 C13 1.392 . S
C14 C15 1.398 . S
C14 H37 0.929 . S
C15 C14 1.398 . S
C15 C16 1.352 1_554 S
C16 C15 1.352 1_556 S
C16 C17 1.384 . S
C16 H38 0.930 . S
C17 C12 1.407 1_556 S
C17 C16 1.384 . S
C17 H39 0.929 . S
C18 O28 1.241 . S
C18 O29 1.273 . S
C19 O30 1.251 . S
C19 O31 1.268 . S
O20 Nd0 2.500 1_556 S
O20 C2 1.258 1_556 S
O21 Nd0 2.492 . S
O21 C2 1.239 . S
O22 Nd0 2.487 . S
O22 C9 1.241 . S
O23 Nd0 2.682 . S
O23 Nd1 2.414 1_554 S
O23 C9 1.273 . S
O24 Nd0 2.410 1_556 S
O24 C10 1.251 . S
O25 Nd1 2.424 . S
O25 C10 1.268 . S
O26 Nd1 2.500 1_554 S
O26 C11 1.258 . S
O27 Nd1 2.492 . S
O27 C11 1.239 1_556 S
O28 Nd1 2.487 . S
O28 C18 1.241 . S
O29 Nd0 2.414 1_556 S
O29 Nd1 2.682 . S
O29 C18 1.273 . S
O30 Nd1 2.410 1_554 S
O30 C19 1.251 . S
O31 Nd0 2.424 . S
O31 C19 1.268 . S
H32 C4 0.930 . S
H33 C5 0.929 . S
H34 C7 0.930 . S
H35 C8 0.929 . S
H36 C13 0.930 . S
H37 C14 0.929 . S
H38 C16 0.930 . S
H39 C17 0.929 . S
Nd40 C42 2.836 . S
Nd40 O60 2.500 1_554 S
Nd40 O61 2.492 . S
Nd40 O62 2.487 . S
Nd40 O63 2.682 . S
Nd40 O64 2.410 1_554 S
Nd40 O69 2.414 1_554 S
Nd40 O71 2.424 . S
Nd41 C51 2.836 1_556 S
Nd41 O63 2.414 1_556 S
Nd41 O65 2.424 . S
Nd41 O66 2.500 1_556 S
Nd41 O67 2.492 . S
Nd41 O68 2.487 . S
Nd41 O69 2.682 . S
Nd41 O70 2.410 1_556 S
C42 Nd40 2.836 . S
C42 C43 1.498 1_554 S
C42 O60 1.258 1_554 S
C42 O61 1.239 . S
C43 C42 1.498 1_556 S
C43 C44 1.366 . S
C43 C48 1.407 1_556 S
C44 C43 1.366 . S
C44 C45 1.392 . S
C44 H72 0.930 . S
C45 C44 1.392 . S
C45 C46 1.398 . S
C45 H73 0.929 . S
C46 C45 1.398 . S
C46 C47 1.352 1_556 S
C47 C46 1.352 1_554 S
C47 C48 1.384 . S
C47 H74 0.930 . S
C48 C43 1.407 1_554 S
C48 C47 1.384 . S
C48 H75 0.929 . S
C49 O62 1.241 . S
C49 O63 1.273 . S
C50 O64 1.251 . S
C50 O65 1.268 . S
C51 Nd41 2.836 1_554 S
C51 C52 1.498 . S
C51 O66 1.258 . S
C51 O67 1.239 1_554 S
C52 C51 1.498 . S
C52 C53 1.366 . S
C52 C57 1.407 1_554 S
C53 C52 1.366 . S
C53 C54 1.392 . S
C53 H76 0.930 . S
C54 C53 1.392 . S
C54 C55 1.398 . S
C54 H77 0.929 . S
C55 C54 1.398 . S
C55 C56 1.352 1_554 S
C56 C55 1.352 1_556 S
C56 C57 1.384 . S
C56 H78 0.930 . S
C57 C52 1.407 1_556 S
C57 C56 1.384 . S
C57 H79 0.929 . S
C58 O68 1.241 . S
C58 O69 1.273 . S
C59 O70 1.251 . S
C59 O71 1.268 . S
O60 Nd40 2.500 1_556 S
O60 C42 1.258 1_556 S
O61 Nd40 2.492 . S
O61 C42 1.239 . S
O62 Nd40 2.487 . S
O62 C49 1.241 . S
O63 Nd40 2.682 . S
O63 Nd41 2.414 1_554 S
O63 C49 1.273 . S
O64 Nd40 2.410 1_556 S
O64 C50 1.251 . S
O65 Nd41 2.424 . S
O65 C50 1.268 . S
O66 Nd41 2.500 1_554 S
O66 C51 1.258 . S
O67 Nd41 2.492 . S
O67 C51 1.239 1_556 S
O68 Nd41 2.487 . S
O68 C58 1.241 . S
O69 Nd40 2.414 1_556 S
O69 Nd41 2.682 . S
O69 C58 1.273 . S
O70 Nd41 2.410 1_554 S
O70 C59 1.251 . S
O71 Nd40 2.424 . S
O71 C59 1.268 . S
H72 C44 0.930 . S
H73 C45 0.929 . S
H74 C47 0.930 . S
H75 C48 0.929 . S
H76 C53 0.930 . S
H77 C54 0.929 . S
H78 C56 0.930 . S
H79 C57 0.929 . S
Nd80 C82 2.836 . S
Nd80 O100 2.500 . S
Nd80 O101 2.492 . S
Nd80 O102 2.487 . S
Nd80 O103 2.682 . S
Nd80 O104 2.410 . S
Nd80 O109 2.414 . S
Nd80 O111 2.424 . S
Nd81 C91 2.836 . S
Nd81 O103 2.414 . S
Nd81 O105 2.424 . S
Nd81 O106 2.500 . S
Nd81 O107 2.492 . S
Nd81 O108 2.487 . S
Nd81 O109 2.682 . S
Nd81 O110 2.410 . S
C82 Nd80 2.836 . S
C82 C83 1.498 . S
C82 O100 1.258 . S
C82 O101 1.239 . S
C83 C82 1.498 . S
C83 C84 1.366 . S
C83 C88 1.407 . S
C84 C83 1.366 . S
C84 C85 1.392 . S
C84 H112 0.930 . S
C85 C84 1.392 . S
C85 C86 1.398 . S
C85 H113 0.929 . S
C86 C85 1.398 . S
C86 C87 1.352 . S
C87 C86 1.352 . S
C87 C88 1.384 . S
C87 H114 0.930 . S
C88 C83 1.407 . S
C88 C87 1.384 . S
C88 H115 0.929 . S
C89 O102 1.241 . S
C89 O103 1.273 . S
C90 O104 1.251 . S
C90 O105 1.268 . S
C91 Nd81 2.836 . S
C91 C92 1.498 . S
C91 O106 1.258 . S
C91 O107 1.239 . S
C92 C91 1.498 . S
C92 C93 1.366 . S
C92 C97 1.407 . S
C93 C92 1.366 . S
C93 C94 1.392 . S
C93 H116 0.930 . S
C94 C93 1.392 . S
C94 C95 1.398 . S
C94 H117 0.929 . S
C95 C94 1.398 . S
C95 C96 1.352 1_455 S
C96 C95 1.352 1_655 S
C96 C97 1.384 1_655 S
C96 H118 0.930 . S
C97 C92 1.407 . S
C97 C96 1.384 1_455 S
C97 H119 0.929 1_455 S
C98 O108 1.241 . S
C98 O109 1.273 . S
C99 O110 1.251 . S
C99 O111 1.268 . S
O100 Nd80 2.500 . S
O100 C82 1.258 . S
O101 Nd80 2.492 . S
O101 C82 1.239 . S
O102 Nd80 2.487 . S
O102 C89 1.241 . S
O103 Nd80 2.682 . S
O103 Nd81 2.414 . S
O103 C89 1.273 . S
O104 Nd80 2.410 . S
O104 C90 1.251 . S
O105 Nd81 2.424 . S
O105 C90 1.268 . S
O106 Nd81 2.500 . S
O106 C91 1.258 . S
O107 Nd81 2.492 . S
O107 C91 1.239 . S
O108 Nd81 2.487 . S
O108 C98 1.241 . S
O109 Nd80 2.414 . S
O109 Nd81 2.682 . S
O109 C98 1.273 . S
O110 Nd81 2.410 . S
O110 C99 1.251 . S
O111 Nd80 2.424 . S
O111 C99 1.268 . S
H112 C84 0.930 . S
H113 C85 0.929 . S
H114 C87 0.930 . S
H115 C88 0.929 . S
H116 C93 0.930 . S
H117 C94 0.929 . S
H118 C96 0.930 . S
H119 C97 0.929 1_655 S
Nd120 C122 2.836 . S
Nd120 O140 2.500 . S
Nd120 O141 2.492 . S
Nd120 O142 2.487 . S
Nd120 O143 2.682 . S
Nd120 O144 2.410 . S
Nd120 O149 2.414 . S
Nd120 O151 2.424 . S
Nd121 C131 2.836 . S
Nd121 O143 2.414 . S
Nd121 O145 2.424 . S
Nd121 O146 2.500 . S
Nd121 O147 2.492 . S
Nd121 O148 2.487 . S
Nd121 O149 2.682 . S
Nd121 O150 2.410 . S
C122 Nd120 2.836 . S
C122 C123 1.498 . S
C122 O140 1.258 . S
C122 O141 1.239 . S
C123 C122 1.498 . S
C123 C124 1.366 . S
C123 C128 1.407 . S
C124 C123 1.366 . S
C124 C125 1.392 . S
C124 H152 0.930 . S
C125 C124 1.392 . S
C125 C126 1.398 . S
C125 H153 0.929 . S
C126 C125 1.398 . S
C126 C127 1.352 1_655 S
C127 C126 1.352 1_455 S
C127 C128 1.384 1_455 S
C127 H154 0.930 . S
C128 C123 1.407 . S
C128 C127 1.384 1_655 S
C128 H155 0.929 1_655 S
C129 O142 1.241 . S
C129 O143 1.273 . S
C130 O144 1.251 . S
C130 O145 1.268 . S
C131 Nd121 2.836 . S
C131 C132 1.498 . S
C131 O146 1.258 . S
C131 O147 1.239 . S
C132 C131 1.498 . S
C132 C133 1.366 . S
C132 C137 1.407 . S
C133 C132 1.366 . S
C133 C134 1.392 . S
C133 H156 0.930 . S
C134 C133 1.392 . S
C134 C135 1.398 . S
C134 H157 0.929 . S
C135 C134 1.398 . S
C135 C136 1.352 . S
C136 C135 1.352 . S
C136 C137 1.384 . S
C136 H158 0.930 . S
C137 C132 1.407 . S
C137 C136 1.384 . S
C137 H159 0.929 . S
C138 O148 1.241 . S
C138 O149 1.273 . S
C139 O150 1.251 . S
C139 O151 1.268 . S
O140 Nd120 2.500 . S
O140 C122 1.258 . S
O141 Nd120 2.492 . S
O141 C122 1.239 . S
O142 Nd120 2.487 . S
O142 C129 1.241 . S
O143 Nd120 2.682 . S
O143 Nd121 2.414 . S
O143 C129 1.273 . S
O144 Nd120 2.410 . S
O144 C130 1.251 . S
O145 Nd121 2.424 . S
O145 C130 1.268 . S
O146 Nd121 2.500 . S
O146 C131 1.258 . S
O147 Nd121 2.492 . S
O147 C131 1.239 . S
O148 Nd121 2.487 . S
O148 C138 1.241 . S
O149 Nd120 2.414 . S
O149 Nd121 2.682 . S
O149 C138 1.273 . S
O150 Nd121 2.410 . S
O150 C139 1.251 . S
O151 Nd120 2.424 . S
O151 C139 1.268 . S
H152 C124 0.930 . S
H153 C125 0.929 . S
H154 C127 0.930 . S
H155 C128 0.929 1_455 S
H156 C133 0.930 . S
H157 C134 0.929 . S
H158 C136 0.930 . S
H159 C137 0.929 . S
H160 C166 0.930 . S
H161 C169 0.930 . S
H162 C170 0.930 . S
H163 C171 0.930 . S
H164 C174 0.930 . S
H165 C175 0.930 . S
C166 H160 0.930 . S
C166 C167 1.355 . S
C166 C168 1.415 . S
C167 C166 1.355 . S
C167 C169 1.419 . S
C168 C166 1.415 . S
C168 C173 1.425 . S
C168 C175 1.409 1_554 S
C169 H161 0.930 . S
C169 C167 1.419 . S
C169 C170 1.362 . S
C170 H162 0.930 . S
C170 C169 1.362 . S
C170 C173 1.409 . S
C171 H163 0.930 . S
C171 C172 1.355 . S
C171 C173 1.415 1_556 S
C172 C171 1.355 . S
C172 C174 1.419 . S
C173 C168 1.425 . S
C173 C170 1.409 . S
C173 C171 1.415 1_554 S
C174 H164 0.930 . S
C174 C172 1.419 . S
C174 C175 1.362 . S
C175 H165 0.930 . S
C175 C168 1.409 1_556 S
C175 C174 1.362 . S
H176 C182 0.930 . S
H177 C185 0.930 . S
H178 C186 0.930 . S
H179 C187 0.930 . S
H180 C190 0.930 . S
H181 C191 0.930 . S
C182 H176 0.930 . S
C182 C183 1.355 . S
C182 C184 1.415 . S
C183 C182 1.355 . S
C183 C185 1.419 . S
C184 C182 1.415 . S
C184 C189 1.425 . S
C184 C191 1.409 . S
C185 H177 0.930 . S
C185 C183 1.419 . S
C185 C186 1.362 . S
C186 H178 0.930 . S
C186 C185 1.362 . S
C186 C189 1.409 . S
C187 H179 0.930 . S
C187 C188 1.355 . S
C187 C189 1.415 . S
C188 C187 1.355 . S
C188 C190 1.419 . S
C189 C184 1.425 . S
C189 C186 1.409 . S
C189 C187 1.415 . S
C190 H180 0.930 . S
C190 C188 1.419 . S
C190 C191 1.362 . S
C191 H181 0.930 . S
C191 C184 1.409 . S
C191 C190 1.362 . S
H192 C198 0.930 . S
H193 C201 0.930 . S
H194 C202 0.930 . S
H195 C203 0.930 . S
H196 C206 0.930 . S
H197 C207 0.930 . S
C198 H192 0.930 . S
C198 C199 1.355 1_565 S
C198 C200 1.415 . S
C199 C198 1.355 1_545 S
C199 C201 1.419 1_554 S
C200 C198 1.415 . S
C200 C205 1.425 1_464 S
C200 C207 1.409 . S
C201 H193 0.930 . S
C201 C199 1.419 1_556 S
C201 C202 1.362 1_455 S
C202 H194 0.930 . S
C202 C201 1.362 1_655 S
C202 C205 1.409 . S
C203 H195 0.930 . S
C203 C204 1.355 1_545 S
C203 C205 1.415 . S
C204 C203 1.355 1_565 S
C204 C206 1.419 1_556 S
C205 C200 1.425 1_646 S
C205 C202 1.409 . S
C205 C203 1.415 . S
C206 H196 0.930 . S
C206 C204 1.419 1_554 S
C206 C207 1.362 1_655 S
C207 H197 0.930 . S
C207 C200 1.409 . S
C207 C206 1.362 1_455 S
H208 C214 0.930 . S
H209 C217 0.930 . S
H210 C218 0.930 . S
H211 C219 0.930 . S
H212 C222 0.930 . S
H213 C223 0.930 . S
C214 H208 0.930 . S
C214 C215 1.355 1_455 S
C214 C216 1.415 . S
C215 C214 1.355 1_655 S
C215 C217 1.419 . S
C216 C214 1.415 . S
C216 C221 1.425 1_445 S
C216 C223 1.409 1_545 S
C217 H209 0.930 . S
C217 C215 1.419 . S
C217 C218 1.362 . S
C218 H210 0.930 . S
C218 C217 1.362 . S
C218 C221 1.409 1_545 S
C219 H211 0.930 . S
C219 C220 1.355 1_655 S
C219 C221 1.415 . S
C220 C219 1.355 1_455 S
C220 C222 1.419 . S
C221 C216 1.425 1_665 S
C221 C218 1.409 1_565 S
C221 C219 1.415 . S
C222 H212 0.930 . S
C222 C220 1.419 . S
C222 C223 1.362 . S
C223 H213 0.930 . S
C223 C216 1.409 1_565 S
C223 C222 1.362 . S
H224 C230 0.930 . S
H225 C233 0.930 . S
H226 C234 0.930 . S
H227 C235 0.930 . S
H228 C238 0.930 . S
H229 C239 0.930 . S
C230 H224 0.930 . S
C230 C231 1.355 . S
C230 C232 1.415 . S
C231 C230 1.355 . S
C231 C233 1.419 . S
C232 C230 1.415 . S
C232 C237 1.425 . S
C232 C239 1.409 . S
C233 H225 0.930 . S
C233 C231 1.419 . S
C233 C234 1.362 . S
C234 H226 0.930 . S
C234 C233 1.362 . S
C234 C237 1.409 . S
C235 H227 0.930 . S
C235 C236 1.355 . S
C235 C237 1.415 . S
C236 C235 1.355 . S
C236 C238 1.419 . S
C237 C232 1.425 . S
C237 C234 1.409 . S
C237 C235 1.415 . S
C238 H228 0.930 . S
C238 C236 1.419 . S
C238 C239 1.362 . S
C239 H229 0.930 . S
C239 C232 1.409 . S
C239 C238 1.362 . S
H240 C246 0.930 . S
H241 C249 0.930 . S
H242 C250 0.930 . S
H243 C251 0.930 . S
H244 C254 0.930 . S
H245 C255 0.930 . S
C246 H240 0.930 . S
C246 C247 1.355 . S
C246 C248 1.415 . S
C247 C246 1.355 . S
C247 C249 1.419 . S
C248 C246 1.415 . S
C248 C253 1.425 . S
C248 C255 1.409 . S
C249 H241 0.930 . S
C249 C247 1.419 . S
C249 C250 1.362 . S
C250 H242 0.930 . S
C250 C249 1.362 . S
C250 C253 1.409 . S
C251 H243 0.930 . S
C251 C252 1.355 . S
C251 C253 1.415 . S
C252 C251 1.355 . S
C252 C254 1.419 . S
C253 C248 1.425 . S
C253 C250 1.409 . S
C253 C251 1.415 . S
C254 H244 0.930 . S
C254 C252 1.419 . S
C254 C255 1.362 . S
C255 H245 0.930 . S
C255 C248 1.409 . S
C255 C254 1.362 . S
H256 C262 0.930 . S
H257 C265 0.930 . S
H258 C266 0.930 . S
H259 C267 0.930 . S
H260 C270 0.930 . S
H261 C271 0.930 . S
C262 H256 0.930 . S
C262 C263 1.355 . S
C262 C264 1.415 . S
C263 C262 1.355 . S
C263 C265 1.419 . S
C264 C262 1.415 . S
C264 C269 1.425 . S
C264 C271 1.409 . S
C265 H257 0.930 . S
C265 C263 1.419 . S
C265 C266 1.362 . S
C266 H258 0.930 . S
C266 C265 1.362 . S
C266 C269 1.409 . S
C267 H259 0.930 . S
C267 C268 1.355 . S
C267 C269 1.415 . S
C268 C267 1.355 . S
C268 C270 1.419 . S
C269 C264 1.425 . S
C269 C266 1.409 . S
C269 C267 1.415 . S
C270 H260 0.930 . S
C270 C268 1.419 . S
C270 C271 1.362 . S
C271 H261 0.930 . S
C271 C264 1.409 . S
C271 C270 1.362 . S
H272 C278 0.930 . S
H273 C281 0.930 . S
H274 C282 0.930 . S
H275 C283 0.930 . S
H276 C286 0.930 . S
H277 C287 0.930 . S
C278 H272 0.930 . S
C278 C279 1.355 . S
C278 C280 1.415 . S
C279 C278 1.355 . S
C279 C281 1.419 . S
C280 C278 1.415 . S
C280 C285 1.425 . S
C280 C287 1.409 . S
C281 H273 0.930 . S
C281 C279 1.419 . S
C281 C282 1.362 . S
C282 H274 0.930 . S
C282 C281 1.362 . S
C282 C285 1.409 . S
C283 H275 0.930 . S
C283 C284 1.355 . S
C283 C285 1.415 . S
C284 C283 1.355 . S
C284 C286 1.419 . S
C285 C280 1.425 . S
C285 C282 1.409 . S
C285 C283 1.415 . S
C286 H276 0.930 . S
C286 C284 1.419 . S
C286 C287 1.362 . S
C287 H277 0.930 . S
C287 C280 1.409 . S
C287 C286 1.362 . S
H288 C294 0.930 . S
H289 C297 0.930 . S
H290 C298 0.930 . S
H291 C299 0.930 . S
H292 C302 0.930 1_655 S
H293 C303 0.930 . S
C294 H288 0.930 . S
C294 C295 1.355 . S
C294 C296 1.415 . S
C295 C294 1.355 . S
C295 C297 1.419 1_655 S
C296 C294 1.415 . S
C296 C301 1.425 1_655 S
C296 C303 1.409 . S
C297 H289 0.930 . S
C297 C295 1.419 1_455 S
C297 C298 1.362 . S
C298 H290 0.930 . S
C298 C297 1.362 . S
C298 C301 1.409 . S
C299 H291 0.930 . S
C299 C300 1.355 . S
C299 C301 1.415 . S
C300 C299 1.355 . S
C300 C302 1.419 . S
C301 C296 1.425 1_455 S
C301 C298 1.409 . S
C301 C299 1.415 . S
C302 H292 0.930 1_455 S
C302 C300 1.419 . S
C302 C303 1.362 1_455 S
C303 H293 0.930 . S
C303 C296 1.409 . S
C303 C302 1.362 1_655 S
H304 C310 0.930 . S
H305 C313 0.930 . S
H306 C314 0.930 . S
H307 C315 0.930 1_655 S
H308 C318 0.930 . S
H309 C319 0.930 . S
C310 H304 0.930 . S
C310 C311 1.355 1_455 S
C310 C312 1.415 . S
C311 C310 1.355 1_655 S
C311 C313 1.419 . S
C312 C310 1.415 . S
C312 C317 1.425 1_455 S
C312 C319 1.409 . S
C313 H305 0.930 . S
C313 C311 1.419 . S
C313 C314 1.362 . S
C314 H306 0.930 . S
C314 C313 1.362 . S
C314 C317 1.410 . S
C315 H307 0.930 1_455 S
C315 C316 1.355 . S
C315 C317 1.414 1_455 S
C316 C315 1.355 . S
C316 C318 1.419 . S
C317 C312 1.425 1_655 S
C317 C314 1.410 . S
C317 C315 1.414 1_655 S
C318 H308 0.930 . S
C318 C316 1.419 . S
C318 C319 1.362 . S
C319 H309 0.930 . S
C319 C312 1.409 . S
C319 C318 1.362 . S
H320 C326 0.930 . S
H321 C329 0.934 . S
H322 C330 0.930 . S
H323 C331 0.930 . S
H324 C334 0.930 . S
H325 C335 0.930 . S
C326 H320 0.930 . S
C326 C327 1.355 . S
C326 C328 1.415 . S
C327 C326 1.355 . S
C327 C329 1.412 1_655 S
C328 C326 1.415 . S
C328 C333 1.425 1_655 S
C328 C335 1.409 . S
C329 H321 0.934 . S
C329 C327 1.412 1_455 S
C329 C330 1.365 . S
C330 H322 0.930 . S
C330 C329 1.365 . S
C330 C333 1.409 . S
C331 H323 0.930 . S
C331 C332 1.355 . S
C331 C333 1.415 . S
C332 C331 1.355 . S
C332 C334 1.419 1_455 S
C333 C328 1.425 1_455 S
C333 C330 1.409 . S
C333 C331 1.415 . S
C334 H324 0.930 . S
C334 C332 1.419 1_655 S
C334 C335 1.362 . S
C335 H325 0.930 . S
C335 C328 1.409 . S
C335 C334 1.362 . S
H336 C342 0.930 . S
H337 C345 0.930 . S
H338 C346 0.930 . S
H339 C347 0.930 1_455 S
H340 C350 0.930 . S
H341 C351 0.930 . S
C342 H336 0.930 . S
C342 C343 1.355 1_655 S
C342 C344 1.415 . S
C343 C342 1.355 1_455 S
C343 C345 1.419 . S
C344 C342 1.415 . S
C344 C349 1.425 1_655 S
C344 C351 1.409 . S
C345 H337 0.930 . S
C345 C343 1.419 . S
C345 C346 1.362 . S
C346 H338 0.930 . S
C346 C345 1.362 . S
C346 C349 1.409 . S
C347 H339 0.930 1_655 S
C347 C348 1.355 . S
C347 C349 1.415 1_655 S
C348 C347 1.355 . S
C348 C350 1.419 . S
C349 C344 1.425 1_455 S
C349 C346 1.409 . S
C349 C347 1.415 1_455 S
C350 H340 0.930 . S
C350 C348 1.419 . S
C350 C351 1.362 . S
C351 H341 0.930 . S
C351 C344 1.409 . S
C351 C350 1.362 . S
C167 C55 1.654 . S
C172 C6 1.654 . S
C183 C89 2.191 . S
C188 C138 2.191 . S
C199 C15 1.654 . S
C204 C46 1.654 . S
C215 C129 2.216 . S
C220 C98 2.216 . S
C231 C130 1.155 . S
C236 C9 1.139 . S
C247 C59 1.618 . S
C252 C86 1.619 . S
C263 C58 1.070 . S
C268 C99 1.150 . S
C279 C135 1.620 . S
C284 C10 1.617 . S
C295 C49 1.125 . S
C300 C90 1.144 . S
C311 C126 1.591 . S
C316 C19 1.600 . S
C327 C139 1.130 . S
C332 C18 1.098 . S
C343 C95 1.616 . S
C348 C50 1.609 . S
