# Generated by pormake.
# Topology sml, (6)-cn, num edge types: 1
# Building blocks:
#     Node 0, Type 0, BuildingBlock: JUFBIX_clean_sbu_0, # of connection points: 6
#     Node 1, Type 0, BuildingBlock: JUFBIX_clean_sbu_0, # of connection points: 6
#     Node 2, Type 0, BuildingBlock: JUFBIX_clean_sbu_0, # of connection points: 6
#     Node 3, Type 0, BuildingBlock: JUFBIX_clean_sbu_0, # of connection points: 6
#     Node 4, Type 0, BuildingBlock: JUFBIX_clean_sbu_0, # of connection points: 6
#     Node 5, Type 0, BuildingBlock: JUFBIX_clean_sbu_0, # of connection points: 6
#     Edge 6, Type (0, 0), BuildingBlock: AJUNOK_clean_linker_0, # of connection points: 2
#     Edge 7, Type (0, 0), BuildingBlock: AJUNOK_clean_linker_0, # of connection points: 2
#     Edge 8, Type (0, 0), BuildingBlock: AJUNOK_clean_linker_0, # of connection points: 2
#     Edge 9, Type (0, 0), BuildingBlock: AJUNOK_clean_linker_0, # of connection points: 2
#     Edge 10, Type (0, 0), BuildingBlock: AJUNOK_clean_linker_0, # of connection points: 2
#     Edge 11, Type (0, 0), BuildingBlock: AJUNOK_clean_linker_0, # of connection points: 2
#     Edge 12, Type (0, 0), BuildingBlock: AJUNOK_clean_linker_0, # of connection points: 2
#     Edge 13, Type (0, 0), BuildingBlock: AJUNOK_clean_linker_0, # of connection points: 2
#     Edge 14, Type (0, 0), BuildingBlock: AJUNOK_clean_linker_0, # of connection points: 2
#     Edge 15, Type (0, 0), BuildingBlock: AJUNOK_clean_linker_0, # of connection points: 2
#     Edge 16, Type (0, 0), BuildingBlock: AJUNOK_clean_linker_0, # of connection points: 2
#     Edge 17, Type (0, 0), BuildingBlock: AJUNOK_clean_linker_0, # of connection points: 2
#     Edge 18, Type (0, 0), BuildingBlock: AJUNOK_clean_linker_0, # of connection points: 2
#     Edge 19, Type (0, 0), BuildingBlock: AJUNOK_clean_linker_0, # of connection points: 2
#     Edge 20, Type (0, 0), BuildingBlock: AJUNOK_clean_linker_0, # of connection points: 2
#     Edge 21, Type (0, 0), BuildingBlock: AJUNOK_clean_linker_0, # of connection points: 2
#     Edge 22, Type (0, 0), BuildingBlock: AJUNOK_clean_linker_0, # of connection points: 2
#     Edge 23, Type (0, 0), BuildingBlock: AJUNOK_clean_linker_0, # of connection points: 2
# Relax obj value: 0.311
# Max RMSD: 0.201
# Mean RMSD: 0.201
data_MOF--net-sml--node1-JUFBIX_clean_sbu_0--edge1-AJUNOK_clean_linker_0
_symmetry_space_group_name_H-M    P1
_symmetry_Int_Tables_number       1
_symmetry_cell_setting            triclinic
loop_
_symmetry_equiv_pos_as_xyz
'x, y, z'
_cell_length_a     33.874295
_cell_length_b     33.995276
_cell_length_c     10.834474
_cell_angle_alpha  89.850001
_cell_angle_beta   90.197723
_cell_angle_gamma 119.99508
loop_
_atom_site_label
_atom_site_type_symbol
_atom_site_fract_x
_atom_site_fract_y
_atom_site_fract_z
_atom_type_partial_charge
Co0 Co 0.34986 0.50155 0.04938 0.0
C1 C 0.28499 0.52658 0.0782 0.0
Co2 Co 0.28029 0.44223 0.0488 0.0
C3 C 0.42649 0.5849 0.9636 0.0
C4 C 0.44523 0.55559 0.11129 0.0
N5 N 0.40918 0.54984 0.04395 0.0
N6 N 0.472 0.61185 0.97617 0.0
C7 C 0.48385 0.59379 0.07031 0.0
H8 H 0.40617 0.58995 0.8949 0.0
H9 H 0.44365 0.53304 0.18417 0.0
C10 C 0.34672 0.41841 0.02403 0.0
N11 N 0.22092 0.3938 0.05373 0.0
C12 C 0.18829 0.38661 0.13677 0.0
C13 C 0.20089 0.3582 0.97586 0.0
N14 N 0.14861 0.34814 0.11347 0.0
C15 C 0.15647 0.33004 0.01244 0.0
C16 C 0.31163 0.47547 0.81638 0.0
O17 O 0.37212 0.46107 0.03475 0.0
O18 O 0.30362 0.40129 0.02724 0.0
O19 O 0.2767 0.44588 0.87417 0.0
O20 O 0.34652 0.50318 0.87718 0.0
O21 O 0.25809 0.48385 0.07082 0.0
H22 H 0.21766 0.35286 0.89821 0.0
H23 H 0.19347 0.40934 0.21277 0.0
O24 O 0.3275 0.5421 0.06509 0.0
O25 O 0.35259 0.49937 0.22184 0.0
O26 O 0.28448 0.43908 0.22305 0.0
C27 C 0.31911 0.46883 0.2817 0.0
H28 H 0.51779 0.60738 0.10814 0.0
H29 H 0.1323 0.29813 0.96991 0.0
Co30 Co 0.78448 0.21678 0.48111 0.0
C31 C 0.84699 0.30682 0.44976 0.0
Co32 Co 0.8549 0.22906 0.4829 0.0
C33 C 0.70665 0.22145 0.56532 0.0
C34 C 0.68874 0.1727 0.42068 0.0
N35 N 0.72455 0.20389 0.48666 0.0
N36 N 0.66107 0.20222 0.55244 0.0
C37 C 0.64969 0.17179 0.46038 0.0
H38 H 0.72668 0.24733 0.63276 0.0
H39 H 0.69081 0.15165 0.34924 0.0
C40 C 0.79077 0.13923 0.51848 0.0
N41 N 0.91492 0.24171 0.47714 0.0
C42 C 0.94602 0.26592 0.38945 0.0
C43 C 0.9368 0.22831 0.55597 0.0
N44 N 0.98628 0.26776 0.40936 0.0
C45 C 0.98074 0.24445 0.51482 0.0
C46 C 0.82325 0.23068 0.71468 0.0
O47 O 0.76433 0.15509 0.50165 0.0
O48 O 0.83364 0.16546 0.50867 0.0
O49 O 0.85865 0.23697 0.65741 0.0
O50 O 0.78824 0.22302 0.65326 0.0
O51 O 0.87503 0.29229 0.45827 0.0
H52 H 0.92164 0.20774 0.63732 0.0
H53 H 0.93925 0.28222 0.31289 0.0
O54 O 0.8047 0.27888 0.4614 0.0
O55 O 0.78124 0.21047 0.3085 0.0
O56 O 0.85043 0.22084 0.3088 0.0
C57 C 0.81526 0.2143 0.24941 0.0
H58 H 0.61584 0.15094 0.42261 0.0
H59 H 1.00632 0.23864 0.55757 0.0
Co60 Co 0.61452 0.87163 0.70074 0.0
C61 C 0.58966 0.78218 0.73246 0.0
Co62 Co 0.67399 0.86157 0.70096 0.0
C63 C 0.53141 0.86673 0.6131 0.0
C64 C 0.55975 0.91108 0.76824 0.0
N65 N 0.5661 0.88267 0.69522 0.0
N66 N 0.50394 0.88442 0.63097 0.0
C67 C 0.52146 0.91199 0.72961 0.0
H68 H 0.52685 0.84316 0.54 0.0
H69 H 0.58176 0.93024 0.84416 0.0
C70 C 0.6979 0.95134 0.67456 0.0
N71 N 0.72282 0.85139 0.70772 0.0
C72 C 0.73012 0.82672 0.7932 0.0
C73 C 0.76056 0.87007 0.63686 0.0
N74 N 0.77124 0.83003 0.7803 0.0
C75 C 0.79046 0.85703 0.68146 0.0
C76 C 0.64122 0.85922 0.46837 0.0
O77 O 0.65517 0.93429 0.68649 0.0
O78 O 0.71482 0.92534 0.67675 0.0
O79 O 0.67007 0.85352 0.52914 0.0
O80 O 0.61322 0.86695 0.52612 0.0
O81 O 0.63254 0.79816 0.72601 0.0
H82 H 0.76648 0.89274 0.56003 0.0
H83 H 0.70651 0.8082 0.8669 0.0
O84 O 0.5739 0.80879 0.71636 0.0
O85 O 0.61665 0.87613 0.87578 0.0
O86 O 0.67777 0.86975 0.87269 0.0
C87 C 0.64819 0.87389 0.93355 0.0
H88 H 0.50725 0.93081 0.77267 0.0
H89 H 0.82389 0.86704 0.64498 0.0
Co90 Co 0.88494 0.59387 0.18584 0.0
C91 C 0.79594 0.57174 0.15482 0.0
Co92 Co 0.8776 0.65475 0.18445 0.0
C93 C 0.87849 0.50925 0.26655 0.0
C94 C 0.92418 0.53987 0.11485 0.0
N95 N 0.89497 0.54497 0.18827 0.0
N96 N 0.89671 0.48244 0.24566 0.0
C97 C 0.92509 0.5014 0.14927 0.0
H98 H 0.85432 0.50354 0.33918 0.0
H99 H 0.94405 0.56301 0.04175 0.0
C100 C 0.96686 0.676 0.21379 0.0
N101 N 0.86892 0.70438 0.17908 0.0
C102 C 0.84437 0.71217 0.09414 0.0
C103 C 0.8883 0.74197 0.25009 0.0
N104 N 0.84825 0.75333 0.10762 0.0
C105 C 0.87567 0.77222 0.20618 0.0
C106 C 0.87397 0.62101 0.41754 0.0
O107 O 0.94831 0.63328 0.20107 0.0
O108 O 0.94193 0.69414 0.20846 0.0
O109 O 0.86975 0.65064 0.35652 0.0
O110 O 0.88036 0.59212 0.36014 0.0
O111 O 0.81351 0.61472 0.15964 0.0
H112 H 0.91107 0.7475 0.32669 0.0
H113 H 0.8255 0.68885 0.02031 0.0
O114 O 0.82134 0.55449 0.17063 0.0
O115 O 0.88927 0.59634 0.01053 0.0
O116 O 0.88554 0.65867 0.01295 0.0
C117 C 0.88826 0.62832 0.95241 0.0
H118 H 0.9446 0.48809 0.10525 0.0
H119 H 0.88616 0.80558 0.24313 0.0
Co120 Co 0.24078 0.76784 0.37078 0.0
C121 C 0.33042 0.83271 0.40315 0.0
Co122 Co 0.25032 0.83707 0.37219 0.0
C123 C 0.24804 0.69113 0.28579 0.0
C124 C 0.20049 0.67319 0.43405 0.0
N125 N 0.23026 0.70874 0.3651 0.0
N126 N 0.23014 0.64592 0.30131 0.0
C127 C 0.20052 0.63463 0.39561 0.0
H128 H 0.273 0.71097 0.21607 0.0
H129 H 0.17971 0.67509 0.50677 0.0
C130 C 0.16028 0.77058 0.34176 0.0
N131 N 0.26058 0.89617 0.37832 0.0
C132 C 0.28577 0.9286 0.46222 0.0
C133 C 0.24371 0.91574 0.30251 0.0
N134 N 0.28558 0.9677 0.44136 0.0
C135 C 0.25899 0.95966 0.34099 0.0
C136 C 0.25291 0.80698 0.13881 0.0
O137 O 0.17787 0.74542 0.35388 0.0
O138 O 0.18601 0.8135 0.34827 0.0
O139 O 0.25804 0.84115 0.19943 0.0
O140 O 0.24606 0.77159 0.19665 0.0
O141 O 0.31428 0.85943 0.39668 0.0
H142 H 0.22105 0.89888 0.22565 0.0
H143 H 0.30384 0.92357 0.53765 0.0
O144 O 0.30372 0.79041 0.38804 0.0
O145 O 0.23561 0.765 0.54607 0.0
O146 O 0.24238 0.83252 0.5438 0.0
C147 C 0.23774 0.79848 0.60415 0.0
H148 H 0.1808 0.60111 0.43557 0.0
H149 H 0.24996 0.98327 0.30063 0.0
Co150 Co 0.52295 0.32496 0.82808 0.0
C151 C 0.5442 0.25795 0.78677 0.0
Co152 Co 0.46187 0.25625 0.82573 0.0
C153 C 0.59236 0.41241 0.92857 0.0
C154 C 0.60559 0.40231 0.74207 0.0
N155 N 0.57448 0.38304 0.8329 0.0
N156 N 0.63293 0.44899 0.90011 0.0
C157 C 0.64126 0.44279 0.78272 0.0
H158 H 0.577 0.40642 0.01889 0.0
H159 H 0.60432 0.38644 0.65507 0.0
C160 C 0.44197 0.32466 0.86931 0.0
N161 N 0.41185 0.19782 0.81769 0.0
C162 C 0.40386 0.16725 0.72769 0.0
C163 C 0.37656 0.1762 0.89624 0.0
N164 N 0.36488 0.1276 0.7458 0.0
C165 C 0.34773 0.13289 0.85254 0.0
C166 C 0.49755 0.28472 0.05947 0.0
O167 O 0.48484 0.34938 0.85565 0.0
O168 O 0.42318 0.28182 0.85404 0.0
O169 O 0.46618 0.25131 0.00046 0.0
O170 O 0.52666 0.31924 -0.0002 0.0
O171 O 0.50139 0.23187 0.79782 0.0
H172 H 0.37211 0.19093 -0.02029 0.0
H173 H 0.4268 0.17375 0.65117 0.0
O174 O 0.56082 0.30033 0.80128 0.0
O175 O 0.51827 0.32953 0.6547 0.0
O176 O 0.45796 0.26177 0.65199 0.0
C177 C 0.48756 0.29642 0.59383 0.0
H178 H 0.67267 0.46416 0.73353 0.0
H179 H 0.31632 0.10748 0.89498 0.0
C180 C 0.36977 0.32882 0.88605 0.0
C181 C 0.41595 0.34588 0.91645 0.0
C182 C 0.34635 0.35099 0.92625 0.0
C183 C 0.36835 0.39061 -0.00107 0.0
H184 H 0.35214 0.29918 0.82753 0.0
H185 H 0.31151 0.33815 0.89605 0.0
S186 S 0.48644 0.44388 0.12198 0.0
N187 N 0.48086 0.40134 0.03636 0.0
N188 N 0.43712 0.44242 0.11184 0.0
C189 C 0.41358 0.40609 0.03607 0.0
C190 C 0.43732 0.38389 -0.00514 0.0
C191 C 0.10979 0.33118 0.31553 0.0
C192 C 0.10741 0.32917 0.18582 0.0
C193 C 0.07013 0.31119 0.3878 0.0
C194 C 1.02656 0.28905 0.33313 0.0
H195 H 0.1426 0.34746 0.36151 0.0
H196 H 0.07353 0.31321 0.48731 0.0
S197 S 1.00174 0.27582 -0.00299 0.0
N198 N 0.05795 0.30451 0.00561 0.0
N199 N 0.98351 0.26657 0.14108 0.0
C200 C 1.02372 0.28746 0.20344 0.0
C201 C 0.0641 0.30752 0.12993 0.0
C202 C 0.78733 0.06347 0.53401 0.0
C203 C 0.77094 0.09261 0.56784 0.0
C204 C 0.76507 1.01792 0.57421 0.0
C205 C 0.72612 1.00057 0.64994 0.0
H206 H 0.8162 0.07535 0.4724 0.0
H207 H 0.77712 0.99573 0.54129 0.0
S208 S 0.67546 0.06581 0.78275 0.0
N209 N 0.7174 0.1026 0.69467 0.0
N210 N 0.67608 1.01778 0.76975 0.0
C211 C 0.71162 1.03044 0.69088 0.0
C212 C 0.73391 0.07629 0.64994 0.0
C213 C 0.76531 0.76627 0.90401 0.0
C214 C 0.79129 0.81126 0.86169 0.0
C215 C 0.78418 0.7475 -0.01585 0.0
C216 C 0.82929 0.77346 0.02713 0.0
H217 H 0.73038 0.74535 0.87352 0.0
H218 H 0.76326 0.71259 0.01386 0.0
S219 S 0.91119 0.8931 0.94518 0.0
N220 N 0.86417 0.88139 0.8695 0.0
N221 N 0.89952 0.84622 0.02048 0.0
C222 C 0.85545 0.81857 -0.01376 0.0
C223 C 0.83649 0.83744 0.9033 0.0
C224 C 0.08591 0.70139 0.29707 0.0
C225 C 0.11086 0.74886 0.31198 0.0
C226 C 1.04001 0.67891 0.2634 0.0
C227 C 1.01634 0.70258 0.24355 0.0
H228 H 0.10192 0.68095 0.31061 0.0
H229 H 1.02296 0.64231 0.25393 0.0
S230 S 0.06542 0.82734 0.27027 0.0
N231 N 0.10842 0.81916 0.30353 0.0
N232 N 1.02135 0.77654 0.24147 0.0
C233 C 1.04057 0.75014 0.25831 0.0
C234 C 0.08789 0.77331 0.29222 0.0
C235 C 0.32543 0.04418 0.72001 0.0
C236 C 0.34568 0.0879 0.66769 0.0
C237 C 0.30673 1.00517 0.64549 0.0
C238 C 0.30673 1.00833 0.51594 0.0
H239 H 0.32449 0.04017 0.81931 0.0
H240 H 0.29138 0.97223 0.68953 0.0
S241 S 0.35588 0.11485 0.33308 0.0
N242 N 0.36476 0.13203 0.47813 0.0
N243 N 0.32972 0.05883 0.33852 0.0
C244 C 0.32702 0.05184 0.46246 0.0
C245 C 0.3465 0.09157 0.53819 0.0
C246 C 0.27721 0.44127 0.61197 0.0
C247 C 0.3136 0.47542 0.67999 0.0
C248 C 0.27967 0.43881 0.48348 0.0
C249 C 0.31865 0.47035 0.41805 0.0
H250 H 0.24665 0.41594 0.65819 0.0
H251 H 0.25057 0.41209 0.43523 0.0
S252 S 0.42343 0.56669 0.55265 0.0
N253 N 0.38988 0.54179 0.67182 0.0
N254 N 0.39454 0.53697 0.43122 0.0
C255 C 0.35534 0.5047 0.48495 0.0
C256 C 0.35278 0.50732 0.61557 0.0
C257 C 0.85707 0.23086 0.04907 0.0
C258 C 0.81583 0.21596 0.1129 0.0
C259 C 0.85946 0.2364 0.92064 0.0
C260 C 0.8207 0.22733 0.85103 0.0
H261 H 0.88804 0.23901 0.09868 0.0
H262 H 0.89196 0.24783 0.87583 0.0
S263 S 0.70378 0.18536 0.97325 0.0
N264 N 0.73494 0.19074 0.09619 0.0
N265 N 0.73926 0.20122 0.85561 0.0
C266 C 0.77905 0.2119 0.91369 0.0
C267 C 0.77664 0.20614 0.04428 0.0
C268 C 0.6113 0.8686 0.26599 0.0
C269 C 0.64286 0.86115 0.33196 0.0
C270 C 0.61386 0.87368 0.13754 0.0
C271 C 0.64817 0.87166 0.06996 0.0
H272 H 0.58443 0.8708 0.31378 0.0
H273 H 0.58851 0.87895 0.09104 0.0
S274 S 0.73939 0.85285 0.19861 0.0
N275 N 0.70952 0.85182 0.31973 0.0
N276 N 0.71466 0.86182 0.07902 0.0
C277 C 0.6801 0.86435 0.13484 0.0
C278 C 0.6773 0.85888 0.26552 0.0
C279 C 0.88806 0.59389 0.74878 0.0
C280 C 0.88589 0.62808 0.81604 0.0
C281 C 0.88313 0.59127 0.62028 0.0
C282 C 0.87567 0.62265 0.55396 0.0
H283 H 0.89345 0.56875 0.79556 0.0
H284 H 0.88553 0.56455 0.57273 0.0
S285 S 0.86637 0.71842 0.68661 0.0
N286 N 0.87546 0.69398 0.80646 0.0
N287 N 0.86575 0.68876 0.56564 0.0
C288 C 0.87308 0.65687 0.62014 0.0
C289 C 0.8784 0.65971 0.75087 0.0
C290 C 0.24552 0.7681 0.80755 0.0
C291 C 0.23938 0.80015 0.74061 0.0
C292 C 0.25083 0.77114 0.93602 0.0
C293 C 0.25038 0.80643 0.00249 0.0
H294 H 0.24688 0.74074 0.76043 0.0
H295 H 0.25537 0.74557 -0.01654 0.0
S296 S 0.23276 0.89762 0.87181 0.0
N297 N 0.23131 0.86739 0.75122 0.0
N298 N 0.24162 0.87319 -0.00791 0.0
C299 C 0.24386 0.8385 0.93684 0.0
C300 C 0.23819 0.83529 0.80617 0.0
C301 C 0.45536 0.25837 0.39063 0.0
C302 C 0.48979 0.29527 0.45703 0.0
C303 C 0.45876 0.25422 0.26278 0.0
C304 C 0.49697 0.28654 0.19631 0.0
H305 H 0.42549 0.23231 0.43767 0.0
H306 H 0.43086 0.22579 0.21567 0.0
S307 S 0.59773 0.38841 0.32704 0.0
N308 N 0.56355 0.36452 0.44566 0.0
N309 N 0.57104 0.35551 0.20813 0.0
C310 C 0.53206 0.32304 0.26205 0.0
C311 C 0.52813 0.32779 0.39143 0.0
C312 C 0.29998 0.60382 0.13971 0.0
C313 C 0.26837 0.55752 0.11906 0.0
C314 C 0.28695 0.63265 0.19602 0.0
C315 C 0.24182 0.61647 0.23443 0.0
H316 H 0.33558 0.61776 0.1163 0.0
H317 H 0.31287 0.66749 0.21398 0.0
S318 S 0.14444 0.49982 0.18753 0.0
N319 N 0.1888 0.49795 0.13203 0.0
N320 N 0.16439 0.55241 0.23624 0.0
C321 C 0.20932 0.57093 0.20875 0.0
C322 C 0.22254 0.54146 0.15124 0.0
C323 C 0.64847 0.25902 0.65813 0.0
C324 C 0.63173 0.21397 0.61964 0.0
C325 C 0.62036 0.27216 0.71761 0.0
C326 C 0.57412 0.24086 0.74106 0.0
H327 H 0.68326 0.28482 0.63837 0.0
H328 H 0.63486 0.30768 0.74148 0.0
S329 S 0.51478 0.11742 0.67144 0.0
N330 N 0.56709 0.13694 0.61942 0.0
N331 N 0.51371 0.16181 0.72902 0.0
C332 C 0.55731 0.19518 0.70778 0.0
C333 C 0.58617 0.18174 0.64731 0.0
C334 C 0.48449 0.68011 0.86258 0.0
C335 C 0.50112 0.65201 0.90503 0.0
C336 C 0.51276 0.72081 0.80038 0.0
C337 C 0.55899 0.73523 0.77788 0.0
H338 H 0.44973 0.67148 0.8817 0.0
H339 H 0.49852 0.74193 0.77413 0.0
S340 S 0.61766 0.67067 0.85505 0.0
N341 N 0.56539 0.63884 0.9083 0.0
N342 N 0.61894 0.71575 0.79338 0.0
C343 C 0.57547 0.70621 0.81404 0.0
C344 C 0.54653 0.66462 0.8774 0.0
C345 C 0.82972 0.36843 0.39801 0.0
C346 C 0.86225 0.35443 0.41282 0.0
C347 C 0.84156 0.41086 0.34727 0.0
C348 C 0.88634 0.44099 0.30882 0.0
H349 H 0.79435 0.34589 0.42197 0.0
H350 H 0.81503 0.41935 0.33339 0.0
S351 S 0.98572 0.42366 0.34183 0.0
N352 N 0.94225 0.37617 0.39457 0.0
N353 N 0.96444 0.45612 0.30074 0.0
C354 C 0.91975 0.42857 0.32888 0.0
C355 C 0.90775 0.38532 0.38071 0.0
C356 C 0.39351 0.81781 0.45833 0.0
C357 C 0.378 0.84911 0.44504 0.0
C358 C 0.43516 0.82999 0.51586 0.0
C359 C 0.46314 0.87396 0.56276 0.0
H360 H 0.3726 0.78296 0.42813 0.0
H361 H 0.44461 0.80415 0.52808 0.0
S362 S 0.44154 0.97056 0.53734 0.0
N363 N 0.39616 0.92741 0.47423 0.0
N364 N 0.47482 0.95038 0.58034 0.0
C365 C 0.44937 0.90637 0.54429 0.0
C366 C 0.40682 0.89397 0.48566 0.0
C367 C 0.72498 0.49577 0.13883 0.0
C368 C 0.74849 0.5425 0.11064 0.0
C369 C 0.68452 0.46557 0.07696 0.0
C370 C 0.66671 0.48097 -0.01654 0.0
H371 H 0.73914 0.48212 0.20473 0.0
H372 H 0.66891 0.42954 0.09568 0.0
S373 S 0.71267 0.59983 0.8807 0.0
N374 N 0.74851 0.60289 -0.01091 0.0
N375 N 0.67332 0.5456 0.87095 0.0
C376 C 0.6883 0.52765 0.95911 0.0
C377 C 0.72893 0.55859 0.02347 0.0
loop_
_geom_bond_atom_site_label_1
_geom_bond_atom_site_label_2
_geom_bond_distance
_geom_bond_site_symmetry_2
_ccdc_geom_bond_type
Co0 N5 2.057 . S
Co0 O17 2.021 . S
Co0 O20 2.062 . S
Co0 O24 2.117 1_556 S
Co0 O25 2.020 1_556 S
C1 O21 1.259 . S
C1 O24 1.258 . S
Co2 N11 2.057 . S
Co2 O18 2.116 1_554 S
Co2 O19 2.020 1_554 S
Co2 O21 2.021 . S
Co2 O26 2.062 . S
C3 N5 1.316 . S
C3 N6 1.347 . S
C3 H8 0.931 . S
C4 N5 1.375 . S
C4 C7 1.350 . S
C4 H9 0.930 1_556 S
N5 Co0 2.057 . S
N5 C3 1.316 . S
N5 C4 1.375 . S
N6 C3 1.347 . S
N6 C7 1.373 . S
C7 C4 1.350 . S
C7 N6 1.373 . S
C7 H28 0.931 . S
H8 C3 0.931 . S
H9 C4 0.930 1_554 S
C10 O17 1.259 . S
C10 O18 1.260 . S
N11 Co2 2.057 . S
N11 C12 1.316 . S
N11 C13 1.375 . S
C12 N11 1.316 . S
C12 N14 1.347 . S
C12 H23 0.931 . S
C13 N11 1.375 . S
C13 C15 1.350 . S
C13 H22 0.930 . S
N14 C12 1.347 . S
N14 C15 1.373 . S
C15 C13 1.350 . S
C15 N14 1.373 . S
C15 H29 0.931 . S
C16 O19 1.256 . S
C16 O20 1.255 . S
O17 Co0 2.021 . S
O17 C10 1.259 . S
O18 Co2 2.116 1_556 S
O18 C10 1.260 . S
O19 Co2 2.020 1_556 S
O19 C16 1.256 . S
O20 Co0 2.062 . S
O20 C16 1.255 . S
O21 C1 1.259 . S
O21 Co2 2.021 . S
H22 C13 0.930 . S
H23 C12 0.931 . S
O24 Co0 2.117 1_554 S
O24 C1 1.258 . S
O25 Co0 2.020 1_554 S
O25 C27 1.256 . S
O26 Co2 2.062 . S
O26 C27 1.255 . S
C27 O25 1.256 . S
C27 O26 1.255 . S
H28 C7 0.931 . S
H29 C15 0.931 . S
Co30 N35 2.057 . S
Co30 O47 2.021 . S
Co30 O50 2.062 . S
Co30 O54 2.117 . S
Co30 O55 2.020 . S
C31 O51 1.259 . S
C31 O54 1.258 . S
Co32 N41 2.057 . S
Co32 O48 2.117 . S
Co32 O49 2.020 . S
Co32 O51 2.021 . S
Co32 O56 2.062 . S
C33 N35 1.316 . S
C33 N36 1.347 . S
C33 H38 0.931 . S
C34 N35 1.375 . S
C34 C37 1.350 . S
C34 H39 0.930 . S
N35 Co30 2.057 . S
N35 C33 1.316 . S
N35 C34 1.375 . S
N36 C33 1.347 . S
N36 C37 1.373 . S
C37 C34 1.350 . S
C37 N36 1.373 . S
C37 H58 0.931 . S
H38 C33 0.931 . S
H39 C34 0.930 . S
C40 O47 1.259 . S
C40 O48 1.258 . S
N41 Co32 2.057 . S
N41 C42 1.316 . S
N41 C43 1.375 . S
C42 N41 1.316 . S
C42 N44 1.347 . S
C42 H53 0.931 . S
C43 N41 1.375 . S
C43 C45 1.350 . S
C43 H52 0.930 . S
N44 C42 1.347 . S
N44 C45 1.373 . S
C45 C43 1.350 . S
C45 N44 1.373 . S
C45 H59 0.931 . S
C46 O49 1.256 . S
C46 O50 1.255 . S
O47 Co30 2.021 . S
O47 C40 1.259 . S
O48 Co32 2.117 . S
O48 C40 1.258 . S
O49 Co32 2.020 . S
O49 C46 1.256 . S
O50 Co30 2.062 . S
O50 C46 1.255 . S
O51 C31 1.259 . S
O51 Co32 2.021 . S
H52 C43 0.930 . S
H53 C42 0.931 . S
O54 Co30 2.117 . S
O54 C31 1.258 . S
O55 Co30 2.020 . S
O55 C57 1.256 . S
O56 Co32 2.062 . S
O56 C57 1.255 . S
C57 O55 1.256 . S
C57 O56 1.255 . S
H58 C37 0.931 . S
H59 C45 0.931 . S
Co60 N65 2.057 . S
Co60 O77 2.021 . S
Co60 O80 2.062 . S
Co60 O84 2.117 . S
Co60 O85 2.020 . S
C61 O81 1.259 . S
C61 O84 1.258 . S
Co62 N71 2.057 . S
Co62 O78 2.117 . S
Co62 O79 2.020 . S
Co62 O81 2.021 . S
Co62 O86 2.062 . S
C63 N65 1.316 . S
C63 N66 1.347 . S
C63 H68 0.931 . S
C64 N65 1.375 . S
C64 C67 1.350 . S
C64 H69 0.930 . S
N65 Co60 2.057 . S
N65 C63 1.316 . S
N65 C64 1.375 . S
N66 C63 1.347 . S
N66 C67 1.373 . S
C67 C64 1.350 . S
C67 N66 1.373 . S
C67 H88 0.931 . S
H68 C63 0.931 . S
H69 C64 0.930 . S
C70 O77 1.259 . S
C70 O78 1.258 . S
N71 Co62 2.057 . S
N71 C72 1.316 . S
N71 C73 1.375 . S
C72 N71 1.316 . S
C72 N74 1.347 . S
C72 H83 0.931 . S
C73 N71 1.375 . S
C73 C75 1.350 . S
C73 H82 0.930 . S
N74 C72 1.347 . S
N74 C75 1.373 . S
C75 C73 1.350 . S
C75 N74 1.373 . S
C75 H89 0.931 . S
C76 O79 1.256 . S
C76 O80 1.255 . S
O77 Co60 2.021 . S
O77 C70 1.259 . S
O78 Co62 2.117 . S
O78 C70 1.258 . S
O79 Co62 2.020 . S
O79 C76 1.256 . S
O80 Co60 2.062 . S
O80 C76 1.255 . S
O81 C61 1.259 . S
O81 Co62 2.021 . S
H82 C73 0.930 . S
H83 C72 0.931 . S
O84 Co60 2.117 . S
O84 C61 1.258 . S
O85 Co60 2.020 . S
O85 C87 1.256 . S
O86 Co62 2.062 . S
O86 C87 1.255 . S
C87 O85 1.256 . S
C87 O86 1.255 . S
H88 C67 0.931 . S
H89 C75 0.931 . S
Co90 N95 2.057 . S
Co90 O107 2.021 . S
Co90 O110 2.062 . S
Co90 O114 2.117 . S
Co90 O115 2.020 . S
C91 O111 1.259 . S
C91 O114 1.258 . S
Co92 N101 2.057 . S
Co92 O108 2.117 . S
Co92 O109 2.020 . S
Co92 O111 2.021 . S
Co92 O116 2.062 . S
C93 N95 1.316 . S
C93 N96 1.347 . S
C93 H98 0.931 . S
C94 N95 1.375 . S
C94 C97 1.350 . S
C94 H99 0.930 . S
N95 Co90 2.057 . S
N95 C93 1.316 . S
N95 C94 1.375 . S
N96 C93 1.347 . S
N96 C97 1.373 . S
C97 C94 1.350 . S
C97 N96 1.373 . S
C97 H118 0.931 . S
H98 C93 0.931 . S
H99 C94 0.930 . S
C100 O107 1.259 . S
C100 O108 1.258 . S
N101 Co92 2.057 . S
N101 C102 1.316 . S
N101 C103 1.375 . S
C102 N101 1.316 . S
C102 N104 1.347 . S
C102 H113 0.931 . S
C103 N101 1.375 . S
C103 C105 1.350 . S
C103 H112 0.930 . S
N104 C102 1.347 . S
N104 C105 1.373 . S
C105 C103 1.350 . S
C105 N104 1.373 . S
C105 H119 0.931 . S
C106 O109 1.256 . S
C106 O110 1.255 . S
O107 Co90 2.021 . S
O107 C100 1.259 . S
O108 Co92 2.117 . S
O108 C100 1.258 . S
O109 Co92 2.020 . S
O109 C106 1.256 . S
O110 Co90 2.062 . S
O110 C106 1.255 . S
O111 C91 1.259 . S
O111 Co92 2.021 . S
H112 C103 0.930 . S
H113 C102 0.931 . S
O114 Co90 2.117 . S
O114 C91 1.258 . S
O115 Co90 2.020 . S
O115 C117 1.256 1_554 S
O116 Co92 2.062 . S
O116 C117 1.255 1_554 S
C117 O115 1.256 1_556 S
C117 O116 1.255 1_556 S
H118 C97 0.931 . S
H119 C105 0.931 . S
Co120 N125 2.057 . S
Co120 O137 2.021 . S
Co120 O140 2.062 . S
Co120 O144 2.117 . S
Co120 O145 2.020 . S
C121 O141 1.259 . S
C121 O144 1.258 . S
Co122 N131 2.057 . S
Co122 O138 2.117 . S
Co122 O139 2.020 . S
Co122 O141 2.021 . S
Co122 O146 2.062 . S
C123 N125 1.316 . S
C123 N126 1.347 . S
C123 H128 0.931 . S
C124 N125 1.375 . S
C124 C127 1.350 . S
C124 H129 0.930 . S
N125 Co120 2.057 . S
N125 C123 1.316 . S
N125 C124 1.375 . S
N126 C123 1.347 . S
N126 C127 1.373 . S
C127 C124 1.350 . S
C127 N126 1.373 . S
C127 H148 0.931 . S
H128 C123 0.931 . S
H129 C124 0.930 . S
C130 O137 1.259 . S
C130 O138 1.258 . S
N131 Co122 2.057 . S
N131 C132 1.316 . S
N131 C133 1.375 . S
C132 N131 1.316 . S
C132 N134 1.347 . S
C132 H143 0.931 . S
C133 N131 1.375 . S
C133 C135 1.350 . S
C133 H142 0.930 . S
N134 C132 1.347 . S
N134 C135 1.373 . S
C135 C133 1.350 . S
C135 N134 1.373 . S
C135 H149 0.931 . S
C136 O139 1.256 . S
C136 O140 1.255 . S
O137 Co120 2.021 . S
O137 C130 1.259 . S
O138 Co122 2.117 . S
O138 C130 1.258 . S
O139 Co122 2.020 . S
O139 C136 1.256 . S
O140 Co120 2.062 . S
O140 C136 1.255 . S
O141 C121 1.259 . S
O141 Co122 2.021 . S
H142 C133 0.930 . S
H143 C132 0.931 . S
O144 Co120 2.117 . S
O144 C121 1.258 . S
O145 Co120 2.020 . S
O145 C147 1.256 . S
O146 Co122 2.062 . S
O146 C147 1.255 . S
C147 O145 1.256 . S
C147 O146 1.255 . S
H148 C127 0.931 . S
H149 C135 0.931 . S
Co150 N155 2.057 . S
Co150 O167 2.021 . S
Co150 O170 2.062 1_556 S
Co150 O174 2.117 . S
Co150 O175 2.020 . S
C151 O171 1.259 . S
C151 O174 1.258 . S
Co152 N161 2.057 . S
Co152 O168 2.117 . S
Co152 O169 2.020 1_556 S
Co152 O171 2.021 . S
Co152 O176 2.062 . S
C153 N155 1.316 1_554 S
C153 N156 1.347 . S
C153 H158 0.931 . S
C154 N155 1.375 . S
C154 C157 1.350 . S
C154 H159 0.930 . S
N155 Co150 2.057 . S
N155 C153 1.316 1_556 S
N155 C154 1.375 . S
N156 C153 1.347 . S
N156 C157 1.373 1_554 S
C157 C154 1.350 . S
C157 N156 1.373 1_556 S
C157 H178 0.931 . S
H158 C153 0.931 . S
H159 C154 0.930 . S
C160 O167 1.259 . S
C160 O168 1.258 . S
N161 Co152 2.057 . S
N161 C162 1.316 . S
N161 C163 1.375 . S
C162 N161 1.316 . S
C162 N164 1.347 . S
C162 H173 0.931 . S
C163 N161 1.375 . S
C163 C165 1.350 . S
C163 H172 0.930 . S
N164 C162 1.347 . S
N164 C165 1.373 . S
C165 C163 1.350 . S
C165 N164 1.373 . S
C165 H179 0.931 . S
C166 O169 1.256 . S
C166 O170 1.255 . S
O167 Co150 2.021 . S
O167 C160 1.259 . S
O168 Co152 2.117 . S
O168 C160 1.258 . S
O169 Co152 2.020 1_554 S
O169 C166 1.256 . S
O170 Co150 2.062 1_554 S
O170 C166 1.255 . S
O171 C151 1.259 . S
O171 Co152 2.021 . S
H172 C163 0.930 . S
H173 C162 0.931 . S
O174 Co150 2.117 . S
O174 C151 1.258 . S
O175 Co150 2.020 . S
O175 C177 1.256 . S
O176 Co152 2.062 . S
O176 C177 1.255 . S
C177 O175 1.256 . S
C177 O176 1.255 . S
H178 C157 0.931 . S
H179 C165 0.931 . S
C180 C181 1.369 . S
C180 C182 1.419 . S
C180 H184 0.930 . S
C181 C180 1.369 . S
C181 C190 1.429 . S
C182 C180 1.419 . S
C182 C183 1.363 . S
C182 H185 0.929 1_556 S
C183 C182 1.363 . S
C183 C189 1.428 . S
H184 C180 0.930 . S
H185 C182 0.929 1_554 S
S186 N187 1.613 . S
S186 N188 1.610 . S
N187 S186 1.613 . S
N187 C190 1.350 . S
N188 S186 1.610 . S
N188 C189 1.351 . S
C189 C183 1.428 . S
C189 N188 1.351 . S
C189 C190 1.434 . S
C190 C181 1.429 . S
C190 N187 1.350 . S
C190 C189 1.434 . S
C191 C192 1.369 . S
C191 C193 1.419 . S
C191 H195 0.930 . S
C192 C191 1.369 . S
C192 C201 1.429 . S
C193 C191 1.419 . S
C193 C194 1.363 1_455 S
C193 H196 0.929 . S
C194 C193 1.363 1_655 S
C194 C200 1.428 . S
H195 C191 0.930 . S
H196 C193 0.929 . S
S197 N198 1.613 . S
S197 N199 1.610 . S
N198 S197 1.613 . S
N198 C201 1.350 1_655 S
N199 S197 1.610 . S
N199 C200 1.351 . S
C200 C194 1.428 . S
C200 N199 1.351 . S
C200 C201 1.434 1_655 S
C201 C192 1.429 . S
C201 N198 1.350 1_455 S
C201 C200 1.434 1_455 S
C202 C203 1.369 . S
C202 C204 1.419 1_545 S
C202 H206 0.930 . S
C203 C202 1.369 . S
C203 C212 1.429 . S
C204 C202 1.419 1_565 S
C204 C205 1.363 . S
C204 H207 0.929 . S
C205 C204 1.363 . S
C205 C211 1.428 . S
H206 C202 0.930 . S
H207 C204 0.929 . S
S208 N209 1.613 . S
S208 N210 1.610 1_545 S
N209 S208 1.613 . S
N209 C212 1.350 . S
N210 S208 1.610 1_565 S
N210 C211 1.351 . S
C211 C205 1.428 . S
C211 N210 1.351 . S
C211 C212 1.434 1_565 S
C212 C203 1.429 . S
C212 N209 1.350 . S
C212 C211 1.434 1_545 S
C213 C214 1.369 . S
C213 C215 1.419 1_556 S
C213 H217 0.930 . S
C214 C213 1.369 . S
C214 C223 1.429 . S
C215 C213 1.419 1_554 S
C215 C216 1.363 . S
C215 H218 0.929 . S
C216 C215 1.363 . S
C216 C222 1.428 1_554 S
H217 C213 0.930 . S
H218 C215 0.929 . S
S219 N220 1.613 . S
S219 N221 1.610 1_556 S
N220 S219 1.613 . S
N220 C223 1.350 . S
N221 S219 1.610 1_554 S
N221 C222 1.351 1_554 S
C222 C216 1.428 1_556 S
C222 N221 1.351 1_556 S
C222 C223 1.434 . S
C223 C214 1.429 . S
C223 N220 1.350 . S
C223 C222 1.434 . S
C224 C225 1.369 . S
C224 C226 1.419 1_455 S
C224 H228 0.930 . S
C225 C224 1.369 . S
C225 C234 1.429 . S
C226 C224 1.419 1_655 S
C226 C227 1.363 . S
C226 H229 0.929 . S
C227 C226 1.363 . S
C227 C233 1.428 . S
H228 C224 0.930 . S
H229 C226 0.929 . S
S230 N231 1.613 . S
S230 N232 1.610 1_455 S
N231 S230 1.613 . S
N231 C234 1.350 . S
N232 S230 1.610 1_655 S
N232 C233 1.351 . S
C233 C227 1.428 . S
C233 N232 1.351 . S
C233 C234 1.434 1_655 S
C234 C225 1.429 . S
C234 N231 1.350 . S
C234 C233 1.434 1_455 S
C235 C236 1.369 . S
C235 C237 1.419 1_545 S
C235 H239 0.930 . S
C236 C235 1.369 . S
C236 C245 1.429 . S
C237 C235 1.419 1_565 S
C237 C238 1.363 . S
C237 H240 0.929 . S
C238 C237 1.363 . S
C238 C244 1.428 1_565 S
H239 C235 0.930 . S
H240 C237 0.929 . S
S241 N242 1.613 . S
S241 N243 1.610 . S
N242 S241 1.613 . S
N242 C245 1.350 . S
N243 S241 1.610 . S
N243 C244 1.351 . S
C244 C238 1.428 1_545 S
C244 N243 1.351 . S
C244 C245 1.434 . S
C245 C236 1.429 . S
C245 N242 1.350 . S
C245 C244 1.434 . S
C246 C247 1.369 . S
C246 C248 1.419 . S
C246 H250 0.930 . S
C247 C246 1.369 . S
C247 C256 1.429 . S
C248 C246 1.419 . S
C248 C249 1.363 . S
C248 H251 0.929 . S
C249 C248 1.363 . S
C249 C255 1.428 . S
H250 C246 0.930 . S
H251 C248 0.929 . S
S252 N253 1.613 . S
S252 N254 1.610 . S
N253 S252 1.613 . S
N253 C256 1.350 . S
N254 S252 1.610 . S
N254 C255 1.351 . S
C255 C249 1.428 . S
C255 N254 1.351 . S
C255 C256 1.434 . S
C256 C247 1.429 . S
C256 N253 1.350 . S
C256 C255 1.434 . S
C257 C258 1.369 . S
C257 C259 1.419 . S
C257 H261 0.930 . S
C258 C257 1.369 . S
C258 C267 1.429 . S
C259 C257 1.419 . S
C259 C260 1.363 1_554 S
C259 H262 0.929 . S
C260 C259 1.363 1_556 S
C260 C266 1.428 . S
H261 C257 0.930 . S
H262 C259 0.929 . S
S263 N264 1.613 . S
S263 N265 1.610 1_554 S
N264 S263 1.613 . S
N264 C267 1.350 . S
N265 S263 1.610 1_556 S
N265 C266 1.351 . S
C266 C260 1.428 . S
C266 N265 1.351 . S
C266 C267 1.434 1_556 S
C267 C258 1.429 . S
C267 N264 1.350 . S
C267 C266 1.434 1_554 S
C268 C269 1.369 . S
C268 C270 1.419 . S
C268 H272 0.930 . S
C269 C268 1.369 . S
C269 C278 1.429 . S
C270 C268 1.419 . S
C270 C271 1.363 . S
C270 H273 0.929 . S
C271 C270 1.363 . S
C271 C277 1.428 . S
H272 C268 0.930 . S
H273 C270 0.929 . S
S274 N275 1.613 . S
S274 N276 1.610 . S
N275 S274 1.613 . S
N275 C278 1.350 . S
N276 S274 1.610 . S
N276 C277 1.351 . S
C277 C271 1.428 . S
C277 N276 1.351 . S
C277 C278 1.434 . S
C278 C269 1.429 . S
C278 N275 1.350 . S
C278 C277 1.434 . S
C279 C280 1.369 . S
C279 C281 1.419 . S
C279 H283 0.930 . S
C280 C279 1.369 . S
C280 C289 1.429 . S
C281 C279 1.419 . S
C281 C282 1.363 . S
C281 H284 0.929 . S
C282 C281 1.363 . S
C282 C288 1.428 . S
H283 C279 0.930 . S
H284 C281 0.929 . S
S285 N286 1.613 . S
S285 N287 1.610 . S
N286 S285 1.613 . S
N286 C289 1.350 . S
N287 S285 1.610 . S
N287 C288 1.351 . S
C288 C282 1.428 . S
C288 N287 1.351 . S
C288 C289 1.434 . S
C289 C280 1.429 . S
C289 N286 1.350 . S
C289 C288 1.434 . S
C290 C291 1.369 . S
C290 C292 1.419 . S
C290 H294 0.930 . S
C291 C290 1.369 . S
C291 C300 1.429 . S
C292 C290 1.419 . S
C292 C293 1.363 . S
C292 H295 0.929 . S
C293 C292 1.363 . S
C293 C299 1.428 . S
H294 C290 0.930 . S
H295 C292 0.929 . S
S296 N297 1.613 . S
S296 N298 1.610 . S
N297 S296 1.613 . S
N297 C300 1.350 . S
N298 S296 1.610 . S
N298 C299 1.351 . S
C299 C293 1.428 . S
C299 N298 1.351 . S
C299 C300 1.434 . S
C300 C291 1.429 . S
C300 N297 1.350 . S
C300 C299 1.434 . S
C301 C302 1.369 . S
C301 C303 1.419 . S
C301 H305 0.930 . S
C302 C301 1.369 . S
C302 C311 1.429 . S
C303 C301 1.419 . S
C303 C304 1.363 . S
C303 H306 0.929 . S
C304 C303 1.363 . S
C304 C310 1.428 . S
H305 C301 0.930 . S
H306 C303 0.929 . S
S307 N308 1.613 . S
S307 N309 1.610 . S
N308 S307 1.613 . S
N308 C311 1.350 . S
N309 S307 1.610 . S
N309 C310 1.351 . S
C310 C304 1.428 . S
C310 N309 1.351 . S
C310 C311 1.434 . S
C311 C302 1.429 . S
C311 N308 1.350 . S
C311 C310 1.434 . S
C312 C313 1.369 1_556 S
C312 C314 1.419 1_556 S
C312 H316 0.930 . S
C313 C312 1.369 1_554 S
C313 C322 1.429 . S
C314 C312 1.419 1_554 S
C314 C315 1.363 . S
C314 H317 0.929 1_554 S
C315 C314 1.363 . S
C315 C321 1.428 . S
H316 C312 0.930 . S
H317 C314 0.929 1_556 S
S318 N319 1.613 . S
S318 N320 1.610 . S
N319 S318 1.613 . S
N319 C322 1.350 . S
N320 S318 1.610 . S
N320 C321 1.351 . S
C321 C315 1.428 . S
C321 N320 1.351 . S
C321 C322 1.434 . S
C322 C313 1.429 . S
C322 N319 1.350 . S
C322 C321 1.434 . S
C323 C324 1.369 . S
C323 C325 1.419 . S
C323 H327 0.930 . S
C324 C323 1.369 . S
C324 C333 1.429 . S
C325 C323 1.419 . S
C325 C326 1.363 . S
C325 H328 0.929 1_556 S
C326 C325 1.363 . S
C326 C332 1.428 . S
H327 C323 0.930 . S
H328 C325 0.929 1_554 S
S329 N330 1.613 . S
S329 N331 1.610 . S
N330 S329 1.613 . S
N330 C333 1.350 . S
N331 S329 1.610 . S
N331 C332 1.351 . S
C332 C326 1.428 . S
C332 N331 1.351 . S
C332 C333 1.434 . S
C333 C324 1.429 . S
C333 N330 1.350 . S
C333 C332 1.434 . S
C334 C335 1.369 . S
C334 C336 1.419 . S
C334 H338 0.930 . S
C335 C334 1.369 . S
C335 C344 1.429 . S
C336 C334 1.419 . S
C336 C337 1.363 . S
C336 H339 0.929 . S
C337 C336 1.363 . S
C337 C343 1.428 . S
H338 C334 0.930 . S
H339 C336 0.929 . S
S340 N341 1.613 . S
S340 N342 1.610 1_554 S
N341 S340 1.613 . S
N341 C344 1.350 1_554 S
N342 S340 1.610 1_556 S
N342 C343 1.351 . S
C343 C337 1.428 . S
C343 N342 1.351 . S
C343 C344 1.434 . S
C344 C335 1.429 . S
C344 N341 1.350 1_556 S
C344 C343 1.434 . S
C345 C346 1.369 . S
C345 C347 1.419 . S
C345 H349 0.930 . S
C346 C345 1.369 . S
C346 C355 1.429 . S
C347 C345 1.419 . S
C347 C348 1.363 . S
C347 H350 0.929 . S
C348 C347 1.363 . S
C348 C354 1.428 . S
H349 C345 0.930 . S
H350 C347 0.929 . S
S351 N352 1.613 . S
S351 N353 1.610 . S
N352 S351 1.613 . S
N352 C355 1.350 . S
N353 S351 1.610 . S
N353 C354 1.351 . S
C354 C348 1.428 . S
C354 N353 1.351 . S
C354 C355 1.434 . S
C355 C346 1.429 . S
C355 N352 1.350 . S
C355 C354 1.434 . S
C356 C357 1.369 . S
C356 C358 1.419 . S
C356 H360 0.930 . S
C357 C356 1.369 . S
C357 C366 1.429 . S
C358 C356 1.419 . S
C358 C359 1.363 . S
C358 H361 0.929 . S
C359 C358 1.363 . S
C359 C365 1.428 . S
H360 C356 0.930 . S
H361 C358 0.929 . S
S362 N363 1.613 . S
S362 N364 1.610 . S
N363 S362 1.613 . S
N363 C366 1.350 . S
N364 S362 1.610 . S
N364 C365 1.351 . S
C365 C359 1.428 . S
C365 N364 1.351 . S
C365 C366 1.434 . S
C366 C357 1.429 . S
C366 N363 1.350 . S
C366 C365 1.434 . S
C367 C368 1.369 . S
C367 C369 1.419 . S
C367 H371 0.930 . S
C368 C367 1.369 . S
C368 C377 1.429 . S
C369 C367 1.419 . S
C369 C370 1.363 . S
C369 H372 0.929 . S
C370 C369 1.363 . S
C370 C376 1.428 . S
H371 C367 0.930 . S
H372 C369 0.929 . S
S373 N374 1.613 . S
S373 N375 1.610 . S
N374 S373 1.613 . S
N374 C377 1.350 1_556 S
N375 S373 1.610 . S
N375 C376 1.351 1_556 S
C376 C370 1.428 . S
C376 N375 1.351 1_554 S
C376 C377 1.434 . S
C377 C368 1.429 . S
C377 N374 1.350 1_554 S
C377 C376 1.434 . S
C181 C160 1.686 . S
C183 C10 1.686 . S
C192 N14 1.612 . S
C194 N44 1.609 . S
C203 C40 1.688 . S
C205 C70 1.686 . S
C214 N74 1.610 . S
C216 N104 1.609 . S
C225 C130 1.688 . S
C227 C100 1.690 . S
C236 N164 1.608 . S
C238 N134 1.611 . S
C247 C16 1.181 . S
C249 C27 1.183 . S
C258 C57 1.186 . S
C260 C46 1.180 . S
C269 C76 1.186 . S
C271 C87 1.179 1_554 S
C280 C117 1.180 . S
C282 C106 1.184 . S
C291 C147 1.179 . S
C293 C136 1.185 1_556 S
C302 C177 1.184 . S
C304 C166 1.181 . S
C313 C1 1.734 . S
C315 N126 1.547 . S
C324 N36 1.542 . S
C326 C151 1.736 . S
C335 N6 1.544 . S
C337 C61 1.735 . S
C346 C31 1.734 . S
C348 N96 1.550 . S
C357 C121 1.736 . S
C359 N66 1.543 . S
C368 C91 1.735 . S
C370 N156 1.544 . S
