# Generated by pormake.
# Topology unn, (4)-cn, num edge types: 1
# Building blocks:
#     Node 0, Type 0, BuildingBlock: CEKHIL_clean_sbu_0, # of connection points: 4
#     Node 1, Type 0, BuildingBlock: CEKHIL_clean_sbu_0, # of connection points: 4
#     Node 2, Type 0, BuildingBlock: CEKHIL_clean_sbu_0, # of connection points: 4
#     Node 3, Type 0, BuildingBlock: CEKHIL_clean_sbu_0, # of connection points: 4
#     Node 4, Type 0, BuildingBlock: CEKHIL_clean_sbu_0, # of connection points: 4
#     Node 5, Type 0, BuildingBlock: CEKHIL_clean_sbu_0, # of connection points: 4
#     Node 6, Type 0, BuildingBlock: CEKHIL_clean_sbu_0, # of connection points: 4
#     Node 7, Type 0, BuildingBlock: CEKHIL_clean_sbu_0, # of connection points: 4
#     Node 8, Type 0, BuildingBlock: CEKHIL_clean_sbu_0, # of connection points: 4
#     Node 9, Type 0, BuildingBlock: CEKHIL_clean_sbu_0, # of connection points: 4
#     Node 10, Type 0, BuildingBlock: CEKHIL_clean_sbu_0, # of connection points: 4
#     Node 11, Type 0, BuildingBlock: CEKHIL_clean_sbu_0, # of connection points: 4
#     Node 12, Type 0, BuildingBlock: CEKHIL_clean_sbu_0, # of connection points: 4
#     Node 13, Type 0, BuildingBlock: CEKHIL_clean_sbu_0, # of connection points: 4
#     Node 14, Type 0, BuildingBlock: CEKHIL_clean_sbu_0, # of connection points: 4
#     Node 15, Type 0, BuildingBlock: CEKHIL_clean_sbu_0, # of connection points: 4
#     Node 16, Type 0, BuildingBlock: CEKHIL_clean_sbu_0, # of connection points: 4
#     Node 17, Type 0, BuildingBlock: CEKHIL_clean_sbu_0, # of connection points: 4
#     Edge 18, Type (0, 0), BuildingBlock: EZIPEK_clean_linker_0, # of connection points: 2
#     Edge 19, Type (0, 0), BuildingBlock: EZIPEK_clean_linker_0, # of connection points: 2
#     Edge 20, Type (0, 0), BuildingBlock: EZIPEK_clean_linker_0, # of connection points: 2
#     Edge 21, Type (0, 0), BuildingBlock: EZIPEK_clean_linker_0, # of connection points: 2
#     Edge 22, Type (0, 0), BuildingBlock: EZIPEK_clean_linker_0, # of connection points: 2
#     Edge 23, Type (0, 0), BuildingBlock: EZIPEK_clean_linker_0, # of connection points: 2
#     Edge 24, Type (0, 0), BuildingBlock: EZIPEK_clean_linker_0, # of connection points: 2
#     Edge 25, Type (0, 0), BuildingBlock: EZIPEK_clean_linker_0, # of connection points: 2
#     Edge 26, Type (0, 0), BuildingBlock: EZIPEK_clean_linker_0, # of connection points: 2
#     Edge 27, Type (0, 0), BuildingBlock: EZIPEK_clean_linker_0, # of connection points: 2
#     Edge 28, Type (0, 0), BuildingBlock: EZIPEK_clean_linker_0, # of connection points: 2
#     Edge 29, Type (0, 0), BuildingBlock: EZIPEK_clean_linker_0, # of connection points: 2
#     Edge 30, Type (0, 0), BuildingBlock: EZIPEK_clean_linker_0, # of connection points: 2
#     Edge 31, Type (0, 0), BuildingBlock: EZIPEK_clean_linker_0, # of connection points: 2
#     Edge 32, Type (0, 0), BuildingBlock: EZIPEK_clean_linker_0, # of connection points: 2
#     Edge 33, Type (0, 0), BuildingBlock: EZIPEK_clean_linker_0, # of connection points: 2
#     Edge 34, Type (0, 0), BuildingBlock: EZIPEK_clean_linker_0, # of connection points: 2
#     Edge 35, Type (0, 0), BuildingBlock: EZIPEK_clean_linker_0, # of connection points: 2
#     Edge 36, Type (0, 0), BuildingBlock: EZIPEK_clean_linker_0, # of connection points: 2
#     Edge 37, Type (0, 0), BuildingBlock: EZIPEK_clean_linker_0, # of connection points: 2
#     Edge 38, Type (0, 0), BuildingBlock: EZIPEK_clean_linker_0, # of connection points: 2
#     Edge 39, Type (0, 0), BuildingBlock: EZIPEK_clean_linker_0, # of connection points: 2
#     Edge 40, Type (0, 0), BuildingBlock: EZIPEK_clean_linker_0, # of connection points: 2
#     Edge 41, Type (0, 0), BuildingBlock: EZIPEK_clean_linker_0, # of connection points: 2
#     Edge 42, Type (0, 0), BuildingBlock: EZIPEK_clean_linker_0, # of connection points: 2
#     Edge 43, Type (0, 0), BuildingBlock: EZIPEK_clean_linker_0, # of connection points: 2
#     Edge 44, Type (0, 0), BuildingBlock: EZIPEK_clean_linker_0, # of connection points: 2
#     Edge 45, Type (0, 0), BuildingBlock: EZIPEK_clean_linker_0, # of connection points: 2
#     Edge 46, Type (0, 0), BuildingBlock: EZIPEK_clean_linker_0, # of connection points: 2
#     Edge 47, Type (0, 0), BuildingBlock: EZIPEK_clean_linker_0, # of connection points: 2
#     Edge 48, Type (0, 0), BuildingBlock: EZIPEK_clean_linker_0, # of connection points: 2
#     Edge 49, Type (0, 0), BuildingBlock: EZIPEK_clean_linker_0, # of connection points: 2
#     Edge 50, Type (0, 0), BuildingBlock: EZIPEK_clean_linker_0, # of connection points: 2
#     Edge 51, Type (0, 0), BuildingBlock: EZIPEK_clean_linker_0, # of connection points: 2
#     Edge 52, Type (0, 0), BuildingBlock: EZIPEK_clean_linker_0, # of connection points: 2
#     Edge 53, Type (0, 0), BuildingBlock: EZIPEK_clean_linker_0, # of connection points: 2
# Relax obj value: 0.126
# Max RMSD: 0.231
# Mean RMSD: 0.221
data_MOF--net-unn--node1-CEKHIL_clean_sbu_0--edge1-EZIPEK_clean_linker_0
_symmetry_space_group_name_H-M    P1
_symmetry_Int_Tables_number       1
_symmetry_cell_setting            triclinic
loop_
_symmetry_equiv_pos_as_xyz
'x, y, z'
_cell_length_a     34.083862
_cell_length_b     34.28602
_cell_length_c     27.226481
_cell_angle_alpha  90.205443
_cell_angle_beta   90.108977
_cell_angle_gamma 120.15701
loop_
_atom_site_label
_atom_site_type_symbol
_atom_site_fract_x
_atom_site_fract_y
_atom_site_fract_z
_atom_type_partial_charge
Co0 Co 0.93833 0.65141 0.23675 0.0
O1 O 0.88011 0.61156 0.20554 0.0
O2 O 0.9104 0.68511 0.20994 0.0
C3 C 0.92401 0.61046 0.30656 0.0
O4 O 0.99885 0.70156 0.2688 0.0
Co5 Co 1.00164 0.61208 0.25952 0.0
O6 O 0.03423 0.66644 0.30097 0.0
C7 C 1.00744 0.65573 0.16364 0.0
C8 C 0.87602 0.64627 0.19657 0.0
C9 C 0.03112 0.70155 0.29474 0.0
O10 O 0.97202 0.65854 0.17354 0.0
O11 O 0.02361 0.63791 0.19261 0.0
O12 O 0.90932 0.63843 0.30055 0.0
O13 O 0.94222 0.60462 0.26772 0.0
Co14 Co 0.32561 0.26611 0.24117 0.0
O15 O 0.30589 0.30848 0.25793 0.0
O16 O 0.28127 0.24455 0.29632 0.0
C17 C 0.31526 0.27496 0.16183 0.0
O18 O 0.3455 0.21993 0.2254 0.0
Co19 Co 0.41898 0.32921 0.19171 0.0
O20 O 0.412 0.26672 0.18625 0.0
C21 C 0.40403 0.339 0.29197 0.0
C22 C 0.28005 0.28185 0.29136 0.0
C23 C 0.38154 0.22722 0.20095 0.0
O24 O 0.3766 0.2965 0.2891 0.0
O25 O 0.42451 0.36249 0.25438 0.0
O26 O 0.28161 0.24498 0.18734 0.0
O27 O 0.35387 0.29321 0.18382 0.0
Co28 Co 0.84541 0.06795 0.2632 0.0
O29 O 0.78429 0.00724 0.26078 0.0
O30 O 0.84065 0.01155 0.29299 0.0
C31 C 0.82565 0.04106 0.18114 0.0
O32 O 0.85819 0.12908 0.23455 0.0
Co33 Co 0.75948 0.0644 0.22106 0.0
O34 O 0.80019 0.12309 0.18966 0.0
C35 C 0.77221 0.06425 0.32855 0.0
C36 C 0.79945 0.98526 0.2836 0.0
C37 C 0.84111 0.14562 0.20437 0.0
O38 O 0.81434 0.07651 0.32219 0.0
O39 O 0.74414 0.05491 0.293 0.0
O40 O 0.86577 0.05629 0.19855 0.0
O41 O 0.79783 0.03712 0.21518 0.0
Co42 Co 0.96397 0.28028 0.73643 0.0
O43 O 0.02583 0.32267 0.75616 0.0
O44 O 0.98617 0.25507 0.78768 0.0
C45 C 0.9784 0.29087 0.65536 0.0
O46 O 0.89815 0.22833 0.72135 0.0
Co47 Co 0.91294 0.32085 0.6829 0.0
O48 O 0.86523 0.25739 0.6728 0.0
C49 C 0.93052 0.33643 0.78773 0.0
C50 C 0.02444 0.29341 0.78653 0.0
C51 C 0.86464 0.22426 0.69443 0.0
O52 O 0.94187 0.30605 0.78805 0.0
O53 O 0.92158 0.35104 0.74862 0.0
O54 O 0.9851 0.2622 0.67953 0.0
O55 O 0.96676 0.31496 0.6816 0.0
Co56 Co 0.79748 0.71728 0.74905 0.0
O57 O 0.81527 0.67556 0.72383 0.0
O58 O 0.85558 0.74886 0.71383 0.0
C59 C 0.77796 0.68709 0.82461 0.0
O60 O 0.78797 0.77003 0.77313 0.0
Co61 Co 0.69655 0.67869 0.78121 0.0
O62 O 0.72112 0.73793 0.8136 0.0
C63 C 0.72526 0.71053 0.67905 0.0
C64 C 0.85167 0.7094 0.70642 0.0
C65 C 0.75791 0.7726 0.8004 0.0
O66 O 0.76389 0.71335 0.68637 0.0
O67 O 0.6948 0.69781 0.71227 0.0
O68 O 0.82025 0.71437 0.81411 0.0
O69 O 0.75038 0.67445 0.78779 0.0
Co70 Co 0.34945 0.08456 0.73482 0.0
O71 O 0.39187 0.14161 0.70516 0.0
O72 O 0.31986 0.11908 0.71816 0.0
C73 C 0.39548 0.08893 0.79675 0.0
O74 O 0.2973 0.0266 0.76708 0.0
Co75 Co 0.37638 0.01027 0.73306 0.0
O76 O 0.32437 0.97896 0.77812 0.0
C77 C 0.33995 0.0282 0.64422 0.0
C78 C 0.35909 0.15006 0.70123 0.0
C79 C 0.29378 0.9895 0.78406 0.0
O80 O 0.33235 0.05561 0.66859 0.0
O81 O 0.36014 0.00837 0.66179 0.0
O82 O 0.37206 0.10928 0.79943 0.0
O83 O 0.3939 0.07091 0.75443 0.0
Co84 Co 0.60523 1.00154 0.58353 0.0
O85 O 0.54764 0.95402 0.5584 0.0
O86 O 0.56952 0.02601 0.5529 0.0
C87 C 0.60028 0.97019 0.6578 0.0
O88 O 0.66476 0.05827 0.60849 0.0
Co89 Co 0.67708 0.97279 0.60945 0.0
O90 O 0.70683 0.03148 0.64384 0.0
C91 C 0.67188 1.0028 0.50874 0.0
C92 C 0.53807 0.98419 0.5446 0.0
C93 C 0.69972 0.06369 0.6339 0.0
O94 O 0.63626 1.00506 0.51926 0.0
O95 O 0.69161 0.98967 0.53901 0.0
O96 O 0.58025 0.99317 0.64942 0.0
O97 O 0.6168 0.96212 0.6191 0.0
Co98 Co 0.98068 0.56674 0.59495 0.0
O99 O 0.04321 0.58257 0.56503 0.0
O100 O 0.9911 0.51659 0.57176 0.0
C101 C 0.03472 0.59703 0.65848 0.0
O102 O 0.96275 0.61327 0.61907 0.0
Co103 Co 0.05662 0.66509 0.57942 0.0
O104 O 0.01525 0.68519 0.60524 0.0
C105 C 0.99587 0.6142 0.49705 0.0
C106 C 0.03036 0.54147 0.55525 0.0
C107 C 0.97626 0.65594 0.62075 0.0
O108 O 0.97155 0.58142 0.52613 0.0
O109 O 0.03303 0.64935 0.50983 0.0
O110 O 0.99689 0.56045 0.6636 0.0
O111 O 0.04336 0.60935 0.61325 0.0
Co112 Co 0.45019 0.42212 0.58554 0.0
O113 O 0.47391 0.48309 0.56372 0.0
O114 O 0.51336 0.44803 0.564 0.0
C115 C 0.41802 0.42532 0.65504 0.0
O116 O 0.43099 0.3568 0.60792 0.0
Co117 Co 0.34479 0.36744 0.58098 0.0
O118 O 0.35431 0.31755 0.60172 0.0
C119 C 0.39473 0.3855 0.49091 0.0
C120 C 0.5115 0.48431 0.55387 0.0
C121 C 0.39174 0.32011 0.61355 0.0
O122 O 0.43057 0.40008 0.51707 0.0
O123 O 0.35589 0.37458 0.50852 0.0
O124 O 0.46158 0.44207 0.65344 0.0
O125 O 0.39776 0.41672 0.61272 0.0
Co126 Co 0.61101 0.60162 0.07887 0.0
O127 O 0.55503 0.59475 0.05186 0.0
O128 O 0.57351 0.54219 0.04661 0.0
C129 C 0.60544 0.62773 0.15301 0.0
O130 O 0.66924 0.60134 0.10604 0.0
Co131 Co 0.68567 0.7012 0.10547 0.0
O132 O 0.71652 0.67193 0.13569 0.0
C133 C 0.68239 0.66346 0.00623 0.0
C134 C 0.54355 0.55447 0.03784 0.0
C135 C 0.70675 0.63135 0.1282 0.0
O136 O 0.64395 0.62838 0.01562 0.0
O137 O 0.70388 0.69558 0.03713 0.0
O138 O 0.5826 0.58502 0.14329 0.0
O139 O 0.62457 0.65299 0.11536 0.0
Co140 Co 0.4534 0.02975 0.07998 0.0
O141 O 0.47 0.98849 0.05128 0.0
O142 O 0.51856 0.06054 0.06454 0.0
C143 C 0.41296 0.9858 0.14218 0.0
O144 O 0.44368 0.08026 0.11149 0.0
Co145 Co 0.34911 0.99662 0.07696 0.0
O146 O 0.36755 0.04993 0.11981 0.0
C147 C 0.40354 0.03057 0.98762 0.0
C148 C 0.5113 0.02137 0.04894 0.0
C149 C 0.40816 0.08192 0.12685 0.0
O150 O 0.43978 0.0442 0.01315 0.0
O151 O 0.36342 0.00751 0.00499 0.0
O152 O 0.45692 0.00843 0.14457 0.0
O153 O 0.3961 0.98522 0.09951 0.0
Co154 Co 0.96893 0.41835 0.08855 0.0
O155 O 0.02993 0.4563 0.05259 0.0
O156 O 0.98648 0.48126 0.06646 0.0
C157 C 0.02999 0.4369 0.14349 0.0
O158 O 0.94544 0.35308 0.11273 0.0
Co159 Co 0.03213 0.38122 0.06055 0.0
O160 O 0.9937 0.32754 0.10062 0.0
C161 C 0.96961 0.38358 0.98648 0.0
C162 C 0.02242 0.48875 0.0454 0.0
C163 C 0.95692 0.32268 0.11772 0.0
O164 O 0.94987 0.3944 0.01965 0.0
O165 O 1.00475 0.38008 -0.00533 0.0
O166 O 0.99552 0.44049 0.15503 0.0
O167 O 0.0308 0.42976 0.09713 0.0
Co168 Co 0.26635 0.36659 0.91974 0.0
O169 O 0.20647 0.32165 0.89702 0.0
O170 O 0.23259 0.39444 0.89164 0.0
C171 C 0.26152 0.33277 0.99126 0.0
O172 O 0.32998 0.42169 0.94143 0.0
Co173 Co 0.33551 0.33309 0.94115 0.0
O174 O 0.37108 0.39225 0.97314 0.0
C175 C 0.32802 0.36558 0.84201 0.0
C176 C 0.19922 0.35343 0.88346 0.0
C177 C 0.36629 0.42586 0.96317 0.0
O178 O 0.29236 0.36695 0.85391 0.0
O179 O 0.34968 0.35438 0.87185 0.0
O180 O 0.24392 0.35854 0.98715 0.0
O181 O 0.27626 0.32458 0.95147 0.0
Co182 Co 0.69362 0.97072 0.91692 0.0
O183 O 0.66883 0.00836 0.93496 0.0
O184 O 0.64472 0.94112 0.96604 0.0
C185 C 0.68879 0.97869 0.83608 0.0
O186 O 0.71359 0.92378 0.90161 0.0
Co187 Co 0.78633 0.0213 0.86927 0.0
O188 O 0.77615 0.96053 0.85442 0.0
C189 C 0.7821 0.02725 0.97465 0.0
C190 C 0.6408 0.97709 0.9636 0.0
C191 C 0.74485 0.92451 0.87358 0.0
O192 O 0.73975 0.99842 0.97062 0.0
O193 O 0.80784 0.04506 0.93758 0.0
O194 O 0.6549 0.9484 0.86076 0.0
O195 O 0.72367 0.00765 0.86173 0.0
Co196 Co 0.16829 0.73443 0.90666 0.0
O197 O 0.10696 0.67419 0.91166 0.0
O198 O 0.16628 0.67763 0.93194 0.0
C199 C 0.13703 0.70562 0.82738 0.0
O200 O 0.18084 0.79685 0.88201 0.0
Co201 Co 0.08306 0.73692 0.88278 0.0
O202 O 0.11942 0.80047 0.86113 0.0
C203 C 0.10574 0.73228 0.98578 0.0
C204 C 0.12419 0.65183 0.92887 0.0
C205 C 0.16219 0.81877 0.86483 0.0
O206 O 0.14647 0.74395 0.97249 0.0
O207 O 0.07424 0.7245 0.95499 0.0
O208 O 0.17909 0.72161 0.8377 0.0
O209 O 0.1138 0.70295 0.8659 0.0
Co210 Co 0.30025 0.90573 0.40365 0.0
O211 O 0.36199 0.94741 0.42355 0.0
O212 O 0.32158 0.88012 0.45551 0.0
C213 C 0.31539 0.91547 0.32283 0.0
O214 O 0.23379 0.85523 0.38831 0.0
Co215 Co 0.25293 0.94957 0.34947 0.0
O216 O 0.20244 0.88703 0.34147 0.0
C217 C 0.2768 0.96921 0.45251 0.0
C218 C 0.36021 0.91811 0.45399 0.0
C219 C 0.20051 0.85297 0.3624 0.0
O220 O 0.27963 0.93343 0.45408 0.0
O221 O 0.26947 0.98448 0.41293 0.0
O222 O 0.32058 0.88596 0.34726 0.0
O223 O 0.30491 0.94057 0.34874 0.0
Co224 Co 0.11764 0.36892 0.40688 0.0
O225 O 0.12899 0.3223 0.38272 0.0
O226 O 0.18211 0.39349 0.38887 0.0
C227 C 0.07785 0.33201 0.47393 0.0
O228 O 0.11238 0.42443 0.4319 0.0
Co229 Co 1.01466 0.34093 0.40699 0.0
O230 O 0.03849 0.39248 0.45334 0.0
C231 C 0.06819 0.37664 0.31642 0.0
C232 C 0.17111 0.35217 0.37734 0.0
C233 C 0.07843 0.42667 0.45138 0.0
O234 O 0.10368 0.38102 0.33828 0.0
O235 O 0.02914 0.35965 0.33654 0.0
O236 O 0.12174 0.35205 0.47441 0.0
O237 O 0.06016 0.32836 0.43098 0.0
Co238 Co 0.6319 0.74626 0.43136 0.0
O239 O 0.69694 0.79228 0.41018 0.0
O240 O 0.64318 0.8045 0.4008 0.0
C241 C 0.67695 0.77329 0.5029 0.0
O242 O 0.61732 0.68508 0.46196 0.0
Co243 Co 0.71622 0.73343 0.43429 0.0
O244 O 0.67587 0.67256 0.46055 0.0
C245 C 0.66026 0.71116 0.3441 0.0
C246 C 0.68448 0.81873 0.39191 0.0
C247 C 0.63476 0.65978 0.47041 0.0
O248 O 0.63211 0.7199 0.36575 0.0
O249 O 0.69714 0.71712 0.36355 0.0
O250 O 0.63892 0.77167 0.49832 0.0
O251 O 0.69194 0.77018 0.46048 0.0
C252 C 0.05415 0.6565 0.09229 0.0
C253 C 0.03399 0.67767 0.11857 0.0
C254 C 0.06929 0.74146 0.06143 0.0
C255 C 0.09166 0.72123 0.03777 0.0
N256 N 0.1193 0.66908 0.04548 0.0
N257 N 0.0354 0.74784 0.13664 0.0
C258 C 0.08872 0.68189 0.05796 0.0
C259 C 0.04511 0.72239 0.10566 0.0
N260 N 0.0392 0.61166 0.09841 0.0
N261 N 0.07137 0.77904 0.04178 0.0
H262 H 0.02084 0.73698 0.17109 0.0
H263 H 0.04664 0.78184 0.1306 0.0
H264 H 0.09184 0.79586 0.01173 0.0
H265 H 0.05127 0.79205 0.05403 0.0
H266 H 0.05092 0.59434 0.07711 0.0
H267 H 1.01148 0.5908 0.12037 0.0
H268 H 0.12024 0.64238 0.06254 0.0
H269 H 0.14745 0.68894 0.0238 0.0
C270 C 0.26053 0.2728 0.04202 0.0
C271 C 0.27093 0.31824 0.0384 0.0
C272 C 0.3131 0.33642 0.11584 0.0
C273 C 0.30672 0.29215 0.11634 0.0
N274 N 0.28059 0.22027 0.07699 0.0
N275 N 0.31075 0.39489 0.0695 0.0
C276 C 0.28223 0.26093 0.07849 0.0
C277 C 0.29787 0.35046 0.07479 0.0
N278 N 0.22861 0.24076 0.01149 0.0
N279 N 0.33177 0.3646 0.15544 0.0
H280 H 0.29848 0.40694 0.04211 0.0
H281 H 0.33582 0.4205 0.09099 0.0
H282 H 0.34689 0.35802 0.18496 0.0
H283 H 0.33005 0.39382 0.16053 0.0
H284 H 0.21643 0.20634 0.01525 0.0
H285 H 0.21079 0.2482 0.98551 0.0
H286 H 0.26698 0.19774 0.04764 0.0
H287 H 0.29681 0.21095 0.10308 0.0
C288 C 0.77558 0.03504 0.10977 0.0
C289 C 0.81346 0.03258 0.1276 0.0
C290 C 0.83339 0.0271 0.04173 0.0
C291 C 0.8003 0.03787 0.02545 0.0
N292 N 0.74845 0.06387 0.04557 0.0
N293 N 0.87691 0.02185 0.1091 0.0
C294 C 0.77475 0.04634 0.06021 0.0
C295 C 0.84241 0.02798 0.09312 0.0
N296 N 0.7383 0.02265 0.13827 0.0
N297 N 0.85361 0.01258 0.0088 0.0
H298 H 0.87858 0.01166 0.14465 0.0
H299 H 0.90351 0.02618 0.08663 0.0
H300 H 0.84822 0.01132 0.97105 0.0
H301 H 0.87348 0.99875 0.01902 0.0
H302 H 0.70972 0.02324 0.12577 0.0
H303 H 0.73235 1.00412 0.17034 0.0
H304 H 0.73167 0.07362 0.07042 0.0
H305 H 0.74762 0.07309 0.00923 0.0
C306 C 0.71268 0.99435 0.43779 0.0
C307 C 0.69418 0.01873 0.46034 0.0
C308 C 0.73003 0.07683 0.39681 0.0
C309 C 0.75285 0.05473 0.37874 0.0
N310 N 0.77806 1.00173 0.39637 0.0
N311 N 0.69542 0.09001 0.46755 0.0
C312 C 0.74801 0.01634 0.40352 0.0
C313 C 0.70533 0.06189 0.44155 0.0
N314 N 0.69619 0.9499 0.4485 0.0
N315 N 0.73261 0.11251 0.37185 0.0
H316 H 0.67974 0.08208 0.50171 0.0
H317 H 0.70704 0.12333 0.45746 0.0
H318 H 0.75336 0.12655 0.34123 0.0
H319 H 0.71246 0.12653 0.38024 0.0
H320 H 0.70666 0.93008 0.42987 0.0
H321 H 0.66849 0.93186 0.47166 0.0
H322 H 0.7774 0.97594 0.41718 0.0
H323 H 0.8074 0.01971 0.37582 0.0
C324 C 0.94501 0.62639 0.44188 0.0
C325 C 0.97731 0.61234 0.44768 0.0
C326 C 0.96144 0.58114 0.36429 0.0
C327 C 0.93261 0.59936 0.357 0.0
N328 N 0.88008 0.61707 0.39603 0.0
N329 N 0.02148 0.5821 0.41321 0.0
C330 C 0.91926 0.61543 0.398 0.0
C331 C 0.9868 0.59097 0.40865 0.0
N332 N 0.94059 0.65223 0.47731 0.0
N333 N 0.96164 0.5516 0.3307 0.0
H334 H 0.04115 0.58982 0.44505 0.0
H335 H 0.03311 0.57068 0.38432 0.0
H336 H 0.93899 0.5395 0.30117 0.0
H337 H 0.97934 0.53445 0.33563 0.0
H338 H 0.92076 0.66723 0.47284 0.0
H339 H 0.96046 0.66257 0.5091 0.0
H340 H 0.86672 0.62522 0.42615 0.0
H341 H 0.8577 0.60396 0.3663 0.0
C342 C 0.41407 0.34553 0.42788 0.0
C343 C 0.39883 0.37618 0.43905 0.0
C344 C 0.3936 0.38868 0.35161 0.0
C345 C 0.41114 0.35979 0.34082 0.0
N346 N 0.44904 0.32047 0.36785 0.0
N347 N 0.3833 0.43422 0.41287 0.0
C348 C 0.42516 0.34159 0.37887 0.0
C349 C 0.39146 0.40012 0.40131 0.0
N350 N 0.41558 0.31836 0.46363 0.0
N351 N 0.37657 0.40304 0.31488 0.0
H352 H 0.38116 0.4432 0.44899 0.0
H353 H 0.38241 0.45592 0.38679 0.0
H354 H 0.37856 0.39655 0.27783 0.0
H355 H 0.35788 0.41898 0.32142 0.0
H356 H 0.42221 0.29236 0.45644 0.0
H357 H 0.40564 0.31859 0.49978 0.0
H358 H 0.46377 0.31002 0.39443 0.0
H359 H 0.45807 0.31771 0.33192 0.0
C360 C 0.97496 0.39634 0.8488 0.0
C361 C 0.93321 0.35809 0.83523 0.0
C362 C 0.91059 0.34188 0.92128 0.0
C363 C 0.95373 0.37841 0.93511 0.0
N364 N 0.02207 0.44709 0.91332 0.0
N365 N 0.8569 0.30195 0.85506 0.0
C366 C 0.98418 0.408 0.89915 0.0
C367 C 0.89938 0.33357 0.87054 0.0
N368 N 1.00706 0.41938 0.81378 0.0
N369 N 0.8818 0.31349 0.95629 0.0
H370 H 0.84851 0.29578 0.81783 0.0
H371 H 0.82929 0.28492 0.87839 0.0
H372 H 0.88863 0.31877 -0.0062 0.0
H373 H 0.85219 0.28336 0.94834 0.0
H374 H 0.04058 0.44344 0.82171 0.0
H375 H 1.00063 0.41292 0.77628 0.0
H376 H 0.04292 0.47253 0.88912 0.0
H377 H 0.03082 0.45578 0.95 0.0
C378 C 0.7328 0.71045 0.9383 0.0
C379 C 0.70488 0.66694 0.95827 0.0
C380 C 0.72811 0.6353 0.89069 0.0
C381 C 0.76005 0.67958 0.87535 0.0
N382 N 0.80392 0.75834 0.89889 0.0
N383 N 0.6856 0.58813 0.95867 0.0
C384 C 0.76625 0.71687 0.90378 0.0
C385 C 0.7049 0.62912 0.93596 0.0
N386 N 0.72634 0.74551 0.95047 0.0
N387 N 0.7204 0.59906 0.8625 0.0
H388 H 0.67021 0.58157 -0.00711 0.0
H389 H 0.68922 0.56146 0.94578 0.0
H390 H 0.73968 0.60199 0.83153 0.0
H391 H 0.6935 0.56655 0.8687 0.0
H392 H 0.74414 0.77696 0.9336 0.0
H393 H 0.69938 0.7414 0.97227 0.0
H394 H 0.8105 0.78512 0.92234 0.0
H395 H 0.83112 0.76439 0.87664 0.0
C396 C 0.41137 0.0234 0.89703 0.0
C397 C 0.409 0.0483 0.93752 0.0
C398 C 0.42117 0.10969 0.88301 0.0
C399 C 0.41488 0.0814 0.84234 0.0
N400 N 0.42936 0.02433 0.81065 0.0
N401 N 0.41106 0.11489 0.97016 0.0
C402 C 0.41752 0.04187 0.84906 0.0
C403 C 0.4146 0.09181 0.93096 0.0
N404 N 0.40607 0.9816 0.90432 0.0
N405 N 0.43517 0.15414 0.87532 0.0
H406 H 0.40557 0.10252 0.00593 0.0
H407 H 0.40998 0.14458 0.96687 0.0
H408 H 0.44298 0.16821 0.84024 0.0
H409 H 0.44412 0.17782 0.90344 0.0
H410 H 0.40237 0.95965 0.87585 0.0
H411 H 0.40252 0.96769 0.93918 0.0
H412 H 0.43439 0.9969 0.81362 0.0
H413 H 0.4407 0.04148 0.77751 0.0
C414 C 0.34624 0.04465 0.55456 0.0
C415 C 0.32097 0.01685 0.59436 0.0
C416 C 0.25779 0.96914 0.53951 0.0
C417 C 0.28502 0.99367 0.49929 0.0
N418 N 0.34905 0.06089 0.46739 0.0
N419 N 0.25349 0.95301 0.62667 0.0
C420 C 0.32722 0.03378 0.50654 0.0
C421 C 0.27654 0.97957 0.58754 0.0
N422 N 0.3895 0.07943 0.56249 0.0
N423 N 0.21401 0.93583 0.53094 0.0
H424 H 0.26664 0.9595 0.66227 0.0
H425 H 0.22251 0.92316 0.62398 0.0
H426 H 0.19995 0.92874 0.49565 0.0
H427 H 0.19064 0.91781 0.55828 0.0
H428 H 0.41168 0.09886 0.53488 0.0
H429 H 0.40465 0.08749 0.59719 0.0
H430 H 0.37839 0.09225 0.47015 0.0
H431 H 0.33571 0.05384 0.43194 0.0
C432 C 0.04439 0.34409 0.60449 0.0
C433 C 1.00011 0.30613 0.60698 0.0
C434 C 1.00789 0.28344 0.52392 0.0
C435 C 0.05123 0.32302 0.51997 0.0
N436 N 0.10551 0.39671 0.55385 0.0
N437 N 0.93535 0.2465 0.56571 0.0
C438 C 0.06808 0.35495 0.55943 0.0
C439 C 0.98047 0.27797 0.56551 0.0
N440 N 0.06489 0.36922 0.64563 0.0
N441 N 0.99389 0.24983 0.48957 0.0
H442 H 0.91447 0.24363 0.59508 0.0
H443 H 0.91794 0.22722 0.53508 0.0
H444 H 1.01387 0.2512 0.45996 0.0
H445 H 0.96455 0.21853 0.49328 0.0
H446 H 0.0996 0.39214 0.64794 0.0
H447 H 0.04798 0.36571 0.67845 0.0
H448 H 0.115 0.42277 0.57925 0.0
H449 H 0.12495 0.40759 0.52233 0.0
C450 C 0.73736 0.77669 0.56066 0.0
C451 C 0.69087 0.76118 0.55015 0.0
C452 C 0.66973 0.70559 0.61565 0.0
C453 C 0.71549 0.72544 0.6313 0.0
N454 N 0.79144 0.79079 0.6253 0.0
N455 N 0.61427 0.72245 0.58483 0.0
C456 C 0.74926 0.76386 0.60553 0.0
C457 C 0.65734 0.72927 0.58268 0.0
N458 N 0.77056 0.80508 0.52926 0.0
N459 N 0.63781 0.66381 0.63173 0.0
H460 H 0.60427 0.7436 0.56905 0.0
H461 H 0.5905 0.70064 0.61015 0.0
H462 H 0.64606 0.64353 0.65272 0.0
H463 H 0.60463 0.64699 0.61821 0.0
H464 H 0.80415 0.81265 0.53262 0.0
H465 H 0.76431 0.81923 0.4987 0.0
H466 H 0.81532 0.82119 0.60948 0.0
H467 H 0.80098 0.78656 0.66027 0.0
C468 C 0.34628 0.41465 0.76612 0.0
C469 C 0.34668 0.37867 0.79175 0.0
C470 C 0.40019 0.3793 0.73204 0.0
C471 C 0.39353 0.40946 0.70198 0.0
N472 N 0.35486 0.45135 0.68797 0.0
N473 N 0.36412 0.31849 0.78989 0.0
C474 C 0.36414 0.42501 0.7178 0.0
C475 C 0.37071 0.35856 0.77193 0.0
N476 N 0.33324 0.44191 0.78891 0.0
N477 N 0.43369 0.36941 0.72292 0.0
H478 H 0.33781 0.29853 0.81389 0.0
H479 H 0.38053 0.30209 0.77617 0.0
H480 H 0.45565 0.38124 0.69334 0.0
H481 H 0.44247 0.35204 0.74786 0.0
H482 H 0.3364 0.47081 0.77264 0.0
H483 H 0.32517 0.43976 0.82599 0.0
H484 H 0.32975 0.45924 0.69606 0.0
H485 H 0.36996 0.46282 0.6538 0.0
C486 C 0.64077 0.94341 0.71246 0.0
C487 C 0.61777 0.96805 0.70735 0.0
C488 C 0.65438 0.01054 0.78235 0.0
C489 C 0.67848 0.98706 0.7862 0.0
N490 N 0.70252 0.93865 0.75064 0.0
N491 N 0.58801 0.00966 0.7496 0.0
C492 C 0.67408 0.95583 0.7497 0.0
C493 C 0.62052 0.99768 0.74552 0.0
N494 N 0.62793 0.90587 0.68417 0.0
N495 N 0.6636 0.0447 0.81464 0.0
H496 H 0.55826 0.99433 0.72881 0.0
H497 H 0.58665 0.02897 0.77842 0.0
H498 H 0.68869 0.05485 0.8416 0.0
H499 H 0.64996 0.06579 0.8116 0.0
H500 H 0.64078 0.88423 0.68862 0.0
H501 H 0.60011 0.89325 0.66037 0.0
H502 H 0.70389 0.9183 0.72302 0.0
H503 H 0.72806 0.94894 0.77704 0.0
C504 C 0.12907 0.65403 0.75478 0.0
C505 C 0.11419 0.6803 0.78118 0.0
C506 C 0.04356 0.64423 0.73322 0.0
C507 C 0.06182 0.62467 0.70126 0.0
N508 N 0.12331 0.61224 0.68051 0.0
N509 N 0.0616 0.70769 0.78576 0.0
C510 C 0.10543 0.63077 0.71119 0.0
C511 C 0.07265 0.67744 0.76743 0.0
N512 N 0.16253 0.6473 0.77321 0.0
N513 N 0.9985 0.63101 0.73181 0.0
H514 H 0.08534 0.73671 0.80393 0.0
H515 H 0.03155 0.70724 0.77779 0.0
H516 H 0.97529 0.60618 0.7083 0.0
H517 H 0.98311 0.64123 0.75789 0.0
H518 H 0.17133 0.62502 0.75749 0.0
H519 H 0.17776 0.65897 0.80731 0.0
H520 H 0.15714 0.62033 0.68207 0.0
H521 H 0.10451 0.59013 0.65227 0.0
C522 C 0.64738 0.71448 0.25469 0.0
C523 C 0.64691 0.68926 0.29568 0.0
C524 C 0.61709 0.6212 0.24482 0.0
C525 C 0.6146 0.64617 0.20398 0.0
N526 N 0.61155 0.71195 0.17752 0.0
N527 N 0.6232 0.61719 0.33309 0.0
C528 C 0.62508 0.6915 0.2111 0.0
C529 C 0.62889 0.64211 0.29183 0.0
N530 N 0.67009 0.76048 0.25695 0.0
N531 N 0.61204 0.57921 0.23904 0.0
H532 H 0.63474 0.63157 0.36769 0.0
H533 H 0.60401 0.58209 0.3337 0.0
H534 H 0.60846 0.56306 0.20572 0.0
H535 H 0.61815 0.56235 0.2671 0.0
H536 H 0.67486 0.78063 0.22641 0.0
H537 H 0.6881 0.77831 0.28814 0.0
H538 H 0.61545 0.74379 0.18321 0.0
H539 H 0.59105 0.69486 0.14739 0.0
C540 C 0.4054 0.98848 0.23301 0.0
C541 C 0.38542 0.96805 0.18723 0.0
C542 C 0.31546 0.91638 0.23059 0.0
C543 C 0.33889 0.93191 0.27577 0.0
N544 N 0.41145 0.97298 0.31741 0.0
N545 N 0.32336 0.90441 0.14464 0.0
C546 C 0.3855 0.96483 0.27629 0.0
C547 C 0.34076 0.92974 0.18629 0.0
N548 N 0.44176 0.03133 0.23597 0.0
N549 N 0.26946 0.8891 0.22985 0.0
H550 H 0.34176 0.91014 0.11239 0.0
H551 H 0.2924 0.87425 0.14402 0.0
H552 H 0.25023 0.87939 0.26187 0.0
H553 H 0.25041 0.87993 0.19751 0.0
H554 H 0.45482 0.04769 0.26947 0.0
H555 H 0.45392 0.05311 0.20612 0.0
H556 H 0.44649 0.99483 0.31763 0.0
H557 H 0.3994 0.95328 0.34864 0.0
C558 C 0.07811 0.44312 0.26949 0.0
C559 C 0.07412 0.39991 0.26906 0.0
C560 C 0.07173 0.40027 0.17957 0.0
C561 C 0.05999 0.43439 0.18181 0.0
N562 N 0.06275 0.49614 0.22697 0.0
N563 N 0.07136 0.33847 0.22297 0.0
C564 C 0.06712 0.45868 0.22625 0.0
C565 C 0.07272 0.3789 0.22379 0.0
N566 N 0.09333 0.46935 0.31077 0.0
N567 N 0.08473 0.39057 0.13618 0.0
H568 H 0.07342 0.32284 0.25492 0.0
H569 H 0.06578 0.31973 0.19083 0.0
H570 H 0.09099 0.41101 0.10556 0.0
H571 H 0.09587 0.36738 0.13299 0.0
H572 H 0.10005 0.50249 0.31246 0.0
H573 H 0.10351 0.45923 0.34206 0.0
H574 H 0.06172 0.51212 0.25915 0.0
H575 H 0.05936 0.51065 0.19476 0.0
C576 C 0.11701 0.79841 0.37685 0.0
C577 C 0.15798 0.80924 0.35206 0.0
C578 C 0.11328 0.75791 0.28497 0.0
C579 C 0.07237 0.74422 0.31117 0.0
N580 N 0.03587 0.74623 0.38587 0.0
N581 N 0.19506 0.79095 0.28874 0.0
C582 C 0.07439 0.76302 0.35832 0.0
C583 C 0.15597 0.78624 0.30806 0.0
N584 N 0.11886 0.82256 0.41765 0.0
N585 N 0.11123 0.74438 0.23732 0.0
H586 H 0.22648 0.81024 0.30599 0.0
H587 H 0.19573 0.77216 0.25894 0.0
H588 H 0.08052 0.72474 0.219 0.0
H589 H 0.13949 0.75644 0.21462 0.0
H590 H 0.09022 0.82002 0.43439 0.0
H591 H 0.14954 0.84674 0.43343 0.0
H592 H 0.03576 0.75472 0.42262 0.0
H593 H 1.00418 0.72172 0.37246 0.0
C594 C 0.2172 0.29959 0.28766 0.0
C595 C 0.24839 0.29376 0.3171 0.0
C596 C 0.23096 0.32888 0.387 0.0
C597 C 0.20286 0.3381 0.35603 0.0
N598 N 0.17488 0.33844 0.27499 0.0
N599 N 0.28798 0.30596 0.3938 0.0
C600 C 0.19767 0.32515 0.30581 0.0
C601 C 0.25597 0.30912 0.36666 0.0
N602 N 0.20517 0.27932 0.24248 0.0
N603 N 0.23289 0.3381 0.43609 0.0
H604 H 0.30563 0.29063 0.38039 0.0
H605 H 0.29857 0.32017 0.42855 0.0
H606 H 0.2166 0.35409 0.45148 0.0
H607 H 0.24856 0.32806 0.4619 0.0
H608 H 0.17948 0.27833 0.22085 0.0
H609 H 0.21774 0.25932 0.22871 0.0
H610 H 0.17366 0.3343 0.23702 0.0
H611 H 0.16074 0.35763 0.2869 0.0
C612 C 0.72461 0.90978 0.2909 0.0
C613 C 0.77137 0.93762 0.3034 0.0
C614 C 0.76014 0.88867 0.37411 0.0
C615 C 0.71392 0.85993 0.36146 0.0
N616 N 0.6552 0.83775 0.29961 0.0
N617 N 0.83523 0.93765 0.34278 0.0
C618 C 0.69681 0.86912 0.31772 0.0
C619 C 0.78974 0.92215 0.34049 0.0
N620 N 0.70682 0.92092 0.2521 0.0
N621 N 0.77562 0.8861 0.41952 0.0
H622 H 0.85746 0.95683 0.31499 0.0
H623 H 0.84941 0.92519 0.36778 0.0
H624 H 0.75402 0.86531 0.44689 0.0
H625 H 0.80829 0.909 0.43187 0.0
H626 H 0.67212 0.90775 0.24687 0.0
H627 H 0.72684 0.94272 0.22448 0.0
H628 H 0.64286 0.84026 0.26548 0.0
H629 H 0.63464 0.80648 0.31572 0.0
C630 C 0.89134 0.23068 0.21363 0.0
C631 C 0.87083 0.1916 0.18308 0.0
C632 C 0.90103 0.2399 0.11004 0.0
C633 C 0.92483 0.27844 0.14066 0.0
N634 N 0.94756 0.31043 0.22172 0.0
N635 N 0.86393 0.15863 0.10278 0.0
C636 C 0.92129 0.27383 0.19256 0.0
C637 C 0.87763 0.19616 0.13138 0.0
N638 N 0.88091 0.22684 0.26246 0.0
N639 N 0.90021 0.24515 0.06035 0.0
H640 H 0.84844 0.12621 0.11716 0.0
H641 H 0.87202 0.15976 0.06576 0.0
H642 H 0.91748 0.27653 0.04329 0.0
H643 H 0.87929 0.21902 0.0365 0.0
H644 H 0.89091 0.25442 0.28576 0.0
H645 H 0.85911 0.19601 0.27901 0.0
H646 H 0.95086 0.30843 0.25951 0.0
H647 H 0.96857 0.34261 0.20758 0.0
C648 C 0.75769 0.634 0.19647 0.0
C649 C 0.74332 0.62224 0.1467 0.0
C650 C 0.81504 0.62263 0.13021 0.0
C651 C 0.83137 0.63996 0.17827 0.0
N652 N 0.81856 0.66409 0.25687 0.0
N653 N 0.76069 0.60916 0.06486 0.0
C654 C 0.80268 0.64607 0.21127 0.0
C655 C 0.77242 0.6169 0.11337 0.0
N656 N 0.7276 0.63327 0.2299 0.0
N657 N 0.84045 0.61189 0.10038 0.0
H658 H 0.72951 0.60347 0.05183 0.0
H659 H 0.78255 0.61071 0.0373 0.0
H660 H 0.87279 0.61825 0.11005 0.0
H661 H 0.82853 0.59436 0.06736 0.0
H662 H 0.73308 0.63652 0.26768 0.0
H663 H 0.69508 0.62531 0.21964 0.0
H664 H 0.8019 0.67494 0.2804 0.0
H665 H 0.85008 0.67113 0.2704 0.0
C666 C 0.40321 0.18918 0.13504 0.0
C667 C 0.38853 0.18898 0.18421 0.0
C668 C 0.39174 0.11961 0.1984 0.0
C669 C 0.41138 0.1231 0.15107 0.0
N670 N 0.44595 0.169 0.07984 0.0
N671 N 0.3788 0.15839 0.26582 0.0
C672 C 0.42084 0.16071 0.12151 0.0
C673 C 0.38573 0.15548 0.21689 0.0
N674 N 0.39752 0.2144 0.1 0.0
N675 N 0.37733 0.08131 0.22529 0.0
H676 H 0.3751 0.18434 0.28087 0.0
H677 H 0.38103 0.13746 0.29197 0.0
H678 H 0.38144 0.05469 0.21352 0.0
H679 H 0.35829 0.07465 0.25727 0.0
H680 H 0.40366 0.21251 0.06282 0.0
H681 H 0.38126 0.23274 0.10691 0.0
H682 H 0.45698 0.19812 0.05904 0.0
H683 H 0.45992 0.14936 0.0692 0.0
C684 C 0.78087 0.1217 0.62251 0.0
C685 C 0.7391 0.10918 0.64628 0.0
C686 C 0.78081 0.17015 0.70674 0.0
C687 C 0.82281 0.1796 0.68533 0.0
N688 N 0.86271 0.15733 0.62971 0.0
N689 N 0.69948 0.11811 0.71432 0.0
C690 C 0.82271 0.15311 0.64533 0.0
C691 C 0.73909 0.13259 0.68935 0.0
N692 N 0.78033 0.10389 0.57736 0.0
N693 N 0.78089 0.19752 0.74337 0.0
H694 H 0.66844 0.09223 0.70111 0.0
H695 H 0.69767 0.13022 0.74886 0.0
H696 H 0.81084 0.22329 0.75886 0.0
H697 H 0.75159 0.19595 0.75692 0.0
H698 H 0.8092 0.11456 0.55593 0.0
H699 H 0.75017 0.08183 0.55915 0.0
H700 H 0.86469 0.13626 0.60341 0.0
H701 H 0.8936 0.17895 0.64689 0.0
C702 C 0.96164 0.70829 0.67543 0.0
C703 C 0.94514 0.67192 0.64072 0.0
C704 C 0.86975 0.66619 0.6434 0.0
C705 C 0.88575 0.70138 0.67927 0.0
N706 N 0.94886 0.76082 0.7238 0.0
N707 N 0.88602 0.62347 0.58373 0.0
C708 C 0.93245 0.72431 0.69296 0.0
C709 C 0.89978 0.65271 0.62279 0.0
N710 N 1.00465 0.72599 0.69392 0.0
N711 N 0.82537 0.64564 0.62857 0.0
H712 H 0.90628 0.61253 0.56717 0.0
H713 H 0.85579 0.61257 0.56462 0.0
H714 H 0.80429 0.6588 0.63615 0.0
H715 H 0.80893 0.61506 0.60967 0.0
H716 H 0.01873 0.75094 0.72076 0.0
H717 H 0.02617 0.71368 0.68531 0.0
H718 H 0.98313 0.78314 0.73014 0.0
H719 H 0.9285 0.77101 0.7415 0.0
C720 C 0.34953 0.21874 0.70104 0.0
C721 C 0.36726 0.19355 0.67876 0.0
C722 C 0.4085 0.25556 0.61932 0.0
C723 C 0.38693 0.27864 0.6384 0.0
N724 N 0.32832 0.27547 0.69227 0.0
N725 N 0.40442 0.18339 0.60856 0.0
C726 C 0.35472 0.25806 0.67742 0.0
C727 C 0.39458 0.21087 0.63588 0.0
N728 N 0.32978 0.20678 0.74635 0.0
N729 N 0.44125 0.27534 0.58424 0.0
H730 H 0.39184 0.14957 0.61701 0.0
H731 H 0.4202 0.19228 0.57444 0.0
H732 H 0.45039 0.30637 0.5685 0.0
H733 H 0.46171 0.26236 0.57329 0.0
H734 H 0.31886 0.22563 0.76603 0.0
H735 H 0.32844 0.18064 0.76702 0.0
H736 H 0.29947 0.25744 0.7138 0.0
H737 H 0.33373 0.30703 0.68238 0.0
C738 C 0.25718 0.94302 0.8592 0.0
C739 C 0.25239 0.95457 0.81034 0.0
C740 C 0.18676 0.87849 0.7982 0.0
C741 C 0.19158 0.86647 0.84707 0.0
N742 N 0.22421 0.89133 0.92773 0.0
N743 N 0.20452 0.93847 0.73963 0.0
C744 C 0.22464 0.90007 0.87874 0.0
C745 C 0.21417 0.92404 0.78218 0.0
N746 N 0.29384 0.97294 0.8864 0.0
N747 N 0.15857 0.84587 0.76567 0.0
H748 H 0.22379 0.97172 0.72772 0.0
H749 H 0.17498 0.91912 0.71927 0.0
H750 H 0.13966 0.81182 0.77462 0.0
H751 H 0.15736 0.8518 0.72836 0.0
H752 H 0.3032 0.96489 0.9196 0.0
H753 H 0.31592 1.00573 0.87441 0.0
H754 H 0.24468 0.91557 0.95358 0.0
H755 H 0.20039 0.86076 0.94335 0.0
C756 C 0.09624 0.29041 0.79841 0.0
C757 C 0.06622 0.30458 0.81599 0.0
C758 C 0.12392 0.35275 0.878 0.0
C759 C 0.15526 0.34129 0.85767 0.0
N760 N 0.17389 0.30609 0.79208 0.0
N761 N 0.05299 0.3531 0.86908 0.0
C762 C 0.14197 0.31183 0.81619 0.0
C763 C 0.08063 0.33698 0.85477 0.0
N764 N 0.08101 0.25631 0.76454 0.0
N765 N 0.13461 0.37702 0.92075 0.0
H766 H 0.0201 0.34012 0.85545 0.0
H767 H 0.0633 0.38064 0.89254 0.0
H768 H 0.16588 0.38949 0.93834 0.0
H769 H 0.11154 0.38223 0.9406 0.0
H770 H 0.09942 0.24097 0.75395 0.0
H771 H 0.04815 0.24049 0.75018 0.0
H772 H 0.16786 0.28889 0.75883 0.0
H773 H 0.20797 0.32259 0.80259 0.0
C774 C 0.79338 0.84809 0.84544 0.0
C775 C 0.76018 0.81645 0.81277 0.0
C776 C 0.71335 0.8521 0.82521 0.0
C777 C 0.74556 0.88257 0.85964 0.0
N778 N 0.81315 0.90628 0.90775 0.0
N779 N 0.69615 0.79701 0.76023 0.0
C780 C 0.78489 0.87972 0.87096 0.0
C781 C 0.7222 0.82095 0.79963 0.0
N782 N 0.83386 0.84934 0.85011 0.0
N783 N 0.6739 0.85246 0.81744 0.0
H784 H 0.70365 0.77622 0.73903 0.0
H785 H 0.6705 0.80128 0.7451 0.0
H786 H 0.6665 0.87509 0.83483 0.0
H787 H 0.64679 0.82822 0.79684 0.0
H788 H 0.86133 0.87372 0.87016 0.0
H789 H 0.8415 0.82819 0.82984 0.0
H790 H 0.84016 0.9035 0.92144 0.0
H791 H 0.80702 0.92866 0.92783 0.0
C792 C 0.58932 0.55442 0.55251 0.0
C793 C 0.54799 0.52477 0.52838 0.0
C794 C 0.56382 0.5825 0.46579 0.0
C795 C 0.60544 0.6128 0.48994 0.0
N796 N 0.66253 0.62278 0.55015 0.0
N797 N 0.50228 0.50535 0.45528 0.0
C798 C 0.61986 0.5971 0.53105 0.0
C799 C 0.53721 0.53739 0.483 0.0
N800 N 0.59824 0.54302 0.59753 0.0
N801 N 0.54949 0.5964 0.42605 0.0
H802 H 0.48342 0.47175 0.46608 0.0
H803 H 0.49505 0.51056 0.41955 0.0
H804 H 0.56944 0.6268 0.40806 0.0
H805 H 0.51671 0.57838 0.41181 0.0
H806 H 0.62478 0.56536 0.62019 0.0
H807 H 0.57731 0.51178 0.61372 0.0
H808 H 0.6769 0.6103 0.57481 0.0
H809 H 0.6846 0.65614 0.54055 0.0
C810 C 0.48023 0.94193 0.47798 0.0
C811 C 0.49274 0.96955 0.52088 0.0
C812 C 0.41536 0.95871 0.52364 0.0
C813 C 0.40225 0.92894 0.48255 0.0
N814 N 0.42004 0.88684 0.42506 0.0
N815 N 0.47004 0.99862 0.58908 0.0
C816 C 0.4341 0.91883 0.4613 0.0
C817 C 0.4597 0.97653 0.54489 0.0
N818 N 0.51311 0.93942 0.4518 0.0
N819 N 0.38554 0.97064 0.54185 0.0
H820 H 0.50208 0.0127 0.60528 0.0
H821 H 0.44622 1.00042 0.61139 0.0
H822 H 0.35214 0.95623 0.52927 0.0
H823 H 0.39444 0.99615 0.56772 0.0
H824 H 0.50754 0.92375 0.41764 0.0
H825 H 0.54728 0.95682 0.46202 0.0
H826 H 0.44 0.87435 0.41108 0.0
H827 H 0.38672 0.8697 0.41197 0.0
C828 C 0.04291 0.47488 0.44916 0.0
C829 C 0.07977 0.47002 0.46596 0.0
C830 C 0.09577 0.52907 0.52813 0.0
C831 C 0.05218 0.52409 0.51955 0.0
N832 N 0.98518 0.49364 0.46811 0.0
N833 N 0.14651 0.49879 0.51643 0.0
C834 C 0.02641 0.49787 0.47854 0.0
C835 C 0.1082 0.49947 0.50366 0.0
N836 N 0.02337 0.45696 0.40468 0.0
N837 N 0.1254 0.56254 0.55871 0.0
H838 H 0.15837 0.48121 0.49578 0.0
H839 H 0.16596 0.51494 0.54741 0.0
H840 H 0.11813 0.58629 0.57328 0.0
H841 H 0.15858 0.56995 0.56496 0.0
H842 H 0.99999 0.46356 0.3875 0.0
H843 H 0.03392 0.43899 0.38278 0.0
H844 H 0.96189 0.46972 0.44368 0.0
H845 H 0.97344 0.51317 0.48483 0.0
C846 C 0.41421 0.49419 0.01593 0.0
C847 C 0.40917 0.47037 0.97185 0.0
C848 C 0.49313 0.50771 0.96626 0.0
C849 C 0.49737 0.52456 0.01494 0.0
N850 N 0.46037 0.53037 0.08802 0.0
N851 N 0.44383 0.45744 0.90178 0.0
C852 C 0.45747 0.51735 0.04003 0.0
C853 C 0.44888 0.47863 0.94584 0.0
N854 N 0.3776 0.49535 0.03412 0.0
N855 N 0.53131 0.52062 0.93896 0.0
H856 H 0.41242 0.43995 0.88411 0.0
H857 H 0.47002 0.45635 0.88343 0.0
H858 H 0.56396 0.54163 0.95267 0.0
H859 H 0.53079 0.51336 0.90175 0.0
H860 H 0.37925 0.515 0.06418 0.0
H861 H 0.34673 0.4804 0.01518 0.0
H862 H 0.43207 0.52201 0.10963 0.0
H863 H 0.49075 0.5457 0.10778 0.0
C864 C 0.60421 0.98986 0.03831 0.0
C865 C 0.60393 0.98245 0.98692 0.0
C866 C 0.54451 1.00299 0.97618 0.0
C867 C 0.54686 0.01317 0.02711 0.0
N868 N 0.581 0.02001 0.10643 0.0
N869 N 0.57487 0.98282 0.90618 0.0
C870 C 0.57732 0.00759 0.05812 0.0
C871 C 0.57418 0.98915 0.95577 0.0
N872 N 0.62986 0.97943 0.06816 0.0
N873 N 0.51313 1.00589 0.94736 0.0
H874 H 0.59214 0.96808 0.89035 0.0
H875 H 0.55957 0.99324 0.88033 0.0
H876 H 0.49362 0.01949 0.95988 0.0
H877 H 0.50495 0.99343 0.91165 0.0
H878 H 0.62815 0.97912 0.1063 0.0
H879 H 0.65062 0.96764 0.05465 0.0
H880 H 0.60536 0.02115 0.1304 0.0
H881 H 0.56141 0.03234 0.12202 0.0
C882 C 0.05002 0.57796 0.94567 0.0
C883 C 0.09823 0.60424 0.94921 0.0
C884 C 0.09687 0.55319 0.01365 0.0
C885 C 0.04885 0.52775 0.01138 0.0
N886 N 0.98122 0.50769 0.96408 0.0
N887 N 0.16571 0.60085 0.96892 0.0
C888 C 0.02574 0.53797 0.97442 0.0
C889 C 0.12122 0.58704 0.97778 0.0
N890 N 0.02718 0.59001 0.91357 0.0
N891 N 0.11953 0.54654 0.05113 0.0
H892 H 0.18298 0.62031 0.93859 0.0
H893 H 0.18303 0.58704 0.98663 0.0
H894 H 0.10311 0.52304 0.0789 0.0
H895 H 0.15419 0.56758 0.05728 0.0
H896 H 0.99249 0.57816 0.91595 0.0
H897 H 0.04274 0.61098 0.88366 0.0
H898 H 0.96365 0.51063 0.93435 0.0
H899 H 0.96285 0.47679 0.98175 0.0
loop_
_geom_bond_atom_site_label_1
_geom_bond_atom_site_label_2
_geom_bond_distance
_geom_bond_site_symmetry_2
_ccdc_geom_bond_type
Co0 O1 2.216 1_455 S
Co0 O2 2.091 1_455 S
Co0 O4 2.004 . S
Co0 O10 2.021 . S
Co0 O12 2.137 1_455 S
Co0 O13 2.244 . S
O1 Co0 2.216 1_655 S
O1 C8 1.247 . S
O2 Co0 2.091 1_655 S
O2 C8 1.261 . S
C3 O12 1.247 . S
C3 O13 1.272 1_655 S
O4 Co0 2.004 . S
O4 C9 1.259 . S
Co5 O6 2.061 . S
Co5 O11 2.052 . S
Co5 O13 2.135 . S
O6 Co5 2.061 . S
O6 C9 1.235 . S
C7 O10 1.238 . S
C7 O11 1.241 . S
C8 O1 1.247 . S
C8 O2 1.261 . S
C9 O4 1.259 . S
C9 O6 1.235 . S
O10 Co0 2.021 . S
O10 C7 1.238 . S
O11 Co5 2.052 . S
O11 C7 1.241 . S
O12 Co0 2.137 1_655 S
O12 C3 1.247 . S
O13 Co0 2.244 . S
O13 C3 1.272 1_455 S
O13 Co5 2.135 . S
Co14 O15 2.216 . S
Co14 O16 2.091 . S
Co14 O18 2.004 . S
Co14 O24 2.021 . S
Co14 O26 2.137 . S
Co14 O27 2.244 . S
O15 Co14 2.216 . S
O15 C22 1.247 . S
O16 Co14 2.091 . S
O16 C22 1.261 . S
C17 O26 1.247 . S
C17 O27 1.272 . S
O18 Co14 2.004 . S
O18 C23 1.259 . S
Co19 O20 2.061 . S
Co19 O25 2.052 . S
Co19 O27 2.135 . S
O20 Co19 2.061 . S
O20 C23 1.235 . S
C21 O24 1.238 . S
C21 O25 1.241 . S
C22 O15 1.247 . S
C22 O16 1.261 . S
C23 O18 1.259 . S
C23 O20 1.235 . S
O24 Co14 2.021 . S
O24 C21 1.238 . S
O25 Co19 2.052 . S
O25 C21 1.241 . S
O26 Co14 2.137 . S
O26 C17 1.247 . S
O27 Co14 2.244 . S
O27 C17 1.272 . S
O27 Co19 2.135 . S
Co28 O29 2.224 . S
Co28 O30 2.101 . S
Co28 O32 1.999 1_565 S
Co28 O38 2.015 1_565 S
Co28 O40 2.141 . S
Co28 O41 2.238 1_565 S
O29 Co28 2.224 . S
O29 C36 1.247 . S
O30 Co28 2.101 . S
O30 C36 1.261 . S
C31 O40 1.247 . S
C31 O41 1.272 1_565 S
O32 Co28 1.999 1_545 S
O32 C37 1.259 . S
Co33 O34 2.061 . S
Co33 O39 2.052 . S
Co33 O41 2.135 . S
O34 Co33 2.061 . S
O34 C37 1.235 . S
C35 O38 1.238 . S
C35 O39 1.241 . S
C36 O29 1.247 . S
C36 O30 1.261 . S
C37 O32 1.259 . S
C37 O34 1.235 . S
O38 Co28 2.015 1_545 S
O38 C35 1.238 . S
O39 Co33 2.052 . S
O39 C35 1.241 . S
O40 Co28 2.141 . S
O40 C31 1.247 . S
O41 Co28 2.238 1_545 S
O41 C31 1.272 1_545 S
O41 Co33 2.135 . S
Co42 O43 2.216 . S
Co42 O44 2.091 . S
Co42 O46 2.004 1_455 S
Co42 O52 2.021 1_455 S
Co42 O54 2.137 . S
Co42 O55 2.244 . S
O43 Co42 2.216 . S
O43 C50 1.247 . S
O44 Co42 2.091 . S
O44 C50 1.261 . S
C45 O54 1.247 . S
C45 O55 1.272 . S
O46 Co42 2.004 1_655 S
O46 C51 1.259 . S
Co47 O48 2.061 . S
Co47 O53 2.052 . S
Co47 O55 2.135 1_655 S
O48 Co47 2.061 . S
O48 C51 1.235 . S
C49 O52 1.238 . S
C49 O53 1.241 . S
C50 O43 1.247 . S
C50 O44 1.261 . S
C51 O46 1.259 . S
C51 O48 1.235 . S
O52 Co42 2.021 1_655 S
O52 C49 1.238 . S
O53 Co47 2.052 . S
O53 C49 1.241 . S
O54 Co42 2.137 . S
O54 C45 1.247 . S
O55 Co42 2.244 . S
O55 C45 1.272 . S
O55 Co47 2.135 1_455 S
Co56 O57 2.216 . S
Co56 O58 2.091 . S
Co56 O60 2.004 . S
Co56 O66 2.021 . S
Co56 O68 2.137 . S
Co56 O69 2.244 . S
O57 Co56 2.216 . S
O57 C64 1.247 . S
O58 Co56 2.091 . S
O58 C64 1.261 . S
C59 O68 1.247 . S
C59 O69 1.272 . S
O60 Co56 2.004 . S
O60 C65 1.259 . S
Co61 O62 2.061 . S
Co61 O67 2.052 . S
Co61 O69 2.135 . S
O62 Co61 2.061 . S
O62 C65 1.235 . S
C63 O66 1.238 . S
C63 O67 1.241 . S
C64 O57 1.247 . S
C64 O58 1.261 . S
C65 O60 1.259 . S
C65 O62 1.235 . S
O66 Co56 2.021 . S
O66 C63 1.238 . S
O67 Co61 2.052 . S
O67 C63 1.241 . S
O68 Co56 2.137 . S
O68 C59 1.247 . S
O69 Co56 2.244 . S
O69 C59 1.272 . S
O69 Co61 2.135 . S
Co70 O71 2.216 . S
Co70 O72 2.091 . S
Co70 O74 2.004 1_545 S
Co70 O80 2.021 1_545 S
Co70 O82 2.137 . S
Co70 O83 2.244 . S
O71 Co70 2.216 . S
O71 C78 1.247 . S
O72 Co70 2.091 . S
O72 C78 1.261 . S
C73 O82 1.247 . S
C73 O83 1.272 . S
O74 Co70 2.004 1_565 S
O74 C79 1.259 . S
Co75 O76 2.061 . S
Co75 O81 2.052 . S
Co75 O83 2.135 1_565 S
O76 Co75 2.061 . S
O76 C79 1.235 . S
C77 O80 1.238 . S
C77 O81 1.241 . S
C78 O71 1.247 . S
C78 O72 1.261 . S
C79 O74 1.259 . S
C79 O76 1.235 . S
O80 Co70 2.021 1_565 S
O80 C77 1.238 . S
O81 Co75 2.052 . S
O81 C77 1.241 . S
O82 Co70 2.137 . S
O82 C73 1.247 . S
O83 Co70 2.244 . S
O83 C73 1.272 . S
O83 Co75 2.135 1_545 S
Co84 O85 2.216 . S
Co84 O86 2.091 . S
Co84 O88 2.004 . S
Co84 O94 2.021 . S
Co84 O96 2.137 . S
Co84 O97 2.244 . S
O85 Co84 2.216 . S
O85 C92 1.247 . S
O86 Co84 2.091 . S
O86 C92 1.261 . S
C87 O96 1.247 . S
C87 O97 1.272 . S
O88 Co84 2.004 . S
O88 C93 1.259 . S
Co89 O90 2.061 . S
Co89 O95 2.052 . S
Co89 O97 2.135 . S
O90 Co89 2.061 . S
O90 C93 1.235 . S
C91 O94 1.238 . S
C91 O95 1.241 . S
C92 O85 1.247 . S
C92 O86 1.261 . S
C93 O88 1.259 . S
C93 O90 1.235 . S
O94 Co84 2.021 . S
O94 C91 1.238 . S
O95 Co89 2.052 . S
O95 C91 1.241 . S
O96 Co84 2.137 . S
O96 C87 1.247 . S
O97 Co84 2.244 . S
O97 C87 1.272 . S
O97 Co89 2.135 . S
Co98 O99 2.216 . S
Co98 O100 2.091 . S
Co98 O102 2.004 . S
Co98 O108 2.021 . S
Co98 O110 2.137 . S
Co98 O111 2.244 . S
O99 Co98 2.216 . S
O99 C106 1.247 . S
O100 Co98 2.091 . S
O100 C106 1.261 . S
C101 O110 1.247 . S
C101 O111 1.272 . S
O102 Co98 2.004 . S
O102 C107 1.259 . S
Co103 O104 2.061 . S
Co103 O109 2.052 . S
Co103 O111 2.135 . S
O104 Co103 2.061 . S
O104 C107 1.235 . S
C105 O108 1.238 . S
C105 O109 1.241 . S
C106 O99 1.247 . S
C106 O100 1.261 . S
C107 O102 1.259 . S
C107 O104 1.235 . S
O108 Co98 2.021 . S
O108 C105 1.238 . S
O109 Co103 2.052 . S
O109 C105 1.241 . S
O110 Co98 2.137 . S
O110 C101 1.247 . S
O111 Co98 2.244 . S
O111 C101 1.272 . S
O111 Co103 2.135 . S
Co112 O113 2.216 . S
Co112 O114 2.091 . S
Co112 O116 2.004 . S
Co112 O122 2.021 . S
Co112 O124 2.137 . S
Co112 O125 2.244 . S
O113 Co112 2.216 . S
O113 C120 1.247 . S
O114 Co112 2.091 . S
O114 C120 1.261 . S
C115 O124 1.247 . S
C115 O125 1.272 . S
O116 Co112 2.004 . S
O116 C121 1.259 . S
Co117 O118 2.061 . S
Co117 O123 2.052 . S
Co117 O125 2.135 . S
O118 Co117 2.061 . S
O118 C121 1.235 . S
C119 O122 1.238 . S
C119 O123 1.241 . S
C120 O113 1.247 . S
C120 O114 1.261 . S
C121 O116 1.259 . S
C121 O118 1.235 . S
O122 Co112 2.021 . S
O122 C119 1.238 . S
O123 Co117 2.052 . S
O123 C119 1.241 . S
O124 Co112 2.137 . S
O124 C115 1.247 . S
O125 Co112 2.244 . S
O125 C115 1.272 . S
O125 Co117 2.135 . S
Co126 O127 2.216 . S
Co126 O128 2.091 . S
Co126 O130 2.004 . S
Co126 O136 2.021 . S
Co126 O138 2.137 . S
Co126 O139 2.244 . S
O127 Co126 2.216 . S
O127 C134 1.247 . S
O128 Co126 2.091 . S
O128 C134 1.261 . S
C129 O138 1.247 . S
C129 O139 1.272 . S
O130 Co126 2.004 . S
O130 C135 1.259 . S
Co131 O132 2.061 . S
Co131 O137 2.052 . S
Co131 O139 2.135 . S
O132 Co131 2.061 . S
O132 C135 1.235 . S
C133 O136 1.238 . S
C133 O137 1.241 . S
C134 O127 1.247 . S
C134 O128 1.261 . S
C135 O130 1.259 . S
C135 O132 1.235 . S
O136 Co126 2.021 . S
O136 C133 1.238 . S
O137 Co131 2.052 . S
O137 C133 1.241 . S
O138 Co126 2.137 . S
O138 C129 1.247 . S
O139 Co126 2.244 . S
O139 C129 1.272 . S
O139 Co131 2.135 . S
Co140 O141 2.216 . S
Co140 O142 2.091 . S
Co140 O144 2.004 . S
Co140 O150 2.021 . S
Co140 O152 2.137 . S
Co140 O153 2.244 . S
O141 Co140 2.216 . S
O141 C148 1.247 . S
O142 Co140 2.091 . S
O142 C148 1.261 . S
C143 O152 1.247 . S
C143 O153 1.272 . S
O144 Co140 2.004 . S
O144 C149 1.259 . S
Co145 O146 2.061 . S
Co145 O151 2.052 . S
Co145 O153 2.135 . S
O146 Co145 2.061 . S
O146 C149 1.235 . S
C147 O150 1.238 . S
C147 O151 1.241 . S
C148 O141 1.247 . S
C148 O142 1.261 . S
C149 O144 1.259 . S
C149 O146 1.235 . S
O150 Co140 2.021 . S
O150 C147 1.238 . S
O151 Co145 2.052 . S
O151 C147 1.241 . S
O152 Co140 2.137 . S
O152 C143 1.247 . S
O153 Co140 2.244 . S
O153 C143 1.272 . S
O153 Co145 2.135 . S
Co154 O155 2.216 . S
Co154 O156 2.091 . S
Co154 O158 2.004 . S
Co154 O164 2.021 . S
Co154 O166 2.137 . S
Co154 O167 2.244 . S
O155 Co154 2.216 . S
O155 C162 1.247 . S
O156 Co154 2.091 . S
O156 C162 1.261 . S
C157 O166 1.247 . S
C157 O167 1.272 . S
O158 Co154 2.004 . S
O158 C163 1.259 . S
Co159 O160 2.061 . S
Co159 O165 2.052 . S
Co159 O167 2.135 . S
O160 Co159 2.061 . S
O160 C163 1.235 . S
C161 O164 1.238 . S
C161 O165 1.241 . S
C162 O155 1.247 . S
C162 O156 1.261 . S
C163 O158 1.259 . S
C163 O160 1.235 . S
O164 Co154 2.021 . S
O164 C161 1.238 . S
O165 Co159 2.052 . S
O165 C161 1.241 . S
O166 Co154 2.137 . S
O166 C157 1.247 . S
O167 Co154 2.244 . S
O167 C157 1.272 . S
O167 Co159 2.135 . S
Co168 O169 2.216 . S
Co168 O170 2.091 . S
Co168 O172 2.004 . S
Co168 O178 2.021 . S
Co168 O180 2.137 . S
Co168 O181 2.244 . S
O169 Co168 2.216 . S
O169 C176 1.247 . S
O170 Co168 2.091 . S
O170 C176 1.261 . S
C171 O180 1.247 . S
C171 O181 1.272 . S
O172 Co168 2.004 . S
O172 C177 1.259 . S
Co173 O174 2.061 . S
Co173 O179 2.052 . S
Co173 O181 2.135 . S
O174 Co173 2.061 . S
O174 C177 1.235 . S
C175 O178 1.238 . S
C175 O179 1.241 . S
C176 O169 1.247 . S
C176 O170 1.261 . S
C177 O172 1.259 . S
C177 O174 1.235 . S
O178 Co168 2.021 . S
O178 C175 1.238 . S
O179 Co173 2.052 . S
O179 C175 1.241 . S
O180 Co168 2.137 . S
O180 C171 1.247 . S
O181 Co168 2.244 . S
O181 C171 1.272 . S
O181 Co173 2.135 . S
Co182 O183 2.216 . S
Co182 O184 2.091 . S
Co182 O186 2.004 . S
Co182 O192 2.021 . S
Co182 O194 2.137 . S
Co182 O195 2.244 . S
O183 Co182 2.216 . S
O183 C190 1.247 . S
O184 Co182 2.091 . S
O184 C190 1.261 . S
C185 O194 1.247 . S
C185 O195 1.272 . S
O186 Co182 2.004 . S
O186 C191 1.259 . S
Co187 O188 2.061 . S
Co187 O193 2.052 . S
Co187 O195 2.135 . S
O188 Co187 2.061 . S
O188 C191 1.235 . S
C189 O192 1.238 . S
C189 O193 1.241 . S
C190 O183 1.247 . S
C190 O184 1.261 . S
C191 O186 1.259 . S
C191 O188 1.235 . S
O192 Co182 2.021 . S
O192 C189 1.238 . S
O193 Co187 2.052 . S
O193 C189 1.241 . S
O194 Co182 2.137 . S
O194 C185 1.247 . S
O195 Co182 2.244 . S
O195 C185 1.272 . S
O195 Co187 2.135 . S
Co196 O197 2.216 . S
Co196 O198 2.091 . S
Co196 O200 2.004 . S
Co196 O206 2.021 . S
Co196 O208 2.137 . S
Co196 O209 2.244 . S
O197 Co196 2.216 . S
O197 C204 1.247 . S
O198 Co196 2.091 . S
O198 C204 1.261 . S
C199 O208 1.247 . S
C199 O209 1.272 . S
O200 Co196 2.004 . S
O200 C205 1.259 . S
Co201 O202 2.061 . S
Co201 O207 2.052 . S
Co201 O209 2.135 . S
O202 Co201 2.061 . S
O202 C205 1.235 . S
C203 O206 1.238 . S
C203 O207 1.241 . S
C204 O197 1.247 . S
C204 O198 1.261 . S
C205 O200 1.259 . S
C205 O202 1.235 . S
O206 Co196 2.021 . S
O206 C203 1.238 . S
O207 Co201 2.052 . S
O207 C203 1.241 . S
O208 Co196 2.137 . S
O208 C199 1.247 . S
O209 Co196 2.244 . S
O209 C199 1.272 . S
O209 Co201 2.135 . S
Co210 O211 2.216 . S
Co210 O212 2.091 . S
Co210 O214 2.004 . S
Co210 O220 2.021 . S
Co210 O222 2.137 . S
Co210 O223 2.244 . S
O211 Co210 2.216 . S
O211 C218 1.247 . S
O212 Co210 2.091 . S
O212 C218 1.261 . S
C213 O222 1.247 . S
C213 O223 1.272 . S
O214 Co210 2.004 . S
O214 C219 1.259 . S
Co215 O216 2.061 . S
Co215 O221 2.052 . S
Co215 O223 2.135 . S
O216 Co215 2.061 . S
O216 C219 1.235 . S
C217 O220 1.238 . S
C217 O221 1.241 . S
C218 O211 1.247 . S
C218 O212 1.261 . S
C219 O214 1.259 . S
C219 O216 1.235 . S
O220 Co210 2.021 . S
O220 C217 1.238 . S
O221 Co215 2.052 . S
O221 C217 1.241 . S
O222 Co210 2.137 . S
O222 C213 1.247 . S
O223 Co210 2.244 . S
O223 C213 1.272 . S
O223 Co215 2.135 . S
Co224 O225 2.216 . S
Co224 O226 2.091 . S
Co224 O228 2.004 . S
Co224 O234 2.021 . S
Co224 O236 2.137 . S
Co224 O237 2.244 . S
O225 Co224 2.216 . S
O225 C232 1.247 . S
O226 Co224 2.091 . S
O226 C232 1.261 . S
C227 O236 1.247 . S
C227 O237 1.272 . S
O228 Co224 2.004 . S
O228 C233 1.259 . S
Co229 O230 2.061 1_655 S
Co229 O235 2.052 1_655 S
Co229 O237 2.135 1_655 S
O230 Co229 2.061 1_455 S
O230 C233 1.235 . S
C231 O234 1.238 . S
C231 O235 1.241 . S
C232 O225 1.247 . S
C232 O226 1.261 . S
C233 O228 1.259 . S
C233 O230 1.235 . S
O234 Co224 2.021 . S
O234 C231 1.238 . S
O235 Co229 2.052 1_455 S
O235 C231 1.241 . S
O236 Co224 2.137 . S
O236 C227 1.247 . S
O237 Co224 2.244 . S
O237 C227 1.272 . S
O237 Co229 2.135 1_455 S
Co238 O239 2.216 . S
Co238 O240 2.091 . S
Co238 O242 2.004 . S
Co238 O248 2.021 . S
Co238 O250 2.137 . S
Co238 O251 2.244 . S
O239 Co238 2.216 . S
O239 C246 1.247 . S
O240 Co238 2.091 . S
O240 C246 1.261 . S
C241 O250 1.247 . S
C241 O251 1.272 . S
O242 Co238 2.004 . S
O242 C247 1.259 . S
Co243 O244 2.061 . S
Co243 O249 2.052 . S
Co243 O251 2.135 . S
O244 Co243 2.061 . S
O244 C247 1.235 . S
C245 O248 1.238 . S
C245 O249 1.241 . S
C246 O239 1.247 . S
C246 O240 1.261 . S
C247 O242 1.259 . S
C247 O244 1.235 . S
O248 Co238 2.021 . S
O248 C245 1.238 . S
O249 Co243 2.052 . S
O249 C245 1.241 . S
O250 Co238 2.137 . S
O250 C241 1.247 . S
O251 Co238 2.244 . S
O251 C241 1.272 . S
O251 Co243 2.135 . S
C252 C253 1.363 . S
C252 C258 1.379 . S
C252 N260 1.356 . S
C253 C252 1.363 . S
C253 C259 1.363 . S
C254 C255 1.363 . S
C254 C259 1.379 . S
C254 N261 1.356 1_554 S
C255 C254 1.363 . S
C255 C258 1.363 . S
N256 C258 1.356 . S
N256 H268 0.984 . S
N256 H269 0.985 . S
N257 C259 1.356 . S
N257 H262 0.984 . S
N257 H263 0.985 . S
C258 C252 1.379 . S
C258 C255 1.363 . S
C258 N256 1.356 . S
C259 C253 1.363 . S
C259 C254 1.379 . S
C259 N257 1.356 . S
N260 C252 1.356 . S
N260 H266 0.984 . S
N260 H267 0.984 . S
N261 C254 1.356 1_556 S
N261 H264 0.984 . S
N261 H265 0.985 . S
H262 N257 0.984 . S
H263 N257 0.985 . S
H264 N261 0.984 . S
H265 N261 0.985 . S
H266 N260 0.984 . S
H267 N260 0.984 . S
H268 N256 0.984 . S
H269 N256 0.985 . S
C270 C271 1.363 . S
C270 C276 1.379 . S
C270 N278 1.375 . S
C271 C270 1.363 . S
C271 C277 1.363 . S
C272 C273 1.363 . S
C272 C277 1.379 . S
C272 N279 1.356 . S
C273 C272 1.363 . S
C273 C276 1.363 . S
N274 C276 1.356 . S
N274 H286 0.984 . S
N274 H287 0.985 . S
N275 C277 1.356 . S
N275 H280 0.984 . S
N275 H281 0.985 . S
C276 C270 1.379 . S
C276 C273 1.363 . S
C276 N274 1.356 . S
C277 C271 1.363 . S
C277 C272 1.379 . S
C277 N275 1.356 . S
N278 C270 1.375 . S
N278 H284 0.982 1_554 S
N278 H285 0.969 1_554 S
N279 C272 1.356 . S
N279 H282 0.984 . S
N279 H283 0.985 . S
H280 N275 0.984 . S
H281 N275 0.985 . S
H282 N279 0.984 . S
H283 N279 0.985 . S
H284 N278 0.982 1_556 S
H285 N278 0.969 1_556 S
H286 N274 0.984 . S
H287 N274 0.985 . S
C288 C289 1.363 1_545 S
C288 C294 1.379 1_545 S
C288 N296 1.356 . S
C289 C288 1.363 1_565 S
C289 C295 1.363 . S
C290 C291 1.363 . S
C290 C295 1.379 . S
C290 N297 1.356 . S
C291 C290 1.363 . S
C291 C294 1.363 . S
N292 C294 1.356 1_545 S
N292 H304 0.984 . S
N292 H305 0.985 1_544 S
N293 C295 1.356 . S
N293 H298 0.984 . S
N293 H299 0.985 . S
C294 C288 1.379 1_565 S
C294 C291 1.363 . S
C294 N292 1.356 1_565 S
C295 C289 1.363 . S
C295 C290 1.379 . S
C295 N293 1.356 . S
N296 C288 1.356 . S
N296 H302 0.984 . S
N296 H303 0.984 . S
N297 C290 1.356 . S
N297 H300 0.984 1_554 S
N297 H301 0.985 . S
H298 N293 0.984 . S
H299 N293 0.985 . S
H300 N297 0.984 1_556 S
H301 N297 0.985 . S
H302 N296 0.984 . S
H303 N296 0.984 . S
H304 N292 0.984 . S
H305 N292 0.985 1_566 S
C306 C307 1.363 . S
C306 C312 1.379 . S
C306 N314 1.356 . S
C307 C306 1.363 . S
C307 C313 1.363 . S
C308 C309 1.363 . S
C308 C313 1.379 . S
C308 N315 1.356 . S
C309 C308 1.363 . S
C309 C312 1.363 . S
N310 C312 1.356 1_565 S
N310 H322 0.984 . S
N310 H323 0.985 . S
N311 C313 1.356 . S
N311 H316 0.984 . S
N311 H317 0.985 . S
C312 C306 1.379 . S
C312 C309 1.363 . S
C312 N310 1.356 1_545 S
C313 C307 1.363 . S
C313 C308 1.379 . S
C313 N311 1.356 . S
N314 C306 1.356 . S
N314 H320 0.984 1_545 S
N314 H321 0.984 . S
N315 C308 1.356 . S
N315 H318 0.984 . S
N315 H319 0.985 . S
H316 N311 0.984 . S
H317 N311 0.985 . S
H318 N315 0.984 . S
H319 N315 0.985 . S
H320 N314 0.984 1_565 S
H321 N314 0.984 . S
H322 N310 0.984 . S
H323 N310 0.985 . S
C324 C325 1.363 . S
C324 C330 1.379 . S
C324 N332 1.356 . S
C325 C324 1.363 . S
C325 C331 1.363 . S
C326 C327 1.363 . S
C326 C331 1.379 . S
C326 N333 1.356 . S
C327 C326 1.363 . S
C327 C330 1.363 . S
N328 C330 1.356 . S
N328 H340 0.984 . S
N328 H341 0.985 . S
N329 C331 1.356 . S
N329 H334 0.984 . S
N329 H335 0.985 . S
C330 C324 1.379 . S
C330 C327 1.363 . S
C330 N328 1.356 . S
C331 C325 1.363 . S
C331 C326 1.379 . S
C331 N329 1.356 . S
N332 C324 1.356 . S
N332 H338 0.984 . S
N332 H339 0.984 . S
N333 C326 1.356 . S
N333 H336 0.984 . S
N333 H337 0.985 . S
H334 N329 0.984 . S
H335 N329 0.985 . S
H336 N333 0.984 . S
H337 N333 0.985 . S
H338 N332 0.984 . S
H339 N332 0.984 . S
H340 N328 0.984 . S
H341 N328 0.985 . S
C342 C343 1.363 . S
C342 C348 1.379 . S
C342 N350 1.356 . S
C343 C342 1.363 . S
C343 C349 1.363 . S
C344 C345 1.363 . S
C344 C349 1.379 . S
C344 N351 1.356 . S
C345 C344 1.363 . S
C345 C348 1.363 . S
N346 C348 1.356 . S
N346 H358 0.984 . S
N346 H359 0.985 . S
N347 C349 1.356 . S
N347 H352 0.984 . S
N347 H353 0.985 . S
C348 C342 1.379 . S
C348 C345 1.363 . S
C348 N346 1.356 . S
C349 C343 1.363 . S
C349 C344 1.379 . S
C349 N347 1.356 . S
N350 C342 1.356 . S
N350 H356 0.984 . S
N350 H357 0.984 . S
N351 C344 1.356 . S
N351 H354 0.984 . S
N351 H355 0.985 . S
H352 N347 0.984 . S
H353 N347 0.985 . S
H354 N351 0.984 . S
H355 N351 0.985 . S
H356 N350 0.984 . S
H357 N350 0.984 . S
H358 N346 0.984 . S
H359 N346 0.985 . S
C360 C361 1.363 1_455 S
C360 C366 1.379 1_455 S
C360 N368 1.356 . S
C361 C360 1.363 1_655 S
C361 C367 1.363 . S
C362 C363 1.363 . S
C362 C367 1.379 . S
C362 N369 1.356 . S
C363 C362 1.363 . S
C363 C366 1.363 . S
N364 C366 1.356 1_455 S
N364 H376 0.984 . S
N364 H377 0.985 1_456 S
N365 C367 1.356 . S
N365 H370 0.984 . S
N365 H371 0.985 . S
C366 C360 1.379 1_655 S
C366 C363 1.363 . S
C366 N364 1.356 1_655 S
C367 C361 1.363 . S
C367 C362 1.379 . S
C367 N365 1.356 . S
N368 C360 1.356 . S
N368 H374 0.984 . S
N368 H375 0.984 . S
N369 C362 1.356 . S
N369 H372 0.984 1_556 S
N369 H373 0.985 . S
H370 N365 0.984 . S
H371 N365 0.985 . S
H372 N369 0.984 1_554 S
H373 N369 0.985 . S
H374 N368 0.984 . S
H375 N368 0.984 . S
H376 N364 0.984 . S
H377 N364 0.985 1_654 S
C378 C379 1.363 . S
C378 C384 1.379 . S
C378 N386 1.356 1_556 S
C379 C378 1.363 . S
C379 C385 1.363 . S
C380 C381 1.363 . S
C380 C385 1.379 . S
C380 N387 1.356 . S
C381 C380 1.363 . S
C381 C384 1.363 . S
N382 C384 1.356 . S
N382 H394 0.984 . S
N382 H395 0.985 . S
N383 C385 1.356 . S
N383 H388 0.984 . S
N383 H389 0.985 . S
C384 C378 1.379 . S
C384 C381 1.363 . S
C384 N382 1.356 . S
C385 C379 1.363 . S
C385 C380 1.379 . S
C385 N383 1.356 . S
N386 C378 1.356 1_554 S
N386 H392 0.984 . S
N386 H393 0.984 . S
N387 C380 1.356 . S
N387 H390 0.984 . S
N387 H391 0.985 . S
H388 N383 0.984 . S
H389 N383 0.985 . S
H390 N387 0.984 . S
H391 N387 0.985 . S
H392 N386 0.984 . S
H393 N386 0.984 . S
H394 N382 0.984 . S
H395 N382 0.985 . S
C396 C397 1.363 . S
C396 C402 1.379 . S
C396 N404 1.358 . S
C397 C396 1.363 . S
C397 C403 1.363 . S
C398 C399 1.363 . S
C398 C403 1.379 . S
C398 N405 1.356 . S
C399 C398 1.363 . S
C399 C402 1.363 . S
N400 C402 1.356 1_565 S
N400 H412 0.984 . S
N400 H413 0.985 . S
N401 C403 1.356 . S
N401 H406 0.984 1_556 S
N401 H407 0.985 . S
C402 C396 1.379 . S
C402 C399 1.363 . S
C402 N400 1.356 1_545 S
C403 C397 1.363 . S
C403 C398 1.379 . S
C403 N401 1.356 . S
N404 C396 1.358 . S
N404 H410 0.983 1_545 S
N404 H411 0.985 1_556 S
N405 C398 1.356 . S
N405 H408 0.984 . S
N405 H409 0.985 . S
H406 N401 0.984 1_554 S
H407 N401 0.985 . S
H408 N405 0.984 . S
H409 N405 0.985 . S
H410 N404 0.983 1_565 S
H411 N404 0.985 1_554 S
H412 N400 0.984 . S
H413 N400 0.985 . S
C414 C415 1.363 . S
C414 C420 1.379 . S
C414 N422 1.356 1_565 S
C415 C414 1.363 . S
C415 C421 1.363 . S
C416 C417 1.363 . S
C416 C421 1.379 . S
C416 N423 1.356 . S
C417 C416 1.363 . S
C417 C420 1.363 . S
N418 C420 1.356 . S
N418 H430 0.984 1_565 S
N418 H431 0.985 . S
N419 C421 1.356 . S
N419 H424 0.984 . S
N419 H425 0.985 . S
C420 C414 1.379 . S
C420 C417 1.363 . S
C420 N418 1.356 . S
C421 C415 1.363 . S
C421 C416 1.379 . S
C421 N419 1.356 . S
N422 C414 1.356 1_545 S
N422 H428 0.984 . S
N422 H429 0.984 . S
N423 C416 1.356 . S
N423 H426 0.984 . S
N423 H427 0.985 . S
H424 N419 0.984 . S
H425 N419 0.985 . S
H426 N423 0.984 . S
H427 N423 0.985 . S
H428 N422 0.984 . S
H429 N422 0.984 . S
H430 N418 0.984 1_545 S
H431 N418 0.985 . S
C432 C433 1.363 . S
C432 C438 1.379 . S
C432 N440 1.356 . S
C433 C432 1.363 . S
C433 C439 1.363 . S
C434 C435 1.363 . S
C434 C439 1.379 . S
C434 N441 1.356 . S
C435 C434 1.363 . S
C435 C438 1.363 . S
N436 C438 1.356 . S
N436 H448 0.984 . S
N436 H449 0.985 . S
N437 C439 1.356 . S
N437 H442 0.984 . S
N437 H443 0.985 . S
C438 C432 1.379 . S
C438 C435 1.363 . S
C438 N436 1.356 . S
C439 C433 1.363 . S
C439 C434 1.379 . S
C439 N437 1.356 . S
N440 C432 1.356 . S
N440 H446 0.984 . S
N440 H447 0.984 . S
N441 C434 1.356 . S
N441 H444 0.984 . S
N441 H445 0.985 . S
H442 N437 0.984 . S
H443 N437 0.985 . S
H444 N441 0.984 . S
H445 N441 0.985 . S
H446 N440 0.984 . S
H447 N440 0.984 . S
H448 N436 0.984 . S
H449 N436 0.985 . S
C450 C451 1.363 . S
C450 C456 1.379 . S
C450 N458 1.356 . S
C451 C450 1.363 . S
C451 C457 1.363 . S
C452 C453 1.363 . S
C452 C457 1.379 . S
C452 N459 1.356 . S
C453 C452 1.363 . S
C453 C456 1.363 . S
N454 C456 1.356 . S
N454 H466 0.984 . S
N454 H467 0.985 . S
N455 C457 1.356 . S
N455 H460 0.984 . S
N455 H461 0.985 . S
C456 C450 1.379 . S
C456 C453 1.363 . S
C456 N454 1.356 . S
C457 C451 1.363 . S
C457 C452 1.379 . S
C457 N455 1.356 . S
N458 C450 1.356 . S
N458 H464 0.984 . S
N458 H465 0.984 . S
N459 C452 1.356 . S
N459 H462 0.984 . S
N459 H463 0.985 . S
H460 N455 0.984 . S
H461 N455 0.985 . S
H462 N459 0.984 . S
H463 N459 0.985 . S
H464 N458 0.984 . S
H465 N458 0.984 . S
H466 N454 0.984 . S
H467 N454 0.985 . S
C468 C469 1.363 . S
C468 C474 1.379 . S
C468 N476 1.356 . S
C469 C468 1.363 . S
C469 C475 1.363 . S
C470 C471 1.363 . S
C470 C475 1.379 . S
C470 N477 1.356 . S
C471 C470 1.363 . S
C471 C474 1.363 . S
N472 C474 1.356 . S
N472 H484 0.984 . S
N472 H485 0.985 . S
N473 C475 1.356 . S
N473 H478 0.984 . S
N473 H479 0.985 . S
C474 C468 1.379 . S
C474 C471 1.363 . S
C474 N472 1.356 . S
C475 C469 1.363 . S
C475 C470 1.379 . S
C475 N473 1.356 . S
N476 C468 1.356 . S
N476 H482 0.984 . S
N476 H483 0.984 . S
N477 C470 1.356 . S
N477 H480 0.984 . S
N477 H481 0.985 . S
H478 N473 0.984 . S
H479 N473 0.985 . S
H480 N477 0.984 . S
H481 N477 0.985 . S
H482 N476 0.984 . S
H483 N476 0.984 . S
H484 N472 0.984 . S
H485 N472 0.985 . S
C486 C487 1.363 1_565 S
C486 C492 1.379 . S
C486 N494 1.356 . S
C487 C486 1.363 1_545 S
C487 C493 1.363 . S
C488 C489 1.363 1_545 S
C488 C493 1.379 . S
C488 N495 1.356 . S
C489 C488 1.363 1_565 S
C489 C492 1.363 . S
N490 C492 1.356 . S
N490 H502 0.984 . S
N490 H503 0.985 . S
N491 C493 1.356 . S
N491 H496 0.984 . S
N491 H497 0.985 . S
C492 C486 1.379 . S
C492 C489 1.363 . S
C492 N490 1.356 . S
C493 C487 1.363 . S
C493 C488 1.379 . S
C493 N491 1.356 . S
N494 C486 1.356 . S
N494 H500 0.984 . S
N494 H501 0.984 1_565 S
N495 C488 1.356 . S
N495 H498 0.984 . S
N495 H499 0.985 . S
H496 N491 0.984 . S
H497 N491 0.985 . S
H498 N495 0.984 . S
H499 N495 0.985 . S
H500 N494 0.984 . S
H501 N494 0.984 1_545 S
H502 N490 0.984 . S
H503 N490 0.985 . S
C504 C505 1.363 . S
C504 C510 1.379 . S
C504 N512 1.356 . S
C505 C504 1.363 . S
C505 C511 1.363 . S
C506 C507 1.363 1_455 S
C506 C511 1.379 . S
C506 N513 1.372 . S
C507 C506 1.363 1_655 S
C507 C510 1.363 1_655 S
N508 C510 1.356 1_655 S
N508 H520 0.984 . S
N508 H521 0.985 . S
N509 C511 1.356 . S
N509 H514 0.984 . S
N509 H515 0.985 . S
C510 C504 1.379 . S
C510 C507 1.363 1_455 S
C510 N508 1.356 1_455 S
C511 C505 1.363 . S
C511 C506 1.379 . S
C511 N509 1.356 . S
N512 C504 1.356 . S
N512 H518 0.984 . S
N512 H519 0.984 . S
N513 C506 1.372 . S
N513 H516 0.979 1_455 S
N513 H517 0.976 . S
H514 N509 0.984 . S
H515 N509 0.985 . S
H516 N513 0.979 1_655 S
H517 N513 0.976 . S
H518 N512 0.984 . S
H519 N512 0.984 . S
H520 N508 0.984 . S
H521 N508 0.985 . S
C522 C523 1.363 . S
C522 C528 1.379 . S
C522 N530 1.356 . S
C523 C522 1.363 . S
C523 C529 1.363 . S
C524 C525 1.363 . S
C524 C529 1.379 . S
C524 N531 1.356 . S
C525 C524 1.363 . S
C525 C528 1.363 . S
N526 C528 1.356 . S
N526 H538 0.984 . S
N526 H539 0.985 . S
N527 C529 1.356 . S
N527 H532 0.984 . S
N527 H533 0.985 . S
C528 C522 1.379 . S
C528 C525 1.363 . S
C528 N526 1.356 . S
C529 C523 1.363 . S
C529 C524 1.379 . S
C529 N527 1.356 . S
N530 C522 1.356 . S
N530 H536 0.984 . S
N530 H537 0.984 . S
N531 C524 1.356 . S
N531 H534 0.984 . S
N531 H535 0.985 . S
H532 N527 0.984 . S
H533 N527 0.985 . S
H534 N531 0.984 . S
H535 N531 0.985 . S
H536 N530 0.984 . S
H537 N530 0.984 . S
H538 N526 0.984 . S
H539 N526 0.985 . S
C540 C541 1.363 . S
C540 C546 1.379 . S
C540 N548 1.356 . S
C541 C540 1.363 . S
C541 C547 1.363 1_545 S
C542 C543 1.363 . S
C542 C547 1.379 . S
C542 N549 1.356 . S
C543 C542 1.363 . S
C543 C546 1.363 1_565 S
N544 C546 1.356 . S
N544 H556 0.984 . S
N544 H557 0.985 . S
N545 C547 1.356 . S
N545 H550 0.984 . S
N545 H551 0.985 . S
C546 C540 1.379 . S
C546 C543 1.363 1_545 S
C546 N544 1.356 . S
C547 C541 1.363 1_565 S
C547 C542 1.379 . S
C547 N545 1.356 . S
N548 C540 1.356 . S
N548 H554 0.984 . S
N548 H555 0.984 . S
N549 C542 1.356 . S
N549 H552 0.984 . S
N549 H553 0.985 . S
H550 N545 0.984 . S
H551 N545 0.985 . S
H552 N549 0.984 . S
H553 N549 0.985 . S
H554 N548 0.984 . S
H555 N548 0.984 . S
H556 N544 0.984 . S
H557 N544 0.985 . S
C558 C559 1.363 . S
C558 C564 1.379 1_455 S
C558 N566 1.356 . S
C559 C558 1.363 . S
C559 C565 1.363 . S
C560 C561 1.363 . S
C560 C565 1.379 1_655 S
C560 N567 1.356 . S
C561 C560 1.363 . S
C561 C564 1.363 . S
N562 C564 1.356 . S
N562 H574 0.984 . S
N562 H575 0.985 . S
N563 C565 1.356 . S
N563 H568 0.984 . S
N563 H569 0.985 . S
C564 C558 1.379 1_655 S
C564 C561 1.363 . S
C564 N562 1.356 . S
C565 C559 1.363 . S
C565 C560 1.379 1_455 S
C565 N563 1.356 . S
N566 C558 1.356 . S
N566 H572 0.984 . S
N566 H573 0.984 . S
N567 C560 1.356 . S
N567 H570 0.984 . S
N567 H571 0.985 . S
H568 N563 0.984 . S
H569 N563 0.985 . S
H570 N567 0.984 . S
H571 N567 0.985 . S
H572 N566 0.984 . S
H573 N566 0.984 . S
H574 N562 0.984 . S
H575 N562 0.985 . S
C576 C577 1.363 . S
C576 C582 1.379 . S
C576 N584 1.356 . S
C577 C576 1.363 . S
C577 C583 1.363 . S
C578 C579 1.363 . S
C578 C583 1.379 . S
C578 N585 1.356 . S
C579 C578 1.363 . S
C579 C582 1.363 . S
N580 C582 1.356 . S
N580 H592 0.984 . S
N580 H593 0.985 . S
N581 C583 1.356 . S
N581 H586 0.984 . S
N581 H587 0.985 . S
C582 C576 1.379 . S
C582 C579 1.363 . S
C582 N580 1.356 . S
C583 C577 1.363 . S
C583 C578 1.379 . S
C583 N581 1.356 . S
N584 C576 1.356 . S
N584 H590 0.984 . S
N584 H591 0.984 . S
N585 C578 1.356 . S
N585 H588 0.984 . S
N585 H589 0.985 . S
H586 N581 0.984 . S
H587 N581 0.985 . S
H588 N585 0.984 . S
H589 N585 0.985 . S
H590 N584 0.984 . S
H591 N584 0.984 . S
H592 N580 0.984 . S
H593 N580 0.985 . S
C594 C595 1.363 . S
C594 C600 1.379 . S
C594 N602 1.356 . S
C595 C594 1.363 . S
C595 C601 1.363 . S
C596 C597 1.363 . S
C596 C601 1.379 . S
C596 N603 1.356 . S
C597 C596 1.363 . S
C597 C600 1.363 . S
N598 C600 1.356 . S
N598 H610 0.984 . S
N598 H611 0.985 . S
N599 C601 1.356 . S
N599 H604 0.984 . S
N599 H605 0.985 . S
C600 C594 1.379 . S
C600 C597 1.363 . S
C600 N598 1.356 . S
C601 C595 1.363 . S
C601 C596 1.379 . S
C601 N599 1.356 . S
N602 C594 1.356 . S
N602 H608 0.984 . S
N602 H609 0.984 . S
N603 C596 1.356 . S
N603 H606 0.984 . S
N603 H607 0.985 . S
H604 N599 0.984 . S
H605 N599 0.985 . S
H606 N603 0.984 . S
H607 N603 0.985 . S
H608 N602 0.984 . S
H609 N602 0.984 . S
H610 N598 0.984 . S
H611 N598 0.985 . S
C612 C613 1.363 . S
C612 C618 1.379 . S
C612 N620 1.356 . S
C613 C612 1.363 . S
C613 C619 1.363 . S
C614 C615 1.363 . S
C614 C619 1.379 . S
C614 N621 1.356 . S
C615 C614 1.363 . S
C615 C618 1.363 . S
N616 C618 1.356 . S
N616 H628 0.984 . S
N616 H629 0.985 . S
N617 C619 1.356 . S
N617 H622 0.984 . S
N617 H623 0.985 . S
C618 C612 1.379 . S
C618 C615 1.363 . S
C618 N616 1.356 . S
C619 C613 1.363 . S
C619 C614 1.379 . S
C619 N617 1.356 . S
N620 C612 1.356 . S
N620 H626 0.984 . S
N620 H627 0.984 . S
N621 C614 1.356 . S
N621 H624 0.984 . S
N621 H625 0.985 . S
H622 N617 0.984 . S
H623 N617 0.985 . S
H624 N621 0.984 . S
H625 N621 0.985 . S
H626 N620 0.984 . S
H627 N620 0.984 . S
H628 N616 0.984 . S
H629 N616 0.985 . S
C630 C631 1.363 . S
C630 C636 1.379 . S
C630 N638 1.356 . S
C631 C630 1.363 . S
C631 C637 1.363 . S
C632 C633 1.363 . S
C632 C637 1.379 . S
C632 N639 1.356 . S
C633 C632 1.363 . S
C633 C636 1.363 . S
N634 C636 1.356 . S
N634 H646 0.984 . S
N634 H647 0.985 . S
N635 C637 1.356 . S
N635 H640 0.984 . S
N635 H641 0.985 . S
C636 C630 1.379 . S
C636 C633 1.363 . S
C636 N634 1.356 . S
C637 C631 1.363 . S
C637 C632 1.379 . S
C637 N635 1.356 . S
N638 C630 1.356 . S
N638 H644 0.984 . S
N638 H645 0.984 . S
N639 C632 1.356 . S
N639 H642 0.984 . S
N639 H643 0.985 . S
H640 N635 0.984 . S
H641 N635 0.985 . S
H642 N639 0.984 . S
H643 N639 0.985 . S
H644 N638 0.984 . S
H645 N638 0.984 . S
H646 N634 0.984 . S
H647 N634 0.985 . S
C648 C649 1.363 . S
C648 C654 1.379 . S
C648 N656 1.356 . S
C649 C648 1.363 . S
C649 C655 1.363 . S
C650 C651 1.363 . S
C650 C655 1.379 . S
C650 N657 1.356 . S
C651 C650 1.363 . S
C651 C654 1.363 . S
N652 C654 1.356 . S
N652 H664 0.984 . S
N652 H665 0.985 . S
N653 C655 1.356 . S
N653 H658 0.984 . S
N653 H659 0.985 . S
C654 C648 1.379 . S
C654 C651 1.363 . S
C654 N652 1.356 . S
C655 C649 1.363 . S
C655 C650 1.379 . S
C655 N653 1.356 . S
N656 C648 1.356 . S
N656 H662 0.984 . S
N656 H663 0.984 . S
N657 C650 1.356 . S
N657 H660 0.984 . S
N657 H661 0.985 . S
H658 N653 0.984 . S
H659 N653 0.985 . S
H660 N657 0.984 . S
H661 N657 0.985 . S
H662 N656 0.984 . S
H663 N656 0.984 . S
H664 N652 0.984 . S
H665 N652 0.985 . S
C666 C667 1.363 . S
C666 C672 1.379 . S
C666 N674 1.356 . S
C667 C666 1.363 . S
C667 C673 1.363 . S
C668 C669 1.363 . S
C668 C673 1.379 . S
C668 N675 1.356 . S
C669 C668 1.363 . S
C669 C672 1.363 . S
N670 C672 1.356 . S
N670 H682 0.984 . S
N670 H683 0.985 . S
N671 C673 1.356 . S
N671 H676 0.984 . S
N671 H677 0.985 . S
C672 C666 1.379 . S
C672 C669 1.363 . S
C672 N670 1.356 . S
C673 C667 1.363 . S
C673 C668 1.379 . S
C673 N671 1.356 . S
N674 C666 1.356 . S
N674 H680 0.984 . S
N674 H681 0.984 . S
N675 C668 1.356 . S
N675 H678 0.984 . S
N675 H679 0.985 . S
H676 N671 0.984 . S
H677 N671 0.985 . S
H678 N675 0.984 . S
H679 N675 0.985 . S
H680 N674 0.984 . S
H681 N674 0.984 . S
H682 N670 0.984 . S
H683 N670 0.985 . S
C684 C685 1.363 . S
C684 C690 1.379 . S
C684 N692 1.356 . S
C685 C684 1.363 . S
C685 C691 1.363 . S
C686 C687 1.363 . S
C686 C691 1.379 . S
C686 N693 1.356 . S
C687 C686 1.363 . S
C687 C690 1.363 . S
N688 C690 1.356 . S
N688 H700 0.984 . S
N688 H701 0.985 . S
N689 C691 1.356 . S
N689 H694 0.984 . S
N689 H695 0.985 . S
C690 C684 1.379 . S
C690 C687 1.363 . S
C690 N688 1.356 . S
C691 C685 1.363 . S
C691 C686 1.379 . S
C691 N689 1.356 . S
N692 C684 1.356 . S
N692 H698 0.984 . S
N692 H699 0.984 . S
N693 C686 1.356 . S
N693 H696 0.984 . S
N693 H697 0.985 . S
H694 N689 0.984 . S
H695 N689 0.985 . S
H696 N693 0.984 . S
H697 N693 0.985 . S
H698 N692 0.984 . S
H699 N692 0.984 . S
H700 N688 0.984 . S
H701 N688 0.985 . S
C702 C703 1.363 . S
C702 C708 1.379 . S
C702 N710 1.356 . S
C703 C702 1.363 . S
C703 C709 1.363 . S
C704 C705 1.363 . S
C704 C709 1.379 . S
C704 N711 1.356 . S
C705 C704 1.363 . S
C705 C708 1.363 . S
N706 C708 1.356 . S
N706 H718 0.984 . S
N706 H719 0.985 . S
N707 C709 1.356 . S
N707 H712 0.984 . S
N707 H713 0.985 . S
C708 C702 1.379 . S
C708 C705 1.363 . S
C708 N706 1.356 . S
C709 C703 1.363 . S
C709 C704 1.379 . S
C709 N707 1.356 . S
N710 C702 1.356 . S
N710 H716 0.984 . S
N710 H717 0.984 . S
N711 C704 1.356 . S
N711 H714 0.984 . S
N711 H715 0.985 . S
H712 N707 0.984 . S
H713 N707 0.985 . S
H714 N711 0.984 . S
H715 N711 0.985 . S
H716 N710 0.984 . S
H717 N710 0.984 . S
H718 N706 0.984 . S
H719 N706 0.985 . S
C720 C721 1.363 . S
C720 C726 1.379 . S
C720 N728 1.356 . S
C721 C720 1.363 . S
C721 C727 1.363 . S
C722 C723 1.363 . S
C722 C727 1.379 . S
C722 N729 1.356 . S
C723 C722 1.363 . S
C723 C726 1.363 . S
N724 C726 1.356 . S
N724 H736 0.984 . S
N724 H737 0.985 . S
N725 C727 1.356 . S
N725 H730 0.984 . S
N725 H731 0.985 . S
C726 C720 1.379 . S
C726 C723 1.363 . S
C726 N724 1.356 . S
C727 C721 1.363 . S
C727 C722 1.379 . S
C727 N725 1.356 . S
N728 C720 1.356 . S
N728 H734 0.984 . S
N728 H735 0.984 . S
N729 C722 1.356 . S
N729 H732 0.984 . S
N729 H733 0.985 . S
H730 N725 0.984 . S
H731 N725 0.985 . S
H732 N729 0.984 . S
H733 N729 0.985 . S
H734 N728 0.984 . S
H735 N728 0.984 . S
H736 N724 0.984 . S
H737 N724 0.985 . S
C738 C739 1.363 . S
C738 C744 1.379 . S
C738 N746 1.356 . S
C739 C738 1.363 . S
C739 C745 1.363 . S
C740 C741 1.363 . S
C740 C745 1.379 . S
C740 N747 1.356 . S
C741 C740 1.363 . S
C741 C744 1.363 . S
N742 C744 1.356 . S
N742 H754 0.984 . S
N742 H755 0.985 . S
N743 C745 1.356 . S
N743 H748 0.984 . S
N743 H749 0.985 . S
C744 C738 1.379 . S
C744 C741 1.363 . S
C744 N742 1.356 . S
C745 C739 1.363 . S
C745 C740 1.379 . S
C745 N743 1.356 . S
N746 C738 1.356 . S
N746 H752 0.984 . S
N746 H753 0.984 . S
N747 C740 1.356 . S
N747 H750 0.984 . S
N747 H751 0.985 . S
H748 N743 0.984 . S
H749 N743 0.985 . S
H750 N747 0.984 . S
H751 N747 0.985 . S
H752 N746 0.984 . S
H753 N746 0.984 . S
H754 N742 0.984 . S
H755 N742 0.985 . S
C756 C757 1.363 . S
C756 C762 1.379 . S
C756 N764 1.356 . S
C757 C756 1.363 . S
C757 C763 1.363 . S
C758 C759 1.363 . S
C758 C763 1.379 . S
C758 N765 1.356 . S
C759 C758 1.363 . S
C759 C762 1.363 . S
N760 C762 1.356 . S
N760 H772 0.984 . S
N760 H773 0.985 . S
N761 C763 1.356 . S
N761 H766 0.984 . S
N761 H767 0.985 . S
C762 C756 1.379 . S
C762 C759 1.363 . S
C762 N760 1.356 . S
C763 C757 1.363 . S
C763 C758 1.379 . S
C763 N761 1.356 . S
N764 C756 1.356 . S
N764 H770 0.984 . S
N764 H771 0.984 . S
N765 C758 1.356 . S
N765 H768 0.984 . S
N765 H769 0.985 . S
H766 N761 0.984 . S
H767 N761 0.985 . S
H768 N765 0.984 . S
H769 N765 0.985 . S
H770 N764 0.984 . S
H771 N764 0.984 . S
H772 N760 0.984 . S
H773 N760 0.985 . S
C774 C775 1.363 . S
C774 C780 1.379 . S
C774 N782 1.356 . S
C775 C774 1.363 . S
C775 C781 1.363 . S
C776 C777 1.363 . S
C776 C781 1.379 . S
C776 N783 1.356 . S
C777 C776 1.363 . S
C777 C780 1.363 . S
N778 C780 1.356 . S
N778 H790 0.984 . S
N778 H791 0.985 . S
N779 C781 1.356 . S
N779 H784 0.984 . S
N779 H785 0.985 . S
C780 C774 1.379 . S
C780 C777 1.363 . S
C780 N778 1.356 . S
C781 C775 1.363 . S
C781 C776 1.379 . S
C781 N779 1.356 . S
N782 C774 1.356 . S
N782 H788 0.984 . S
N782 H789 0.984 . S
N783 C776 1.356 . S
N783 H786 0.984 . S
N783 H787 0.985 . S
H784 N779 0.984 . S
H785 N779 0.985 . S
H786 N783 0.984 . S
H787 N783 0.985 . S
H788 N782 0.984 . S
H789 N782 0.984 . S
H790 N778 0.984 . S
H791 N778 0.985 . S
C792 C793 1.363 . S
C792 C798 1.379 . S
C792 N800 1.356 . S
C793 C792 1.363 . S
C793 C799 1.363 . S
C794 C795 1.363 . S
C794 C799 1.379 . S
C794 N801 1.356 . S
C795 C794 1.363 . S
C795 C798 1.363 . S
N796 C798 1.356 . S
N796 H808 0.984 . S
N796 H809 0.985 . S
N797 C799 1.356 . S
N797 H802 0.984 . S
N797 H803 0.985 . S
C798 C792 1.379 . S
C798 C795 1.363 . S
C798 N796 1.356 . S
C799 C793 1.363 . S
C799 C794 1.379 . S
C799 N797 1.356 . S
N800 C792 1.356 . S
N800 H806 0.984 . S
N800 H807 0.984 . S
N801 C794 1.356 . S
N801 H804 0.984 . S
N801 H805 0.985 . S
H802 N797 0.984 . S
H803 N797 0.985 . S
H804 N801 0.984 . S
H805 N801 0.985 . S
H806 N800 0.984 . S
H807 N800 0.984 . S
H808 N796 0.984 . S
H809 N796 0.985 . S
C810 C811 1.363 . S
C810 C816 1.379 1_545 S
C810 N818 1.356 . S
C811 C810 1.363 . S
C811 C817 1.363 . S
C812 C813 1.363 1_545 S
C812 C817 1.379 . S
C812 N819 1.356 1_545 S
C813 C812 1.363 1_565 S
C813 C816 1.363 . S
N814 C816 1.356 . S
N814 H826 0.984 . S
N814 H827 0.985 . S
N815 C817 1.356 . S
N815 H820 0.984 . S
N815 H821 0.985 . S
C816 C810 1.379 1_565 S
C816 C813 1.363 . S
C816 N814 1.356 . S
C817 C811 1.363 . S
C817 C812 1.379 . S
C817 N815 1.356 . S
N818 C810 1.356 . S
N818 H824 0.984 1_545 S
N818 H825 0.984 . S
N819 C812 1.356 1_565 S
N819 H822 0.984 . S
N819 H823 0.985 1_565 S
H820 N815 0.984 . S
H821 N815 0.985 . S
H822 N819 0.984 . S
H823 N819 0.985 1_545 S
H824 N818 0.984 1_565 S
H825 N818 0.984 . S
H826 N814 0.984 . S
H827 N814 0.985 . S
C828 C829 1.363 . S
C828 C834 1.379 1_455 S
C828 N836 1.356 . S
C829 C828 1.363 . S
C829 C835 1.363 . S
C830 C831 1.363 1_455 S
C830 C835 1.379 . S
C830 N837 1.356 . S
C831 C830 1.363 1_655 S
C831 C834 1.363 . S
N832 C834 1.356 . S
N832 H844 0.984 . S
N832 H845 0.985 . S
N833 C835 1.356 . S
N833 H838 0.984 . S
N833 H839 0.985 . S
C834 C828 1.379 1_655 S
C834 C831 1.363 . S
C834 N832 1.356 . S
C835 C829 1.363 . S
C835 C830 1.379 . S
C835 N833 1.356 . S
N836 C828 1.356 . S
N836 H842 0.984 1_455 S
N836 H843 0.984 . S
N837 C830 1.356 . S
N837 H840 0.984 1_455 S
N837 H841 0.985 . S
H838 N833 0.984 . S
H839 N833 0.985 . S
H840 N837 0.984 1_655 S
H841 N837 0.985 . S
H842 N836 0.984 1_655 S
H843 N836 0.984 . S
H844 N832 0.984 . S
H845 N832 0.985 . S
C846 C847 1.363 1_554 S
C846 C852 1.379 . S
C846 N854 1.356 . S
C847 C846 1.363 1_556 S
C847 C853 1.363 . S
C848 C849 1.363 1_556 S
C848 C853 1.379 . S
C848 N855 1.356 . S
C849 C848 1.363 1_554 S
C849 C852 1.363 . S
N850 C852 1.356 . S
N850 H862 0.984 . S
N850 H863 0.985 . S
N851 C853 1.356 . S
N851 H856 0.984 . S
N851 H857 0.985 . S
C852 C846 1.379 . S
C852 C849 1.363 . S
C852 N850 1.356 . S
C853 C847 1.363 . S
C853 C848 1.379 . S
C853 N851 1.356 . S
N854 C846 1.356 . S
N854 H860 0.984 . S
N854 H861 0.990 . S
N855 C848 1.356 . S
N855 H858 0.995 . S
N855 H859 0.985 . S
H856 N851 0.984 . S
H857 N851 0.985 . S
H858 N855 0.995 . S
H859 N855 0.985 . S
H860 N854 0.984 . S
H861 N854 0.990 . S
H862 N850 0.984 . S
H863 N850 0.985 . S
C864 C865 1.363 1_554 S
C864 C870 1.379 1_565 S
C864 N872 1.356 . S
C865 C864 1.363 1_556 S
C865 C871 1.363 1_565 S
C866 C867 1.363 1_556 S
C866 C871 1.379 . S
C866 N873 1.356 . S
C867 C866 1.363 1_554 S
C867 C870 1.363 . S
N868 C870 1.356 . S
N868 H880 0.984 1_545 S
N868 H881 0.985 . S
N869 C871 1.356 1_565 S
N869 H874 0.984 . S
N869 H875 0.985 1_565 S
C870 C864 1.379 1_545 S
C870 C867 1.363 . S
C870 N868 1.356 . S
C871 C865 1.363 1_545 S
C871 C866 1.379 . S
C871 N869 1.356 1_545 S
N872 C864 1.356 . S
N872 H878 0.984 . S
N872 H879 0.984 . S
N873 C866 1.356 . S
N873 H876 0.984 . S
N873 H877 0.985 . S
H874 N869 0.984 . S
H875 N869 0.985 1_545 S
H876 N873 0.984 . S
H877 N873 0.985 . S
H878 N872 0.984 . S
H879 N872 0.984 . S
H880 N868 0.984 1_565 S
H881 N868 0.985 . S
C882 C883 1.363 . S
C882 C888 1.379 1_455 S
C882 N890 1.356 . S
C883 C882 1.363 . S
C883 C889 1.363 1_556 S
C884 C885 1.363 1_455 S
C884 C889 1.379 . S
C884 N891 1.354 . S
C885 C884 1.363 1_655 S
C885 C888 1.363 1_554 S
N886 C888 1.356 . S
N886 H898 0.984 . S
N886 H899 0.985 . S
N887 C889 1.356 . S
N887 H892 0.984 . S
N887 H893 0.985 . S
C888 C882 1.379 1_655 S
C888 C885 1.363 1_556 S
C888 N886 1.356 . S
C889 C883 1.363 1_554 S
C889 C884 1.379 . S
C889 N887 1.356 . S
N890 C882 1.356 . S
N890 H896 0.984 . S
N890 H897 0.984 . S
N891 C884 1.354 . S
N891 H894 0.963 1_455 S
N891 H895 1.009 . S
H892 N887 0.984 . S
H893 N887 0.985 . S
H894 N891 0.963 1_655 S
H895 N891 1.009 . S
H896 N890 0.984 . S
H897 N890 0.984 . S
H898 N886 0.984 . S
H899 N886 0.985 . S
C253 C7 1.257 . S
C255 C203 1.257 1_554 S
C271 C171 1.225 1_554 S
C273 C17 1.225 . S
C289 C31 1.245 . S
C291 C189 1.239 1_554 S
C307 C91 1.253 . S
C309 C35 1.254 . S
C325 C105 1.239 . S
C327 C3 1.247 . S
C343 C119 1.253 . S
C345 C21 1.254 . S
C361 C49 1.256 . S
C363 C161 1.256 1_556 S
C379 C133 1.244 1_556 S
C381 C59 1.252 . S
C397 C147 1.242 1_556 S
C399 C73 1.249 . S
C415 C77 1.257 . S
C417 C217 1.257 . S
C433 C45 1.225 . S
C435 C227 1.225 . S
C451 C241 1.245 . S
C453 C63 1.238 . S
C469 C175 1.236 . S
C471 C115 1.243 . S
C487 C87 1.231 . S
C489 C185 1.231 . S
C505 C199 1.228 . S
C507 C101 1.227 . S
C523 C245 1.234 . S
C525 C129 1.240 . S
C541 C143 1.226 . S
C543 C213 1.226 . S
C559 C231 1.234 . S
C561 C157 1.241 . S
C577 C219 1.684 . S
C579 C9 1.680 . S
C595 C22 1.793 . S
C597 C232 1.796 . S
C613 C36 1.862 . S
C615 C246 1.865 . S
C631 C37 1.698 . S
C633 C163 1.693 . S
C649 C135 1.695 . S
C651 C8 1.857 . S
C667 C23 1.624 . S
C669 C149 1.626 . S
C685 C93 1.643 . S
C687 C51 1.649 . S
C703 C107 1.642 . S
C705 C64 1.797 . S
C721 C78 1.885 . S
C723 C121 1.710 . S
C739 C79 1.694 . S
C741 C205 1.698 . S
C757 C50 1.814 . S
C759 C176 1.817 . S
C775 C65 1.643 . S
C777 C191 1.647 . S
C793 C120 1.865 . S
C795 C247 1.698 . S
C811 C92 1.860 . S
C813 C218 1.856 . S
C829 C233 1.624 . S
C831 C106 1.782 . S
C847 C177 1.648 . S
C849 C134 1.806 . S
C865 C190 1.794 . S
C867 C148 1.797 . S
C883 C204 1.883 . S
C885 C162 1.881 . S
