# Generated by pormake.
# Topology wjd, (6)-cn, num edge types: 1
# Building blocks:
#     Node 0, Type 0, BuildingBlock: PAMTOO_clean_sbu_0, # of connection points: 6
#     Node 1, Type 0, BuildingBlock: PAMTOO_clean_sbu_0, # of connection points: 6
#     Node 2, Type 0, BuildingBlock: PAMTOO_clean_sbu_0, # of connection points: 6
#     Node 3, Type 0, BuildingBlock: PAMTOO_clean_sbu_0, # of connection points: 6
#     Node 4, Type 0, BuildingBlock: PAMTOO_clean_sbu_0, # of connection points: 6
#     Node 5, Type 0, BuildingBlock: PAMTOO_clean_sbu_0, # of connection points: 6
#     Node 6, Type 0, BuildingBlock: PAMTOO_clean_sbu_0, # of connection points: 6
#     Node 7, Type 0, BuildingBlock: PAMTOO_clean_sbu_0, # of connection points: 6
#     Node 8, Type 0, BuildingBlock: PAMTOO_clean_sbu_0, # of connection points: 6
#     Node 9, Type 0, BuildingBlock: PAMTOO_clean_sbu_0, # of connection points: 6
#     Node 10, Type 0, BuildingBlock: PAMTOO_clean_sbu_0, # of connection points: 6
#     Node 11, Type 0, BuildingBlock: PAMTOO_clean_sbu_0, # of connection points: 6
#     Edge 12, Type (0, 0), BuildingBlock: XIVTED_clean_linker_0, # of connection points: 2
#     Edge 13, Type (0, 0), BuildingBlock: XIVTED_clean_linker_0, # of connection points: 2
#     Edge 14, Type (0, 0), BuildingBlock: XIVTED_clean_linker_0, # of connection points: 2
#     Edge 15, Type (0, 0), BuildingBlock: XIVTED_clean_linker_0, # of connection points: 2
#     Edge 16, Type (0, 0), BuildingBlock: XIVTED_clean_linker_0, # of connection points: 2
#     Edge 17, Type (0, 0), BuildingBlock: XIVTED_clean_linker_0, # of connection points: 2
#     Edge 18, Type (0, 0), BuildingBlock: XIVTED_clean_linker_0, # of connection points: 2
#     Edge 19, Type (0, 0), BuildingBlock: XIVTED_clean_linker_0, # of connection points: 2
#     Edge 20, Type (0, 0), BuildingBlock: XIVTED_clean_linker_0, # of connection points: 2
#     Edge 21, Type (0, 0), BuildingBlock: XIVTED_clean_linker_0, # of connection points: 2
#     Edge 22, Type (0, 0), BuildingBlock: XIVTED_clean_linker_0, # of connection points: 2
#     Edge 23, Type (0, 0), BuildingBlock: XIVTED_clean_linker_0, # of connection points: 2
#     Edge 24, Type (0, 0), BuildingBlock: XIVTED_clean_linker_0, # of connection points: 2
#     Edge 25, Type (0, 0), BuildingBlock: XIVTED_clean_linker_0, # of connection points: 2
#     Edge 26, Type (0, 0), BuildingBlock: XIVTED_clean_linker_0, # of connection points: 2
#     Edge 27, Type (0, 0), BuildingBlock: XIVTED_clean_linker_0, # of connection points: 2
#     Edge 28, Type (0, 0), BuildingBlock: XIVTED_clean_linker_0, # of connection points: 2
#     Edge 29, Type (0, 0), BuildingBlock: XIVTED_clean_linker_0, # of connection points: 2
#     Edge 30, Type (0, 0), BuildingBlock: XIVTED_clean_linker_0, # of connection points: 2
#     Edge 31, Type (0, 0), BuildingBlock: XIVTED_clean_linker_0, # of connection points: 2
#     Edge 32, Type (0, 0), BuildingBlock: XIVTED_clean_linker_0, # of connection points: 2
#     Edge 33, Type (0, 0), BuildingBlock: XIVTED_clean_linker_0, # of connection points: 2
#     Edge 34, Type (0, 0), BuildingBlock: XIVTED_clean_linker_0, # of connection points: 2
#     Edge 35, Type (0, 0), BuildingBlock: XIVTED_clean_linker_0, # of connection points: 2
#     Edge 36, Type (0, 0), BuildingBlock: XIVTED_clean_linker_0, # of connection points: 2
#     Edge 37, Type (0, 0), BuildingBlock: XIVTED_clean_linker_0, # of connection points: 2
#     Edge 38, Type (0, 0), BuildingBlock: XIVTED_clean_linker_0, # of connection points: 2
#     Edge 39, Type (0, 0), BuildingBlock: XIVTED_clean_linker_0, # of connection points: 2
#     Edge 40, Type (0, 0), BuildingBlock: XIVTED_clean_linker_0, # of connection points: 2
#     Edge 41, Type (0, 0), BuildingBlock: XIVTED_clean_linker_0, # of connection points: 2
#     Edge 42, Type (0, 0), BuildingBlock: XIVTED_clean_linker_0, # of connection points: 2
#     Edge 43, Type (0, 0), BuildingBlock: XIVTED_clean_linker_0, # of connection points: 2
#     Edge 44, Type (0, 0), BuildingBlock: XIVTED_clean_linker_0, # of connection points: 2
#     Edge 45, Type (0, 0), BuildingBlock: XIVTED_clean_linker_0, # of connection points: 2
#     Edge 46, Type (0, 0), BuildingBlock: XIVTED_clean_linker_0, # of connection points: 2
#     Edge 47, Type (0, 0), BuildingBlock: XIVTED_clean_linker_0, # of connection points: 2
# Relax obj value: 0.088
# Max RMSD: 0.211
# Mean RMSD: 0.211
data_MOF--net-wjd--node1-PAMTOO_clean_sbu_0--edge1-XIVTED_clean_linker_0
_symmetry_space_group_name_H-M    P1
_symmetry_Int_Tables_number       1
_symmetry_cell_setting            triclinic
loop_
_symmetry_equiv_pos_as_xyz
'x, y, z'
_cell_length_a     41.240345
_cell_length_b     41.276797
_cell_length_c     54.105421
_cell_angle_alpha  89.986432
_cell_angle_beta   90.00315
_cell_angle_gamma 119.98968
loop_
_atom_site_label
_atom_site_type_symbol
_atom_site_fract_x
_atom_site_fract_y
_atom_site_fract_z
_atom_type_partial_charge
Dy0 Dy 0.30905 0.08974 0.12417 0.0
Dy1 Dy 0.36433 0.17745 0.10649 0.0
C2 C 0.31857 0.10944 0.0689 0.0
O3 O 0.36616 0.09607 0.11462 0.0
O4 O 0.40276 0.15926 0.1215 0.0
O5 O 0.28235 0.03078 0.11503 0.0
O6 O 0.26975 0.04838 0.14969 0.0
O7 O 0.359 0.17814 0.14826 0.0
O8 O 0.34369 0.11753 0.15711 0.0
O9 O 0.30551 0.16561 0.10131 0.0
O10 O 0.27806 0.12097 0.13133 0.0
O11 O 0.37568 0.2347 0.10489 0.0
O12 O 0.41335 0.21985 0.08709 0.0
C13 C 0.39946 0.12621 0.11833 0.0
O14 O 0.29345 0.09667 0.0863 0.0
O15 O 0.35216 0.13804 0.07363 0.0
C16 C 0.21941 0.99465 0.13015 0.0
C17 C 0.14176 0.94227 0.12349 0.0
C18 C 0.16872 0.94421 0.10661 0.0
C19 C 0.20693 0.96992 0.10993 0.0
C20 C 0.19247 0.99304 0.14689 0.0
C21 C 0.15423 0.96734 0.14356 0.0
C22 C 0.2603 0.02067 0.13432 0.0
C23 C 0.35543 0.1521 0.16406 0.0
C24 C 0.27804 0.14676 0.11699 0.0
C25 C 0.43914 0.28334 0.10068 0.0
C26 C 0.50078 0.35441 0.11405 0.0
C27 C 0.49561 0.32109 0.12509 0.0
C28 C 0.46515 0.28599 0.11849 0.0
C29 C 0.44395 0.31638 0.08986 0.0
C30 C 0.47427 0.35137 0.09641 0.0
C31 C 0.40695 0.24688 0.09277 0.0
H32 H 0.16032 0.92579 0.09074 0.0
H33 H 0.22677 0.97014 0.09671 0.0
H34 H 0.20093 0.01131 0.16285 0.0
H35 H 0.13454 0.96645 0.15716 0.0
H36 H 0.51499 0.32208 0.13897 0.0
H37 H 0.46198 0.26096 0.12725 0.0
H38 H 0.42432 0.31511 0.07605 0.0
H39 H 0.47733 0.37599 0.08714 0.0
Dy40 Dy 0.81028 0.63645 0.40838 0.0
Dy41 Dy 0.77497 0.68993 0.3888 0.0
C42 C 0.8112 0.65797 0.3509 0.0
O43 O 0.86001 0.6925 0.40223 0.0
O44 O 0.83332 0.72991 0.40304 0.0
O45 O 0.85412 0.62227 0.40782 0.0
O46 O 0.80719 0.59277 0.43264 0.0
O47 O 0.7478 0.65966 0.42319 0.0
O48 O 0.79978 0.66561 0.4409 0.0
O49 O 0.7288 0.63072 0.37968 0.0
O50 O 0.75051 0.59583 0.40029 0.0
O51 O 0.75544 0.7264 0.40188 0.0
O52 O 0.75657 0.71739 0.36249 0.0
C53 C 0.86295 0.72558 0.40346 0.0
O54 O 0.80571 0.63124 0.36667 0.0
O55 O 0.80824 0.687 0.35751 0.0
C56 C 0.83971 0.56083 0.41964 0.0
C57 C 0.84963 0.49806 0.41106 0.0
C58 C 0.83489 0.51121 0.39253 0.0
C59 C 0.8301 0.54227 0.39674 0.0
C60 C 0.85382 0.54749 0.43823 0.0
C61 C 0.85873 0.51663 0.43404 0.0
C62 C 0.83818 0.59565 0.42416 0.0
C63 C 0.76798 0.66581 0.44293 0.0
C64 C 0.72454 0.59838 0.3877 0.0
C65 C 0.76434 0.77629 0.37609 0.0
C66 C 0.7869 0.85363 0.37596 0.0
C67 C 0.74955 0.82616 0.37097 0.0
C68 C 0.73847 0.78805 0.37105 0.0
C69 C 0.80196 0.80351 0.38028 0.0
C70 C 0.81317 0.8418 0.38007 0.0
C71 C 0.75049 0.73585 0.3798 0.0
H72 H 0.82782 0.49806 0.37452 0.0
H73 H 0.81947 0.55213 0.38199 0.0
H74 H 0.86162 0.56137 0.45602 0.0
H75 H 0.8695 0.50721 0.44895 0.0
H76 H 0.72863 0.83409 0.36732 0.0
H77 H 0.70928 0.76762 0.36792 0.0
H78 H 0.82237 0.7951 0.3845 0.0
H79 H 0.84209 0.86203 0.38414 0.0
Dy80 Dy 0.92043 0.22359 0.12709 0.0
Dy81 Dy 0.83427 0.19007 0.10497 0.0
C82 C 0.90683 0.21467 0.07079 0.0
O83 O 0.91377 0.27378 0.11694 0.0
O84 O 0.8498 0.24578 0.12045 0.0
O85 O 0.98003 0.2584 0.1211 0.0
O86 O 0.95966 0.2248 0.15432 0.0
O87 O 0.82927 0.18255 0.14671 0.0
O88 O 0.88846 0.22819 0.15851 0.0
O89 O 0.84772 0.14393 0.1015 0.0
O90 O 0.88919 0.1613 0.13367 0.0
O91 O 0.77723 0.14396 0.10134 0.0
O92 O 0.79367 0.19649 0.08306 0.0
C93 C 0.88288 0.276 0.11904 0.0
O94 O 0.91839 0.20269 0.08916 0.0
O95 O 0.87697 0.2183 0.07371 0.0
C96 C 0.01674 0.23318 0.13747 0.0
C97 C 0.07152 0.2108 0.13249 0.0
C98 C 0.05246 0.2135 0.11166 0.0
C99 C 0.02533 0.22441 0.11411 0.0
C100 C 0.0356 0.23038 0.15826 0.0
C101 C 0.06252 0.21926 0.15584 0.0
C102 C 0.98882 0.24574 0.14061 0.0
C103 C 0.85323 0.20456 0.16371 0.0
C104 C 0.86516 0.13552 0.11847 0.0
C105 C 0.72844 0.15861 0.09445 0.0
C106 C 0.65474 0.14745 0.10173 0.0
C107 C 0.66102 0.11692 0.10033 0.0
C108 C 0.69721 0.12243 0.09672 0.0
C109 C 0.72244 0.18926 0.09609 0.0
C110 C 0.68619 0.18376 0.09972 0.0
C111 C 0.76601 0.16322 0.08844 0.0
H112 H 0.0582 0.20678 0.09342 0.0
H113 H 0.01116 0.22602 0.0977 0.0
H114 H 0.02967 0.23706 0.17646 0.0
H115 H 0.07683 0.218 0.17228 0.0
H116 H 0.63794 0.08855 0.10213 0.0
H117 H 0.7007 0.09817 0.09534 0.0
H118 H 0.74564 0.21755 0.09418 0.0
H119 H 0.68278 0.2081 0.10033 0.0
Dy120 Dy 0.35436 0.16624 0.40559 0.0
Dy121 Dy 0.29928 0.07919 0.38653 0.0
C122 C 0.34728 0.14266 0.34751 0.0
O123 O 0.29568 0.15554 0.40897 0.0
O124 O 0.26896 0.11093 0.37877 0.0
O125 O 0.36637 0.22357 0.40773 0.0
O126 O 0.40294 0.20767 0.42598 0.0
O127 O 0.28202 0.08672 0.42366 0.0
O128 O 0.34004 0.12544 0.43798 0.0
O129 O 0.35614 0.0851 0.39645 0.0
O130 O 0.39304 0.14844 0.39044 0.0
O131 O 0.27313 0.02038 0.39572 0.0
O132 O 0.25923 0.03758 0.36136 0.0
C133 C 0.26875 0.13688 0.39288 0.0
O134 O 0.35117 0.16835 0.36373 0.0
O135 O 0.33411 0.10751 0.35373 0.0
C136 C 0.43077 0.27158 0.41172 0.0
C137 C 0.49298 0.34384 0.40072 0.0
C138 C 0.45627 0.33428 0.39392 0.0
C139 C 0.42569 0.2988 0.39939 0.0
C140 C 0.46746 0.28094 0.41833 0.0
C141 C 0.49805 0.31642 0.41285 0.0
C142 C 0.39772 0.2353 0.41972 0.0
C143 C 0.30593 0.09704 0.4417 0.0
C144 C 0.38955 0.11525 0.39309 0.0
C145 C 0.20958 0.98433 0.38165 0.0
C146 C 0.132 0.93314 0.38979 0.0
C147 C 0.15836 0.9423 0.40893 0.0
C148 C 0.19656 0.96753 0.40494 0.0
C149 C 0.18323 0.97537 0.36257 0.0
C150 C 0.14501 0.95031 0.3666 0.0
C151 C 0.25034 0.01007 0.37682 0.0
H152 H 0.45104 0.35423 0.38432 0.0
H153 H 0.39788 0.29293 0.39427 0.0
H154 H 0.47253 0.2611 0.42824 0.0
H155 H 0.52564 0.32265 0.4188 0.0
H156 H 0.14947 0.93003 0.42711 0.0
H157 H 0.21588 0.97363 0.42013 0.0
H158 H 0.19223 0.98746 0.34435 0.0
H159 H 0.12576 0.94365 0.35131 0.0
Dy160 Dy 0.7846 0.69936 0.12963 0.0
Dy161 Dy 0.81852 0.64551 0.1093 0.0
C162 C 0.77857 0.67791 0.07538 0.0
O163 O 0.73775 0.64036 0.13865 0.0
O164 O 0.75832 0.60555 0.11674 0.0
O165 O 0.76009 0.73198 0.11749 0.0
O166 O 0.77298 0.73202 0.15626 0.0
O167 O 0.81219 0.63741 0.1508 0.0
O168 O 0.81514 0.69293 0.16134 0.0
O169 O 0.86821 0.70045 0.11806 0.0
O170 O 0.8426 0.73836 0.11441 0.0
O171 O 0.86237 0.63135 0.10897 0.0
O172 O 0.81497 0.60225 0.08448 0.0
C173 C 0.73276 0.60808 0.12986 0.0
O174 O 0.75783 0.67021 0.09496 0.0
O175 O 0.80995 0.67692 0.07733 0.0
C176 C 0.77921 0.78867 0.13914 0.0
C177 C 0.8032 0.86633 0.13666 0.0
C178 C 0.81369 0.84915 0.11832 0.0
C179 C 0.80204 0.81092 0.11959 0.0
C180 C 0.76956 0.80593 0.15784 0.0
C181 C 0.78157 0.84433 0.15671 0.0
C182 C 0.76276 0.74727 0.13902 0.0
C183 C 0.81704 0.66306 0.16729 0.0
C184 C 0.87198 0.73371 0.11549 0.0
C185 C 0.84771 0.57017 0.09651 0.0
C186 C 0.85757 0.50725 0.10421 0.0
C187 C 0.842 0.51941 0.12279 0.0
C188 C 0.83724 0.55056 0.11902 0.0
C189 C 0.86265 0.55782 0.07786 0.0
C190 C 0.86754 0.52688 0.08162 0.0
C191 C 0.84613 0.60503 0.09249 0.0
H192 H 0.83079 0.86526 0.10283 0.0
H193 H 0.81021 0.79861 0.10492 0.0
H194 H 0.75185 0.78949 0.17303 0.0
H195 H 0.77278 0.85651 0.1711 0.0
H196 H 0.83425 0.50539 0.14052 0.0
H197 H 0.82596 0.55968 0.13381 0.0
H198 H 0.8711 0.57254 0.06036 0.0
H199 H 0.87897 0.51821 0.06668 0.0
Dy200 Dy 0.82475 0.1805 0.40496 0.0
Dy201 Dy 0.91131 0.2139 0.38332 0.0
C202 C 0.84504 0.1971 0.34635 0.0
O203 O 0.83632 0.13305 0.40689 0.0
O204 O 0.88054 0.15163 0.37622 0.0
O205 O 0.76713 0.13567 0.40746 0.0
O206 O 0.78486 0.18657 0.42814 0.0
O207 O 0.90726 0.18955 0.42023 0.0
O208 O 0.86775 0.20675 0.43643 0.0
O209 O 0.90474 0.26382 0.3947 0.0
O210 O 0.84101 0.23678 0.39027 0.0
O211 O 0.9706 0.24851 0.3904 0.0
O212 O 0.95158 0.21654 0.35642 0.0
C213 C 0.85489 0.12526 0.39041 0.0
O214 O 0.82033 0.17503 0.36303 0.0
O215 O 0.88034 0.21974 0.35187 0.0
C216 C 0.71946 0.1504 0.41765 0.0
C217 C 0.64559 0.13836 0.41 0.0
C218 C 0.67204 0.15063 0.39055 0.0
C219 C 0.70844 0.15645 0.3943 0.0
C220 C 0.69343 0.13868 0.43709 0.0
C221 C 0.65712 0.13273 0.43336 0.0
C222 C 0.7568 0.15389 0.42215 0.0
C223 C 0.89701 0.20196 0.43898 0.0
C224 C 0.8742 0.26666 0.39236 0.0
C225 C 0.00808 0.22427 0.37393 0.0
C226 C 0.06316 0.20237 0.3791 0.0
C227 C 0.04404 0.20508 0.39989 0.0
C228 C 0.01678 0.21577 0.39734 0.0
C229 C 0.02694 0.22138 0.35317 0.0
C230 C 0.05402 0.21049 0.35569 0.0
C231 C 0.98018 0.23684 0.37075 0.0
H232 H 0.6644 0.15502 0.37223 0.0
H233 H 0.7278 0.16524 0.37891 0.0
H234 H 0.70109 0.13371 0.45527 0.0
H235 H 0.63816 0.12399 0.44896 0.0
H236 H 0.04989 0.19861 0.41817 0.0
H237 H 0.00264 0.21748 0.41374 0.0
H238 H 0.02094 0.22788 0.33493 0.0
H239 H 0.06837 0.2092 0.33928 0.0
Dy240 Dy 0.16966 0.35883 0.60498 0.0
Dy241 Dy 0.08652 0.30215 0.6315 0.0
C242 C 0.15923 0.35178 0.66405 0.0
O243 O 0.17032 0.30778 0.61848 0.0
O244 O 0.1077 0.26596 0.61516 0.0
O245 O 0.22498 0.37158 0.5918 0.0
O246 O 0.20868 0.41363 0.59055 0.0
O247 O 0.07387 0.30776 0.59254 0.0
O248 O 0.13026 0.32556 0.57315 0.0
O249 O 0.0985 0.36218 0.63652 0.0
O250 O 0.13336 0.38415 0.60123 0.0
O251 O 0.02627 0.27804 0.6339 0.0
O252 O 0.05445 0.25941 0.65878 0.0
C253 C 0.1425 0.2731 0.6171 0.0
O254 O 0.17508 0.37489 0.64536 0.0
O255 O 0.1291 0.31906 0.66127 0.0
C256 C 0.27458 0.43638 0.59521 0.0
C257 C 0.34959 0.4956 0.6048 0.0
C258 C 0.31878 0.50153 0.60637 0.0
C259 C 0.28207 0.47256 0.60166 0.0
C260 C 0.30519 0.43021 0.59376 0.0
C261 C 0.34204 0.45926 0.59854 0.0
C262 C 0.23593 0.40668 0.58746 0.0
C263 C 0.09353 0.31251 0.57249 0.0
C264 C 0.11417 0.3881 0.61911 0.0
C265 C 0.99283 0.21394 0.64669 0.0
C266 C 0.93657 0.13757 0.64046 0.0
C267 C 0.95571 0.16015 0.61991 0.0
C268 C 0.9836 0.19783 0.62299 0.0
C269 C 0.9738 0.19157 0.66717 0.0
C270 C 0.94612 0.15395 0.66413 0.0
C271 C 0.02227 0.25363 0.65068 0.0
H272 H 0.32297 0.529 0.61057 0.0
H273 H 0.25959 0.47891 0.60255 0.0
H274 H 0.30074 0.40296 0.58851 0.0
H275 H 0.36461 0.45311 0.59733 0.0
H276 H 0.94956 0.14856 0.60142 0.0
H277 H 0.99802 0.2143 0.60686 0.0
H278 H 0.98035 0.20327 0.68563 0.0
H279 H 0.9318 0.13784 0.68039 0.0
Dy280 Dy 0.22583 0.92012 0.8837 0.0
Dy281 Dy 0.19325 0.83428 0.90648 0.0
C282 C 0.21715 0.907 0.93995 0.0
O283 O 0.27642 0.91408 0.89403 0.0
O284 O 0.24884 0.85025 0.89027 0.0
O285 O 0.25996 0.97978 0.88971 0.0
O286 O 0.22661 0.9591 0.85642 0.0
O287 O 0.18367 0.82905 0.86507 0.0
O288 O 0.2295 0.88755 0.85224 0.0
O289 O 0.14619 0.84657 0.90985 0.0
O290 O 0.16323 0.88865 0.87798 0.0
O291 O 0.14794 0.77708 0.91058 0.0
O292 O 0.20093 0.79442 0.92842 0.0
C293 C 0.27898 0.8834 0.89185 0.0
O294 O 0.20436 0.91753 0.92148 0.0
O295 O 0.22139 0.87751 0.93732 0.0
C296 C 0.23429 0.01609 0.87313 0.0
C297 C 0.21191 0.071 0.87784 0.0
C298 C 0.21488 0.05226 0.89877 0.0
C299 C 0.22581 0.0251 0.89645 0.0
C300 C 0.23116 0.03458 0.85225 0.0
C301 C 0.22005 0.06154 0.85453 0.0
C302 C 0.24719 0.98834 0.87015 0.0
C303 C 0.20503 0.85239 0.84762 0.0
C304 C 0.13755 0.86414 0.89307 0.0
C305 C 0.16314 0.72923 0.9184 0.0
C306 C 0.15207 0.65621 0.90902 0.0
C307 C 0.17037 0.6855 0.89164 0.0
C308 C 0.17577 0.72151 0.89626 0.0
C309 C 0.14502 0.70027 0.93573 0.0
C310 C 0.13955 0.66436 0.93115 0.0
C311 C 0.16743 0.76659 0.92386 0.0
H312 H 0.20842 0.05829 0.91699 0.0
H313 H 0.2277 0.01128 0.91296 0.0
H314 H 0.23765 0.02837 0.83406 0.0
H315 H 0.21862 0.07555 0.83799 0.0
H316 H 0.18012 0.68051 0.87425 0.0
H317 H 0.18963 0.74324 0.88249 0.0
H318 H 0.13498 0.70542 0.95296 0.0
H319 H 0.12596 0.64313 0.94524 0.0
Dy320 Dy 0.64324 0.81138 0.60906 0.0
Dy321 Dy 0.69753 0.77971 0.63052 0.0
C322 C 0.64916 0.79724 0.6677 0.0
O323 O 0.70216 0.85907 0.6056 0.0
O324 O 0.72787 0.84211 0.63702 0.0
O325 O 0.63165 0.85689 0.60549 0.0
O326 O 0.59456 0.80363 0.58843 0.0
O327 O 0.71563 0.80234 0.59291 0.0
O328 O 0.65827 0.7842 0.57749 0.0
O329 O 0.64122 0.72863 0.62009 0.0
O330 O 0.60412 0.75515 0.62457 0.0
O331 O 0.72346 0.7462 0.62339 0.0
O332 O 0.73735 0.77967 0.65667 0.0
C333 C 0.72866 0.86782 0.62215 0.0
O334 O 0.64668 0.8189 0.65068 0.0
O335 O 0.6614 0.77412 0.66254 0.0
C336 C 0.56724 0.84074 0.60161 0.0
C337 C 0.50541 0.85173 0.61231 0.0
C338 C 0.54228 0.87887 0.61876 0.0
C339 C 0.57266 0.87351 0.61345 0.0
C340 C 0.5304 0.81347 0.59531 0.0
C341 C 0.50001 0.8188 0.60064 0.0
C342 C 0.60006 0.83685 0.59385 0.0
C343 C 0.69213 0.78876 0.57461 0.0
C344 C 0.60768 0.7254 0.6225 0.0
C345 C 0.78701 0.77445 0.63757 0.0
C346 C 0.8645 0.79972 0.62977 0.0
C347 C 0.83754 0.77839 0.61172 0.0
C348 C 0.79942 0.76595 0.61556 0.0
C349 C 0.81395 0.796 0.65555 0.0
C350 C 0.85213 0.8086 0.65166 0.0
C351 C 0.74624 0.75995 0.64221 0.0
H352 H 0.5478 0.90439 0.62799 0.0
H353 H 0.60059 0.89545 0.61832 0.0
H354 H 0.52505 0.7882 0.58577 0.0
H355 H 0.47229 0.79741 0.59495 0.0
H356 H 0.84589 0.77132 0.5945 0.0
H357 H 0.77964 0.7494 0.60126 0.0
H358 H 0.80549 0.80282 0.67282 0.0
H359 H 0.87185 0.8245 0.66614 0.0
Dy360 Dy 0.09188 0.31014 0.88334 0.0
Dy361 Dy 0.17892 0.3644 0.90428 0.0
C362 C 0.10734 0.3166 0.93945 0.0
O363 O 0.09837 0.36711 0.89335 0.0
O364 O 0.16213 0.40367 0.88882 0.0
O365 O 0.03236 0.28524 0.89023 0.0
O366 O 0.05179 0.27092 0.85708 0.0
O367 O 0.18216 0.35995 0.86266 0.0
O368 O 0.12265 0.34582 0.85118 0.0
O369 O 0.16663 0.3053 0.90865 0.0
O370 O 0.12309 0.27864 0.87771 0.0
O371 O 0.23698 0.37822 0.90523 0.0
O372 O 0.21944 0.41072 0.92695 0.0
C373 C 0.12892 0.40043 0.89083 0.0
O374 O 0.09543 0.29257 0.92137 0.0
O375 O 0.1369 0.35013 0.936 0.0
C376 C 0.99427 0.22366 0.87433 0.0
C377 C 0.93807 0.14724 0.88073 0.0
C378 C 0.97383 0.16161 0.89154 0.0
C379 C 1.00158 0.19938 0.88841 0.0
C380 C 0.95888 0.20946 0.86342 0.0
C381 C 0.93119 0.17186 0.86654 0.0
C382 C 0.02287 0.2637 0.87076 0.0
C383 C 0.15782 0.35745 0.84577 0.0
C384 C 0.14824 0.2782 0.89259 0.0
C385 C 0.28452 0.44113 0.91506 0.0
C386 C 0.35801 0.50407 0.90784 0.0
C387 C 0.33483 0.48461 0.88752 0.0
C388 C 0.29859 0.45354 0.89108 0.0
C389 C 0.30745 0.46048 0.93524 0.0
C390 C 0.3435 0.49125 0.93174 0.0
C391 C 0.24758 0.40681 0.91992 0.0
H392 H 0.98025 0.14384 0.90279 0.0
H393 H 0.02868 0.20967 0.89706 0.0
H394 H 0.95259 0.22754 0.85238 0.0
H395 H 0.90444 0.16199 0.85752 0.0
H396 H 0.3445 0.49353 0.86882 0.0
H397 H 0.28171 0.43909 0.8751 0.0
H398 H 0.2977 0.4513 0.95392 0.0
H399 H 0.36029 0.50449 0.94797 0.0
Dy400 Dy 0.18783 0.82693 0.60752 0.0
Dy401 Dy 0.22226 0.91562 0.62654 0.0
C402 C 0.19309 0.84884 0.66524 0.0
O403 O 0.13818 0.83232 0.61652 0.0
O404 O 0.16333 0.89582 0.61288 0.0
O405 O 0.1445 0.76889 0.60966 0.0
O406 O 0.18954 0.78556 0.58327 0.0
O407 O 0.24871 0.91188 0.59197 0.0
O408 O 0.19651 0.86557 0.57478 0.0
O409 O 0.26966 0.90379 0.63491 0.0
O410 O 0.24823 0.8472 0.6143 0.0
O411 O 0.24479 0.97171 0.61247 0.0
O412 O 0.23677 0.96191 0.6519 0.0
C413 C 0.13416 0.86173 0.61435 0.0
O414 O 0.19759 0.82803 0.64862 0.0
O415 O 0.19389 0.88016 0.65942 0.0
C416 C 0.15822 0.72145 0.59726 0.0
C417 C 0.14819 0.64842 0.60478 0.0
C418 C 0.15885 0.67428 0.62445 0.0
C419 C 0.16377 0.71032 0.62075 0.0
C420 C 0.1479 0.69593 0.57767 0.0
C421 C 0.14288 0.66005 0.58133 0.0
C422 C 0.15943 0.75772 0.5929 0.0
C423 C 0.22822 0.89749 0.57242 0.0
C424 C 0.2743 0.87601 0.62663 0.0
C425 C 0.23333 0.0142 0.63477 0.0
C426 C 0.21059 0.06904 0.63278 0.0
C427 C 0.24682 0.07759 0.62547 0.0
C428 C 0.25796 0.05065 0.62651 0.0
C429 C 0.19697 0.0051 0.64197 0.0
C430 C 0.18575 0.03226 0.64103 0.0
C431 C 0.2462 0.98636 0.63404 0.0
H432 H 0.16363 0.66679 0.64272 0.0
H433 H 0.17146 0.72931 0.63629 0.0
H434 H 0.14282 0.70345 0.55947 0.0
H435 H 0.13389 0.64111 0.56573 0.0
H436 H 0.26662 0.10506 0.61842 0.0
H437 H 0.28594 0.05825 0.62047 0.0
H438 H 0.17721 0.97704 0.64814 0.0
H439 H 0.15772 0.02448 0.64698 0.0
Dy440 Dy 0.7052 0.78968 0.88053 0.0
Dy441 Dy 0.64744 0.81442 0.90787 0.0
C442 C 0.70163 0.7934 0.94042 0.0
O443 O 0.64495 0.74082 0.87754 0.0
O444 O 0.6266 0.75394 0.91395 0.0
O445 O 0.72737 0.75207 0.87689 0.0
O446 O 0.74757 0.80025 0.85299 0.0
O447 O 0.6318 0.80327 0.86742 0.0
O448 O 0.68891 0.81707 0.85171 0.0
O449 O 0.69856 0.8678 0.89612 0.0
O450 O 0.74168 0.84803 0.89513 0.0
O451 O 0.6325 0.85459 0.92259 0.0
O452 O 0.59103 0.79607 0.92012 0.0
C453 C 0.62041 0.73058 0.89582 0.0
O454 O 0.71115 0.78239 0.92036 0.0
O455 O 0.67997 0.8088 0.94018 0.0
C456 C 0.79174 0.78228 0.86483 0.0
C457 C 0.86781 0.8016 0.87186 0.0
C458 C 0.84523 0.79954 0.89208 0.0
C459 C 0.80771 0.79015 0.8886 0.0
C460 C 0.81406 0.78412 0.8447 0.0
C461 C 0.85154 0.79366 0.84813 0.0
C462 C 0.75238 0.77295 0.8605 0.0
C463 C 0.65545 0.81263 0.84884 0.0
C464 C 0.73353 0.8751 0.8956 0.0
C465 C 0.56756 0.83868 0.91752 0.0
C466 C 0.50853 0.85467 0.90803 0.0
C467 C 0.54574 0.88371 0.91178 0.0
C468 C 0.57477 0.87583 0.91651 0.0
C469 C 0.53044 0.80976 0.91369 0.0
C470 C 0.50156 0.81758 0.90901 0.0
C471 C 0.59715 0.82953 0.92511 0.0
H472 H 0.85673 0.80585 0.91059 0.0
H473 H 0.79127 0.78928 0.90446 0.0
H474 H 0.80247 0.77822 0.82619 0.0
H475 H 0.86766 0.79439 0.83213 0.0
H476 H 0.55257 0.91265 0.91102 0.0
H477 H 0.6028 0.89889 0.91974 0.0
H478 H 0.52336 0.78075 0.91488 0.0
H479 H 0.47341 0.79423 0.90685 0.0
H480 H 0.08494 0.16501 0.16282 0.0
H481 H 0.26587 0.19435 0.08798 0.0
H482 H 0.1255 0.23115 0.09636 0.0
H483 H 0.21851 0.11833 0.14953 0.0
H484 H 0.21535 0.20881 0.09126 0.0
H485 H 0.13414 0.14861 0.15887 0.0
C486 C 0.10422 0.17624 0.14742 0.0
C487 C 0.10089 0.19966 0.12994 0.0
C488 C 0.2159 0.18889 0.10403 0.0
C489 C 0.15755 0.18069 0.12523 0.0
C490 C 0.24485 0.18059 0.10219 0.0
C491 C 0.24668 0.15503 0.11851 0.0
C492 C 0.1884 0.17175 0.12244 0.0
C493 C 0.2184 0.13818 0.1365 0.0
C494 C 0.13225 0.16664 0.14511 0.0
C495 C 0.12653 0.21274 0.11018 0.0
N496 N 0.19062 0.14692 0.13803 0.0
N497 N 0.15374 0.20324 0.10845 0.0
H498 H 0.06934 0.93424 0.37264 0.0
H499 H 0.92612 0.72709 0.41995 0.0
H500 H 0.1017 0.86706 0.41577 0.0
H501 H 0.8884 0.79915 0.3895 0.0
H502 H 0.9904 0.77866 0.41834 0.0
H503 H 0.0034 0.886 0.37797 0.0
C504 C 0.06269 0.90941 0.38323 0.0
C505 C 0.09143 0.90486 0.39371 0.0
C506 C 0.96818 0.78346 0.41215 0.0
C507 C 0.01566 0.84938 0.39993 0.0
C508 C 0.93129 0.7539 0.41304 0.0
C509 C 0.90158 0.75859 0.40477 0.0
C510 C 0.97599 0.81826 0.40258 0.0
C511 C 0.9103 0.79421 0.39617 0.0
C512 C 0.02494 0.88196 0.38639 0.0
C513 C 0.08078 0.87219 0.40753 0.0
N514 N 0.94672 0.82256 0.39505 0.0
N515 N 0.04399 0.84578 0.41005 0.0
H516 H 0.82781 0.07752 0.08575 0.0
H517 H 0.82888 0.92079 0.17281 0.0
H518 H 0.88391 0.10325 0.15634 0.0
H519 H 0.80106 0.90385 0.09528 0.0
H520 H 0.84483 0.98634 0.16843 0.0
H521 H 0.81366 0.01272 0.09011 0.0
C522 C 0.83722 0.06963 0.10218 0.0
C523 C 0.85718 0.09612 0.12068 0.0
C524 C 0.83535 0.9683 0.15237 0.0
C525 C 0.84065 0.02143 0.12591 0.0
C526 C 0.82604 0.93078 0.15488 0.0
C527 C 0.81367 0.90661 0.13437 0.0
C528 C 0.83179 0.98182 0.12925 0.0
C529 C 0.81088 0.92141 0.11156 0.0
C530 C 0.82916 0.03254 0.10463 0.0
C531 C 0.8686 0.08398 0.14153 0.0
N532 N 0.81962 0.95782 0.10966 0.0
N533 N 0.86001 0.04759 0.14364 0.0
H534 H 0.20951 0.10762 0.36015 0.0
H535 H 0.11717 0.22382 0.41522 0.0
H536 H 0.2563 0.18507 0.42101 0.0
H537 H 0.07733 0.15672 0.34913 0.0
H538 H 0.16605 0.20702 0.41894 0.0
H539 H 0.15911 0.12255 0.35702 0.0
C540 C 0.20924 0.12771 0.3729 0.0
C541 C 0.23743 0.1451 0.39086 0.0
C542 C 0.14662 0.19592 0.40361 0.0
C543 C 0.17947 0.16233 0.38737 0.0
C544 C 0.11845 0.20532 0.40156 0.0
C545 C 0.09288 0.19174 0.38181 0.0
C546 C 0.14938 0.17251 0.38588 0.0
C547 C 0.09656 0.1683 0.36451 0.0
C548 C 0.18041 0.13627 0.37106 0.0
C549 C 0.23537 0.17093 0.40683 0.0
N550 N 0.12413 0.15942 0.36697 0.0
N551 N 0.20701 0.17868 0.40472 0.0
H552 H 0.07898 0.94859 0.13259 0.0
H553 H 0.9357 0.7319 0.10528 0.0
H554 H 0.11138 0.86924 0.10824 0.0
H555 H 0.89773 0.80953 0.12265 0.0
H556 H 0.99996 0.78305 0.10588 0.0
H557 H 0.01297 0.89958 0.12911 0.0
C558 C 0.07236 0.92094 0.12653 0.0
C559 C 0.10115 0.91327 0.1207 0.0
C560 C 0.97775 0.78917 0.10948 0.0
C561 C 0.0253 0.85694 0.11655 0.0
C562 C 0.94079 0.7598 0.10917 0.0
C563 C 0.91096 0.76617 0.11405 0.0
C564 C 0.98556 0.82562 0.11493 0.0
C565 C 0.91973 0.80322 0.11874 0.0
C566 C 0.03457 0.89302 0.12441 0.0
C567 C 0.0905 0.87691 0.11263 0.0
N568 N 0.95624 0.8315 0.11926 0.0
N569 N 0.05369 0.85029 0.11092 0.0
H570 H 0.74761 0.88329 0.39798 0.0
H571 H 0.8921 0.09734 0.36293 0.0
H572 H 0.85084 0.91651 0.35904 0.0
H573 H 0.7983 0.0625 0.41236 0.0
H574 H 0.87667 0.0318 0.35933 0.0
H575 H 0.76465 0.94886 0.40124 0.0
C576 C 0.7738 0.90433 0.38992 0.0
C577 C 0.79764 0.89405 0.37804 0.0
C578 C 0.85954 0.03857 0.37099 0.0
C579 C 0.81766 0.96997 0.38194 0.0
C580 C 0.86829 0.07603 0.37304 0.0
C581 C 0.84653 0.08572 0.38801 0.0
C582 C 0.82858 0.0104 0.38382 0.0
C583 C 0.81605 0.05667 0.40065 0.0
C584 C 0.78366 0.94194 0.39196 0.0
C585 C 0.8316 0.92296 0.36846 0.0
N586 N 0.80798 0.02056 0.3982 0.0
N587 N 0.84049 0.95949 0.37051 0.0
H588 H 0.2538 0.14463 0.64203 0.0
H589 H 0.09373 0.19663 0.61407 0.0
H590 H 0.14151 0.06154 0.62095 0.0
H591 H 0.21057 0.27782 0.62443 0.0
H592 H 0.10894 0.14637 0.61834 0.0
H593 H 0.23674 0.19291 0.63773 0.0
C594 C 0.22554 0.13636 0.63634 0.0
C595 C 0.19931 0.09858 0.63158 0.0
C596 C 0.13122 0.17521 0.61961 0.0
C597 C 0.17919 0.15453 0.62701 0.0
C598 C 0.12257 0.20399 0.61716 0.0
C599 C 0.15086 0.24176 0.61882 0.0
C600 C 0.16843 0.18411 0.62396 0.0
C601 C 0.1877 0.24931 0.62293 0.0
C602 C 0.21573 0.16415 0.63402 0.0
C603 C 0.16278 0.09005 0.625 0.0
N604 N 0.19529 0.22092 0.6254 0.0
N605 N 0.15388 0.11771 0.62286 0.0
H606 H 0.07698 0.81819 0.92232 0.0
H607 H 0.92851 0.84612 0.84227 0.0
H608 H 0.10715 0.89072 0.85873 0.0
H609 H 0.89953 0.78123 0.90946 0.0
H610 H 0.99361 0.86175 0.84767 0.0
H611 H 0.01202 0.80375 0.91773 0.0
C612 C 0.07007 0.83119 0.90741 0.0
C613 C 0.0979 0.8558 0.8909 0.0
C614 C 0.97307 0.84413 0.86128 0.0
C615 C 0.02299 0.8391 0.88547 0.0
C616 C 0.93569 0.83495 0.85812 0.0
C617 C 0.90808 0.81209 0.87536 0.0
C618 C 0.98333 0.83032 0.8818 0.0
C619 C 0.91964 0.79919 0.89577 0.0
C620 C 0.03284 0.8229 0.90481 0.0
C621 C 0.0869 0.87166 0.87196 0.0
N622 N 0.95618 0.80832 0.89834 0.0
N623 N 0.05047 0.86298 0.86974 0.0
H624 H 0.74183 0.92819 0.59329 0.0
H625 H 0.92244 0.07715 0.66975 0.0
H626 H 0.78712 0.8984 0.65549 0.0
H627 H 0.8824 0.10543 0.60414 0.0
H628 H 0.87277 0.01201 0.66514 0.0
H629 H 0.79253 0.99305 0.59719 0.0
C630 C 0.76241 0.93516 0.60777 0.0
C631 C 0.75995 0.90746 0.62408 0.0
C632 C 0.87484 0.03241 0.65171 0.0
C633 C 0.81845 0.98231 0.62871 0.0
C634 C 0.90316 0.06981 0.6544 0.0
C635 C 0.9068 0.09723 0.63738 0.0
C636 C 0.84954 0.02196 0.63187 0.0
C637 C 0.88114 0.08547 0.61764 0.0
C638 C 0.79146 0.97235 0.60997 0.0
C639 C 0.78768 0.91856 0.64245 0.0
N640 N 0.85365 0.04894 0.61551 0.0
N641 N 0.81557 0.95497 0.64428 0.0
H642 H 0.19482 0.26522 0.92222 0.0
H643 H 0.16651 0.08479 0.84721 0.0
H644 H 0.12069 0.21917 0.85964 0.0
H645 H 0.23204 0.12507 0.91394 0.0
H646 H 0.15029 0.13411 0.85094 0.0
H647 H 0.20921 0.21465 0.91908 0.0
C648 C 0.18145 0.24449 0.90781 0.0
C649 C 0.15643 0.24673 0.89116 0.0
C650 C 0.16815 0.13214 0.86481 0.0
C651 C 0.17311 0.18833 0.88739 0.0
C652 C 0.17766 0.10402 0.86262 0.0
C653 C 0.20085 0.10053 0.88025 0.0
C654 C 0.18202 0.15739 0.88471 0.0
C655 C 0.21378 0.12617 0.90001 0.0
C656 C 0.18972 0.21549 0.90605 0.0
C657 C 0.1401 0.21877 0.87293 0.0
N658 N 0.20436 0.15343 0.90162 0.0
N659 N 0.1488 0.19094 0.8715 0.0
H660 H 0.07015 0.79676 0.60356 0.0
H661 H 0.92762 0.86668 0.64225 0.0
H662 H 0.10848 0.91105 0.62471 0.0
H663 H 0.89431 0.75947 0.6091 0.0
H664 H 0.99351 0.88391 0.63699 0.0
H665 H 0.00577 0.78344 0.60609 0.0
C666 C 0.0651 0.81924 0.60866 0.0
C667 C 0.09507 0.85515 0.61399 0.0
C668 C 0.97175 0.85672 0.63075 0.0
C669 C 0.02043 0.83974 0.61717 0.0
C670 C 0.93404 0.84671 0.63389 0.0
C671 C 0.90504 0.81146 0.62612 0.0
C672 C 0.98074 0.83121 0.61997 0.0
C673 C 0.9154 0.78708 0.61513 0.0
C674 C 0.02811 0.81154 0.61007 0.0
C675 C 0.08638 0.88301 0.62034 0.0
N676 N 0.95215 0.79731 0.61254 0.0
N677 N 0.04988 0.87466 0.62196 0.0
H678 H 0.86205 0.11835 0.88668 0.0
H679 H 0.80989 0.90284 0.89301 0.0
H680 H 0.94482 0.08372 0.88278 0.0
H681 H 0.72829 0.93907 0.89603 0.0
H682 H 0.85973 0.96844 0.89027 0.0
H683 H 0.81322 0.05295 0.89087 0.0
C684 C 0.8701 0.09708 0.88656 0.0
C685 C 0.90795 0.10702 0.88417 0.0
C686 C 0.83093 0.96205 0.89159 0.0
C687 C 0.85151 0.03123 0.88933 0.0
C688 C 0.80234 0.92448 0.8932 0.0
C689 C 0.76455 0.91506 0.89477 0.0
C690 C 0.8219 0.99073 0.89153 0.0
C691 C 0.75683 0.94466 0.89486 0.0
C692 C 0.84204 0.05957 0.88912 0.0
C693 C 0.91626 0.07779 0.88476 0.0
N694 N 0.78509 0.9809 0.89323 0.0
N695 N 0.88838 0.04141 0.88718 0.0
H696 H 0.37323 0.10995 0.31605 0.0
H697 H 0.34902 0.20382 0.19324 0.0
H698 H 0.34471 0.19714 0.319 0.0
H699 H 0.38051 0.11874 0.19567 0.0
H700 H 0.35393 0.20839 0.23874 0.0
H701 H 0.38284 0.11928 0.27181 0.0
C702 C 0.36924 0.13135 0.30735 0.0
C703 C 0.35777 0.15252 0.32122 0.0
C704 C 0.36025 0.18915 0.22921 0.0
C705 C 0.36826 0.16317 0.27 0.0
C706 C 0.35766 0.18669 0.20327 0.0
C707 C 0.36394 0.16054 0.1907 0.0
C708 C 0.36942 0.16544 0.24246 0.0
C709 C 0.37484 0.13889 0.20458 0.0
C710 C 0.37476 0.13673 0.28198 0.0
C711 C 0.35353 0.1802 0.30895 0.0
N712 N 0.37696 0.14165 0.22956 0.0
N713 N 0.35824 0.1844 0.28391 0.0
H714 H 0.85434 0.71615 0.32081 0.0
H715 H 0.79246 0.59827 0.19488 0.0
H716 H 0.7877 0.59579 0.3208 0.0
H717 H 0.85616 0.71854 0.20022 0.0
H718 H 0.79652 0.59442 0.24024 0.0
H719 H 0.86193 0.71528 0.27637 0.0
C720 C 0.84155 0.68939 0.31142 0.0
C721 C 0.82009 0.65602 0.32454 0.0
C722 C 0.81 0.62157 0.23137 0.0
C723 C 0.82806 0.65474 0.27306 0.0
C724 C 0.80789 0.62376 0.2055 0.0
C725 C 0.8237 0.6588 0.19377 0.0
C726 C 0.82832 0.65467 0.24543 0.0
C727 C 0.84312 0.69093 0.20843 0.0
C728 C 0.84584 0.68887 0.28592 0.0
C729 C 0.80452 0.62216 0.31136 0.0
N730 N 0.84466 0.68806 0.23333 0.0
N731 N 0.80832 0.62237 0.28624 0.0
H732 H 0.87774 0.2628 0.19535 0.0
H733 H 0.79581 0.13757 0.3171 0.0
H734 H 0.80288 0.14367 0.19152 0.0
H735 H 0.87111 0.25675 0.31585 0.0
H736 H 0.78956 0.13867 0.27174 0.0
H737 H 0.86706 0.26083 0.23963 0.0
C738 C 0.85865 0.23617 0.20387 0.0
C739 C 0.84143 0.20332 0.18975 0.0
C740 C 0.80691 0.16461 0.28151 0.0
C741 C 0.82951 0.20057 0.24098 0.0
C742 C 0.81024 0.16402 0.30738 0.0
C743 C 0.83426 0.19709 0.3202 0.0
C744 C 0.82757 0.19856 0.26857 0.0
C745 C 0.85263 0.23053 0.3067 0.0
C746 C 0.85255 0.23501 0.22925 0.0
C747 C 0.81667 0.16966 0.20176 0.0
N748 N 0.84911 0.23033 0.28177 0.0
N749 N 0.81188 0.16901 0.22681 0.0
H750 H 0.16835 0.41266 0.68994 0.0
H751 H 0.20569 0.34239 0.81945 0.0
H752 H 0.1786 0.31415 0.69645 0.0
H753 H 0.13483 0.39102 0.81226 0.0
H754 H 0.21585 0.34824 0.7744 0.0
H755 H 0.17649 0.42143 0.73505 0.0
C756 C 0.17363 0.39369 0.70077 0.0
C757 C 0.17309 0.3628 0.68958 0.0
C758 C 0.19864 0.35821 0.78283 0.0
C759 C 0.18228 0.37252 0.74085 0.0
C760 C 0.19301 0.35508 0.80848 0.0
C761 C 0.16919 0.36602 0.81952 0.0
C762 C 0.18108 0.37324 0.76829 0.0
C763 C 0.15315 0.38196 0.80442 0.0
C764 C 0.17787 0.39846 0.72646 0.0
C765 C 0.17908 0.33842 0.70446 0.0
N766 N 0.15934 0.38508 0.7796 0.0
N767 N 0.18338 0.34374 0.72933 0.0
H768 H 0.13941 0.81449 0.82201 0.0
H769 H 0.23306 0.82359 0.69114 0.0
H770 H 0.25892 0.86475 0.81384 0.0
H771 H 0.14666 0.85252 0.6995 0.0
H772 H 0.23345 0.81621 0.73634 0.0
H773 H 0.13261 0.80563 0.77686 0.0
C774 C 0.16405 0.82263 0.81077 0.0
C775 C 0.19976 0.84033 0.82152 0.0
C776 C 0.21398 0.82349 0.72813 0.0
C777 C 0.19218 0.82995 0.7703 0.0
C778 C 0.21358 0.82748 0.70244 0.0
C779 C 0.18985 0.83876 0.6917 0.0
C780 C 0.18971 0.82975 0.74298 0.0
C781 C 0.16547 0.84395 0.70715 0.0
C782 C 0.16018 0.81785 0.7851 0.0
C783 C 0.23092 0.85102 0.80616 0.0
N784 N 0.16594 0.83932 0.73202 0.0
N785 N 0.22644 0.84562 0.7813 0.0
H786 H 0.61688 0.74081 0.70135 0.0
H787 H 0.69104 0.87006 0.81654 0.0
H788 H 0.66133 0.85957 0.69355 0.0
H789 H 0.59618 0.75881 0.82281 0.0
H790 H 0.68134 0.86776 0.77171 0.0
H791 H 0.60952 0.74636 0.74581 0.0
C792 C 0.62464 0.768 0.70899 0.0
C793 C 0.63986 0.79982 0.6938 0.0
C794 C 0.66204 0.84421 0.78292 0.0
C795 C 0.63225 0.80647 0.74473 0.0
C796 C 0.6675 0.84556 0.80847 0.0
C797 C 0.64408 0.81475 0.82331 0.0
C798 C 0.63382 0.81125 0.77203 0.0
C799 C 0.61444 0.78335 0.81199 0.0
C800 C 0.62026 0.77111 0.73433 0.0
C801 C 0.64936 0.83435 0.70462 0.0
N802 N 0.61062 0.78205 0.78692 0.0
N803 N 0.64614 0.83691 0.72953 0.0
H804 H 0.27878 0.92591 0.97004 0.0
H805 H 0.25613 0.08463 0.0412 0.0
H806 H 0.18906 0.9491 0.95798 0.0
H807 H 0.35694 0.07828 0.04671 0.0
H808 H 0.23156 0.03404 0.01098 0.0
H809 H 0.30702 0.97838 0.99979 0.0
C810 C 0.26454 0.94134 0.97409 0.0
C811 C 0.23123 0.93275 0.96165 0.0
C812 C 0.25934 0.04392 0.01838 0.0
C813 C 0.26381 0.99335 0.9951 0.0
C814 C 0.27358 0.07324 0.03545 0.0
C815 C 0.30901 0.08639 0.04607 0.0
C816 C 0.28018 0.02663 0.01207 0.0
C817 C 0.32992 0.06972 0.03845 0.0
C818 C 0.28096 0.97167 0.99077 0.0
C819 C 0.21459 0.95444 0.96718 0.0
N820 N 0.31507 0.04045 0.02211 0.0
N821 N 0.23097 0.98349 0.98333 0.0
H822 H 0.6976 0.64908 0.45567 0.0
H823 H 0.76252 0.80412 0.56224 0.0
H824 H 0.81209 0.71492 0.47995 0.0
H825 H 0.64756 0.73649 0.53911 0.0
H826 H 0.78093 0.77237 0.5322 0.0
H827 H 0.6788 0.67944 0.48664 0.0
C828 C 0.71882 0.66956 0.46783 0.0
C829 C 0.7566 0.67927 0.46515 0.0
C830 C 0.75171 0.76454 0.53348 0.0
C831 C 0.73505 0.71505 0.50067 0.0
C832 C 0.74104 0.78288 0.5506 0.0
C833 C 0.70324 0.7732 0.55331 0.0
C834 C 0.72452 0.73598 0.51869 0.0
C835 C 0.67699 0.74528 0.53762 0.0
C836 C 0.70799 0.68711 0.48545 0.0
C837 C 0.78266 0.70614 0.48146 0.0
N838 N 0.68809 0.7276 0.52111 0.0
N839 N 0.77145 0.72327 0.49835 0.0
H840 H 0.08457 0.35843 0.96707 0.0
H841 H 0.94185 0.18145 0.04912 0.0
H842 H 0.07193 0.2486 0.9615 0.0
H843 H 0.93102 0.27969 0.04335 0.0
H844 H 0.99244 0.2081 0.01889 0.0
H845 H 0.0333 0.33379 0.99782 0.0
C846 C 0.07183 0.32948 0.97282 0.0
C847 C 0.08305 0.3057 0.96193 0.0
C848 C 0.97884 0.22382 0.02387 0.0
C849 C 0.02374 0.27708 0.99658 0.0
C850 C 0.94959 0.20839 0.04103 0.0
C851 C 0.93151 0.22794 0.0485 0.0
C852 C 0.99113 0.25973 0.01419 0.0
C853 C 0.94349 0.26319 0.03771 0.0
C854 C 0.04212 0.31527 0.99006 0.0
C855 C 0.06459 0.26811 0.96955 0.0
N856 N 0.97276 0.27812 0.02129 0.0
N857 N 0.03614 0.25512 0.98625 0.0
H858 H 0.23539 0.04656 0.4567 0.0
H859 H 0.2988 0.94738 0.55781 0.0
H860 H 0.351 0.08598 0.47494 0.0
H861 H 0.18368 0.90536 0.53712 0.0
H862 H 0.31833 0.99708 0.52715 0.0
H863 H 0.21624 0.99587 0.48643 0.0
C864 C 0.25688 0.04497 0.46725 0.0
C865 C 0.29504 0.07095 0.46325 0.0
C866 C 0.28882 0.97685 0.52902 0.0
C867 C 0.27291 0.01184 0.4974 0.0
C868 C 0.27758 0.94815 0.54643 0.0
C869 C 0.23945 0.92183 0.55001 0.0
C870 C 0.26182 0.97983 0.51501 0.0
C871 C 0.21335 0.92458 0.53481 0.0
C872 C 0.24579 0.01567 0.48416 0.0
C873 C 0.32133 0.06705 0.47753 0.0
N874 N 0.22499 0.95324 0.51815 0.0
N875 N 0.30979 0.03798 0.49384 0.0
H876 H 0.82305 0.72136 0.03622 0.0
H877 H 0.66394 0.76343 0.98431 0.0
H878 H 0.7116 0.67344 0.0664 0.0
H879 H 0.77047 0.80228 0.94859 0.0
H880 H 0.68373 0.73586 0.01725 0.0
H881 H 0.80628 0.75437 1.00524 0.0
C882 C 0.795 0.71732 0.03615 0.0
C883 C 0.76879 0.69442 0.05399 0.0
C884 C 0.70301 0.75091 1.00238 0.0
C885 C 0.74959 0.73285 0.019 0.0
C886 C 0.69186 0.76718 0.98379 0.0
C887 C 0.7156 0.78538 0.96373 0.0
C888 C 0.73816 0.75288 1.0009 0.0
C889 C 0.75124 0.78851 0.96374 0.0
C890 C 0.7855 0.73647 0.01863 0.0
C891 C 0.73293 0.69079 0.05313 0.0
N892 N 0.76129 0.77228 0.98182 0.0
N893 N 0.72453 0.70979 0.03614 0.0
H894 H 0.04536 0.33566 0.55892 0.0
H895 H 0.94908 0.18268 0.45158 0.0
H896 H 0.0884 0.26523 0.5343 0.0
H897 H 0.90752 0.25527 0.47456 0.0
H898 H 0.99977 0.21251 0.4815 0.0
H899 H 0.99674 0.30871 0.52718 0.0
C900 C 0.04518 0.31515 0.54633 0.0
C901 C 0.0715 0.30317 0.54909 0.0
C902 C 0.97953 0.22187 0.48022 0.0
C903 C 0.01454 0.27091 0.51298 0.0
C904 C 0.95021 0.20462 0.46318 0.0
C905 C 0.92354 0.21623 0.46045 0.0
C906 C 0.98274 0.25129 0.49494 0.0
C907 C 0.92695 0.24496 0.47609 0.0
C908 C 0.01705 0.29945 0.52836 0.0
C909 C 0.06933 0.27596 0.53255 0.0
N910 N 0.95603 0.26155 0.49253 0.0
N911 N 0.04118 0.26054 0.51539 0.0
H912 H 0.58729 0.0909 0.08298 0.0
H913 H 0.46584 0.17636 0.13933 0.0
H914 H 0.63228 0.19016 0.12821 0.0
H915 H 0.41539 0.07381 0.09738 0.0
H916 H 0.52617 0.17963 0.13616 0.0
H917 H 0.52445 0.08238 0.08857 0.0
C918 C 0.58414 0.11083 0.09425 0.0
C919 C 0.61572 0.14146 0.10508 0.0
C920 C 0.50204 0.15621 0.12772 0.0
C921 C 0.54315 0.13184 0.11133 0.0
C922 C 0.46729 0.15423 0.12953 0.0
C923 C 0.43511 0.12477 0.11854 0.0
C924 C 0.50538 0.12867 0.1146 0.0
C925 C 0.43922 0.09695 0.10627 0.0
C926 C 0.54807 0.10595 0.09731 0.0
C927 C 0.60933 0.16647 0.1191 0.0
N928 N 0.47371 0.09974 0.10446 0.0
N929 N 0.57408 0.16111 0.12175 0.0
H930 H 0.71749 0.53046 0.37919 0.0
H931 H 0.496 0.41249 0.40235 0.0
H932 H 0.65081 0.58339 0.3881 0.0
H933 H 0.56519 0.36361 0.3874 0.0
H934 H 0.55038 0.47473 0.39529 0.0
H935 H 0.66075 0.46948 0.37975 0.0
C936 C 0.69074 0.52927 0.38093 0.0
C937 C 0.68907 0.56228 0.38361 0.0
C938 C 0.55358 0.45036 0.39344 0.0
C939 C 0.62324 0.49167 0.38481 0.0
C940 C 0.52242 0.41463 0.39736 0.0
C941 C 0.52569 0.38228 0.39564 0.0
C942 C 0.58855 0.4541 0.38773 0.0
C943 C 0.56109 0.38739 0.38944 0.0
C944 C 0.65821 0.49426 0.38134 0.0
C945 C 0.65347 0.55877 0.38577 0.0
N946 N 0.59089 0.42236 0.38583 0.0
N947 N 0.622 0.5241 0.38662 0.0
H948 H 0.93826 0.34602 0.10251 0.0
H949 H 0.81218 0.44137 0.12907 0.0
H950 H 0.82872 0.28976 0.13606 0.0
H951 H 0.91604 0.4974 0.08847 0.0
H952 H 0.8211 0.38763 0.13456 0.0
H953 H 0.93412 0.40356 0.10002 0.0
C954 C 0.91361 0.3458 0.10961 0.0
C955 C 0.88377 0.31274 0.1194 0.0
C956 C 0.84206 0.41168 0.12447 0.0
C957 C 0.87871 0.37848 0.11651 0.0
C958 C 0.83706 0.44264 0.12145 0.0
C959 C 0.86326 0.47428 0.10819 0.0
C960 C 0.87363 0.41198 0.11429 0.0
C961 C 0.89469 0.47359 0.0985 0.0
C962 C 0.91113 0.37861 0.10805 0.0
C963 C 0.85239 0.31427 0.12815 0.0
N964 N 0.89896 0.44309 0.10172 0.0
N965 N 0.85071 0.34629 0.12646 0.0
H966 H 0.45515 0.16409 0.37066 0.0
H967 H 0.57877 0.08346 0.43042 0.0
H968 H 0.40614 0.06391 0.41503 0.0
H969 H 0.62211 0.17781 0.38078 0.0
H970 H 0.51581 0.07465 0.42496 0.0
H971 H 0.51567 0.16755 0.37358 0.0
C972 C 0.45697 0.14251 0.38092 0.0
C973 C 0.42514 0.11365 0.39266 0.0
C974 C 0.53906 0.09717 0.41518 0.0
C975 C 0.49561 0.11783 0.39637 0.0
C976 C 0.57526 0.10247 0.41841 0.0
C977 C 0.60638 0.13165 0.40615 0.0
C978 C 0.53352 0.12127 0.39963 0.0
C979 C 0.59937 0.15471 0.39049 0.0
C980 C 0.4918 0.14458 0.38259 0.0
C981 C 0.42967 0.08653 0.40554 0.0
N982 N 0.56401 0.14915 0.38783 0.0
N983 N 0.46424 0.08947 0.40724 0.0
H984 H 0.57321 0.3716 0.12426 0.0
H985 H 0.65964 0.59476 0.1327 0.0
H986 H 0.50515 0.42358 0.11774 0.0
H987 H 0.72423 0.53882 0.13449 0.0
H988 H 0.60185 0.53302 0.1316 0.0
H989 H 0.62762 0.43285 0.13219 0.0
C990 C 0.56944 0.39574 0.12476 0.0
C991 C 0.53415 0.39195 0.12019 0.0
C992 C 0.62871 0.53436 0.13252 0.0
C993 C 0.59729 0.4632 0.129 0.0
C994 C 0.66169 0.56962 0.13339 0.0
C995 C 0.69694 0.5721 0.13359 0.0
C996 C 0.63106 0.5014 0.13203 0.0
C997 C 0.69779 0.53844 0.13413 0.0
C998 C 0.60078 0.43097 0.12914 0.0
C999 C 0.53171 0.42487 0.12072 0.0
N1000 N 0.66561 0.50481 0.13321 0.0
N1001 N 0.56273 0.45895 0.12493 0.0
H1002 H 0.80532 0.43362 0.38449 0.0
H1003 H 0.92896 0.3355 0.41109 0.0
H1004 H 0.90707 0.48689 0.42742 0.0
H1005 H 0.8216 0.28213 0.37461 0.0
H1006 H 0.92508 0.39313 0.41462 0.0
H1007 H 0.81426 0.38004 0.37814 0.0
C1008 C 0.82975 0.43433 0.39245 0.0
C1009 C 0.85534 0.46517 0.4066 0.0
C1010 C 0.90252 0.3688 0.40572 0.0
C1011 C 0.86572 0.40298 0.39952 0.0
C1012 C 0.90486 0.33595 0.40356 0.0
C1013 C 0.87552 0.30364 0.39265 0.0
C1014 C 0.87075 0.36948 0.39672 0.0
C1015 C 0.84484 0.30602 0.38339 0.0
C1016 C 0.83476 0.40345 0.38893 0.0
C1017 C 0.88618 0.46372 0.41669 0.0
N1018 N 0.84328 0.33805 0.38568 0.0
N1019 N 0.89047 0.4333 0.41298 0.0
H1020 H 0.16391 0.60695 0.57213 0.0
H1021 H 0.10226 0.42617 0.65779 0.0
H1022 H 0.11999 0.60061 0.64549 0.0
H1023 H 0.12316 0.43182 0.57936 0.0
H1024 H 0.10945 0.48942 0.65563 0.0
H1025 H 0.15176 0.54333 0.57652 0.0
C1026 C 0.15139 0.59222 0.58917 0.0
C1027 C 0.14255 0.60959 0.60827 0.0
C1028 C 0.11211 0.47651 0.63892 0.0
C1029 C 0.12898 0.53557 0.61369 0.0
C1030 C 0.1077 0.44027 0.64012 0.0
C1031 C 0.11226 0.42345 0.61877 0.0
C1032 C 0.12129 0.49603 0.61624 0.0
C1033 C 0.11975 0.44347 0.59643 0.0
C1034 C 0.14458 0.55563 0.59172 0.0
C1035 C 0.12751 0.58878 0.63021 0.0
N1036 N 0.12423 0.47838 0.59584 0.0
N1037 N 0.12118 0.55298 0.6323 0.0
H1038 H 0.34814 0.93757 0.91059 0.0
H1039 H 0.44656 0.81616 0.8781 0.0
H1040 H 0.29419 0.83117 0.87306 0.0
H1041 H 0.49761 0.91119 0.92721 0.0
H1042 H 0.39355 0.8261 0.87282 0.0
H1043 H 0.40585 0.93353 0.91335 0.0
C1044 C 0.34849 0.91367 0.90264 0.0
C1045 C 0.31599 0.88464 0.89164 0.0
C1046 C 0.41632 0.84491 0.88475 0.0
C1047 C 0.38197 0.87976 0.89479 0.0
C1048 C 0.44674 0.83909 0.88793 0.0
C1049 C 0.47687 0.86246 0.90345 0.0
C1050 C 0.4155 0.87455 0.89701 0.0
C1051 C 0.47538 0.89241 0.91496 0.0
C1052 C 0.38139 0.91124 0.90437 0.0
C1053 C 0.31824 0.85419 0.88188 0.0
N1054 N 0.44527 0.89745 0.91162 0.0
N1055 N 0.35034 0.8526 0.88371 0.0
H1056 H 0.59271 0.65776 0.6011 0.0
H1057 H 0.37379 0.55482 0.63744 0.0
H1058 H 0.54074 0.70822 0.64321 0.0
H1059 H 0.4166 0.5096 0.58283 0.0
H1060 H 0.43672 0.60776 0.64298 0.0
H1061 H 0.53105 0.60007 0.59775 0.0
C1062 C 0.5686 0.65661 0.60995 0.0
C1063 C 0.57217 0.68815 0.62242 0.0
C1064 C 0.43249 0.58628 0.62978 0.0
C1065 C 0.50136 0.62217 0.61859 0.0
C1066 C 0.39623 0.5559 0.62644 0.0
C1067 C 0.3891 0.52737 0.60934 0.0
C1068 C 0.46262 0.58866 0.6161 0.0
C1069 C 0.42027 0.53047 0.59635 0.0
C1070 C 0.53331 0.62374 0.60787 0.0
C1071 C 0.53962 0.68492 0.63326 0.0
N1072 N 0.45542 0.56046 0.59991 0.0
N1073 N 0.50596 0.65285 0.63109 0.0
H1074 H 0.1994 0.63682 0.88544 0.0
H1075 H 0.07299 0.41425 0.90778 0.0
H1076 H 0.09223 0.58686 0.92215 0.0
H1077 H 0.18275 0.46906 0.87453 0.0
H1078 H 0.07659 0.47566 0.91107 0.0
H1079 H 0.19103 0.57454 0.8792 0.0
C1080 C 0.17389 0.61285 0.89203 0.0
C1081 C 0.1466 0.61766 0.90442 0.0
C1082 C 0.09975 0.47409 0.90292 0.0
C1083 C 0.13691 0.54525 0.89751 0.0
C1084 C 0.09758 0.43895 0.9009 0.0
C1085 C 0.12763 0.43618 0.89095 0.0
C1086 C 0.1321 0.50676 0.8948 0.0
C1087 C 0.1589 0.46947 0.88253 0.0
C1088 C 0.16921 0.57707 0.88858 0.0
C1089 C 0.11444 0.58498 0.91283 0.0
N1090 N 0.16029 0.503 0.88471 0.0
N1091 N 0.11054 0.55039 0.90926 0.0
H1092 H 0.28179 0.81572 0.63624 0.0
H1093 H 0.50262 0.91751 0.60998 0.0
H1094 H 0.3481 0.93467 0.62446 0.0
H1095 H 0.43329 0.79997 0.62629 0.0
H1096 H 0.44854 0.92592 0.61719 0.0
H1097 H 0.33844 0.81127 0.63518 0.0
C1098 C 0.30847 0.84112 0.63377 0.0
C1099 C 0.31002 0.87565 0.63045 0.0
C1100 C 0.44524 0.89834 0.61929 0.0
C1101 C 0.37577 0.8706 0.62865 0.0
C1102 C 0.47624 0.89345 0.61528 0.0
C1103 C 0.47286 0.85782 0.61736 0.0
C1104 C 0.41032 0.86742 0.62547 0.0
C1105 C 0.4375 0.82785 0.62397 0.0
C1106 C 0.34094 0.83851 0.63306 0.0
C1107 C 0.34553 0.90753 0.62734 0.0
N1108 N 0.40788 0.83333 0.62768 0.0
N1109 N 0.37695 0.90419 0.62622 0.0
H1110 H 0.58584 0.67566 0.85908 0.0
H1111 H 0.39449 0.56701 0.93707 0.0
H1112 H 0.57003 0.70255 0.93355 0.0
H1113 H 0.41112 0.5187 0.87092 0.0
H1114 H 0.45802 0.61908 0.93341 0.0
H1115 H 0.52227 0.62 0.86064 0.0
C1116 C 0.56939 0.66982 0.87579 0.0
C1117 C 0.58373 0.69424 0.89617 0.0
C1118 C 0.448 0.59713 0.91965 0.0
C1119 C 0.5106 0.63089 0.89793 0.0
C1120 C 0.41145 0.56697 0.92181 0.0
C1121 C 0.39692 0.53752 0.90455 0.0
C1122 C 0.47095 0.59875 0.8999 0.0
C1123 C 0.42062 0.54052 0.88472 0.0
C1124 C 0.53299 0.6381 0.87663 0.0
C1125 C 0.56064 0.68506 0.91723 0.0
N1126 N 0.45632 0.57039 0.88297 0.0
N1127 N 0.52562 0.65464 0.91744 0.0
loop_
_geom_bond_atom_site_label_1
_geom_bond_atom_site_label_2
_geom_bond_distance
_geom_bond_site_symmetry_2
_ccdc_geom_bond_type
Dy0 O3 2.307 . S
Dy0 O5 2.395 . S
Dy0 O6 2.379 . S
Dy0 O8 2.339 . S
Dy0 O10 2.298 . S
Dy0 O14 2.275 . S
Dy0 C22 2.738 . S
Dy1 O4 2.298 . S
Dy1 O7 2.275 . S
Dy1 O9 2.307 . S
Dy1 O11 2.395 . S
Dy1 O12 2.379 . S
Dy1 O15 2.339 . S
Dy1 C31 2.738 . S
C2 O14 1.254 . S
C2 O15 1.257 . S
O3 Dy0 2.307 . S
O3 C13 1.266 . S
O4 Dy1 2.298 . S
O4 C13 1.236 . S
O5 Dy0 2.395 . S
O5 C22 1.255 . S
O6 Dy0 2.379 . S
O6 C22 1.249 . S
O7 Dy1 2.275 . S
O7 C23 1.254 . S
O8 Dy0 2.339 . S
O8 C23 1.257 . S
O9 Dy1 2.307 . S
O9 C24 1.266 . S
O10 Dy0 2.298 . S
O10 C24 1.236 . S
O11 Dy1 2.395 . S
O11 C31 1.255 . S
O12 Dy1 2.379 . S
O12 C31 1.249 . S
C13 O3 1.266 . S
C13 O4 1.236 . S
O14 Dy0 2.275 . S
O14 C2 1.254 . S
O15 Dy1 2.339 . S
O15 C2 1.257 . S
C16 C19 1.344 . S
C16 C20 1.328 . S
C16 C22 1.516 1_565 S
C17 C18 1.304 . S
C17 C21 1.323 . S
C18 C17 1.304 . S
C18 C19 1.371 . S
C18 H32 0.930 . S
C19 C16 1.344 . S
C19 C18 1.371 . S
C19 H33 0.931 . S
C20 C16 1.328 . S
C20 C21 1.433 . S
C20 H34 0.931 . S
C21 C17 1.323 . S
C21 C20 1.433 . S
C21 H35 0.933 . S
C22 Dy0 2.738 . S
C22 O5 1.255 . S
C22 O6 1.249 . S
C22 C16 1.516 1_545 S
C23 O7 1.254 . S
C23 O8 1.257 . S
C24 O9 1.266 . S
C24 O10 1.236 . S
C25 C28 1.344 . S
C25 C29 1.328 . S
C25 C31 1.516 . S
C26 C27 1.304 . S
C26 C30 1.323 . S
C27 C26 1.304 . S
C27 C28 1.371 . S
C27 H36 0.930 . S
C28 C25 1.344 . S
C28 C27 1.371 . S
C28 H37 0.931 . S
C29 C25 1.328 . S
C29 C30 1.433 . S
C29 H38 0.931 . S
C30 C26 1.323 . S
C30 C29 1.433 . S
C30 H39 0.933 . S
C31 Dy1 2.738 . S
C31 O11 1.255 . S
C31 O12 1.249 . S
C31 C25 1.516 . S
H32 C18 0.930 . S
H33 C19 0.931 . S
H34 C20 0.931 . S
H35 C21 0.933 . S
H36 C27 0.930 . S
H37 C28 0.931 . S
H38 C29 0.931 . S
H39 C30 0.933 . S
Dy40 O43 2.307 . S
Dy40 O45 2.395 . S
Dy40 O46 2.379 . S
Dy40 O48 2.339 . S
Dy40 O50 2.298 . S
Dy40 O54 2.275 . S
Dy40 C62 2.738 . S
Dy41 O44 2.298 . S
Dy41 O47 2.275 . S
Dy41 O49 2.307 . S
Dy41 O51 2.395 . S
Dy41 O52 2.379 . S
Dy41 O55 2.339 . S
Dy41 C71 2.738 . S
C42 O54 1.254 . S
C42 O55 1.257 . S
O43 Dy40 2.307 . S
O43 C53 1.266 . S
O44 Dy41 2.298 . S
O44 C53 1.236 . S
O45 Dy40 2.395 . S
O45 C62 1.255 . S
O46 Dy40 2.379 . S
O46 C62 1.249 . S
O47 Dy41 2.275 . S
O47 C63 1.254 . S
O48 Dy40 2.339 . S
O48 C63 1.257 . S
O49 Dy41 2.307 . S
O49 C64 1.266 . S
O50 Dy40 2.298 . S
O50 C64 1.236 . S
O51 Dy41 2.395 . S
O51 C71 1.255 . S
O52 Dy41 2.379 . S
O52 C71 1.249 . S
C53 O43 1.266 . S
C53 O44 1.236 . S
O54 Dy40 2.275 . S
O54 C42 1.254 . S
O55 Dy41 2.339 . S
O55 C42 1.257 . S
C56 C59 1.344 . S
C56 C60 1.328 . S
C56 C62 1.516 . S
C57 C58 1.304 . S
C57 C61 1.323 . S
C58 C57 1.304 . S
C58 C59 1.371 . S
C58 H72 0.930 . S
C59 C56 1.344 . S
C59 C58 1.371 . S
C59 H73 0.931 . S
C60 C56 1.328 . S
C60 C61 1.433 . S
C60 H74 0.931 . S
C61 C57 1.323 . S
C61 C60 1.433 . S
C61 H75 0.933 . S
C62 Dy40 2.738 . S
C62 O45 1.255 . S
C62 O46 1.249 . S
C62 C56 1.516 . S
C63 O47 1.254 . S
C63 O48 1.257 . S
C64 O49 1.266 . S
C64 O50 1.236 . S
C65 C68 1.344 . S
C65 C69 1.328 . S
C65 C71 1.516 . S
C66 C67 1.304 . S
C66 C70 1.323 . S
C67 C66 1.304 . S
C67 C68 1.371 . S
C67 H76 0.930 . S
C68 C65 1.344 . S
C68 C67 1.371 . S
C68 H77 0.931 . S
C69 C65 1.328 . S
C69 C70 1.433 . S
C69 H78 0.931 . S
C70 C66 1.323 . S
C70 C69 1.433 . S
C70 H79 0.933 . S
C71 Dy41 2.738 . S
C71 O51 1.255 . S
C71 O52 1.249 . S
C71 C65 1.516 . S
H72 C58 0.930 . S
H73 C59 0.931 . S
H74 C60 0.931 . S
H75 C61 0.933 . S
H76 C67 0.930 . S
H77 C68 0.931 . S
H78 C69 0.931 . S
H79 C70 0.933 . S
Dy80 O83 2.307 . S
Dy80 O85 2.395 . S
Dy80 O86 2.379 . S
Dy80 O88 2.339 . S
Dy80 O90 2.298 . S
Dy80 O94 2.275 . S
Dy80 C102 2.738 . S
Dy81 O84 2.298 . S
Dy81 O87 2.275 . S
Dy81 O89 2.307 . S
Dy81 O91 2.395 . S
Dy81 O92 2.379 . S
Dy81 O95 2.339 . S
Dy81 C111 2.738 . S
C82 O94 1.254 . S
C82 O95 1.257 . S
O83 Dy80 2.307 . S
O83 C93 1.266 . S
O84 Dy81 2.298 . S
O84 C93 1.236 . S
O85 Dy80 2.395 . S
O85 C102 1.255 . S
O86 Dy80 2.379 . S
O86 C102 1.249 . S
O87 Dy81 2.275 . S
O87 C103 1.254 . S
O88 Dy80 2.339 . S
O88 C103 1.257 . S
O89 Dy81 2.307 . S
O89 C104 1.266 . S
O90 Dy80 2.298 . S
O90 C104 1.236 . S
O91 Dy81 2.395 . S
O91 C111 1.255 . S
O92 Dy81 2.379 . S
O92 C111 1.249 . S
C93 O83 1.266 . S
C93 O84 1.236 . S
O94 Dy80 2.275 . S
O94 C82 1.254 . S
O95 Dy81 2.339 . S
O95 C82 1.257 . S
C96 C99 1.344 . S
C96 C100 1.328 . S
C96 C102 1.516 1_455 S
C97 C98 1.304 . S
C97 C101 1.323 . S
C98 C97 1.304 . S
C98 C99 1.371 . S
C98 H112 0.930 . S
C99 C96 1.344 . S
C99 C98 1.371 . S
C99 H113 0.931 . S
C100 C96 1.328 . S
C100 C101 1.433 . S
C100 H114 0.931 . S
C101 C97 1.323 . S
C101 C100 1.433 . S
C101 H115 0.933 . S
C102 Dy80 2.738 . S
C102 O85 1.255 . S
C102 O86 1.249 . S
C102 C96 1.516 1_655 S
C103 O87 1.254 . S
C103 O88 1.257 . S
C104 O89 1.266 . S
C104 O90 1.236 . S
C105 C108 1.344 . S
C105 C109 1.328 . S
C105 C111 1.516 . S
C106 C107 1.304 . S
C106 C110 1.323 . S
C107 C106 1.304 . S
C107 C108 1.371 . S
C107 H116 0.930 . S
C108 C105 1.344 . S
C108 C107 1.371 . S
C108 H117 0.931 . S
C109 C105 1.328 . S
C109 C110 1.433 . S
C109 H118 0.931 . S
C110 C106 1.323 . S
C110 C109 1.433 . S
C110 H119 0.933 . S
C111 Dy81 2.738 . S
C111 O91 1.255 . S
C111 O92 1.249 . S
C111 C105 1.516 . S
H112 C98 0.930 . S
H113 C99 0.931 . S
H114 C100 0.931 . S
H115 C101 0.933 . S
H116 C107 0.930 . S
H117 C108 0.931 . S
H118 C109 0.931 . S
H119 C110 0.933 . S
Dy120 O123 2.307 . S
Dy120 O125 2.395 . S
Dy120 O126 2.379 . S
Dy120 O128 2.339 . S
Dy120 O130 2.298 . S
Dy120 O134 2.275 . S
Dy120 C142 2.738 . S
Dy121 O124 2.298 . S
Dy121 O127 2.275 . S
Dy121 O129 2.307 . S
Dy121 O131 2.395 . S
Dy121 O132 2.379 . S
Dy121 O135 2.339 . S
Dy121 C151 2.738 . S
C122 O134 1.254 . S
C122 O135 1.257 . S
O123 Dy120 2.307 . S
O123 C133 1.266 . S
O124 Dy121 2.298 . S
O124 C133 1.236 . S
O125 Dy120 2.395 . S
O125 C142 1.255 . S
O126 Dy120 2.379 . S
O126 C142 1.249 . S
O127 Dy121 2.275 . S
O127 C143 1.254 . S
O128 Dy120 2.339 . S
O128 C143 1.257 . S
O129 Dy121 2.307 . S
O129 C144 1.266 . S
O130 Dy120 2.298 . S
O130 C144 1.236 . S
O131 Dy121 2.395 . S
O131 C151 1.255 . S
O132 Dy121 2.379 . S
O132 C151 1.249 . S
C133 O123 1.266 . S
C133 O124 1.236 . S
O134 Dy120 2.275 . S
O134 C122 1.254 . S
O135 Dy121 2.339 . S
O135 C122 1.257 . S
C136 C139 1.344 . S
C136 C140 1.328 . S
C136 C142 1.516 . S
C137 C138 1.304 . S
C137 C141 1.323 . S
C138 C137 1.304 . S
C138 C139 1.371 . S
C138 H152 0.930 . S
C139 C136 1.344 . S
C139 C138 1.371 . S
C139 H153 0.931 . S
C140 C136 1.328 . S
C140 C141 1.433 . S
C140 H154 0.931 . S
C141 C137 1.323 . S
C141 C140 1.433 . S
C141 H155 0.933 . S
C142 Dy120 2.738 . S
C142 O125 1.255 . S
C142 O126 1.249 . S
C142 C136 1.516 . S
C143 O127 1.254 . S
C143 O128 1.257 . S
C144 O129 1.266 . S
C144 O130 1.236 . S
C145 C148 1.344 . S
C145 C149 1.328 . S
C145 C151 1.516 1_565 S
C146 C147 1.304 . S
C146 C150 1.323 . S
C147 C146 1.304 . S
C147 C148 1.371 . S
C147 H156 0.930 . S
C148 C145 1.344 . S
C148 C147 1.371 . S
C148 H157 0.931 . S
C149 C145 1.328 . S
C149 C150 1.433 . S
C149 H158 0.931 . S
C150 C146 1.323 . S
C150 C149 1.433 . S
C150 H159 0.933 . S
C151 Dy121 2.738 . S
C151 O131 1.255 . S
C151 O132 1.249 . S
C151 C145 1.516 1_545 S
H152 C138 0.930 . S
H153 C139 0.931 . S
H154 C140 0.931 . S
H155 C141 0.933 . S
H156 C147 0.930 . S
H157 C148 0.931 . S
H158 C149 0.931 . S
H159 C150 0.933 . S
Dy160 O163 2.307 . S
Dy160 O165 2.395 . S
Dy160 O166 2.379 . S
Dy160 O168 2.339 . S
Dy160 O170 2.298 . S
Dy160 O174 2.275 . S
Dy160 C182 2.738 . S
Dy161 O164 2.298 . S
Dy161 O167 2.275 . S
Dy161 O169 2.307 . S
Dy161 O171 2.395 . S
Dy161 O172 2.379 . S
Dy161 O175 2.339 . S
Dy161 C191 2.738 . S
C162 O174 1.254 . S
C162 O175 1.257 . S
O163 Dy160 2.307 . S
O163 C173 1.266 . S
O164 Dy161 2.298 . S
O164 C173 1.236 . S
O165 Dy160 2.395 . S
O165 C182 1.255 . S
O166 Dy160 2.379 . S
O166 C182 1.249 . S
O167 Dy161 2.275 . S
O167 C183 1.254 . S
O168 Dy160 2.339 . S
O168 C183 1.257 . S
O169 Dy161 2.307 . S
O169 C184 1.266 . S
O170 Dy160 2.298 . S
O170 C184 1.236 . S
O171 Dy161 2.395 . S
O171 C191 1.255 . S
O172 Dy161 2.379 . S
O172 C191 1.249 . S
C173 O163 1.266 . S
C173 O164 1.236 . S
O174 Dy160 2.275 . S
O174 C162 1.254 . S
O175 Dy161 2.339 . S
O175 C162 1.257 . S
C176 C179 1.344 . S
C176 C180 1.328 . S
C176 C182 1.516 . S
C177 C178 1.304 . S
C177 C181 1.323 . S
C178 C177 1.304 . S
C178 C179 1.371 . S
C178 H192 0.930 . S
C179 C176 1.344 . S
C179 C178 1.371 . S
C179 H193 0.931 . S
C180 C176 1.328 . S
C180 C181 1.433 . S
C180 H194 0.931 . S
C181 C177 1.323 . S
C181 C180 1.433 . S
C181 H195 0.933 . S
C182 Dy160 2.738 . S
C182 O165 1.255 . S
C182 O166 1.249 . S
C182 C176 1.516 . S
C183 O167 1.254 . S
C183 O168 1.257 . S
C184 O169 1.266 . S
C184 O170 1.236 . S
C185 C188 1.344 . S
C185 C189 1.328 . S
C185 C191 1.516 . S
C186 C187 1.304 . S
C186 C190 1.323 . S
C187 C186 1.304 . S
C187 C188 1.371 . S
C187 H196 0.930 . S
C188 C185 1.344 . S
C188 C187 1.371 . S
C188 H197 0.931 . S
C189 C185 1.328 . S
C189 C190 1.433 . S
C189 H198 0.931 . S
C190 C186 1.323 . S
C190 C189 1.433 . S
C190 H199 0.933 . S
C191 Dy161 2.738 . S
C191 O171 1.255 . S
C191 O172 1.249 . S
C191 C185 1.516 . S
H192 C178 0.930 . S
H193 C179 0.931 . S
H194 C180 0.931 . S
H195 C181 0.933 . S
H196 C187 0.930 . S
H197 C188 0.931 . S
H198 C189 0.931 . S
H199 C190 0.933 . S
Dy200 O203 2.307 . S
Dy200 O205 2.395 . S
Dy200 O206 2.379 . S
Dy200 O208 2.339 . S
Dy200 O210 2.298 . S
Dy200 O214 2.275 . S
Dy200 C222 2.738 . S
Dy201 O204 2.298 . S
Dy201 O207 2.275 . S
Dy201 O209 2.307 . S
Dy201 O211 2.395 . S
Dy201 O212 2.379 . S
Dy201 O215 2.339 . S
Dy201 C231 2.738 . S
C202 O214 1.254 . S
C202 O215 1.257 . S
O203 Dy200 2.307 . S
O203 C213 1.266 . S
O204 Dy201 2.298 . S
O204 C213 1.236 . S
O205 Dy200 2.395 . S
O205 C222 1.255 . S
O206 Dy200 2.379 . S
O206 C222 1.249 . S
O207 Dy201 2.275 . S
O207 C223 1.254 . S
O208 Dy200 2.339 . S
O208 C223 1.257 . S
O209 Dy201 2.307 . S
O209 C224 1.266 . S
O210 Dy200 2.298 . S
O210 C224 1.236 . S
O211 Dy201 2.395 . S
O211 C231 1.255 . S
O212 Dy201 2.379 . S
O212 C231 1.249 . S
C213 O203 1.266 . S
C213 O204 1.236 . S
O214 Dy200 2.275 . S
O214 C202 1.254 . S
O215 Dy201 2.339 . S
O215 C202 1.257 . S
C216 C219 1.344 . S
C216 C220 1.328 . S
C216 C222 1.516 . S
C217 C218 1.304 . S
C217 C221 1.323 . S
C218 C217 1.304 . S
C218 C219 1.371 . S
C218 H232 0.930 . S
C219 C216 1.344 . S
C219 C218 1.371 . S
C219 H233 0.931 . S
C220 C216 1.328 . S
C220 C221 1.433 . S
C220 H234 0.931 . S
C221 C217 1.323 . S
C221 C220 1.433 . S
C221 H235 0.933 . S
C222 Dy200 2.738 . S
C222 O205 1.255 . S
C222 O206 1.249 . S
C222 C216 1.516 . S
C223 O207 1.254 . S
C223 O208 1.257 . S
C224 O209 1.266 . S
C224 O210 1.236 . S
C225 C228 1.344 . S
C225 C229 1.328 . S
C225 C231 1.516 1_455 S
C226 C227 1.304 . S
C226 C230 1.323 . S
C227 C226 1.304 . S
C227 C228 1.371 . S
C227 H236 0.930 . S
C228 C225 1.344 . S
C228 C227 1.371 . S
C228 H237 0.931 . S
C229 C225 1.328 . S
C229 C230 1.433 . S
C229 H238 0.931 . S
C230 C226 1.323 . S
C230 C229 1.433 . S
C230 H239 0.933 . S
C231 Dy201 2.738 . S
C231 O211 1.255 . S
C231 O212 1.249 . S
C231 C225 1.516 1_655 S
H232 C218 0.930 . S
H233 C219 0.931 . S
H234 C220 0.931 . S
H235 C221 0.933 . S
H236 C227 0.930 . S
H237 C228 0.931 . S
H238 C229 0.931 . S
H239 C230 0.933 . S
Dy240 O243 2.307 . S
Dy240 O245 2.395 . S
Dy240 O246 2.379 . S
Dy240 O248 2.339 . S
Dy240 O250 2.298 . S
Dy240 O254 2.275 . S
Dy240 C262 2.738 . S
Dy241 O244 2.298 . S
Dy241 O247 2.275 . S
Dy241 O249 2.307 . S
Dy241 O251 2.395 . S
Dy241 O252 2.379 . S
Dy241 O255 2.339 . S
Dy241 C271 2.738 . S
C242 O254 1.254 . S
C242 O255 1.257 . S
O243 Dy240 2.307 . S
O243 C253 1.266 . S
O244 Dy241 2.298 . S
O244 C253 1.236 . S
O245 Dy240 2.395 . S
O245 C262 1.255 . S
O246 Dy240 2.379 . S
O246 C262 1.249 . S
O247 Dy241 2.275 . S
O247 C263 1.254 . S
O248 Dy240 2.339 . S
O248 C263 1.257 . S
O249 Dy241 2.307 . S
O249 C264 1.266 . S
O250 Dy240 2.298 . S
O250 C264 1.236 . S
O251 Dy241 2.395 . S
O251 C271 1.255 . S
O252 Dy241 2.379 . S
O252 C271 1.249 . S
C253 O243 1.266 . S
C253 O244 1.236 . S
O254 Dy240 2.275 . S
O254 C242 1.254 . S
O255 Dy241 2.339 . S
O255 C242 1.257 . S
C256 C259 1.344 . S
C256 C260 1.328 . S
C256 C262 1.516 . S
C257 C258 1.304 . S
C257 C261 1.323 . S
C258 C257 1.304 . S
C258 C259 1.371 . S
C258 H272 0.930 . S
C259 C256 1.344 . S
C259 C258 1.371 . S
C259 H273 0.931 . S
C260 C256 1.328 . S
C260 C261 1.433 . S
C260 H274 0.931 . S
C261 C257 1.323 . S
C261 C260 1.433 . S
C261 H275 0.933 . S
C262 Dy240 2.738 . S
C262 O245 1.255 . S
C262 O246 1.249 . S
C262 C256 1.516 . S
C263 O247 1.254 . S
C263 O248 1.257 . S
C264 O249 1.266 . S
C264 O250 1.236 . S
C265 C268 1.344 . S
C265 C269 1.328 . S
C265 C271 1.516 1_655 S
C266 C267 1.304 . S
C266 C270 1.323 . S
C267 C266 1.304 . S
C267 C268 1.371 . S
C267 H276 0.930 . S
C268 C265 1.344 . S
C268 C267 1.371 . S
C268 H277 0.931 . S
C269 C265 1.328 . S
C269 C270 1.433 . S
C269 H278 0.931 . S
C270 C266 1.323 . S
C270 C269 1.433 . S
C270 H279 0.933 . S
C271 Dy241 2.738 . S
C271 O251 1.255 . S
C271 O252 1.249 . S
C271 C265 1.516 1_455 S
H272 C258 0.930 . S
H273 C259 0.931 . S
H274 C260 0.931 . S
H275 C261 0.933 . S
H276 C267 0.930 . S
H277 C268 0.931 . S
H278 C269 0.931 . S
H279 C270 0.933 . S
Dy280 O283 2.307 . S
Dy280 O285 2.395 . S
Dy280 O286 2.379 . S
Dy280 O288 2.339 . S
Dy280 O290 2.298 . S
Dy280 O294 2.275 . S
Dy280 C302 2.738 . S
Dy281 O284 2.298 . S
Dy281 O287 2.275 . S
Dy281 O289 2.307 . S
Dy281 O291 2.395 . S
Dy281 O292 2.379 . S
Dy281 O295 2.339 . S
Dy281 C311 2.738 . S
C282 O294 1.254 . S
C282 O295 1.257 . S
O283 Dy280 2.307 . S
O283 C293 1.266 . S
O284 Dy281 2.298 . S
O284 C293 1.236 . S
O285 Dy280 2.395 . S
O285 C302 1.255 . S
O286 Dy280 2.379 . S
O286 C302 1.249 . S
O287 Dy281 2.275 . S
O287 C303 1.254 . S
O288 Dy280 2.339 . S
O288 C303 1.257 . S
O289 Dy281 2.307 . S
O289 C304 1.266 . S
O290 Dy280 2.298 . S
O290 C304 1.236 . S
O291 Dy281 2.395 . S
O291 C311 1.255 . S
O292 Dy281 2.379 . S
O292 C311 1.249 . S
C293 O283 1.266 . S
C293 O284 1.236 . S
O294 Dy280 2.275 . S
O294 C282 1.254 . S
O295 Dy281 2.339 . S
O295 C282 1.257 . S
C296 C299 1.344 . S
C296 C300 1.328 . S
C296 C302 1.516 1_545 S
C297 C298 1.304 . S
C297 C301 1.323 . S
C298 C297 1.304 . S
C298 C299 1.371 . S
C298 H312 0.930 . S
C299 C296 1.344 . S
C299 C298 1.371 . S
C299 H313 0.931 . S
C300 C296 1.328 . S
C300 C301 1.433 . S
C300 H314 0.931 . S
C301 C297 1.323 . S
C301 C300 1.433 . S
C301 H315 0.933 . S
C302 Dy280 2.738 . S
C302 O285 1.255 . S
C302 O286 1.249 . S
C302 C296 1.516 1_565 S
C303 O287 1.254 . S
C303 O288 1.257 . S
C304 O289 1.266 . S
C304 O290 1.236 . S
C305 C308 1.344 . S
C305 C309 1.328 . S
C305 C311 1.516 . S
C306 C307 1.304 . S
C306 C310 1.323 . S
C307 C306 1.304 . S
C307 C308 1.371 . S
C307 H316 0.930 . S
C308 C305 1.344 . S
C308 C307 1.371 . S
C308 H317 0.931 . S
C309 C305 1.328 . S
C309 C310 1.433 . S
C309 H318 0.931 . S
C310 C306 1.323 . S
C310 C309 1.433 . S
C310 H319 0.933 . S
C311 Dy281 2.738 . S
C311 O291 1.255 . S
C311 O292 1.249 . S
C311 C305 1.516 . S
H312 C298 0.930 . S
H313 C299 0.931 . S
H314 C300 0.931 . S
H315 C301 0.933 . S
H316 C307 0.930 . S
H317 C308 0.931 . S
H318 C309 0.931 . S
H319 C310 0.933 . S
Dy320 O323 2.307 . S
Dy320 O325 2.395 . S
Dy320 O326 2.379 . S
Dy320 O328 2.339 . S
Dy320 O330 2.298 . S
Dy320 O334 2.275 . S
Dy320 C342 2.738 . S
Dy321 O324 2.298 . S
Dy321 O327 2.275 . S
Dy321 O329 2.307 . S
Dy321 O331 2.395 . S
Dy321 O332 2.379 . S
Dy321 O335 2.339 . S
Dy321 C351 2.738 . S
C322 O334 1.254 . S
C322 O335 1.257 . S
O323 Dy320 2.307 . S
O323 C333 1.266 . S
O324 Dy321 2.298 . S
O324 C333 1.236 . S
O325 Dy320 2.395 . S
O325 C342 1.255 . S
O326 Dy320 2.379 . S
O326 C342 1.249 . S
O327 Dy321 2.275 . S
O327 C343 1.254 . S
O328 Dy320 2.339 . S
O328 C343 1.257 . S
O329 Dy321 2.307 . S
O329 C344 1.266 . S
O330 Dy320 2.298 . S
O330 C344 1.236 . S
O331 Dy321 2.395 . S
O331 C351 1.255 . S
O332 Dy321 2.379 . S
O332 C351 1.249 . S
C333 O323 1.266 . S
C333 O324 1.236 . S
O334 Dy320 2.275 . S
O334 C322 1.254 . S
O335 Dy321 2.339 . S
O335 C322 1.257 . S
C336 C339 1.344 . S
C336 C340 1.328 . S
C336 C342 1.516 . S
C337 C338 1.304 . S
C337 C341 1.323 . S
C338 C337 1.304 . S
C338 C339 1.371 . S
C338 H352 0.930 . S
C339 C336 1.344 . S
C339 C338 1.371 . S
C339 H353 0.931 . S
C340 C336 1.328 . S
C340 C341 1.433 . S
C340 H354 0.931 . S
C341 C337 1.323 . S
C341 C340 1.433 . S
C341 H355 0.933 . S
C342 Dy320 2.738 . S
C342 O325 1.255 . S
C342 O326 1.249 . S
C342 C336 1.516 . S
C343 O327 1.254 . S
C343 O328 1.257 . S
C344 O329 1.266 . S
C344 O330 1.236 . S
C345 C348 1.344 . S
C345 C349 1.328 . S
C345 C351 1.516 . S
C346 C347 1.304 . S
C346 C350 1.323 . S
C347 C346 1.304 . S
C347 C348 1.371 . S
C347 H356 0.930 . S
C348 C345 1.344 . S
C348 C347 1.371 . S
C348 H357 0.931 . S
C349 C345 1.328 . S
C349 C350 1.433 . S
C349 H358 0.931 . S
C350 C346 1.323 . S
C350 C349 1.433 . S
C350 H359 0.933 . S
C351 Dy321 2.738 . S
C351 O331 1.255 . S
C351 O332 1.249 . S
C351 C345 1.516 . S
H352 C338 0.930 . S
H353 C339 0.931 . S
H354 C340 0.931 . S
H355 C341 0.933 . S
H356 C347 0.930 . S
H357 C348 0.931 . S
H358 C349 0.931 . S
H359 C350 0.933 . S
Dy360 O363 2.307 . S
Dy360 O365 2.395 . S
Dy360 O366 2.379 . S
Dy360 O368 2.339 . S
Dy360 O370 2.298 . S
Dy360 O374 2.275 . S
Dy360 C382 2.738 . S
Dy361 O364 2.298 . S
Dy361 O367 2.275 . S
Dy361 O369 2.307 . S
Dy361 O371 2.395 . S
Dy361 O372 2.379 . S
Dy361 O375 2.339 . S
Dy361 C391 2.738 . S
C362 O374 1.254 . S
C362 O375 1.257 . S
O363 Dy360 2.307 . S
O363 C373 1.266 . S
O364 Dy361 2.298 . S
O364 C373 1.236 . S
O365 Dy360 2.395 . S
O365 C382 1.255 . S
O366 Dy360 2.379 . S
O366 C382 1.249 . S
O367 Dy361 2.275 . S
O367 C383 1.254 . S
O368 Dy360 2.339 . S
O368 C383 1.257 . S
O369 Dy361 2.307 . S
O369 C384 1.266 . S
O370 Dy360 2.298 . S
O370 C384 1.236 . S
O371 Dy361 2.395 . S
O371 C391 1.255 . S
O372 Dy361 2.379 . S
O372 C391 1.249 . S
C373 O363 1.266 . S
C373 O364 1.236 . S
O374 Dy360 2.275 . S
O374 C362 1.254 . S
O375 Dy361 2.339 . S
O375 C362 1.257 . S
C376 C379 1.344 . S
C376 C380 1.328 . S
C376 C382 1.516 1_655 S
C377 C378 1.304 . S
C377 C381 1.323 . S
C378 C377 1.304 . S
C378 C379 1.371 . S
C378 H392 0.930 . S
C379 C376 1.344 . S
C379 C378 1.371 . S
C379 H393 0.931 . S
C380 C376 1.328 . S
C380 C381 1.433 . S
C380 H394 0.931 . S
C381 C377 1.323 . S
C381 C380 1.433 . S
C381 H395 0.933 . S
C382 Dy360 2.738 . S
C382 O365 1.255 . S
C382 O366 1.249 . S
C382 C376 1.516 1_455 S
C383 O367 1.254 . S
C383 O368 1.257 . S
C384 O369 1.266 . S
C384 O370 1.236 . S
C385 C388 1.344 . S
C385 C389 1.328 . S
C385 C391 1.516 . S
C386 C387 1.304 . S
C386 C390 1.323 . S
C387 C386 1.304 . S
C387 C388 1.371 . S
C387 H396 0.930 . S
C388 C385 1.344 . S
C388 C387 1.371 . S
C388 H397 0.931 . S
C389 C385 1.328 . S
C389 C390 1.433 . S
C389 H398 0.931 . S
C390 C386 1.323 . S
C390 C389 1.433 . S
C390 H399 0.933 . S
C391 Dy361 2.738 . S
C391 O371 1.255 . S
C391 O372 1.249 . S
C391 C385 1.516 . S
H392 C378 0.930 . S
H393 C379 0.931 . S
H394 C380 0.931 . S
H395 C381 0.933 . S
H396 C387 0.930 . S
H397 C388 0.931 . S
H398 C389 0.931 . S
H399 C390 0.933 . S
Dy400 O403 2.307 . S
Dy400 O405 2.395 . S
Dy400 O406 2.379 . S
Dy400 O408 2.339 . S
Dy400 O410 2.298 . S
Dy400 O414 2.275 . S
Dy400 C422 2.738 . S
Dy401 O404 2.298 . S
Dy401 O407 2.275 . S
Dy401 O409 2.307 . S
Dy401 O411 2.395 . S
Dy401 O412 2.379 . S
Dy401 O415 2.339 . S
Dy401 C431 2.738 . S
C402 O414 1.254 . S
C402 O415 1.257 . S
O403 Dy400 2.307 . S
O403 C413 1.266 . S
O404 Dy401 2.298 . S
O404 C413 1.236 . S
O405 Dy400 2.395 . S
O405 C422 1.255 . S
O406 Dy400 2.379 . S
O406 C422 1.249 . S
O407 Dy401 2.275 . S
O407 C423 1.254 . S
O408 Dy400 2.339 . S
O408 C423 1.257 . S
O409 Dy401 2.307 . S
O409 C424 1.266 . S
O410 Dy400 2.298 . S
O410 C424 1.236 . S
O411 Dy401 2.395 . S
O411 C431 1.255 . S
O412 Dy401 2.379 . S
O412 C431 1.249 . S
C413 O403 1.266 . S
C413 O404 1.236 . S
O414 Dy400 2.275 . S
O414 C402 1.254 . S
O415 Dy401 2.339 . S
O415 C402 1.257 . S
C416 C419 1.344 . S
C416 C420 1.328 . S
C416 C422 1.516 . S
C417 C418 1.304 . S
C417 C421 1.323 . S
C418 C417 1.304 . S
C418 C419 1.371 . S
C418 H432 0.930 . S
C419 C416 1.344 . S
C419 C418 1.371 . S
C419 H433 0.931 . S
C420 C416 1.328 . S
C420 C421 1.433 . S
C420 H434 0.931 . S
C421 C417 1.323 . S
C421 C420 1.433 . S
C421 H435 0.933 . S
C422 Dy400 2.738 . S
C422 O405 1.255 . S
C422 O406 1.249 . S
C422 C416 1.516 . S
C423 O407 1.254 . S
C423 O408 1.257 . S
C424 O409 1.266 . S
C424 O410 1.236 . S
C425 C428 1.344 . S
C425 C429 1.328 . S
C425 C431 1.516 1_545 S
C426 C427 1.304 . S
C426 C430 1.323 . S
C427 C426 1.304 . S
C427 C428 1.371 . S
C427 H436 0.930 . S
C428 C425 1.344 . S
C428 C427 1.371 . S
C428 H437 0.931 . S
C429 C425 1.328 . S
C429 C430 1.433 . S
C429 H438 0.931 . S
C430 C426 1.323 . S
C430 C429 1.433 . S
C430 H439 0.933 . S
C431 Dy401 2.738 . S
C431 O411 1.255 . S
C431 O412 1.249 . S
C431 C425 1.516 1_565 S
H432 C418 0.930 . S
H433 C419 0.931 . S
H434 C420 0.931 . S
H435 C421 0.933 . S
H436 C427 0.930 . S
H437 C428 0.931 . S
H438 C429 0.931 . S
H439 C430 0.933 . S
Dy440 O443 2.307 . S
Dy440 O445 2.395 . S
Dy440 O446 2.379 . S
Dy440 O448 2.339 . S
Dy440 O450 2.298 . S
Dy440 O454 2.275 . S
Dy440 C462 2.738 . S
Dy441 O444 2.298 . S
Dy441 O447 2.275 . S
Dy441 O449 2.307 . S
Dy441 O451 2.395 . S
Dy441 O452 2.379 . S
Dy441 O455 2.339 . S
Dy441 C471 2.738 . S
C442 O454 1.254 . S
C442 O455 1.257 . S
O443 Dy440 2.307 . S
O443 C453 1.266 . S
O444 Dy441 2.298 . S
O444 C453 1.236 . S
O445 Dy440 2.395 . S
O445 C462 1.255 . S
O446 Dy440 2.379 . S
O446 C462 1.249 . S
O447 Dy441 2.275 . S
O447 C463 1.254 . S
O448 Dy440 2.339 . S
O448 C463 1.257 . S
O449 Dy441 2.307 . S
O449 C464 1.266 . S
O450 Dy440 2.298 . S
O450 C464 1.236 . S
O451 Dy441 2.395 . S
O451 C471 1.255 . S
O452 Dy441 2.379 . S
O452 C471 1.249 . S
C453 O443 1.266 . S
C453 O444 1.236 . S
O454 Dy440 2.275 . S
O454 C442 1.254 . S
O455 Dy441 2.339 . S
O455 C442 1.257 . S
C456 C459 1.344 . S
C456 C460 1.328 . S
C456 C462 1.516 . S
C457 C458 1.304 . S
C457 C461 1.323 . S
C458 C457 1.304 . S
C458 C459 1.371 . S
C458 H472 0.930 . S
C459 C456 1.344 . S
C459 C458 1.371 . S
C459 H473 0.931 . S
C460 C456 1.328 . S
C460 C461 1.433 . S
C460 H474 0.931 . S
C461 C457 1.323 . S
C461 C460 1.433 . S
C461 H475 0.933 . S
C462 Dy440 2.738 . S
C462 O445 1.255 . S
C462 O446 1.249 . S
C462 C456 1.516 . S
C463 O447 1.254 . S
C463 O448 1.257 . S
C464 O449 1.266 . S
C464 O450 1.236 . S
C465 C468 1.344 . S
C465 C469 1.328 . S
C465 C471 1.516 . S
C466 C467 1.304 . S
C466 C470 1.323 . S
C467 C466 1.304 . S
C467 C468 1.371 . S
C467 H476 0.930 . S
C468 C465 1.344 . S
C468 C467 1.371 . S
C468 H477 0.931 . S
C469 C465 1.328 . S
C469 C470 1.433 . S
C469 H478 0.931 . S
C470 C466 1.323 . S
C470 C469 1.433 . S
C470 H479 0.933 . S
C471 Dy441 2.738 . S
C471 O451 1.255 . S
C471 O452 1.249 . S
C471 C465 1.516 . S
H472 C458 0.930 . S
H473 C459 0.931 . S
H474 C460 0.931 . S
H475 C461 0.933 . S
H476 C467 0.930 . S
H477 C468 0.931 . S
H478 C469 0.931 . S
H479 C470 0.933 . S
H480 C486 0.930 . S
H481 C490 0.930 . S
H482 C495 0.929 . S
H483 C493 0.929 . S
H484 C488 0.929 . S
H485 C494 0.929 . S
C486 H480 0.930 . S
C486 C487 1.367 . S
C486 C494 1.378 . S
C487 C486 1.367 . S
C487 C495 1.433 . S
C488 H484 0.929 . S
C488 C490 1.378 . S
C488 C492 1.350 . S
C489 C492 1.463 . S
C489 C494 1.350 . S
C489 N497 1.427 . S
C490 H481 0.930 . S
C490 C488 1.378 . S
C490 C491 1.367 . S
C491 C490 1.367 . S
C491 C493 1.433 . S
C492 C488 1.350 . S
C492 C489 1.463 . S
C492 N496 1.427 . S
C493 H483 0.929 . S
C493 C491 1.433 . S
C493 N496 1.384 . S
C494 H485 0.929 . S
C494 C486 1.378 . S
C494 C489 1.350 . S
C495 H482 0.929 . S
C495 C487 1.433 . S
C495 N497 1.384 . S
N496 C492 1.427 . S
N496 C493 1.384 . S
N497 C489 1.427 . S
N497 C495 1.384 . S
H498 C504 0.930 . S
H499 C508 0.930 . S
H500 C513 0.929 . S
H501 C511 0.929 . S
H502 C506 0.929 . S
H503 C512 0.929 . S
C504 H498 0.930 . S
C504 C505 1.367 . S
C504 C512 1.378 . S
C505 C504 1.367 . S
C505 C513 1.433 . S
C506 H502 0.929 . S
C506 C508 1.378 . S
C506 C510 1.350 . S
C507 C510 1.463 1_455 S
C507 C512 1.350 . S
C507 N515 1.427 . S
C508 H499 0.930 . S
C508 C506 1.378 . S
C508 C509 1.367 . S
C509 C508 1.367 . S
C509 C511 1.433 . S
C510 C506 1.350 . S
C510 C507 1.463 1_655 S
C510 N514 1.427 . S
C511 H501 0.929 . S
C511 C509 1.433 . S
C511 N514 1.384 . S
C512 H503 0.929 . S
C512 C504 1.378 . S
C512 C507 1.350 . S
C513 H500 0.929 . S
C513 C505 1.433 . S
C513 N515 1.384 . S
N514 C510 1.427 . S
N514 C511 1.384 . S
N515 C507 1.427 . S
N515 C513 1.384 . S
H516 C522 0.930 . S
H517 C526 0.930 . S
H518 C531 0.929 . S
H519 C529 0.929 . S
H520 C524 0.929 . S
H521 C530 0.929 . S
C522 H516 0.930 . S
C522 C523 1.367 . S
C522 C530 1.378 . S
C523 C522 1.367 . S
C523 C531 1.433 . S
C524 H520 0.929 . S
C524 C526 1.378 . S
C524 C528 1.350 . S
C525 C528 1.463 1_545 S
C525 C530 1.350 . S
C525 N533 1.427 . S
C526 H517 0.930 . S
C526 C524 1.378 . S
C526 C527 1.367 . S
C527 C526 1.367 . S
C527 C529 1.433 . S
C528 C524 1.350 . S
C528 C525 1.463 1_565 S
C528 N532 1.427 . S
C529 H519 0.929 . S
C529 C527 1.433 . S
C529 N532 1.384 . S
C530 H521 0.929 . S
C530 C522 1.378 . S
C530 C525 1.350 . S
C531 H518 0.929 . S
C531 C523 1.433 . S
C531 N533 1.384 . S
N532 C528 1.427 . S
N532 C529 1.384 . S
N533 C525 1.427 . S
N533 C531 1.384 . S
H534 C540 0.930 . S
H535 C544 0.930 . S
H536 C549 0.929 . S
H537 C547 0.929 . S
H538 C542 0.929 . S
H539 C548 0.929 . S
C540 H534 0.930 . S
C540 C541 1.367 . S
C540 C548 1.378 . S
C541 C540 1.367 . S
C541 C549 1.433 . S
C542 H538 0.929 . S
C542 C544 1.378 . S
C542 C546 1.350 . S
C543 C546 1.463 . S
C543 C548 1.350 . S
C543 N551 1.427 . S
C544 H535 0.930 . S
C544 C542 1.378 . S
C544 C545 1.367 . S
C545 C544 1.367 . S
C545 C547 1.433 . S
C546 C542 1.350 . S
C546 C543 1.463 . S
C546 N550 1.427 . S
C547 H537 0.929 . S
C547 C545 1.433 . S
C547 N550 1.384 . S
C548 H539 0.929 . S
C548 C540 1.378 . S
C548 C543 1.350 . S
C549 H536 0.929 . S
C549 C541 1.433 . S
C549 N551 1.384 . S
N550 C546 1.427 . S
N550 C547 1.384 . S
N551 C543 1.427 . S
N551 C549 1.384 . S
H552 C558 0.930 . S
H553 C562 0.930 . S
H554 C567 0.929 . S
H555 C565 0.929 . S
H556 C560 0.929 . S
H557 C566 0.929 . S
C558 H552 0.930 . S
C558 C559 1.367 . S
C558 C566 1.378 . S
C559 C558 1.367 . S
C559 C567 1.433 . S
C560 H556 0.929 . S
C560 C562 1.378 . S
C560 C564 1.350 . S
C561 C564 1.463 1_455 S
C561 C566 1.350 . S
C561 N569 1.427 . S
C562 H553 0.930 . S
C562 C560 1.378 . S
C562 C563 1.367 . S
C563 C562 1.367 . S
C563 C565 1.433 . S
C564 C560 1.350 . S
C564 C561 1.463 1_655 S
C564 N568 1.427 . S
C565 H555 0.929 . S
C565 C563 1.433 . S
C565 N568 1.384 . S
C566 H557 0.929 . S
C566 C558 1.378 . S
C566 C561 1.350 . S
C567 H554 0.929 . S
C567 C559 1.433 . S
C567 N569 1.384 . S
N568 C564 1.427 . S
N568 C565 1.384 . S
N569 C561 1.427 . S
N569 C567 1.384 . S
H570 C576 0.930 . S
H571 C580 0.930 . S
H572 C585 0.929 . S
H573 C583 0.929 . S
H574 C578 0.929 . S
H575 C584 0.929 . S
C576 H570 0.930 . S
C576 C577 1.367 . S
C576 C584 1.378 . S
C577 C576 1.367 . S
C577 C585 1.433 . S
C578 H574 0.929 . S
C578 C580 1.378 . S
C578 C582 1.350 . S
C579 C582 1.463 1_565 S
C579 C584 1.350 . S
C579 N587 1.427 . S
C580 H571 0.930 . S
C580 C578 1.378 . S
C580 C581 1.367 . S
C581 C580 1.367 . S
C581 C583 1.433 . S
C582 C578 1.350 . S
C582 C579 1.463 1_545 S
C582 N586 1.427 . S
C583 H573 0.929 . S
C583 C581 1.433 . S
C583 N586 1.384 . S
C584 H575 0.929 . S
C584 C576 1.378 . S
C584 C579 1.350 . S
C585 H572 0.929 . S
C585 C577 1.433 . S
C585 N587 1.384 . S
N586 C582 1.427 . S
N586 C583 1.384 . S
N587 C579 1.427 . S
N587 C585 1.384 . S
H588 C594 0.930 . S
H589 C598 0.930 . S
H590 C603 0.929 . S
H591 C601 0.929 . S
H592 C596 0.929 . S
H593 C602 0.929 . S
C594 H588 0.930 . S
C594 C595 1.367 . S
C594 C602 1.378 . S
C595 C594 1.367 . S
C595 C603 1.433 . S
C596 H592 0.929 . S
C596 C598 1.378 . S
C596 C600 1.350 . S
C597 C600 1.463 . S
C597 C602 1.350 . S
C597 N605 1.427 . S
C598 H589 0.930 . S
C598 C596 1.378 . S
C598 C599 1.367 . S
C599 C598 1.367 . S
C599 C601 1.433 . S
C600 C596 1.350 . S
C600 C597 1.463 . S
C600 N604 1.427 . S
C601 H591 0.929 . S
C601 C599 1.433 . S
C601 N604 1.384 . S
C602 H593 0.929 . S
C602 C594 1.378 . S
C602 C597 1.350 . S
C603 H590 0.929 . S
C603 C595 1.433 . S
C603 N605 1.384 . S
N604 C600 1.427 . S
N604 C601 1.384 . S
N605 C597 1.427 . S
N605 C603 1.384 . S
H606 C612 0.930 . S
H607 C616 0.930 . S
H608 C621 0.929 . S
H609 C619 0.929 . S
H610 C614 0.929 . S
H611 C620 0.929 . S
C612 H606 0.930 . S
C612 C613 1.367 . S
C612 C620 1.378 . S
C613 C612 1.367 . S
C613 C621 1.433 . S
C614 H610 0.929 . S
C614 C616 1.378 . S
C614 C618 1.350 . S
C615 C618 1.463 1_455 S
C615 C620 1.350 . S
C615 N623 1.427 . S
C616 H607 0.930 . S
C616 C614 1.378 . S
C616 C617 1.367 . S
C617 C616 1.367 . S
C617 C619 1.433 . S
C618 C614 1.350 . S
C618 C615 1.463 1_655 S
C618 N622 1.427 . S
C619 H609 0.929 . S
C619 C617 1.433 . S
C619 N622 1.384 . S
C620 H611 0.929 . S
C620 C612 1.378 . S
C620 C615 1.350 . S
C621 H608 0.929 . S
C621 C613 1.433 . S
C621 N623 1.384 . S
N622 C618 1.427 . S
N622 C619 1.384 . S
N623 C615 1.427 . S
N623 C621 1.384 . S
H624 C630 0.930 . S
H625 C634 0.930 . S
H626 C639 0.929 . S
H627 C637 0.929 . S
H628 C632 0.929 . S
H629 C638 0.929 . S
C630 H624 0.930 . S
C630 C631 1.367 . S
C630 C638 1.378 . S
C631 C630 1.367 . S
C631 C639 1.433 . S
C632 H628 0.929 . S
C632 C634 1.378 . S
C632 C636 1.350 . S
C633 C636 1.463 1_565 S
C633 C638 1.350 . S
C633 N641 1.427 . S
C634 H625 0.930 . S
C634 C632 1.378 . S
C634 C635 1.367 . S
C635 C634 1.367 . S
C635 C637 1.433 . S
C636 C632 1.350 . S
C636 C633 1.463 1_545 S
C636 N640 1.427 . S
C637 H627 0.929 . S
C637 C635 1.433 . S
C637 N640 1.384 . S
C638 H629 0.929 . S
C638 C630 1.378 . S
C638 C633 1.350 . S
C639 H626 0.929 . S
C639 C631 1.433 . S
C639 N641 1.384 . S
N640 C636 1.427 . S
N640 C637 1.384 . S
N641 C633 1.427 . S
N641 C639 1.384 . S
H642 C648 0.930 . S
H643 C652 0.930 . S
H644 C657 0.929 . S
H645 C655 0.929 . S
H646 C650 0.929 . S
H647 C656 0.929 . S
C648 H642 0.930 . S
C648 C649 1.367 . S
C648 C656 1.378 . S
C649 C648 1.367 . S
C649 C657 1.433 . S
C650 H646 0.929 . S
C650 C652 1.378 . S
C650 C654 1.350 . S
C651 C654 1.463 . S
C651 C656 1.350 . S
C651 N659 1.427 . S
C652 H643 0.930 . S
C652 C650 1.378 . S
C652 C653 1.367 . S
C653 C652 1.367 . S
C653 C655 1.433 . S
C654 C650 1.350 . S
C654 C651 1.463 . S
C654 N658 1.427 . S
C655 H645 0.929 . S
C655 C653 1.433 . S
C655 N658 1.384 . S
C656 H647 0.929 . S
C656 C648 1.378 . S
C656 C651 1.350 . S
C657 H644 0.929 . S
C657 C649 1.433 . S
C657 N659 1.384 . S
N658 C654 1.427 . S
N658 C655 1.384 . S
N659 C651 1.427 . S
N659 C657 1.384 . S
H660 C666 0.930 . S
H661 C670 0.930 . S
H662 C675 0.929 . S
H663 C673 0.929 . S
H664 C668 0.929 . S
H665 C674 0.929 . S
C666 H660 0.930 . S
C666 C667 1.367 . S
C666 C674 1.378 . S
C667 C666 1.367 . S
C667 C675 1.433 . S
C668 H664 0.929 . S
C668 C670 1.378 . S
C668 C672 1.350 . S
C669 C672 1.463 1_455 S
C669 C674 1.350 . S
C669 N677 1.427 . S
C670 H661 0.930 . S
C670 C668 1.378 . S
C670 C671 1.367 . S
C671 C670 1.367 . S
C671 C673 1.433 . S
C672 C668 1.350 . S
C672 C669 1.463 1_655 S
C672 N676 1.427 . S
C673 H663 0.929 . S
C673 C671 1.433 . S
C673 N676 1.384 . S
C674 H665 0.929 . S
C674 C666 1.378 . S
C674 C669 1.350 . S
C675 H662 0.929 . S
C675 C667 1.433 . S
C675 N677 1.384 . S
N676 C672 1.427 . S
N676 C673 1.384 . S
N677 C669 1.427 . S
N677 C675 1.384 . S
H678 C684 0.930 . S
H679 C688 0.930 . S
H680 C693 0.929 . S
H681 C691 0.929 . S
H682 C686 0.929 . S
H683 C692 0.929 . S
C684 H678 0.930 . S
C684 C685 1.367 . S
C684 C692 1.378 . S
C685 C684 1.367 . S
C685 C693 1.433 . S
C686 H682 0.929 . S
C686 C688 1.378 . S
C686 C690 1.350 . S
C687 C690 1.463 1_545 S
C687 C692 1.350 . S
C687 N695 1.427 . S
C688 H679 0.930 . S
C688 C686 1.378 . S
C688 C689 1.367 . S
C689 C688 1.367 . S
C689 C691 1.433 . S
C690 C686 1.350 . S
C690 C687 1.463 1_565 S
C690 N694 1.427 . S
C691 H681 0.929 . S
C691 C689 1.433 . S
C691 N694 1.384 . S
C692 H683 0.929 . S
C692 C684 1.378 . S
C692 C687 1.350 . S
C693 H680 0.929 . S
C693 C685 1.433 . S
C693 N695 1.384 . S
N694 C690 1.427 . S
N694 C691 1.384 . S
N695 C687 1.427 . S
N695 C693 1.384 . S
H696 C702 0.930 . S
H697 C706 0.930 . S
H698 C711 0.929 . S
H699 C709 0.929 . S
H700 C704 0.929 . S
H701 C710 0.929 . S
C702 H696 0.930 . S
C702 C703 1.367 . S
C702 C710 1.378 . S
C703 C702 1.367 . S
C703 C711 1.433 . S
C704 H700 0.929 . S
C704 C706 1.378 . S
C704 C708 1.350 . S
C705 C708 1.463 . S
C705 C710 1.350 . S
C705 N713 1.427 . S
C706 H697 0.930 . S
C706 C704 1.378 . S
C706 C707 1.367 . S
C707 C706 1.367 . S
C707 C709 1.433 . S
C708 C704 1.350 . S
C708 C705 1.463 . S
C708 N712 1.427 . S
C709 H699 0.929 . S
C709 C707 1.433 . S
C709 N712 1.384 . S
C710 H701 0.929 . S
C710 C702 1.378 . S
C710 C705 1.350 . S
C711 H698 0.929 . S
C711 C703 1.433 . S
C711 N713 1.384 . S
N712 C708 1.427 . S
N712 C709 1.384 . S
N713 C705 1.427 . S
N713 C711 1.384 . S
H714 C720 0.930 . S
H715 C724 0.930 . S
H716 C729 0.929 . S
H717 C727 0.929 . S
H718 C722 0.929 . S
H719 C728 0.929 . S
C720 H714 0.930 . S
C720 C721 1.367 . S
C720 C728 1.378 . S
C721 C720 1.367 . S
C721 C729 1.433 . S
C722 H718 0.929 . S
C722 C724 1.378 . S
C722 C726 1.350 . S
C723 C726 1.463 . S
C723 C728 1.350 . S
C723 N731 1.427 . S
C724 H715 0.930 . S
C724 C722 1.378 . S
C724 C725 1.367 . S
C725 C724 1.367 . S
C725 C727 1.433 . S
C726 C722 1.350 . S
C726 C723 1.463 . S
C726 N730 1.427 . S
C727 H717 0.929 . S
C727 C725 1.433 . S
C727 N730 1.384 . S
C728 H719 0.929 . S
C728 C720 1.378 . S
C728 C723 1.350 . S
C729 H716 0.929 . S
C729 C721 1.433 . S
C729 N731 1.384 . S
N730 C726 1.427 . S
N730 C727 1.384 . S
N731 C723 1.427 . S
N731 C729 1.384 . S
H732 C738 0.930 . S
H733 C742 0.930 . S
H734 C747 0.929 . S
H735 C745 0.929 . S
H736 C740 0.929 . S
H737 C746 0.929 . S
C738 H732 0.930 . S
C738 C739 1.367 . S
C738 C746 1.378 . S
C739 C738 1.367 . S
C739 C747 1.433 . S
C740 H736 0.929 . S
C740 C742 1.378 . S
C740 C744 1.350 . S
C741 C744 1.463 . S
C741 C746 1.350 . S
C741 N749 1.427 . S
C742 H733 0.930 . S
C742 C740 1.378 . S
C742 C743 1.367 . S
C743 C742 1.367 . S
C743 C745 1.433 . S
C744 C740 1.350 . S
C744 C741 1.463 . S
C744 N748 1.427 . S
C745 H735 0.929 . S
C745 C743 1.433 . S
C745 N748 1.384 . S
C746 H737 0.929 . S
C746 C738 1.378 . S
C746 C741 1.350 . S
C747 H734 0.929 . S
C747 C739 1.433 . S
C747 N749 1.384 . S
N748 C744 1.427 . S
N748 C745 1.384 . S
N749 C741 1.427 . S
N749 C747 1.384 . S
H750 C756 0.930 . S
H751 C760 0.930 . S
H752 C765 0.929 . S
H753 C763 0.929 . S
H754 C758 0.929 . S
H755 C764 0.929 . S
C756 H750 0.930 . S
C756 C757 1.367 . S
C756 C764 1.378 . S
C757 C756 1.367 . S
C757 C765 1.433 . S
C758 H754 0.929 . S
C758 C760 1.378 . S
C758 C762 1.350 . S
C759 C762 1.463 . S
C759 C764 1.350 . S
C759 N767 1.427 . S
C760 H751 0.930 . S
C760 C758 1.378 . S
C760 C761 1.367 . S
C761 C760 1.367 . S
C761 C763 1.433 . S
C762 C758 1.350 . S
C762 C759 1.463 . S
C762 N766 1.427 . S
C763 H753 0.929 . S
C763 C761 1.433 . S
C763 N766 1.384 . S
C764 H755 0.929 . S
C764 C756 1.378 . S
C764 C759 1.350 . S
C765 H752 0.929 . S
C765 C757 1.433 . S
C765 N767 1.384 . S
N766 C762 1.427 . S
N766 C763 1.384 . S
N767 C759 1.427 . S
N767 C765 1.384 . S
H768 C774 0.930 . S
H769 C778 0.930 . S
H770 C783 0.929 . S
H771 C781 0.929 . S
H772 C776 0.929 . S
H773 C782 0.929 . S
C774 H768 0.930 . S
C774 C775 1.367 . S
C774 C782 1.378 . S
C775 C774 1.367 . S
C775 C783 1.433 . S
C776 H772 0.929 . S
C776 C778 1.378 . S
C776 C780 1.350 . S
C777 C780 1.463 . S
C777 C782 1.350 . S
C777 N785 1.427 . S
C778 H769 0.930 . S
C778 C776 1.378 . S
C778 C779 1.367 . S
C779 C778 1.367 . S
C779 C781 1.433 . S
C780 C776 1.350 . S
C780 C777 1.463 . S
C780 N784 1.427 . S
C781 H771 0.929 . S
C781 C779 1.433 . S
C781 N784 1.384 . S
C782 H773 0.929 . S
C782 C774 1.378 . S
C782 C777 1.350 . S
C783 H770 0.929 . S
C783 C775 1.433 . S
C783 N785 1.384 . S
N784 C780 1.427 . S
N784 C781 1.384 . S
N785 C777 1.427 . S
N785 C783 1.384 . S
H786 C792 0.930 . S
H787 C796 0.930 . S
H788 C801 0.929 . S
H789 C799 0.929 . S
H790 C794 0.929 . S
H791 C800 0.929 . S
C792 H786 0.930 . S
C792 C793 1.367 . S
C792 C800 1.378 . S
C793 C792 1.367 . S
C793 C801 1.433 . S
C794 H790 0.929 . S
C794 C796 1.378 . S
C794 C798 1.350 . S
C795 C798 1.463 . S
C795 C800 1.350 . S
C795 N803 1.427 . S
C796 H787 0.930 . S
C796 C794 1.378 . S
C796 C797 1.367 . S
C797 C796 1.367 . S
C797 C799 1.433 . S
C798 C794 1.350 . S
C798 C795 1.463 . S
C798 N802 1.427 . S
C799 H789 0.929 . S
C799 C797 1.433 . S
C799 N802 1.384 . S
C800 H791 0.929 . S
C800 C792 1.378 . S
C800 C795 1.350 . S
C801 H788 0.929 . S
C801 C793 1.433 . S
C801 N803 1.384 . S
N802 C798 1.427 . S
N802 C799 1.384 . S
N803 C795 1.427 . S
N803 C801 1.384 . S
H804 C810 0.930 . S
H805 C814 0.930 . S
H806 C819 0.929 . S
H807 C817 0.929 . S
H808 C812 0.892 1_556 S
H809 C818 0.892 1_554 S
C810 H804 0.930 . S
C810 C811 1.367 . S
C810 C818 1.404 . S
C811 C810 1.367 . S
C811 C819 1.433 . S
C812 H808 0.892 1_554 S
C812 C814 1.404 . S
C812 C816 1.362 . S
C813 C816 1.463 1_566 S
C813 C818 1.362 . S
C813 N821 1.427 . S
C814 H805 0.930 . S
C814 C812 1.404 . S
C814 C815 1.367 . S
C815 C814 1.367 . S
C815 C817 1.433 . S
C816 C812 1.362 . S
C816 C813 1.463 1_544 S
C816 N820 1.427 . S
C817 H807 0.929 . S
C817 C815 1.433 . S
C817 N820 1.384 . S
C818 H809 0.892 1_556 S
C818 C810 1.404 . S
C818 C813 1.362 . S
C819 H806 0.929 . S
C819 C811 1.433 . S
C819 N821 1.384 . S
N820 C816 1.427 . S
N820 C817 1.384 . S
N821 C813 1.427 . S
N821 C819 1.384 . S
H822 C828 0.930 . S
H823 C832 0.930 . S
H824 C837 0.929 . S
H825 C835 0.929 . S
H826 C830 0.929 . S
H827 C836 0.929 . S
C828 H822 0.930 . S
C828 C829 1.367 . S
C828 C836 1.378 . S
C829 C828 1.367 . S
C829 C837 1.433 . S
C830 H826 0.929 . S
C830 C832 1.378 . S
C830 C834 1.350 . S
C831 C834 1.463 . S
C831 C836 1.350 . S
C831 N839 1.427 . S
C832 H823 0.930 . S
C832 C830 1.378 . S
C832 C833 1.367 . S
C833 C832 1.367 . S
C833 C835 1.433 . S
C834 C830 1.350 . S
C834 C831 1.463 . S
C834 N838 1.427 . S
C835 H825 0.929 . S
C835 C833 1.433 . S
C835 N838 1.384 . S
C836 H827 0.929 . S
C836 C828 1.378 . S
C836 C831 1.350 . S
C837 H824 0.929 . S
C837 C829 1.433 . S
C837 N839 1.384 . S
N838 C834 1.427 . S
N838 C835 1.384 . S
N839 C831 1.427 . S
N839 C837 1.384 . S
H840 C846 0.930 . S
H841 C850 0.930 . S
H842 C855 0.929 . S
H843 C853 0.929 . S
H844 C848 0.929 1_556 S
H845 C854 0.929 1_554 S
C846 H840 0.930 . S
C846 C847 1.367 . S
C846 C854 1.378 . S
C847 C846 1.367 . S
C847 C855 1.433 . S
C848 H844 0.929 1_554 S
C848 C850 1.378 . S
C848 C852 1.350 . S
C849 C852 1.463 1_456 S
C849 C854 1.350 . S
C849 N857 1.427 . S
C850 H841 0.930 . S
C850 C848 1.378 . S
C850 C851 1.367 . S
C851 C850 1.367 . S
C851 C853 1.433 . S
C852 C848 1.350 . S
C852 C849 1.463 1_654 S
C852 N856 1.427 . S
C853 H843 0.929 . S
C853 C851 1.433 . S
C853 N856 1.384 . S
C854 H845 0.929 1_556 S
C854 C846 1.378 . S
C854 C849 1.350 . S
C855 H842 0.929 . S
C855 C847 1.433 . S
C855 N857 1.384 . S
N856 C852 1.427 . S
N856 C853 1.384 . S
N857 C849 1.427 . S
N857 C855 1.384 . S
H858 C864 0.930 . S
H859 C868 0.930 . S
H860 C873 0.929 . S
H861 C871 0.929 . S
H862 C866 0.929 . S
H863 C872 0.929 . S
C864 H858 0.930 . S
C864 C865 1.367 . S
C864 C872 1.378 . S
C865 C864 1.367 . S
C865 C873 1.433 . S
C866 H862 0.929 . S
C866 C868 1.378 . S
C866 C870 1.350 . S
C867 C870 1.463 1_545 S
C867 C872 1.350 . S
C867 N875 1.427 . S
C868 H859 0.930 . S
C868 C866 1.378 . S
C868 C869 1.367 . S
C869 C868 1.367 . S
C869 C871 1.433 . S
C870 C866 1.350 . S
C870 C867 1.463 1_565 S
C870 N874 1.427 . S
C871 H861 0.929 . S
C871 C869 1.433 . S
C871 N874 1.384 . S
C872 H863 0.929 . S
C872 C864 1.378 . S
C872 C867 1.350 . S
C873 H860 0.929 . S
C873 C865 1.433 . S
C873 N875 1.384 . S
N874 C870 1.427 . S
N874 C871 1.384 . S
N875 C867 1.427 . S
N875 C873 1.384 . S
H876 C882 0.930 . S
H877 C886 0.930 . S
H878 C891 0.929 . S
H879 C889 0.929 . S
H880 C884 0.929 . S
H881 C890 0.929 . S
C882 H876 0.930 . S
C882 C883 1.367 . S
C882 C890 1.378 . S
C883 C882 1.367 . S
C883 C891 1.433 . S
C884 H880 0.929 . S
C884 C886 1.378 . S
C884 C888 1.350 . S
C885 C888 1.463 1_554 S
C885 C890 1.350 . S
C885 N893 1.427 . S
C886 H877 0.930 . S
C886 C884 1.378 . S
C886 C887 1.367 . S
C887 C886 1.367 . S
C887 C889 1.433 . S
C888 C884 1.350 . S
C888 C885 1.463 1_556 S
C888 N892 1.427 . S
C889 H879 0.929 . S
C889 C887 1.433 . S
C889 N892 1.384 . S
C890 H881 0.929 . S
C890 C882 1.378 . S
C890 C885 1.350 . S
C891 H878 0.929 . S
C891 C883 1.433 . S
C891 N893 1.384 . S
N892 C888 1.427 . S
N892 C889 1.384 . S
N893 C885 1.427 . S
N893 C891 1.384 . S
H894 C900 0.930 . S
H895 C904 0.930 . S
H896 C909 0.929 . S
H897 C907 0.929 . S
H898 C902 0.929 . S
H899 C908 0.929 . S
C900 H894 0.930 . S
C900 C901 1.367 . S
C900 C908 1.378 . S
C901 C900 1.367 . S
C901 C909 1.433 . S
C902 H898 0.929 . S
C902 C904 1.378 . S
C902 C906 1.350 . S
C903 C906 1.463 1_455 S
C903 C908 1.350 . S
C903 N911 1.427 . S
C904 H895 0.930 . S
C904 C902 1.378 . S
C904 C905 1.367 . S
C905 C904 1.367 . S
C905 C907 1.433 . S
C906 C902 1.350 . S
C906 C903 1.463 1_655 S
C906 N910 1.427 . S
C907 H897 0.929 . S
C907 C905 1.433 . S
C907 N910 1.384 . S
C908 H899 0.929 . S
C908 C900 1.378 . S
C908 C903 1.350 . S
C909 H896 0.929 . S
C909 C901 1.433 . S
C909 N911 1.384 . S
N910 C906 1.427 . S
N910 C907 1.384 . S
N911 C903 1.427 . S
N911 C909 1.384 . S
H912 C918 0.930 . S
H913 C922 0.930 . S
H914 C927 0.929 . S
H915 C925 0.929 . S
H916 C920 0.929 . S
H917 C926 0.929 . S
C918 H912 0.930 . S
C918 C919 1.367 . S
C918 C926 1.378 . S
C919 C918 1.367 . S
C919 C927 1.433 . S
C920 H916 0.929 . S
C920 C922 1.378 . S
C920 C924 1.350 . S
C921 C924 1.463 . S
C921 C926 1.350 . S
C921 N929 1.427 . S
C922 H913 0.930 . S
C922 C920 1.378 . S
C922 C923 1.367 . S
C923 C922 1.367 . S
C923 C925 1.433 . S
C924 C920 1.350 . S
C924 C921 1.463 . S
C924 N928 1.427 . S
C925 H915 0.929 . S
C925 C923 1.433 . S
C925 N928 1.384 . S
C926 H917 0.929 . S
C926 C918 1.378 . S
C926 C921 1.350 . S
C927 H914 0.929 . S
C927 C919 1.433 . S
C927 N929 1.384 . S
N928 C924 1.427 . S
N928 C925 1.384 . S
N929 C921 1.427 . S
N929 C927 1.384 . S
H930 C936 0.930 . S
H931 C940 0.930 . S
H932 C945 0.929 . S
H933 C943 0.929 . S
H934 C938 0.929 . S
H935 C944 0.929 . S
C936 H930 0.930 . S
C936 C937 1.367 . S
C936 C944 1.378 . S
C937 C936 1.367 . S
C937 C945 1.433 . S
C938 H934 0.929 . S
C938 C940 1.378 . S
C938 C942 1.350 . S
C939 C942 1.463 . S
C939 C944 1.350 . S
C939 N947 1.427 . S
C940 H931 0.930 . S
C940 C938 1.378 . S
C940 C941 1.367 . S
C941 C940 1.367 . S
C941 C943 1.433 . S
C942 C938 1.350 . S
C942 C939 1.463 . S
C942 N946 1.427 . S
C943 H933 0.929 . S
C943 C941 1.433 . S
C943 N946 1.384 . S
C944 H935 0.929 . S
C944 C936 1.378 . S
C944 C939 1.350 . S
C945 H932 0.929 . S
C945 C937 1.433 . S
C945 N947 1.384 . S
N946 C942 1.427 . S
N946 C943 1.384 . S
N947 C939 1.427 . S
N947 C945 1.384 . S
H948 C954 0.930 . S
H949 C958 0.930 . S
H950 C963 0.929 . S
H951 C961 0.929 . S
H952 C956 0.929 . S
H953 C962 0.929 . S
C954 H948 0.930 . S
C954 C955 1.367 . S
C954 C962 1.378 . S
C955 C954 1.367 . S
C955 C963 1.433 . S
C956 H952 0.929 . S
C956 C958 1.378 . S
C956 C960 1.350 . S
C957 C960 1.463 . S
C957 C962 1.350 . S
C957 N965 1.427 . S
C958 H949 0.930 . S
C958 C956 1.378 . S
C958 C959 1.367 . S
C959 C958 1.367 . S
C959 C961 1.433 . S
C960 C956 1.350 . S
C960 C957 1.463 . S
C960 N964 1.427 . S
C961 H951 0.929 . S
C961 C959 1.433 . S
C961 N964 1.384 . S
C962 H953 0.929 . S
C962 C954 1.378 . S
C962 C957 1.350 . S
C963 H950 0.929 . S
C963 C955 1.433 . S
C963 N965 1.384 . S
N964 C960 1.427 . S
N964 C961 1.384 . S
N965 C957 1.427 . S
N965 C963 1.384 . S
H966 C972 0.930 . S
H967 C976 0.930 . S
H968 C981 0.929 . S
H969 C979 0.929 . S
H970 C974 0.929 . S
H971 C980 0.929 . S
C972 H966 0.930 . S
C972 C973 1.367 . S
C972 C980 1.378 . S
C973 C972 1.367 . S
C973 C981 1.433 . S
C974 H970 0.929 . S
C974 C976 1.378 . S
C974 C978 1.350 . S
C975 C978 1.463 . S
C975 C980 1.350 . S
C975 N983 1.427 . S
C976 H967 0.930 . S
C976 C974 1.378 . S
C976 C977 1.367 . S
C977 C976 1.367 . S
C977 C979 1.433 . S
C978 C974 1.350 . S
C978 C975 1.463 . S
C978 N982 1.427 . S
C979 H969 0.929 . S
C979 C977 1.433 . S
C979 N982 1.384 . S
C980 H971 0.929 . S
C980 C972 1.378 . S
C980 C975 1.350 . S
C981 H968 0.929 . S
C981 C973 1.433 . S
C981 N983 1.384 . S
N982 C978 1.427 . S
N982 C979 1.384 . S
N983 C975 1.427 . S
N983 C981 1.384 . S
H984 C990 0.930 . S
H985 C994 0.930 . S
H986 C999 0.929 . S
H987 C997 0.929 . S
H988 C992 0.929 . S
H989 C998 0.929 . S
C990 H984 0.930 . S
C990 C991 1.367 . S
C990 C998 1.378 . S
C991 C990 1.367 . S
C991 C999 1.433 . S
C992 H988 0.929 . S
C992 C994 1.378 . S
C992 C996 1.350 . S
C993 C996 1.463 . S
C993 C998 1.350 . S
C993 N1001 1.427 . S
C994 H985 0.930 . S
C994 C992 1.378 . S
C994 C995 1.367 . S
C995 C994 1.367 . S
C995 C997 1.433 . S
C996 C992 1.350 . S
C996 C993 1.463 . S
C996 N1000 1.427 . S
C997 H987 0.929 . S
C997 C995 1.433 . S
C997 N1000 1.384 . S
C998 H989 0.929 . S
C998 C990 1.378 . S
C998 C993 1.350 . S
C999 H986 0.929 . S
C999 C991 1.433 . S
C999 N1001 1.384 . S
N1000 C996 1.427 . S
N1000 C997 1.384 . S
N1001 C993 1.427 . S
N1001 C999 1.384 . S
H1002 C1008 0.930 . S
H1003 C1012 0.930 . S
H1004 C1017 0.929 . S
H1005 C1015 0.929 . S
H1006 C1010 0.929 . S
H1007 C1016 0.929 . S
C1008 H1002 0.930 . S
C1008 C1009 1.367 . S
C1008 C1016 1.378 . S
C1009 C1008 1.367 . S
C1009 C1017 1.433 . S
C1010 H1006 0.929 . S
C1010 C1012 1.378 . S
C1010 C1014 1.350 . S
C1011 C1014 1.463 . S
C1011 C1016 1.350 . S
C1011 N1019 1.427 . S
C1012 H1003 0.930 . S
C1012 C1010 1.378 . S
C1012 C1013 1.367 . S
C1013 C1012 1.367 . S
C1013 C1015 1.433 . S
C1014 C1010 1.350 . S
C1014 C1011 1.463 . S
C1014 N1018 1.427 . S
C1015 H1005 0.929 . S
C1015 C1013 1.433 . S
C1015 N1018 1.384 . S
C1016 H1007 0.929 . S
C1016 C1008 1.378 . S
C1016 C1011 1.350 . S
C1017 H1004 0.929 . S
C1017 C1009 1.433 . S
C1017 N1019 1.384 . S
N1018 C1014 1.427 . S
N1018 C1015 1.384 . S
N1019 C1011 1.427 . S
N1019 C1017 1.384 . S
H1020 C1026 0.930 . S
H1021 C1030 0.930 . S
H1022 C1035 0.929 . S
H1023 C1033 0.929 . S
H1024 C1028 0.929 . S
H1025 C1034 0.929 . S
C1026 H1020 0.930 . S
C1026 C1027 1.367 . S
C1026 C1034 1.378 . S
C1027 C1026 1.367 . S
C1027 C1035 1.433 . S
C1028 H1024 0.929 . S
C1028 C1030 1.378 . S
C1028 C1032 1.350 . S
C1029 C1032 1.463 . S
C1029 C1034 1.350 . S
C1029 N1037 1.427 . S
C1030 H1021 0.930 . S
C1030 C1028 1.378 . S
C1030 C1031 1.367 . S
C1031 C1030 1.367 . S
C1031 C1033 1.433 . S
C1032 C1028 1.350 . S
C1032 C1029 1.463 . S
C1032 N1036 1.427 . S
C1033 H1023 0.929 . S
C1033 C1031 1.433 . S
C1033 N1036 1.384 . S
C1034 H1025 0.929 . S
C1034 C1026 1.378 . S
C1034 C1029 1.350 . S
C1035 H1022 0.929 . S
C1035 C1027 1.433 . S
C1035 N1037 1.384 . S
N1036 C1032 1.427 . S
N1036 C1033 1.384 . S
N1037 C1029 1.427 . S
N1037 C1035 1.384 . S
H1038 C1044 0.930 . S
H1039 C1048 0.930 . S
H1040 C1053 0.929 . S
H1041 C1051 0.929 . S
H1042 C1046 0.929 . S
H1043 C1052 0.929 . S
C1044 H1038 0.930 . S
C1044 C1045 1.367 . S
C1044 C1052 1.378 . S
C1045 C1044 1.367 . S
C1045 C1053 1.433 . S
C1046 H1042 0.929 . S
C1046 C1048 1.378 . S
C1046 C1050 1.350 . S
C1047 C1050 1.463 . S
C1047 C1052 1.350 . S
C1047 N1055 1.427 . S
C1048 H1039 0.930 . S
C1048 C1046 1.378 . S
C1048 C1049 1.367 . S
C1049 C1048 1.367 . S
C1049 C1051 1.433 . S
C1050 C1046 1.350 . S
C1050 C1047 1.463 . S
C1050 N1054 1.427 . S
C1051 H1041 0.929 . S
C1051 C1049 1.433 . S
C1051 N1054 1.384 . S
C1052 H1043 0.929 . S
C1052 C1044 1.378 . S
C1052 C1047 1.350 . S
C1053 H1040 0.929 . S
C1053 C1045 1.433 . S
C1053 N1055 1.384 . S
N1054 C1050 1.427 . S
N1054 C1051 1.384 . S
N1055 C1047 1.427 . S
N1055 C1053 1.384 . S
H1056 C1062 0.930 . S
H1057 C1066 0.930 . S
H1058 C1071 0.929 . S
H1059 C1069 0.929 . S
H1060 C1064 0.929 . S
H1061 C1070 0.929 . S
C1062 H1056 0.930 . S
C1062 C1063 1.367 . S
C1062 C1070 1.378 . S
C1063 C1062 1.367 . S
C1063 C1071 1.433 . S
C1064 H1060 0.929 . S
C1064 C1066 1.378 . S
C1064 C1068 1.350 . S
C1065 C1068 1.463 . S
C1065 C1070 1.350 . S
C1065 N1073 1.427 . S
C1066 H1057 0.930 . S
C1066 C1064 1.378 . S
C1066 C1067 1.367 . S
C1067 C1066 1.367 . S
C1067 C1069 1.433 . S
C1068 C1064 1.350 . S
C1068 C1065 1.463 . S
C1068 N1072 1.427 . S
C1069 H1059 0.929 . S
C1069 C1067 1.433 . S
C1069 N1072 1.384 . S
C1070 H1061 0.929 . S
C1070 C1062 1.378 . S
C1070 C1065 1.350 . S
C1071 H1058 0.929 . S
C1071 C1063 1.433 . S
C1071 N1073 1.384 . S
N1072 C1068 1.427 . S
N1072 C1069 1.384 . S
N1073 C1065 1.427 . S
N1073 C1071 1.384 . S
H1074 C1080 0.930 . S
H1075 C1084 0.930 . S
H1076 C1089 0.929 . S
H1077 C1087 0.929 . S
H1078 C1082 0.929 . S
H1079 C1088 0.929 . S
C1080 H1074 0.930 . S
C1080 C1081 1.367 . S
C1080 C1088 1.378 . S
C1081 C1080 1.367 . S
C1081 C1089 1.433 . S
C1082 H1078 0.929 . S
C1082 C1084 1.378 . S
C1082 C1086 1.350 . S
C1083 C1086 1.463 . S
C1083 C1088 1.350 . S
C1083 N1091 1.427 . S
C1084 H1075 0.930 . S
C1084 C1082 1.378 . S
C1084 C1085 1.367 . S
C1085 C1084 1.367 . S
C1085 C1087 1.433 . S
C1086 C1082 1.350 . S
C1086 C1083 1.463 . S
C1086 N1090 1.427 . S
C1087 H1077 0.929 . S
C1087 C1085 1.433 . S
C1087 N1090 1.384 . S
C1088 H1079 0.929 . S
C1088 C1080 1.378 . S
C1088 C1083 1.350 . S
C1089 H1076 0.929 . S
C1089 C1081 1.433 . S
C1089 N1091 1.384 . S
N1090 C1086 1.427 . S
N1090 C1087 1.384 . S
N1091 C1083 1.427 . S
N1091 C1089 1.384 . S
H1092 C1098 0.930 . S
H1093 C1102 0.930 . S
H1094 C1107 0.929 . S
H1095 C1105 0.929 . S
H1096 C1100 0.929 . S
H1097 C1106 0.929 . S
C1098 H1092 0.930 . S
C1098 C1099 1.367 . S
C1098 C1106 1.378 . S
C1099 C1098 1.367 . S
C1099 C1107 1.433 . S
C1100 H1096 0.929 . S
C1100 C1102 1.378 . S
C1100 C1104 1.350 . S
C1101 C1104 1.463 . S
C1101 C1106 1.350 . S
C1101 N1109 1.427 . S
C1102 H1093 0.930 . S
C1102 C1100 1.378 . S
C1102 C1103 1.367 . S
C1103 C1102 1.367 . S
C1103 C1105 1.433 . S
C1104 C1100 1.350 . S
C1104 C1101 1.463 . S
C1104 N1108 1.427 . S
C1105 H1095 0.929 . S
C1105 C1103 1.433 . S
C1105 N1108 1.384 . S
C1106 H1097 0.929 . S
C1106 C1098 1.378 . S
C1106 C1101 1.350 . S
C1107 H1094 0.929 . S
C1107 C1099 1.433 . S
C1107 N1109 1.384 . S
N1108 C1104 1.427 . S
N1108 C1105 1.384 . S
N1109 C1101 1.427 . S
N1109 C1107 1.384 . S
H1110 C1116 0.930 . S
H1111 C1120 0.930 . S
H1112 C1125 0.929 . S
H1113 C1123 0.929 . S
H1114 C1118 0.929 . S
H1115 C1124 0.929 . S
C1116 H1110 0.930 . S
C1116 C1117 1.367 . S
C1116 C1124 1.378 . S
C1117 C1116 1.367 . S
C1117 C1125 1.433 . S
C1118 H1114 0.929 . S
C1118 C1120 1.378 . S
C1118 C1122 1.350 . S
C1119 C1122 1.463 . S
C1119 C1124 1.350 . S
C1119 N1127 1.427 . S
C1120 H1111 0.930 . S
C1120 C1118 1.378 . S
C1120 C1121 1.367 . S
C1121 C1120 1.367 . S
C1121 C1123 1.433 . S
C1122 C1118 1.350 . S
C1122 C1119 1.463 . S
C1122 N1126 1.427 . S
C1123 H1113 0.929 . S
C1123 C1121 1.433 . S
C1123 N1126 1.384 . S
C1124 H1115 0.929 . S
C1124 C1116 1.378 . S
C1124 C1119 1.350 . S
C1125 H1112 0.929 . S
C1125 C1117 1.433 . S
C1125 N1127 1.384 . S
N1126 C1122 1.427 . S
N1126 C1123 1.384 . S
N1127 C1119 1.427 . S
N1127 C1125 1.384 . S
C487 C97 1.214 . S
C491 C24 1.212 . S
C505 C146 1.217 . S
C509 C53 1.216 . S
C523 C104 1.216 . S
C527 C177 1.217 . S
C541 C133 1.205 . S
C545 C226 1.207 . S
C559 C17 1.217 . S
C563 C184 1.216 . S
C577 C66 1.204 . S
C581 C213 1.202 . S
C595 C426 1.207 . S
C599 C253 1.205 . S
C613 C304 1.212 . S
C617 C457 1.214 . S
C631 C333 1.212 . S
C635 C266 1.214 . S
C649 C384 1.214 . S
C653 C297 1.216 . S
C667 C413 1.214 . S
C671 C346 1.216 . S
C685 C377 1.217 . S
C689 C464 1.216 . S
C703 C122 1.737 . S
C707 C23 1.751 . S
C721 C42 1.743 . S
C725 C183 1.745 . S
C739 C103 1.746 . S
C743 C202 1.742 . S
C757 C242 1.744 . S
C761 C383 1.743 . S
C775 C303 1.747 . S
C779 C402 1.741 . S
C793 C322 1.737 . S
C797 C463 1.751 . S
C811 C282 2.327 . S
C815 C2 2.329 . S
C829 C63 2.327 . S
C833 C343 2.329 . S
C847 C362 2.326 . S
C851 C82 2.329 . S
C865 C143 2.329 . S
C869 C423 2.327 . S
C883 C162 2.327 . S
C887 C442 2.324 . S
C901 C263 2.328 . S
C905 C223 2.329 . S
C919 C106 1.544 . S
C923 C13 1.541 . S
C937 C64 1.542 . S
C941 C137 1.544 . S
C955 C93 1.545 . S
C959 C186 1.547 . S
C973 C144 1.547 . S
C977 C217 1.549 . S
C991 C26 1.550 . S
C995 C173 1.548 . S
C1009 C57 1.546 . S
C1013 C224 1.543 . S
C1027 C417 1.552 . S
C1031 C264 1.550 . S
C1045 C293 1.550 . S
C1049 C466 1.552 . S
C1063 C344 1.541 . S
C1067 C257 1.544 . S
C1081 C306 1.547 . S
C1085 C373 1.544 . S
C1099 C424 1.541 . S
C1103 C337 1.544 . S
C1117 C453 1.551 . S
C1121 C386 1.553 . S
