# Generated by pormake.
# Topology rkf, (6)-cn, num edge types: 1
# Building blocks:
#     Node 0, Type 0, BuildingBlock: BETDIP_clean_sbu_0, # of connection points: 6
#     Node 1, Type 0, BuildingBlock: BETDIP_clean_sbu_0, # of connection points: 6
#     Node 2, Type 0, BuildingBlock: BETDIP_clean_sbu_0, # of connection points: 6
#     Node 3, Type 0, BuildingBlock: BETDIP_clean_sbu_0, # of connection points: 6
#     Node 4, Type 0, BuildingBlock: BETDIP_clean_sbu_0, # of connection points: 6
#     Node 5, Type 0, BuildingBlock: BETDIP_clean_sbu_0, # of connection points: 6
#     Edge 6, Type (0, 0), BuildingBlock: TEMPAE_clean_linker_10, # of connection points: 2
#     Edge 7, Type (0, 0), BuildingBlock: TEMPAE_clean_linker_10, # of connection points: 2
#     Edge 8, Type (0, 0), BuildingBlock: TEMPAE_clean_linker_10, # of connection points: 2
#     Edge 9, Type (0, 0), BuildingBlock: TEMPAE_clean_linker_10, # of connection points: 2
#     Edge 10, Type (0, 0), BuildingBlock: TEMPAE_clean_linker_10, # of connection points: 2
#     Edge 11, Type (0, 0), BuildingBlock: TEMPAE_clean_linker_10, # of connection points: 2
#     Edge 12, Type (0, 0), BuildingBlock: TEMPAE_clean_linker_10, # of connection points: 2
#     Edge 13, Type (0, 0), BuildingBlock: TEMPAE_clean_linker_10, # of connection points: 2
#     Edge 14, Type (0, 0), BuildingBlock: TEMPAE_clean_linker_10, # of connection points: 2
#     Edge 15, Type (0, 0), BuildingBlock: TEMPAE_clean_linker_10, # of connection points: 2
#     Edge 16, Type (0, 0), BuildingBlock: TEMPAE_clean_linker_10, # of connection points: 2
#     Edge 17, Type (0, 0), BuildingBlock: TEMPAE_clean_linker_10, # of connection points: 2
#     Edge 18, Type (0, 0), BuildingBlock: TEMPAE_clean_linker_10, # of connection points: 2
#     Edge 19, Type (0, 0), BuildingBlock: TEMPAE_clean_linker_10, # of connection points: 2
#     Edge 20, Type (0, 0), BuildingBlock: TEMPAE_clean_linker_10, # of connection points: 2
#     Edge 21, Type (0, 0), BuildingBlock: TEMPAE_clean_linker_10, # of connection points: 2
#     Edge 22, Type (0, 0), BuildingBlock: TEMPAE_clean_linker_10, # of connection points: 2
#     Edge 23, Type (0, 0), BuildingBlock: TEMPAE_clean_linker_10, # of connection points: 2
# Relax obj value: 0.710
# Max RMSD: 0.247
# Mean RMSD: 0.247
data_MOF--net-rkf--node1-BETDIP_clean_sbu_0--edge1-TEMPAE_clean_linker_10
_symmetry_space_group_name_H-M    P1
_symmetry_Int_Tables_number       1
_symmetry_cell_setting            triclinic
loop_
_symmetry_equiv_pos_as_xyz
'x, y, z'
_cell_length_a     25.309954
_cell_length_b     25.400412
_cell_length_c     45.057381
_cell_angle_alpha  89.607618
_cell_angle_beta   90.608465
_cell_angle_gamma 119.82899
loop_
_atom_site_label
_atom_site_type_symbol
_atom_site_fract_x
_atom_site_fract_y
_atom_site_fract_z
_atom_type_partial_charge
Tb0 Tb 0.32938 0.04315 1.14585 0.0
Tb1 Tb 0.28512 0.1316 1.1373 0.0
C2 C 0.39272 -0.0039 0.16036 0.0
C3 C 0.4069 -0.01752 0.19035 0.0
C4 C 0.43375 0.02849 0.21184 0.0
C5 C 0.42796 0.0137 0.24193 0.0
C6 C 0.39338 0.95287 0.251 0.0
C7 C 0.37415 0.90688 0.22954 0.0
C8 C 0.38128 0.92169 0.19937 0.0
C9 C 0.21203 -0.0029 0.15191 0.0
C10 C 0.32123 0.12043 0.20273 0.0
C11 C 0.22856 0.18872 1.12897 0.0
C12 C 0.23679 0.24099 1.11163 0.0
C13 C 0.28811 0.27288 1.09372 0.0
C14 C 0.29879 0.32632 1.07962 0.0
C15 C 0.25833 0.34864 1.08328 0.0
C16 C 0.20647 0.3159 1.10099 0.0
C17 C 0.19591 0.26248 1.11513 0.0
C18 C 0.4034 0.17529 1.12811 0.0
C19 C 0.27067 0.04281 1.08241 0.0
O20 O 0.41611 0.05352 0.15334 0.0
O21 O 0.33515 0.96454 0.15286 0.0
O22 O 0.2534 0.0483 0.16038 0.0
O23 O 0.23643 0.96696 1.14133 0.0
O24 O 0.34734 0.09034 0.19109 0.0
O25 O 0.28386 0.12986 0.18576 0.0
O26 O 0.21703 0.13986 1.11429 0.0
O27 O 0.26954 0.20169 0.14969 0.0
O28 O 0.36024 0.12423 1.12127 0.0
O29 O 0.38068 0.20678 1.13867 0.0
O30 O 0.25278 0.07866 1.09514 0.0
O31 O 0.30871 0.02912 1.09709 0.0
H32 H 0.45402 0.07587 0.20574 0.0
H33 H 0.44465 0.05001 0.25808 0.0
H34 H 0.34753 0.85953 0.23578 0.0
H35 H 0.36072 0.88542 0.18321 0.0
H36 H 0.32027 0.25687 1.09102 0.0
H37 H 0.33837 0.34982 1.06558 0.0
H38 H 0.17455 0.332 1.10423 0.0
H39 H 0.15635 0.23842 1.12916 0.0
Tb40 Tb 0.4005 0.342 0.48123 0.0
Tb41 Tb 0.26824 0.29755 0.47013 0.0
C42 C 0.50945 0.40762 0.49702 0.0
C43 C 0.53606 0.41944 0.52723 0.0
C44 C 0.51598 0.44491 0.54893 0.0
C45 C 0.5238 0.43693 0.57896 0.0
C46 C 0.55041 0.40215 0.58772 0.0
C47 C 0.57826 0.38448 0.5662 0.0
C48 C 0.57138 0.3934 0.5361 0.0
C49 C 0.33112 0.2253 0.48793 0.0
C50 C 0.31039 0.33861 0.53585 0.0
C51 C 0.15666 0.24204 0.45791 0.0
C52 C 0.10415 0.25076 0.46233 0.0
C53 C 0.11075 0.30879 0.46018 0.0
C54 C 0.05966 0.31533 0.4561 0.0
C55 C 0.001 0.26389 0.45428 0.0
C56 C -0.00563 0.20657 0.46083 0.0
C57 C 0.04575 0.20003 0.46448 0.0
C58 C 0.34295 0.41555 0.46289 0.0
C59 C 0.34654 0.28165 0.41864 0.0
O60 O 0.47298 0.42902 0.49083 0.0
O61 O 0.48688 0.35152 0.488 0.0
O62 O 0.3191 0.26604 0.49494 0.0
O63 O 0.38647 0.24997 0.47828 0.0
O64 O 0.36678 0.35418 0.52641 0.0
O65 O 0.26373 0.31305 0.5172 0.0
O66 O 0.19864 0.28071 0.43996 0.0
O67 O 0.17947 0.22986 0.48142 0.0
O68 O 0.35128 0.37284 0.45551 0.0
O69 O 0.28896 0.39282 0.47404 0.0
O70 O 0.29305 0.25851 0.43223 0.0
O71 O 0.3966 0.32442 0.4324 0.0
H72 H 0.48905 0.46579 0.54295 0.0
H73 H 0.50306 0.45209 0.59521 0.0
H74 H 0.59924 0.35772 0.57233 0.0
H75 H 0.58795 0.37404 0.51979 0.0
H76 H 0.15557 0.34874 0.45907 0.0
H77 H 0.06721 0.36032 0.45118 0.0
H78 H 0.94986 0.16614 0.46051 0.0
H79 H 0.03991 0.15497 0.46684 0.0
Tb80 Tb 0.16599 0.40756 0.8142 0.0
Tb81 Tb 0.07697 0.27544 0.80434 0.0
C82 C 0.2111 0.51762 0.82745 0.0
C83 C 0.23327 0.55024 0.85589 0.0
C84 C 0.19338 0.5375 0.8798 0.0
C85 C 0.21638 0.5557 0.90845 0.0
C86 C 0.27941 0.58551 0.91368 0.0
C87 C 0.31927 0.60385 0.88955 0.0
C88 C 0.29626 0.587 0.86074 0.0
C89 C 0.21228 0.33682 0.82166 0.0
C90 C 0.0783 0.32034 0.86928 0.0
C91 C 0.02224 0.16394 0.79344 0.0
C92 C 0.96127 0.11126 0.79751 0.0
C93 C 0.90939 0.11731 0.79442 0.0
C94 C 0.85254 0.06619 0.78956 0.0
C95 C 0.84661 0.00807 0.78788 0.0
C96 C 0.89742 0.00183 0.79538 0.0
C97 C 0.95456 0.05323 0.79983 0.0
C98 C 0.03447 0.35079 0.79587 0.0
C99 C 0.1701 0.35258 0.75196 0.0
O100 O 0.15235 0.48011 0.82498 0.0
O101 O 0.243 0.494 0.8173 0.0
O102 O 0.15978 0.3259 0.82863 0.0
O103 O 0.24343 0.39199 0.81189 0.0
O104 O 0.12225 0.3752 0.85979 0.0
O105 O 0.05385 0.27352 0.85099 0.0
O106 O 0.02562 0.20526 0.77476 0.0
O107 O 0.05599 0.1873 0.81719 0.0
O108 O 0.08559 0.35851 0.78889 0.0
O109 O 0.00243 0.29677 0.8069 0.0
O110 O 0.13971 0.29931 0.76584 0.0
O111 O 0.17771 0.40261 0.76545 0.0
H112 H 0.14464 0.50912 0.87693 0.0
H113 H 0.1849 0.54018 0.92686 0.0
H114 H 0.36804 0.62614 0.89324 0.0
H115 H 0.32792 0.59784 0.84265 0.0
H116 H 0.91351 0.16181 0.79311 0.0
H117 H 0.81493 0.07339 0.78393 0.0
H118 H 0.89424 0.9577 0.79518 0.0
H119 H -0.00591 0.04779 0.80284 0.0
Tb120 Tb 0.91601 0.20981 0.15222 0.0
Tb121 Tb 0.82239 0.08652 1.13423 0.0
C122 C 0.96075 0.31167 0.17657 0.0
C123 C 0.94843 0.32809 0.20581 0.0
C124 C 0.89408 0.28849 0.22041 0.0
C125 C 0.88519 0.29939 0.24969 0.0
C126 C 0.93052 0.35016 0.26494 0.0
C127 C -0.01672 0.39181 0.24957 0.0
C128 C -0.00773 0.38066 0.22022 0.0
C129 C 0.95935 0.14278 1.13246 0.0
C130 C 0.86122 0.10118 0.20211 0.0
C131 C 0.74799 -0.01687 1.11436 0.0
C132 C 0.74104 0.93751 1.09283 0.0
C133 C 0.79185 0.93903 1.07997 0.0
C134 C 0.78437 0.89093 1.06229 0.0
C135 C 0.72586 0.84108 1.05697 0.0
C136 C 0.67504 0.84058 1.06947 0.0
C137 C 0.68269 0.88847 1.08735 0.0
C138 C 0.77951 0.15537 0.15534 0.0
C139 C 0.90417 0.18549 1.0832 0.0
O140 O 0.9149 0.29091 0.15782 0.0
O141 O -0.0126 0.27871 0.17698 0.0
O142 O 0.91322 0.12589 0.14821 0.0
O143 O -0.01157 0.20165 1.12986 0.0
O144 O 0.88978 0.16089 0.19646 0.0
O145 O 0.83598 0.06245 0.17978 0.0
O146 O 0.78647 -0.00715 1.136 0.0
O147 O 0.75184 0.03325 1.10414 0.0
O148 O 0.82331 0.17125 1.13788 0.0
O149 O 0.75842 0.09883 0.16116 0.0
O150 O 0.86999 0.12671 1.0907 0.0
O151 O 0.92192 0.22799 1.10404 0.0
H152 H 0.85951 0.24766 0.20959 0.0
H153 H 0.84453 0.26589 0.26092 0.0
H154 H 0.01878 0.43161 0.26067 0.0
H155 H 0.03433 0.4118 0.20919 0.0
H156 H 0.8372 -0.0234 1.08412 0.0
H157 H 0.82451 0.8923 1.05323 0.0
H158 H 0.62944 0.80332 1.06536 0.0
H159 H 0.64309 0.88673 1.09736 0.0
Tb160 Tb 0.82051 0.92367 0.48352 0.0
Tb161 Tb 0.8573 0.83509 0.46443 0.0
C162 C 0.75891 0.96337 0.508 0.0
C163 C 0.73074 0.95069 0.5374 0.0
C164 C 0.71847 0.89734 0.55253 0.0
C165 C 0.69924 0.88855 0.58193 0.0
C166 C 0.69186 0.93295 0.59674 0.0
C167 C 0.70043 -0.01544 0.58086 0.0
C168 C 0.72003 -0.00653 0.55141 0.0
C169 C 0.93334 0.9707 0.46602 0.0
C170 C 0.87649 0.86952 0.53304 0.0
C171 C 0.90264 0.77622 0.44203 0.0
C172 C 0.95845 0.79096 0.42593 0.0
C173 C -0.02239 0.83054 0.40148 0.0
C174 C 0.0314 0.84431 0.38697 0.0
C175 C 0.06712 0.81956 0.39703 0.0
C176 C 0.04877 0.78116 0.42181 0.0
C177 C -0.00555 0.76656 0.43604 0.0
C178 C 0.74322 0.78509 0.48299 0.0
C179 C 0.83735 0.91929 0.41465 0.0
O180 O 0.73573 0.91721 0.48973 0.0
O181 O 0.81861 -0.0073 0.50804 0.0
O182 O 0.90303 0.92334 0.48065 0.0
O183 O 0.90269 -0.00083 0.46303 0.0
O184 O 0.84229 0.89524 0.52755 0.0
O185 O 0.89392 0.84851 0.51041 0.0
O186 O 0.91107 0.7942 0.46955 0.0
O187 O 0.86215 0.78566 0.42843 0.0
O188 O 0.77113 0.83213 0.46732 0.0
O189 O 0.77858 0.76269 0.48666 0.0
O190 O 0.86382 0.88629 0.42183 0.0
O191 O 0.81031 0.9339 0.43558 0.0
H192 H 0.7262 0.86355 0.54202 0.0
H193 H 0.69399 0.84879 0.59356 0.0
H194 H 0.69456 0.0193 0.59161 0.0
H195 H 0.72897 0.03473 0.53997 0.0
H196 H 0.95119 0.8508 0.39359 0.0
H197 H 0.04534 0.87447 0.36795 0.0
H198 H 0.07587 0.76169 0.42979 0.0
H199 H -0.01937 0.73642 0.45507 0.0
Tb200 Tb 0.00154 0.82471 0.81557 0.0
Tb201 Tb 0.12994 0.86584 0.79962 0.0
C202 C 0.89377 0.7582 0.83206 0.0
C203 C 0.86064 0.71885 0.85703 0.0
C204 C 0.80254 0.66885 0.85206 0.0
C205 C 0.76776 0.63365 0.87588 0.0
C206 C 0.79061 0.64835 0.90503 0.0
C207 C 0.85088 0.69596 0.90951 0.0
C208 C 0.88563 0.73081 0.88569 0.0
C209 C 0.06586 0.93851 0.79893 0.0
C210 C 0.10533 0.87941 0.86772 0.0
C211 C 0.23679 0.91282 0.78023 0.0
C212 C 0.27861 0.96843 0.76426 0.0
C213 C 0.33893 0.003 0.77445 0.0
C214 C 0.37936 0.05699 0.76018 0.0
C215 C 0.35996 0.07637 0.73531 0.0
C216 C 0.29959 0.04212 0.72518 0.0
C217 C 0.25891 -0.01134 0.73971 0.0
C218 C 0.06644 0.75099 0.81701 0.0
C219 C 0.03105 0.84657 0.74714 0.0
O220 O 0.92345 0.73906 0.81591 0.0
O221 O 0.92494 0.81686 0.83708 0.0
O222 O 0.08291 0.90851 0.81412 0.0
O223 O 0.00724 0.90679 0.79484 0.0
O224 O 0.04635 0.84204 0.86104 0.0
O225 O 0.14564 0.90094 0.84577 0.0
O226 O 0.22371 0.92102 0.8071 0.0
O227 O 0.18893 0.87204 0.76572 0.0
O228 O 0.04821 0.77908 0.80066 0.0
O229 O 0.12338 0.78686 0.82237 0.0
O230 O 0.0898 0.87405 0.75565 0.0
O231 O -0.01212 0.81767 0.76715 0.0
H232 H 0.78319 0.6584 0.82987 0.0
H233 H 0.72185 0.59708 0.87165 0.0
H234 H 0.86989 0.70942 0.93163 0.0
H235 H 0.9309 0.76866 0.88984 0.0
H236 H 0.35462 -0.01171 0.79356 0.0
H237 H 0.42587 0.08307 0.76819 0.0
H238 H 0.28398 0.05692 0.70608 0.0
H239 H 0.21229 0.9633 0.73177 0.0
C240 C 0.93911 0.03842 1.12388 0.0
C241 C -0.02611 0.10057 1.11763 0.0
C242 C 0.96072 -0.00075 1.11658 0.0
C243 C 0.01958 0.02431 1.10462 0.0
C244 C 0.04672 0.08289 1.09163 0.0
C245 C 0.02401 0.12145 1.09887 0.0
C246 C 0.92654 0.93443 1.12722 0.0
C247 C 0.10205 0.10652 1.07218 0.0
C248 C 0.12916 0.01752 0.15933 0.0
C249 C 0.15245 -0.01243 1.14302 0.0
C250 C 0.08399 0.02746 0.14748 0.0
C251 C 0.06053 0.0053 1.11856 0.0
C252 C 0.07983 0.96954 1.10315 0.0
C253 C 0.12613 0.96108 1.11566 0.0
C254 C 0.06535 0.06572 0.16539 0.0
C255 C 0.05543 0.9445 1.07266 0.0
H256 H 0.8983 0.02125 1.13704 0.0
H257 H 0.04793 0.1685 1.09178 0.0
H258 H 0.93784 0.90497 1.11377 0.0
H259 H 0.93924 0.93234 0.15068 0.0
H260 H 0.87659 0.91659 1.12622 0.0
H261 H 0.13139 0.15644 1.07429 0.0
H262 H 0.12943 0.08437 1.0768 0.0
H263 H 0.08653 0.09676 1.04871 0.0
H264 H 0.14979 0.03734 0.1806 0.0
H265 H 0.14483 0.93805 1.10303 0.0
H266 H 0.01607 0.03955 0.17037 0.0
H267 H 0.07471 0.10705 0.1528 0.0
H268 H 0.09021 0.0806 0.18691 0.0
H269 H 0.00579 0.92771 1.0711 0.0
H270 H 0.06416 0.90708 1.06685 0.0
H271 H 0.07827 -0.01892 1.05593 0.0
C272 C 0.0259 0.03991 0.43688 0.0
C273 C -0.0076 -0.01334 0.45318 0.0
C274 C 0.08799 0.06163 0.43188 0.0
C275 C 0.11582 0.03004 0.44457 0.0
C276 C 0.07906 0.97005 0.45452 0.0
C277 C 0.01742 0.94926 0.45928 0.0
C278 C 0.12493 0.12098 0.41572 0.0
C279 C 0.10655 0.9324 0.46505 0.0
C280 C 0.28463 0.13432 0.45528 0.0
C281 C 0.28337 0.16357 0.48131 0.0
C282 C 0.23061 0.0856 0.44391 0.0
C283 C 0.17559 0.06684 0.45923 0.0
C284 C 0.1766 0.09135 0.48765 0.0
C285 C 0.23078 0.13959 0.49824 0.0
C286 C 0.23173 0.05669 0.41497 0.0
C287 C 0.1197 0.0712 0.5058 0.0
H288 H 0.00509 0.06649 0.43008 0.0
H289 H -0.00934 0.90632 0.47045 0.0
H290 H 0.13902 0.11175 0.39405 0.0
H291 H 0.09858 0.14458 0.41148 0.0
H292 H 0.16714 0.15173 0.42815 0.0
H293 H 0.07136 0.88403 0.46808 0.0
H294 H 0.14068 0.93534 0.44891 0.0
H295 H 0.13024 0.95011 0.48662 0.0
H296 H 0.32622 0.15272 0.44255 0.0
H297 H 0.23093 0.16197 0.5187 0.0
H298 H 0.19676 0.05511 0.39939 0.0
H299 H 0.22062 0.0092 0.41912 0.0
H300 H 0.27703 0.08112 0.40421 0.0
H301 H 0.08839 0.08319 0.49406 0.0
H302 H 0.12987 0.09295 0.52802 0.0
H303 H 0.09567 0.02137 0.50916 0.0
C304 C 0.17094 0.02268 0.79242 0.0
C305 C 0.10862 -0.00235 0.7861 0.0
C306 C 0.21143 0.08408 0.78743 0.0
C307 C 0.18785 0.12076 0.77722 0.0
C308 C 0.12851 0.09314 0.76453 0.0
C309 C 0.08862 0.03114 0.76956 0.0
C310 C 0.27648 0.11143 0.79808 0.0
C311 C 0.10566 0.12999 0.74817 0.0
C312 C 0.19573 0.23549 0.83134 0.0
C313 C 0.2249 0.28833 0.81454 0.0
C314 C 0.18799 0.18109 0.82033 0.0
C315 C 0.21064 0.18021 0.7917 0.0
C316 C 0.24724 0.23518 0.77636 0.0
C317 C 0.25418 0.28936 0.78812 0.0
C318 C 0.1507 0.12412 0.83844 0.0
C319 C 0.27613 0.23624 0.74708 0.0
H320 H 0.18727 -0.00395 0.8039 0.0
H321 H 0.04131 0.01039 0.76264 0.0
H322 H 0.30764 0.14534 0.78181 0.0
H323 H 0.28218 0.13516 0.81948 0.0
H324 H 0.28993 0.07635 0.80153 0.0
H325 H 0.05541 0.10453 0.7451 0.0
H326 H 0.11899 0.1733 0.75967 0.0
H327 H 0.12681 0.14168 0.72591 0.0
H328 H 0.17442 0.23579 0.85207 0.0
H329 H 0.27772 0.33109 0.77546 0.0
H330 H 0.17648 0.09989 0.84217 0.0
H331 H 0.10785 0.09326 0.82647 0.0
H332 H 0.13836 0.13391 0.8605 0.0
H333 H 0.3125 0.22459 0.7508 0.0
H334 H 0.29671 0.2815 0.73621 0.0
H335 H 0.24217 0.2018 0.73174 0.0
C336 C 0.32758 0.45447 1.06508 0.0
C337 C 0.26875 0.40401 1.0672 0.0
C338 C 0.33959 0.50244 1.04563 0.0
C339 C 0.29191 0.49892 1.0276 0.0
C340 C 0.23136 0.45174 1.03229 0.0
C341 C 0.22053 0.40454 1.05193 0.0
C342 C 0.40388 0.55458 1.04285 0.0
C343 C 0.17863 0.44822 1.01467 0.0
C344 C 0.29208 0.60513 0.96839 0.0
C345 C 0.30064 0.57854 0.94314 0.0
C346 C 0.29656 0.5847 0.99687 0.0
C347 C 0.30602 0.53437 0.99966 0.0
C348 C 0.31884 0.51049 0.97413 0.0
C349 C 0.31725 0.53391 0.94625 0.0
C350 C 0.28673 0.61436 1.02349 0.0
C351 C 0.32759 0.45579 0.97576 0.0
H352 H 0.36467 0.45531 1.07772 0.0
H353 H 0.17485 0.36606 1.05373 0.0
H354 H 0.42607 0.547 1.02353 0.0
H355 H 0.40406 0.59793 1.03912 0.0
H356 H 0.43154 0.55894 1.06297 0.0
H357 H 0.1341 0.41227 1.02318 0.0
H358 H 0.17914 0.49202 1.01563 0.0
H359 H 0.1827 0.43898 0.99101 0.0
H360 H 0.27916 0.63972 0.96584 0.0
H361 H 0.32302 0.51301 0.92654 0.0
H362 H 0.30433 0.60487 1.04431 0.0
H363 H 0.23734 0.59772 1.02597 0.0
H364 H 0.30946 0.66427 1.02019 0.0
H365 H 0.36478 0.46408 0.99156 0.0
H366 H 0.33869 0.4441 0.95386 0.0
H367 H 0.2853 0.41591 0.98395 0.0
C368 C 0.95007 0.32333 0.43891 0.0
C369 C 0.95216 0.26907 0.43806 0.0
C370 C 0.92748 0.34102 0.41452 0.0
C371 C 0.90662 0.30334 0.3892 0.0
C372 C 0.89627 0.24334 0.39114 0.0
C373 C 0.91938 0.22684 0.41562 0.0
C374 C 0.9343 0.40343 0.41417 0.0
C375 C 0.87022 0.20004 0.36531 0.0
C376 C 0.87124 0.33604 0.31167 0.0
C377 C 0.9269 0.35342 0.29767 0.0
C378 C 0.86475 0.32513 0.3424 0.0
C379 C 0.91486 0.33092 0.35923 0.0
C380 C -0.02748 0.35399 0.34559 0.0
C381 C -0.02226 0.36505 0.31504 0.0
C382 C 0.80314 0.30337 0.35606 0.0
C383 C 0.02772 0.36155 0.36261 0.0
H384 H -0.02774 0.35499 0.45698 0.0
H385 H 0.91873 0.18392 0.41487 0.0
H386 H -0.02131 0.43603 0.40416 0.0
H387 H 0.8977 0.40411 0.40067 0.0
H388 H 0.93337 0.41909 0.43702 0.0
H389 H 0.85824 0.15307 0.37168 0.0
H390 H 0.82888 0.19932 0.35642 0.0
H391 H 0.90418 0.21548 0.34722 0.0
H392 H 0.83197 0.32816 0.29843 0.0
H393 H 0.02078 0.37805 0.30444 0.0
H394 H 0.78051 0.32694 0.34574 0.0
H395 H 0.80607 0.31072 0.3804 0.0
H396 H 0.77377 0.25415 0.35164 0.0
H397 H 0.03561 0.38957 0.38269 0.0
H398 H 0.06975 0.38341 0.34905 0.0
H399 H 0.02001 0.31649 0.36997 0.0
C400 C 0.80583 0.92809 0.7489 0.0
C401 C 0.79416 0.95964 0.771 0.0
C402 C 0.76728 0.90459 0.72416 0.0
C403 C 0.71639 0.91327 0.72155 0.0
C404 C 0.69783 0.93344 0.74642 0.0
C405 C 0.7371 0.95647 0.77108 0.0
C406 C 0.78667 0.87968 0.69878 0.0
C407 C 0.64113 0.93874 0.74533 0.0
C408 C 0.72339 -0.01869 0.64638 0.0
C409 C 0.68543 0.92984 0.6295 0.0
C410 C 0.72957 -0.02286 0.67703 0.0
C411 C 0.69662 0.91991 0.69128 0.0
C412 C 0.65356 0.86895 0.67489 0.0
C413 C 0.6488 0.8744 0.64405 0.0
C414 C 0.77587 0.03315 0.69355 0.0
C415 C 0.61549 0.80768 0.68919 0.0
H416 H 0.84882 0.92852 0.7487 0.0
H417 H 0.72608 -0.02211 0.78883 0.0
H418 H 0.74721 0.8379 0.68986 0.0
H419 H 0.80464 0.91361 0.68055 0.0
H420 H 0.82264 0.86902 0.7056 0.0
H421 H 0.62379 0.9378 0.76799 0.0
H422 H 0.65181 -0.01749 0.73477 0.0
H423 H 0.60479 0.90158 0.73196 0.0
H424 H 0.75219 0.02419 0.63535 0.0
H425 H 0.61841 0.8346 0.63117 0.0
H426 H 0.81421 0.02692 0.70126 0.0
H427 H 0.75501 0.04072 0.7134 0.0
H428 H 0.79473 0.07464 0.67953 0.0
H429 H 0.63743 0.77977 0.68572 0.0
H430 H 0.56959 0.78335 0.67867 0.0
H431 H 0.6102 0.81116 0.71339 0.0
C432 C 0.67729 0.72985 1.04542 0.0
C433 C 0.71805 0.79052 1.03788 0.0
C434 C 0.6706 0.68204 1.02734 0.0
C435 C 0.70639 0.69557 1.00151 0.0
C436 C 0.74719 0.75697 0.99376 0.0
C437 C 0.75201 0.80343 1.01191 0.0
C438 C 0.62645 0.61766 1.03653 0.0
C439 C 0.78631 0.77416 0.96629 0.0
C440 C 0.77192 0.62028 0.95864 0.0
C441 C 0.74912 0.6248 0.93081 0.0
C442 C 0.74921 0.63176 0.98454 0.0
C443 C 0.70294 0.6473 0.98196 0.0
C444 C 0.66978 0.63569 0.95509 0.0
C445 C 0.69373 0.62498 0.92944 0.0
C446 C 0.78238 0.63882 1.0135 0.0
C447 C 0.61666 0.64669 0.95216 0.0
H448 H 0.65123 0.71961 1.06569 0.0
H449 H 0.78242 0.85025 1.00565 0.0
H450 H 0.60885 0.58628 1.01732 0.0
H451 H 0.65001 0.60153 1.05186 0.0
H452 H 0.58724 0.61523 1.04861 0.0
H453 H 0.8159 0.82405 0.96385 0.0
H454 H 0.81603 0.7536 0.96716 0.0
H455 H 0.75713 0.75691 0.94615 0.0
H456 H 0.81274 0.61655 0.95992 0.0
H457 H 0.67398 0.62609 0.90816 0.0
H458 H 0.75041 0.62444 1.0324 0.0
H459 H 0.81702 0.68734 1.01668 0.0
H460 H 0.80609 0.61192 1.01368 0.0
H461 H 0.58963 0.63402 0.97286 0.0
H462 H 0.58645 0.62063 0.93331 0.0
H463 H 0.63402 0.69569 0.94792 0.0
C464 C 0.11749 0.81501 0.35118 0.0
C465 C 0.12239 0.83242 0.38087 0.0
C466 C 0.16956 0.83133 0.3344 0.0
C467 C 0.22783 0.86692 0.34761 0.0
C468 C 0.23287 0.88213 0.37809 0.0
C469 C 0.17974 0.86427 0.3945 0.0
C470 C 0.16211 0.81418 0.30196 0.0
C471 C 0.29405 0.92041 0.39286 0.0
C472 C 0.35396 0.88653 0.29637 0.0
C473 C 0.36393 0.93832 0.28049 0.0
C474 C 0.3133 0.86507 0.32031 0.0
C475 C 0.2818 0.89593 0.32812 0.0
C476 C 0.29519 0.95058 0.31356 0.0
C477 C 0.33598 0.97099 0.28998 0.0
C478 C 0.30046 0.80693 0.3356 0.0
C479 C 0.26231 -0.01532 0.32111 0.0
H480 H 0.07277 0.78983 0.34092 0.0
H481 H 0.18305 0.8775 0.41757 0.0
H482 H 0.17695 0.85542 0.28811 0.0
H483 H 0.19113 0.79444 0.29621 0.0
H484 H 0.11413 0.78098 0.29603 0.0
H485 H 0.2907 0.91735 0.41745 0.0
H486 H 0.32712 0.90656 0.38561 0.0
H487 H 0.31238 0.96858 0.38638 0.0
H488 H 0.37548 0.86114 0.28913 0.0
H489 H 0.34183 0.00988 0.27737 0.0
H490 H 0.25592 0.76942 0.32775 0.0
H491 H 0.29742 0.81072 0.35997 0.0
H492 H 0.33602 0.79473 0.33088 0.0
H493 H 0.21262 0.9554 0.31727 0.0
H494 H 0.27804 0.02648 0.30761 0.0
H495 H 0.26921 -0.00281 0.34494 0.0
C496 C 0.41856 0.12585 0.69013 0.0
C497 C 0.40286 0.13123 0.71911 0.0
C498 C 0.45365 0.17746 0.67288 0.0
C499 C 0.4723 0.2356 0.68489 0.0
C500 C 0.4592 0.24123 0.71479 0.0
C501 C 0.42465 0.18862 0.73171 0.0
C502 C 0.46649 0.16941 0.64106 0.0
C503 C 0.4779 0.30232 0.72825 0.0
C504 C 0.57722 0.3632 0.63362 0.0
C505 C 0.5346 0.37079 0.61678 0.0
C506 C 0.5584 0.32249 0.65768 0.0
C507 C 0.49563 0.2883 0.66449 0.0
C508 C 0.4531 0.29847 0.64856 0.0
C509 C 0.47317 0.33953 0.62497 0.0
C510 C 0.60493 0.31293 0.67438 0.0
C511 C 0.38561 0.26239 0.65484 0.0
H512 H 0.40166 0.08106 0.68069 0.0
H513 H 0.41217 0.19222 0.75424 0.0
H514 H 0.439 0.18123 0.62595 0.0
H515 H 0.51514 0.20028 0.63583 0.0
H516 H 0.45516 0.12205 0.63632 0.0
H517 H 0.4751 0.29998 0.75286 0.0
H518 H 0.52502 0.33623 0.72178 0.0
H519 H 0.44721 0.31865 0.71985 0.0
H520 H 0.62469 0.38704 0.62718 0.0
H521 H 0.43976 0.34353 0.61143 0.0
H522 H 0.60087 0.26918 0.66755 0.0
H523 H 0.59668 0.3104 0.69862 0.0
H524 H 0.65216 0.34976 0.66993 0.0
H525 H 0.35861 0.27542 0.64005 0.0
H526 H 0.37706 0.26912 0.67823 0.0
H527 H 0.36865 0.21323 0.65177 0.0
C528 C 0.48684 0.15647 1.11327 0.0
C529 C 0.46803 0.19109 1.12938 0.0
C530 C 0.54488 0.16335 1.11765 0.0
C531 C 0.58567 0.20681 1.13829 0.0
C532 C 0.56855 0.24524 0.1529 0.0
C533 C 0.50967 0.23678 0.14834 0.0
C534 C 0.56078 0.12102 1.1017 0.0
C535 C 0.61097 0.29275 0.17466 0.0
C536 C 0.68737 0.15428 0.17397 0.0
C537 C 0.73848 0.18117 0.1556 0.0
C538 C 0.63908 0.16576 0.16991 0.0
C539 C 0.6422 0.20582 0.1471 0.0
C540 C 0.69636 0.23773 1.13038 0.0
C541 C 0.74401 0.22485 1.13476 0.0
C542 C 0.58238 0.13039 0.18819 0.0
C543 C 0.70217 0.28194 1.10639 0.0
H544 H 0.45488 0.12166 1.0983 0.0
H545 H 0.49535 0.26398 0.16065 0.0
H546 H 0.60566 0.14708 1.09079 0.0
H547 H 0.56423 0.08987 1.118 0.0
H548 H 0.52616 0.09326 1.08465 0.0
H549 H 0.59556 0.32557 0.18007 0.0
H550 H 0.61299 0.27037 0.19553 0.0
H551 H 0.65785 0.318 0.16571 0.0
H552 H 0.68328 0.12094 0.19033 0.0
H553 H 0.78366 0.24604 1.1206 0.0
H554 H 0.54575 0.09575 0.17391 0.0
H555 H 0.56617 0.16065 0.19674 0.0
H556 H 0.58981 0.10684 0.20728 0.0
H557 H 0.67513 0.25646 1.08667 0.0
H558 H 0.75025 0.31121 1.09951 0.0
H559 H 0.68389 0.31119 1.11396 0.0
C560 C 0.3899 0.52169 0.48305 0.0
C561 C 0.39179 0.4799 0.46355 0.0
C562 C 0.44104 0.58002 0.48681 0.0
C563 C 0.49507 0.59641 0.47082 0.0
C564 C 0.49537 0.55547 0.4497 0.0
C565 C 0.44366 0.49804 0.44621 0.0
C566 C 0.43839 0.62255 0.50916 0.0
C567 C 0.55182 0.57049 0.43225 0.0
C568 C 0.6368 0.75249 0.46489 0.0
C569 C 0.67634 0.74539 0.4844 0.0
C570 C 0.57548 0.70624 0.46188 0.0
C571 C 0.5538 0.65197 0.47865 0.0
C572 C 0.59249 0.64742 0.5002 0.0
C573 C 0.65306 0.69419 0.50284 0.0
C574 C 0.53535 0.71358 0.43921 0.0
C575 C 0.57177 0.59076 0.51864 0.0
H576 H 0.34969 0.50787 0.49639 0.0
H577 H 0.44495 0.46597 0.43088 0.0
H578 H 0.4634 0.62289 0.5296 0.0
H579 H 0.46063 0.66963 0.50041 0.0
H580 H 0.39077 0.6085 0.51529 0.0
H581 H 0.54299 0.536 0.41497 0.0
H582 H 0.57004 0.61542 0.42136 0.0
H583 H 0.58765 0.573 0.44756 0.0
H584 H 0.65457 0.79221 0.45069 0.0
H585 H 0.68342 0.68896 0.51821 0.0
H586 H 0.48886 0.6965 0.44805 0.0
H587 H 0.53117 0.68648 0.41921 0.0
H588 H 0.55434 0.76172 0.43237 0.0
H589 H 0.52673 0.57642 0.52858 0.0
H590 H 0.60457 0.59714 0.53674 0.0
H591 H 0.56681 0.55338 0.50415 0.0
C592 C -0.02442 0.39817 0.8158 0.0
C593 C 0.01957 0.40009 0.79651 0.0
C594 C -0.03114 0.44954 0.81966 0.0
C595 C 0.0072 0.50372 0.80391 0.0
C596 C 0.04876 0.50414 0.78297 0.0
C597 C 0.05416 0.45226 0.77944 0.0
C598 C 0.92355 0.44699 0.84192 0.0
C599 C 0.09082 0.56077 0.76576 0.0
C600 C -0.00637 0.64603 0.79833 0.0
C601 C 0.04005 0.68443 0.81798 0.0
C602 C -0.02156 0.58491 0.79511 0.0
C603 C 0.01064 0.56229 0.81187 0.0
C604 C 0.05371 0.5998 0.83352 0.0
C605 C 0.06772 0.66026 0.83633 0.0
C606 C 0.93132 0.54609 0.77225 0.0
C607 C 0.08932 0.578 0.85187 0.0
H608 H 0.94862 0.35771 0.82894 0.0
H609 H 0.08779 0.45354 0.76429 0.0
H610 H 0.94808 0.47181 0.86227 0.0
H611 H 0.89863 0.46936 0.83297 0.0
H612 H 0.89008 0.39956 0.84821 0.0
H613 H 0.11645 0.552 0.74846 0.0
H614 H 0.06466 0.58007 0.75492 0.0
H615 H 0.12413 0.59558 0.78122 0.0
H616 H -0.02816 0.66452 0.78421 0.0
H617 H 0.10314 0.68974 0.8518 0.0
H618 H 0.9016 0.49954 0.78091 0.0
H619 H 0.95452 0.54227 0.7523 0.0
H620 H 0.90249 0.56576 0.76538 0.0
H621 H 0.05875 0.53232 0.86121 0.0
H622 H 0.11468 0.60942 0.87041 0.0
H623 H 0.12265 0.57446 0.83744 0.0
C624 C 0.3053 0.17973 0.24396 0.0
C625 C 0.33056 0.14366 0.235 0.0
C626 C 0.31177 0.20297 0.27324 0.0
C627 C 0.3437 0.1899 0.29558 0.0
C628 C 0.3698 0.15377 0.28687 0.0
C629 C 0.36366 0.13197 0.25696 0.0
C630 C 0.28323 0.24122 0.28039 0.0
C631 C 0.40356 0.13723 0.3094 0.0
C632 C 0.39757 0.28915 0.36789 0.0
C633 C 0.34848 0.25781 0.38757 0.0
C634 C 0.39694 0.26776 0.33845 0.0
C635 C 0.34689 0.21211 0.3279 0.0
C636 C 0.29761 0.18013 0.34791 0.0
C637 C 0.29896 0.2032 0.37684 0.0
C638 C 0.44919 0.30635 0.31813 0.0
C639 C 0.24271 0.12046 0.33938 0.0
H640 H 0.27999 0.19044 0.22782 0.0
H641 H 0.38441 0.10529 0.25087 0.0
H642 H 0.24537 0.21644 0.29622 0.0
H643 H 0.31719 0.28412 0.29125 0.0
H644 H 0.26491 0.25247 0.26031 0.0
H645 H 0.41963 0.10745 0.29997 0.0
H646 H 0.44359 0.17887 0.31804 0.0
H647 H 0.37367 0.11394 0.32861 0.0
H648 H 0.43607 0.33163 0.37518 0.0
H649 H 0.26038 0.17776 0.39125 0.0
H650 H 0.4318 0.31816 0.29792 0.0
H651 H 0.4715 0.28064 0.31081 0.0
H652 H 0.48396 0.34896 0.32895 0.0
H653 H 0.23489 0.11477 0.31509 0.0
H654 H 0.20088 0.11527 0.34989 0.0
H655 H 0.24961 0.08317 0.34771 0.0
C656 C 0.23467 0.3263 0.57626 0.0
C657 C 0.29568 0.34608 0.5682 0.0
C658 C 0.21722 0.33034 0.60571 0.0
C659 C 0.26109 0.3546 0.62903 0.0
C660 C 0.32304 0.37555 0.62121 0.0
C661 C 0.33947 0.37127 0.59126 0.0
C662 C 0.15083 0.30766 0.61192 0.0
C663 C 0.37215 0.40231 0.64472 0.0
C664 C 0.21735 0.40626 0.70217 0.0
C665 C 0.19566 0.35488 0.72083 0.0
C666 C 0.23912 0.40716 0.67285 0.0
C667 C 0.24116 0.35598 0.6613 0.0
C668 C 0.21999 0.30435 0.68027 0.0
C669 C 0.19759 0.30437 0.7092 0.0
C670 C 0.25833 0.46269 0.65381 0.0
C671 C 0.22164 0.24863 0.6703 0.0
H672 H 0.19941 0.30687 0.55935 0.0
H673 H 0.3867 0.38759 0.58593 0.0
H674 H 0.13327 0.26835 0.62732 0.0
H675 H 0.14546 0.34362 0.62297 0.0
H676 H 0.12239 0.2934 0.59142 0.0
H677 H 0.41818 0.41801 0.63559 0.0
H678 H 0.372 0.44138 0.65545 0.0
H679 H 0.36284 0.36811 0.66234 0.0
H680 H 0.21616 0.44575 0.71023 0.0
H681 H 0.18157 0.26417 0.72288 0.0
H682 H 0.2285 0.4504 0.63384 0.0
H683 H 0.30558 0.48037 0.64596 0.0
H684 H 0.25589 0.49944 0.66584 0.0
H685 H 0.20723 0.23762 0.64677 0.0
H686 H 0.1921 0.20836 0.6841 0.0
H687 H 0.26906 0.25747 0.67225 0.0
C688 C 0.09401 0.31642 0.92585 0.0
C689 C 0.05546 0.30816 0.90135 0.0
C690 C 0.07075 0.29593 0.95508 0.0
C691 C 0.00692 0.26741 0.9609 0.0
C692 C -0.03179 0.26029 0.93624 0.0
C693 C -0.00753 0.27934 0.90719 0.0
C694 C 0.11474 0.30207 0.97943 0.0
C695 C 0.9004 0.23157 0.94044 0.0
C696 C 0.93354 0.16556 1.03127 0.0
C697 C 0.92843 0.20504 1.05148 0.0
C698 C 0.95953 0.18511 1.00242 0.0
C699 C -0.01943 0.24578 0.99244 0.0
C700 C -0.02484 0.28558 1.01274 0.0
C701 C 0.95009 0.26523 1.04158 0.0
C702 C 0.96532 0.14065 0.98266 0.0
C703 C -0.00499 0.35008 1.00382 0.0
H704 H 0.14244 0.33651 0.92196 0.0
H705 H 0.9616 0.27136 0.88872 0.0
H706 H 0.1026 0.31451 1.0008 0.0
H707 H 0.1125 0.25767 0.98271 0.0
H708 H 0.16241 0.33624 0.97384 0.0
H709 H 0.87625 0.23095 0.9196 0.0
H710 H 0.88161 0.18425 0.94846 0.0
H711 H 0.89069 0.25668 0.9576 0.0
H712 H 0.91839 0.11934 1.03825 0.0
H713 H 0.947 0.29691 1.05646 0.0
H714 H 0.01382 0.15878 0.97678 0.0
H715 H 0.93972 0.13466 0.96164 0.0
H716 H 0.94807 0.09558 0.99337 0.0
H717 H 0.04035 0.37157 0.99317 0.0
H718 H -0.00297 0.37822 1.02303 0.0
H719 H 0.96224 0.35 0.98724 0.0
C720 C 0.82041 0.01396 0.2402 0.0
C721 C 0.85881 0.07616 0.23367 0.0
C722 C 0.81765 -0.01115 0.26899 0.0
C723 C 0.85487 0.02572 0.2928 0.0
C724 C 0.89402 0.08862 0.28638 0.0
C725 C 0.89526 0.11278 0.25738 0.0
C726 C 0.77408 0.92221 0.27396 0.0
C727 C 0.93616 0.13069 0.31002 0.0
C728 C 0.80677 0.97238 0.3747 0.0
C729 C 0.84168 0.94514 0.38311 0.0
C730 C 0.8108 -0.00161 0.34602 0.0
C731 C 0.85136 -0.00129 0.32424 0.0
C732 C 0.88734 0.97194 0.33266 0.0
C733 C 0.88188 0.9455 0.36148 0.0
C734 C 0.77081 0.02535 0.33894 0.0
C735 C 0.93254 0.97184 0.3112 0.0
H736 H 0.79163 -0.01569 0.22264 0.0
H737 H 0.92576 0.16062 0.25322 0.0
H738 H 0.79953 0.89933 0.28142 0.0
H739 H 0.74171 0.91633 0.29182 0.0
H740 H 0.74768 0.89923 0.25361 0.0
H741 H 0.95499 0.17917 0.30387 0.0
H742 H 0.91248 0.12224 0.33157 0.0
H743 H -0.02535 0.12196 0.31328 0.0
H744 H 0.7755 0.97324 0.39066 0.0
H745 H 0.91005 0.9258 0.3672 0.0
H746 H 0.73808 -0.00137 0.32103 0.0
H747 H 0.79874 0.07247 0.3306 0.0
H748 H 0.74481 0.0259 0.35852 0.0
H749 H 0.90866 0.94691 0.29076 0.0
H750 H 0.95809 0.9506 0.32081 0.0
H751 H 0.96553 0.01912 0.30456 0.0
C752 C 0.92575 0.83093 0.57132 0.0
C753 C 0.89917 0.86717 0.56466 0.0
C754 C 0.94813 0.8285 0.60026 0.0
C755 C 0.9458 0.86403 0.62403 0.0
C756 C 0.91939 0.90111 0.61741 0.0
C757 C 0.89638 0.90192 0.58832 0.0
C758 C -0.02602 0.78699 0.60546 0.0
C759 C 0.91672 0.94162 0.64093 0.0
C760 C 0.9497 0.8147 0.70605 0.0
C761 C 0.01113 0.851 0.71518 0.0
C762 C 0.92848 0.81859 0.67709 0.0
C763 C -0.03126 0.86043 0.65568 0.0
C764 C 0.03077 0.89779 0.66477 0.0
C765 C 0.05107 0.89245 0.69391 0.0
C766 C 0.86219 0.77747 0.66939 0.0
C767 C 0.07591 0.94445 0.64373 0.0
H768 H 0.9287 0.80355 0.55379 0.0
H769 H 0.87695 0.93084 0.58403 0.0
H770 H 0.02186 0.81364 0.61332 0.0
H771 H 0.94787 0.75364 0.62311 0.0
H772 H -0.02733 0.76191 0.58511 0.0
H773 H 0.88512 0.95842 0.63466 0.0
H774 H 0.90237 0.91763 0.66252 0.0
H775 H 0.96292 -0.01865 0.64416 0.0
H776 H 0.91745 0.78248 0.72171 0.0
H777 H 0.09832 0.92172 0.70018 0.0
H778 H 0.85815 0.74846 0.65022 0.0
H779 H 0.84106 0.80497 0.66264 0.0
H780 H 0.83605 0.74778 0.68823 0.0
H781 H 0.07888 0.92197 0.6233 0.0
H782 H 0.12213 0.9707 0.65376 0.0
H783 H 0.06012 -0.02352 0.63696 0.0
C784 C 0.18716 0.94955 0.90544 0.0
C785 C 0.12751 0.90121 0.8998 0.0
C786 C 0.20948 0.97164 0.93464 0.0
C787 C 0.17246 0.94502 0.96009 0.0
C788 C 0.11219 0.89595 0.95465 0.0
C789 C 0.09061 0.87524 0.92504 0.0
C790 C 0.27325 0.02448 0.9382 0.0
C791 C 0.07022 0.86469 0.98033 0.0
C792 C 0.25421 0.97169 1.0378 0.0
C793 C 0.24619 0.01749 1.05105 0.0
C794 C 0.22996 0.94734 1.00901 0.0
C795 C 0.19673 0.96898 0.99193 0.0
C796 C 0.18854 0.01518 1.00525 0.0
C797 C 0.21257 0.03812 1.03416 0.0
C798 C 0.2398 0.89778 0.99686 0.0
C799 C 0.15454 0.04119 0.98878 0.0
H800 H 0.21691 0.9711 0.88674 0.0
H801 H 0.04462 0.83806 0.92173 0.0
H802 H 0.27197 0.0623 0.94972 0.0
H803 H 0.30083 0.01093 0.95219 0.0
H804 H 0.29643 0.04137 0.91657 0.0
H805 H 0.02521 0.82707 0.97298 0.0
H806 H 0.09143 0.84618 0.99577 0.0
H807 H 0.06302 0.89784 0.99302 0.0
H808 H 0.27917 0.95416 1.0501 0.0
H809 H 0.20517 0.07309 1.04349 0.0
H810 H 0.26669 0.9135 0.97616 0.0
H811 H 0.1953 0.8576 0.99107 0.0
H812 H 0.26405 0.88364 1.01289 0.0
H813 H 0.17729 0.06094 0.96736 0.0
H814 H 0.15193 0.07691 1.0017 0.0
H815 H 0.10756 0.00465 0.98354 0.0
loop_
_geom_bond_atom_site_label_1
_geom_bond_atom_site_label_2
_geom_bond_distance
_geom_bond_site_symmetry_2
_ccdc_geom_bond_type
Tb0 C2 2.809 . S
Tb0 O20 2.484 . S
Tb0 O21 2.440 . S
Tb0 O22 2.658 1_554 S
Tb0 O23 2.409 . S
Tb0 O24 2.378 . S
Tb0 O28 2.325 . S
Tb0 O31 2.341 1_554 S
Tb1 C11 2.809 . S
Tb1 O22 2.325 . S
Tb1 O25 2.341 1_556 S
Tb1 O26 2.484 . S
Tb1 O27 2.440 . S
Tb1 O28 2.658 1_556 S
Tb1 O29 2.409 . S
Tb1 O30 2.378 . S
C2 Tb0 2.809 . S
C2 C3 1.514 . S
C2 O20 1.248 . S
C2 O21 1.266 . S
C3 C2 1.514 . S
C3 C4 1.359 . S
C3 C8 1.348 . S
C4 C3 1.359 . S
C4 C5 1.380 . S
C4 H32 0.929 . S
C5 C4 1.380 . S
C5 C6 1.347 . S
C5 H33 0.931 . S
C6 C5 1.347 . S
C6 C7 1.369 . S
C7 C6 1.369 . S
C7 C8 1.408 . S
C7 H34 0.930 . S
C8 C3 1.348 . S
C8 C7 1.408 . S
C8 H35 0.930 . S
C9 O22 1.281 1_554 S
C9 O23 1.254 . S
C10 O24 1.236 . S
C10 O25 1.266 . S
C11 Tb1 2.809 . S
C11 C12 1.514 . S
C11 O26 1.248 . S
C11 O27 1.266 . S
C12 C11 1.514 . S
C12 C13 1.359 . S
C12 C17 1.348 . S
C13 C12 1.359 . S
C13 C14 1.380 . S
C13 H36 0.929 . S
C14 C13 1.380 . S
C14 C15 1.347 . S
C14 H37 0.931 . S
C15 C14 1.347 . S
C15 C16 1.369 . S
C16 C15 1.369 . S
C16 C17 1.408 . S
C16 H38 0.930 . S
C17 C12 1.348 . S
C17 C16 1.408 . S
C17 H39 0.930 . S
C18 O28 1.281 . S
C18 O29 1.254 1_554 S
C19 O30 1.236 . S
C19 O31 1.266 . S
O20 Tb0 2.484 . S
O20 C2 1.248 . S
O21 Tb0 2.440 . S
O21 C2 1.266 . S
O22 Tb0 2.658 1_556 S
O22 Tb1 2.325 . S
O22 C9 1.281 1_556 S
O23 Tb0 2.409 . S
O23 C9 1.254 . S
O24 Tb0 2.378 . S
O24 C10 1.236 . S
O25 Tb1 2.341 1_554 S
O25 C10 1.266 . S
O26 Tb1 2.484 . S
O26 C11 1.248 . S
O27 Tb1 2.440 . S
O27 C11 1.266 . S
O28 Tb0 2.325 . S
O28 Tb1 2.658 1_554 S
O28 C18 1.281 . S
O29 Tb1 2.409 . S
O29 C18 1.254 1_556 S
O30 Tb1 2.378 . S
O30 C19 1.236 . S
O31 Tb0 2.341 1_556 S
O31 C19 1.266 . S
H32 C4 0.929 . S
H33 C5 0.931 . S
H34 C7 0.930 . S
H35 C8 0.930 . S
H36 C13 0.929 . S
H37 C14 0.931 . S
H38 C16 0.930 . S
H39 C17 0.930 . S
Tb40 C42 2.809 . S
Tb40 O60 2.484 . S
Tb40 O61 2.440 . S
Tb40 O62 2.658 . S
Tb40 O63 2.409 . S
Tb40 O64 2.378 . S
Tb40 O68 2.325 . S
Tb40 O71 2.341 . S
Tb41 C51 2.809 . S
Tb41 O62 2.325 . S
Tb41 O65 2.341 . S
Tb41 O66 2.484 . S
Tb41 O67 2.440 . S
Tb41 O68 2.658 . S
Tb41 O69 2.409 . S
Tb41 O70 2.378 . S
C42 Tb40 2.809 . S
C42 C43 1.514 . S
C42 O60 1.248 . S
C42 O61 1.266 . S
C43 C42 1.514 . S
C43 C44 1.359 . S
C43 C48 1.348 . S
C44 C43 1.359 . S
C44 C45 1.380 . S
C44 H72 0.929 . S
C45 C44 1.380 . S
C45 C46 1.347 . S
C45 H73 0.931 . S
C46 C45 1.347 . S
C46 C47 1.369 . S
C47 C46 1.369 . S
C47 C48 1.408 . S
C47 H74 0.930 . S
C48 C43 1.348 . S
C48 C47 1.408 . S
C48 H75 0.930 . S
C49 O62 1.281 . S
C49 O63 1.254 . S
C50 O64 1.236 . S
C50 O65 1.266 . S
C51 Tb41 2.809 . S
C51 C52 1.514 . S
C51 O66 1.248 . S
C51 O67 1.266 . S
C52 C51 1.514 . S
C52 C53 1.359 . S
C52 C57 1.348 . S
C53 C52 1.359 . S
C53 C54 1.380 . S
C53 H76 0.929 . S
C54 C53 1.380 . S
C54 C55 1.347 . S
C54 H77 0.931 . S
C55 C54 1.347 . S
C55 C56 1.369 . S
C56 C55 1.369 . S
C56 C57 1.408 . S
C56 H78 0.930 . S
C57 C52 1.348 . S
C57 C56 1.408 . S
C57 H79 0.930 . S
C58 O68 1.281 . S
C58 O69 1.254 . S
C59 O70 1.236 . S
C59 O71 1.266 . S
O60 Tb40 2.484 . S
O60 C42 1.248 . S
O61 Tb40 2.440 . S
O61 C42 1.266 . S
O62 Tb40 2.658 . S
O62 Tb41 2.325 . S
O62 C49 1.281 . S
O63 Tb40 2.409 . S
O63 C49 1.254 . S
O64 Tb40 2.378 . S
O64 C50 1.236 . S
O65 Tb41 2.341 . S
O65 C50 1.266 . S
O66 Tb41 2.484 . S
O66 C51 1.248 . S
O67 Tb41 2.440 . S
O67 C51 1.266 . S
O68 Tb40 2.325 . S
O68 Tb41 2.658 . S
O68 C58 1.281 . S
O69 Tb41 2.409 . S
O69 C58 1.254 . S
O70 Tb41 2.378 . S
O70 C59 1.236 . S
O71 Tb40 2.341 . S
O71 C59 1.266 . S
H72 C44 0.929 . S
H73 C45 0.931 . S
H74 C47 0.930 . S
H75 C48 0.930 . S
H76 C53 0.929 . S
H77 C54 0.931 . S
H78 C56 0.930 . S
H79 C57 0.930 . S
Tb80 C82 2.809 . S
Tb80 O100 2.484 . S
Tb80 O101 2.440 . S
Tb80 O102 2.664 . S
Tb80 O103 2.409 . S
Tb80 O104 2.381 . S
Tb80 O108 2.325 1_455 S
Tb80 O111 2.341 . S
Tb81 C91 2.809 . S
Tb81 O102 2.308 1_655 S
Tb81 O105 2.341 . S
Tb81 O106 2.484 . S
Tb81 O107 2.440 . S
Tb81 O108 2.658 . S
Tb81 O109 2.409 . S
Tb81 O110 2.375 1_655 S
C82 Tb80 2.809 . S
C82 C83 1.514 . S
C82 O100 1.248 . S
C82 O101 1.266 . S
C83 C82 1.514 . S
C83 C84 1.359 . S
C83 C88 1.348 . S
C84 C83 1.359 . S
C84 C85 1.380 . S
C84 H112 0.929 . S
C85 C84 1.380 . S
C85 C86 1.347 . S
C85 H113 0.931 . S
C86 C85 1.347 . S
C86 C87 1.369 . S
C87 C86 1.369 . S
C87 C88 1.408 . S
C87 H114 0.930 . S
C88 C83 1.348 . S
C88 C87 1.408 . S
C88 H115 0.930 . S
C89 O102 1.295 . S
C89 O103 1.254 . S
C90 O104 1.231 1_655 S
C90 O105 1.266 . S
C91 Tb81 2.809 . S
C91 C92 1.514 . S
C91 O106 1.248 . S
C91 O107 1.266 . S
C92 C91 1.514 . S
C92 C93 1.359 . S
C92 C97 1.348 . S
C93 C92 1.359 . S
C93 C94 1.380 . S
C93 H116 0.929 . S
C94 C93 1.380 . S
C94 C95 1.347 . S
C94 H117 0.931 . S
C95 C94 1.347 . S
C95 C96 1.369 . S
C96 C95 1.369 . S
C96 C97 1.408 . S
C96 H118 0.930 . S
C97 C92 1.348 . S
C97 C96 1.408 . S
C97 H119 0.930 . S
C98 O108 1.281 . S
C98 O109 1.254 . S
C99 O110 1.243 . S
C99 O111 1.266 . S
O100 Tb80 2.484 . S
O100 C82 1.248 . S
O101 Tb80 2.440 . S
O101 C82 1.266 . S
O102 Tb80 2.664 . S
O102 Tb81 2.308 1_455 S
O102 C89 1.295 . S
O103 Tb80 2.409 . S
O103 C89 1.254 . S
O104 Tb80 2.381 . S
O104 C90 1.231 1_455 S
O105 Tb81 2.341 . S
O105 C90 1.266 . S
O106 Tb81 2.484 . S
O106 C91 1.248 . S
O107 Tb81 2.440 . S
O107 C91 1.266 . S
O108 Tb80 2.325 1_655 S
O108 Tb81 2.658 . S
O108 C98 1.281 . S
O109 Tb81 2.409 . S
O109 C98 1.254 . S
O110 Tb81 2.375 1_455 S
O110 C99 1.243 . S
O111 Tb80 2.341 . S
O111 C99 1.266 . S
H112 C84 0.929 . S
H113 C85 0.931 . S
H114 C87 0.930 . S
H115 C88 0.930 . S
H116 C93 0.929 . S
H117 C94 0.931 . S
H118 C96 0.930 . S
H119 C97 0.930 . S
Tb120 C122 2.809 . S
Tb120 O140 2.484 . S
Tb120 O141 2.440 . S
Tb120 O142 2.658 1_554 S
Tb120 O143 2.409 . S
Tb120 O144 2.378 . S
Tb120 O148 2.325 . S
Tb120 O151 2.341 1_554 S
Tb121 C131 2.809 . S
Tb121 O142 2.325 1_565 S
Tb121 O145 2.341 1_556 S
Tb121 O146 2.484 . S
Tb121 O147 2.440 . S
Tb121 O148 2.658 1_566 S
Tb121 O149 2.409 . S
Tb121 O150 2.378 1_565 S
C122 Tb120 2.809 . S
C122 C123 1.514 . S
C122 O140 1.248 . S
C122 O141 1.266 . S
C123 C122 1.514 . S
C123 C124 1.359 . S
C123 C128 1.348 . S
C124 C123 1.359 . S
C124 C125 1.380 . S
C124 H152 0.929 . S
C125 C124 1.380 . S
C125 C126 1.347 . S
C125 H153 0.931 . S
C126 C125 1.347 . S
C126 C127 1.369 . S
C127 C126 1.369 . S
C127 C128 1.408 . S
C127 H154 0.930 . S
C128 C123 1.348 . S
C128 C127 1.408 . S
C128 H155 0.930 . S
C129 O142 1.281 1_554 S
C129 O143 1.254 . S
C130 O144 1.236 1_565 S
C130 O145 1.266 . S
C131 Tb121 2.809 . S
C131 C132 1.514 . S
C131 O146 1.248 . S
C131 O147 1.266 . S
C132 C131 1.514 . S
C132 C133 1.359 . S
C132 C137 1.348 . S
C133 C132 1.359 . S
C133 C134 1.380 . S
C133 H156 0.929 . S
C134 C133 1.380 . S
C134 C135 1.347 . S
C134 H157 0.931 . S
C135 C134 1.347 . S
C135 C136 1.369 . S
C136 C135 1.369 . S
C136 C137 1.408 . S
C136 H158 0.930 . S
C137 C132 1.348 . S
C137 C136 1.408 . S
C137 H159 0.930 . S
C138 O148 1.281 1_565 S
C138 O149 1.254 1_554 S
C139 O150 1.236 . S
C139 O151 1.266 . S
O140 Tb120 2.484 . S
O140 C122 1.248 . S
O141 Tb120 2.440 . S
O141 C122 1.266 . S
O142 Tb120 2.658 1_556 S
O142 Tb121 2.325 1_545 S
O142 C129 1.281 1_556 S
O143 Tb120 2.409 . S
O143 C129 1.254 . S
O144 Tb120 2.378 . S
O144 C130 1.236 1_545 S
O145 Tb121 2.341 1_554 S
O145 C130 1.266 . S
O146 Tb121 2.484 . S
O146 C131 1.248 . S
O147 Tb121 2.440 . S
O147 C131 1.266 . S
O148 Tb120 2.325 . S
O148 Tb121 2.658 1_544 S
O148 C138 1.281 1_545 S
O149 Tb121 2.409 . S
O149 C138 1.254 1_556 S
O150 Tb121 2.378 1_545 S
O150 C139 1.236 . S
O151 Tb120 2.341 1_556 S
O151 C139 1.266 . S
H152 C124 0.929 . S
H153 C125 0.931 . S
H154 C127 0.930 . S
H155 C128 0.930 . S
H156 C133 0.929 . S
H157 C134 0.931 . S
H158 C136 0.930 . S
H159 C137 0.930 . S
Tb160 C162 2.809 . S
Tb160 O180 2.484 . S
Tb160 O181 2.440 . S
Tb160 O182 2.645 1_655 S
Tb160 O183 2.409 1_655 S
Tb160 O184 2.378 . S
Tb160 O188 2.325 . S
Tb160 O191 2.341 . S
Tb161 C171 2.809 1_655 S
Tb161 O182 2.330 1_655 S
Tb161 O185 2.341 1_655 S
Tb161 O186 2.484 1_655 S
Tb161 O187 2.440 . S
Tb161 O188 2.658 . S
Tb161 O189 2.409 . S
Tb161 O190 2.378 . S
C162 Tb160 2.809 . S
C162 C163 1.514 . S
C162 O180 1.248 . S
C162 O181 1.266 . S
C163 C162 1.514 . S
C163 C164 1.359 . S
C163 C168 1.348 . S
C164 C163 1.359 . S
C164 C165 1.380 . S
C164 H192 0.929 . S
C165 C164 1.380 . S
C165 C166 1.347 . S
C165 H193 0.931 . S
C166 C165 1.347 . S
C166 C167 1.369 . S
C167 C166 1.369 . S
C167 C168 1.408 . S
C167 H194 0.930 . S
C168 C163 1.348 . S
C168 C167 1.408 . S
C168 H195 0.930 . S
C169 O182 1.281 . S
C169 O183 1.254 . S
C170 O184 1.236 . S
C170 O185 1.263 1_655 S
C171 Tb161 2.809 1_455 S
C171 C172 1.514 . S
C171 O186 1.248 . S
C171 O187 1.266 1_455 S
C172 C171 1.514 . S
C172 C173 1.359 . S
C172 C177 1.348 . S
C173 C172 1.359 . S
C173 C174 1.380 . S
C173 H196 0.929 . S
C174 C173 1.380 . S
C174 C175 1.347 . S
C174 H197 0.931 . S
C175 C174 1.347 . S
C175 C176 1.369 . S
C176 C175 1.369 . S
C176 C177 1.408 . S
C176 H198 0.930 . S
C177 C172 1.348 . S
C177 C176 1.408 . S
C177 H199 0.930 1_455 S
C178 O188 1.281 . S
C178 O189 1.254 . S
C179 O190 1.236 . S
C179 O191 1.266 . S
O180 Tb160 2.484 . S
O180 C162 1.248 . S
O181 Tb160 2.440 . S
O181 C162 1.266 . S
O182 Tb160 2.645 1_455 S
O182 Tb161 2.330 1_455 S
O182 C169 1.281 . S
O183 Tb160 2.409 1_455 S
O183 C169 1.254 . S
O184 Tb160 2.378 . S
O184 C170 1.236 . S
O185 Tb161 2.341 1_455 S
O185 C170 1.263 1_455 S
O186 Tb161 2.484 1_455 S
O186 C171 1.248 . S
O187 Tb161 2.440 . S
O187 C171 1.266 1_655 S
O188 Tb160 2.325 . S
O188 Tb161 2.658 . S
O188 C178 1.281 . S
O189 Tb161 2.409 . S
O189 C178 1.254 . S
O190 Tb161 2.378 . S
O190 C179 1.236 . S
O191 Tb160 2.341 . S
O191 C179 1.266 . S
H192 C164 0.929 . S
H193 C165 0.931 . S
H194 C167 0.930 . S
H195 C168 0.930 . S
H196 C173 0.929 . S
H197 C174 0.931 . S
H198 C176 0.930 . S
H199 C177 0.930 1_655 S
Tb200 C202 2.809 . S
Tb200 O220 2.484 . S
Tb200 O221 2.440 . S
Tb200 O222 2.658 1_565 S
Tb200 O223 2.409 1_565 S
Tb200 O224 2.378 . S
Tb200 O228 2.325 . S
Tb200 O231 2.341 . S
Tb201 C211 2.809 1_565 S
Tb201 O222 2.325 1_565 S
Tb201 O225 2.341 1_565 S
Tb201 O226 2.484 1_565 S
Tb201 O227 2.440 . S
Tb201 O228 2.658 . S
Tb201 O229 2.409 . S
Tb201 O230 2.378 . S
C202 Tb200 2.809 . S
C202 C203 1.514 . S
C202 O220 1.248 . S
C202 O221 1.266 . S
C203 C202 1.514 . S
C203 C204 1.359 . S
C203 C208 1.348 . S
C204 C203 1.359 . S
C204 C205 1.380 . S
C204 H232 0.929 . S
C205 C204 1.380 . S
C205 C206 1.347 . S
C205 H233 0.931 . S
C206 C205 1.347 . S
C206 C207 1.369 . S
C207 C206 1.369 . S
C207 C208 1.408 . S
C207 H234 0.930 . S
C208 C203 1.348 . S
C208 C207 1.408 . S
C208 H235 0.930 . S
C209 O222 1.281 . S
C209 O223 1.254 . S
C210 O224 1.236 . S
C210 O225 1.266 1_565 S
C211 Tb201 2.809 1_545 S
C211 C212 1.514 . S
C211 O226 1.248 . S
C211 O227 1.266 1_545 S
C212 C211 1.514 . S
C212 C213 1.359 . S
C212 C217 1.348 . S
C213 C212 1.359 . S
C213 C214 1.380 . S
C213 H236 0.929 . S
C214 C213 1.380 . S
C214 C215 1.347 . S
C214 H237 0.931 . S
C215 C214 1.347 . S
C215 C216 1.369 . S
C216 C215 1.369 . S
C216 C217 1.408 . S
C216 H238 0.930 . S
C217 C212 1.348 . S
C217 C216 1.408 . S
C217 H239 0.930 1_545 S
C218 O228 1.281 . S
C218 O229 1.254 . S
C219 O230 1.236 . S
C219 O231 1.266 . S
O220 Tb200 2.484 . S
O220 C202 1.248 . S
O221 Tb200 2.440 . S
O221 C202 1.266 . S
O222 Tb200 2.658 1_545 S
O222 Tb201 2.325 1_545 S
O222 C209 1.281 . S
O223 Tb200 2.409 1_545 S
O223 C209 1.254 . S
O224 Tb200 2.378 . S
O224 C210 1.236 . S
O225 Tb201 2.341 1_545 S
O225 C210 1.266 1_545 S
O226 Tb201 2.484 1_545 S
O226 C211 1.248 . S
O227 Tb201 2.440 . S
O227 C211 1.266 1_565 S
O228 Tb200 2.325 . S
O228 Tb201 2.658 . S
O228 C218 1.281 . S
O229 Tb201 2.409 . S
O229 C218 1.254 . S
O230 Tb201 2.378 . S
O230 C219 1.236 . S
O231 Tb200 2.341 . S
O231 C219 1.266 . S
H232 C204 0.929 . S
H233 C205 0.931 . S
H234 C207 0.930 . S
H235 C208 0.930 . S
H236 C213 0.929 . S
H237 C214 0.931 . S
H238 C216 0.930 . S
H239 C217 0.930 1_565 S
C240 C241 1.391 . S
C240 C242 1.394 1_655 S
C240 H256 0.931 . S
C241 C240 1.391 . S
C241 C245 1.376 1_544 S
C242 C240 1.394 1_455 S
C242 C243 1.369 . S
C242 C246 1.531 . S
C243 C242 1.369 . S
C243 C244 1.410 1_554 S
C243 C251 1.503 . S
C244 C243 1.410 1_556 S
C244 C245 1.392 1_445 S
C244 C247 1.511 . S
C245 C241 1.376 1_566 S
C245 C244 1.392 1_665 S
C245 H257 0.929 . S
C246 C242 1.531 . S
C246 H258 0.960 . S
C246 H259 0.962 . S
C246 H260 0.960 . S
C247 C244 1.511 . S
C247 H261 0.961 1_545 S
C247 H262 0.961 . S
C247 H263 0.961 1_545 S
C248 C249 1.370 1_556 S
C248 C250 1.363 . S
C248 H264 0.931 . S
C249 C248 1.370 1_554 S
C249 C253 1.408 . S
C250 C248 1.363 . S
C250 C251 1.370 1_556 S
C250 C254 1.524 . S
C251 C243 1.503 . S
C251 C250 1.370 1_554 S
C251 C252 1.403 . S
C252 C251 1.403 . S
C252 C253 1.404 . S
C252 C255 1.539 . S
C253 C249 1.408 . S
C253 C252 1.404 . S
C253 H265 0.930 . S
C254 C250 1.524 . S
C254 H266 0.956 . S
C254 H267 0.961 . S
C254 H268 0.961 . S
C255 C252 1.539 . S
C255 H269 0.958 . S
C255 H270 0.961 . S
C255 H271 0.960 . S
H256 C240 0.931 . S
H257 C245 0.929 . S
H258 C246 0.960 . S
H259 C246 0.962 . S
H260 C246 0.960 . S
H261 C247 0.961 1_565 S
H262 C247 0.961 . S
H263 C247 0.961 1_565 S
H264 C248 0.931 . S
H265 C253 0.930 . S
H266 C254 0.956 . S
H267 C254 0.961 . S
H268 C254 0.961 . S
H269 C255 0.958 . S
H270 C255 0.961 . S
H271 C255 0.960 . S
C272 C273 1.387 1_545 S
C272 C274 1.409 . S
C272 H288 0.919 1_545 S
C273 C272 1.387 1_565 S
C273 C277 1.376 . S
C274 C272 1.409 . S
C274 C275 1.369 . S
C274 C278 1.531 . S
C275 C274 1.369 . S
C275 C276 1.410 . S
C275 C283 1.503 . S
C276 C275 1.410 . S
C276 C277 1.392 1_545 S
C276 C279 1.511 . S
C277 C273 1.376 . S
C277 C276 1.392 1_565 S
C277 H289 0.929 1_455 S
C278 C274 1.531 . S
C278 H290 0.960 . S
C278 H291 0.962 . S
C278 H292 0.960 . S
C279 C276 1.511 . S
C279 H293 0.961 1_455 S
C279 H294 0.961 . S
C279 H295 0.961 1_455 S
C280 C281 1.370 . S
C280 C282 1.363 . S
C280 H296 0.931 . S
C281 C280 1.370 . S
C281 C285 1.408 . S
C282 C280 1.363 . S
C282 C283 1.370 . S
C282 C286 1.524 . S
C283 C275 1.503 . S
C283 C282 1.370 . S
C283 C284 1.403 . S
C284 C283 1.403 . S
C284 C285 1.404 . S
C284 C287 1.539 . S
C285 C281 1.408 . S
C285 C284 1.404 . S
C285 H297 0.930 . S
C286 C282 1.524 . S
C286 H298 0.956 . S
C286 H299 0.961 . S
C286 H300 0.961 . S
C287 C284 1.539 . S
C287 H301 0.958 . S
C287 H302 0.961 . S
C287 H303 0.960 . S
H288 C272 0.919 1_565 S
H289 C277 0.929 1_655 S
H290 C278 0.960 . S
H291 C278 0.962 . S
H292 C278 0.960 . S
H293 C279 0.961 1_655 S
H294 C279 0.961 . S
H295 C279 0.961 1_655 S
H296 C280 0.931 . S
H297 C285 0.930 . S
H298 C286 0.956 . S
H299 C286 0.961 . S
H300 C286 0.961 . S
H301 C287 0.958 . S
H302 C287 0.961 . S
H303 C287 0.960 . S
C304 C305 1.391 . S
C304 C306 1.394 . S
C304 H320 0.931 1_545 S
C305 C304 1.391 . S
C305 C309 1.376 . S
C306 C304 1.394 . S
C306 C307 1.369 . S
C306 C310 1.531 . S
C307 C306 1.369 . S
C307 C308 1.410 . S
C307 C315 1.503 . S
C308 C307 1.410 . S
C308 C309 1.392 . S
C308 C311 1.511 . S
C309 C305 1.376 . S
C309 C308 1.392 . S
C309 H321 0.929 . S
C310 C306 1.531 . S
C310 H322 0.960 . S
C310 H323 0.962 1_545 S
C310 H324 0.960 1_545 S
C311 C308 1.511 . S
C311 H325 0.961 . S
C311 H326 0.961 . S
C311 H327 0.961 . S
C312 C313 1.370 . S
C312 C314 1.363 . S
C312 H328 0.931 1_455 S
C313 C312 1.370 . S
C313 C317 1.408 . S
C314 C312 1.363 . S
C314 C315 1.370 . S
C314 C318 1.524 . S
C315 C307 1.503 . S
C315 C314 1.370 . S
C315 C316 1.403 . S
C316 C315 1.403 . S
C316 C317 1.404 . S
C316 C319 1.539 . S
C317 C313 1.408 . S
C317 C316 1.404 . S
C317 H329 0.930 . S
C318 C314 1.524 . S
C318 H330 0.956 . S
C318 H331 0.961 . S
C318 H332 0.961 . S
C319 C316 1.539 . S
C319 H333 0.958 . S
C319 H334 0.961 . S
C319 H335 0.960 . S
H320 C304 0.931 1_565 S
H321 C309 0.929 . S
H322 C310 0.960 . S
H323 C310 0.962 1_565 S
H324 C310 0.960 1_565 S
H325 C311 0.961 . S
H326 C311 0.961 . S
H327 C311 0.961 . S
H328 C312 0.931 1_655 S
H329 C317 0.930 . S
H330 C318 0.956 . S
H331 C318 0.961 . S
H332 C318 0.961 . S
H333 C319 0.958 . S
H334 C319 0.961 . S
H335 C319 0.960 . S
C336 C337 1.391 . S
C336 C338 1.394 . S
C336 H352 0.931 . S
C337 C336 1.391 . S
C337 C341 1.376 . S
C338 C336 1.394 . S
C338 C339 1.369 . S
C338 C342 1.531 . S
C339 C338 1.369 . S
C339 C340 1.410 . S
C339 C347 1.503 . S
C340 C339 1.410 . S
C340 C341 1.392 . S
C340 C343 1.511 . S
C341 C337 1.376 . S
C341 C340 1.392 . S
C341 H353 0.929 . S
C342 C338 1.531 . S
C342 H354 0.960 . S
C342 H355 0.962 . S
C342 H356 0.960 . S
C343 C340 1.511 . S
C343 H357 0.961 . S
C343 H358 0.961 . S
C343 H359 0.961 . S
C344 C345 1.370 . S
C344 C346 1.363 . S
C344 H360 0.931 . S
C345 C344 1.370 . S
C345 C349 1.408 . S
C346 C344 1.363 . S
C346 C347 1.370 . S
C346 C350 1.524 . S
C347 C339 1.503 . S
C347 C346 1.370 . S
C347 C348 1.403 . S
C348 C347 1.403 . S
C348 C349 1.404 . S
C348 C351 1.539 . S
C349 C345 1.408 . S
C349 C348 1.404 . S
C349 H361 0.930 . S
C350 C346 1.524 . S
C350 H362 0.956 . S
C350 H363 0.961 . S
C350 H364 0.961 . S
C351 C348 1.539 . S
C351 H365 0.958 . S
C351 H366 0.961 . S
C351 H367 0.960 . S
H352 C336 0.931 . S
H353 C341 0.929 . S
H354 C342 0.960 . S
H355 C342 0.962 . S
H356 C342 0.960 . S
H357 C343 0.961 . S
H358 C343 0.961 . S
H359 C343 0.961 . S
H360 C344 0.931 . S
H361 C349 0.930 . S
H362 C350 0.956 . S
H363 C350 0.961 . S
H364 C350 0.961 . S
H365 C351 0.958 . S
H366 C351 0.961 . S
H367 C351 0.960 . S
C368 C369 1.391 . S
C368 C370 1.394 . S
C368 H384 0.931 . S
C369 C368 1.391 . S
C369 C373 1.376 . S
C370 C368 1.394 . S
C370 C371 1.369 . S
C370 C374 1.531 . S
C371 C370 1.369 . S
C371 C372 1.410 . S
C371 C379 1.503 1_455 S
C372 C371 1.410 . S
C372 C373 1.392 . S
C372 C375 1.511 1_455 S
C373 C369 1.376 . S
C373 C372 1.392 . S
C373 H385 0.929 . S
C374 C370 1.531 . S
C374 H386 0.960 . S
C374 H387 0.962 . S
C374 H388 0.960 . S
C375 C372 1.511 1_655 S
C375 H389 0.961 . S
C375 H390 0.961 . S
C375 H391 0.961 . S
C376 C377 1.370 . S
C376 C378 1.363 . S
C376 H392 0.931 . S
C377 C376 1.370 . S
C377 C381 1.408 . S
C378 C376 1.363 . S
C378 C379 1.370 . S
C378 C382 1.524 1_655 S
C379 C371 1.503 1_655 S
C379 C378 1.370 . S
C379 C380 1.403 . S
C380 C379 1.403 . S
C380 C381 1.404 . S
C380 C383 1.539 . S
C381 C377 1.408 . S
C381 C380 1.404 . S
C381 H393 0.930 . S
C382 C378 1.524 1_455 S
C382 H394 0.956 . S
C382 H395 0.961 . S
C382 H396 0.961 1_455 S
C383 C380 1.539 . S
C383 H397 0.958 . S
C383 H398 0.961 . S
C383 H399 0.960 . S
H384 C368 0.931 . S
H385 C373 0.929 . S
H386 C374 0.960 . S
H387 C374 0.962 . S
H388 C374 0.960 . S
H389 C375 0.961 . S
H390 C375 0.961 . S
H391 C375 0.961 . S
H392 C376 0.931 . S
H393 C381 0.930 . S
H394 C382 0.956 . S
H395 C382 0.961 . S
H396 C382 0.961 1_655 S
H397 C383 0.958 . S
H398 C383 0.961 . S
H399 C383 0.960 . S
C400 C401 1.391 . S
C400 C402 1.394 . S
C400 H416 0.931 . S
C401 C400 1.391 . S
C401 C405 1.376 . S
C402 C400 1.394 . S
C402 C403 1.369 . S
C402 C406 1.531 . S
C403 C402 1.369 . S
C403 C404 1.410 . S
C403 C411 1.489 1_545 S
C404 C403 1.410 . S
C404 C405 1.392 . S
C404 C407 1.511 . S
C405 C401 1.376 . S
C405 C404 1.392 . S
C405 H417 0.929 . S
C406 C402 1.531 . S
C406 H418 0.960 1_545 S
C406 H419 0.962 1_545 S
C406 H420 0.960 . S
C407 C404 1.511 . S
C407 H421 0.961 . S
C407 H422 0.961 . S
C407 H423 0.961 . S
C408 C409 1.370 . S
C408 C410 1.363 . S
C408 H424 0.931 . S
C409 C408 1.370 . S
C409 C413 1.408 . S
C410 C408 1.363 . S
C410 C411 1.382 . S
C410 C414 1.524 . S
C411 C403 1.489 1_565 S
C411 C410 1.382 . S
C411 C412 1.405 . S
C412 C411 1.405 . S
C412 C413 1.404 . S
C412 C415 1.539 1_565 S
C413 C409 1.408 . S
C413 C412 1.404 . S
C413 H425 0.930 . S
C414 C410 1.524 . S
C414 H426 0.956 . S
C414 H427 0.961 . S
C414 H428 0.961 . S
C415 C412 1.539 1_545 S
C415 H429 0.958 . S
C415 H430 0.961 . S
C415 H431 0.960 . S
H416 C400 0.931 . S
H417 C405 0.929 . S
H418 C406 0.960 1_565 S
H419 C406 0.962 1_565 S
H420 C406 0.960 . S
H421 C407 0.961 . S
H422 C407 0.961 . S
H423 C407 0.961 . S
H424 C408 0.931 . S
H425 C413 0.930 . S
H426 C414 0.956 . S
H427 C414 0.961 . S
H428 C414 0.961 . S
H429 C415 0.958 . S
H430 C415 0.961 . S
H431 C415 0.960 . S
C432 C433 1.391 . S
C432 C434 1.394 . S
C432 H448 0.931 . S
C433 C432 1.391 . S
C433 C437 1.376 . S
C434 C432 1.394 . S
C434 C435 1.369 . S
C434 C438 1.531 . S
C435 C434 1.369 . S
C435 C436 1.410 . S
C435 C443 1.503 . S
C436 C435 1.410 . S
C436 C437 1.392 . S
C436 C439 1.511 . S
C437 C433 1.376 . S
C437 C436 1.392 . S
C437 H449 0.929 . S
C438 C434 1.531 . S
C438 H450 0.960 . S
C438 H451 0.962 . S
C438 H452 0.960 . S
C439 C436 1.511 . S
C439 H453 0.961 . S
C439 H454 0.961 . S
C439 H455 0.961 . S
C440 C441 1.370 . S
C440 C442 1.363 1_455 S
C440 H456 0.931 . S
C441 C440 1.370 . S
C441 C445 1.408 1_455 S
C442 C440 1.363 1_655 S
C442 C443 1.370 . S
C442 C446 1.524 . S
C443 C435 1.503 . S
C443 C442 1.370 . S
C443 C444 1.403 . S
C444 C443 1.403 . S
C444 C445 1.404 . S
C444 C447 1.539 . S
C445 C441 1.408 1_655 S
C445 C444 1.404 . S
C445 H457 0.930 . S
C446 C442 1.524 . S
C446 H458 0.956 . S
C446 H459 0.961 . S
C446 H460 0.961 1_655 S
C447 C444 1.539 . S
C447 H461 0.958 . S
C447 H462 0.961 . S
C447 H463 0.960 . S
H448 C432 0.931 . S
H449 C437 0.929 . S
H450 C438 0.960 . S
H451 C438 0.962 . S
H452 C438 0.960 . S
H453 C439 0.961 . S
H454 C439 0.961 . S
H455 C439 0.961 . S
H456 C440 0.931 . S
H457 C445 0.930 . S
H458 C446 0.956 . S
H459 C446 0.961 . S
H460 C446 0.961 1_455 S
H461 C447 0.958 . S
H462 C447 0.961 . S
H463 C447 0.960 . S
C464 C465 1.391 . S
C464 C466 1.394 . S
C464 H480 0.931 . S
C465 C464 1.391 . S
C465 C469 1.376 . S
C466 C464 1.394 . S
C466 C467 1.369 . S
C466 C470 1.531 . S
C467 C466 1.369 . S
C467 C468 1.410 . S
C467 C475 1.503 . S
C468 C467 1.410 . S
C468 C469 1.392 . S
C468 C471 1.511 . S
C469 C465 1.376 . S
C469 C468 1.392 . S
C469 H481 0.929 . S
C470 C466 1.531 . S
C470 H482 0.960 . S
C470 H483 0.962 . S
C470 H484 0.960 . S
C471 C468 1.511 . S
C471 H485 0.961 . S
C471 H486 0.961 . S
C471 H487 0.961 . S
C472 C473 1.370 1_565 S
C472 C474 1.363 . S
C472 H488 0.931 . S
C473 C472 1.370 1_545 S
C473 C477 1.408 . S
C474 C472 1.363 . S
C474 C475 1.370 . S
C474 C478 1.524 . S
C475 C467 1.503 . S
C475 C474 1.370 . S
C475 C476 1.403 1_565 S
C476 C475 1.403 1_545 S
C476 C477 1.404 . S
C476 C479 1.539 . S
C477 C473 1.408 . S
C477 C476 1.404 . S
C477 H489 0.930 . S
C478 C474 1.524 . S
C478 H490 0.956 . S
C478 H491 0.961 . S
C478 H492 0.961 . S
C479 C476 1.539 . S
C479 H493 0.958 . S
C479 H494 0.961 . S
C479 H495 0.960 1_545 S
H480 C464 0.931 . S
H481 C469 0.929 . S
H482 C470 0.960 . S
H483 C470 0.962 . S
H484 C470 0.960 . S
H485 C471 0.961 . S
H486 C471 0.961 . S
H487 C471 0.961 . S
H488 C472 0.931 . S
H489 C477 0.930 . S
H490 C478 0.956 . S
H491 C478 0.961 . S
H492 C478 0.961 . S
H493 C479 0.958 . S
H494 C479 0.961 . S
H495 C479 0.960 1_565 S
C496 C497 1.391 . S
C496 C498 1.394 . S
C496 H512 0.931 . S
C497 C496 1.391 . S
C497 C501 1.376 . S
C498 C496 1.394 . S
C498 C499 1.369 . S
C498 C502 1.531 . S
C499 C498 1.369 . S
C499 C500 1.410 . S
C499 C507 1.503 . S
C500 C499 1.410 . S
C500 C501 1.392 . S
C500 C503 1.511 . S
C501 C497 1.376 . S
C501 C500 1.392 . S
C501 H513 0.929 . S
C502 C498 1.531 . S
C502 H514 0.960 . S
C502 H515 0.962 . S
C502 H516 0.960 . S
C503 C500 1.511 . S
C503 H517 0.961 . S
C503 H518 0.961 . S
C503 H519 0.961 . S
C504 C505 1.370 . S
C504 C506 1.363 . S
C504 H520 0.931 . S
C505 C504 1.370 . S
C505 C509 1.408 . S
C506 C504 1.363 . S
C506 C507 1.370 . S
C506 C510 1.524 . S
C507 C499 1.503 . S
C507 C506 1.370 . S
C507 C508 1.403 . S
C508 C507 1.403 . S
C508 C509 1.404 . S
C508 C511 1.539 . S
C509 C505 1.408 . S
C509 C508 1.404 . S
C509 H521 0.930 . S
C510 C506 1.524 . S
C510 H522 0.956 . S
C510 H523 0.961 . S
C510 H524 0.961 . S
C511 C508 1.539 . S
C511 H525 0.958 . S
C511 H526 0.961 . S
C511 H527 0.960 . S
H512 C496 0.931 . S
H513 C501 0.929 . S
H514 C502 0.960 . S
H515 C502 0.962 . S
H516 C502 0.960 . S
H517 C503 0.961 . S
H518 C503 0.961 . S
H519 C503 0.961 . S
H520 C504 0.931 . S
H521 C509 0.930 . S
H522 C510 0.956 . S
H523 C510 0.961 . S
H524 C510 0.961 . S
H525 C511 0.958 . S
H526 C511 0.961 . S
H527 C511 0.960 . S
C528 C529 1.391 1_556 S
C528 C530 1.394 . S
C528 H544 0.931 . S
C529 C528 1.391 1_554 S
C529 C533 1.376 . S
C530 C528 1.394 . S
C530 C531 1.369 1_556 S
C530 C534 1.531 . S
C531 C530 1.369 1_554 S
C531 C532 1.410 . S
C531 C539 1.503 . S
C532 C531 1.410 . S
C532 C533 1.392 . S
C532 C535 1.511 . S
C533 C529 1.376 . S
C533 C532 1.392 . S
C533 H545 0.929 . S
C534 C530 1.531 . S
C534 H546 0.960 . S
C534 H547 0.962 . S
C534 H548 0.960 . S
C535 C532 1.511 . S
C535 H549 0.961 . S
C535 H550 0.961 . S
C535 H551 0.961 . S
C536 C537 1.370 . S
C536 C538 1.363 . S
C536 H552 0.931 1_544 S
C537 C536 1.370 . S
C537 C541 1.408 . S
C538 C536 1.363 . S
C538 C539 1.370 . S
C538 C542 1.524 1_554 S
C539 C531 1.503 . S
C539 C538 1.370 . S
C539 C540 1.403 . S
C540 C539 1.403 . S
C540 C541 1.404 . S
C540 C543 1.539 . S
C541 C537 1.408 . S
C541 C540 1.404 . S
C541 H553 0.930 . S
C542 C538 1.524 1_556 S
C542 H554 0.956 . S
C542 H555 0.961 1_556 S
C542 H556 0.961 1_545 S
C543 C540 1.539 . S
C543 H557 0.958 . S
C543 H558 0.961 . S
C543 H559 0.960 . S
H544 C528 0.931 . S
H545 C533 0.929 . S
H546 C534 0.960 . S
H547 C534 0.962 . S
H548 C534 0.960 . S
H549 C535 0.961 . S
H550 C535 0.961 . S
H551 C535 0.961 . S
H552 C536 0.931 1_566 S
H553 C541 0.930 . S
H554 C542 0.956 . S
H555 C542 0.961 1_554 S
H556 C542 0.961 1_565 S
H557 C543 0.958 . S
H558 C543 0.961 . S
H559 C543 0.960 . S
C560 C561 1.391 . S
C560 C562 1.394 . S
C560 H576 0.931 . S
C561 C560 1.391 . S
C561 C565 1.376 . S
C562 C560 1.394 . S
C562 C563 1.369 . S
C562 C566 1.531 . S
C563 C562 1.369 . S
C563 C564 1.410 . S
C563 C571 1.503 . S
C564 C563 1.410 . S
C564 C565 1.392 . S
C564 C567 1.511 . S
C565 C561 1.376 . S
C565 C564 1.392 . S
C565 H577 0.929 . S
C566 C562 1.531 . S
C566 H578 0.960 . S
C566 H579 0.962 . S
C566 H580 0.960 . S
C567 C564 1.511 . S
C567 H581 0.961 . S
C567 H582 0.961 . S
C567 H583 0.961 . S
C568 C569 1.370 . S
C568 C570 1.363 . S
C568 H584 0.931 . S
C569 C568 1.370 . S
C569 C573 1.408 . S
C570 C568 1.363 . S
C570 C571 1.370 . S
C570 C574 1.524 . S
C571 C563 1.503 . S
C571 C570 1.370 . S
C571 C572 1.403 . S
C572 C571 1.403 . S
C572 C573 1.404 . S
C572 C575 1.539 . S
C573 C569 1.408 . S
C573 C572 1.404 . S
C573 H585 0.930 . S
C574 C570 1.524 . S
C574 H586 0.956 . S
C574 H587 0.961 . S
C574 H588 0.961 . S
C575 C572 1.539 . S
C575 H589 0.958 . S
C575 H590 0.961 . S
C575 H591 0.960 . S
H576 C560 0.931 . S
H577 C565 0.929 . S
H578 C566 0.960 . S
H579 C566 0.962 . S
H580 C566 0.960 . S
H581 C567 0.961 . S
H582 C567 0.961 . S
H583 C567 0.961 . S
H584 C568 0.931 . S
H585 C573 0.930 . S
H586 C574 0.956 . S
H587 C574 0.961 . S
H588 C574 0.961 . S
H589 C575 0.958 . S
H590 C575 0.961 . S
H591 C575 0.960 . S
C592 C593 1.391 . S
C592 C594 1.394 . S
C592 H608 0.931 . S
C593 C592 1.391 . S
C593 C597 1.376 . S
C594 C592 1.394 . S
C594 C595 1.369 . S
C594 C598 1.531 . S
C595 C594 1.369 . S
C595 C596 1.410 . S
C595 C603 1.503 . S
C596 C595 1.410 . S
C596 C597 1.392 . S
C596 C599 1.511 . S
C597 C593 1.376 . S
C597 C596 1.392 . S
C597 H609 0.929 . S
C598 C594 1.531 . S
C598 H610 0.960 . S
C598 H611 0.962 . S
C598 H612 0.960 . S
C599 C596 1.511 . S
C599 H613 0.961 . S
C599 H614 0.961 . S
C599 H615 0.961 . S
C600 C601 1.370 . S
C600 C602 1.363 . S
C600 H616 0.931 . S
C601 C600 1.370 . S
C601 C605 1.408 . S
C602 C600 1.363 . S
C602 C603 1.370 . S
C602 C606 1.524 . S
C603 C595 1.503 . S
C603 C602 1.370 . S
C603 C604 1.403 . S
C604 C603 1.403 . S
C604 C605 1.404 . S
C604 C607 1.539 . S
C605 C601 1.408 . S
C605 C604 1.404 . S
C605 H617 0.930 . S
C606 C602 1.524 . S
C606 H618 0.956 . S
C606 H619 0.961 . S
C606 H620 0.961 . S
C607 C604 1.539 . S
C607 H621 0.958 . S
C607 H622 0.961 . S
C607 H623 0.960 . S
H608 C592 0.931 . S
H609 C597 0.929 . S
H610 C598 0.960 . S
H611 C598 0.962 . S
H612 C598 0.960 . S
H613 C599 0.961 . S
H614 C599 0.961 . S
H615 C599 0.961 . S
H616 C600 0.931 . S
H617 C605 0.930 . S
H618 C606 0.956 . S
H619 C606 0.961 . S
H620 C606 0.961 . S
H621 C607 0.958 . S
H622 C607 0.961 . S
H623 C607 0.960 . S
C624 C625 1.391 . S
C624 C626 1.394 . S
C624 H640 0.931 . S
C625 C624 1.391 . S
C625 C629 1.376 . S
C626 C624 1.394 . S
C626 C627 1.369 . S
C626 C630 1.531 . S
C627 C626 1.369 . S
C627 C628 1.410 . S
C627 C635 1.503 . S
C628 C627 1.410 . S
C628 C629 1.392 . S
C628 C631 1.511 . S
C629 C625 1.376 . S
C629 C628 1.392 . S
C629 H641 0.929 . S
C630 C626 1.531 . S
C630 H642 0.960 . S
C630 H643 0.962 . S
C630 H644 0.960 . S
C631 C628 1.511 . S
C631 H645 0.961 . S
C631 H646 0.961 . S
C631 H647 0.961 . S
C632 C633 1.370 . S
C632 C634 1.363 . S
C632 H648 0.931 . S
C633 C632 1.370 . S
C633 C637 1.408 . S
C634 C632 1.363 . S
C634 C635 1.370 . S
C634 C638 1.524 . S
C635 C627 1.503 . S
C635 C634 1.370 . S
C635 C636 1.403 . S
C636 C635 1.403 . S
C636 C637 1.404 . S
C636 C639 1.539 . S
C637 C633 1.408 . S
C637 C636 1.404 . S
C637 H649 0.930 . S
C638 C634 1.524 . S
C638 H650 0.956 . S
C638 H651 0.961 . S
C638 H652 0.961 . S
C639 C636 1.539 . S
C639 H653 0.958 . S
C639 H654 0.961 . S
C639 H655 0.960 . S
H640 C624 0.931 . S
H641 C629 0.929 . S
H642 C630 0.960 . S
H643 C630 0.962 . S
H644 C630 0.960 . S
H645 C631 0.961 . S
H646 C631 0.961 . S
H647 C631 0.961 . S
H648 C632 0.931 . S
H649 C637 0.930 . S
H650 C638 0.956 . S
H651 C638 0.961 . S
H652 C638 0.961 . S
H653 C639 0.958 . S
H654 C639 0.961 . S
H655 C639 0.960 . S
C656 C657 1.391 . S
C656 C658 1.394 . S
C656 H672 0.931 . S
C657 C656 1.391 . S
C657 C661 1.376 . S
C658 C656 1.394 . S
C658 C659 1.369 . S
C658 C662 1.531 . S
C659 C658 1.369 . S
C659 C660 1.410 . S
C659 C667 1.503 . S
C660 C659 1.410 . S
C660 C661 1.392 . S
C660 C663 1.511 . S
C661 C657 1.376 . S
C661 C660 1.392 . S
C661 H673 0.929 . S
C662 C658 1.531 . S
C662 H674 0.960 . S
C662 H675 0.962 . S
C662 H676 0.960 . S
C663 C660 1.511 . S
C663 H677 0.961 . S
C663 H678 0.961 . S
C663 H679 0.961 . S
C664 C665 1.370 . S
C664 C666 1.363 . S
C664 H680 0.931 . S
C665 C664 1.370 . S
C665 C669 1.408 . S
C666 C664 1.363 . S
C666 C667 1.370 . S
C666 C670 1.524 . S
C667 C659 1.503 . S
C667 C666 1.370 . S
C667 C668 1.403 . S
C668 C667 1.403 . S
C668 C669 1.404 . S
C668 C671 1.539 . S
C669 C665 1.408 . S
C669 C668 1.404 . S
C669 H681 0.930 . S
C670 C666 1.524 . S
C670 H682 0.956 . S
C670 H683 0.961 . S
C670 H684 0.961 . S
C671 C668 1.539 . S
C671 H685 0.958 . S
C671 H686 0.961 . S
C671 H687 0.960 . S
H672 C656 0.931 . S
H673 C661 0.929 . S
H674 C662 0.960 . S
H675 C662 0.962 . S
H676 C662 0.960 . S
H677 C663 0.961 . S
H678 C663 0.961 . S
H679 C663 0.961 . S
H680 C664 0.931 . S
H681 C669 0.930 . S
H682 C670 0.956 . S
H683 C670 0.961 . S
H684 C670 0.961 . S
H685 C671 0.958 . S
H686 C671 0.961 . S
H687 C671 0.960 . S
C688 C689 1.391 . S
C688 C690 1.394 . S
C688 H704 0.931 1_655 S
C689 C688 1.391 . S
C689 C693 1.376 . S
C690 C688 1.394 . S
C690 C691 1.369 . S
C690 C694 1.531 1_655 S
C691 C690 1.369 . S
C691 C692 1.410 . S
C691 C699 1.503 . S
C692 C691 1.410 . S
C692 C693 1.392 . S
C692 C695 1.511 . S
C693 C689 1.376 . S
C693 C692 1.392 . S
C693 H705 0.929 . S
C694 C690 1.531 1_455 S
C694 H706 0.960 . S
C694 H707 0.962 . S
C694 H708 0.960 . S
C695 C692 1.511 . S
C695 H709 0.961 . S
C695 H710 0.961 . S
C695 H711 0.961 . S
C696 C697 1.370 . S
C696 C698 1.363 . S
C696 H712 0.931 . S
C697 C696 1.370 . S
C697 C701 1.408 . S
C698 C696 1.363 . S
C698 C699 1.370 . S
C698 C702 1.524 . S
C699 C691 1.503 . S
C699 C698 1.370 . S
C699 C700 1.403 . S
C700 C699 1.403 . S
C700 C701 1.404 . S
C700 C703 1.539 . S
C701 C697 1.408 . S
C701 C700 1.404 . S
C701 H713 0.930 . S
C702 C698 1.524 . S
C702 H714 0.956 . S
C702 H715 0.961 . S
C702 H716 0.961 . S
C703 C700 1.539 . S
C703 H717 0.958 . S
C703 H718 0.961 . S
C703 H719 0.960 . S
H704 C688 0.931 1_455 S
H705 C693 0.929 . S
H706 C694 0.960 . S
H707 C694 0.962 . S
H708 C694 0.960 . S
H709 C695 0.961 . S
H710 C695 0.961 . S
H711 C695 0.961 . S
H712 C696 0.931 . S
H713 C701 0.930 . S
H714 C702 0.956 . S
H715 C702 0.961 . S
H716 C702 0.961 . S
H717 C703 0.958 . S
H718 C703 0.961 . S
H719 C703 0.960 . S
C720 C721 1.391 . S
C720 C722 1.394 . S
C720 H736 0.931 . S
C721 C720 1.391 . S
C721 C725 1.376 . S
C722 C720 1.394 . S
C722 C723 1.369 . S
C722 C726 1.531 . S
C723 C722 1.369 . S
C723 C724 1.410 . S
C723 C731 1.503 . S
C724 C723 1.410 . S
C724 C725 1.392 . S
C724 C727 1.511 . S
C725 C721 1.376 . S
C725 C724 1.392 . S
C725 H737 0.929 . S
C726 C722 1.531 . S
C726 H738 0.960 . S
C726 H739 0.962 . S
C726 H740 0.960 . S
C727 C724 1.511 . S
C727 H741 0.961 . S
C727 H742 0.961 . S
C727 H743 0.961 . S
C728 C729 1.370 . S
C728 C730 1.363 . S
C728 H744 0.931 . S
C729 C728 1.370 . S
C729 C733 1.408 . S
C730 C728 1.363 . S
C730 C731 1.370 . S
C730 C734 1.524 . S
C731 C723 1.503 . S
C731 C730 1.370 . S
C731 C732 1.403 . S
C732 C731 1.403 . S
C732 C733 1.404 . S
C732 C735 1.539 . S
C733 C729 1.408 . S
C733 C732 1.404 . S
C733 H745 0.930 . S
C734 C730 1.524 . S
C734 H746 0.956 . S
C734 H747 0.961 1_565 S
C734 H748 0.961 1_565 S
C735 C732 1.539 . S
C735 H749 0.958 . S
C735 H750 0.961 . S
C735 H751 0.960 . S
H736 C720 0.931 . S
H737 C725 0.929 . S
H738 C726 0.960 . S
H739 C726 0.962 . S
H740 C726 0.960 . S
H741 C727 0.961 . S
H742 C727 0.961 . S
H743 C727 0.961 . S
H744 C728 0.931 . S
H745 C733 0.930 . S
H746 C734 0.956 . S
H747 C734 0.961 1_545 S
H748 C734 0.961 1_545 S
H749 C735 0.958 . S
H750 C735 0.961 . S
H751 C735 0.960 . S
C752 C753 1.391 . S
C752 C754 1.394 . S
C752 H768 0.931 . S
C753 C752 1.391 . S
C753 C757 1.376 1_455 S
C754 C752 1.394 . S
C754 C755 1.369 . S
C754 C758 1.531 . S
C755 C754 1.369 . S
C755 C756 1.410 . S
C755 C763 1.503 . S
C756 C755 1.410 . S
C756 C757 1.392 1_455 S
C756 C759 1.511 1_455 S
C757 C753 1.376 1_655 S
C757 C756 1.392 1_655 S
C757 H769 0.929 . S
C758 C754 1.531 . S
C758 H770 0.960 . S
C758 H771 0.962 . S
C758 H772 0.960 . S
C759 C756 1.511 1_655 S
C759 H773 0.961 . S
C759 H774 0.961 . S
C759 H775 0.961 . S
C760 C761 1.370 . S
C760 C762 1.363 . S
C760 H776 0.931 . S
C761 C760 1.370 . S
C761 C765 1.408 . S
C762 C760 1.363 . S
C762 C763 1.370 . S
C762 C766 1.524 . S
C763 C755 1.503 . S
C763 C762 1.370 . S
C763 C764 1.403 . S
C764 C763 1.403 . S
C764 C765 1.404 . S
C764 C767 1.539 . S
C765 C761 1.408 . S
C765 C764 1.404 . S
C765 H777 0.930 . S
C766 C762 1.524 . S
C766 H778 0.956 . S
C766 H779 0.961 1_455 S
C766 H780 0.961 . S
C767 C764 1.539 . S
C767 H781 0.958 1_565 S
C767 H782 0.961 1_565 S
C767 H783 0.960 . S
H768 C752 0.931 . S
H769 C757 0.929 . S
H770 C758 0.960 . S
H771 C758 0.962 . S
H772 C758 0.960 . S
H773 C759 0.961 . S
H774 C759 0.961 . S
H775 C759 0.961 . S
H776 C760 0.931 . S
H777 C765 0.930 . S
H778 C766 0.956 . S
H779 C766 0.961 1_655 S
H780 C766 0.961 . S
H781 C767 0.958 1_545 S
H782 C767 0.961 1_545 S
H783 C767 0.960 . S
C784 C785 1.391 . S
C784 C786 1.394 . S
C784 H800 0.931 . S
C785 C784 1.391 . S
C785 C789 1.376 . S
C786 C784 1.394 . S
C786 C787 1.369 . S
C786 C790 1.531 . S
C787 C786 1.369 . S
C787 C788 1.410 . S
C787 C795 1.503 . S
C788 C787 1.410 . S
C788 C789 1.392 . S
C788 C791 1.511 . S
C789 C785 1.376 . S
C789 C788 1.392 . S
C789 H801 0.929 . S
C790 C786 1.531 . S
C790 H802 0.960 . S
C790 H803 0.962 . S
C790 H804 0.960 . S
C791 C788 1.511 . S
C791 H805 0.961 1_545 S
C791 H806 0.961 . S
C791 H807 0.961 . S
C792 C793 1.370 . S
C792 C794 1.363 . S
C792 H808 0.931 . S
C793 C792 1.370 . S
C793 C797 1.408 . S
C794 C792 1.363 . S
C794 C795 1.370 . S
C794 C798 1.524 1_545 S
C795 C787 1.503 . S
C795 C794 1.370 . S
C795 C796 1.403 . S
C796 C795 1.403 . S
C796 C797 1.404 . S
C796 C799 1.539 . S
C797 C793 1.408 . S
C797 C796 1.404 . S
C797 H809 0.930 . S
C798 C794 1.524 1_565 S
C798 H810 0.956 1_565 S
C798 H811 0.961 . S
C798 H812 0.961 . S
C799 C796 1.539 . S
C799 H813 0.958 . S
C799 H814 0.961 . S
C799 H815 0.960 . S
H800 C784 0.931 . S
H801 C789 0.929 . S
H802 C790 0.960 . S
H803 C790 0.962 . S
H804 C790 0.960 . S
H805 C791 0.961 1_565 S
H806 C791 0.961 . S
H807 C791 0.961 . S
H808 C792 0.931 . S
H809 C797 0.930 . S
H810 C798 0.956 1_545 S
H811 C798 0.961 . S
H812 C798 0.961 . S
H813 C799 0.958 . S
H814 C799 0.961 . S
H815 C799 0.960 . S
C241 C129 0.723 . S
C249 C9 0.639 . S
C273 C169 0.642 . S
C281 C49 0.721 . S
C305 C209 0.715 . S
C313 C89 0.642 . S
C337 C15 0.668 . S
C345 C86 0.783 . S
C369 C55 0.658 . S
C377 C126 0.798 . S
C401 C95 0.847 . S
C409 C166 0.727 . S
C433 C135 0.802 . S
C441 C206 0.778 . S
C465 C175 0.699 . S
C473 C6 0.767 . S
C497 C215 0.802 . S
C505 C46 0.733 . S
C529 C18 1.495 . S
C537 C138 1.474 1_545 S
C561 C58 1.473 . S
C569 C178 1.489 . S
C593 C98 1.462 1_455 S
C601 C218 1.488 . S
C625 C10 4.037 . S
C633 C59 4.096 . S
C657 C50 4.042 . S
C665 C99 4.095 . S
C689 C90 4.042 . S
C697 C139 4.099 . S
C721 C130 4.039 . S
C729 C179 4.096 . S
C753 C170 4.026 1_455 S
C761 C219 4.099 . S
C785 C210 4.028 1_545 S
C793 C19 4.098 . S
