# Generated by pormake.
# Topology ukw, (4)-cn, num edge types: 1
# Building blocks:
#     Node 0, Type 0, BuildingBlock: GALJAG_clean_sbu_0, # of connection points: 4
#     Node 1, Type 0, BuildingBlock: GALJAG_clean_sbu_0, # of connection points: 4
#     Node 2, Type 0, BuildingBlock: GALJAG_clean_sbu_0, # of connection points: 4
#     Node 3, Type 0, BuildingBlock: GALJAG_clean_sbu_0, # of connection points: 4
#     Node 4, Type 0, BuildingBlock: GALJAG_clean_sbu_0, # of connection points: 4
#     Node 5, Type 0, BuildingBlock: GALJAG_clean_sbu_0, # of connection points: 4
#     Node 6, Type 0, BuildingBlock: GALJAG_clean_sbu_0, # of connection points: 4
#     Node 7, Type 0, BuildingBlock: GALJAG_clean_sbu_0, # of connection points: 4
#     Node 8, Type 0, BuildingBlock: GALJAG_clean_sbu_0, # of connection points: 4
#     Node 9, Type 0, BuildingBlock: GALJAG_clean_sbu_0, # of connection points: 4
#     Node 10, Type 0, BuildingBlock: GALJAG_clean_sbu_0, # of connection points: 4
#     Node 11, Type 0, BuildingBlock: GALJAG_clean_sbu_0, # of connection points: 4
#     Node 12, Type 0, BuildingBlock: GALJAG_clean_sbu_0, # of connection points: 4
#     Node 13, Type 0, BuildingBlock: GALJAG_clean_sbu_0, # of connection points: 4
#     Node 14, Type 0, BuildingBlock: GALJAG_clean_sbu_0, # of connection points: 4
#     Node 15, Type 0, BuildingBlock: GALJAG_clean_sbu_0, # of connection points: 4
#     Node 16, Type 0, BuildingBlock: GALJAG_clean_sbu_0, # of connection points: 4
#     Node 17, Type 0, BuildingBlock: GALJAG_clean_sbu_0, # of connection points: 4
#     Node 18, Type 0, BuildingBlock: GALJAG_clean_sbu_0, # of connection points: 4
#     Node 19, Type 0, BuildingBlock: GALJAG_clean_sbu_0, # of connection points: 4
#     Node 20, Type 0, BuildingBlock: GALJAG_clean_sbu_0, # of connection points: 4
#     Node 21, Type 0, BuildingBlock: GALJAG_clean_sbu_0, # of connection points: 4
#     Node 22, Type 0, BuildingBlock: GALJAG_clean_sbu_0, # of connection points: 4
#     Node 23, Type 0, BuildingBlock: GALJAG_clean_sbu_0, # of connection points: 4
#     Node 24, Type 0, BuildingBlock: GALJAG_clean_sbu_0, # of connection points: 4
#     Node 25, Type 0, BuildingBlock: GALJAG_clean_sbu_0, # of connection points: 4
#     Node 26, Type 0, BuildingBlock: GALJAG_clean_sbu_0, # of connection points: 4
#     Node 27, Type 0, BuildingBlock: GALJAG_clean_sbu_0, # of connection points: 4
#     Node 28, Type 0, BuildingBlock: GALJAG_clean_sbu_0, # of connection points: 4
#     Node 29, Type 0, BuildingBlock: GALJAG_clean_sbu_0, # of connection points: 4
#     Node 30, Type 0, BuildingBlock: GALJAG_clean_sbu_0, # of connection points: 4
#     Node 31, Type 0, BuildingBlock: GALJAG_clean_sbu_0, # of connection points: 4
#     Node 32, Type 0, BuildingBlock: GALJAG_clean_sbu_0, # of connection points: 4
#     Node 33, Type 0, BuildingBlock: GALJAG_clean_sbu_0, # of connection points: 4
#     Node 34, Type 0, BuildingBlock: GALJAG_clean_sbu_0, # of connection points: 4
#     Node 35, Type 0, BuildingBlock: GALJAG_clean_sbu_0, # of connection points: 4
#     Node 36, Type 0, BuildingBlock: GALJAG_clean_sbu_0, # of connection points: 4
#     Node 37, Type 0, BuildingBlock: GALJAG_clean_sbu_0, # of connection points: 4
#     Node 38, Type 0, BuildingBlock: GALJAG_clean_sbu_0, # of connection points: 4
#     Node 39, Type 0, BuildingBlock: GALJAG_clean_sbu_0, # of connection points: 4
#     Node 40, Type 0, BuildingBlock: GALJAG_clean_sbu_0, # of connection points: 4
#     Node 41, Type 0, BuildingBlock: GALJAG_clean_sbu_0, # of connection points: 4
#     Node 42, Type 0, BuildingBlock: GALJAG_clean_sbu_0, # of connection points: 4
#     Node 43, Type 0, BuildingBlock: GALJAG_clean_sbu_0, # of connection points: 4
#     Node 44, Type 0, BuildingBlock: GALJAG_clean_sbu_0, # of connection points: 4
#     Node 45, Type 0, BuildingBlock: GALJAG_clean_sbu_0, # of connection points: 4
#     Node 46, Type 0, BuildingBlock: GALJAG_clean_sbu_0, # of connection points: 4
#     Node 47, Type 0, BuildingBlock: GALJAG_clean_sbu_0, # of connection points: 4
#     Node 48, Type 0, BuildingBlock: GALJAG_clean_sbu_0, # of connection points: 4
#     Node 49, Type 0, BuildingBlock: GALJAG_clean_sbu_0, # of connection points: 4
#     Node 50, Type 0, BuildingBlock: GALJAG_clean_sbu_0, # of connection points: 4
#     Node 51, Type 0, BuildingBlock: GALJAG_clean_sbu_0, # of connection points: 4
#     Node 52, Type 0, BuildingBlock: GALJAG_clean_sbu_0, # of connection points: 4
#     Node 53, Type 0, BuildingBlock: GALJAG_clean_sbu_0, # of connection points: 4
#     Node 54, Type 0, BuildingBlock: GALJAG_clean_sbu_0, # of connection points: 4
#     Node 55, Type 0, BuildingBlock: GALJAG_clean_sbu_0, # of connection points: 4
#     Node 56, Type 0, BuildingBlock: GALJAG_clean_sbu_0, # of connection points: 4
#     Node 57, Type 0, BuildingBlock: GALJAG_clean_sbu_0, # of connection points: 4
#     Node 58, Type 0, BuildingBlock: GALJAG_clean_sbu_0, # of connection points: 4
#     Node 59, Type 0, BuildingBlock: GALJAG_clean_sbu_0, # of connection points: 4
#     Node 60, Type 0, BuildingBlock: GALJAG_clean_sbu_0, # of connection points: 4
#     Node 61, Type 0, BuildingBlock: GALJAG_clean_sbu_0, # of connection points: 4
#     Node 62, Type 0, BuildingBlock: GALJAG_clean_sbu_0, # of connection points: 4
#     Node 63, Type 0, BuildingBlock: GALJAG_clean_sbu_0, # of connection points: 4
#     Node 64, Type 0, BuildingBlock: GALJAG_clean_sbu_0, # of connection points: 4
#     Node 65, Type 0, BuildingBlock: GALJAG_clean_sbu_0, # of connection points: 4
#     Node 66, Type 0, BuildingBlock: GALJAG_clean_sbu_0, # of connection points: 4
#     Node 67, Type 0, BuildingBlock: GALJAG_clean_sbu_0, # of connection points: 4
#     Node 68, Type 0, BuildingBlock: GALJAG_clean_sbu_0, # of connection points: 4
#     Node 69, Type 0, BuildingBlock: GALJAG_clean_sbu_0, # of connection points: 4
#     Node 70, Type 0, BuildingBlock: GALJAG_clean_sbu_0, # of connection points: 4
#     Node 71, Type 0, BuildingBlock: GALJAG_clean_sbu_0, # of connection points: 4
#     Node 72, Type 0, BuildingBlock: GALJAG_clean_sbu_0, # of connection points: 4
#     Node 73, Type 0, BuildingBlock: GALJAG_clean_sbu_0, # of connection points: 4
#     Node 74, Type 0, BuildingBlock: GALJAG_clean_sbu_0, # of connection points: 4
#     Node 75, Type 0, BuildingBlock: GALJAG_clean_sbu_0, # of connection points: 4
#     Node 76, Type 0, BuildingBlock: GALJAG_clean_sbu_0, # of connection points: 4
#     Node 77, Type 0, BuildingBlock: GALJAG_clean_sbu_0, # of connection points: 4
#     Node 78, Type 0, BuildingBlock: GALJAG_clean_sbu_0, # of connection points: 4
#     Node 79, Type 0, BuildingBlock: GALJAG_clean_sbu_0, # of connection points: 4
#     Node 80, Type 0, BuildingBlock: GALJAG_clean_sbu_0, # of connection points: 4
#     Node 81, Type 0, BuildingBlock: GALJAG_clean_sbu_0, # of connection points: 4
#     Node 82, Type 0, BuildingBlock: GALJAG_clean_sbu_0, # of connection points: 4
#     Node 83, Type 0, BuildingBlock: GALJAG_clean_sbu_0, # of connection points: 4
#     Node 84, Type 0, BuildingBlock: GALJAG_clean_sbu_0, # of connection points: 4
#     Node 85, Type 0, BuildingBlock: GALJAG_clean_sbu_0, # of connection points: 4
#     Node 86, Type 0, BuildingBlock: GALJAG_clean_sbu_0, # of connection points: 4
#     Node 87, Type 0, BuildingBlock: GALJAG_clean_sbu_0, # of connection points: 4
#     Node 88, Type 0, BuildingBlock: GALJAG_clean_sbu_0, # of connection points: 4
#     Node 89, Type 0, BuildingBlock: GALJAG_clean_sbu_0, # of connection points: 4
#     Node 90, Type 0, BuildingBlock: GALJAG_clean_sbu_0, # of connection points: 4
#     Node 91, Type 0, BuildingBlock: GALJAG_clean_sbu_0, # of connection points: 4
#     Node 92, Type 0, BuildingBlock: GALJAG_clean_sbu_0, # of connection points: 4
#     Node 93, Type 0, BuildingBlock: GALJAG_clean_sbu_0, # of connection points: 4
#     Node 94, Type 0, BuildingBlock: GALJAG_clean_sbu_0, # of connection points: 4
#     Node 95, Type 0, BuildingBlock: GALJAG_clean_sbu_0, # of connection points: 4
#     Edge 96, Type (0, 0), BuildingBlock: XIVTED_clean_linker_0, # of connection points: 2
#     Edge 97, Type (0, 0), BuildingBlock: XIVTED_clean_linker_0, # of connection points: 2
#     Edge 98, Type (0, 0), BuildingBlock: XIVTED_clean_linker_0, # of connection points: 2
#     Edge 99, Type (0, 0), BuildingBlock: XIVTED_clean_linker_0, # of connection points: 2
#     Edge 100, Type (0, 0), BuildingBlock: XIVTED_clean_linker_0, # of connection points: 2
#     Edge 101, Type (0, 0), BuildingBlock: XIVTED_clean_linker_0, # of connection points: 2
#     Edge 102, Type (0, 0), BuildingBlock: XIVTED_clean_linker_0, # of connection points: 2
#     Edge 103, Type (0, 0), BuildingBlock: XIVTED_clean_linker_0, # of connection points: 2
#     Edge 104, Type (0, 0), BuildingBlock: XIVTED_clean_linker_0, # of connection points: 2
#     Edge 105, Type (0, 0), BuildingBlock: XIVTED_clean_linker_0, # of connection points: 2
#     Edge 106, Type (0, 0), BuildingBlock: XIVTED_clean_linker_0, # of connection points: 2
#     Edge 107, Type (0, 0), BuildingBlock: XIVTED_clean_linker_0, # of connection points: 2
#     Edge 108, Type (0, 0), BuildingBlock: XIVTED_clean_linker_0, # of connection points: 2
#     Edge 109, Type (0, 0), BuildingBlock: XIVTED_clean_linker_0, # of connection points: 2
#     Edge 110, Type (0, 0), BuildingBlock: XIVTED_clean_linker_0, # of connection points: 2
#     Edge 111, Type (0, 0), BuildingBlock: XIVTED_clean_linker_0, # of connection points: 2
#     Edge 112, Type (0, 0), BuildingBlock: XIVTED_clean_linker_0, # of connection points: 2
#     Edge 113, Type (0, 0), BuildingBlock: XIVTED_clean_linker_0, # of connection points: 2
#     Edge 114, Type (0, 0), BuildingBlock: XIVTED_clean_linker_0, # of connection points: 2
#     Edge 115, Type (0, 0), BuildingBlock: XIVTED_clean_linker_0, # of connection points: 2
#     Edge 116, Type (0, 0), BuildingBlock: XIVTED_clean_linker_0, # of connection points: 2
#     Edge 117, Type (0, 0), BuildingBlock: XIVTED_clean_linker_0, # of connection points: 2
#     Edge 118, Type (0, 0), BuildingBlock: XIVTED_clean_linker_0, # of connection points: 2
#     Edge 119, Type (0, 0), BuildingBlock: XIVTED_clean_linker_0, # of connection points: 2
#     Edge 120, Type (0, 0), BuildingBlock: XIVTED_clean_linker_0, # of connection points: 2
#     Edge 121, Type (0, 0), BuildingBlock: XIVTED_clean_linker_0, # of connection points: 2
#     Edge 122, Type (0, 0), BuildingBlock: XIVTED_clean_linker_0, # of connection points: 2
#     Edge 123, Type (0, 0), BuildingBlock: XIVTED_clean_linker_0, # of connection points: 2
#     Edge 124, Type (0, 0), BuildingBlock: XIVTED_clean_linker_0, # of connection points: 2
#     Edge 125, Type (0, 0), BuildingBlock: XIVTED_clean_linker_0, # of connection points: 2
#     Edge 126, Type (0, 0), BuildingBlock: XIVTED_clean_linker_0, # of connection points: 2
#     Edge 127, Type (0, 0), BuildingBlock: XIVTED_clean_linker_0, # of connection points: 2
#     Edge 128, Type (0, 0), BuildingBlock: XIVTED_clean_linker_0, # of connection points: 2
#     Edge 129, Type (0, 0), BuildingBlock: XIVTED_clean_linker_0, # of connection points: 2
#     Edge 130, Type (0, 0), BuildingBlock: XIVTED_clean_linker_0, # of connection points: 2
#     Edge 131, Type (0, 0), BuildingBlock: XIVTED_clean_linker_0, # of connection points: 2
#     Edge 132, Type (0, 0), BuildingBlock: XIVTED_clean_linker_0, # of connection points: 2
#     Edge 133, Type (0, 0), BuildingBlock: XIVTED_clean_linker_0, # of connection points: 2
#     Edge 134, Type (0, 0), BuildingBlock: XIVTED_clean_linker_0, # of connection points: 2
#     Edge 135, Type (0, 0), BuildingBlock: XIVTED_clean_linker_0, # of connection points: 2
#     Edge 136, Type (0, 0), BuildingBlock: XIVTED_clean_linker_0, # of connection points: 2
#     Edge 137, Type (0, 0), BuildingBlock: XIVTED_clean_linker_0, # of connection points: 2
#     Edge 138, Type (0, 0), BuildingBlock: XIVTED_clean_linker_0, # of connection points: 2
#     Edge 139, Type (0, 0), BuildingBlock: XIVTED_clean_linker_0, # of connection points: 2
#     Edge 140, Type (0, 0), BuildingBlock: XIVTED_clean_linker_0, # of connection points: 2
#     Edge 141, Type (0, 0), BuildingBlock: XIVTED_clean_linker_0, # of connection points: 2
#     Edge 142, Type (0, 0), BuildingBlock: XIVTED_clean_linker_0, # of connection points: 2
#     Edge 143, Type (0, 0), BuildingBlock: XIVTED_clean_linker_0, # of connection points: 2
#     Edge 144, Type (0, 0), BuildingBlock: XIVTED_clean_linker_0, # of connection points: 2
#     Edge 145, Type (0, 0), BuildingBlock: XIVTED_clean_linker_0, # of connection points: 2
#     Edge 146, Type (0, 0), BuildingBlock: XIVTED_clean_linker_0, # of connection points: 2
#     Edge 147, Type (0, 0), BuildingBlock: XIVTED_clean_linker_0, # of connection points: 2
#     Edge 148, Type (0, 0), BuildingBlock: XIVTED_clean_linker_0, # of connection points: 2
#     Edge 149, Type (0, 0), BuildingBlock: XIVTED_clean_linker_0, # of connection points: 2
#     Edge 150, Type (0, 0), BuildingBlock: XIVTED_clean_linker_0, # of connection points: 2
#     Edge 151, Type (0, 0), BuildingBlock: XIVTED_clean_linker_0, # of connection points: 2
#     Edge 152, Type (0, 0), BuildingBlock: XIVTED_clean_linker_0, # of connection points: 2
#     Edge 153, Type (0, 0), BuildingBlock: XIVTED_clean_linker_0, # of connection points: 2
#     Edge 154, Type (0, 0), BuildingBlock: XIVTED_clean_linker_0, # of connection points: 2
#     Edge 155, Type (0, 0), BuildingBlock: XIVTED_clean_linker_0, # of connection points: 2
#     Edge 156, Type (0, 0), BuildingBlock: XIVTED_clean_linker_0, # of connection points: 2
#     Edge 157, Type (0, 0), BuildingBlock: XIVTED_clean_linker_0, # of connection points: 2
#     Edge 158, Type (0, 0), BuildingBlock: XIVTED_clean_linker_0, # of connection points: 2
#     Edge 159, Type (0, 0), BuildingBlock: XIVTED_clean_linker_0, # of connection points: 2
#     Edge 160, Type (0, 0), BuildingBlock: XIVTED_clean_linker_0, # of connection points: 2
#     Edge 161, Type (0, 0), BuildingBlock: XIVTED_clean_linker_0, # of connection points: 2
#     Edge 162, Type (0, 0), BuildingBlock: XIVTED_clean_linker_0, # of connection points: 2
#     Edge 163, Type (0, 0), BuildingBlock: XIVTED_clean_linker_0, # of connection points: 2
#     Edge 164, Type (0, 0), BuildingBlock: XIVTED_clean_linker_0, # of connection points: 2
#     Edge 165, Type (0, 0), BuildingBlock: XIVTED_clean_linker_0, # of connection points: 2
#     Edge 166, Type (0, 0), BuildingBlock: XIVTED_clean_linker_0, # of connection points: 2
#     Edge 167, Type (0, 0), BuildingBlock: XIVTED_clean_linker_0, # of connection points: 2
#     Edge 168, Type (0, 0), BuildingBlock: XIVTED_clean_linker_0, # of connection points: 2
#     Edge 169, Type (0, 0), BuildingBlock: XIVTED_clean_linker_0, # of connection points: 2
#     Edge 170, Type (0, 0), BuildingBlock: XIVTED_clean_linker_0, # of connection points: 2
#     Edge 171, Type (0, 0), BuildingBlock: XIVTED_clean_linker_0, # of connection points: 2
#     Edge 172, Type (0, 0), BuildingBlock: XIVTED_clean_linker_0, # of connection points: 2
#     Edge 173, Type (0, 0), BuildingBlock: XIVTED_clean_linker_0, # of connection points: 2
#     Edge 174, Type (0, 0), BuildingBlock: XIVTED_clean_linker_0, # of connection points: 2
#     Edge 175, Type (0, 0), BuildingBlock: XIVTED_clean_linker_0, # of connection points: 2
#     Edge 176, Type (0, 0), BuildingBlock: XIVTED_clean_linker_0, # of connection points: 2
#     Edge 177, Type (0, 0), BuildingBlock: XIVTED_clean_linker_0, # of connection points: 2
#     Edge 178, Type (0, 0), BuildingBlock: XIVTED_clean_linker_0, # of connection points: 2
#     Edge 179, Type (0, 0), BuildingBlock: XIVTED_clean_linker_0, # of connection points: 2
#     Edge 180, Type (0, 0), BuildingBlock: XIVTED_clean_linker_0, # of connection points: 2
#     Edge 181, Type (0, 0), BuildingBlock: XIVTED_clean_linker_0, # of connection points: 2
#     Edge 182, Type (0, 0), BuildingBlock: XIVTED_clean_linker_0, # of connection points: 2
#     Edge 183, Type (0, 0), BuildingBlock: XIVTED_clean_linker_0, # of connection points: 2
#     Edge 184, Type (0, 0), BuildingBlock: XIVTED_clean_linker_0, # of connection points: 2
#     Edge 185, Type (0, 0), BuildingBlock: XIVTED_clean_linker_0, # of connection points: 2
#     Edge 186, Type (0, 0), BuildingBlock: XIVTED_clean_linker_0, # of connection points: 2
#     Edge 187, Type (0, 0), BuildingBlock: XIVTED_clean_linker_0, # of connection points: 2
#     Edge 188, Type (0, 0), BuildingBlock: XIVTED_clean_linker_0, # of connection points: 2
#     Edge 189, Type (0, 0), BuildingBlock: XIVTED_clean_linker_0, # of connection points: 2
#     Edge 190, Type (0, 0), BuildingBlock: XIVTED_clean_linker_0, # of connection points: 2
#     Edge 191, Type (0, 0), BuildingBlock: XIVTED_clean_linker_0, # of connection points: 2
#     Edge 192, Type (0, 0), BuildingBlock: XIVTED_clean_linker_0, # of connection points: 2
#     Edge 193, Type (0, 0), BuildingBlock: XIVTED_clean_linker_0, # of connection points: 2
#     Edge 194, Type (0, 0), BuildingBlock: XIVTED_clean_linker_0, # of connection points: 2
#     Edge 195, Type (0, 0), BuildingBlock: XIVTED_clean_linker_0, # of connection points: 2
#     Edge 196, Type (0, 0), BuildingBlock: XIVTED_clean_linker_0, # of connection points: 2
#     Edge 197, Type (0, 0), BuildingBlock: XIVTED_clean_linker_0, # of connection points: 2
#     Edge 198, Type (0, 0), BuildingBlock: XIVTED_clean_linker_0, # of connection points: 2
#     Edge 199, Type (0, 0), BuildingBlock: XIVTED_clean_linker_0, # of connection points: 2
#     Edge 200, Type (0, 0), BuildingBlock: XIVTED_clean_linker_0, # of connection points: 2
#     Edge 201, Type (0, 0), BuildingBlock: XIVTED_clean_linker_0, # of connection points: 2
#     Edge 202, Type (0, 0), BuildingBlock: XIVTED_clean_linker_0, # of connection points: 2
#     Edge 203, Type (0, 0), BuildingBlock: XIVTED_clean_linker_0, # of connection points: 2
#     Edge 204, Type (0, 0), BuildingBlock: XIVTED_clean_linker_0, # of connection points: 2
#     Edge 205, Type (0, 0), BuildingBlock: XIVTED_clean_linker_0, # of connection points: 2
#     Edge 206, Type (0, 0), BuildingBlock: XIVTED_clean_linker_0, # of connection points: 2
#     Edge 207, Type (0, 0), BuildingBlock: XIVTED_clean_linker_0, # of connection points: 2
#     Edge 208, Type (0, 0), BuildingBlock: XIVTED_clean_linker_0, # of connection points: 2
#     Edge 209, Type (0, 0), BuildingBlock: XIVTED_clean_linker_0, # of connection points: 2
#     Edge 210, Type (0, 0), BuildingBlock: XIVTED_clean_linker_0, # of connection points: 2
#     Edge 211, Type (0, 0), BuildingBlock: XIVTED_clean_linker_0, # of connection points: 2
#     Edge 212, Type (0, 0), BuildingBlock: XIVTED_clean_linker_0, # of connection points: 2
#     Edge 213, Type (0, 0), BuildingBlock: XIVTED_clean_linker_0, # of connection points: 2
#     Edge 214, Type (0, 0), BuildingBlock: XIVTED_clean_linker_0, # of connection points: 2
#     Edge 215, Type (0, 0), BuildingBlock: XIVTED_clean_linker_0, # of connection points: 2
#     Edge 216, Type (0, 0), BuildingBlock: XIVTED_clean_linker_0, # of connection points: 2
#     Edge 217, Type (0, 0), BuildingBlock: XIVTED_clean_linker_0, # of connection points: 2
#     Edge 218, Type (0, 0), BuildingBlock: XIVTED_clean_linker_0, # of connection points: 2
#     Edge 219, Type (0, 0), BuildingBlock: XIVTED_clean_linker_0, # of connection points: 2
#     Edge 220, Type (0, 0), BuildingBlock: XIVTED_clean_linker_0, # of connection points: 2
#     Edge 221, Type (0, 0), BuildingBlock: XIVTED_clean_linker_0, # of connection points: 2
#     Edge 222, Type (0, 0), BuildingBlock: XIVTED_clean_linker_0, # of connection points: 2
#     Edge 223, Type (0, 0), BuildingBlock: XIVTED_clean_linker_0, # of connection points: 2
#     Edge 224, Type (0, 0), BuildingBlock: XIVTED_clean_linker_0, # of connection points: 2
#     Edge 225, Type (0, 0), BuildingBlock: XIVTED_clean_linker_0, # of connection points: 2
#     Edge 226, Type (0, 0), BuildingBlock: XIVTED_clean_linker_0, # of connection points: 2
#     Edge 227, Type (0, 0), BuildingBlock: XIVTED_clean_linker_0, # of connection points: 2
#     Edge 228, Type (0, 0), BuildingBlock: XIVTED_clean_linker_0, # of connection points: 2
#     Edge 229, Type (0, 0), BuildingBlock: XIVTED_clean_linker_0, # of connection points: 2
#     Edge 230, Type (0, 0), BuildingBlock: XIVTED_clean_linker_0, # of connection points: 2
#     Edge 231, Type (0, 0), BuildingBlock: XIVTED_clean_linker_0, # of connection points: 2
#     Edge 232, Type (0, 0), BuildingBlock: XIVTED_clean_linker_0, # of connection points: 2
#     Edge 233, Type (0, 0), BuildingBlock: XIVTED_clean_linker_0, # of connection points: 2
#     Edge 234, Type (0, 0), BuildingBlock: XIVTED_clean_linker_0, # of connection points: 2
#     Edge 235, Type (0, 0), BuildingBlock: XIVTED_clean_linker_0, # of connection points: 2
#     Edge 236, Type (0, 0), BuildingBlock: XIVTED_clean_linker_0, # of connection points: 2
#     Edge 237, Type (0, 0), BuildingBlock: XIVTED_clean_linker_0, # of connection points: 2
#     Edge 238, Type (0, 0), BuildingBlock: XIVTED_clean_linker_0, # of connection points: 2
#     Edge 239, Type (0, 0), BuildingBlock: XIVTED_clean_linker_0, # of connection points: 2
#     Edge 240, Type (0, 0), BuildingBlock: XIVTED_clean_linker_0, # of connection points: 2
#     Edge 241, Type (0, 0), BuildingBlock: XIVTED_clean_linker_0, # of connection points: 2
#     Edge 242, Type (0, 0), BuildingBlock: XIVTED_clean_linker_0, # of connection points: 2
#     Edge 243, Type (0, 0), BuildingBlock: XIVTED_clean_linker_0, # of connection points: 2
#     Edge 244, Type (0, 0), BuildingBlock: XIVTED_clean_linker_0, # of connection points: 2
#     Edge 245, Type (0, 0), BuildingBlock: XIVTED_clean_linker_0, # of connection points: 2
#     Edge 246, Type (0, 0), BuildingBlock: XIVTED_clean_linker_0, # of connection points: 2
#     Edge 247, Type (0, 0), BuildingBlock: XIVTED_clean_linker_0, # of connection points: 2
#     Edge 248, Type (0, 0), BuildingBlock: XIVTED_clean_linker_0, # of connection points: 2
#     Edge 249, Type (0, 0), BuildingBlock: XIVTED_clean_linker_0, # of connection points: 2
#     Edge 250, Type (0, 0), BuildingBlock: XIVTED_clean_linker_0, # of connection points: 2
#     Edge 251, Type (0, 0), BuildingBlock: XIVTED_clean_linker_0, # of connection points: 2
#     Edge 252, Type (0, 0), BuildingBlock: XIVTED_clean_linker_0, # of connection points: 2
#     Edge 253, Type (0, 0), BuildingBlock: XIVTED_clean_linker_0, # of connection points: 2
#     Edge 254, Type (0, 0), BuildingBlock: XIVTED_clean_linker_0, # of connection points: 2
#     Edge 255, Type (0, 0), BuildingBlock: XIVTED_clean_linker_0, # of connection points: 2
#     Edge 256, Type (0, 0), BuildingBlock: XIVTED_clean_linker_0, # of connection points: 2
#     Edge 257, Type (0, 0), BuildingBlock: XIVTED_clean_linker_0, # of connection points: 2
#     Edge 258, Type (0, 0), BuildingBlock: XIVTED_clean_linker_0, # of connection points: 2
#     Edge 259, Type (0, 0), BuildingBlock: XIVTED_clean_linker_0, # of connection points: 2
#     Edge 260, Type (0, 0), BuildingBlock: XIVTED_clean_linker_0, # of connection points: 2
#     Edge 261, Type (0, 0), BuildingBlock: XIVTED_clean_linker_0, # of connection points: 2
#     Edge 262, Type (0, 0), BuildingBlock: XIVTED_clean_linker_0, # of connection points: 2
#     Edge 263, Type (0, 0), BuildingBlock: XIVTED_clean_linker_0, # of connection points: 2
#     Edge 264, Type (0, 0), BuildingBlock: XIVTED_clean_linker_0, # of connection points: 2
#     Edge 265, Type (0, 0), BuildingBlock: XIVTED_clean_linker_0, # of connection points: 2
#     Edge 266, Type (0, 0), BuildingBlock: XIVTED_clean_linker_0, # of connection points: 2
#     Edge 267, Type (0, 0), BuildingBlock: XIVTED_clean_linker_0, # of connection points: 2
#     Edge 268, Type (0, 0), BuildingBlock: XIVTED_clean_linker_0, # of connection points: 2
#     Edge 269, Type (0, 0), BuildingBlock: XIVTED_clean_linker_0, # of connection points: 2
#     Edge 270, Type (0, 0), BuildingBlock: XIVTED_clean_linker_0, # of connection points: 2
#     Edge 271, Type (0, 0), BuildingBlock: XIVTED_clean_linker_0, # of connection points: 2
#     Edge 272, Type (0, 0), BuildingBlock: XIVTED_clean_linker_0, # of connection points: 2
#     Edge 273, Type (0, 0), BuildingBlock: XIVTED_clean_linker_0, # of connection points: 2
#     Edge 274, Type (0, 0), BuildingBlock: XIVTED_clean_linker_0, # of connection points: 2
#     Edge 275, Type (0, 0), BuildingBlock: XIVTED_clean_linker_0, # of connection points: 2
#     Edge 276, Type (0, 0), BuildingBlock: XIVTED_clean_linker_0, # of connection points: 2
#     Edge 277, Type (0, 0), BuildingBlock: XIVTED_clean_linker_0, # of connection points: 2
#     Edge 278, Type (0, 0), BuildingBlock: XIVTED_clean_linker_0, # of connection points: 2
#     Edge 279, Type (0, 0), BuildingBlock: XIVTED_clean_linker_0, # of connection points: 2
#     Edge 280, Type (0, 0), BuildingBlock: XIVTED_clean_linker_0, # of connection points: 2
#     Edge 281, Type (0, 0), BuildingBlock: XIVTED_clean_linker_0, # of connection points: 2
#     Edge 282, Type (0, 0), BuildingBlock: XIVTED_clean_linker_0, # of connection points: 2
#     Edge 283, Type (0, 0), BuildingBlock: XIVTED_clean_linker_0, # of connection points: 2
#     Edge 284, Type (0, 0), BuildingBlock: XIVTED_clean_linker_0, # of connection points: 2
#     Edge 285, Type (0, 0), BuildingBlock: XIVTED_clean_linker_0, # of connection points: 2
#     Edge 286, Type (0, 0), BuildingBlock: XIVTED_clean_linker_0, # of connection points: 2
#     Edge 287, Type (0, 0), BuildingBlock: XIVTED_clean_linker_0, # of connection points: 2
# Relax obj value: 0.112
# Max RMSD: 0.144
# Mean RMSD: 0.144
data_MOF--net-ukw--node1-GALJAG_clean_sbu_0--edge1-XIVTED_clean_linker_0
_symmetry_space_group_name_H-M    P1
_symmetry_Int_Tables_number       1
_symmetry_cell_setting            triclinic
loop_
_symmetry_equiv_pos_as_xyz
'x, y, z'
_cell_length_a     74.964655
_cell_length_b     74.8977
_cell_length_c     74.856429
_cell_angle_alpha  89.997948
_cell_angle_beta   90.012012
_cell_angle_gamma 89.992438
loop_
_atom_site_label
_atom_site_type_symbol
_atom_site_fract_x
_atom_site_fract_y
_atom_site_fract_z
_atom_type_partial_charge
In0 In 0.02262 0.07601 0.35272 0.0
O1 O 0.00838 0.10075 0.34237 0.0
O2 O 0.00962 0.07778 0.32553 0.0
C3 C 0.02101 0.09126 0.38534 0.0
C4 C 0.00022 0.04817 0.35826 0.0
C5 C 0.05675 0.07405 0.34094 0.0
O6 O 0.01374 0.09822 0.37181 0.0
O7 O 0.02953 0.07705 0.38225 0.0
O8 O 0.04819 0.06036 0.34568 0.0
O9 O 0.04825 0.08842 0.3424 0.0
C10 C 0.00431 0.09365 0.32758 0.0
O11 O 0.00217 0.05538 0.34321 0.0
O12 O 0.01052 0.05408 0.37013 0.0
In13 In 0.16978 0.77302 0.59916 0.0
O14 O 0.15085 0.74998 0.59341 0.0
O15 O 0.15864 0.76689 0.57182 0.0
C16 C 0.15689 0.77488 0.63276 0.0
C17 C 0.19871 0.75137 0.60053 0.0
C18 C 0.1706 0.80692 0.58696 0.0
O19 O 0.14773 0.7687 0.62002 0.0
O20 O 0.17211 0.78054 0.62838 0.0
O21 O 0.18473 0.79828 0.59012 0.0
O22 O 0.15639 0.79858 0.59018 0.0
C23 C 0.1499 0.75339 0.57689 0.0
O24 O 0.194 0.76119 0.61332 0.0
O25 O 0.18983 0.75369 0.58646 0.0
In26 In 0.47208 0.91366 0.84587 0.0
O27 O 0.49005 0.93825 0.85055 0.0
O28 O 0.50148 0.91214 0.85062 0.0
C29 C 0.43908 0.92308 0.83561 0.0
C30 C 0.48184 0.89921 0.81485 0.0
C31 C 0.46699 0.89941 0.87842 0.0
O32 O 0.44998 0.93465 0.84141 0.0
O33 O 0.4448 0.90727 0.83551 0.0
O34 O 0.46953 0.88989 0.86473 0.0
O35 O 0.46647 0.91601 0.87556 0.0
C36 C 0.50395 0.92871 0.85223 0.0
O37 O 0.47805 0.88979 0.82838 0.0
O38 O 0.48058 0.91591 0.81703 0.0
In39 In 0.32984 0.22158 0.09649 0.0
O40 O 0.35155 0.22895 0.07685 0.0
O41 O 0.32451 0.22887 0.06763 0.0
C42 C 0.34739 0.22038 0.12795 0.0
C43 C 0.31108 0.25158 0.10202 0.0
C44 C 0.3224 0.18718 0.08908 0.0
O45 O 0.35548 0.22193 0.11323 0.0
O46 O 0.33068 0.21908 0.12669 0.0
O47 O 0.31072 0.19741 0.09575 0.0
O48 O 0.33739 0.19428 0.0865 0.0
C49 C 0.34078 0.23157 0.06407 0.0
O50 O 0.30379 0.23636 0.10331 0.0
O51 O 0.32741 0.25141 0.098 0.0
In52 In 0.02249 0.91757 0.14013 0.0
O53 O -0.00159 0.90116 0.14858 0.0
O54 O 0.01791 0.90757 0.16832 0.0
C55 C 0.02113 0.90168 0.10774 0.0
C56 C 0.00286 0.94775 0.13735 0.0
C57 C 0.0568 0.91831 0.15112 0.0
O58 O 0.01708 0.89353 0.12192 0.0
O59 O 0.02634 0.91751 0.11001 0.0
O60 O 0.04784 0.93243 0.14904 0.0
O61 O 0.04866 0.90417 0.14716 0.0
C62 C 0.00329 0.90002 0.1647 0.0
O63 O 0.01344 0.94263 0.12533 0.0
O64 O 0.0033 0.93845 0.15135 0.0
In65 In 0.33104 0.77278 0.40034 0.0
O66 O 0.30634 0.76261 0.38584 0.0
O67 O 0.31083 0.75319 0.41213 0.0
C68 C 0.32454 0.80714 0.40989 0.0
C69 C 0.35053 0.75249 0.42255 0.0
C70 C 0.35034 0.77403 0.36981 0.0
O71 O 0.33715 0.79805 0.4162 0.0
O72 O 0.3148 0.79883 0.39897 0.0
O73 O 0.35546 0.78143 0.38405 0.0
O74 O 0.33558 0.76614 0.37098 0.0
C75 C 0.30163 0.75206 0.39809 0.0
O76 O 0.35087 0.7505 0.40581 0.0
O77 O 0.34046 0.76483 0.42808 0.0
In78 In 0.4703 0.07328 0.64403 0.0
O79 O 0.48037 0.09688 0.66017 0.0
O80 O 0.48314 0.07077 0.67126 0.0
C81 C 0.46532 0.08932 0.61235 0.0
C82 C 0.49737 0.05204 0.63385 0.0
C83 C 0.43646 0.06781 0.655 0.0
O84 O 0.47188 0.09749 0.62561 0.0
O85 O 0.46054 0.07343 0.61541 0.0
O86 O 0.44505 0.05589 0.64663 0.0
O87 O 0.44498 0.08202 0.65776 0.0
C88 C 0.48557 0.08735 0.67311 0.0
O89 O 0.48537 0.04628 0.64429 0.0
O90 O 0.4955 0.06796 0.62886 0.0
In91 In 0.16993 0.22216 0.89602 0.0
O92 O 0.14998 0.24433 0.90169 0.0
O93 O 0.16045 0.2296 0.92373 0.0
C94 C 0.15573 0.21867 0.8631 0.0
C95 C 0.19807 0.2446 0.89207 0.0
C96 C 0.17149 0.18862 0.90928 0.0
O97 O 0.14723 0.2258 0.87581 0.0
O98 O 0.17098 0.21286 0.86722 0.0
O99 O 0.18542 0.19723 0.90525 0.0
O100 O 0.15713 0.19684 0.90645 0.0
C101 C 0.15045 0.24209 0.91842 0.0
O102 O 0.19043 0.24226 0.90685 0.0
O103 O 0.19266 0.23439 0.87989 0.0
In104 In 0.34592 0.02226 0.08635 0.0
O105 O 0.35 0.01147 0.05772 0.0
O106 O 0.34551 0.9931 0.07891 0.0
C107 C 0.33426 0.05623 0.08315 0.0
C108 C 0.31848 0.00901 0.10485 0.0
C109 C 0.38027 0.02427 0.09719 0.0
O110 O 0.33685 0.04642 0.06966 0.0
O111 O 0.33773 0.04897 0.09792 0.0
O112 O 0.36801 0.01867 0.10728 0.0
O113 O 0.37513 0.02905 0.0819 0.0
C114 C 0.34833 0.99536 0.06251 0.0
O115 O 0.33367 0.01151 0.11182 0.0
O116 O 0.3171 0.01364 0.08865 0.0
In117 In 0.21897 0.10279 0.33489 0.0
O118 O 0.23396 0.10575 0.30812 0.0
O119 O 0.24381 0.11908 0.33128 0.0
C120 C 0.186 0.09095 0.32679 0.0
C121 C 0.23562 0.07342 0.34668 0.0
C122 C 0.21207 0.1326 0.35365 0.0
O123 O 0.19456 0.10104 0.31631 0.0
O124 O 0.19411 0.08694 0.34096 0.0
O125 O 0.21826 0.1187 0.36099 0.0
O126 O 0.20867 0.13106 0.3372 0.0
C127 C 0.24569 0.11587 0.31489 0.0
O128 O 0.22947 0.0851 0.35721 0.0
O129 O 0.23341 0.07665 0.33028 0.0
In130 In 0.14532 0.97118 0.57808 0.0
O131 O 0.1367 0.9835 0.55129 0.0
O132 O 0.14626 0.00058 0.57195 0.0
C133 C 0.15341 0.93657 0.573 0.0
C134 C 0.17723 0.98072 0.59055 0.0
C135 C 0.11346 0.97233 0.59478 0.0
O136 O 0.14903 0.94649 0.56003 0.0
O137 O 0.15309 0.94397 0.58809 0.0
O138 O 0.12781 0.97627 0.60269 0.0
O139 O 0.11535 0.96728 0.57884 0.0
C140 C 0.13998 -0.00072 0.5564 0.0
O141 O 0.16382 0.97876 0.60064 0.0
O142 O 0.17449 0.97779 0.57412 0.0
In143 In 0.27773 0.9029 0.84012 0.0
O144 O 0.27038 0.92079 0.86337 0.0
O145 O 0.26706 0.93086 0.83681 0.0
C146 C 0.28515 0.87107 0.85489 0.0
C147 C 0.24635 0.89352 0.82572 0.0
C148 C 0.31007 0.9145 0.83001 0.0
O149 O 0.28238 0.88485 0.86425 0.0
O150 O 0.2848 0.87356 0.83821 0.0
O151 O 0.29947 0.90746 0.81884 0.0
O152 O 0.30435 0.91526 0.84581 0.0
C153 C 0.26557 0.9336 0.85342 0.0
O154 O 0.25955 0.89753 0.81586 0.0
O155 O 0.24925 0.89445 0.84229 0.0
In156 In 0.34962 0.97234 0.4088 0.0
O157 O 0.35178 0.98778 0.43544 0.0
O158 O 0.35258 0.00197 0.41072 0.0
C159 C 0.33985 0.93827 0.41446 0.0
C160 C 0.31991 0.98321 0.39246 0.0
C161 C 0.38371 0.96951 0.39796 0.0
O162 O 0.34329 0.94867 0.42737 0.0
O163 O 0.34162 0.94505 0.39915 0.0
O164 O 0.37124 0.97332 0.38724 0.0
O165 O 0.37884 0.96669 0.41384 0.0
C166 C 0.35296 0.00272 0.42753 0.0
O167 O 0.33431 0.98057 0.384 0.0
O168 O 0.32048 0.97978 0.409 0.0
In169 In 0.27245 0.09553 0.65358 0.0
O170 O 0.25582 0.09808 0.67947 0.0
O171 O 0.24278 0.09859 0.65412 0.0
C172 C 0.30638 0.08595 0.65994 0.0
C173 C 0.2633 0.06483 0.6381 0.0
C174 C 0.27511 0.1293 0.64176 0.0
O175 O 0.29593 0.08987 0.67268 0.0
O176 O 0.2998 0.08751 0.64452 0.0
O177 O 0.27172 0.11644 0.63136 0.0
O178 O 0.27773 0.12496 0.65785 0.0
C179 C 0.24126 0.0993 0.67088 0.0
O180 O 0.26574 0.07899 0.62915 0.0
O181 O 0.26566 0.06627 0.65478 0.0
In182 In 0.14627 0.02496 0.9162 0.0
O183 O 0.14227 0.00885 0.94219 0.0
O184 O 0.1452 0.99512 0.91737 0.0
C185 C 0.15488 0.05912 0.92285 0.0
C186 C 0.17751 0.01632 0.90162 0.0
C187 C 0.11297 0.02622 0.90287 0.0
O188 O 0.1504 0.04871 0.93542 0.0
O189 O 0.15441 0.05241 0.90744 0.0
O190 O 0.12639 0.02328 0.89308 0.0
O191 O 0.11651 0.02916 0.91908 0.0
C192 C 0.14283 0.99403 0.93399 0.0
O193 O 0.16359 0.01865 0.89229 0.0
O194 O 0.17559 0.01857 0.91827 0.0
In195 In 0.21878 0.89443 0.17681 0.0
O196 O 0.2335 0.89892 0.2036 0.0
O197 O 0.23677 0.87424 0.19012 0.0
C198 C 0.18488 0.90631 0.18069 0.0
C199 C 0.238 0.92099 0.16247 0.0
C200 C 0.2166 0.86414 0.15761 0.0
O201 O 0.19194 0.89581 0.19181 0.0
O202 O 0.19495 0.91094 0.16812 0.0
O203 O 0.22527 0.87754 0.15211 0.0
O204 O 0.20858 0.8664 0.17227 0.0
C205 C 0.24097 0.88381 0.20324 0.0
O206 O 0.23079 0.909 0.15304 0.0
O207 O 0.23566 0.91942 0.1791 0.0
In208 In 0.08003 0.35207 0.02565 0.0
O209 O 0.05945 0.34164 0.00565 0.0
O210 O 0.05527 0.36732 0.01663 0.0
C211 C 0.07893 0.34041 0.05988 0.0
C212 C 0.09735 0.32901 0.00444 0.0
C213 C 0.09549 0.38463 0.02526 0.0
O214 O 0.06494 0.3439 0.05119 0.0
O215 O 0.09319 0.34302 0.05144 0.0
O216 O 0.10439 0.37051 0.02298 0.0
O217 O 0.07916 0.38221 0.02835 0.0
C218 C 0.05035 0.35578 0.00543 0.0
O219 O 0.09792 0.3457 0.00204 0.0
O220 O 0.08825 0.32399 0.01772 0.0
In221 In 0.58643 0.14783 0.9729 0.0
O222 O 0.5599 0.14187 0.98719 0.0
O223 O 0.58304 0.1478 0.0027 0.0
C224 C 0.57997 0.15664 0.93869 0.0
C225 C 0.601 0.17868 0.98304 0.0
C226 C 0.59979 0.11443 0.97196 0.0
O227 O 0.5674 0.15285 0.94932 0.0
O228 O 0.59541 0.15563 0.94526 0.0
O229 O 0.60952 0.12783 0.97519 0.0
O230 O 0.58372 0.11805 0.96863 0.0
C231 C 0.56675 0.1437 0.00255 0.0
O232 O 0.61023 0.16469 0.98073 0.0
O233 O 0.5845 0.1771 0.9798 0.0
In234 In 0.10514 0.32656 0.22319 0.0
O235 O 0.0996 0.30136 0.24007 0.0
O236 O 0.12492 0.31381 0.24206 0.0
C237 C 0.09236 0.32087 0.18979 0.0
C238 C 0.08017 0.34289 0.24295 0.0
C239 C 0.13603 0.3443 0.21885 0.0
O240 O 0.10248 0.30982 0.19747 0.0
O241 O 0.08852 0.33433 0.19903 0.0
O242 O 0.12262 0.35145 0.22617 0.0
O243 O 0.13356 0.32859 0.21322 0.0
C244 C 0.1147 0.30169 0.24754 0.0
O245 O 0.09258 0.35142 0.23535 0.0
O246 O 0.08033 0.32624 0.24042 0.0
In247 In 0.92375 0.85406 0.47198 0.0
O248 O 0.94813 0.85776 0.49067 0.0
O249 O 0.92338 0.87025 0.49699 0.0
C250 C 0.9354 0.841 0.44043 0.0
C251 C 0.90887 0.82606 0.48843 0.0
C252 C 0.90607 0.88363 0.46199 0.0
O253 O 0.94483 0.85161 0.44959 0.0
O254 O 0.92068 0.83695 0.4474 0.0
O255 O 0.8981 0.86941 0.46635 0.0
O256 O 0.92289 0.8826 0.46186 0.0
C257 C 0.93936 0.86753 0.50136 0.0
O258 O 0.89976 0.8378 0.48044 0.0
O259 O 0.92556 0.82831 0.48788 0.0
In260 In 0.9012 0.17278 0.21924 0.0
O261 O 0.90449 0.1977 0.23675 0.0
O262 O 0.87834 0.18816 0.23207 0.0
C263 C 0.91777 0.18 0.18797 0.0
C264 C 0.92468 0.15585 0.24048 0.0
C265 C 0.8725 0.15259 0.21142 0.0
O266 O 0.90645 0.19052 0.19473 0.0
O267 O 0.92094 0.16632 0.19719 0.0
O268 O 0.87973 0.15235 0.22666 0.0
O269 O 0.8799 0.16275 0.20019 0.0
C270 C 0.8881 0.19909 0.24027 0.0
O271 O 0.9134 0.14749 0.23117 0.0
O272 O 0.92416 0.17259 0.23892 0.0
In273 In 0.43097 0.64832 0.52875 0.0
O274 O 0.45144 0.65726 0.50773 0.0
O275 O 0.45225 0.63043 0.51647 0.0
C276 C 0.43542 0.66153 0.56222 0.0
C277 C 0.41287 0.67072 0.50749 0.0
C278 C 0.4129 0.61739 0.53278 0.0
O279 O 0.44818 0.6545 0.55375 0.0
O280 O 0.42089 0.66177 0.55388 0.0
O281 O 0.40507 0.63216 0.53067 0.0
O282 O 0.42967 0.61835 0.53331 0.0
C283 C 0.45805 0.64193 0.50566 0.0
O284 O 0.4111 0.65397 0.50653 0.0
O285 O 0.42369 0.67614 0.51923 0.0
In286 In 0.0953 0.67417 0.2771 0.0
O287 O 0.08299 0.64914 0.26472 0.0
O288 O 0.07273 0.67446 0.25701 0.0
C289 C 0.1233 0.65308 0.2851 0.0
C290 C 0.10922 0.7008 0.25707 0.0
C291 C 0.07823 0.6815 0.30806 0.0
O292 O 0.11745 0.6546 0.26935 0.0
O293 O 0.11487 0.66194 0.2967 0.0
O294 O 0.0901 0.6917 0.30179 0.0
O295 O 0.07474 0.66815 0.29847 0.0
C296 C 0.07195 0.65775 0.25535 0.0
O297 O 0.09268 0.69907 0.25951 0.0
O298 O 0.11866 0.69007 0.26592 0.0
In299 In 0.39206 0.33725 0.77632 0.0
O300 O 0.41002 0.35924 0.76595 0.0
O301 O 0.41972 0.33237 0.76551 0.0
C302 C 0.35988 0.35146 0.78235 0.0
C303 C 0.38079 0.31921 0.74777 0.0
C304 C 0.40343 0.33391 0.81005 0.0
O305 O 0.37276 0.3607 0.77646 0.0
O306 O 0.36355 0.33533 0.78582 0.0
O307 O 0.39848 0.32028 0.80124 0.0
O308 O 0.40231 0.34855 0.80182 0.0
C309 C 0.42265 0.34866 0.76221 0.0
O310 O 0.38746 0.31092 0.761 0.0
O311 O 0.3803 0.33599 0.74914 0.0
In312 In 0.97323 0.92734 0.65596 0.0
O313 O 0.9932 0.94976 0.66225 0.0
O314 O 0.98469 0.94678 0.63553 0.0
C315 C 0.9412 0.9314 0.6721 0.0
C316 C 0.99369 0.90823 0.67822 0.0
C317 C 0.96654 0.91122 0.62451 0.0
O318 O 0.94866 0.944 0.66375 0.0
O319 O 0.95012 0.91718 0.67271 0.0
O320 O 0.98042 0.90779 0.63348 0.0
O321 O 0.95605 0.92228 0.63169 0.0
C322 C 0.99489 0.95468 0.64626 0.0
O323 O 0.98693 0.90149 0.66429 0.0
O324 O 0.9899 0.92442 0.68092 0.0
In325 In 0.83249 0.22553 0.39598 0.0
O326 O 0.85764 0.23453 0.40999 0.0
O327 O 0.83322 0.23458 0.42479 0.0
C328 C 0.84451 0.2233 0.36203 0.0
C329 C 0.81127 0.25419 0.39224 0.0
C330 C 0.82687 0.19192 0.40743 0.0
O331 O 0.85459 0.22741 0.37489 0.0
O332 O 0.82867 0.2198 0.36641 0.0
O333 O 0.81404 0.20213 0.40342 0.0
O334 O 0.84214 0.19857 0.40535 0.0
C335 C 0.84976 0.23792 0.42456 0.0
O336 O 0.80505 0.23852 0.39101 0.0
O337 O 0.82772 0.25511 0.39539 0.0
In338 In 0.53019 0.07294 0.15001 0.0
O339 O 0.51327 0.04717 0.14848 0.0
O340 O 0.50632 0.06953 0.1323 0.0
C341 C 0.5624 0.06395 0.16345 0.0
C342 C 0.51283 0.08781 0.17747 0.0
C343 C 0.53891 0.09031 0.11987 0.0
O344 O 0.55385 0.05352 0.15328 0.0
O345 O 0.55459 0.07841 0.16684 0.0
O346 O 0.53323 0.0984 0.13356 0.0
O347 O 0.54094 0.07367 0.12173 0.0
C348 C 0.50281 0.05378 0.13694 0.0
O349 O 0.5202 0.09702 0.1654 0.0
O350 O 0.51423 0.07111 0.17564 0.0
In351 In 0.67359 0.77635 0.89844 0.0
O352 O 0.65497 0.75306 0.90394 0.0
O353 O 0.6656 0.76727 0.92623 0.0
C354 C 0.6551 0.78024 0.86769 0.0
C355 C 0.70133 0.75424 0.89188 0.0
C356 C 0.67821 0.80956 0.91207 0.0
O357 O 0.64749 0.77855 0.88262 0.0
O358 O 0.67188 0.78043 0.86837 0.0
O359 O 0.69106 0.80083 0.90557 0.0
O360 O 0.66345 0.80165 0.91148 0.0
C361 C 0.65582 0.7547 0.92072 0.0
O362 O 0.69402 0.75528 0.90701 0.0
O363 O 0.69578 0.76556 0.88073 0.0
In364 In 0.96701 0.07164 0.85312 0.0
O365 O 0.9863 0.04883 0.84623 0.0
O366 O 0.98084 0.05376 0.87348 0.0
C367 C 0.93416 0.06763 0.83844 0.0
C368 C 0.98783 0.08836 0.82923 0.0
C369 C 0.9638 0.08859 0.88473 0.0
O370 O 0.94193 0.05503 0.84647 0.0
O371 O 0.94287 0.08195 0.83794 0.0
O372 O 0.97289 0.09496 0.87201 0.0
O373 O 0.9559 0.07412 0.88122 0.0
C374 C 0.98981 0.04509 0.86225 0.0
O375 O 0.98118 0.09643 0.84248 0.0
O376 O 0.98378 0.07205 0.82803 0.0
In377 In 0.67253 0.22016 0.60152 0.0
O378 O 0.69352 0.24086 0.59325 0.0
O379 O 0.69088 0.23478 0.62076 0.0
C380 C 0.67982 0.18667 0.58949 0.0
C381 C 0.65458 0.24117 0.57874 0.0
C382 C 0.65326 0.21685 0.63178 0.0
O383 O 0.69005 0.19483 0.60004 0.0
O384 O 0.66636 0.19547 0.58483 0.0
O385 O 0.64617 0.21606 0.61649 0.0
O386 O 0.66994 0.21891 0.6317 0.0
C387 C 0.69818 0.24438 0.60905 0.0
O388 O 0.64811 0.23634 0.59355 0.0
O389 O 0.67 0.23528 0.5754 0.0
In390 In 0.5328 0.92152 0.34618 0.0
O391 O 0.52029 0.8983 0.33117 0.0
O392 O 0.51594 0.9247 0.32138 0.0
C393 C 0.54281 0.9046 0.37616 0.0
C394 C 0.50685 0.9418 0.36025 0.0
C395 C 0.56423 0.92839 0.33014 0.0
O396 O 0.53602 0.89638 0.36305 0.0
O397 O 0.54519 0.92113 0.37379 0.0
O398 O 0.5568 0.93979 0.34017 0.0
O399 O 0.55583 0.91395 0.32843 0.0
C400 C 0.51318 0.9082 0.31948 0.0
O401 O 0.51741 0.94807 0.34862 0.0
O402 O 0.50965 0.92582 0.36464 0.0
In403 In 0.83913 0.77798 0.10381 0.0
O404 O 0.81783 0.75902 0.09287 0.0
O405 O 0.81461 0.76863 0.11925 0.0
C406 C 0.83743 0.81192 0.09141 0.0
C407 C 0.85649 0.75628 0.08116 0.0
C408 C 0.85473 0.77842 0.13637 0.0
O409 O 0.82365 0.80282 0.09466 0.0
O410 O 0.8519 0.80405 0.0947 0.0
O411 O 0.86342 0.77503 0.12233 0.0
O412 O 0.83856 0.78223 0.13383 0.0
C413 C 0.80903 0.75832 0.10719 0.0
O414 O 0.85554 0.7532 0.09772 0.0
O415 O 0.84905 0.77055 0.07612 0.0
In416 In 0.6509 0.97052 0.9229 0.0
O417 O 0.65705 0.98987 0.94564 0.0
O418 O 0.6302 0.98187 0.94224 0.0
C419 C 0.66568 0.9386 0.93109 0.0
C420 C 0.67385 0.99039 0.90371 0.0
C421 C 0.62162 0.96452 0.90277 0.0
O422 O 0.65338 0.94542 0.94039 0.0
O423 O 0.67075 0.94811 0.91819 0.0
O424 O 0.62647 0.98004 0.90718 0.0
O425 O 0.63168 0.95216 0.90824 0.0
C426 C 0.64105 0.99184 0.95035 0.0
O427 O 0.66038 0.98306 0.89674 0.0
O428 O 0.67582 0.98742 0.92015 0.0
In429 In 0.77932 0.89536 0.67189 0.0
O430 O 0.77145 0.91221 0.64797 0.0
O431 O 0.77179 0.92453 0.67375 0.0
C432 C 0.78025 0.86251 0.65696 0.0
C433 C 0.75036 0.89112 0.69262 0.0
C434 C 0.81319 0.90532 0.67859 0.0
O435 O 0.77653 0.87633 0.64806 0.0
O436 O 0.78399 0.86538 0.67313 0.0
O437 O 0.80263 0.90122 0.69111 0.0
O438 O 0.80682 0.90376 0.6631 0.0
C439 C 0.76883 0.92615 0.6572 0.0
O440 O 0.76587 0.88819 0.69864 0.0
O441 O 0.74971 0.89611 0.67658 0.0
In442 In 0.84452 0.02762 0.41181 0.0
O443 O 0.82956 0.01987 0.38685 0.0
O444 O 0.81517 0.02079 0.41155 0.0
C445 C 0.87807 0.02764 0.39889 0.0
C446 C 0.84811 0.99854 0.43258 0.0
C447 C 0.83529 0.0618 0.41786 0.0
O448 O 0.86474 0.02461 0.38905 0.0
O449 O 0.87436 0.03132 0.41488 0.0
O450 O 0.83806 0.0511 0.43064 0.0
O451 O 0.83764 0.05536 0.40252 0.0
C452 C 0.81487 0.0177 0.39492 0.0
O453 O 0.85107 0.01406 0.43861 0.0
O454 O 0.84285 0.99799 0.41663 0.0
In455 In 0.72293 0.09381 0.1614 0.0
O456 O 0.74174 0.09799 0.18549 0.0
O457 O 0.75166 0.10107 0.15892 0.0
C458 C 0.69068 0.08125 0.1702 0.0
C459 C 0.73349 0.06353 0.14608 0.0
C460 C 0.715 0.12686 0.15009 0.0
O461 O 0.70145 0.08659 0.18216 0.0
O462 O 0.69614 0.08276 0.15433 0.0
O463 O 0.72012 0.1148 0.13943 0.0
O464 O 0.71344 0.12202 0.16618 0.0
C465 C 0.75493 0.1015 0.17544 0.0
O466 O 0.72913 0.07711 0.13695 0.0
O467 O 0.73242 0.06537 0.16285 0.0
In468 In 0.65507 0.02182 0.58748 0.0
O469 O 0.65155 0.00896 0.55977 0.0
O470 O 0.65478 0.99221 0.5826 0.0
C471 C 0.66486 0.05608 0.58298 0.0
C472 C 0.68489 0.01104 0.60376 0.0
C473 C 0.62087 0.02326 0.5987 0.0
O474 O 0.66186 0.04599 0.56975 0.0
O475 O 0.66252 0.04898 0.59805 0.0
O476 O 0.63345 0.01901 0.60911 0.0
O477 O 0.62568 0.02707 0.58303 0.0
C478 C 0.65257 0.99325 0.56595 0.0
O479 O 0.6703 0.01291 0.61212 0.0
O480 O 0.68437 0.01492 0.58733 0.0
In481 In 0.72215 0.89886 0.32811 0.0
O482 O 0.72961 0.91708 0.351 0.0
O483 O 0.73549 0.92559 0.32434 0.0
C484 C 0.71184 0.86862 0.34421 0.0
C485 C 0.75287 0.88585 0.31536 0.0
C486 C 0.69106 0.91236 0.31663 0.0
O487 O 0.71593 0.88247 0.35297 0.0
O488 O 0.71212 0.87038 0.32743 0.0
O489 O 0.70071 0.903 0.30633 0.0
O490 O 0.69703 0.91438 0.33221 0.0
C491 C 0.73597 0.92903 0.34088 0.0
O492 O 0.74135 0.89253 0.30486 0.0
O493 O 0.74877 0.88614 0.33169 0.0
In494 In 0.85129 0.97614 0.07931 0.0
O495 O 0.85376 0.99356 0.05398 0.0
O496 O 0.85202 0.00594 0.07964 0.0
C497 C 0.84543 0.9416 0.07183 0.0
C498 C 0.8192 0.98294 0.09293 0.0
C499 C 0.88418 0.97607 0.09358 0.0
O500 O 0.85049 0.95231 0.05973 0.0
O501 O 0.84375 0.94831 0.08715 0.0
O502 O 0.87033 0.97733 0.10313 0.0
O503 O 0.88133 0.97429 0.07707 0.0
C504 C 0.85341 0.00793 0.06298 0.0
O505 O 0.83289 0.98097 0.10268 0.0
O506 O 0.82175 0.98119 0.0763 0.0
In507 In 0.77412 0.09812 0.82012 0.0
O508 O 0.76226 0.08766 0.84614 0.0
O509 O 0.75533 0.07456 0.82184 0.0
C510 C 0.78247 0.12918 0.83609 0.0
C511 C 0.75126 0.1086 0.7942 0.0
C512 C 0.80595 0.08186 0.81506 0.0
O513 O 0.76991 0.11938 0.84168 0.0
O514 O 0.79091 0.12304 0.82284 0.0
O515 O 0.79897 0.09167 0.80325 0.0
O516 O 0.79669 0.07995 0.82894 0.0
C517 C 0.75356 0.07533 0.83858 0.0
O518 O 0.75717 0.09285 0.79496 0.0
O519 O 0.75766 0.11899 0.80572 0.0
In520 In 0.91913 0.6433 0.97254 0.0
O521 O 0.90078 0.65044 0.99565 0.0
O522 O 0.91135 0.67161 0.97979 0.0
C523 C 0.90356 0.6108 0.97162 0.0
C524 C 0.9484 0.63876 0.99337 0.0
C525 C 0.91996 0.65563 0.93857 0.0
O526 O 0.89543 0.62447 0.97724 0.0
O527 O 0.91912 0.61374 0.96596 0.0
O528 O 0.93404 0.65211 0.94714 0.0
O529 O 0.90574 0.65266 0.94699 0.0
C530 C 0.90188 0.66707 0.99299 0.0
O531 O 0.94023 0.65339 0.99231 0.0
O532 O 0.94282 0.62703 0.98271 0.0
In533 In 0.41269 0.8508 0.02596 0.0
O534 O 0.43902 0.86003 0.0132 0.0
O535 O 0.42015 0.84604 0.99721 0.0
C536 C 0.41986 0.85011 0.06133 0.0
C537 C 0.39759 0.81886 0.02 0.0
C538 C 0.39467 0.88149 0.02112 0.0
O539 O 0.42983 0.84225 0.05026 0.0
O540 O 0.40694 0.85833 0.05452 0.0
O541 O 0.38683 0.86668 0.02321 0.0
O542 O 0.4115 0.88069 0.02122 0.0
C543 C 0.43496 0.85393 0.99797 0.0
O544 O 0.38881 0.83326 0.01928 0.0
O545 O 0.41377 0.82061 0.02432 0.0
In546 In 0.89456 0.66554 0.77536 0.0
O547 O 0.9132 0.64271 0.76869 0.0
O548 O 0.92355 0.66939 0.76851 0.0
C549 C 0.86157 0.65194 0.77832 0.0
C550 C 0.88973 0.68116 0.74351 0.0
C551 C 0.90307 0.6727 0.80938 0.0
O552 O 0.87505 0.64209 0.77573 0.0
O553 O 0.86495 0.66837 0.78003 0.0
O554 O 0.89746 0.68495 0.7991 0.0
O555 O 0.90388 0.65734 0.80254 0.0
C556 C 0.92645 0.65292 0.76611 0.0
O557 O 0.89112 0.69053 0.7576 0.0
O558 O 0.8907 0.66451 0.74586 0.0
In559 In 0.06136 0.14364 0.52875 0.0
O560 O 0.03989 0.15179 0.50852 0.0
O561 O 0.03938 0.12534 0.51836 0.0
C562 C 0.05916 0.15592 0.56275 0.0
C563 C 0.07702 0.16776 0.50748 0.0
C564 C 0.08038 0.11307 0.53014 0.0
O565 O 0.04561 0.15011 0.55458 0.0
O566 O 0.07338 0.15531 0.55389 0.0
O567 O 0.08761 0.12801 0.52721 0.0
O568 O 0.0638 0.11368 0.53283 0.0
C569 C 0.03314 0.13644 0.50737 0.0
O570 O 0.07948 0.15117 0.50567 0.0
O571 O 0.06674 0.17218 0.5201 0.0
In572 In 0.10071 0.82238 0.77753 0.0
O573 O 0.09745 0.79753 0.75974 0.0
O574 O 0.12329 0.80847 0.76285 0.0
C575 C 0.08349 0.81521 0.80845 0.0
C576 C 0.07781 0.84055 0.75674 0.0
C577 C 0.1297 0.84106 0.78755 0.0
O578 O 0.09475 0.80453 0.80183 0.0
O579 O 0.08062 0.82893 0.79919 0.0
O580 O 0.12195 0.84381 0.77281 0.0
O581 O 0.1227 0.82912 0.79718 0.0
C582 C 0.11364 0.79709 0.75517 0.0
O583 O 0.08941 0.84829 0.76621 0.0
O584 O 0.07779 0.82376 0.75784 0.0
In585 In 0.57485 0.34707 0.47355 0.0
O586 O 0.55014 0.34337 0.49151 0.0
O587 O 0.56327 0.36847 0.4914 0.0
C588 C 0.56822 0.33023 0.44219 0.0
C589 C 0.59237 0.32496 0.49563 0.0
C590 C 0.59191 0.37719 0.46414 0.0
O591 O 0.55708 0.34078 0.44915 0.0
O592 O 0.58223 0.3281 0.45114 0.0
O593 O 0.6 0.36401 0.47089 0.0
O594 O 0.57539 0.37495 0.46169 0.0
C595 C 0.55105 0.35896 0.49787 0.0
O596 O 0.60017 0.33733 0.48723 0.0
O597 O 0.57583 0.32377 0.49282 0.0
In598 In 0.90637 0.33112 0.71663 0.0
O599 O 0.91928 0.35678 0.72674 0.0
O600 O 0.93308 0.3322 0.73048 0.0
C601 C 0.87878 0.35349 0.71077 0.0
C602 C 0.89436 0.30733 0.74103 0.0
C603 C 0.91975 0.31927 0.68527 0.0
O604 O 0.88457 0.35019 0.72624 0.0
O605 O 0.88725 0.34599 0.69828 0.0
O606 O 0.9072 0.31117 0.69311 0.0
O607 O 0.92543 0.33283 0.69336 0.0
C608 C 0.93295 0.34889 0.73268 0.0
O609 O 0.91047 0.31188 0.73988 0.0
O610 O 0.88458 0.31345 0.72877 0.0
In611 In 0.59272 0.67824 0.21782 0.0
O612 O 0.58602 0.69958 0.2384 0.0
O613 O 0.61244 0.69899 0.22837 0.0
C614 C 0.58061 0.68761 0.18502 0.0
C615 C 0.5686 0.65992 0.23716 0.0
C616 C 0.62163 0.6569 0.21453 0.0
O617 O 0.59364 0.69539 0.19232 0.0
O618 O 0.57353 0.67567 0.19445 0.0
O619 O 0.61853 0.66591 0.22842 0.0
O620 O 0.60993 0.6583 0.20248 0.0
C621 C 0.60163 0.70571 0.23941 0.0
O622 O 0.58256 0.6527 0.23111 0.0
O623 O 0.56671 0.67614 0.23314 0.0
In624 In 0.52046 0.57095 0.85502 0.0
O625 O 0.49799 0.55116 0.84871 0.0
O626 O 0.51035 0.54928 0.87399 0.0
C627 C 0.55382 0.56828 0.84124 0.0
C628 C 0.50157 0.58807 0.83004 0.0
C629 C 0.52139 0.58798 0.88677 0.0
O630 O 0.54559 0.55483 0.84715 0.0
O631 O 0.54532 0.58267 0.84238 0.0
O632 O 0.51262 0.59394 0.87366 0.0
O633 O 0.53003 0.57388 0.88365 0.0
C634 C 0.49809 0.54389 0.86386 0.0
O635 O 0.50627 0.59549 0.84448 0.0
O636 O 0.50645 0.57201 0.82824 0.0
In637 In 0.66176 0.27815 0.10076 0.0
O638 O 0.68746 0.26156 0.10419 0.0
O639 O 0.66271 0.25156 0.11422 0.0
C640 C 0.66946 0.3108 0.08814 0.0
C641 C 0.64882 0.26342 0.07094 0.0
C642 C 0.64735 0.28555 0.13272 0.0
O643 O 0.68135 0.30108 0.09524 0.0
O644 O 0.65403 0.30411 0.08783 0.0
O645 O 0.63807 0.2798 0.11981 0.0
O646 O 0.66356 0.28847 0.12911 0.0
C647 C 0.67923 0.24918 0.1123 0.0
O648 O 0.6387 0.2688 0.08336 0.0
O649 O 0.6653 0.26552 0.07368 0.0
In650 In 0.97061 0.41975 0.3459 0.0
O651 O 0.99165 0.44044 0.33781 0.0
O652 O 0.98248 0.44093 0.36447 0.0
C653 C 0.93784 0.42218 0.33076 0.0
C654 C 0.99095 0.40137 0.32298 0.0
C655 C 0.96785 0.40544 0.37881 0.0
O656 O 0.94624 0.43577 0.33609 0.0
O657 O 0.94585 0.40765 0.33323 0.0
O658 O 0.97736 0.39841 0.36677 0.0
O659 O 0.95936 0.4192 0.37399 0.0
C660 C 0.99328 0.44706 0.35317 0.0
O661 O 0.98533 0.3945 0.33736 0.0
O662 O 0.98604 0.41725 0.3202 0.0
In663 In 0.8277 0.72182 0.59289 0.0
O664 O 0.85339 0.73481 0.58288 0.0
O665 O 0.83014 0.73652 0.56664 0.0
C666 C 0.84787 0.71561 0.62213 0.0
C667 C 0.8012 0.74381 0.60387 0.0
C668 C 0.81913 0.6902 0.57766 0.0
O669 O 0.84415 0.73119 0.61692 0.0
O670 O 0.84185 0.70328 0.61235 0.0
O671 O 0.80896 0.69776 0.58882 0.0
O672 O 0.83314 0.69873 0.57413 0.0
C673 C 0.8464 0.74038 0.56858 0.0
O674 O 0.80696 0.74363 0.58808 0.0
O675 O 0.80772 0.73184 0.61374 0.0
In676 In 0.52853 0.41188 0.65472 0.0
O677 O 0.51859 0.38749 0.66951 0.0
O678 O 0.52102 0.41205 0.68391 0.0
C679 C 0.52914 0.39898 0.62108 0.0
C680 C 0.50099 0.43462 0.65068 0.0
C681 C 0.56267 0.41612 0.6651 0.0
O682 O 0.52472 0.38939 0.63423 0.0
O683 O 0.5337 0.41467 0.62504 0.0
O684 O 0.55253 0.42937 0.6625 0.0
O685 O 0.55569 0.40113 0.66205 0.0
C686 C 0.51661 0.39575 0.68414 0.0
O687 O 0.51689 0.43954 0.64785 0.0
O688 O 0.49928 0.41869 0.65574 0.0
In689 In 0.83065 0.27985 0.89439 0.0
O690 O 0.8547 0.27096 0.91047 0.0
O691 O 0.82877 0.26419 0.92018 0.0
C692 C 0.84576 0.28997 0.86347 0.0
C693 C 0.81494 0.2506 0.88096 0.0
C694 C 0.82079 0.31096 0.9095 0.0
O695 O 0.85482 0.28422 0.87651 0.0
O696 O 0.82926 0.29164 0.86648 0.0
O697 O 0.80986 0.30181 0.90038 0.0
O698 O 0.83623 0.30444 0.91066 0.0
C699 C 0.84547 0.2633 0.92235 0.0
O700 O 0.80596 0.26178 0.88999 0.0
O701 O 0.83119 0.25437 0.87906 0.0
In702 In 0.96869 0.57971 0.14705 0.0
O703 O 0.98467 0.60375 0.1562 0.0
O704 O 0.98063 0.58234 0.17466 0.0
C705 C 0.96959 0.59412 0.114 0.0
C706 C 0.99135 0.55203 0.14142 0.0
C707 C 0.93464 0.57841 0.15932 0.0
O708 O 0.97493 0.60258 0.12757 0.0
O709 O 0.96336 0.57883 0.11724 0.0
O710 O 0.94332 0.56445 0.15571 0.0
O711 O 0.943 0.59268 0.1566 0.0
C712 C 0.98748 0.59748 0.17165 0.0
O713 O 0.99163 0.56136 0.15538 0.0
O714 O 0.97873 0.5557 0.13094 0.0
In715 In 0.65909 0.7205 0.39467 0.0
O716 O 0.63568 0.72712 0.41257 0.0
O717 O 0.66169 0.7252 0.42428 0.0
C718 C 0.64515 0.72173 0.36155 0.0
C719 C 0.67925 0.74993 0.39181 0.0
C720 C 0.6648 0.68589 0.40179 0.0
O721 O 0.63585 0.72487 0.37527 0.0
O722 O 0.66109 0.71736 0.36468 0.0
O723 O 0.67766 0.6964 0.39867 0.0
O724 O 0.64949 0.69274 0.40064 0.0
C725 C 0.64522 0.72815 0.42652 0.0
O726 O 0.68574 0.73456 0.38902 0.0
O727 O 0.66306 0.75017 0.39631 0.0
In728 In 0.84587 0.5304 0.5803 0.0
O729 O 0.85176 0.51082 0.55713 0.0
O730 O 0.85799 0.50347 0.58397 0.0
C731 C 0.83224 0.56161 0.56935 0.0
C732 C 0.8156 0.51741 0.59362 0.0
C733 C 0.87654 0.54174 0.59483 0.0
O734 O 0.84073 0.55161 0.5586 0.0
O735 O 0.83093 0.5558 0.5851 0.0
O736 O 0.86429 0.53483 0.60418 0.0
O737 O 0.87304 0.5433 0.57839 0.0
C738 C 0.85792 0.49908 0.56772 0.0
O739 O 0.82776 0.52371 0.60355 0.0
O740 O 0.81881 0.51775 0.57704 0.0
In741 In 0.71615 0.60124 0.82803 0.0
O742 O 0.73678 0.59286 0.80698 0.0
O743 O 0.72962 0.62012 0.8083 0.0
C744 C 0.68261 0.58809 0.82427 0.0
C745 C 0.73503 0.57676 0.84593 0.0
C746 C 0.7157 0.6332 0.84461 0.0
O747 O 0.69081 0.59524 0.81142 0.0
O748 O 0.6912 0.58775 0.83866 0.0
O749 O 0.72349 0.61979 0.85121 0.0
O750 O 0.70765 0.63027 0.83009 0.0
C751 C 0.7396 0.60848 0.80145 0.0
O752 O 0.72889 0.59059 0.85343 0.0
O753 O 0.73153 0.57532 0.82948 0.0
In754 In 0.6534 0.47229 0.08463 0.0
O755 O 0.67155 0.47968 0.10762 0.0
O756 O 0.68132 0.48296 0.08094 0.0
C757 C 0.6218 0.46488 0.09975 0.0
C758 C 0.64394 0.50388 0.07081 0.0
C759 C 0.6644 0.43975 0.07445 0.0
O760 O 0.63572 0.46739 0.10898 0.0
O761 O 0.62404 0.4655 0.08306 0.0
O762 O 0.65681 0.45018 0.06347 0.0
O763 O 0.66616 0.44581 0.09004 0.0
C764 C 0.6842 0.48455 0.09752 0.0
O765 O 0.64793 0.49087 0.06067 0.0
O766 O 0.6449 0.50067 0.08732 0.0
In767 In 0.77623 0.40255 0.32523 0.0
O768 O 0.75683 0.39741 0.30176 0.0
O769 O 0.74698 0.39836 0.32851 0.0
C770 C 0.80933 0.41064 0.31418 0.0
C771 C 0.76727 0.43481 0.33717 0.0
C772 C 0.78056 0.37138 0.34242 0.0
O773 O 0.79847 0.40285 0.30379 0.0
O774 O 0.80347 0.41388 0.32959 0.0
O775 O 0.7794 0.38608 0.35063 0.0
O776 O 0.78017 0.37253 0.32561 0.0
C777 C 0.74348 0.39638 0.31216 0.0
O778 O 0.77142 0.42215 0.3476 0.0
O779 O 0.76799 0.4312 0.32066 0.0
In780 In 0.83891 0.47081 0.92678 0.0
O781 O 0.82845 0.48349 0.90117 0.0
O782 O 0.81393 0.48777 0.92522 0.0
C783 C 0.86764 0.46547 0.90574 0.0
C784 C 0.85067 0.49171 0.95381 0.0
C785 C 0.824 0.43877 0.93439 0.0
O786 O 0.86254 0.48088 0.91025 0.0
O787 O 0.85804 0.45289 0.91148 0.0
O788 O 0.83602 0.44556 0.94409 0.0
O789 O 0.81918 0.44844 0.92153 0.0
C790 C 0.81525 0.49076 0.90869 0.0
O791 O 0.83452 0.49109 0.94919 0.0
O792 O 0.86051 0.48054 0.94597 0.0
In793 In 0.77149 0.60648 0.16194 0.0
O794 O 0.75466 0.61029 0.1875 0.0
O795 O 0.74169 0.60851 0.16218 0.0
C796 C 0.80535 0.59775 0.1699 0.0
C797 C 0.76298 0.57503 0.1476 0.0
C798 C 0.77408 0.63945 0.14789 0.0
O799 O 0.79469 0.60299 0.18195 0.0
O800 O 0.79901 0.59749 0.15433 0.0
O801 O 0.7716 0.6258 0.13828 0.0
O802 O 0.77573 0.63634 0.16437 0.0
C803 C 0.74011 0.61036 0.17884 0.0
O804 O 0.76525 0.58889 0.13816 0.0
O805 O 0.76514 0.57712 0.16423 0.0
In806 In 0.648 0.52101 0.40481 0.0
O807 O 0.66424 0.51341 0.38053 0.0
O808 O 0.6776 0.51571 0.40573 0.0
C809 C 0.61445 0.52189 0.39194 0.0
C810 C 0.64456 0.49201 0.42562 0.0
C811 C 0.65664 0.55533 0.41038 0.0
O812 O 0.62762 0.51819 0.38208 0.0
O813 O 0.61834 0.52549 0.40791 0.0
O814 O 0.65372 0.54485 0.42332 0.0
O815 O 0.65463 0.5486 0.3951 0.0
C816 C 0.67875 0.51248 0.38918 0.0
O817 O 0.64254 0.5076 0.43183 0.0
O818 O 0.64866 0.49126 0.40932 0.0
In819 In 0.7261 0.40075 0.66278 0.0
O820 O 0.74494 0.39882 0.68711 0.0
O821 O 0.75565 0.39757 0.66071 0.0
C822 C 0.69282 0.40943 0.67265 0.0
C823 C 0.7339 0.43172 0.64716 0.0
C824 C 0.72255 0.36729 0.65025 0.0
O825 O 0.70408 0.40392 0.68403 0.0
O826 O 0.69834 0.4101 0.65678 0.0
O827 O 0.72444 0.38053 0.63995 0.0
O828 O 0.72188 0.37108 0.66666 0.0
C829 C 0.75866 0.39738 0.67727 0.0
O830 O 0.73085 0.41768 0.63821 0.0
O831 O 0.73271 0.43007 0.66394 0.0
In832 In 0.59136 0.84481 0.52399 0.0
O833 O 0.61353 0.82582 0.51638 0.0
O834 O 0.58674 0.81589 0.51698 0.0
C835 C 0.60799 0.87654 0.52677 0.0
C836 C 0.57341 0.85131 0.49368 0.0
C837 C 0.5833 0.83581 0.55776 0.0
O838 O 0.61654 0.86214 0.5247 0.0
O839 O 0.59131 0.8748 0.52779 0.0
O840 O 0.57133 0.84112 0.54706 0.0
O841 O 0.59888 0.83564 0.55151 0.0
C842 C 0.60308 0.81271 0.51417 0.0
O843 O 0.56605 0.85314 0.50882 0.0
O844 O 0.58938 0.84607 0.49404 0.0
In845 In 0.07023 0.65084 0.46928 0.0
O846 O 0.05138 0.66266 0.49002 0.0
O847 O 0.04645 0.63619 0.48145 0.0
C848 C 0.06189 0.66347 0.43642 0.0
C849 C 0.09133 0.67143 0.48968 0.0
C850 C 0.08894 0.62029 0.46451 0.0
O851 O 0.07492 0.66885 0.44549 0.0
O852 O 0.05261 0.65157 0.44394 0.0
O853 O 0.09336 0.63481 0.4572 0.0
O854 O 0.07513 0.6212 0.47403 0.0
C855 C 0.04255 0.64854 0.49223 0.0
O856 O 0.09154 0.65461 0.49071 0.0
O857 O 0.08081 0.67772 0.47815 0.0
In858 In 0.59763 0.83222 0.72241 0.0
O859 O 0.58102 0.85614 0.73015 0.0
O860 O 0.56823 0.83061 0.72899 0.0
C861 C 0.63052 0.84676 0.72165 0.0
C862 C 0.60187 0.81173 0.75156 0.0
C863 C 0.58876 0.8263 0.68811 0.0
O864 O 0.6167 0.85599 0.72437 0.0
O865 O 0.62768 0.8304 0.71891 0.0
O866 O 0.59244 0.81349 0.69851 0.0
O867 O 0.59012 0.84159 0.69492 0.0
C868 C 0.56682 0.84718 0.73198 0.0
O869 O 0.60392 0.80541 0.736 0.0
O870 O 0.59742 0.82794 0.75216 0.0
In871 In 0.41088 0.34624 0.97606 0.0
O872 O 0.43817 0.35262 0.98842 0.0
O873 O 0.41841 0.34046 0.00473 0.0
C874 C 0.41864 0.34418 0.9409 0.0
C875 C 0.39176 0.31642 0.98131 0.0
C876 C 0.39652 0.37868 0.98181 0.0
O877 O 0.42682 0.33491 0.95231 0.0
O878 O 0.40711 0.35459 0.94724 0.0
O879 O 0.38698 0.36482 0.98025 0.0
O880 O 0.4131 0.37607 0.98033 0.0
C881 C 0.43386 0.34697 0.00373 0.0
O882 O 0.38481 0.33178 0.98206 0.0
O883 O 0.40816 0.31622 0.97752 0.0
In884 In 0.40089 0.67107 0.72246 0.0
O885 O 0.40466 0.69609 0.73996 0.0
O886 O 0.37912 0.68411 0.73907 0.0
C887 C 0.41781 0.67799 0.69128 0.0
C888 C 0.42396 0.65288 0.74301 0.0
C889 C 0.37135 0.65343 0.71217 0.0
O890 O 0.40698 0.68893 0.69819 0.0
O891 O 0.4204 0.66407 0.70034 0.0
O892 O 0.37989 0.64921 0.72611 0.0
O893 O 0.37782 0.66634 0.70347 0.0
C894 C 0.38893 0.69588 0.74591 0.0
O895 O 0.41202 0.64511 0.73398 0.0
O896 O 0.4243 0.66963 0.74144 0.0
In897 In 0.92131 0.15502 0.02625 0.0
O898 O 0.94179 0.15899 0.00402 0.0
O899 O 0.94049 0.13353 0.01622 0.0
C900 C 0.93153 0.16775 0.05854 0.0
C901 C 0.90425 0.18118 0.00862 0.0
C902 C 0.89853 0.12731 0.02999 0.0
O903 O 0.93963 0.155 0.05104 0.0
O904 O 0.91884 0.17411 0.04961 0.0
O905 O 0.90468 0.13203 0.01505 0.0
O906 O 0.90341 0.1369 0.04297 0.0
C907 C 0.94702 0.14301 0.00394 0.0
O908 O 0.89623 0.16751 0.01437 0.0
O909 O 0.92076 0.18163 0.01188 0.0
In910 In 0.59431 0.1596 0.77305 0.0
O911 O 0.59897 0.18734 0.76063 0.0
O912 O 0.59351 0.16527 0.74354 0.0
C913 C 0.58511 0.1645 0.8075 0.0
C914 C 0.56507 0.1426 0.76194 0.0
C915 C 0.62828 0.14765 0.77301 0.0
O916 O 0.58801 0.17756 0.7972 0.0
O917 O 0.58711 0.14936 0.80049 0.0
O918 O 0.61526 0.13748 0.76975 0.0
O919 O 0.62405 0.16347 0.77683 0.0
C920 C 0.59707 0.18164 0.74482 0.0
O921 O 0.5798 0.13465 0.76425 0.0
O922 O 0.56506 0.15909 0.76565 0.0
In923 In 0.90628 0.82366 0.27964 0.0
O924 O 0.91536 0.80198 0.25992 0.0
O925 O 0.8885 0.80166 0.26831 0.0
C926 C 0.92256 0.82289 0.31186 0.0
C927 C 0.92646 0.84344 0.25775 0.0
C928 C 0.87428 0.83836 0.28671 0.0
O929 O 0.91711 0.8088 0.30433 0.0
O930 O 0.91984 0.837 0.30314 0.0
O931 O 0.88491 0.84502 0.27546 0.0
O932 O 0.88 0.82463 0.29464 0.0
C933 C 0.9001 0.79524 0.25802 0.0
O934 O 0.90965 0.84465 0.25803 0.0
O935 O 0.93306 0.83255 0.2688 0.0
In936 In 0.47182 0.41403 0.15176 0.0
O937 O 0.47878 0.39058 0.16934 0.0
O938 O 0.48109 0.41684 0.18041 0.0
C939 C 0.46826 0.39718 0.12009 0.0
C940 C 0.50238 0.43179 0.14599 0.0
C941 C 0.43855 0.42365 0.16151 0.0
O942 O 0.46979 0.3888 0.13462 0.0
O943 O 0.46809 0.41393 0.12161 0.0
O944 O 0.44894 0.43461 0.15397 0.0
O945 O 0.44491 0.40829 0.1638 0.0
C946 C 0.4829 0.40019 0.18263 0.0
O947 O 0.48746 0.43972 0.14541 0.0
O948 O 0.50165 0.41533 0.14937 0.0
In949 In 0.33858 0.72152 0.90391 0.0
O950 O 0.31217 0.73639 0.89901 0.0
O951 O 0.33627 0.75131 0.90234 0.0
C952 C 0.33302 0.68745 0.91355 0.0
C953 C 0.35203 0.73181 0.93526 0.0
C954 C 0.35063 0.71931 0.87009 0.0
O955 O 0.32011 0.69771 0.90975 0.0
O956 O 0.34831 0.69428 0.91192 0.0
O957 O 0.36096 0.72301 0.88296 0.0
O958 O 0.33469 0.71625 0.8745 0.0
C959 C 0.31968 0.75156 0.89961 0.0
O960 O 0.36183 0.72971 0.92159 0.0
O961 O 0.33565 0.7284 0.93302 0.0
In962 In 0.02615 0.59723 0.64991 0.0
O963 O 0.01918 0.61978 0.66892 0.0
O964 O 0.01653 0.59285 0.67807 0.0
C965 C 0.03063 0.61142 0.61736 0.0
C966 C 0.99513 0.58222 0.64059 0.0
C967 C 0.05965 0.5883 0.65878 0.0
O968 O 0.02735 0.62107 0.63087 0.0
O969 O 0.03273 0.595 0.62063 0.0
O970 O 0.04868 0.57672 0.6531 0.0
O971 O 0.05367 0.60402 0.65967 0.0
C972 C 0.01487 0.60929 0.68148 0.0
O973 O 0.00811 0.57262 0.6458 0.0
O974 O 0.99792 0.59881 0.64066 0.0
In975 In 0.15898 0.2744 0.40668 0.0
O976 O 0.17562 0.25119 0.41782 0.0
O977 O 0.18416 0.26315 0.39376 0.0
C978 C 0.16192 0.30797 0.41966 0.0
C979 C 0.13658 0.25568 0.42724 0.0
C980 C 0.14807 0.27729 0.37243 0.0
O981 O 0.17531 0.29792 0.41782 0.0
O982 O 0.14733 0.3011 0.41501 0.0
O983 O 0.13752 0.27278 0.38477 0.0
O984 O 0.16368 0.28088 0.37752 0.0
C985 C 0.18629 0.25072 0.40486 0.0
O986 O 0.13721 0.25376 0.41047 0.0
O987 O 0.14707 0.26729 0.43358 0.0
In988 In 0.4704 0.58161 0.35032 0.0
O989 O 0.48993 0.56008 0.34062 0.0
O990 O 0.48376 0.56079 0.36815 0.0
C991 C 0.43626 0.57873 0.33857 0.0
C992 C 0.48901 0.59937 0.32541 0.0
C993 C 0.47112 0.59664 0.3831 0.0
O994 O 0.44504 0.56543 0.34396 0.0
O995 O 0.44463 0.59324 0.33914 0.0
O996 O 0.4788 0.60374 0.36985 0.0
O997 O 0.46275 0.58244 0.37962 0.0
C998 C 0.49291 0.55381 0.35593 0.0
O999 O 0.4836 0.60686 0.33956 0.0
O1000 O 0.48488 0.58311 0.32389 0.0
In1001 In 0.17085 0.72438 0.10344 0.0
O1002 O 0.19033 0.74522 0.09227 0.0
O1003 O 0.19578 0.73441 0.11773 0.0
C1004 C 0.17167 0.69048 0.09114 0.0
C1005 C 0.15126 0.74402 0.08088 0.0
C1006 C 0.15727 0.72306 0.13685 0.0
O1007 O 0.18579 0.69918 0.09408 0.0
O1008 O 0.15747 0.69877 0.09454 0.0
O1009 O 0.14833 0.72882 0.12377 0.0
O1010 O 0.17263 0.71751 0.13292 0.0
C1011 C 0.19986 0.74583 0.10609 0.0
O1012 O 0.15174 0.74715 0.09747 0.0
O1013 O 0.16049 0.73086 0.07576 0.0
In1014 In 0.01982 0.4184 0.85435 0.0
O1015 O 0.0148 0.39494 0.83607 0.0
O1016 O 0.01111 0.42129 0.82559 0.0
C1017 C 0.02338 0.40282 0.88653 0.0
C1018 C 0.98785 0.43352 0.85981 0.0
C1019 C 0.05314 0.42831 0.84555 0.0
O1020 O 0.02117 0.39386 0.87241 0.0
O1021 O 0.02449 0.41947 0.88426 0.0
O1022 O 0.04242 0.43931 0.85263 0.0
O1023 O 0.04705 0.41281 0.84332 0.0
C1024 C 0.01042 0.40462 0.82291 0.0
O1025 O 0.00174 0.44309 0.85822 0.0
O1026 O 0.99042 0.41693 0.8587 0.0
In1027 In 0.32513 0.27641 0.59447 0.0
O1028 O 0.35049 0.26379 0.58333 0.0
O1029 O 0.32582 0.25861 0.57017 0.0
C1030 C 0.33987 0.28522 0.62596 0.0
C1031 C 0.30015 0.25284 0.60539 0.0
C1032 C 0.32055 0.30857 0.5788 0.0
O1033 O 0.34711 0.27402 0.61557 0.0
O1034 O 0.32566 0.29218 0.62012 0.0
O1035 O 0.30822 0.30103 0.5875 0.0
O1036 O 0.33477 0.29969 0.5777 0.0
C1037 C 0.34242 0.25599 0.57073 0.0
O1038 O 0.29922 0.26028 0.59027 0.0
O1039 O 0.31301 0.25788 0.6149 0.0
In1040 In 0.14677 0.47235 0.4138 0.0
O1041 O 0.16513 0.47793 0.39044 0.0
O1042 O 0.17588 0.47948 0.41688 0.0
C1043 C 0.11425 0.47008 0.39861 0.0
C1044 C 0.14182 0.5036 0.43067 0.0
C1045 C 0.15462 0.43864 0.42335 0.0
O1046 O 0.1282 0.47244 0.38944 0.0
O1047 O 0.11688 0.46825 0.41514 0.0
O1048 O 0.14899 0.44986 0.43467 0.0
O1049 O 0.15592 0.4444 0.4076 0.0
C1050 C 0.17854 0.48107 0.40026 0.0
O1051 O 0.14161 0.48896 0.43917 0.0
O1052 O 0.14466 0.50224 0.41414 0.0
In1053 In 0.27507 0.40207 0.16658 0.0
O1054 O 0.26539 0.38617 0.19061 0.0
O1055 O 0.25353 0.41144 0.1861 0.0
C1056 C 0.30849 0.41531 0.17068 0.0
C1057 C 0.25341 0.42372 0.14802 0.0
C1058 C 0.27821 0.37007 0.15011 0.0
O1059 O 0.29942 0.40986 0.18378 0.0
O1060 O 0.30076 0.414 0.15585 0.0
O1061 O 0.27836 0.3846 0.14158 0.0
O1062 O 0.27681 0.37175 0.16678 0.0
C1063 C 0.25345 0.39718 0.19504 0.0
O1064 O 0.25226 0.40691 0.14717 0.0
O1065 O 0.2656 0.42956 0.1581 0.0
In1066 In 0.34859 0.5233 0.93388 0.0
O1067 O 0.33964 0.50368 0.95572 0.0
O1068 O 0.36712 0.50964 0.95385 0.0
C1069 C 0.337 0.55758 0.93636 0.0
C1070 C 0.32364 0.50434 0.91672 0.0
C1071 C 0.38038 0.52311 0.91704 0.0
O1072 O 0.34397 0.54957 0.94943 0.0
O1073 O 0.33577 0.54832 0.92244 0.0
O1074 O 0.3667 0.51583 0.91039 0.0
O1075 O 0.37785 0.53078 0.93183 0.0
C1076 C 0.35518 0.50043 0.96122 0.0
O1077 O 0.33795 0.5092 0.90922 0.0
O1078 O 0.32193 0.50916 0.93281 0.0
In1079 In 0.22416 0.59598 0.65342 0.0
O1080 O 0.24196 0.60007 0.67825 0.0
O1081 O 0.25326 0.60213 0.65214 0.0
C1082 C 0.19047 0.58788 0.66255 0.0
C1083 C 0.23408 0.56437 0.64037 0.0
C1084 C 0.22061 0.62856 0.63891 0.0
O1085 O 0.20156 0.59341 0.67408 0.0
O1086 O 0.19643 0.5867 0.64685 0.0
O1087 O 0.22305 0.61482 0.62938 0.0
O1088 O 0.21913 0.62562 0.65545 0.0
C1089 C 0.2557 0.60308 0.66878 0.0
O1090 O 0.23022 0.57742 0.63033 0.0
O1091 O 0.23259 0.56727 0.65695 0.0
In1092 In 0.14165 0.52697 0.07448 0.0
O1093 O 0.15275 0.50758 0.05356 0.0
O1094 O 0.12593 0.51584 0.05091 0.0
C1095 C 0.15305 0.56119 0.07238 0.0
C1096 C 0.16517 0.50663 0.09215 0.0
C1097 C 0.10964 0.52769 0.09108 0.0
O1098 O 0.14782 0.55274 0.05877 0.0
O1099 O 0.15233 0.55251 0.08673 0.0
O1100 O 0.12393 0.52438 0.09937 0.0
O1101 O 0.11164 0.53111 0.07473 0.0
C1102 C 0.13819 0.50576 0.04539 0.0
O1103 O 0.14859 0.50354 0.09248 0.0
O1104 O 0.1698 0.52007 0.08307 0.0
In1105 In 0.21563 0.40109 0.83819 0.0
O1106 O 0.23675 0.40924 0.81758 0.0
O1107 O 0.22795 0.38244 0.81745 0.0
C1108 C 0.1824 0.41509 0.83472 0.0
C1109 C 0.23555 0.42461 0.85631 0.0
C1110 C 0.21457 0.36837 0.8532 0.0
O1111 O 0.19121 0.40962 0.82147 0.0
O1112 O 0.19024 0.41337 0.84945 0.0
O1113 O 0.22216 0.3814 0.86074 0.0
O1114 O 0.20702 0.37206 0.83858 0.0
C1115 C 0.2386 0.39381 0.81119 0.0
O1116 O 0.22915 0.41081 0.86364 0.0
O1117 O 0.23167 0.42655 0.84001 0.0
In1118 In 0.35386 0.47047 0.58146 0.0
O1119 O 0.36219 0.48485 0.55562 0.0
O1120 O 0.35469 0.50035 0.5783 0.0
C1121 C 0.34414 0.43685 0.57328 0.0
C1122 C 0.3224 0.48065 0.59473 0.0
C1123 C 0.38561 0.46806 0.59829 0.0
O1124 O 0.34908 0.44765 0.56127 0.0
O1125 O 0.34479 0.44286 0.58896 0.0
O1126 O 0.37121 0.47071 0.60661 0.0
O1127 O 0.3839 0.4662 0.58164 0.0
C1128 C 0.36006 0.50022 0.56236 0.0
O1129 O 0.33594 0.47818 0.60454 0.0
O1130 O 0.3248 0.47794 0.57823 0.0
In1131 In 0.27187 0.5993 0.34002 0.0
O1132 O 0.25476 0.60289 0.31465 0.0
O1133 O 0.24227 0.60276 0.34028 0.0
C1134 C 0.30578 0.59149 0.33146 0.0
C1135 C 0.26302 0.56752 0.3535 0.0
C1136 C 0.27417 0.63207 0.35454 0.0
O1137 O 0.29492 0.59703 0.31973 0.0
O1138 O 0.29956 0.59033 0.34704 0.0
O1139 O 0.2722 0.61824 0.36402 0.0
O1140 O 0.27562 0.6292 0.338 0.0
C1141 C 0.24042 0.60409 0.32359 0.0
O1142 O 0.26597 0.58096 0.36335 0.0
O1143 O 0.2648 0.57015 0.3369 0.0
In1144 In 0.42202 0.1477 0.46847 0.0
O1145 O 0.44219 0.12737 0.47892 0.0
O1146 O 0.44239 0.15324 0.49035 0.0
C1147 C 0.43239 0.15891 0.43562 0.0
C1148 C 0.40454 0.17287 0.48708 0.0
C1149 C 0.39914 0.11998 0.46531 0.0
O1150 O 0.43892 0.1452 0.44291 0.0
O1151 O 0.42129 0.16715 0.44512 0.0
O1152 O 0.4092 0.122 0.47865 0.0
O1153 O 0.40026 0.1322 0.45375 0.0
C1154 C 0.44835 0.13753 0.49086 0.0
O1155 O 0.39696 0.15887 0.48157 0.0
O1156 O 0.42079 0.17424 0.48296 0.0
In1157 In 0.9245 0.34948 0.52584 0.0
O1158 O 0.94932 0.34769 0.50765 0.0
O1159 O 0.93598 0.37248 0.50987 0.0
C1160 C 0.93214 0.33293 0.55697 0.0
C1161 C 0.90847 0.32421 0.50618 0.0
C1162 C 0.90541 0.37829 0.53547 0.0
O1163 O 0.94307 0.34351 0.54965 0.0
O1164 O 0.91781 0.33073 0.5485 0.0
O1165 O 0.90146 0.3691 0.52185 0.0
O1166 O 0.91859 0.37262 0.54434 0.0
C1167 C 0.94815 0.36366 0.50243 0.0
O1168 O 0.89967 0.33601 0.51441 0.0
O1169 O 0.92517 0.32544 0.50769 0.0
In1170 In 0.40022 0.16461 0.27247 0.0
O1171 O 0.41266 0.13884 0.26275 0.0
O1172 O 0.42906 0.16221 0.26423 0.0
C1173 C 0.36586 0.15462 0.27612 0.0
C1174 C 0.39713 0.18652 0.24413 0.0
C1175 C 0.41263 0.16801 0.30604 0.0
O1176 O 0.3776 0.14417 0.27004 0.0
O1177 O 0.37154 0.16985 0.28048 0.0
O1178 O 0.41046 0.18151 0.2961 0.0
O1179 O 0.40816 0.15333 0.29915 0.0
C1180 C 0.42786 0.14582 0.2603 0.0
O1181 O 0.39605 0.19247 0.25993 0.0
O1182 O 0.39979 0.16998 0.24292 0.0
In1183 In 0.5729 0.65052 0.02479 0.0
O1184 O 0.59472 0.65605 0.00442 0.0
O1185 O 0.58037 0.67821 0.01497 0.0
C1186 C 0.59137 0.62075 0.03332 0.0
C1187 C 0.54475 0.64088 0.00419 0.0
C1188 C 0.56826 0.66737 0.05627 0.0
O1189 O 0.59283 0.62824 0.0183 0.0
O1190 O 0.58086 0.6284 0.044 0.0
O1191 O 0.55546 0.65978 0.04828 0.0
O1192 O 0.58304 0.66652 0.04829 0.0
C1193 C 0.59239 0.67274 0.00452 0.0
O1194 O 0.55114 0.65641 0.00407 0.0
O1195 O 0.55155 0.63074 0.01573 0.0
In1196 In 0.59432 0.32654 0.28159 0.0
O1197 O 0.58134 0.35226 0.27159 0.0
O1198 O 0.56696 0.32784 0.26917 0.0
C1199 C 0.62271 0.34831 0.28567 0.0
C1200 C 0.60445 0.30198 0.25709 0.0
C1201 C 0.5818 0.31579 0.31369 0.0
O1202 O 0.61591 0.34512 0.27059 0.0
O1203 O 0.61487 0.341 0.29866 0.0
O1204 O 0.59374 0.30707 0.30556 0.0
O1205 O 0.57638 0.32945 0.30558 0.0
C1206 C 0.56722 0.34448 0.26663 0.0
O1207 O 0.5886 0.30722 0.25876 0.0
O1208 O 0.61492 0.30784 0.26889 0.0
In1209 In 0.07358 0.84609 0.97064 0.0
O1210 O 0.05246 0.83757 0.99079 0.0
O1211 O 0.04903 0.86257 0.97802 0.0
C1212 C 0.06765 0.83297 0.93746 0.0
C1213 C 0.09201 0.82392 0.99206 0.0
C1214 C 0.09347 0.87615 0.96758 0.0
O1215 O 0.05761 0.84462 0.94436 0.0
O1216 O 0.08033 0.82801 0.94729 0.0
O1217 O 0.08147 0.87424 0.97917 0.0
O1218 O 0.09563 0.86281 0.95751 0.0
C1219 C 0.04368 0.85188 0.98989 0.0
O1220 O 0.09468 0.84055 0.99186 0.0
O1221 O 0.08027 0.81848 0.98129 0.0
In1222 In 0.39616 0.83586 0.22771 0.0
O1223 O 0.40934 0.86098 0.23818 0.0
O1224 O 0.42589 0.83862 0.23179 0.0
C1225 C 0.36185 0.84585 0.23128 0.0
C1226 C 0.39655 0.81142 0.254 0.0
C1227 C 0.40247 0.83542 0.1923 0.0
O1228 O 0.37462 0.85645 0.23427 0.0
O1229 O 0.36644 0.83041 0.22633 0.0
O1230 O 0.4056 0.82184 0.20187 0.0
O1231 O 0.39578 0.84845 0.20054 0.0
C1232 C 0.42489 0.85441 0.23767 0.0
O1233 O 0.39241 0.80712 0.23816 0.0
O1234 O 0.40068 0.82757 0.25614 0.0
In1235 In 0.09597 0.1641 0.72287 0.0
O1236 O 0.093 0.1887 0.74081 0.0
O1237 O 0.1191 0.18063 0.73376 0.0
C1238 C 0.07967 0.1722 0.69164 0.0
C1239 C 0.07249 0.14757 0.74453 0.0
C1240 C 0.12395 0.14285 0.71491 0.0
O1241 O 0.09213 0.18164 0.69796 0.0
O1242 O 0.0752 0.15919 0.70131 0.0
O1243 O 0.11917 0.14578 0.73082 0.0
O1244 O 0.11436 0.1502 0.70317 0.0
C1245 C 0.10952 0.19096 0.74292 0.0
O1246 O 0.08432 0.13907 0.73606 0.0
O1247 O 0.0725 0.16417 0.74193 0.0
H1248 H 0.08131 0.04717 0.34468 0.0
H1249 H 0.16107 0.10608 0.30469 0.0
H1250 H 0.07454 0.10015 0.32308 0.0
H1251 H 0.16864 0.06325 0.34247 0.0
H1252 H 0.12899 0.09943 0.30422 0.0
H1253 H 0.11313 0.04856 0.33698 0.0
C1254 C 0.08648 0.05897 0.33811 0.0
C1255 C 0.07541 0.07367 0.33474 0.0
C1256 C 0.13776 0.09134 0.31239 0.0
C1257 C 0.11153 0.07529 0.32579 0.0
C1258 C 0.15602 0.09506 0.31258 0.0
C1259 C 0.1674 0.08535 0.32382 0.0
C1260 C 0.13096 0.0777 0.32336 0.0
C1261 C 0.16023 0.07121 0.33381 0.0
C1262 C 0.10459 0.05977 0.33375 0.0
C1263 C 0.08271 0.08862 0.32614 0.0
N1264 N 0.14244 0.06789 0.33345 0.0
N1265 N 0.10034 0.0891 0.32204 0.0
H1266 H 0.17787 0.9192 0.59293 0.0
H1267 H 0.14374 0.82395 0.56951 0.0
H1268 H 0.14131 0.91145 0.54914 0.0
H1269 H 0.19684 0.83215 0.59014 0.0
H1270 H 0.142 0.85572 0.56209 0.0
H1271 H 0.18475 0.88733 0.59256 0.0
C1272 C 0.17143 0.91075 0.5831 0.0
C1273 C 0.15892 0.91783 0.57113 0.0
C1274 C 0.15413 0.85051 0.56796 0.0
C1275 C 0.16648 0.88139 0.57084 0.0
C1276 C 0.1551 0.83244 0.5723 0.0
C1277 C 0.17039 0.82553 0.58062 0.0
C1278 C 0.16838 0.8618 0.5724 0.0
C1279 C 0.1848 0.83701 0.5838 0.0
C1280 C 0.17544 0.89261 0.58283 0.0
C1281 C 0.15103 0.90642 0.55858 0.0
N1282 N 0.18331 0.8547 0.58 0.0
N1283 N 0.15467 0.88861 0.55899 0.0
H1284 H 0.41723 0.95061 0.84619 0.0
H1285 H 0.33162 0.90416 0.80219 0.0
H1286 H 0.41917 0.90422 0.81212 0.0
H1287 H 0.32978 0.93874 0.84823 0.0
H1288 H 0.36357 0.91082 0.79904 0.0
H1289 H 0.38503 0.953 0.84031 0.0
C1290 C 0.41095 0.94121 0.83718 0.0
C1291 C 0.42069 0.92702 0.82988 0.0
C1292 C 0.35606 0.91718 0.80962 0.0
C1293 C 0.38418 0.92965 0.82308 0.0
C1294 C 0.33786 0.91344 0.81136 0.0
C1295 C 0.32822 0.92065 0.82567 0.0
C1296 C 0.3645 0.92832 0.82219 0.0
C1297 C 0.33687 0.93264 0.8372 0.0
C1298 C 0.39262 0.94251 0.83387 0.0
C1299 C 0.412 0.91517 0.81827 0.0
N1300 N 0.35456 0.93596 0.83533 0.0
N1301 N 0.3942 0.91663 0.81535 0.0
H1302 H 0.33843 0.16764 0.06327 0.0
H1303 H 0.31889 0.07602 0.10943 0.0
H1304 H 0.30031 0.16345 0.10618 0.0
H1305 H 0.336 0.07897 0.0545 0.0
H1306 H 0.31175 0.10787 0.10864 0.0
H1307 H 0.33749 0.13526 0.05954 0.0
C1308 C 0.32965 0.15987 0.07174 0.0
C1309 C 0.31951 0.16813 0.08513 0.0
C1310 C 0.31681 0.1015 0.09667 0.0
C1311 C 0.31866 0.13108 0.08119 0.0
C1312 C 0.32099 0.08337 0.09714 0.0
C1313 C 0.32821 0.07494 0.08205 0.0
C1314 C 0.32026 0.11137 0.08113 0.0
C1315 C 0.33052 0.08501 0.06643 0.0
C1316 C 0.32908 0.14141 0.06957 0.0
C1317 C 0.3083 0.15753 0.0957 0.0
N1318 N 0.32684 0.1028 0.06646 0.0
N1319 N 0.30843 0.13945 0.09374 0.0
H1320 H 0.07427 0.89006 0.16562 0.0
H1321 H 0.16913 0.93447 0.16401 0.0
H1322 H 0.08088 0.94587 0.15298 0.0
H1323 H 0.15737 0.88881 0.19707 0.0
H1324 H 0.13714 0.93925 0.15966 0.0
H1325 H 0.10492 0.88916 0.1766 0.0
C1326 C 0.0822 0.90214 0.16518 0.0
C1327 C 0.07514 0.91803 0.15823 0.0
C1328 C 0.14154 0.92839 0.16813 0.0
C1329 C 0.11022 0.91707 0.17073 0.0
C1330 C 0.15977 0.92564 0.17061 0.0
C1331 C 0.16584 0.91115 0.18081 0.0
C1332 C 0.12934 0.91629 0.17557 0.0
C1333 C 0.15321 0.90013 0.18911 0.0
C1334 C 0.09963 0.90165 0.17159 0.0
C1335 C 0.08589 0.93334 0.15817 0.0
N1336 N 0.13552 0.90273 0.18602 0.0
N1337 N 0.10303 0.93243 0.1641 0.0
H1338 H 0.34483 0.91609 0.44336 0.0
H1339 H 0.30349 0.83142 0.39257 0.0
H1340 H 0.3223 0.91778 0.39036 0.0
H1341 H 0.34164 0.82674 0.43547 0.0
H1342 H 0.3041 0.86392 0.39608 0.0
H1343 H 0.33784 0.884 0.44482 0.0
C1344 C 0.33822 0.90976 0.43216 0.0
C1345 C 0.33432 0.91948 0.41664 0.0
C1346 C 0.31217 0.85575 0.40486 0.0
C1347 C 0.32616 0.8831 0.41826 0.0
C1348 C 0.31176 0.83722 0.40292 0.0
C1349 C 0.32269 0.82642 0.4136 0.0
C1350 C 0.3235 0.86351 0.41766 0.0
C1351 C 0.33315 0.83462 0.42683 0.0
C1352 C 0.33429 0.8915 0.43297 0.0
C1353 C 0.32574 0.9107 0.40249 0.0
N1354 N 0.3334 0.8527 0.42841 0.0
N1355 N 0.322 0.89302 0.40362 0.0
H1356 H 0.41838 0.08752 0.67955 0.0
H1357 H 0.32515 0.06497 0.63737 0.0
H1358 H 0.41127 0.0451 0.64124 0.0
H1359 H 0.32955 0.09252 0.68776 0.0
H1360 H 0.35653 0.05674 0.63933 0.0
H1361 H 0.38609 0.08867 0.68393 0.0
C1362 C 0.41001 0.07824 0.67226 0.0
C1363 C 0.41745 0.06631 0.65986 0.0
C1364 C 0.35064 0.06438 0.6501 0.0
C1365 C 0.3805 0.06777 0.66461 0.0
C1366 C 0.33275 0.06919 0.64894 0.0
C1367 C 0.32485 0.07962 0.66234 0.0
C1368 C 0.36089 0.07038 0.66458 0.0
C1369 C 0.3352 0.08452 0.67713 0.0
C1370 C 0.39159 0.07888 0.67481 0.0
C1371 C 0.40605 0.05452 0.65088 0.0
N1372 N 0.35283 0.08012 0.67772 0.0
N1373 N 0.38809 0.05577 0.65319 0.0
H1374 H 0.18055 0.07641 0.9045 0.0
H1375 H 0.14507 0.17155 0.92739 0.0
H1376 H 0.14206 0.08405 0.94658 0.0
H1377 H 0.19797 0.16357 0.90619 0.0
H1378 H 0.14365 0.13984 0.93507 0.0
H1379 H 0.18742 0.10826 0.90526 0.0
C1380 C 0.17372 0.08483 0.91408 0.0
C1381 C 0.16064 0.07772 0.92542 0.0
C1382 C 0.15568 0.14508 0.92902 0.0
C1383 C 0.16816 0.1142 0.92611 0.0
C1384 C 0.15648 0.16313 0.92454 0.0
C1385 C 0.17159 0.1701 0.91596 0.0
C1386 C 0.16994 0.13383 0.9245 0.0
C1387 C 0.18605 0.15868 0.91272 0.0
C1388 C 0.1777 0.10297 0.91456 0.0
C1389 C 0.15224 0.0891 0.93765 0.0
N1390 N 0.18474 0.14101 0.91669 0.0
N1391 N 0.15587 0.10692 0.93743 0.0
H1392 H 0.06522 0.33836 0.17311 0.0
H1393 H 0.10585 0.32362 0.07746 0.0
H1394 H 0.10769 0.30072 0.16345 0.0
H1395 H 0.05205 0.34276 0.08464 0.0
H1396 H 0.10675 0.3151 0.10894 0.0
H1397 H 0.05969 0.33994 0.14094 0.0
C1398 C 0.07319 0.3302 0.16421 0.0
C1399 C 0.08702 0.31949 0.17088 0.0
C1400 C 0.09466 0.32096 0.10361 0.0
C1401 C 0.08101 0.32151 0.13412 0.0
C1402 C 0.09418 0.32592 0.08567 0.0
C1403 C 0.0789 0.33404 0.07852 0.0
C1404 C 0.0799 0.32447 0.11458 0.0
C1405 C 0.0641 0.33658 0.08969 0.0
C1406 C 0.07001 0.3311 0.14587 0.0
C1407 C 0.09691 0.30916 0.15882 0.0
N1408 N 0.06506 0.33206 0.10727 0.0
N1409 N 0.09392 0.31067 0.14096 0.0
H1410 H 0.60111 0.17783 0.91839 0.0
H1411 H 0.56629 0.1411 0.82772 0.0
H1412 H 0.55298 0.14638 0.91618 0.0
H1413 H 0.59314 0.19195 0.83034 0.0
H1414 H 0.56142 0.1423 0.86001 0.0
H1415 H 0.59889 0.18304 0.88622 0.0
C1416 C 0.58995 0.17219 0.91112 0.0
C1417 C 0.57727 0.16154 0.91984 0.0
C1418 C 0.5681 0.15334 0.85349 0.0
C1419 C 0.57485 0.16718 0.88308 0.0
C1420 C 0.57098 0.15262 0.83511 0.0
C1421 C 0.58027 0.16639 0.82647 0.0
C1422 C 0.575 0.16769 0.86334 0.0
C1423 C 0.58595 0.18107 0.83657 0.0
C1424 C 0.58865 0.17525 0.89281 0.0
C1425 C 0.56302 0.15464 0.90989 0.0
N1426 N 0.58355 0.18118 0.85459 0.0
N1427 N 0.56237 0.15728 0.89191 0.0
H1428 H 0.94042 0.85034 0.32755 0.0
H1429 H 0.96037 0.855 0.41745 0.0
H1430 H 0.92192 0.79674 0.33756 0.0
H1431 H 0.92023 0.81396 0.42164 0.0
H1432 H 0.96294 0.84864 0.38542 0.0
H1433 H 0.94907 0.85296 0.35875 0.0
C1434 C 0.93853 0.83896 0.33628 0.0
C1435 C 0.9303 0.82335 0.33001 0.0
C1436 C 0.95357 0.84102 0.39334 0.0
C1437 C 0.94039 0.82614 0.36588 0.0
C1438 C 0.9523 0.84449 0.41167 0.0
C1439 C 0.93981 0.83524 0.42209 0.0
C1440 C 0.94221 0.82826 0.38548 0.0
C1441 C 0.92979 0.82164 0.41399 0.0
C1442 C 0.94366 0.8404 0.35413 0.0
C1443 C 0.92818 0.80903 0.34188 0.0
N1444 N 0.93107 0.81869 0.39616 0.0
N1445 N 0.93288 0.8109 0.35934 0.0
H1446 H 0.9431 0.1596 0.17162 0.0
H1447 H 0.91818 0.19703 0.07541 0.0
H1448 H 0.90868 0.2049 0.1627 0.0
H1449 H 0.95211 0.15131 0.08405 0.0
H1450 H 0.91915 0.20347 0.10733 0.0
H1451 H 0.95104 0.15976 0.14 0.0
C1452 C 0.93743 0.16978 0.16305 0.0
C1453 C 0.925 0.1821 0.16973 0.0
C1454 C 0.92661 0.19218 0.10226 0.0
C1455 C 0.93389 0.18224 0.13345 0.0
C1456 C 0.92608 0.1885 0.08401 0.0
C1457 C 0.93488 0.17346 0.07713 0.0
C1458 C 0.93584 0.18062 0.11377 0.0
C1459 C 0.94504 0.16297 0.08884 0.0
C1460 C 0.94196 0.16984 0.14497 0.0
C1461 C 0.9182 0.19507 0.15807 0.0
N1462 N 0.94502 0.16659 0.10666 0.0
N1463 N 0.92253 0.19463 0.14043 0.0
H1464 H 0.44431 0.6585 0.67566 0.0
H1465 H 0.41348 0.68526 0.57852 0.0
H1466 H 0.40737 0.70141 0.66519 0.0
H1467 H 0.45993 0.65267 0.5881 0.0
H1468 H 0.41274 0.69312 0.61011 0.0
H1469 H 0.45217 0.65793 0.64397 0.0
C1470 C 0.43808 0.66803 0.66672 0.0
C1471 C 0.42502 0.6799 0.67301 0.0
C1472 C 0.42327 0.68445 0.60533 0.0
C1473 C 0.43375 0.67912 0.63668 0.0
C1474 C 0.42367 0.67992 0.58729 0.0
C1475 C 0.43668 0.66815 0.58076 0.0
C1476 C 0.43576 0.67688 0.61707 0.0
C1477 C 0.44965 0.66175 0.59264 0.0
C1478 C 0.44259 0.6677 0.64863 0.0
C1479 C 0.41745 0.692 0.66089 0.0
N1480 N 0.44868 0.66595 0.61032 0.0
N1481 N 0.4217 0.69109 0.64325 0.0
H1482 H 0.04005 0.64913 0.41066 0.0
H1483 H 0.08711 0.70601 0.33375 0.0
H1484 H 0.07752 0.69182 0.42008 0.0
H1485 H 0.05269 0.66092 0.32381 0.0
H1486 H 0.07871 0.70499 0.36532 0.0
H1487 H 0.03961 0.65709 0.37887 0.0
C1488 C 0.04792 0.66036 0.40609 0.0
C1489 C 0.05904 0.66966 0.41792 0.0
C1490 C 0.07278 0.69548 0.35618 0.0
C1491 C 0.05872 0.67876 0.3817 0.0
C1492 C 0.07753 0.69612 0.33815 0.0
C1493 C 0.0708 0.68336 0.32623 0.0
C1494 C 0.06132 0.68193 0.36231 0.0
C1495 C 0.05837 0.67087 0.33262 0.0
C1496 C 0.04772 0.66488 0.38795 0.0
C1497 C 0.06895 0.68413 0.41134 0.0
N1498 N 0.05422 0.67031 0.35027 0.0
N1499 N 0.06871 0.68811 0.39366 0.0
H1500 H 0.40391 0.30561 0.83389 0.0
H1501 H 0.41547 0.37016 0.91612 0.0
H1502 H 0.41708 0.3615 0.82884 0.0
H1503 H 0.42666 0.31398 0.9218 0.0
H1504 H 0.41517 0.3666 0.88378 0.0
H1505 H 0.4115 0.30729 0.86592 0.0
C1506 C 0.40857 0.31812 0.83944 0.0
C1507 C 0.40958 0.33351 0.82879 0.0
C1508 C 0.41796 0.35505 0.89202 0.0
C1509 C 0.41813 0.33551 0.86507 0.0
C1510 C 0.41812 0.3571 0.91047 0.0
C1511 C 0.42114 0.34236 0.92152 0.0
C1512 C 0.42036 0.33802 0.88454 0.0
C1513 C 0.42443 0.32569 0.91361 0.0
C1514 C 0.41294 0.31906 0.85765 0.0
C1515 C 0.4158 0.34936 0.83658 0.0
N1516 N 0.42365 0.32386 0.89551 0.0
N1517 N 0.41962 0.34999 0.85424 0.0
H1518 H 0.91523 0.95505 0.66229 0.0
H1519 H 0.83591 0.89893 0.70676 0.0
H1520 H 0.92458 0.90876 0.69529 0.0
H1521 H 0.83175 0.92729 0.65678 0.0
H1522 H 0.86721 0.90878 0.70921 0.0
H1523 H 0.88311 0.9517 0.66738 0.0
C1524 C 0.91055 0.94447 0.67097 0.0
C1525 C 0.9225 0.93202 0.67819 0.0
C1526 C 0.8593 0.91298 0.69785 0.0
C1527 C 0.88593 0.92809 0.684 0.0
C1528 C 0.84152 0.9074 0.69646 0.0
C1529 C 0.83142 0.91211 0.68142 0.0
C1530 C 0.86672 0.92365 0.68431 0.0
C1531 C 0.83922 0.92314 0.66845 0.0
C1532 C 0.89225 0.9425 0.67377 0.0
C1533 C 0.91574 0.91852 0.68931 0.0
N1534 N 0.8564 0.92852 0.67018 0.0
N1535 N 0.89786 0.9168 0.69176 0.0
H1536 H 0.84941 0.17276 0.42829 0.0
H1537 H 0.81413 0.08109 0.3959 0.0
H1538 H 0.7994 0.16893 0.40009 0.0
H1539 H 0.84426 0.08496 0.44481 0.0
H1540 H 0.80831 0.11316 0.3972 0.0
H1541 H 0.84788 0.14081 0.43489 0.0
C1542 C 0.83799 0.16519 0.42369 0.0
C1543 C 0.82459 0.17336 0.41348 0.0
C1544 C 0.81591 0.10697 0.40783 0.0
C1545 C 0.82292 0.13687 0.42071 0.0
C1546 C 0.81932 0.08872 0.40705 0.0
C1547 C 0.82982 0.08051 0.42019 0.0
C1548 C 0.8235 0.11716 0.42158 0.0
C1549 C 0.83613 0.09087 0.43442 0.0
C1550 C 0.83707 0.14701 0.42755 0.0
C1551 C 0.81 0.16306 0.40796 0.0
N1552 N 0.8332 0.10881 0.43455 0.0
N1553 N 0.80973 0.1452 0.41131 0.0
H1554 H 0.66857 0.088 0.19876 0.0
H1555 H 0.58645 0.03962 0.15045 0.0
H1556 H 0.67224 0.05794 0.14977 0.0
H1557 H 0.58058 0.08156 0.18951 0.0
H1558 H 0.61864 0.03934 0.15623 0.0
H1559 H 0.63706 0.07906 0.20133 0.0
C1560 C 0.66283 0.07924 0.18878 0.0
C1561 C 0.67282 0.07394 0.17388 0.0
C1562 C 0.61024 0.04837 0.16376 0.0
C1563 C 0.63713 0.06363 0.17673 0.0
C1564 C 0.59188 0.04846 0.16053 0.0
C1565 C 0.58094 0.06085 0.16928 0.0
C1566 C 0.61761 0.06071 0.17586 0.0
C1567 C 0.58863 0.072 0.18225 0.0
C1568 C 0.6449 0.0742 0.1902 0.0
C1569 C 0.66485 0.06258 0.1613 0.0
N1570 N 0.60654 0.07184 0.18499 0.0
N1571 N 0.64745 0.05792 0.16293 0.0
H1572 H 0.69365 0.92233 0.91438 0.0
H1573 H 0.65522 0.82625 0.93449 0.0
H1574 H 0.65144 0.91245 0.95228 0.0
H1575 H 0.70447 0.83443 0.90585 0.0
H1576 H 0.65547 0.85752 0.94344 0.0
H1577 H 0.69996 0.89033 0.9135 0.0
C1578 C 0.68592 0.91344 0.92278 0.0
C1579 C 0.67184 0.92 0.93324 0.0
C1580 C 0.66637 0.85249 0.9354 0.0
C1581 C 0.67881 0.88336 0.93209 0.0
C1582 C 0.66621 0.83464 0.93023 0.0
C1583 C 0.67974 0.82784 0.91923 0.0
C1584 C 0.68 0.86378 0.92926 0.0
C1585 C 0.69374 0.83921 0.91427 0.0
C1586 C 0.68954 0.89517 0.92226 0.0
C1587 C 0.66234 0.90794 0.94394 0.0
N1588 N 0.69336 0.85674 0.91908 0.0
N1589 N 0.66581 0.89016 0.94285 0.0
H1590 H 0.82127 0.05603 0.83558 0.0
H1591 H 0.91845 0.08998 0.81454 0.0
H1592 H 0.83274 0.09281 0.79276 0.0
H1593 H 0.90852 0.04248 0.84557 0.0
H1594 H 0.88733 0.08993 0.80493 0.0
H1595 H 0.85305 0.04918 0.83789 0.0
C1596 C 0.83047 0.06242 0.82643 0.0
C1597 C 0.82442 0.07514 0.81408 0.0
C1598 C 0.89198 0.07936 0.81363 0.0
C1599 C 0.86083 0.06764 0.81688 0.0
C1600 C 0.90972 0.07942 0.81918 0.0
C1601 C 0.91598 0.06632 0.83102 0.0
C1602 C 0.88029 0.06629 0.82023 0.0
C1603 C 0.90418 0.05287 0.8365 0.0
C1604 C 0.84861 0.0585 0.82776 0.0
C1605 C 0.83687 0.08296 0.8025 0.0
N1606 N 0.8868 0.05336 0.83129 0.0
N1607 N 0.85454 0.07933 0.8044 0.0
H1608 H 0.66249 0.16828 0.56327 0.0
H1609 H 0.68279 0.07547 0.60767 0.0
H1610 H 0.70165 0.16185 0.60501 0.0
H1611 H 0.66032 0.07914 0.55475 0.0
H1612 H 0.69036 0.10709 0.60642 0.0
H1613 H 0.66221 0.13591 0.55894 0.0
C1614 C 0.67126 0.16006 0.57132 0.0
C1615 C 0.68197 0.1677 0.58466 0.0
C1616 C 0.68398 0.10099 0.59496 0.0
C1617 C 0.68149 0.13071 0.57997 0.0
C1618 C 0.67955 0.08296 0.59572 0.0
C1619 C 0.67075 0.07478 0.58136 0.0
C1620 C 0.67923 0.11105 0.5799 0.0
C1621 C 0.66704 0.08502 0.56612 0.0
C1622 C 0.67111 0.1416 0.56881 0.0
C1623 C 0.69314 0.15648 0.59464 0.0
N1624 N 0.67104 0.10275 0.56589 0.0
N1625 N 0.69237 0.1385 0.59231 0.0
H1626 H 0.57957 0.9081 0.30425 0.0
H1627 H 0.67577 0.94228 0.32968 0.0
H1628 H 0.58954 0.95366 0.33806 0.0
H1629 H 0.66626 0.89869 0.2933 0.0
H1630 H 0.64443 0.95063 0.32765 0.0
H1631 H 0.61078 0.9083 0.2951 0.0
C1632 C 0.5883 0.91834 0.30954 0.0
C1633 C 0.58208 0.93068 0.32221 0.0
C1634 C 0.64918 0.93944 0.31981 0.0
C1635 C 0.61789 0.93086 0.31192 0.0
C1636 C 0.66708 0.93468 0.32095 0.0
C1637 C 0.67346 0.91961 0.31185 0.0
C1638 C 0.63746 0.92881 0.3098 0.0
C1639 C 0.66178 0.91035 0.30058 0.0
C1640 C 0.60613 0.91846 0.30428 0.0
C1641 C 0.59386 0.9438 0.32841 0.0
N1642 N 0.6442 0.91486 0.30017 0.0
N1643 N 0.61131 0.94335 0.32345 0.0
H1644 H 0.80872 0.83442 0.08999 0.0
H1645 H 0.86449 0.91741 0.05194 0.0
H1646 H 0.86474 0.83134 0.07714 0.0
H1647 H 0.81845 0.92256 0.08602 0.0
H1648 H 0.86107 0.88467 0.05302 0.0
H1649 H 0.80869 0.86579 0.08063 0.0
C1650 C 0.82095 0.8403 0.08503 0.0
C1651 C 0.83681 0.83039 0.08458 0.0
C1652 C 0.85155 0.89304 0.05995 0.0
C1653 C 0.83682 0.86607 0.07366 0.0
C1654 C 0.85341 0.91164 0.05921 0.0
C1655 C 0.84178 0.92253 0.06899 0.0
C1656 C 0.83779 0.88551 0.07028 0.0
C1657 C 0.82774 0.91451 0.07841 0.0
C1658 C 0.82093 0.85816 0.0797 0.0
C1659 C 0.85228 0.83862 0.07793 0.0
N1660 N 0.82617 0.89649 0.07888 0.0
N1661 N 0.85193 0.85602 0.0728 0.0
H1662 H 0.94709 0.65474 0.91407 0.0
H1663 H 0.88772 0.69467 0.83444 0.0
H1664 H 0.89253 0.67173 0.92096 0.0
H1665 H 0.93008 0.6565 0.82681 0.0
H1666 H 0.89387 0.69434 0.86681 0.0
H1667 H 0.94531 0.66331 0.88246 0.0
C1668 C 0.93484 0.66049 0.90898 0.0
C1669 C 0.91985 0.66229 0.92002 0.0
C1670 C 0.90199 0.68631 0.85794 0.0
C1671 C 0.91781 0.67229 0.88412 0.0
C1672 C 0.89857 0.68659 0.83955 0.0
C1673 C 0.90832 0.67547 0.82811 0.0
C1674 C 0.91546 0.6751 0.8647 0.0
C1675 C 0.92216 0.66512 0.8353 0.0
C1676 C 0.93382 0.66535 0.89099 0.0
C1677 C 0.9043 0.66988 0.9128 0.0
N1678 N 0.92528 0.66512 0.85314 0.0
N1679 N 0.90365 0.67454 0.89527 0.0
H1680 H 0.40985 0.87487 0.08539 0.0
H1681 H 0.4182 0.81033 0.17014 0.0
H1682 H 0.43359 0.82258 0.08151 0.0
H1683 H 0.39723 0.86401 0.17091 0.0
H1684 H 0.42575 0.81429 0.13832 0.0
H1685 H 0.40779 0.87137 0.11756 0.0
C1686 C 0.41487 0.86271 0.09143 0.0
C1687 C 0.42182 0.84897 0.08086 0.0
C1688 C 0.41956 0.82517 0.14555 0.0
C1689 C 0.41907 0.84456 0.11778 0.0
C1690 C 0.41517 0.82289 0.16364 0.0
C1691 C 0.40695 0.83681 0.17313 0.0
C1692 C 0.41569 0.84149 0.13707 0.0
C1693 C 0.40344 0.85285 0.16414 0.0
C1694 C 0.41363 0.86065 0.10981 0.0
C1695 C 0.42821 0.8335 0.0893 0.0
N1696 N 0.40779 0.8547 0.1467 0.0
N1697 N 0.42644 0.83157 0.10733 0.0
H1698 H 0.05107 0.15536 0.6766 0.0
H1699 H 0.08366 0.17726 0.57867 0.0
H1700 H 0.09243 0.19367 0.66495 0.0
H1701 H 0.03447 0.14929 0.58913 0.0
H1702 H 0.08558 0.18525 0.61016 0.0
H1703 H 0.04299 0.15491 0.64495 0.0
C1704 C 0.05825 0.16393 0.66741 0.0
C1705 C 0.07259 0.17442 0.67336 0.0
C1706 C 0.07422 0.17756 0.6056 0.0
C1707 C 0.06359 0.17375 0.6371 0.0
C1708 C 0.07315 0.17293 0.58762 0.0
C1709 C 0.05899 0.16243 0.58136 0.0
C1710 C 0.0612 0.17136 0.61755 0.0
C1711 C 0.04565 0.15735 0.59346 0.0
C1712 C 0.05363 0.16365 0.64935 0.0
C1713 C 0.08136 0.18531 0.66092 0.0
N1714 N 0.04723 0.16163 0.61108 0.0
N1715 N 0.07691 0.18448 0.64333 0.0
H1716 H 0.05704 0.83488 0.82382 0.0
H1717 H 0.08543 0.80545 0.92171 0.0
H1718 H 0.09383 0.79196 0.83478 0.0
H1719 H 0.04595 0.84595 0.91093 0.0
H1720 H 0.08544 0.79741 0.89013 0.0
H1721 H 0.04938 0.83603 0.85548 0.0
C1722 C 0.06327 0.82547 0.83286 0.0
C1723 C 0.07626 0.81345 0.82672 0.0
C1724 C 0.07659 0.8079 0.89466 0.0
C1725 C 0.06777 0.8149 0.86306 0.0
C1726 C 0.07659 0.81252 0.9127 0.0
C1727 C 0.06584 0.82655 0.91889 0.0
C1728 C 0.06589 0.81751 0.88264 0.0
C1729 C 0.05454 0.83513 0.90668 0.0
C1730 C 0.05892 0.82616 0.85096 0.0
C1731 C 0.08382 0.8015 0.83898 0.0
N1732 N 0.05504 0.83064 0.88907 0.0
N1733 N 0.07967 0.80271 0.85663 0.0
H1734 H 0.58933 0.30521 0.42639 0.0
H1735 H 0.55194 0.32815 0.33001 0.0
H1736 H 0.54288 0.33788 0.41688 0.0
H1737 H 0.59809 0.295 0.33915 0.0
H1738 H 0.54499 0.32685 0.36178 0.0
H1739 H 0.58932 0.29651 0.39498 0.0
C1740 C 0.57894 0.31034 0.41773 0.0
C1741 C 0.56625 0.32252 0.42416 0.0
C1742 C 0.55648 0.31961 0.35686 0.0
C1743 C 0.56629 0.31275 0.38813 0.0
C1744 C 0.56046 0.32033 0.3387 0.0
C1745 C 0.57578 0.3119 0.33203 0.0
C1746 C 0.56806 0.3106 0.3685 0.0
C1747 C 0.58622 0.30179 0.3438 0.0
C1748 C 0.57896 0.30535 0.39978 0.0
C1749 C 0.553 0.32858 0.41242 0.0
N1750 N 0.58235 0.30168 0.36157 0.0
N1751 N 0.55353 0.32385 0.39489 0.0
H1752 H 0.94979 0.33128 0.66892 0.0
H1753 H 0.91212 0.30718 0.57294 0.0
H1754 H 0.90363 0.29805 0.66009 0.0
H1755 H 0.95761 0.34129 0.58195 0.0
H1756 H 0.91272 0.29848 0.60433 0.0
H1757 H 0.95674 0.32967 0.63715 0.0
C1758 C 0.94129 0.32335 0.66031 0.0
C1759 C 0.92593 0.31503 0.66706 0.0
C1760 C 0.92276 0.30765 0.59943 0.0
C1761 C 0.93365 0.31337 0.6306 0.0
C1762 C 0.92243 0.31263 0.58149 0.0
C1763 C 0.93465 0.32522 0.57493 0.0
C1764 C 0.93529 0.31546 0.61095 0.0
C1765 C 0.94784 0.33167 0.58652 0.0
C1766 C 0.94525 0.32246 0.64216 0.0
C1767 C 0.91552 0.30478 0.65539 0.0
N1768 N 0.94763 0.32694 0.60406 0.0
N1769 N 0.91939 0.3045 0.63763 0.0
H1770 H 0.59815 0.70702 0.15946 0.0
H1771 H 0.54067 0.66431 0.08017 0.0
H1772 H 0.5517 0.674 0.16761 0.0
H1773 H 0.59258 0.68824 0.07338 0.0
H1774 H 0.5408 0.67389 0.11151 0.0
H1775 H 0.59239 0.70652 0.12726 0.0
C1776 C 0.58654 0.69997 0.1545 0.0
C1777 C 0.57553 0.69032 0.16616 0.0
C1778 C 0.55204 0.67725 0.10307 0.0
C1779 C 0.56895 0.68955 0.12941 0.0
C1780 C 0.55194 0.67184 0.08519 0.0
C1781 C 0.56674 0.67527 0.07428 0.0
C1782 C 0.56702 0.68621 0.10998 0.0
C1783 C 0.58099 0.68511 0.08142 0.0
C1784 C 0.58331 0.69961 0.13613 0.0
C1785 C 0.56065 0.68144 0.15904 0.0
N1786 N 0.58085 0.69009 0.09886 0.0
N1787 N 0.55791 0.68109 0.14111 0.0
H1788 H 0.5697 0.59209 0.81901 0.0
H1789 H 0.66664 0.56401 0.84616 0.0
H1790 H 0.57996 0.54371 0.84851 0.0
H1791 H 0.65659 0.59719 0.80016 0.0
H1792 H 0.6351 0.55584 0.84686 0.0
H1793 H 0.60132 0.59383 0.81131 0.0
C1794 C 0.57861 0.5817 0.82367 0.0
C1795 C 0.5723 0.56781 0.83454 0.0
C1796 C 0.63982 0.56468 0.83643 0.0
C1797 C 0.60851 0.56989 0.82603 0.0
C1798 C 0.65779 0.56941 0.83607 0.0
C1799 C 0.66414 0.58142 0.82318 0.0
C1800 C 0.62802 0.57234 0.82407 0.0
C1801 C 0.65218 0.58793 0.81034 0.0
C1802 C 0.59663 0.58267 0.81921 0.0
C1803 C 0.58435 0.55464 0.84013 0.0
N1804 N 0.63459 0.58355 0.8113 0.0
N1805 N 0.60198 0.55618 0.83609 0.0
H1806 H 0.65005 0.41691 0.04962 0.0
H1807 H 0.69813 0.3327 0.0946 0.0
H1808 H 0.69045 0.42055 0.09047 0.0
H1809 H 0.64819 0.33017 0.06605 0.0
H1810 H 0.70083 0.36426 0.08615 0.0
H1811 H 0.65489 0.38447 0.04834 0.0
C1812 C 0.66025 0.41094 0.05794 0.0
C1813 C 0.66967 0.42127 0.07036 0.0
C1814 C 0.68943 0.35669 0.08152 0.0
C1815 C 0.67521 0.38444 0.06907 0.0
C1816 C 0.6879 0.33871 0.08633 0.0
C1817 C 0.67276 0.32897 0.0813 0.0
C1818 C 0.67577 0.36484 0.07153 0.0
C1819 C 0.65993 0.33733 0.07048 0.0
C1820 C 0.66294 0.39246 0.05731 0.0
C1821 C 0.68272 0.41294 0.08091 0.0
N1822 N 0.66164 0.35482 0.0661 0.0
N1823 N 0.68497 0.39499 0.08017 0.0
H1824 H 0.83324 0.39137 0.29414 0.0
H1825 H 0.91485 0.45061 0.32966 0.0
H1826 H 0.82756 0.43982 0.32468 0.0
H1827 H 0.91963 0.39528 0.31436 0.0
H1828 H 0.88363 0.45018 0.31994 0.0
H1829 H 0.86573 0.39621 0.29334 0.0
C1830 C 0.8388 0.40328 0.30018 0.0
C1831 C 0.82787 0.41514 0.30963 0.0
C1832 C 0.8916 0.43821 0.3185 0.0
C1833 C 0.86468 0.4207 0.30889 0.0
C1834 C 0.9094 0.43846 0.32404 0.0
C1835 C 0.91971 0.42288 0.32309 0.0
C1836 C 0.88414 0.42229 0.31189 0.0
C1837 C 0.91203 0.40751 0.31557 0.0
C1838 C 0.85728 0.40596 0.29987 0.0
C1839 C 0.83564 0.43028 0.31741 0.0
N1840 N 0.89466 0.40755 0.31041 0.0
N1841 N 0.85358 0.43256 0.31701 0.0
H1842 H 0.83783 0.67303 0.5516 0.0
H1843 H 0.80437 0.57864 0.58468 0.0
H1844 H 0.79428 0.66562 0.58852 0.0
H1845 H 0.84468 0.58524 0.54415 0.0
H1846 H 0.79678 0.61016 0.58202 0.0
H1847 H 0.83696 0.64122 0.54456 0.0
C1848 C 0.82786 0.66474 0.558 0.0
C1849 C 0.8163 0.6719 0.5709 0.0
C1850 C 0.80708 0.60473 0.57345 0.0
C1851 C 0.81537 0.63542 0.56304 0.0
C1852 C 0.81141 0.58672 0.57496 0.0
C1853 C 0.82534 0.57945 0.56479 0.0
C1854 C 0.81701 0.61568 0.56194 0.0
C1855 C 0.83391 0.5904 0.55228 0.0
C1856 C 0.82738 0.64657 0.55396 0.0
C1857 C 0.80355 0.66061 0.57863 0.0
N1858 N 0.82985 0.60811 0.55146 0.0
N1859 N 0.80363 0.64287 0.5748 0.0
H1860 H 0.58274 0.39067 0.68131 0.0
H1861 H 0.6733 0.43559 0.65738 0.0
H1862 H 0.58506 0.44495 0.6622 0.0
H1863 H 0.67027 0.39394 0.69699 0.0
H1864 H 0.64115 0.44014 0.65995 0.0
H1865 H 0.61459 0.39195 0.68811 0.0
C1866 C 0.58996 0.40293 0.6787 0.0
C1867 C 0.58137 0.41766 0.67096 0.0
C1868 C 0.64752 0.43026 0.66837 0.0
C1869 C 0.6178 0.41914 0.67856 0.0
C1870 C 0.66584 0.42763 0.66688 0.0
C1871 C 0.67431 0.41429 0.6769 0.0
C1872 C 0.63752 0.41909 0.67959 0.0
C1873 C 0.66415 0.40436 0.68906 0.0
C1874 C 0.6081 0.40368 0.68271 0.0
C1875 C 0.59125 0.43328 0.66805 0.0
N1876 N 0.64615 0.40669 0.68978 0.0
N1877 N 0.60906 0.4335 0.67154 0.0
H1878 H 0.83799 0.32686 0.93705 0.0
H1879 H 0.79759 0.42211 0.91563 0.0
H1880 H 0.79441 0.33483 0.90029 0.0
H1881 H 0.83751 0.41254 0.95603 0.0
H1882 H 0.79262 0.38996 0.9133 0.0
H1883 H 0.83454 0.35745 0.94751 0.0
C1884 C 0.82752 0.33504 0.93132 0.0
C1885 C 0.81663 0.32843 0.9176 0.0
C1886 C 0.80223 0.39488 0.92292 0.0
C1887 C 0.81276 0.36365 0.92934 0.0
C1888 C 0.80505 0.41325 0.92429 0.0
C1889 C 0.81819 0.41997 0.93586 0.0
C1890 C 0.81275 0.38314 0.93306 0.0
C1891 C 0.82736 0.40791 0.94683 0.0
C1892 C 0.82553 0.35252 0.93733 0.0
C1893 C 0.80314 0.33948 0.91083 0.0
N1894 N 0.82468 0.39006 0.94495 0.0
N1895 N 0.80179 0.3567 0.91654 0.0
H1896 H 0.90978 0.5518 0.15596 0.0
H1897 H 0.82936 0.61102 0.19431 0.0
H1898 H 0.91697 0.60518 0.17637 0.0
H1899 H 0.82333 0.57176 0.15262 0.0
H1900 H 0.86146 0.60391 0.19571 0.0
H1901 H 0.87779 0.55401 0.16271 0.0
C1902 C 0.90467 0.56384 0.16214 0.0
C1903 C 0.91591 0.57843 0.16538 0.0
C1904 C 0.85298 0.59668 0.18649 0.0
C1905 C 0.87959 0.58095 0.17328 0.0
C1906 C 0.83474 0.60067 0.18577 0.0
C1907 C 0.82386 0.59208 0.1732 0.0
C1908 C 0.86013 0.5838 0.17484 0.0
C1909 C 0.83139 0.57882 0.16234 0.0
C1910 C 0.88646 0.56511 0.16594 0.0
C1911 C 0.90866 0.59373 0.17343 0.0
N1912 N 0.84907 0.57511 0.16336 0.0
N1913 N 0.89092 0.59464 0.17704 0.0
H1914 H 0.67685 0.57481 0.38767 0.0
H1915 H 0.6429 0.66621 0.42265 0.0
H1916 H 0.64842 0.5784 0.43762 0.0
H1917 H 0.69163 0.66285 0.39222 0.0
H1918 H 0.64452 0.63416 0.4284 0.0
H1919 H 0.68263 0.60689 0.38891 0.0
C1920 C 0.672 0.58238 0.39901 0.0
C1921 C 0.66197 0.57409 0.41248 0.0
C1922 C 0.65502 0.64046 0.42071 0.0
C1923 C 0.66831 0.61072 0.41382 0.0
C1924 C 0.65404 0.65869 0.41731 0.0
C1925 C 0.66705 0.66704 0.40677 0.0
C1926 C 0.66885 0.63043 0.4131 0.0
C1927 C 0.68131 0.65682 0.40035 0.0
C1928 C 0.6754 0.60063 0.39976 0.0
C1929 C 0.65615 0.58438 0.42696 0.0
N1930 N 0.68165 0.63889 0.40331 0.0
N1931 N 0.65908 0.60231 0.42708 0.0
H1932 H 0.60245 0.81221 0.57725 0.0
H1933 H 0.56835 0.84878 0.66855 0.0
H1934 H 0.55671 0.84698 0.5804 0.0
H1935 H 0.59712 0.79904 0.66503 0.0
H1936 H 0.56277 0.8476 0.63646 0.0
H1937 H 0.5998 0.80613 0.60916 0.0
C1938 C 0.59169 0.81839 0.58468 0.0
C1939 C 0.5799 0.83029 0.57631 0.0
C1940 C 0.57003 0.83677 0.64271 0.0
C1941 C 0.57696 0.8236 0.61284 0.0
C1942 C 0.57332 0.83748 0.661 0.0
C1943 C 0.58342 0.82409 0.66933 0.0
C1944 C 0.57729 0.82279 0.6326 0.0
C1945 C 0.58936 0.80966 0.65904 0.0
C1946 C 0.59013 0.81484 0.60286 0.0
C1947 C 0.56609 0.83779 0.58643 0.0
N1948 N 0.58651 0.80956 0.64108 0.0
N1949 N 0.56521 0.83461 0.60431 0.0
H1950 H 0.41961 0.40859 0.18831 0.0
H1951 H 0.32743 0.43399 0.14594 0.0
H1952 H 0.41531 0.44733 0.14593 0.0
H1953 H 0.33182 0.41085 0.19852 0.0
H1954 H 0.35929 0.4408 0.14655 0.0
H1955 H 0.38759 0.411 0.19351 0.0
C1956 C 0.4119 0.41784 0.18028 0.0
C1957 C 0.42 0.42766 0.16656 0.0
C1958 C 0.35325 0.43451 0.15809 0.0
C1959 C 0.38329 0.4302 0.17217 0.0
C1960 C 0.33508 0.43054 0.15772 0.0
C1961 C 0.32707 0.42162 0.17211 0.0
C1962 C 0.36355 0.4292 0.17282 0.0
C1963 C 0.33753 0.41763 0.1871 0.0
C1964 C 0.39363 0.41924 0.18328 0.0
C1965 C 0.4095 0.43953 0.15662 0.0
N1966 N 0.35532 0.42116 0.18694 0.0
N1967 N 0.39156 0.44021 0.15938 0.0
H1968 H 0.35587 0.66873 0.93435 0.0
H1969 H 0.31474 0.57497 0.91349 0.0
H1970 H 0.30534 0.66418 0.90717 0.0
H1971 H 0.34888 0.58365 0.95906 0.0
H1972 H 0.31078 0.60729 0.91064 0.0
H1973 H 0.35373 0.63744 0.94316 0.0
C1974 C 0.34426 0.66112 0.93031 0.0
C1975 C 0.33083 0.66895 0.91988 0.0
C1976 C 0.31887 0.60211 0.92146 0.0
C1977 C 0.32838 0.63308 0.92978 0.0
C1978 C 0.32118 0.5837 0.92307 0.0
C1979 C 0.33227 0.57669 0.93645 0.0
C1980 C 0.32806 0.61358 0.93305 0.0
C1981 C 0.34024 0.58853 0.94855 0.0
C1982 C 0.34299 0.64331 0.93546 0.0
C1983 C 0.31599 0.65858 0.91518 0.0
N1984 N 0.33825 0.60645 0.94636 0.0
N1985 N 0.31529 0.64103 0.91991 0.0
H1986 H 0.16968 0.60073 0.68988 0.0
H1987 H 0.08003 0.55968 0.64836 0.0
H1988 H 0.16841 0.56615 0.64382 0.0
H1989 H 0.08177 0.60802 0.67964 0.0
H1990 H 0.11227 0.55599 0.65308 0.0
H1991 H 0.13716 0.59744 0.69269 0.0
C1992 C 0.16261 0.59217 0.68061 0.0
C1993 C 0.17162 0.58391 0.66646 0.0
C1994 C 0.10549 0.56725 0.6591 0.0
C1995 C 0.1347 0.58003 0.6696 0.0
C1996 C 0.08714 0.56932 0.65646 0.0
C1997 C 0.07836 0.58431 0.66339 0.0
C1998 C 0.11497 0.58015 0.66893 0.0
C1999 C 0.08814 0.59641 0.67383 0.0
C2000 C 0.1441 0.59036 0.68216 0.0
C2001 C 0.16187 0.57297 0.65477 0.0
N2002 N 0.10595 0.59414 0.6762 0.0
N2003 N 0.14392 0.57143 0.65652 0.0
H2004 H 0.17994 0.41813 0.40782 0.0
H2005 H 0.13558 0.32826 0.43424 0.0
H2006 H 0.13894 0.41673 0.44817 0.0
H2007 H 0.19076 0.33031 0.41806 0.0
H2008 H 0.13631 0.36045 0.43984 0.0
H2009 H 0.18434 0.38602 0.41149 0.0
C2010 C 0.17204 0.41104 0.41765 0.0
C2011 C 0.15898 0.41997 0.42764 0.0
C2012 C 0.14835 0.35381 0.43539 0.0
C2013 C 0.16367 0.38324 0.43163 0.0
C2014 C 0.14792 0.33548 0.43211 0.0
C2015 C 0.16309 0.32672 0.42552 0.0
C2016 C 0.16391 0.36348 0.43159 0.0
C2017 C 0.17877 0.33662 0.42309 0.0
C2018 C 0.17461 0.39276 0.41979 0.0
C2019 C 0.14915 0.41026 0.44025 0.0
N2020 N 0.17868 0.35458 0.42578 0.0
N2021 N 0.15142 0.39227 0.44163 0.0
H2022 H 0.41259 0.55148 0.34412 0.0
H2023 H 0.32851 0.6058 0.30644 0.0
H2024 H 0.41696 0.60396 0.32077 0.0
H2025 H 0.32553 0.56663 0.34854 0.0
H2026 H 0.36088 0.60035 0.3043 0.0
H2027 H 0.3804 0.55204 0.33834 0.0
C2028 C 0.40682 0.56299 0.33753 0.0
C2029 C 0.41735 0.5778 0.33315 0.0
C2030 C 0.35302 0.59278 0.31379 0.0
C2031 C 0.38072 0.57848 0.32641 0.0
C2032 C 0.33462 0.59582 0.31494 0.0
C2033 C 0.3245 0.58678 0.32782 0.0
C2034 C 0.36111 0.58039 0.32536 0.0
C2035 C 0.33297 0.57403 0.3386 0.0
C2036 C 0.38848 0.56332 0.33428 0.0
C2037 C 0.40923 0.59236 0.32457 0.0
N2038 N 0.35078 0.57125 0.33717 0.0
N2039 N 0.39135 0.5924 0.32157 0.0
H2040 H 0.17586 0.57741 0.09538 0.0
H2041 H 0.14544 0.67411 0.07227 0.0
H2042 H 0.14357 0.58748 0.04877 0.0
H2043 H 0.19715 0.66464 0.09569 0.0
H2044 H 0.1435 0.64245 0.0644 0.0
H2045 H 0.18318 0.60922 0.09685 0.0
C2046 C 0.17046 0.58633 0.08535 0.0
C2047 C 0.15901 0.57992 0.072 0.0
C2048 C 0.15538 0.64735 0.07102 0.0
C2049 C 0.16707 0.61624 0.0738 0.0
C2050 C 0.15646 0.66536 0.0756 0.0
C2051 C 0.17143 0.67189 0.08473 0.0
C2052 C 0.16916 0.63573 0.07606 0.0
C2053 C 0.18539 0.66007 0.08865 0.0
C2054 C 0.17472 0.60443 0.08614 0.0
C2055 C 0.15245 0.59196 0.05926 0.0
N2056 N 0.18377 0.64243 0.08459 0.0
N2057 N 0.1563 0.60966 0.06067 0.0
H2058 H 0.15942 0.41317 0.80633 0.0
H2059 H 0.07654 0.45104 0.8623 0.0
H2060 H 0.16361 0.43279 0.86035 0.0
H2061 H 0.07195 0.41438 0.81814 0.0
H2062 H 0.10897 0.45241 0.8572 0.0
H2063 H 0.12778 0.42149 0.80619 0.0
C2064 C 0.15374 0.41947 0.81805 0.0
C2065 C 0.16402 0.42203 0.83348 0.0
C2066 C 0.10076 0.44435 0.84844 0.0
C2067 C 0.12801 0.43165 0.83338 0.0
C2068 C 0.08231 0.44368 0.85127 0.0
C2069 C 0.07172 0.43242 0.84074 0.0
C2070 C 0.10845 0.4339 0.83485 0.0
C2071 C 0.07977 0.42304 0.82668 0.0
C2072 C 0.13572 0.42419 0.81797 0.0
C2073 C 0.15605 0.43034 0.84828 0.0
N2074 N 0.09767 0.42388 0.82421 0.0
N2075 N 0.13847 0.43473 0.84792 0.0
H2076 H 0.35259 0.41425 0.54551 0.0
H2077 H 0.29604 0.33403 0.58793 0.0
H2078 H 0.32043 0.41833 0.5931 0.0
H2079 H 0.3432 0.32566 0.55598 0.0
H2080 H 0.29857 0.36618 0.58253 0.0
H2081 H 0.34327 0.38282 0.54246 0.0
C2082 C 0.34338 0.4086 0.55511 0.0
C2083 C 0.33747 0.4187 0.56972 0.0
C2084 C 0.30817 0.35725 0.57645 0.0
C2085 C 0.32659 0.38322 0.56619 0.0
C2086 C 0.30667 0.33891 0.57943 0.0
C2087 C 0.3196 0.32725 0.57262 0.0
C2088 C 0.32261 0.36388 0.56648 0.0
C2089 C 0.3331 0.33427 0.56168 0.0
C2090 C 0.3381 0.39074 0.5534 0.0
C2091 C 0.32552 0.41086 0.58181 0.0
N2092 N 0.33439 0.35219 0.5591 0.0
N2093 N 0.32052 0.39359 0.57981 0.0
H2094 H 0.42143 0.18889 0.41799 0.0
H2095 H 0.42828 0.1411 0.32437 0.0
H2096 H 0.44905 0.139 0.40993 0.0
H2097 H 0.4135 0.19654 0.32926 0.0
H2098 H 0.43782 0.14109 0.35545 0.0
H2099 H 0.42059 0.19332 0.38563 0.0
C2100 C 0.42764 0.17903 0.40941 0.0
C2101 C 0.43512 0.16343 0.41662 0.0
C2102 C 0.4327 0.15335 0.34975 0.0
C2103 C 0.43394 0.16829 0.37962 0.0
C2104 C 0.42716 0.15334 0.33201 0.0
C2105 C 0.41989 0.16879 0.32434 0.0
C2106 C 0.43066 0.16885 0.36008 0.0
C2107 C 0.41895 0.18433 0.33475 0.0
C2108 C 0.42714 0.18157 0.39094 0.0
C2109 C 0.44304 0.15116 0.40493 0.0
N2110 N 0.42401 0.18389 0.35223 0.0
N2111 N 0.44197 0.1537 0.38699 0.0
H2112 H 0.98979 0.07944 0.29738 0.0
H2113 H 0.94691 0.17141 0.26468 0.0
H2114 H 0.9943 0.12873 0.32691 0.0
H2115 H 0.93102 0.12005 0.24394 0.0
H2116 H 0.96717 0.15645 0.2854 0.0
H2117 H 0.97102 0.09465 0.27544 0.0
C2118 C 0.98689 0.0935 0.29918 0.0
C2119 C 0.99355 0.10287 0.31397 0.0
C2120 C 0.95926 0.14846 0.27631 0.0
C2121 C 0.97215 0.1203 0.28896 0.0
C2122 C 0.94775 0.15697 0.26445 0.0
C2123 C 0.93727 0.14692 0.25264 0.0
C2124 C 0.9604 0.12976 0.27624 0.0
C2125 C 0.93884 0.12827 0.25289 0.0
C2126 C 0.97614 0.10213 0.2867 0.0
C2127 C 0.98937 0.12103 0.31571 0.0
N2128 N 0.95023 0.12027 0.26452 0.0
N2129 N 0.97893 0.12918 0.30332 0.0
H2130 H 0.14202 0.76052 0.54213 0.0
H2131 H 0.10803 0.66194 0.5207 0.0
H2132 H 0.137 0.71975 0.58256 0.0
H2133 H 0.09693 0.7072 0.48678 0.0
H2134 H 0.12224 0.68203 0.54227 0.0
H2135 H 0.12845 0.74028 0.52044 0.0
C2136 C 0.13795 0.74733 0.54645 0.0
C2137 C 0.14055 0.74177 0.56414 0.0
C2138 C 0.11673 0.68752 0.53007 0.0
C2139 C 0.12532 0.71852 0.5394 0.0
C2140 C 0.10876 0.67607 0.51773 0.0
C2141 C 0.10131 0.68298 0.502 0.0
C2142 C 0.11739 0.70591 0.5265 0.0
C2143 C 0.10249 0.70138 0.4988 0.0
C2144 C 0.13023 0.7358 0.53408 0.0
C2145 C 0.13511 0.72455 0.56906 0.0
N2146 N 0.1104 0.71223 0.51095 0.0
N2147 N 0.12783 0.71346 0.5567 0.0
H2148 H 0.55894 0.88255 0.73518 0.0
H2149 H 0.48392 0.86394 0.80588 0.0
H2150 H 0.53728 0.83 0.74453 0.0
H2151 H 0.49629 0.91674 0.78642 0.0
H2152 H 0.50058 0.85119 0.78092 0.0
H2153 H 0.53362 0.89549 0.75105 0.0
C2154 C 0.54869 0.87377 0.74036 0.0
C2155 C 0.55031 0.8552 0.73887 0.0
C2156 C 0.49938 0.86556 0.78191 0.0
C2157 C 0.52148 0.86982 0.7572 0.0
C2158 C 0.48991 0.87283 0.79618 0.0
C2159 C 0.48906 0.89139 0.79836 0.0
C2160 C 0.50826 0.87697 0.76997 0.0
C2161 C 0.49685 0.90234 0.78533 0.0
C2162 C 0.53421 0.88114 0.74937 0.0
C2163 C 0.5366 0.84439 0.7456 0.0
N2164 N 0.50642 0.89496 0.77184 0.0
N2165 N 0.5229 0.85186 0.75479 0.0
H2166 H 0.40562 0.28309 0.98578 0.0
H2167 H 0.32033 0.24839 0.03904 0.0
H2168 H 0.35654 0.3129 0.99031 0.0
H2169 H 0.37447 0.23246 0.05041 0.0
H2170 H 0.33112 0.26568 0.01344 0.0
H2171 H 0.39157 0.25814 0.0014 0.0
C2172 C 0.39176 0.28424 0.98971 0.0
C2173 C 0.38231 0.30019 0.9871 0.0
C2174 C 0.34056 0.25811 0.02136 0.0
C2175 C 0.36626 0.27177 0.00492 0.0
C2176 C 0.33443 0.24821 0.0359 0.0
C2177 C 0.34661 0.23925 0.04696 0.0
C2178 C 0.35892 0.25881 0.0178 0.0
C2179 C 0.36471 0.23942 0.04233 0.0
C2180 C 0.38379 0.27002 0.99865 0.0
C2181 C 0.36436 0.30091 0.99232 0.0
N2182 N 0.37036 0.2492 0.02817 0.0
N2183 N 0.35695 0.28695 0.00122 0.0
H2184 H 0.01308 0.89133 0.19866 0.0
H2185 H 0.9153 0.86172 0.22826 0.0
H2186 H 0.96853 0.88948 0.16218 0.0
H2187 H 0.96268 0.84667 0.25737 0.0
H2188 H 0.9341 0.8757 0.20548 0.0
H2189 H 0.99425 0.87821 0.22189 0.0
C2190 C -0.00066 0.88811 0.19555 0.0
C2191 C 0.99232 0.89142 0.17851 0.0
C2192 C 0.94035 0.86936 0.21689 0.0
C2193 C 0.97073 0.87668 0.20499 0.0
C2194 C 0.92965 0.86151 0.22992 0.0
C2195 C 0.9375 0.85304 0.24466 0.0
C2196 C 0.95898 0.8689 0.21875 0.0
C2197 C 0.95614 0.85304 0.24616 0.0
C2198 C 0.98863 0.88063 0.20878 0.0
C2199 C 0.97445 0.88703 0.17515 0.0
N2200 N 0.96627 0.86088 0.23335 0.0
N2201 N 0.96421 0.87996 0.18832 0.0
H2202 H 0.4088 0.70673 0.51108 0.0
H2203 H 0.36582 0.72037 0.4149 0.0
H2204 H 0.39602 0.66265 0.47623 0.0
H2205 H 0.35754 0.75782 0.45793 0.0
H2206 H 0.38111 0.70036 0.43574 0.0
H2207 H 0.39388 0.72707 0.49024 0.0
C2208 C 0.40283 0.70136 0.49905 0.0
C2209 C 0.40356 0.68302 0.49534 0.0
C2210 C 0.37595 0.71297 0.44059 0.0
C2211 C 0.38679 0.70613 0.47146 0.0
C2212 C 0.36733 0.72442 0.42871 0.0
C2213 C 0.36042 0.74072 0.43476 0.0
C2214 C 0.37789 0.71803 0.45853 0.0
C2215 C 0.36265 0.74531 0.45278 0.0
C2216 C 0.39431 0.71293 0.48722 0.0
C2217 C 0.39565 0.6767 0.4796 0.0
N2218 N 0.37128 0.73404 0.46406 0.0
N2219 N 0.38767 0.68827 0.46814 0.0
H2220 H 0.50217 0.06933 0.70004 0.0
H2221 H 0.53497 0.15831 0.7488 0.0
H2222 H 0.48868 0.12249 0.68232 0.0
H2223 H 0.56071 0.10712 0.75494 0.0
H2224 H 0.51246 0.14432 0.72974 0.0
H2225 H 0.51846 0.08221 0.72524 0.0
C2226 C 0.50251 0.08371 0.70155 0.0
C2227 C 0.49429 0.0949 0.68899 0.0
C2228 C 0.5229 0.13612 0.73547 0.0
C2229 C 0.51273 0.10965 0.71776 0.0
C2230 C 0.53568 0.14406 0.74641 0.0
C2231 C 0.54982 0.13386 0.75322 0.0
C2232 C 0.52426 0.11788 0.73145 0.0
C2233 C 0.55011 0.11547 0.74976 0.0
C2234 C 0.5118 0.09103 0.71591 0.0
C2235 C 0.49503 0.11342 0.69161 0.0
N2236 N 0.5376 0.10807 0.73896 0.0
N2237 N 0.5042 0.12024 0.70568 0.0
H2238 H 0.14491 0.23688 0.95402 0.0
H2239 H 0.11095 0.33599 0.97139 0.0
H2240 H 0.13543 0.27455 0.91144 0.0
H2241 H 0.10207 0.29316 0.00892 0.0
H2242 H 0.12305 0.31438 0.95009 0.0
H2243 H 0.13177 0.25798 0.97521 0.0
C2244 C 0.13994 0.24955 0.94913 0.0
C2245 C 0.14122 0.25402 0.93099 0.0
C2246 C 0.11844 0.30973 0.96299 0.0
C2247 C 0.12649 0.27824 0.95511 0.0
C2248 C 0.11166 0.32205 0.97518 0.0
C2249 C 0.10554 0.3163 0.99191 0.0
C2250 C 0.11929 0.29161 0.96769 0.0
C2251 C 0.10665 0.2981 0.99613 0.0
C2252 C 0.13245 0.26156 0.96121 0.0
C2253 C 0.13461 0.27058 0.92532 0.0
N2254 N 0.11348 0.28637 0.9841 0.0
N2255 N 0.12766 0.28219 0.93739 0.0
H2256 H 0.28737 0.99638 0.09081 0.0
H2257 H 0.25881 0.94519 0.18 0.0
H2258 H 0.31726 -0.00064 0.14002 0.0
H2259 H 0.2405 0.93045 0.12735 0.0
H2260 H 0.2765 0.96924 0.16672 0.0
H2261 H 0.26592 0.97665 0.10546 0.0
C2262 C 0.28926 0.9931 0.10478 0.0
C2263 C 0.30418 -0.00065 0.11421 0.0
C2264 C 0.26855 0.96077 0.15811 0.0
C2265 C 0.2798 0.97678 0.13095 0.0
C2266 C 0.25847 0.94708 0.16565 0.0
C2267 C 0.24833 0.93576 0.15471 0.0
C2268 C 0.26832 0.96325 0.13953 0.0
C2269 C 0.24828 0.9388 0.13623 0.0
C2270 C 0.27708 0.98177 0.11308 0.0
C2271 C 0.306 0.9947 0.13226 0.0
N2272 N 0.25815 0.95227 0.1292 0.0
N2273 N 0.29399 0.98359 0.14004 0.0
H2274 H 0.31504 0.99218 0.35737 0.0
H2275 H 0.23854 0.06118 0.38091 0.0
H2276 H 0.28973 0.99479 0.40909 0.0
H2277 H 0.25438 0.04941 0.32675 0.0
H2278 H 0.2562 0.03578 0.39126 0.0
H2279 H 0.29173 0.0116 0.34535 0.0
C2280 C 0.3044 0.99659 0.36611 0.0
C2281 C 0.3044 0.99208 0.38428 0.0
C2282 C 0.25566 0.03863 0.37708 0.0
C2283 C 0.27793 0.01447 0.37075 0.0
C2284 C 0.24566 0.05317 0.3712 0.0
C2285 C 0.24518 0.05747 0.35299 0.0
C2286 C 0.26544 0.0285 0.36468 0.0
C2287 C 0.25451 0.04659 0.34093 0.0
C2288 C 0.29112 0.00769 0.35926 0.0
C2289 C 0.29029 0.99808 0.39502 0.0
N2290 N 0.26444 0.03271 0.34702 0.0
N2291 N 0.27776 0.0092 0.38815 0.0
H2292 H 0.18836 0.98291 0.62512 0.0
H2293 H 0.25782 0.05772 0.6027 0.0
H2294 H 0.20461 0.99478 0.57111 0.0
H2295 H 0.25256 0.03463 0.65527 0.0
H2296 H 0.24112 0.03256 0.59035 0.0
H2297 H 0.21425 -0.00073 0.63621 0.0
C2298 C 0.19756 0.98875 0.6156 0.0
C2299 C 0.19425 0.9878 0.59722 0.0
C2300 C 0.24392 0.03282 0.60454 0.0
C2301 C 0.22367 0.00672 0.60974 0.0
C2302 C 0.25341 0.04719 0.61159 0.0
C2303 C 0.25623 0.04839 0.63005 0.0
C2304 C 0.23701 0.01977 0.61612 0.0
C2305 C 0.25043 0.03433 0.64097 0.0
C2306 C 0.21236 0.99803 0.62192 0.0
C2307 C 0.20664 0.99538 0.58542 0.0
N2308 N 0.24079 0.02075 0.63387 0.0
N2309 N 0.22065 0.00486 0.5919 0.0
H2310 H 0.26257 0.94378 0.88833 0.0
H2311 H 0.18586 0.01223 0.86636 0.0
H2312 H 0.24961 0.9604 0.83466 0.0
H2313 H 0.20699 0.00465 0.91946 0.0
H2314 H 0.21145 0.99612 0.85421 0.0
H2315 H 0.24482 0.96855 0.89993 0.0
C2316 C 0.25618 0.9528 0.879 0.0
C2317 C 0.25727 0.9499 0.86054 0.0
C2318 C 0.21066 0.99824 0.8685 0.0
C2319 C 0.23683 0.97808 0.87366 0.0
C2320 C 0.19605 0.00741 0.87543 0.0
C2321 C 0.1942 0.00947 0.89393 0.0
C2322 C 0.22332 0.99086 0.88022 0.0
C2323 C 0.20783 0.00315 0.9051 0.0
C2324 C 0.24609 0.96696 0.88561 0.0
C2325 C 0.24892 0.96206 0.84901 0.0
N2326 N 0.22169 0.99384 0.89808 0.0
N2327 N 0.23879 0.97547 0.85577 0.0
H2328 H 0.66833 0.24794 0.04444 0.0
H2329 H 0.58283 0.20781 0.9952 0.0
H2330 H 0.61411 0.25859 0.06068 0.0
H2331 H 0.63596 0.18618 0.99004 0.0
H2332 H 0.59476 0.23192 0.01368 0.0
H2333 H 0.65707 0.23061 0.01921 0.0
C2334 C 0.65404 0.24678 0.04258 0.0
C2335 C 0.6421 0.25447 0.05478 0.0
C2336 C 0.60383 0.22203 0.00829 0.0
C2337 C 0.6292 0.23475 0.02597 0.0
C2338 C 0.59706 0.20833 0.99768 0.0
C2339 C 0.60842 0.19487 0.99133 0.0
C2340 C 0.62207 0.22228 0.01246 0.0
C2341 C 0.62673 0.1962 0.99487 0.0
C2342 C 0.64765 0.23689 0.02819 0.0
C2343 C 0.62375 0.25268 0.05168 0.0
N2344 N 0.63298 0.20959 0.00537 0.0
N2345 N 0.61783 0.24287 0.03762 0.0
H2346 H 0.00119 0.36628 0.32366 0.0
H2347 H 0.07395 0.3786 0.24687 0.0
H2348 H 0.0086 0.41548 0.29457 0.0
H2349 H 0.05572 0.32691 0.26463 0.0
H2350 H 0.05156 0.39269 0.26601 0.0
H2351 H 0.02264 0.35172 0.30369 0.0
C2352 C 0.00728 0.37397 0.31303 0.0
C2353 C 0.00315 0.39207 0.31072 0.0
C2354 C 0.05242 0.37826 0.26566 0.0
C2355 C 0.02769 0.37565 0.28805 0.0
C2356 C 0.06521 0.37024 0.25479 0.0
C2357 C 0.06663 0.3516 0.25419 0.0
C2358 C 0.04113 0.36754 0.27612 0.0
C2359 C 0.055 0.34134 0.26469 0.0
C2360 C 0.01947 0.36567 0.30164 0.0
C2361 C 0.01139 0.40147 0.29677 0.0
N2362 N 0.04277 0.34946 0.27532 0.0
N2363 N 0.02335 0.39317 0.28602 0.0
H2364 H 0.83317 0.75545 0.53828 0.0
H2365 H 0.925 0.80239 0.51104 0.0
H2366 H 0.88173 0.74969 0.56874 0.0
H2367 H 0.87379 0.81656 0.4888 0.0
H2368 H 0.91037 0.77967 0.52944 0.0
H2369 H 0.84895 0.77456 0.51718 0.0
C2370 C 0.8472 0.75814 0.54047 0.0
C2371 C 0.85615 0.75111 0.55533 0.0
C2372 C 0.90237 0.78769 0.52045 0.0
C2373 C 0.87428 0.77296 0.53125 0.0
C2374 C 0.9107 0.80059 0.50992 0.0
C2375 C 0.90054 0.8114 0.49849 0.0
C2376 C 0.88379 0.78556 0.51942 0.0
C2377 C 0.88209 0.80857 0.49753 0.0
C2378 C 0.85619 0.76907 0.52843 0.0
C2379 C 0.87433 0.75495 0.55749 0.0
N2380 N 0.87429 0.79594 0.50791 0.0
N2381 N 0.88281 0.7657 0.54559 0.0
H2382 H 0.00051 0.58398 0.20286 0.0
H2383 H 0.05078 0.6737 0.23049 0.0
H2384 H 0.00045 0.63151 0.17024 0.0
H2385 H 0.06379 0.62224 0.25295 0.0
H2386 H 0.02939 0.65927 0.21056 0.0
H2387 H 0.02077 0.59875 0.22379 0.0
C2388 C 0.00467 0.59757 0.20018 0.0
C2389 C -0.00114 0.60657 0.18481 0.0
C2390 C 0.03693 0.65114 0.21984 0.0
C2391 C 0.02194 0.62346 0.20862 0.0
C2392 C 0.0491 0.65935 0.23123 0.0
C2393 C 0.05906 0.6491 0.24333 0.0
C2394 C 0.03459 0.63257 0.22069 0.0
C2395 C 0.0564 0.63059 0.24375 0.0
C2396 C 0.01628 0.60594 0.21207 0.0
C2397 C 0.00468 0.62411 0.18192 0.0
N2398 N 0.04434 0.62289 0.2326 0.0
N2399 N 0.01591 0.63201 0.19375 0.0
H2400 H 0.44881 0.3282 0.74733 0.0
H2401 H 0.50489 0.41252 0.71424 0.0
H2402 H 0.43457 0.38289 0.75864 0.0
H2403 H 0.50704 0.36086 0.68875 0.0
H2404 H 0.48472 0.40023 0.73674 0.0
H2405 H 0.47546 0.33874 0.73166 0.0
C2406 C 0.4514 0.34242 0.74667 0.0
C2407 C 0.4394 0.35474 0.75404 0.0
C2408 C 0.48983 0.39154 0.72636 0.0
C2409 C 0.4698 0.36679 0.73637 0.0
C2410 C 0.5014 0.3985 0.71358 0.0
C2411 C 0.50738 0.38772 0.69949 0.0
C2412 C 0.48434 0.37368 0.72505 0.0
C2413 C 0.50252 0.36965 0.6993 0.0
C2414 C 0.46658 0.34839 0.73774 0.0
C2415 C 0.4434 0.37298 0.75291 0.0
N2416 N 0.49111 0.36321 0.71181 0.0
N2417 N 0.45825 0.37848 0.74414 0.0
H2418 H 0.01232 0.92106 0.70669 0.0
H2419 H 0.05421 0.82654 0.73284 0.0
H2420 H 0.00212 0.8727 0.67704 0.0
H2421 H 0.07268 0.87661 0.75459 0.0
H2422 H 0.03326 0.84285 0.71388 0.0
H2423 H 0.03265 0.90455 0.72609 0.0
C2424 C 0.01432 0.90694 0.70431 0.0
C2425 C 0.00556 0.8982 0.69025 0.0
C2426 C 0.04191 0.85026 0.72278 0.0
C2427 C 0.02879 0.87926 0.71237 0.0
C2428 C 0.05383 0.84098 0.73363 0.0
C2429 C 0.06518 0.85027 0.74526 0.0
C2430 C 0.04124 0.86897 0.7237 0.0
C2431 C 0.06417 0.86895 0.74576 0.0
C2432 C 0.02597 0.89754 0.71535 0.0
C2433 C 0.00865 0.87992 0.68773 0.0
N2434 N 0.05237 0.8777 0.73514 0.0
N2435 N 0.02002 0.87102 0.69872 0.0
H2436 H 0.83447 0.25274 0.45414 0.0
H2437 H 0.92508 0.29911 0.48585 0.0
H2438 H 0.8853 0.24478 0.42826 0.0
H2439 H 0.87291 0.31649 0.50299 0.0
H2440 H 0.91116 0.27553 0.46823 0.0
H2441 H 0.84898 0.27219 0.476 0.0
C2442 C 0.84873 0.25486 0.45324 0.0
C2443 C 0.85871 0.2473 0.43931 0.0
C2444 C 0.90275 0.28446 0.47588 0.0
C2445 C 0.87529 0.26956 0.4641 0.0
C2446 C 0.91067 0.29793 0.48592 0.0
C2447 C 0.90009 0.30984 0.49574 0.0
C2448 C 0.88411 0.28284 0.4757 0.0
C2449 C 0.88152 0.30765 0.49546 0.0
C2450 C 0.85697 0.26604 0.46564 0.0
C2451 C 0.87712 0.25047 0.43873 0.0
N2452 N 0.87409 0.29441 0.48553 0.0
N2453 N 0.88481 0.26147 0.4509 0.0
H2454 H 0.42958 0.11026 0.25233 0.0
H2455 H 0.51169 0.12294 0.18696 0.0
H2456 H 0.45951 0.15935 0.24863 0.0
H2457 H 0.49112 0.07111 0.20146 0.0
H2458 H 0.49317 0.13643 0.21017 0.0
H2459 H 0.45255 0.09531 0.23462 0.0
C2460 C 0.4411 0.11782 0.24797 0.0
C2461 C 0.4426 0.13608 0.25176 0.0
C2462 C 0.49285 0.12208 0.20841 0.0
C2463 C 0.46873 0.11919 0.23138 0.0
C2464 C 0.50335 0.1144 0.19513 0.0
C2465 C 0.50277 0.09593 0.19223 0.0
C2466 C 0.48152 0.11122 0.21867 0.0
C2467 C 0.49187 0.08543 0.20324 0.0
C2468 C 0.4542 0.10929 0.23789 0.0
C2469 C 0.45781 0.14526 0.2459 0.0
N2470 N 0.48149 0.09326 0.21586 0.0
N2471 N 0.47019 0.13676 0.23578 0.0
H2472 H 0.59587 0.70882 0.00769 0.0
H2473 H 0.64178 0.72198 0.91316 0.0
H2474 H 0.61145 0.66422 0.9747 0.0
H2475 H 0.64883 0.75978 0.9561 0.0
H2476 H 0.62678 0.70169 0.93398 0.0
H2477 H 0.6117 0.72896 0.98734 0.0
C2478 C 0.60266 0.70329 0.99618 0.0
C2479 C 0.60242 0.68488 0.99282 0.0
C2480 C 0.63165 0.71442 0.93881 0.0
C2481 C 0.62021 0.70774 0.96949 0.0
C2482 C 0.64009 0.72601 0.92696 0.0
C2483 C 0.64651 0.74253 0.93298 0.0
C2484 C 0.62935 0.71957 0.95669 0.0
C2485 C 0.64409 0.74712 0.95098 0.0
C2486 C 0.6117 0.71475 0.98464 0.0
C2487 C 0.61142 0.67835 0.97777 0.0
N2488 N 0.63557 0.73573 0.96221 0.0
N2489 N 0.61984 0.68981 0.96653 0.0
H2490 H 0.0487 0.16383 0.7667 0.0
H2491 H 0.00649 0.0726 0.80227 0.0
H2492 H 0.06722 0.11183 0.75017 0.0
H2493 H 0.99659 0.12376 0.82688 0.0
H2494 H 0.02694 0.08695 0.78133 0.0
H2495 H 0.02771 0.14955 0.78713 0.0
C2496 C 0.04832 0.14939 0.76735 0.0
C2497 C 0.05971 0.13897 0.75675 0.0
C2498 C 0.0203 0.09504 0.7913 0.0
C2499 C 0.0357 0.12256 0.78006 0.0
C2500 C 0.00859 0.08688 0.80322 0.0
C2501 C -0.00014 0.09704 0.81632 0.0
C2502 C 0.02322 0.11351 0.79241 0.0
C2503 C 0.00308 0.11546 0.81699 0.0
C2504 C 0.03637 0.14126 0.77905 0.0
C2505 C 0.05868 0.12034 0.75814 0.0
N2506 N 0.0145 0.12313 0.80516 0.0
N2507 N 0.04684 0.11271 0.76957 0.0
H2508 H 0.62834 0.32102 0.49989 0.0
H2509 H 0.61969 0.25151 0.58015 0.0
H2510 H 0.57775 0.30127 0.51902 0.0
H2511 H 0.66802 0.2583 0.54958 0.0
H2512 H 0.60442 0.27206 0.55984 0.0
H2513 H 0.64361 0.3004 0.52016 0.0
C2514 C 0.62047 0.31236 0.50838 0.0
C2515 C 0.60179 0.31278 0.5078 0.0
C2516 C 0.61835 0.269 0.55756 0.0
C2517 C 0.61908 0.28934 0.53098 0.0
C2518 C 0.62706 0.25732 0.56915 0.0
C2519 C 0.6451 0.25321 0.56647 0.0
C2520 C 0.62784 0.27675 0.54337 0.0
C2521 C 0.65407 0.26108 0.55204 0.0
C2522 C 0.62917 0.30058 0.51988 0.0
C2523 C 0.59219 0.30129 0.51904 0.0
N2524 N 0.64535 0.27256 0.54105 0.0
N2525 N 0.60095 0.29007 0.53024 0.0
H2526 H 0.49167 0.92693 0.29693 0.0
H2527 H 0.45755 0.84028 0.24512 0.0
H2528 H 0.50975 0.87351 0.30879 0.0
H2529 H 0.42717 0.88912 0.24858 0.0
H2530 H 0.48128 0.85421 0.26267 0.0
H2531 H 0.47219 0.91483 0.27367 0.0
C2532 C 0.49163 0.91267 0.29454 0.0
C2533 C 0.50216 0.90114 0.30487 0.0
C2534 C 0.4695 0.86192 0.25939 0.0
C2535 C 0.48014 0.88732 0.27828 0.0
C2536 C 0.45602 0.85404 0.24931 0.0
C2537 C 0.44033 0.86354 0.24561 0.0
C2538 C 0.4673 0.87944 0.26563 0.0
C2539 C 0.43901 0.88131 0.25131 0.0
C2540 C 0.48053 0.9058 0.2813 0.0
C2541 C 0.50168 0.8828 0.30121 0.0
N2542 N 0.4523 0.88868 0.26118 0.0
N2543 N 0.49079 0.87643 0.28821 0.0
H2544 H 0.86708 0.72208 0.08781 0.0
H2545 H 0.89902 0.70303 0.988 0.0
H2546 H 0.86301 0.76115 0.04562 0.0
H2547 H 0.88746 0.66122 0.02595 0.0
H2548 H 0.88829 0.7251 0.00955 0.0
H2549 H 0.87763 0.70016 0.06603 0.0
C2550 C 0.86857 0.72608 0.07398 0.0
C2551 C 0.86419 0.74342 0.06847 0.0
C2552 C 0.888 0.71109 0.01311 0.0
C2553 C 0.87613 0.71846 0.04353 0.0
C2554 C 0.8941 0.6985 0.00083 0.0
C2555 C 0.89408 0.68031 0.00524 0.0
C2556 C 0.88209 0.70543 0.02997 0.0
C2557 C 0.88761 0.67513 0.02203 0.0
C2558 C 0.87446 0.71354 0.06155 0.0
C2559 C 0.86625 0.74789 0.05039 0.0
N2560 N 0.88198 0.68766 0.03386 0.0
N2561 N 0.87211 0.73548 0.03855 0.0
H2562 H 0.74998 0.0718 0.87476 0.0
H2563 H 0.67415 0.99706 0.86779 0.0
H2564 H 0.73119 0.05026 0.82469 0.0
H2565 H 0.701 0.01059 0.91697 0.0
H2566 H 0.69385 0.01762 0.85178 0.0
H2567 H 0.73085 0.05063 0.89065 0.0
C2568 C 0.74182 0.06261 0.86713 0.0
C2569 C 0.74214 0.06273 0.84842 0.0
C2570 C 0.69547 0.01603 0.86606 0.0
C2571 C 0.72025 0.03858 0.86643 0.0
C2572 C 0.68424 0.00431 0.87519 0.0
C2573 C 0.68599 0.00215 0.8937 0.0
C2574 C 0.70841 0.02572 0.87558 0.0
C2575 C 0.69924 0.01185 0.90267 0.0
C2576 C 0.73095 0.05051 0.87619 0.0
C2577 C 0.73134 0.05056 0.83915 0.0
N2578 N 0.7099 0.02329 0.89353 0.0
N2579 N 0.72079 0.039 0.84826 0.0
H2580 H 0.75476 0.95449 0.67521 0.0
H2581 H 0.71494 -0.00076 0.58703 0.0
H2582 H 0.76452 0.93464 0.62196 0.0
H2583 H 0.6909 0.00436 0.63917 0.0
H2584 H 0.73918 0.98187 0.6003 0.0
H2585 H 0.73743 0.97908 0.66249 0.0
C2586 C 0.75353 0.95549 0.66082 0.0
C2587 C 0.76085 0.94242 0.64959 0.0
C2588 C 0.72872 0.98702 0.60884 0.0
C2589 C 0.74114 0.97043 0.63506 0.0
C2590 C 0.71493 0.99697 0.60132 0.0
C2591 C 0.7008 0.00301 0.61202 0.0
C2592 C 0.72843 0.98325 0.62719 0.0
C2593 C 0.70146 -0.00025 0.63044 0.0
C2594 C 0.74359 0.96947 0.65361 0.0
C2595 C 0.7589 0.94436 0.63107 0.0
N2596 N 0.715 0.98995 0.63746 0.0
N2597 N 0.74909 0.95805 0.62437 0.0
H2598 H 0.75349 0.95486 0.32214 0.0
H2599 H 0.784 0.00615 0.41038 0.0
H2600 H 0.73642 0.94078 0.37538 0.0
H2601 H 0.81045 0.01098 0.35939 0.0
H2602 H 0.76094 0.98788 0.39627 0.0
H2603 H 0.76905 0.98081 0.33437 0.0
C2604 C 0.75288 0.95734 0.33639 0.0
C2605 C 0.74395 0.94554 0.34784 0.0
C2606 C 0.77165 0.99318 0.38813 0.0
C2607 C 0.76158 0.97513 0.36185 0.0
C2608 C 0.78476 0.00365 0.39614 0.0
C2609 C 0.79928 0.00977 0.38606 0.0
C2610 C 0.77313 0.98887 0.36994 0.0
C2611 C 0.79958 0.00627 0.36767 0.0
C2612 C 0.76173 0.97214 0.34334 0.0
C2613 C 0.74339 0.94944 0.36614 0.0
N2614 N 0.7868 0.99584 0.36022 0.0
N2615 N 0.75225 0.96384 0.37262 0.0
H2616 H 0.74601 0.03396 0.16317 0.0
H2617 H 0.7903 0.99535 0.07455 0.0
H2618 H 0.7377 0.05607 0.11056 0.0
H2619 H 0.80926 0.9846 0.12793 0.0
H2620 H 0.76449 0.01081 0.08721 0.0
H2621 H 0.76253 0.00924 0.14982 0.0
C2622 C 0.74743 0.03346 0.14878 0.0
C2623 C 0.74084 0.04725 0.13795 0.0
C2624 C 0.77414 0.00477 0.09613 0.0
C2625 C 0.75969 0.01908 0.12267 0.0
C2626 C 0.78883 0.99592 0.08893 0.0
C2627 C 0.80206 0.98904 0.10025 0.0
C2628 C 0.77272 0.00664 0.11473 0.0
C2629 C 0.79948 0.99001 0.11876 0.0
C2630 C 0.75685 0.01936 0.14119 0.0
C2631 C 0.74284 0.04584 0.11939 0.0
N2632 N 0.78519 -0.00112 0.12544 0.0
N2633 N 0.75232 0.0321 0.11232 0.0
H2634 H 0.3324 0.74388 0.96339 0.0
H2635 H 0.41613 0.78875 0.01138 0.0
H2636 H 0.38668 0.73791 0.9451 0.0
H2637 H 0.3628 0.81043 0.01307 0.0
H2638 H 0.40486 0.76316 0.99447 0.0
H2639 H 0.34318 0.76133 0.9888 0.0
C2640 C 0.34663 0.74595 0.96491 0.0
C2641 C 0.35868 0.7397 0.952 0.0
C2642 C 0.3956 0.77337 0.99886 0.0
C2643 C 0.37101 0.75952 0.98101 0.0
C2644 C 0.40197 0.78791 0.00857 0.0
C2645 C 0.39038 0.80183 0.01336 0.0
C2646 C 0.37752 0.77269 0.99412 0.0
C2647 C 0.37219 0.80007 0.00942 0.0
C2648 C 0.35273 0.75593 0.97937 0.0
C2649 C 0.37695 0.7427 0.95465 0.0
N2650 N 0.36632 0.78583 -0.00015 0.0
N2651 N 0.38257 0.75256 0.96881 0.0
H2652 H 0.95495 0.6727 0.75513 0.0
H2653 H 0.00144 0.58907 0.7086 0.0
H2654 H 0.93662 0.61833 0.76047 0.0
H2655 H 0.00966 0.64376 0.69237 0.0
H2656 H 0.98364 0.59956 0.73383 0.0
H2657 H 0.98085 0.66199 0.73847 0.0
C2658 C 0.95654 0.65848 0.75306 0.0
C2659 C 0.94349 0.64638 0.75888 0.0
C2660 C 0.98956 0.60926 0.72489 0.0
C2661 C 0.97299 0.63411 0.73985 0.0
C2662 C -0.00026 0.60331 0.71051 0.0
C2663 C 0.00673 0.61559 0.69822 0.0
C2664 C 0.98641 0.6276 0.72697 0.0
C2665 C 0.00428 0.63386 0.70142 0.0
C2666 C 0.97129 0.6524 0.74353 0.0
C2667 C 0.94627 0.62811 0.75598 0.0
N2668 N 0.99412 0.63933 0.7154 0.0
N2669 N 0.96064 0.62252 0.74647 0.0
H2670 H 0.0925 0.16168 0.47512 0.0
H2671 H 0.12854 0.26033 0.4625 0.0
H2672 H 0.07967 0.20378 0.51233 0.0
H2673 H 0.12037 0.22443 0.41815 0.0
H2674 H 0.11289 0.23925 0.48201 0.0
H2675 H 0.10553 0.18387 0.455 0.0
C2676 C 0.09248 0.1756 0.47905 0.0
C2677 C 0.08507 0.18096 0.49538 0.0
C2678 C 0.11439 0.2361 0.46797 0.0
C2679 C 0.09994 0.2063 0.47255 0.0
C2680 C 0.12331 0.24808 0.45686 0.0
C2681 C 0.12573 0.24405 0.43874 0.0
C2682 C 0.10819 0.21988 0.46092 0.0
C2683 C 0.11872 0.22803 0.43206 0.0
C2684 C 0.09979 0.18824 0.46754 0.0
C2685 C 0.08526 0.19914 0.49982 0.0
N2686 N 0.11043 0.21641 0.44321 0.0
N2687 N 0.09272 0.21119 0.48851 0.0
H2688 H 0.93624 0.3847 0.73915 0.0
H2689 H 0.01108 0.36981 0.81233 0.0
H2690 H 0.96218 0.33406 0.74829 0.0
H2691 H 0.99323 0.4221 0.79595 0.0
H2692 H 0.99517 0.35681 0.78705 0.0
H2693 H 0.95862 0.39916 0.75805 0.0
C2694 C 0.94676 0.37668 0.74499 0.0
C2695 C 0.94726 0.35816 0.74239 0.0
C2696 C 0.99493 0.37116 0.78881 0.0
C2697 C 0.97275 0.37449 0.76401 0.0
C2698 C 0.004 0.37857 0.80325 0.0
C2699 C 0.00324 0.397 0.80631 0.0
C2700 C 0.98483 0.38225 0.77755 0.0
C2701 C 0.99402 0.40778 0.7941 0.0
C2702 C 0.95954 0.38492 0.75572 0.0
C2703 C 0.96121 0.34837 0.75012 0.0
N2704 N 0.98491 0.40021 0.78038 0.0
N2705 N 0.97329 0.35663 0.76076 0.0
H2706 H 0.56704 0.62419 0.24454 0.0
H2707 H 0.49548 0.63519 0.32242 0.0
H2708 H 0.54167 0.67446 0.25677 0.0
H2709 H 0.50723 0.58447 0.29772 0.0
H2710 H 0.51419 0.64999 0.30003 0.0
H2711 H 0.54688 0.60933 0.26556 0.0
C2712 C 0.55717 0.63206 0.25159 0.0
C2713 C 0.55598 0.65055 0.24895 0.0
C2714 C 0.51258 0.63563 0.29948 0.0
C2715 C 0.53311 0.63375 0.27307 0.0
C2716 C 0.50197 0.6272 0.31226 0.0
C2717 C 0.49983 0.60862 0.31187 0.0
C2718 C 0.52127 0.62534 0.28642 0.0
C2719 C 0.50851 0.59885 0.29844 0.0
C2720 C 0.54566 0.62359 0.26354 0.0
C2721 C 0.54298 0.66015 0.2584 0.0
N2722 N 0.51895 0.60732 0.2863 0.0
N2723 N 0.53212 0.65166 0.27016 0.0
H2724 H 0.48556 0.57376 0.80055 0.0
H2725 H 0.44765 0.66738 0.76639 0.0
H2726 H 0.4932 0.62348 0.82868 0.0
H2727 H 0.4282 0.61676 0.7469 0.0
H2728 H 0.46729 0.65158 0.78701 0.0
H2729 H 0.4672 0.58944 0.77851 0.0
C2730 C 0.48342 0.58799 0.80204 0.0
C2731 C 0.49085 0.59737 0.81645 0.0
C2732 C 0.45875 0.64392 0.77822 0.0
C2733 C 0.47 0.61531 0.79133 0.0
C2734 C 0.44758 0.65292 0.7664 0.0
C2735 C 0.43627 0.64333 0.75498 0.0
C2736 C 0.4587 0.62519 0.77853 0.0
C2737 C 0.43669 0.62463 0.75555 0.0
C2738 C 0.47292 0.59689 0.7895 0.0
C2739 C 0.48766 0.61575 0.81779 0.0
N2740 N 0.44776 0.61613 0.76716 0.0
N2741 N 0.47749 0.62414 0.80536 0.0
H2742 H 0.91943 0.21016 0.99272 0.0
H2743 H 0.82857 0.24263 0.94715 0.0
H2744 H 0.86876 0.18397 0.00067 0.0
H2745 H 0.88073 0.2611 0.9312 0.0
H2746 H 0.84248 0.22422 0.97025 0.0
H2747 H 0.90477 0.2321 0.97356 0.0
C2748 C 0.90518 0.20912 0.99053 0.0
C2749 C 0.89529 0.19517 0.99814 0.0
C2750 C 0.85086 0.23238 0.96176 0.0
C2751 C 0.87847 0.22017 0.97626 0.0
C2752 C 0.84294 0.24292 0.94862 0.0
C2753 C 0.85356 0.25327 0.93719 0.0
C2754 C 0.86951 0.23228 0.96351 0.0
C2755 C 0.87209 0.2532 0.93967 0.0
C2756 C 0.89684 0.22161 0.97957 0.0
C2757 C 0.87688 0.19447 0.99494 0.0
N2758 N 0.8795 0.24279 0.95253 0.0
N2759 N 0.86905 0.20677 0.98415 0.0
H2760 H 0.61037 0.73366 0.43561 0.0
H2761 H 0.63735 0.80101 0.51054 0.0
H2762 H 0.66398 0.73728 0.45632 0.0
H2763 H 0.5827 0.78558 0.50103 0.0
H2764 H 0.64727 0.77504 0.49353 0.0
H2765 H 0.59952 0.74959 0.46193 0.0
C2766 C 0.6198 0.73753 0.44587 0.0
C2767 C 0.63811 0.73452 0.44366 0.0
C2768 C 0.63311 0.77711 0.49545 0.0
C2769 C 0.62591 0.7529 0.47359 0.0
C2770 C 0.62746 0.79197 0.50511 0.0
C2771 C 0.60921 0.79558 0.50685 0.0
C2772 C 0.62039 0.76606 0.48721 0.0
C2773 C 0.59692 0.78336 0.49977 0.0
C2774 C 0.61362 0.74658 0.46091 0.0
C2775 C 0.64976 0.7396 0.45741 0.0
N2776 N 0.60273 0.76932 0.48993 0.0
N2777 N 0.64351 0.74888 0.47164 0.0
H2778 H 0.74471 0.46222 0.66385 0.0
H2779 H 0.78927 0.50041 0.57513 0.0
H2780 H 0.73815 0.43872 0.6116 0.0
H2781 H 0.80502 0.51553 0.62849 0.0
H2782 H 0.76456 0.48323 0.58764 0.0
H2783 H 0.76059 0.48723 0.65024 0.0
C2784 C 0.74634 0.46249 0.64947 0.0
C2785 C 0.74045 0.44825 0.63884 0.0
C2786 C 0.77328 0.4905 0.59659 0.0
C2787 C 0.75863 0.47669 0.62327 0.0
C2788 C 0.78738 0.5003 0.58947 0.0
C2789 C 0.79936 0.5091 0.60085 0.0
C2790 C 0.7712 0.48952 0.61519 0.0
C2791 C 0.79621 0.5087 0.61929 0.0
C2792 C 0.75543 0.47674 0.64174 0.0
C2793 C 0.74274 0.44933 0.62029 0.0
N2794 N 0.78252 0.49887 0.62593 0.0
N2795 N 0.75188 0.46322 0.61309 0.0
H2796 H 0.81286 0.49639 0.87272 0.0
H2797 H 0.74112 0.57445 0.88183 0.0
H2798 H 0.78919 0.51169 0.923 0.0
H2799 H 0.75376 0.54905 0.83165 0.0
H2800 H 0.76002 0.55271 0.89722 0.0
H2801 H 0.79253 0.5168 0.85731 0.0
C2802 C 0.80334 0.504 0.88049 0.0
C2803 C 0.80268 0.5024 0.89913 0.0
C2804 C 0.75858 0.55185 0.88285 0.0
C2805 C 0.77956 0.52579 0.88169 0.0
C2806 C 0.74784 0.56426 0.87408 0.0
C2807 C 0.74592 0.56351 0.85548 0.0
C2808 C 0.76757 0.53875 0.8729 0.0
C2809 C 0.75489 0.55005 0.84604 0.0
C2810 C 0.79173 0.51561 0.87171 0.0
C2811 C 0.7901 0.51253 0.90859 0.0
N2812 N 0.76542 0.53824 0.85485 0.0
N2813 N 0.7791 0.5239 0.89977 0.0
H2814 H 0.71068 0.50072 0.07846 0.0
H2815 H 0.75303 0.54495 0.16557 0.0
H2816 H 0.69437 0.4883 0.13235 0.0
H2817 H 0.75829 0.56664 0.1124 0.0
H2818 H 0.73809 0.51879 0.15305 0.0
H2819 H 0.73464 0.51937 0.09039 0.0
C2820 C 0.71234 0.50167 0.09281 0.0
C2821 C 0.70037 0.49325 0.10447 0.0
C2822 C 0.74275 0.52916 0.14411 0.0
C2823 C 0.72763 0.51453 0.11814 0.0
C2824 C 0.75129 0.54407 0.15123 0.0
C2825 C 0.75658 0.55809 0.14 0.0
C2826 C 0.73954 0.5283 0.12566 0.0
C2827 C 0.75416 0.55622 0.12153 0.0
C2828 C 0.72598 0.51234 0.09959 0.0
C2829 C 0.70318 0.4948 0.12291 0.0
N2830 N 0.74561 0.54166 0.11493 0.0
N2831 N 0.71642 0.50544 0.1292 0.0
H2832 H 0.75098 0.46108 0.31789 0.0
H2833 H 0.7103 0.50501 0.40572 0.0
H2834 H 0.76634 0.44674 0.37158 0.0
H2835 H 0.68539 0.50687 0.35376 0.0
H2836 H 0.73662 0.49127 0.39222 0.0
H2837 H 0.73305 0.48555 0.32993 0.0
C2838 C 0.7509 0.46333 0.33218 0.0
C2839 C 0.75979 0.45168 0.34383 0.0
C2840 C 0.72549 0.49495 0.38375 0.0
C2841 C 0.73934 0.47947 0.3576 0.0
C2842 C 0.71048 0.50278 0.39143 0.0
C2843 C 0.69554 0.5067 0.38086 0.0
C2844 C 0.72551 0.49109 0.36541 0.0
C2845 C 0.69653 0.50374 0.36241 0.0
C2846 C 0.74063 0.47725 0.33903 0.0
C2847 C 0.75939 0.45526 0.36219 0.0
N2848 N 0.71121 0.49589 0.35527 0.0
N2849 N 0.74908 0.46871 0.36856 0.0
H2850 H 0.56387 0.38026 0.25979 0.0
H2851 H 0.48348 0.36535 0.19294 0.0
H2852 H 0.5368 0.3298 0.25344 0.0
H2853 H 0.50165 0.41776 0.20847 0.0
H2854 H 0.50148 0.35237 0.21678 0.0
H2855 H 0.54011 0.39475 0.24263 0.0
C2856 C 0.55284 0.37228 0.25492 0.0
C2857 C 0.55238 0.3538 0.2578 0.0
C2858 C 0.50134 0.36674 0.21518 0.0
C2859 C 0.5253 0.37016 0.2382 0.0
C2860 C 0.49107 0.37413 0.20157 0.0
C2861 C 0.49127 0.3926 0.19867 0.0
C2862 C 0.51212 0.37789 0.22573 0.0
C2863 C 0.50122 0.40343 0.21026 0.0
C2864 C 0.53927 0.38054 0.2452 0.0
C2865 C 0.53775 0.34407 0.25135 0.0
N2866 N 0.51152 0.39588 0.22313 0.0
N2867 N 0.5249 0.35234 0.24168 0.0
H2868 H 0.13835 0.77757 0.08668 0.0
H2869 H 0.09367 0.78757 0.9908 0.0
H2870 H 0.14247 0.73664 0.04631 0.0
H2871 H 0.11069 0.83293 0.022 0.0
H2872 H 0.10771 0.7677 0.01268 0.0
H2873 H 0.12392 0.79716 0.06481 0.0
C2874 C 0.13607 0.77267 0.07325 0.0
C2875 C 0.14159 0.75551 0.06823 0.0
C2876 C 0.10841 0.78201 0.01466 0.0
C2877 C 0.12514 0.77773 0.0433 0.0
C2878 C 0.10041 0.79332 0.00223 0.0
C2879 C 0.1011 0.81188 0.00462 0.0
C2880 C 0.11685 0.78933 0.02971 0.0
C2881 C 0.10997 0.81869 0.01964 0.0
C2882 C 0.12797 0.78387 0.06078 0.0
C2883 C 0.13844 0.74982 0.05067 0.0
N2884 N 0.1174 0.80739 0.03172 0.0
N2885 N 0.13034 0.76089 0.03881 0.0
H2886 H 0.41941 0.20109 0.50462 0.0
H2887 H 0.32704 0.23475 0.5456 0.0
H2888 H 0.36906 0.17481 0.49507 0.0
H2889 H 0.37831 0.25104 0.56619 0.0
H2890 H 0.34208 0.21525 0.52426 0.0
H2891 H 0.40433 0.22216 0.52447 0.0
C2892 C 0.40516 0.19984 0.50662 0.0
C2893 C 0.39544 0.18619 0.49826 0.0
C2894 C 0.35005 0.22309 0.53344 0.0
C2895 C 0.37817 0.21018 0.52088 0.0
C2896 C 0.34149 0.23425 0.54558 0.0
C2897 C 0.35148 0.24445 0.55768 0.0
C2898 C 0.36874 0.22225 0.5333 0.0
C2899 C 0.37014 0.24331 0.55711 0.0
C2900 C 0.39659 0.21181 0.518 0.0
C2901 C 0.37703 0.18512 0.50132 0.0
N2902 N 0.37819 0.23239 0.54507 0.0
N2903 N 0.36897 0.19698 0.5124 0.0
H2904 H 0.1883 0.48437 0.36526 0.0
H2905 H 0.25988 0.55758 0.38847 0.0
H2906 H 0.20682 0.49436 0.41893 0.0
H2907 H 0.25006 0.53912 0.33475 0.0
H2908 H 0.24353 0.53182 0.39997 0.0
H2909 H 0.21361 0.50134 0.3537 0.0
C2910 C 0.19788 0.48988 0.37459 0.0
C2911 C 0.19533 0.48827 0.39306 0.0
C2912 C 0.24522 0.53321 0.38567 0.0
C2913 C 0.22412 0.50788 0.38 0.0
C2914 C 0.25452 0.54794 0.37911 0.0
C2915 C 0.25602 0.55061 0.36065 0.0
C2916 C 0.23714 0.52129 0.37364 0.0
C2917 C 0.24901 0.53764 0.3491 0.0
C2918 C 0.21234 0.49955 0.368 0.0
C2919 C 0.2082 0.49549 0.40457 0.0
N2920 N 0.23958 0.5237 0.35578 0.0
N2921 N 0.22188 0.50528 0.39786 0.0
H2922 H 0.20041 0.51329 0.09825 0.0
H2923 H 0.22187 0.41479 0.13216 0.0
H2924 H 0.15974 0.47316 0.10547 0.0
H2925 H 0.25608 0.45975 0.14344 0.0
H2926 H 0.2002 0.43515 0.1186 0.0
H2927 H 0.2223 0.49298 0.1115 0.0
C2928 C 0.19609 0.50022 0.10268 0.0
C2929 C 0.17827 0.49487 0.10084 0.0
C2930 C 0.21247 0.44053 0.12404 0.0
C2931 C 0.20319 0.47158 0.11572 0.0
C2932 C 0.22486 0.42893 0.13166 0.0
C2933 C 0.24074 0.43565 0.13892 0.0
C2934 C 0.21612 0.4589 0.12349 0.0
C2935 C 0.24396 0.45407 0.13802 0.0
C2936 C 0.20856 0.48867 0.11025 0.0
C2937 C 0.17335 0.47781 0.10676 0.0
N2938 N 0.23176 0.46508 0.13038 0.0
N2939 N 0.18579 0.46669 0.11385 0.0
H2940 H 0.32126 0.49687 0.88112 0.0
H2941 H 0.2424 0.42656 0.89215 0.0
H2942 H 0.2954 0.48693 0.93166 0.0
H2943 H 0.25592 0.45086 0.84165 0.0
H2944 H 0.26338 0.44674 0.90707 0.0
H2945 H 0.299 0.47802 0.8664 0.0
C2946 C 0.31087 0.49074 0.88909 0.0
C2947 C 0.31012 0.49343 0.9076 0.0
C2948 C 0.26165 0.4477 0.89274 0.0
C2949 C 0.2848 0.47183 0.89095 0.0
C2950 C 0.24974 0.43619 0.88424 0.0
C2951 C 0.24746 0.43709 0.86568 0.0
C2952 C 0.2715 0.45997 0.88253 0.0
C2953 C 0.25726 0.44978 0.85601 0.0
C2954 C 0.29816 0.48005 0.8807 0.0
C2955 C 0.2964 0.48522 0.91734 0.0
N2956 N 0.26896 0.46065 0.86454 0.0
N2957 N 0.28432 0.47467 0.9089 0.0
H2958 H 0.31278 0.48479 0.62964 0.0
H2959 H 0.23762 0.55418 0.6055 0.0
H2960 H 0.29389 0.49314 0.57583 0.0
H2961 H 0.24844 0.53688 0.65942 0.0
H2962 H 0.25538 0.52924 0.59429 0.0
H2963 H 0.28687 0.501 0.64093 0.0
C2964 C 0.30303 0.48983 0.62023 0.0
C2965 C 0.30559 0.48791 0.60179 0.0
C2966 C 0.25362 0.5307 0.60857 0.0
C2967 C 0.27607 0.50662 0.61454 0.0
C2968 C 0.24349 0.54494 0.61496 0.0
C2969 C 0.24186 0.54774 0.6334 0.0
C2970 C 0.26236 0.51939 0.62073 0.0
C2971 C 0.24957 0.53531 0.64509 0.0
C2972 C 0.28822 0.49904 0.62666 0.0
C2973 C 0.29249 0.49451 0.59015 0.0
N2974 N 0.25976 0.52184 0.63856 0.0
N2975 N 0.27843 0.50386 0.59671 0.0
H2976 H 0.00953 0.12458 0.39546 0.0
H2977 H 0.02167 0.10281 0.49935 0.0
H2978 H 0.0274 0.0741 0.4167 0.0
H2979 H 0.02301 0.1565 0.47846 0.0
H2980 H 0.01458 0.09175 0.46951 0.0
H2981 H 0.00671 0.136 0.42614 0.0
C2982 C 0.01278 0.1159 0.40657 0.0
C2983 C 0.01895 0.09846 0.40358 0.0
C2984 C 0.01607 0.10599 0.47153 0.0
C2985 C 0.01535 0.11123 0.4385 0.0
C2986 C 0.01993 0.11235 0.48861 0.0
C2987 C 0.02324 0.13058 0.49133 0.0
C2988 C 0.01547 0.11795 0.4571 0.0
C2989 C 0.02074 0.14231 0.4769 0.0
C2990 C 0.01112 0.1224 0.42402 0.0
C2991 C 0.02285 0.08771 0.41841 0.0
N2992 N 0.01729 0.13577 0.4603 0.0
N2993 N 0.02099 0.09427 0.4352 0.0
H2994 H 0.09396 0.78027 0.72926 0.0
H2995 H 0.17638 0.78305 0.66224 0.0
H2996 H 0.14806 0.79231 0.74479 0.0
H2997 H 0.12368 0.76657 0.64597 0.0
H2998 H 0.16645 0.78358 0.69317 0.0
H2999 H 0.10479 0.77138 0.69966 0.0
C3000 C 0.10816 0.78055 0.72661 0.0
C3001 C 0.12013 0.78722 0.7394 0.0
C3002 C 0.15702 0.77975 0.6829 0.0
C3003 C 0.13253 0.77748 0.70557 0.0
C3004 C 0.16268 0.77955 0.6652 0.0
C3005 C 0.15078 0.77496 0.6515 0.0
C3006 C 0.13924 0.7755 0.68702 0.0
C3007 C 0.13324 0.77032 0.65614 0.0
C3008 C 0.11432 0.77563 0.70967 0.0
C3009 C 0.13836 0.78741 0.73526 0.0
N3010 N 0.12793 0.77087 0.67353 0.0
N3011 N 0.14396 0.78288 0.71864 0.0
H3012 H 0.43486 0.83496 0.9671 0.0
H3013 H 0.4678 0.91722 0.91019 0.0
H3014 H 0.45712 0.88219 0.99137 0.0
H3015 H 0.46246 0.8644 0.88779 0.0
H3016 H 0.46433 0.90458 0.94009 0.0
H3017 H 0.44593 0.84491 0.93809 0.0
C3018 C 0.44244 0.84726 0.96634 0.0
C3019 C 0.44503 0.85784 0.98157 0.0
C3020 C 0.46408 0.89573 0.92866 0.0
C3021 C 0.45729 0.86954 0.9484 0.0
C3022 C 0.46591 0.90295 0.91158 0.0
C3023 C 0.46522 0.89184 0.89651 0.0
C3024 C 0.46128 0.87731 0.93065 0.0
C3025 C 0.46295 0.87343 0.89907 0.0
C3026 C 0.44871 0.85295 0.94979 0.0
C3027 C 0.4549 0.87364 0.97991 0.0
N3028 N 0.46086 0.86676 0.91582 0.0
N3029 N 0.4604 0.87921 0.96352 0.0
H3030 H 0.33279 0.22528 0.1609 0.0
H3031 H 0.41317 0.18277 0.21201 0.0
H3032 H 0.38282 0.21436 0.1346 0.0
H3033 H 0.37323 0.21376 0.23945 0.0
H3034 H 0.40319 0.19538 0.18362 0.0
H3035 H 0.34757 0.22204 0.18983 0.0
C3036 C 0.34693 0.22232 0.16123 0.0
C3037 C 0.35658 0.21985 0.14537 0.0
C3038 C 0.39685 0.19977 0.19586 0.0
C3039 C 0.37352 0.21604 0.17839 0.0
C3040 C 0.40255 0.19259 0.21205 0.0
C3041 C 0.39393 0.19724 0.22799 0.0
C3042 C 0.38207 0.21126 0.19559 0.0
C3043 C 0.38023 0.20994 0.2274 0.0
C3044 C 0.35538 0.22061 0.17775 0.0
C3045 C 0.37489 0.21624 0.14654 0.0
N3046 N 0.37442 0.21624 0.21136 0.0
N3047 N 0.38272 0.21414 0.1628 0.0
H3048 H 0.01509 0.86659 0.09917 0.0
H3049 H 0.02855 0.8847 0.99488 0.0
H3050 H 0.0235 0.91847 0.07557 0.0
H3051 H 0.03296 0.83253 0.01895 0.0
H3052 H 0.01803 0.89656 0.02337 0.0
H3053 H 0.01418 0.85352 0.06912 0.0
C3054 C 0.01662 0.87523 0.08767 0.0
C3055 C 0.01967 0.89358 0.08983 0.0
C3056 C 0.02095 0.88244 0.02232 0.0
C3057 C 0.01837 0.87883 0.05555 0.0
C3058 C 0.02678 0.87561 0.006 0.0
C3059 C 0.03197 0.85767 0.00465 0.0
C3060 C 0.02033 0.87124 0.03737 0.0
C3061 C 0.02932 0.84651 0.01949 0.0
C3062 C 0.01604 0.86779 0.07055 0.0
C3063 C 0.0214 0.90421 0.0745 0.0
N3064 N 0.024 0.85355 0.03535 0.0
N3065 N 0.02082 0.89667 0.05803 0.0
H3066 H 0.38277 0.78964 0.36398 0.0
H3067 H 0.37414 0.78272 0.25801 0.0
H3068 H 0.34076 0.76075 0.33719 0.0
H3069 H 0.41374 0.81402 0.28566 0.0
H3070 H 0.36559 0.76909 0.2866 0.0
H3071 H 0.39778 0.79364 0.33531 0.0
C3072 C 0.37679 0.78401 0.35207 0.0
C3073 C 0.36038 0.7751 0.35289 0.0
C3074 C 0.37641 0.77866 0.28633 0.0
C3075 C 0.37741 0.77967 0.32001 0.0
C3076 C 0.38138 0.7863 0.27001 0.0
C3077 C 0.39446 0.79965 0.2696 0.0
C3078 C 0.38464 0.78448 0.3022 0.0
C3079 C 0.40339 0.80393 0.28549 0.0
C3080 C 0.38537 0.78626 0.33569 0.0
C3081 C 0.35331 0.7679 0.33709 0.0
N3082 N 0.39815 0.79656 0.30118 0.0
N3083 N 0.36176 0.77053 0.32124 0.0
H3084 H 0.45652 0.10283 0.49857 0.0
H3085 H 0.47326 0.12357 0.6021 0.0
H3086 H 0.46033 0.15626 0.51983 0.0
H3087 H 0.45723 0.07231 0.58123 0.0
H3088 H 0.4739 0.13535 0.57153 0.0
H3089 H 0.46354 0.09095 0.52812 0.0
C3090 C 0.45932 0.11208 0.50934 0.0
C3091 C 0.4576 0.13055 0.50681 0.0
C3092 C 0.47029 0.12152 0.57368 0.0
C3093 C 0.46523 0.11705 0.54072 0.0
C3094 C 0.46982 0.11483 0.5911 0.0
C3095 C 0.46498 0.097 0.5942 0.0
C3096 C 0.46606 0.11024 0.55929 0.0
C3097 C 0.46083 0.08619 0.57947 0.0
C3098 C 0.46313 0.10528 0.52626 0.0
C3099 C 0.46137 0.14191 0.52125 0.0
N3100 N 0.46147 0.09298 0.56267 0.0
N3101 N 0.46476 0.13497 0.53768 0.0
H3102 H 0.14456 0.19638 0.7511 0.0
H3103 H 0.12249 0.22794 0.85078 0.0
H3104 H 0.09132 0.20861 0.76927 0.0
H3105 H 0.1735 0.2077 0.83336 0.0
H3106 H 0.11164 0.22594 0.81991 0.0
H3107 H 0.15631 0.20659 0.77973 0.0
C3108 C 0.13537 0.20162 0.76096 0.0
C3109 C 0.11692 0.20143 0.7579 0.0
C3110 C 0.12523 0.22204 0.82286 0.0
C3111 C 0.13023 0.21275 0.79087 0.0
C3112 C 0.1314 0.22312 0.84046 0.0
C3113 C 0.14884 0.21777 0.84464 0.0
C3114 C 0.13665 0.21569 0.80938 0.0
C3115 C 0.15989 0.21177 0.83077 0.0
C3116 C 0.14207 0.20731 0.77738 0.0
C3117 C 0.10564 0.20843 0.77113 0.0
N3118 N 0.15359 0.21084 0.8138 0.0
N3119 N 0.11245 0.21355 0.78718 0.0
H3120 H 0.48892 0.05774 0.104 0.0
H3121 H 0.39511 0.0152 0.12953 0.0
H3122 H 0.48049 0.02988 0.15368 0.0
H3123 H 0.4084 0.03568 0.07732 0.0
H3124 H 0.42646 0.0186 0.13844 0.0
H3125 H 0.45998 0.0475 0.09349 0.0
C3126 C 0.48101 0.04918 0.11259 0.0
C3127 C 0.48699 0.04467 0.12973 0.0
C3128 C 0.42252 0.02218 0.12499 0.0
C3129 C 0.45355 0.03323 0.118 0.0
C3130 C 0.40464 0.02031 0.11993 0.0
C3131 C 0.39914 0.02536 0.10272 0.0
C3132 C 0.43488 0.0292 0.11277 0.0
C3133 C 0.41201 0.03178 0.09077 0.0
C3134 C 0.46446 0.04336 0.10661 0.0
C3135 C 0.47631 0.03354 0.14033 0.0
N3136 N 0.42921 0.03363 0.09606 0.0
N3137 N 0.4599 0.02841 0.1344 0.0
H3138 H 0.21262 0.13926 0.38978 0.0
H3139 H 0.20662 0.24486 0.37526 0.0
H3140 H 0.20882 0.16535 0.33853 0.0
H3141 H 0.18896 0.21958 0.42396 0.0
H3142 H 0.21608 0.21579 0.36399 0.0
H3143 H 0.21099 0.16867 0.4044 0.0
C3144 C 0.21145 0.15115 0.38164 0.0
C3145 C 0.21062 0.1499 0.36295 0.0
C3146 C 0.21042 0.21666 0.37728 0.0
C3147 C 0.2093 0.18335 0.37944 0.0
C3148 C 0.20519 0.23327 0.3838 0.0
C3149 C 0.19673 0.23459 0.40045 0.0
C3150 C 0.20724 0.20127 0.3875 0.0
C3151 C 0.19528 0.21911 0.41096 0.0
C3152 C 0.2106 0.16787 0.38996 0.0
C3153 C 0.20925 0.16569 0.35298 0.0
N3154 N 0.20023 0.203 0.4042 0.0
N3155 N 0.20868 0.18174 0.36134 0.0
H3156 H 0.00086 0.96727 0.61265 0.0
H3157 H 0.10542 0.9784 0.63007 0.0
H3158 H 0.02448 0.96486 0.66516 0.0
H3159 H 0.08116 0.97028 0.57842 0.0
H3160 H 0.07554 0.97996 0.64344 0.0
H3161 H 0.02966 0.97615 0.6004 0.0
C3162 C 0.01201 0.96907 0.62168 0.0
C3163 C 0.01037 0.96504 0.63989 0.0
C3164 C 0.0768 0.97799 0.62916 0.0
C3165 C 0.04348 0.97474 0.6259 0.0
C3166 C 0.09381 0.97704 0.62155 0.0
C3167 C 0.09573 0.97394 0.60317 0.0
C3168 C 0.06167 0.97598 0.61825 0.0
C3169 C 0.08029 0.97243 0.5927 0.0
C3170 C 0.0285 0.97399 0.61465 0.0
C3171 C 0.02522 0.96771 0.651 0.0
N3172 N 0.06394 0.97339 0.60039 0.0
N3173 N 0.04129 0.97207 0.64377 0.0
H3174 H 0.32676 0.78341 0.91502 0.0
H3175 H 0.28208 0.83889 0.83821 0.0
H3176 H 0.29241 0.75837 0.87622 0.0
H3177 H 0.29407 0.86264 0.88933 0.0
H3178 H 0.28688 0.80928 0.85119 0.0
H3179 H 0.31563 0.81264 0.9057 0.0
C3180 C 0.3166 0.78411 0.90474 0.0
C3181 C 0.31046 0.76857 0.89632 0.0
C3182 C 0.2883 0.82097 0.85959 0.0
C3183 C 0.29808 0.80188 0.88526 0.0
C3184 C 0.28573 0.83786 0.85218 0.0
C3185 C 0.28786 0.85321 0.8627 0.0
C3186 C 0.29337 0.81946 0.87757 0.0
C3187 C 0.29239 0.85112 0.88075 0.0
C3188 C 0.31027 0.80076 0.89943 0.0
C3189 C 0.29736 0.7701 0.88307 0.0
N3190 N 0.29523 0.83454 0.88758 0.0
N3191 N 0.29183 0.78655 0.87767 0.0
H3192 H 0.4934 0.93941 0.39354 0.0
H3193 H 0.39835 0.97628 0.365 0.0
H3194 H 0.48449 0.96488 0.3427 0.0
H3195 H 0.41215 0.96099 0.41884 0.0
H3196 H 0.42992 0.97382 0.35662 0.0
H3197 H 0.46417 0.94945 0.40352 0.0
C3198 C 0.48536 0.94748 0.38462 0.0
C3199 C 0.49125 0.95134 0.36731 0.0
C3200 C 0.42603 0.97118 0.37029 0.0
C3201 C 0.45749 0.9624 0.37836 0.0
C3202 C 0.40803 0.97246 0.37505 0.0
C3203 C 0.40263 0.96861 0.39258 0.0
C3204 C 0.43862 0.96589 0.38316 0.0
C3205 C 0.41569 0.9639 0.40512 0.0
C3206 C 0.46863 0.95316 0.39028 0.0
C3207 C 0.48038 0.96178 0.35621 0.0
N3208 N 0.43302 0.96254 0.40014 0.0
N3209 N 0.4638 0.96669 0.36181 0.0
H3210 H 0.27105 0.14256 0.60778 0.0
H3211 H 0.29223 0.24212 0.63897 0.0
H3212 H 0.27938 0.15883 0.66245 0.0
H3213 H 0.28496 0.22759 0.58372 0.0
H3214 H 0.28223 0.21249 0.64787 0.0
H3215 H 0.27198 0.17402 0.59867 0.0
C3216 C 0.27304 0.15275 0.61785 0.0
C3217 C 0.27538 0.1481 0.63586 0.0
C3218 C 0.2825 0.2158 0.63379 0.0
C3219 C 0.27623 0.18399 0.62561 0.0
C3220 C 0.28807 0.23278 0.62873 0.0
C3221 C 0.28951 0.23719 0.61061 0.0
C3222 C 0.27867 0.20301 0.62062 0.0
C3223 C 0.28398 0.22466 0.59785 0.0
C3224 C 0.27347 0.17069 0.61266 0.0
C3225 C 0.27773 0.1618 0.64839 0.0
N3226 N 0.27911 0.20794 0.60308 0.0
N3227 N 0.27818 0.17908 0.64302 0.0
H3228 H 0.10142 0.02203 0.86833 0.0
H3229 H -0.00082 0.03434 0.89571 0.0
H3230 H 0.08243 0.02846 0.92237 0.0
H3231 H 0.01741 0.03399 0.84105 0.0
H3232 H 0.02903 0.02581 0.90545 0.0
H3233 H 0.0704 0.02127 0.8579 0.0
C3234 C 0.09073 0.02325 0.87798 0.0
C3235 C 0.09447 0.02555 0.8962 0.0
C3236 C 0.02647 0.0273 0.89129 0.0
C3237 C 0.05908 0.02444 0.88445 0.0
C3238 C 0.00937 0.03202 0.88572 0.0
C3239 C 0.0059 0.0351 0.86758 0.0
C3240 C 0.04023 0.02583 0.87864 0.0
C3241 C 0.01957 0.03184 0.85518 0.0
C3242 C 0.07305 0.02273 0.87205 0.0
C3243 C 0.08015 0.02688 0.90817 0.0
N3244 N 0.03626 0.02769 0.86097 0.0
N3245 N 0.06311 0.02639 0.90208 0.0
H3246 H 0.21025 0.83205 0.17294 0.0
H3247 H 0.2057 0.77576 0.0858 0.0
H3248 H 0.22538 0.85613 0.12282 0.0
H3249 H 0.21757 0.75246 0.13718 0.0
H3250 H 0.21397 0.80511 0.09764 0.0
H3251 H 0.21234 0.80268 0.15918 0.0
C3252 C 0.21394 0.83114 0.15897 0.0
C3253 C 0.21746 0.84651 0.14893 0.0
C3254 C 0.21524 0.79348 0.10613 0.0
C3255 C 0.21995 0.81287 0.13308 0.0
C3256 C 0.21064 0.7767 0.09937 0.0
C3257 C 0.2106 0.76171 0.11065 0.0
C3258 C 0.21954 0.79518 0.1243 0.0
C3259 C 0.21713 0.7637 0.12809 0.0
C3260 C 0.21536 0.81435 0.15119 0.0
C3261 C 0.22245 0.84454 0.13096 0.0
N3262 N 0.22091 0.7802 0.13452 0.0
N3263 N 0.2233 0.82798 0.12348 0.0
H3264 H 0.13084 0.39417 0.02348 0.0
H3265 H 0.10738 0.49811 0.02757 0.0
H3266 H 0.07763 0.41614 0.02339 0.0
H3267 H 0.15983 0.47711 0.03865 0.0
H3268 H 0.09795 0.4685 0.01782 0.0
H3269 H 0.14295 0.42463 0.02219 0.0
C3270 C 0.12173 0.40539 0.02309 0.0
C3271 C 0.10323 0.40269 0.02384 0.0
C3272 C 0.11164 0.47042 0.02206 0.0
C3273 C 0.1169 0.43737 0.02207 0.0
C3274 C 0.11707 0.48738 0.02746 0.0
C3275 C 0.13431 0.48998 0.03425 0.0
C3276 C 0.12349 0.45597 0.02356 0.0
C3277 C 0.14635 0.47562 0.03369 0.0
C3278 C 0.12863 0.42273 0.02229 0.0
C3279 C 0.09199 0.41764 0.02313 0.0
N3280 N 0.1406 0.4591 0.02881 0.0
N3281 N 0.099 0.43431 0.02237 0.0
H3282 H 0.607 0.00084 0.95973 0.0
H3283 H 0.63408 0.10253 0.97709 0.0
H3284 H 0.6615 0.01891 0.96381 0.0
H3285 H 0.58024 0.08403 0.96848 0.0
H3286 H 0.64429 0.07141 0.97726 0.0
H3287 H 0.59688 0.03037 0.96905 0.0
C3288 C 0.61685 0.01089 0.96304 0.0
C3289 C 0.6351 0.0075 0.96073 0.0
C3290 C 0.63023 0.07418 0.97546 0.0
C3291 C 0.62362 0.04148 0.97096 0.0
C3292 C 0.62442 0.09192 0.97529 0.0
C3293 C 0.60634 0.09585 0.97252 0.0
C3294 C 0.61783 0.06032 0.97289 0.0
C3295 C 0.59435 0.08162 0.97043 0.0
C3296 C 0.61107 0.02781 0.96821 0.0
C3297 C 0.64729 0.02101 0.96526 0.0
N3298 N 0.60032 0.06452 0.97057 0.0
N3299 N 0.64132 0.03752 0.96985 0.0
H3300 H 0.16787 0.32826 0.21251 0.0
H3301 H 0.22353 0.41668 0.20289 0.0
H3302 H 0.14453 0.37956 0.22442 0.0
H3303 H 0.2476 0.36495 0.21092 0.0
H3304 H 0.19479 0.40435 0.21235 0.0
H3305 H 0.19729 0.34204 0.21213 0.0
C3306 C 0.16895 0.34247 0.21498 0.0
C3307 C 0.15375 0.35284 0.21831 0.0
C3308 C 0.20646 0.39582 0.21245 0.0
C3309 C 0.18746 0.36873 0.21798 0.0
C3310 C 0.22289 0.40287 0.20717 0.0
C3311 C 0.23791 0.39174 0.20584 0.0
C3312 C 0.20507 0.3775 0.21617 0.0
C3313 C 0.23633 0.37397 0.21154 0.0
C3314 C 0.18578 0.35031 0.21496 0.0
C3315 C 0.15594 0.37114 0.22168 0.0
N3316 N 0.22012 0.36731 0.21608 0.0
N3317 N 0.17251 0.37859 0.22121 0.0
H3318 H 0.92021 0.91712 0.46183 0.0
H3319 H 0.83328 0.96574 0.42872 0.0
H3320 H 0.87039 0.88882 0.4562 0.0
H3321 H 0.87508 0.99376 0.45664 0.0
H3322 H 0.8463 0.93734 0.43824 0.0
H3323 H 0.9042 0.94538 0.45856 0.0
C3324 C 0.9059 0.91686 0.45979 0.0
C3325 C 0.8966 0.90063 0.45911 0.0
C3326 C 0.85242 0.94969 0.44261 0.0
C3327 C 0.87823 0.93287 0.45549 0.0
C3328 C 0.84496 0.96587 0.43725 0.0
C3329 C 0.85316 0.98204 0.44193 0.0
C3330 C 0.86843 0.94971 0.45229 0.0
C3331 C 0.86831 0.98155 0.45288 0.0
C3332 C 0.89676 0.93299 0.45813 0.0
C3333 C 0.87805 0.90106 0.45669 0.0
N3334 N 0.87571 0.9656 0.4574 0.0
N3335 N 0.86947 0.91694 0.45478 0.0
H3336 H 0.84902 0.13652 0.23458 0.0
H3337 H 0.78461 0.10554 0.15535 0.0
H3338 H 0.85854 0.14619 0.17857 0.0
H3339 H 0.76636 0.10835 0.20997 0.0
H3340 H 0.8138 0.11574 0.16478 0.0
H3341 H 0.82064 0.12193 0.22681 0.0
C3342 C 0.84522 0.13541 0.22066 0.0
C3343 C 0.85608 0.1426 0.20717 0.0
C3344 C 0.80349 0.11412 0.17477 0.0
C3345 C 0.82389 0.12598 0.19828 0.0
C3346 C 0.78676 0.10825 0.16941 0.0
C3347 C 0.77294 0.1063 0.18188 0.0
C3348 C 0.80657 0.11813 0.1928 0.0
C3349 C 0.77664 0.1098 0.19993 0.0
C3350 C 0.82903 0.12718 0.21627 0.0
C3351 C 0.85054 0.14091 0.18939 0.0
N3352 N 0.79315 0.11569 0.20487 0.0
N3353 N 0.83486 0.13278 0.18548 0.0
H3354 H 0.37752 0.61187 0.53988 0.0
H3355 H 0.38516 0.50529 0.53627 0.0
H3356 H 0.42661 0.58398 0.52861 0.0
H3357 H 0.34641 0.53319 0.56842 0.0
H3358 H 0.39672 0.53421 0.52589 0.0
H3359 H 0.36241 0.58299 0.54336 0.0
C3360 C 0.38506 0.59967 0.53802 0.0
C3361 C 0.40335 0.60025 0.53419 0.0
C3362 C 0.3855 0.53393 0.53499 0.0
C3363 C 0.38619 0.56736 0.53782 0.0
C3364 C 0.37883 0.51748 0.54078 0.0
C3365 C 0.36495 0.51695 0.55329 0.0
C3366 C 0.378 0.54982 0.5416 0.0
C3367 C 0.35726 0.53309 0.55887 0.0
C3368 C 0.37646 0.58325 0.53999 0.0
C3369 C 0.41252 0.58408 0.53181 0.0
N3370 N 0.36394 0.54889 0.55305 0.0
N3371 N 0.40385 0.56828 0.53368 0.0
H3372 H 0.23185 0.61403 0.28906 0.0
H3373 H 0.13356 0.64174 0.31795 0.0
H3374 H 0.20861 0.60257 0.34054 0.0
H3375 H 0.14971 0.64117 0.26265 0.0
H3376 H 0.16136 0.627 0.32599 0.0
H3377 H 0.20224 0.62343 0.27831 0.0
C3378 C 0.22051 0.61327 0.29799 0.0
C3379 C 0.22271 0.60774 0.31577 0.0
C3380 C 0.15882 0.62991 0.31205 0.0
C3381 C 0.18907 0.61851 0.30371 0.0
C3382 C 0.14294 0.63837 0.30748 0.0
C3383 C 0.13939 0.64271 0.28964 0.0
C3384 C 0.17145 0.626 0.29873 0.0
C3385 C 0.15198 0.63799 0.27657 0.0
C3386 C 0.20366 0.61863 0.29188 0.0
C3387 C 0.2076 0.60697 0.3268 0.0
N3388 N 0.1676 0.63006 0.2814 0.0
N3389 N 0.19152 0.61244 0.32065 0.0
H3390 H 0.24678 0.36071 0.79843 0.0
H3391 H 0.34857 0.38612 0.77882 0.0
H3392 H 0.26669 0.41473 0.80078 0.0
H3393 H 0.32952 0.33272 0.78909 0.0
H3394 H 0.31783 0.39714 0.78124 0.0
H3395 H 0.27601 0.3507 0.78818 0.0
C3396 C 0.25719 0.37054 0.79638 0.0
C3397 C 0.25439 0.38854 0.80068 0.0
C3398 C 0.32041 0.38301 0.78289 0.0
C3399 C 0.28797 0.37712 0.78932 0.0
C3400 C 0.33792 0.37673 0.78158 0.0
C3401 C 0.34159 0.35852 0.78398 0.0
C3402 C 0.30651 0.37094 0.78643 0.0
C3403 C 0.32732 0.3469 0.78736 0.0
C3404 C 0.27392 0.36478 0.79068 0.0
C3405 C 0.26834 0.40069 0.79772 0.0
N3406 N 0.31043 0.35331 0.78851 0.0
N3407 N 0.28464 0.39472 0.79246 0.0
H3408 H 0.96859 0.85668 0.52126 0.0
H3409 H 0.93838 0.91845 0.60302 0.0
H3410 H 0.92557 0.89494 0.52006 0.0
H3411 H 0.98731 0.88812 0.60472 0.0
H3412 H 0.93352 0.90851 0.57261 0.0
H3413 H 0.97641 0.86721 0.55152 0.0
C3414 C 0.961 0.86744 0.52723 0.0
C3415 C 0.94632 0.87485 0.51827 0.0
C3416 C 0.94536 0.90397 0.57953 0.0
C3417 C 0.95495 0.8867 0.55262 0.0
C3418 C 0.94809 0.90959 0.597 0.0
C3419 C 0.96326 0.9041 0.60642 0.0
C3420 C 0.95785 0.89266 0.5713 0.0
C3421 C 0.9754 0.89262 0.59789 0.0
C3422 C 0.96538 0.87336 0.54449 0.0
C3423 C 0.93685 0.88868 0.52657 0.0
N3424 N 0.97244 0.88724 0.58074 0.0
N3425 N 0.94125 0.89404 0.54325 0.0
H3426 H 0.82434 0.21722 0.33239 0.0
H3427 H 0.90744 0.21667 0.26585 0.0
H3428 H 0.87818 0.22914 0.34892 0.0
H3429 H 0.85349 0.20397 0.25029 0.0
H3430 H 0.89643 0.22616 0.29512 0.0
H3431 H 0.83431 0.21632 0.3014 0.0
C3432 C 0.83828 0.21966 0.32948 0.0
C3433 C 0.85051 0.22304 0.34325 0.0
C3434 C 0.88696 0.22161 0.28518 0.0
C3435 C 0.86204 0.22211 0.30774 0.0
C3436 C 0.89322 0.21635 0.26841 0.0
C3437 C 0.88137 0.20931 0.25571 0.0
C3438 C 0.86875 0.21977 0.28924 0.0
C3439 C 0.86311 0.20914 0.25976 0.0
C3440 C 0.84396 0.21923 0.31176 0.0
C3441 C 0.86836 0.22632 0.3387 0.0
N3442 N 0.85739 0.21403 0.27625 0.0
N3443 N 0.87363 0.22563 0.32132 0.0
H3444 H 0.54001 0.07477 0.08706 0.0
H3445 H 0.57116 0.15962 0.03472 0.0
H3446 H 0.54254 0.12607 0.11316 0.0
H3447 H 0.54254 0.11714 0.0085 0.0
H3448 H 0.56168 0.14784 0.06369 0.0
H3449 H 0.54269 0.08967 0.05812 0.0
C3450 C 0.54124 0.08918 0.08668 0.0
C3451 C 0.54124 0.09923 0.10249 0.0
C3452 C 0.55714 0.14132 0.0516 0.0
C3453 C 0.54422 0.1163 0.06949 0.0
C3454 C 0.56249 0.14805 0.0351 0.0
C3455 C 0.55757 0.1393 0.0193 0.0
C3456 C 0.54727 0.12544 0.05226 0.0
C3457 C 0.54646 0.12431 0.02043 0.0
C3458 C 0.54254 0.09767 0.07017 0.0
C3459 C 0.5426 0.11786 0.10125 0.0
N3460 N 0.54198 0.11758 0.0367 0.0
N3461 N 0.54426 0.12582 0.08501 0.0
H3462 H 0.61973 0.78782 0.86272 0.0
H3463 H 0.62606 0.78472 0.75599 0.0
H3464 H 0.66814 0.7756 0.83405 0.0
H3465 H 0.58812 0.8172 0.78461 0.0
H3466 H 0.63751 0.77359 0.78468 0.0
H3467 H 0.6042 0.79143 0.83408 0.0
C3468 C 0.62703 0.78577 0.8504 0.0
C3469 C 0.64527 0.78165 0.85069 0.0
C3470 C 0.62646 0.7829 0.78461 0.0
C3471 C 0.6276 0.78543 0.81807 0.0
C3472 C 0.61984 0.78911 0.76829 0.0
C3473 C 0.60627 0.80196 0.76804 0.0
C3474 C 0.61923 0.78945 0.80065 0.0
C3475 C 0.59873 0.80739 0.78431 0.0
C3476 C 0.61818 0.78781 0.83411 0.0
C3477 C 0.65412 0.77903 0.83438 0.0
N3478 N 0.60539 0.80118 0.79998 0.0
N3479 N 0.6452 0.78099 0.8187 0.0
H3480 H 0.9609 0.1603 0.97485 0.0
H3481 H 0.95144 0.07349 0.91538 0.0
H3482 H 0.95247 0.1077 0.99681 0.0
H3483 H 0.976 0.12153 0.89522 0.0
H3484 H 0.9518 0.0862 0.94536 0.0
H3485 H 0.96779 0.14674 0.9459 0.0
C3486 C 0.96097 0.14588 0.97371 0.0
C3487 C 0.95593 0.13511 0.98821 0.0
C3488 C 0.95721 0.09396 0.93443 0.0
C3489 C 0.9633 0.11959 0.95507 0.0
C3490 C 0.95685 0.08677 0.91726 0.0
C3491 C 0.96356 0.09654 0.90278 0.0
C3492 C 0.9641 0.11117 0.93715 0.0
C3493 C 0.9706 0.1136 0.90604 0.0
C3494 C 0.96479 0.13816 0.95715 0.0
C3495 C 0.9562 0.11652 0.98597 0.0
N3496 N 0.97054 0.12047 0.92288 0.0
N3497 N 0.95947 0.10936 0.96963 0.0
H3498 H 0.58292 0.17736 0.71181 0.0
H3499 H 0.66489 0.22372 0.66557 0.0
H3500 H 0.62067 0.20927 0.74126 0.0
H3501 H 0.61831 0.20712 0.63606 0.0
H3502 H 0.64836 0.2198 0.69342 0.0
H3503 H 0.5944 0.18981 0.68395 0.0
C3504 C 0.59338 0.18733 0.71238 0.0
C3505 C 0.60097 0.19226 0.72877 0.0
C3506 C 0.64167 0.21723 0.68086 0.0
C3507 C 0.61453 0.20614 0.69699 0.0
C3508 C 0.65113 0.21933 0.66496 0.0
C3509 C 0.643 0.21551 0.64853 0.0
C3510 C 0.62402 0.21099 0.68032 0.0
C3511 C 0.62511 0.21007 0.64848 0.0
C3512 C 0.59995 0.19441 0.69649 0.0
C3513 C 0.61446 0.20519 0.72886 0.0
N3514 N 0.61627 0.20773 0.66416 0.0
N3515 N 0.6211 0.21144 0.71314 0.0
H3516 H 0.54578 0.92067 0.40862 0.0
H3517 H 0.57882 0.83639 0.46114 0.0
H3518 H 0.54684 0.86895 0.38325 0.0
H3519 H 0.54974 0.87841 0.48764 0.0
H3520 H 0.56931 0.84837 0.43222 0.0
H3521 H 0.55003 0.9062 0.43763 0.0
C3522 C 0.54703 0.90627 0.40916 0.0
C3523 C 0.54611 0.89596 0.39354 0.0
C3524 C 0.56476 0.85478 0.44437 0.0
C3525 C 0.55094 0.87941 0.4266 0.0
C3526 C 0.57015 0.84796 0.46083 0.0
C3527 C 0.565 0.85646 0.4767 0.0
C3528 C 0.55461 0.87049 0.44382 0.0
C3529 C 0.55385 0.87143 0.47566 0.0
C3530 C 0.54924 0.89803 0.42571 0.0
C3531 C 0.54756 0.87735 0.395 0.0
N3532 N 0.54929 0.87822 0.45943 0.0
N3533 N 0.55012 0.86965 0.41125 0.0
H3534 H 0.86765 0.78076 0.25017 0.0
H3535 H 0.8899 0.7743 0.14588 0.0
H3536 H 0.92074 0.78727 0.22888 0.0
H3537 H 0.83702 0.7794 0.16806 0.0
H3538 H 0.90205 0.77275 0.17633 0.0
H3539 H 0.85711 0.77257 0.22044 0.0
C3540 C 0.8772 0.77998 0.23934 0.0
C3541 C 0.89504 0.78498 0.24194 0.0
C3542 C 0.88778 0.77408 0.17449 0.0
C3543 C 0.88297 0.77607 0.20778 0.0
C3544 C 0.88087 0.77504 0.15715 0.0
C3545 C 0.86247 0.77723 0.15448 0.0
C3546 C 0.87617 0.77515 0.18919 0.0
C3547 C 0.85132 0.77795 0.16951 0.0
C3548 C 0.87114 0.77547 0.22231 0.0
C3549 C 0.90683 0.78364 0.22742 0.0
N3550 N 0.85835 0.77697 0.18619 0.0
N3551 N 0.90053 0.77963 0.21086 0.0
H3552 H 0.59461 0.98784 0.89435 0.0
H3553 H 0.53519 0.91075 0.85046 0.0
H3554 H 0.61084 0.93287 0.88861 0.0
H3555 H 0.51353 0.96245 0.86379 0.0
H3556 H 0.56438 0.92063 0.86037 0.0
H3557 H 0.56623 0.9806 0.8796 0.0
C3558 C 0.59227 0.97431 0.88984 0.0
C3559 C 0.60504 0.9609 0.89277 0.0
C3560 C 0.55332 0.92991 0.86109 0.0
C3561 C 0.57277 0.95258 0.87594 0.0
C3562 C 0.53661 0.92428 0.85539 0.0
C3563 C 0.52186 0.93575 0.8565 0.0
C3564 C 0.55542 0.94715 0.86808 0.0
C3565 C 0.52457 0.95318 0.8628 0.0
C3566 C 0.57607 0.97019 0.88149 0.0
C3567 C 0.60134 0.94359 0.88671 0.0
N3568 N 0.54105 0.95834 0.86853 0.0
N3569 N 0.58556 0.93995 0.87864 0.0
H3570 H 0.78808 0.77265 0.58571 0.0
H3571 H 0.78445 0.83092 0.67456 0.0
H3572 H 0.79285 0.75061 0.63875 0.0
H3573 H 0.77505 0.85272 0.62204 0.0
H3574 H 0.78457 0.80095 0.66179 0.0
H3575 H 0.77938 0.80128 0.59875 0.0
C3576 C 0.78686 0.7737 0.60009 0.0
C3577 C 0.79141 0.75929 0.61118 0.0
C3578 C 0.78236 0.81225 0.65304 0.0
C3579 C 0.78188 0.79212 0.62619 0.0
C3580 C 0.78239 0.82939 0.66032 0.0
C3581 C 0.77994 0.84434 0.6493 0.0
C3582 C 0.78001 0.81001 0.63456 0.0
C3583 C 0.77713 0.84155 0.63098 0.0
C3584 C 0.78201 0.7901 0.60754 0.0
C3585 C 0.78958 0.76141 0.62971 0.0
N3586 N 0.7774 0.82472 0.62415 0.0
N3587 N 0.78524 0.7776 0.63664 0.0
H3588 H 0.90824 0.02786 0.41902 0.0
H3589 H 0.973 0.03809 0.33609 0.0
H3590 H 0.89009 0.02431 0.36443 0.0
H3591 H 0.99094 0.03456 0.39075 0.0
H3592 H 0.94331 0.02852 0.34558 0.0
H3593 H 0.93899 0.02677 0.40858 0.0
C3594 C 0.91075 0.02684 0.4048 0.0
C3595 C 0.89663 0.02646 0.39253 0.0
C3596 C 0.95384 0.02946 0.35544 0.0
C3597 C 0.93186 0.02516 0.38045 0.0
C3598 C 0.97083 0.0348 0.35001 0.0
C3599 C 0.98435 0.03743 0.36272 0.0
C3600 C 0.95037 0.0269 0.37371 0.0
C3601 C 0.98083 0.03293 0.38055 0.0
C3602 C 0.92833 0.02608 0.39885 0.0
C3603 C 0.90063 0.02483 0.3743 0.0
N3604 N 0.96409 0.02822 0.38557 0.0
N3605 N 0.91791 0.02446 0.36877 0.0
H3606 H 0.67019 0.23149 0.14219 0.0
H3607 H 0.72186 0.14252 0.11761 0.0
H3608 H 0.70681 0.22964 0.09784 0.0
H3609 H 0.70042 0.15347 0.16998 0.0
H3610 H 0.71582 0.17364 0.10907 0.0
H3611 H 0.68069 0.20233 0.15191 0.0
C3612 C 0.68065 0.22496 0.13463 0.0
C3613 C 0.68768 0.23288 0.11922 0.0
C3614 C 0.71257 0.1692 0.12245 0.0
C3615 C 0.69952 0.19928 0.13001 0.0
C3616 C 0.71588 0.15146 0.12728 0.0
C3617 C 0.71149 0.14541 0.14447 0.0
C3618 C 0.70464 0.18081 0.13486 0.0
C3619 C 0.70393 0.15754 0.15655 0.0
C3620 C 0.68664 0.20832 0.14017 0.0
C3621 C 0.70119 0.22394 0.10987 0.0
N3622 N 0.70063 0.17459 0.15147 0.0
N3623 N 0.70653 0.20739 0.11527 0.0
H3624 H 0.60636 0.01755 0.63205 0.0
H3625 H 0.51037 0.05019 0.60048 0.0
H3626 H 0.59221 0.02998 0.57757 0.0
H3627 H 0.52025 0.03172 0.65408 0.0
H3628 H 0.53969 0.03951 0.59153 0.0
H3629 H 0.57472 0.02002 0.64039 0.0
C3630 C 0.5966 0.02069 0.62185 0.0
C3631 C 0.60193 0.02379 0.60414 0.0
C3632 C 0.53545 0.03745 0.60521 0.0
C3633 C 0.56587 0.02651 0.61351 0.0
C3634 C 0.51865 0.04346 0.61026 0.0
C3635 C 0.51297 0.04174 0.62798 0.0
C3636 C 0.54692 0.03008 0.61808 0.0
C3637 C 0.52418 0.03308 0.64023 0.0
C3638 C 0.57857 0.02202 0.62659 0.0
C3639 C 0.58876 0.02768 0.59142 0.0
N3640 N 0.54084 0.02784 0.63513 0.0
N3641 N 0.57142 0.02904 0.59638 0.0
H3642 H 0.70554 0.7558 0.3672 0.0
H3643 H 0.70377 0.86191 0.37924 0.0
H3644 H 0.67378 0.78215 0.40735 0.0
H3645 H 0.71317 0.83579 0.32872 0.0
H3646 H 0.69931 0.83254 0.39313 0.0
H3647 H 0.71591 0.78512 0.35676 0.0
C3648 C 0.70117 0.76773 0.37412 0.0
C3649 C 0.68874 0.76668 0.38804 0.0
C3650 C 0.70241 0.8333 0.37902 0.0
C3651 C 0.70034 0.79999 0.3762 0.0
C3652 C 0.70488 0.85 0.3711 0.0
C3653 C 0.70859 0.85122 0.35279 0.0
C3654 C 0.70403 0.81779 0.3686 0.0
C3655 C 0.71006 0.83541 0.34284 0.0
C3656 C 0.70691 0.78441 0.36806 0.0
C3657 C 0.68329 0.78249 0.39647 0.0
N3658 N 0.70782 0.81933 0.35089 0.0
N3659 N 0.68905 0.79854 0.39036 0.0
H3660 H 0.9753 0.95709 0.15938 0.0
H3661 H 0.91532 0.97894 0.07515 0.0
H3662 H 0.99608 0.96566 0.10632 0.0
H3663 H 0.89445 0.97525 0.12874 0.0
H3664 H 0.94552 0.97861 0.0872 0.0
H3665 H 0.9466 0.96912 0.1497 0.0
C3666 C 0.97399 0.96201 0.14584 0.0
C3667 C 0.98797 0.96004 0.13352 0.0
C3668 C 0.93437 0.97804 0.09638 0.0
C3669 C 0.95508 0.9734 0.12226 0.0
C3670 C 0.91712 0.97811 0.08949 0.0
C3671 C 0.9024 0.97682 0.10096 0.0
C3672 C 0.93697 0.97643 0.11489 0.0
C3673 C 0.90547 0.97607 0.11943 0.0
C3674 C 0.95754 0.96875 0.14028 0.0
C3675 C 0.98557 0.9667 0.11618 0.0
N3676 N 0.92245 0.97565 0.12583 0.0
N3677 N 0.96931 0.97274 0.11096 0.0
H3678 H 0.82869 0.23228 0.85332 0.0
H3679 H 0.7646 0.14739 0.86259 0.0
H3680 H 0.78531 0.23099 0.89115 0.0
H3681 H 0.80886 0.1518 0.82598 0.0
H3682 H 0.77074 0.17793 0.87306 0.0
H3683 H 0.81993 0.20316 0.84241 0.0
C3684 C 0.81718 0.22586 0.85926 0.0
C3685 C 0.80777 0.23398 0.87324 0.0
C3686 C 0.77907 0.17215 0.86275 0.0
C3687 C 0.79771 0.20026 0.86091 0.0
C3688 C 0.77565 0.15474 0.85684 0.0
C3689 C 0.78629 0.14706 0.84344 0.0
C3690 C 0.79321 0.18185 0.85515 0.0
C3691 C 0.80033 0.15715 0.83636 0.0
C3692 C 0.81218 0.20915 0.85304 0.0
C3693 C 0.79287 0.22513 0.88032 0.0
N3694 N 0.80335 0.17396 0.84229 0.0
N3695 N 0.78836 0.20858 0.87417 0.0
H3696 H 0.92066 0.57944 0.96507 0.0
H3697 H 0.83277 0.52032 0.96787 0.0
H3698 H 0.86931 0.60077 0.97998 0.0
H3699 H 0.88569 0.49874 0.96095 0.0
H3700 H 0.84589 0.54916 0.97576 0.0
H3701 H 0.90818 0.54942 0.96587 0.0
C3702 C 0.90672 0.57779 0.9685 0.0
C3703 C 0.89595 0.59263 0.97226 0.0
C3704 C 0.85464 0.53802 0.97287 0.0
C3705 C 0.88152 0.55819 0.97327 0.0
C3706 C 0.84715 0.5215 0.9685 0.0
C3707 C 0.85816 0.50717 0.96351 0.0
C3708 C 0.87324 0.54022 0.97209 0.0
C3709 C 0.8767 0.50947 0.96455 0.0
C3710 C 0.89962 0.56061 0.96909 0.0
C3711 C 0.87804 0.58968 0.97685 0.0
N3712 N 0.88364 0.52576 0.96842 0.0
N3713 N 0.87132 0.5728 0.97706 0.0
H3714 H 0.40811 0.91437 0.01288 0.0
H3715 H 0.33192 0.96331 0.06477 0.0
H3716 H 0.35963 0.88785 0.02897 0.0
H3717 H 0.37068 0.99228 0.03367 0.0
H3718 H 0.34024 0.93591 0.04928 0.0
H3719 H 0.39359 0.94321 0.01765 0.0
C3720 C 0.3943 0.91463 0.01712 0.0
C3721 C 0.38513 0.89872 0.02081 0.0
C3722 C 0.34671 0.94828 0.04552 0.0
C3723 C 0.36852 0.93163 0.0265 0.0
C3724 C 0.34197 0.96391 0.05438 0.0
C3725 C 0.35076 0.97997 0.05055 0.0
C3726 C 0.36072 0.9486 0.03308 0.0
C3727 C 0.36362 0.98012 0.03697 0.0
C3728 C 0.386 0.9311 0.01979 0.0
C3729 C 0.36723 0.8998 0.02612 0.0
N3730 N 0.36852 0.96454 0.02896 0.0
N3731 N 0.35961 0.91599 0.02914 0.0
H3732 H 0.76755 0.58698 0.79183 0.0
H3733 H 0.83091 0.67131 0.77932 0.0
H3734 H 0.74891 0.64142 0.78912 0.0
H3735 H 0.85024 0.61706 0.77761 0.0
H3736 H 0.80042 0.66016 0.77997 0.0
H3737 H 0.79725 0.59708 0.78275 0.0
C3738 C 0.76958 0.60098 0.78884 0.0
C3739 C 0.75582 0.61342 0.79144 0.0
C3740 C 0.81128 0.65064 0.77935 0.0
C3741 C 0.78978 0.6251 0.78146 0.0
C3742 C 0.82873 0.65702 0.7791 0.0
C3743 C 0.84312 0.64508 0.77862 0.0
C3744 C 0.80814 0.63216 0.7793 0.0
C3745 C 0.83949 0.62671 0.77813 0.0
C3746 C 0.78658 0.60676 0.78381 0.0
C3747 C 0.75918 0.6314 0.78744 0.0
N3748 N 0.82234 0.62079 0.77864 0.0
N3749 N 0.77588 0.63673 0.78292 0.0
H3750 H 0.06686 0.07942 0.52787 0.0
H3751 H 0.15514 0.03211 0.55801 0.0
H3752 H 0.11653 0.10818 0.53223 0.0
H3753 H 0.11212 0.0031 0.53314 0.0
H3754 H 0.14201 0.06009 0.54757 0.0
H3755 H 0.08333 0.05129 0.52925 0.0
C3756 C 0.08126 0.07979 0.52907 0.0
C3757 C 0.09036 0.09611 0.53016 0.0
C3758 C 0.13563 0.0476 0.54403 0.0
C3759 C 0.10926 0.06401 0.53177 0.0
C3760 C 0.14314 0.03165 0.54995 0.0
C3761 C 0.13462 0.01535 0.54647 0.0
C3762 C 0.11925 0.04726 0.53498 0.0
C3763 C 0.1191 0.01542 0.53603 0.0
C3764 C 0.09065 0.06374 0.52969 0.0
C3765 C 0.10901 0.09586 0.53147 0.0
N3766 N 0.11167 0.0312 0.53097 0.0
N3767 N 0.11785 0.08004 0.5325 0.0
H3768 H 0.23489 0.88996 0.79076 0.0
H3769 H 0.14476 0.84174 0.82051 0.0
H3770 H 0.21788 0.88341 0.84546 0.0
H3771 H 0.15219 0.86129 0.7668 0.0
H3772 H 0.17276 0.85571 0.8292 0.0
H3773 H 0.20571 0.87845 0.78083 0.0
C3774 C 0.22503 0.8862 0.80064 0.0
C3775 C 0.22884 0.88755 0.81894 0.0
C3776 C 0.16827 0.85708 0.81552 0.0
C3777 C 0.19575 0.87436 0.80779 0.0
C3778 C 0.15228 0.84907 0.81056 0.0
C3779 C 0.14617 0.85039 0.79293 0.0
C3780 C 0.1784 0.86633 0.80273 0.0
C3781 C 0.15644 0.86005 0.78057 0.0
C3782 C 0.20842 0.87968 0.79499 0.0
C3783 C 0.2156 0.88253 0.83121 0.0
N3784 N 0.17218 0.86757 0.78567 0.0
N3785 N 0.19976 0.87609 0.82541 0.0
H3786 H 0.65914 0.4591 0.42138 0.0
H3787 H 0.57642 0.40991 0.46131 0.0
H3788 H 0.61953 0.48775 0.45175 0.0
H3789 H 0.62752 0.38349 0.45911 0.0
H3790 H 0.59126 0.43846 0.45558 0.0
H3791 H 0.64767 0.43096 0.43348 0.0
C3792 C 0.64826 0.45945 0.4309 0.0
C3793 C 0.64023 0.47568 0.43562 0.0
C3794 C 0.59922 0.42642 0.45649 0.0
C3795 C 0.62674 0.44367 0.44896 0.0
C3796 C 0.59077 0.41014 0.45956 0.0
C3797 C 0.60078 0.39436 0.46052 0.0
C3798 C 0.61775 0.42685 0.45396 0.0
C3799 C 0.61934 0.39538 0.45839 0.0
C3800 C 0.64173 0.44343 0.43776 0.0
C3801 C 0.62613 0.47548 0.4479 0.0
N3802 N 0.62724 0.41136 0.45494 0.0
N3803 N 0.61955 0.45965 0.45389 0.0
H3804 H 0.78917 0.40124 0.65845 0.0
H3805 H 0.85331 0.36366 0.73501 0.0
H3806 H 0.76998 0.38818 0.71121 0.0
H3807 H 0.86683 0.36663 0.67907 0.0
H3808 H 0.82443 0.37768 0.72838 0.0
H3809 H 0.81931 0.39405 0.66786 0.0
C3810 C 0.79133 0.39695 0.67211 0.0
C3811 C 0.77701 0.39504 0.68401 0.0
C3812 C 0.83382 0.37543 0.71762 0.0
C3813 C 0.81166 0.3866 0.69486 0.0
C3814 C 0.85031 0.36752 0.72139 0.0
C3815 C 0.86239 0.3639 0.70752 0.0
C3816 C 0.82955 0.37986 0.69991 0.0
C3817 C 0.85786 0.36908 0.69013 0.0
C3818 C 0.80859 0.39283 0.67747 0.0
C3819 C 0.78066 0.38971 0.7016 0.0
N3820 N 0.84179 0.37672 0.68682 0.0
N3821 N 0.79767 0.38546 0.70648 0.0
H3822 H 0.7082 0.60185 0.16435 0.0
H3823 H 0.65099 0.65582 0.23635 0.0
H3824 H 0.73162 0.62541 0.21141 0.0
H3825 H 0.63024 0.63491 0.18682 0.0
H3826 H 0.67965 0.64132 0.23004 0.0
H3827 H 0.67875 0.61003 0.17514 0.0
C3828 C 0.70711 0.60863 0.17709 0.0
C3829 C 0.72237 0.61317 0.18691 0.0
C3830 C 0.66876 0.63976 0.22067 0.0
C3831 C 0.68856 0.62284 0.1993 0.0
C3832 C 0.6524 0.64799 0.22426 0.0
C3833 C 0.63828 0.64667 0.21199 0.0
C3834 C 0.67095 0.63013 0.20472 0.0
C3835 C 0.6408 0.63638 0.19658 0.0
C3836 C 0.69025 0.61332 0.18325 0.0
C3837 C 0.72016 0.62174 0.20342 0.0
N3838 N 0.65684 0.62862 0.19334 0.0
N3839 N 0.70353 0.62654 0.20902 0.0
H3840 H 0.51039 0.62172 0.89594 0.0
H3841 H 0.53339 0.60666 -0.00083 0.0
H3842 H 0.53113 0.57283 0.91827 0.0
H3843 H 0.53223 0.65891 0.97489 0.0
H3844 H 0.52354 0.5937 0.97092 0.0
H3845 H 0.51066 0.63505 0.92598 0.0
C3846 C 0.5149 0.61379 0.90717 0.0
C3847 C 0.52098 0.59626 0.90464 0.0
C3848 C 0.52513 0.60804 0.97187 0.0
C3849 C 0.52092 0.61118 0.93885 0.0
C3850 C 0.53059 0.61547 0.98804 0.0
C3851 C 0.53393 0.63385 0.98927 0.0
C3852 C 0.52295 0.61907 0.95686 0.0
C3853 C 0.52999 0.64464 0.97444 0.0
C3854 C 0.51501 0.62137 0.92425 0.0
C3855 C 0.52657 0.58649 0.9196 0.0
N3856 N 0.52497 0.63705 0.95871 0.0
N3857 N 0.52641 0.59408 0.93605 0.0
H3858 H 0.61317 0.27984 0.14449 0.0
H3859 H 0.63894 0.29553 0.24716 0.0
H3860 H 0.66597 0.29346 0.16298 0.0
H3861 H 0.58467 0.29074 0.22855 0.0
H3862 H 0.64946 0.28958 0.21685 0.0
H3863 H 0.60273 0.27994 0.17553 0.0
C3864 C 0.62253 0.28296 0.15506 0.0
C3865 C 0.64042 0.28681 0.15115 0.0
C3866 C 0.63525 0.28958 0.21944 0.0
C3867 C 0.62869 0.2866 0.18664 0.0
C3868 C 0.62924 0.29278 0.23679 0.0
C3869 C 0.6109 0.2938 0.24034 0.0
C3870 C 0.62282 0.28739 0.20555 0.0
C3871 C 0.59893 0.29017 0.22637 0.0
C3872 C 0.6166 0.28291 0.17277 0.0
C3873 C 0.65202 0.29058 0.16537 0.0
N3874 N 0.6051 0.28735 0.20953 0.0
N3875 N 0.64596 0.29036 0.18246 0.0
H3876 H 0.98171 0.37428 0.39243 0.0
H3877 H 0.95061 0.39822 0.49185 0.0
H3878 H 0.95374 0.42227 0.40768 0.0
H3879 H 0.96561 0.34485 0.47623 0.0
H3880 H 0.95843 0.40885 0.4621 0.0
H3881 H 0.9813 0.36457 0.42382 0.0
C3882 C 0.97549 0.38275 0.40237 0.0
C3883 C 0.96758 0.39901 0.39745 0.0
C3884 C 0.96027 0.39485 0.46521 0.0
C3885 C 0.96739 0.38821 0.43323 0.0
C3886 C 0.95595 0.3888 0.48225 0.0
C3887 C 0.95728 0.37061 0.48642 0.0
C3888 C 0.96585 0.3826 0.45216 0.0
C3889 C 0.96436 0.359 0.47351 0.0
C3890 C 0.97532 0.37724 0.42024 0.0
C3891 C 0.95983 0.40955 0.41084 0.0
N3892 N 0.96814 0.36514 0.45681 0.0
N3893 N 0.95994 0.40397 0.42808 0.0
H3894 H 0.87987 0.71535 0.73346 0.0
H3895 H 0.86188 0.68398 0.63304 0.0
H3896 H 0.89283 0.66334 0.71231 0.0
H3897 H 0.85503 0.73869 0.64972 0.0
H3898 H 0.87474 0.67703 0.66206 0.0
H3899 H 0.87219 0.72523 0.70299 0.0
C3900 C 0.88129 0.70611 0.72242 0.0
C3901 C 0.88676 0.68845 0.72542 0.0
C3902 C 0.87059 0.69062 0.65941 0.0
C3903 C 0.87803 0.69953 0.6908 0.0
C3904 C 0.86324 0.69458 0.6428 0.0
C3905 C 0.85732 0.7119 0.63902 0.0
C3906 C 0.87185 0.70402 0.6725 0.0
C3907 C 0.85946 0.72514 0.65214 0.0
C3908 C 0.8769 0.71172 0.70508 0.0
C3909 C 0.88842 0.67701 0.71068 0.0
N3910 N 0.86638 0.72089 0.66842 0.0
N3911 N 0.88397 0.6827 0.69411 0.0
H3912 H 0.52243 0.36511 0.60859 0.0
H3913 H 0.54444 0.39303 0.50806 0.0
H3914 H 0.53448 0.41866 0.59107 0.0
H3915 H 0.53598 0.3384 0.52414 0.0
H3916 H 0.5351 0.40293 0.5376 0.0
H3917 H 0.5227 0.35526 0.57729 0.0
C3918 C 0.52506 0.37478 0.59816 0.0
C3919 C 0.52868 0.39267 0.60241 0.0
C3920 C 0.53499 0.38877 0.53466 0.0
C3921 C 0.5288 0.3816 0.56673 0.0
C3922 C 0.54021 0.38314 0.51774 0.0
C3923 C 0.54112 0.36489 0.51376 0.0
C3924 C 0.53094 0.37605 0.54783 0.0
C3925 C 0.53544 0.35261 0.52673 0.0
C3926 C 0.52514 0.36918 0.58033 0.0
C3927 C 0.53184 0.40469 0.58842 0.0
N3928 N 0.53089 0.3584 0.54335 0.0
N3929 N 0.53191 0.39892 0.57126 0.0
H3930 H 0.85928 0.30215 0.74957 0.0
H3931 H 0.88057 0.28606 0.85319 0.0
H3932 H 0.91255 0.29588 0.77052 0.0
H3933 H 0.82819 0.29819 0.83259 0.0
H3934 H 0.89233 0.2869 0.8227 0.0
H3935 H 0.8473 0.29664 0.77943 0.0
C3936 C 0.86844 0.29918 0.76036 0.0
C3937 C 0.88694 0.2996 0.75759 0.0
C3938 C 0.87827 0.28942 0.82486 0.0
C3939 C 0.87336 0.29372 0.79186 0.0
C3940 C 0.87158 0.28907 0.84226 0.0
C3941 C 0.85341 0.29219 0.84543 0.0
C3942 C 0.86668 0.29284 0.8105 0.0
C3943 C 0.84232 0.29584 0.83077 0.0
C3944 C 0.8616 0.29624 0.77746 0.0
C3945 C 0.89819 0.29575 0.77208 0.0
N3946 N 0.84913 0.29604 0.81395 0.0
N3947 N 0.89123 0.29317 0.78864 0.0
H3948 H 0.95785 0.66015 0.02151 0.0
H3949 H 0.967 0.57536 0.08307 0.0
H3950 H 0.96355 0.60656 0.00114 0.0
H3951 H 0.97556 0.62866 0.10317 0.0
H3952 H 0.96804 0.5869 0.05267 0.0
H3953 H 0.96769 0.64969 0.05086 0.0
C3954 C 0.96171 0.6463 0.02306 0.0
C3955 C 0.95957 0.63413 0.00895 0.0
C3956 C 0.96988 0.5961 0.06367 0.0
C3957 C 0.97038 0.62202 0.04254 0.0
C3958 C 0.96913 0.58953 0.08106 0.0
C3959 C 0.97095 0.60113 0.09563 0.0
C3960 C 0.97214 0.61449 0.06079 0.0
C3961 C 0.97395 0.61931 0.09226 0.0
C3962 C 0.96721 0.64031 0.03986 0.0
C3963 C 0.96478 0.61636 0.0117 0.0
N3964 N 0.9742 0.6255 0.07516 0.0
N3965 N 0.96958 0.61076 0.02827 0.0
H3966 H 0.6356 0.71609 0.24764 0.0
H3967 H 0.61082 0.72843 0.35067 0.0
H3968 H 0.58156 0.71774 0.2674 0.0
H3969 H 0.66404 0.7195 0.3306 0.0
H3970 H 0.59999 0.73049 0.31981 0.0
H3971 H 0.6463 0.72449 0.27728 0.0
C3972 C 0.62595 0.71871 0.25808 0.0
C3973 C 0.60769 0.71591 0.25515 0.0
C3974 C 0.61406 0.72822 0.32219 0.0
C3975 C 0.61985 0.72508 0.28919 0.0
C3976 C 0.62022 0.72697 0.33977 0.0
C3977 C 0.63829 0.72352 0.34316 0.0
C3978 C 0.6261 0.72608 0.30795 0.0
C3979 C 0.64995 0.72193 0.32859 0.0
C3980 C 0.63207 0.72334 0.27506 0.0
C3981 C 0.59578 0.71956 0.26915 0.0
N3982 N 0.64364 0.72312 0.31164 0.0
N3983 N 0.60208 0.72363 0.28568 0.0
H3984 H 0.89166 0.53178 0.62672 0.0
H3985 H 0.97301 0.59841 0.61735 0.0
H3986 H 0.90109 0.56359 0.5796 0.0
H3987 H 0.97853 0.55016 0.64837 0.0
H3988 H 0.9443 0.58794 0.60647 0.0
H3989 H 0.92131 0.54038 0.63799 0.0
C3990 C 0.89992 0.54063 0.61882 0.0
C3991 C 0.89394 0.54708 0.60226 0.0
C3992 C 0.95178 0.57958 0.6156 0.0
C3993 C 0.92754 0.55691 0.61502 0.0
C3994 C 0.96814 0.58556 0.62189 0.0
C3995 C 0.97811 0.57512 0.63379 0.0
C3996 C 0.9451 0.56313 0.62147 0.0
C3997 C 0.97122 0.55854 0.63913 0.0
C3998 C 0.91683 0.54538 0.62517 0.0
C3999 C 0.90518 0.55835 0.59244 0.0
N4000 N 0.95496 0.55308 0.63305 0.0
N4001 N 0.92137 0.56302 0.59903 0.0
H4002 H 0.71426 0.74681 0.85867 0.0
H4003 H 0.72595 0.64259 0.87854 0.0
H4004 H 0.71019 0.72483 0.91181 0.0
H4005 H 0.70894 0.66483 0.82816 0.0
H4006 H 0.72804 0.673 0.8908 0.0
H4007 H 0.7217 0.71718 0.84733 0.0
C4008 C 0.71545 0.73586 0.86805 0.0
C4009 C 0.71128 0.73822 0.88616 0.0
C4010 C 0.72397 0.67115 0.87704 0.0
C4011 C 0.71948 0.70426 0.87321 0.0
C4012 C 0.72271 0.65386 0.87007 0.0
C4013 C 0.71702 0.65124 0.8524 0.0
C4014 C 0.71985 0.68583 0.86611 0.0
C4015 C 0.71312 0.66625 0.84193 0.0
C4016 C 0.71952 0.71891 0.86153 0.0
C4017 C 0.71313 0.72355 0.89771 0.0
N4018 N 0.71462 0.68289 0.84894 0.0
N4019 N 0.71681 0.70708 0.89099 0.0
H4020 H 0.5895 0.46863 0.08354 0.0
H4021 H 0.53439 0.42349 0.16039 0.0
H4022 H 0.61372 0.45534 0.13412 0.0
H4023 H 0.50944 0.45901 0.12257 0.0
H4024 H 0.56366 0.43407 0.15066 0.0
H4025 H 0.56004 0.4639 0.09677 0.0
C4026 C 0.5886 0.4647 0.09744 0.0
C4027 C 0.60403 0.4622 0.10775 0.0
C4028 C 0.5518 0.43978 0.14469 0.0
C4029 C 0.57045 0.45677 0.12289 0.0
C4030 C 0.53513 0.43375 0.15021 0.0
C4031 C 0.51958 0.4404 0.1422 0.0
C4032 C 0.55293 0.45219 0.13072 0.0
C4033 C 0.52117 0.45365 0.1291 0.0
C4034 C 0.5718 0.46217 0.10501 0.0
C4035 C 0.60213 0.45732 0.12572 0.0
N4036 N 0.53762 0.45891 0.12349 0.0
N4037 N 0.58562 0.45453 0.13269 0.0
H4038 H 0.78766 0.36531 0.37772 0.0
H4039 H 0.78438 0.25892 0.36797 0.0
H4040 H 0.77576 0.33818 0.32828 0.0
H4041 H 0.81563 0.28649 0.40768 0.0
H4042 H 0.7731 0.28789 0.35734 0.0
H4043 H 0.7905 0.33626 0.39255 0.0
C4044 C 0.78555 0.35324 0.37003 0.0
C4045 C 0.78176 0.35408 0.35172 0.0
C4046 C 0.78214 0.28751 0.36862 0.0
C4047 C 0.78464 0.32098 0.36859 0.0
C4048 C 0.7884 0.27103 0.37478 0.0
C4049 C 0.801 0.27047 0.38858 0.0
C4050 C 0.78839 0.30333 0.37655 0.0
C4051 C 0.80601 0.28647 0.39688 0.0
C4052 C 0.78712 0.33671 0.37849 0.0
C4053 C 0.77898 0.33808 0.34238 0.0
N4054 N 0.7998 0.30229 0.39065 0.0
N4055 N 0.78054 0.32215 0.35091 0.0
H4056 H 0.87836 0.43437 0.89045 0.0
H4057 H 0.97765 0.4674 0.87041 0.0
H4058 H 0.8947 0.48903 0.8984 0.0
H4059 H 0.95686 0.41538 0.85696 0.0
H4060 H 0.94732 0.47675 0.87902 0.0
H4061 H 0.90696 0.42812 0.87645 0.0
C4062 C 0.88795 0.44511 0.8891 0.0
C4063 C 0.88422 0.4622 0.89566 0.0
C4064 C 0.94944 0.46337 0.87399 0.0
C4065 C 0.91721 0.45513 0.87981 0.0
C4066 C 0.9667 0.45806 0.86907 0.0
C4067 C 0.96978 0.44054 0.86321 0.0
C4068 C 0.93533 0.45101 0.87299 0.0
C4069 C 0.95517 0.42895 0.86166 0.0
C4070 C 0.90432 0.44155 0.88109 0.0
C4071 C 0.8971 0.47565 0.8935 0.0
N4072 N 0.93867 0.43434 0.86664 0.0
N4073 N 0.91316 0.47178 0.88592 0.0
H4074 H 0.7747 0.64981 0.11275 0.0
H4075 H 0.79079 0.7521 0.13813 0.0
H4076 H 0.77492 0.67068 0.16647 0.0
H4077 H 0.79951 0.73063 0.08535 0.0
H4078 H 0.7776 0.7237 0.14714 0.0
H4079 H 0.77748 0.68036 0.10127 0.0
C4080 C 0.77522 0.66083 0.1221 0.0
C4081 C 0.77486 0.65773 0.14058 0.0
C4082 C 0.7821 0.72529 0.13349 0.0
C4083 C 0.77783 0.6926 0.1276 0.0
C4084 C 0.78949 0.74157 0.12829 0.0
C4085 C 0.79653 0.7436 0.11106 0.0
C4086 C 0.78185 0.71095 0.12139 0.0
C4087 C 0.79441 0.72955 0.09883 0.0
C4088 C 0.77675 0.67824 0.11556 0.0
C4089 C 0.77541 0.67246 0.15213 0.0
N4090 N 0.78755 0.71368 0.10433 0.0
N4091 N 0.77697 0.68923 0.14545 0.0
H4092 H 0.5017 0.53856 0.38779 0.0
H4093 H 0.60218 0.52011 0.35738 0.0
H4094 H 0.51958 0.54338 0.33321 0.0
H4095 H 0.58439 0.52391 0.41207 0.0
H4096 H 0.57102 0.52249 0.34749 0.0
H4097 H 0.53066 0.52612 0.39589 0.0
C4098 C 0.5116 0.53662 0.37742 0.0
C4099 C 0.50835 0.54225 0.35987 0.0
C4100 C 0.57396 0.52262 0.36165 0.0
C4101 C 0.54168 0.52842 0.3691 0.0
C4102 C 0.59171 0.52129 0.36729 0.0
C4103 C 0.59584 0.52209 0.38554 0.0
C4104 C 0.56034 0.52463 0.37441 0.0
C4105 C 0.58181 0.52351 0.39785 0.0
C4106 C 0.52818 0.52963 0.38207 0.0
C4107 C 0.52161 0.53933 0.34695 0.0
N4108 N 0.56473 0.52483 0.39205 0.0
N4109 N 0.53784 0.53289 0.35188 0.0
H4110 H 0.70821 0.27189 0.58713 0.0
H4111 H 0.72169 0.33701 0.67032 0.0
H4112 H 0.70957 0.25452 0.64208 0.0
H4113 H 0.72215 0.35522 0.61563 0.0
H4114 H 0.7204 0.30627 0.6598 0.0
H4115 H 0.71733 0.30177 0.59674 0.0
C4116 C 0.71088 0.27424 0.60116 0.0
C4117 C 0.70795 0.26078 0.61386 0.0
C4118 C 0.72086 0.31694 0.65005 0.0
C4119 C 0.718 0.29494 0.62496 0.0
C4120 C 0.72151 0.33453 0.65607 0.0
C4121 C 0.72183 0.34868 0.64382 0.0
C4122 C 0.72042 0.31343 0.63163 0.0
C4123 C 0.72177 0.34467 0.62551 0.0
C4124 C 0.71594 0.29134 0.60665 0.0
C4125 C 0.71153 0.26456 0.63185 0.0
N4126 N 0.72094 0.3274 0.61995 0.0
N4127 N 0.71613 0.28134 0.63689 0.0
H4128 H 0.59273 0.90914 0.52196 0.0
H4129 H 0.6683 0.96117 0.5711 0.0
H4130 H 0.64286 0.88392 0.53482 0.0
H4131 H 0.63075 0.98838 0.53702 0.0
H4132 H 0.65987 0.9328 0.55738 0.0
H4133 H 0.60644 0.93834 0.52691 0.0
C4134 C 0.60668 0.90978 0.5257 0.0
C4135 C 0.61665 0.89414 0.52821 0.0
C4136 C 0.65373 0.94499 0.55261 0.0
C4137 C 0.63235 0.92743 0.534 0.0
C4138 C 0.65852 0.96116 0.56044 0.0
C4139 C 0.65011 0.97703 0.5552 0.0
C4140 C 0.64006 0.94466 0.53982 0.0
C4141 C 0.63754 0.97638 0.54136 0.0
C4142 C 0.61452 0.92644 0.52839 0.0
C4143 C 0.6347 0.89569 0.53286 0.0
N4144 N 0.63258 0.96036 0.53438 0.0
N4145 N 0.64191 0.91206 0.53592 0.0
H4146 H 0.08313 0.58819 0.48085 0.0
H4147 H 0.15068 0.53615 0.41767 0.0
H4148 H 0.1174 0.61415 0.4425 0.0
H4149 H 0.12337 0.51081 0.46158 0.0
H4150 H 0.14011 0.56509 0.42804 0.0
H4151 H 0.09873 0.56004 0.4753 0.0
C4152 C 0.09401 0.58798 0.47132 0.0
C4153 C 0.09889 0.60348 0.46198 0.0
C4154 C 0.13657 0.55328 0.43559 0.0
C4155 C 0.11676 0.57134 0.45558 0.0
C4156 C 0.14262 0.53674 0.42967 0.0
C4157 C 0.13775 0.52109 0.43872 0.0
C4158 C 0.12531 0.5542 0.45053 0.0
C4159 C 0.1274 0.52259 0.45424 0.0
C4160 C 0.10294 0.57192 0.46822 0.0
C4161 C 0.11314 0.60249 0.44991 0.0
N4162 N 0.12128 0.53887 0.45953 0.0
N4163 N 0.12147 0.58665 0.44694 0.0
H4164 H 0.66213 0.82891 0.72378 0.0
H4165 H 0.71943 0.90952 0.69036 0.0
H4166 H 0.64007 0.88193 0.71932 0.0
H4167 H 0.74365 0.86443 0.71668 0.0
H4168 H 0.69032 0.90016 0.70162 0.0
H4169 H 0.69214 0.84155 0.72161 0.0
C4170 C 0.66363 0.84323 0.72244 0.0
C4171 C 0.64864 0.8544 0.7215 0.0
C4172 C 0.70202 0.8925 0.70527 0.0
C4173 C 0.68285 0.8689 0.71896 0.0
C4174 C 0.71861 0.89784 0.69886 0.0
C4175 C 0.73385 0.88766 0.7026 0.0
C4176 C 0.70061 0.87658 0.71504 0.0
C4177 C 0.73216 0.87264 0.71361 0.0
C4178 C 0.68075 0.85044 0.72135 0.0
C4179 C 0.6513 0.87286 0.71997 0.0
N4180 N 0.71572 0.8673 0.71916 0.0
N4181 N 0.66809 0.87953 0.71847 0.0
H4182 H 0.38717 0.49189 0.97628 0.0
H4183 H 0.36136 0.38896 0.98149 0.0
H4184 H 0.33342 0.47237 0.96976 0.0
H4185 H 0.41476 0.40955 0.98773 0.0
H4186 H 0.34987 0.4196 0.98247 0.0
H4187 H 0.39632 0.46237 0.98655 0.0
C4188 C 0.37719 0.48149 0.97744 0.0
C4189 C 0.35958 0.48449 0.97194 0.0
C4190 C 0.36408 0.41738 0.98386 0.0
C4191 C 0.37004 0.45051 0.9832 0.0
C4192 C 0.37063 0.39991 0.98327 0.0
C4193 C 0.38905 0.39676 0.98425 0.0
C4194 C 0.37605 0.43175 0.9854 0.0
C4195 C 0.40047 0.41139 0.98667 0.0
C4196 C 0.38244 0.46458 0.9832 0.0
C4197 C 0.34718 0.47057 0.97379 0.0
N4198 N 0.39381 0.42824 0.98699 0.0
N4199 N 0.35272 0.45406 0.97893 0.0
H4200 H 0.34953 0.63164 0.73203 0.0
H4201 H 0.28516 0.61158 0.64976 0.0
H4202 H 0.35543 0.65491 0.67964 0.0
H4203 H 0.26633 0.60673 0.70405 0.0
H4204 H 0.31358 0.6224 0.66081 0.0
H4205 H 0.32132 0.61786 0.72226 0.0
C4206 C 0.34495 0.63374 0.71847 0.0
C4207 C 0.35478 0.64441 0.70659 0.0
C4208 C 0.30328 0.61895 0.67035 0.0
C4209 C 0.32287 0.62868 0.69541 0.0
C4210 C 0.28703 0.61269 0.66407 0.0
C4211 C 0.27327 0.60837 0.67601 0.0
C4212 C 0.306 0.62085 0.68877 0.0
C4213 C 0.27657 0.61001 0.6944 0.0
C4214 C 0.32887 0.62597 0.71297 0.0
C4215 C 0.34825 0.64682 0.68923 0.0
N4216 N 0.29266 0.61618 0.70027 0.0
N4217 N 0.33277 0.63896 0.68415 0.0
H4218 H 0.89292 0.10036 0.00591 0.0
H4219 H 0.84463 0.03918 0.07872 0.0
H4220 H 0.88022 0.11686 0.05964 0.0
H4221 H 0.86688 0.01778 0.03007 0.0
H4222 H 0.852 0.06915 0.06871 0.0
H4223 H 0.87831 0.0716 0.01165 0.0
C4224 C 0.88681 0.09803 0.01881 0.0
C4225 C 0.88788 0.11092 0.03239 0.0
C4226 C 0.85516 0.05796 0.0601 0.0
C4227 C 0.8712 0.0782 0.03899 0.0
C4228 C 0.85092 0.04083 0.06579 0.0
C4229 C 0.8554 0.02597 0.05531 0.0
C4230 C 0.8641 0.06036 0.04383 0.0
C4231 C 0.8633 0.02891 0.03858 0.0
C4232 C 0.87855 0.08161 0.02208 0.0
C4233 C 0.87981 0.10724 0.04885 0.0
N4234 N 0.86764 0.04582 0.03343 0.0
N4235 N 0.8719 0.0912 0.0517 0.0
H4236 H 0.72574 0.08689 0.77952 0.0
H4237 H 0.65783 0.16856 0.77489 0.0
H4238 H 0.74049 0.14218 0.78591 0.0
H4239 H 0.64146 0.11369 0.76859 0.0
H4240 H 0.68887 0.1591 0.7743 0.0
H4241 H 0.69586 0.09635 0.77007 0.0
C4242 C 0.72286 0.10102 0.77837 0.0
C4243 C 0.73547 0.1138 0.78369 0.0
C4244 C 0.67854 0.14909 0.77294 0.0
C4245 C 0.70139 0.12467 0.77332 0.0
C4246 C 0.66079 0.15449 0.77337 0.0
C4247 C 0.64706 0.14185 0.77206 0.0
C4248 C 0.68269 0.13086 0.77137 0.0
C4249 C 0.65168 0.12383 0.76983 0.0
C4250 C 0.70577 0.10641 0.77317 0.0
C4251 C 0.73106 0.13191 0.78211 0.0
N4252 N 0.66914 0.11883 0.76975 0.0
N4253 N 0.71432 0.13679 0.77731 0.0
H4254 H 0.85695 0.86521 0.26871 0.0
H4255 H 0.77302 0.86256 0.33396 0.0
H4256 H 0.85049 0.82763 0.31193 0.0
H4257 H 0.77161 0.89125 0.28399 0.0
H4258 H 0.80214 0.8508 0.32623 0.0
H4259 H 0.82659 0.87625 0.27427 0.0
C4260 C 0.84917 0.85933 0.27938 0.0
C4261 C 0.85625 0.84555 0.28995 0.0
C4262 C 0.79551 0.85958 0.31684 0.0
C4263 C 0.82168 0.85803 0.29631 0.0
C4264 C 0.77886 0.86635 0.32127 0.0
C4265 C 0.76994 0.87796 0.30962 0.0
C4266 C 0.80354 0.86457 0.30068 0.0
C4267 C 0.77808 0.8823 0.29331 0.0
C4268 C 0.83184 0.86556 0.28247 0.0
C4269 C 0.84559 0.83831 0.3035 0.0
N4270 N 0.79458 0.8757 0.28936 0.0
N4271 N 0.8289 0.84468 0.30632 0.0
H4272 H 0.47201 0.41211 0.08712 0.0
H4273 H 0.43147 0.33003 0.03577 0.0
H4274 H 0.46149 0.36191 0.11335 0.0
H4275 H 0.4595 0.37241 0.00871 0.0
H4276 H 0.44361 0.34049 0.0642 0.0
H4277 H 0.46825 0.39747 0.0582 0.0
C4278 C 0.46897 0.39797 0.08677 0.0
C4279 C 0.46685 0.38822 0.10262 0.0
C4280 C 0.44742 0.34729 0.05202 0.0
C4281 C 0.46249 0.37141 0.06961 0.0
C4282 C 0.44053 0.3413 0.0358 0.0
C4283 C 0.4444 0.35048 0.01994 0.0
C4284 C 0.45792 0.36279 0.0524 0.0
C4285 C 0.4562 0.36498 0.02066 0.0
C4286 C 0.46696 0.3896 0.07026 0.0
C4287 C 0.46311 0.36992 0.10142 0.0
N4288 N 0.46227 0.37094 0.03671 0.0
N4289 N 0.46081 0.36213 0.08518 0.0
H4290 H 0.41009 0.71204 0.77106 0.0
H4291 H 0.32957 0.71498 0.8409 0.0
H4292 H 0.35514 0.70095 0.75807 0.0
H4293 H 0.38444 0.72336 0.85618 0.0
H4294 H 0.3386 0.71397 0.80973 0.0
H4295 H 0.4008 0.72106 0.80117 0.0
C4296 C 0.39603 0.71199 0.77438 0.0
C4297 C 0.38336 0.70561 0.76213 0.0
C4298 C 0.34872 0.7161 0.81983 0.0
C4299 C 0.37272 0.71555 0.79653 0.0
C4300 C 0.34357 0.7166 0.83768 0.0
C4301 C 0.35631 0.71903 0.85118 0.0
C4302 C 0.3668 0.71792 0.81532 0.0
C4303 C 0.37422 0.72129 0.84618 0.0
C4304 C 0.39076 0.71696 0.79162 0.0
C4305 C 0.36535 0.70566 0.76715 0.0
N4306 N 0.37897 0.72054 0.82862 0.0
N4307 N 0.3606 0.71033 0.78401 0.0
H4308 H 0.02713 0.6173 0.50298 0.0
H4309 H 0.02804 0.64621 0.60588 0.0
H4310 H 0.03726 0.67132 0.5203 0.0
H4311 H 0.03103 0.59193 0.58677 0.0
H4312 H 0.02548 0.65653 0.57482 0.0
H4313 H 0.02085 0.60897 0.53386 0.0
C4314 C 0.02751 0.62754 0.5132 0.0
C4315 C 0.03304 0.64495 0.50912 0.0
C4316 C 0.02664 0.64237 0.57749 0.0
C4317 C 0.02633 0.63541 0.54453 0.0
C4318 C 0.02823 0.63649 0.59516 0.0
C4319 C 0.03 0.61822 0.59886 0.0
C4320 C 0.02661 0.62983 0.56351 0.0
C4321 C 0.02993 0.60616 0.58452 0.0
C4322 C 0.02413 0.62273 0.53087 0.0
C4323 C 0.03323 0.65768 0.5229 0.0
N4324 N 0.02827 0.61218 0.56751 0.0
N4325 N 0.03027 0.65259 0.54008 0.0
H4326 H 0.17002 0.28226 0.34405 0.0
H4327 H 0.09191 0.28655 0.27188 0.0
H4328 H 0.11484 0.27281 0.35745 0.0
H4329 H 0.14771 0.29442 0.26029 0.0
H4330 H 0.09994 0.27706 0.30224 0.0
H4331 H 0.16202 0.28316 0.31261 0.0
C4332 C 0.15617 0.2804 0.34035 0.0
C4333 C 0.14303 0.27768 0.35338 0.0
C4334 C 0.11043 0.28051 0.29292 0.0
C4335 C 0.13371 0.27866 0.31724 0.0
C4336 C 0.10587 0.28573 0.27555 0.0
C4337 C 0.11919 0.29141 0.26368 0.0
C4338 C 0.1284 0.281 0.29829 0.0
C4339 C 0.13703 0.2903 0.26912 0.0
C4340 C 0.15161 0.28081 0.32235 0.0
C4341 C 0.12534 0.2751 0.3478 0.0
N4342 N 0.14109 0.28544 0.28607 0.0
N4343 N 0.12115 0.27581 0.33011 0.0
H4344 H 0.4643 0.57884 0.41392 0.0
H4345 H 0.46678 0.66286 0.47686 0.0
H4346 H 0.48161 0.63008 0.39413 0.0
H4347 H 0.46981 0.60876 0.49644 0.0
H4348 H 0.47372 0.65198 0.44677 0.0
H4349 H 0.4665 0.59011 0.44437 0.0
C4350 C 0.46855 0.5925 0.416 0.0
C4351 C 0.47262 0.6036 0.40149 0.0
C4352 C 0.47329 0.64256 0.45775 0.0
C4353 C 0.47518 0.61665 0.4364 0.0
C4354 C 0.46945 0.64878 0.47495 0.0
C4355 C 0.46747 0.63666 0.48913 0.0
C4356 C 0.4749 0.62412 0.45475 0.0
C4357 C 0.47102 0.61856 0.48587 0.0
C4358 C 0.46997 0.59889 0.43341 0.0
C4359 C 0.47827 0.62113 0.40498 0.0
N4360 N 0.47419 0.6128 0.46897 0.0
N4361 N 0.47917 0.62722 0.42211 0.0
H4362 H 0.17594 0.71526 0.16702 0.0
H4363 H 0.0911 0.71867 0.2308 0.0
H4364 H 0.12379 0.73168 0.14899 0.0
H4365 H 0.14426 0.7054 0.24847 0.0
H4366 H 0.10332 0.72787 0.20193 0.0
H4367 H 0.16505 0.71504 0.19767 0.0
C4368 C 0.16216 0.71883 0.16953 0.0
C4369 C 0.15068 0.72327 0.15543 0.0
C4370 C 0.11235 0.72328 0.21224 0.0
C4371 C 0.13807 0.7231 0.19059 0.0
C4372 C 0.1054 0.71817 0.22879 0.0
C4373 C 0.11667 0.71103 0.24195 0.0
C4374 C 0.13066 0.72113 0.20887 0.0
C4375 C 0.13507 0.71066 0.23862 0.0
C4376 C 0.15597 0.71881 0.18707 0.0
C4377 C 0.13303 0.72801 0.15948 0.0
N4378 N 0.14145 0.71534 0.22232 0.0
N4379 N 0.1272 0.72764 0.1767 0.0
H4380 H 0.03262 0.38708 -0.00039 0.0
H4381 H 0.0238 0.36725 0.89513 0.0
H4382 H 0.04255 0.33541 0.97613 0.0
H4383 H 0.02345 0.41983 0.91869 0.0
H4384 H 0.02468 0.35423 0.92518 0.0
H4385 H 0.02192 0.39776 0.97074 0.0
C4386 C 0.03206 0.37782 0.98851 0.0
C4387 C 0.03878 0.36043 0.99018 0.0
C4388 C 0.02429 0.36861 0.92375 0.0
C4389 C 0.02697 0.37268 0.95702 0.0
C4390 C 0.02387 0.37603 0.90663 0.0
C4391 C 0.0238 0.39464 0.90445 0.0
C4392 C 0.02453 0.37989 0.93875 0.0
C4393 C 0.02372 0.40542 0.91976 0.0
C4394 C 0.02612 0.38398 0.97197 0.0
C4395 C 0.03767 0.34899 0.97536 0.0
N4396 N 0.02416 0.39789 0.93625 0.0
N4397 N 0.03222 0.35542 0.95929 0.0
H4398 H 0.36851 0.27023 0.64352 0.0
H4399 H 0.35073 0.32873 0.73105 0.0
H4400 H 0.32573 0.30825 0.65003 0.0
H4401 H 0.39394 0.29089 0.72813 0.0
H4402 H 0.34031 0.31893 0.70199 0.0
H4403 H 0.37767 0.27588 0.67459 0.0
C4404 C 0.36112 0.27981 0.65144 0.0
C4405 C 0.34641 0.28888 0.64418 0.0
C4406 C 0.35199 0.31256 0.70764 0.0
C4407 C 0.35659 0.29516 0.67958 0.0
C4408 C 0.35788 0.31812 0.72429 0.0
C4409 C 0.3732 0.31062 0.73187 0.0
C4410 C 0.36167 0.29957 0.69822 0.0
C4411 C 0.38199 0.29689 0.72267 0.0
C4412 C 0.36628 0.28293 0.66916 0.0
C4413 C 0.3372 0.30101 0.65502 0.0
N4414 N 0.37622 0.29192 0.70611 0.0
N4415 N 0.34245 0.30378 0.6721 0.0
H4416 H 0.10452 0.47145 0.36326 0.0
H4417 H 0.00087 0.46085 0.38605 0.0
H4418 H 0.08272 0.46914 0.41656 0.0
H4419 H 0.02221 0.45596 0.33274 0.0
H4420 H 0.03018 0.47029 0.39661 0.0
H4421 H 0.07408 0.47101 0.35119 0.0
C4422 C 0.09333 0.4709 0.3724 0.0
C4423 C 0.09612 0.47009 0.39091 0.0
C4424 C 0.02841 0.46744 0.38254 0.0
C4425 C 0.06139 0.46982 0.37727 0.0
C4426 C 0.01162 0.4622 0.37647 0.0
C4427 C 0.00918 0.45737 0.35854 0.0
C4428 C 0.04287 0.46774 0.3706 0.0
C4429 C 0.02356 0.45943 0.34671 0.0
C4430 C 0.07599 0.47072 0.36552 0.0
C4431 C 0.08119 0.46956 0.40218 0.0
N4432 N 0.0399 0.46417 0.35301 0.0
N4433 N 0.06449 0.46936 0.39519 0.0
H4434 H 0.27172 0.33745 0.16491 0.0
H4435 H 0.31811 0.28383 0.08737 0.0
H4436 H 0.28804 0.3626 0.1157 0.0
H4437 H 0.28395 0.25792 0.12578 0.0
H4438 H 0.30691 0.3128 0.09725 0.0
H4439 H 0.27596 0.30819 0.15101 0.0
C4440 C 0.27611 0.3368 0.15114 0.0
C4441 C 0.27972 0.35244 0.14147 0.0
C4442 C 0.30161 0.3008 0.10334 0.0
C4443 C 0.28465 0.31906 0.12555 0.0
C4444 C 0.308 0.28428 0.09772 0.0
C4445 C 0.30197 0.26855 0.10586 0.0
C4446 C 0.28942 0.30162 0.11752 0.0
C4447 C 0.28887 0.26979 0.11915 0.0
C4448 C 0.27841 0.32011 0.14319 0.0
C4449 C 0.28521 0.35085 0.12364 0.0
N4450 N 0.28325 0.28612 0.12484 0.0
N4451 N 0.28774 0.33444 0.11632 0.0
H4452 H 0.38875 0.51383 0.88258 0.0
H4453 H 0.49289 0.53145 0.8977 0.0
H4454 H 0.41241 0.53006 0.93256 0.0
H4455 H 0.46804 0.53364 0.84573 0.0
H4456 H 0.46443 0.52219 0.91058 0.0
H4457 H 0.4186 0.5135 0.86899 0.0
C4458 C 0.40023 0.51721 0.89069 0.0
C4459 C 0.39814 0.52222 0.90863 0.0
C4460 C 0.46529 0.52438 0.8963 0.0
C4461 C 0.43214 0.52152 0.89335 0.0
C4462 C 0.48157 0.52951 0.88891 0.0
C4463 C 0.48274 0.53359 0.87067 0.0
C4464 C 0.45011 0.52329 0.88537 0.0
C4465 C 0.46765 0.53079 0.85991 0.0
C4466 C 0.41721 0.51699 0.88296 0.0
C4467 C 0.41342 0.52637 0.91861 0.0
N4468 N 0.45185 0.52606 0.86747 0.0
N4469 N 0.42976 0.52596 0.91083 0.0
H4470 H 0.22006 0.63916 0.60376 0.0
H4471 H 0.21768 0.74249 0.63032 0.0
H4472 H 0.22195 0.6596 0.65762 0.0
H4473 H 0.20379 0.72319 0.57781 0.0
H4474 H 0.22711 0.71242 0.63853 0.0
H4475 H 0.2204 0.66998 0.59249 0.0
C4476 C 0.22057 0.65011 0.61318 0.0
C4477 C 0.22071 0.64687 0.63164 0.0
C4478 C 0.22231 0.71481 0.62509 0.0
C4479 C 0.22148 0.68195 0.61891 0.0
C4480 C 0.2171 0.73203 0.62034 0.0
C4481 C 0.20964 0.73525 0.60347 0.0
C4482 C 0.21996 0.70073 0.61292 0.0
C4483 C 0.20931 0.72122 0.59103 0.0
C4484 C 0.22086 0.66765 0.60676 0.0
C4485 C 0.22157 0.6615 0.64329 0.0
N4486 N 0.21404 0.70445 0.59612 0.0
N4487 N 0.22187 0.67837 0.63674 0.0
H4488 H 0.1016 0.52524 0.12676 0.0
H4489 H 0.99688 0.53578 0.10922 0.0
H4490 H 0.07729 0.52885 0.07463 0.0
H4491 H 0.02147 0.54449 0.16061 0.0
H4492 H 0.02556 0.52558 0.09757 0.0
H4493 H 0.07178 0.52571 0.1403 0.0
C4494 C 0.08999 0.52603 0.11818 0.0
C4495 C 0.09189 0.52727 0.09958 0.0
C4496 C 0.02461 0.52942 0.11149 0.0
C4497 C 0.05787 0.52756 0.11489 0.0
C4498 C 0.0082 0.53509 0.11819 0.0
C4499 C 0.00687 0.54125 0.13583 0.0
C4500 C 0.03978 0.52994 0.12251 0.0
C4501 C 0.02197 0.54003 0.14686 0.0
C4502 C 0.07301 0.52625 0.12589 0.0
C4503 C 0.07643 0.52812 0.08905 0.0
N4504 N 0.03789 0.53477 0.13995 0.0
N4505 N 0.06009 0.52832 0.09685 0.0
H4506 H 0.22323 0.35697 0.88702 0.0
H4507 H 0.21276 0.25417 0.86018 0.0
H4508 H 0.20872 0.33779 0.83465 0.0
H4509 H 0.20573 0.2727 0.91431 0.0
H4510 H 0.22074 0.28445 0.85119 0.0
H4511 H 0.22472 0.32585 0.89754 0.0
C4512 C 0.22042 0.34622 0.87776 0.0
C4513 C 0.21559 0.34991 0.86002 0.0
C4514 C 0.21779 0.28181 0.86511 0.0
C4515 C 0.21776 0.31454 0.87176 0.0
C4516 C 0.21341 0.26449 0.87029 0.0
C4517 C 0.20826 0.26098 0.88796 0.0
C4518 C 0.21707 0.2957 0.87768 0.0
C4519 C 0.20944 0.27488 0.9005 0.0
C4520 C 0.22133 0.32854 0.88374 0.0
C4521 C 0.21222 0.33555 0.8485 0.0
N4522 N 0.21343 0.29175 0.89507 0.0
N4523 N 0.21339 0.31852 0.85456 0.0
H4524 H 0.41852 0.46961 0.58285 0.0
H4525 H 0.46896 0.43392 0.66735 0.0
H4526 H 0.39251 0.46461 0.63401 0.0
H4527 H 0.49695 0.45897 0.62375 0.0
H4528 H 0.44095 0.44618 0.65607 0.0
H4529 H 0.44745 0.4664 0.59763 0.0
C4530 C 0.41892 0.46791 0.59721 0.0
C4531 C 0.40312 0.46714 0.60722 0.0
C4532 C 0.45323 0.44935 0.64916 0.0
C4533 C 0.43612 0.46344 0.62418 0.0
C4534 C 0.46921 0.44238 0.65561 0.0
C4535 C 0.48519 0.44543 0.6464 0.0
C4536 C 0.45319 0.459 0.6331 0.0
C4537 C 0.48487 0.45642 0.63125 0.0
C4538 C 0.43543 0.46623 0.60565 0.0
C4539 C 0.40438 0.46514 0.6258 0.0
N4540 N 0.46902 0.46251 0.62481 0.0
N4541 N 0.4206 0.46309 0.63367 0.0
H4542 H 0.27221 0.66332 0.33616 0.0
H4543 H 0.29427 0.72382 0.42011 0.0
H4544 H 0.27575 0.64235 0.38973 0.0
H4545 H 0.28339 0.74455 0.36744 0.0
H4546 H 0.28327 0.69463 0.41052 0.0
H4547 H 0.27299 0.69352 0.3482 0.0
C4548 C 0.27314 0.66509 0.35049 0.0
C4549 C 0.27418 0.65033 0.36196 0.0
C4550 C 0.28291 0.70566 0.40118 0.0
C4551 C 0.27505 0.68494 0.3759 0.0
C4552 C 0.28906 0.72238 0.40669 0.0
C4553 C 0.29004 0.73654 0.39445 0.0
C4554 C 0.27786 0.70312 0.38328 0.0
C4555 C 0.28309 0.73393 0.37725 0.0
C4556 C 0.27346 0.68236 0.35739 0.0
C4557 C 0.2751 0.6534 0.38042 0.0
N4558 N 0.27762 0.71744 0.37208 0.0
N4559 N 0.27573 0.67039 0.38683 0.0
H4560 H 0.37472 0.1137 0.43906 0.0
H4561 H 0.36648 0.00957 0.46113 0.0
H4562 H 0.39878 0.08947 0.48548 0.0
H4563 H 0.34488 0.03525 0.41431 0.0
H4564 H 0.37435 0.03915 0.47315 0.0
H4565 H 0.35955 0.08563 0.43266 0.0
C4566 C 0.37665 0.1025 0.44802 0.0
C4567 C 0.38817 0.10383 0.46268 0.0
C4568 C 0.36765 0.03828 0.46036 0.0
C4569 C 0.37104 0.07151 0.45534 0.0
C4570 C 0.36311 0.02143 0.45357 0.0
C4571 C 0.35528 0.02002 0.43662 0.0
C4572 C 0.36421 0.05366 0.45011 0.0
C4573 C 0.35118 0.03575 0.42732 0.0
C4574 C 0.368 0.08645 0.44436 0.0
C4575 C 0.39008 0.08895 0.47394 0.0
N4576 N 0.35582 0.05185 0.4341 0.0
N4577 N 0.38179 0.0733 0.4699 0.0
H4578 H 0.88235 0.39808 0.51484 0.0
H4579 H 0.87441 0.4748 0.58866 0.0
H4580 H 0.90852 0.39731 0.56618 0.0
H4581 H 0.85612 0.48268 0.53455 0.0
H4582 H 0.88452 0.44515 0.58078 0.0
H4583 H 0.87004 0.42768 0.52202 0.0
C4584 C 0.88534 0.40405 0.52768 0.0
C4585 C 0.89647 0.39526 0.53996 0.0
C4586 C 0.87835 0.45329 0.57053 0.0
C4587 C 0.88258 0.42895 0.54815 0.0
C4588 C 0.87254 0.4703 0.57503 0.0
C4589 C 0.86444 0.48129 0.56222 0.0
C4590 C 0.87606 0.44701 0.55304 0.0
C4591 C 0.86239 0.47465 0.5448 0.0
C4592 C 0.87842 0.42095 0.5317 0.0
C4593 C 0.90003 0.40361 0.55632 0.0
N4594 N 0.86816 0.45786 0.54069 0.0
N4595 N 0.89313 0.41994 0.55991 0.0
H4596 H 0.34977 0.12272 0.26777 0.0
H4597 H 0.2616 0.14759 0.32055 0.0
H4598 H 0.33902 0.17494 0.28962 0.0
H4599 H 0.26473 0.10061 0.28743 0.0
H4600 H 0.28965 0.15807 0.30806 0.0
H4601 H 0.31866 0.11427 0.27367 0.0
C4602 C 0.34084 0.13242 0.27368 0.0
C4603 C 0.34701 0.14948 0.27842 0.0
C4604 C 0.28417 0.14558 0.30327 0.0
C4605 C 0.31159 0.13996 0.28517 0.0
C4606 C 0.26815 0.1396 0.31041 0.0
C4607 C 0.26097 0.12321 0.30503 0.0
C4608 C 0.29336 0.13489 0.29092 0.0
C4609 C 0.26989 0.11337 0.29183 0.0
C4610 C 0.3231 0.12763 0.27697 0.0
C4611 C 0.33489 0.16159 0.28592 0.0
N4612 N 0.28586 0.11923 0.2854 0.0
N4613 N 0.31783 0.15654 0.2892 0.0
H4614 H 0.60992 0.59812 0.01119 0.0
H4615 H 0.63532 0.53237 0.09122 0.0
H4616 H 0.59386 0.60536 0.06607 0.0
H4617 H 0.63899 0.51576 0.03611 0.0
H4618 H 0.624 0.5611 0.08164 0.0
H4619 H 0.62413 0.5697 0.01953 0.0
C4620 C 0.60949 0.59378 0.02499 0.0
C4621 C 0.6007 0.60406 0.03798 0.0
C4622 C 0.62726 0.55123 0.07157 0.0
C4623 C 0.61689 0.57182 0.04754 0.0
C4624 C 0.63379 0.53478 0.07703 0.0
C4625 C 0.63798 0.52157 0.06444 0.0
C4626 C 0.62488 0.55468 0.05333 0.0
C4627 C 0.63582 0.52557 0.04625 0.0
C4628 C 0.61752 0.57758 0.0297 0.0
C4629 C 0.60045 0.59785 0.05562 0.0
N4630 N 0.62934 0.54183 0.04119 0.0
N4631 N 0.60843 0.58217 0.05986 0.0
H4632 H 0.64697 0.35799 0.25999 0.0
H4633 H 0.71362 0.39987 0.33204 0.0
H4634 H 0.63644 0.36165 0.31654 0.0
H4635 H 0.73122 0.38452 0.27933 0.0
H4636 H 0.68347 0.39099 0.32436 0.0
H4637 H 0.67606 0.37235 0.26488 0.0
C4638 C 0.65068 0.36204 0.27338 0.0
C4639 C 0.63935 0.35858 0.28792 0.0
C4640 C 0.69385 0.3896 0.31439 0.0
C4641 C 0.6724 0.37494 0.29353 0.0
C4642 C 0.71111 0.39469 0.31875 0.0
C4643 C 0.72501 0.39269 0.30637 0.0
C4644 C 0.69031 0.38234 0.2975 0.0
C4645 C 0.72088 0.38617 0.28929 0.0
C4646 C 0.66728 0.37013 0.27615 0.0
C4647 C 0.6448 0.36398 0.30498 0.0
N4648 N 0.70386 0.38104 0.28537 0.0
N4649 N 0.66093 0.37185 0.3073 0.0
H4650 H 0.15351 0.96186 0.92161 0.0
H4651 H 0.0901 0.90688 0.98704 0.0
H4652 H 0.12486 0.98631 0.96516 0.0
H4653 H 0.11972 0.8837 0.94341 0.0
H4654 H 0.10523 0.93537 0.98179 0.0
H4655 H 0.14429 0.93258 0.93219 0.0
C4656 C 0.14544 0.96102 0.93359 0.0
C4657 C 0.13977 0.97651 0.94244 0.0
C4658 C 0.10854 0.92401 0.97348 0.0
C4659 C 0.12884 0.94295 0.9545 0.0
C4660 C 0.09991 0.90775 0.97645 0.0
C4661 C 0.10355 0.89296 0.96551 0.0
C4662 C 0.12087 0.92548 0.95945 0.0
C4663 C 0.11641 0.89479 0.95206 0.0
C4664 C 0.14014 0.94427 0.93961 0.0
C4665 C 0.12948 0.97466 0.95796 0.0
N4666 N 0.1245 0.91079 0.94933 0.0
N4667 N 0.1241 0.95815 0.96338 0.0
H4668 H 0.3327 0.82428 0.22963 0.0
H4669 H 0.26444 0.90536 0.22128 0.0
H4670 H 0.34803 0.87939 0.2364 0.0
H4671 H 0.25145 0.85018 0.21125 0.0
H4672 H 0.29335 0.89591 0.23351 0.0
H4673 H 0.30149 0.83332 0.22915 0.0
C4674 C 0.32947 0.8383 0.23114 0.0
C4675 C 0.34296 0.85114 0.23275 0.0
C4676 C 0.28399 0.88586 0.22901 0.0
C4677 C 0.3072 0.86166 0.23209 0.0
C4678 C 0.26744 0.89124 0.22221 0.0
C4679 C 0.25572 0.87851 0.21508 0.0
C4680 C 0.28866 0.86767 0.22867 0.0
C4681 C 0.26025 0.86041 0.21643 0.0
C4682 C 0.31163 0.84346 0.23091 0.0
C4683 C 0.33801 0.86909 0.23493 0.0
N4684 N 0.27645 0.85555 0.22283 0.0
N4685 N 0.32051 0.87386 0.23429 0.0
H4686 H 0.15177 0.13322 0.73681 0.0
H4687 H 0.20915 0.09601 0.65478 0.0
H4688 H 0.13349 0.13026 0.68224 0.0
H4689 H 0.23302 0.10884 0.70564 0.0
H4690 H 0.18004 0.10355 0.66676 0.0
H4691 H 0.18023 0.11972 0.72758 0.0
C4692 C 0.15365 0.12949 0.72296 0.0
C4693 C 0.14031 0.13292 0.71023 0.0
C4694 C 0.19157 0.10466 0.6754 0.0
C4695 C 0.17266 0.11757 0.69966 0.0
C4696 C 0.20825 0.10033 0.66857 0.0
C4697 C 0.22358 0.10203 0.67917 0.0
C4698 C 0.19008 0.11087 0.69301 0.0
C4699 C 0.22153 0.10745 0.697 0.0
C4700 C 0.1699 0.12189 0.71771 0.0
C4701 C 0.14344 0.12794 0.69247 0.0
N4702 N 0.20505 0.11187 0.70335 0.0
N4703 N 0.15928 0.12058 0.68773 0.0
loop_
_geom_bond_atom_site_label_1
_geom_bond_atom_site_label_2
_geom_bond_distance
_geom_bond_site_symmetry_2
_ccdc_geom_bond_type
In0 O1 2.294 . S
In0 O2 2.326 . S
In0 O6 2.266 . S
In0 O7 2.326 . S
In0 O8 2.266 . S
In0 O9 2.326 . S
In0 O11 2.294 . S
In0 O12 2.326 1_455 S
O1 In0 2.294 . S
O1 C10 1.240 . S
O2 In0 2.326 . S
O2 C10 1.252 . S
C3 O6 1.252 . S
C3 O7 1.260 . S
C4 O11 1.240 1_655 S
C4 O12 1.252 . S
C5 O8 1.252 . S
C5 O9 1.260 . S
O6 In0 2.266 . S
O6 C3 1.252 . S
O7 In0 2.326 . S
O7 C3 1.260 . S
O8 In0 2.266 . S
O8 C5 1.252 . S
O9 In0 2.326 . S
O9 C5 1.260 . S
C10 O1 1.240 . S
C10 O2 1.252 . S
O11 In0 2.294 . S
O11 C4 1.240 1_455 S
O12 In0 2.326 1_655 S
O12 C4 1.252 . S
In13 O14 2.294 . S
In13 O15 2.326 . S
In13 O19 2.266 . S
In13 O20 2.326 . S
In13 O21 2.266 . S
In13 O22 2.326 . S
In13 O24 2.294 . S
In13 O25 2.326 . S
O14 In13 2.294 . S
O14 C23 1.240 . S
O15 In13 2.326 . S
O15 C23 1.252 . S
C16 O19 1.252 . S
C16 O20 1.260 . S
C17 O24 1.240 . S
C17 O25 1.252 . S
C18 O21 1.252 . S
C18 O22 1.260 . S
O19 In13 2.266 . S
O19 C16 1.252 . S
O20 In13 2.326 . S
O20 C16 1.260 . S
O21 In13 2.266 . S
O21 C18 1.252 . S
O22 In13 2.326 . S
O22 C18 1.260 . S
C23 O14 1.240 . S
C23 O15 1.252 . S
O24 In13 2.294 . S
O24 C17 1.240 . S
O25 In13 2.326 . S
O25 C17 1.252 . S
In26 O27 2.294 . S
In26 O28 2.326 . S
In26 O32 2.266 . S
In26 O33 2.326 . S
In26 O34 2.266 . S
In26 O35 2.326 . S
In26 O37 2.294 . S
In26 O38 2.326 . S
O27 In26 2.294 . S
O27 C36 1.240 . S
O28 In26 2.326 . S
O28 C36 1.252 . S
C29 O32 1.252 . S
C29 O33 1.260 . S
C30 O37 1.240 . S
C30 O38 1.252 . S
C31 O34 1.252 . S
C31 O35 1.260 . S
O32 In26 2.266 . S
O32 C29 1.252 . S
O33 In26 2.326 . S
O33 C29 1.260 . S
O34 In26 2.266 . S
O34 C31 1.252 . S
O35 In26 2.326 . S
O35 C31 1.260 . S
C36 O27 1.240 . S
C36 O28 1.252 . S
O37 In26 2.294 . S
O37 C30 1.240 . S
O38 In26 2.326 . S
O38 C30 1.252 . S
In39 O40 2.294 . S
In39 O41 2.326 . S
In39 O45 2.266 . S
In39 O46 2.326 . S
In39 O47 2.266 . S
In39 O48 2.326 . S
In39 O50 2.294 . S
In39 O51 2.326 . S
O40 In39 2.294 . S
O40 C49 1.240 . S
O41 In39 2.326 . S
O41 C49 1.252 . S
C42 O45 1.252 . S
C42 O46 1.260 . S
C43 O50 1.240 . S
C43 O51 1.252 . S
C44 O47 1.252 . S
C44 O48 1.260 . S
O45 In39 2.266 . S
O45 C42 1.252 . S
O46 In39 2.326 . S
O46 C42 1.260 . S
O47 In39 2.266 . S
O47 C44 1.252 . S
O48 In39 2.326 . S
O48 C44 1.260 . S
C49 O40 1.240 . S
C49 O41 1.252 . S
O50 In39 2.294 . S
O50 C43 1.240 . S
O51 In39 2.326 . S
O51 C43 1.252 . S
In52 O53 2.294 . S
In52 O54 2.326 . S
In52 O58 2.266 . S
In52 O59 2.326 . S
In52 O60 2.266 . S
In52 O61 2.326 . S
In52 O63 2.294 . S
In52 O64 2.326 1_455 S
O53 In52 2.294 . S
O53 C62 1.240 . S
O54 In52 2.326 . S
O54 C62 1.252 . S
C55 O58 1.252 . S
C55 O59 1.260 . S
C56 O63 1.240 1_655 S
C56 O64 1.252 . S
C57 O60 1.252 . S
C57 O61 1.260 . S
O58 In52 2.266 . S
O58 C55 1.252 . S
O59 In52 2.326 . S
O59 C55 1.260 . S
O60 In52 2.266 . S
O60 C57 1.252 . S
O61 In52 2.326 . S
O61 C57 1.260 . S
C62 O53 1.240 . S
C62 O54 1.252 . S
O63 In52 2.294 . S
O63 C56 1.240 1_455 S
O64 In52 2.326 1_655 S
O64 C56 1.252 . S
In65 O66 2.294 . S
In65 O67 2.326 . S
In65 O71 2.266 . S
In65 O72 2.326 . S
In65 O73 2.266 . S
In65 O74 2.326 . S
In65 O76 2.294 . S
In65 O77 2.326 . S
O66 In65 2.294 . S
O66 C75 1.240 . S
O67 In65 2.326 . S
O67 C75 1.252 . S
C68 O71 1.252 . S
C68 O72 1.260 . S
C69 O76 1.240 . S
C69 O77 1.252 . S
C70 O73 1.252 . S
C70 O74 1.260 . S
O71 In65 2.266 . S
O71 C68 1.252 . S
O72 In65 2.326 . S
O72 C68 1.260 . S
O73 In65 2.266 . S
O73 C70 1.252 . S
O74 In65 2.326 . S
O74 C70 1.260 . S
C75 O66 1.240 . S
C75 O67 1.252 . S
O76 In65 2.294 . S
O76 C69 1.240 . S
O77 In65 2.326 . S
O77 C69 1.252 . S
In78 O79 2.294 . S
In78 O80 2.326 . S
In78 O84 2.266 . S
In78 O85 2.326 . S
In78 O86 2.266 . S
In78 O87 2.326 . S
In78 O89 2.294 . S
In78 O90 2.326 . S
O79 In78 2.294 . S
O79 C88 1.240 . S
O80 In78 2.326 . S
O80 C88 1.252 . S
C81 O84 1.252 . S
C81 O85 1.260 . S
C82 O89 1.240 . S
C82 O90 1.252 . S
C83 O86 1.252 . S
C83 O87 1.260 . S
O84 In78 2.266 . S
O84 C81 1.252 . S
O85 In78 2.326 . S
O85 C81 1.260 . S
O86 In78 2.266 . S
O86 C83 1.252 . S
O87 In78 2.326 . S
O87 C83 1.260 . S
C88 O79 1.240 . S
C88 O80 1.252 . S
O89 In78 2.294 . S
O89 C82 1.240 . S
O90 In78 2.326 . S
O90 C82 1.252 . S
In91 O92 2.294 . S
In91 O93 2.326 . S
In91 O97 2.266 . S
In91 O98 2.326 . S
In91 O99 2.266 . S
In91 O100 2.326 . S
In91 O102 2.294 . S
In91 O103 2.326 . S
O92 In91 2.294 . S
O92 C101 1.240 . S
O93 In91 2.326 . S
O93 C101 1.252 . S
C94 O97 1.252 . S
C94 O98 1.260 . S
C95 O102 1.240 . S
C95 O103 1.252 . S
C96 O99 1.252 . S
C96 O100 1.260 . S
O97 In91 2.266 . S
O97 C94 1.252 . S
O98 In91 2.326 . S
O98 C94 1.260 . S
O99 In91 2.266 . S
O99 C96 1.252 . S
O100 In91 2.326 . S
O100 C96 1.260 . S
C101 O92 1.240 . S
C101 O93 1.252 . S
O102 In91 2.294 . S
O102 C95 1.240 . S
O103 In91 2.326 . S
O103 C95 1.252 . S
In104 O105 2.294 . S
In104 O106 2.326 1_545 S
In104 O110 2.266 . S
In104 O111 2.326 . S
In104 O112 2.266 . S
In104 O113 2.326 . S
In104 O115 2.294 . S
In104 O116 2.326 . S
O105 In104 2.294 . S
O105 C114 1.240 1_545 S
O106 In104 2.326 1_565 S
O106 C114 1.252 . S
C107 O110 1.252 . S
C107 O111 1.260 . S
C108 O115 1.240 . S
C108 O116 1.252 . S
C109 O112 1.252 . S
C109 O113 1.260 . S
O110 In104 2.266 . S
O110 C107 1.252 . S
O111 In104 2.326 . S
O111 C107 1.260 . S
O112 In104 2.266 . S
O112 C109 1.252 . S
O113 In104 2.326 . S
O113 C109 1.260 . S
C114 O105 1.240 1_565 S
C114 O106 1.252 . S
O115 In104 2.294 . S
O115 C108 1.240 . S
O116 In104 2.326 . S
O116 C108 1.252 . S
In117 O118 2.294 . S
In117 O119 2.326 . S
In117 O123 2.266 . S
In117 O124 2.326 . S
In117 O125 2.266 . S
In117 O126 2.326 . S
In117 O128 2.294 . S
In117 O129 2.326 . S
O118 In117 2.294 . S
O118 C127 1.240 . S
O119 In117 2.326 . S
O119 C127 1.252 . S
C120 O123 1.252 . S
C120 O124 1.260 . S
C121 O128 1.240 . S
C121 O129 1.252 . S
C122 O125 1.252 . S
C122 O126 1.260 . S
O123 In117 2.266 . S
O123 C120 1.252 . S
O124 In117 2.326 . S
O124 C120 1.260 . S
O125 In117 2.266 . S
O125 C122 1.252 . S
O126 In117 2.326 . S
O126 C122 1.260 . S
C127 O118 1.240 . S
C127 O119 1.252 . S
O128 In117 2.294 . S
O128 C121 1.240 . S
O129 In117 2.326 . S
O129 C121 1.252 . S
In130 O131 2.294 . S
In130 O132 2.326 1_565 S
In130 O136 2.266 . S
In130 O137 2.326 . S
In130 O138 2.266 . S
In130 O139 2.326 . S
In130 O141 2.294 . S
In130 O142 2.326 . S
O131 In130 2.294 . S
O131 C140 1.240 1_565 S
O132 In130 2.326 1_545 S
O132 C140 1.252 . S
C133 O136 1.252 . S
C133 O137 1.260 . S
C134 O141 1.240 . S
C134 O142 1.252 . S
C135 O138 1.252 . S
C135 O139 1.260 . S
O136 In130 2.266 . S
O136 C133 1.252 . S
O137 In130 2.326 . S
O137 C133 1.260 . S
O138 In130 2.266 . S
O138 C135 1.252 . S
O139 In130 2.326 . S
O139 C135 1.260 . S
C140 O131 1.240 1_545 S
C140 O132 1.252 . S
O141 In130 2.294 . S
O141 C134 1.240 . S
O142 In130 2.326 . S
O142 C134 1.252 . S
In143 O144 2.294 . S
In143 O145 2.326 . S
In143 O149 2.266 . S
In143 O150 2.326 . S
In143 O151 2.266 . S
In143 O152 2.326 . S
In143 O154 2.294 . S
In143 O155 2.326 . S
O144 In143 2.294 . S
O144 C153 1.240 . S
O145 In143 2.326 . S
O145 C153 1.252 . S
C146 O149 1.252 . S
C146 O150 1.260 . S
C147 O154 1.240 . S
C147 O155 1.252 . S
C148 O151 1.252 . S
C148 O152 1.260 . S
O149 In143 2.266 . S
O149 C146 1.252 . S
O150 In143 2.326 . S
O150 C146 1.260 . S
O151 In143 2.266 . S
O151 C148 1.252 . S
O152 In143 2.326 . S
O152 C148 1.260 . S
C153 O144 1.240 . S
C153 O145 1.252 . S
O154 In143 2.294 . S
O154 C147 1.240 . S
O155 In143 2.326 . S
O155 C147 1.252 . S
In156 O157 2.294 . S
In156 O158 2.326 1_565 S
In156 O162 2.266 . S
In156 O163 2.326 . S
In156 O164 2.266 . S
In156 O165 2.326 . S
In156 O167 2.294 . S
In156 O168 2.326 . S
O157 In156 2.294 . S
O157 C166 1.240 1_565 S
O158 In156 2.326 1_545 S
O158 C166 1.252 . S
C159 O162 1.252 . S
C159 O163 1.260 . S
C160 O167 1.240 . S
C160 O168 1.252 . S
C161 O164 1.252 . S
C161 O165 1.260 . S
O162 In156 2.266 . S
O162 C159 1.252 . S
O163 In156 2.326 . S
O163 C159 1.260 . S
O164 In156 2.266 . S
O164 C161 1.252 . S
O165 In156 2.326 . S
O165 C161 1.260 . S
C166 O157 1.240 1_545 S
C166 O158 1.252 . S
O167 In156 2.294 . S
O167 C160 1.240 . S
O168 In156 2.326 . S
O168 C160 1.252 . S
In169 O170 2.294 . S
In169 O171 2.326 . S
In169 O175 2.266 . S
In169 O176 2.326 . S
In169 O177 2.266 . S
In169 O178 2.326 . S
In169 O180 2.294 . S
In169 O181 2.326 . S
O170 In169 2.294 . S
O170 C179 1.240 . S
O171 In169 2.326 . S
O171 C179 1.252 . S
C172 O175 1.252 . S
C172 O176 1.260 . S
C173 O180 1.240 . S
C173 O181 1.252 . S
C174 O177 1.252 . S
C174 O178 1.260 . S
O175 In169 2.266 . S
O175 C172 1.252 . S
O176 In169 2.326 . S
O176 C172 1.260 . S
O177 In169 2.266 . S
O177 C174 1.252 . S
O178 In169 2.326 . S
O178 C174 1.260 . S
C179 O170 1.240 . S
C179 O171 1.252 . S
O180 In169 2.294 . S
O180 C173 1.240 . S
O181 In169 2.326 . S
O181 C173 1.252 . S
In182 O183 2.294 . S
In182 O184 2.326 1_545 S
In182 O188 2.266 . S
In182 O189 2.326 . S
In182 O190 2.266 . S
In182 O191 2.326 . S
In182 O193 2.294 . S
In182 O194 2.326 . S
O183 In182 2.294 . S
O183 C192 1.240 1_545 S
O184 In182 2.326 1_565 S
O184 C192 1.252 . S
C185 O188 1.252 . S
C185 O189 1.260 . S
C186 O193 1.240 . S
C186 O194 1.252 . S
C187 O190 1.252 . S
C187 O191 1.260 . S
O188 In182 2.266 . S
O188 C185 1.252 . S
O189 In182 2.326 . S
O189 C185 1.260 . S
O190 In182 2.266 . S
O190 C187 1.252 . S
O191 In182 2.326 . S
O191 C187 1.260 . S
C192 O183 1.240 1_565 S
C192 O184 1.252 . S
O193 In182 2.294 . S
O193 C186 1.240 . S
O194 In182 2.326 . S
O194 C186 1.252 . S
In195 O196 2.294 . S
In195 O197 2.326 . S
In195 O201 2.266 . S
In195 O202 2.326 . S
In195 O203 2.266 . S
In195 O204 2.326 . S
In195 O206 2.294 . S
In195 O207 2.326 . S
O196 In195 2.294 . S
O196 C205 1.240 . S
O197 In195 2.326 . S
O197 C205 1.252 . S
C198 O201 1.252 . S
C198 O202 1.260 . S
C199 O206 1.240 . S
C199 O207 1.252 . S
C200 O203 1.252 . S
C200 O204 1.260 . S
O201 In195 2.266 . S
O201 C198 1.252 . S
O202 In195 2.326 . S
O202 C198 1.260 . S
O203 In195 2.266 . S
O203 C200 1.252 . S
O204 In195 2.326 . S
O204 C200 1.260 . S
C205 O196 1.240 . S
C205 O197 1.252 . S
O206 In195 2.294 . S
O206 C199 1.240 . S
O207 In195 2.326 . S
O207 C199 1.252 . S
In208 O209 2.294 . S
In208 O210 2.326 1_554 S
In208 O214 2.266 . S
In208 O215 2.326 . S
In208 O216 2.266 . S
In208 O217 2.326 . S
In208 O219 2.294 . S
In208 O220 2.326 . S
O209 In208 2.294 . S
O209 C218 1.240 1_554 S
O210 In208 2.326 1_556 S
O210 C218 1.252 . S
C211 O214 1.252 . S
C211 O215 1.260 . S
C212 O219 1.240 . S
C212 O220 1.252 . S
C213 O216 1.252 . S
C213 O217 1.260 . S
O214 In208 2.266 . S
O214 C211 1.252 . S
O215 In208 2.326 . S
O215 C211 1.260 . S
O216 In208 2.266 . S
O216 C213 1.252 . S
O217 In208 2.326 . S
O217 C213 1.260 . S
C218 O209 1.240 1_556 S
C218 O210 1.252 . S
O219 In208 2.294 . S
O219 C212 1.240 . S
O220 In208 2.326 . S
O220 C212 1.252 . S
In221 O222 2.294 . S
In221 O223 2.326 1_556 S
In221 O227 2.266 . S
In221 O228 2.326 . S
In221 O229 2.266 . S
In221 O230 2.326 . S
In221 O232 2.294 . S
In221 O233 2.326 . S
O222 In221 2.294 . S
O222 C231 1.240 1_556 S
O223 In221 2.326 1_554 S
O223 C231 1.252 . S
C224 O227 1.252 . S
C224 O228 1.260 . S
C225 O232 1.240 . S
C225 O233 1.252 . S
C226 O229 1.252 . S
C226 O230 1.260 . S
O227 In221 2.266 . S
O227 C224 1.252 . S
O228 In221 2.326 . S
O228 C224 1.260 . S
O229 In221 2.266 . S
O229 C226 1.252 . S
O230 In221 2.326 . S
O230 C226 1.260 . S
C231 O222 1.240 1_554 S
C231 O223 1.252 . S
O232 In221 2.294 . S
O232 C225 1.240 . S
O233 In221 2.326 . S
O233 C225 1.252 . S
In234 O235 2.294 . S
In234 O236 2.326 . S
In234 O240 2.266 . S
In234 O241 2.326 . S
In234 O242 2.266 . S
In234 O243 2.326 . S
In234 O245 2.294 . S
In234 O246 2.326 . S
O235 In234 2.294 . S
O235 C244 1.240 . S
O236 In234 2.326 . S
O236 C244 1.252 . S
C237 O240 1.252 . S
C237 O241 1.260 . S
C238 O245 1.240 . S
C238 O246 1.252 . S
C239 O242 1.252 . S
C239 O243 1.260 . S
O240 In234 2.266 . S
O240 C237 1.252 . S
O241 In234 2.326 . S
O241 C237 1.260 . S
O242 In234 2.266 . S
O242 C239 1.252 . S
O243 In234 2.326 . S
O243 C239 1.260 . S
C244 O235 1.240 . S
C244 O236 1.252 . S
O245 In234 2.294 . S
O245 C238 1.240 . S
O246 In234 2.326 . S
O246 C238 1.252 . S
In247 O248 2.294 . S
In247 O249 2.326 . S
In247 O253 2.266 . S
In247 O254 2.326 . S
In247 O255 2.266 . S
In247 O256 2.326 . S
In247 O258 2.294 . S
In247 O259 2.326 . S
O248 In247 2.294 . S
O248 C257 1.240 . S
O249 In247 2.326 . S
O249 C257 1.252 . S
C250 O253 1.252 . S
C250 O254 1.260 . S
C251 O258 1.240 . S
C251 O259 1.252 . S
C252 O255 1.252 . S
C252 O256 1.260 . S
O253 In247 2.266 . S
O253 C250 1.252 . S
O254 In247 2.326 . S
O254 C250 1.260 . S
O255 In247 2.266 . S
O255 C252 1.252 . S
O256 In247 2.326 . S
O256 C252 1.260 . S
C257 O248 1.240 . S
C257 O249 1.252 . S
O258 In247 2.294 . S
O258 C251 1.240 . S
O259 In247 2.326 . S
O259 C251 1.252 . S
In260 O261 2.294 . S
In260 O262 2.326 . S
In260 O266 2.266 . S
In260 O267 2.326 . S
In260 O268 2.266 . S
In260 O269 2.326 . S
In260 O271 2.294 . S
In260 O272 2.326 . S
O261 In260 2.294 . S
O261 C270 1.240 . S
O262 In260 2.326 . S
O262 C270 1.252 . S
C263 O266 1.252 . S
C263 O267 1.260 . S
C264 O271 1.240 . S
C264 O272 1.252 . S
C265 O268 1.252 . S
C265 O269 1.260 . S
O266 In260 2.266 . S
O266 C263 1.252 . S
O267 In260 2.326 . S
O267 C263 1.260 . S
O268 In260 2.266 . S
O268 C265 1.252 . S
O269 In260 2.326 . S
O269 C265 1.260 . S
C270 O261 1.240 . S
C270 O262 1.252 . S
O271 In260 2.294 . S
O271 C264 1.240 . S
O272 In260 2.326 . S
O272 C264 1.252 . S
In273 O274 2.294 . S
In273 O275 2.326 . S
In273 O279 2.266 . S
In273 O280 2.326 . S
In273 O281 2.266 . S
In273 O282 2.326 . S
In273 O284 2.294 . S
In273 O285 2.326 . S
O274 In273 2.294 . S
O274 C283 1.240 . S
O275 In273 2.326 . S
O275 C283 1.252 . S
C276 O279 1.252 . S
C276 O280 1.260 . S
C277 O284 1.240 . S
C277 O285 1.252 . S
C278 O281 1.252 . S
C278 O282 1.260 . S
O279 In273 2.266 . S
O279 C276 1.252 . S
O280 In273 2.326 . S
O280 C276 1.260 . S
O281 In273 2.266 . S
O281 C278 1.252 . S
O282 In273 2.326 . S
O282 C278 1.260 . S
C283 O274 1.240 . S
C283 O275 1.252 . S
O284 In273 2.294 . S
O284 C277 1.240 . S
O285 In273 2.326 . S
O285 C277 1.252 . S
In286 O287 2.294 . S
In286 O288 2.326 . S
In286 O292 2.266 . S
In286 O293 2.326 . S
In286 O294 2.266 . S
In286 O295 2.326 . S
In286 O297 2.294 . S
In286 O298 2.326 . S
O287 In286 2.294 . S
O287 C296 1.240 . S
O288 In286 2.326 . S
O288 C296 1.252 . S
C289 O292 1.252 . S
C289 O293 1.260 . S
C290 O297 1.240 . S
C290 O298 1.252 . S
C291 O294 1.252 . S
C291 O295 1.260 . S
O292 In286 2.266 . S
O292 C289 1.252 . S
O293 In286 2.326 . S
O293 C289 1.260 . S
O294 In286 2.266 . S
O294 C291 1.252 . S
O295 In286 2.326 . S
O295 C291 1.260 . S
C296 O287 1.240 . S
C296 O288 1.252 . S
O297 In286 2.294 . S
O297 C290 1.240 . S
O298 In286 2.326 . S
O298 C290 1.252 . S
In299 O300 2.294 . S
In299 O301 2.326 . S
In299 O305 2.266 . S
In299 O306 2.326 . S
In299 O307 2.266 . S
In299 O308 2.326 . S
In299 O310 2.294 . S
In299 O311 2.326 . S
O300 In299 2.294 . S
O300 C309 1.240 . S
O301 In299 2.326 . S
O301 C309 1.252 . S
C302 O305 1.252 . S
C302 O306 1.260 . S
C303 O310 1.240 . S
C303 O311 1.252 . S
C304 O307 1.252 . S
C304 O308 1.260 . S
O305 In299 2.266 . S
O305 C302 1.252 . S
O306 In299 2.326 . S
O306 C302 1.260 . S
O307 In299 2.266 . S
O307 C304 1.252 . S
O308 In299 2.326 . S
O308 C304 1.260 . S
C309 O300 1.240 . S
C309 O301 1.252 . S
O310 In299 2.294 . S
O310 C303 1.240 . S
O311 In299 2.326 . S
O311 C303 1.252 . S
In312 O313 2.294 . S
In312 O314 2.326 1_655 S
In312 O318 2.266 . S
In312 O319 2.326 . S
In312 O320 2.266 . S
In312 O321 2.326 . S
In312 O323 2.294 . S
In312 O324 2.326 . S
O313 In312 2.294 . S
O313 C322 1.240 1_655 S
O314 In312 2.326 1_455 S
O314 C322 1.252 . S
C315 O318 1.252 . S
C315 O319 1.260 . S
C316 O323 1.240 . S
C316 O324 1.252 . S
C317 O320 1.252 . S
C317 O321 1.260 . S
O318 In312 2.266 . S
O318 C315 1.252 . S
O319 In312 2.326 . S
O319 C315 1.260 . S
O320 In312 2.266 . S
O320 C317 1.252 . S
O321 In312 2.326 . S
O321 C317 1.260 . S
C322 O313 1.240 1_455 S
C322 O314 1.252 . S
O323 In312 2.294 . S
O323 C316 1.240 . S
O324 In312 2.326 . S
O324 C316 1.252 . S
In325 O326 2.294 . S
In325 O327 2.326 . S
In325 O331 2.266 . S
In325 O332 2.326 . S
In325 O333 2.266 . S
In325 O334 2.326 . S
In325 O336 2.294 . S
In325 O337 2.326 . S
O326 In325 2.294 . S
O326 C335 1.240 . S
O327 In325 2.326 . S
O327 C335 1.252 . S
C328 O331 1.252 . S
C328 O332 1.260 . S
C329 O336 1.240 . S
C329 O337 1.252 . S
C330 O333 1.252 . S
C330 O334 1.260 . S
O331 In325 2.266 . S
O331 C328 1.252 . S
O332 In325 2.326 . S
O332 C328 1.260 . S
O333 In325 2.266 . S
O333 C330 1.252 . S
O334 In325 2.326 . S
O334 C330 1.260 . S
C335 O326 1.240 . S
C335 O327 1.252 . S
O336 In325 2.294 . S
O336 C329 1.240 . S
O337 In325 2.326 . S
O337 C329 1.252 . S
In338 O339 2.294 . S
In338 O340 2.326 . S
In338 O344 2.266 . S
In338 O345 2.326 . S
In338 O346 2.266 . S
In338 O347 2.326 . S
In338 O349 2.294 . S
In338 O350 2.326 . S
O339 In338 2.294 . S
O339 C348 1.240 . S
O340 In338 2.326 . S
O340 C348 1.252 . S
C341 O344 1.252 . S
C341 O345 1.260 . S
C342 O349 1.240 . S
C342 O350 1.252 . S
C343 O346 1.252 . S
C343 O347 1.260 . S
O344 In338 2.266 . S
O344 C341 1.252 . S
O345 In338 2.326 . S
O345 C341 1.260 . S
O346 In338 2.266 . S
O346 C343 1.252 . S
O347 In338 2.326 . S
O347 C343 1.260 . S
C348 O339 1.240 . S
C348 O340 1.252 . S
O349 In338 2.294 . S
O349 C342 1.240 . S
O350 In338 2.326 . S
O350 C342 1.252 . S
In351 O352 2.294 . S
In351 O353 2.326 . S
In351 O357 2.266 . S
In351 O358 2.326 . S
In351 O359 2.266 . S
In351 O360 2.326 . S
In351 O362 2.294 . S
In351 O363 2.326 . S
O352 In351 2.294 . S
O352 C361 1.240 . S
O353 In351 2.326 . S
O353 C361 1.252 . S
C354 O357 1.252 . S
C354 O358 1.260 . S
C355 O362 1.240 . S
C355 O363 1.252 . S
C356 O359 1.252 . S
C356 O360 1.260 . S
O357 In351 2.266 . S
O357 C354 1.252 . S
O358 In351 2.326 . S
O358 C354 1.260 . S
O359 In351 2.266 . S
O359 C356 1.252 . S
O360 In351 2.326 . S
O360 C356 1.260 . S
C361 O352 1.240 . S
C361 O353 1.252 . S
O362 In351 2.294 . S
O362 C355 1.240 . S
O363 In351 2.326 . S
O363 C355 1.252 . S
In364 O365 2.294 . S
In364 O366 2.326 1_655 S
In364 O370 2.266 . S
In364 O371 2.326 . S
In364 O372 2.266 . S
In364 O373 2.326 . S
In364 O375 2.294 . S
In364 O376 2.326 . S
O365 In364 2.294 . S
O365 C374 1.240 1_655 S
O366 In364 2.326 1_455 S
O366 C374 1.252 . S
C367 O370 1.252 . S
C367 O371 1.260 . S
C368 O375 1.240 . S
C368 O376 1.252 . S
C369 O372 1.252 . S
C369 O373 1.260 . S
O370 In364 2.266 . S
O370 C367 1.252 . S
O371 In364 2.326 . S
O371 C367 1.260 . S
O372 In364 2.266 . S
O372 C369 1.252 . S
O373 In364 2.326 . S
O373 C369 1.260 . S
C374 O365 1.240 1_455 S
C374 O366 1.252 . S
O375 In364 2.294 . S
O375 C368 1.240 . S
O376 In364 2.326 . S
O376 C368 1.252 . S
In377 O378 2.294 . S
In377 O379 2.326 . S
In377 O383 2.266 . S
In377 O384 2.326 . S
In377 O385 2.266 . S
In377 O386 2.326 . S
In377 O388 2.294 . S
In377 O389 2.326 . S
O378 In377 2.294 . S
O378 C387 1.240 . S
O379 In377 2.326 . S
O379 C387 1.252 . S
C380 O383 1.252 . S
C380 O384 1.260 . S
C381 O388 1.240 . S
C381 O389 1.252 . S
C382 O385 1.252 . S
C382 O386 1.260 . S
O383 In377 2.266 . S
O383 C380 1.252 . S
O384 In377 2.326 . S
O384 C380 1.260 . S
O385 In377 2.266 . S
O385 C382 1.252 . S
O386 In377 2.326 . S
O386 C382 1.260 . S
C387 O378 1.240 . S
C387 O379 1.252 . S
O388 In377 2.294 . S
O388 C381 1.240 . S
O389 In377 2.326 . S
O389 C381 1.252 . S
In390 O391 2.294 . S
In390 O392 2.326 . S
In390 O396 2.266 . S
In390 O397 2.326 . S
In390 O398 2.266 . S
In390 O399 2.326 . S
In390 O401 2.294 . S
In390 O402 2.326 . S
O391 In390 2.294 . S
O391 C400 1.240 . S
O392 In390 2.326 . S
O392 C400 1.252 . S
C393 O396 1.252 . S
C393 O397 1.260 . S
C394 O401 1.240 . S
C394 O402 1.252 . S
C395 O398 1.252 . S
C395 O399 1.260 . S
O396 In390 2.266 . S
O396 C393 1.252 . S
O397 In390 2.326 . S
O397 C393 1.260 . S
O398 In390 2.266 . S
O398 C395 1.252 . S
O399 In390 2.326 . S
O399 C395 1.260 . S
C400 O391 1.240 . S
C400 O392 1.252 . S
O401 In390 2.294 . S
O401 C394 1.240 . S
O402 In390 2.326 . S
O402 C394 1.252 . S
In403 O404 2.294 . S
In403 O405 2.326 . S
In403 O409 2.266 . S
In403 O410 2.326 . S
In403 O411 2.266 . S
In403 O412 2.326 . S
In403 O414 2.294 . S
In403 O415 2.326 . S
O404 In403 2.294 . S
O404 C413 1.240 . S
O405 In403 2.326 . S
O405 C413 1.252 . S
C406 O409 1.252 . S
C406 O410 1.260 . S
C407 O414 1.240 . S
C407 O415 1.252 . S
C408 O411 1.252 . S
C408 O412 1.260 . S
O409 In403 2.266 . S
O409 C406 1.252 . S
O410 In403 2.326 . S
O410 C406 1.260 . S
O411 In403 2.266 . S
O411 C408 1.252 . S
O412 In403 2.326 . S
O412 C408 1.260 . S
C413 O404 1.240 . S
C413 O405 1.252 . S
O414 In403 2.294 . S
O414 C407 1.240 . S
O415 In403 2.326 . S
O415 C407 1.252 . S
In416 O417 2.294 . S
In416 O418 2.326 1_565 S
In416 O422 2.266 . S
In416 O423 2.326 . S
In416 O424 2.266 . S
In416 O425 2.326 . S
In416 O427 2.294 . S
In416 O428 2.326 . S
O417 In416 2.294 . S
O417 C426 1.240 1_565 S
O418 In416 2.326 1_545 S
O418 C426 1.252 . S
C419 O422 1.252 . S
C419 O423 1.260 . S
C420 O427 1.240 . S
C420 O428 1.252 . S
C421 O424 1.252 . S
C421 O425 1.260 . S
O422 In416 2.266 . S
O422 C419 1.252 . S
O423 In416 2.326 . S
O423 C419 1.260 . S
O424 In416 2.266 . S
O424 C421 1.252 . S
O425 In416 2.326 . S
O425 C421 1.260 . S
C426 O417 1.240 1_545 S
C426 O418 1.252 . S
O427 In416 2.294 . S
O427 C420 1.240 . S
O428 In416 2.326 . S
O428 C420 1.252 . S
In429 O430 2.294 . S
In429 O431 2.326 . S
In429 O435 2.266 . S
In429 O436 2.326 . S
In429 O437 2.266 . S
In429 O438 2.326 . S
In429 O440 2.294 . S
In429 O441 2.326 . S
O430 In429 2.294 . S
O430 C439 1.240 . S
O431 In429 2.326 . S
O431 C439 1.252 . S
C432 O435 1.252 . S
C432 O436 1.260 . S
C433 O440 1.240 . S
C433 O441 1.252 . S
C434 O437 1.252 . S
C434 O438 1.260 . S
O435 In429 2.266 . S
O435 C432 1.252 . S
O436 In429 2.326 . S
O436 C432 1.260 . S
O437 In429 2.266 . S
O437 C434 1.252 . S
O438 In429 2.326 . S
O438 C434 1.260 . S
C439 O430 1.240 . S
C439 O431 1.252 . S
O440 In429 2.294 . S
O440 C433 1.240 . S
O441 In429 2.326 . S
O441 C433 1.252 . S
In442 O443 2.294 . S
In442 O444 2.326 . S
In442 O448 2.266 . S
In442 O449 2.326 . S
In442 O450 2.266 . S
In442 O451 2.326 . S
In442 O453 2.294 . S
In442 O454 2.326 1_545 S
O443 In442 2.294 . S
O443 C452 1.240 . S
O444 In442 2.326 . S
O444 C452 1.252 . S
C445 O448 1.252 . S
C445 O449 1.260 . S
C446 O453 1.240 1_565 S
C446 O454 1.252 . S
C447 O450 1.252 . S
C447 O451 1.260 . S
O448 In442 2.266 . S
O448 C445 1.252 . S
O449 In442 2.326 . S
O449 C445 1.260 . S
O450 In442 2.266 . S
O450 C447 1.252 . S
O451 In442 2.326 . S
O451 C447 1.260 . S
C452 O443 1.240 . S
C452 O444 1.252 . S
O453 In442 2.294 . S
O453 C446 1.240 1_545 S
O454 In442 2.326 1_565 S
O454 C446 1.252 . S
In455 O456 2.294 . S
In455 O457 2.326 . S
In455 O461 2.266 . S
In455 O462 2.326 . S
In455 O463 2.266 . S
In455 O464 2.326 . S
In455 O466 2.294 . S
In455 O467 2.326 . S
O456 In455 2.294 . S
O456 C465 1.240 . S
O457 In455 2.326 . S
O457 C465 1.252 . S
C458 O461 1.252 . S
C458 O462 1.260 . S
C459 O466 1.240 . S
C459 O467 1.252 . S
C460 O463 1.252 . S
C460 O464 1.260 . S
O461 In455 2.266 . S
O461 C458 1.252 . S
O462 In455 2.326 . S
O462 C458 1.260 . S
O463 In455 2.266 . S
O463 C460 1.252 . S
O464 In455 2.326 . S
O464 C460 1.260 . S
C465 O456 1.240 . S
C465 O457 1.252 . S
O466 In455 2.294 . S
O466 C459 1.240 . S
O467 In455 2.326 . S
O467 C459 1.252 . S
In468 O469 2.294 . S
In468 O470 2.326 1_545 S
In468 O474 2.266 . S
In468 O475 2.326 . S
In468 O476 2.266 . S
In468 O477 2.326 . S
In468 O479 2.294 . S
In468 O480 2.326 . S
O469 In468 2.294 . S
O469 C478 1.240 1_545 S
O470 In468 2.326 1_565 S
O470 C478 1.252 . S
C471 O474 1.252 . S
C471 O475 1.260 . S
C472 O479 1.240 . S
C472 O480 1.252 . S
C473 O476 1.252 . S
C473 O477 1.260 . S
O474 In468 2.266 . S
O474 C471 1.252 . S
O475 In468 2.326 . S
O475 C471 1.260 . S
O476 In468 2.266 . S
O476 C473 1.252 . S
O477 In468 2.326 . S
O477 C473 1.260 . S
C478 O469 1.240 1_565 S
C478 O470 1.252 . S
O479 In468 2.294 . S
O479 C472 1.240 . S
O480 In468 2.326 . S
O480 C472 1.252 . S
In481 O482 2.294 . S
In481 O483 2.326 . S
In481 O487 2.266 . S
In481 O488 2.326 . S
In481 O489 2.266 . S
In481 O490 2.326 . S
In481 O492 2.294 . S
In481 O493 2.326 . S
O482 In481 2.294 . S
O482 C491 1.240 . S
O483 In481 2.326 . S
O483 C491 1.252 . S
C484 O487 1.252 . S
C484 O488 1.260 . S
C485 O492 1.240 . S
C485 O493 1.252 . S
C486 O489 1.252 . S
C486 O490 1.260 . S
O487 In481 2.266 . S
O487 C484 1.252 . S
O488 In481 2.326 . S
O488 C484 1.260 . S
O489 In481 2.266 . S
O489 C486 1.252 . S
O490 In481 2.326 . S
O490 C486 1.260 . S
C491 O482 1.240 . S
C491 O483 1.252 . S
O492 In481 2.294 . S
O492 C485 1.240 . S
O493 In481 2.326 . S
O493 C485 1.252 . S
In494 O495 2.294 . S
In494 O496 2.326 1_565 S
In494 O500 2.266 . S
In494 O501 2.326 . S
In494 O502 2.266 . S
In494 O503 2.326 . S
In494 O505 2.294 . S
In494 O506 2.326 . S
O495 In494 2.294 . S
O495 C504 1.240 1_565 S
O496 In494 2.326 1_545 S
O496 C504 1.252 . S
C497 O500 1.252 . S
C497 O501 1.260 . S
C498 O505 1.240 . S
C498 O506 1.252 . S
C499 O502 1.252 . S
C499 O503 1.260 . S
O500 In494 2.266 . S
O500 C497 1.252 . S
O501 In494 2.326 . S
O501 C497 1.260 . S
O502 In494 2.266 . S
O502 C499 1.252 . S
O503 In494 2.326 . S
O503 C499 1.260 . S
C504 O495 1.240 1_545 S
C504 O496 1.252 . S
O505 In494 2.294 . S
O505 C498 1.240 . S
O506 In494 2.326 . S
O506 C498 1.252 . S
In507 O508 2.294 . S
In507 O509 2.326 . S
In507 O513 2.266 . S
In507 O514 2.326 . S
In507 O515 2.266 . S
In507 O516 2.326 . S
In507 O518 2.294 . S
In507 O519 2.326 . S
O508 In507 2.294 . S
O508 C517 1.240 . S
O509 In507 2.326 . S
O509 C517 1.252 . S
C510 O513 1.252 . S
C510 O514 1.260 . S
C511 O518 1.240 . S
C511 O519 1.252 . S
C512 O515 1.252 . S
C512 O516 1.260 . S
O513 In507 2.266 . S
O513 C510 1.252 . S
O514 In507 2.326 . S
O514 C510 1.260 . S
O515 In507 2.266 . S
O515 C512 1.252 . S
O516 In507 2.326 . S
O516 C512 1.260 . S
C517 O508 1.240 . S
C517 O509 1.252 . S
O518 In507 2.294 . S
O518 C511 1.240 . S
O519 In507 2.326 . S
O519 C511 1.252 . S
In520 O521 2.294 . S
In520 O522 2.326 . S
In520 O526 2.266 . S
In520 O527 2.326 . S
In520 O528 2.266 . S
In520 O529 2.326 . S
In520 O531 2.294 . S
In520 O532 2.326 1_556 S
O521 In520 2.294 . S
O521 C530 1.240 . S
O522 In520 2.326 . S
O522 C530 1.252 . S
C523 O526 1.252 . S
C523 O527 1.260 . S
C524 O531 1.240 1_554 S
C524 O532 1.252 . S
C525 O528 1.252 . S
C525 O529 1.260 . S
O526 In520 2.266 . S
O526 C523 1.252 . S
O527 In520 2.326 . S
O527 C523 1.260 . S
O528 In520 2.266 . S
O528 C525 1.252 . S
O529 In520 2.326 . S
O529 C525 1.260 . S
C530 O521 1.240 . S
C530 O522 1.252 . S
O531 In520 2.294 . S
O531 C524 1.240 1_556 S
O532 In520 2.326 1_554 S
O532 C524 1.252 . S
In533 O534 2.294 . S
In533 O535 2.326 1_554 S
In533 O539 2.266 . S
In533 O540 2.326 . S
In533 O541 2.266 . S
In533 O542 2.326 . S
In533 O544 2.294 . S
In533 O545 2.326 . S
O534 In533 2.294 . S
O534 C543 1.240 1_554 S
O535 In533 2.326 1_556 S
O535 C543 1.252 . S
C536 O539 1.252 . S
C536 O540 1.260 . S
C537 O544 1.240 . S
C537 O545 1.252 . S
C538 O541 1.252 . S
C538 O542 1.260 . S
O539 In533 2.266 . S
O539 C536 1.252 . S
O540 In533 2.326 . S
O540 C536 1.260 . S
O541 In533 2.266 . S
O541 C538 1.252 . S
O542 In533 2.326 . S
O542 C538 1.260 . S
C543 O534 1.240 1_556 S
C543 O535 1.252 . S
O544 In533 2.294 . S
O544 C537 1.240 . S
O545 In533 2.326 . S
O545 C537 1.252 . S
In546 O547 2.294 . S
In546 O548 2.326 . S
In546 O552 2.266 . S
In546 O553 2.326 . S
In546 O554 2.266 . S
In546 O555 2.326 . S
In546 O557 2.294 . S
In546 O558 2.326 . S
O547 In546 2.294 . S
O547 C556 1.240 . S
O548 In546 2.326 . S
O548 C556 1.252 . S
C549 O552 1.252 . S
C549 O553 1.260 . S
C550 O557 1.240 . S
C550 O558 1.252 . S
C551 O554 1.252 . S
C551 O555 1.260 . S
O552 In546 2.266 . S
O552 C549 1.252 . S
O553 In546 2.326 . S
O553 C549 1.260 . S
O554 In546 2.266 . S
O554 C551 1.252 . S
O555 In546 2.326 . S
O555 C551 1.260 . S
C556 O547 1.240 . S
C556 O548 1.252 . S
O557 In546 2.294 . S
O557 C550 1.240 . S
O558 In546 2.326 . S
O558 C550 1.252 . S
In559 O560 2.294 . S
In559 O561 2.326 . S
In559 O565 2.266 . S
In559 O566 2.326 . S
In559 O567 2.266 . S
In559 O568 2.326 . S
In559 O570 2.294 . S
In559 O571 2.326 . S
O560 In559 2.294 . S
O560 C569 1.240 . S
O561 In559 2.326 . S
O561 C569 1.252 . S
C562 O565 1.252 . S
C562 O566 1.260 . S
C563 O570 1.240 . S
C563 O571 1.252 . S
C564 O567 1.252 . S
C564 O568 1.260 . S
O565 In559 2.266 . S
O565 C562 1.252 . S
O566 In559 2.326 . S
O566 C562 1.260 . S
O567 In559 2.266 . S
O567 C564 1.252 . S
O568 In559 2.326 . S
O568 C564 1.260 . S
C569 O560 1.240 . S
C569 O561 1.252 . S
O570 In559 2.294 . S
O570 C563 1.240 . S
O571 In559 2.326 . S
O571 C563 1.252 . S
In572 O573 2.294 . S
In572 O574 2.326 . S
In572 O578 2.266 . S
In572 O579 2.326 . S
In572 O580 2.266 . S
In572 O581 2.326 . S
In572 O583 2.294 . S
In572 O584 2.326 . S
O573 In572 2.294 . S
O573 C582 1.240 . S
O574 In572 2.326 . S
O574 C582 1.252 . S
C575 O578 1.252 . S
C575 O579 1.260 . S
C576 O583 1.240 . S
C576 O584 1.252 . S
C577 O580 1.252 . S
C577 O581 1.260 . S
O578 In572 2.266 . S
O578 C575 1.252 . S
O579 In572 2.326 . S
O579 C575 1.260 . S
O580 In572 2.266 . S
O580 C577 1.252 . S
O581 In572 2.326 . S
O581 C577 1.260 . S
C582 O573 1.240 . S
C582 O574 1.252 . S
O583 In572 2.294 . S
O583 C576 1.240 . S
O584 In572 2.326 . S
O584 C576 1.252 . S
In585 O586 2.294 . S
In585 O587 2.326 . S
In585 O591 2.266 . S
In585 O592 2.326 . S
In585 O593 2.266 . S
In585 O594 2.326 . S
In585 O596 2.294 . S
In585 O597 2.326 . S
O586 In585 2.294 . S
O586 C595 1.240 . S
O587 In585 2.326 . S
O587 C595 1.252 . S
C588 O591 1.252 . S
C588 O592 1.260 . S
C589 O596 1.240 . S
C589 O597 1.252 . S
C590 O593 1.252 . S
C590 O594 1.260 . S
O591 In585 2.266 . S
O591 C588 1.252 . S
O592 In585 2.326 . S
O592 C588 1.260 . S
O593 In585 2.266 . S
O593 C590 1.252 . S
O594 In585 2.326 . S
O594 C590 1.260 . S
C595 O586 1.240 . S
C595 O587 1.252 . S
O596 In585 2.294 . S
O596 C589 1.240 . S
O597 In585 2.326 . S
O597 C589 1.252 . S
In598 O599 2.294 . S
In598 O600 2.326 . S
In598 O604 2.266 . S
In598 O605 2.326 . S
In598 O606 2.266 . S
In598 O607 2.326 . S
In598 O609 2.294 . S
In598 O610 2.326 . S
O599 In598 2.294 . S
O599 C608 1.240 . S
O600 In598 2.326 . S
O600 C608 1.252 . S
C601 O604 1.252 . S
C601 O605 1.260 . S
C602 O609 1.240 . S
C602 O610 1.252 . S
C603 O606 1.252 . S
C603 O607 1.260 . S
O604 In598 2.266 . S
O604 C601 1.252 . S
O605 In598 2.326 . S
O605 C601 1.260 . S
O606 In598 2.266 . S
O606 C603 1.252 . S
O607 In598 2.326 . S
O607 C603 1.260 . S
C608 O599 1.240 . S
C608 O600 1.252 . S
O609 In598 2.294 . S
O609 C602 1.240 . S
O610 In598 2.326 . S
O610 C602 1.252 . S
In611 O612 2.294 . S
In611 O613 2.326 . S
In611 O617 2.266 . S
In611 O618 2.326 . S
In611 O619 2.266 . S
In611 O620 2.326 . S
In611 O622 2.294 . S
In611 O623 2.326 . S
O612 In611 2.294 . S
O612 C621 1.240 . S
O613 In611 2.326 . S
O613 C621 1.252 . S
C614 O617 1.252 . S
C614 O618 1.260 . S
C615 O622 1.240 . S
C615 O623 1.252 . S
C616 O619 1.252 . S
C616 O620 1.260 . S
O617 In611 2.266 . S
O617 C614 1.252 . S
O618 In611 2.326 . S
O618 C614 1.260 . S
O619 In611 2.266 . S
O619 C616 1.252 . S
O620 In611 2.326 . S
O620 C616 1.260 . S
C621 O612 1.240 . S
C621 O613 1.252 . S
O622 In611 2.294 . S
O622 C615 1.240 . S
O623 In611 2.326 . S
O623 C615 1.252 . S
In624 O625 2.294 . S
In624 O626 2.326 . S
In624 O630 2.266 . S
In624 O631 2.326 . S
In624 O632 2.266 . S
In624 O633 2.326 . S
In624 O635 2.294 . S
In624 O636 2.326 . S
O625 In624 2.294 . S
O625 C634 1.240 . S
O626 In624 2.326 . S
O626 C634 1.252 . S
C627 O630 1.252 . S
C627 O631 1.260 . S
C628 O635 1.240 . S
C628 O636 1.252 . S
C629 O632 1.252 . S
C629 O633 1.260 . S
O630 In624 2.266 . S
O630 C627 1.252 . S
O631 In624 2.326 . S
O631 C627 1.260 . S
O632 In624 2.266 . S
O632 C629 1.252 . S
O633 In624 2.326 . S
O633 C629 1.260 . S
C634 O625 1.240 . S
C634 O626 1.252 . S
O635 In624 2.294 . S
O635 C628 1.240 . S
O636 In624 2.326 . S
O636 C628 1.252 . S
In637 O638 2.294 . S
In637 O639 2.326 . S
In637 O643 2.266 . S
In637 O644 2.326 . S
In637 O645 2.266 . S
In637 O646 2.326 . S
In637 O648 2.294 . S
In637 O649 2.326 . S
O638 In637 2.294 . S
O638 C647 1.240 . S
O639 In637 2.326 . S
O639 C647 1.252 . S
C640 O643 1.252 . S
C640 O644 1.260 . S
C641 O648 1.240 . S
C641 O649 1.252 . S
C642 O645 1.252 . S
C642 O646 1.260 . S
O643 In637 2.266 . S
O643 C640 1.252 . S
O644 In637 2.326 . S
O644 C640 1.260 . S
O645 In637 2.266 . S
O645 C642 1.252 . S
O646 In637 2.326 . S
O646 C642 1.260 . S
C647 O638 1.240 . S
C647 O639 1.252 . S
O648 In637 2.294 . S
O648 C641 1.240 . S
O649 In637 2.326 . S
O649 C641 1.252 . S
In650 O651 2.294 . S
In650 O652 2.326 1_655 S
In650 O656 2.266 . S
In650 O657 2.326 . S
In650 O658 2.266 . S
In650 O659 2.326 . S
In650 O661 2.294 . S
In650 O662 2.326 . S
O651 In650 2.294 . S
O651 C660 1.240 1_655 S
O652 In650 2.326 1_455 S
O652 C660 1.252 . S
C653 O656 1.252 . S
C653 O657 1.260 . S
C654 O661 1.240 . S
C654 O662 1.252 . S
C655 O658 1.252 . S
C655 O659 1.260 . S
O656 In650 2.266 . S
O656 C653 1.252 . S
O657 In650 2.326 . S
O657 C653 1.260 . S
O658 In650 2.266 . S
O658 C655 1.252 . S
O659 In650 2.326 . S
O659 C655 1.260 . S
C660 O651 1.240 1_455 S
C660 O652 1.252 . S
O661 In650 2.294 . S
O661 C654 1.240 . S
O662 In650 2.326 . S
O662 C654 1.252 . S
In663 O664 2.294 . S
In663 O665 2.326 . S
In663 O669 2.266 . S
In663 O670 2.326 . S
In663 O671 2.266 . S
In663 O672 2.326 . S
In663 O674 2.294 . S
In663 O675 2.326 . S
O664 In663 2.294 . S
O664 C673 1.240 . S
O665 In663 2.326 . S
O665 C673 1.252 . S
C666 O669 1.252 . S
C666 O670 1.260 . S
C667 O674 1.240 . S
C667 O675 1.252 . S
C668 O671 1.252 . S
C668 O672 1.260 . S
O669 In663 2.266 . S
O669 C666 1.252 . S
O670 In663 2.326 . S
O670 C666 1.260 . S
O671 In663 2.266 . S
O671 C668 1.252 . S
O672 In663 2.326 . S
O672 C668 1.260 . S
C673 O664 1.240 . S
C673 O665 1.252 . S
O674 In663 2.294 . S
O674 C667 1.240 . S
O675 In663 2.326 . S
O675 C667 1.252 . S
In676 O677 2.294 . S
In676 O678 2.326 . S
In676 O682 2.266 . S
In676 O683 2.326 . S
In676 O684 2.266 . S
In676 O685 2.326 . S
In676 O687 2.294 . S
In676 O688 2.326 . S
O677 In676 2.294 . S
O677 C686 1.240 . S
O678 In676 2.326 . S
O678 C686 1.252 . S
C679 O682 1.252 . S
C679 O683 1.260 . S
C680 O687 1.240 . S
C680 O688 1.252 . S
C681 O684 1.252 . S
C681 O685 1.260 . S
O682 In676 2.266 . S
O682 C679 1.252 . S
O683 In676 2.326 . S
O683 C679 1.260 . S
O684 In676 2.266 . S
O684 C681 1.252 . S
O685 In676 2.326 . S
O685 C681 1.260 . S
C686 O677 1.240 . S
C686 O678 1.252 . S
O687 In676 2.294 . S
O687 C680 1.240 . S
O688 In676 2.326 . S
O688 C680 1.252 . S
In689 O690 2.294 . S
In689 O691 2.326 . S
In689 O695 2.266 . S
In689 O696 2.326 . S
In689 O697 2.266 . S
In689 O698 2.326 . S
In689 O700 2.294 . S
In689 O701 2.326 . S
O690 In689 2.294 . S
O690 C699 1.240 . S
O691 In689 2.326 . S
O691 C699 1.252 . S
C692 O695 1.252 . S
C692 O696 1.260 . S
C693 O700 1.240 . S
C693 O701 1.252 . S
C694 O697 1.252 . S
C694 O698 1.260 . S
O695 In689 2.266 . S
O695 C692 1.252 . S
O696 In689 2.326 . S
O696 C692 1.260 . S
O697 In689 2.266 . S
O697 C694 1.252 . S
O698 In689 2.326 . S
O698 C694 1.260 . S
C699 O690 1.240 . S
C699 O691 1.252 . S
O700 In689 2.294 . S
O700 C693 1.240 . S
O701 In689 2.326 . S
O701 C693 1.252 . S
In702 O703 2.294 . S
In702 O704 2.326 . S
In702 O708 2.266 . S
In702 O709 2.326 . S
In702 O710 2.266 . S
In702 O711 2.326 . S
In702 O713 2.294 . S
In702 O714 2.326 1_655 S
O703 In702 2.294 . S
O703 C712 1.240 . S
O704 In702 2.326 . S
O704 C712 1.252 . S
C705 O708 1.252 . S
C705 O709 1.260 . S
C706 O713 1.240 1_455 S
C706 O714 1.252 . S
C707 O710 1.252 . S
C707 O711 1.260 . S
O708 In702 2.266 . S
O708 C705 1.252 . S
O709 In702 2.326 . S
O709 C705 1.260 . S
O710 In702 2.266 . S
O710 C707 1.252 . S
O711 In702 2.326 . S
O711 C707 1.260 . S
C712 O703 1.240 . S
C712 O704 1.252 . S
O713 In702 2.294 . S
O713 C706 1.240 1_655 S
O714 In702 2.326 1_455 S
O714 C706 1.252 . S
In715 O716 2.294 . S
In715 O717 2.326 . S
In715 O721 2.266 . S
In715 O722 2.326 . S
In715 O723 2.266 . S
In715 O724 2.326 . S
In715 O726 2.294 . S
In715 O727 2.326 . S
O716 In715 2.294 . S
O716 C725 1.240 . S
O717 In715 2.326 . S
O717 C725 1.252 . S
C718 O721 1.252 . S
C718 O722 1.260 . S
C719 O726 1.240 . S
C719 O727 1.252 . S
C720 O723 1.252 . S
C720 O724 1.260 . S
O721 In715 2.266 . S
O721 C718 1.252 . S
O722 In715 2.326 . S
O722 C718 1.260 . S
O723 In715 2.266 . S
O723 C720 1.252 . S
O724 In715 2.326 . S
O724 C720 1.260 . S
C725 O716 1.240 . S
C725 O717 1.252 . S
O726 In715 2.294 . S
O726 C719 1.240 . S
O727 In715 2.326 . S
O727 C719 1.252 . S
In728 O729 2.294 . S
In728 O730 2.326 . S
In728 O734 2.266 . S
In728 O735 2.326 . S
In728 O736 2.266 . S
In728 O737 2.326 . S
In728 O739 2.294 . S
In728 O740 2.326 . S
O729 In728 2.294 . S
O729 C738 1.240 . S
O730 In728 2.326 . S
O730 C738 1.252 . S
C731 O734 1.252 . S
C731 O735 1.260 . S
C732 O739 1.240 . S
C732 O740 1.252 . S
C733 O736 1.252 . S
C733 O737 1.260 . S
O734 In728 2.266 . S
O734 C731 1.252 . S
O735 In728 2.326 . S
O735 C731 1.260 . S
O736 In728 2.266 . S
O736 C733 1.252 . S
O737 In728 2.326 . S
O737 C733 1.260 . S
C738 O729 1.240 . S
C738 O730 1.252 . S
O739 In728 2.294 . S
O739 C732 1.240 . S
O740 In728 2.326 . S
O740 C732 1.252 . S
In741 O742 2.294 . S
In741 O743 2.326 . S
In741 O747 2.266 . S
In741 O748 2.326 . S
In741 O749 2.266 . S
In741 O750 2.326 . S
In741 O752 2.294 . S
In741 O753 2.326 . S
O742 In741 2.294 . S
O742 C751 1.240 . S
O743 In741 2.326 . S
O743 C751 1.252 . S
C744 O747 1.252 . S
C744 O748 1.260 . S
C745 O752 1.240 . S
C745 O753 1.252 . S
C746 O749 1.252 . S
C746 O750 1.260 . S
O747 In741 2.266 . S
O747 C744 1.252 . S
O748 In741 2.326 . S
O748 C744 1.260 . S
O749 In741 2.266 . S
O749 C746 1.252 . S
O750 In741 2.326 . S
O750 C746 1.260 . S
C751 O742 1.240 . S
C751 O743 1.252 . S
O752 In741 2.294 . S
O752 C745 1.240 . S
O753 In741 2.326 . S
O753 C745 1.252 . S
In754 O755 2.294 . S
In754 O756 2.326 . S
In754 O760 2.266 . S
In754 O761 2.326 . S
In754 O762 2.266 . S
In754 O763 2.326 . S
In754 O765 2.294 . S
In754 O766 2.326 . S
O755 In754 2.294 . S
O755 C764 1.240 . S
O756 In754 2.326 . S
O756 C764 1.252 . S
C757 O760 1.252 . S
C757 O761 1.260 . S
C758 O765 1.240 . S
C758 O766 1.252 . S
C759 O762 1.252 . S
C759 O763 1.260 . S
O760 In754 2.266 . S
O760 C757 1.252 . S
O761 In754 2.326 . S
O761 C757 1.260 . S
O762 In754 2.266 . S
O762 C759 1.252 . S
O763 In754 2.326 . S
O763 C759 1.260 . S
C764 O755 1.240 . S
C764 O756 1.252 . S
O765 In754 2.294 . S
O765 C758 1.240 . S
O766 In754 2.326 . S
O766 C758 1.252 . S
In767 O768 2.294 . S
In767 O769 2.326 . S
In767 O773 2.266 . S
In767 O774 2.326 . S
In767 O775 2.266 . S
In767 O776 2.326 . S
In767 O778 2.294 . S
In767 O779 2.326 . S
O768 In767 2.294 . S
O768 C777 1.240 . S
O769 In767 2.326 . S
O769 C777 1.252 . S
C770 O773 1.252 . S
C770 O774 1.260 . S
C771 O778 1.240 . S
C771 O779 1.252 . S
C772 O775 1.252 . S
C772 O776 1.260 . S
O773 In767 2.266 . S
O773 C770 1.252 . S
O774 In767 2.326 . S
O774 C770 1.260 . S
O775 In767 2.266 . S
O775 C772 1.252 . S
O776 In767 2.326 . S
O776 C772 1.260 . S
C777 O768 1.240 . S
C777 O769 1.252 . S
O778 In767 2.294 . S
O778 C771 1.240 . S
O779 In767 2.326 . S
O779 C771 1.252 . S
In780 O781 2.294 . S
In780 O782 2.326 . S
In780 O786 2.266 . S
In780 O787 2.326 . S
In780 O788 2.266 . S
In780 O789 2.326 . S
In780 O791 2.294 . S
In780 O792 2.326 . S
O781 In780 2.294 . S
O781 C790 1.240 . S
O782 In780 2.326 . S
O782 C790 1.252 . S
C783 O786 1.252 . S
C783 O787 1.260 . S
C784 O791 1.240 . S
C784 O792 1.252 . S
C785 O788 1.252 . S
C785 O789 1.260 . S
O786 In780 2.266 . S
O786 C783 1.252 . S
O787 In780 2.326 . S
O787 C783 1.260 . S
O788 In780 2.266 . S
O788 C785 1.252 . S
O789 In780 2.326 . S
O789 C785 1.260 . S
C790 O781 1.240 . S
C790 O782 1.252 . S
O791 In780 2.294 . S
O791 C784 1.240 . S
O792 In780 2.326 . S
O792 C784 1.252 . S
In793 O794 2.294 . S
In793 O795 2.326 . S
In793 O799 2.266 . S
In793 O800 2.326 . S
In793 O801 2.266 . S
In793 O802 2.326 . S
In793 O804 2.294 . S
In793 O805 2.326 . S
O794 In793 2.294 . S
O794 C803 1.240 . S
O795 In793 2.326 . S
O795 C803 1.252 . S
C796 O799 1.252 . S
C796 O800 1.260 . S
C797 O804 1.240 . S
C797 O805 1.252 . S
C798 O801 1.252 . S
C798 O802 1.260 . S
O799 In793 2.266 . S
O799 C796 1.252 . S
O800 In793 2.326 . S
O800 C796 1.260 . S
O801 In793 2.266 . S
O801 C798 1.252 . S
O802 In793 2.326 . S
O802 C798 1.260 . S
C803 O794 1.240 . S
C803 O795 1.252 . S
O804 In793 2.294 . S
O804 C797 1.240 . S
O805 In793 2.326 . S
O805 C797 1.252 . S
In806 O807 2.294 . S
In806 O808 2.326 . S
In806 O812 2.266 . S
In806 O813 2.326 . S
In806 O814 2.266 . S
In806 O815 2.326 . S
In806 O817 2.294 . S
In806 O818 2.326 . S
O807 In806 2.294 . S
O807 C816 1.240 . S
O808 In806 2.326 . S
O808 C816 1.252 . S
C809 O812 1.252 . S
C809 O813 1.260 . S
C810 O817 1.240 . S
C810 O818 1.252 . S
C811 O814 1.252 . S
C811 O815 1.260 . S
O812 In806 2.266 . S
O812 C809 1.252 . S
O813 In806 2.326 . S
O813 C809 1.260 . S
O814 In806 2.266 . S
O814 C811 1.252 . S
O815 In806 2.326 . S
O815 C811 1.260 . S
C816 O807 1.240 . S
C816 O808 1.252 . S
O817 In806 2.294 . S
O817 C810 1.240 . S
O818 In806 2.326 . S
O818 C810 1.252 . S
In819 O820 2.294 . S
In819 O821 2.326 . S
In819 O825 2.266 . S
In819 O826 2.326 . S
In819 O827 2.266 . S
In819 O828 2.326 . S
In819 O830 2.294 . S
In819 O831 2.326 . S
O820 In819 2.294 . S
O820 C829 1.240 . S
O821 In819 2.326 . S
O821 C829 1.252 . S
C822 O825 1.252 . S
C822 O826 1.260 . S
C823 O830 1.240 . S
C823 O831 1.252 . S
C824 O827 1.252 . S
C824 O828 1.260 . S
O825 In819 2.266 . S
O825 C822 1.252 . S
O826 In819 2.326 . S
O826 C822 1.260 . S
O827 In819 2.266 . S
O827 C824 1.252 . S
O828 In819 2.326 . S
O828 C824 1.260 . S
C829 O820 1.240 . S
C829 O821 1.252 . S
O830 In819 2.294 . S
O830 C823 1.240 . S
O831 In819 2.326 . S
O831 C823 1.252 . S
In832 O833 2.294 . S
In832 O834 2.326 . S
In832 O838 2.266 . S
In832 O839 2.326 . S
In832 O840 2.266 . S
In832 O841 2.326 . S
In832 O843 2.294 . S
In832 O844 2.326 . S
O833 In832 2.294 . S
O833 C842 1.240 . S
O834 In832 2.326 . S
O834 C842 1.252 . S
C835 O838 1.252 . S
C835 O839 1.260 . S
C836 O843 1.240 . S
C836 O844 1.252 . S
C837 O840 1.252 . S
C837 O841 1.260 . S
O838 In832 2.266 . S
O838 C835 1.252 . S
O839 In832 2.326 . S
O839 C835 1.260 . S
O840 In832 2.266 . S
O840 C837 1.252 . S
O841 In832 2.326 . S
O841 C837 1.260 . S
C842 O833 1.240 . S
C842 O834 1.252 . S
O843 In832 2.294 . S
O843 C836 1.240 . S
O844 In832 2.326 . S
O844 C836 1.252 . S
In845 O846 2.294 . S
In845 O847 2.326 . S
In845 O851 2.266 . S
In845 O852 2.326 . S
In845 O853 2.266 . S
In845 O854 2.326 . S
In845 O856 2.294 . S
In845 O857 2.326 . S
O846 In845 2.294 . S
O846 C855 1.240 . S
O847 In845 2.326 . S
O847 C855 1.252 . S
C848 O851 1.252 . S
C848 O852 1.260 . S
C849 O856 1.240 . S
C849 O857 1.252 . S
C850 O853 1.252 . S
C850 O854 1.260 . S
O851 In845 2.266 . S
O851 C848 1.252 . S
O852 In845 2.326 . S
O852 C848 1.260 . S
O853 In845 2.266 . S
O853 C850 1.252 . S
O854 In845 2.326 . S
O854 C850 1.260 . S
C855 O846 1.240 . S
C855 O847 1.252 . S
O856 In845 2.294 . S
O856 C849 1.240 . S
O857 In845 2.326 . S
O857 C849 1.252 . S
In858 O859 2.294 . S
In858 O860 2.326 . S
In858 O864 2.266 . S
In858 O865 2.326 . S
In858 O866 2.266 . S
In858 O867 2.326 . S
In858 O869 2.294 . S
In858 O870 2.326 . S
O859 In858 2.294 . S
O859 C868 1.240 . S
O860 In858 2.326 . S
O860 C868 1.252 . S
C861 O864 1.252 . S
C861 O865 1.260 . S
C862 O869 1.240 . S
C862 O870 1.252 . S
C863 O866 1.252 . S
C863 O867 1.260 . S
O864 In858 2.266 . S
O864 C861 1.252 . S
O865 In858 2.326 . S
O865 C861 1.260 . S
O866 In858 2.266 . S
O866 C863 1.252 . S
O867 In858 2.326 . S
O867 C863 1.260 . S
C868 O859 1.240 . S
C868 O860 1.252 . S
O869 In858 2.294 . S
O869 C862 1.240 . S
O870 In858 2.326 . S
O870 C862 1.252 . S
In871 O872 2.294 . S
In871 O873 2.326 1_556 S
In871 O877 2.266 . S
In871 O878 2.326 . S
In871 O879 2.266 . S
In871 O880 2.326 . S
In871 O882 2.294 . S
In871 O883 2.326 . S
O872 In871 2.294 . S
O872 C881 1.240 1_556 S
O873 In871 2.326 1_554 S
O873 C881 1.252 . S
C874 O877 1.252 . S
C874 O878 1.260 . S
C875 O882 1.240 . S
C875 O883 1.252 . S
C876 O879 1.252 . S
C876 O880 1.260 . S
O877 In871 2.266 . S
O877 C874 1.252 . S
O878 In871 2.326 . S
O878 C874 1.260 . S
O879 In871 2.266 . S
O879 C876 1.252 . S
O880 In871 2.326 . S
O880 C876 1.260 . S
C881 O872 1.240 1_554 S
C881 O873 1.252 . S
O882 In871 2.294 . S
O882 C875 1.240 . S
O883 In871 2.326 . S
O883 C875 1.252 . S
In884 O885 2.294 . S
In884 O886 2.326 . S
In884 O890 2.266 . S
In884 O891 2.326 . S
In884 O892 2.266 . S
In884 O893 2.326 . S
In884 O895 2.294 . S
In884 O896 2.326 . S
O885 In884 2.294 . S
O885 C894 1.240 . S
O886 In884 2.326 . S
O886 C894 1.252 . S
C887 O890 1.252 . S
C887 O891 1.260 . S
C888 O895 1.240 . S
C888 O896 1.252 . S
C889 O892 1.252 . S
C889 O893 1.260 . S
O890 In884 2.266 . S
O890 C887 1.252 . S
O891 In884 2.326 . S
O891 C887 1.260 . S
O892 In884 2.266 . S
O892 C889 1.252 . S
O893 In884 2.326 . S
O893 C889 1.260 . S
C894 O885 1.240 . S
C894 O886 1.252 . S
O895 In884 2.294 . S
O895 C888 1.240 . S
O896 In884 2.326 . S
O896 C888 1.252 . S
In897 O898 2.294 . S
In897 O899 2.326 1_554 S
In897 O903 2.266 . S
In897 O904 2.326 . S
In897 O905 2.266 . S
In897 O906 2.326 . S
In897 O908 2.294 . S
In897 O909 2.326 . S
O898 In897 2.294 . S
O898 C907 1.240 1_554 S
O899 In897 2.326 1_556 S
O899 C907 1.252 . S
C900 O903 1.252 . S
C900 O904 1.260 . S
C901 O908 1.240 . S
C901 O909 1.252 . S
C902 O905 1.252 . S
C902 O906 1.260 . S
O903 In897 2.266 . S
O903 C900 1.252 . S
O904 In897 2.326 . S
O904 C900 1.260 . S
O905 In897 2.266 . S
O905 C902 1.252 . S
O906 In897 2.326 . S
O906 C902 1.260 . S
C907 O898 1.240 1_556 S
C907 O899 1.252 . S
O908 In897 2.294 . S
O908 C901 1.240 . S
O909 In897 2.326 . S
O909 C901 1.252 . S
In910 O911 2.294 . S
In910 O912 2.326 . S
In910 O916 2.266 . S
In910 O917 2.326 . S
In910 O918 2.266 . S
In910 O919 2.326 . S
In910 O921 2.294 . S
In910 O922 2.326 . S
O911 In910 2.294 . S
O911 C920 1.240 . S
O912 In910 2.326 . S
O912 C920 1.252 . S
C913 O916 1.252 . S
C913 O917 1.260 . S
C914 O921 1.240 . S
C914 O922 1.252 . S
C915 O918 1.252 . S
C915 O919 1.260 . S
O916 In910 2.266 . S
O916 C913 1.252 . S
O917 In910 2.326 . S
O917 C913 1.260 . S
O918 In910 2.266 . S
O918 C915 1.252 . S
O919 In910 2.326 . S
O919 C915 1.260 . S
C920 O911 1.240 . S
C920 O912 1.252 . S
O921 In910 2.294 . S
O921 C914 1.240 . S
O922 In910 2.326 . S
O922 C914 1.252 . S
In923 O924 2.294 . S
In923 O925 2.326 . S
In923 O929 2.266 . S
In923 O930 2.326 . S
In923 O931 2.266 . S
In923 O932 2.326 . S
In923 O934 2.294 . S
In923 O935 2.326 . S
O924 In923 2.294 . S
O924 C933 1.240 . S
O925 In923 2.326 . S
O925 C933 1.252 . S
C926 O929 1.252 . S
C926 O930 1.260 . S
C927 O934 1.240 . S
C927 O935 1.252 . S
C928 O931 1.252 . S
C928 O932 1.260 . S
O929 In923 2.266 . S
O929 C926 1.252 . S
O930 In923 2.326 . S
O930 C926 1.260 . S
O931 In923 2.266 . S
O931 C928 1.252 . S
O932 In923 2.326 . S
O932 C928 1.260 . S
C933 O924 1.240 . S
C933 O925 1.252 . S
O934 In923 2.294 . S
O934 C927 1.240 . S
O935 In923 2.326 . S
O935 C927 1.252 . S
In936 O937 2.294 . S
In936 O938 2.326 . S
In936 O942 2.266 . S
In936 O943 2.326 . S
In936 O944 2.266 . S
In936 O945 2.326 . S
In936 O947 2.294 . S
In936 O948 2.326 . S
O937 In936 2.294 . S
O937 C946 1.240 . S
O938 In936 2.326 . S
O938 C946 1.252 . S
C939 O942 1.252 . S
C939 O943 1.260 . S
C940 O947 1.240 . S
C940 O948 1.252 . S
C941 O944 1.252 . S
C941 O945 1.260 . S
O942 In936 2.266 . S
O942 C939 1.252 . S
O943 In936 2.326 . S
O943 C939 1.260 . S
O944 In936 2.266 . S
O944 C941 1.252 . S
O945 In936 2.326 . S
O945 C941 1.260 . S
C946 O937 1.240 . S
C946 O938 1.252 . S
O947 In936 2.294 . S
O947 C940 1.240 . S
O948 In936 2.326 . S
O948 C940 1.252 . S
In949 O950 2.294 . S
In949 O951 2.326 . S
In949 O955 2.266 . S
In949 O956 2.326 . S
In949 O957 2.266 . S
In949 O958 2.326 . S
In949 O960 2.294 . S
In949 O961 2.326 . S
O950 In949 2.294 . S
O950 C959 1.240 . S
O951 In949 2.326 . S
O951 C959 1.252 . S
C952 O955 1.252 . S
C952 O956 1.260 . S
C953 O960 1.240 . S
C953 O961 1.252 . S
C954 O957 1.252 . S
C954 O958 1.260 . S
O955 In949 2.266 . S
O955 C952 1.252 . S
O956 In949 2.326 . S
O956 C952 1.260 . S
O957 In949 2.266 . S
O957 C954 1.252 . S
O958 In949 2.326 . S
O958 C954 1.260 . S
C959 O950 1.240 . S
C959 O951 1.252 . S
O960 In949 2.294 . S
O960 C953 1.240 . S
O961 In949 2.326 . S
O961 C953 1.252 . S
In962 O963 2.294 . S
In962 O964 2.326 . S
In962 O968 2.266 . S
In962 O969 2.326 . S
In962 O970 2.266 . S
In962 O971 2.326 . S
In962 O973 2.294 . S
In962 O974 2.326 1_455 S
O963 In962 2.294 . S
O963 C972 1.240 . S
O964 In962 2.326 . S
O964 C972 1.252 . S
C965 O968 1.252 . S
C965 O969 1.260 . S
C966 O973 1.240 1_655 S
C966 O974 1.252 . S
C967 O970 1.252 . S
C967 O971 1.260 . S
O968 In962 2.266 . S
O968 C965 1.252 . S
O969 In962 2.326 . S
O969 C965 1.260 . S
O970 In962 2.266 . S
O970 C967 1.252 . S
O971 In962 2.326 . S
O971 C967 1.260 . S
C972 O963 1.240 . S
C972 O964 1.252 . S
O973 In962 2.294 . S
O973 C966 1.240 1_455 S
O974 In962 2.326 1_655 S
O974 C966 1.252 . S
In975 O976 2.294 . S
In975 O977 2.326 . S
In975 O981 2.266 . S
In975 O982 2.326 . S
In975 O983 2.266 . S
In975 O984 2.326 . S
In975 O986 2.294 . S
In975 O987 2.326 . S
O976 In975 2.294 . S
O976 C985 1.240 . S
O977 In975 2.326 . S
O977 C985 1.252 . S
C978 O981 1.252 . S
C978 O982 1.260 . S
C979 O986 1.240 . S
C979 O987 1.252 . S
C980 O983 1.252 . S
C980 O984 1.260 . S
O981 In975 2.266 . S
O981 C978 1.252 . S
O982 In975 2.326 . S
O982 C978 1.260 . S
O983 In975 2.266 . S
O983 C980 1.252 . S
O984 In975 2.326 . S
O984 C980 1.260 . S
C985 O976 1.240 . S
C985 O977 1.252 . S
O986 In975 2.294 . S
O986 C979 1.240 . S
O987 In975 2.326 . S
O987 C979 1.252 . S
In988 O989 2.294 . S
In988 O990 2.326 . S
In988 O994 2.266 . S
In988 O995 2.326 . S
In988 O996 2.266 . S
In988 O997 2.326 . S
In988 O999 2.294 . S
In988 O1000 2.326 . S
O989 In988 2.294 . S
O989 C998 1.240 . S
O990 In988 2.326 . S
O990 C998 1.252 . S
C991 O994 1.252 . S
C991 O995 1.260 . S
C992 O999 1.240 . S
C992 O1000 1.252 . S
C993 O996 1.252 . S
C993 O997 1.260 . S
O994 In988 2.266 . S
O994 C991 1.252 . S
O995 In988 2.326 . S
O995 C991 1.260 . S
O996 In988 2.266 . S
O996 C993 1.252 . S
O997 In988 2.326 . S
O997 C993 1.260 . S
C998 O989 1.240 . S
C998 O990 1.252 . S
O999 In988 2.294 . S
O999 C992 1.240 . S
O1000 In988 2.326 . S
O1000 C992 1.252 . S
In1001 O1002 2.294 . S
In1001 O1003 2.326 . S
In1001 O1007 2.266 . S
In1001 O1008 2.326 . S
In1001 O1009 2.266 . S
In1001 O1010 2.326 . S
In1001 O1012 2.294 . S
In1001 O1013 2.326 . S
O1002 In1001 2.294 . S
O1002 C1011 1.240 . S
O1003 In1001 2.326 . S
O1003 C1011 1.252 . S
C1004 O1007 1.252 . S
C1004 O1008 1.260 . S
C1005 O1012 1.240 . S
C1005 O1013 1.252 . S
C1006 O1009 1.252 . S
C1006 O1010 1.260 . S
O1007 In1001 2.266 . S
O1007 C1004 1.252 . S
O1008 In1001 2.326 . S
O1008 C1004 1.260 . S
O1009 In1001 2.266 . S
O1009 C1006 1.252 . S
O1010 In1001 2.326 . S
O1010 C1006 1.260 . S
C1011 O1002 1.240 . S
C1011 O1003 1.252 . S
O1012 In1001 2.294 . S
O1012 C1005 1.240 . S
O1013 In1001 2.326 . S
O1013 C1005 1.252 . S
In1014 O1015 2.294 . S
In1014 O1016 2.326 . S
In1014 O1020 2.266 . S
In1014 O1021 2.326 . S
In1014 O1022 2.266 . S
In1014 O1023 2.326 . S
In1014 O1025 2.294 . S
In1014 O1026 2.326 1_455 S
O1015 In1014 2.294 . S
O1015 C1024 1.240 . S
O1016 In1014 2.326 . S
O1016 C1024 1.252 . S
C1017 O1020 1.252 . S
C1017 O1021 1.260 . S
C1018 O1025 1.240 1_655 S
C1018 O1026 1.252 . S
C1019 O1022 1.252 . S
C1019 O1023 1.260 . S
O1020 In1014 2.266 . S
O1020 C1017 1.252 . S
O1021 In1014 2.326 . S
O1021 C1017 1.260 . S
O1022 In1014 2.266 . S
O1022 C1019 1.252 . S
O1023 In1014 2.326 . S
O1023 C1019 1.260 . S
C1024 O1015 1.240 . S
C1024 O1016 1.252 . S
O1025 In1014 2.294 . S
O1025 C1018 1.240 1_455 S
O1026 In1014 2.326 1_655 S
O1026 C1018 1.252 . S
In1027 O1028 2.294 . S
In1027 O1029 2.326 . S
In1027 O1033 2.266 . S
In1027 O1034 2.326 . S
In1027 O1035 2.266 . S
In1027 O1036 2.326 . S
In1027 O1038 2.294 . S
In1027 O1039 2.326 . S
O1028 In1027 2.294 . S
O1028 C1037 1.240 . S
O1029 In1027 2.326 . S
O1029 C1037 1.252 . S
C1030 O1033 1.252 . S
C1030 O1034 1.260 . S
C1031 O1038 1.240 . S
C1031 O1039 1.252 . S
C1032 O1035 1.252 . S
C1032 O1036 1.260 . S
O1033 In1027 2.266 . S
O1033 C1030 1.252 . S
O1034 In1027 2.326 . S
O1034 C1030 1.260 . S
O1035 In1027 2.266 . S
O1035 C1032 1.252 . S
O1036 In1027 2.326 . S
O1036 C1032 1.260 . S
C1037 O1028 1.240 . S
C1037 O1029 1.252 . S
O1038 In1027 2.294 . S
O1038 C1031 1.240 . S
O1039 In1027 2.326 . S
O1039 C1031 1.252 . S
In1040 O1041 2.294 . S
In1040 O1042 2.326 . S
In1040 O1046 2.266 . S
In1040 O1047 2.326 . S
In1040 O1048 2.266 . S
In1040 O1049 2.326 . S
In1040 O1051 2.294 . S
In1040 O1052 2.326 . S
O1041 In1040 2.294 . S
O1041 C1050 1.240 . S
O1042 In1040 2.326 . S
O1042 C1050 1.252 . S
C1043 O1046 1.252 . S
C1043 O1047 1.260 . S
C1044 O1051 1.240 . S
C1044 O1052 1.252 . S
C1045 O1048 1.252 . S
C1045 O1049 1.260 . S
O1046 In1040 2.266 . S
O1046 C1043 1.252 . S
O1047 In1040 2.326 . S
O1047 C1043 1.260 . S
O1048 In1040 2.266 . S
O1048 C1045 1.252 . S
O1049 In1040 2.326 . S
O1049 C1045 1.260 . S
C1050 O1041 1.240 . S
C1050 O1042 1.252 . S
O1051 In1040 2.294 . S
O1051 C1044 1.240 . S
O1052 In1040 2.326 . S
O1052 C1044 1.252 . S
In1053 O1054 2.294 . S
In1053 O1055 2.326 . S
In1053 O1059 2.266 . S
In1053 O1060 2.326 . S
In1053 O1061 2.266 . S
In1053 O1062 2.326 . S
In1053 O1064 2.294 . S
In1053 O1065 2.326 . S
O1054 In1053 2.294 . S
O1054 C1063 1.240 . S
O1055 In1053 2.326 . S
O1055 C1063 1.252 . S
C1056 O1059 1.252 . S
C1056 O1060 1.260 . S
C1057 O1064 1.240 . S
C1057 O1065 1.252 . S
C1058 O1061 1.252 . S
C1058 O1062 1.260 . S
O1059 In1053 2.266 . S
O1059 C1056 1.252 . S
O1060 In1053 2.326 . S
O1060 C1056 1.260 . S
O1061 In1053 2.266 . S
O1061 C1058 1.252 . S
O1062 In1053 2.326 . S
O1062 C1058 1.260 . S
C1063 O1054 1.240 . S
C1063 O1055 1.252 . S
O1064 In1053 2.294 . S
O1064 C1057 1.240 . S
O1065 In1053 2.326 . S
O1065 C1057 1.252 . S
In1066 O1067 2.294 . S
In1066 O1068 2.326 . S
In1066 O1072 2.266 . S
In1066 O1073 2.326 . S
In1066 O1074 2.266 . S
In1066 O1075 2.326 . S
In1066 O1077 2.294 . S
In1066 O1078 2.326 . S
O1067 In1066 2.294 . S
O1067 C1076 1.240 . S
O1068 In1066 2.326 . S
O1068 C1076 1.252 . S
C1069 O1072 1.252 . S
C1069 O1073 1.260 . S
C1070 O1077 1.240 . S
C1070 O1078 1.252 . S
C1071 O1074 1.252 . S
C1071 O1075 1.260 . S
O1072 In1066 2.266 . S
O1072 C1069 1.252 . S
O1073 In1066 2.326 . S
O1073 C1069 1.260 . S
O1074 In1066 2.266 . S
O1074 C1071 1.252 . S
O1075 In1066 2.326 . S
O1075 C1071 1.260 . S
C1076 O1067 1.240 . S
C1076 O1068 1.252 . S
O1077 In1066 2.294 . S
O1077 C1070 1.240 . S
O1078 In1066 2.326 . S
O1078 C1070 1.252 . S
In1079 O1080 2.294 . S
In1079 O1081 2.326 . S
In1079 O1085 2.266 . S
In1079 O1086 2.326 . S
In1079 O1087 2.266 . S
In1079 O1088 2.326 . S
In1079 O1090 2.294 . S
In1079 O1091 2.326 . S
O1080 In1079 2.294 . S
O1080 C1089 1.240 . S
O1081 In1079 2.326 . S
O1081 C1089 1.252 . S
C1082 O1085 1.252 . S
C1082 O1086 1.260 . S
C1083 O1090 1.240 . S
C1083 O1091 1.252 . S
C1084 O1087 1.252 . S
C1084 O1088 1.260 . S
O1085 In1079 2.266 . S
O1085 C1082 1.252 . S
O1086 In1079 2.326 . S
O1086 C1082 1.260 . S
O1087 In1079 2.266 . S
O1087 C1084 1.252 . S
O1088 In1079 2.326 . S
O1088 C1084 1.260 . S
C1089 O1080 1.240 . S
C1089 O1081 1.252 . S
O1090 In1079 2.294 . S
O1090 C1083 1.240 . S
O1091 In1079 2.326 . S
O1091 C1083 1.252 . S
In1092 O1093 2.294 . S
In1092 O1094 2.326 . S
In1092 O1098 2.266 . S
In1092 O1099 2.326 . S
In1092 O1100 2.266 . S
In1092 O1101 2.326 . S
In1092 O1103 2.294 . S
In1092 O1104 2.326 . S
O1093 In1092 2.294 . S
O1093 C1102 1.240 . S
O1094 In1092 2.326 . S
O1094 C1102 1.252 . S
C1095 O1098 1.252 . S
C1095 O1099 1.260 . S
C1096 O1103 1.240 . S
C1096 O1104 1.252 . S
C1097 O1100 1.252 . S
C1097 O1101 1.260 . S
O1098 In1092 2.266 . S
O1098 C1095 1.252 . S
O1099 In1092 2.326 . S
O1099 C1095 1.260 . S
O1100 In1092 2.266 . S
O1100 C1097 1.252 . S
O1101 In1092 2.326 . S
O1101 C1097 1.260 . S
C1102 O1093 1.240 . S
C1102 O1094 1.252 . S
O1103 In1092 2.294 . S
O1103 C1096 1.240 . S
O1104 In1092 2.326 . S
O1104 C1096 1.252 . S
In1105 O1106 2.294 . S
In1105 O1107 2.326 . S
In1105 O1111 2.266 . S
In1105 O1112 2.326 . S
In1105 O1113 2.266 . S
In1105 O1114 2.326 . S
In1105 O1116 2.294 . S
In1105 O1117 2.326 . S
O1106 In1105 2.294 . S
O1106 C1115 1.240 . S
O1107 In1105 2.326 . S
O1107 C1115 1.252 . S
C1108 O1111 1.252 . S
C1108 O1112 1.260 . S
C1109 O1116 1.240 . S
C1109 O1117 1.252 . S
C1110 O1113 1.252 . S
C1110 O1114 1.260 . S
O1111 In1105 2.266 . S
O1111 C1108 1.252 . S
O1112 In1105 2.326 . S
O1112 C1108 1.260 . S
O1113 In1105 2.266 . S
O1113 C1110 1.252 . S
O1114 In1105 2.326 . S
O1114 C1110 1.260 . S
C1115 O1106 1.240 . S
C1115 O1107 1.252 . S
O1116 In1105 2.294 . S
O1116 C1109 1.240 . S
O1117 In1105 2.326 . S
O1117 C1109 1.252 . S
In1118 O1119 2.294 . S
In1118 O1120 2.326 . S
In1118 O1124 2.266 . S
In1118 O1125 2.326 . S
In1118 O1126 2.266 . S
In1118 O1127 2.326 . S
In1118 O1129 2.294 . S
In1118 O1130 2.326 . S
O1119 In1118 2.294 . S
O1119 C1128 1.240 . S
O1120 In1118 2.326 . S
O1120 C1128 1.252 . S
C1121 O1124 1.252 . S
C1121 O1125 1.260 . S
C1122 O1129 1.240 . S
C1122 O1130 1.252 . S
C1123 O1126 1.252 . S
C1123 O1127 1.260 . S
O1124 In1118 2.266 . S
O1124 C1121 1.252 . S
O1125 In1118 2.326 . S
O1125 C1121 1.260 . S
O1126 In1118 2.266 . S
O1126 C1123 1.252 . S
O1127 In1118 2.326 . S
O1127 C1123 1.260 . S
C1128 O1119 1.240 . S
C1128 O1120 1.252 . S
O1129 In1118 2.294 . S
O1129 C1122 1.240 . S
O1130 In1118 2.326 . S
O1130 C1122 1.252 . S
In1131 O1132 2.294 . S
In1131 O1133 2.326 . S
In1131 O1137 2.266 . S
In1131 O1138 2.326 . S
In1131 O1139 2.266 . S
In1131 O1140 2.326 . S
In1131 O1142 2.294 . S
In1131 O1143 2.326 . S
O1132 In1131 2.294 . S
O1132 C1141 1.240 . S
O1133 In1131 2.326 . S
O1133 C1141 1.252 . S
C1134 O1137 1.252 . S
C1134 O1138 1.260 . S
C1135 O1142 1.240 . S
C1135 O1143 1.252 . S
C1136 O1139 1.252 . S
C1136 O1140 1.260 . S
O1137 In1131 2.266 . S
O1137 C1134 1.252 . S
O1138 In1131 2.326 . S
O1138 C1134 1.260 . S
O1139 In1131 2.266 . S
O1139 C1136 1.252 . S
O1140 In1131 2.326 . S
O1140 C1136 1.260 . S
C1141 O1132 1.240 . S
C1141 O1133 1.252 . S
O1142 In1131 2.294 . S
O1142 C1135 1.240 . S
O1143 In1131 2.326 . S
O1143 C1135 1.252 . S
In1144 O1145 2.294 . S
In1144 O1146 2.326 . S
In1144 O1150 2.266 . S
In1144 O1151 2.326 . S
In1144 O1152 2.266 . S
In1144 O1153 2.326 . S
In1144 O1155 2.294 . S
In1144 O1156 2.326 . S
O1145 In1144 2.294 . S
O1145 C1154 1.240 . S
O1146 In1144 2.326 . S
O1146 C1154 1.252 . S
C1147 O1150 1.252 . S
C1147 O1151 1.260 . S
C1148 O1155 1.240 . S
C1148 O1156 1.252 . S
C1149 O1152 1.252 . S
C1149 O1153 1.260 . S
O1150 In1144 2.266 . S
O1150 C1147 1.252 . S
O1151 In1144 2.326 . S
O1151 C1147 1.260 . S
O1152 In1144 2.266 . S
O1152 C1149 1.252 . S
O1153 In1144 2.326 . S
O1153 C1149 1.260 . S
C1154 O1145 1.240 . S
C1154 O1146 1.252 . S
O1155 In1144 2.294 . S
O1155 C1148 1.240 . S
O1156 In1144 2.326 . S
O1156 C1148 1.252 . S
In1157 O1158 2.294 . S
In1157 O1159 2.326 . S
In1157 O1163 2.266 . S
In1157 O1164 2.326 . S
In1157 O1165 2.266 . S
In1157 O1166 2.326 . S
In1157 O1168 2.294 . S
In1157 O1169 2.326 . S
O1158 In1157 2.294 . S
O1158 C1167 1.240 . S
O1159 In1157 2.326 . S
O1159 C1167 1.252 . S
C1160 O1163 1.252 . S
C1160 O1164 1.260 . S
C1161 O1168 1.240 . S
C1161 O1169 1.252 . S
C1162 O1165 1.252 . S
C1162 O1166 1.260 . S
O1163 In1157 2.266 . S
O1163 C1160 1.252 . S
O1164 In1157 2.326 . S
O1164 C1160 1.260 . S
O1165 In1157 2.266 . S
O1165 C1162 1.252 . S
O1166 In1157 2.326 . S
O1166 C1162 1.260 . S
C1167 O1158 1.240 . S
C1167 O1159 1.252 . S
O1168 In1157 2.294 . S
O1168 C1161 1.240 . S
O1169 In1157 2.326 . S
O1169 C1161 1.252 . S
In1170 O1171 2.294 . S
In1170 O1172 2.326 . S
In1170 O1176 2.266 . S
In1170 O1177 2.326 . S
In1170 O1178 2.266 . S
In1170 O1179 2.326 . S
In1170 O1181 2.294 . S
In1170 O1182 2.326 . S
O1171 In1170 2.294 . S
O1171 C1180 1.240 . S
O1172 In1170 2.326 . S
O1172 C1180 1.252 . S
C1173 O1176 1.252 . S
C1173 O1177 1.260 . S
C1174 O1181 1.240 . S
C1174 O1182 1.252 . S
C1175 O1178 1.252 . S
C1175 O1179 1.260 . S
O1176 In1170 2.266 . S
O1176 C1173 1.252 . S
O1177 In1170 2.326 . S
O1177 C1173 1.260 . S
O1178 In1170 2.266 . S
O1178 C1175 1.252 . S
O1179 In1170 2.326 . S
O1179 C1175 1.260 . S
C1180 O1171 1.240 . S
C1180 O1172 1.252 . S
O1181 In1170 2.294 . S
O1181 C1174 1.240 . S
O1182 In1170 2.326 . S
O1182 C1174 1.252 . S
In1183 O1184 2.294 . S
In1183 O1185 2.326 . S
In1183 O1189 2.266 . S
In1183 O1190 2.326 . S
In1183 O1191 2.266 . S
In1183 O1192 2.326 . S
In1183 O1194 2.294 . S
In1183 O1195 2.326 1_554 S
O1184 In1183 2.294 . S
O1184 C1193 1.240 . S
O1185 In1183 2.326 . S
O1185 C1193 1.252 . S
C1186 O1189 1.252 . S
C1186 O1190 1.260 . S
C1187 O1194 1.240 1_556 S
C1187 O1195 1.252 . S
C1188 O1191 1.252 . S
C1188 O1192 1.260 . S
O1189 In1183 2.266 . S
O1189 C1186 1.252 . S
O1190 In1183 2.326 . S
O1190 C1186 1.260 . S
O1191 In1183 2.266 . S
O1191 C1188 1.252 . S
O1192 In1183 2.326 . S
O1192 C1188 1.260 . S
C1193 O1184 1.240 . S
C1193 O1185 1.252 . S
O1194 In1183 2.294 . S
O1194 C1187 1.240 1_554 S
O1195 In1183 2.326 1_556 S
O1195 C1187 1.252 . S
In1196 O1197 2.294 . S
In1196 O1198 2.326 . S
In1196 O1202 2.266 . S
In1196 O1203 2.326 . S
In1196 O1204 2.266 . S
In1196 O1205 2.326 . S
In1196 O1207 2.294 . S
In1196 O1208 2.326 . S
O1197 In1196 2.294 . S
O1197 C1206 1.240 . S
O1198 In1196 2.326 . S
O1198 C1206 1.252 . S
C1199 O1202 1.252 . S
C1199 O1203 1.260 . S
C1200 O1207 1.240 . S
C1200 O1208 1.252 . S
C1201 O1204 1.252 . S
C1201 O1205 1.260 . S
O1202 In1196 2.266 . S
O1202 C1199 1.252 . S
O1203 In1196 2.326 . S
O1203 C1199 1.260 . S
O1204 In1196 2.266 . S
O1204 C1201 1.252 . S
O1205 In1196 2.326 . S
O1205 C1201 1.260 . S
C1206 O1197 1.240 . S
C1206 O1198 1.252 . S
O1207 In1196 2.294 . S
O1207 C1200 1.240 . S
O1208 In1196 2.326 . S
O1208 C1200 1.252 . S
In1209 O1210 2.294 . S
In1209 O1211 2.326 1_556 S
In1209 O1215 2.266 . S
In1209 O1216 2.326 . S
In1209 O1217 2.266 . S
In1209 O1218 2.326 . S
In1209 O1220 2.294 . S
In1209 O1221 2.326 . S
O1210 In1209 2.294 . S
O1210 C1219 1.240 1_556 S
O1211 In1209 2.326 1_554 S
O1211 C1219 1.252 . S
C1212 O1215 1.252 . S
C1212 O1216 1.260 . S
C1213 O1220 1.240 . S
C1213 O1221 1.252 . S
C1214 O1217 1.252 . S
C1214 O1218 1.260 . S
O1215 In1209 2.266 . S
O1215 C1212 1.252 . S
O1216 In1209 2.326 . S
O1216 C1212 1.260 . S
O1217 In1209 2.266 . S
O1217 C1214 1.252 . S
O1218 In1209 2.326 . S
O1218 C1214 1.260 . S
C1219 O1210 1.240 1_554 S
C1219 O1211 1.252 . S
O1220 In1209 2.294 . S
O1220 C1213 1.240 . S
O1221 In1209 2.326 . S
O1221 C1213 1.252 . S
In1222 O1223 2.294 . S
In1222 O1224 2.326 . S
In1222 O1228 2.266 . S
In1222 O1229 2.326 . S
In1222 O1230 2.266 . S
In1222 O1231 2.326 . S
In1222 O1233 2.294 . S
In1222 O1234 2.326 . S
O1223 In1222 2.294 . S
O1223 C1232 1.240 . S
O1224 In1222 2.326 . S
O1224 C1232 1.252 . S
C1225 O1228 1.252 . S
C1225 O1229 1.260 . S
C1226 O1233 1.240 . S
C1226 O1234 1.252 . S
C1227 O1230 1.252 . S
C1227 O1231 1.260 . S
O1228 In1222 2.266 . S
O1228 C1225 1.252 . S
O1229 In1222 2.326 . S
O1229 C1225 1.260 . S
O1230 In1222 2.266 . S
O1230 C1227 1.252 . S
O1231 In1222 2.326 . S
O1231 C1227 1.260 . S
C1232 O1223 1.240 . S
C1232 O1224 1.252 . S
O1233 In1222 2.294 . S
O1233 C1226 1.240 . S
O1234 In1222 2.326 . S
O1234 C1226 1.252 . S
In1235 O1236 2.294 . S
In1235 O1237 2.326 . S
In1235 O1241 2.266 . S
In1235 O1242 2.326 . S
In1235 O1243 2.266 . S
In1235 O1244 2.326 . S
In1235 O1246 2.294 . S
In1235 O1247 2.326 . S
O1236 In1235 2.294 . S
O1236 C1245 1.240 . S
O1237 In1235 2.326 . S
O1237 C1245 1.252 . S
C1238 O1241 1.252 . S
C1238 O1242 1.260 . S
C1239 O1246 1.240 . S
C1239 O1247 1.252 . S
C1240 O1243 1.252 . S
C1240 O1244 1.260 . S
O1241 In1235 2.266 . S
O1241 C1238 1.252 . S
O1242 In1235 2.326 . S
O1242 C1238 1.260 . S
O1243 In1235 2.266 . S
O1243 C1240 1.252 . S
O1244 In1235 2.326 . S
O1244 C1240 1.260 . S
C1245 O1236 1.240 . S
C1245 O1237 1.252 . S
O1246 In1235 2.294 . S
O1246 C1239 1.240 . S
O1247 In1235 2.326 . S
O1247 C1239 1.252 . S
H1248 C1254 0.930 . S
H1249 C1258 0.930 . S
H1250 C1263 0.929 . S
H1251 C1261 0.929 . S
H1252 C1256 0.929 . S
H1253 C1262 0.929 . S
C1254 H1248 0.930 . S
C1254 C1255 1.367 . S
C1254 C1262 1.378 . S
C1255 C1254 1.367 . S
C1255 C1263 1.433 . S
C1256 H1252 0.929 . S
C1256 C1258 1.378 . S
C1256 C1260 1.350 . S
C1257 C1260 1.463 . S
C1257 C1262 1.350 . S
C1257 N1265 1.427 . S
C1258 H1249 0.930 . S
C1258 C1256 1.378 . S
C1258 C1259 1.367 . S
C1259 C1258 1.367 . S
C1259 C1261 1.433 . S
C1260 C1256 1.350 . S
C1260 C1257 1.463 . S
C1260 N1264 1.427 . S
C1261 H1251 0.929 . S
C1261 C1259 1.433 . S
C1261 N1264 1.384 . S
C1262 H1253 0.929 . S
C1262 C1254 1.378 . S
C1262 C1257 1.350 . S
C1263 H1250 0.929 . S
C1263 C1255 1.433 . S
C1263 N1265 1.384 . S
N1264 C1260 1.427 . S
N1264 C1261 1.384 . S
N1265 C1257 1.427 . S
N1265 C1263 1.384 . S
H1266 C1272 0.930 . S
H1267 C1276 0.930 . S
H1268 C1281 0.929 . S
H1269 C1279 0.929 . S
H1270 C1274 0.929 . S
H1271 C1280 0.929 . S
C1272 H1266 0.930 . S
C1272 C1273 1.367 . S
C1272 C1280 1.378 . S
C1273 C1272 1.367 . S
C1273 C1281 1.433 . S
C1274 H1270 0.929 . S
C1274 C1276 1.378 . S
C1274 C1278 1.350 . S
C1275 C1278 1.463 . S
C1275 C1280 1.350 . S
C1275 N1283 1.427 . S
C1276 H1267 0.930 . S
C1276 C1274 1.378 . S
C1276 C1277 1.367 . S
C1277 C1276 1.367 . S
C1277 C1279 1.433 . S
C1278 C1274 1.350 . S
C1278 C1275 1.463 . S
C1278 N1282 1.427 . S
C1279 H1269 0.929 . S
C1279 C1277 1.433 . S
C1279 N1282 1.384 . S
C1280 H1271 0.929 . S
C1280 C1272 1.378 . S
C1280 C1275 1.350 . S
C1281 H1268 0.929 . S
C1281 C1273 1.433 . S
C1281 N1283 1.384 . S
N1282 C1278 1.427 . S
N1282 C1279 1.384 . S
N1283 C1275 1.427 . S
N1283 C1281 1.384 . S
H1284 C1290 0.930 . S
H1285 C1294 0.930 . S
H1286 C1299 0.929 . S
H1287 C1297 0.929 . S
H1288 C1292 0.929 . S
H1289 C1298 0.929 . S
C1290 H1284 0.930 . S
C1290 C1291 1.367 . S
C1290 C1298 1.378 . S
C1291 C1290 1.367 . S
C1291 C1299 1.433 . S
C1292 H1288 0.929 . S
C1292 C1294 1.378 . S
C1292 C1296 1.350 . S
C1293 C1296 1.463 . S
C1293 C1298 1.350 . S
C1293 N1301 1.427 . S
C1294 H1285 0.930 . S
C1294 C1292 1.378 . S
C1294 C1295 1.367 . S
C1295 C1294 1.367 . S
C1295 C1297 1.433 . S
C1296 C1292 1.350 . S
C1296 C1293 1.463 . S
C1296 N1300 1.427 . S
C1297 H1287 0.929 . S
C1297 C1295 1.433 . S
C1297 N1300 1.384 . S
C1298 H1289 0.929 . S
C1298 C1290 1.378 . S
C1298 C1293 1.350 . S
C1299 H1286 0.929 . S
C1299 C1291 1.433 . S
C1299 N1301 1.384 . S
N1300 C1296 1.427 . S
N1300 C1297 1.384 . S
N1301 C1293 1.427 . S
N1301 C1299 1.384 . S
H1302 C1308 0.930 . S
H1303 C1312 0.930 . S
H1304 C1317 0.929 . S
H1305 C1315 0.929 . S
H1306 C1310 0.929 . S
H1307 C1316 0.929 . S
C1308 H1302 0.930 . S
C1308 C1309 1.367 . S
C1308 C1316 1.378 . S
C1309 C1308 1.367 . S
C1309 C1317 1.433 . S
C1310 H1306 0.929 . S
C1310 C1312 1.378 . S
C1310 C1314 1.350 . S
C1311 C1314 1.463 . S
C1311 C1316 1.350 . S
C1311 N1319 1.427 . S
C1312 H1303 0.930 . S
C1312 C1310 1.378 . S
C1312 C1313 1.367 . S
C1313 C1312 1.367 . S
C1313 C1315 1.433 . S
C1314 C1310 1.350 . S
C1314 C1311 1.463 . S
C1314 N1318 1.427 . S
C1315 H1305 0.929 . S
C1315 C1313 1.433 . S
C1315 N1318 1.384 . S
C1316 H1307 0.929 . S
C1316 C1308 1.378 . S
C1316 C1311 1.350 . S
C1317 H1304 0.929 . S
C1317 C1309 1.433 . S
C1317 N1319 1.384 . S
N1318 C1314 1.427 . S
N1318 C1315 1.384 . S
N1319 C1311 1.427 . S
N1319 C1317 1.384 . S
H1320 C1326 0.930 . S
H1321 C1330 0.930 . S
H1322 C1335 0.929 . S
H1323 C1333 0.929 . S
H1324 C1328 0.929 . S
H1325 C1334 0.929 . S
C1326 H1320 0.930 . S
C1326 C1327 1.367 . S
C1326 C1334 1.378 . S
C1327 C1326 1.367 . S
C1327 C1335 1.433 . S
C1328 H1324 0.929 . S
C1328 C1330 1.378 . S
C1328 C1332 1.350 . S
C1329 C1332 1.463 . S
C1329 C1334 1.350 . S
C1329 N1337 1.427 . S
C1330 H1321 0.930 . S
C1330 C1328 1.378 . S
C1330 C1331 1.367 . S
C1331 C1330 1.367 . S
C1331 C1333 1.433 . S
C1332 C1328 1.350 . S
C1332 C1329 1.463 . S
C1332 N1336 1.427 . S
C1333 H1323 0.929 . S
C1333 C1331 1.433 . S
C1333 N1336 1.384 . S
C1334 H1325 0.929 . S
C1334 C1326 1.378 . S
C1334 C1329 1.350 . S
C1335 H1322 0.929 . S
C1335 C1327 1.433 . S
C1335 N1337 1.384 . S
N1336 C1332 1.427 . S
N1336 C1333 1.384 . S
N1337 C1329 1.427 . S
N1337 C1335 1.384 . S
H1338 C1344 0.930 . S
H1339 C1348 0.930 . S
H1340 C1353 0.929 . S
H1341 C1351 0.929 . S
H1342 C1346 0.929 . S
H1343 C1352 0.929 . S
C1344 H1338 0.930 . S
C1344 C1345 1.367 . S
C1344 C1352 1.378 . S
C1345 C1344 1.367 . S
C1345 C1353 1.433 . S
C1346 H1342 0.929 . S
C1346 C1348 1.378 . S
C1346 C1350 1.350 . S
C1347 C1350 1.463 . S
C1347 C1352 1.350 . S
C1347 N1355 1.427 . S
C1348 H1339 0.930 . S
C1348 C1346 1.378 . S
C1348 C1349 1.367 . S
C1349 C1348 1.367 . S
C1349 C1351 1.433 . S
C1350 C1346 1.350 . S
C1350 C1347 1.463 . S
C1350 N1354 1.427 . S
C1351 H1341 0.929 . S
C1351 C1349 1.433 . S
C1351 N1354 1.384 . S
C1352 H1343 0.929 . S
C1352 C1344 1.378 . S
C1352 C1347 1.350 . S
C1353 H1340 0.929 . S
C1353 C1345 1.433 . S
C1353 N1355 1.384 . S
N1354 C1350 1.427 . S
N1354 C1351 1.384 . S
N1355 C1347 1.427 . S
N1355 C1353 1.384 . S
H1356 C1362 0.930 . S
H1357 C1366 0.930 . S
H1358 C1371 0.929 . S
H1359 C1369 0.929 . S
H1360 C1364 0.929 . S
H1361 C1370 0.929 . S
C1362 H1356 0.930 . S
C1362 C1363 1.367 . S
C1362 C1370 1.378 . S
C1363 C1362 1.367 . S
C1363 C1371 1.433 . S
C1364 H1360 0.929 . S
C1364 C1366 1.378 . S
C1364 C1368 1.350 . S
C1365 C1368 1.463 . S
C1365 C1370 1.350 . S
C1365 N1373 1.427 . S
C1366 H1357 0.930 . S
C1366 C1364 1.378 . S
C1366 C1367 1.367 . S
C1367 C1366 1.367 . S
C1367 C1369 1.433 . S
C1368 C1364 1.350 . S
C1368 C1365 1.463 . S
C1368 N1372 1.427 . S
C1369 H1359 0.929 . S
C1369 C1367 1.433 . S
C1369 N1372 1.384 . S
C1370 H1361 0.929 . S
C1370 C1362 1.378 . S
C1370 C1365 1.350 . S
C1371 H1358 0.929 . S
C1371 C1363 1.433 . S
C1371 N1373 1.384 . S
N1372 C1368 1.427 . S
N1372 C1369 1.384 . S
N1373 C1365 1.427 . S
N1373 C1371 1.384 . S
H1374 C1380 0.930 . S
H1375 C1384 0.930 . S
H1376 C1389 0.929 . S
H1377 C1387 0.929 . S
H1378 C1382 0.929 . S
H1379 C1388 0.929 . S
C1380 H1374 0.930 . S
C1380 C1381 1.367 . S
C1380 C1388 1.378 . S
C1381 C1380 1.367 . S
C1381 C1389 1.433 . S
C1382 H1378 0.929 . S
C1382 C1384 1.378 . S
C1382 C1386 1.350 . S
C1383 C1386 1.463 . S
C1383 C1388 1.350 . S
C1383 N1391 1.427 . S
C1384 H1375 0.930 . S
C1384 C1382 1.378 . S
C1384 C1385 1.367 . S
C1385 C1384 1.367 . S
C1385 C1387 1.433 . S
C1386 C1382 1.350 . S
C1386 C1383 1.463 . S
C1386 N1390 1.427 . S
C1387 H1377 0.929 . S
C1387 C1385 1.433 . S
C1387 N1390 1.384 . S
C1388 H1379 0.929 . S
C1388 C1380 1.378 . S
C1388 C1383 1.350 . S
C1389 H1376 0.929 . S
C1389 C1381 1.433 . S
C1389 N1391 1.384 . S
N1390 C1386 1.427 . S
N1390 C1387 1.384 . S
N1391 C1383 1.427 . S
N1391 C1389 1.384 . S
H1392 C1398 0.930 . S
H1393 C1402 0.930 . S
H1394 C1407 0.929 . S
H1395 C1405 0.929 . S
H1396 C1400 0.929 . S
H1397 C1406 0.929 . S
C1398 H1392 0.930 . S
C1398 C1399 1.367 . S
C1398 C1406 1.378 . S
C1399 C1398 1.367 . S
C1399 C1407 1.433 . S
C1400 H1396 0.929 . S
C1400 C1402 1.378 . S
C1400 C1404 1.350 . S
C1401 C1404 1.463 . S
C1401 C1406 1.350 . S
C1401 N1409 1.427 . S
C1402 H1393 0.930 . S
C1402 C1400 1.378 . S
C1402 C1403 1.367 . S
C1403 C1402 1.367 . S
C1403 C1405 1.433 . S
C1404 C1400 1.350 . S
C1404 C1401 1.463 . S
C1404 N1408 1.427 . S
C1405 H1395 0.929 . S
C1405 C1403 1.433 . S
C1405 N1408 1.384 . S
C1406 H1397 0.929 . S
C1406 C1398 1.378 . S
C1406 C1401 1.350 . S
C1407 H1394 0.929 . S
C1407 C1399 1.433 . S
C1407 N1409 1.384 . S
N1408 C1404 1.427 . S
N1408 C1405 1.384 . S
N1409 C1401 1.427 . S
N1409 C1407 1.384 . S
H1410 C1416 0.930 . S
H1411 C1420 0.930 . S
H1412 C1425 0.929 . S
H1413 C1423 0.929 . S
H1414 C1418 0.929 . S
H1415 C1424 0.929 . S
C1416 H1410 0.930 . S
C1416 C1417 1.367 . S
C1416 C1424 1.378 . S
C1417 C1416 1.367 . S
C1417 C1425 1.433 . S
C1418 H1414 0.929 . S
C1418 C1420 1.378 . S
C1418 C1422 1.350 . S
C1419 C1422 1.463 . S
C1419 C1424 1.350 . S
C1419 N1427 1.427 . S
C1420 H1411 0.930 . S
C1420 C1418 1.378 . S
C1420 C1421 1.367 . S
C1421 C1420 1.367 . S
C1421 C1423 1.433 . S
C1422 C1418 1.350 . S
C1422 C1419 1.463 . S
C1422 N1426 1.427 . S
C1423 H1413 0.929 . S
C1423 C1421 1.433 . S
C1423 N1426 1.384 . S
C1424 H1415 0.929 . S
C1424 C1416 1.378 . S
C1424 C1419 1.350 . S
C1425 H1412 0.929 . S
C1425 C1417 1.433 . S
C1425 N1427 1.384 . S
N1426 C1422 1.427 . S
N1426 C1423 1.384 . S
N1427 C1419 1.427 . S
N1427 C1425 1.384 . S
H1428 C1434 0.930 . S
H1429 C1438 0.930 . S
H1430 C1443 0.929 . S
H1431 C1441 0.929 . S
H1432 C1436 0.929 . S
H1433 C1442 0.929 . S
C1434 H1428 0.930 . S
C1434 C1435 1.367 . S
C1434 C1442 1.378 . S
C1435 C1434 1.367 . S
C1435 C1443 1.433 . S
C1436 H1432 0.929 . S
C1436 C1438 1.378 . S
C1436 C1440 1.350 . S
C1437 C1440 1.463 . S
C1437 C1442 1.350 . S
C1437 N1445 1.427 . S
C1438 H1429 0.930 . S
C1438 C1436 1.378 . S
C1438 C1439 1.367 . S
C1439 C1438 1.367 . S
C1439 C1441 1.433 . S
C1440 C1436 1.350 . S
C1440 C1437 1.463 . S
C1440 N1444 1.427 . S
C1441 H1431 0.929 . S
C1441 C1439 1.433 . S
C1441 N1444 1.384 . S
C1442 H1433 0.929 . S
C1442 C1434 1.378 . S
C1442 C1437 1.350 . S
C1443 H1430 0.929 . S
C1443 C1435 1.433 . S
C1443 N1445 1.384 . S
N1444 C1440 1.427 . S
N1444 C1441 1.384 . S
N1445 C1437 1.427 . S
N1445 C1443 1.384 . S
H1446 C1452 0.930 . S
H1447 C1456 0.930 . S
H1448 C1461 0.929 . S
H1449 C1459 0.929 . S
H1450 C1454 0.929 . S
H1451 C1460 0.929 . S
C1452 H1446 0.930 . S
C1452 C1453 1.367 . S
C1452 C1460 1.378 . S
C1453 C1452 1.367 . S
C1453 C1461 1.433 . S
C1454 H1450 0.929 . S
C1454 C1456 1.378 . S
C1454 C1458 1.350 . S
C1455 C1458 1.463 . S
C1455 C1460 1.350 . S
C1455 N1463 1.427 . S
C1456 H1447 0.930 . S
C1456 C1454 1.378 . S
C1456 C1457 1.367 . S
C1457 C1456 1.367 . S
C1457 C1459 1.433 . S
C1458 C1454 1.350 . S
C1458 C1455 1.463 . S
C1458 N1462 1.427 . S
C1459 H1449 0.929 . S
C1459 C1457 1.433 . S
C1459 N1462 1.384 . S
C1460 H1451 0.929 . S
C1460 C1452 1.378 . S
C1460 C1455 1.350 . S
C1461 H1448 0.929 . S
C1461 C1453 1.433 . S
C1461 N1463 1.384 . S
N1462 C1458 1.427 . S
N1462 C1459 1.384 . S
N1463 C1455 1.427 . S
N1463 C1461 1.384 . S
H1464 C1470 0.930 . S
H1465 C1474 0.930 . S
H1466 C1479 0.929 . S
H1467 C1477 0.929 . S
H1468 C1472 0.929 . S
H1469 C1478 0.929 . S
C1470 H1464 0.930 . S
C1470 C1471 1.367 . S
C1470 C1478 1.378 . S
C1471 C1470 1.367 . S
C1471 C1479 1.433 . S
C1472 H1468 0.929 . S
C1472 C1474 1.378 . S
C1472 C1476 1.350 . S
C1473 C1476 1.463 . S
C1473 C1478 1.350 . S
C1473 N1481 1.427 . S
C1474 H1465 0.930 . S
C1474 C1472 1.378 . S
C1474 C1475 1.367 . S
C1475 C1474 1.367 . S
C1475 C1477 1.433 . S
C1476 C1472 1.350 . S
C1476 C1473 1.463 . S
C1476 N1480 1.427 . S
C1477 H1467 0.929 . S
C1477 C1475 1.433 . S
C1477 N1480 1.384 . S
C1478 H1469 0.929 . S
C1478 C1470 1.378 . S
C1478 C1473 1.350 . S
C1479 H1466 0.929 . S
C1479 C1471 1.433 . S
C1479 N1481 1.384 . S
N1480 C1476 1.427 . S
N1480 C1477 1.384 . S
N1481 C1473 1.427 . S
N1481 C1479 1.384 . S
H1482 C1488 0.930 . S
H1483 C1492 0.930 . S
H1484 C1497 0.929 . S
H1485 C1495 0.929 . S
H1486 C1490 0.929 . S
H1487 C1496 0.929 . S
C1488 H1482 0.930 . S
C1488 C1489 1.367 . S
C1488 C1496 1.378 . S
C1489 C1488 1.367 . S
C1489 C1497 1.433 . S
C1490 H1486 0.929 . S
C1490 C1492 1.378 . S
C1490 C1494 1.350 . S
C1491 C1494 1.463 . S
C1491 C1496 1.350 . S
C1491 N1499 1.427 . S
C1492 H1483 0.930 . S
C1492 C1490 1.378 . S
C1492 C1493 1.367 . S
C1493 C1492 1.367 . S
C1493 C1495 1.433 . S
C1494 C1490 1.350 . S
C1494 C1491 1.463 . S
C1494 N1498 1.427 . S
C1495 H1485 0.929 . S
C1495 C1493 1.433 . S
C1495 N1498 1.384 . S
C1496 H1487 0.929 . S
C1496 C1488 1.378 . S
C1496 C1491 1.350 . S
C1497 H1484 0.929 . S
C1497 C1489 1.433 . S
C1497 N1499 1.384 . S
N1498 C1494 1.427 . S
N1498 C1495 1.384 . S
N1499 C1491 1.427 . S
N1499 C1497 1.384 . S
H1500 C1506 0.930 . S
H1501 C1510 0.930 . S
H1502 C1515 0.929 . S
H1503 C1513 0.929 . S
H1504 C1508 0.929 . S
H1505 C1514 0.929 . S
C1506 H1500 0.930 . S
C1506 C1507 1.367 . S
C1506 C1514 1.378 . S
C1507 C1506 1.367 . S
C1507 C1515 1.433 . S
C1508 H1504 0.929 . S
C1508 C1510 1.378 . S
C1508 C1512 1.350 . S
C1509 C1512 1.463 . S
C1509 C1514 1.350 . S
C1509 N1517 1.427 . S
C1510 H1501 0.930 . S
C1510 C1508 1.378 . S
C1510 C1511 1.367 . S
C1511 C1510 1.367 . S
C1511 C1513 1.433 . S
C1512 C1508 1.350 . S
C1512 C1509 1.463 . S
C1512 N1516 1.427 . S
C1513 H1503 0.929 . S
C1513 C1511 1.433 . S
C1513 N1516 1.384 . S
C1514 H1505 0.929 . S
C1514 C1506 1.378 . S
C1514 C1509 1.350 . S
C1515 H1502 0.929 . S
C1515 C1507 1.433 . S
C1515 N1517 1.384 . S
N1516 C1512 1.427 . S
N1516 C1513 1.384 . S
N1517 C1509 1.427 . S
N1517 C1515 1.384 . S
H1518 C1524 0.930 . S
H1519 C1528 0.930 . S
H1520 C1533 0.929 . S
H1521 C1531 0.929 . S
H1522 C1526 0.929 . S
H1523 C1532 0.929 . S
C1524 H1518 0.930 . S
C1524 C1525 1.367 . S
C1524 C1532 1.378 . S
C1525 C1524 1.367 . S
C1525 C1533 1.433 . S
C1526 H1522 0.929 . S
C1526 C1528 1.378 . S
C1526 C1530 1.350 . S
C1527 C1530 1.463 . S
C1527 C1532 1.350 . S
C1527 N1535 1.427 . S
C1528 H1519 0.930 . S
C1528 C1526 1.378 . S
C1528 C1529 1.367 . S
C1529 C1528 1.367 . S
C1529 C1531 1.433 . S
C1530 C1526 1.350 . S
C1530 C1527 1.463 . S
C1530 N1534 1.427 . S
C1531 H1521 0.929 . S
C1531 C1529 1.433 . S
C1531 N1534 1.384 . S
C1532 H1523 0.929 . S
C1532 C1524 1.378 . S
C1532 C1527 1.350 . S
C1533 H1520 0.929 . S
C1533 C1525 1.433 . S
C1533 N1535 1.384 . S
N1534 C1530 1.427 . S
N1534 C1531 1.384 . S
N1535 C1527 1.427 . S
N1535 C1533 1.384 . S
H1536 C1542 0.930 . S
H1537 C1546 0.930 . S
H1538 C1551 0.929 . S
H1539 C1549 0.929 . S
H1540 C1544 0.929 . S
H1541 C1550 0.929 . S
C1542 H1536 0.930 . S
C1542 C1543 1.367 . S
C1542 C1550 1.378 . S
C1543 C1542 1.367 . S
C1543 C1551 1.433 . S
C1544 H1540 0.929 . S
C1544 C1546 1.378 . S
C1544 C1548 1.350 . S
C1545 C1548 1.463 . S
C1545 C1550 1.350 . S
C1545 N1553 1.427 . S
C1546 H1537 0.930 . S
C1546 C1544 1.378 . S
C1546 C1547 1.367 . S
C1547 C1546 1.367 . S
C1547 C1549 1.433 . S
C1548 C1544 1.350 . S
C1548 C1545 1.463 . S
C1548 N1552 1.427 . S
C1549 H1539 0.929 . S
C1549 C1547 1.433 . S
C1549 N1552 1.384 . S
C1550 H1541 0.929 . S
C1550 C1542 1.378 . S
C1550 C1545 1.350 . S
C1551 H1538 0.929 . S
C1551 C1543 1.433 . S
C1551 N1553 1.384 . S
N1552 C1548 1.427 . S
N1552 C1549 1.384 . S
N1553 C1545 1.427 . S
N1553 C1551 1.384 . S
H1554 C1560 0.930 . S
H1555 C1564 0.930 . S
H1556 C1569 0.929 . S
H1557 C1567 0.929 . S
H1558 C1562 0.929 . S
H1559 C1568 0.929 . S
C1560 H1554 0.930 . S
C1560 C1561 1.367 . S
C1560 C1568 1.378 . S
C1561 C1560 1.367 . S
C1561 C1569 1.433 . S
C1562 H1558 0.929 . S
C1562 C1564 1.378 . S
C1562 C1566 1.350 . S
C1563 C1566 1.463 . S
C1563 C1568 1.350 . S
C1563 N1571 1.427 . S
C1564 H1555 0.930 . S
C1564 C1562 1.378 . S
C1564 C1565 1.367 . S
C1565 C1564 1.367 . S
C1565 C1567 1.433 . S
C1566 C1562 1.350 . S
C1566 C1563 1.463 . S
C1566 N1570 1.427 . S
C1567 H1557 0.929 . S
C1567 C1565 1.433 . S
C1567 N1570 1.384 . S
C1568 H1559 0.929 . S
C1568 C1560 1.378 . S
C1568 C1563 1.350 . S
C1569 H1556 0.929 . S
C1569 C1561 1.433 . S
C1569 N1571 1.384 . S
N1570 C1566 1.427 . S
N1570 C1567 1.384 . S
N1571 C1563 1.427 . S
N1571 C1569 1.384 . S
H1572 C1578 0.930 . S
H1573 C1582 0.930 . S
H1574 C1587 0.929 . S
H1575 C1585 0.929 . S
H1576 C1580 0.929 . S
H1577 C1586 0.929 . S
C1578 H1572 0.930 . S
C1578 C1579 1.367 . S
C1578 C1586 1.378 . S
C1579 C1578 1.367 . S
C1579 C1587 1.433 . S
C1580 H1576 0.929 . S
C1580 C1582 1.378 . S
C1580 C1584 1.350 . S
C1581 C1584 1.463 . S
C1581 C1586 1.350 . S
C1581 N1589 1.427 . S
C1582 H1573 0.930 . S
C1582 C1580 1.378 . S
C1582 C1583 1.367 . S
C1583 C1582 1.367 . S
C1583 C1585 1.433 . S
C1584 C1580 1.350 . S
C1584 C1581 1.463 . S
C1584 N1588 1.427 . S
C1585 H1575 0.929 . S
C1585 C1583 1.433 . S
C1585 N1588 1.384 . S
C1586 H1577 0.929 . S
C1586 C1578 1.378 . S
C1586 C1581 1.350 . S
C1587 H1574 0.929 . S
C1587 C1579 1.433 . S
C1587 N1589 1.384 . S
N1588 C1584 1.427 . S
N1588 C1585 1.384 . S
N1589 C1581 1.427 . S
N1589 C1587 1.384 . S
H1590 C1596 0.930 . S
H1591 C1600 0.930 . S
H1592 C1605 0.929 . S
H1593 C1603 0.929 . S
H1594 C1598 0.929 . S
H1595 C1604 0.929 . S
C1596 H1590 0.930 . S
C1596 C1597 1.367 . S
C1596 C1604 1.378 . S
C1597 C1596 1.367 . S
C1597 C1605 1.433 . S
C1598 H1594 0.929 . S
C1598 C1600 1.378 . S
C1598 C1602 1.350 . S
C1599 C1602 1.463 . S
C1599 C1604 1.350 . S
C1599 N1607 1.427 . S
C1600 H1591 0.930 . S
C1600 C1598 1.378 . S
C1600 C1601 1.367 . S
C1601 C1600 1.367 . S
C1601 C1603 1.433 . S
C1602 C1598 1.350 . S
C1602 C1599 1.463 . S
C1602 N1606 1.427 . S
C1603 H1593 0.929 . S
C1603 C1601 1.433 . S
C1603 N1606 1.384 . S
C1604 H1595 0.929 . S
C1604 C1596 1.378 . S
C1604 C1599 1.350 . S
C1605 H1592 0.929 . S
C1605 C1597 1.433 . S
C1605 N1607 1.384 . S
N1606 C1602 1.427 . S
N1606 C1603 1.384 . S
N1607 C1599 1.427 . S
N1607 C1605 1.384 . S
H1608 C1614 0.930 . S
H1609 C1618 0.930 . S
H1610 C1623 0.929 . S
H1611 C1621 0.929 . S
H1612 C1616 0.929 . S
H1613 C1622 0.929 . S
C1614 H1608 0.930 . S
C1614 C1615 1.367 . S
C1614 C1622 1.378 . S
C1615 C1614 1.367 . S
C1615 C1623 1.433 . S
C1616 H1612 0.929 . S
C1616 C1618 1.378 . S
C1616 C1620 1.350 . S
C1617 C1620 1.463 . S
C1617 C1622 1.350 . S
C1617 N1625 1.427 . S
C1618 H1609 0.930 . S
C1618 C1616 1.378 . S
C1618 C1619 1.367 . S
C1619 C1618 1.367 . S
C1619 C1621 1.433 . S
C1620 C1616 1.350 . S
C1620 C1617 1.463 . S
C1620 N1624 1.427 . S
C1621 H1611 0.929 . S
C1621 C1619 1.433 . S
C1621 N1624 1.384 . S
C1622 H1613 0.929 . S
C1622 C1614 1.378 . S
C1622 C1617 1.350 . S
C1623 H1610 0.929 . S
C1623 C1615 1.433 . S
C1623 N1625 1.384 . S
N1624 C1620 1.427 . S
N1624 C1621 1.384 . S
N1625 C1617 1.427 . S
N1625 C1623 1.384 . S
H1626 C1632 0.930 . S
H1627 C1636 0.930 . S
H1628 C1641 0.929 . S
H1629 C1639 0.929 . S
H1630 C1634 0.929 . S
H1631 C1640 0.929 . S
C1632 H1626 0.930 . S
C1632 C1633 1.367 . S
C1632 C1640 1.378 . S
C1633 C1632 1.367 . S
C1633 C1641 1.433 . S
C1634 H1630 0.929 . S
C1634 C1636 1.378 . S
C1634 C1638 1.350 . S
C1635 C1638 1.463 . S
C1635 C1640 1.350 . S
C1635 N1643 1.427 . S
C1636 H1627 0.930 . S
C1636 C1634 1.378 . S
C1636 C1637 1.367 . S
C1637 C1636 1.367 . S
C1637 C1639 1.433 . S
C1638 C1634 1.350 . S
C1638 C1635 1.463 . S
C1638 N1642 1.427 . S
C1639 H1629 0.929 . S
C1639 C1637 1.433 . S
C1639 N1642 1.384 . S
C1640 H1631 0.929 . S
C1640 C1632 1.378 . S
C1640 C1635 1.350 . S
C1641 H1628 0.929 . S
C1641 C1633 1.433 . S
C1641 N1643 1.384 . S
N1642 C1638 1.427 . S
N1642 C1639 1.384 . S
N1643 C1635 1.427 . S
N1643 C1641 1.384 . S
H1644 C1650 0.930 . S
H1645 C1654 0.930 . S
H1646 C1659 0.929 . S
H1647 C1657 0.929 . S
H1648 C1652 0.929 . S
H1649 C1658 0.929 . S
C1650 H1644 0.930 . S
C1650 C1651 1.367 . S
C1650 C1658 1.378 . S
C1651 C1650 1.367 . S
C1651 C1659 1.433 . S
C1652 H1648 0.929 . S
C1652 C1654 1.378 . S
C1652 C1656 1.350 . S
C1653 C1656 1.463 . S
C1653 C1658 1.350 . S
C1653 N1661 1.427 . S
C1654 H1645 0.930 . S
C1654 C1652 1.378 . S
C1654 C1655 1.367 . S
C1655 C1654 1.367 . S
C1655 C1657 1.433 . S
C1656 C1652 1.350 . S
C1656 C1653 1.463 . S
C1656 N1660 1.427 . S
C1657 H1647 0.929 . S
C1657 C1655 1.433 . S
C1657 N1660 1.384 . S
C1658 H1649 0.929 . S
C1658 C1650 1.378 . S
C1658 C1653 1.350 . S
C1659 H1646 0.929 . S
C1659 C1651 1.433 . S
C1659 N1661 1.384 . S
N1660 C1656 1.427 . S
N1660 C1657 1.384 . S
N1661 C1653 1.427 . S
N1661 C1659 1.384 . S
H1662 C1668 0.930 . S
H1663 C1672 0.930 . S
H1664 C1677 0.929 . S
H1665 C1675 0.929 . S
H1666 C1670 0.929 . S
H1667 C1676 0.929 . S
C1668 H1662 0.930 . S
C1668 C1669 1.367 . S
C1668 C1676 1.378 . S
C1669 C1668 1.367 . S
C1669 C1677 1.433 . S
C1670 H1666 0.929 . S
C1670 C1672 1.378 . S
C1670 C1674 1.350 . S
C1671 C1674 1.463 . S
C1671 C1676 1.350 . S
C1671 N1679 1.427 . S
C1672 H1663 0.930 . S
C1672 C1670 1.378 . S
C1672 C1673 1.367 . S
C1673 C1672 1.367 . S
C1673 C1675 1.433 . S
C1674 C1670 1.350 . S
C1674 C1671 1.463 . S
C1674 N1678 1.427 . S
C1675 H1665 0.929 . S
C1675 C1673 1.433 . S
C1675 N1678 1.384 . S
C1676 H1667 0.929 . S
C1676 C1668 1.378 . S
C1676 C1671 1.350 . S
C1677 H1664 0.929 . S
C1677 C1669 1.433 . S
C1677 N1679 1.384 . S
N1678 C1674 1.427 . S
N1678 C1675 1.384 . S
N1679 C1671 1.427 . S
N1679 C1677 1.384 . S
H1680 C1686 0.930 . S
H1681 C1690 0.930 . S
H1682 C1695 0.929 . S
H1683 C1693 0.929 . S
H1684 C1688 0.929 . S
H1685 C1694 0.929 . S
C1686 H1680 0.930 . S
C1686 C1687 1.367 . S
C1686 C1694 1.378 . S
C1687 C1686 1.367 . S
C1687 C1695 1.433 . S
C1688 H1684 0.929 . S
C1688 C1690 1.378 . S
C1688 C1692 1.350 . S
C1689 C1692 1.463 . S
C1689 C1694 1.350 . S
C1689 N1697 1.427 . S
C1690 H1681 0.930 . S
C1690 C1688 1.378 . S
C1690 C1691 1.367 . S
C1691 C1690 1.367 . S
C1691 C1693 1.433 . S
C1692 C1688 1.350 . S
C1692 C1689 1.463 . S
C1692 N1696 1.427 . S
C1693 H1683 0.929 . S
C1693 C1691 1.433 . S
C1693 N1696 1.384 . S
C1694 H1685 0.929 . S
C1694 C1686 1.378 . S
C1694 C1689 1.350 . S
C1695 H1682 0.929 . S
C1695 C1687 1.433 . S
C1695 N1697 1.384 . S
N1696 C1692 1.427 . S
N1696 C1693 1.384 . S
N1697 C1689 1.427 . S
N1697 C1695 1.384 . S
H1698 C1704 0.930 . S
H1699 C1708 0.930 . S
H1700 C1713 0.929 . S
H1701 C1711 0.929 . S
H1702 C1706 0.929 . S
H1703 C1712 0.929 . S
C1704 H1698 0.930 . S
C1704 C1705 1.367 . S
C1704 C1712 1.378 . S
C1705 C1704 1.367 . S
C1705 C1713 1.433 . S
C1706 H1702 0.929 . S
C1706 C1708 1.378 . S
C1706 C1710 1.350 . S
C1707 C1710 1.463 . S
C1707 C1712 1.350 . S
C1707 N1715 1.427 . S
C1708 H1699 0.930 . S
C1708 C1706 1.378 . S
C1708 C1709 1.367 . S
C1709 C1708 1.367 . S
C1709 C1711 1.433 . S
C1710 C1706 1.350 . S
C1710 C1707 1.463 . S
C1710 N1714 1.427 . S
C1711 H1701 0.929 . S
C1711 C1709 1.433 . S
C1711 N1714 1.384 . S
C1712 H1703 0.929 . S
C1712 C1704 1.378 . S
C1712 C1707 1.350 . S
C1713 H1700 0.929 . S
C1713 C1705 1.433 . S
C1713 N1715 1.384 . S
N1714 C1710 1.427 . S
N1714 C1711 1.384 . S
N1715 C1707 1.427 . S
N1715 C1713 1.384 . S
H1716 C1722 0.930 . S
H1717 C1726 0.930 . S
H1718 C1731 0.929 . S
H1719 C1729 0.929 . S
H1720 C1724 0.929 . S
H1721 C1730 0.929 . S
C1722 H1716 0.930 . S
C1722 C1723 1.367 . S
C1722 C1730 1.378 . S
C1723 C1722 1.367 . S
C1723 C1731 1.433 . S
C1724 H1720 0.929 . S
C1724 C1726 1.378 . S
C1724 C1728 1.350 . S
C1725 C1728 1.463 . S
C1725 C1730 1.350 . S
C1725 N1733 1.427 . S
C1726 H1717 0.930 . S
C1726 C1724 1.378 . S
C1726 C1727 1.367 . S
C1727 C1726 1.367 . S
C1727 C1729 1.433 . S
C1728 C1724 1.350 . S
C1728 C1725 1.463 . S
C1728 N1732 1.427 . S
C1729 H1719 0.929 . S
C1729 C1727 1.433 . S
C1729 N1732 1.384 . S
C1730 H1721 0.929 . S
C1730 C1722 1.378 . S
C1730 C1725 1.350 . S
C1731 H1718 0.929 . S
C1731 C1723 1.433 . S
C1731 N1733 1.384 . S
N1732 C1728 1.427 . S
N1732 C1729 1.384 . S
N1733 C1725 1.427 . S
N1733 C1731 1.384 . S
H1734 C1740 0.930 . S
H1735 C1744 0.930 . S
H1736 C1749 0.929 . S
H1737 C1747 0.929 . S
H1738 C1742 0.929 . S
H1739 C1748 0.929 . S
C1740 H1734 0.930 . S
C1740 C1741 1.367 . S
C1740 C1748 1.378 . S
C1741 C1740 1.367 . S
C1741 C1749 1.433 . S
C1742 H1738 0.929 . S
C1742 C1744 1.378 . S
C1742 C1746 1.350 . S
C1743 C1746 1.463 . S
C1743 C1748 1.350 . S
C1743 N1751 1.427 . S
C1744 H1735 0.930 . S
C1744 C1742 1.378 . S
C1744 C1745 1.367 . S
C1745 C1744 1.367 . S
C1745 C1747 1.433 . S
C1746 C1742 1.350 . S
C1746 C1743 1.463 . S
C1746 N1750 1.427 . S
C1747 H1737 0.929 . S
C1747 C1745 1.433 . S
C1747 N1750 1.384 . S
C1748 H1739 0.929 . S
C1748 C1740 1.378 . S
C1748 C1743 1.350 . S
C1749 H1736 0.929 . S
C1749 C1741 1.433 . S
C1749 N1751 1.384 . S
N1750 C1746 1.427 . S
N1750 C1747 1.384 . S
N1751 C1743 1.427 . S
N1751 C1749 1.384 . S
H1752 C1758 0.930 . S
H1753 C1762 0.930 . S
H1754 C1767 0.929 . S
H1755 C1765 0.929 . S
H1756 C1760 0.929 . S
H1757 C1766 0.929 . S
C1758 H1752 0.930 . S
C1758 C1759 1.367 . S
C1758 C1766 1.378 . S
C1759 C1758 1.367 . S
C1759 C1767 1.433 . S
C1760 H1756 0.929 . S
C1760 C1762 1.378 . S
C1760 C1764 1.350 . S
C1761 C1764 1.463 . S
C1761 C1766 1.350 . S
C1761 N1769 1.427 . S
C1762 H1753 0.930 . S
C1762 C1760 1.378 . S
C1762 C1763 1.367 . S
C1763 C1762 1.367 . S
C1763 C1765 1.433 . S
C1764 C1760 1.350 . S
C1764 C1761 1.463 . S
C1764 N1768 1.427 . S
C1765 H1755 0.929 . S
C1765 C1763 1.433 . S
C1765 N1768 1.384 . S
C1766 H1757 0.929 . S
C1766 C1758 1.378 . S
C1766 C1761 1.350 . S
C1767 H1754 0.929 . S
C1767 C1759 1.433 . S
C1767 N1769 1.384 . S
N1768 C1764 1.427 . S
N1768 C1765 1.384 . S
N1769 C1761 1.427 . S
N1769 C1767 1.384 . S
H1770 C1776 0.930 . S
H1771 C1780 0.930 . S
H1772 C1785 0.929 . S
H1773 C1783 0.929 . S
H1774 C1778 0.929 . S
H1775 C1784 0.929 . S
C1776 H1770 0.930 . S
C1776 C1777 1.367 . S
C1776 C1784 1.378 . S
C1777 C1776 1.367 . S
C1777 C1785 1.433 . S
C1778 H1774 0.929 . S
C1778 C1780 1.378 . S
C1778 C1782 1.350 . S
C1779 C1782 1.463 . S
C1779 C1784 1.350 . S
C1779 N1787 1.427 . S
C1780 H1771 0.930 . S
C1780 C1778 1.378 . S
C1780 C1781 1.367 . S
C1781 C1780 1.367 . S
C1781 C1783 1.433 . S
C1782 C1778 1.350 . S
C1782 C1779 1.463 . S
C1782 N1786 1.427 . S
C1783 H1773 0.929 . S
C1783 C1781 1.433 . S
C1783 N1786 1.384 . S
C1784 H1775 0.929 . S
C1784 C1776 1.378 . S
C1784 C1779 1.350 . S
C1785 H1772 0.929 . S
C1785 C1777 1.433 . S
C1785 N1787 1.384 . S
N1786 C1782 1.427 . S
N1786 C1783 1.384 . S
N1787 C1779 1.427 . S
N1787 C1785 1.384 . S
H1788 C1794 0.930 . S
H1789 C1798 0.930 . S
H1790 C1803 0.929 . S
H1791 C1801 0.929 . S
H1792 C1796 0.929 . S
H1793 C1802 0.929 . S
C1794 H1788 0.930 . S
C1794 C1795 1.367 . S
C1794 C1802 1.378 . S
C1795 C1794 1.367 . S
C1795 C1803 1.433 . S
C1796 H1792 0.929 . S
C1796 C1798 1.378 . S
C1796 C1800 1.350 . S
C1797 C1800 1.463 . S
C1797 C1802 1.350 . S
C1797 N1805 1.427 . S
C1798 H1789 0.930 . S
C1798 C1796 1.378 . S
C1798 C1799 1.367 . S
C1799 C1798 1.367 . S
C1799 C1801 1.433 . S
C1800 C1796 1.350 . S
C1800 C1797 1.463 . S
C1800 N1804 1.427 . S
C1801 H1791 0.929 . S
C1801 C1799 1.433 . S
C1801 N1804 1.384 . S
C1802 H1793 0.929 . S
C1802 C1794 1.378 . S
C1802 C1797 1.350 . S
C1803 H1790 0.929 . S
C1803 C1795 1.433 . S
C1803 N1805 1.384 . S
N1804 C1800 1.427 . S
N1804 C1801 1.384 . S
N1805 C1797 1.427 . S
N1805 C1803 1.384 . S
H1806 C1812 0.930 . S
H1807 C1816 0.930 . S
H1808 C1821 0.929 . S
H1809 C1819 0.929 . S
H1810 C1814 0.929 . S
H1811 C1820 0.929 . S
C1812 H1806 0.930 . S
C1812 C1813 1.367 . S
C1812 C1820 1.378 . S
C1813 C1812 1.367 . S
C1813 C1821 1.433 . S
C1814 H1810 0.929 . S
C1814 C1816 1.378 . S
C1814 C1818 1.350 . S
C1815 C1818 1.463 . S
C1815 C1820 1.350 . S
C1815 N1823 1.427 . S
C1816 H1807 0.930 . S
C1816 C1814 1.378 . S
C1816 C1817 1.367 . S
C1817 C1816 1.367 . S
C1817 C1819 1.433 . S
C1818 C1814 1.350 . S
C1818 C1815 1.463 . S
C1818 N1822 1.427 . S
C1819 H1809 0.929 . S
C1819 C1817 1.433 . S
C1819 N1822 1.384 . S
C1820 H1811 0.929 . S
C1820 C1812 1.378 . S
C1820 C1815 1.350 . S
C1821 H1808 0.929 . S
C1821 C1813 1.433 . S
C1821 N1823 1.384 . S
N1822 C1818 1.427 . S
N1822 C1819 1.384 . S
N1823 C1815 1.427 . S
N1823 C1821 1.384 . S
H1824 C1830 0.930 . S
H1825 C1834 0.930 . S
H1826 C1839 0.929 . S
H1827 C1837 0.929 . S
H1828 C1832 0.929 . S
H1829 C1838 0.929 . S
C1830 H1824 0.930 . S
C1830 C1831 1.367 . S
C1830 C1838 1.378 . S
C1831 C1830 1.367 . S
C1831 C1839 1.433 . S
C1832 H1828 0.929 . S
C1832 C1834 1.378 . S
C1832 C1836 1.350 . S
C1833 C1836 1.463 . S
C1833 C1838 1.350 . S
C1833 N1841 1.427 . S
C1834 H1825 0.930 . S
C1834 C1832 1.378 . S
C1834 C1835 1.367 . S
C1835 C1834 1.367 . S
C1835 C1837 1.433 . S
C1836 C1832 1.350 . S
C1836 C1833 1.463 . S
C1836 N1840 1.427 . S
C1837 H1827 0.929 . S
C1837 C1835 1.433 . S
C1837 N1840 1.384 . S
C1838 H1829 0.929 . S
C1838 C1830 1.378 . S
C1838 C1833 1.350 . S
C1839 H1826 0.929 . S
C1839 C1831 1.433 . S
C1839 N1841 1.384 . S
N1840 C1836 1.427 . S
N1840 C1837 1.384 . S
N1841 C1833 1.427 . S
N1841 C1839 1.384 . S
H1842 C1848 0.930 . S
H1843 C1852 0.930 . S
H1844 C1857 0.929 . S
H1845 C1855 0.929 . S
H1846 C1850 0.929 . S
H1847 C1856 0.929 . S
C1848 H1842 0.930 . S
C1848 C1849 1.367 . S
C1848 C1856 1.378 . S
C1849 C1848 1.367 . S
C1849 C1857 1.433 . S
C1850 H1846 0.929 . S
C1850 C1852 1.378 . S
C1850 C1854 1.350 . S
C1851 C1854 1.463 . S
C1851 C1856 1.350 . S
C1851 N1859 1.427 . S
C1852 H1843 0.930 . S
C1852 C1850 1.378 . S
C1852 C1853 1.367 . S
C1853 C1852 1.367 . S
C1853 C1855 1.433 . S
C1854 C1850 1.350 . S
C1854 C1851 1.463 . S
C1854 N1858 1.427 . S
C1855 H1845 0.929 . S
C1855 C1853 1.433 . S
C1855 N1858 1.384 . S
C1856 H1847 0.929 . S
C1856 C1848 1.378 . S
C1856 C1851 1.350 . S
C1857 H1844 0.929 . S
C1857 C1849 1.433 . S
C1857 N1859 1.384 . S
N1858 C1854 1.427 . S
N1858 C1855 1.384 . S
N1859 C1851 1.427 . S
N1859 C1857 1.384 . S
H1860 C1866 0.930 . S
H1861 C1870 0.930 . S
H1862 C1875 0.929 . S
H1863 C1873 0.929 . S
H1864 C1868 0.929 . S
H1865 C1874 0.929 . S
C1866 H1860 0.930 . S
C1866 C1867 1.367 . S
C1866 C1874 1.378 . S
C1867 C1866 1.367 . S
C1867 C1875 1.433 . S
C1868 H1864 0.929 . S
C1868 C1870 1.378 . S
C1868 C1872 1.350 . S
C1869 C1872 1.463 . S
C1869 C1874 1.350 . S
C1869 N1877 1.427 . S
C1870 H1861 0.930 . S
C1870 C1868 1.378 . S
C1870 C1871 1.367 . S
C1871 C1870 1.367 . S
C1871 C1873 1.433 . S
C1872 C1868 1.350 . S
C1872 C1869 1.463 . S
C1872 N1876 1.427 . S
C1873 H1863 0.929 . S
C1873 C1871 1.433 . S
C1873 N1876 1.384 . S
C1874 H1865 0.929 . S
C1874 C1866 1.378 . S
C1874 C1869 1.350 . S
C1875 H1862 0.929 . S
C1875 C1867 1.433 . S
C1875 N1877 1.384 . S
N1876 C1872 1.427 . S
N1876 C1873 1.384 . S
N1877 C1869 1.427 . S
N1877 C1875 1.384 . S
H1878 C1884 0.930 . S
H1879 C1888 0.930 . S
H1880 C1893 0.929 . S
H1881 C1891 0.929 . S
H1882 C1886 0.929 . S
H1883 C1892 0.929 . S
C1884 H1878 0.930 . S
C1884 C1885 1.367 . S
C1884 C1892 1.378 . S
C1885 C1884 1.367 . S
C1885 C1893 1.433 . S
C1886 H1882 0.929 . S
C1886 C1888 1.378 . S
C1886 C1890 1.350 . S
C1887 C1890 1.463 . S
C1887 C1892 1.350 . S
C1887 N1895 1.427 . S
C1888 H1879 0.930 . S
C1888 C1886 1.378 . S
C1888 C1889 1.367 . S
C1889 C1888 1.367 . S
C1889 C1891 1.433 . S
C1890 C1886 1.350 . S
C1890 C1887 1.463 . S
C1890 N1894 1.427 . S
C1891 H1881 0.929 . S
C1891 C1889 1.433 . S
C1891 N1894 1.384 . S
C1892 H1883 0.929 . S
C1892 C1884 1.378 . S
C1892 C1887 1.350 . S
C1893 H1880 0.929 . S
C1893 C1885 1.433 . S
C1893 N1895 1.384 . S
N1894 C1890 1.427 . S
N1894 C1891 1.384 . S
N1895 C1887 1.427 . S
N1895 C1893 1.384 . S
H1896 C1902 0.930 . S
H1897 C1906 0.930 . S
H1898 C1911 0.929 . S
H1899 C1909 0.929 . S
H1900 C1904 0.929 . S
H1901 C1910 0.929 . S
C1902 H1896 0.930 . S
C1902 C1903 1.367 . S
C1902 C1910 1.378 . S
C1903 C1902 1.367 . S
C1903 C1911 1.433 . S
C1904 H1900 0.929 . S
C1904 C1906 1.378 . S
C1904 C1908 1.350 . S
C1905 C1908 1.463 . S
C1905 C1910 1.350 . S
C1905 N1913 1.427 . S
C1906 H1897 0.930 . S
C1906 C1904 1.378 . S
C1906 C1907 1.367 . S
C1907 C1906 1.367 . S
C1907 C1909 1.433 . S
C1908 C1904 1.350 . S
C1908 C1905 1.463 . S
C1908 N1912 1.427 . S
C1909 H1899 0.929 . S
C1909 C1907 1.433 . S
C1909 N1912 1.384 . S
C1910 H1901 0.929 . S
C1910 C1902 1.378 . S
C1910 C1905 1.350 . S
C1911 H1898 0.929 . S
C1911 C1903 1.433 . S
C1911 N1913 1.384 . S
N1912 C1908 1.427 . S
N1912 C1909 1.384 . S
N1913 C1905 1.427 . S
N1913 C1911 1.384 . S
H1914 C1920 0.930 . S
H1915 C1924 0.930 . S
H1916 C1929 0.929 . S
H1917 C1927 0.929 . S
H1918 C1922 0.929 . S
H1919 C1928 0.929 . S
C1920 H1914 0.930 . S
C1920 C1921 1.367 . S
C1920 C1928 1.378 . S
C1921 C1920 1.367 . S
C1921 C1929 1.433 . S
C1922 H1918 0.929 . S
C1922 C1924 1.378 . S
C1922 C1926 1.350 . S
C1923 C1926 1.463 . S
C1923 C1928 1.350 . S
C1923 N1931 1.427 . S
C1924 H1915 0.930 . S
C1924 C1922 1.378 . S
C1924 C1925 1.367 . S
C1925 C1924 1.367 . S
C1925 C1927 1.433 . S
C1926 C1922 1.350 . S
C1926 C1923 1.463 . S
C1926 N1930 1.427 . S
C1927 H1917 0.929 . S
C1927 C1925 1.433 . S
C1927 N1930 1.384 . S
C1928 H1919 0.929 . S
C1928 C1920 1.378 . S
C1928 C1923 1.350 . S
C1929 H1916 0.929 . S
C1929 C1921 1.433 . S
C1929 N1931 1.384 . S
N1930 C1926 1.427 . S
N1930 C1927 1.384 . S
N1931 C1923 1.427 . S
N1931 C1929 1.384 . S
H1932 C1938 0.930 . S
H1933 C1942 0.930 . S
H1934 C1947 0.929 . S
H1935 C1945 0.929 . S
H1936 C1940 0.929 . S
H1937 C1946 0.929 . S
C1938 H1932 0.930 . S
C1938 C1939 1.367 . S
C1938 C1946 1.378 . S
C1939 C1938 1.367 . S
C1939 C1947 1.433 . S
C1940 H1936 0.929 . S
C1940 C1942 1.378 . S
C1940 C1944 1.350 . S
C1941 C1944 1.463 . S
C1941 C1946 1.350 . S
C1941 N1949 1.427 . S
C1942 H1933 0.930 . S
C1942 C1940 1.378 . S
C1942 C1943 1.367 . S
C1943 C1942 1.367 . S
C1943 C1945 1.433 . S
C1944 C1940 1.350 . S
C1944 C1941 1.463 . S
C1944 N1948 1.427 . S
C1945 H1935 0.929 . S
C1945 C1943 1.433 . S
C1945 N1948 1.384 . S
C1946 H1937 0.929 . S
C1946 C1938 1.378 . S
C1946 C1941 1.350 . S
C1947 H1934 0.929 . S
C1947 C1939 1.433 . S
C1947 N1949 1.384 . S
N1948 C1944 1.427 . S
N1948 C1945 1.384 . S
N1949 C1941 1.427 . S
N1949 C1947 1.384 . S
H1950 C1956 0.930 . S
H1951 C1960 0.930 . S
H1952 C1965 0.929 . S
H1953 C1963 0.929 . S
H1954 C1958 0.929 . S
H1955 C1964 0.929 . S
C1956 H1950 0.930 . S
C1956 C1957 1.367 . S
C1956 C1964 1.378 . S
C1957 C1956 1.367 . S
C1957 C1965 1.433 . S
C1958 H1954 0.929 . S
C1958 C1960 1.378 . S
C1958 C1962 1.350 . S
C1959 C1962 1.463 . S
C1959 C1964 1.350 . S
C1959 N1967 1.427 . S
C1960 H1951 0.930 . S
C1960 C1958 1.378 . S
C1960 C1961 1.367 . S
C1961 C1960 1.367 . S
C1961 C1963 1.433 . S
C1962 C1958 1.350 . S
C1962 C1959 1.463 . S
C1962 N1966 1.427 . S
C1963 H1953 0.929 . S
C1963 C1961 1.433 . S
C1963 N1966 1.384 . S
C1964 H1955 0.929 . S
C1964 C1956 1.378 . S
C1964 C1959 1.350 . S
C1965 H1952 0.929 . S
C1965 C1957 1.433 . S
C1965 N1967 1.384 . S
N1966 C1962 1.427 . S
N1966 C1963 1.384 . S
N1967 C1959 1.427 . S
N1967 C1965 1.384 . S
H1968 C1974 0.930 . S
H1969 C1978 0.930 . S
H1970 C1983 0.929 . S
H1971 C1981 0.929 . S
H1972 C1976 0.929 . S
H1973 C1982 0.929 . S
C1974 H1968 0.930 . S
C1974 C1975 1.367 . S
C1974 C1982 1.378 . S
C1975 C1974 1.367 . S
C1975 C1983 1.433 . S
C1976 H1972 0.929 . S
C1976 C1978 1.378 . S
C1976 C1980 1.350 . S
C1977 C1980 1.463 . S
C1977 C1982 1.350 . S
C1977 N1985 1.427 . S
C1978 H1969 0.930 . S
C1978 C1976 1.378 . S
C1978 C1979 1.367 . S
C1979 C1978 1.367 . S
C1979 C1981 1.433 . S
C1980 C1976 1.350 . S
C1980 C1977 1.463 . S
C1980 N1984 1.427 . S
C1981 H1971 0.929 . S
C1981 C1979 1.433 . S
C1981 N1984 1.384 . S
C1982 H1973 0.929 . S
C1982 C1974 1.378 . S
C1982 C1977 1.350 . S
C1983 H1970 0.929 . S
C1983 C1975 1.433 . S
C1983 N1985 1.384 . S
N1984 C1980 1.427 . S
N1984 C1981 1.384 . S
N1985 C1977 1.427 . S
N1985 C1983 1.384 . S
H1986 C1992 0.930 . S
H1987 C1996 0.930 . S
H1988 C2001 0.929 . S
H1989 C1999 0.929 . S
H1990 C1994 0.929 . S
H1991 C2000 0.929 . S
C1992 H1986 0.930 . S
C1992 C1993 1.367 . S
C1992 C2000 1.378 . S
C1993 C1992 1.367 . S
C1993 C2001 1.433 . S
C1994 H1990 0.929 . S
C1994 C1996 1.378 . S
C1994 C1998 1.350 . S
C1995 C1998 1.463 . S
C1995 C2000 1.350 . S
C1995 N2003 1.427 . S
C1996 H1987 0.930 . S
C1996 C1994 1.378 . S
C1996 C1997 1.367 . S
C1997 C1996 1.367 . S
C1997 C1999 1.433 . S
C1998 C1994 1.350 . S
C1998 C1995 1.463 . S
C1998 N2002 1.427 . S
C1999 H1989 0.929 . S
C1999 C1997 1.433 . S
C1999 N2002 1.384 . S
C2000 H1991 0.929 . S
C2000 C1992 1.378 . S
C2000 C1995 1.350 . S
C2001 H1988 0.929 . S
C2001 C1993 1.433 . S
C2001 N2003 1.384 . S
N2002 C1998 1.427 . S
N2002 C1999 1.384 . S
N2003 C1995 1.427 . S
N2003 C2001 1.384 . S
H2004 C2010 0.930 . S
H2005 C2014 0.930 . S
H2006 C2019 0.929 . S
H2007 C2017 0.929 . S
H2008 C2012 0.929 . S
H2009 C2018 0.929 . S
C2010 H2004 0.930 . S
C2010 C2011 1.367 . S
C2010 C2018 1.378 . S
C2011 C2010 1.367 . S
C2011 C2019 1.433 . S
C2012 H2008 0.929 . S
C2012 C2014 1.378 . S
C2012 C2016 1.350 . S
C2013 C2016 1.463 . S
C2013 C2018 1.350 . S
C2013 N2021 1.427 . S
C2014 H2005 0.930 . S
C2014 C2012 1.378 . S
C2014 C2015 1.367 . S
C2015 C2014 1.367 . S
C2015 C2017 1.433 . S
C2016 C2012 1.350 . S
C2016 C2013 1.463 . S
C2016 N2020 1.427 . S
C2017 H2007 0.929 . S
C2017 C2015 1.433 . S
C2017 N2020 1.384 . S
C2018 H2009 0.929 . S
C2018 C2010 1.378 . S
C2018 C2013 1.350 . S
C2019 H2006 0.929 . S
C2019 C2011 1.433 . S
C2019 N2021 1.384 . S
N2020 C2016 1.427 . S
N2020 C2017 1.384 . S
N2021 C2013 1.427 . S
N2021 C2019 1.384 . S
H2022 C2028 0.930 . S
H2023 C2032 0.930 . S
H2024 C2037 0.929 . S
H2025 C2035 0.929 . S
H2026 C2030 0.929 . S
H2027 C2036 0.929 . S
C2028 H2022 0.930 . S
C2028 C2029 1.367 . S
C2028 C2036 1.378 . S
C2029 C2028 1.367 . S
C2029 C2037 1.433 . S
C2030 H2026 0.929 . S
C2030 C2032 1.378 . S
C2030 C2034 1.350 . S
C2031 C2034 1.463 . S
C2031 C2036 1.350 . S
C2031 N2039 1.427 . S
C2032 H2023 0.930 . S
C2032 C2030 1.378 . S
C2032 C2033 1.367 . S
C2033 C2032 1.367 . S
C2033 C2035 1.433 . S
C2034 C2030 1.350 . S
C2034 C2031 1.463 . S
C2034 N2038 1.427 . S
C2035 H2025 0.929 . S
C2035 C2033 1.433 . S
C2035 N2038 1.384 . S
C2036 H2027 0.929 . S
C2036 C2028 1.378 . S
C2036 C2031 1.350 . S
C2037 H2024 0.929 . S
C2037 C2029 1.433 . S
C2037 N2039 1.384 . S
N2038 C2034 1.427 . S
N2038 C2035 1.384 . S
N2039 C2031 1.427 . S
N2039 C2037 1.384 . S
H2040 C2046 0.930 . S
H2041 C2050 0.930 . S
H2042 C2055 0.929 . S
H2043 C2053 0.929 . S
H2044 C2048 0.929 . S
H2045 C2054 0.929 . S
C2046 H2040 0.930 . S
C2046 C2047 1.367 . S
C2046 C2054 1.378 . S
C2047 C2046 1.367 . S
C2047 C2055 1.433 . S
C2048 H2044 0.929 . S
C2048 C2050 1.378 . S
C2048 C2052 1.350 . S
C2049 C2052 1.463 . S
C2049 C2054 1.350 . S
C2049 N2057 1.427 . S
C2050 H2041 0.930 . S
C2050 C2048 1.378 . S
C2050 C2051 1.367 . S
C2051 C2050 1.367 . S
C2051 C2053 1.433 . S
C2052 C2048 1.350 . S
C2052 C2049 1.463 . S
C2052 N2056 1.427 . S
C2053 H2043 0.929 . S
C2053 C2051 1.433 . S
C2053 N2056 1.384 . S
C2054 H2045 0.929 . S
C2054 C2046 1.378 . S
C2054 C2049 1.350 . S
C2055 H2042 0.929 . S
C2055 C2047 1.433 . S
C2055 N2057 1.384 . S
N2056 C2052 1.427 . S
N2056 C2053 1.384 . S
N2057 C2049 1.427 . S
N2057 C2055 1.384 . S
H2058 C2064 0.930 . S
H2059 C2068 0.930 . S
H2060 C2073 0.929 . S
H2061 C2071 0.929 . S
H2062 C2066 0.929 . S
H2063 C2072 0.929 . S
C2064 H2058 0.930 . S
C2064 C2065 1.367 . S
C2064 C2072 1.378 . S
C2065 C2064 1.367 . S
C2065 C2073 1.433 . S
C2066 H2062 0.929 . S
C2066 C2068 1.378 . S
C2066 C2070 1.350 . S
C2067 C2070 1.463 . S
C2067 C2072 1.350 . S
C2067 N2075 1.427 . S
C2068 H2059 0.930 . S
C2068 C2066 1.378 . S
C2068 C2069 1.367 . S
C2069 C2068 1.367 . S
C2069 C2071 1.433 . S
C2070 C2066 1.350 . S
C2070 C2067 1.463 . S
C2070 N2074 1.427 . S
C2071 H2061 0.929 . S
C2071 C2069 1.433 . S
C2071 N2074 1.384 . S
C2072 H2063 0.929 . S
C2072 C2064 1.378 . S
C2072 C2067 1.350 . S
C2073 H2060 0.929 . S
C2073 C2065 1.433 . S
C2073 N2075 1.384 . S
N2074 C2070 1.427 . S
N2074 C2071 1.384 . S
N2075 C2067 1.427 . S
N2075 C2073 1.384 . S
H2076 C2082 0.930 . S
H2077 C2086 0.930 . S
H2078 C2091 0.929 . S
H2079 C2089 0.929 . S
H2080 C2084 0.929 . S
H2081 C2090 0.929 . S
C2082 H2076 0.930 . S
C2082 C2083 1.367 . S
C2082 C2090 1.378 . S
C2083 C2082 1.367 . S
C2083 C2091 1.433 . S
C2084 H2080 0.929 . S
C2084 C2086 1.378 . S
C2084 C2088 1.350 . S
C2085 C2088 1.463 . S
C2085 C2090 1.350 . S
C2085 N2093 1.427 . S
C2086 H2077 0.930 . S
C2086 C2084 1.378 . S
C2086 C2087 1.367 . S
C2087 C2086 1.367 . S
C2087 C2089 1.433 . S
C2088 C2084 1.350 . S
C2088 C2085 1.463 . S
C2088 N2092 1.427 . S
C2089 H2079 0.929 . S
C2089 C2087 1.433 . S
C2089 N2092 1.384 . S
C2090 H2081 0.929 . S
C2090 C2082 1.378 . S
C2090 C2085 1.350 . S
C2091 H2078 0.929 . S
C2091 C2083 1.433 . S
C2091 N2093 1.384 . S
N2092 C2088 1.427 . S
N2092 C2089 1.384 . S
N2093 C2085 1.427 . S
N2093 C2091 1.384 . S
H2094 C2100 0.930 . S
H2095 C2104 0.930 . S
H2096 C2109 0.929 . S
H2097 C2107 0.929 . S
H2098 C2102 0.929 . S
H2099 C2108 0.929 . S
C2100 H2094 0.930 . S
C2100 C2101 1.367 . S
C2100 C2108 1.378 . S
C2101 C2100 1.367 . S
C2101 C2109 1.433 . S
C2102 H2098 0.929 . S
C2102 C2104 1.378 . S
C2102 C2106 1.350 . S
C2103 C2106 1.463 . S
C2103 C2108 1.350 . S
C2103 N2111 1.427 . S
C2104 H2095 0.930 . S
C2104 C2102 1.378 . S
C2104 C2105 1.367 . S
C2105 C2104 1.367 . S
C2105 C2107 1.433 . S
C2106 C2102 1.350 . S
C2106 C2103 1.463 . S
C2106 N2110 1.427 . S
C2107 H2097 0.929 . S
C2107 C2105 1.433 . S
C2107 N2110 1.384 . S
C2108 H2099 0.929 . S
C2108 C2100 1.378 . S
C2108 C2103 1.350 . S
C2109 H2096 0.929 . S
C2109 C2101 1.433 . S
C2109 N2111 1.384 . S
N2110 C2106 1.427 . S
N2110 C2107 1.384 . S
N2111 C2103 1.427 . S
N2111 C2109 1.384 . S
H2112 C2118 0.930 . S
H2113 C2122 0.930 . S
H2114 C2127 0.929 . S
H2115 C2125 0.929 . S
H2116 C2120 0.929 . S
H2117 C2126 0.929 . S
C2118 H2112 0.930 . S
C2118 C2119 1.367 . S
C2118 C2126 1.378 . S
C2119 C2118 1.367 . S
C2119 C2127 1.433 1_655 S
C2120 H2116 0.929 . S
C2120 C2122 1.378 . S
C2120 C2124 1.350 . S
C2121 C2124 1.463 . S
C2121 C2126 1.350 . S
C2121 N2129 1.427 . S
C2122 H2113 0.930 . S
C2122 C2120 1.378 . S
C2122 C2123 1.367 . S
C2123 C2122 1.367 . S
C2123 C2125 1.433 . S
C2124 C2120 1.350 . S
C2124 C2121 1.463 . S
C2124 N2128 1.427 . S
C2125 H2115 0.929 . S
C2125 C2123 1.433 . S
C2125 N2128 1.384 . S
C2126 H2117 0.929 . S
C2126 C2118 1.378 . S
C2126 C2121 1.350 . S
C2127 H2114 0.929 . S
C2127 C2119 1.433 1_455 S
C2127 N2129 1.384 1_455 S
N2128 C2124 1.427 . S
N2128 C2125 1.384 . S
N2129 C2121 1.427 . S
N2129 C2127 1.384 1_655 S
H2130 C2136 0.930 . S
H2131 C2140 0.930 . S
H2132 C2145 0.929 . S
H2133 C2143 0.929 . S
H2134 C2138 0.929 . S
H2135 C2144 0.929 . S
C2136 H2130 0.930 . S
C2136 C2137 1.367 . S
C2136 C2144 1.378 . S
C2137 C2136 1.367 . S
C2137 C2145 1.433 . S
C2138 H2134 0.929 . S
C2138 C2140 1.378 . S
C2138 C2142 1.350 . S
C2139 C2142 1.463 . S
C2139 C2144 1.350 . S
C2139 N2147 1.427 . S
C2140 H2131 0.930 . S
C2140 C2138 1.378 . S
C2140 C2141 1.367 . S
C2141 C2140 1.367 . S
C2141 C2143 1.433 . S
C2142 C2138 1.350 . S
C2142 C2139 1.463 . S
C2142 N2146 1.427 . S
C2143 H2133 0.929 . S
C2143 C2141 1.433 . S
C2143 N2146 1.384 . S
C2144 H2135 0.929 . S
C2144 C2136 1.378 . S
C2144 C2139 1.350 . S
C2145 H2132 0.929 . S
C2145 C2137 1.433 . S
C2145 N2147 1.384 . S
N2146 C2142 1.427 . S
N2146 C2143 1.384 . S
N2147 C2139 1.427 . S
N2147 C2145 1.384 . S
H2148 C2154 0.930 . S
H2149 C2158 0.930 . S
H2150 C2163 0.929 . S
H2151 C2161 0.929 . S
H2152 C2156 0.929 . S
H2153 C2162 0.929 . S
C2154 H2148 0.930 . S
C2154 C2155 1.367 . S
C2154 C2162 1.378 . S
C2155 C2154 1.367 . S
C2155 C2163 1.433 . S
C2156 H2152 0.929 . S
C2156 C2158 1.378 . S
C2156 C2160 1.350 . S
C2157 C2160 1.463 . S
C2157 C2162 1.350 . S
C2157 N2165 1.427 . S
C2158 H2149 0.930 . S
C2158 C2156 1.378 . S
C2158 C2159 1.367 . S
C2159 C2158 1.367 . S
C2159 C2161 1.433 . S
C2160 C2156 1.350 . S
C2160 C2157 1.463 . S
C2160 N2164 1.427 . S
C2161 H2151 0.929 . S
C2161 C2159 1.433 . S
C2161 N2164 1.384 . S
C2162 H2153 0.929 . S
C2162 C2154 1.378 . S
C2162 C2157 1.350 . S
C2163 H2150 0.929 . S
C2163 C2155 1.433 . S
C2163 N2165 1.384 . S
N2164 C2160 1.427 . S
N2164 C2161 1.384 . S
N2165 C2157 1.427 . S
N2165 C2163 1.384 . S
H2166 C2172 0.954 . S
H2167 C2176 0.930 . S
H2168 C2181 0.929 . S
H2169 C2179 0.929 . S
H2170 C2174 0.929 . S
H2171 C2180 0.929 . S
C2172 H2166 0.954 . S
C2172 C2173 1.367 . S
C2172 C2180 1.378 . S
C2173 C2172 1.367 . S
C2173 C2181 1.433 . S
C2174 H2170 0.929 . S
C2174 C2176 1.378 . S
C2174 C2178 1.350 . S
C2175 C2178 1.463 . S
C2175 C2180 1.350 . S
C2175 N2183 1.427 . S
C2176 H2167 0.930 . S
C2176 C2174 1.378 . S
C2176 C2177 1.367 . S
C2177 C2176 1.367 . S
C2177 C2179 1.433 . S
C2178 C2174 1.350 . S
C2178 C2175 1.463 . S
C2178 N2182 1.427 . S
C2179 H2169 0.929 . S
C2179 C2177 1.433 . S
C2179 N2182 1.384 . S
C2180 H2171 0.929 . S
C2180 C2172 1.378 . S
C2180 C2175 1.350 . S
C2181 H2168 0.929 . S
C2181 C2173 1.433 . S
C2181 N2183 1.384 . S
N2182 C2178 1.427 . S
N2182 C2179 1.384 . S
N2183 C2175 1.427 . S
N2183 C2181 1.384 . S
H2184 C2190 0.930 . S
H2185 C2194 0.930 . S
H2186 C2199 0.929 . S
H2187 C2197 0.929 . S
H2188 C2192 0.929 . S
H2189 C2198 0.929 . S
C2190 H2184 0.930 . S
C2190 C2191 1.367 1_455 S
C2190 C2198 1.378 1_455 S
C2191 C2190 1.367 1_655 S
C2191 C2199 1.433 . S
C2192 H2188 0.929 . S
C2192 C2194 1.378 . S
C2192 C2196 1.350 . S
C2193 C2196 1.463 . S
C2193 C2198 1.350 . S
C2193 N2201 1.427 . S
C2194 H2185 0.930 . S
C2194 C2192 1.378 . S
C2194 C2195 1.367 . S
C2195 C2194 1.367 . S
C2195 C2197 1.433 . S
C2196 C2192 1.350 . S
C2196 C2193 1.463 . S
C2196 N2200 1.427 . S
C2197 H2187 0.929 . S
C2197 C2195 1.433 . S
C2197 N2200 1.384 . S
C2198 H2189 0.929 . S
C2198 C2190 1.378 1_655 S
C2198 C2193 1.350 . S
C2199 H2186 0.929 . S
C2199 C2191 1.433 . S
C2199 N2201 1.384 . S
N2200 C2196 1.427 . S
N2200 C2197 1.384 . S
N2201 C2193 1.427 . S
N2201 C2199 1.384 . S
H2202 C2208 0.930 . S
H2203 C2212 0.930 . S
H2204 C2217 0.929 . S
H2205 C2215 0.929 . S
H2206 C2210 0.929 . S
H2207 C2216 0.929 . S
C2208 H2202 0.930 . S
C2208 C2209 1.367 . S
C2208 C2216 1.378 . S
C2209 C2208 1.367 . S
C2209 C2217 1.433 . S
C2210 H2206 0.929 . S
C2210 C2212 1.378 . S
C2210 C2214 1.350 . S
C2211 C2214 1.463 . S
C2211 C2216 1.350 . S
C2211 N2219 1.427 . S
C2212 H2203 0.930 . S
C2212 C2210 1.378 . S
C2212 C2213 1.367 . S
C2213 C2212 1.367 . S
C2213 C2215 1.433 . S
C2214 C2210 1.350 . S
C2214 C2211 1.463 . S
C2214 N2218 1.427 . S
C2215 H2205 0.929 . S
C2215 C2213 1.433 . S
C2215 N2218 1.384 . S
C2216 H2207 0.929 . S
C2216 C2208 1.378 . S
C2216 C2211 1.350 . S
C2217 H2204 0.929 . S
C2217 C2209 1.433 . S
C2217 N2219 1.384 . S
N2218 C2214 1.427 . S
N2218 C2215 1.384 . S
N2219 C2211 1.427 . S
N2219 C2217 1.384 . S
H2220 C2226 0.930 . S
H2221 C2230 0.930 . S
H2222 C2235 0.929 . S
H2223 C2233 0.929 . S
H2224 C2228 0.929 . S
H2225 C2234 0.929 . S
C2226 H2220 0.930 . S
C2226 C2227 1.367 . S
C2226 C2234 1.378 . S
C2227 C2226 1.367 . S
C2227 C2235 1.433 . S
C2228 H2224 0.929 . S
C2228 C2230 1.378 . S
C2228 C2232 1.350 . S
C2229 C2232 1.463 . S
C2229 C2234 1.350 . S
C2229 N2237 1.427 . S
C2230 H2221 0.930 . S
C2230 C2228 1.378 . S
C2230 C2231 1.367 . S
C2231 C2230 1.367 . S
C2231 C2233 1.433 . S
C2232 C2228 1.350 . S
C2232 C2229 1.463 . S
C2232 N2236 1.427 . S
C2233 H2223 0.929 . S
C2233 C2231 1.433 . S
C2233 N2236 1.384 . S
C2234 H2225 0.929 . S
C2234 C2226 1.378 . S
C2234 C2229 1.350 . S
C2235 H2222 0.929 . S
C2235 C2227 1.433 . S
C2235 N2237 1.384 . S
N2236 C2232 1.427 . S
N2236 C2233 1.384 . S
N2237 C2229 1.427 . S
N2237 C2235 1.384 . S
H2238 C2244 0.930 . S
H2239 C2248 0.930 . S
H2240 C2253 0.929 . S
H2241 C2251 0.929 . S
H2242 C2246 0.929 . S
H2243 C2252 0.929 . S
C2244 H2238 0.930 . S
C2244 C2245 1.367 . S
C2244 C2252 1.378 . S
C2245 C2244 1.367 . S
C2245 C2253 1.433 . S
C2246 H2242 0.929 . S
C2246 C2248 1.378 . S
C2246 C2250 1.350 . S
C2247 C2250 1.463 . S
C2247 C2252 1.350 . S
C2247 N2255 1.427 . S
C2248 H2239 0.930 . S
C2248 C2246 1.378 . S
C2248 C2249 1.367 . S
C2249 C2248 1.367 . S
C2249 C2251 1.433 1_556 S
C2250 C2246 1.350 . S
C2250 C2247 1.463 . S
C2250 N2254 1.427 . S
C2251 H2241 0.929 . S
C2251 C2249 1.433 1_554 S
C2251 N2254 1.384 1_554 S
C2252 H2243 0.929 . S
C2252 C2244 1.378 . S
C2252 C2247 1.350 . S
C2253 H2240 0.929 . S
C2253 C2245 1.433 . S
C2253 N2255 1.384 . S
N2254 C2250 1.427 . S
N2254 C2251 1.384 1_556 S
N2255 C2247 1.427 . S
N2255 C2253 1.384 . S
H2256 C2262 0.930 . S
H2257 C2266 0.930 . S
H2258 C2271 0.933 1_545 S
H2259 C2269 0.929 . S
H2260 C2264 0.929 . S
H2261 C2270 0.929 . S
C2262 H2256 0.930 . S
C2262 C2263 1.367 . S
C2262 C2270 1.378 . S
C2263 C2262 1.367 . S
C2263 C2271 1.433 . S
C2264 H2260 0.929 . S
C2264 C2266 1.378 . S
C2264 C2268 1.350 . S
C2265 C2268 1.463 . S
C2265 C2270 1.350 . S
C2265 N2273 1.427 . S
C2266 H2257 0.930 . S
C2266 C2264 1.378 . S
C2266 C2267 1.367 . S
C2267 C2266 1.367 . S
C2267 C2269 1.433 . S
C2268 C2264 1.350 . S
C2268 C2265 1.463 . S
C2268 N2272 1.427 . S
C2269 H2259 0.929 . S
C2269 C2267 1.433 . S
C2269 N2272 1.384 . S
C2270 H2261 0.929 . S
C2270 C2262 1.378 . S
C2270 C2265 1.350 . S
C2271 H2258 0.933 1_565 S
C2271 C2263 1.433 . S
C2271 N2273 1.380 . S
N2272 C2268 1.427 . S
N2272 C2269 1.384 . S
N2273 C2265 1.427 . S
N2273 C2271 1.380 . S
H2274 C2280 0.935 . S
H2275 C2284 0.930 . S
H2276 C2289 0.929 . S
H2277 C2287 0.929 . S
H2278 C2282 0.929 . S
H2279 C2288 0.929 . S
C2280 H2274 0.935 . S
C2280 C2281 1.367 . S
C2280 C2288 1.378 . S
C2281 C2280 1.367 . S
C2281 C2289 1.433 . S
C2282 H2278 0.929 . S
C2282 C2284 1.378 . S
C2282 C2286 1.350 . S
C2283 C2286 1.463 . S
C2283 C2288 1.350 . S
C2283 N2291 1.427 . S
C2284 H2275 0.930 . S
C2284 C2282 1.378 . S
C2284 C2285 1.367 . S
C2285 C2284 1.367 . S
C2285 C2287 1.433 . S
C2286 C2282 1.350 . S
C2286 C2283 1.463 . S
C2286 N2290 1.427 . S
C2287 H2277 0.929 . S
C2287 C2285 1.433 . S
C2287 N2290 1.384 . S
C2288 H2279 0.929 . S
C2288 C2280 1.378 . S
C2288 C2283 1.350 . S
C2289 H2276 0.929 . S
C2289 C2281 1.433 . S
C2289 N2291 1.384 . S
N2290 C2286 1.427 . S
N2290 C2287 1.384 . S
N2291 C2283 1.427 . S
N2291 C2289 1.384 . S
H2292 C2298 0.930 . S
H2293 C2302 0.930 . S
H2294 C2307 0.929 . S
H2295 C2305 0.929 . S
H2296 C2300 0.929 . S
H2297 C2306 0.929 . S
C2298 H2292 0.930 . S
C2298 C2299 1.367 1_565 S
C2298 C2306 1.378 1_565 S
C2299 C2298 1.367 1_545 S
C2299 C2307 1.433 . S
C2300 H2296 0.929 . S
C2300 C2302 1.378 . S
C2300 C2304 1.350 . S
C2301 C2304 1.463 . S
C2301 C2306 1.350 . S
C2301 N2309 1.427 . S
C2302 H2293 0.930 . S
C2302 C2300 1.378 . S
C2302 C2303 1.367 . S
C2303 C2302 1.367 . S
C2303 C2305 1.433 . S
C2304 C2300 1.350 . S
C2304 C2301 1.463 . S
C2304 N2308 1.427 . S
C2305 H2295 0.929 . S
C2305 C2303 1.433 . S
C2305 N2308 1.384 . S
C2306 H2297 0.929 . S
C2306 C2298 1.378 1_545 S
C2306 C2301 1.350 . S
C2307 H2294 0.929 . S
C2307 C2299 1.433 . S
C2307 N2309 1.384 . S
N2308 C2304 1.427 . S
N2308 C2305 1.384 . S
N2309 C2301 1.427 . S
N2309 C2307 1.384 . S
H2310 C2316 0.930 . S
H2311 C2320 0.952 . S
H2312 C2325 0.929 . S
H2313 C2323 0.929 . S
H2314 C2318 0.929 . S
H2315 C2324 0.929 . S
C2316 H2310 0.930 . S
C2316 C2317 1.367 . S
C2316 C2324 1.378 . S
C2317 C2316 1.367 . S
C2317 C2325 1.433 . S
C2318 H2314 0.929 . S
C2318 C2320 1.378 . S
C2318 C2322 1.350 . S
C2319 C2322 1.463 . S
C2319 C2324 1.350 . S
C2319 N2327 1.427 . S
C2320 H2311 0.952 . S
C2320 C2318 1.378 . S
C2320 C2321 1.367 . S
C2321 C2320 1.367 . S
C2321 C2323 1.433 . S
C2322 C2318 1.350 . S
C2322 C2319 1.463 . S
C2322 N2326 1.427 . S
C2323 H2313 0.929 . S
C2323 C2321 1.433 . S
C2323 N2326 1.384 . S
C2324 H2315 0.929 . S
C2324 C2316 1.378 . S
C2324 C2319 1.350 . S
C2325 H2312 0.929 . S
C2325 C2317 1.433 . S
C2325 N2327 1.384 . S
N2326 C2322 1.427 . S
N2326 C2323 1.384 . S
N2327 C2319 1.427 . S
N2327 C2325 1.384 . S
H2328 C2334 0.930 . S
H2329 C2338 0.930 . S
H2330 C2343 0.929 . S
H2331 C2341 0.929 . S
H2332 C2336 0.929 . S
H2333 C2342 0.929 . S
C2334 H2328 0.930 . S
C2334 C2335 1.367 . S
C2334 C2342 1.378 . S
C2335 C2334 1.367 . S
C2335 C2343 1.433 . S
C2336 H2332 0.929 . S
C2336 C2338 1.378 . S
C2336 C2340 1.350 . S
C2337 C2340 1.463 . S
C2337 C2342 1.350 . S
C2337 N2345 1.427 . S
C2338 H2329 0.930 . S
C2338 C2336 1.378 . S
C2338 C2339 1.367 . S
C2339 C2338 1.367 . S
C2339 C2341 1.433 1_554 S
C2340 C2336 1.350 . S
C2340 C2337 1.463 . S
C2340 N2344 1.427 . S
C2341 H2331 0.929 . S
C2341 C2339 1.433 1_556 S
C2341 N2344 1.384 1_556 S
C2342 H2333 0.929 . S
C2342 C2334 1.378 . S
C2342 C2337 1.350 . S
C2343 H2330 0.929 . S
C2343 C2335 1.433 . S
C2343 N2345 1.384 . S
N2344 C2340 1.427 . S
N2344 C2341 1.384 1_554 S
N2345 C2337 1.427 . S
N2345 C2343 1.384 . S
H2346 C2352 0.930 . S
H2347 C2356 0.930 . S
H2348 C2361 0.929 . S
H2349 C2359 0.929 . S
H2350 C2354 0.929 . S
H2351 C2360 0.929 . S
C2352 H2346 0.930 . S
C2352 C2353 1.367 1_655 S
C2352 C2360 1.378 1_655 S
C2353 C2352 1.367 1_455 S
C2353 C2361 1.433 . S
C2354 H2350 0.929 . S
C2354 C2356 1.378 . S
C2354 C2358 1.350 . S
C2355 C2358 1.463 . S
C2355 C2360 1.350 . S
C2355 N2363 1.427 . S
C2356 H2347 0.930 . S
C2356 C2354 1.378 . S
C2356 C2357 1.367 . S
C2357 C2356 1.367 . S
C2357 C2359 1.433 . S
C2358 C2354 1.350 . S
C2358 C2355 1.463 . S
C2358 N2362 1.427 . S
C2359 H2349 0.929 . S
C2359 C2357 1.433 . S
C2359 N2362 1.384 . S
C2360 H2351 0.929 . S
C2360 C2352 1.378 1_455 S
C2360 C2355 1.350 . S
C2361 H2348 0.929 . S
C2361 C2353 1.433 . S
C2361 N2363 1.384 . S
N2362 C2358 1.427 . S
N2362 C2359 1.384 . S
N2363 C2355 1.427 . S
N2363 C2361 1.384 . S
H2364 C2370 0.930 . S
H2365 C2374 0.930 . S
H2366 C2379 0.929 . S
H2367 C2377 0.929 . S
H2368 C2372 0.929 . S
H2369 C2378 0.929 . S
C2370 H2364 0.930 . S
C2370 C2371 1.367 . S
C2370 C2378 1.378 . S
C2371 C2370 1.367 . S
C2371 C2379 1.433 . S
C2372 H2368 0.929 . S
C2372 C2374 1.378 . S
C2372 C2376 1.350 . S
C2373 C2376 1.463 . S
C2373 C2378 1.350 . S
C2373 N2381 1.427 . S
C2374 H2365 0.930 . S
C2374 C2372 1.378 . S
C2374 C2375 1.367 . S
C2375 C2374 1.367 . S
C2375 C2377 1.433 . S
C2376 C2372 1.350 . S
C2376 C2373 1.463 . S
C2376 N2380 1.427 . S
C2377 H2367 0.929 . S
C2377 C2375 1.433 . S
C2377 N2380 1.384 . S
C2378 H2369 0.929 . S
C2378 C2370 1.378 . S
C2378 C2373 1.350 . S
C2379 H2366 0.929 . S
C2379 C2371 1.433 . S
C2379 N2381 1.384 . S
N2380 C2376 1.427 . S
N2380 C2377 1.384 . S
N2381 C2373 1.427 . S
N2381 C2379 1.384 . S
H2382 C2388 0.930 1_655 S
H2383 C2392 0.930 . S
H2384 C2397 0.929 . S
H2385 C2395 0.929 . S
H2386 C2390 0.929 . S
H2387 C2396 0.929 . S
C2388 H2382 0.930 1_455 S
C2388 C2389 1.367 . S
C2388 C2396 1.378 . S
C2389 C2388 1.367 . S
C2389 C2397 1.433 . S
C2390 H2386 0.929 . S
C2390 C2392 1.378 . S
C2390 C2394 1.350 . S
C2391 C2394 1.463 . S
C2391 C2396 1.350 . S
C2391 N2399 1.427 . S
C2392 H2383 0.930 . S
C2392 C2390 1.378 . S
C2392 C2393 1.367 . S
C2393 C2392 1.367 . S
C2393 C2395 1.433 . S
C2394 C2390 1.350 . S
C2394 C2391 1.463 . S
C2394 N2398 1.427 . S
C2395 H2385 0.929 . S
C2395 C2393 1.433 . S
C2395 N2398 1.384 . S
C2396 H2387 0.929 . S
C2396 C2388 1.378 . S
C2396 C2391 1.350 . S
C2397 H2384 0.929 . S
C2397 C2389 1.433 . S
C2397 N2399 1.384 . S
N2398 C2394 1.427 . S
N2398 C2395 1.384 . S
N2399 C2391 1.427 . S
N2399 C2397 1.384 . S
H2400 C2406 0.930 . S
H2401 C2410 0.930 . S
H2402 C2415 0.929 . S
H2403 C2413 0.929 . S
H2404 C2408 0.929 . S
H2405 C2414 0.929 . S
C2406 H2400 0.930 . S
C2406 C2407 1.367 . S
C2406 C2414 1.378 . S
C2407 C2406 1.367 . S
C2407 C2415 1.433 . S
C2408 H2404 0.929 . S
C2408 C2410 1.378 . S
C2408 C2412 1.350 . S
C2409 C2412 1.463 . S
C2409 C2414 1.350 . S
C2409 N2417 1.427 . S
C2410 H2401 0.930 . S
C2410 C2408 1.378 . S
C2410 C2411 1.367 . S
C2411 C2410 1.367 . S
C2411 C2413 1.433 . S
C2412 C2408 1.350 . S
C2412 C2409 1.463 . S
C2412 N2416 1.427 . S
C2413 H2403 0.929 . S
C2413 C2411 1.433 . S
C2413 N2416 1.384 . S
C2414 H2405 0.929 . S
C2414 C2406 1.378 . S
C2414 C2409 1.350 . S
C2415 H2402 0.929 . S
C2415 C2407 1.433 . S
C2415 N2417 1.384 . S
N2416 C2412 1.427 . S
N2416 C2413 1.384 . S
N2417 C2409 1.427 . S
N2417 C2415 1.384 . S
H2418 C2424 0.930 1_655 S
H2419 C2428 0.930 . S
H2420 C2433 0.929 . S
H2421 C2431 0.929 . S
H2422 C2426 0.929 . S
H2423 C2432 0.929 . S
C2424 H2418 0.930 1_455 S
C2424 C2425 1.367 . S
C2424 C2432 1.378 . S
C2425 C2424 1.367 . S
C2425 C2433 1.433 . S
C2426 H2422 0.929 . S
C2426 C2428 1.378 . S
C2426 C2430 1.350 . S
C2427 C2430 1.463 . S
C2427 C2432 1.350 . S
C2427 N2435 1.427 . S
C2428 H2419 0.930 . S
C2428 C2426 1.378 . S
C2428 C2429 1.367 . S
C2429 C2428 1.367 . S
C2429 C2431 1.433 . S
C2430 C2426 1.350 . S
C2430 C2427 1.463 . S
C2430 N2434 1.427 . S
C2431 H2421 0.929 . S
C2431 C2429 1.433 . S
C2431 N2434 1.384 . S
C2432 H2423 0.929 . S
C2432 C2424 1.378 . S
C2432 C2427 1.350 . S
C2433 H2420 0.929 . S
C2433 C2425 1.433 . S
C2433 N2435 1.384 . S
N2434 C2430 1.427 . S
N2434 C2431 1.384 . S
N2435 C2427 1.427 . S
N2435 C2433 1.384 . S
H2436 C2442 0.930 . S
H2437 C2446 0.930 . S
H2438 C2451 0.929 . S
H2439 C2449 0.929 . S
H2440 C2444 0.929 . S
H2441 C2450 0.929 . S
C2442 H2436 0.930 . S
C2442 C2443 1.367 . S
C2442 C2450 1.378 . S
C2443 C2442 1.367 . S
C2443 C2451 1.433 . S
C2444 H2440 0.929 . S
C2444 C2446 1.378 . S
C2444 C2448 1.350 . S
C2445 C2448 1.463 . S
C2445 C2450 1.350 . S
C2445 N2453 1.427 . S
C2446 H2437 0.930 . S
C2446 C2444 1.378 . S
C2446 C2447 1.367 . S
C2447 C2446 1.367 . S
C2447 C2449 1.433 . S
C2448 C2444 1.350 . S
C2448 C2445 1.463 . S
C2448 N2452 1.427 . S
C2449 H2439 0.929 . S
C2449 C2447 1.433 . S
C2449 N2452 1.384 . S
C2450 H2441 0.929 . S
C2450 C2442 1.378 . S
C2450 C2445 1.350 . S
C2451 H2438 0.929 . S
C2451 C2443 1.433 . S
C2451 N2453 1.384 . S
N2452 C2448 1.427 . S
N2452 C2449 1.384 . S
N2453 C2445 1.427 . S
N2453 C2451 1.384 . S
H2454 C2460 0.930 . S
H2455 C2464 0.930 . S
H2456 C2469 0.929 . S
H2457 C2467 0.929 . S
H2458 C2462 0.929 . S
H2459 C2468 0.929 . S
C2460 H2454 0.930 . S
C2460 C2461 1.367 . S
C2460 C2468 1.378 . S
C2461 C2460 1.367 . S
C2461 C2469 1.433 . S
C2462 H2458 0.929 . S
C2462 C2464 1.378 . S
C2462 C2466 1.350 . S
C2463 C2466 1.463 . S
C2463 C2468 1.350 . S
C2463 N2471 1.427 . S
C2464 H2455 0.930 . S
C2464 C2462 1.378 . S
C2464 C2465 1.367 . S
C2465 C2464 1.367 . S
C2465 C2467 1.433 . S
C2466 C2462 1.350 . S
C2466 C2463 1.463 . S
C2466 N2470 1.427 . S
C2467 H2457 0.929 . S
C2467 C2465 1.433 . S
C2467 N2470 1.384 . S
C2468 H2459 0.929 . S
C2468 C2460 1.378 . S
C2468 C2463 1.350 . S
C2469 H2456 0.929 . S
C2469 C2461 1.433 . S
C2469 N2471 1.384 . S
N2470 C2466 1.427 . S
N2470 C2467 1.384 . S
N2471 C2463 1.427 . S
N2471 C2469 1.384 . S
H2472 C2478 0.930 . S
H2473 C2482 0.930 . S
H2474 C2487 0.929 . S
H2475 C2485 0.929 . S
H2476 C2480 0.929 . S
H2477 C2486 0.929 . S
C2478 H2472 0.930 . S
C2478 C2479 1.367 1_554 S
C2478 C2486 1.378 1_554 S
C2479 C2478 1.367 1_556 S
C2479 C2487 1.433 . S
C2480 H2476 0.929 . S
C2480 C2482 1.378 . S
C2480 C2484 1.350 . S
C2481 C2484 1.463 . S
C2481 C2486 1.350 . S
C2481 N2489 1.427 . S
C2482 H2473 0.930 . S
C2482 C2480 1.378 . S
C2482 C2483 1.367 . S
C2483 C2482 1.367 . S
C2483 C2485 1.433 . S
C2484 C2480 1.350 . S
C2484 C2481 1.463 . S
C2484 N2488 1.427 . S
C2485 H2475 0.929 . S
C2485 C2483 1.433 . S
C2485 N2488 1.384 . S
C2486 H2477 0.929 . S
C2486 C2478 1.378 1_556 S
C2486 C2481 1.350 . S
C2487 H2474 0.929 . S
C2487 C2479 1.433 . S
C2487 N2489 1.384 . S
N2488 C2484 1.427 . S
N2488 C2485 1.384 . S
N2489 C2481 1.427 . S
N2489 C2487 1.384 . S
H2490 C2496 0.930 . S
H2491 C2500 0.930 . S
H2492 C2505 0.929 . S
H2493 C2503 0.929 . S
H2494 C2498 0.929 . S
H2495 C2504 0.929 . S
C2496 H2490 0.930 . S
C2496 C2497 1.367 . S
C2496 C2504 1.378 . S
C2497 C2496 1.367 . S
C2497 C2505 1.433 . S
C2498 H2494 0.929 . S
C2498 C2500 1.378 . S
C2498 C2502 1.350 . S
C2499 C2502 1.463 . S
C2499 C2504 1.350 . S
C2499 N2507 1.427 . S
C2500 H2491 0.930 . S
C2500 C2498 1.378 . S
C2500 C2501 1.367 . S
C2501 C2500 1.367 . S
C2501 C2503 1.433 . S
C2502 C2498 1.350 . S
C2502 C2499 1.463 . S
C2502 N2506 1.427 . S
C2503 H2493 0.929 . S
C2503 C2501 1.433 . S
C2503 N2506 1.384 . S
C2504 H2495 0.929 . S
C2504 C2496 1.378 . S
C2504 C2499 1.350 . S
C2505 H2492 0.929 . S
C2505 C2497 1.433 . S
C2505 N2507 1.384 . S
N2506 C2502 1.427 . S
N2506 C2503 1.384 . S
N2507 C2499 1.427 . S
N2507 C2505 1.384 . S
H2508 C2514 0.930 . S
H2509 C2518 0.930 . S
H2510 C2523 0.929 . S
H2511 C2521 0.929 . S
H2512 C2516 0.929 . S
H2513 C2522 0.929 . S
C2514 H2508 0.930 . S
C2514 C2515 1.367 . S
C2514 C2522 1.378 . S
C2515 C2514 1.367 . S
C2515 C2523 1.433 . S
C2516 H2512 0.929 . S
C2516 C2518 1.378 . S
C2516 C2520 1.350 . S
C2517 C2520 1.463 . S
C2517 C2522 1.350 . S
C2517 N2525 1.427 . S
C2518 H2509 0.930 . S
C2518 C2516 1.378 . S
C2518 C2519 1.367 . S
C2519 C2518 1.367 . S
C2519 C2521 1.433 . S
C2520 C2516 1.350 . S
C2520 C2517 1.463 . S
C2520 N2524 1.427 . S
C2521 H2511 0.929 . S
C2521 C2519 1.433 . S
C2521 N2524 1.384 . S
C2522 H2513 0.929 . S
C2522 C2514 1.378 . S
C2522 C2517 1.350 . S
C2523 H2510 0.929 . S
C2523 C2515 1.433 . S
C2523 N2525 1.384 . S
N2524 C2520 1.427 . S
N2524 C2521 1.384 . S
N2525 C2517 1.427 . S
N2525 C2523 1.384 . S
H2526 C2532 0.930 . S
H2527 C2536 0.930 . S
H2528 C2541 0.929 . S
H2529 C2539 0.929 . S
H2530 C2534 0.929 . S
H2531 C2540 0.929 . S
C2532 H2526 0.930 . S
C2532 C2533 1.367 . S
C2532 C2540 1.378 . S
C2533 C2532 1.367 . S
C2533 C2541 1.433 . S
C2534 H2530 0.929 . S
C2534 C2536 1.378 . S
C2534 C2538 1.350 . S
C2535 C2538 1.463 . S
C2535 C2540 1.350 . S
C2535 N2543 1.427 . S
C2536 H2527 0.930 . S
C2536 C2534 1.378 . S
C2536 C2537 1.367 . S
C2537 C2536 1.367 . S
C2537 C2539 1.433 . S
C2538 C2534 1.350 . S
C2538 C2535 1.463 . S
C2538 N2542 1.427 . S
C2539 H2529 0.929 . S
C2539 C2537 1.433 . S
C2539 N2542 1.384 . S
C2540 H2531 0.929 . S
C2540 C2532 1.378 . S
C2540 C2535 1.350 . S
C2541 H2528 0.929 . S
C2541 C2533 1.433 . S
C2541 N2543 1.384 . S
N2542 C2538 1.427 . S
N2542 C2539 1.384 . S
N2543 C2535 1.427 . S
N2543 C2541 1.384 . S
H2544 C2550 0.930 . S
H2545 C2554 0.930 . S
H2546 C2559 0.929 . S
H2547 C2557 0.929 . S
H2548 C2552 0.929 . S
H2549 C2558 0.929 . S
C2550 H2544 0.930 . S
C2550 C2551 1.367 . S
C2550 C2558 1.378 . S
C2551 C2550 1.367 . S
C2551 C2559 1.433 . S
C2552 H2548 0.929 . S
C2552 C2554 1.378 1_554 S
C2552 C2556 1.350 . S
C2553 C2556 1.463 . S
C2553 C2558 1.350 . S
C2553 N2561 1.427 . S
C2554 H2545 0.930 . S
C2554 C2552 1.378 1_556 S
C2554 C2555 1.367 1_556 S
C2555 C2554 1.367 1_554 S
C2555 C2557 1.433 . S
C2556 C2552 1.350 . S
C2556 C2553 1.463 . S
C2556 N2560 1.427 . S
C2557 H2547 0.929 . S
C2557 C2555 1.433 . S
C2557 N2560 1.384 . S
C2558 H2549 0.929 . S
C2558 C2550 1.378 . S
C2558 C2553 1.350 . S
C2559 H2546 0.929 . S
C2559 C2551 1.433 . S
C2559 N2561 1.384 . S
N2560 C2556 1.427 . S
N2560 C2557 1.384 . S
N2561 C2553 1.427 . S
N2561 C2559 1.384 . S
H2562 C2568 0.930 . S
H2563 C2572 0.930 . S
H2564 C2577 0.929 . S
H2565 C2575 0.929 . S
H2566 C2570 0.929 . S
H2567 C2576 0.929 . S
C2568 H2562 0.930 . S
C2568 C2569 1.367 . S
C2568 C2576 1.378 . S
C2569 C2568 1.367 . S
C2569 C2577 1.433 . S
C2570 H2566 0.929 . S
C2570 C2572 1.378 1_545 S
C2570 C2574 1.350 . S
C2571 C2574 1.463 . S
C2571 C2576 1.350 . S
C2571 N2579 1.427 . S
C2572 H2563 0.930 . S
C2572 C2570 1.378 1_565 S
C2572 C2573 1.367 1_565 S
C2573 C2572 1.367 1_545 S
C2573 C2575 1.433 . S
C2574 C2570 1.350 . S
C2574 C2571 1.463 . S
C2574 N2578 1.427 . S
C2575 H2565 0.929 . S
C2575 C2573 1.433 . S
C2575 N2578 1.384 . S
C2576 H2567 0.929 . S
C2576 C2568 1.378 . S
C2576 C2571 1.350 . S
C2577 H2564 0.929 . S
C2577 C2569 1.433 . S
C2577 N2579 1.384 . S
N2578 C2574 1.427 . S
N2578 C2575 1.384 . S
N2579 C2571 1.427 . S
N2579 C2577 1.384 . S
H2580 C2586 0.930 . S
H2581 C2590 0.930 . S
H2582 C2595 0.929 . S
H2583 C2593 0.929 . S
H2584 C2588 0.929 . S
H2585 C2594 0.929 . S
C2586 H2580 0.930 . S
C2586 C2587 1.367 . S
C2586 C2594 1.378 . S
C2587 C2586 1.367 . S
C2587 C2595 1.433 . S
C2588 H2584 0.929 . S
C2588 C2590 1.378 . S
C2588 C2592 1.350 . S
C2589 C2592 1.463 . S
C2589 C2594 1.350 . S
C2589 N2597 1.427 . S
C2590 H2581 0.930 . S
C2590 C2588 1.378 . S
C2590 C2591 1.367 . S
C2591 C2590 1.367 . S
C2591 C2593 1.433 1_565 S
C2592 C2588 1.350 . S
C2592 C2589 1.463 . S
C2592 N2596 1.427 . S
C2593 H2583 0.929 . S
C2593 C2591 1.433 1_545 S
C2593 N2596 1.384 1_545 S
C2594 H2585 0.929 . S
C2594 C2586 1.378 . S
C2594 C2589 1.350 . S
C2595 H2582 0.929 . S
C2595 C2587 1.433 . S
C2595 N2597 1.384 . S
N2596 C2592 1.427 . S
N2596 C2593 1.384 1_565 S
N2597 C2589 1.427 . S
N2597 C2595 1.384 . S
H2598 C2604 0.930 . S
H2599 C2608 0.930 . S
H2600 C2613 0.929 . S
H2601 C2611 0.929 . S
H2602 C2606 0.929 . S
H2603 C2612 0.929 . S
C2604 H2598 0.930 . S
C2604 C2605 1.367 . S
C2604 C2612 1.378 . S
C2605 C2604 1.367 . S
C2605 C2613 1.433 . S
C2606 H2602 0.929 . S
C2606 C2608 1.378 . S
C2606 C2610 1.350 . S
C2607 C2610 1.463 . S
C2607 C2612 1.350 . S
C2607 N2615 1.427 . S
C2608 H2599 0.930 . S
C2608 C2606 1.378 . S
C2608 C2609 1.367 . S
C2609 C2608 1.367 . S
C2609 C2611 1.433 1_565 S
C2610 C2606 1.350 . S
C2610 C2607 1.463 . S
C2610 N2614 1.427 . S
C2611 H2601 0.929 . S
C2611 C2609 1.433 1_545 S
C2611 N2614 1.384 1_545 S
C2612 H2603 0.929 . S
C2612 C2604 1.378 . S
C2612 C2607 1.350 . S
C2613 H2600 0.929 . S
C2613 C2605 1.433 . S
C2613 N2615 1.384 . S
N2614 C2610 1.427 . S
N2614 C2611 1.384 1_565 S
N2615 C2607 1.427 . S
N2615 C2613 1.384 . S
H2616 C2622 0.930 . S
H2617 C2626 0.930 . S
H2618 C2631 0.929 . S
H2619 C2629 0.929 . S
H2620 C2624 0.929 . S
H2621 C2630 0.929 . S
C2622 H2616 0.930 . S
C2622 C2623 1.367 . S
C2622 C2630 1.378 . S
C2623 C2622 1.367 . S
C2623 C2631 1.433 . S
C2624 H2620 0.929 . S
C2624 C2626 1.378 . S
C2624 C2628 1.350 . S
C2625 C2628 1.463 . S
C2625 C2630 1.350 . S
C2625 N2633 1.427 . S
C2626 H2617 0.930 . S
C2626 C2624 1.378 . S
C2626 C2627 1.367 . S
C2627 C2626 1.367 . S
C2627 C2629 1.433 1_545 S
C2628 C2624 1.350 . S
C2628 C2625 1.463 . S
C2628 N2632 1.427 . S
C2629 H2619 0.929 . S
C2629 C2627 1.433 1_565 S
C2629 N2632 1.384 1_565 S
C2630 H2621 0.929 . S
C2630 C2622 1.378 . S
C2630 C2625 1.350 . S
C2631 H2618 0.929 . S
C2631 C2623 1.433 . S
C2631 N2633 1.384 . S
N2632 C2628 1.427 . S
N2632 C2629 1.384 1_545 S
N2633 C2625 1.427 . S
N2633 C2631 1.384 . S
H2634 C2640 0.930 . S
H2635 C2644 0.935 1_554 S
H2636 C2649 0.929 . S
H2637 C2647 0.929 . S
H2638 C2642 0.929 . S
H2639 C2648 0.929 . S
C2640 H2634 0.930 . S
C2640 C2641 1.367 . S
C2640 C2648 1.378 . S
C2641 C2640 1.367 . S
C2641 C2649 1.433 . S
C2642 H2638 0.929 . S
C2642 C2644 1.374 . S
C2642 C2646 1.350 . S
C2643 C2646 1.463 . S
C2643 C2648 1.350 . S
C2643 N2651 1.427 . S
C2644 H2635 0.935 1_556 S
C2644 C2642 1.374 . S
C2644 C2645 1.366 . S
C2645 C2644 1.366 . S
C2645 C2647 1.433 . S
C2646 C2642 1.350 . S
C2646 C2643 1.463 . S
C2646 N2650 1.427 . S
C2647 H2637 0.929 . S
C2647 C2645 1.433 . S
C2647 N2650 1.384 . S
C2648 H2639 0.929 . S
C2648 C2640 1.378 . S
C2648 C2643 1.350 . S
C2649 H2636 0.929 . S
C2649 C2641 1.433 . S
C2649 N2651 1.384 . S
N2650 C2646 1.427 . S
N2650 C2647 1.384 . S
N2651 C2643 1.427 . S
N2651 C2649 1.384 . S
H2652 C2658 0.930 . S
H2653 C2662 0.959 . S
H2654 C2667 0.929 . S
H2655 C2665 0.929 . S
H2656 C2660 0.929 . S
H2657 C2666 0.929 . S
C2658 H2652 0.930 . S
C2658 C2659 1.367 . S
C2658 C2666 1.378 . S
C2659 C2658 1.367 . S
C2659 C2667 1.433 . S
C2660 H2656 0.929 . S
C2660 C2662 1.378 . S
C2660 C2664 1.350 . S
C2661 C2664 1.463 . S
C2661 C2666 1.350 . S
C2661 N2669 1.427 . S
C2662 H2653 0.959 . S
C2662 C2660 1.378 . S
C2662 C2663 1.367 . S
C2663 C2662 1.367 . S
C2663 C2665 1.433 . S
C2664 C2660 1.350 . S
C2664 C2661 1.463 . S
C2664 N2668 1.427 . S
C2665 H2655 0.929 . S
C2665 C2663 1.433 . S
C2665 N2668 1.384 . S
C2666 H2657 0.929 . S
C2666 C2658 1.378 . S
C2666 C2661 1.350 . S
C2667 H2654 0.929 . S
C2667 C2659 1.433 . S
C2667 N2669 1.384 . S
N2668 C2664 1.427 . S
N2668 C2665 1.384 . S
N2669 C2661 1.427 . S
N2669 C2667 1.384 . S
H2670 C2676 0.930 . S
H2671 C2680 0.930 . S
H2672 C2685 0.929 . S
H2673 C2683 0.929 . S
H2674 C2678 0.929 . S
H2675 C2684 0.929 . S
C2676 H2670 0.930 . S
C2676 C2677 1.367 . S
C2676 C2684 1.378 . S
C2677 C2676 1.367 . S
C2677 C2685 1.433 . S
C2678 H2674 0.929 . S
C2678 C2680 1.378 . S
C2678 C2682 1.350 . S
C2679 C2682 1.463 . S
C2679 C2684 1.350 . S
C2679 N2687 1.427 . S
C2680 H2671 0.930 . S
C2680 C2678 1.378 . S
C2680 C2681 1.367 . S
C2681 C2680 1.367 . S
C2681 C2683 1.433 . S
C2682 C2678 1.350 . S
C2682 C2679 1.463 . S
C2682 N2686 1.427 . S
C2683 H2673 0.929 . S
C2683 C2681 1.433 . S
C2683 N2686 1.384 . S
C2684 H2675 0.929 . S
C2684 C2676 1.378 . S
C2684 C2679 1.350 . S
C2685 H2672 0.929 . S
C2685 C2677 1.433 . S
C2685 N2687 1.384 . S
N2686 C2682 1.427 . S
N2686 C2683 1.384 . S
N2687 C2679 1.427 . S
N2687 C2685 1.384 . S
H2688 C2694 0.930 . S
H2689 C2698 0.930 . S
H2690 C2703 0.929 . S
H2691 C2701 0.929 . S
H2692 C2696 0.929 . S
H2693 C2702 0.929 . S
C2694 H2688 0.930 . S
C2694 C2695 1.367 . S
C2694 C2702 1.378 . S
C2695 C2694 1.367 . S
C2695 C2703 1.433 . S
C2696 H2692 0.929 . S
C2696 C2698 1.378 1_655 S
C2696 C2700 1.350 . S
C2697 C2700 1.463 . S
C2697 C2702 1.350 . S
C2697 N2705 1.427 . S
C2698 H2689 0.930 . S
C2698 C2696 1.378 1_455 S
C2698 C2699 1.367 1_455 S
C2699 C2698 1.367 1_655 S
C2699 C2701 1.433 . S
C2700 C2696 1.350 . S
C2700 C2697 1.463 . S
C2700 N2704 1.427 . S
C2701 H2691 0.929 . S
C2701 C2699 1.433 . S
C2701 N2704 1.384 . S
C2702 H2693 0.929 . S
C2702 C2694 1.378 . S
C2702 C2697 1.350 . S
C2703 H2690 0.929 . S
C2703 C2695 1.433 . S
C2703 N2705 1.384 . S
N2704 C2700 1.427 . S
N2704 C2701 1.384 . S
N2705 C2697 1.427 . S
N2705 C2703 1.384 . S
H2706 C2712 0.930 . S
H2707 C2716 0.930 . S
H2708 C2721 0.929 . S
H2709 C2719 0.929 . S
H2710 C2714 0.929 . S
H2711 C2720 0.929 . S
C2712 H2706 0.930 . S
C2712 C2713 1.367 . S
C2712 C2720 1.378 . S
C2713 C2712 1.367 . S
C2713 C2721 1.433 . S
C2714 H2710 0.929 . S
C2714 C2716 1.378 . S
C2714 C2718 1.350 . S
C2715 C2718 1.463 . S
C2715 C2720 1.350 . S
C2715 N2723 1.427 . S
C2716 H2707 0.930 . S
C2716 C2714 1.378 . S
C2716 C2717 1.367 . S
C2717 C2716 1.367 . S
C2717 C2719 1.433 . S
C2718 C2714 1.350 . S
C2718 C2715 1.463 . S
C2718 N2722 1.427 . S
C2719 H2709 0.929 . S
C2719 C2717 1.433 . S
C2719 N2722 1.384 . S
C2720 H2711 0.929 . S
C2720 C2712 1.378 . S
C2720 C2715 1.350 . S
C2721 H2708 0.929 . S
C2721 C2713 1.433 . S
C2721 N2723 1.384 . S
N2722 C2718 1.427 . S
N2722 C2719 1.384 . S
N2723 C2715 1.427 . S
N2723 C2721 1.384 . S
H2724 C2730 0.930 . S
H2725 C2734 0.930 . S
H2726 C2739 0.929 . S
H2727 C2737 0.929 . S
H2728 C2732 0.929 . S
H2729 C2738 0.929 . S
C2730 H2724 0.930 . S
C2730 C2731 1.367 . S
C2730 C2738 1.378 . S
C2731 C2730 1.367 . S
C2731 C2739 1.433 . S
C2732 H2728 0.929 . S
C2732 C2734 1.378 . S
C2732 C2736 1.350 . S
C2733 C2736 1.463 . S
C2733 C2738 1.350 . S
C2733 N2741 1.427 . S
C2734 H2725 0.930 . S
C2734 C2732 1.378 . S
C2734 C2735 1.367 . S
C2735 C2734 1.367 . S
C2735 C2737 1.433 . S
C2736 C2732 1.350 . S
C2736 C2733 1.463 . S
C2736 N2740 1.427 . S
C2737 H2727 0.929 . S
C2737 C2735 1.433 . S
C2737 N2740 1.384 . S
C2738 H2729 0.929 . S
C2738 C2730 1.378 . S
C2738 C2733 1.350 . S
C2739 H2726 0.929 . S
C2739 C2731 1.433 . S
C2739 N2741 1.384 . S
N2740 C2736 1.427 . S
N2740 C2737 1.384 . S
N2741 C2733 1.427 . S
N2741 C2739 1.384 . S
H2742 C2748 0.930 . S
H2743 C2752 0.930 . S
H2744 C2757 0.929 . S
H2745 C2755 0.929 . S
H2746 C2750 0.929 . S
H2747 C2756 0.929 . S
C2748 H2742 0.930 . S
C2748 C2749 1.367 . S
C2748 C2756 1.378 . S
C2749 C2748 1.367 . S
C2749 C2757 1.433 1_556 S
C2750 H2746 0.929 . S
C2750 C2752 1.378 . S
C2750 C2754 1.350 . S
C2751 C2754 1.463 . S
C2751 C2756 1.350 . S
C2751 N2759 1.427 . S
C2752 H2743 0.930 . S
C2752 C2750 1.378 . S
C2752 C2753 1.367 . S
C2753 C2752 1.367 . S
C2753 C2755 1.433 . S
C2754 C2750 1.350 . S
C2754 C2751 1.463 . S
C2754 N2758 1.427 . S
C2755 H2745 0.929 . S
C2755 C2753 1.433 . S
C2755 N2758 1.384 . S
C2756 H2747 0.929 . S
C2756 C2748 1.378 . S
C2756 C2751 1.350 . S
C2757 H2744 0.929 . S
C2757 C2749 1.433 1_554 S
C2757 N2759 1.384 1_554 S
N2758 C2754 1.427 . S
N2758 C2755 1.384 . S
N2759 C2751 1.427 . S
N2759 C2757 1.384 1_556 S
H2760 C2766 0.930 . S
H2761 C2770 0.930 . S
H2762 C2775 0.929 . S
H2763 C2773 0.929 . S
H2764 C2768 0.929 . S
H2765 C2774 0.929 . S
C2766 H2760 0.930 . S
C2766 C2767 1.367 . S
C2766 C2774 1.378 . S
C2767 C2766 1.367 . S
C2767 C2775 1.433 . S
C2768 H2764 0.929 . S
C2768 C2770 1.378 . S
C2768 C2772 1.350 . S
C2769 C2772 1.463 . S
C2769 C2774 1.350 . S
C2769 N2777 1.427 . S
C2770 H2761 0.930 . S
C2770 C2768 1.378 . S
C2770 C2771 1.367 . S
C2771 C2770 1.367 . S
C2771 C2773 1.433 . S
C2772 C2768 1.350 . S
C2772 C2769 1.463 . S
C2772 N2776 1.427 . S
C2773 H2763 0.929 . S
C2773 C2771 1.433 . S
C2773 N2776 1.384 . S
C2774 H2765 0.929 . S
C2774 C2766 1.378 . S
C2774 C2769 1.350 . S
C2775 H2762 0.929 . S
C2775 C2767 1.433 . S
C2775 N2777 1.384 . S
N2776 C2772 1.427 . S
N2776 C2773 1.384 . S
N2777 C2769 1.427 . S
N2777 C2775 1.384 . S
H2778 C2784 0.930 . S
H2779 C2788 0.930 . S
H2780 C2793 0.929 . S
H2781 C2791 0.929 . S
H2782 C2786 0.929 . S
H2783 C2792 0.929 . S
C2784 H2778 0.930 . S
C2784 C2785 1.367 . S
C2784 C2792 1.378 . S
C2785 C2784 1.367 . S
C2785 C2793 1.433 . S
C2786 H2782 0.929 . S
C2786 C2788 1.378 . S
C2786 C2790 1.350 . S
C2787 C2790 1.463 . S
C2787 C2792 1.350 . S
C2787 N2795 1.427 . S
C2788 H2779 0.930 . S
C2788 C2786 1.378 . S
C2788 C2789 1.367 . S
C2789 C2788 1.367 . S
C2789 C2791 1.433 . S
C2790 C2786 1.350 . S
C2790 C2787 1.463 . S
C2790 N2794 1.427 . S
C2791 H2781 0.929 . S
C2791 C2789 1.433 . S
C2791 N2794 1.384 . S
C2792 H2783 0.929 . S
C2792 C2784 1.378 . S
C2792 C2787 1.350 . S
C2793 H2780 0.929 . S
C2793 C2785 1.433 . S
C2793 N2795 1.384 . S
N2794 C2790 1.427 . S
N2794 C2791 1.384 . S
N2795 C2787 1.427 . S
N2795 C2793 1.384 . S
H2796 C2802 0.930 . S
H2797 C2806 0.930 . S
H2798 C2811 0.929 . S
H2799 C2809 0.929 . S
H2800 C2804 0.929 . S
H2801 C2810 0.929 . S
C2802 H2796 0.930 . S
C2802 C2803 1.367 . S
C2802 C2810 1.378 . S
C2803 C2802 1.367 . S
C2803 C2811 1.433 . S
C2804 H2800 0.929 . S
C2804 C2806 1.378 . S
C2804 C2808 1.350 . S
C2805 C2808 1.463 . S
C2805 C2810 1.350 . S
C2805 N2813 1.427 . S
C2806 H2797 0.930 . S
C2806 C2804 1.378 . S
C2806 C2807 1.367 . S
C2807 C2806 1.367 . S
C2807 C2809 1.433 . S
C2808 C2804 1.350 . S
C2808 C2805 1.463 . S
C2808 N2812 1.427 . S
C2809 H2799 0.929 . S
C2809 C2807 1.433 . S
C2809 N2812 1.384 . S
C2810 H2801 0.929 . S
C2810 C2802 1.378 . S
C2810 C2805 1.350 . S
C2811 H2798 0.929 . S
C2811 C2803 1.433 . S
C2811 N2813 1.384 . S
N2812 C2808 1.427 . S
N2812 C2809 1.384 . S
N2813 C2805 1.427 . S
N2813 C2811 1.384 . S
H2814 C2820 0.930 . S
H2815 C2824 0.930 . S
H2816 C2829 0.929 . S
H2817 C2827 0.929 . S
H2818 C2822 0.929 . S
H2819 C2828 0.929 . S
C2820 H2814 0.930 . S
C2820 C2821 1.367 . S
C2820 C2828 1.378 . S
C2821 C2820 1.367 . S
C2821 C2829 1.433 . S
C2822 H2818 0.929 . S
C2822 C2824 1.378 . S
C2822 C2826 1.350 . S
C2823 C2826 1.463 . S
C2823 C2828 1.350 . S
C2823 N2831 1.427 . S
C2824 H2815 0.930 . S
C2824 C2822 1.378 . S
C2824 C2825 1.367 . S
C2825 C2824 1.367 . S
C2825 C2827 1.433 . S
C2826 C2822 1.350 . S
C2826 C2823 1.463 . S
C2826 N2830 1.427 . S
C2827 H2817 0.929 . S
C2827 C2825 1.433 . S
C2827 N2830 1.384 . S
C2828 H2819 0.929 . S
C2828 C2820 1.378 . S
C2828 C2823 1.350 . S
C2829 H2816 0.929 . S
C2829 C2821 1.433 . S
C2829 N2831 1.384 . S
N2830 C2826 1.427 . S
N2830 C2827 1.384 . S
N2831 C2823 1.427 . S
N2831 C2829 1.384 . S
H2832 C2838 0.930 . S
H2833 C2842 0.930 . S
H2834 C2847 0.929 . S
H2835 C2845 0.929 . S
H2836 C2840 0.929 . S
H2837 C2846 0.929 . S
C2838 H2832 0.930 . S
C2838 C2839 1.367 . S
C2838 C2846 1.378 . S
C2839 C2838 1.367 . S
C2839 C2847 1.433 . S
C2840 H2836 0.929 . S
C2840 C2842 1.378 . S
C2840 C2844 1.350 . S
C2841 C2844 1.463 . S
C2841 C2846 1.350 . S
C2841 N2849 1.427 . S
C2842 H2833 0.930 . S
C2842 C2840 1.378 . S
C2842 C2843 1.367 . S
C2843 C2842 1.367 . S
C2843 C2845 1.433 . S
C2844 C2840 1.350 . S
C2844 C2841 1.463 . S
C2844 N2848 1.427 . S
C2845 H2835 0.929 . S
C2845 C2843 1.433 . S
C2845 N2848 1.384 . S
C2846 H2837 0.929 . S
C2846 C2838 1.378 . S
C2846 C2841 1.350 . S
C2847 H2834 0.929 . S
C2847 C2839 1.433 . S
C2847 N2849 1.384 . S
N2848 C2844 1.427 . S
N2848 C2845 1.384 . S
N2849 C2841 1.427 . S
N2849 C2847 1.384 . S
H2850 C2856 0.930 . S
H2851 C2860 0.930 . S
H2852 C2865 0.929 . S
H2853 C2863 0.929 . S
H2854 C2858 0.929 . S
H2855 C2864 0.929 . S
C2856 H2850 0.930 . S
C2856 C2857 1.367 . S
C2856 C2864 1.378 . S
C2857 C2856 1.367 . S
C2857 C2865 1.433 . S
C2858 H2854 0.929 . S
C2858 C2860 1.378 . S
C2858 C2862 1.350 . S
C2859 C2862 1.463 . S
C2859 C2864 1.350 . S
C2859 N2867 1.427 . S
C2860 H2851 0.930 . S
C2860 C2858 1.378 . S
C2860 C2861 1.367 . S
C2861 C2860 1.367 . S
C2861 C2863 1.433 . S
C2862 C2858 1.350 . S
C2862 C2859 1.463 . S
C2862 N2866 1.427 . S
C2863 H2853 0.929 . S
C2863 C2861 1.433 . S
C2863 N2866 1.384 . S
C2864 H2855 0.929 . S
C2864 C2856 1.378 . S
C2864 C2859 1.350 . S
C2865 H2852 0.929 . S
C2865 C2857 1.433 . S
C2865 N2867 1.384 . S
N2866 C2862 1.427 . S
N2866 C2863 1.384 . S
N2867 C2859 1.427 . S
N2867 C2865 1.384 . S
H2868 C2874 0.930 . S
H2869 C2878 0.930 . S
H2870 C2883 0.929 . S
H2871 C2881 0.929 . S
H2872 C2876 0.929 . S
H2873 C2882 0.929 . S
C2874 H2868 0.930 . S
C2874 C2875 1.367 . S
C2874 C2882 1.378 . S
C2875 C2874 1.367 . S
C2875 C2883 1.433 . S
C2876 H2872 0.929 . S
C2876 C2878 1.378 1_554 S
C2876 C2880 1.350 . S
C2877 C2880 1.463 . S
C2877 C2882 1.350 . S
C2877 N2885 1.427 . S
C2878 H2869 0.930 . S
C2878 C2876 1.378 1_556 S
C2878 C2879 1.367 1_556 S
C2879 C2878 1.367 1_554 S
C2879 C2881 1.433 . S
C2880 C2876 1.350 . S
C2880 C2877 1.463 . S
C2880 N2884 1.427 . S
C2881 H2871 0.929 . S
C2881 C2879 1.433 . S
C2881 N2884 1.384 . S
C2882 H2873 0.929 . S
C2882 C2874 1.378 . S
C2882 C2877 1.350 . S
C2883 H2870 0.929 . S
C2883 C2875 1.433 . S
C2883 N2885 1.384 . S
N2884 C2880 1.427 . S
N2884 C2881 1.384 . S
N2885 C2877 1.427 . S
N2885 C2883 1.384 . S
H2886 C2892 0.930 . S
H2887 C2896 0.930 . S
H2888 C2901 0.929 . S
H2889 C2899 0.929 . S
H2890 C2894 0.929 . S
H2891 C2900 0.929 . S
C2892 H2886 0.930 . S
C2892 C2893 1.367 . S
C2892 C2900 1.378 . S
C2893 C2892 1.367 . S
C2893 C2901 1.433 . S
C2894 H2890 0.929 . S
C2894 C2896 1.378 . S
C2894 C2898 1.350 . S
C2895 C2898 1.463 . S
C2895 C2900 1.350 . S
C2895 N2903 1.427 . S
C2896 H2887 0.930 . S
C2896 C2894 1.378 . S
C2896 C2897 1.367 . S
C2897 C2896 1.367 . S
C2897 C2899 1.433 . S
C2898 C2894 1.350 . S
C2898 C2895 1.463 . S
C2898 N2902 1.427 . S
C2899 H2889 0.929 . S
C2899 C2897 1.433 . S
C2899 N2902 1.384 . S
C2900 H2891 0.929 . S
C2900 C2892 1.378 . S
C2900 C2895 1.350 . S
C2901 H2888 0.929 . S
C2901 C2893 1.433 . S
C2901 N2903 1.384 . S
N2902 C2898 1.427 . S
N2902 C2899 1.384 . S
N2903 C2895 1.427 . S
N2903 C2901 1.384 . S
H2904 C2910 0.930 . S
H2905 C2914 0.930 . S
H2906 C2919 0.929 . S
H2907 C2917 0.929 . S
H2908 C2912 0.929 . S
H2909 C2918 0.929 . S
C2910 H2904 0.930 . S
C2910 C2911 1.367 . S
C2910 C2918 1.378 . S
C2911 C2910 1.367 . S
C2911 C2919 1.433 . S
C2912 H2908 0.929 . S
C2912 C2914 1.378 . S
C2912 C2916 1.350 . S
C2913 C2916 1.463 . S
C2913 C2918 1.350 . S
C2913 N2921 1.427 . S
C2914 H2905 0.930 . S
C2914 C2912 1.378 . S
C2914 C2915 1.367 . S
C2915 C2914 1.367 . S
C2915 C2917 1.433 . S
C2916 C2912 1.350 . S
C2916 C2913 1.463 . S
C2916 N2920 1.427 . S
C2917 H2907 0.929 . S
C2917 C2915 1.433 . S
C2917 N2920 1.384 . S
C2918 H2909 0.929 . S
C2918 C2910 1.378 . S
C2918 C2913 1.350 . S
C2919 H2906 0.929 . S
C2919 C2911 1.433 . S
C2919 N2921 1.384 . S
N2920 C2916 1.427 . S
N2920 C2917 1.384 . S
N2921 C2913 1.427 . S
N2921 C2919 1.384 . S
H2922 C2928 0.930 . S
H2923 C2932 0.930 . S
H2924 C2937 0.929 . S
H2925 C2935 0.929 . S
H2926 C2930 0.929 . S
H2927 C2936 0.929 . S
C2928 H2922 0.930 . S
C2928 C2929 1.367 . S
C2928 C2936 1.378 . S
C2929 C2928 1.367 . S
C2929 C2937 1.433 . S
C2930 H2926 0.929 . S
C2930 C2932 1.378 . S
C2930 C2934 1.350 . S
C2931 C2934 1.463 . S
C2931 C2936 1.350 . S
C2931 N2939 1.427 . S
C2932 H2923 0.930 . S
C2932 C2930 1.378 . S
C2932 C2933 1.367 . S
C2933 C2932 1.367 . S
C2933 C2935 1.433 . S
C2934 C2930 1.350 . S
C2934 C2931 1.463 . S
C2934 N2938 1.427 . S
C2935 H2925 0.929 . S
C2935 C2933 1.433 . S
C2935 N2938 1.384 . S
C2936 H2927 0.929 . S
C2936 C2928 1.378 . S
C2936 C2931 1.350 . S
C2937 H2924 0.929 . S
C2937 C2929 1.433 . S
C2937 N2939 1.384 . S
N2938 C2934 1.427 . S
N2938 C2935 1.384 . S
N2939 C2931 1.427 . S
N2939 C2937 1.384 . S
H2940 C2946 0.930 . S
H2941 C2950 0.930 . S
H2942 C2955 0.929 . S
H2943 C2953 0.929 . S
H2944 C2948 0.929 . S
H2945 C2954 0.929 . S
C2946 H2940 0.930 . S
C2946 C2947 1.367 . S
C2946 C2954 1.378 . S
C2947 C2946 1.367 . S
C2947 C2955 1.433 . S
C2948 H2944 0.929 . S
C2948 C2950 1.378 . S
C2948 C2952 1.350 . S
C2949 C2952 1.463 . S
C2949 C2954 1.350 . S
C2949 N2957 1.427 . S
C2950 H2941 0.930 . S
C2950 C2948 1.378 . S
C2950 C2951 1.367 . S
C2951 C2950 1.367 . S
C2951 C2953 1.433 . S
C2952 C2948 1.350 . S
C2952 C2949 1.463 . S
C2952 N2956 1.427 . S
C2953 H2943 0.929 . S
C2953 C2951 1.433 . S
C2953 N2956 1.384 . S
C2954 H2945 0.929 . S
C2954 C2946 1.378 . S
C2954 C2949 1.350 . S
C2955 H2942 0.929 . S
C2955 C2947 1.433 . S
C2955 N2957 1.384 . S
N2956 C2952 1.427 . S
N2956 C2953 1.384 . S
N2957 C2949 1.427 . S
N2957 C2955 1.384 . S
H2958 C2964 0.930 . S
H2959 C2968 0.930 . S
H2960 C2973 0.929 . S
H2961 C2971 0.929 . S
H2962 C2966 0.929 . S
H2963 C2972 0.929 . S
C2964 H2958 0.930 . S
C2964 C2965 1.367 . S
C2964 C2972 1.378 . S
C2965 C2964 1.367 . S
C2965 C2973 1.433 . S
C2966 H2962 0.929 . S
C2966 C2968 1.378 . S
C2966 C2970 1.350 . S
C2967 C2970 1.463 . S
C2967 C2972 1.350 . S
C2967 N2975 1.427 . S
C2968 H2959 0.930 . S
C2968 C2966 1.378 . S
C2968 C2969 1.367 . S
C2969 C2968 1.367 . S
C2969 C2971 1.433 . S
C2970 C2966 1.350 . S
C2970 C2967 1.463 . S
C2970 N2974 1.427 . S
C2971 H2961 0.929 . S
C2971 C2969 1.433 . S
C2971 N2974 1.384 . S
C2972 H2963 0.929 . S
C2972 C2964 1.378 . S
C2972 C2967 1.350 . S
C2973 H2960 0.929 . S
C2973 C2965 1.433 . S
C2973 N2975 1.384 . S
N2974 C2970 1.427 . S
N2974 C2971 1.384 . S
N2975 C2967 1.427 . S
N2975 C2973 1.384 . S
H2976 C2982 0.930 . S
H2977 C2986 0.930 . S
H2978 C2991 0.929 . S
H2979 C2989 0.929 . S
H2980 C2984 0.929 . S
H2981 C2990 0.929 . S
C2982 H2976 0.930 . S
C2982 C2983 1.367 . S
C2982 C2990 1.378 . S
C2983 C2982 1.367 . S
C2983 C2991 1.433 . S
C2984 H2980 0.929 . S
C2984 C2986 1.378 . S
C2984 C2988 1.350 . S
C2985 C2988 1.463 . S
C2985 C2990 1.350 . S
C2985 N2993 1.427 . S
C2986 H2977 0.930 . S
C2986 C2984 1.378 . S
C2986 C2987 1.367 . S
C2987 C2986 1.367 . S
C2987 C2989 1.433 . S
C2988 C2984 1.350 . S
C2988 C2985 1.463 . S
C2988 N2992 1.427 . S
C2989 H2979 0.929 . S
C2989 C2987 1.433 . S
C2989 N2992 1.384 . S
C2990 H2981 0.929 . S
C2990 C2982 1.378 . S
C2990 C2985 1.350 . S
C2991 H2978 0.929 . S
C2991 C2983 1.433 . S
C2991 N2993 1.384 . S
N2992 C2988 1.427 . S
N2992 C2989 1.384 . S
N2993 C2985 1.427 . S
N2993 C2991 1.384 . S
H2994 C3000 0.930 . S
H2995 C3004 0.930 . S
H2996 C3009 0.929 . S
H2997 C3007 0.929 . S
H2998 C3002 0.929 . S
H2999 C3008 0.929 . S
C3000 H2994 0.930 . S
C3000 C3001 1.367 . S
C3000 C3008 1.378 . S
C3001 C3000 1.367 . S
C3001 C3009 1.433 . S
C3002 H2998 0.929 . S
C3002 C3004 1.378 . S
C3002 C3006 1.350 . S
C3003 C3006 1.463 . S
C3003 C3008 1.350 . S
C3003 N3011 1.427 . S
C3004 H2995 0.930 . S
C3004 C3002 1.378 . S
C3004 C3005 1.367 . S
C3005 C3004 1.367 . S
C3005 C3007 1.433 . S
C3006 C3002 1.350 . S
C3006 C3003 1.463 . S
C3006 N3010 1.427 . S
C3007 H2997 0.929 . S
C3007 C3005 1.433 . S
C3007 N3010 1.384 . S
C3008 H2999 0.929 . S
C3008 C3000 1.378 . S
C3008 C3003 1.350 . S
C3009 H2996 0.929 . S
C3009 C3001 1.433 . S
C3009 N3011 1.384 . S
N3010 C3006 1.427 . S
N3010 C3007 1.384 . S
N3011 C3003 1.427 . S
N3011 C3009 1.384 . S
H3012 C3018 0.930 . S
H3013 C3022 0.930 . S
H3014 C3027 0.929 . S
H3015 C3025 0.929 . S
H3016 C3020 0.929 . S
H3017 C3026 0.929 . S
C3018 H3012 0.930 . S
C3018 C3019 1.367 . S
C3018 C3026 1.378 . S
C3019 C3018 1.367 . S
C3019 C3027 1.433 . S
C3020 H3016 0.929 . S
C3020 C3022 1.378 . S
C3020 C3024 1.350 . S
C3021 C3024 1.463 . S
C3021 C3026 1.350 . S
C3021 N3029 1.427 . S
C3022 H3013 0.930 . S
C3022 C3020 1.378 . S
C3022 C3023 1.367 . S
C3023 C3022 1.367 . S
C3023 C3025 1.433 . S
C3024 C3020 1.350 . S
C3024 C3021 1.463 . S
C3024 N3028 1.427 . S
C3025 H3015 0.929 . S
C3025 C3023 1.433 . S
C3025 N3028 1.384 . S
C3026 H3017 0.929 . S
C3026 C3018 1.378 . S
C3026 C3021 1.350 . S
C3027 H3014 0.929 . S
C3027 C3019 1.433 . S
C3027 N3029 1.384 . S
N3028 C3024 1.427 . S
N3028 C3025 1.384 . S
N3029 C3021 1.427 . S
N3029 C3027 1.384 . S
H3030 C3036 0.930 . S
H3031 C3040 0.930 . S
H3032 C3045 0.929 . S
H3033 C3043 0.929 . S
H3034 C3038 0.929 . S
H3035 C3044 0.929 . S
C3036 H3030 0.930 . S
C3036 C3037 1.367 . S
C3036 C3044 1.378 . S
C3037 C3036 1.367 . S
C3037 C3045 1.433 . S
C3038 H3034 0.929 . S
C3038 C3040 1.378 . S
C3038 C3042 1.350 . S
C3039 C3042 1.463 . S
C3039 C3044 1.350 . S
C3039 N3047 1.427 . S
C3040 H3031 0.930 . S
C3040 C3038 1.378 . S
C3040 C3041 1.367 . S
C3041 C3040 1.367 . S
C3041 C3043 1.433 . S
C3042 C3038 1.350 . S
C3042 C3039 1.463 . S
C3042 N3046 1.427 . S
C3043 H3033 0.929 . S
C3043 C3041 1.433 . S
C3043 N3046 1.384 . S
C3044 H3035 0.929 . S
C3044 C3036 1.378 . S
C3044 C3039 1.350 . S
C3045 H3032 0.929 . S
C3045 C3037 1.433 . S
C3045 N3047 1.384 . S
N3046 C3042 1.427 . S
N3046 C3043 1.384 . S
N3047 C3039 1.427 . S
N3047 C3045 1.384 . S
H3048 C3054 0.930 . S
H3049 C3058 0.930 . S
H3050 C3063 0.929 . S
H3051 C3061 0.929 . S
H3052 C3056 0.929 . S
H3053 C3062 0.929 . S
C3054 H3048 0.930 . S
C3054 C3055 1.367 . S
C3054 C3062 1.378 . S
C3055 C3054 1.367 . S
C3055 C3063 1.433 . S
C3056 H3052 0.929 . S
C3056 C3058 1.378 . S
C3056 C3060 1.350 . S
C3057 C3060 1.463 . S
C3057 C3062 1.350 . S
C3057 N3065 1.427 . S
C3058 H3049 0.930 . S
C3058 C3056 1.378 . S
C3058 C3059 1.367 . S
C3059 C3058 1.367 . S
C3059 C3061 1.433 . S
C3060 C3056 1.350 . S
C3060 C3057 1.463 . S
C3060 N3064 1.427 . S
C3061 H3051 0.929 . S
C3061 C3059 1.433 . S
C3061 N3064 1.384 . S
C3062 H3053 0.929 . S
C3062 C3054 1.378 . S
C3062 C3057 1.350 . S
C3063 H3050 0.929 . S
C3063 C3055 1.433 . S
C3063 N3065 1.384 . S
N3064 C3060 1.427 . S
N3064 C3061 1.384 . S
N3065 C3057 1.427 . S
N3065 C3063 1.384 . S
H3066 C3072 0.930 . S
H3067 C3076 0.930 . S
H3068 C3081 0.929 . S
H3069 C3079 0.929 . S
H3070 C3074 0.929 . S
H3071 C3080 0.929 . S
C3072 H3066 0.930 . S
C3072 C3073 1.367 . S
C3072 C3080 1.378 . S
C3073 C3072 1.367 . S
C3073 C3081 1.433 . S
C3074 H3070 0.929 . S
C3074 C3076 1.378 . S
C3074 C3078 1.350 . S
C3075 C3078 1.463 . S
C3075 C3080 1.350 . S
C3075 N3083 1.427 . S
C3076 H3067 0.930 . S
C3076 C3074 1.378 . S
C3076 C3077 1.367 . S
C3077 C3076 1.367 . S
C3077 C3079 1.433 . S
C3078 C3074 1.350 . S
C3078 C3075 1.463 . S
C3078 N3082 1.427 . S
C3079 H3069 0.929 . S
C3079 C3077 1.433 . S
C3079 N3082 1.384 . S
C3080 H3071 0.929 . S
C3080 C3072 1.378 . S
C3080 C3075 1.350 . S
C3081 H3068 0.929 . S
C3081 C3073 1.433 . S
C3081 N3083 1.384 . S
N3082 C3078 1.427 . S
N3082 C3079 1.384 . S
N3083 C3075 1.427 . S
N3083 C3081 1.384 . S
H3084 C3090 0.930 . S
H3085 C3094 0.930 . S
H3086 C3099 0.929 . S
H3087 C3097 0.929 . S
H3088 C3092 0.929 . S
H3089 C3098 0.929 . S
C3090 H3084 0.930 . S
C3090 C3091 1.367 . S
C3090 C3098 1.378 . S
C3091 C3090 1.367 . S
C3091 C3099 1.433 . S
C3092 H3088 0.929 . S
C3092 C3094 1.378 . S
C3092 C3096 1.350 . S
C3093 C3096 1.463 . S
C3093 C3098 1.350 . S
C3093 N3101 1.427 . S
C3094 H3085 0.930 . S
C3094 C3092 1.378 . S
C3094 C3095 1.367 . S
C3095 C3094 1.367 . S
C3095 C3097 1.433 . S
C3096 C3092 1.350 . S
C3096 C3093 1.463 . S
C3096 N3100 1.427 . S
C3097 H3087 0.929 . S
C3097 C3095 1.433 . S
C3097 N3100 1.384 . S
C3098 H3089 0.929 . S
C3098 C3090 1.378 . S
C3098 C3093 1.350 . S
C3099 H3086 0.929 . S
C3099 C3091 1.433 . S
C3099 N3101 1.384 . S
N3100 C3096 1.427 . S
N3100 C3097 1.384 . S
N3101 C3093 1.427 . S
N3101 C3099 1.384 . S
H3102 C3108 0.930 . S
H3103 C3112 0.930 . S
H3104 C3117 0.929 . S
H3105 C3115 0.929 . S
H3106 C3110 0.929 . S
H3107 C3116 0.929 . S
C3108 H3102 0.930 . S
C3108 C3109 1.367 . S
C3108 C3116 1.378 . S
C3109 C3108 1.367 . S
C3109 C3117 1.433 . S
C3110 H3106 0.929 . S
C3110 C3112 1.378 . S
C3110 C3114 1.350 . S
C3111 C3114 1.463 . S
C3111 C3116 1.350 . S
C3111 N3119 1.427 . S
C3112 H3103 0.930 . S
C3112 C3110 1.378 . S
C3112 C3113 1.367 . S
C3113 C3112 1.367 . S
C3113 C3115 1.433 . S
C3114 C3110 1.350 . S
C3114 C3111 1.463 . S
C3114 N3118 1.427 . S
C3115 H3105 0.929 . S
C3115 C3113 1.433 . S
C3115 N3118 1.384 . S
C3116 H3107 0.929 . S
C3116 C3108 1.378 . S
C3116 C3111 1.350 . S
C3117 H3104 0.929 . S
C3117 C3109 1.433 . S
C3117 N3119 1.384 . S
N3118 C3114 1.427 . S
N3118 C3115 1.384 . S
N3119 C3111 1.427 . S
N3119 C3117 1.384 . S
H3120 C3126 0.930 . S
H3121 C3130 0.930 . S
H3122 C3135 0.929 . S
H3123 C3133 0.929 . S
H3124 C3128 0.929 . S
H3125 C3134 0.929 . S
C3126 H3120 0.930 . S
C3126 C3127 1.367 . S
C3126 C3134 1.378 . S
C3127 C3126 1.367 . S
C3127 C3135 1.433 . S
C3128 H3124 0.929 . S
C3128 C3130 1.378 . S
C3128 C3132 1.350 . S
C3129 C3132 1.463 . S
C3129 C3134 1.350 . S
C3129 N3137 1.427 . S
C3130 H3121 0.930 . S
C3130 C3128 1.378 . S
C3130 C3131 1.367 . S
C3131 C3130 1.367 . S
C3131 C3133 1.433 . S
C3132 C3128 1.350 . S
C3132 C3129 1.463 . S
C3132 N3136 1.427 . S
C3133 H3123 0.929 . S
C3133 C3131 1.433 . S
C3133 N3136 1.384 . S
C3134 H3125 0.929 . S
C3134 C3126 1.378 . S
C3134 C3129 1.350 . S
C3135 H3122 0.929 . S
C3135 C3127 1.433 . S
C3135 N3137 1.384 . S
N3136 C3132 1.427 . S
N3136 C3133 1.384 . S
N3137 C3129 1.427 . S
N3137 C3135 1.384 . S
H3138 C3144 0.930 . S
H3139 C3148 0.930 . S
H3140 C3153 0.929 . S
H3141 C3151 0.929 . S
H3142 C3146 0.929 . S
H3143 C3152 0.929 . S
C3144 H3138 0.930 . S
C3144 C3145 1.367 . S
C3144 C3152 1.378 . S
C3145 C3144 1.367 . S
C3145 C3153 1.433 . S
C3146 H3142 0.929 . S
C3146 C3148 1.378 . S
C3146 C3150 1.350 . S
C3147 C3150 1.463 . S
C3147 C3152 1.350 . S
C3147 N3155 1.427 . S
C3148 H3139 0.930 . S
C3148 C3146 1.378 . S
C3148 C3149 1.367 . S
C3149 C3148 1.367 . S
C3149 C3151 1.433 . S
C3150 C3146 1.350 . S
C3150 C3147 1.463 . S
C3150 N3154 1.427 . S
C3151 H3141 0.929 . S
C3151 C3149 1.433 . S
C3151 N3154 1.384 . S
C3152 H3143 0.929 . S
C3152 C3144 1.378 . S
C3152 C3147 1.350 . S
C3153 H3140 0.929 . S
C3153 C3145 1.433 . S
C3153 N3155 1.384 . S
N3154 C3150 1.427 . S
N3154 C3151 1.384 . S
N3155 C3147 1.427 . S
N3155 C3153 1.384 . S
H3156 C3162 0.930 . S
H3157 C3166 0.930 . S
H3158 C3171 0.929 . S
H3159 C3169 0.929 . S
H3160 C3164 0.929 . S
H3161 C3170 0.929 . S
C3162 H3156 0.930 . S
C3162 C3163 1.367 . S
C3162 C3170 1.378 . S
C3163 C3162 1.367 . S
C3163 C3171 1.433 . S
C3164 H3160 0.929 . S
C3164 C3166 1.378 . S
C3164 C3168 1.350 . S
C3165 C3168 1.463 . S
C3165 C3170 1.350 . S
C3165 N3173 1.427 . S
C3166 H3157 0.930 . S
C3166 C3164 1.378 . S
C3166 C3167 1.367 . S
C3167 C3166 1.367 . S
C3167 C3169 1.433 . S
C3168 C3164 1.350 . S
C3168 C3165 1.463 . S
C3168 N3172 1.427 . S
C3169 H3159 0.929 . S
C3169 C3167 1.433 . S
C3169 N3172 1.384 . S
C3170 H3161 0.929 . S
C3170 C3162 1.378 . S
C3170 C3165 1.350 . S
C3171 H3158 0.929 . S
C3171 C3163 1.433 . S
C3171 N3173 1.384 . S
N3172 C3168 1.427 . S
N3172 C3169 1.384 . S
N3173 C3165 1.427 . S
N3173 C3171 1.384 . S
H3174 C3180 0.930 . S
H3175 C3184 0.930 . S
H3176 C3189 0.929 . S
H3177 C3187 0.929 . S
H3178 C3182 0.929 . S
H3179 C3188 0.929 . S
C3180 H3174 0.930 . S
C3180 C3181 1.367 . S
C3180 C3188 1.378 . S
C3181 C3180 1.367 . S
C3181 C3189 1.433 . S
C3182 H3178 0.929 . S
C3182 C3184 1.378 . S
C3182 C3186 1.350 . S
C3183 C3186 1.463 . S
C3183 C3188 1.350 . S
C3183 N3191 1.427 . S
C3184 H3175 0.930 . S
C3184 C3182 1.378 . S
C3184 C3185 1.367 . S
C3185 C3184 1.367 . S
C3185 C3187 1.433 . S
C3186 C3182 1.350 . S
C3186 C3183 1.463 . S
C3186 N3190 1.427 . S
C3187 H3177 0.929 . S
C3187 C3185 1.433 . S
C3187 N3190 1.384 . S
C3188 H3179 0.929 . S
C3188 C3180 1.378 . S
C3188 C3183 1.350 . S
C3189 H3176 0.929 . S
C3189 C3181 1.433 . S
C3189 N3191 1.384 . S
N3190 C3186 1.427 . S
N3190 C3187 1.384 . S
N3191 C3183 1.427 . S
N3191 C3189 1.384 . S
H3192 C3198 0.930 . S
H3193 C3202 0.930 . S
H3194 C3207 0.929 . S
H3195 C3205 0.929 . S
H3196 C3200 0.929 . S
H3197 C3206 0.929 . S
C3198 H3192 0.930 . S
C3198 C3199 1.367 . S
C3198 C3206 1.378 . S
C3199 C3198 1.367 . S
C3199 C3207 1.433 . S
C3200 H3196 0.929 . S
C3200 C3202 1.378 . S
C3200 C3204 1.350 . S
C3201 C3204 1.463 . S
C3201 C3206 1.350 . S
C3201 N3209 1.427 . S
C3202 H3193 0.930 . S
C3202 C3200 1.378 . S
C3202 C3203 1.367 . S
C3203 C3202 1.367 . S
C3203 C3205 1.433 . S
C3204 C3200 1.350 . S
C3204 C3201 1.463 . S
C3204 N3208 1.427 . S
C3205 H3195 0.929 . S
C3205 C3203 1.433 . S
C3205 N3208 1.384 . S
C3206 H3197 0.929 . S
C3206 C3198 1.378 . S
C3206 C3201 1.350 . S
C3207 H3194 0.929 . S
C3207 C3199 1.433 . S
C3207 N3209 1.384 . S
N3208 C3204 1.427 . S
N3208 C3205 1.384 . S
N3209 C3201 1.427 . S
N3209 C3207 1.384 . S
H3210 C3216 0.930 . S
H3211 C3220 0.930 . S
H3212 C3225 0.929 . S
H3213 C3223 0.929 . S
H3214 C3218 0.929 . S
H3215 C3224 0.929 . S
C3216 H3210 0.930 . S
C3216 C3217 1.367 . S
C3216 C3224 1.378 . S
C3217 C3216 1.367 . S
C3217 C3225 1.433 . S
C3218 H3214 0.929 . S
C3218 C3220 1.378 . S
C3218 C3222 1.350 . S
C3219 C3222 1.463 . S
C3219 C3224 1.350 . S
C3219 N3227 1.427 . S
C3220 H3211 0.930 . S
C3220 C3218 1.378 . S
C3220 C3221 1.367 . S
C3221 C3220 1.367 . S
C3221 C3223 1.433 . S
C3222 C3218 1.350 . S
C3222 C3219 1.463 . S
C3222 N3226 1.427 . S
C3223 H3213 0.929 . S
C3223 C3221 1.433 . S
C3223 N3226 1.384 . S
C3224 H3215 0.929 . S
C3224 C3216 1.378 . S
C3224 C3219 1.350 . S
C3225 H3212 0.929 . S
C3225 C3217 1.433 . S
C3225 N3227 1.384 . S
N3226 C3222 1.427 . S
N3226 C3223 1.384 . S
N3227 C3219 1.427 . S
N3227 C3225 1.384 . S
H3228 C3234 0.930 . S
H3229 C3238 0.930 . S
H3230 C3243 0.929 . S
H3231 C3241 0.929 . S
H3232 C3236 0.929 . S
H3233 C3242 0.929 . S
C3234 H3228 0.930 . S
C3234 C3235 1.367 . S
C3234 C3242 1.378 . S
C3235 C3234 1.367 . S
C3235 C3243 1.433 . S
C3236 H3232 0.929 . S
C3236 C3238 1.378 . S
C3236 C3240 1.350 . S
C3237 C3240 1.463 . S
C3237 C3242 1.350 . S
C3237 N3245 1.427 . S
C3238 H3229 0.930 . S
C3238 C3236 1.378 . S
C3238 C3239 1.367 . S
C3239 C3238 1.367 . S
C3239 C3241 1.433 . S
C3240 C3236 1.350 . S
C3240 C3237 1.463 . S
C3240 N3244 1.427 . S
C3241 H3231 0.929 . S
C3241 C3239 1.433 . S
C3241 N3244 1.384 . S
C3242 H3233 0.929 . S
C3242 C3234 1.378 . S
C3242 C3237 1.350 . S
C3243 H3230 0.929 . S
C3243 C3235 1.433 . S
C3243 N3245 1.384 . S
N3244 C3240 1.427 . S
N3244 C3241 1.384 . S
N3245 C3237 1.427 . S
N3245 C3243 1.384 . S
H3246 C3252 0.930 . S
H3247 C3256 0.930 . S
H3248 C3261 0.929 . S
H3249 C3259 0.929 . S
H3250 C3254 0.929 . S
H3251 C3260 0.929 . S
C3252 H3246 0.930 . S
C3252 C3253 1.367 . S
C3252 C3260 1.378 . S
C3253 C3252 1.367 . S
C3253 C3261 1.433 . S
C3254 H3250 0.929 . S
C3254 C3256 1.378 . S
C3254 C3258 1.350 . S
C3255 C3258 1.463 . S
C3255 C3260 1.350 . S
C3255 N3263 1.427 . S
C3256 H3247 0.930 . S
C3256 C3254 1.378 . S
C3256 C3257 1.367 . S
C3257 C3256 1.367 . S
C3257 C3259 1.433 . S
C3258 C3254 1.350 . S
C3258 C3255 1.463 . S
C3258 N3262 1.427 . S
C3259 H3249 0.929 . S
C3259 C3257 1.433 . S
C3259 N3262 1.384 . S
C3260 H3251 0.929 . S
C3260 C3252 1.378 . S
C3260 C3255 1.350 . S
C3261 H3248 0.929 . S
C3261 C3253 1.433 . S
C3261 N3263 1.384 . S
N3262 C3258 1.427 . S
N3262 C3259 1.384 . S
N3263 C3255 1.427 . S
N3263 C3261 1.384 . S
H3264 C3270 0.930 . S
H3265 C3274 0.930 . S
H3266 C3279 0.929 . S
H3267 C3277 0.929 . S
H3268 C3272 0.929 . S
H3269 C3278 0.929 . S
C3270 H3264 0.930 . S
C3270 C3271 1.367 . S
C3270 C3278 1.378 . S
C3271 C3270 1.367 . S
C3271 C3279 1.433 . S
C3272 H3268 0.929 . S
C3272 C3274 1.378 . S
C3272 C3276 1.350 . S
C3273 C3276 1.463 . S
C3273 C3278 1.350 . S
C3273 N3281 1.427 . S
C3274 H3265 0.930 . S
C3274 C3272 1.378 . S
C3274 C3275 1.367 . S
C3275 C3274 1.367 . S
C3275 C3277 1.433 . S
C3276 C3272 1.350 . S
C3276 C3273 1.463 . S
C3276 N3280 1.427 . S
C3277 H3267 0.929 . S
C3277 C3275 1.433 . S
C3277 N3280 1.384 . S
C3278 H3269 0.929 . S
C3278 C3270 1.378 . S
C3278 C3273 1.350 . S
C3279 H3266 0.929 . S
C3279 C3271 1.433 . S
C3279 N3281 1.384 . S
N3280 C3276 1.427 . S
N3280 C3277 1.384 . S
N3281 C3273 1.427 . S
N3281 C3279 1.384 . S
H3282 C3288 0.930 . S
H3283 C3292 0.930 . S
H3284 C3297 0.929 . S
H3285 C3295 0.929 . S
H3286 C3290 0.929 . S
H3287 C3296 0.929 . S
C3288 H3282 0.930 . S
C3288 C3289 1.367 . S
C3288 C3296 1.378 . S
C3289 C3288 1.367 . S
C3289 C3297 1.433 . S
C3290 H3286 0.929 . S
C3290 C3292 1.378 . S
C3290 C3294 1.350 . S
C3291 C3294 1.463 . S
C3291 C3296 1.350 . S
C3291 N3299 1.427 . S
C3292 H3283 0.930 . S
C3292 C3290 1.378 . S
C3292 C3293 1.367 . S
C3293 C3292 1.367 . S
C3293 C3295 1.433 . S
C3294 C3290 1.350 . S
C3294 C3291 1.463 . S
C3294 N3298 1.427 . S
C3295 H3285 0.929 . S
C3295 C3293 1.433 . S
C3295 N3298 1.384 . S
C3296 H3287 0.929 . S
C3296 C3288 1.378 . S
C3296 C3291 1.350 . S
C3297 H3284 0.929 . S
C3297 C3289 1.433 . S
C3297 N3299 1.384 . S
N3298 C3294 1.427 . S
N3298 C3295 1.384 . S
N3299 C3291 1.427 . S
N3299 C3297 1.384 . S
H3300 C3306 0.930 . S
H3301 C3310 0.930 . S
H3302 C3315 0.929 . S
H3303 C3313 0.929 . S
H3304 C3308 0.929 . S
H3305 C3314 0.929 . S
C3306 H3300 0.930 . S
C3306 C3307 1.367 . S
C3306 C3314 1.378 . S
C3307 C3306 1.367 . S
C3307 C3315 1.433 . S
C3308 H3304 0.929 . S
C3308 C3310 1.378 . S
C3308 C3312 1.350 . S
C3309 C3312 1.463 . S
C3309 C3314 1.350 . S
C3309 N3317 1.427 . S
C3310 H3301 0.930 . S
C3310 C3308 1.378 . S
C3310 C3311 1.367 . S
C3311 C3310 1.367 . S
C3311 C3313 1.433 . S
C3312 C3308 1.350 . S
C3312 C3309 1.463 . S
C3312 N3316 1.427 . S
C3313 H3303 0.929 . S
C3313 C3311 1.433 . S
C3313 N3316 1.384 . S
C3314 H3305 0.929 . S
C3314 C3306 1.378 . S
C3314 C3309 1.350 . S
C3315 H3302 0.929 . S
C3315 C3307 1.433 . S
C3315 N3317 1.384 . S
N3316 C3312 1.427 . S
N3316 C3313 1.384 . S
N3317 C3309 1.427 . S
N3317 C3315 1.384 . S
H3318 C3324 0.930 . S
H3319 C3328 0.930 . S
H3320 C3333 0.929 . S
H3321 C3331 0.929 . S
H3322 C3326 0.929 . S
H3323 C3332 0.929 . S
C3324 H3318 0.930 . S
C3324 C3325 1.367 . S
C3324 C3332 1.378 . S
C3325 C3324 1.367 . S
C3325 C3333 1.433 . S
C3326 H3322 0.929 . S
C3326 C3328 1.378 . S
C3326 C3330 1.350 . S
C3327 C3330 1.463 . S
C3327 C3332 1.350 . S
C3327 N3335 1.427 . S
C3328 H3319 0.930 . S
C3328 C3326 1.378 . S
C3328 C3329 1.367 . S
C3329 C3328 1.367 . S
C3329 C3331 1.433 . S
C3330 C3326 1.350 . S
C3330 C3327 1.463 . S
C3330 N3334 1.427 . S
C3331 H3321 0.929 . S
C3331 C3329 1.433 . S
C3331 N3334 1.384 . S
C3332 H3323 0.929 . S
C3332 C3324 1.378 . S
C3332 C3327 1.350 . S
C3333 H3320 0.929 . S
C3333 C3325 1.433 . S
C3333 N3335 1.384 . S
N3334 C3330 1.427 . S
N3334 C3331 1.384 . S
N3335 C3327 1.427 . S
N3335 C3333 1.384 . S
H3336 C3342 0.930 . S
H3337 C3346 0.930 . S
H3338 C3351 0.929 . S
H3339 C3349 0.929 . S
H3340 C3344 0.929 . S
H3341 C3350 0.929 . S
C3342 H3336 0.930 . S
C3342 C3343 1.367 . S
C3342 C3350 1.378 . S
C3343 C3342 1.367 . S
C3343 C3351 1.433 . S
C3344 H3340 0.929 . S
C3344 C3346 1.378 . S
C3344 C3348 1.350 . S
C3345 C3348 1.463 . S
C3345 C3350 1.350 . S
C3345 N3353 1.427 . S
C3346 H3337 0.930 . S
C3346 C3344 1.378 . S
C3346 C3347 1.367 . S
C3347 C3346 1.367 . S
C3347 C3349 1.433 . S
C3348 C3344 1.350 . S
C3348 C3345 1.463 . S
C3348 N3352 1.427 . S
C3349 H3339 0.929 . S
C3349 C3347 1.433 . S
C3349 N3352 1.384 . S
C3350 H3341 0.929 . S
C3350 C3342 1.378 . S
C3350 C3345 1.350 . S
C3351 H3338 0.929 . S
C3351 C3343 1.433 . S
C3351 N3353 1.384 . S
N3352 C3348 1.427 . S
N3352 C3349 1.384 . S
N3353 C3345 1.427 . S
N3353 C3351 1.384 . S
H3354 C3360 0.930 . S
H3355 C3364 0.930 . S
H3356 C3369 0.929 . S
H3357 C3367 0.929 . S
H3358 C3362 0.929 . S
H3359 C3368 0.929 . S
C3360 H3354 0.930 . S
C3360 C3361 1.367 . S
C3360 C3368 1.378 . S
C3361 C3360 1.367 . S
C3361 C3369 1.433 . S
C3362 H3358 0.929 . S
C3362 C3364 1.378 . S
C3362 C3366 1.350 . S
C3363 C3366 1.463 . S
C3363 C3368 1.350 . S
C3363 N3371 1.427 . S
C3364 H3355 0.930 . S
C3364 C3362 1.378 . S
C3364 C3365 1.367 . S
C3365 C3364 1.367 . S
C3365 C3367 1.433 . S
C3366 C3362 1.350 . S
C3366 C3363 1.463 . S
C3366 N3370 1.427 . S
C3367 H3357 0.929 . S
C3367 C3365 1.433 . S
C3367 N3370 1.384 . S
C3368 H3359 0.929 . S
C3368 C3360 1.378 . S
C3368 C3363 1.350 . S
C3369 H3356 0.929 . S
C3369 C3361 1.433 . S
C3369 N3371 1.384 . S
N3370 C3366 1.427 . S
N3370 C3367 1.384 . S
N3371 C3363 1.427 . S
N3371 C3369 1.384 . S
H3372 C3378 0.930 . S
H3373 C3382 0.930 . S
H3374 C3387 0.929 . S
H3375 C3385 0.929 . S
H3376 C3380 0.929 . S
H3377 C3386 0.929 . S
C3378 H3372 0.930 . S
C3378 C3379 1.367 . S
C3378 C3386 1.378 . S
C3379 C3378 1.367 . S
C3379 C3387 1.433 . S
C3380 H3376 0.929 . S
C3380 C3382 1.378 . S
C3380 C3384 1.350 . S
C3381 C3384 1.463 . S
C3381 C3386 1.350 . S
C3381 N3389 1.427 . S
C3382 H3373 0.930 . S
C3382 C3380 1.378 . S
C3382 C3383 1.367 . S
C3383 C3382 1.367 . S
C3383 C3385 1.433 . S
C3384 C3380 1.350 . S
C3384 C3381 1.463 . S
C3384 N3388 1.427 . S
C3385 H3375 0.929 . S
C3385 C3383 1.433 . S
C3385 N3388 1.384 . S
C3386 H3377 0.929 . S
C3386 C3378 1.378 . S
C3386 C3381 1.350 . S
C3387 H3374 0.929 . S
C3387 C3379 1.433 . S
C3387 N3389 1.384 . S
N3388 C3384 1.427 . S
N3388 C3385 1.384 . S
N3389 C3381 1.427 . S
N3389 C3387 1.384 . S
H3390 C3396 0.930 . S
H3391 C3400 0.930 . S
H3392 C3405 0.929 . S
H3393 C3403 0.929 . S
H3394 C3398 0.929 . S
H3395 C3404 0.929 . S
C3396 H3390 0.930 . S
C3396 C3397 1.367 . S
C3396 C3404 1.378 . S
C3397 C3396 1.367 . S
C3397 C3405 1.433 . S
C3398 H3394 0.929 . S
C3398 C3400 1.378 . S
C3398 C3402 1.350 . S
C3399 C3402 1.463 . S
C3399 C3404 1.350 . S
C3399 N3407 1.427 . S
C3400 H3391 0.930 . S
C3400 C3398 1.378 . S
C3400 C3401 1.367 . S
C3401 C3400 1.367 . S
C3401 C3403 1.433 . S
C3402 C3398 1.350 . S
C3402 C3399 1.463 . S
C3402 N3406 1.427 . S
C3403 H3393 0.929 . S
C3403 C3401 1.433 . S
C3403 N3406 1.384 . S
C3404 H3395 0.929 . S
C3404 C3396 1.378 . S
C3404 C3399 1.350 . S
C3405 H3392 0.929 . S
C3405 C3397 1.433 . S
C3405 N3407 1.384 . S
N3406 C3402 1.427 . S
N3406 C3403 1.384 . S
N3407 C3399 1.427 . S
N3407 C3405 1.384 . S
H3408 C3414 0.930 . S
H3409 C3418 0.930 . S
H3410 C3423 0.929 . S
H3411 C3421 0.929 . S
H3412 C3416 0.929 . S
H3413 C3422 0.929 . S
C3414 H3408 0.930 . S
C3414 C3415 1.367 . S
C3414 C3422 1.378 . S
C3415 C3414 1.367 . S
C3415 C3423 1.433 . S
C3416 H3412 0.929 . S
C3416 C3418 1.378 . S
C3416 C3420 1.350 . S
C3417 C3420 1.463 . S
C3417 C3422 1.350 . S
C3417 N3425 1.427 . S
C3418 H3409 0.930 . S
C3418 C3416 1.378 . S
C3418 C3419 1.367 . S
C3419 C3418 1.367 . S
C3419 C3421 1.433 . S
C3420 C3416 1.350 . S
C3420 C3417 1.463 . S
C3420 N3424 1.427 . S
C3421 H3411 0.929 . S
C3421 C3419 1.433 . S
C3421 N3424 1.384 . S
C3422 H3413 0.929 . S
C3422 C3414 1.378 . S
C3422 C3417 1.350 . S
C3423 H3410 0.929 . S
C3423 C3415 1.433 . S
C3423 N3425 1.384 . S
N3424 C3420 1.427 . S
N3424 C3421 1.384 . S
N3425 C3417 1.427 . S
N3425 C3423 1.384 . S
H3426 C3432 0.930 . S
H3427 C3436 0.930 . S
H3428 C3441 0.929 . S
H3429 C3439 0.929 . S
H3430 C3434 0.929 . S
H3431 C3440 0.929 . S
C3432 H3426 0.930 . S
C3432 C3433 1.367 . S
C3432 C3440 1.378 . S
C3433 C3432 1.367 . S
C3433 C3441 1.433 . S
C3434 H3430 0.929 . S
C3434 C3436 1.378 . S
C3434 C3438 1.350 . S
C3435 C3438 1.463 . S
C3435 C3440 1.350 . S
C3435 N3443 1.427 . S
C3436 H3427 0.930 . S
C3436 C3434 1.378 . S
C3436 C3437 1.367 . S
C3437 C3436 1.367 . S
C3437 C3439 1.433 . S
C3438 C3434 1.350 . S
C3438 C3435 1.463 . S
C3438 N3442 1.427 . S
C3439 H3429 0.929 . S
C3439 C3437 1.433 . S
C3439 N3442 1.384 . S
C3440 H3431 0.929 . S
C3440 C3432 1.378 . S
C3440 C3435 1.350 . S
C3441 H3428 0.929 . S
C3441 C3433 1.433 . S
C3441 N3443 1.384 . S
N3442 C3438 1.427 . S
N3442 C3439 1.384 . S
N3443 C3435 1.427 . S
N3443 C3441 1.384 . S
H3444 C3450 0.930 . S
H3445 C3454 0.930 . S
H3446 C3459 0.929 . S
H3447 C3457 0.929 . S
H3448 C3452 0.929 . S
H3449 C3458 0.929 . S
C3450 H3444 0.930 . S
C3450 C3451 1.367 . S
C3450 C3458 1.378 . S
C3451 C3450 1.367 . S
C3451 C3459 1.433 . S
C3452 H3448 0.929 . S
C3452 C3454 1.378 . S
C3452 C3456 1.350 . S
C3453 C3456 1.463 . S
C3453 C3458 1.350 . S
C3453 N3461 1.427 . S
C3454 H3445 0.930 . S
C3454 C3452 1.378 . S
C3454 C3455 1.367 . S
C3455 C3454 1.367 . S
C3455 C3457 1.433 . S
C3456 C3452 1.350 . S
C3456 C3453 1.463 . S
C3456 N3460 1.427 . S
C3457 H3447 0.929 . S
C3457 C3455 1.433 . S
C3457 N3460 1.384 . S
C3458 H3449 0.929 . S
C3458 C3450 1.378 . S
C3458 C3453 1.350 . S
C3459 H3446 0.929 . S
C3459 C3451 1.433 . S
C3459 N3461 1.384 . S
N3460 C3456 1.427 . S
N3460 C3457 1.384 . S
N3461 C3453 1.427 . S
N3461 C3459 1.384 . S
H3462 C3468 0.930 . S
H3463 C3472 0.930 . S
H3464 C3477 0.929 . S
H3465 C3475 0.929 . S
H3466 C3470 0.929 . S
H3467 C3476 0.929 . S
C3468 H3462 0.930 . S
C3468 C3469 1.367 . S
C3468 C3476 1.378 . S
C3469 C3468 1.367 . S
C3469 C3477 1.433 . S
C3470 H3466 0.929 . S
C3470 C3472 1.378 . S
C3470 C3474 1.350 . S
C3471 C3474 1.463 . S
C3471 C3476 1.350 . S
C3471 N3479 1.427 . S
C3472 H3463 0.930 . S
C3472 C3470 1.378 . S
C3472 C3473 1.367 . S
C3473 C3472 1.367 . S
C3473 C3475 1.433 . S
C3474 C3470 1.350 . S
C3474 C3471 1.463 . S
C3474 N3478 1.427 . S
C3475 H3465 0.929 . S
C3475 C3473 1.433 . S
C3475 N3478 1.384 . S
C3476 H3467 0.929 . S
C3476 C3468 1.378 . S
C3476 C3471 1.350 . S
C3477 H3464 0.929 . S
C3477 C3469 1.433 . S
C3477 N3479 1.384 . S
N3478 C3474 1.427 . S
N3478 C3475 1.384 . S
N3479 C3471 1.427 . S
N3479 C3477 1.384 . S
H3480 C3486 0.930 . S
H3481 C3490 0.930 . S
H3482 C3495 0.929 . S
H3483 C3493 0.929 . S
H3484 C3488 0.929 . S
H3485 C3494 0.929 . S
C3486 H3480 0.930 . S
C3486 C3487 1.367 . S
C3486 C3494 1.378 . S
C3487 C3486 1.367 . S
C3487 C3495 1.433 . S
C3488 H3484 0.929 . S
C3488 C3490 1.378 . S
C3488 C3492 1.350 . S
C3489 C3492 1.463 . S
C3489 C3494 1.350 . S
C3489 N3497 1.427 . S
C3490 H3481 0.930 . S
C3490 C3488 1.378 . S
C3490 C3491 1.367 . S
C3491 C3490 1.367 . S
C3491 C3493 1.433 . S
C3492 C3488 1.350 . S
C3492 C3489 1.463 . S
C3492 N3496 1.427 . S
C3493 H3483 0.929 . S
C3493 C3491 1.433 . S
C3493 N3496 1.384 . S
C3494 H3485 0.929 . S
C3494 C3486 1.378 . S
C3494 C3489 1.350 . S
C3495 H3482 0.929 . S
C3495 C3487 1.433 . S
C3495 N3497 1.384 . S
N3496 C3492 1.427 . S
N3496 C3493 1.384 . S
N3497 C3489 1.427 . S
N3497 C3495 1.384 . S
H3498 C3504 0.930 . S
H3499 C3508 0.930 . S
H3500 C3513 0.929 . S
H3501 C3511 0.929 . S
H3502 C3506 0.929 . S
H3503 C3512 0.929 . S
C3504 H3498 0.930 . S
C3504 C3505 1.367 . S
C3504 C3512 1.378 . S
C3505 C3504 1.367 . S
C3505 C3513 1.433 . S
C3506 H3502 0.929 . S
C3506 C3508 1.378 . S
C3506 C3510 1.350 . S
C3507 C3510 1.463 . S
C3507 C3512 1.350 . S
C3507 N3515 1.427 . S
C3508 H3499 0.930 . S
C3508 C3506 1.378 . S
C3508 C3509 1.367 . S
C3509 C3508 1.367 . S
C3509 C3511 1.433 . S
C3510 C3506 1.350 . S
C3510 C3507 1.463 . S
C3510 N3514 1.427 . S
C3511 H3501 0.929 . S
C3511 C3509 1.433 . S
C3511 N3514 1.384 . S
C3512 H3503 0.929 . S
C3512 C3504 1.378 . S
C3512 C3507 1.350 . S
C3513 H3500 0.929 . S
C3513 C3505 1.433 . S
C3513 N3515 1.384 . S
N3514 C3510 1.427 . S
N3514 C3511 1.384 . S
N3515 C3507 1.427 . S
N3515 C3513 1.384 . S
H3516 C3522 0.930 . S
H3517 C3526 0.930 . S
H3518 C3531 0.929 . S
H3519 C3529 0.929 . S
H3520 C3524 0.929 . S
H3521 C3530 0.929 . S
C3522 H3516 0.930 . S
C3522 C3523 1.367 . S
C3522 C3530 1.378 . S
C3523 C3522 1.367 . S
C3523 C3531 1.433 . S
C3524 H3520 0.929 . S
C3524 C3526 1.378 . S
C3524 C3528 1.350 . S
C3525 C3528 1.463 . S
C3525 C3530 1.350 . S
C3525 N3533 1.427 . S
C3526 H3517 0.930 . S
C3526 C3524 1.378 . S
C3526 C3527 1.367 . S
C3527 C3526 1.367 . S
C3527 C3529 1.433 . S
C3528 C3524 1.350 . S
C3528 C3525 1.463 . S
C3528 N3532 1.427 . S
C3529 H3519 0.929 . S
C3529 C3527 1.433 . S
C3529 N3532 1.384 . S
C3530 H3521 0.929 . S
C3530 C3522 1.378 . S
C3530 C3525 1.350 . S
C3531 H3518 0.929 . S
C3531 C3523 1.433 . S
C3531 N3533 1.384 . S
N3532 C3528 1.427 . S
N3532 C3529 1.384 . S
N3533 C3525 1.427 . S
N3533 C3531 1.384 . S
H3534 C3540 0.930 . S
H3535 C3544 0.930 . S
H3536 C3549 0.929 . S
H3537 C3547 0.929 . S
H3538 C3542 0.929 . S
H3539 C3548 0.929 . S
C3540 H3534 0.930 . S
C3540 C3541 1.367 . S
C3540 C3548 1.378 . S
C3541 C3540 1.367 . S
C3541 C3549 1.433 . S
C3542 H3538 0.929 . S
C3542 C3544 1.378 . S
C3542 C3546 1.350 . S
C3543 C3546 1.463 . S
C3543 C3548 1.350 . S
C3543 N3551 1.427 . S
C3544 H3535 0.930 . S
C3544 C3542 1.378 . S
C3544 C3545 1.367 . S
C3545 C3544 1.367 . S
C3545 C3547 1.433 . S
C3546 C3542 1.350 . S
C3546 C3543 1.463 . S
C3546 N3550 1.427 . S
C3547 H3537 0.929 . S
C3547 C3545 1.433 . S
C3547 N3550 1.384 . S
C3548 H3539 0.929 . S
C3548 C3540 1.378 . S
C3548 C3543 1.350 . S
C3549 H3536 0.929 . S
C3549 C3541 1.433 . S
C3549 N3551 1.384 . S
N3550 C3546 1.427 . S
N3550 C3547 1.384 . S
N3551 C3543 1.427 . S
N3551 C3549 1.384 . S
H3552 C3558 0.930 . S
H3553 C3562 0.930 . S
H3554 C3567 0.929 . S
H3555 C3565 0.929 . S
H3556 C3560 0.929 . S
H3557 C3566 0.929 . S
C3558 H3552 0.930 . S
C3558 C3559 1.367 . S
C3558 C3566 1.378 . S
C3559 C3558 1.367 . S
C3559 C3567 1.433 . S
C3560 H3556 0.929 . S
C3560 C3562 1.378 . S
C3560 C3564 1.350 . S
C3561 C3564 1.463 . S
C3561 C3566 1.350 . S
C3561 N3569 1.427 . S
C3562 H3553 0.930 . S
C3562 C3560 1.378 . S
C3562 C3563 1.367 . S
C3563 C3562 1.367 . S
C3563 C3565 1.433 . S
C3564 C3560 1.350 . S
C3564 C3561 1.463 . S
C3564 N3568 1.427 . S
C3565 H3555 0.929 . S
C3565 C3563 1.433 . S
C3565 N3568 1.384 . S
C3566 H3557 0.929 . S
C3566 C3558 1.378 . S
C3566 C3561 1.350 . S
C3567 H3554 0.929 . S
C3567 C3559 1.433 . S
C3567 N3569 1.384 . S
N3568 C3564 1.427 . S
N3568 C3565 1.384 . S
N3569 C3561 1.427 . S
N3569 C3567 1.384 . S
H3570 C3576 0.930 . S
H3571 C3580 0.930 . S
H3572 C3585 0.929 . S
H3573 C3583 0.929 . S
H3574 C3578 0.929 . S
H3575 C3584 0.929 . S
C3576 H3570 0.930 . S
C3576 C3577 1.367 . S
C3576 C3584 1.378 . S
C3577 C3576 1.367 . S
C3577 C3585 1.433 . S
C3578 H3574 0.929 . S
C3578 C3580 1.378 . S
C3578 C3582 1.350 . S
C3579 C3582 1.463 . S
C3579 C3584 1.350 . S
C3579 N3587 1.427 . S
C3580 H3571 0.930 . S
C3580 C3578 1.378 . S
C3580 C3581 1.367 . S
C3581 C3580 1.367 . S
C3581 C3583 1.433 . S
C3582 C3578 1.350 . S
C3582 C3579 1.463 . S
C3582 N3586 1.427 . S
C3583 H3573 0.929 . S
C3583 C3581 1.433 . S
C3583 N3586 1.384 . S
C3584 H3575 0.929 . S
C3584 C3576 1.378 . S
C3584 C3579 1.350 . S
C3585 H3572 0.929 . S
C3585 C3577 1.433 . S
C3585 N3587 1.384 . S
N3586 C3582 1.427 . S
N3586 C3583 1.384 . S
N3587 C3579 1.427 . S
N3587 C3585 1.384 . S
H3588 C3594 0.930 . S
H3589 C3598 0.930 . S
H3590 C3603 0.929 . S
H3591 C3601 0.929 . S
H3592 C3596 0.929 . S
H3593 C3602 0.929 . S
C3594 H3588 0.930 . S
C3594 C3595 1.367 . S
C3594 C3602 1.378 . S
C3595 C3594 1.367 . S
C3595 C3603 1.433 . S
C3596 H3592 0.929 . S
C3596 C3598 1.378 . S
C3596 C3600 1.350 . S
C3597 C3600 1.463 . S
C3597 C3602 1.350 . S
C3597 N3605 1.427 . S
C3598 H3589 0.930 . S
C3598 C3596 1.378 . S
C3598 C3599 1.367 . S
C3599 C3598 1.367 . S
C3599 C3601 1.433 . S
C3600 C3596 1.350 . S
C3600 C3597 1.463 . S
C3600 N3604 1.427 . S
C3601 H3591 0.929 . S
C3601 C3599 1.433 . S
C3601 N3604 1.384 . S
C3602 H3593 0.929 . S
C3602 C3594 1.378 . S
C3602 C3597 1.350 . S
C3603 H3590 0.929 . S
C3603 C3595 1.433 . S
C3603 N3605 1.384 . S
N3604 C3600 1.427 . S
N3604 C3601 1.384 . S
N3605 C3597 1.427 . S
N3605 C3603 1.384 . S
H3606 C3612 0.930 . S
H3607 C3616 0.930 . S
H3608 C3621 0.929 . S
H3609 C3619 0.929 . S
H3610 C3614 0.929 . S
H3611 C3620 0.929 . S
C3612 H3606 0.930 . S
C3612 C3613 1.367 . S
C3612 C3620 1.378 . S
C3613 C3612 1.367 . S
C3613 C3621 1.433 . S
C3614 H3610 0.929 . S
C3614 C3616 1.378 . S
C3614 C3618 1.350 . S
C3615 C3618 1.463 . S
C3615 C3620 1.350 . S
C3615 N3623 1.427 . S
C3616 H3607 0.930 . S
C3616 C3614 1.378 . S
C3616 C3617 1.367 . S
C3617 C3616 1.367 . S
C3617 C3619 1.433 . S
C3618 C3614 1.350 . S
C3618 C3615 1.463 . S
C3618 N3622 1.427 . S
C3619 H3609 0.929 . S
C3619 C3617 1.433 . S
C3619 N3622 1.384 . S
C3620 H3611 0.929 . S
C3620 C3612 1.378 . S
C3620 C3615 1.350 . S
C3621 H3608 0.929 . S
C3621 C3613 1.433 . S
C3621 N3623 1.384 . S
N3622 C3618 1.427 . S
N3622 C3619 1.384 . S
N3623 C3615 1.427 . S
N3623 C3621 1.384 . S
H3624 C3630 0.930 . S
H3625 C3634 0.930 . S
H3626 C3639 0.929 . S
H3627 C3637 0.929 . S
H3628 C3632 0.929 . S
H3629 C3638 0.929 . S
C3630 H3624 0.930 . S
C3630 C3631 1.367 . S
C3630 C3638 1.378 . S
C3631 C3630 1.367 . S
C3631 C3639 1.433 . S
C3632 H3628 0.929 . S
C3632 C3634 1.378 . S
C3632 C3636 1.350 . S
C3633 C3636 1.463 . S
C3633 C3638 1.350 . S
C3633 N3641 1.427 . S
C3634 H3625 0.930 . S
C3634 C3632 1.378 . S
C3634 C3635 1.367 . S
C3635 C3634 1.367 . S
C3635 C3637 1.433 . S
C3636 C3632 1.350 . S
C3636 C3633 1.463 . S
C3636 N3640 1.427 . S
C3637 H3627 0.929 . S
C3637 C3635 1.433 . S
C3637 N3640 1.384 . S
C3638 H3629 0.929 . S
C3638 C3630 1.378 . S
C3638 C3633 1.350 . S
C3639 H3626 0.929 . S
C3639 C3631 1.433 . S
C3639 N3641 1.384 . S
N3640 C3636 1.427 . S
N3640 C3637 1.384 . S
N3641 C3633 1.427 . S
N3641 C3639 1.384 . S
H3642 C3648 0.930 . S
H3643 C3652 0.930 . S
H3644 C3657 0.929 . S
H3645 C3655 0.929 . S
H3646 C3650 0.929 . S
H3647 C3656 0.929 . S
C3648 H3642 0.930 . S
C3648 C3649 1.367 . S
C3648 C3656 1.378 . S
C3649 C3648 1.367 . S
C3649 C3657 1.433 . S
C3650 H3646 0.929 . S
C3650 C3652 1.378 . S
C3650 C3654 1.350 . S
C3651 C3654 1.463 . S
C3651 C3656 1.350 . S
C3651 N3659 1.427 . S
C3652 H3643 0.930 . S
C3652 C3650 1.378 . S
C3652 C3653 1.367 . S
C3653 C3652 1.367 . S
C3653 C3655 1.433 . S
C3654 C3650 1.350 . S
C3654 C3651 1.463 . S
C3654 N3658 1.427 . S
C3655 H3645 0.929 . S
C3655 C3653 1.433 . S
C3655 N3658 1.384 . S
C3656 H3647 0.929 . S
C3656 C3648 1.378 . S
C3656 C3651 1.350 . S
C3657 H3644 0.929 . S
C3657 C3649 1.433 . S
C3657 N3659 1.384 . S
N3658 C3654 1.427 . S
N3658 C3655 1.384 . S
N3659 C3651 1.427 . S
N3659 C3657 1.384 . S
H3660 C3666 0.930 . S
H3661 C3670 0.930 . S
H3662 C3675 0.929 . S
H3663 C3673 0.929 . S
H3664 C3668 0.929 . S
H3665 C3674 0.929 . S
C3666 H3660 0.930 . S
C3666 C3667 1.367 . S
C3666 C3674 1.378 . S
C3667 C3666 1.367 . S
C3667 C3675 1.433 . S
C3668 H3664 0.929 . S
C3668 C3670 1.378 . S
C3668 C3672 1.350 . S
C3669 C3672 1.463 . S
C3669 C3674 1.350 . S
C3669 N3677 1.427 . S
C3670 H3661 0.930 . S
C3670 C3668 1.378 . S
C3670 C3671 1.367 . S
C3671 C3670 1.367 . S
C3671 C3673 1.433 . S
C3672 C3668 1.350 . S
C3672 C3669 1.463 . S
C3672 N3676 1.427 . S
C3673 H3663 0.929 . S
C3673 C3671 1.433 . S
C3673 N3676 1.384 . S
C3674 H3665 0.929 . S
C3674 C3666 1.378 . S
C3674 C3669 1.350 . S
C3675 H3662 0.929 . S
C3675 C3667 1.433 . S
C3675 N3677 1.384 . S
N3676 C3672 1.427 . S
N3676 C3673 1.384 . S
N3677 C3669 1.427 . S
N3677 C3675 1.384 . S
H3678 C3684 0.930 . S
H3679 C3688 0.930 . S
H3680 C3693 0.929 . S
H3681 C3691 0.929 . S
H3682 C3686 0.929 . S
H3683 C3692 0.929 . S
C3684 H3678 0.930 . S
C3684 C3685 1.367 . S
C3684 C3692 1.378 . S
C3685 C3684 1.367 . S
C3685 C3693 1.433 . S
C3686 H3682 0.929 . S
C3686 C3688 1.378 . S
C3686 C3690 1.350 . S
C3687 C3690 1.463 . S
C3687 C3692 1.350 . S
C3687 N3695 1.427 . S
C3688 H3679 0.930 . S
C3688 C3686 1.378 . S
C3688 C3689 1.367 . S
C3689 C3688 1.367 . S
C3689 C3691 1.433 . S
C3690 C3686 1.350 . S
C3690 C3687 1.463 . S
C3690 N3694 1.427 . S
C3691 H3681 0.929 . S
C3691 C3689 1.433 . S
C3691 N3694 1.384 . S
C3692 H3683 0.929 . S
C3692 C3684 1.378 . S
C3692 C3687 1.350 . S
C3693 H3680 0.929 . S
C3693 C3685 1.433 . S
C3693 N3695 1.384 . S
N3694 C3690 1.427 . S
N3694 C3691 1.384 . S
N3695 C3687 1.427 . S
N3695 C3693 1.384 . S
H3696 C3702 0.930 . S
H3697 C3706 0.930 . S
H3698 C3711 0.929 . S
H3699 C3709 0.929 . S
H3700 C3704 0.929 . S
H3701 C3710 0.929 . S
C3702 H3696 0.930 . S
C3702 C3703 1.367 . S
C3702 C3710 1.378 . S
C3703 C3702 1.367 . S
C3703 C3711 1.433 . S
C3704 H3700 0.929 . S
C3704 C3706 1.378 . S
C3704 C3708 1.350 . S
C3705 C3708 1.463 . S
C3705 C3710 1.350 . S
C3705 N3713 1.427 . S
C3706 H3697 0.930 . S
C3706 C3704 1.378 . S
C3706 C3707 1.367 . S
C3707 C3706 1.367 . S
C3707 C3709 1.433 . S
C3708 C3704 1.350 . S
C3708 C3705 1.463 . S
C3708 N3712 1.427 . S
C3709 H3699 0.929 . S
C3709 C3707 1.433 . S
C3709 N3712 1.384 . S
C3710 H3701 0.929 . S
C3710 C3702 1.378 . S
C3710 C3705 1.350 . S
C3711 H3698 0.929 . S
C3711 C3703 1.433 . S
C3711 N3713 1.384 . S
N3712 C3708 1.427 . S
N3712 C3709 1.384 . S
N3713 C3705 1.427 . S
N3713 C3711 1.384 . S
H3714 C3720 0.930 . S
H3715 C3724 0.930 . S
H3716 C3729 0.929 . S
H3717 C3727 0.929 . S
H3718 C3722 0.929 . S
H3719 C3728 0.929 . S
C3720 H3714 0.930 . S
C3720 C3721 1.367 . S
C3720 C3728 1.378 . S
C3721 C3720 1.367 . S
C3721 C3729 1.433 . S
C3722 H3718 0.929 . S
C3722 C3724 1.378 . S
C3722 C3726 1.350 . S
C3723 C3726 1.463 . S
C3723 C3728 1.350 . S
C3723 N3731 1.427 . S
C3724 H3715 0.930 . S
C3724 C3722 1.378 . S
C3724 C3725 1.367 . S
C3725 C3724 1.367 . S
C3725 C3727 1.433 . S
C3726 C3722 1.350 . S
C3726 C3723 1.463 . S
C3726 N3730 1.427 . S
C3727 H3717 0.929 . S
C3727 C3725 1.433 . S
C3727 N3730 1.384 . S
C3728 H3719 0.929 . S
C3728 C3720 1.378 . S
C3728 C3723 1.350 . S
C3729 H3716 0.929 . S
C3729 C3721 1.433 . S
C3729 N3731 1.384 . S
N3730 C3726 1.427 . S
N3730 C3727 1.384 . S
N3731 C3723 1.427 . S
N3731 C3729 1.384 . S
H3732 C3738 0.930 . S
H3733 C3742 0.930 . S
H3734 C3747 0.929 . S
H3735 C3745 0.929 . S
H3736 C3740 0.929 . S
H3737 C3746 0.929 . S
C3738 H3732 0.930 . S
C3738 C3739 1.367 . S
C3738 C3746 1.378 . S
C3739 C3738 1.367 . S
C3739 C3747 1.433 . S
C3740 H3736 0.929 . S
C3740 C3742 1.378 . S
C3740 C3744 1.350 . S
C3741 C3744 1.463 . S
C3741 C3746 1.350 . S
C3741 N3749 1.427 . S
C3742 H3733 0.930 . S
C3742 C3740 1.378 . S
C3742 C3743 1.367 . S
C3743 C3742 1.367 . S
C3743 C3745 1.433 . S
C3744 C3740 1.350 . S
C3744 C3741 1.463 . S
C3744 N3748 1.427 . S
C3745 H3735 0.929 . S
C3745 C3743 1.433 . S
C3745 N3748 1.384 . S
C3746 H3737 0.929 . S
C3746 C3738 1.378 . S
C3746 C3741 1.350 . S
C3747 H3734 0.929 . S
C3747 C3739 1.433 . S
C3747 N3749 1.384 . S
N3748 C3744 1.427 . S
N3748 C3745 1.384 . S
N3749 C3741 1.427 . S
N3749 C3747 1.384 . S
H3750 C3756 0.930 . S
H3751 C3760 0.930 . S
H3752 C3765 0.929 . S
H3753 C3763 0.929 . S
H3754 C3758 0.929 . S
H3755 C3764 0.929 . S
C3756 H3750 0.930 . S
C3756 C3757 1.367 . S
C3756 C3764 1.378 . S
C3757 C3756 1.367 . S
C3757 C3765 1.433 . S
C3758 H3754 0.929 . S
C3758 C3760 1.378 . S
C3758 C3762 1.350 . S
C3759 C3762 1.463 . S
C3759 C3764 1.350 . S
C3759 N3767 1.427 . S
C3760 H3751 0.930 . S
C3760 C3758 1.378 . S
C3760 C3761 1.367 . S
C3761 C3760 1.367 . S
C3761 C3763 1.433 . S
C3762 C3758 1.350 . S
C3762 C3759 1.463 . S
C3762 N3766 1.427 . S
C3763 H3753 0.929 . S
C3763 C3761 1.433 . S
C3763 N3766 1.384 . S
C3764 H3755 0.929 . S
C3764 C3756 1.378 . S
C3764 C3759 1.350 . S
C3765 H3752 0.929 . S
C3765 C3757 1.433 . S
C3765 N3767 1.384 . S
N3766 C3762 1.427 . S
N3766 C3763 1.384 . S
N3767 C3759 1.427 . S
N3767 C3765 1.384 . S
H3768 C3774 0.930 . S
H3769 C3778 0.930 . S
H3770 C3783 0.929 . S
H3771 C3781 0.929 . S
H3772 C3776 0.929 . S
H3773 C3782 0.929 . S
C3774 H3768 0.930 . S
C3774 C3775 1.367 . S
C3774 C3782 1.378 . S
C3775 C3774 1.367 . S
C3775 C3783 1.433 . S
C3776 H3772 0.929 . S
C3776 C3778 1.378 . S
C3776 C3780 1.350 . S
C3777 C3780 1.463 . S
C3777 C3782 1.350 . S
C3777 N3785 1.427 . S
C3778 H3769 0.930 . S
C3778 C3776 1.378 . S
C3778 C3779 1.367 . S
C3779 C3778 1.367 . S
C3779 C3781 1.433 . S
C3780 C3776 1.350 . S
C3780 C3777 1.463 . S
C3780 N3784 1.427 . S
C3781 H3771 0.929 . S
C3781 C3779 1.433 . S
C3781 N3784 1.384 . S
C3782 H3773 0.929 . S
C3782 C3774 1.378 . S
C3782 C3777 1.350 . S
C3783 H3770 0.929 . S
C3783 C3775 1.433 . S
C3783 N3785 1.384 . S
N3784 C3780 1.427 . S
N3784 C3781 1.384 . S
N3785 C3777 1.427 . S
N3785 C3783 1.384 . S
H3786 C3792 0.930 . S
H3787 C3796 0.930 . S
H3788 C3801 0.929 . S
H3789 C3799 0.929 . S
H3790 C3794 0.929 . S
H3791 C3800 0.929 . S
C3792 H3786 0.930 . S
C3792 C3793 1.367 . S
C3792 C3800 1.378 . S
C3793 C3792 1.367 . S
C3793 C3801 1.433 . S
C3794 H3790 0.929 . S
C3794 C3796 1.378 . S
C3794 C3798 1.350 . S
C3795 C3798 1.463 . S
C3795 C3800 1.350 . S
C3795 N3803 1.427 . S
C3796 H3787 0.930 . S
C3796 C3794 1.378 . S
C3796 C3797 1.367 . S
C3797 C3796 1.367 . S
C3797 C3799 1.433 . S
C3798 C3794 1.350 . S
C3798 C3795 1.463 . S
C3798 N3802 1.427 . S
C3799 H3789 0.929 . S
C3799 C3797 1.433 . S
C3799 N3802 1.384 . S
C3800 H3791 0.929 . S
C3800 C3792 1.378 . S
C3800 C3795 1.350 . S
C3801 H3788 0.929 . S
C3801 C3793 1.433 . S
C3801 N3803 1.384 . S
N3802 C3798 1.427 . S
N3802 C3799 1.384 . S
N3803 C3795 1.427 . S
N3803 C3801 1.384 . S
H3804 C3810 0.930 . S
H3805 C3814 0.930 . S
H3806 C3819 0.929 . S
H3807 C3817 0.929 . S
H3808 C3812 0.929 . S
H3809 C3818 0.929 . S
C3810 H3804 0.930 . S
C3810 C3811 1.367 . S
C3810 C3818 1.378 . S
C3811 C3810 1.367 . S
C3811 C3819 1.433 . S
C3812 H3808 0.929 . S
C3812 C3814 1.378 . S
C3812 C3816 1.350 . S
C3813 C3816 1.463 . S
C3813 C3818 1.350 . S
C3813 N3821 1.427 . S
C3814 H3805 0.930 . S
C3814 C3812 1.378 . S
C3814 C3815 1.367 . S
C3815 C3814 1.367 . S
C3815 C3817 1.433 . S
C3816 C3812 1.350 . S
C3816 C3813 1.463 . S
C3816 N3820 1.427 . S
C3817 H3807 0.929 . S
C3817 C3815 1.433 . S
C3817 N3820 1.384 . S
C3818 H3809 0.929 . S
C3818 C3810 1.378 . S
C3818 C3813 1.350 . S
C3819 H3806 0.929 . S
C3819 C3811 1.433 . S
C3819 N3821 1.384 . S
N3820 C3816 1.427 . S
N3820 C3817 1.384 . S
N3821 C3813 1.427 . S
N3821 C3819 1.384 . S
H3822 C3828 0.930 . S
H3823 C3832 0.930 . S
H3824 C3837 0.929 . S
H3825 C3835 0.929 . S
H3826 C3830 0.929 . S
H3827 C3836 0.929 . S
C3828 H3822 0.930 . S
C3828 C3829 1.367 . S
C3828 C3836 1.378 . S
C3829 C3828 1.367 . S
C3829 C3837 1.433 . S
C3830 H3826 0.929 . S
C3830 C3832 1.378 . S
C3830 C3834 1.350 . S
C3831 C3834 1.463 . S
C3831 C3836 1.350 . S
C3831 N3839 1.427 . S
C3832 H3823 0.930 . S
C3832 C3830 1.378 . S
C3832 C3833 1.367 . S
C3833 C3832 1.367 . S
C3833 C3835 1.433 . S
C3834 C3830 1.350 . S
C3834 C3831 1.463 . S
C3834 N3838 1.427 . S
C3835 H3825 0.929 . S
C3835 C3833 1.433 . S
C3835 N3838 1.384 . S
C3836 H3827 0.929 . S
C3836 C3828 1.378 . S
C3836 C3831 1.350 . S
C3837 H3824 0.929 . S
C3837 C3829 1.433 . S
C3837 N3839 1.384 . S
N3838 C3834 1.427 . S
N3838 C3835 1.384 . S
N3839 C3831 1.427 . S
N3839 C3837 1.384 . S
H3840 C3846 0.930 . S
H3841 C3850 0.930 . S
H3842 C3855 0.929 . S
H3843 C3853 0.929 . S
H3844 C3848 0.929 . S
H3845 C3854 0.929 . S
C3846 H3840 0.930 . S
C3846 C3847 1.367 . S
C3846 C3854 1.378 . S
C3847 C3846 1.367 . S
C3847 C3855 1.433 . S
C3848 H3844 0.929 . S
C3848 C3850 1.378 . S
C3848 C3852 1.350 . S
C3849 C3852 1.463 . S
C3849 C3854 1.350 . S
C3849 N3857 1.427 . S
C3850 H3841 0.930 . S
C3850 C3848 1.378 . S
C3850 C3851 1.367 . S
C3851 C3850 1.367 . S
C3851 C3853 1.433 . S
C3852 C3848 1.350 . S
C3852 C3849 1.463 . S
C3852 N3856 1.427 . S
C3853 H3843 0.929 . S
C3853 C3851 1.433 . S
C3853 N3856 1.384 . S
C3854 H3845 0.929 . S
C3854 C3846 1.378 . S
C3854 C3849 1.350 . S
C3855 H3842 0.929 . S
C3855 C3847 1.433 . S
C3855 N3857 1.384 . S
N3856 C3852 1.427 . S
N3856 C3853 1.384 . S
N3857 C3849 1.427 . S
N3857 C3855 1.384 . S
H3858 C3864 0.930 . S
H3859 C3868 0.930 . S
H3860 C3873 0.929 . S
H3861 C3871 0.929 . S
H3862 C3866 0.929 . S
H3863 C3872 0.929 . S
C3864 H3858 0.930 . S
C3864 C3865 1.367 . S
C3864 C3872 1.378 . S
C3865 C3864 1.367 . S
C3865 C3873 1.433 . S
C3866 H3862 0.929 . S
C3866 C3868 1.378 . S
C3866 C3870 1.350 . S
C3867 C3870 1.463 . S
C3867 C3872 1.350 . S
C3867 N3875 1.427 . S
C3868 H3859 0.930 . S
C3868 C3866 1.378 . S
C3868 C3869 1.367 . S
C3869 C3868 1.367 . S
C3869 C3871 1.433 . S
C3870 C3866 1.350 . S
C3870 C3867 1.463 . S
C3870 N3874 1.427 . S
C3871 H3861 0.929 . S
C3871 C3869 1.433 . S
C3871 N3874 1.384 . S
C3872 H3863 0.929 . S
C3872 C3864 1.378 . S
C3872 C3867 1.350 . S
C3873 H3860 0.929 . S
C3873 C3865 1.433 . S
C3873 N3875 1.384 . S
N3874 C3870 1.427 . S
N3874 C3871 1.384 . S
N3875 C3867 1.427 . S
N3875 C3873 1.384 . S
H3876 C3882 0.930 . S
H3877 C3886 0.930 . S
H3878 C3891 0.929 . S
H3879 C3889 0.929 . S
H3880 C3884 0.929 . S
H3881 C3890 0.929 . S
C3882 H3876 0.930 . S
C3882 C3883 1.367 . S
C3882 C3890 1.378 . S
C3883 C3882 1.367 . S
C3883 C3891 1.433 . S
C3884 H3880 0.929 . S
C3884 C3886 1.378 . S
C3884 C3888 1.350 . S
C3885 C3888 1.463 . S
C3885 C3890 1.350 . S
C3885 N3893 1.427 . S
C3886 H3877 0.930 . S
C3886 C3884 1.378 . S
C3886 C3887 1.367 . S
C3887 C3886 1.367 . S
C3887 C3889 1.433 . S
C3888 C3884 1.350 . S
C3888 C3885 1.463 . S
C3888 N3892 1.427 . S
C3889 H3879 0.929 . S
C3889 C3887 1.433 . S
C3889 N3892 1.384 . S
C3890 H3881 0.929 . S
C3890 C3882 1.378 . S
C3890 C3885 1.350 . S
C3891 H3878 0.929 . S
C3891 C3883 1.433 . S
C3891 N3893 1.384 . S
N3892 C3888 1.427 . S
N3892 C3889 1.384 . S
N3893 C3885 1.427 . S
N3893 C3891 1.384 . S
H3894 C3900 0.930 . S
H3895 C3904 0.930 . S
H3896 C3909 0.929 . S
H3897 C3907 0.929 . S
H3898 C3902 0.929 . S
H3899 C3908 0.929 . S
C3900 H3894 0.930 . S
C3900 C3901 1.367 . S
C3900 C3908 1.378 . S
C3901 C3900 1.367 . S
C3901 C3909 1.433 . S
C3902 H3898 0.929 . S
C3902 C3904 1.378 . S
C3902 C3906 1.350 . S
C3903 C3906 1.463 . S
C3903 C3908 1.350 . S
C3903 N3911 1.427 . S
C3904 H3895 0.930 . S
C3904 C3902 1.378 . S
C3904 C3905 1.367 . S
C3905 C3904 1.367 . S
C3905 C3907 1.433 . S
C3906 C3902 1.350 . S
C3906 C3903 1.463 . S
C3906 N3910 1.427 . S
C3907 H3897 0.929 . S
C3907 C3905 1.433 . S
C3907 N3910 1.384 . S
C3908 H3899 0.929 . S
C3908 C3900 1.378 . S
C3908 C3903 1.350 . S
C3909 H3896 0.929 . S
C3909 C3901 1.433 . S
C3909 N3911 1.384 . S
N3910 C3906 1.427 . S
N3910 C3907 1.384 . S
N3911 C3903 1.427 . S
N3911 C3909 1.384 . S
H3912 C3918 0.930 . S
H3913 C3922 0.930 . S
H3914 C3927 0.929 . S
H3915 C3925 0.929 . S
H3916 C3920 0.929 . S
H3917 C3926 0.929 . S
C3918 H3912 0.930 . S
C3918 C3919 1.367 . S
C3918 C3926 1.378 . S
C3919 C3918 1.367 . S
C3919 C3927 1.433 . S
C3920 H3916 0.929 . S
C3920 C3922 1.378 . S
C3920 C3924 1.350 . S
C3921 C3924 1.463 . S
C3921 C3926 1.350 . S
C3921 N3929 1.427 . S
C3922 H3913 0.930 . S
C3922 C3920 1.378 . S
C3922 C3923 1.367 . S
C3923 C3922 1.367 . S
C3923 C3925 1.433 . S
C3924 C3920 1.350 . S
C3924 C3921 1.463 . S
C3924 N3928 1.427 . S
C3925 H3915 0.929 . S
C3925 C3923 1.433 . S
C3925 N3928 1.384 . S
C3926 H3917 0.929 . S
C3926 C3918 1.378 . S
C3926 C3921 1.350 . S
C3927 H3914 0.929 . S
C3927 C3919 1.433 . S
C3927 N3929 1.384 . S
N3928 C3924 1.427 . S
N3928 C3925 1.384 . S
N3929 C3921 1.427 . S
N3929 C3927 1.384 . S
H3930 C3936 0.930 . S
H3931 C3940 0.930 . S
H3932 C3945 0.929 . S
H3933 C3943 0.929 . S
H3934 C3938 0.929 . S
H3935 C3944 0.929 . S
C3936 H3930 0.930 . S
C3936 C3937 1.367 . S
C3936 C3944 1.378 . S
C3937 C3936 1.367 . S
C3937 C3945 1.433 . S
C3938 H3934 0.929 . S
C3938 C3940 1.378 . S
C3938 C3942 1.350 . S
C3939 C3942 1.463 . S
C3939 C3944 1.350 . S
C3939 N3947 1.427 . S
C3940 H3931 0.930 . S
C3940 C3938 1.378 . S
C3940 C3941 1.367 . S
C3941 C3940 1.367 . S
C3941 C3943 1.433 . S
C3942 C3938 1.350 . S
C3942 C3939 1.463 . S
C3942 N3946 1.427 . S
C3943 H3933 0.929 . S
C3943 C3941 1.433 . S
C3943 N3946 1.384 . S
C3944 H3935 0.929 . S
C3944 C3936 1.378 . S
C3944 C3939 1.350 . S
C3945 H3932 0.929 . S
C3945 C3937 1.433 . S
C3945 N3947 1.384 . S
N3946 C3942 1.427 . S
N3946 C3943 1.384 . S
N3947 C3939 1.427 . S
N3947 C3945 1.384 . S
H3948 C3954 0.930 . S
H3949 C3958 0.930 . S
H3950 C3963 0.929 . S
H3951 C3961 0.929 . S
H3952 C3956 0.929 . S
H3953 C3962 0.929 . S
C3954 H3948 0.930 . S
C3954 C3955 1.367 . S
C3954 C3962 1.378 . S
C3955 C3954 1.367 . S
C3955 C3963 1.433 . S
C3956 H3952 0.929 . S
C3956 C3958 1.378 . S
C3956 C3960 1.350 . S
C3957 C3960 1.463 . S
C3957 C3962 1.350 . S
C3957 N3965 1.427 . S
C3958 H3949 0.930 . S
C3958 C3956 1.378 . S
C3958 C3959 1.367 . S
C3959 C3958 1.367 . S
C3959 C3961 1.433 . S
C3960 C3956 1.350 . S
C3960 C3957 1.463 . S
C3960 N3964 1.427 . S
C3961 H3951 0.929 . S
C3961 C3959 1.433 . S
C3961 N3964 1.384 . S
C3962 H3953 0.929 . S
C3962 C3954 1.378 . S
C3962 C3957 1.350 . S
C3963 H3950 0.929 . S
C3963 C3955 1.433 . S
C3963 N3965 1.384 . S
N3964 C3960 1.427 . S
N3964 C3961 1.384 . S
N3965 C3957 1.427 . S
N3965 C3963 1.384 . S
H3966 C3972 0.930 . S
H3967 C3976 0.930 . S
H3968 C3981 0.929 . S
H3969 C3979 0.929 . S
H3970 C3974 0.929 . S
H3971 C3980 0.929 . S
C3972 H3966 0.930 . S
C3972 C3973 1.367 . S
C3972 C3980 1.378 . S
C3973 C3972 1.367 . S
C3973 C3981 1.433 . S
C3974 H3970 0.929 . S
C3974 C3976 1.378 . S
C3974 C3978 1.350 . S
C3975 C3978 1.463 . S
C3975 C3980 1.350 . S
C3975 N3983 1.427 . S
C3976 H3967 0.930 . S
C3976 C3974 1.378 . S
C3976 C3977 1.367 . S
C3977 C3976 1.367 . S
C3977 C3979 1.433 . S
C3978 C3974 1.350 . S
C3978 C3975 1.463 . S
C3978 N3982 1.427 . S
C3979 H3969 0.929 . S
C3979 C3977 1.433 . S
C3979 N3982 1.384 . S
C3980 H3971 0.929 . S
C3980 C3972 1.378 . S
C3980 C3975 1.350 . S
C3981 H3968 0.929 . S
C3981 C3973 1.433 . S
C3981 N3983 1.384 . S
N3982 C3978 1.427 . S
N3982 C3979 1.384 . S
N3983 C3975 1.427 . S
N3983 C3981 1.384 . S
H3984 C3990 0.930 . S
H3985 C3994 0.930 . S
H3986 C3999 0.929 . S
H3987 C3997 0.929 . S
H3988 C3992 0.929 . S
H3989 C3998 0.929 . S
C3990 H3984 0.930 . S
C3990 C3991 1.367 . S
C3990 C3998 1.378 . S
C3991 C3990 1.367 . S
C3991 C3999 1.433 . S
C3992 H3988 0.929 . S
C3992 C3994 1.378 . S
C3992 C3996 1.350 . S
C3993 C3996 1.463 . S
C3993 C3998 1.350 . S
C3993 N4001 1.427 . S
C3994 H3985 0.930 . S
C3994 C3992 1.378 . S
C3994 C3995 1.367 . S
C3995 C3994 1.367 . S
C3995 C3997 1.433 . S
C3996 C3992 1.350 . S
C3996 C3993 1.463 . S
C3996 N4000 1.427 . S
C3997 H3987 0.929 . S
C3997 C3995 1.433 . S
C3997 N4000 1.384 . S
C3998 H3989 0.929 . S
C3998 C3990 1.378 . S
C3998 C3993 1.350 . S
C3999 H3986 0.929 . S
C3999 C3991 1.433 . S
C3999 N4001 1.384 . S
N4000 C3996 1.427 . S
N4000 C3997 1.384 . S
N4001 C3993 1.427 . S
N4001 C3999 1.384 . S
H4002 C4008 0.930 . S
H4003 C4012 0.930 . S
H4004 C4017 0.929 . S
H4005 C4015 0.929 . S
H4006 C4010 0.929 . S
H4007 C4016 0.929 . S
C4008 H4002 0.930 . S
C4008 C4009 1.367 . S
C4008 C4016 1.378 . S
C4009 C4008 1.367 . S
C4009 C4017 1.433 . S
C4010 H4006 0.929 . S
C4010 C4012 1.378 . S
C4010 C4014 1.350 . S
C4011 C4014 1.463 . S
C4011 C4016 1.350 . S
C4011 N4019 1.427 . S
C4012 H4003 0.930 . S
C4012 C4010 1.378 . S
C4012 C4013 1.367 . S
C4013 C4012 1.367 . S
C4013 C4015 1.433 . S
C4014 C4010 1.350 . S
C4014 C4011 1.463 . S
C4014 N4018 1.427 . S
C4015 H4005 0.929 . S
C4015 C4013 1.433 . S
C4015 N4018 1.384 . S
C4016 H4007 0.929 . S
C4016 C4008 1.378 . S
C4016 C4011 1.350 . S
C4017 H4004 0.929 . S
C4017 C4009 1.433 . S
C4017 N4019 1.384 . S
N4018 C4014 1.427 . S
N4018 C4015 1.384 . S
N4019 C4011 1.427 . S
N4019 C4017 1.384 . S
H4020 C4026 0.930 . S
H4021 C4030 0.930 . S
H4022 C4035 0.929 . S
H4023 C4033 0.929 . S
H4024 C4028 0.929 . S
H4025 C4034 0.929 . S
C4026 H4020 0.930 . S
C4026 C4027 1.367 . S
C4026 C4034 1.378 . S
C4027 C4026 1.367 . S
C4027 C4035 1.433 . S
C4028 H4024 0.929 . S
C4028 C4030 1.378 . S
C4028 C4032 1.350 . S
C4029 C4032 1.463 . S
C4029 C4034 1.350 . S
C4029 N4037 1.427 . S
C4030 H4021 0.930 . S
C4030 C4028 1.378 . S
C4030 C4031 1.367 . S
C4031 C4030 1.367 . S
C4031 C4033 1.433 . S
C4032 C4028 1.350 . S
C4032 C4029 1.463 . S
C4032 N4036 1.427 . S
C4033 H4023 0.929 . S
C4033 C4031 1.433 . S
C4033 N4036 1.384 . S
C4034 H4025 0.929 . S
C4034 C4026 1.378 . S
C4034 C4029 1.350 . S
C4035 H4022 0.929 . S
C4035 C4027 1.433 . S
C4035 N4037 1.384 . S
N4036 C4032 1.427 . S
N4036 C4033 1.384 . S
N4037 C4029 1.427 . S
N4037 C4035 1.384 . S
H4038 C4044 0.930 . S
H4039 C4048 0.930 . S
H4040 C4053 0.929 . S
H4041 C4051 0.929 . S
H4042 C4046 0.929 . S
H4043 C4052 0.929 . S
C4044 H4038 0.930 . S
C4044 C4045 1.367 . S
C4044 C4052 1.378 . S
C4045 C4044 1.367 . S
C4045 C4053 1.433 . S
C4046 H4042 0.929 . S
C4046 C4048 1.378 . S
C4046 C4050 1.350 . S
C4047 C4050 1.463 . S
C4047 C4052 1.350 . S
C4047 N4055 1.427 . S
C4048 H4039 0.930 . S
C4048 C4046 1.378 . S
C4048 C4049 1.367 . S
C4049 C4048 1.367 . S
C4049 C4051 1.433 . S
C4050 C4046 1.350 . S
C4050 C4047 1.463 . S
C4050 N4054 1.427 . S
C4051 H4041 0.929 . S
C4051 C4049 1.433 . S
C4051 N4054 1.384 . S
C4052 H4043 0.929 . S
C4052 C4044 1.378 . S
C4052 C4047 1.350 . S
C4053 H4040 0.929 . S
C4053 C4045 1.433 . S
C4053 N4055 1.384 . S
N4054 C4050 1.427 . S
N4054 C4051 1.384 . S
N4055 C4047 1.427 . S
N4055 C4053 1.384 . S
H4056 C4062 0.930 . S
H4057 C4066 0.930 . S
H4058 C4071 0.929 . S
H4059 C4069 0.929 . S
H4060 C4064 0.929 . S
H4061 C4070 0.929 . S
C4062 H4056 0.930 . S
C4062 C4063 1.367 . S
C4062 C4070 1.378 . S
C4063 C4062 1.367 . S
C4063 C4071 1.433 . S
C4064 H4060 0.929 . S
C4064 C4066 1.378 . S
C4064 C4068 1.350 . S
C4065 C4068 1.463 . S
C4065 C4070 1.350 . S
C4065 N4073 1.427 . S
C4066 H4057 0.930 . S
C4066 C4064 1.378 . S
C4066 C4067 1.367 . S
C4067 C4066 1.367 . S
C4067 C4069 1.433 . S
C4068 C4064 1.350 . S
C4068 C4065 1.463 . S
C4068 N4072 1.427 . S
C4069 H4059 0.929 . S
C4069 C4067 1.433 . S
C4069 N4072 1.384 . S
C4070 H4061 0.929 . S
C4070 C4062 1.378 . S
C4070 C4065 1.350 . S
C4071 H4058 0.929 . S
C4071 C4063 1.433 . S
C4071 N4073 1.384 . S
N4072 C4068 1.427 . S
N4072 C4069 1.384 . S
N4073 C4065 1.427 . S
N4073 C4071 1.384 . S
H4074 C4080 0.930 . S
H4075 C4084 0.930 . S
H4076 C4089 0.929 . S
H4077 C4087 0.929 . S
H4078 C4082 0.929 . S
H4079 C4088 0.929 . S
C4080 H4074 0.930 . S
C4080 C4081 1.367 . S
C4080 C4088 1.378 . S
C4081 C4080 1.367 . S
C4081 C4089 1.433 . S
C4082 H4078 0.929 . S
C4082 C4084 1.378 . S
C4082 C4086 1.350 . S
C4083 C4086 1.463 . S
C4083 C4088 1.350 . S
C4083 N4091 1.427 . S
C4084 H4075 0.930 . S
C4084 C4082 1.378 . S
C4084 C4085 1.367 . S
C4085 C4084 1.367 . S
C4085 C4087 1.433 . S
C4086 C4082 1.350 . S
C4086 C4083 1.463 . S
C4086 N4090 1.427 . S
C4087 H4077 0.929 . S
C4087 C4085 1.433 . S
C4087 N4090 1.384 . S
C4088 H4079 0.929 . S
C4088 C4080 1.378 . S
C4088 C4083 1.350 . S
C4089 H4076 0.929 . S
C4089 C4081 1.433 . S
C4089 N4091 1.384 . S
N4090 C4086 1.427 . S
N4090 C4087 1.384 . S
N4091 C4083 1.427 . S
N4091 C4089 1.384 . S
H4092 C4098 0.930 . S
H4093 C4102 0.930 . S
H4094 C4107 0.929 . S
H4095 C4105 0.929 . S
H4096 C4100 0.929 . S
H4097 C4106 0.929 . S
C4098 H4092 0.930 . S
C4098 C4099 1.367 . S
C4098 C4106 1.378 . S
C4099 C4098 1.367 . S
C4099 C4107 1.433 . S
C4100 H4096 0.929 . S
C4100 C4102 1.378 . S
C4100 C4104 1.350 . S
C4101 C4104 1.463 . S
C4101 C4106 1.350 . S
C4101 N4109 1.427 . S
C4102 H4093 0.930 . S
C4102 C4100 1.378 . S
C4102 C4103 1.367 . S
C4103 C4102 1.367 . S
C4103 C4105 1.433 . S
C4104 C4100 1.350 . S
C4104 C4101 1.463 . S
C4104 N4108 1.427 . S
C4105 H4095 0.929 . S
C4105 C4103 1.433 . S
C4105 N4108 1.384 . S
C4106 H4097 0.929 . S
C4106 C4098 1.378 . S
C4106 C4101 1.350 . S
C4107 H4094 0.929 . S
C4107 C4099 1.433 . S
C4107 N4109 1.384 . S
N4108 C4104 1.427 . S
N4108 C4105 1.384 . S
N4109 C4101 1.427 . S
N4109 C4107 1.384 . S
H4110 C4116 0.930 . S
H4111 C4120 0.930 . S
H4112 C4125 0.929 . S
H4113 C4123 0.929 . S
H4114 C4118 0.929 . S
H4115 C4124 0.929 . S
C4116 H4110 0.930 . S
C4116 C4117 1.367 . S
C4116 C4124 1.378 . S
C4117 C4116 1.367 . S
C4117 C4125 1.433 . S
C4118 H4114 0.929 . S
C4118 C4120 1.378 . S
C4118 C4122 1.350 . S
C4119 C4122 1.463 . S
C4119 C4124 1.350 . S
C4119 N4127 1.427 . S
C4120 H4111 0.930 . S
C4120 C4118 1.378 . S
C4120 C4121 1.367 . S
C4121 C4120 1.367 . S
C4121 C4123 1.433 . S
C4122 C4118 1.350 . S
C4122 C4119 1.463 . S
C4122 N4126 1.427 . S
C4123 H4113 0.929 . S
C4123 C4121 1.433 . S
C4123 N4126 1.384 . S
C4124 H4115 0.929 . S
C4124 C4116 1.378 . S
C4124 C4119 1.350 . S
C4125 H4112 0.929 . S
C4125 C4117 1.433 . S
C4125 N4127 1.384 . S
N4126 C4122 1.427 . S
N4126 C4123 1.384 . S
N4127 C4119 1.427 . S
N4127 C4125 1.384 . S
H4128 C4134 0.930 . S
H4129 C4138 0.930 . S
H4130 C4143 0.929 . S
H4131 C4141 0.929 . S
H4132 C4136 0.929 . S
H4133 C4142 0.929 . S
C4134 H4128 0.930 . S
C4134 C4135 1.367 . S
C4134 C4142 1.378 . S
C4135 C4134 1.367 . S
C4135 C4143 1.433 . S
C4136 H4132 0.929 . S
C4136 C4138 1.378 . S
C4136 C4140 1.350 . S
C4137 C4140 1.463 . S
C4137 C4142 1.350 . S
C4137 N4145 1.427 . S
C4138 H4129 0.930 . S
C4138 C4136 1.378 . S
C4138 C4139 1.367 . S
C4139 C4138 1.367 . S
C4139 C4141 1.433 . S
C4140 C4136 1.350 . S
C4140 C4137 1.463 . S
C4140 N4144 1.427 . S
C4141 H4131 0.929 . S
C4141 C4139 1.433 . S
C4141 N4144 1.384 . S
C4142 H4133 0.929 . S
C4142 C4134 1.378 . S
C4142 C4137 1.350 . S
C4143 H4130 0.929 . S
C4143 C4135 1.433 . S
C4143 N4145 1.384 . S
N4144 C4140 1.427 . S
N4144 C4141 1.384 . S
N4145 C4137 1.427 . S
N4145 C4143 1.384 . S
H4146 C4152 0.930 . S
H4147 C4156 0.930 . S
H4148 C4161 0.929 . S
H4149 C4159 0.929 . S
H4150 C4154 0.929 . S
H4151 C4160 0.929 . S
C4152 H4146 0.930 . S
C4152 C4153 1.367 . S
C4152 C4160 1.378 . S
C4153 C4152 1.367 . S
C4153 C4161 1.433 . S
C4154 H4150 0.929 . S
C4154 C4156 1.378 . S
C4154 C4158 1.350 . S
C4155 C4158 1.463 . S
C4155 C4160 1.350 . S
C4155 N4163 1.427 . S
C4156 H4147 0.930 . S
C4156 C4154 1.378 . S
C4156 C4157 1.367 . S
C4157 C4156 1.367 . S
C4157 C4159 1.433 . S
C4158 C4154 1.350 . S
C4158 C4155 1.463 . S
C4158 N4162 1.427 . S
C4159 H4149 0.929 . S
C4159 C4157 1.433 . S
C4159 N4162 1.384 . S
C4160 H4151 0.929 . S
C4160 C4152 1.378 . S
C4160 C4155 1.350 . S
C4161 H4148 0.929 . S
C4161 C4153 1.433 . S
C4161 N4163 1.384 . S
N4162 C4158 1.427 . S
N4162 C4159 1.384 . S
N4163 C4155 1.427 . S
N4163 C4161 1.384 . S
H4164 C4170 0.930 . S
H4165 C4174 0.930 . S
H4166 C4179 0.929 . S
H4167 C4177 0.929 . S
H4168 C4172 0.929 . S
H4169 C4178 0.929 . S
C4170 H4164 0.930 . S
C4170 C4171 1.367 . S
C4170 C4178 1.378 . S
C4171 C4170 1.367 . S
C4171 C4179 1.433 . S
C4172 H4168 0.929 . S
C4172 C4174 1.378 . S
C4172 C4176 1.350 . S
C4173 C4176 1.463 . S
C4173 C4178 1.350 . S
C4173 N4181 1.427 . S
C4174 H4165 0.930 . S
C4174 C4172 1.378 . S
C4174 C4175 1.367 . S
C4175 C4174 1.367 . S
C4175 C4177 1.433 . S
C4176 C4172 1.350 . S
C4176 C4173 1.463 . S
C4176 N4180 1.427 . S
C4177 H4167 0.929 . S
C4177 C4175 1.433 . S
C4177 N4180 1.384 . S
C4178 H4169 0.929 . S
C4178 C4170 1.378 . S
C4178 C4173 1.350 . S
C4179 H4166 0.929 . S
C4179 C4171 1.433 . S
C4179 N4181 1.384 . S
N4180 C4176 1.427 . S
N4180 C4177 1.384 . S
N4181 C4173 1.427 . S
N4181 C4179 1.384 . S
H4182 C4188 0.930 . S
H4183 C4192 0.930 . S
H4184 C4197 0.929 . S
H4185 C4195 0.929 . S
H4186 C4190 0.929 . S
H4187 C4196 0.929 . S
C4188 H4182 0.930 . S
C4188 C4189 1.367 . S
C4188 C4196 1.378 . S
C4189 C4188 1.367 . S
C4189 C4197 1.433 . S
C4190 H4186 0.929 . S
C4190 C4192 1.378 . S
C4190 C4194 1.350 . S
C4191 C4194 1.463 . S
C4191 C4196 1.350 . S
C4191 N4199 1.427 . S
C4192 H4183 0.930 . S
C4192 C4190 1.378 . S
C4192 C4193 1.367 . S
C4193 C4192 1.367 . S
C4193 C4195 1.433 . S
C4194 C4190 1.350 . S
C4194 C4191 1.463 . S
C4194 N4198 1.427 . S
C4195 H4185 0.929 . S
C4195 C4193 1.433 . S
C4195 N4198 1.384 . S
C4196 H4187 0.929 . S
C4196 C4188 1.378 . S
C4196 C4191 1.350 . S
C4197 H4184 0.929 . S
C4197 C4189 1.433 . S
C4197 N4199 1.384 . S
N4198 C4194 1.427 . S
N4198 C4195 1.384 . S
N4199 C4191 1.427 . S
N4199 C4197 1.384 . S
H4200 C4206 0.930 . S
H4201 C4210 0.930 . S
H4202 C4215 0.929 . S
H4203 C4213 0.929 . S
H4204 C4208 0.929 . S
H4205 C4214 0.929 . S
C4206 H4200 0.930 . S
C4206 C4207 1.367 . S
C4206 C4214 1.378 . S
C4207 C4206 1.367 . S
C4207 C4215 1.433 . S
C4208 H4204 0.929 . S
C4208 C4210 1.378 . S
C4208 C4212 1.350 . S
C4209 C4212 1.463 . S
C4209 C4214 1.350 . S
C4209 N4217 1.427 . S
C4210 H4201 0.930 . S
C4210 C4208 1.378 . S
C4210 C4211 1.367 . S
C4211 C4210 1.367 . S
C4211 C4213 1.433 . S
C4212 C4208 1.350 . S
C4212 C4209 1.463 . S
C4212 N4216 1.427 . S
C4213 H4203 0.929 . S
C4213 C4211 1.433 . S
C4213 N4216 1.384 . S
C4214 H4205 0.929 . S
C4214 C4206 1.378 . S
C4214 C4209 1.350 . S
C4215 H4202 0.929 . S
C4215 C4207 1.433 . S
C4215 N4217 1.384 . S
N4216 C4212 1.427 . S
N4216 C4213 1.384 . S
N4217 C4209 1.427 . S
N4217 C4215 1.384 . S
H4218 C4224 0.930 . S
H4219 C4228 0.930 . S
H4220 C4233 0.929 . S
H4221 C4231 0.929 . S
H4222 C4226 0.929 . S
H4223 C4232 0.929 . S
C4224 H4218 0.930 . S
C4224 C4225 1.367 . S
C4224 C4232 1.378 . S
C4225 C4224 1.367 . S
C4225 C4233 1.433 . S
C4226 H4222 0.929 . S
C4226 C4228 1.378 . S
C4226 C4230 1.350 . S
C4227 C4230 1.463 . S
C4227 C4232 1.350 . S
C4227 N4235 1.427 . S
C4228 H4219 0.930 . S
C4228 C4226 1.378 . S
C4228 C4229 1.367 . S
C4229 C4228 1.367 . S
C4229 C4231 1.433 . S
C4230 C4226 1.350 . S
C4230 C4227 1.463 . S
C4230 N4234 1.427 . S
C4231 H4221 0.929 . S
C4231 C4229 1.433 . S
C4231 N4234 1.384 . S
C4232 H4223 0.929 . S
C4232 C4224 1.378 . S
C4232 C4227 1.350 . S
C4233 H4220 0.929 . S
C4233 C4225 1.433 . S
C4233 N4235 1.384 . S
N4234 C4230 1.427 . S
N4234 C4231 1.384 . S
N4235 C4227 1.427 . S
N4235 C4233 1.384 . S
H4236 C4242 0.930 . S
H4237 C4246 0.930 . S
H4238 C4251 0.929 . S
H4239 C4249 0.929 . S
H4240 C4244 0.929 . S
H4241 C4250 0.929 . S
C4242 H4236 0.930 . S
C4242 C4243 1.367 . S
C4242 C4250 1.378 . S
C4243 C4242 1.367 . S
C4243 C4251 1.433 . S
C4244 H4240 0.929 . S
C4244 C4246 1.378 . S
C4244 C4248 1.350 . S
C4245 C4248 1.463 . S
C4245 C4250 1.350 . S
C4245 N4253 1.427 . S
C4246 H4237 0.930 . S
C4246 C4244 1.378 . S
C4246 C4247 1.367 . S
C4247 C4246 1.367 . S
C4247 C4249 1.433 . S
C4248 C4244 1.350 . S
C4248 C4245 1.463 . S
C4248 N4252 1.427 . S
C4249 H4239 0.929 . S
C4249 C4247 1.433 . S
C4249 N4252 1.384 . S
C4250 H4241 0.929 . S
C4250 C4242 1.378 . S
C4250 C4245 1.350 . S
C4251 H4238 0.929 . S
C4251 C4243 1.433 . S
C4251 N4253 1.384 . S
N4252 C4248 1.427 . S
N4252 C4249 1.384 . S
N4253 C4245 1.427 . S
N4253 C4251 1.384 . S
H4254 C4260 0.930 . S
H4255 C4264 0.930 . S
H4256 C4269 0.929 . S
H4257 C4267 0.929 . S
H4258 C4262 0.929 . S
H4259 C4268 0.929 . S
C4260 H4254 0.930 . S
C4260 C4261 1.367 . S
C4260 C4268 1.378 . S
C4261 C4260 1.367 . S
C4261 C4269 1.433 . S
C4262 H4258 0.929 . S
C4262 C4264 1.378 . S
C4262 C4266 1.350 . S
C4263 C4266 1.463 . S
C4263 C4268 1.350 . S
C4263 N4271 1.427 . S
C4264 H4255 0.930 . S
C4264 C4262 1.378 . S
C4264 C4265 1.367 . S
C4265 C4264 1.367 . S
C4265 C4267 1.433 . S
C4266 C4262 1.350 . S
C4266 C4263 1.463 . S
C4266 N4270 1.427 . S
C4267 H4257 0.929 . S
C4267 C4265 1.433 . S
C4267 N4270 1.384 . S
C4268 H4259 0.929 . S
C4268 C4260 1.378 . S
C4268 C4263 1.350 . S
C4269 H4256 0.929 . S
C4269 C4261 1.433 . S
C4269 N4271 1.384 . S
N4270 C4266 1.427 . S
N4270 C4267 1.384 . S
N4271 C4263 1.427 . S
N4271 C4269 1.384 . S
H4272 C4278 0.930 . S
H4273 C4282 0.930 . S
H4274 C4287 0.929 . S
H4275 C4285 0.929 . S
H4276 C4280 0.929 . S
H4277 C4286 0.929 . S
C4278 H4272 0.930 . S
C4278 C4279 1.367 . S
C4278 C4286 1.378 . S
C4279 C4278 1.367 . S
C4279 C4287 1.433 . S
C4280 H4276 0.929 . S
C4280 C4282 1.378 . S
C4280 C4284 1.350 . S
C4281 C4284 1.463 . S
C4281 C4286 1.350 . S
C4281 N4289 1.427 . S
C4282 H4273 0.930 . S
C4282 C4280 1.378 . S
C4282 C4283 1.367 . S
C4283 C4282 1.367 . S
C4283 C4285 1.433 . S
C4284 C4280 1.350 . S
C4284 C4281 1.463 . S
C4284 N4288 1.427 . S
C4285 H4275 0.929 . S
C4285 C4283 1.433 . S
C4285 N4288 1.384 . S
C4286 H4277 0.929 . S
C4286 C4278 1.378 . S
C4286 C4281 1.350 . S
C4287 H4274 0.929 . S
C4287 C4279 1.433 . S
C4287 N4289 1.384 . S
N4288 C4284 1.427 . S
N4288 C4285 1.384 . S
N4289 C4281 1.427 . S
N4289 C4287 1.384 . S
H4290 C4296 0.930 . S
H4291 C4300 0.930 . S
H4292 C4305 0.929 . S
H4293 C4303 0.929 . S
H4294 C4298 0.929 . S
H4295 C4304 0.929 . S
C4296 H4290 0.930 . S
C4296 C4297 1.367 . S
C4296 C4304 1.378 . S
C4297 C4296 1.367 . S
C4297 C4305 1.433 . S
C4298 H4294 0.929 . S
C4298 C4300 1.378 . S
C4298 C4302 1.350 . S
C4299 C4302 1.463 . S
C4299 C4304 1.350 . S
C4299 N4307 1.427 . S
C4300 H4291 0.930 . S
C4300 C4298 1.378 . S
C4300 C4301 1.367 . S
C4301 C4300 1.367 . S
C4301 C4303 1.433 . S
C4302 C4298 1.350 . S
C4302 C4299 1.463 . S
C4302 N4306 1.427 . S
C4303 H4293 0.929 . S
C4303 C4301 1.433 . S
C4303 N4306 1.384 . S
C4304 H4295 0.929 . S
C4304 C4296 1.378 . S
C4304 C4299 1.350 . S
C4305 H4292 0.929 . S
C4305 C4297 1.433 . S
C4305 N4307 1.384 . S
N4306 C4302 1.427 . S
N4306 C4303 1.384 . S
N4307 C4299 1.427 . S
N4307 C4305 1.384 . S
H4308 C4314 0.930 . S
H4309 C4318 0.930 . S
H4310 C4323 0.929 . S
H4311 C4321 0.929 . S
H4312 C4316 0.929 . S
H4313 C4322 0.929 . S
C4314 H4308 0.930 . S
C4314 C4315 1.367 . S
C4314 C4322 1.378 . S
C4315 C4314 1.367 . S
C4315 C4323 1.433 . S
C4316 H4312 0.929 . S
C4316 C4318 1.378 . S
C4316 C4320 1.350 . S
C4317 C4320 1.463 . S
C4317 C4322 1.350 . S
C4317 N4325 1.427 . S
C4318 H4309 0.930 . S
C4318 C4316 1.378 . S
C4318 C4319 1.367 . S
C4319 C4318 1.367 . S
C4319 C4321 1.433 . S
C4320 C4316 1.350 . S
C4320 C4317 1.463 . S
C4320 N4324 1.427 . S
C4321 H4311 0.929 . S
C4321 C4319 1.433 . S
C4321 N4324 1.384 . S
C4322 H4313 0.929 . S
C4322 C4314 1.378 . S
C4322 C4317 1.350 . S
C4323 H4310 0.929 . S
C4323 C4315 1.433 . S
C4323 N4325 1.384 . S
N4324 C4320 1.427 . S
N4324 C4321 1.384 . S
N4325 C4317 1.427 . S
N4325 C4323 1.384 . S
H4326 C4332 0.930 . S
H4327 C4336 0.930 . S
H4328 C4341 0.929 . S
H4329 C4339 0.929 . S
H4330 C4334 0.929 . S
H4331 C4340 0.929 . S
C4332 H4326 0.930 . S
C4332 C4333 1.367 . S
C4332 C4340 1.378 . S
C4333 C4332 1.367 . S
C4333 C4341 1.433 . S
C4334 H4330 0.929 . S
C4334 C4336 1.378 . S
C4334 C4338 1.350 . S
C4335 C4338 1.463 . S
C4335 C4340 1.350 . S
C4335 N4343 1.427 . S
C4336 H4327 0.930 . S
C4336 C4334 1.378 . S
C4336 C4337 1.367 . S
C4337 C4336 1.367 . S
C4337 C4339 1.433 . S
C4338 C4334 1.350 . S
C4338 C4335 1.463 . S
C4338 N4342 1.427 . S
C4339 H4329 0.929 . S
C4339 C4337 1.433 . S
C4339 N4342 1.384 . S
C4340 H4331 0.929 . S
C4340 C4332 1.378 . S
C4340 C4335 1.350 . S
C4341 H4328 0.929 . S
C4341 C4333 1.433 . S
C4341 N4343 1.384 . S
N4342 C4338 1.427 . S
N4342 C4339 1.384 . S
N4343 C4335 1.427 . S
N4343 C4341 1.384 . S
H4344 C4350 0.930 . S
H4345 C4354 0.930 . S
H4346 C4359 0.929 . S
H4347 C4357 0.929 . S
H4348 C4352 0.929 . S
H4349 C4358 0.929 . S
C4350 H4344 0.930 . S
C4350 C4351 1.367 . S
C4350 C4358 1.378 . S
C4351 C4350 1.367 . S
C4351 C4359 1.433 . S
C4352 H4348 0.929 . S
C4352 C4354 1.378 . S
C4352 C4356 1.350 . S
C4353 C4356 1.463 . S
C4353 C4358 1.350 . S
C4353 N4361 1.427 . S
C4354 H4345 0.930 . S
C4354 C4352 1.378 . S
C4354 C4355 1.367 . S
C4355 C4354 1.367 . S
C4355 C4357 1.433 . S
C4356 C4352 1.350 . S
C4356 C4353 1.463 . S
C4356 N4360 1.427 . S
C4357 H4347 0.929 . S
C4357 C4355 1.433 . S
C4357 N4360 1.384 . S
C4358 H4349 0.929 . S
C4358 C4350 1.378 . S
C4358 C4353 1.350 . S
C4359 H4346 0.929 . S
C4359 C4351 1.433 . S
C4359 N4361 1.384 . S
N4360 C4356 1.427 . S
N4360 C4357 1.384 . S
N4361 C4353 1.427 . S
N4361 C4359 1.384 . S
H4362 C4368 0.930 . S
H4363 C4372 0.930 . S
H4364 C4377 0.929 . S
H4365 C4375 0.929 . S
H4366 C4370 0.929 . S
H4367 C4376 0.929 . S
C4368 H4362 0.930 . S
C4368 C4369 1.367 . S
C4368 C4376 1.378 . S
C4369 C4368 1.367 . S
C4369 C4377 1.433 . S
C4370 H4366 0.929 . S
C4370 C4372 1.378 . S
C4370 C4374 1.350 . S
C4371 C4374 1.463 . S
C4371 C4376 1.350 . S
C4371 N4379 1.427 . S
C4372 H4363 0.930 . S
C4372 C4370 1.378 . S
C4372 C4373 1.367 . S
C4373 C4372 1.367 . S
C4373 C4375 1.433 . S
C4374 C4370 1.350 . S
C4374 C4371 1.463 . S
C4374 N4378 1.427 . S
C4375 H4365 0.929 . S
C4375 C4373 1.433 . S
C4375 N4378 1.384 . S
C4376 H4367 0.929 . S
C4376 C4368 1.378 . S
C4376 C4371 1.350 . S
C4377 H4364 0.929 . S
C4377 C4369 1.433 . S
C4377 N4379 1.384 . S
N4378 C4374 1.427 . S
N4378 C4375 1.384 . S
N4379 C4371 1.427 . S
N4379 C4377 1.384 . S
H4380 C4386 0.930 . S
H4381 C4390 0.930 . S
H4382 C4395 0.929 . S
H4383 C4393 0.929 . S
H4384 C4388 0.929 . S
H4385 C4394 0.929 . S
C4386 H4380 0.930 . S
C4386 C4387 1.367 . S
C4386 C4394 1.378 . S
C4387 C4386 1.367 . S
C4387 C4395 1.433 . S
C4388 H4384 0.929 . S
C4388 C4390 1.378 . S
C4388 C4392 1.350 . S
C4389 C4392 1.463 . S
C4389 C4394 1.350 . S
C4389 N4397 1.427 . S
C4390 H4381 0.930 . S
C4390 C4388 1.378 . S
C4390 C4391 1.367 . S
C4391 C4390 1.367 . S
C4391 C4393 1.433 . S
C4392 C4388 1.350 . S
C4392 C4389 1.463 . S
C4392 N4396 1.427 . S
C4393 H4383 0.929 . S
C4393 C4391 1.433 . S
C4393 N4396 1.384 . S
C4394 H4385 0.929 . S
C4394 C4386 1.378 . S
C4394 C4389 1.350 . S
C4395 H4382 0.929 . S
C4395 C4387 1.433 . S
C4395 N4397 1.384 . S
N4396 C4392 1.427 . S
N4396 C4393 1.384 . S
N4397 C4389 1.427 . S
N4397 C4395 1.384 . S
H4398 C4404 0.930 . S
H4399 C4408 0.930 . S
H4400 C4413 0.929 . S
H4401 C4411 0.929 . S
H4402 C4406 0.929 . S
H4403 C4412 0.929 . S
C4404 H4398 0.930 . S
C4404 C4405 1.367 . S
C4404 C4412 1.378 . S
C4405 C4404 1.367 . S
C4405 C4413 1.433 . S
C4406 H4402 0.929 . S
C4406 C4408 1.378 . S
C4406 C4410 1.350 . S
C4407 C4410 1.463 . S
C4407 C4412 1.350 . S
C4407 N4415 1.427 . S
C4408 H4399 0.930 . S
C4408 C4406 1.378 . S
C4408 C4409 1.367 . S
C4409 C4408 1.367 . S
C4409 C4411 1.433 . S
C4410 C4406 1.350 . S
C4410 C4407 1.463 . S
C4410 N4414 1.427 . S
C4411 H4401 0.929 . S
C4411 C4409 1.433 . S
C4411 N4414 1.384 . S
C4412 H4403 0.929 . S
C4412 C4404 1.378 . S
C4412 C4407 1.350 . S
C4413 H4400 0.929 . S
C4413 C4405 1.433 . S
C4413 N4415 1.384 . S
N4414 C4410 1.427 . S
N4414 C4411 1.384 . S
N4415 C4407 1.427 . S
N4415 C4413 1.384 . S
H4416 C4422 0.930 . S
H4417 C4426 0.930 . S
H4418 C4431 0.929 . S
H4419 C4429 0.929 . S
H4420 C4424 0.929 . S
H4421 C4430 0.929 . S
C4422 H4416 0.930 . S
C4422 C4423 1.367 . S
C4422 C4430 1.378 . S
C4423 C4422 1.367 . S
C4423 C4431 1.433 . S
C4424 H4420 0.929 . S
C4424 C4426 1.378 . S
C4424 C4428 1.350 . S
C4425 C4428 1.463 . S
C4425 C4430 1.350 . S
C4425 N4433 1.427 . S
C4426 H4417 0.930 . S
C4426 C4424 1.378 . S
C4426 C4427 1.367 . S
C4427 C4426 1.367 . S
C4427 C4429 1.433 . S
C4428 C4424 1.350 . S
C4428 C4425 1.463 . S
C4428 N4432 1.427 . S
C4429 H4419 0.929 . S
C4429 C4427 1.433 . S
C4429 N4432 1.384 . S
C4430 H4421 0.929 . S
C4430 C4422 1.378 . S
C4430 C4425 1.350 . S
C4431 H4418 0.929 . S
C4431 C4423 1.433 . S
C4431 N4433 1.384 . S
N4432 C4428 1.427 . S
N4432 C4429 1.384 . S
N4433 C4425 1.427 . S
N4433 C4431 1.384 . S
H4434 C4440 0.930 . S
H4435 C4444 0.930 . S
H4436 C4449 0.929 . S
H4437 C4447 0.929 . S
H4438 C4442 0.929 . S
H4439 C4448 0.929 . S
C4440 H4434 0.930 . S
C4440 C4441 1.367 . S
C4440 C4448 1.378 . S
C4441 C4440 1.367 . S
C4441 C4449 1.433 . S
C4442 H4438 0.929 . S
C4442 C4444 1.378 . S
C4442 C4446 1.350 . S
C4443 C4446 1.463 . S
C4443 C4448 1.350 . S
C4443 N4451 1.427 . S
C4444 H4435 0.930 . S
C4444 C4442 1.378 . S
C4444 C4445 1.367 . S
C4445 C4444 1.367 . S
C4445 C4447 1.433 . S
C4446 C4442 1.350 . S
C4446 C4443 1.463 . S
C4446 N4450 1.427 . S
C4447 H4437 0.929 . S
C4447 C4445 1.433 . S
C4447 N4450 1.384 . S
C4448 H4439 0.929 . S
C4448 C4440 1.378 . S
C4448 C4443 1.350 . S
C4449 H4436 0.929 . S
C4449 C4441 1.433 . S
C4449 N4451 1.384 . S
N4450 C4446 1.427 . S
N4450 C4447 1.384 . S
N4451 C4443 1.427 . S
N4451 C4449 1.384 . S
H4452 C4458 0.930 . S
H4453 C4462 0.930 . S
H4454 C4467 0.929 . S
H4455 C4465 0.929 . S
H4456 C4460 0.929 . S
H4457 C4466 0.929 . S
C4458 H4452 0.930 . S
C4458 C4459 1.367 . S
C4458 C4466 1.378 . S
C4459 C4458 1.367 . S
C4459 C4467 1.433 . S
C4460 H4456 0.929 . S
C4460 C4462 1.378 . S
C4460 C4464 1.350 . S
C4461 C4464 1.463 . S
C4461 C4466 1.350 . S
C4461 N4469 1.427 . S
C4462 H4453 0.930 . S
C4462 C4460 1.378 . S
C4462 C4463 1.367 . S
C4463 C4462 1.367 . S
C4463 C4465 1.433 . S
C4464 C4460 1.350 . S
C4464 C4461 1.463 . S
C4464 N4468 1.427 . S
C4465 H4455 0.929 . S
C4465 C4463 1.433 . S
C4465 N4468 1.384 . S
C4466 H4457 0.929 . S
C4466 C4458 1.378 . S
C4466 C4461 1.350 . S
C4467 H4454 0.929 . S
C4467 C4459 1.433 . S
C4467 N4469 1.384 . S
N4468 C4464 1.427 . S
N4468 C4465 1.384 . S
N4469 C4461 1.427 . S
N4469 C4467 1.384 . S
H4470 C4476 0.930 . S
H4471 C4480 0.930 . S
H4472 C4485 0.929 . S
H4473 C4483 0.929 . S
H4474 C4478 0.929 . S
H4475 C4484 0.929 . S
C4476 H4470 0.930 . S
C4476 C4477 1.367 . S
C4476 C4484 1.378 . S
C4477 C4476 1.367 . S
C4477 C4485 1.433 . S
C4478 H4474 0.929 . S
C4478 C4480 1.378 . S
C4478 C4482 1.350 . S
C4479 C4482 1.463 . S
C4479 C4484 1.350 . S
C4479 N4487 1.427 . S
C4480 H4471 0.930 . S
C4480 C4478 1.378 . S
C4480 C4481 1.367 . S
C4481 C4480 1.367 . S
C4481 C4483 1.433 . S
C4482 C4478 1.350 . S
C4482 C4479 1.463 . S
C4482 N4486 1.427 . S
C4483 H4473 0.929 . S
C4483 C4481 1.433 . S
C4483 N4486 1.384 . S
C4484 H4475 0.929 . S
C4484 C4476 1.378 . S
C4484 C4479 1.350 . S
C4485 H4472 0.929 . S
C4485 C4477 1.433 . S
C4485 N4487 1.384 . S
N4486 C4482 1.427 . S
N4486 C4483 1.384 . S
N4487 C4479 1.427 . S
N4487 C4485 1.384 . S
H4488 C4494 0.930 . S
H4489 C4498 0.930 . S
H4490 C4503 0.929 . S
H4491 C4501 0.929 . S
H4492 C4496 0.929 . S
H4493 C4502 0.929 . S
C4494 H4488 0.930 . S
C4494 C4495 1.367 . S
C4494 C4502 1.378 . S
C4495 C4494 1.367 . S
C4495 C4503 1.433 . S
C4496 H4492 0.929 . S
C4496 C4498 1.378 . S
C4496 C4500 1.350 . S
C4497 C4500 1.463 . S
C4497 C4502 1.350 . S
C4497 N4505 1.427 . S
C4498 H4489 0.930 . S
C4498 C4496 1.378 . S
C4498 C4499 1.367 . S
C4499 C4498 1.367 . S
C4499 C4501 1.433 . S
C4500 C4496 1.350 . S
C4500 C4497 1.463 . S
C4500 N4504 1.427 . S
C4501 H4491 0.929 . S
C4501 C4499 1.433 . S
C4501 N4504 1.384 . S
C4502 H4493 0.929 . S
C4502 C4494 1.378 . S
C4502 C4497 1.350 . S
C4503 H4490 0.929 . S
C4503 C4495 1.433 . S
C4503 N4505 1.384 . S
N4504 C4500 1.427 . S
N4504 C4501 1.384 . S
N4505 C4497 1.427 . S
N4505 C4503 1.384 . S
H4506 C4512 0.930 . S
H4507 C4516 0.930 . S
H4508 C4521 0.929 . S
H4509 C4519 0.929 . S
H4510 C4514 0.929 . S
H4511 C4520 0.929 . S
C4512 H4506 0.930 . S
C4512 C4513 1.367 . S
C4512 C4520 1.378 . S
C4513 C4512 1.367 . S
C4513 C4521 1.433 . S
C4514 H4510 0.929 . S
C4514 C4516 1.378 . S
C4514 C4518 1.350 . S
C4515 C4518 1.463 . S
C4515 C4520 1.350 . S
C4515 N4523 1.427 . S
C4516 H4507 0.930 . S
C4516 C4514 1.378 . S
C4516 C4517 1.367 . S
C4517 C4516 1.367 . S
C4517 C4519 1.433 . S
C4518 C4514 1.350 . S
C4518 C4515 1.463 . S
C4518 N4522 1.427 . S
C4519 H4509 0.929 . S
C4519 C4517 1.433 . S
C4519 N4522 1.384 . S
C4520 H4511 0.929 . S
C4520 C4512 1.378 . S
C4520 C4515 1.350 . S
C4521 H4508 0.929 . S
C4521 C4513 1.433 . S
C4521 N4523 1.384 . S
N4522 C4518 1.427 . S
N4522 C4519 1.384 . S
N4523 C4515 1.427 . S
N4523 C4521 1.384 . S
H4524 C4530 0.930 . S
H4525 C4534 0.930 . S
H4526 C4539 0.929 . S
H4527 C4537 0.929 . S
H4528 C4532 0.929 . S
H4529 C4538 0.929 . S
C4530 H4524 0.930 . S
C4530 C4531 1.367 . S
C4530 C4538 1.378 . S
C4531 C4530 1.367 . S
C4531 C4539 1.433 . S
C4532 H4528 0.929 . S
C4532 C4534 1.378 . S
C4532 C4536 1.350 . S
C4533 C4536 1.463 . S
C4533 C4538 1.350 . S
C4533 N4541 1.427 . S
C4534 H4525 0.930 . S
C4534 C4532 1.378 . S
C4534 C4535 1.367 . S
C4535 C4534 1.367 . S
C4535 C4537 1.433 . S
C4536 C4532 1.350 . S
C4536 C4533 1.463 . S
C4536 N4540 1.427 . S
C4537 H4527 0.929 . S
C4537 C4535 1.433 . S
C4537 N4540 1.384 . S
C4538 H4529 0.929 . S
C4538 C4530 1.378 . S
C4538 C4533 1.350 . S
C4539 H4526 0.929 . S
C4539 C4531 1.433 . S
C4539 N4541 1.384 . S
N4540 C4536 1.427 . S
N4540 C4537 1.384 . S
N4541 C4533 1.427 . S
N4541 C4539 1.384 . S
H4542 C4548 0.930 . S
H4543 C4552 0.930 . S
H4544 C4557 0.929 . S
H4545 C4555 0.929 . S
H4546 C4550 0.929 . S
H4547 C4556 0.929 . S
C4548 H4542 0.930 . S
C4548 C4549 1.367 . S
C4548 C4556 1.378 . S
C4549 C4548 1.367 . S
C4549 C4557 1.433 . S
C4550 H4546 0.929 . S
C4550 C4552 1.378 . S
C4550 C4554 1.350 . S
C4551 C4554 1.463 . S
C4551 C4556 1.350 . S
C4551 N4559 1.427 . S
C4552 H4543 0.930 . S
C4552 C4550 1.378 . S
C4552 C4553 1.367 . S
C4553 C4552 1.367 . S
C4553 C4555 1.433 . S
C4554 C4550 1.350 . S
C4554 C4551 1.463 . S
C4554 N4558 1.427 . S
C4555 H4545 0.929 . S
C4555 C4553 1.433 . S
C4555 N4558 1.384 . S
C4556 H4547 0.929 . S
C4556 C4548 1.378 . S
C4556 C4551 1.350 . S
C4557 H4544 0.929 . S
C4557 C4549 1.433 . S
C4557 N4559 1.384 . S
N4558 C4554 1.427 . S
N4558 C4555 1.384 . S
N4559 C4551 1.427 . S
N4559 C4557 1.384 . S
H4560 C4566 0.930 . S
H4561 C4570 0.930 . S
H4562 C4575 0.929 . S
H4563 C4573 0.929 . S
H4564 C4568 0.929 . S
H4565 C4574 0.929 . S
C4566 H4560 0.930 . S
C4566 C4567 1.367 . S
C4566 C4574 1.378 . S
C4567 C4566 1.367 . S
C4567 C4575 1.433 . S
C4568 H4564 0.929 . S
C4568 C4570 1.378 . S
C4568 C4572 1.350 . S
C4569 C4572 1.463 . S
C4569 C4574 1.350 . S
C4569 N4577 1.427 . S
C4570 H4561 0.930 . S
C4570 C4568 1.378 . S
C4570 C4571 1.367 . S
C4571 C4570 1.367 . S
C4571 C4573 1.433 . S
C4572 C4568 1.350 . S
C4572 C4569 1.463 . S
C4572 N4576 1.427 . S
C4573 H4563 0.929 . S
C4573 C4571 1.433 . S
C4573 N4576 1.384 . S
C4574 H4565 0.929 . S
C4574 C4566 1.378 . S
C4574 C4569 1.350 . S
C4575 H4562 0.929 . S
C4575 C4567 1.433 . S
C4575 N4577 1.384 . S
N4576 C4572 1.427 . S
N4576 C4573 1.384 . S
N4577 C4569 1.427 . S
N4577 C4575 1.384 . S
H4578 C4584 0.930 . S
H4579 C4588 0.930 . S
H4580 C4593 0.929 . S
H4581 C4591 0.929 . S
H4582 C4586 0.929 . S
H4583 C4592 0.929 . S
C4584 H4578 0.930 . S
C4584 C4585 1.367 . S
C4584 C4592 1.378 . S
C4585 C4584 1.367 . S
C4585 C4593 1.433 . S
C4586 H4582 0.929 . S
C4586 C4588 1.378 . S
C4586 C4590 1.350 . S
C4587 C4590 1.463 . S
C4587 C4592 1.350 . S
C4587 N4595 1.427 . S
C4588 H4579 0.930 . S
C4588 C4586 1.378 . S
C4588 C4589 1.367 . S
C4589 C4588 1.367 . S
C4589 C4591 1.433 . S
C4590 C4586 1.350 . S
C4590 C4587 1.463 . S
C4590 N4594 1.427 . S
C4591 H4581 0.929 . S
C4591 C4589 1.433 . S
C4591 N4594 1.384 . S
C4592 H4583 0.929 . S
C4592 C4584 1.378 . S
C4592 C4587 1.350 . S
C4593 H4580 0.929 . S
C4593 C4585 1.433 . S
C4593 N4595 1.384 . S
N4594 C4590 1.427 . S
N4594 C4591 1.384 . S
N4595 C4587 1.427 . S
N4595 C4593 1.384 . S
H4596 C4602 0.930 . S
H4597 C4606 0.930 . S
H4598 C4611 0.929 . S
H4599 C4609 0.929 . S
H4600 C4604 0.929 . S
H4601 C4610 0.929 . S
C4602 H4596 0.930 . S
C4602 C4603 1.367 . S
C4602 C4610 1.378 . S
C4603 C4602 1.367 . S
C4603 C4611 1.433 . S
C4604 H4600 0.929 . S
C4604 C4606 1.378 . S
C4604 C4608 1.350 . S
C4605 C4608 1.463 . S
C4605 C4610 1.350 . S
C4605 N4613 1.427 . S
C4606 H4597 0.930 . S
C4606 C4604 1.378 . S
C4606 C4607 1.367 . S
C4607 C4606 1.367 . S
C4607 C4609 1.433 . S
C4608 C4604 1.350 . S
C4608 C4605 1.463 . S
C4608 N4612 1.427 . S
C4609 H4599 0.929 . S
C4609 C4607 1.433 . S
C4609 N4612 1.384 . S
C4610 H4601 0.929 . S
C4610 C4602 1.378 . S
C4610 C4605 1.350 . S
C4611 H4598 0.929 . S
C4611 C4603 1.433 . S
C4611 N4613 1.384 . S
N4612 C4608 1.427 . S
N4612 C4609 1.384 . S
N4613 C4605 1.427 . S
N4613 C4611 1.384 . S
H4614 C4620 0.930 . S
H4615 C4624 0.930 . S
H4616 C4629 0.929 . S
H4617 C4627 0.929 . S
H4618 C4622 0.929 . S
H4619 C4628 0.929 . S
C4620 H4614 0.930 . S
C4620 C4621 1.367 . S
C4620 C4628 1.378 . S
C4621 C4620 1.367 . S
C4621 C4629 1.433 . S
C4622 H4618 0.929 . S
C4622 C4624 1.378 . S
C4622 C4626 1.350 . S
C4623 C4626 1.463 . S
C4623 C4628 1.350 . S
C4623 N4631 1.427 . S
C4624 H4615 0.930 . S
C4624 C4622 1.378 . S
C4624 C4625 1.367 . S
C4625 C4624 1.367 . S
C4625 C4627 1.433 . S
C4626 C4622 1.350 . S
C4626 C4623 1.463 . S
C4626 N4630 1.427 . S
C4627 H4617 0.929 . S
C4627 C4625 1.433 . S
C4627 N4630 1.384 . S
C4628 H4619 0.929 . S
C4628 C4620 1.378 . S
C4628 C4623 1.350 . S
C4629 H4616 0.929 . S
C4629 C4621 1.433 . S
C4629 N4631 1.384 . S
N4630 C4626 1.427 . S
N4630 C4627 1.384 . S
N4631 C4623 1.427 . S
N4631 C4629 1.384 . S
H4632 C4638 0.930 . S
H4633 C4642 0.930 . S
H4634 C4647 0.929 . S
H4635 C4645 0.929 . S
H4636 C4640 0.929 . S
H4637 C4646 0.929 . S
C4638 H4632 0.930 . S
C4638 C4639 1.367 . S
C4638 C4646 1.378 . S
C4639 C4638 1.367 . S
C4639 C4647 1.433 . S
C4640 H4636 0.929 . S
C4640 C4642 1.378 . S
C4640 C4644 1.350 . S
C4641 C4644 1.463 . S
C4641 C4646 1.350 . S
C4641 N4649 1.427 . S
C4642 H4633 0.930 . S
C4642 C4640 1.378 . S
C4642 C4643 1.367 . S
C4643 C4642 1.367 . S
C4643 C4645 1.433 . S
C4644 C4640 1.350 . S
C4644 C4641 1.463 . S
C4644 N4648 1.427 . S
C4645 H4635 0.929 . S
C4645 C4643 1.433 . S
C4645 N4648 1.384 . S
C4646 H4637 0.929 . S
C4646 C4638 1.378 . S
C4646 C4641 1.350 . S
C4647 H4634 0.929 . S
C4647 C4639 1.433 . S
C4647 N4649 1.384 . S
N4648 C4644 1.427 . S
N4648 C4645 1.384 . S
N4649 C4641 1.427 . S
N4649 C4647 1.384 . S
H4650 C4656 0.930 . S
H4651 C4660 0.930 . S
H4652 C4665 0.929 . S
H4653 C4663 0.929 . S
H4654 C4658 0.929 . S
H4655 C4664 0.929 . S
C4656 H4650 0.930 . S
C4656 C4657 1.367 . S
C4656 C4664 1.378 . S
C4657 C4656 1.367 . S
C4657 C4665 1.433 . S
C4658 H4654 0.929 . S
C4658 C4660 1.378 . S
C4658 C4662 1.350 . S
C4659 C4662 1.463 . S
C4659 C4664 1.350 . S
C4659 N4667 1.427 . S
C4660 H4651 0.930 . S
C4660 C4658 1.378 . S
C4660 C4661 1.367 . S
C4661 C4660 1.367 . S
C4661 C4663 1.433 . S
C4662 C4658 1.350 . S
C4662 C4659 1.463 . S
C4662 N4666 1.427 . S
C4663 H4653 0.929 . S
C4663 C4661 1.433 . S
C4663 N4666 1.384 . S
C4664 H4655 0.929 . S
C4664 C4656 1.378 . S
C4664 C4659 1.350 . S
C4665 H4652 0.929 . S
C4665 C4657 1.433 . S
C4665 N4667 1.384 . S
N4666 C4662 1.427 . S
N4666 C4663 1.384 . S
N4667 C4659 1.427 . S
N4667 C4665 1.384 . S
H4668 C4674 0.930 . S
H4669 C4678 0.930 . S
H4670 C4683 0.929 . S
H4671 C4681 0.929 . S
H4672 C4676 0.929 . S
H4673 C4682 0.929 . S
C4674 H4668 0.930 . S
C4674 C4675 1.367 . S
C4674 C4682 1.378 . S
C4675 C4674 1.367 . S
C4675 C4683 1.433 . S
C4676 H4672 0.929 . S
C4676 C4678 1.378 . S
C4676 C4680 1.350 . S
C4677 C4680 1.463 . S
C4677 C4682 1.350 . S
C4677 N4685 1.427 . S
C4678 H4669 0.930 . S
C4678 C4676 1.378 . S
C4678 C4679 1.367 . S
C4679 C4678 1.367 . S
C4679 C4681 1.433 . S
C4680 C4676 1.350 . S
C4680 C4677 1.463 . S
C4680 N4684 1.427 . S
C4681 H4671 0.929 . S
C4681 C4679 1.433 . S
C4681 N4684 1.384 . S
C4682 H4673 0.929 . S
C4682 C4674 1.378 . S
C4682 C4677 1.350 . S
C4683 H4670 0.929 . S
C4683 C4675 1.433 . S
C4683 N4685 1.384 . S
N4684 C4680 1.427 . S
N4684 C4681 1.384 . S
N4685 C4677 1.427 . S
N4685 C4683 1.384 . S
H4686 C4692 0.930 . S
H4687 C4696 0.930 . S
H4688 C4701 0.929 . S
H4689 C4699 0.929 . S
H4690 C4694 0.929 . S
H4691 C4700 0.929 . S
C4692 H4686 0.930 . S
C4692 C4693 1.367 . S
C4692 C4700 1.378 . S
C4693 C4692 1.367 . S
C4693 C4701 1.433 . S
C4694 H4690 0.929 . S
C4694 C4696 1.378 . S
C4694 C4698 1.350 . S
C4695 C4698 1.463 . S
C4695 C4700 1.350 . S
C4695 N4703 1.427 . S
C4696 H4687 0.930 . S
C4696 C4694 1.378 . S
C4696 C4697 1.367 . S
C4697 C4696 1.367 . S
C4697 C4699 1.433 . S
C4698 C4694 1.350 . S
C4698 C4695 1.463 . S
C4698 N4702 1.427 . S
C4699 H4689 0.929 . S
C4699 C4697 1.433 . S
C4699 N4702 1.384 . S
C4700 H4691 0.929 . S
C4700 C4692 1.378 . S
C4700 C4695 1.350 . S
C4701 H4688 0.929 . S
C4701 C4693 1.433 . S
C4701 N4703 1.384 . S
N4702 C4698 1.427 . S
N4702 C4699 1.384 . S
N4703 C4695 1.427 . S
N4703 C4701 1.384 . S
C1255 C5 1.392 . S
C1259 C120 1.402 . S
C1273 C133 1.392 . S
C1277 C18 1.402 . S
C1291 C29 1.395 . S
C1295 C148 1.400 . S
C1309 C44 1.399 . S
C1313 C107 1.393 . S
C1327 C57 1.402 . S
C1331 C198 1.392 . S
C1345 C159 1.402 . S
C1349 C68 1.392 . S
C1363 C83 1.392 . S
C1367 C172 1.400 . S
C1381 C185 1.392 . S
C1385 C96 1.401 . S
C1399 C237 1.393 . S
C1403 C211 1.399 . S
C1417 C224 1.395 . S
C1421 C913 1.397 . S
C1435 C926 1.392 . S
C1439 C250 1.402 . S
C1453 C263 1.392 . S
C1457 C900 1.402 . S
C1471 C887 1.392 . S
C1475 C276 1.402 . S
C1489 C848 1.392 . S
C1493 C291 1.402 . S
C1507 C304 1.402 . S
C1511 C874 1.392 . S
C1525 C315 1.398 . S
C1529 C434 1.398 . S
C1543 C330 1.402 . S
C1547 C447 1.392 . S
C1561 C458 1.398 . S
C1565 C341 1.397 . S
C1579 C419 1.393 . S
C1583 C356 1.400 . S
C1597 C512 1.401 . S
C1601 C367 1.392 . S
C1615 C380 1.402 . S
C1619 C471 1.392 . S
C1633 C395 1.399 . S
C1637 C486 1.393 . S
C1651 C406 1.402 . S
C1655 C497 1.392 . S
C1669 C525 1.400 . S
C1673 C551 1.395 . S
C1687 C536 1.392 . S
C1691 C1227 1.402 . S
C1705 C1238 1.395 . S
C1709 C562 1.397 . S
C1723 C575 1.396 . S
C1727 C1212 1.396 . S
C1741 C588 1.402 . S
C1745 C1201 1.392 . S
C1759 C603 1.392 . S
C1763 C1160 1.402 . S
C1777 C614 1.396 . S
C1781 C1188 1.400 . S
C1795 C627 1.392 . S
C1799 C744 1.401 . S
C1813 C759 1.400 . S
C1817 C640 1.395 . S
C1831 C770 1.396 . S
C1835 C653 1.399 . S
C1849 C668 1.392 . S
C1853 C731 1.401 . S
C1867 C681 1.397 . S
C1871 C822 1.395 . S
C1885 C694 1.399 . S
C1889 C785 1.394 . S
C1903 C707 1.393 . S
C1907 C796 1.402 . S
C1921 C811 1.392 . S
C1925 C720 1.402 . S
C1939 C837 1.398 . S
C1943 C863 1.394 . S
C1957 C941 1.402 . S
C1961 C1056 1.392 . S
C1975 C952 1.402 . S
C1979 C1069 1.392 . S
C1993 C1082 1.402 . S
C1997 C967 1.392 . S
C2011 C1045 1.395 . S
C2015 C978 1.397 . S
C2029 C991 1.392 . S
C2033 C1134 1.402 . S
C2047 C1095 1.395 . S
C2051 C1004 1.397 . S
C2065 C1108 1.402 . S
C2069 C1019 1.393 . S
C2083 C1121 1.399 . S
C2087 C1032 1.396 . S
C2101 C1147 1.392 . S
C2105 C1175 1.401 . S
C2119 C10 1.469 1_655 S
C2123 C264 1.474 . S
C2137 C23 1.475 . S
C2141 C849 1.469 . S
C2155 C868 1.475 . S
C2159 C30 1.470 . S
C2173 C875 1.473 1_554 S
C2177 C49 1.470 . S
C2191 C62 1.475 1_655 S
C2195 C927 1.469 . S
C2209 C277 1.475 . S
C2213 C69 1.469 . S
C2227 C88 1.469 . S
C2231 C914 1.474 . S
C2245 C101 1.475 . S
C2249 C212 1.469 1_556 S
C2263 C108 1.471 1_565 S
C2267 C199 1.472 . S
C2281 C160 1.472 1_545 S
C2285 C121 1.473 . S
C2299 C134 1.474 1_545 S
C2303 C173 1.471 . S
C2317 C153 1.473 . S
C2321 C186 1.472 1_565 S
C2335 C641 1.474 . S
C2339 C225 1.470 1_554 S
C2353 C654 1.474 1_455 S
C2357 C238 1.470 . S
C2371 C673 1.472 . S
C2375 C251 1.471 . S
C2389 C712 1.474 1_455 S
C2393 C296 1.469 . S
C2407 C309 1.469 . S
C2411 C686 1.474 . S
C2425 C316 1.474 1_455 S
C2429 C576 1.469 . S
C2443 C335 1.469 . S
C2447 C1161 1.475 . S
C2461 C1180 1.470 . S
C2465 C342 1.474 . S
C2479 C1193 1.475 1_556 S
C2483 C361 1.469 . S
C2497 C1239 1.470 . S
C2501 C368 1.473 1_455 S
C2515 C589 1.474 . S
C2519 C381 1.470 . S
C2533 C400 1.471 . S
C2537 C1232 1.472 . S
C2551 C407 1.469 . S
C2555 C530 1.475 1_554 S
C2569 C517 1.470 . S
C2573 C420 1.474 1_545 S
C2587 C439 1.474 . S
C2591 C472 1.469 1_565 S
C2605 C491 1.474 . S
C2609 C452 1.469 1_565 S
C2623 C459 1.473 . S
C2627 C498 1.470 1_545 S
C2641 C953 1.469 . S
C2645 C537 1.475 1_556 S
C2659 C556 1.470 . S
C2663 C972 1.473 1_655 S
C2677 C563 1.469 . S
C2681 C979 1.475 . S
C2695 C608 1.469 . S
C2699 C1024 1.475 1_655 S
C2713 C615 1.470 . S
C2717 C992 1.474 . S
C2731 C628 1.470 . S
C2735 C888 1.473 . S
C2749 C901 1.469 1_556 S
C2753 C699 1.474 . S
C2767 C725 1.473 . S
C2771 C842 1.471 . S
C2785 C823 1.474 . S
C2789 C732 1.469 . S
C2803 C790 1.469 . S
C2807 C745 1.475 . S
C2821 C764 1.471 . S
C2825 C797 1.471 . S
C2839 C771 1.470 . S
C2843 C816 1.473 . S
C2857 C1206 1.473 . S
C2861 C946 1.471 . S
C2875 C1005 1.469 . S
C2879 C1213 1.475 1_554 S
C2893 C1148 1.469 . S
C2897 C1037 1.474 . S
C2911 C1050 1.473 . S
C2915 C1135 1.472 . S
C2929 C1096 1.475 . S
C2933 C1057 1.469 . S
C2947 C1070 1.469 . S
C2951 C1109 1.475 . S
C2965 C1122 1.475 . S
C2969 C1083 1.470 . S
C2983 C3 1.296 . S
C2987 C569 1.258 . S
C3001 C582 1.271 . S
C3005 C16 1.301 . S
C3019 C543 1.257 . S
C3023 C31 1.294 . S
C3037 C42 1.294 . S
C3041 C1174 1.255 . S
C3055 C55 1.297 . S
C3059 C1219 1.260 . S
C3073 C70 1.300 . S
C3077 C1226 1.270 . S
C3091 C1154 1.267 . S
C3095 C81 1.300 . S
C3109 C1245 1.255 . S
C3113 C94 1.294 . S
C3127 C348 1.255 . S
C3131 C109 1.294 . S
C3145 C122 1.294 . S
C3149 C985 1.255 . S
C3163 C322 1.264 . S
C3167 C135 1.299 . S
C3181 C959 1.255 . S
C3185 C146 1.294 . S
C3199 C394 1.257 . S
C3203 C161 1.295 . S
C3217 C174 1.296 . S
C3221 C1031 1.257 . S
C3235 C187 1.294 . S
C3239 C374 1.255 . S
C3253 C200 1.297 . S
C3257 C1011 1.264 . S
C3271 C213 1.300 . S
C3275 C1102 1.269 . S
C3289 C426 1.256 . S
C3293 C226 1.295 . S
C3307 C239 1.294 . S
C3311 C1063 1.257 . S
C3325 C252 1.294 . S
C3329 C446 1.255 . S
C3343 C265 1.294 . S
C3347 C465 1.255 . S
C3361 C278 1.300 . S
C3365 C1128 1.267 . S
C3379 C1141 1.271 . S
C3383 C289 1.300 . S
C3397 C1115 1.257 . S
C3401 C302 1.296 . S
C3415 C257 1.268 . S
C3419 C317 1.299 . S
C3433 C328 1.297 . S
C3437 C270 1.265 . S
C3451 C343 1.294 . S
C3455 C231 1.256 . S
C3469 C354 1.301 . S
C3473 C862 1.270 . S
C3487 C907 1.268 . S
C3491 C369 1.299 . S
C3505 C920 1.256 . S
C3509 C382 1.294 . S
C3523 C393 1.295 . S
C3527 C836 1.258 . S
C3541 C933 1.266 . S
C3545 C408 1.299 . S
C3559 C421 1.294 . S
C3563 C36 1.254 . S
C3577 C667 1.261 . S
C3581 C432 1.296 . S
C3595 C445 1.298 . S
C3599 C4 1.267 . S
C3613 C647 1.255 . S
C3617 C460 1.294 . S
C3631 C473 1.295 . S
C3635 C82 1.256 . S
C3649 C719 1.265 . S
C3653 C484 1.299 . S
C3667 C56 1.256 . S
C3671 C499 1.294 . S
C3685 C693 1.256 . S
C3689 C510 1.295 . S
C3703 C523 1.294 . S
C3707 C784 1.255 . S
C3721 C538 1.294 . S
C3725 C114 1.255 . S
C3739 C751 1.270 . S
C3743 C549 1.300 . S
C3757 C564 1.295 . S
C3761 C140 1.258 . S
C3775 C147 1.271 . S
C3779 C577 1.301 . S
C3793 C810 1.256 . S
C3797 C590 1.294 . S
C3811 C829 1.255 . S
C3815 C601 1.294 . S
C3829 C803 1.254 . S
C3833 C616 1.294 . S
C3847 C629 1.298 . S
C3851 C1187 1.262 . S
C3865 C642 1.299 . S
C3869 C1200 1.266 . S
C3883 C655 1.295 . S
C3887 C1167 1.256 . S
C3901 C550 1.271 . S
C3905 C666 1.301 . S
C3919 C679 1.297 . S
C3923 C595 1.260 . S
C3937 C602 1.268 . S
C3941 C692 1.300 . S
C3955 C524 1.266 . S
C3959 C705 1.298 . S
C3973 C621 1.265 . S
C3977 C718 1.299 . S
C3991 C733 1.295 . S
C3995 C966 1.255 . S
C4009 C355 1.256 . S
C4013 C746 1.295 . S
C4027 C757 1.294 . S
C4031 C940 1.255 . S
C4045 C772 1.301 . S
C4049 C329 1.270 . S
C4063 C783 1.301 . S
C4067 C1018 1.271 . S
C4081 C798 1.296 . S
C4085 C413 1.258 . S
C4099 C998 1.257 . S
C4103 C809 1.295 . S
C4117 C387 1.262 . S
C4121 C824 1.296 . S
C4135 C835 1.295 . S
C4139 C478 1.258 . S
C4153 C850 1.294 . S
C4157 C1044 1.255 . S
C4171 C861 1.295 . S
C4175 C433 1.259 . S
C4189 C1076 1.260 . S
C4193 C876 1.297 . S
C4207 C889 1.294 . S
C4211 C1089 1.255 . S
C4225 C902 1.294 . S
C4229 C504 1.255 . S
C4243 C511 1.267 . S
C4247 C915 1.298 . S
C4261 C928 1.294 . S
C4265 C485 1.255 . S
C4279 C939 1.295 . S
C4283 C881 1.258 . S
C4297 C894 1.262 . S
C4301 C954 1.296 . S
C4315 C855 1.261 . S
C4319 C965 1.297 . S
C4333 C980 1.299 . S
C4337 C244 1.269 . S
C4351 C993 1.297 . S
C4355 C283 1.265 . S
C4369 C1006 1.300 . S
C4373 C290 1.270 . S
C4387 C218 1.255 . S
C4391 C1017 1.294 . S
C4405 C1030 1.294 . S
C4409 C303 1.255 . S
C4423 C1043 1.295 . S
C4427 C660 1.257 . S
C4441 C1058 1.295 . S
C4445 C43 1.260 . S
C4459 C1071 1.296 . S
C4463 C634 1.259 . S
C4477 C1084 1.300 . S
C4481 C17 1.268 . S
C4495 C1097 1.295 . S
C4499 C706 1.257 . S
C4513 C1110 1.295 . S
C4517 C95 1.256 . S
C4531 C1123 1.294 . S
C4535 C680 1.256 . S
C4549 C1136 1.295 . S
C4553 C75 1.259 . S
C4567 C1149 1.301 . S
C4571 C166 1.271 . S
C4585 C1162 1.294 . S
C4589 C738 1.255 . S
C4603 C1173 1.294 . S
C4607 C127 1.254 . S
C4621 C1186 1.294 . S
C4625 C758 1.255 . S
C4639 C1199 1.294 . S
C4643 C777 1.255 . S
C4657 C192 1.255 . S
C4661 C1214 1.294 . S
C4675 C1225 1.299 . S
C4679 C205 1.268 . S
C4693 C1240 1.294 . S
C4697 C179 1.255 . S
