# Generated by pormake.
# Topology acs-f, (3)-cn, num edge types: 1
# Building blocks:
#     Node 0, Type 0, BuildingBlock: OLANEW_clean_sbu_2, # of connection points: 3
#     Node 1, Type 0, BuildingBlock: OLANEW_clean_sbu_2, # of connection points: 3
#     Node 2, Type 0, BuildingBlock: OLANEW_clean_sbu_2, # of connection points: 3
#     Node 3, Type 0, BuildingBlock: OLANEW_clean_sbu_2, # of connection points: 3
#     Node 4, Type 0, BuildingBlock: OLANEW_clean_sbu_2, # of connection points: 3
#     Node 5, Type 0, BuildingBlock: OLANEW_clean_sbu_2, # of connection points: 3
#     Node 6, Type 0, BuildingBlock: OLANEW_clean_sbu_2, # of connection points: 3
#     Node 7, Type 0, BuildingBlock: OLANEW_clean_sbu_2, # of connection points: 3
#     Node 8, Type 0, BuildingBlock: OLANEW_clean_sbu_2, # of connection points: 3
#     Node 9, Type 0, BuildingBlock: OLANEW_clean_sbu_2, # of connection points: 3
#     Node 10, Type 0, BuildingBlock: OLANEW_clean_sbu_2, # of connection points: 3
#     Node 11, Type 0, BuildingBlock: OLANEW_clean_sbu_2, # of connection points: 3
#     Edge 12, Type (0, 0), BuildingBlock: EZIPEK_clean_linker_0, # of connection points: 2
#     Edge 13, Type (0, 0), BuildingBlock: EZIPEK_clean_linker_0, # of connection points: 2
#     Edge 14, Type (0, 0), BuildingBlock: EZIPEK_clean_linker_0, # of connection points: 2
#     Edge 15, Type (0, 0), BuildingBlock: EZIPEK_clean_linker_0, # of connection points: 2
#     Edge 16, Type (0, 0), BuildingBlock: EZIPEK_clean_linker_0, # of connection points: 2
#     Edge 17, Type (0, 0), BuildingBlock: EZIPEK_clean_linker_0, # of connection points: 2
#     Edge 18, Type (0, 0), BuildingBlock: EZIPEK_clean_linker_0, # of connection points: 2
#     Edge 19, Type (0, 0), BuildingBlock: EZIPEK_clean_linker_0, # of connection points: 2
#     Edge 20, Type (0, 0), BuildingBlock: EZIPEK_clean_linker_0, # of connection points: 2
#     Edge 21, Type (0, 0), BuildingBlock: EZIPEK_clean_linker_0, # of connection points: 2
#     Edge 22, Type (0, 0), BuildingBlock: EZIPEK_clean_linker_0, # of connection points: 2
#     Edge 23, Type (0, 0), BuildingBlock: EZIPEK_clean_linker_0, # of connection points: 2
#     Edge 24, Type (0, 0), BuildingBlock: EZIPEK_clean_linker_0, # of connection points: 2
#     Edge 25, Type (0, 0), BuildingBlock: EZIPEK_clean_linker_0, # of connection points: 2
#     Edge 26, Type (0, 0), BuildingBlock: EZIPEK_clean_linker_0, # of connection points: 2
#     Edge 27, Type (0, 0), BuildingBlock: EZIPEK_clean_linker_0, # of connection points: 2
#     Edge 28, Type (0, 0), BuildingBlock: EZIPEK_clean_linker_0, # of connection points: 2
#     Edge 29, Type (0, 0), BuildingBlock: EZIPEK_clean_linker_0, # of connection points: 2
# Relax obj value: 0.046
# Max RMSD: 0.038
# Mean RMSD: 0.038
data_MOF--net-acs-f--node1-OLANEW_clean_sbu_2--edge1-EZIPEK_clean_linker_0
_symmetry_space_group_name_H-M    P1
_symmetry_Int_Tables_number       1
_symmetry_cell_setting            triclinic
loop_
_symmetry_equiv_pos_as_xyz
'x, y, z'
_cell_length_a     29.688433
_cell_length_b     29.393607
_cell_length_c     38.243372
_cell_angle_alpha  89.67589
_cell_angle_beta   89.839594
_cell_angle_gamma 119.68987
loop_
_atom_site_label
_atom_site_type_symbol
_atom_site_fract_x
_atom_site_fract_y
_atom_site_fract_z
_atom_type_partial_charge
O0 O 0.88559 0.4296 0.16217 0.0
Cd1 Cd 0.86547 0.3928 0.10317 0.0
O2 O 0.95626 0.42335 0.16335 0.0
Cd3 Cd 0.02302 0.42926 0.19114 0.0
O4 O 0.08991 0.43332 0.21752 0.0
C5 C 0.09193 0.39164 0.22265 0.0
O6 O 0.05355 0.34658 0.2122 0.0
C7 C 0.92462 0.43399 0.17868 0.0
C8 C 0.90008 0.46189 0.04644 0.0
O9 O 0.85705 0.4497 0.06172 0.0
O10 O 0.92769 0.44305 0.05858 0.0
O11 O 0.55509 0.45939 0.15955 0.0
Cd12 Cd 0.59156 0.47804 0.10031 0.0
O13 O 0.55218 0.5325 0.15832 0.0
Cd14 Cd 0.53768 0.59106 0.18256 0.0
O15 O 0.53043 0.65705 0.2014 0.0
C16 C 0.56352 0.68888 0.2228 0.0
O17 O 0.60104 0.68105 0.23379 0.0
C18 C 0.54555 0.492 0.17484 0.0
C19 C 0.52016 0.44361 0.04601 0.0
O20 O 0.53621 0.41385 0.05886 0.0
O21 O 0.53665 0.48901 0.05936 0.0
O22 O 0.51902 0.08082 0.16843 0.0
Cd23 Cd 0.49842 0.09688 0.10929 0.0
O24 O 0.4423 0.0105 0.17201 0.0
Cd25 Cd 0.38121 0.94349 0.20031 0.0
O26 O 0.31401 0.87362 0.22145 0.0
C27 C 0.26899 0.86323 0.21184 0.0
O28 O 0.26384 0.8949 0.18993 0.0
C29 C 0.4851 0.04229 0.18617 0.0
C30 C 0.52715 0.05458 0.05445 0.0
O31 O 0.55844 0.10061 0.0657 0.0
O32 O 0.48298 0.02793 0.06961 0.0
O33 O 0.54446 0.08389 0.34801 0.0
Cd34 Cd 0.58143 0.0999 0.4068 0.0
O35 O 0.54938 0.01193 0.34643 0.0
Cd36 Cd 0.54243 0.94311 0.32012 0.0
O37 O 0.54237 0.87356 0.3005 0.0
C38 C 0.55382 0.87111 0.26881 0.0
O39 O 0.56496 0.91052 0.24747 0.0
C40 C 0.53899 0.04422 0.33133 0.0
C41 C 0.51146 0.0664 0.46255 0.0
O42 O 0.52947 0.11252 0.44956 0.0
O43 O 0.52518 0.03555 0.4486 0.0
O44 O 0.88781 0.44591 0.34244 0.0
Cd45 Cd 0.87104 0.4638 0.40213 0.0
O46 O 0.95718 0.52371 0.34022 0.0
Cd47 Cd 0.02327 0.58671 0.31267 0.0
O48 O 0.09124 0.65504 0.29094 0.0
C49 C 0.08768 0.67703 0.26324 0.0
O50 O 0.04291 0.65818 0.24729 0.0
C51 C 0.92594 0.48119 0.32523 0.0
C52 C 0.91758 0.43913 0.45651 0.0
O53 O 0.87249 0.40536 0.44562 0.0
O54 O 0.94143 0.48385 0.44111 0.0
O55 O 0.52327 0.44603 0.34026 0.0
Cd56 Cd 0.49908 0.41067 0.39975 0.0
O57 O 0.44364 0.43066 0.33327 0.0
Cd58 Cd 0.38146 0.42759 0.30125 0.0
O59 O 0.31472 0.42349 0.27449 0.0
C60 C 0.27108 0.40214 0.29009 0.0
O61 O 0.26699 0.38286 0.32175 0.0
C62 C 0.48848 0.44545 0.32067 0.0
C63 C 0.53092 0.48153 0.45461 0.0
O64 O 0.55988 0.46363 0.4436 0.0
O65 O 0.48784 0.46748 0.43908 0.0
O66 O 0.00779 0.5947 0.81292 0.0
Cd67 Cd -0.02126 0.63776 0.85472 0.0
O68 O 0.06856 0.66585 0.78666 0.0
Cd69 Cd 0.03686 0.71123 0.81041 0.0
O70 O 0.96873 0.72059 0.80518 0.0
C71 C 0.93422 0.68632 0.7856 0.0
O72 O 0.942 0.6499 0.77189 0.0
C73 C 0.04469 0.61642 0.79083 0.0
C74 C 0.9546 0.58447 0.91861 0.0
O75 O 0.92078 0.57051 0.89432 0.0
O76 O -0.00028 0.62395 0.91311 0.0
O77 O 0.37881 0.41582 0.81886 0.0
Cd78 Cd 0.33114 0.34763 0.86277 0.0
O79 O 0.31659 0.3899 0.77972 0.0
Cd80 Cd 0.27028 0.31426 0.8055 0.0
O81 O 0.25259 0.23298 0.80191 0.0
C82 C 0.26067 0.21977 0.77195 0.0
O83 O 0.27671 0.25397 0.74614 0.0
C84 C 0.36194 0.42262 0.78992 0.0
C85 C 0.38744 0.37535 0.92468 0.0
O86 O 0.39465 0.34814 0.90162 0.0
O87 O 0.35314 0.38882 0.919 0.0
O88 O 0.51863 0.91776 0.8318 0.0
Cd89 Cd 0.59141 0.93392 0.8693 0.0
O90 O 0.5612 0.94399 0.78161 0.0
Cd91 Cd 0.63857 0.9674 0.80105 0.0
O92 O 0.71765 0.03108 0.79221 0.0
C93 C 0.72951 0.04524 0.76049 0.0
O94 O 0.69594 0.01906 0.73586 0.0
C95 C 0.51937 0.92627 0.79913 0.0
C96 C 0.57739 0.97412 0.93158 0.0
O97 O 0.55831 0.92468 0.92779 0.0
O98 O 0.60454 0.00474 0.90657 0.0
O99 O 0.37691 0.96257 0.69372 0.0
Cd100 Cd 0.32956 0.98408 0.65052 0.0
O101 O 0.31019 0.91171 0.72758 0.0
Cd102 Cd 0.26411 0.94259 0.70392 0.0
O103 O 0.25145 0.00902 0.71115 0.0
C104 C 0.2543 0.02404 0.74259 0.0
O105 O 0.26149 -0.00229 0.76774 0.0
C106 C 0.35787 0.93144 0.71966 0.0
C107 C 0.38352 0.00919 0.58722 0.0
O108 O 0.39252 0.04471 0.60976 0.0
O109 O 0.34856 0.96196 0.59409 0.0
O110 O 0.06568 0.45885 0.67826 0.0
Cd111 Cd 0.04854 0.38508 0.64069 0.0
O112 O 0.02959 0.41262 0.72621 0.0
Cd113 Cd 0.00724 0.33528 0.70564 0.0
O114 O 0.94823 0.25273 0.71 0.0
C115 C 0.91151 0.24458 0.73084 0.0
O116 O 0.91228 0.28453 0.74662 0.0
C117 C 0.05216 0.4563 0.7101 0.0
C118 C 0.0053 0.39667 0.57902 0.0
O119 O 0.0545 0.41686 0.58192 0.0
O120 O 0.97637 0.36977 0.60471 0.0
O121 O 0.52484 0.60632 0.68004 0.0
Cd122 Cd 0.59992 0.66024 0.64269 0.0
O123 O 0.56863 0.59779 0.72381 0.0
Cd124 Cd 0.64776 0.65046 0.70606 0.0
O125 O 0.72821 0.67306 0.71741 0.0
C126 C 0.73848 0.67124 0.74947 0.0
O127 O 0.70204 0.65924 0.77313 0.0
C128 C 0.52586 0.58672 0.70953 0.0
C129 C 0.58433 0.60769 0.57951 0.0
O130 O 0.56796 0.64023 0.58391 0.0
O131 O 0.60941 0.60109 0.60438 0.0
C132 C 0.2082 0.37351 0.24028 0.0
C133 C 0.22516 0.39933 0.27283 0.0
C134 C 0.15124 0.41476 0.27417 0.0
C135 C 0.13754 0.39394 0.23999 0.0
N136 N 0.15863 0.36245 0.18774 0.0
N137 N 0.21871 0.45334 0.3177 0.0
C138 C 0.16753 0.37569 0.22225 0.0
C139 C 0.19827 0.42236 0.289 0.0
N140 N 0.22947 0.34513 0.22721 0.0
N141 N 0.1184 0.4254 0.29303 0.0
H142 H 0.25366 0.46087 0.32897 0.0
H143 H 0.20364 0.47562 0.32828 0.0
H144 H 0.08308 0.41949 0.28338 0.0
H145 H 0.12375 0.4353 0.3194 0.0
H146 H 0.21476 0.32092 0.20554 0.0
H147 H 0.25871 0.3417 0.23989 0.0
H148 H 0.18292 0.35436 0.17251 0.0
H149 H 0.12983 0.36438 0.17334 0.0
C150 C 0.51559 0.72919 0.25148 0.0
C151 C 0.56082 0.73551 0.23433 0.0
C152 C 0.60291 0.8305 0.24235 0.0
C153 C 0.55597 0.82458 0.25638 0.0
N154 N 0.46452 0.7693 0.26806 0.0
N155 N 0.64354 0.79274 0.20694 0.0
C156 C 0.51138 0.77417 0.25923 0.0
C157 C 0.60344 0.78634 0.22794 0.0
N158 N 0.47755 0.68043 0.26168 0.0
N159 N 0.64759 0.87776 0.24411 0.0
H160 H 0.64498 0.76154 0.19521 0.0
H161 H 0.67285 0.82924 0.19837 0.0
H162 H 0.64923 0.91094 0.25508 0.0
H163 H 0.68394 0.88281 0.23778 0.0
H164 H 0.44638 0.67409 0.27757 0.0
H165 H 0.47956 0.64654 0.2571 0.0
H166 H 0.42972 0.734 0.26691 0.0
H167 H 0.4596 0.80137 0.27329 0.0
C168 C 0.17358 0.71995 0.23231 0.0
C169 C 0.13365 0.72452 0.24957 0.0
C170 C 0.18446 0.82021 0.24459 0.0
C171 C 0.22256 0.81548 0.22496 0.0
N172 N 0.24965 0.76108 0.1948 0.0
N173 N 0.09717 0.77762 0.26855 0.0
C174 C 0.21627 0.7654 0.21749 0.0
C175 C 0.13783 0.77427 0.25448 0.0
N176 N 0.17078 0.67218 0.23022 0.0
N177 N 0.19401 0.8685 0.25533 0.0
H178 H 0.06339 0.74512 0.27776 0.0
H179 H 0.09534 0.81208 0.26895 0.0
H180 H 0.22808 0.90301 0.24916 0.0
H181 H 0.17042 0.87417 0.27289 0.0
H182 H 0.20145 0.66722 0.22181 0.0
H183 H 0.13884 0.63754 0.23905 0.0
H184 H 0.24393 0.72551 0.18528 0.0
H185 H 0.28091 0.79334 0.18293 0.0
C186 C 0.83565 0.72419 0.75337 0.0
C187 C 0.78892 0.67661 0.75983 0.0
C188 C 0.83767 0.64048 0.78922 0.0
C189 C 0.88467 0.68541 0.77907 0.0
N190 N 0.92924 0.76758 0.7476 0.0
N191 N 0.74597 0.58591 0.77834 0.0
C192 C 0.88399 0.72686 0.76026 0.0
C193 C 0.78999 0.63381 0.77641 0.0
N194 N 0.83379 0.76725 0.74164 0.0
N195 N 0.83852 0.60478 0.81191 0.0
H196 H 0.71039 0.57873 0.76841 0.0
H197 H 0.74577 0.55202 0.78669 0.0
H198 H 0.87275 0.60884 0.82234 0.0
H199 H 0.80519 0.57409 0.8231 0.0
H200 H 0.86623 0.8045 0.74001 0.0
H201 H 0.79909 0.76674 0.73638 0.0
H202 H 0.93064 0.79577 0.73032 0.0
H203 H 0.96543 0.77108 0.75215 0.0
C204 C 0.29818 0.16049 0.77759 0.0
C205 C 0.2569 0.16824 0.76657 0.0
C206 C 0.21148 0.07948 0.74251 0.0
C207 C 0.25497 0.07362 0.75062 0.0
N208 N 0.34369 0.11191 0.76992 0.0
N209 N 0.17681 0.13837 0.73535 0.0
C210 C 0.29932 0.1149 0.76678 0.0
C211 C 0.21428 0.12867 0.74803 0.0
N212 N 0.33645 0.19678 0.79831 0.0
N213 N 0.1668 0.03743 0.7309 0.0
H214 H 0.17624 0.17293 0.74039 0.0
H215 H 0.1481 0.11366 0.71811 0.0
H216 H 0.16318 0.00071 0.72682 0.0
H217 H 0.13199 0.03754 0.72806 0.0
H218 H 0.36418 0.19045 0.81054 0.0
H219 H 0.33829 0.2318 0.80558 0.0
H220 H 0.37897 0.14305 0.77793 0.0
H221 H 0.34689 0.08002 0.76131 0.0
C222 C 0.81665 0.18294 0.72539 0.0
C223 C 0.86611 0.19164 0.7356 0.0
C224 C 0.82659 0.10164 0.75833 0.0
C225 C 0.77678 0.09529 0.75177 0.0
N226 N 0.72397 0.13313 0.73483 0.0
N227 N 0.91861 0.16199 0.76525 0.0
C228 C 0.77163 0.13672 0.7367 0.0
C229 C 0.87135 0.15161 0.75284 0.0
N230 N 0.81275 0.21831 0.70404 0.0
N231 N 0.83115 0.0596 0.76888 0.0
H232 H 0.95231 0.19789 0.76142 0.0
H233 H 0.92386 0.13646 0.78149 0.0
H234 H 0.79917 0.02255 0.77326 0.0
H235 H 0.86648 0.06028 0.77053 0.0
H236 H 0.77808 0.2114 0.69271 0.0
H237 H 0.84502 0.25234 0.69477 0.0
H238 H 0.7187 0.16442 0.72767 0.0
H239 H 0.68995 0.10058 0.74369 0.0
C240 C 0.9168 0.47087 0.98184 0.0
C241 C 0.91578 0.49414 0.01405 0.0
C242 C 0.93787 0.57628 0.98344 0.0
C243 C 0.94238 0.55406 0.95168 0.0
N244 N 0.94576 0.48403 0.92144 0.0
N245 N 0.93291 0.57076 0.04685 0.0
C246 C 0.93457 0.5024 0.9511 0.0
C247 C 0.9284 0.5474 0.01524 0.0
N248 N 0.89862 0.41812 0.98028 0.0
N249 N 0.94075 0.62417 0.983 0.0
H250 H 0.92621 0.55074 0.0706 0.0
H251 H 0.94734 0.61081 0.04976 0.0
H252 H 0.94803 0.64657 0.96026 0.0
H253 H 0.93206 0.64001 0.00454 0.0
H254 H 0.89276 0.39795 0.95692 0.0
H255 H 0.88504 0.39345 1.00212 0.0
H256 H 0.94648 0.449 0.92055 0.0
H257 H 0.95889 0.50593 0.89836 0.0
C258 C 0.40535 0.3615 0.98675 0.0
C259 C 0.42018 0.39337 0.95623 0.0
C260 C 0.50166 0.45655 0.98386 0.0
C261 C 0.48517 0.42677 0.01538 0.0
N262 N 0.4178 0.35592 0.04898 0.0
N263 N 0.47778 0.47498 0.92714 0.0
C264 C 0.43604 0.38048 0.01742 0.0
C265 C 0.46688 0.44214 0.95527 0.0
N266 N 0.36241 0.31277 0.98622 0.0
N267 N 0.55153 0.49686 0.9805 0.0
H268 H 0.45402 0.46516 0.90521 0.0
H269 H 0.50814 0.51353 0.92666 0.0
H270 H 0.57879 0.50801 1.00043 0.0
H271 H 0.56746 0.51619 0.95694 0.0
H272 H 0.3528 0.28526 0.00622 0.0
H273 H 0.33815 0.29837 0.96456 0.0
H274 H 0.38018 0.32521 0.05292 0.0
H275 H 0.43876 0.3692 0.0721 0.0
C276 C 0.57739 0.01695 0.02556 0.0
C277 C 0.54035 0.034 0.02314 0.0
C278 C 0.53022 0.01477 0.96033 0.0
C279 C 0.5652 -0.00489 0.96312 0.0
N280 N 0.61875 0.97252 0.99811 0.0
N281 N 0.47792 0.04562 0.98974 0.0
C282 C 0.58782 -0.00526 0.99571 0.0
C283 C 0.51575 0.03189 0.99092 0.0
N284 N 0.603 0.02267 0.05634 0.0
N285 N 0.51123 0.0175 0.92827 0.0
H286 H 0.46833 0.06132 0.01098 0.0
H287 H 0.45386 0.03902 0.9684 0.0
H288 H 0.51801 0.00224 0.90559 0.0
H289 H 0.49089 0.03726 0.92348 0.0
H290 H 0.63447 0.01659 0.05907 0.0
H291 H 0.5946 0.03647 0.07911 0.0
H292 H 0.63187 0.96547 0.02161 0.0
H293 H 0.62929 0.95831 0.97649 0.0
C294 C 0.40075 0.04068 0.52491 0.0
C295 C 0.41492 0.02203 0.55482 0.0
C296 C 0.49367 0.03525 0.52494 0.0
C297 C 0.47757 0.05008 0.49403 0.0
N298 N 0.4117 0.05833 0.46249 0.0
N299 N 0.46985 -0.00667 0.58199 0.0
C300 C 0.42999 0.05059 0.49343 0.0
C301 C 0.45978 0.01662 0.55436 0.0
N302 N 0.35979 0.04962 0.52675 0.0
N303 N 0.54253 0.04178 0.52694 0.0
H304 H 0.44689 0.98073 0.60454 0.0
H305 H 0.49852 0.98273 0.58148 0.0
H306 H 0.56924 0.05663 0.50639 0.0
H307 H 0.55848 0.03721 0.55 0.0
H308 H 0.35109 0.06881 0.50721 0.0
H309 H 0.33646 0.04106 0.549 0.0
H310 H 0.37485 0.05382 0.45962 0.0
H311 H 0.43157 0.06473 0.43882 0.0
C312 C -0.01763 0.38326 0.51528 0.0
C313 C -0.01739 0.407 0.54757 0.0
C314 C 0.94268 0.4537 0.51962 0.0
C315 C 0.94016 0.42803 0.48771 0.0
N316 N 0.95265 0.36519 0.45512 0.0
N317 N 0.95994 0.46136 0.58197 0.0
C318 C 0.95856 0.39181 0.48555 0.0
C319 C 0.96182 0.44122 0.55015 0.0
N320 N 0.0055 0.35306 0.51304 0.0
N321 N 0.92728 0.49055 0.52057 0.0
H322 H 0.97661 0.45612 0.60449 0.0
H323 H 0.93967 0.48115 0.5868 0.0
H324 H 0.90986 0.49839 0.49952 0.0
H325 H 0.93393 0.5155 0.5415 0.0
H326 H 0.01206 0.33929 0.48967 0.0
H327 H 0.02089 0.34377 0.53463 0.0
H328 H 0.95972 0.33405 0.45267 0.0
H329 H 0.93786 0.3724 0.43236 0.0
C330 C 0.58429 0.56762 0.48474 0.0
C331 C 0.5449 0.51425 0.48637 0.0
C332 C 0.53394 0.52154 0.54938 0.0
C333 C 0.57131 0.57568 0.54741 0.0
N334 N 0.62891 0.65213 0.51346 0.0
N335 N 0.47857 0.44074 0.51873 0.0
C336 C 0.59556 0.5993 0.5151 0.0
C337 C 0.51867 0.49132 0.51829 0.0
N338 N 0.61135 0.58769 0.45423 0.0
N339 N 0.51341 0.4989 0.58113 0.0
H340 H 0.46809 0.41625 0.49707 0.0
H341 H 0.45353 0.42353 0.53988 0.0
H342 H 0.52095 0.52014 0.60417 0.0
H343 H 0.49109 0.4587 0.58527 0.0
H344 H 0.64427 0.62444 0.45202 0.0
H345 H 0.60259 0.56624 0.43117 0.0
H346 H 0.64354 0.67305 0.49025 0.0
H347 H 0.64005 0.67602 0.53545 0.0
C348 C 0.93028 0.50674 0.26178 0.0
C349 C 0.93245 0.47303 0.2877 0.0
C350 C 0.93125 0.41426 0.24204 0.0
C351 C 0.93155 0.44921 0.21607 0.0
N352 N 0.94439 0.53456 0.20101 0.0
N353 N 0.94844 0.40246 0.30236 0.0
C354 C 0.93516 0.49733 0.22591 0.0
C355 C 0.93716 0.42918 0.27775 0.0
N356 N 0.92071 0.54599 0.27116 0.0
N357 N 0.9224 0.3656 0.23295 0.0
H358 H 0.95372 0.41281 0.3287 0.0
H359 H 0.95774 0.37362 0.29613 0.0
H360 H 0.91689 0.35243 0.20724 0.0
H361 H 0.91599 0.33652 0.2512 0.0
H362 H 0.91293 0.56787 0.25314 0.0
H363 H 0.91612 0.55398 0.29703 0.0
H364 H 0.9527 0.57247 0.20695 0.0
H365 H 0.94885 0.5292 0.17454 0.0
C366 C 0.47144 0.42168 0.25712 0.0
C367 C 0.49968 0.4595 0.28309 0.0
C368 C 0.55791 0.5196 0.23796 0.0
C369 C 0.52786 0.48292 0.21184 0.0
N370 N 0.44897 0.40504 0.19587 0.0
N371 N 0.56174 0.54863 0.29764 0.0
C372 C 0.4824 0.43577 0.22123 0.0
C373 C 0.54048 0.50981 0.27331 0.0
N374 N 0.43605 0.37145 0.2666 0.0
N375 N 0.60447 0.56238 0.22943 0.0
H376 H 0.5495 0.54294 0.32369 0.0
H377 H 0.58776 0.58757 0.29131 0.0
H378 H 0.61926 0.5708 0.20402 0.0
H379 H 0.63058 0.58716 0.24799 0.0
H380 H 0.41873 0.34095 0.24877 0.0
H381 H 0.42725 0.35896 0.29253 0.0
H382 H 0.41257 0.37306 0.20134 0.0
H383 H 0.45532 0.41459 0.16932 0.0
C384 C 0.53886 0.03097 0.23209 0.0
C385 C 0.49513 0.03599 0.22337 0.0
C386 C 0.47428 0.03388 0.28568 0.0
C387 C 0.52214 0.03698 0.2943 0.0
N388 N 0.60351 0.0448 0.2755 0.0
N389 N 0.42426 0.04875 0.24185 0.0
C390 C 0.55524 0.0367 0.26748 0.0
C391 C 0.46328 0.03869 0.25014 0.0
N392 N 0.5641 0.01963 0.20661 0.0
N393 N 0.43879 0.02513 0.31144 0.0
H394 H 0.41508 0.05322 0.21624 0.0
H395 H 0.40377 0.05711 0.26047 0.0
H396 H 0.4453 0.02067 0.33771 0.0
H397 H 0.4011 0.0171 0.30641 0.0
H398 H 0.59301 0.01032 0.21183 0.0
H399 H 0.55265 0.01448 0.18049 0.0
H400 H 0.6314 0.05087 0.25667 0.0
H401 H 0.61756 0.04994 0.30095 0.0
C402 C 0.08041 0.55592 0.78147 0.0
C403 C 0.05586 0.58297 0.76777 0.0
C404 C 0.0325 0.52992 0.71474 0.0
C405 C 0.05816 0.50356 0.728 0.0
N406 N 0.11632 0.49907 0.76988 0.0
N407 N 0.01895 0.60451 0.71857 0.0
C408 C 0.08518 0.51896 0.76018 0.0
C409 C 0.0358 0.57315 0.73333 0.0
N410 N 0.09814 0.5648 0.81507 0.0
N411 N 0.00154 0.51127 0.68592 0.0
H412 H 0.01864 0.63527 0.73177 0.0
H413 H 0.00947 0.60293 0.69224 0.0
H414 H -0.0036 0.47878 0.67189 0.0
H415 H 0.97701 0.52498 0.67761 0.0
H416 H 0.11069 0.54193 0.8281 0.0
H417 H 0.0978 0.59365 0.83067 0.0
H418 H 0.14082 0.51219 0.7914 0.0
H419 H 0.12127 0.47265 0.75449 0.0
C420 C 0.45041 0.49577 0.71297 0.0
C421 C 0.47718 0.54722 0.72666 0.0
C422 C 0.41915 0.51847 0.77776 0.0
C423 C 0.39761 0.46592 0.76649 0.0
N424 N 0.39666 0.40323 0.72541 0.0
N425 N 0.48856 0.6086 0.77194 0.0
C426 C 0.41358 0.45419 0.73433 0.0
C427 C 0.46174 0.55895 0.75897 0.0
N428 N 0.46089 0.48635 0.6798 0.0
N429 N 0.39801 0.52958 0.80599 0.0
H430 H 0.51773 0.63981 0.7578 0.0
H431 H 0.48363 0.6185 0.79719 0.0
H432 H 0.36647 0.50071 0.82 0.0
H433 H 0.40858 0.56743 0.81376 0.0
H434 H 0.43843 0.4511 0.66691 0.0
H435 H 0.48951 0.51503 0.66391 0.0
H436 H 0.41192 0.39236 0.70462 0.0
H437 H 0.37042 0.37126 0.74041 0.0
C438 C 0.45229 0.95386 0.79249 0.0
C439 C 0.47266 0.92137 0.78177 0.0
C440 C 0.41437 0.89188 0.73132 0.0
C441 C 0.393 0.92306 0.74273 0.0
N442 N 0.38378 0.97555 0.7875 0.0
N443 N 0.46652 0.85172 0.74563 0.0
C444 C 0.40912 0.95097 0.77459 0.0
C445 C 0.45166 0.88799 0.75252 0.0
N446 N 0.47653 -0.00959 0.81802 0.0
N447 N 0.39969 0.86687 0.69991 0.0
H448 H 0.49323 0.84752 0.76101 0.0
H449 H 0.44923 0.82284 0.72673 0.0
H450 H 0.3705 0.86668 0.68467 0.0
H451 H 0.41817 0.84868 0.68807 0.0
H452 H 0.46735 0.01941 0.82392 0.0
H453 H 0.50908 -0.00483 0.83141 0.0
H454 H 0.38969 -0.00891 0.81256 0.0
H455 H 0.35377 0.97695 0.77435 0.0
loop_
_geom_bond_atom_site_label_1
_geom_bond_atom_site_label_2
_geom_bond_distance
_geom_bond_site_symmetry_2
_ccdc_geom_bond_type
O0 Cd1 2.300 1_655 S
O0 C7 1.275 . S
Cd1 O0 2.300 1_455 S
Cd1 O9 2.381 1_455 S
Cd1 O10 2.378 . S
O2 Cd3 2.385 . S
O2 C7 1.255 1_455 S
Cd3 O2 2.385 . S
Cd3 O4 2.317 . S
O4 Cd3 2.317 . S
O4 C5 1.232 . S
C5 O4 1.232 . S
C5 O6 1.218 . S
O6 C5 1.218 . S
C7 O0 1.275 . S
C7 O2 1.255 1_655 S
C8 O9 1.258 . S
C8 O10 1.256 1_655 S
O9 Cd1 2.381 1_655 S
O9 C8 1.258 . S
O10 Cd1 2.378 . S
O10 C8 1.256 1_455 S
O11 Cd12 2.300 . S
O11 C18 1.275 . S
Cd12 O11 2.300 . S
Cd12 O20 2.381 . S
Cd12 O21 2.378 . S
O13 Cd14 2.385 . S
O13 C18 1.255 . S
Cd14 O13 2.385 . S
Cd14 O15 2.317 . S
O15 Cd14 2.317 . S
O15 C16 1.232 . S
C16 O15 1.232 . S
C16 O17 1.218 . S
O17 C16 1.218 . S
C18 O11 1.275 . S
C18 O13 1.255 . S
C19 O20 1.258 . S
C19 O21 1.256 . S
O20 Cd12 2.381 . S
O20 C19 1.258 . S
O21 Cd12 2.378 . S
O21 C19 1.256 . S
O22 Cd23 2.300 1_545 S
O22 C29 1.275 . S
Cd23 O22 2.300 1_565 S
Cd23 O31 2.381 1_565 S
Cd23 O32 2.378 . S
O24 Cd25 2.385 . S
O24 C29 1.255 1_565 S
Cd25 O24 2.385 . S
Cd25 O26 2.317 . S
O26 Cd25 2.317 . S
O26 C27 1.232 . S
C27 O26 1.232 . S
C27 O28 1.218 . S
O28 C27 1.218 . S
C29 O22 1.275 . S
C29 O24 1.255 1_545 S
C30 O31 1.258 . S
C30 O32 1.256 1_545 S
O31 Cd23 2.381 1_545 S
O31 C30 1.258 . S
O32 Cd23 2.378 . S
O32 C30 1.256 1_565 S
O33 Cd34 2.300 1_545 S
O33 C40 1.275 . S
Cd34 O33 2.300 1_565 S
Cd34 O42 2.381 1_565 S
Cd34 O43 2.378 . S
O35 Cd36 2.385 . S
O35 C40 1.255 1_565 S
Cd36 O35 2.385 . S
Cd36 O37 2.317 . S
O37 Cd36 2.317 . S
O37 C38 1.232 . S
C38 O37 1.232 . S
C38 O39 1.218 . S
O39 C38 1.218 . S
C40 O33 1.275 . S
C40 O35 1.255 1_545 S
C41 O42 1.258 . S
C41 O43 1.256 1_545 S
O42 Cd34 2.381 1_545 S
O42 C41 1.258 . S
O43 Cd34 2.378 . S
O43 C41 1.256 1_565 S
O44 Cd45 2.300 1_655 S
O44 C51 1.275 . S
Cd45 O44 2.300 1_455 S
Cd45 O53 2.381 1_455 S
Cd45 O54 2.378 . S
O46 Cd47 2.385 . S
O46 C51 1.255 1_455 S
Cd47 O46 2.385 . S
Cd47 O48 2.317 . S
O48 Cd47 2.317 . S
O48 C49 1.232 . S
C49 O48 1.232 . S
C49 O50 1.218 . S
O50 C49 1.218 . S
C51 O44 1.275 . S
C51 O46 1.255 1_655 S
C52 O53 1.258 . S
C52 O54 1.256 1_655 S
O53 Cd45 2.381 1_655 S
O53 C52 1.258 . S
O54 Cd45 2.378 . S
O54 C52 1.256 1_455 S
O55 Cd56 2.300 . S
O55 C62 1.275 . S
Cd56 O55 2.300 . S
Cd56 O64 2.381 . S
Cd56 O65 2.378 . S
O57 Cd58 2.385 . S
O57 C62 1.255 . S
Cd58 O57 2.385 . S
Cd58 O59 2.317 . S
O59 Cd58 2.317 . S
O59 C60 1.232 . S
C60 O59 1.232 . S
C60 O61 1.218 . S
O61 C60 1.218 . S
C62 O55 1.275 . S
C62 O57 1.255 . S
C63 O64 1.258 . S
C63 O65 1.256 . S
O64 Cd56 2.381 . S
O64 C63 1.258 . S
O65 Cd56 2.378 . S
O65 C63 1.256 . S
O66 Cd67 2.300 . S
O66 C73 1.275 . S
Cd67 O66 2.300 . S
Cd67 O75 2.381 . S
Cd67 O76 2.378 . S
O68 Cd69 2.385 . S
O68 C73 1.255 . S
Cd69 O68 2.385 . S
Cd69 O70 2.317 1_455 S
O70 Cd69 2.317 1_655 S
O70 C71 1.232 . S
C71 O70 1.232 . S
C71 O72 1.218 . S
O72 C71 1.218 . S
C73 O66 1.275 . S
C73 O68 1.255 . S
C74 O75 1.258 . S
C74 O76 1.256 . S
O75 Cd67 2.381 . S
O75 C74 1.258 . S
O76 Cd67 2.378 . S
O76 C74 1.256 . S
O77 Cd78 2.300 . S
O77 C84 1.275 . S
Cd78 O77 2.300 . S
Cd78 O86 2.381 . S
Cd78 O87 2.378 . S
O79 Cd80 2.385 . S
O79 C84 1.255 . S
Cd80 O79 2.385 . S
Cd80 O81 2.317 . S
O81 Cd80 2.317 . S
O81 C82 1.232 . S
C82 O81 1.232 . S
C82 O83 1.218 . S
O83 C82 1.218 . S
C84 O77 1.275 . S
C84 O79 1.255 . S
C85 O86 1.258 . S
C85 O87 1.256 . S
O86 Cd78 2.381 . S
O86 C85 1.258 . S
O87 Cd78 2.378 . S
O87 C85 1.256 . S
O88 Cd89 2.300 . S
O88 C95 1.275 . S
Cd89 O88 2.300 . S
Cd89 O97 2.381 . S
Cd89 O98 2.378 . S
O90 Cd91 2.385 . S
O90 C95 1.255 . S
Cd91 O90 2.385 . S
Cd91 O92 2.317 1_565 S
O92 Cd91 2.317 1_545 S
O92 C93 1.232 . S
C93 O92 1.232 . S
C93 O94 1.218 . S
O94 C93 1.218 . S
C95 O88 1.275 . S
C95 O90 1.255 . S
C96 O97 1.258 . S
C96 O98 1.256 . S
O97 Cd89 2.381 . S
O97 C96 1.258 . S
O98 Cd89 2.378 . S
O98 C96 1.256 . S
O99 Cd100 2.300 . S
O99 C106 1.275 . S
Cd100 O99 2.300 . S
Cd100 O108 2.381 . S
Cd100 O109 2.378 . S
O101 Cd102 2.385 . S
O101 C106 1.255 . S
Cd102 O101 2.385 . S
Cd102 O103 2.317 1_565 S
O103 Cd102 2.317 1_545 S
O103 C104 1.232 . S
C104 O103 1.232 . S
C104 O105 1.218 . S
O105 C104 1.218 . S
C106 O99 1.275 . S
C106 O101 1.255 . S
C107 O108 1.258 . S
C107 O109 1.256 . S
O108 Cd100 2.381 . S
O108 C107 1.258 . S
O109 Cd100 2.378 . S
O109 C107 1.256 . S
O110 Cd111 2.300 . S
O110 C117 1.275 . S
Cd111 O110 2.300 . S
Cd111 O119 2.381 . S
Cd111 O120 2.378 . S
O112 Cd113 2.385 . S
O112 C117 1.255 . S
Cd113 O112 2.385 . S
Cd113 O114 2.317 1_455 S
O114 Cd113 2.317 1_655 S
O114 C115 1.232 . S
C115 O114 1.232 . S
C115 O116 1.218 . S
O116 C115 1.218 . S
C117 O110 1.275 . S
C117 O112 1.255 . S
C118 O119 1.258 . S
C118 O120 1.256 . S
O119 Cd111 2.381 . S
O119 C118 1.258 . S
O120 Cd111 2.378 . S
O120 C118 1.256 . S
O121 Cd122 2.300 . S
O121 C128 1.275 . S
Cd122 O121 2.300 . S
Cd122 O130 2.381 . S
Cd122 O131 2.378 . S
O123 Cd124 2.385 . S
O123 C128 1.255 . S
Cd124 O123 2.385 . S
Cd124 O125 2.317 . S
O125 Cd124 2.317 . S
O125 C126 1.232 . S
C126 O125 1.232 . S
C126 O127 1.218 . S
O127 C126 1.218 . S
C128 O121 1.275 . S
C128 O123 1.255 . S
C129 O130 1.258 . S
C129 O131 1.256 . S
O130 Cd122 2.381 . S
O130 C129 1.258 . S
O131 Cd122 2.378 . S
O131 C129 1.256 . S
C132 C133 1.363 . S
C132 C138 1.379 . S
C132 N140 1.356 . S
C133 C132 1.363 . S
C133 C139 1.363 . S
C134 C135 1.363 . S
C134 C139 1.379 . S
C134 N141 1.356 . S
C135 C134 1.363 . S
C135 C138 1.363 . S
N136 C138 1.356 . S
N136 H148 0.984 . S
N136 H149 0.985 . S
N137 C139 1.356 . S
N137 H142 0.984 . S
N137 H143 0.985 . S
C138 C132 1.379 . S
C138 C135 1.363 . S
C138 N136 1.356 . S
C139 C133 1.363 . S
C139 C134 1.379 . S
C139 N137 1.356 . S
N140 C132 1.356 . S
N140 H146 0.984 . S
N140 H147 0.984 . S
N141 C134 1.356 . S
N141 H144 0.984 . S
N141 H145 0.985 . S
H142 N137 0.984 . S
H143 N137 0.985 . S
H144 N141 0.984 . S
H145 N141 0.985 . S
H146 N140 0.984 . S
H147 N140 0.984 . S
H148 N136 0.984 . S
H149 N136 0.985 . S
C150 C151 1.363 . S
C150 C156 1.379 . S
C150 N158 1.356 . S
C151 C150 1.363 . S
C151 C157 1.363 . S
C152 C153 1.363 . S
C152 C157 1.379 . S
C152 N159 1.356 . S
C153 C152 1.363 . S
C153 C156 1.363 . S
N154 C156 1.356 . S
N154 H166 0.984 . S
N154 H167 0.985 . S
N155 C157 1.356 . S
N155 H160 0.984 . S
N155 H161 0.985 . S
C156 C150 1.379 . S
C156 C153 1.363 . S
C156 N154 1.356 . S
C157 C151 1.363 . S
C157 C152 1.379 . S
C157 N155 1.356 . S
N158 C150 1.356 . S
N158 H164 0.984 . S
N158 H165 0.984 . S
N159 C152 1.356 . S
N159 H162 0.984 . S
N159 H163 0.985 . S
H160 N155 0.984 . S
H161 N155 0.985 . S
H162 N159 0.984 . S
H163 N159 0.985 . S
H164 N158 0.984 . S
H165 N158 0.984 . S
H166 N154 0.984 . S
H167 N154 0.985 . S
C168 C169 1.363 . S
C168 C174 1.379 . S
C168 N176 1.356 . S
C169 C168 1.363 . S
C169 C175 1.363 . S
C170 C171 1.363 . S
C170 C175 1.379 . S
C170 N177 1.356 . S
C171 C170 1.363 . S
C171 C174 1.363 . S
N172 C174 1.356 . S
N172 H184 0.984 . S
N172 H185 0.985 . S
N173 C175 1.356 . S
N173 H178 0.984 . S
N173 H179 0.985 . S
C174 C168 1.379 . S
C174 C171 1.363 . S
C174 N172 1.356 . S
C175 C169 1.363 . S
C175 C170 1.379 . S
C175 N173 1.356 . S
N176 C168 1.356 . S
N176 H182 0.984 . S
N176 H183 0.984 . S
N177 C170 1.356 . S
N177 H180 0.984 . S
N177 H181 0.985 . S
H178 N173 0.984 . S
H179 N173 0.985 . S
H180 N177 0.984 . S
H181 N177 0.985 . S
H182 N176 0.984 . S
H183 N176 0.984 . S
H184 N172 0.984 . S
H185 N172 0.985 . S
C186 C187 1.363 . S
C186 C192 1.379 . S
C186 N194 1.356 . S
C187 C186 1.363 . S
C187 C193 1.363 . S
C188 C189 1.363 . S
C188 C193 1.379 . S
C188 N195 1.356 . S
C189 C188 1.363 . S
C189 C192 1.363 . S
N190 C192 1.356 . S
N190 H202 0.984 . S
N190 H203 0.985 . S
N191 C193 1.356 . S
N191 H196 0.984 . S
N191 H197 0.985 . S
C192 C186 1.379 . S
C192 C189 1.363 . S
C192 N190 1.356 . S
C193 C187 1.363 . S
C193 C188 1.379 . S
C193 N191 1.356 . S
N194 C186 1.356 . S
N194 H200 0.984 . S
N194 H201 0.984 . S
N195 C188 1.356 . S
N195 H198 0.984 . S
N195 H199 0.985 . S
H196 N191 0.984 . S
H197 N191 0.985 . S
H198 N195 0.984 . S
H199 N195 0.985 . S
H200 N194 0.984 . S
H201 N194 0.984 . S
H202 N190 0.984 . S
H203 N190 0.985 . S
C204 C205 1.363 . S
C204 C210 1.379 . S
C204 N212 1.356 . S
C205 C204 1.363 . S
C205 C211 1.363 . S
C206 C207 1.363 . S
C206 C211 1.379 . S
C206 N213 1.356 . S
C207 C206 1.363 . S
C207 C210 1.363 . S
N208 C210 1.356 . S
N208 H220 0.984 . S
N208 H221 0.985 . S
N209 C211 1.356 . S
N209 H214 0.984 . S
N209 H215 0.985 . S
C210 C204 1.379 . S
C210 C207 1.363 . S
C210 N208 1.356 . S
C211 C205 1.363 . S
C211 C206 1.379 . S
C211 N209 1.356 . S
N212 C204 1.356 . S
N212 H218 0.984 . S
N212 H219 0.984 . S
N213 C206 1.356 . S
N213 H216 0.984 . S
N213 H217 0.985 . S
H214 N209 0.984 . S
H215 N209 0.985 . S
H216 N213 0.984 . S
H217 N213 0.985 . S
H218 N212 0.984 . S
H219 N212 0.984 . S
H220 N208 0.984 . S
H221 N208 0.985 . S
C222 C223 1.363 . S
C222 C228 1.379 . S
C222 N230 1.356 . S
C223 C222 1.363 . S
C223 C229 1.363 . S
C224 C225 1.363 . S
C224 C229 1.379 . S
C224 N231 1.356 . S
C225 C224 1.363 . S
C225 C228 1.363 . S
N226 C228 1.356 . S
N226 H238 0.984 . S
N226 H239 0.985 . S
N227 C229 1.356 . S
N227 H232 0.984 . S
N227 H233 0.985 . S
C228 C222 1.379 . S
C228 C225 1.363 . S
C228 N226 1.356 . S
C229 C223 1.363 . S
C229 C224 1.379 . S
C229 N227 1.356 . S
N230 C222 1.356 . S
N230 H236 0.984 . S
N230 H237 0.984 . S
N231 C224 1.356 . S
N231 H234 0.984 . S
N231 H235 0.985 . S
H232 N227 0.984 . S
H233 N227 0.985 . S
H234 N231 0.984 . S
H235 N231 0.985 . S
H236 N230 0.984 . S
H237 N230 0.984 . S
H238 N226 0.984 . S
H239 N226 0.985 . S
C240 C241 1.363 1_556 S
C240 C246 1.379 1_655 S
C240 N248 1.356 . S
C241 C240 1.363 1_554 S
C241 C247 1.363 . S
C242 C243 1.363 1_554 S
C242 C247 1.379 1_455 S
C242 N249 1.356 . S
C243 C242 1.363 1_556 S
C243 C246 1.363 . S
N244 C246 1.356 . S
N244 H256 0.984 . S
N244 H257 0.985 . S
N245 C247 1.356 . S
N245 H250 0.984 . S
N245 H251 0.985 . S
C246 C240 1.379 1_455 S
C246 C243 1.363 . S
C246 N244 1.356 . S
C247 C241 1.363 . S
C247 C242 1.379 1_655 S
C247 N245 1.356 . S
N248 C240 1.356 . S
N248 H254 0.984 . S
N248 H255 0.984 1_556 S
N249 C242 1.356 . S
N249 H252 0.984 1_554 S
N249 H253 0.985 . S
H250 N245 0.984 . S
H251 N245 0.985 . S
H252 N249 0.984 1_556 S
H253 N249 0.985 . S
H254 N248 0.984 . S
H255 N248 0.984 1_554 S
H256 N244 0.984 . S
H257 N244 0.985 . S
C258 C259 1.363 1_554 S
C258 C264 1.379 . S
C258 N266 1.356 . S
C259 C258 1.363 1_556 S
C259 C265 1.363 . S
C260 C261 1.363 1_556 S
C260 C265 1.379 . S
C260 N267 1.356 . S
C261 C260 1.363 1_554 S
C261 C264 1.363 . S
N262 C264 1.356 . S
N262 H274 0.984 . S
N262 H275 0.985 . S
N263 C265 1.356 . S
N263 H268 0.984 . S
N263 H269 0.985 . S
C264 C258 1.379 . S
C264 C261 1.363 . S
C264 N262 1.356 . S
C265 C259 1.363 . S
C265 C260 1.379 . S
C265 N263 1.356 . S
N266 C258 1.356 . S
N266 H272 0.984 . S
N266 H273 0.984 1_554 S
N267 C260 1.356 . S
N267 H270 0.984 1_556 S
N267 H271 0.985 . S
H268 N263 0.984 . S
H269 N263 0.985 . S
H270 N267 0.984 1_554 S
H271 N267 0.985 . S
H272 N266 0.984 . S
H273 N266 0.984 1_556 S
H274 N262 0.984 . S
H275 N262 0.985 . S
C276 C277 1.363 1_565 S
C276 C282 1.379 . S
C276 N284 1.356 . S
C277 C276 1.363 1_545 S
C277 C283 1.363 1_554 S
C278 C279 1.363 1_545 S
C278 C283 1.379 . S
C278 N285 1.356 . S
C279 C278 1.363 1_565 S
C279 C282 1.363 1_556 S
N280 C282 1.356 . S
N280 H292 0.984 . S
N280 H293 0.985 1_554 S
N281 C283 1.356 . S
N281 H286 0.984 1_556 S
N281 H287 0.985 . S
C282 C276 1.379 . S
C282 C279 1.363 1_554 S
C282 N280 1.356 . S
C283 C277 1.363 1_556 S
C283 C278 1.379 . S
C283 N281 1.356 . S
N284 C276 1.356 . S
N284 H290 0.984 . S
N284 H291 0.984 . S
N285 C278 1.356 . S
N285 H288 0.984 . S
N285 H289 0.985 . S
H286 N281 0.984 1_554 S
H287 N281 0.985 . S
H288 N285 0.984 . S
H289 N285 0.985 . S
H290 N284 0.984 . S
H291 N284 0.984 . S
H292 N280 0.984 . S
H293 N280 0.985 1_556 S
C294 C295 1.363 1_545 S
C294 C300 1.379 . S
C294 N302 1.356 . S
C295 C294 1.363 1_565 S
C295 C301 1.363 . S
C296 C297 1.363 1_565 S
C296 C301 1.379 . S
C296 N303 1.356 . S
C297 C296 1.363 1_545 S
C297 C300 1.363 . S
N298 C300 1.356 . S
N298 H310 0.984 . S
N298 H311 0.985 . S
N299 C301 1.356 . S
N299 H304 0.984 . S
N299 H305 0.985 . S
C300 C294 1.379 . S
C300 C297 1.363 . S
C300 N298 1.356 . S
C301 C295 1.363 . S
C301 C296 1.379 . S
C301 N299 1.356 . S
N302 C294 1.356 . S
N302 H308 0.984 . S
N302 H309 0.984 . S
N303 C296 1.356 . S
N303 H306 0.984 . S
N303 H307 0.985 . S
H304 N299 0.984 . S
H305 N299 0.985 . S
H306 N303 0.984 . S
H307 N303 0.985 . S
H308 N302 0.984 . S
H309 N302 0.984 . S
H310 N298 0.984 . S
H311 N298 0.985 . S
C312 C313 1.363 . S
C312 C318 1.379 . S
C312 N320 1.356 . S
C313 C312 1.363 . S
C313 C319 1.363 1_455 S
C314 C315 1.363 . S
C314 C319 1.379 . S
C314 N321 1.356 . S
C315 C314 1.363 . S
C315 C318 1.363 1_655 S
N316 C318 1.356 . S
N316 H328 0.984 . S
N316 H329 0.985 . S
N317 C319 1.356 . S
N317 H322 0.984 . S
N317 H323 0.985 . S
C318 C312 1.379 . S
C318 C315 1.363 1_455 S
C318 N316 1.356 . S
C319 C313 1.363 1_655 S
C319 C314 1.379 . S
C319 N317 1.356 . S
N320 C312 1.356 . S
N320 H326 0.984 . S
N320 H327 0.984 . S
N321 C314 1.356 . S
N321 H324 0.984 . S
N321 H325 0.985 . S
H322 N317 0.984 . S
H323 N317 0.985 . S
H324 N321 0.984 . S
H325 N321 0.985 . S
H326 N320 0.984 . S
H327 N320 0.984 . S
H328 N316 0.984 . S
H329 N316 0.985 . S
C330 C331 1.363 . S
C330 C336 1.379 . S
C330 N338 1.356 . S
C331 C330 1.363 . S
C331 C337 1.363 . S
C332 C333 1.363 . S
C332 C337 1.379 . S
C332 N339 1.356 . S
C333 C332 1.363 . S
C333 C336 1.363 . S
N334 C336 1.356 . S
N334 H346 0.984 . S
N334 H347 0.985 . S
N335 C337 1.356 . S
N335 H340 0.984 . S
N335 H341 0.985 . S
C336 C330 1.379 . S
C336 C333 1.363 . S
C336 N334 1.356 . S
C337 C331 1.363 . S
C337 C332 1.379 . S
C337 N335 1.356 . S
N338 C330 1.356 . S
N338 H344 0.984 . S
N338 H345 0.984 . S
N339 C332 1.356 . S
N339 H342 0.984 . S
N339 H343 0.985 . S
H340 N335 0.984 . S
H341 N335 0.985 . S
H342 N339 0.984 . S
H343 N339 0.985 . S
H344 N338 0.984 . S
H345 N338 0.984 . S
H346 N334 0.984 . S
H347 N334 0.985 . S
C348 C349 1.363 . S
C348 C354 1.379 . S
C348 N356 1.356 . S
C349 C348 1.363 . S
C349 C355 1.363 1_655 S
C350 C351 1.363 1_455 S
C350 C355 1.379 . S
C350 N357 1.356 . S
C351 C350 1.363 1_655 S
C351 C354 1.363 . S
N352 C354 1.356 . S
N352 H364 0.984 . S
N352 H365 0.985 . S
N353 C355 1.356 . S
N353 H358 0.984 . S
N353 H359 0.985 . S
C354 C348 1.379 . S
C354 C351 1.363 . S
C354 N352 1.356 . S
C355 C349 1.363 1_455 S
C355 C350 1.379 . S
C355 N353 1.356 . S
N356 C348 1.356 . S
N356 H362 0.984 . S
N356 H363 0.984 . S
N357 C350 1.356 . S
N357 H360 0.984 . S
N357 H361 0.985 . S
H358 N353 0.984 . S
H359 N353 0.985 . S
H360 N357 0.984 . S
H361 N357 0.985 . S
H362 N356 0.984 . S
H363 N356 0.984 . S
H364 N352 0.984 . S
H365 N352 0.985 . S
C366 C367 1.363 . S
C366 C372 1.379 . S
C366 N374 1.356 . S
C367 C366 1.363 . S
C367 C373 1.363 . S
C368 C369 1.363 . S
C368 C373 1.379 . S
C368 N375 1.356 . S
C369 C368 1.363 . S
C369 C372 1.363 . S
N370 C372 1.356 . S
N370 H382 0.984 . S
N370 H383 0.985 . S
N371 C373 1.356 . S
N371 H376 0.984 . S
N371 H377 0.985 . S
C372 C366 1.379 . S
C372 C369 1.363 . S
C372 N370 1.356 . S
C373 C367 1.363 . S
C373 C368 1.379 . S
C373 N371 1.356 . S
N374 C366 1.356 . S
N374 H380 0.984 . S
N374 H381 0.984 . S
N375 C368 1.356 . S
N375 H378 0.984 . S
N375 H379 0.985 . S
H376 N371 0.984 . S
H377 N371 0.985 . S
H378 N375 0.984 . S
H379 N375 0.985 . S
H380 N374 0.984 . S
H381 N374 0.984 . S
H382 N370 0.984 . S
H383 N370 0.985 . S
C384 C385 1.363 . S
C384 C390 1.379 . S
C384 N392 1.356 . S
C385 C384 1.363 . S
C385 C391 1.363 1_545 S
C386 C387 1.363 1_565 S
C386 C391 1.379 . S
C386 N393 1.356 . S
C387 C386 1.363 1_545 S
C387 C390 1.363 . S
N388 C390 1.356 . S
N388 H400 0.984 . S
N388 H401 0.985 . S
N389 C391 1.356 . S
N389 H394 0.984 . S
N389 H395 0.985 . S
C390 C384 1.379 . S
C390 C387 1.363 . S
C390 N388 1.356 . S
C391 C385 1.363 1_565 S
C391 C386 1.379 . S
C391 N389 1.356 . S
N392 C384 1.356 . S
N392 H398 0.984 . S
N392 H399 0.984 . S
N393 C386 1.356 . S
N393 H396 0.984 . S
N393 H397 0.985 . S
H394 N389 0.984 . S
H395 N389 0.985 . S
H396 N393 0.984 . S
H397 N393 0.985 . S
H398 N392 0.984 . S
H399 N392 0.984 . S
H400 N388 0.984 . S
H401 N388 0.985 . S
C402 C403 1.363 . S
C402 C408 1.379 . S
C402 N410 1.356 . S
C403 C402 1.363 . S
C403 C409 1.363 1_455 S
C404 C405 1.363 1_655 S
C404 C409 1.379 . S
C404 N411 1.356 . S
C405 C404 1.363 1_455 S
C405 C408 1.363 . S
N406 C408 1.356 . S
N406 H418 0.984 . S
N406 H419 0.985 . S
N407 C409 1.356 . S
N407 H412 0.984 . S
N407 H413 0.985 . S
C408 C402 1.379 . S
C408 C405 1.363 . S
C408 N406 1.356 . S
C409 C403 1.363 1_655 S
C409 C404 1.379 . S
C409 N407 1.356 . S
N410 C402 1.356 . S
N410 H416 0.984 . S
N410 H417 0.984 . S
N411 C404 1.356 . S
N411 H414 0.984 . S
N411 H415 0.985 . S
H412 N407 0.984 . S
H413 N407 0.985 . S
H414 N411 0.984 . S
H415 N411 0.985 . S
H416 N410 0.984 . S
H417 N410 0.984 . S
H418 N406 0.984 . S
H419 N406 0.985 . S
C420 C421 1.363 . S
C420 C426 1.379 . S
C420 N428 1.356 . S
C421 C420 1.363 . S
C421 C427 1.363 . S
C422 C423 1.363 . S
C422 C427 1.379 . S
C422 N429 1.356 . S
C423 C422 1.363 . S
C423 C426 1.363 . S
N424 C426 1.356 . S
N424 H436 0.984 . S
N424 H437 0.985 . S
N425 C427 1.356 . S
N425 H430 0.984 . S
N425 H431 0.985 . S
C426 C420 1.379 . S
C426 C423 1.363 . S
C426 N424 1.356 . S
C427 C421 1.363 . S
C427 C422 1.379 . S
C427 N425 1.356 . S
N428 C420 1.356 . S
N428 H434 0.984 . S
N428 H435 0.984 . S
N429 C422 1.356 . S
N429 H432 0.984 . S
N429 H433 0.985 . S
H430 N425 0.984 . S
H431 N425 0.985 . S
H432 N429 0.984 . S
H433 N429 0.985 . S
H434 N428 0.984 . S
H435 N428 0.984 . S
H436 N424 0.984 . S
H437 N424 0.985 . S
C438 C439 1.363 1_545 S
C438 C444 1.379 . S
C438 N446 1.356 . S
C439 C438 1.363 1_565 S
C439 C445 1.363 . S
C440 C441 1.363 . S
C440 C445 1.379 . S
C440 N447 1.356 . S
C441 C440 1.363 . S
C441 C444 1.363 1_565 S
N442 C444 1.356 . S
N442 H454 0.984 . S
N442 H455 0.985 . S
N443 C445 1.356 . S
N443 H448 0.984 . S
N443 H449 0.985 . S
C444 C438 1.379 . S
C444 C441 1.363 1_545 S
C444 N442 1.356 . S
C445 C439 1.363 . S
C445 C440 1.379 . S
C445 N443 1.356 . S
N446 C438 1.356 . S
N446 H452 0.984 . S
N446 H453 0.984 . S
N447 C440 1.356 . S
N447 H450 0.984 . S
N447 H451 0.985 . S
H448 N443 0.984 . S
H449 N443 0.985 . S
H450 N447 0.984 . S
H451 N447 0.985 . S
H452 N446 0.984 . S
H453 N446 0.984 . S
H454 N442 0.984 . S
H455 N442 0.985 . S
C133 C60 1.405 . S
C135 C5 1.405 . S
C151 C16 1.405 . S
C153 C38 1.405 . S
C169 C49 1.405 . S
C171 C27 1.405 . S
C187 C126 1.626 . S
C189 C71 1.626 . S
C205 C82 1.626 . S
C207 C104 1.626 . S
C223 C115 1.625 . S
C225 C93 1.625 . S
C241 C8 1.854 . S
C243 C74 1.992 . S
C259 C85 1.992 . S
C261 C19 1.854 . S
C277 C30 1.854 . S
C279 C96 1.992 . S
C295 C107 1.992 . S
C297 C41 1.854 . S
C313 C118 1.992 . S
C315 C52 1.854 . S
C331 C63 1.854 . S
C333 C129 1.992 . S
C349 C51 1.208 . S
C351 C7 1.208 . S
C367 C62 1.208 . S
C369 C18 1.208 . S
C385 C29 1.208 . S
C387 C40 1.208 . S
C403 C73 1.319 . S
C405 C117 1.319 . S
C421 C128 1.319 . S
C423 C84 1.319 . S
C439 C95 1.318 . S
C441 C106 1.318 . S
