# Generated by pormake.
# Topology unr, (4)-cn, num edge types: 1
# Building blocks:
#     Node 0, Type 0, BuildingBlock: AZAVOO_clean_sbu_0, # of connection points: 4
#     Node 1, Type 0, BuildingBlock: AZAVOO_clean_sbu_0, # of connection points: 4
#     Node 2, Type 0, BuildingBlock: AZAVOO_clean_sbu_0, # of connection points: 4
#     Node 3, Type 0, BuildingBlock: AZAVOO_clean_sbu_0, # of connection points: 4
#     Node 4, Type 0, BuildingBlock: AZAVOO_clean_sbu_0, # of connection points: 4
#     Node 5, Type 0, BuildingBlock: AZAVOO_clean_sbu_0, # of connection points: 4
#     Node 6, Type 0, BuildingBlock: AZAVOO_clean_sbu_0, # of connection points: 4
#     Node 7, Type 0, BuildingBlock: AZAVOO_clean_sbu_0, # of connection points: 4
#     Node 8, Type 0, BuildingBlock: AZAVOO_clean_sbu_0, # of connection points: 4
#     Node 9, Type 0, BuildingBlock: AZAVOO_clean_sbu_0, # of connection points: 4
#     Node 10, Type 0, BuildingBlock: AZAVOO_clean_sbu_0, # of connection points: 4
#     Node 11, Type 0, BuildingBlock: AZAVOO_clean_sbu_0, # of connection points: 4
#     Node 12, Type 0, BuildingBlock: AZAVOO_clean_sbu_0, # of connection points: 4
#     Node 13, Type 0, BuildingBlock: AZAVOO_clean_sbu_0, # of connection points: 4
#     Node 14, Type 0, BuildingBlock: AZAVOO_clean_sbu_0, # of connection points: 4
#     Node 15, Type 0, BuildingBlock: AZAVOO_clean_sbu_0, # of connection points: 4
#     Node 16, Type 0, BuildingBlock: AZAVOO_clean_sbu_0, # of connection points: 4
#     Node 17, Type 0, BuildingBlock: AZAVOO_clean_sbu_0, # of connection points: 4
#     Node 18, Type 0, BuildingBlock: AZAVOO_clean_sbu_0, # of connection points: 4
#     Node 19, Type 0, BuildingBlock: AZAVOO_clean_sbu_0, # of connection points: 4
#     Node 20, Type 0, BuildingBlock: AZAVOO_clean_sbu_0, # of connection points: 4
#     Node 21, Type 0, BuildingBlock: AZAVOO_clean_sbu_0, # of connection points: 4
#     Node 22, Type 0, BuildingBlock: AZAVOO_clean_sbu_0, # of connection points: 4
#     Node 23, Type 0, BuildingBlock: AZAVOO_clean_sbu_0, # of connection points: 4
#     Node 24, Type 0, BuildingBlock: AZAVOO_clean_sbu_0, # of connection points: 4
#     Node 25, Type 0, BuildingBlock: AZAVOO_clean_sbu_0, # of connection points: 4
#     Node 26, Type 0, BuildingBlock: AZAVOO_clean_sbu_0, # of connection points: 4
#     Node 27, Type 0, BuildingBlock: AZAVOO_clean_sbu_0, # of connection points: 4
#     Node 28, Type 0, BuildingBlock: AZAVOO_clean_sbu_0, # of connection points: 4
#     Node 29, Type 0, BuildingBlock: AZAVOO_clean_sbu_0, # of connection points: 4
#     Node 30, Type 0, BuildingBlock: AZAVOO_clean_sbu_0, # of connection points: 4
#     Node 31, Type 0, BuildingBlock: AZAVOO_clean_sbu_0, # of connection points: 4
#     Node 32, Type 0, BuildingBlock: AZAVOO_clean_sbu_0, # of connection points: 4
#     Node 33, Type 0, BuildingBlock: AZAVOO_clean_sbu_0, # of connection points: 4
#     Node 34, Type 0, BuildingBlock: AZAVOO_clean_sbu_0, # of connection points: 4
#     Node 35, Type 0, BuildingBlock: AZAVOO_clean_sbu_0, # of connection points: 4
#     Edge 36, Type (0, 0), BuildingBlock: ZUJKAS_clean_linker_0, # of connection points: 2
#     Edge 37, Type (0, 0), BuildingBlock: ZUJKAS_clean_linker_0, # of connection points: 2
#     Edge 38, Type (0, 0), BuildingBlock: ZUJKAS_clean_linker_0, # of connection points: 2
#     Edge 39, Type (0, 0), BuildingBlock: ZUJKAS_clean_linker_0, # of connection points: 2
#     Edge 40, Type (0, 0), BuildingBlock: ZUJKAS_clean_linker_0, # of connection points: 2
#     Edge 41, Type (0, 0), BuildingBlock: ZUJKAS_clean_linker_0, # of connection points: 2
#     Edge 42, Type (0, 0), BuildingBlock: ZUJKAS_clean_linker_0, # of connection points: 2
#     Edge 43, Type (0, 0), BuildingBlock: ZUJKAS_clean_linker_0, # of connection points: 2
#     Edge 44, Type (0, 0), BuildingBlock: ZUJKAS_clean_linker_0, # of connection points: 2
#     Edge 45, Type (0, 0), BuildingBlock: ZUJKAS_clean_linker_0, # of connection points: 2
#     Edge 46, Type (0, 0), BuildingBlock: ZUJKAS_clean_linker_0, # of connection points: 2
#     Edge 47, Type (0, 0), BuildingBlock: ZUJKAS_clean_linker_0, # of connection points: 2
#     Edge 48, Type (0, 0), BuildingBlock: ZUJKAS_clean_linker_0, # of connection points: 2
#     Edge 49, Type (0, 0), BuildingBlock: ZUJKAS_clean_linker_0, # of connection points: 2
#     Edge 50, Type (0, 0), BuildingBlock: ZUJKAS_clean_linker_0, # of connection points: 2
#     Edge 51, Type (0, 0), BuildingBlock: ZUJKAS_clean_linker_0, # of connection points: 2
#     Edge 52, Type (0, 0), BuildingBlock: ZUJKAS_clean_linker_0, # of connection points: 2
#     Edge 53, Type (0, 0), BuildingBlock: ZUJKAS_clean_linker_0, # of connection points: 2
#     Edge 54, Type (0, 0), BuildingBlock: ZUJKAS_clean_linker_0, # of connection points: 2
#     Edge 55, Type (0, 0), BuildingBlock: ZUJKAS_clean_linker_0, # of connection points: 2
#     Edge 56, Type (0, 0), BuildingBlock: ZUJKAS_clean_linker_0, # of connection points: 2
#     Edge 57, Type (0, 0), BuildingBlock: ZUJKAS_clean_linker_0, # of connection points: 2
#     Edge 58, Type (0, 0), BuildingBlock: ZUJKAS_clean_linker_0, # of connection points: 2
#     Edge 59, Type (0, 0), BuildingBlock: ZUJKAS_clean_linker_0, # of connection points: 2
#     Edge 60, Type (0, 0), BuildingBlock: ZUJKAS_clean_linker_0, # of connection points: 2
#     Edge 61, Type (0, 0), BuildingBlock: ZUJKAS_clean_linker_0, # of connection points: 2
#     Edge 62, Type (0, 0), BuildingBlock: ZUJKAS_clean_linker_0, # of connection points: 2
#     Edge 63, Type (0, 0), BuildingBlock: ZUJKAS_clean_linker_0, # of connection points: 2
#     Edge 64, Type (0, 0), BuildingBlock: ZUJKAS_clean_linker_0, # of connection points: 2
#     Edge 65, Type (0, 0), BuildingBlock: ZUJKAS_clean_linker_0, # of connection points: 2
#     Edge 66, Type (0, 0), BuildingBlock: ZUJKAS_clean_linker_0, # of connection points: 2
#     Edge 67, Type (0, 0), BuildingBlock: ZUJKAS_clean_linker_0, # of connection points: 2
#     Edge 68, Type (0, 0), BuildingBlock: ZUJKAS_clean_linker_0, # of connection points: 2
#     Edge 69, Type (0, 0), BuildingBlock: ZUJKAS_clean_linker_0, # of connection points: 2
#     Edge 70, Type (0, 0), BuildingBlock: ZUJKAS_clean_linker_0, # of connection points: 2
#     Edge 71, Type (0, 0), BuildingBlock: ZUJKAS_clean_linker_0, # of connection points: 2
#     Edge 72, Type (0, 0), BuildingBlock: ZUJKAS_clean_linker_0, # of connection points: 2
#     Edge 73, Type (0, 0), BuildingBlock: ZUJKAS_clean_linker_0, # of connection points: 2
#     Edge 74, Type (0, 0), BuildingBlock: ZUJKAS_clean_linker_0, # of connection points: 2
#     Edge 75, Type (0, 0), BuildingBlock: ZUJKAS_clean_linker_0, # of connection points: 2
#     Edge 76, Type (0, 0), BuildingBlock: ZUJKAS_clean_linker_0, # of connection points: 2
#     Edge 77, Type (0, 0), BuildingBlock: ZUJKAS_clean_linker_0, # of connection points: 2
#     Edge 78, Type (0, 0), BuildingBlock: ZUJKAS_clean_linker_0, # of connection points: 2
#     Edge 79, Type (0, 0), BuildingBlock: ZUJKAS_clean_linker_0, # of connection points: 2
#     Edge 80, Type (0, 0), BuildingBlock: ZUJKAS_clean_linker_0, # of connection points: 2
#     Edge 81, Type (0, 0), BuildingBlock: ZUJKAS_clean_linker_0, # of connection points: 2
#     Edge 82, Type (0, 0), BuildingBlock: ZUJKAS_clean_linker_0, # of connection points: 2
#     Edge 83, Type (0, 0), BuildingBlock: ZUJKAS_clean_linker_0, # of connection points: 2
#     Edge 84, Type (0, 0), BuildingBlock: ZUJKAS_clean_linker_0, # of connection points: 2
#     Edge 85, Type (0, 0), BuildingBlock: ZUJKAS_clean_linker_0, # of connection points: 2
#     Edge 86, Type (0, 0), BuildingBlock: ZUJKAS_clean_linker_0, # of connection points: 2
#     Edge 87, Type (0, 0), BuildingBlock: ZUJKAS_clean_linker_0, # of connection points: 2
#     Edge 88, Type (0, 0), BuildingBlock: ZUJKAS_clean_linker_0, # of connection points: 2
#     Edge 89, Type (0, 0), BuildingBlock: ZUJKAS_clean_linker_0, # of connection points: 2
#     Edge 90, Type (0, 0), BuildingBlock: ZUJKAS_clean_linker_0, # of connection points: 2
#     Edge 91, Type (0, 0), BuildingBlock: ZUJKAS_clean_linker_0, # of connection points: 2
#     Edge 92, Type (0, 0), BuildingBlock: ZUJKAS_clean_linker_0, # of connection points: 2
#     Edge 93, Type (0, 0), BuildingBlock: ZUJKAS_clean_linker_0, # of connection points: 2
#     Edge 94, Type (0, 0), BuildingBlock: ZUJKAS_clean_linker_0, # of connection points: 2
#     Edge 95, Type (0, 0), BuildingBlock: ZUJKAS_clean_linker_0, # of connection points: 2
#     Edge 96, Type (0, 0), BuildingBlock: ZUJKAS_clean_linker_0, # of connection points: 2
#     Edge 97, Type (0, 0), BuildingBlock: ZUJKAS_clean_linker_0, # of connection points: 2
#     Edge 98, Type (0, 0), BuildingBlock: ZUJKAS_clean_linker_0, # of connection points: 2
#     Edge 99, Type (0, 0), BuildingBlock: ZUJKAS_clean_linker_0, # of connection points: 2
#     Edge 100, Type (0, 0), BuildingBlock: ZUJKAS_clean_linker_0, # of connection points: 2
#     Edge 101, Type (0, 0), BuildingBlock: ZUJKAS_clean_linker_0, # of connection points: 2
#     Edge 102, Type (0, 0), BuildingBlock: ZUJKAS_clean_linker_0, # of connection points: 2
#     Edge 103, Type (0, 0), BuildingBlock: ZUJKAS_clean_linker_0, # of connection points: 2
#     Edge 104, Type (0, 0), BuildingBlock: ZUJKAS_clean_linker_0, # of connection points: 2
#     Edge 105, Type (0, 0), BuildingBlock: ZUJKAS_clean_linker_0, # of connection points: 2
#     Edge 106, Type (0, 0), BuildingBlock: ZUJKAS_clean_linker_0, # of connection points: 2
#     Edge 107, Type (0, 0), BuildingBlock: ZUJKAS_clean_linker_0, # of connection points: 2
# Relax obj value: 0.391
# Max RMSD: 0.231
# Mean RMSD: 0.231
data_MOF--net-unr--node1-AZAVOO_clean_sbu_0--edge1-ZUJKAS_clean_linker_0
_symmetry_space_group_name_H-M    P1
_symmetry_Int_Tables_number       1
_symmetry_cell_setting            triclinic
loop_
_symmetry_equiv_pos_as_xyz
'x, y, z'
_cell_length_a     56.511605
_cell_length_b     56.507832
_cell_length_c     173.68957
_cell_angle_alpha  89.986691
_cell_angle_beta   90.01607
_cell_angle_gamma 119.99359
loop_
_atom_site_label
_atom_site_type_symbol
_atom_site_fract_x
_atom_site_fract_y
_atom_site_fract_z
_atom_type_partial_charge
Mg0 Mg 0.18552 0.19812 0.19375 0.0
O1 O 0.16159 0.15166 0.19497 0.0
O2 O 0.12122 0.13869 0.20046 0.0
Mg3 Mg 0.12079 0.17779 0.20373 0.0
C4 C 0.1382 0.13305 0.1973 0.0
C5 C 0.21957 0.17912 0.18442 0.0
O6 O 0.19553 0.16598 0.18107 0.0
O7 O 0.19762 0.20307 0.20658 0.0
O8 O 0.15721 0.19186 0.21185 0.0
O9 O 0.16209 0.19249 0.18279 0.0
O10 O 0.1489 0.19899 0.19417 0.0
C11 C 0.18268 0.20009 0.21246 0.0
C12 C 0.14332 0.1926 0.18703 0.0
O13 O 0.22276 0.19482 0.19007 0.0
Mg14 Mg 0.79623 0.98565 0.19014 0.0
O15 O 0.84285 0.00865 0.19083 0.0
O16 O 0.85724 0.98223 0.19625 0.0
Mg17 Mg 0.81891 0.94226 0.19965 0.0
C18 C 0.862 0.00448 0.19302 0.0
C19 C 0.79528 0.02996 0.17967 0.0
O20 O 0.78821 0.00987 0.17475 0.0
O21 O 0.79213 0.99249 0.20313 0.0
O22 O 0.8057 0.96456 0.20794 0.0
O23 O 0.80144 0.96791 0.17908 0.0
O24 O 0.79583 0.94845 0.19046 0.0
C25 C 0.79684 0.98117 0.20887 0.0
C26 C 0.80169 0.94915 0.1833 0.0
O27 O 0.79908 0.02619 0.18668 0.0
Mg28 Mg 0.00917 0.81054 0.19156 0.0
O29 O 0.9858 0.83396 0.19158 0.0
O30 O 0.01035 0.87431 0.19743 0.0
Mg31 Mg 0.04917 0.87564 0.20184 0.0
C32 C 0.98917 0.85701 0.19375 0.0
C33 C 0.95921 0.77543 0.18113 0.0
O34 O 0.97125 0.799 0.17751 0.0
O35 O 0.99876 0.79833 0.20436 0.0
O36 O 0.02394 0.83946 0.20976 0.0
O37 O 0.02973 0.83449 0.18089 0.0
O38 O 0.04598 0.84737 0.19266 0.0
C39 C 0.00738 0.81381 0.21029 0.0
C40 C 0.04715 0.85315 0.18547 0.0
O41 O 0.96995 0.77291 0.18729 0.0
Mg42 Mg 0.20167 0.18728 0.31087 0.0
O43 O 0.1555 0.16489 0.30924 0.0
O44 O 0.14184 0.12552 0.30303 0.0
Mg45 Mg 0.18053 0.12323 0.30041 0.0
C46 C 0.13669 0.14249 0.30643 0.0
C47 C 0.18549 0.22305 0.32056 0.0
O48 O 0.17354 0.19974 0.32431 0.0
O49 O 0.20882 0.20064 0.29812 0.0
O50 O 0.1977 0.16062 0.29255 0.0
O51 O 0.19315 0.16237 0.32163 0.0
O52 O 0.20103 0.14993 0.3103 0.0
C53 C 0.20663 0.18626 0.29218 0.0
C54 C 0.193 0.14365 0.3173 0.0
O55 O 0.19938 0.2251 0.31456 0.0
Mg56 Mg 0.81111 0.00665 0.30677 0.0
O57 O 0.83588 0.98464 0.3061 0.0
O58 O 0.87644 0.01226 0.30074 0.0
Mg59 Mg 0.87593 0.05059 0.29678 0.0
C60 C 0.85966 0.98982 0.30401 0.0
C61 C 0.76659 0.9633 0.3176 0.0
O62 O 0.77905 0.98431 0.32227 0.0
O63 O 0.79916 0.99826 0.2939 0.0
O64 O 0.84012 0.02576 0.2887 0.0
O65 O 0.83466 0.02598 0.31762 0.0
O66 O 0.84715 0.04446 0.30608 0.0
C67 C 0.81467 0.00857 0.28803 0.0
C68 C 0.85299 0.04467 0.31323 0.0
O69 O 0.77433 0.96603 0.31062 0.0
Mg70 Mg 0.99027 0.79964 0.30866 0.0
O71 O 0.0106 0.84598 0.30701 0.0
O72 O 0.97937 0.85626 0.30286 0.0
Mg73 Mg 0.94054 0.81587 0.30017 0.0
C74 C 0.00344 0.8634 0.3052 0.0
C75 C 0.03603 0.79825 0.318 0.0
O76 O 0.01497 0.78637 0.32267 0.0
O77 O 0.99369 0.79338 0.29564 0.0
O78 O 0.96302 0.80423 0.29139 0.0
O79 O 0.97591 0.80674 0.32001 0.0
O80 O 0.95176 0.79658 0.30929 0.0
C81 C 0.98053 0.79668 0.29014 0.0
C82 C 0.95515 0.80482 0.31631 0.0
O83 O 0.0326 0.80553 0.31135 0.0
Mg84 Mg 0.81348 0.80203 0.80823 0.0
O85 O 0.83813 0.84861 0.80699 0.0
O86 O 0.87946 0.86124 0.80224 0.0
Mg87 Mg 0.87962 0.82191 0.79921 0.0
C88 C 0.86206 0.86709 0.80499 0.0
C89 C 0.77894 0.82158 0.81698 0.0
O90 O 0.80251 0.83406 0.82059 0.0
O91 O 0.80321 0.79692 0.79525 0.0
O92 O 0.84479 0.80969 0.79064 0.0
O93 O 0.83537 0.80803 0.81947 0.0
O94 O 0.84983 0.80061 0.80841 0.0
C95 C 0.81945 0.80134 0.7896 0.0
C96 C 0.85459 0.80764 0.81552 0.0
O97 O 0.77616 0.80606 0.81132 0.0
Mg98 Mg 0.19998 0.01465 0.81102 0.0
O99 O 0.15367 0.9935 0.80925 0.0
O100 O 0.14207 0.02362 0.80501 0.0
Mg101 Mg 0.18203 0.06336 0.80265 0.0
C102 C 0.13565 0.99973 0.80736 0.0
C103 C 0.17859 0.95868 0.8189 0.0
O104 O 0.16496 0.96882 0.82237 0.0
O105 O 0.20672 0.01205 0.79799 0.0
O106 O 0.19523 0.04233 0.7938 0.0
O107 O 0.19231 0.02798 0.82243 0.0
O108 O 0.20163 0.05253 0.8118 0.0
C109 C 0.20343 0.02535 0.79252 0.0
C110 C 0.19319 0.04841 0.81881 0.0
O111 O 0.19535 0.9726 0.81359 0.0
Mg112 Mg 0.99177 0.18903 0.80724 0.0
O113 O 0.01244 0.16296 0.80634 0.0
O114 O 0.98219 0.1215 0.80192 0.0
Mg115 Mg 0.94434 0.12331 0.79819 0.0
C116 C 0.00564 0.13837 0.80466 0.0
C117 C 0.04559 0.22273 0.8163 0.0
O118 O 0.03436 0.19892 0.81979 0.0
O119 O 0.99833 0.19907 0.79426 0.0
O120 O 0.96919 0.15761 0.78962 0.0
O121 O 0.97449 0.16745 0.81843 0.0
O122 O 0.95325 0.15356 0.80726 0.0
C123 C 0.9869 0.18276 0.7886 0.0
C124 C 0.95479 0.14864 0.81441 0.0
O125 O 0.03326 0.22577 0.81058 0.0
Mg126 Mg 0.80296 0.81197 0.69124 0.0
O127 O 0.84962 0.83488 0.69166 0.0
O128 O 0.86508 0.87571 0.69716 0.0
Mg129 Mg 0.8274 0.8778 0.70102 0.0
C130 C 0.86922 0.85801 0.6938 0.0
C131 C 0.80138 0.76698 0.68047 0.0
O132 O 0.79496 0.78061 0.67558 0.0
O133 O 0.79982 0.80061 0.70414 0.0
O134 O 0.81531 0.8421 0.70923 0.0
O135 O 0.80778 0.83542 0.68033 0.0
O136 O 0.80312 0.84901 0.69186 0.0
C137 C 0.80606 0.81648 0.70997 0.0
C138 C 0.80842 0.85432 0.68468 0.0
O139 O 0.80497 0.7741 0.68752 0.0
Mg140 Mg 0.19042 0.99289 0.69394 0.0
O141 O 0.16545 0.01475 0.69381 0.0
O142 O 0.12433 0.98775 0.69895 0.0
Mg143 Mg 0.12469 0.95016 0.70366 0.0
C144 C 0.14148 0.0098 0.69557 0.0
C145 C 0.22422 0.04341 0.68367 0.0
O146 O 0.20042 0.03092 0.68017 0.0
O147 O 0.20114 0.0033 0.7068 0.0
O148 O 0.15972 0.97648 0.71185 0.0
O149 O 0.16823 0.97175 0.68309 0.0
O150 O 0.15435 0.9551 0.69475 0.0
C151 C 0.18509 0.9939 0.7126 0.0
C152 C 0.14942 0.95368 0.6875 0.0
O153 O 0.22742 0.03291 0.68979 0.0
Mg154 Mg 0.01411 0.20185 0.68986 0.0
O155 O 0.99189 0.15515 0.69085 0.0
O156 O 0.02022 0.14207 0.69562 0.0
Mg157 Mg 0.05963 0.18101 0.69894 0.0
C158 C 0.99716 0.13649 0.69279 0.0
C159 C 0.9607 0.1834 0.68079 0.0
O160 O 0.97151 0.17045 0.67729 0.0
O161 O 0.00795 0.20581 0.70287 0.0
O162 O 0.03625 0.19232 0.70747 0.0
O163 O 0.03091 0.19664 0.67867 0.0
O164 O 0.05181 0.20318 0.68986 0.0
C165 C 0.01922 0.20061 0.70852 0.0
C166 C 0.05027 0.19687 0.68271 0.0
O167 O 0.97324 0.19858 0.68652 0.0
Mg168 Mg 0.85397 0.52661 0.52516 0.0
O169 O 0.82808 0.48005 0.5264 0.0
O170 O 0.78675 0.46914 0.53086 0.0
Mg171 Mg 0.78851 0.50911 0.53422 0.0
C172 C 0.80358 0.46236 0.5282 0.0
C173 C 0.90062 0.52863 0.51533 0.0
O174 O 0.89081 0.54019 0.51076 0.0
O175 O 0.86439 0.53143 0.53813 0.0
O176 O 0.82303 0.51946 0.54276 0.0
O177 O 0.83191 0.5207 0.51397 0.0
O178 O 0.8184 0.52949 0.525 0.0
C179 C 0.8482 0.52704 0.54379 0.0
C180 C 0.81315 0.52192 0.51793 0.0
O181 O 0.89043 0.52126 0.52203 0.0
Mg182 Mg 0.46757 0.32075 0.52283 0.0
O183 O 0.51347 0.34116 0.52514 0.0
O184 O 0.52339 0.30991 0.52948 0.0
Mg185 Mg 0.48276 0.26984 0.53097 0.0
C186 C 0.53076 0.3342 0.52728 0.0
C187 C 0.4656 0.36721 0.51413 0.0
O188 O 0.45429 0.34672 0.50926 0.0
O189 O 0.4587 0.32125 0.53578 0.0
O190 O 0.46697 0.28849 0.53986 0.0
O191 O 0.47722 0.30947 0.5114 0.0
O192 O 0.46566 0.28287 0.52166 0.0
C193 C 0.45932 0.30592 0.54111 0.0
C194 C 0.47549 0.28829 0.5148 0.0
O195 O 0.47285 0.36318 0.52071 0.0
Mg196 Mg 0.67521 0.14467 0.52347 0.0
O197 O 0.65566 0.17153 0.52502 0.0
O198 O 0.68793 0.21329 0.5287 0.0
Mg199 Mg 0.7266 0.21125 0.53121 0.0
C200 C 0.6635 0.19646 0.52661 0.0
C201 C 0.62841 0.09703 0.51467 0.0
O202 O 0.64902 0.10603 0.50985 0.0
O203 O 0.67316 0.13664 0.53654 0.0
O204 O 0.70471 0.17839 0.54039 0.0
O205 O 0.68824 0.16436 0.51188 0.0
O206 O 0.71385 0.17972 0.52232 0.0
C207 C 0.68702 0.15358 0.54187 0.0
C208 C 0.70947 0.18367 0.5153 0.0
O209 O 0.63245 0.10814 0.52128 0.0
Mg210 Mg 0.8667 0.52127 0.64251 0.0
O211 O 0.82002 0.49768 0.64186 0.0
O212 O 0.80546 0.45597 0.63704 0.0
Mg213 Mg 0.84368 0.45404 0.63377 0.0
C214 C 0.8008 0.47397 0.63996 0.0
C215 C 0.86898 0.56834 0.65231 0.0
O216 O 0.87704 0.55638 0.65732 0.0
O217 O 0.87043 0.5304 0.62946 0.0
O218 O 0.85577 0.48824 0.625 0.0
O219 O 0.86114 0.50018 0.65383 0.0
O220 O 0.86673 0.48421 0.64278 0.0
C221 C 0.86474 0.51365 0.62387 0.0
C222 C 0.86028 0.48022 0.64995 0.0
O223 O 0.86411 0.55948 0.64543 0.0
Mg224 Mg 0.47628 0.34003 0.63993 0.0
O225 O 0.49898 0.31609 0.63985 0.0
O226 O 0.53844 0.33958 0.63352 0.0
Mg227 Mg 0.54083 0.37924 0.62932 0.0
C228 C 0.52146 0.31878 0.63741 0.0
C229 C 0.44148 0.29136 0.65073 0.0
O230 O 0.46538 0.30364 0.65417 0.0
O231 O 0.46334 0.32908 0.62718 0.0
O232 O 0.50369 0.35615 0.62156 0.0
O233 O 0.5007 0.3613 0.65052 0.0
O234 O 0.51348 0.37651 0.63869 0.0
C235 C 0.47806 0.33937 0.62116 0.0
C236 C 0.51938 0.37834 0.64588 0.0
O237 O 0.43856 0.30143 0.64448 0.0
Mg238 Mg 0.65839 0.13704 0.6407 0.0
O239 O 0.67852 0.18381 0.64043 0.0
O240 O 0.64886 0.1955 0.63582 0.0
Mg241 Mg 0.61191 0.15625 0.63147 0.0
C242 C 0.67188 0.20177 0.63883 0.0
C243 C 0.71123 0.15661 0.65026 0.0
O244 O 0.69934 0.16844 0.65381 0.0
O245 O 0.66707 0.13596 0.62776 0.0
O246 O 0.63828 0.14859 0.62301 0.0
O247 O 0.63873 0.13855 0.65179 0.0
O248 O 0.61973 0.13344 0.64035 0.0
C249 C 0.65636 0.1416 0.62206 0.0
C250 C 0.61953 0.13797 0.64759 0.0
O251 O 0.69962 0.14188 0.64438 0.0
Mg252 Mg 0.47121 0.12977 0.14273 0.0
O253 O 0.49366 0.17659 0.14212 0.0
O254 O 0.53249 0.19195 0.13549 0.0
Mg255 Mg 0.53334 0.15431 0.13107 0.0
C256 C 0.51595 0.19614 0.13947 0.0
C257 C 0.43766 0.14535 0.15365 0.0
O258 O 0.46197 0.15815 0.15686 0.0
O259 O 0.4556 0.12581 0.13027 0.0
O260 O 0.49513 0.14227 0.12386 0.0
O261 O 0.49784 0.135 0.1529 0.0
O262 O 0.50804 0.13048 0.1409 0.0
C263 C 0.46931 0.13251 0.124 0.0
C264 C 0.51551 0.136 0.14797 0.0
O265 O 0.43422 0.13104 0.14765 0.0
Mg266 Mg 0.86275 0.3404 0.14033 0.0
O267 O 0.81607 0.31817 0.13933 0.0
O268 O 0.80327 0.34642 0.13431 0.0
Mg269 Mg 0.8422 0.38518 0.13067 0.0
C270 C 0.79755 0.32354 0.13731 0.0
C271 C 0.8625 0.29562 0.15086 0.0
O272 O 0.87004 0.31586 0.15576 0.0
O273 O 0.8673 0.33347 0.12743 0.0
O274 O 0.85358 0.36106 0.12243 0.0
O275 O 0.85753 0.35837 0.15133 0.0
O276 O 0.86428 0.37819 0.13996 0.0
C277 C 0.86207 0.34409 0.12164 0.0
C278 C 0.85811 0.37753 0.1471 0.0
O279 O 0.85875 0.29941 0.14385 0.0
Mg280 Mg 0.6556 0.5218 0.14088 0.0
O281 O 0.67879 0.4984 0.14042 0.0
O282 O 0.6541 0.45896 0.13417 0.0
Mg283 Mg 0.61442 0.45743 0.13036 0.0
C284 C 0.67541 0.47571 0.13792 0.0
C285 C 0.70592 0.55654 0.15123 0.0
O286 O 0.69392 0.53288 0.1548 0.0
O287 O 0.66526 0.5346 0.12808 0.0
O288 O 0.63711 0.49443 0.12252 0.0
O289 O 0.63525 0.4975 0.15157 0.0
O290 O 0.61866 0.48503 0.13984 0.0
C291 C 0.65418 0.51999 0.12209 0.0
C292 C 0.61751 0.47903 0.14701 0.0
O293 O 0.69505 0.55924 0.14512 0.0
Mg294 Mg 0.46626 0.14286 0.02705 0.0
O295 O 0.51283 0.16305 0.02777 0.0
O296 O 0.53006 0.20205 0.03439 0.0
Mg297 Mg 0.49357 0.20505 0.03882 0.0
C298 C 0.53313 0.18478 0.03042 0.0
C299 C 0.47997 0.10827 0.01607 0.0
O300 O 0.49297 0.13256 0.01287 0.0
O301 O 0.46094 0.12671 0.03948 0.0
O302 O 0.47918 0.16623 0.04596 0.0
O303 O 0.47334 0.17024 0.01693 0.0
O304 O 0.46916 0.18076 0.02892 0.0
C305 C 0.46806 0.14025 0.04578 0.0
C306 C 0.47528 0.18828 0.02187 0.0
O307 O 0.46586 0.10504 0.0221 0.0
Mg308 Mg 0.8586 0.32552 0.02425 0.0
O309 O 0.83623 0.35002 0.02416 0.0
O310 O 0.79787 0.32829 0.03107 0.0
Mg311 Mg 0.79664 0.29031 0.0361 0.0
C312 C 0.81423 0.34807 0.02677 0.0
C313 C 0.89219 0.37269 0.01272 0.0
O314 O 0.86797 0.36061 0.00946 0.0
O315 O 0.87445 0.33942 0.03661 0.0
O316 O 0.83504 0.31716 0.04311 0.0
O317 O 0.83169 0.30158 0.01431 0.0
O318 O 0.8219 0.28987 0.02652 0.0
C319 C 0.86085 0.33318 0.0429 0.0
C320 C 0.8143 0.28586 0.01944 0.0
O321 O 0.89554 0.36281 0.01894 0.0
Mg322 Mg 0.67983 0.5363 0.02361 0.0
O323 O 0.65934 0.49036 0.02576 0.0
O324 O 0.68941 0.48056 0.03108 0.0
Mg325 Mg 0.72891 0.52127 0.03316 0.0
C326 C 0.66576 0.47314 0.02832 0.0
C327 C 0.63435 0.53685 0.01374 0.0
O328 O 0.65535 0.54785 0.00903 0.0
O329 O 0.67558 0.54402 0.03648 0.0
O330 O 0.70779 0.53633 0.04139 0.0
O331 O 0.69535 0.52847 0.01253 0.0
O332 O 0.71817 0.53898 0.02348 0.0
C333 C 0.68977 0.54347 0.04216 0.0
C334 C 0.71577 0.53067 0.01648 0.0
O335 O 0.63775 0.53042 0.02051 0.0
Mg336 Mg 0.52488 0.86383 0.85934 0.0
O337 O 0.50524 0.81714 0.85926 0.0
O338 O 0.46697 0.79851 0.86624 0.0
Mg339 Mg 0.46327 0.83366 0.87141 0.0
C340 C 0.48396 0.7963 0.8619 0.0
C341 C 0.55957 0.85317 0.84755 0.0
O342 O 0.53519 0.84045 0.8444 0.0
O343 O 0.54171 0.86715 0.87162 0.0
O344 O 0.50256 0.84794 0.87828 0.0
O345 O 0.49712 0.85907 0.84948 0.0
O346 O 0.48684 0.85998 0.8617 0.0
C347 C 0.52854 0.85929 0.87797 0.0
C348 C 0.47919 0.85597 0.85462 0.0
O349 O 0.56277 0.86595 0.85385 0.0
Mg350 Mg 0.12985 0.6498 0.85483 0.0
O351 O 0.17636 0.67288 0.85623 0.0
O352 O 0.19013 0.64527 0.86117 0.0
Mg353 Mg 0.15145 0.60468 0.86382 0.0
C354 C 0.19526 0.66828 0.85839 0.0
C355 C 0.14782 0.70376 0.84614 0.0
O356 O 0.1611 0.69344 0.84257 0.0
O357 O 0.12407 0.65421 0.86785 0.0
O358 O 0.13759 0.62587 0.87237 0.0
O359 O 0.13712 0.63502 0.84359 0.0
O360 O 0.13001 0.61276 0.85457 0.0
C361 C 0.12855 0.64226 0.87347 0.0
C362 C 0.13749 0.61569 0.84748 0.0
O363 O 0.13238 0.6906 0.85177 0.0
Mg364 Mg 0.34331 0.47857 0.85857 0.0
O365 O 0.32222 0.50434 0.85856 0.0
O366 O 0.35054 0.54568 0.8634 0.0
Mg367 Mg 0.38778 0.5444 0.86802 0.0
C368 C 0.32801 0.52866 0.86021 0.0
C369 C 0.29159 0.4447 0.84864 0.0
O370 O 0.30349 0.46846 0.84511 0.0
O371 O 0.33364 0.46848 0.87147 0.0
O372 O 0.36137 0.50993 0.87638 0.0
O373 O 0.36408 0.50013 0.8476 0.0
O374 O 0.38154 0.51406 0.85919 0.0
C375 C 0.34363 0.48469 0.87722 0.0
C376 C 0.38275 0.51875 0.85193 0.0
O377 O 0.30282 0.44174 0.85464 0.0
Mg378 Mg 0.53347 0.8587 0.97472 0.0
O379 O 0.4868 0.83774 0.97396 0.0
O380 O 0.4703 0.79837 0.96756 0.0
Mg381 Mg 0.5072 0.79588 0.96327 0.0
C382 C 0.46678 0.81562 0.97139 0.0
C383 C 0.51909 0.89324 0.98549 0.0
O384 O 0.5063 0.86904 0.98875 0.0
O385 O 0.53859 0.87414 0.9622 0.0
O386 O 0.52106 0.8342 0.95596 0.0
O387 O 0.52679 0.83201 0.98499 0.0
O388 O 0.53128 0.821 0.97308 0.0
C389 C 0.53173 0.86015 0.95598 0.0
C390 C 0.52515 0.81381 0.98015 0.0
O391 O 0.53322 0.89644 0.97947 0.0
Mg392 Mg 0.1451 0.67546 0.97188 0.0
O393 O 0.16921 0.65271 0.97191 0.0
O394 O 0.21 0.67857 0.96646 0.0
Mg395 Mg 0.21061 0.71694 0.96197 0.0
C396 C 0.19273 0.65683 0.96995 0.0
C397 C 0.11026 0.62463 0.98202 0.0
O398 O 0.13378 0.6366 0.98567 0.0
O399 O 0.13385 0.66529 0.95906 0.0
O400 O 0.17508 0.69149 0.95382 0.0
O401 O 0.16784 0.69646 0.9827 0.0
O402 O 0.1815 0.71275 0.97099 0.0
C403 C 0.14955 0.67449 0.95318 0.0
C404 C 0.18659 0.71437 0.97824 0.0
O405 O 0.10768 0.63576 0.97595 0.0
Mg406 Mg 0.32125 0.46672 0.97576 0.0
O407 O 0.34136 0.513 0.97414 0.0
O408 O 0.31032 0.52338 0.96991 0.0
Mg409 Mg 0.2713 0.48289 0.96738 0.0
C410 C 0.33437 0.53049 0.97227 0.0
C411 C 0.36737 0.46555 0.98502 0.0
O412 O 0.34653 0.45395 0.98978 0.0
O413 O 0.32449 0.46064 0.96271 0.0
O414 O 0.29346 0.47111 0.95854 0.0
O415 O 0.30685 0.47363 0.98716 0.0
O416 O 0.28273 0.46353 0.97643 0.0
C417 C 0.31104 0.46369 0.95724 0.0
C418 C 0.28598 0.47152 0.98347 0.0
O419 O 0.36368 0.47265 0.97838 0.0
Mg420 Mg 0.14379 0.46455 0.47492 0.0
O421 O 0.16753 0.511 0.47342 0.0
O422 O 0.20886 0.52394 0.46861 0.0
Mg423 Mg 0.20986 0.48484 0.4658 0.0
C424 C 0.19127 0.5296 0.47132 0.0
C425 C 0.09633 0.46077 0.48477 0.0
O426 O 0.10698 0.45017 0.48939 0.0
O427 O 0.13301 0.45828 0.46195 0.0
O428 O 0.1746 0.47126 0.45732 0.0
O429 O 0.16656 0.47205 0.48609 0.0
O430 O 0.18041 0.46372 0.47506 0.0
C431 C 0.14916 0.46243 0.45629 0.0
C432 C 0.18551 0.4712 0.48213 0.0
O433 O 0.10622 0.46802 0.47804 0.0
Mg434 Mg 0.53225 0.67843 0.47622 0.0
O435 O 0.48567 0.65594 0.47507 0.0
O436 O 0.47263 0.68392 0.47001 0.0
Mg437 Mg 0.5116 0.72378 0.46694 0.0
C438 C 0.46702 0.66096 0.47293 0.0
C439 C 0.53524 0.63445 0.48627 0.0
O440 O 0.5453 0.65541 0.49099 0.0
O441 O 0.53739 0.67282 0.46323 0.0
O442 O 0.5249 0.70174 0.45854 0.0
O443 O 0.52641 0.69524 0.48737 0.0
O444 O 0.53336 0.71601 0.47616 0.0
C445 C 0.53343 0.68488 0.45755 0.0
C446 C 0.52704 0.71473 0.4833 0.0
O447 O 0.52868 0.63745 0.47948 0.0
Mg448 Mg 0.32297 0.85481 0.47365 0.0
O449 O 0.34697 0.83211 0.47387 0.0
O450 O 0.32319 0.79165 0.46805 0.0
Mg451 Mg 0.28429 0.78959 0.46337 0.0
C452 C 0.34408 0.80917 0.4718 0.0
C453 C 0.36423 0.89954 0.48497 0.0
O454 O 0.34329 0.88594 0.48959 0.0
O455 O 0.33373 0.86702 0.46087 0.0
O456 O 0.30925 0.82584 0.45544 0.0
O457 O 0.30208 0.8306 0.48427 0.0
O458 O 0.28645 0.81774 0.47245 0.0
C459 C 0.32548 0.85157 0.45492 0.0
C460 C 0.28485 0.81197 0.47965 0.0
O461 O 0.36196 0.89252 0.47793 0.0
Mg462 Mg 0.13536 0.47969 0.35846 0.0
O463 O 0.18202 0.50191 0.3589 0.0
O464 O 0.19804 0.5424 0.36466 0.0
Mg465 Mg 0.16073 0.54503 0.36861 0.0
C466 C 0.20183 0.52474 0.36114 0.0
C467 C 0.14897 0.44326 0.34819 0.0
O468 O 0.16007 0.46636 0.34434 0.0
O469 O 0.13179 0.46737 0.3713 0.0
O470 O 0.1474 0.50855 0.3766 0.0
O471 O 0.14052 0.50398 0.34769 0.0
O472 O 0.13625 0.51704 0.35934 0.0
C473 C 0.13776 0.48283 0.37722 0.0
C474 C 0.14158 0.52277 0.35218 0.0
O475 O 0.1364 0.44152 0.35444 0.0
Mg476 Mg 0.52274 0.65838 0.35937 0.0
O477 O 0.49809 0.68055 0.35975 0.0
O478 O 0.45706 0.65295 0.36487 0.0
Mg479 Mg 0.4571 0.61454 0.36899 0.0
C480 C 0.47417 0.67542 0.36166 0.0
C481 C 0.56796 0.70169 0.3487 0.0
O482 O 0.55567 0.6807 0.34402 0.0
O483 O 0.53363 0.66678 0.37229 0.0
O484 O 0.49225 0.63939 0.37728 0.0
O485 O 0.50012 0.63896 0.3484 0.0
O486 O 0.48658 0.62059 0.35991 0.0
C487 C 0.51765 0.65655 0.37808 0.0
C488 C 0.48142 0.62026 0.3527 0.0
O489 O 0.55988 0.69895 0.35565 0.0
Mg490 Mg 0.34763 0.86984 0.35688 0.0
O491 O 0.32554 0.82352 0.35856 0.0
O492 O 0.35454 0.81129 0.36334 0.0
Mg493 Mg 0.39468 0.85081 0.36581 0.0
C494 C 0.33107 0.80522 0.36071 0.0
C495 C 0.30308 0.87272 0.34724 0.0
O496 O 0.32418 0.88366 0.34257 0.0
O497 O 0.34396 0.87666 0.36986 0.0
O498 O 0.3737 0.86494 0.37437 0.0
O499 O 0.3621 0.86193 0.34564 0.0
O500 O 0.38527 0.87103 0.35652 0.0
C501 C 0.35688 0.87347 0.37546 0.0
C502 C 0.38224 0.86302 0.34948 0.0
O503 O 0.30614 0.86565 0.35396 0.0
H504 H 0.11895 0.15703 0.17499 0.0
H505 H 0.0697 0.12752 0.17294 0.0
H506 H 0.05374 0.16718 0.19184 0.0
H507 H 0.10245 0.19752 0.19357 0.0
H508 H 0.03702 0.09095 0.18244 0.0
H509 H 0.99568 0.15954 0.17786 0.0
H510 H 0.03182 0.17162 0.17724 0.0
H511 H 0.01606 0.17013 0.18641 0.0
C512 C 0.10487 0.16015 0.17849 0.0
C513 C 0.11453 0.17941 0.18449 0.0
C514 C 0.07672 0.14311 0.17736 0.0
C515 C 0.05785 0.14515 0.1822 0.0
C516 C 0.06765 0.16552 0.18789 0.0
H517 H 0.90887 0.01339 0.2002 0.0
H518 H 0.9559 0.04693 0.19675 0.0
C519 C 0.09563 0.1827 0.18894 0.0
C520 C 0.02837 0.12404 0.18207 0.0
H521 H 0.96477 0.11607 0.18414 0.0
C522 C 0.02117 0.09643 0.18263 0.0
C523 C 0.00747 0.13091 0.18218 0.0
C524 C 0.01322 0.15967 0.18079 0.0
C525 C 0.99395 0.07577 0.18375 0.0
C526 C 0.97347 0.08303 0.18467 0.0
C527 C 0.98045 0.11044 0.18364 0.0
C528 C 0.94488 0.06275 0.18684 0.0
C529 C 0.98758 0.04645 0.1839 0.0
C530 C 0.92287 0.06133 0.1827 0.0
C531 C 0.89598 0.04288 0.18484 0.0
C532 C 0.89051 0.02516 0.19112 0.0
C533 C 0.91248 0.02665 0.19531 0.0
C534 C 0.93939 0.04559 0.19327 0.0
H535 H 0.00241 0.04373 0.18035 0.0
H536 H 0.98927 0.04069 0.1899 0.0
H537 H 0.96666 0.03227 0.18175 0.0
H538 H 0.92647 0.07438 0.17775 0.0
H539 H 0.87948 0.04205 0.18146 0.0
H540 H 0.79434 0.90172 0.1892 0.0
H541 H 0.82595 0.88449 0.18826 0.0
H542 H 0.87134 0.94427 0.1707 0.0
H543 H 0.84035 0.96273 0.17196 0.0
H544 H 0.84461 0.86352 0.17841 0.0
H545 H 0.92922 0.96632 0.18675 0.0
H546 H 0.89411 0.95823 0.18654 0.0
H547 H 0.91328 0.96537 0.17774 0.0
C548 C 0.81073 0.91087 0.18502 0.0
C549 C 0.81524 0.93392 0.18078 0.0
C550 C 0.82882 0.90098 0.18448 0.0
C551 C 0.85163 0.91369 0.17961 0.0
C552 C 0.85443 0.93476 0.1747 0.0
H553 H 0.95849 0.8417 0.1807 0.0
H554 H 0.92659 0.85613 0.17632 0.0
C555 C 0.83644 0.94498 0.17532 0.0
C556 C 0.87326 0.90615 0.1803 0.0
H557 H 0.9398 0.93131 0.18562 0.0
C558 C 0.86551 0.87837 0.17992 0.0
C559 C 0.90043 0.9255 0.18242 0.0
C560 C 0.90978 0.95547 0.18346 0.0
C561 C 0.88368 0.86922 0.18191 0.0
C562 C 0.91091 0.88858 0.18396 0.0
C563 C 0.91898 0.91647 0.18404 0.0
C564 C 0.93098 0.88036 0.18645 0.0
C565 C 0.87289 0.8388 0.18221 0.0
C566 C 0.94516 0.89012 0.19345 0.0
C567 C 0.96411 0.88259 0.19584 0.0
C568 C 0.96882 0.86469 0.19136 0.0
C569 C 0.95476 0.85501 0.18436 0.0
C570 C 0.93639 0.86314 0.18187 0.0
H571 H 0.85029 0.82713 0.18282 0.0
H572 H 0.87809 0.83219 0.17676 0.0
H573 H 0.88192 0.83329 0.18708 0.0
H574 H 0.94147 0.90351 0.19709 0.0
H575 H 0.97481 0.89048 0.20124 0.0
H576 H 0.17008 0.11264 0.19202 0.0
H577 H 0.1555 0.06563 0.18834 0.0
H578 H 0.07263 0.04118 0.19472 0.0
H579 H 0.08708 0.08808 0.19858 0.0
H580 H 0.08805 0.00626 0.20011 0.0
H581 H 0.11411 0.02559 0.16914 0.0
H582 H 0.1425 0.04634 0.17532 0.0
H583 H 0.11298 0.05057 0.17537 0.0
C584 C 0.14875 0.09728 0.19268 0.0
C585 C 0.12975 0.10418 0.19561 0.0
C586 C 0.14041 0.07045 0.19048 0.0
C587 C 0.11287 0.05003 0.19107 0.0
C588 C 0.09396 0.05669 0.19415 0.0
H589 H 0.03021 0.88017 0.17594 0.0
H590 H 0.04776 0.92966 0.17613 0.0
C591 C 0.10229 0.08349 0.19639 0.0
C592 C 0.10399 0.02148 0.1888 0.0
H593 H 0.10399 0.98174 0.17394 0.0
C594 C 0.09137 0.00092 0.19438 0.0
C595 C 0.10799 0.01444 0.18127 0.0
C596 C 0.11988 0.03535 0.17491 0.0
C597 C 0.08339 0.97368 0.1927 0.0
C598 C 0.08862 0.9669 0.1853 0.0
C599 C 0.10044 0.98719 0.17964 0.0
C600 C 0.08208 0.93869 0.18352 0.0
C601 C 0.06941 0.95228 0.19888 0.0
C602 C 0.09653 0.92781 0.18724 0.0
C603 C 0.0866 0.89973 0.18714 0.0
C604 C 0.06222 0.88215 0.18326 0.0
C605 C 0.04931 0.89335 0.17887 0.0
C606 C 0.05918 0.92155 0.17902 0.0
H607 H 0.06179 0.95974 0.20366 0.0
H608 H 0.05195 0.93349 0.19643 0.0
H609 H 0.08414 0.94671 0.2013 0.0
H610 H 0.11436 0.94081 0.19069 0.0
H611 H 0.09679 0.89153 0.1906 0.0
H612 H 0.14544 0.11825 0.32543 0.0
H613 H 0.11227 0.06907 0.32525 0.0
H614 H 0.17015 0.05435 0.31309 0.0
H615 H 0.20312 0.10343 0.31312 0.0
H616 H 0.10181 0.04275 0.30811 0.0
H617 H 0.12804 0.99227 0.33147 0.0
H618 H 0.13375 0.02661 0.33245 0.0
H619 H 0.15533 0.02023 0.32627 0.0
C620 C 0.15149 0.10439 0.32303 0.0
C621 C 0.17688 0.11451 0.31934 0.0
C622 C 0.13247 0.07638 0.32287 0.0
C623 C 0.1389 0.05823 0.31917 0.0
C624 C 0.165 0.06809 0.31603 0.0
H625 H 0.05907 0.88862 0.30619 0.0
H626 H 0.09084 0.93627 0.30956 0.0
C627 C 0.18381 0.09605 0.31607 0.0
C628 C 0.11739 0.02987 0.31754 0.0
H629 H 0.09468 0.96353 0.32245 0.0
C630 C 0.09994 0.02535 0.31129 0.0
C631 C 0.11551 0.00745 0.32163 0.0
C632 C 0.13403 0.01163 0.32836 0.0
C633 C 0.081 0.9988 0.30886 0.0
C634 C 0.07896 0.97618 0.31296 0.0
C635 C 0.09622 0.98083 0.31931 0.0
C636 C 0.05958 0.94754 0.31066 0.0
C637 C 0.06427 0.99534 0.30173 0.0
C638 C 0.03142 0.938 0.31012 0.0
C639 C 0.01329 0.91092 0.30804 0.0
C640 C 0.02291 0.89268 0.30662 0.0
C641 C 0.05107 0.90222 0.30721 0.0
C642 C 0.06922 0.92941 0.30917 0.0
H643 H 0.0739 0.01393 0.29806 0.0
H644 H 0.06152 0.97769 0.29823 0.0
H645 H 0.04382 0.99168 0.30346 0.0
H646 H 0.02337 0.95135 0.31145 0.0
H647 H 0.99165 0.90406 0.30781 0.0
H648 H 0.89197 0.09162 0.30677 0.0
H649 H 0.94109 0.11038 0.30766 0.0
H650 H 0.92916 0.05383 0.32597 0.0
H651 H 0.8795 0.03382 0.32478 0.0
H652 H 0.98084 0.13392 0.31745 0.0
H653 H 0.96634 0.03164 0.31035 0.0
H654 H 0.93852 0.03858 0.31034 0.0
H655 H 0.95091 0.0327 0.31927 0.0
C656 C 0.8998 0.08348 0.31109 0.0
C657 C 0.88191 0.06087 0.31558 0.0
C658 C 0.92795 0.09426 0.3116 0.0
C659 C 0.93883 0.0829 0.3167 0.0
C660 C 0.92116 0.06229 0.32181 0.0
H661 H 0.11718 0.15831 0.31847 0.0
H662 H 0.06973 0.14362 0.32152 0.0
C663 C 0.89281 0.05118 0.32122 0.0
C664 C 0.96826 0.09137 0.3161 0.0
H665 H 0.01161 0.06748 0.31188 0.0
C666 C 0.98761 0.11938 0.31628 0.0
C667 C 0.97701 0.07242 0.31438 0.0
C668 C 0.95714 0.0422 0.31349 0.0
C669 C 0.01526 0.12906 0.31462 0.0
C670 C 0.02414 0.11009 0.31309 0.0
C671 C 0.00488 0.08203 0.31308 0.0
C672 C 0.05311 0.11885 0.31128 0.0
C673 C 0.03429 0.15957 0.31416 0.0
C674 C 0.05969 0.10894 0.30466 0.0
C675 C 0.08686 0.11669 0.30302 0.0
C676 C 0.10799 0.13488 0.30789 0.0
C677 C 0.10139 0.14477 0.3145 0.0
C678 C 0.07423 0.13648 0.31624 0.0
H679 H 0.02295 0.17054 0.31296 0.0
H680 H 0.04485 0.16706 0.31976 0.0
H681 H 0.04992 0.16497 0.30959 0.0
H682 H 0.04377 0.09519 0.30076 0.0
H683 H 0.09135 0.10861 0.29792 0.0
H684 H 0.8303 0.94027 0.31123 0.0
H685 H 0.84619 0.90903 0.31514 0.0
H686 H 0.92555 0.96351 0.30551 0.0
H687 H 0.90983 0.99478 0.30147 0.0
H688 H 0.90459 0.90934 0.30123 0.0
H689 H 0.89834 0.91835 0.33288 0.0
H690 H 0.86742 0.91005 0.32782 0.0
H691 H 0.89766 0.94252 0.32621 0.0
C692 C 0.85114 0.94565 0.30991 0.0
C693 C 0.86877 0.97009 0.30602 0.0
C694 C 0.86025 0.92787 0.31223 0.0
C695 C 0.88719 0.93422 0.31075 0.0
C696 C 0.90474 0.95835 0.30677 0.0
H697 H 0.97722 0.85316 0.32411 0.0
H698 H 0.95941 0.88483 0.3239 0.0
C699 C 0.89566 0.97615 0.30444 0.0
C700 C 0.89669 0.91504 0.313 0.0
H701 H 0.90592 0.88274 0.3284 0.0
C702 C 0.905 0.90364 0.30717 0.0
C703 C 0.89747 0.90785 0.32077 0.0
C704 C 0.89 0.92049 0.3273 0.0
C705 C 0.91345 0.88476 0.30887 0.0
C706 C 0.91327 0.87679 0.3166 0.0
C707 C 0.90566 0.88866 0.32247 0.0
C708 C 0.92105 0.8561 0.31855 0.0
C709 C 0.92257 0.87346 0.30236 0.0
C710 C 0.90468 0.8291 0.31603 0.0
C711 C 0.91477 0.81106 0.31614 0.0
C712 C 0.94129 0.8197 0.31883 0.0
C713 C 0.95653 0.84583 0.32212 0.0
C714 C 0.94648 0.86401 0.32194 0.0
H715 H 0.92712 0.88593 0.29704 0.0
H716 H 0.94105 0.87254 0.30402 0.0
H717 H 0.9061 0.85237 0.30103 0.0
H718 H 0.88491 0.82261 0.31344 0.0
H719 H 0.90272 0.79108 0.31353 0.0
H720 H 0.87905 0.85237 0.82491 0.0
H721 H 0.92827 0.88515 0.82542 0.0
H722 H 0.94396 0.83034 0.81198 0.0
H723 H 0.89495 0.79764 0.81142 0.0
H724 H 0.98115 0.88035 0.82874 0.0
H725 H 0.96326 0.90342 0.79887 0.0
H726 H 0.93604 0.88625 0.80579 0.0
H727 H 0.95019 0.86789 0.80108 0.0
C728 C 0.89309 0.84678 0.82238 0.0
C729 C 0.88327 0.82253 0.8181 0.0
C730 C 0.92116 0.86559 0.82263 0.0
C731 C 0.93957 0.86019 0.81866 0.0
C732 C 0.92998 0.83484 0.81505 0.0
H733 H 0.11389 0.9463 0.81174 0.0
H734 H 0.06636 0.91376 0.81487 0.0
C735 C 0.90203 0.81616 0.81476 0.0
C736 C 0.96792 0.88223 0.81726 0.0
H737 H 0.00926 0.92406 0.80302 0.0
C738 C 0.98737 0.89007 0.82315 0.0
C739 C 0.97571 0.89508 0.80998 0.0
C740 C 0.95524 0.88798 0.80356 0.0
C741 C 0.0148 0.91001 0.82185 0.0
C742 C 0.02284 0.92201 0.81445 0.0
C743 C 0.00311 0.9147 0.80866 0.0
C744 C 0.05168 0.94183 0.81253 0.0
C745 C 0.03488 0.9182 0.82841 0.0
C746 C 0.05904 0.9681 0.80989 0.0
C747 C 0.08619 0.98671 0.80799 0.0
C748 C 0.10648 0.97933 0.80867 0.0
C749 C 0.09886 0.95274 0.81116 0.0
C750 C 0.07172 0.93417 0.81304 0.0
H751 H 0.02438 0.91314 0.83408 0.0
H752 H 0.04622 0.90693 0.82793 0.0
H753 H 0.04991 0.94043 0.82825 0.0
H754 H 0.04382 0.97432 0.80939 0.0
H755 H 0.09131 0.00702 0.80613 0.0
H756 H 0.06104 0.16855 0.80648 0.0
H757 H 0.09194 0.15237 0.81059 0.0
H758 H 0.0237 0.07016 0.8122 0.0
H759 H 0.99296 0.08599 0.80778 0.0
H760 H 0.09438 0.12946 0.8236 0.0
H761 H 0.07483 0.05645 0.79981 0.0
H762 H 0.06266 0.08046 0.79956 0.0
H763 H 0.04436 0.04911 0.80492 0.0
C764 C 0.05272 0.14695 0.80759 0.0
C765 C 0.02465 0.12847 0.80667 0.0
C766 C 0.07036 0.13775 0.80998 0.0
C767 C 0.06026 0.10995 0.81158 0.0
C768 C 0.03216 0.09153 0.81077 0.0
H769 H 0.14381 0.02266 0.82597 0.0
H770 H 0.1102 0.03802 0.82589 0.0
C771 C 0.01458 0.10063 0.80825 0.0
C772 C 0.07912 0.10046 0.81426 0.0
H773 H 0.10157 0.05581 0.81021 0.0
C774 C 0.09592 0.11334 0.82067 0.0
C775 C 0.08116 0.07938 0.81044 0.0
C776 C 0.065 0.06574 0.80326 0.0
C777 C 0.1148 0.10589 0.82331 0.0
C778 C 0.11677 0.08494 0.81948 0.0
C779 C 0.09965 0.07164 0.81319 0.0
C780 C 0.13819 0.07813 0.82135 0.0
C781 C 0.13271 0.12053 0.83012 0.0
C782 C 0.16521 0.09598 0.81908 0.0
C783 C 0.18432 0.08719 0.81904 0.0
C784 C 0.17674 0.06052 0.82137 0.0
C785 C 0.15035 0.04353 0.82431 0.0
C786 C 0.13107 0.05217 0.82421 0.0
H787 H 0.12529 0.13256 0.83333 0.0
H788 H 0.1337 0.10569 0.83411 0.0
H789 H 0.15378 0.13472 0.82808 0.0
H790 H 0.17096 0.11594 0.81675 0.0
H791 H 0.20441 0.10048 0.81665 0.0
H792 H 0.91209 0.91248 0.8024 0.0
H793 H 0.92672 0.95978 0.80581 0.0
H794 H 0.84606 0.9349 0.81443 0.0
H795 H 0.83129 0.88748 0.81118 0.0
H796 H 0.90682 0.99228 0.80066 0.0
H797 H 0.89481 0.97963 0.83234 0.0
H798 H 0.89485 0.95404 0.82612 0.0
H799 H 0.86459 0.95673 0.82705 0.0
C800 C 0.89742 0.91699 0.80502 0.0
C801 C 0.87052 0.89608 0.80653 0.0
C802 C 0.90586 0.94406 0.80699 0.0
C803 C 0.88765 0.95076 0.81052 0.0
C804 C 0.86065 0.93008 0.81189 0.0
H805 H 0.90333 0.1099 0.81062 0.0
H806 H 0.88537 0.06054 0.81087 0.0
C807 C 0.85218 0.903 0.80994 0.0
C808 C 0.89659 0.97959 0.81246 0.0
H809 H 0.90276 0.02227 0.82725 0.0
C810 C 0.90604 0.99883 0.80648 0.0
C811 C 0.89586 0.98816 0.82008 0.0
C812 C 0.88724 0.96863 0.82679 0.0
C813 C 0.9142 0.02629 0.80787 0.0
C814 C 0.91244 0.03465 0.81543 0.0
C815 C 0.90367 0.01563 0.82146 0.0
C816 C 0.91988 0.06325 0.81704 0.0
C817 C 0.92476 0.04622 0.80124 0.0
C818 C 0.9443 0.08083 0.8209 0.0
C819 C 0.9544 0.10907 0.82088 0.0
C820 C 0.94022 0.11991 0.81694 0.0
C821 C 0.91455 0.102 0.81373 0.0
C822 C 0.90439 0.07386 0.81381 0.0
H823 H 0.93059 0.03798 0.79623 0.0
H824 H 0.90856 0.05057 0.79934 0.0
H825 H 0.94277 0.06583 0.80302 0.0
H826 H 0.95654 0.07296 0.82341 0.0
H827 H 0.97446 0.12245 0.82328 0.0
H828 H 0.94614 0.11656 0.68654 0.0
H829 H 0.91253 0.069 0.68368 0.0
H830 H 0.96762 0.04341 0.69243 0.0
H831 H 0.00132 0.09084 0.69539 0.0
H832 H 0.9175 0.03041 0.67411 0.0
H833 H 0.89648 0.99749 0.7047 0.0
H834 H 0.91404 0.033 0.70189 0.0
H835 H 0.93192 0.01415 0.70202 0.0
C836 C 0.95112 0.10085 0.68791 0.0
C837 C 0.97639 0.10756 0.69127 0.0
C838 C 0.93191 0.07369 0.68622 0.0
C839 C 0.93751 0.05272 0.6879 0.0
C840 C 0.96277 0.0593 0.69118 0.0
H841 H 0.85258 0.88135 0.6752 0.0
H842 H 0.88292 0.93103 0.67477 0.0
C843 C 0.982 0.08644 0.69287 0.0
C844 C 0.91672 0.02388 0.68635 0.0
H845 H 0.87656 0.96282 0.69526 0.0
C846 C 0.90843 0.01559 0.67872 0.0
C847 C 0.9048 0.00474 0.69239 0.0
C848 C 0.91203 0.01275 0.70072 0.0
C849 C 0.88871 0.98843 0.67698 0.0
C850 C 0.87722 0.9692 0.68301 0.0
C851 C 0.8854 0.97762 0.69063 0.0
C852 C 0.85658 0.94011 0.68169 0.0
C853 C 0.88004 0.98062 0.66872 0.0
C854 C 0.83137 0.92882 0.6855 0.0
C855 C 0.8142 0.90057 0.68579 0.0
C856 C 0.82186 0.88311 0.68224 0.0
C857 C 0.84596 0.89441 0.67786 0.0
C858 C 0.86335 0.9228 0.67763 0.0
H859 H 0.88571 0.99883 0.66507 0.0
H860 H 0.89034 0.96984 0.66637 0.0
H861 H 0.85764 0.96659 0.66832 0.0
H862 H 0.82577 0.9418 0.68867 0.0
H863 H 0.79581 0.89231 0.68926 0.0
H864 H 0.10954 0.90818 0.69437 0.0
H865 H 0.06069 0.88788 0.69241 0.0
H866 H 0.07539 0.93979 0.67265 0.0
H867 H 0.12475 0.96132 0.67487 0.0
H868 H 0.04281 0.94487 0.68199 0.0
H869 H 0.0025 0.8345 0.67889 0.0
H870 H 0.0233 0.84593 0.68735 0.0
H871 H 0.03852 0.85879 0.67804 0.0
C872 C 0.10243 0.91481 0.68948 0.0
C873 C 0.12095 0.93656 0.68483 0.0
C874 C 0.07438 0.90293 0.68831 0.0
C875 C 0.06419 0.91205 0.68234 0.0
C876 C 0.08275 0.93234 0.67729 0.0
H877 H 0.8855 0.83633 0.68234 0.0
H878 H 0.93215 0.85016 0.67843 0.0
C879 C 0.11096 0.94449 0.67852 0.0
C880 C 0.03462 0.90327 0.68217 0.0
H881 H 0.97146 0.84757 0.68491 0.0
C882 C 0.02715 0.92352 0.68244 0.0
C883 C 0.01397 0.87546 0.68263 0.0
C884 C 0.02005 0.8525 0.68162 0.0
C885 C -5e-05 0.91685 0.68364 0.0
C886 C 0.97978 0.88922 0.68492 0.0
C887 C 0.98695 0.86884 0.68414 0.0
C888 C 0.9514 0.88108 0.68726 0.0
C889 C 0.99327 0.93958 0.68354 0.0
C890 C 0.94656 0.89345 0.69362 0.0
C891 C 0.91988 0.88592 0.69579 0.0
C892 C 0.89748 0.86525 0.69178 0.0
C893 C 0.90233 0.85223 0.68558 0.0
C894 C 0.92901 0.86017 0.68332 0.0
H895 H 0.00772 0.95671 0.6798 0.0
H896 H 0.97216 0.93232 0.68146 0.0
H897 H 0.99527 0.94781 0.68945 0.0
H898 H 0.96342 0.90891 0.69695 0.0
H899 H 0.91678 0.89612 0.70064 0.0
H900 H 0.03036 0.15121 0.67374 0.0
H901 H 0.04783 0.11923 0.67361 0.0
H902 H 0.11894 0.17724 0.6863 0.0
H903 H 0.10151 0.20907 0.68651 0.0
H904 H 0.10683 0.12478 0.67053 0.0
H905 H 0.06556 0.10616 0.70039 0.0
H906 H 0.05406 0.12044 0.69297 0.0
H907 H 0.08654 0.14129 0.69751 0.0
C908 C 0.05035 0.15767 0.67615 0.0
C909 C 0.06464 0.18257 0.68014 0.0
C910 C 0.06021 0.13932 0.67612 0.0
C911 C 0.08451 0.14588 0.68001 0.0
C912 C 0.10014 0.17188 0.68328 0.0
H913 H 0.17316 0.06104 0.68951 0.0
H914 H 0.15844 0.0928 0.6852 0.0
C915 C 0.09023 0.19006 0.68336 0.0
C916 C 0.09123 0.12438 0.68185 0.0
H917 H 0.09083 0.08506 0.6968 0.0
C918 C 0.10327 0.11593 0.67625 0.0
C919 C 0.08608 0.11265 0.68928 0.0
C920 C 0.07218 0.12036 0.6954 0.0
C921 C 0.11097 0.09638 0.67797 0.0
C922 C 0.10687 0.0855 0.68552 0.0
C923 C 0.09415 0.09353 0.69104 0.0
C924 C 0.11575 0.06592 0.68791 0.0
C925 C 0.1231 0.08734 0.67168 0.0
C926 C 0.09681 0.04059 0.6911 0.0
C927 C 0.10522 0.02255 0.6937 0.0
C928 C 0.13279 0.02949 0.69317 0.0
C929 C 0.15176 0.05498 0.69 0.0
C930 C 0.14333 0.07307 0.68744 0.0
H931 H 0.11745 0.0912 0.66588 0.0
H932 H 0.14571 0.09907 0.67214 0.0
H933 H 0.1163 0.06526 0.6722 0.0
H934 H 0.07545 0.03473 0.69157 0.0
H935 H 0.09002 0.00304 0.69606 0.0
H936 H 0.57421 0.32583 0.52933 0.0
H937 H 0.62232 0.35763 0.52644 0.0
H938 H 0.60228 0.41919 0.51995 0.0
H939 H 0.5542 0.38764 0.52277 0.0
H940 H 0.63604 0.4109 0.50908 0.0
H941 H 0.67556 0.4261 0.5391 0.0
H942 H 0.65538 0.39124 0.53596 0.0
H943 H 0.63972 0.41198 0.53696 0.0
C944 C 0.58004 0.34624 0.52739 0.0
C945 C 0.56028 0.35418 0.52633 0.0
C946 C 0.60756 0.36437 0.52573 0.0
C947 C 0.61582 0.39077 0.52301 0.0
C948 C 0.59627 0.39887 0.52203 0.0
H949 H 0.77373 0.53348 0.52184 0.0
H950 H 0.72458 0.50125 0.52181 0.0
C951 C 0.56881 0.38082 0.5237 0.0
C952 C 0.64481 0.41003 0.52112 0.0
H953 H 0.70796 0.44768 0.5292 0.0
C954 C 0.65183 0.41891 0.51347 0.0
C955 C 0.66526 0.42046 0.52686 0.0
C956 C 0.65872 0.41219 0.5352 0.0
C957 C 0.67883 0.43811 0.51142 0.0
C958 C 0.69916 0.44861 0.51718 0.0
C959 C 0.6922 0.43953 0.52481 0.0
C960 C 0.72772 0.46984 0.51557 0.0
C961 C 0.68546 0.44758 0.50319 0.0
C962 C 0.74556 0.46326 0.51174 0.0
C963 C 0.77371 0.48182 0.51168 0.0
C964 C 0.78426 0.50698 0.51554 0.0
C965 C 0.76608 0.5143 0.51879 0.0
C966 C 0.73805 0.49586 0.51882 0.0
H967 H 0.66681 0.43979 0.49958 0.0
H968 H 0.69689 0.47025 0.50294 0.0
H969 H 0.69877 0.44028 0.50071 0.0
H970 H 0.73796 0.44312 0.50928 0.0
H971 H 0.7873 0.47544 0.50927 0.0
H972 H 0.5252 0.31449 0.5078 0.0
H973 H 0.55869 0.29899 0.50767 0.0
H974 H 0.49777 0.22063 0.51654 0.0
H975 H 0.46439 0.23617 0.51679 0.0
H976 H 0.56921 0.28165 0.5227 0.0
H977 H 0.54103 0.20297 0.49993 0.0
H978 H 0.53177 0.22929 0.49944 0.0
H979 H 0.51327 0.20034 0.50565 0.0
C980 C 0.51861 0.29354 0.50936 0.0
C981 C 0.49217 0.2764 0.51225 0.0
C982 C 0.53782 0.28481 0.50936 0.0
C983 C 0.53062 0.25865 0.51206 0.0
C984 C 0.50359 0.24075 0.51432 0.0
H985 H 0.60768 0.16715 0.52604 0.0
H986 H 0.57661 0.18382 0.52255 0.0
C987 C 0.48453 0.2496 0.51445 0.0
C988 C 0.55196 0.2515 0.51371 0.0
H989 H 0.57241 0.20555 0.50946 0.0
C990 C 0.57024 0.26526 0.51975 0.0
C991 C 0.55284 0.22988 0.50992 0.0
C992 C 0.53384 0.21481 0.50333 0.0
C993 C 0.58881 0.25732 0.5223 0.0
C994 C 0.58966 0.23552 0.51853 0.0
C995 C 0.57172 0.22218 0.51236 0.0
C996 C 0.6086 0.22585 0.52097 0.0
C997 C 0.60639 0.27161 0.52921 0.0
C998 C 0.63691 0.2439 0.52128 0.0
C999 C 0.65462 0.23453 0.52344 0.0
C1000 C 0.64445 0.20677 0.52515 0.0
C1001 C 0.61612 0.18868 0.5248 0.0
C1002 C 0.59837 0.19817 0.52277 0.0
H1003 H 0.59751 0.28164 0.53275 0.0
H1004 H 0.60907 0.25712 0.53293 0.0
H1005 H 0.62683 0.28774 0.52723 0.0
H1006 H 0.64542 0.26516 0.5197 0.0
H1007 H 0.67637 0.24885 0.52349 0.0
H1008 H 0.68507 0.20829 0.50792 0.0
H1009 H 0.70192 0.25755 0.50786 0.0
H1010 H 0.77917 0.27251 0.51695 0.0
H1011 H 0.76224 0.22328 0.5172 0.0
H1012 H 0.72456 0.28373 0.52456 0.0
H1013 H 0.79211 0.33485 0.49938 0.0
H1014 H 0.76337 0.30043 0.49882 0.0
H1015 H 0.79342 0.30694 0.50402 0.0
C1016 C 0.70611 0.22215 0.50953 0.0
C1017 C 0.72246 0.21207 0.51253 0.0
C1018 C 0.71561 0.25025 0.50955 0.0
C1019 C 0.74177 0.26853 0.51239 0.0
C1020 C 0.75903 0.25867 0.51467 0.0
H1021 H 0.8341 0.4378 0.52574 0.0
H1022 H 0.81782 0.39053 0.52185 0.0
C1023 C 0.74941 0.2306 0.51477 0.0
C1024 C 0.74923 0.29687 0.51432 0.0
H1025 H 0.79038 0.36336 0.50907 0.0
C1026 C 0.73859 0.30119 0.52112 0.0
C1027 C 0.76806 0.3194 0.50991 0.0
C1028 C 0.77997 0.31542 0.5026 0.0
C1029 C 0.74665 0.32764 0.52373 0.0
C1030 C 0.76545 0.35037 0.51931 0.0
C1031 C 0.77592 0.34595 0.51245 0.0
C1032 C 0.77505 0.37887 0.5218 0.0
C1033 C 0.73575 0.33091 0.53135 0.0
C1034 C 0.75641 0.38803 0.52308 0.0
C1035 C 0.76561 0.4149 0.52543 0.0
C1036 C 0.7937 0.43329 0.52641 0.0
C1037 C 0.81233 0.42411 0.52508 0.0
C1038 C 0.80308 0.39714 0.52282 0.0
H1039 H 0.72806 0.31227 0.53497 0.0
H1040 H 0.75171 0.34855 0.53463 0.0
H1041 H 0.71844 0.33451 0.5303 0.0
H1042 H 0.73476 0.37452 0.52214 0.0
H1043 H 0.75077 0.42148 0.52625 0.0
H1044 H 0.86857 0.4383 0.64639 0.0
H1045 H 0.83461 0.38967 0.64728 0.0
H1046 H 0.78083 0.40918 0.65986 0.0
H1047 H 0.81495 0.45797 0.65907 0.0
H1048 H 0.79572 0.35154 0.6616 0.0
H1049 H 0.74942 0.37559 0.63656 0.0
H1050 H 0.78547 0.39616 0.63861 0.0
H1051 H 0.76107 0.39779 0.64484 0.0
C1052 C 0.85002 0.43212 0.64964 0.0
C1053 C 0.8444 0.45181 0.65269 0.0
C1054 C 0.83063 0.40439 0.65012 0.0
C1055 C 0.80527 0.39599 0.65359 0.0
C1056 C 0.80042 0.41538 0.6572 0.0
H1057 H 0.65929 0.24187 0.64151 0.0
H1058 H 0.68986 0.28842 0.64603 0.0
C1059 C 0.82 0.44319 0.6568 0.0
C1060 C 0.78281 0.36775 0.65235 0.0
H1061 H 0.73186 0.3294 0.63963 0.0
C1062 C 0.78147 0.3466 0.65687 0.0
C1063 C 0.76423 0.36158 0.64621 0.0
C1064 C 0.76491 0.38384 0.64124 0.0
C1065 C 0.7622 0.31916 0.65531 0.0
C1066 C 0.74461 0.3128 0.64887 0.0
C1067 C 0.74543 0.33418 0.64452 0.0
C1068 C 0.72591 0.28424 0.64633 0.0
C1069 C 0.76085 0.29737 0.66062 0.0
C1070 C 0.73603 0.26647 0.64485 0.0
C1071 C 0.71854 0.23976 0.64235 0.0
C1072 C 0.69069 0.23048 0.64107 0.0
C1073 C 0.68071 0.24849 0.64236 0.0
C1074 C 0.69813 0.27507 0.64499 0.0
H1075 H 0.76803 0.30558 0.6665 0.0
H1076 H 0.73975 0.27971 0.66103 0.0
H1077 H 0.77443 0.29002 0.65838 0.0
H1078 H 0.75753 0.27331 0.64557 0.0
H1079 H 0.72687 0.22642 0.64137 0.0
H1080 H 0.54454 0.37178 0.65858 0.0
H1081 H 0.59398 0.39292 0.66064 0.0
H1082 H 0.60848 0.4415 0.64015 0.0
H1083 H 0.55962 0.4217 0.63833 0.0
H1084 H 0.62676 0.38652 0.65163 0.0
H1085 H 0.66639 0.49714 0.6533 0.0
H1086 H 0.63043 0.47279 0.65428 0.0
H1087 H 0.64553 0.48429 0.64488 0.0
C1088 C 0.55834 0.38777 0.65471 0.0
C1089 C 0.54825 0.39495 0.64826 0.0
C1090 C 0.58658 0.39968 0.65585 0.0
C1091 C 0.60508 0.41901 0.65059 0.0
C1092 C 0.59484 0.42723 0.64441 0.0
H1093 H 0.75365 0.43381 0.63343 0.0
H1094 H 0.70674 0.42064 0.63692 0.0
C1095 C 0.56678 0.41561 0.64332 0.0
C1096 C 0.63467 0.42794 0.65085 0.0
H1097 H 0.69762 0.4835 0.64777 0.0
C1098 C 0.64233 0.40781 0.65096 0.0
C1099 C 0.65517 0.45572 0.65012 0.0
C1100 C 0.6489 0.47866 0.65073 0.0
C1101 C 0.66961 0.41452 0.6499 0.0
C1102 C 0.68964 0.44201 0.64837 0.0
C1103 C 0.68226 0.46232 0.64874 0.0
C1104 C 0.71816 0.45011 0.64618 0.0
C1105 C 0.67651 0.39199 0.65044 0.0
C1106 C 0.7403 0.47197 0.64993 0.0
C1107 C 0.7671 0.48014 0.64776 0.0
C1108 C 0.77236 0.46641 0.64184 0.0
C1109 C 0.75023 0.44467 0.63804 0.0
C1110 C 0.7234 0.43689 0.64011 0.0
H1111 H 0.66213 0.37541 0.65433 0.0
H1112 H 0.6746 0.38287 0.64466 0.0
H1113 H 0.69764 0.39973 0.65258 0.0
H1114 H 0.73687 0.48262 0.6546 0.0
H1115 H 0.78373 0.49682 0.65085 0.0
H1116 H 0.63062 0.17474 0.65927 0.0
H1117 H 0.60952 0.2032 0.66095 0.0
H1118 H 0.55136 0.15759 0.64305 0.0
H1119 H 0.57136 0.12854 0.64166 0.0
H1120 H 0.61154 0.23642 0.65051 0.0
H1121 H 0.50262 0.16894 0.65681 0.0
H1122 H 0.52704 0.1574 0.65776 0.0
H1123 H 0.51123 0.15572 0.64859 0.0
C1124 C 0.6125 0.16999 0.65597 0.0
C1125 C 0.60268 0.14952 0.65031 0.0
C1126 C 0.60062 0.18644 0.65688 0.0
C1127 C 0.57871 0.18254 0.65215 0.0
C1128 C 0.56772 0.16072 0.64691 0.0
H1129 H 0.55738 0.30646 0.6304 0.0
H1130 H 0.57126 0.27407 0.6348 0.0
C1131 C 0.57936 0.14419 0.64607 0.0
C1132 C 0.57004 0.20339 0.65176 0.0
H1133 H 0.51373 0.21001 0.64933 0.0
C1134 C 0.59014 0.23073 0.65044 0.0
C1135 C 0.54221 0.19627 0.65178 0.0
C1136 C 0.51965 0.16801 0.65391 0.0
C1137 C 0.58313 0.25069 0.64869 0.0
C1138 C 0.55521 0.24291 0.64791 0.0
C1139 C 0.53515 0.21596 0.64971 0.0
C1140 C 0.54633 0.26214 0.64512 0.0
C1141 C 0.60584 0.27987 0.6477 0.0
C1142 C 0.52656 0.26517 0.64919 0.0
C1143 C 0.51791 0.28295 0.64654 0.0
C1144 C 0.5291 0.29836 0.6398 0.0
C1145 C 0.54859 0.29505 0.63565 0.0
C1146 C 0.55678 0.27679 0.63822 0.0
H1147 H 0.62407 0.284 0.65115 0.0
H1148 H 0.61218 0.28346 0.64156 0.0
H1149 H 0.59928 0.29463 0.64943 0.0
H1150 H 0.51802 0.25401 0.65449 0.0
H1151 H 0.50299 0.28516 0.6499 0.0
H1152 H 0.75355 0.33142 0.137 0.0
H1153 H 0.70644 0.29897 0.14061 0.0
H1154 H 0.72879 0.2376 0.1451 0.0
H1155 H 0.77613 0.27011 0.14167 0.0
H1156 H 0.67111 0.25111 0.1342 0.0
H1157 H 0.688 0.23381 0.16461 0.0
H1158 H 0.71385 0.26133 0.15891 0.0
H1159 H 0.70846 0.22725 0.158 0.0
C1160 C 0.74848 0.31101 0.13874 0.0
C1161 C 0.76865 0.30337 0.13904 0.0
C1162 C 0.72154 0.29252 0.14084 0.0
C1163 C 0.7142 0.26603 0.14328 0.0
C1164 C 0.73414 0.25817 0.14345 0.0
H1165 H 0.55337 0.12685 0.14127 0.0
H1166 H 0.60276 0.15787 0.14125 0.0
C1167 C 0.76115 0.2767 0.14141 0.0
C1168 C 0.68537 0.24626 0.14526 0.0
H1169 H 0.6441 0.2026 0.15929 0.0
C1170 C 0.66523 0.24068 0.13971 0.0
C1171 C 0.67763 0.23291 0.1525 0.0
C1172 C 0.69808 0.23931 0.15888 0.0
C1173 C 0.63772 0.2216 0.14109 0.0
C1174 C 0.6302 0.20728 0.14816 0.0
C1175 C 0.65009 0.21336 0.15383 0.0
C1176 C 0.60166 0.1857 0.14959 0.0
C1177 C 0.61682 0.21689 0.13497 0.0
C1178 C 0.58502 0.19026 0.15467 0.0
C1179 C 0.55673 0.17234 0.15476 0.0
C1180 C 0.54493 0.14982 0.14974 0.0
C1181 C 0.56199 0.1441 0.14518 0.0
C1182 C 0.59015 0.16183 0.14514 0.0
H1183 H 0.62485 0.2337 0.13067 0.0
H1184 H 0.61112 0.19756 0.13189 0.0
H1185 H 0.59799 0.21498 0.13758 0.0
H1186 H 0.59362 0.20862 0.15815 0.0
H1187 H 0.54399 0.17737 0.15825 0.0
H1188 H 0.86604 0.4249 0.14095 0.0
H1189 H 0.83629 0.44413 0.14224 0.0
H1190 H 0.79123 0.38598 0.16018 0.0
H1191 H 0.82036 0.36555 0.15859 0.0
H1192 H 0.75756 0.3841 0.1499 0.0
H1193 H 0.82571 0.49298 0.15613 0.0
H1194 H 0.83846 0.48426 0.14783 0.0
H1195 H 0.83714 0.46844 0.15698 0.0
C1196 C 0.85025 0.41664 0.14532 0.0
C1197 C 0.84537 0.39356 0.14961 0.0
C1198 C 0.83335 0.42787 0.14611 0.0
C1199 C 0.81158 0.41677 0.15137 0.0
C1200 C 0.80793 0.39497 0.1561 0.0
H1201 H 0.71006 0.4937 0.15019 0.0
H1202 H 0.74111 0.4781 0.15443 0.0
C1203 C 0.82475 0.38347 0.15524 0.0
C1204 C 0.79078 0.42554 0.15107 0.0
H1205 H 0.7843 0.48203 0.1489 0.0
C1206 C 0.76333 0.40552 0.14986 0.0
C1207 C 0.79801 0.45341 0.15115 0.0
C1208 C 0.82642 0.47589 0.15318 0.0
C1209 C 0.74333 0.41266 0.14828 0.0
C1210 C 0.75117 0.44062 0.14757 0.0
C1211 C 0.77828 0.46058 0.14924 0.0
C1212 C 0.7318 0.44967 0.14501 0.0
C1213 C 0.71404 0.39005 0.14743 0.0
C1214 C 0.71643 0.43928 0.13822 0.0
C1215 C 0.69819 0.44779 0.13586 0.0
C1216 C 0.69564 0.46755 0.1401 0.0
C1217 C 0.71169 0.4786 0.14675 0.0
C1218 C 0.72943 0.46962 0.1492 0.0
H1219 H 0.71008 0.37179 0.15084 0.0
H1220 H 0.69949 0.39669 0.14932 0.0
H1221 H 0.70995 0.38374 0.14131 0.0
H1222 H 0.7186 0.42465 0.13471 0.0
H1223 H 0.68624 0.43907 0.13068 0.0
H1224 H 0.49875 0.21346 0.15182 0.0
H1225 H 0.51365 0.26047 0.15561 0.0
H1226 H 0.56505 0.28996 0.13546 0.0
H1227 H 0.55128 0.243 0.13185 0.0
H1228 H 0.59156 0.31903 0.14741 0.0
H1229 H 0.48924 0.31011 0.14728 0.0
H1230 H 0.49165 0.28682 0.15381 0.0
H1231 H 0.49488 0.28353 0.1436 0.0
C1232 C 0.51303 0.22996 0.14815 0.0
C1233 C 0.52366 0.22453 0.14149 0.0
C1234 C 0.52145 0.25685 0.15032 0.0
C1235 C 0.54006 0.27882 0.14575 0.0
C1236 C 0.55062 0.27338 0.13908 0.0
H1237 H 0.57232 0.43972 0.13989 0.0
H1238 H 0.55249 0.3906 0.14129 0.0
C1239 C 0.54266 0.24653 0.137 0.0
C1240 C 0.54907 0.30754 0.14793 0.0
H1241 H 0.52609 0.35202 0.15157 0.0
C1242 C 0.57724 0.32624 0.14834 0.0
C1243 C 0.53037 0.31695 0.14915 0.0
C1244 C 0.49988 0.29838 0.14837 0.0
C1245 C 0.58726 0.3542 0.14961 0.0
C1246 C 0.56855 0.3636 0.15083 0.0
C1247 C 0.54039 0.34473 0.15074 0.0
C1248 C 0.57757 0.39321 0.15104 0.0
C1249 C 0.61774 0.37351 0.14916 0.0
C1250 C 0.59725 0.41112 0.15633 0.0
C1251 C 0.60899 0.43947 0.15546 0.0
C1252 C 0.6009 0.45013 0.14934 0.0
C1253 C 0.57929 0.43208 0.14457 0.0
C1254 C 0.56785 0.40394 0.14539 0.0
H1255 H 0.62863 0.36365 0.14657 0.0
H1256 H 0.62246 0.39187 0.1457 0.0
H1257 H 0.62596 0.38029 0.15505 0.0
H1258 H 0.60447 0.40326 0.16089 0.0
H1259 H 0.62554 0.45291 0.15924 0.0
H1260 H 0.67429 0.42986 0.03042 0.0
H1261 H 0.64232 0.3816 0.02782 0.0
H1262 H 0.58007 0.40118 0.02173 0.0
H1263 H 0.61203 0.44947 0.0241 0.0
H1264 H 0.59415 0.34702 0.03438 0.0
H1265 H 0.57797 0.3563 0.00334 0.0
H1266 H 0.60512 0.38362 0.00877 0.0
H1267 H 0.57095 0.37826 0.00918 0.0
C1268 C 0.6538 0.42393 0.02853 0.0
C1269 C 0.64581 0.44361 0.02742 0.0
C1270 C 0.63557 0.39633 0.02702 0.0
C1271 C 0.60901 0.38786 0.0244 0.0
C1272 C 0.60072 0.40733 0.02352 0.0
H1273 H 0.46936 0.22793 0.02876 0.0
H1274 H 0.50179 0.27701 0.02847 0.0
C1275 C 0.61896 0.43493 0.02496 0.0
C1276 C 0.58957 0.35854 0.02289 0.0
H1277 H 0.54596 0.31404 0.00939 0.0
C1278 C 0.58381 0.33981 0.02889 0.0
C1279 C 0.5764 0.34903 0.01569 0.0
C1280 C 0.58313 0.36781 0.00885 0.0
C1281 C 0.56455 0.31204 0.02798 0.0
C1282 C 0.5502 0.30285 0.02094 0.0
C1283 C 0.55665 0.32129 0.01483 0.0
C1284 C 0.52817 0.27416 0.01995 0.0
C1285 C 0.55973 0.29271 0.03457 0.0
C1286 C 0.53136 0.25661 0.01488 0.0
C1287 C 0.51257 0.22851 0.01495 0.0
C1288 C 0.49052 0.21776 0.02014 0.0
C1289 C 0.48626 0.23571 0.02474 0.0
C1290 C 0.50485 0.26369 0.02462 0.0
H1291 H 0.57705 0.3014 0.03871 0.0
H1292 H 0.54105 0.28879 0.03773 0.0
H1293 H 0.55666 0.27284 0.03244 0.0
H1294 H 0.5492 0.26439 0.01121 0.0
H1295 H 0.51646 0.21508 0.0114 0.0
H1296 H 0.78518 0.28822 0.00706 0.0
H1297 H 0.73517 0.26564 0.00612 0.0
H1298 H 0.72772 0.22232 0.02726 0.0
H1299 H 0.77717 0.2437 0.02803 0.0
H1300 H 0.68718 0.19123 0.01767 0.0
H1301 H 0.69782 0.29438 0.01991 0.0
H1302 H 0.71309 0.2889 0.01154 0.0
H1303 H 0.72655 0.28905 0.02093 0.0
C1304 C 0.77279 0.27321 0.01135 0.0
C1305 C 0.78501 0.26808 0.0177 0.0
C1306 C 0.74425 0.2606 0.01087 0.0
C1307 C 0.72774 0.24296 0.01675 0.0
C1308 C 0.73999 0.23605 0.02269 0.0
H1309 H 0.58133 0.22122 0.03729 0.0
H1310 H 0.62752 0.23358 0.03324 0.0
C1311 C 0.76831 0.24839 0.02314 0.0
C1312 C 0.69812 0.23357 0.01729 0.0
H1313 H 0.65352 0.25674 0.02039 0.0
C1314 C 0.6797 0.2055 0.01818 0.0
C1315 C 0.68854 0.2523 0.01808 0.0
C1316 C 0.70749 0.28284 0.01763 0.0
C1317 C 0.65224 0.19569 0.02014 0.0
C1318 C 0.6427 0.21445 0.02096 0.0
C1319 C 0.66087 0.2424 0.01976 0.0
C1320 C 0.61445 0.20588 0.02352 0.0
C1321 C 0.63419 0.16555 0.02171 0.0
C1322 C 0.5917 0.18611 0.01943 0.0
C1323 C 0.56525 0.17858 0.02184 0.0
C1324 C 0.56106 0.19118 0.02827 0.0
C1325 C 0.58387 0.21109 0.03233 0.0
C1326 C 0.61028 0.21825 0.03 0.0
H1327 H 0.64637 0.15545 0.02291 0.0
H1328 H 0.62048 0.16199 0.02668 0.0
H1329 H 0.62138 0.15557 0.01657 0.0
H1330 H 0.59434 0.17682 0.0143 0.0
H1331 H 0.54813 0.16348 0.01851 0.0
H1332 H 0.82844 0.37798 0.01352 0.0
H1333 H 0.81354 0.4096 0.00918 0.0
H1334 H 0.76868 0.39654 0.03035 0.0
H1335 H 0.78224 0.36368 0.03451 0.0
H1336 H 0.73904 0.39579 0.019 0.0
H1337 H 0.84183 0.48662 0.01509 0.0
H1338 H 0.83649 0.45825 0.00924 0.0
H1339 H 0.8369 0.45572 0.01957 0.0
C1340 C 0.81559 0.38206 0.01727 0.0
C1341 C 0.80666 0.36853 0.02438 0.0
C1342 C 0.8072 0.40027 0.0148 0.0
C1343 C 0.79043 0.40599 0.0195 0.0
C1344 C 0.78165 0.39255 0.02662 0.0
H1345 H 0.76446 0.54004 0.0221 0.0
H1346 H 0.78317 0.50965 0.02112 0.0
C1347 C 0.78949 0.37385 0.02901 0.0
C1348 C 0.78133 0.42535 0.01697 0.0
H1349 H 0.80422 0.49106 0.01117 0.0
C1350 C 0.75331 0.41663 0.01728 0.0
C1351 C 0.79995 0.45258 0.01472 0.0
C1352 C 0.83047 0.46396 0.0147 0.0
C1353 C 0.74346 0.43454 0.01573 0.0
C1354 C 0.76204 0.46173 0.01343 0.0
C1355 C 0.78995 0.47015 0.01282 0.0
C1356 C 0.75356 0.48267 0.01274 0.0
C1357 C 0.71348 0.42452 0.01704 0.0
C1358 C 0.73168 0.47872 0.00799 0.0
C1359 C 0.72053 0.4959 0.00867 0.0
C1360 C 0.73145 0.51749 0.01401 0.0
C1361 C 0.75525 0.5232 0.01806 0.0
C1362 C 0.76606 0.50587 0.01747 0.0
H1363 H 0.70352 0.40549 0.02053 0.0
H1364 H 0.71055 0.44023 0.02003 0.0
H1365 H 0.70282 0.42003 0.01141 0.0
H1366 H 0.72229 0.4615 0.00409 0.0
H1367 H 0.7023 0.49112 0.00543 0.0
H1368 H 0.21429 0.71222 0.84876 0.0
H1369 H 0.26172 0.74582 0.8459 0.0
H1370 H 0.28877 0.70701 0.86232 0.0
H1371 H 0.24131 0.67254 0.86495 0.0
H1372 H 0.30047 0.7829 0.8541 0.0
H1373 H 0.33476 0.71188 0.84443 0.0
H1374 H 0.2992 0.70086 0.84603 0.0
H1375 H 0.32091 0.70331 0.85396 0.0
C1376 C 0.23032 0.7108 0.85177 0.0
C1377 C 0.22402 0.68963 0.85707 0.0
C1378 C 0.25746 0.73001 0.85011 0.0
C1379 C 0.2789 0.72863 0.85375 0.0
C1380 C 0.27265 0.70799 0.85923 0.0
H1381 H 0.43925 0.85432 0.86364 0.0
H1382 H 0.39023 0.82544 0.86203 0.0
C1383 C 0.24549 0.68846 0.86079 0.0
C1384 C 0.30774 0.74942 0.85207 0.0
H1385 H 0.37031 0.75694 0.84815 0.0
C1386 C 0.31565 0.77719 0.85268 0.0
C1387 C 0.32751 0.74215 0.84999 0.0
C1388 C 0.32008 0.71293 0.84847 0.0
C1389 C 0.34295 0.79777 0.8517 0.0
C1390 C 0.3631 0.79036 0.85034 0.0
C1391 C 0.35498 0.76268 0.84929 0.0
C1392 C 0.39277 0.81053 0.85075 0.0
C1393 C 0.34986 0.8272 0.85218 0.0
C1394 C 0.41078 0.8118 0.84496 0.0
C1395 C 0.4391 0.82799 0.84596 0.0
C1396 C 0.44978 0.843 0.85278 0.0
C1397 C 0.43167 0.8428 0.85835 0.0
C1398 C 0.40353 0.82652 0.85739 0.0
H1399 H 0.33252 0.82957 0.85014 0.0
H1400 H 0.35379 0.83396 0.85828 0.0
H1401 H 0.36823 0.84081 0.84872 0.0
H1402 H 0.40295 0.79953 0.8398 0.0
H1403 H 0.45256 0.82765 0.84157 0.0
H1404 H 0.12875 0.56529 0.85101 0.0
H1405 H 0.16286 0.55071 0.85056 0.0
H1406 H 0.21826 0.62467 0.83849 0.0
H1407 H 0.18403 0.63928 0.83885 0.0
H1408 H 0.2051 0.55382 0.83639 0.0
H1409 H 0.24482 0.61955 0.86255 0.0
H1410 H 0.20908 0.60343 0.86003 0.0
H1411 H 0.23395 0.63087 0.85426 0.0
C1412 C 0.14773 0.57785 0.84796 0.0
C1413 C 0.15374 0.60332 0.84494 0.0
C1414 C 0.1672 0.56956 0.84773 0.0
C1415 C 0.19301 0.58671 0.84453 0.0
C1416 C 0.19832 0.61112 0.84094 0.0
H1417 H 0.33891 0.58113 0.85812 0.0
H1418 H 0.30778 0.59622 0.85348 0.0
C1419 C 0.17868 0.61932 0.84109 0.0
C1420 C 0.21534 0.58095 0.84606 0.0
H1421 H 0.26383 0.59214 0.85951 0.0
C1422 C 0.21822 0.56236 0.84138 0.0
C1423 C 0.23244 0.59237 0.85255 0.0
C1424 C 0.23012 0.61269 0.85768 0.0
C1425 C 0.23763 0.5545 0.84311 0.0
C1426 C 0.2538 0.56481 0.84985 0.0
C1427 C 0.25136 0.58407 0.85438 0.0
C1428 C 0.27285 0.55545 0.85245 0.0
C1429 C 0.24072 0.53547 0.83764 0.0
C1430 C 0.26353 0.52752 0.85356 0.0
C1431 C 0.28137 0.51881 0.85614 0.0
C1432 C 0.30875 0.5379 0.85785 0.0
C1433 C 0.31788 0.56589 0.85692 0.0
C1434 C 0.30013 0.57456 0.85423 0.0
H1435 H 0.23437 0.53721 0.83171 0.0
H1436 H 0.26214 0.53973 0.83746 0.0
H1437 H 0.22736 0.51407 0.83957 0.0
H1438 H 0.24237 0.5124 0.8525 0.0
H1439 H 0.27366 0.49711 0.85684 0.0
H1440 H 0.37513 0.54445 0.83956 0.0
H1441 H 0.39833 0.59398 0.83743 0.0
H1442 H 0.45217 0.60606 0.85652 0.0
H1443 H 0.43003 0.55702 0.85841 0.0
H1444 H 0.39559 0.6266 0.84729 0.0
H1445 H 0.50495 0.66447 0.84287 0.0
H1446 H 0.47981 0.62872 0.84189 0.0
H1447 H 0.49416 0.6429 0.85119 0.0
C1448 C 0.39273 0.55767 0.84305 0.0
C1449 C 0.40068 0.54695 0.84918 0.0
C1450 C 0.40585 0.58598 0.84188 0.0
C1451 C 0.42717 0.60388 0.84678 0.0
C1452 C 0.43633 0.59287 0.85252 0.0
H1453 H 0.44837 0.74713 0.86843 0.0
H1454 H 0.43537 0.70163 0.86363 0.0
C1455 C 0.42341 0.56473 0.85365 0.0
C1456 C 0.43677 0.63363 0.84686 0.0
H1457 H 0.49385 0.69564 0.84985 0.0
C1458 C 0.41713 0.64177 0.84765 0.0
C1459 C 0.46483 0.65368 0.84719 0.0
C1460 C 0.48706 0.64693 0.84565 0.0
C1461 C 0.42469 0.66892 0.84933 0.0
C1462 C 0.45261 0.6883 0.85054 0.0
C1463 C 0.47238 0.68066 0.84915 0.0
C1464 C 0.46153 0.71607 0.85358 0.0
C1465 C 0.40255 0.67637 0.84989 0.0
C1466 C 0.48176 0.73939 0.84979 0.0
C1467 C 0.48977 0.76548 0.85264 0.0
C1468 C 0.47756 0.76874 0.85932 0.0
C1469 C 0.45792 0.74534 0.86323 0.0
C1470 C 0.45025 0.7193 0.86044 0.0
H1471 H 0.38487 0.66295 0.84616 0.0
H1472 H 0.39502 0.67346 0.85591 0.0
H1473 H 0.41018 0.69795 0.8482 0.0
H1474 H 0.491 0.73743 0.84454 0.0
H1475 H 0.50493 0.78309 0.84948 0.0
H1476 H 0.38905 0.55418 0.97532 0.0
H1477 H 0.42105 0.60212 0.9782 0.0
H1478 H 0.35661 0.62116 0.97523 0.0
H1479 H 0.32448 0.57328 0.9722 0.0
H1480 H 0.40305 0.65756 0.968 0.0
H1481 H 0.42712 0.64302 0.99794 0.0
H1482 H 0.43282 0.62246 0.99115 0.0
H1483 H 0.39875 0.61652 0.99263 0.0
C1484 C 0.38165 0.56854 0.97526 0.0
C1485 C 0.35418 0.55986 0.97352 0.0
C1486 C 0.39993 0.59591 0.97699 0.0
C1487 C 0.39107 0.61509 0.97711 0.0
C1488 C 0.36382 0.60663 0.97524 0.0
H1489 H 0.48434 0.78739 0.99076 0.0
H1490 H 0.45142 0.7381 0.99103 0.0
C1491 C 0.34552 0.57928 0.97346 0.0
C1492 C 0.41056 0.64419 0.97888 0.0
H1493 H 0.45716 0.68659 0.99218 0.0
C1494 C 0.41466 0.6639 0.97332 0.0
C1495 C 0.42543 0.65253 0.98588 0.0
C1496 C 0.42063 0.63256 0.99228 0.0
C1497 C 0.43397 0.69155 0.97444 0.0
C1498 C 0.4499 0.6996 0.98123 0.0
C1499 C 0.44514 0.68018 0.98693 0.0
C1500 C 0.47218 0.72809 0.98227 0.0
C1501 C 0.43743 0.71199 0.96831 0.0
C1502 C 0.49532 0.73835 0.97754 0.0
C1503 C 0.51406 0.76628 0.97739 0.0
C1504 C 0.51002 0.78441 0.98199 0.0
C1505 C 0.48809 0.77383 0.98722 0.0
C1506 C 0.4692 0.74576 0.98734 0.0
H1507 H 0.41984 0.7036 0.96426 0.0
H1508 H 0.43977 0.73095 0.97094 0.0
H1509 H 0.45619 0.71758 0.96494 0.0
H1510 H 0.49804 0.72493 0.97364 0.0
H1511 H 0.53083 0.77391 0.97332 0.0
H1512 H 0.2117 0.70833 0.99103 0.0
H1513 H 0.26112 0.73141 0.99337 0.0
H1514 H 0.27477 0.78157 0.97327 0.0
H1515 H 0.22587 0.75969 0.97116 0.0
H1516 H 0.29478 0.72708 0.98423 0.0
H1517 H 0.3317 0.83696 0.98674 0.0
H1518 H 0.29591 0.81183 0.98764 0.0
H1519 H 0.31093 0.82454 0.97829 0.0
C1520 C 0.22525 0.72507 0.98731 0.0
C1521 C 0.21499 0.73207 0.98087 0.0
C1522 C 0.25349 0.73812 0.98862 0.0
C1523 C 0.27179 0.75842 0.98353 0.0
C1524 C 0.26126 0.76655 0.97741 0.0
H1525 H 0.41884 0.77747 0.96475 0.0
H1526 H 0.37245 0.7643 0.96875 0.0
C1527 C 0.2332 0.75374 0.97615 0.0
C1528 C 0.30155 0.76816 0.98379 0.0
H1529 H 0.3637 0.82495 0.98074 0.0
C1530 C 0.3099 0.74856 0.98366 0.0
C1531 C 0.32152 0.79618 0.98319 0.0
C1532 C 0.31449 0.81851 0.98407 0.0
C1533 C 0.33728 0.75604 0.98239 0.0
C1534 C 0.35669 0.78377 0.98093 0.0
C1535 C 0.34874 0.80358 0.98164 0.0
C1536 C 0.38497 0.79247 0.97836 0.0
C1537 C 0.34496 0.734 0.98258 0.0
C1538 C 0.40752 0.81375 0.98215 0.0
C1539 C 0.4341 0.82187 0.97973 0.0
C1540 C 0.43865 0.8087 0.9735 0.0
C1541 C 0.41604 0.78784 0.96961 0.0
C1542 C 0.38949 0.78007 0.97195 0.0
H1543 H 0.33114 0.71697 0.98644 0.0
H1544 H 0.34285 0.72541 0.97671 0.0
H1545 H 0.36632 0.74209 0.98456 0.0
H1546 H 0.40459 0.82383 0.98706 0.0
H1547 H 0.45106 0.83796 0.98287 0.0
H1548 H 0.24099 0.6581 0.96695 0.0
H1549 H 0.25461 0.62524 0.97107 0.0
H1550 H 0.17674 0.57687 0.98225 0.0
H1551 H 0.16286 0.60961 0.9782 0.0
H1552 H 0.22431 0.58652 0.99129 0.0
H1553 H 0.22275 0.5473 0.96183 0.0
H1554 H 0.24253 0.5838 0.96286 0.0
H1555 H 0.20613 0.56661 0.96415 0.0
C1556 C 0.22665 0.64042 0.97025 0.0
C1557 C 0.20072 0.63643 0.97219 0.0
C1558 C 0.2345 0.62168 0.9726 0.0
C1559 C 0.2166 0.59858 0.97691 0.0
C1560 C 0.19084 0.5946 0.97892 0.0
H1561 H 0.23294 0.45585 0.98104 0.0
H1562 H 0.21354 0.48599 0.981 0.0
C1563 C 0.18291 0.61328 0.97656 0.0
C1564 C 0.22458 0.57828 0.97919 0.0
H1565 H 0.24061 0.5322 0.97177 0.0
C1566 C 0.22779 0.57452 0.98704 0.0
C1567 C 0.22885 0.56254 0.97363 0.0
C1568 C 0.22469 0.565 0.96515 0.0
C1569 C 0.23562 0.55566 0.98946 0.0
C1570 C 0.2404 0.54034 0.98388 0.0
C1571 C 0.23688 0.54395 0.97605 0.0
C1572 C 0.24935 0.52053 0.9859 0.0
C1573 C 0.23847 0.55204 0.99795 0.0
C1574 C 0.27537 0.52952 0.98906 0.0
C1575 C 0.28633 0.5121 0.9892 0.0
C1576 C 0.27152 0.48568 0.98608 0.0
C1577 C 0.24463 0.47604 0.98355 0.0
C1578 C 0.23362 0.4933 0.98347 0.0
H1579 H 0.22809 0.56047 0.00151 0.0
H1580 H 0.22989 0.5301 0.99939 0.0
H1581 H 0.26046 0.56294 0.9995 0.0
H1582 H 0.28805 0.55059 0.99083 0.0
H1583 H 0.30733 0.52023 0.99102 0.0
H1584 H 0.22408 0.45819 0.47852 0.0
H1585 H 0.27346 0.48907 0.47886 0.0
H1586 H 0.26151 0.54896 0.49094 0.0
H1587 H 0.21195 0.51783 0.49071 0.0
H1588 H 0.29312 0.53888 0.47112 0.0
H1589 H 0.33032 0.55477 0.50136 0.0
H1590 H 0.29868 0.52522 0.49839 0.0
H1591 H 0.30041 0.55757 0.49967 0.0
C1592 C 0.23207 0.47746 0.48155 0.0
C1593 C 0.21428 0.48561 0.48462 0.0
C1594 C 0.26025 0.49514 0.4817 0.0
C1595 C 0.27114 0.52131 0.48491 0.0
C1596 C 0.25356 0.52869 0.48854 0.0
H1597 H 0.42126 0.66456 0.46991 0.0
H1598 H 0.37382 0.63105 0.47298 0.0
C1599 C 0.22525 0.51084 0.48844 0.0
C1600 C 0.30005 0.54195 0.48337 0.0
H1601 H 0.36152 0.58419 0.49188 0.0
C1602 C 0.3081 0.54872 0.47566 0.0
C1603 C 0.31948 0.55472 0.4893 0.0
C1604 C 0.31197 0.54764 0.49765 0.0
C1605 C 0.33509 0.56794 0.47372 0.0
C1606 C 0.35447 0.58104 0.47964 0.0
C1607 C 0.34652 0.5742 0.48736 0.0
C1608 C 0.38323 0.60153 0.47789 0.0
C1609 C 0.34275 0.57374 0.46532 0.0
C1610 C 0.40423 0.59611 0.47971 0.0
C1611 C 0.43137 0.61516 0.47795 0.0
C1612 C 0.43805 0.64012 0.47438 0.0
C1613 C 0.41688 0.64548 0.47259 0.0
C1614 C 0.38974 0.62637 0.47434 0.0
H1615 H 0.32722 0.55767 0.46152 0.0
H1616 H 0.3444 0.59353 0.46373 0.0
H1617 H 0.36284 0.5753 0.46421 0.0
H1618 H 0.39959 0.57704 0.48245 0.0
H1619 H 0.44711 0.61038 0.47946 0.0
H1620 H 0.53565 0.76284 0.47756 0.0
H1621 H 0.50576 0.78186 0.47888 0.0
H1622 H 0.45945 0.722 0.49634 0.0
H1623 H 0.48875 0.70177 0.49469 0.0
H1624 H 0.42661 0.72035 0.48596 0.0
H1625 H 0.49258 0.82908 0.49265 0.0
H1626 H 0.50661 0.82138 0.48444 0.0
H1627 H 0.50465 0.80506 0.49355 0.0
C1628 C 0.51958 0.75417 0.48185 0.0
C1629 C 0.51435 0.73064 0.48596 0.0
C1630 C 0.5026 0.7653 0.48266 0.0
C1631 C 0.48039 0.75362 0.48777 0.0
C1632 C 0.47649 0.73143 0.49237 0.0
H1633 H 0.37661 0.82809 0.48449 0.0
H1634 H 0.40764 0.81344 0.48948 0.0
C1635 C 0.49339 0.72003 0.49148 0.0
C1636 C 0.45928 0.76196 0.48734 0.0
H1637 H 0.4521 0.81792 0.4848 0.0
C1638 C 0.4321 0.74169 0.4859 0.0
C1639 C 0.46608 0.78972 0.48739 0.0
C1640 C 0.49404 0.81243 0.48969 0.0
C1641 C 0.41205 0.74847 0.48403 0.0
C1642 C 0.41961 0.77633 0.48323 0.0
C1643 C 0.44633 0.79654 0.48518 0.0
C1644 C 0.40043 0.78496 0.48022 0.0
C1645 C 0.38304 0.72557 0.48292 0.0
C1646 C 0.38633 0.77429 0.47326 0.0
C1647 C 0.36813 0.78223 0.47047 0.0
C1648 C 0.36437 0.80173 0.47445 0.0
C1649 C 0.37922 0.81315 0.48126 0.0
C1650 C 0.39692 0.80472 0.48414 0.0
H1651 H 0.37883 0.70748 0.48645 0.0
H1652 H 0.36802 0.73198 0.48449 0.0
H1653 H 0.37993 0.71908 0.4768 0.0
H1654 H 0.38944 0.75983 0.46995 0.0
H1655 H 0.35714 0.77327 0.46517 0.0
H1656 H 0.23507 0.77455 0.4744 0.0
H1657 H 0.21522 0.72499 0.47477 0.0
H1658 H 0.28056 0.73435 0.48961 0.0
H1659 H 0.30017 0.7841 0.48939 0.0
H1660 H 0.24555 0.70397 0.46865 0.0
H1661 H 0.21394 0.66627 0.49852 0.0
H1662 H 0.21897 0.69886 0.49528 0.0
H1663 H 0.24787 0.69508 0.49762 0.0
C1664 C 0.2445 0.76594 0.47801 0.0
C1665 C 0.26899 0.78304 0.48191 0.0
C1666 C 0.23326 0.73766 0.47818 0.0
C1667 C 0.24641 0.72596 0.4822 0.0
C1668 C 0.2698 0.74289 0.48658 0.0
H1669 H 0.24125 0.57521 0.46887 0.0
H1670 H 0.25474 0.6227 0.47168 0.0
C1671 C 0.28094 0.7713 0.48648 0.0
C1672 C 0.23799 0.69691 0.48082 0.0
H1673 H 0.21535 0.63512 0.48955 0.0
C1674 C 0.23882 0.68889 0.47322 0.0
C1675 C 0.22922 0.67731 0.48679 0.0
C1676 C 0.22718 0.68466 0.49501 0.0
C1677 C 0.23117 0.66183 0.47141 0.0
C1678 C 0.22292 0.64231 0.47738 0.0
C1679 C 0.22188 0.65022 0.48499 0.0
C1680 C 0.21489 0.6135 0.4758 0.0
C1681 C 0.23155 0.65427 0.46309 0.0
C1682 C 0.18811 0.59258 0.47727 0.0
C1683 C 0.1803 0.5654 0.47567 0.0
C1684 C 0.19919 0.5586 0.47259 0.0
C1685 C 0.22608 0.57968 0.47115 0.0
C1686 C 0.23385 0.60686 0.47276 0.0
H1687 H 0.23191 0.66979 0.45909 0.0
H1688 H 0.25014 0.65283 0.46202 0.0
H1689 H 0.21344 0.63413 0.46173 0.0
H1690 H 0.17319 0.59731 0.47961 0.0
H1691 H 0.15947 0.54972 0.4769 0.0
H1692 H 0.27926 0.78442 0.35499 0.0
H1693 H 0.24597 0.73669 0.35227 0.0
H1694 H 0.30242 0.71231 0.36065 0.0
H1695 H 0.33584 0.75997 0.36348 0.0
H1696 H 0.25165 0.69937 0.34246 0.0
H1697 H 0.23185 0.6644 0.3729 0.0
H1698 H 0.24881 0.70008 0.37028 0.0
H1699 H 0.2672 0.68175 0.37011 0.0
C1700 C 0.28459 0.76894 0.35633 0.0
C1701 C 0.31023 0.77609 0.35952 0.0
C1702 C 0.26556 0.74167 0.35472 0.0
C1703 C 0.27168 0.72099 0.3563 0.0
C1704 C 0.29718 0.72796 0.35948 0.0
H1705 H 0.18598 0.54989 0.34279 0.0
H1706 H 0.21698 0.59951 0.34262 0.0
C1707 C 0.31626 0.75524 0.3611 0.0
C1708 C 0.25125 0.69211 0.35465 0.0
H1709 H 0.21159 0.63041 0.3633 0.0
C1710 C 0.24281 0.68424 0.34701 0.0
C1711 C 0.23965 0.67255 0.3606 0.0
C1712 C 0.2471 0.68006 0.36895 0.0
C1713 C 0.22315 0.65717 0.34516 0.0
C1714 C 0.21186 0.63757 0.35111 0.0
C1715 C 0.22029 0.64551 0.35874 0.0
C1716 C 0.19099 0.60865 0.34968 0.0
C1717 C 0.21426 0.64985 0.3369 0.0
C1718 C 0.16576 0.59745 0.35348 0.0
C1719 C 0.1482 0.56926 0.35361 0.0
C1720 C 0.15548 0.55174 0.34991 0.0
C1721 C 0.17964 0.56302 0.34555 0.0
C1722 C 0.19742 0.59135 0.34548 0.0
H1723 H 0.22015 0.66827 0.33332 0.0
H1724 H 0.22415 0.63883 0.33444 0.0
H1725 H 0.19178 0.63615 0.33653 0.0
H1726 H 0.16042 0.61043 0.35676 0.0
H1727 H 0.12978 0.56101 0.35706 0.0
H1728 H 0.24982 0.56168 0.36805 0.0
H1729 H 0.2962 0.57469 0.364 0.0
H1730 H 0.26369 0.51813 0.34499 0.0
H1731 H 0.21733 0.504 0.34925 0.0
H1732 H 0.30335 0.51483 0.35078 0.0
H1733 H 0.33949 0.6246 0.34714 0.0
H1734 H 0.32777 0.61445 0.3568 0.0
H1735 H 0.30405 0.60005 0.34889 0.0
C1736 C 0.2526 0.55197 0.36302 0.0
C1737 C 0.22994 0.53185 0.35897 0.0
C1738 C 0.27913 0.55966 0.36065 0.0
C1739 C 0.28355 0.54802 0.35404 0.0
C1740 C 0.26089 0.52759 0.35007 0.0
H1741 H 0.45606 0.63002 0.34062 0.0
H1742 H 0.40657 0.60889 0.33873 0.0
C1743 C 0.23437 0.51947 0.35253 0.0
C1744 C 0.31178 0.55647 0.35144 0.0
H1745 H 0.37464 0.61244 0.34859 0.0
C1746 C 0.31881 0.53619 0.35018 0.0
C1747 C 0.3319 0.58424 0.35037 0.0
C1748 C 0.3253 0.607 0.35078 0.0
C1749 C 0.34569 0.54298 0.34836 0.0
C1750 C 0.36636 0.57083 0.34811 0.0
C1751 C 0.35898 0.59105 0.34888 0.0
C1752 C 0.39592 0.57954 0.34798 0.0
C1753 C 0.35156 0.52015 0.3468 0.0
C1754 C 0.40647 0.56941 0.35358 0.0
C1755 C 0.43458 0.58104 0.35455 0.0
C1756 C 0.45284 0.60356 0.35009 0.0
C1757 C 0.44248 0.61256 0.34412 0.0
C1758 C 0.41419 0.60065 0.34308 0.0
H1759 H 0.33379 0.50263 0.34398 0.0
H1760 H 0.36979 0.52694 0.34307 0.0
H1761 H 0.35511 0.51265 0.35234 0.0
H1762 H 0.39304 0.5537 0.35757 0.0
H1763 H 0.44198 0.57359 0.35918 0.0
H1764 H 0.36085 0.81604 0.34103 0.0
H1765 H 0.37805 0.78383 0.34098 0.0
H1766 H 0.45086 0.84304 0.3528 0.0
H1767 H 0.43376 0.87515 0.35292 0.0
H1768 H 0.43648 0.78905 0.33731 0.0
H1769 H 0.39955 0.77334 0.36761 0.0
H1770 H 0.38732 0.78734 0.3603 0.0
H1771 H 0.42044 0.8082 0.36449 0.0
C1772 C 0.3811 0.82265 0.34327 0.0
C1773 C 0.39601 0.84804 0.34699 0.0
C1774 C 0.39081 0.80418 0.34328 0.0
C1775 C 0.41557 0.81107 0.34695 0.0
C1776 C 0.43169 0.83742 0.34996 0.0
H1777 H 0.50538 0.72689 0.35569 0.0
H1778 H 0.49026 0.75866 0.35169 0.0
C1779 C 0.42196 0.85575 0.34999 0.0
C1780 C 0.42254 0.78976 0.34878 0.0
H1781 H 0.42431 0.75183 0.36383 0.0
C1782 C 0.43375 0.78075 0.34308 0.0
C1783 C 0.41852 0.77877 0.3563 0.0
C1784 C 0.40563 0.78717 0.36254 0.0
C1785 C 0.44171 0.76137 0.34478 0.0
C1786 C 0.4387 0.75121 0.35239 0.0
C1787 C 0.4268 0.75978 0.35802 0.0
C1788 C 0.44786 0.73179 0.3547 0.0
C1789 C 0.45296 0.75176 0.3384 0.0
C1790 C 0.42924 0.7065 0.35798 0.0
C1791 C 0.43787 0.68842 0.36038 0.0
C1792 C 0.46536 0.6953 0.35957 0.0
C1793 C 0.48404 0.72085 0.35638 0.0
C1794 C 0.47539 0.73896 0.35401 0.0
H1795 H 0.44675 0.75533 0.33264 0.0
H1796 H 0.47561 0.76329 0.33866 0.0
H1797 H 0.446 0.72967 0.33899 0.0
H1798 H 0.40793 0.70065 0.35863 0.0
H1799 H 0.42287 0.66889 0.36277 0.0
H1800 H 0.18777 0.21531 0.28423 0.0
H1801 H 0.19399 0.22575 0.27037 0.0
H1802 H 0.25082 0.19591 0.26915 0.0
H1803 H 0.24368 0.18442 0.28285 0.0
H1804 H 0.23648 0.25555 0.2601 0.0
H1805 H 0.19076 0.14414 0.25488 0.0
H1806 H 0.19103 0.15789 0.26426 0.0
H1807 H 0.22119 0.15857 0.26063 0.0
C1808 C 0.20209 0.2117 0.28101 0.0
C1809 C 0.21515 0.19897 0.28454 0.0
C1810 C 0.20558 0.21755 0.27311 0.0
C1811 C 0.22231 0.2109 0.26869 0.0
C1812 C 0.23724 0.2005 0.2724 0.0
H1813 H 0.22709 0.19785 0.21816 0.0
H1814 H 0.24268 0.20457 0.23165 0.0
C1815 C 0.23335 0.19418 0.28022 0.0
C1816 C 0.22219 0.21236 0.26015 0.0
H1817 H 0.20519 0.17263 0.24399 0.0
C1818 C 0.22982 0.23747 0.25658 0.0
C1819 C 0.21342 0.1887 0.25554 0.0
C1820 C 0.20338 0.16076 0.25901 0.0
C1821 C 0.22859 0.23945 0.24853 0.0
C1822 C 0.2194 0.21573 0.24396 0.0
C1823 C 0.2126 0.19084 0.2475 0.0
C1824 C 0.21301 0.21529 0.23568 0.0
C1825 C 0.23671 0.26681 0.24497 0.0
C1826 C 0.19128 0.21911 0.23351 0.0
C1827 C 0.18216 0.21489 0.22591 0.0
C1828 C 0.19464 0.20688 0.22028 0.0
C1829 C 0.21716 0.2041 0.22237 0.0
C1830 C 0.22607 0.20795 0.23005 0.0
H1831 H 0.25034 0.28392 0.24883 0.0
H1832 H 0.2472 0.26929 0.23937 0.0
H1833 H 0.21808 0.26819 0.2439 0.0
H1834 H 0.18059 0.22426 0.23777 0.0
H1835 H 0.16489 0.21741 0.22448 0.0
H1836 H 0.8052 0.95979 0.22189 0.0
H1837 H 0.7944 0.96472 0.23503 0.0
H1838 H 0.76411 0.01749 0.22761 0.0
H1839 H 0.775 0.01264 0.21415 0.0
H1840 H 0.79996 0.0374 0.24032 0.0
H1841 H 0.72013 0.93079 0.24569 0.0
H1842 H 0.74915 0.93189 0.24115 0.0
H1843 H 0.72997 0.94465 0.23609 0.0
C1844 C 0.7961 0.9724 0.22295 0.0
C1845 C 0.79085 0.98572 0.21689 0.0
C1846 C 0.78965 0.97494 0.23051 0.0
C1847 C 0.77768 0.99077 0.23229 0.0
C1848 C 0.77288 0.00473 0.22633 0.0
H1849 H 0.76135 0.98874 0.2832 0.0
H1850 H 0.74557 0.98545 0.26979 0.0
C1851 C 0.77925 0.00206 0.21866 0.0
C1852 C 0.77253 0.9939 0.24049 0.0
H1853 H 0.74866 0.95547 0.25684 0.0
C1854 C 0.788 0.01965 0.24393 0.0
C1855 C 0.7565 0.97086 0.24521 0.0
C1856 C 0.73776 0.94305 0.24182 0.0
C1857 C 0.79028 0.02239 0.25197 0.0
C1858 C 0.77713 0.99874 0.25665 0.0
C1859 C 0.75918 0.97352 0.25325 0.0
C1860 C 0.78542 0.99924 0.26477 0.0
C1861 C 0.80812 0.0504 0.25536 0.0
C1862 C 0.8126 0.00676 0.26634 0.0
C1863 C 0.82152 0.00844 0.27389 0.0
C1864 C 0.80344 0.00247 0.2801 0.0
C1865 C 0.77576 0.99346 0.27854 0.0
C1866 C 0.76679 0.99179 0.2709 0.0
H1867 H 0.80864 0.06653 0.25159 0.0
H1868 H 0.80087 0.05209 0.26117 0.0
H1869 H 0.82934 0.05426 0.2559 0.0
H1870 H 0.82712 0.01171 0.26169 0.0
H1871 H 0.84287 0.01502 0.27485 0.0
H1872 H 0.01218 0.77585 0.28438 0.0
H1873 H 0.01702 0.76647 0.27079 0.0
H1874 H 0.96273 0.79578 0.26407 0.0
H1875 H 0.95757 0.80483 0.2774 0.0
H1876 H 0.95095 0.74643 0.25682 0.0
H1877 H 0.061 0.82624 0.25463 0.0
H1878 H 0.05101 0.80045 0.26195 0.0
H1879 H 0.04017 0.82529 0.26263 0.0
C1880 C 0.00134 0.7803 0.27999 0.0
C1881 C 0.98456 0.79119 0.28201 0.0
C1882 C 0.0041 0.77492 0.27224 0.0
C1883 C 0.99022 0.78045 0.26642 0.0
C1884 C 0.97345 0.79113 0.26846 0.0
H1885 H 0.00562 0.84034 0.22303 0.0
H1886 H 0.00105 0.82546 0.23636 0.0
C1887 C 0.97067 0.79645 0.27612 0.0
C1888 C 0.99351 0.77653 0.25812 0.0
H1889 H 0.03726 0.80792 0.24315 0.0
C1890 C 0.97 0.75929 0.25382 0.0
C1891 C 0.01836 0.79338 0.25424 0.0
C1892 C 0.04414 0.81253 0.25855 0.0
C1893 C 0.9702 0.76004 0.24573 0.0
C1894 C 0.99459 0.77833 0.24187 0.0
C1895 C 0.01859 0.79392 0.24615 0.0
C1896 C 0.99471 0.78536 0.23365 0.0
C1897 C 0.94394 0.74298 0.24137 0.0
C1898 C 0.99175 0.76733 0.22766 0.0
C1899 C 0.99416 0.77577 0.21994 0.0
C1900 C 0.99981 0.80241 0.21817 0.0
C1901 C 0.00151 0.81978 0.2242 0.0
C1902 C 0.99899 0.81136 0.23183 0.0
H1903 H 0.92642 0.73063 0.24527 0.0
H1904 H 0.93914 0.75639 0.23782 0.0
H1905 H 0.94637 0.72895 0.2374 0.0
H1906 H 0.9885 0.74717 0.22896 0.0
H1907 H 0.99297 0.76203 0.21542 0.0
H1908 H 0.82984 0.84507 0.72295 0.0
H1909 H 0.81943 0.82987 0.73622 0.0
H1910 H 0.76149 0.74843 0.72858 0.0
H1911 H 0.77197 0.76363 0.71508 0.0
H1912 H 0.76495 0.80572 0.74298 0.0
H1913 H 0.8121 0.73961 0.74483 0.0
H1914 H 0.82188 0.76508 0.73737 0.0
H1915 H 0.78894 0.73479 0.73706 0.0
C1916 C 0.81498 0.82383 0.72404 0.0
C1917 C 0.80161 0.8056 0.71793 0.0
C1918 C 0.80901 0.81521 0.73165 0.0
C1919 C 0.78954 0.78813 0.73338 0.0
C1920 C 0.77664 0.76944 0.72735 0.0
H1921 H 0.76604 0.77497 0.78429 0.0
H1922 H 0.75084 0.76473 0.77079 0.0
C1923 C 0.78271 0.77811 0.71965 0.0
C1924 C 0.78315 0.78042 0.7416 0.0
H1925 H 0.80134 0.75326 0.75643 0.0
C1926 C 0.77212 0.79357 0.74594 0.0
C1927 C 0.79253 0.76456 0.74539 0.0
C1928 C 0.80461 0.75016 0.74097 0.0
C1929 C 0.77241 0.79324 0.75403 0.0
C1930 C 0.78378 0.77914 0.75784 0.0
C1931 C 0.79261 0.76403 0.75348 0.0
C1932 C 0.79176 0.78428 0.76607 0.0
C1933 C 0.76279 0.80991 0.75842 0.0
C1934 C 0.81964 0.79862 0.76786 0.0
C1935 C 0.82829 0.80445 0.77547 0.0
C1936 C 0.80928 0.79605 0.78154 0.0
C1937 C 0.78121 0.78185 0.77976 0.0
C1938 C 0.7725 0.77595 0.77206 0.0
H1939 H 0.75649 0.82142 0.75454 0.0
H1940 H 0.74508 0.79618 0.76208 0.0
H1941 H 0.77928 0.82465 0.76227 0.0
H1942 H 0.83485 0.8055 0.76333 0.0
H1943 H 0.85008 0.81554 0.77657 0.0
H1944 H 0.2209 0.99112 0.78659 0.0
H1945 H 0.23041 0.98653 0.773 0.0
H1946 H 0.20895 0.04716 0.76663 0.0
H1947 H 0.19987 0.05213 0.77995 0.0
H1948 H 0.19525 0.97031 0.76089 0.0
H1949 H 0.27941 0.07434 0.75494 0.0
H1950 H 0.26929 0.06159 0.76462 0.0
H1951 H 0.25178 0.07599 0.75945 0.0
C1952 C 0.21848 0.00363 0.78229 0.0
C1953 C 0.20966 0.02203 0.7844 0.0
C1954 C 0.22402 0.00106 0.77454 0.0
C1955 C 0.22113 0.01707 0.76882 0.0
C1956 C 0.21226 0.03527 0.77094 0.0
H1957 H 0.15608 0.99106 0.72532 0.0
H1958 H 0.17048 0.99612 0.73869 0.0
C1959 C 0.20673 0.03782 0.77861 0.0
C1960 C 0.22463 0.01335 0.76051 0.0
H1961 H 0.24968 0.05024 0.74394 0.0
C1962 C 0.20776 0.98763 0.7572 0.0
C1963 C 0.24136 0.03577 0.75566 0.0
C1964 C 0.2617 0.06338 0.75888 0.0
C1965 C 0.20516 0.98436 0.74918 0.0
C1966 C 0.2194 0.0075 0.74436 0.0
C1967 C 0.23833 0.03263 0.74763 0.0
C1968 C 0.21204 0.00658 0.73612 0.0
C1969 C 0.18619 0.95634 0.74594 0.0
C1970 C 0.23112 0.01239 0.7302 0.0
C1971 C 0.22295 0.00976 0.72245 0.0
C1972 C 0.19564 0.00135 0.72057 0.0
C1973 C 0.17717 0.99714 0.72655 0.0
C1974 C 0.1853 0.99984 0.73422 0.0
H1975 H 0.18444 0.94006 0.74989 0.0
H1976 H 0.16549 0.95373 0.74525 0.0
H1977 H 0.19329 0.95357 0.74023 0.0
H1978 H 0.252 0.01806 0.73156 0.0
H1979 H 0.23764 0.01312 0.71797 0.0
H1980 H 0.03152 0.18167 0.72137 0.0
H1981 H 0.02587 0.19025 0.73472 0.0
H1982 H 0.98907 0.23773 0.72768 0.0
H1983 H 0.99453 0.22899 0.71408 0.0
H1984 H 0.04811 0.24199 0.74208 0.0
H1985 H 0.93434 0.18166 0.74345 0.0
H1986 H 0.95303 0.17731 0.73568 0.0
H1987 H 0.95021 0.2075 0.73613 0.0
C1988 C 0.02213 0.19392 0.7226 0.0
C1989 C 0.01356 0.20472 0.71662 0.0
C1990 C 0.01901 0.19887 0.73027 0.0
C1991 C 0.0072 0.21472 0.73221 0.0
C1992 C 0.99813 0.22531 0.7263 0.0
H1993 H 0.01145 0.23588 0.78317 0.0
H1994 H 0.01685 0.25051 0.76962 0.0
C1995 C 0.00122 0.22026 0.71854 0.0
C1996 C 0.00451 0.21941 0.74049 0.0
H1997 H 0.95809 0.19535 0.75513 0.0
C1998 C 0.02843 0.23245 0.74495 0.0
C1999 C 0.97881 0.20691 0.74419 0.0
C2000 C 0.95253 0.19242 0.73966 0.0
C2001 C 0.02738 0.23142 0.75304 0.0
C2002 C 0.0017 0.21728 0.75673 0.0
C2003 C 0.97775 0.20617 0.75227 0.0
C2004 C 0.9992 0.20958 0.76498 0.0
C2005 C 0.05372 0.24351 0.75754 0.0
C2006 C 0.98769 0.18187 0.76685 0.0
C2007 C 0.98458 0.17354 0.77451 0.0
C2008 C 0.99289 0.19271 0.78053 0.0
C2009 C 0.00502 0.22064 0.77867 0.0
C2010 C 0.00805 0.22901 0.77094 0.0
H2011 H 0.07191 0.2513 0.75374 0.0
H2012 H 0.05575 0.26073 0.7611 0.0
H2013 H 0.05357 0.22797 0.76149 0.0
H2014 H 0.98099 0.16655 0.76236 0.0
H2015 H 0.97534 0.15188 0.77569 0.0
H2016 H 0.9015 0.55424 0.54916 0.0
H2017 H 0.91641 0.56372 0.56269 0.0
H2018 H 0.83231 0.51944 0.57006 0.0
H2019 H 0.81738 0.51018 0.55677 0.0
H2020 H 0.86344 0.57119 0.57715 0.0
H2021 H 0.91394 0.50809 0.57871 0.0
H2022 H 0.9245 0.53367 0.57129 0.0
H2023 H 0.89096 0.50417 0.57096 0.0
C2024 C 0.88627 0.54637 0.55368 0.0
C2025 C 0.85824 0.53152 0.55186 0.0
C2026 C 0.8948 0.55184 0.5614 0.0
C2027 C 0.87542 0.54235 0.56738 0.0
C2028 C 0.8476 0.52721 0.56554 0.0
H2029 H 0.84475 0.48231 0.61106 0.0
H2030 H 0.85389 0.49626 0.59769 0.0
C2031 C 0.83912 0.52185 0.55791 0.0
C2032 C 0.88328 0.54744 0.57562 0.0
H2033 H 0.90544 0.52342 0.59033 0.0
C2034 C 0.87328 0.56138 0.58004 0.0
C2035 C 0.89611 0.53461 0.57935 0.0
C2036 C 0.90696 0.51916 0.57488 0.0
C2037 C 0.87377 0.56094 0.58813 0.0
C2038 C 0.8849 0.5465 0.59187 0.0
C2039 C 0.89692 0.53448 0.58743 0.0
C2040 C 0.87984 0.53926 0.60015 0.0
C2041 C 0.86041 0.574 0.5926 0.0
C2042 C 0.89108 0.55894 0.60603 0.0
C2043 C 0.88569 0.55099 0.6138 0.0
C2044 C 0.86917 0.52324 0.61576 0.0
C2045 C 0.85774 0.50384 0.6098 0.0
C2046 C 0.86301 0.51175 0.60212 0.0
H2047 H 0.85033 0.58211 0.58879 0.0
H2048 H 0.8449 0.55896 0.59663 0.0
H2049 H 0.87606 0.59115 0.59609 0.0
H2050 H 0.90428 0.5803 0.60463 0.0
H2051 H 0.89493 0.56641 0.61824 0.0
H2052 H 0.43066 0.26371 0.55082 0.0
H2053 H 0.42172 0.26558 0.56447 0.0
H2054 H 0.46147 0.35352 0.56317 0.0
H2055 H 0.46928 0.35152 0.54934 0.0
H2056 H 0.4592 0.28671 0.57481 0.0
H2057 H 0.399 0.3391 0.57684 0.0
H2058 H 0.40379 0.32605 0.56784 0.0
H2059 H 0.42972 0.35884 0.5714 0.0
C2060 C 0.43691 0.28341 0.55341 0.0
C2061 C 0.45072 0.3075 0.54904 0.0
C2062 C 0.43179 0.28446 0.56122 0.0
C2063 C 0.44073 0.30965 0.56489 0.0
C2064 C 0.45371 0.33376 0.56046 0.0
H2065 H 0.49469 0.3734 0.60894 0.0
H2066 H 0.4793 0.36296 0.59565 0.0
C2067 C 0.45834 0.33266 0.55257 0.0
C2068 C 0.43941 0.31065 0.57344 0.0
H2069 H 0.42277 0.33887 0.58841 0.0
C2070 C 0.45064 0.29761 0.57777 0.0
C2071 C 0.42824 0.32483 0.57735 0.0
C2072 C 0.41425 0.33774 0.57311 0.0
C2073 C 0.45219 0.29943 0.58582 0.0
C2074 C 0.44225 0.31469 0.58969 0.0
C2075 C 0.43021 0.32702 0.58542 0.0
C2076 C 0.44802 0.3213 0.59797 0.0
C2077 C 0.46579 0.28627 0.59015 0.0
C2078 C 0.43497 0.30144 0.60373 0.0
C2079 C 0.44366 0.30742 0.61143 0.0
C2080 C 0.46577 0.33318 0.61338 0.0
C2081 C 0.47784 0.35323 0.60761 0.0
C2082 C 0.46896 0.3474 0.60001 0.0
H2083 H 0.47422 0.27676 0.58623 0.0
H2084 H 0.48265 0.30169 0.59377 0.0
H2085 H 0.45073 0.2702 0.59403 0.0
H2086 H 0.41872 0.28114 0.60224 0.0
H2087 H 0.43401 0.29163 0.61576 0.0
H2088 H 0.71115 0.18575 0.55437 0.0
H2089 H 0.70669 0.17265 0.56779 0.0
H2090 H 0.65101 0.08874 0.56168 0.0
H2091 H 0.65507 0.10184 0.54802 0.0
H2092 H 0.6324 0.10565 0.57369 0.0
H2093 H 0.73917 0.13442 0.57965 0.0
H2094 H 0.73806 0.16223 0.57505 0.0
H2095 H 0.72602 0.13042 0.56996 0.0
C2096 C 0.69805 0.1644 0.5558 0.0
C2097 C 0.68356 0.14482 0.55006 0.0
C2098 C 0.69578 0.1569 0.56352 0.0
C2099 C 0.6792 0.12959 0.56574 0.0
C2100 C 0.66431 0.10989 0.56008 0.0
H2101 H 0.67921 0.11158 0.61657 0.0
H2102 H 0.68425 0.10247 0.60297 0.0
C2103 C 0.66656 0.11742 0.55228 0.0
C2104 C 0.67605 0.1227 0.57407 0.0
H2105 H 0.71352 0.13751 0.59062 0.0
C2106 C 0.65005 0.11191 0.57738 0.0
C2107 C 0.69894 0.13024 0.5789 0.0
C2108 C 0.72705 0.13967 0.57568 0.0
C2109 C 0.64674 0.11098 0.5854 0.0
C2110 C 0.67008 0.12164 0.59021 0.0
C2111 C 0.6957 0.12989 0.58693 0.0
C2112 C 0.6686 0.12767 0.59845 0.0
C2113 C 0.61834 0.09967 0.58865 0.0
C2114 C 0.65937 0.14576 0.60038 0.0
C2115 C 0.6566 0.15102 0.60805 0.0
C2116 C 0.66323 0.13852 0.61402 0.0
C2117 C 0.67392 0.1215 0.61211 0.0
C2118 C 0.67663 0.11615 0.60436 0.0
H2119 H 0.60277 0.08416 0.58473 0.0
H2120 H 0.61647 0.09022 0.59439 0.0
H2121 H 0.61374 0.11651 0.58927 0.0
H2122 H 0.65392 0.1556 0.59592 0.0
H2123 H 0.64871 0.16458 0.6093 0.0
H2124 H 0.50165 0.1534 0.05803 0.0
H2125 H 0.48866 0.13791 0.07131 0.0
H2126 H 0.4064 0.08173 0.0639 0.0
H2127 H 0.41962 0.09674 0.05048 0.0
H2128 H 0.41836 0.12776 0.07597 0.0
H2129 H 0.46108 0.06064 0.08297 0.0
H2130 H 0.48237 0.09001 0.07711 0.0
H2131 H 0.45043 0.06353 0.07336 0.0
C2132 C 0.48106 0.13704 0.0592 0.0
C2133 C 0.46167 0.12608 0.05326 0.0
C2134 C 0.47365 0.12824 0.06677 0.0
C2135 C 0.44662 0.10866 0.06856 0.0
C2136 C 0.42742 0.09669 0.0626 0.0
H2137 H 0.42484 0.08555 0.11889 0.0
H2138 H 0.41016 0.07433 0.10537 0.0
C2139 C 0.43501 0.10512 0.05496 0.0
C2140 C 0.4383 0.10384 0.07675 0.0
H2141 H 0.45323 0.08302 0.09358 0.0
C2142 C 0.42518 0.11725 0.07982 0.0
C2143 C 0.44725 0.09017 0.08173 0.0
C2144 C 0.46091 0.07505 0.07865 0.0
C2145 C 0.42282 0.11921 0.08781 0.0
C2146 C 0.43378 0.10741 0.09281 0.0
C2147 C 0.4448 0.09204 0.08973 0.0
C2148 C 0.43845 0.11475 0.10107 0.0
C2149 C 0.41012 0.13526 0.09087 0.0
C2150 C 0.45874 0.14126 0.10311 0.0
C2151 C 0.46732 0.14752 0.11074 0.0
C2152 C 0.45549 0.12751 0.11649 0.0
C2153 C 0.4339 0.10143 0.11456 0.0
C2154 C 0.42566 0.09497 0.10686 0.0
H2155 H 0.39641 0.13675 0.08655 0.0
H2156 H 0.39832 0.12578 0.09621 0.0
H2157 H 0.42655 0.15629 0.0923 0.0
H2158 H 0.46912 0.15669 0.09872 0.0
H2159 H 0.48419 0.16767 0.11208 0.0
H2160 H 0.90742 0.33428 0.0479 0.0
H2161 H 0.92253 0.33851 0.06141 0.0
H2162 H 0.85956 0.35612 0.06822 0.0
H2163 H 0.84432 0.35159 0.05488 0.0
H2164 H 0.91525 0.38879 0.07575 0.0
H2165 H 0.86777 0.27531 0.07683 0.0
H2166 H 0.89157 0.29457 0.06928 0.0
H2167 H 0.85844 0.29149 0.06941 0.0
C2168 C 0.89749 0.33996 0.05227 0.0
C2169 C 0.87474 0.34264 0.05039 0.0
C2170 C 0.90594 0.34211 0.05997 0.0
C2171 C 0.89193 0.34733 0.0658 0.0
C2172 C 0.8706 0.35205 0.06381 0.0
H2173 H 0.83809 0.34823 0.10863 0.0
H2174 H 0.85196 0.34804 0.09539 0.0
C2175 C 0.86196 0.34953 0.05619 0.0
C2176 C 0.8971 0.34542 0.07407 0.0
H2177 H 0.87529 0.29843 0.08862 0.0
C2178 C 0.90742 0.36914 0.07856 0.0
C2179 C 0.88679 0.31973 0.07772 0.0
C2180 C 0.87544 0.29369 0.07311 0.0
C2181 C 0.90579 0.36763 0.08662 0.0
C2182 C 0.89314 0.34175 0.09025 0.0
C2183 C 0.88498 0.31821 0.0858 0.0
C2184 C 0.88361 0.33873 0.09831 0.0
C2185 C 0.91585 0.3936 0.0912 0.0
C2186 C 0.89604 0.33228 0.10432 0.0
C2187 C 0.88801 0.33226 0.11199 0.0
C2188 C 0.86753 0.33873 0.11367 0.0
C2189 C 0.85416 0.34351 0.10755 0.0
C2190 C 0.86209 0.34347 0.09997 0.0
H2191 H 0.93138 0.41165 0.08795 0.0
H2192 H 0.89837 0.39676 0.09246 0.0
H2193 H 0.92481 0.3923 0.09677 0.0
H2194 H 0.91255 0.32833 0.10312 0.0
H2195 H 0.89872 0.32858 0.11659 0.0
H2196 H 0.70203 0.56279 0.11634 0.0
H2197 H 0.7111 0.5783 0.10283 0.0
H2198 H 0.62755 0.52033 0.09698 0.0
H2199 H 0.61853 0.50472 0.11027 0.0
H2200 H 0.70219 0.53958 0.0905 0.0
H2201 H 0.64215 0.59149 0.08585 0.0
H2202 H 0.65331 0.58753 0.09528 0.0
H2203 H 0.62395 0.55944 0.09085 0.0
C2204 C 0.68555 0.55384 0.11218 0.0
C2205 C 0.65967 0.53242 0.11433 0.0
C2206 C 0.69072 0.56267 0.10449 0.0
C2207 C 0.66986 0.55069 0.09893 0.0
C2208 C 0.64378 0.53021 0.10118 0.0
H2209 H 0.64226 0.52651 0.05025 0.0
H2210 H 0.63873 0.53252 0.06417 0.0
C2211 C 0.63876 0.52113 0.10878 0.0
C2212 C 0.67567 0.55664 0.09062 0.0
H2213 H 0.65432 0.57558 0.07454 0.0
C2214 C 0.69224 0.54801 0.08702 0.0
C2215 C 0.66217 0.56711 0.08609 0.0
C2216 C 0.64456 0.57715 0.08971 0.0
C2217 C 0.6947 0.54835 0.07897 0.0
C2218 C 0.68089 0.55848 0.07441 0.0
C2219 C 0.6649 0.56786 0.07803 0.0
C2220 C 0.68231 0.5586 0.06586 0.0
C2221 C 0.71091 0.53646 0.07545 0.0
C2222 C 0.70772 0.57237 0.06215 0.0
C2223 C 0.70973 0.56859 0.0543 0.0
C2224 C 0.6863 0.55163 0.04995 0.0
C2225 C 0.66056 0.53979 0.05349 0.0
C2226 C 0.65859 0.54316 0.06143 0.0
H2227 H 0.7138 0.52304 0.07955 0.0
H2228 H 0.70069 0.52441 0.0702 0.0
H2229 H 0.73144 0.55332 0.07379 0.0
H2230 H 0.72618 0.58499 0.06541 0.0
H2231 H 0.7298 0.57811 0.05167 0.0
H2232 H 0.49906 0.84371 0.94348 0.0
H2233 H 0.51245 0.85827 0.93018 0.0
H2234 H 0.59232 0.92012 0.93785 0.0
H2235 H 0.57874 0.9058 0.9513 0.0
H2236 H 0.54063 0.91601 0.92242 0.0
H2237 H 0.59843 0.85988 0.9235 0.0
H2238 H 0.57109 0.85191 0.93022 0.0
H2239 H 0.60249 0.88373 0.931 0.0
C2240 C 0.51918 0.861 0.94236 0.0
C2241 C 0.53787 0.87367 0.94839 0.0
C2242 C 0.52682 0.86927 0.93476 0.0
C2243 C 0.5534 0.89008 0.93305 0.0
C2244 C 0.57169 0.90401 0.93908 0.0
H2245 H 0.57409 0.9068 0.88237 0.0
H2246 H 0.58954 0.92074 0.89572 0.0
C2247 C 0.56387 0.89596 0.94675 0.0
C2248 C 0.56217 0.89452 0.92489 0.0
H2249 H 0.58685 0.86887 0.91127 0.0
C2250 C 0.55162 0.90664 0.91997 0.0
C2251 C 0.57627 0.88197 0.92175 0.0
C2252 C 0.5878 0.86857 0.92685 0.0
C2253 C 0.55319 0.9049 0.91193 0.0
C2254 C 0.56547 0.89054 0.90879 0.0
C2255 C 0.57767 0.88006 0.91371 0.0
C2256 C 0.56077 0.88155 0.90065 0.0
C2257 C 0.53966 0.91635 0.90685 0.0
C2258 C 0.54041 0.85466 0.89902 0.0
C2259 C 0.53152 0.84681 0.89147 0.0
C2260 C 0.5431 0.86557 0.8854 0.0
C2261 C 0.56509 0.89187 0.88694 0.0
C2262 C 0.57376 0.89989 0.89455 0.0
H2263 H 0.53057 0.92656 0.91021 0.0
H2264 H 0.55489 0.93143 0.90279 0.0
H2265 H 0.52331 0.8997 0.90338 0.0
H2266 H 0.53014 0.84023 0.90364 0.0
H2267 H 0.51449 0.82646 0.89044 0.0
H2268 H 0.09682 0.65625 0.94817 0.0
H2269 H 0.08129 0.65098 0.9347 0.0
H2270 H 0.16184 0.67146 0.92698 0.0
H2271 H 0.17741 0.67694 0.94024 0.0
H2272 H 0.14033 0.70268 0.92001 0.0
H2273 H 0.06818 0.59034 0.91877 0.0
H2274 H 0.06426 0.60992 0.92633 0.0
H2275 H 0.09353 0.60549 0.92628 0.0
C2276 C 0.111 0.65912 0.94359 0.0
C2277 C 0.13837 0.66715 0.94527 0.0
C2278 C 0.10215 0.65621 0.9359 0.0
C2279 C 0.1205 0.66103 0.92984 0.0
C2280 C 0.14743 0.66794 0.93156 0.0
H2281 H 0.13885 0.62164 0.88635 0.0
H2282 H 0.13022 0.62759 0.89964 0.0
C2283 C 0.15626 0.67097 0.93916 0.0
C2284 C 0.11261 0.6597 0.92164 0.0
H2285 H 0.08087 0.61416 0.90707 0.0
C2286 C 0.12678 0.68347 0.91717 0.0
C2287 C 0.09486 0.63463 0.91799 0.0
C2288 C 0.07931 0.60852 0.92254 0.0
C2289 C 0.12546 0.68246 0.90909 0.0
C2290 C 0.10922 0.65702 0.90541 0.0
C2291 C 0.09327 0.63365 0.90991 0.0
C2292 C 0.11282 0.6532 0.89713 0.0
C2293 C 0.14322 0.70814 0.90456 0.0
C2294 C 0.10595 0.66575 0.89122 0.0
C2295 C 0.11108 0.66253 0.88348 0.0
C2296 C 0.12305 0.64663 0.88156 0.0
C2297 C 0.1296 0.63404 0.88754 0.0
C2298 C 0.12454 0.63728 0.89519 0.0
H2299 H 0.15661 0.72569 0.90832 0.0
H2300 H 0.15627 0.70468 0.90046 0.0
H2301 H 0.13009 0.71371 0.90116 0.0
H2302 H 0.09668 0.67799 0.8926 0.0
H2303 H 0.10564 0.67236 0.87903 0.0
H2304 H 0.34792 0.51425 0.88996 0.0
H2305 H 0.34301 0.49993 0.90334 0.0
H2306 H 0.319 0.41786 0.89622 0.0
H2307 H 0.32365 0.43211 0.88263 0.0
H2308 H 0.28789 0.42011 0.90851 0.0
H2309 H 0.39786 0.4853 0.91463 0.0
H2310 H 0.38439 0.50467 0.91015 0.0
H2311 H 0.38453 0.47717 0.90494 0.0
C2312 C 0.34143 0.49307 0.8912 0.0
C2313 C 0.33649 0.47438 0.88522 0.0
C2314 C 0.33885 0.48498 0.89887 0.0
C2315 C 0.33157 0.45808 0.90078 0.0
C2316 C 0.32511 0.43886 0.89485 0.0
H2317 H 0.34596 0.44716 0.95126 0.0
H2318 H 0.35117 0.43857 0.93763 0.0
C2319 C 0.32758 0.44697 0.88711 0.0
C2320 C 0.33055 0.45062 0.90902 0.0
H2321 H 0.36743 0.47426 0.92562 0.0
C2322 C 0.30543 0.43143 0.91224 0.0
C2323 C 0.3536 0.46476 0.91388 0.0
C2324 C 0.38168 0.48389 0.9107 0.0
C2325 C 0.30217 0.42803 0.92025 0.0
C2326 C 0.32445 0.44468 0.92515 0.0
C2327 C 0.35019 0.46183 0.92189 0.0
C2328 C 0.32053 0.44776 0.93347 0.0
C2329 C 0.27456 0.40739 0.92341 0.0
C2330 C 0.30209 0.4563 0.93562 0.0
C2331 C 0.29919 0.46129 0.94331 0.0
C2332 C 0.31486 0.45814 0.9491 0.0
C2333 C 0.33354 0.44972 0.94696 0.0
C2334 C 0.33646 0.44472 0.93919 0.0
H2335 H 0.2638 0.38982 0.9194 0.0
H2336 H 0.27634 0.39961 0.92912 0.0
H2337 H 0.26179 0.41712 0.92402 0.0
H2338 H 0.29026 0.45974 0.93132 0.0
H2339 H 0.28469 0.4679 0.94467 0.0
H2340 H 0.09576 0.43808 0.45098 0.0
H2341 H 0.08032 0.42712 0.43751 0.0
H2342 H 0.16403 0.46232 0.43009 0.0
H2343 H 0.17946 0.47303 0.44328 0.0
H2344 H 0.09284 0.46204 0.4251 0.0
H2345 H 0.12873 0.38965 0.41893 0.0
H2346 H 0.12456 0.39846 0.42865 0.0
H2347 H 0.15557 0.41978 0.42337 0.0
C2348 C 0.1108 0.44335 0.44646 0.0
C2349 C 0.13884 0.45626 0.44825 0.0
C2350 C 0.10195 0.43696 0.43879 0.0
C2351 C 0.12099 0.44312 0.43282 0.0
C2352 C 0.14888 0.45644 0.43461 0.0
H2353 H 0.15605 0.51103 0.3906 0.0
H2354 H 0.14404 0.49418 0.40365 0.0
C2355 C 0.15768 0.46282 0.44219 0.0
C2356 C 0.11271 0.438 0.4246 0.0
H2357 H 0.12951 0.41765 0.40796 0.0
C2358 C 0.10003 0.45156 0.42137 0.0
C2359 C 0.12146 0.42379 0.41971 0.0
C2360 C 0.13305 0.40684 0.42287 0.0
C2361 C 0.09875 0.4539 0.41335 0.0
C2362 C 0.11089 0.44283 0.40849 0.0
C2363 C 0.12069 0.42661 0.41169 0.0
C2364 C 0.11789 0.45195 0.40038 0.0
C2365 C 0.08589 0.46966 0.41016 0.0
C2366 C 0.10823 0.43354 0.39417 0.0
C2367 C 0.11524 0.44318 0.38657 0.0
C2368 C 0.13219 0.47131 0.38513 0.0
C2369 C 0.14264 0.4893 0.39144 0.0
C2370 C 0.13562 0.47974 0.39894 0.0
H2371 H 0.06957 0.46817 0.41405 0.0
H2372 H 0.1017 0.49157 0.40969 0.0
H2373 H 0.07704 0.46214 0.40436 0.0
H2374 H 0.09489 0.4119 0.39519 0.0
H2375 H 0.10689 0.42879 0.38185 0.0
H2376 H 0.57039 0.67546 0.38327 0.0
H2377 H 0.58506 0.67882 0.39679 0.0
H2378 H 0.50338 0.65477 0.40431 0.0
H2379 H 0.4887 0.65129 0.39102 0.0
H2380 H 0.58267 0.70944 0.40946 0.0
H2381 H 0.51863 0.59891 0.41497 0.0
H2382 H 0.52702 0.61297 0.40535 0.0
H2383 H 0.49904 0.61223 0.41054 0.0
C2384 C 0.55572 0.67124 0.38783 0.0
C2385 C 0.5283 0.66277 0.38607 0.0
C2386 C 0.56406 0.67296 0.39553 0.0
C2387 C 0.54505 0.66613 0.40154 0.0
C2388 C 0.51816 0.65921 0.39977 0.0
H2389 H 0.52861 0.70933 0.44464 0.0
H2390 H 0.539 0.70407 0.43149 0.0
C2391 C 0.50986 0.65745 0.39215 0.0
C2392 C 0.55268 0.66658 0.40973 0.0
H2393 H 0.52825 0.62863 0.42613 0.0
C2394 C 0.57139 0.69161 0.41309 0.0
C2395 C 0.53857 0.64317 0.41446 0.0
C2396 C 0.51993 0.61524 0.41112 0.0
C2397 C 0.57407 0.69444 0.42113 0.0
C2398 C 0.55723 0.67179 0.42589 0.0
C2399 C 0.54083 0.64612 0.4225 0.0
C2400 C 0.55263 0.67538 0.43411 0.0
C2401 C 0.5939 0.72202 0.42446 0.0
C2402 C 0.55585 0.66015 0.44001 0.0
C2403 C 0.54963 0.66295 0.44768 0.0
C2404 C 0.53976 0.68073 0.44952 0.0
C2405 C 0.53629 0.69553 0.44353 0.0
C2406 C 0.54255 0.69281 0.43595 0.0
H2407 H 0.61181 0.73335 0.4206 0.0
H2408 H 0.58363 0.73432 0.425 0.0
H2409 H 0.60122 0.72013 0.43024 0.0
H2410 H 0.56315 0.64618 0.43869 0.0
H2411 H 0.55249 0.65122 0.45214 0.0
H2412 H 0.34046 0.90368 0.44996 0.0
H2413 H 0.34462 0.91897 0.43647 0.0
H2414 H 0.33079 0.84054 0.42876 0.0
H2415 H 0.32653 0.82524 0.44203 0.0
H2416 H 0.379 0.92113 0.42395 0.0
H2417 H 0.27029 0.84859 0.41788 0.0
H2418 H 0.28352 0.85785 0.42755 0.0
H2419 H 0.28653 0.83185 0.42239 0.0
C2420 C 0.33877 0.88993 0.44537 0.0
C2421 C 0.33282 0.86314 0.44705 0.0
C2422 C 0.34094 0.8986 0.43769 0.0
C2423 C 0.33713 0.88055 0.43163 0.0
C2424 C 0.33295 0.8545 0.43334 0.0
H2425 H 0.38598 0.87432 0.38801 0.0
H2426 H 0.38015 0.88323 0.40128 0.0
C2427 C 0.33071 0.84586 0.44094 0.0
C2428 C 0.33734 0.88819 0.42345 0.0
H2429 H 0.3009 0.86239 0.40687 0.0
C2430 C 0.36172 0.90881 0.42022 0.0
C2431 C 0.31456 0.87266 0.4186 0.0
C2432 C 0.28715 0.85171 0.4218 0.0
C2433 C 0.36473 0.91238 0.4122 0.0
C2434 C 0.343 0.89449 0.40732 0.0
C2435 C 0.31775 0.87583 0.41059 0.0
C2436 C 0.34738 0.89159 0.39902 0.0
C2437 C 0.3916 0.93453 0.40904 0.0
C2438 C 0.33031 0.89249 0.39326 0.0
C2439 C 0.33339 0.88703 0.38554 0.0
C2440 C 0.35335 0.88021 0.3835 0.0
C2441 C 0.37036 0.87949 0.38931 0.0
C2442 C 0.36733 0.88497 0.39694 0.0
H2443 H 0.4011 0.95232 0.41301 0.0
H2444 H 0.4059 0.92653 0.40849 0.0
H2445 H 0.38905 0.94158 0.40329 0.0
H2446 H 0.31446 0.89713 0.39476 0.0
H2447 H 0.31993 0.88772 0.38122 0.0
H2448 H 0.21841 0.14699 0.17254 0.0
H2449 H 0.25577 0.14132 0.16766 0.0
H2450 H 0.30983 0.19776 0.18476 0.0
H2451 H 0.27238 0.20343 0.18976 0.0
H2452 H 0.30607 0.18168 0.16171 0.0
H2453 H 0.32016 0.13111 0.18734 0.0
H2454 H 0.29006 0.13404 0.18595 0.0
H2455 H 0.3213 0.16292 0.18924 0.0
C2456 C 0.23819 0.15816 0.1753 0.0
C2457 C 0.24237 0.17564 0.18156 0.0
C2458 C 0.25954 0.15488 0.17249 0.0
C2459 C 0.28548 0.16885 0.1759 0.0
C2460 C 0.28983 0.1864 0.18213 0.0
H2461 H 0.43948 0.17598 0.16604 0.0
H2462 H 0.40258 0.18178 0.17127 0.0
C2463 C 0.26844 0.18972 0.18496 0.0
C2464 C 0.30806 0.1655 0.17276 0.0
H2465 H 0.3523 0.14294 0.17724 0.0
C2466 C 0.31615 0.17314 0.16509 0.0
C2467 C 0.32117 0.15439 0.1772 0.0
C2468 C 0.31265 0.1449 0.18537 0.0
C2469 C 0.33726 0.17032 0.16177 0.0
C2470 C 0.35027 0.15905 0.16619 0.0
C2471 C 0.34226 0.15152 0.17386 0.0
C2472 C 0.37245 0.15519 0.16297 0.0
C2473 C 0.34583 0.17998 0.15361 0.0
C2474 C 0.36768 0.13799 0.15662 0.0
C2475 C 0.38878 0.13465 0.15359 0.0
C2476 C 0.415 0.1483 0.1569 0.0
C2477 C 0.41956 0.16517 0.16334 0.0
C2478 C 0.39848 0.16852 0.16635 0.0
H2479 H 0.33893 0.19437 0.15175 0.0
H2480 H 0.36838 0.19023 0.15298 0.0
H2481 H 0.33654 0.16211 0.14968 0.0
H2482 H 0.34759 0.12706 0.15402 0.0
H2483 H 0.38453 0.12139 0.14866 0.0
H2484 H 0.78877 0.04408 0.1651 0.0
H2485 H 0.80035 0.08929 0.16034 0.0
H2486 H 0.82541 0.12255 0.18316 0.0
H2487 H 0.81416 0.07736 0.18798 0.0
H2488 H 0.78078 0.1241 0.16477 0.0
H2489 H 0.89242 0.17197 0.16991 0.0
H2490 H 0.86978 0.13544 0.17008 0.0
H2491 H 0.87149 0.15592 0.1782 0.0
C2492 C 0.79668 0.06096 0.16913 0.0
C2493 C 0.80069 0.0571 0.17692 0.0
C2494 C 0.80328 0.08681 0.16639 0.0
C2495 C 0.81417 0.10938 0.17136 0.0
C2496 C 0.81755 0.10551 0.17919 0.0
H2497 H 0.86877 0.28144 0.16545 0.0
H2498 H 0.85684 0.23616 0.17023 0.0
C2499 C 0.81092 0.07963 0.18194 0.0
C2500 C 0.82194 0.1369 0.16833 0.0
H2501 H 0.87618 0.2013 0.16582 0.0
C2502 C 0.80164 0.14097 0.16497 0.0
C2503 C 0.84919 0.15885 0.16859 0.0
C2504 C 0.87207 0.15539 0.17182 0.0
C2505 C 0.80777 0.16655 0.162 0.0
C2506 C 0.83502 0.18851 0.16226 0.0
C2507 C 0.85531 0.18443 0.16562 0.0
C2508 C 0.84282 0.21602 0.15922 0.0
C2509 C 0.78489 0.17001 0.15877 0.0
C2510 C 0.8394 0.21987 0.1514 0.0
C2511 C 0.84622 0.2458 0.14863 0.0
C2512 C 0.8567 0.26838 0.15363 0.0
C2513 C 0.86068 0.26452 0.16143 0.0
C2514 C 0.85388 0.23864 0.16419 0.0
H2515 H 0.76454 0.15346 0.1607 0.0
H2516 H 0.78722 0.18999 0.1605 0.0
H2517 H 0.78542 0.1694 0.15239 0.0
H2518 H 0.83141 0.20281 0.14744 0.0
H2519 H 0.84299 0.24806 0.14259 0.0
H2520 H 0.92831 0.72367 0.18705 0.0
H2521 H 0.88551 0.68626 0.18187 0.0
H2522 H 0.88862 0.73815 0.16323 0.0
H2523 H 0.93136 0.77542 0.16829 0.0
H2524 H 0.83583 0.68512 0.17924 0.0
H2525 H 0.87776 0.66976 0.15201 0.0
H2526 H 0.89924 0.68898 0.16 0.0
H2527 H 0.88574 0.70437 0.15361 0.0
C2528 C 0.91996 0.72707 0.18182 0.0
C2529 C 0.93338 0.7525 0.17806 0.0
C2530 C 0.89549 0.70568 0.17888 0.0
C2531 C 0.88412 0.70928 0.17209 0.0
C2532 C 0.89733 0.73471 0.16838 0.0
H2533 H 0.73686 0.60835 0.14535 0.0
H2534 H 0.7797 0.64567 0.15054 0.0
C2535 C 0.92173 0.75606 0.17131 0.0
C2536 C 0.85805 0.68674 0.169 0.0
H2537 H 0.8294 0.64663 0.15314 0.0
C2538 C 0.83443 0.67657 0.17355 0.0
C2539 C 0.85626 0.67573 0.16156 0.0
C2540 C 0.88113 0.68506 0.15653 0.0
C2541 C 0.80897 0.656 0.17082 0.0
C2542 C 0.80718 0.645 0.16338 0.0
C2543 C 0.8308 0.65517 0.15883 0.0
C2544 C 0.7811 0.62251 0.16028 0.0
C2545 C 0.7841 0.64665 0.17585 0.0
C2546 C 0.76788 0.59703 0.16397 0.0
C2547 C 0.74347 0.57573 0.16103 0.0
C2548 C 0.7318 0.57939 0.1543 0.0
C2549 C 0.74523 0.60488 0.15056 0.0
C2550 C 0.76971 0.62621 0.15351 0.0
H2551 H 0.78748 0.6619 0.18039 0.0
H2552 H 0.76601 0.64282 0.17238 0.0
H2553 H 0.77943 0.62728 0.17875 0.0
H2554 H 0.77659 0.59353 0.1691 0.0
H2555 H 0.73382 0.55634 0.16404 0.0
H2556 H 0.17232 0.44038 0.33474 0.0
H2557 H 0.17778 0.4027 0.33002 0.0
H2558 H 0.13832 0.35623 0.35044 0.0
H2559 H 0.13232 0.39375 0.35517 0.0
H2560 H 0.20591 0.37978 0.33667 0.0
H2561 H 0.09628 0.30203 0.33331 0.0
H2562 H 0.10786 0.33787 0.33465 0.0
H2563 H 0.10535 0.31688 0.34274 0.0
C2564 C 0.16461 0.4221 0.33822 0.0
C2565 C 0.15174 0.42004 0.34532 0.0
C2566 C 0.1678 0.40058 0.33551 0.0
C2567 C 0.15814 0.3765 0.33982 0.0
C2568 C 0.14541 0.37439 0.34694 0.0
H2569 H 0.16114 0.22594 0.3338 0.0
H2570 H 0.15558 0.26372 0.33836 0.0
C2571 C 0.14212 0.39591 0.34965 0.0
C2572 C 0.16217 0.354 0.33694 0.0
H2573 H 0.12815 0.28676 0.33167 0.0
C2574 C 0.18892 0.35945 0.33555 0.0
C2575 C 0.13996 0.32751 0.33547 0.0
C2576 C 0.11072 0.32069 0.33655 0.0
C2577 C 0.19411 0.33902 0.33288 0.0
C2578 C 0.17191 0.31251 0.33142 0.0
C2579 C 0.14515 0.30709 0.33279 0.0
C2580 C 0.17592 0.28992 0.32861 0.0
C2581 C 0.22337 0.34584 0.33183 0.0
C2582 C 0.18906 0.29197 0.32157 0.0
C2583 C 0.19246 0.2704 0.31895 0.0
C2584 C 0.18247 0.24625 0.3233 0.0
C2585 C 0.16911 0.24423 0.33031 0.0
C2586 C 0.16587 0.26581 0.33293 0.0
H2587 H 0.23776 0.36446 0.3351 0.0
H2588 H 0.22621 0.32865 0.33372 0.0
H2589 H 0.22884 0.34975 0.32564 0.0
H2590 H 0.19644 0.31013 0.31805 0.0
H2591 H 0.20263 0.27253 0.3135 0.0
H2592 H 0.58942 0.71366 0.33419 0.0
H2593 H 0.62354 0.75807 0.32907 0.0
H2594 H 0.62929 0.79499 0.35123 0.0
H2595 H 0.59534 0.75049 0.35644 0.0
H2596 H 0.62003 0.8054 0.32825 0.0
H2597 H 0.70935 0.8225 0.3458 0.0
H2598 H 0.67884 0.78946 0.345 0.0
H2599 H 0.67949 0.81502 0.3513 0.0
C2600 C 0.59809 0.73114 0.33801 0.0
C2601 C 0.58969 0.72846 0.34574 0.0
C2602 C 0.61757 0.75655 0.33506 0.0
C2603 C 0.6292 0.7798 0.33978 0.0
C2604 C 0.62098 0.77723 0.34751 0.0
H2605 H 0.74554 0.9514 0.33216 0.0
H2606 H 0.71151 0.90702 0.33732 0.0
C2607 C 0.60148 0.75178 0.35048 0.0
C2608 C 0.64914 0.80685 0.33651 0.0
H2609 H 0.71473 0.85966 0.33816 0.0
C2610 C 0.64078 0.81723 0.33039 0.0
C2611 C 0.67618 0.82227 0.33932 0.0
C2612 C 0.68666 0.8117 0.34567 0.0
C2613 C 0.65857 0.8428 0.32709 0.0
C2614 C 0.68562 0.85821 0.3299 0.0
C2615 C 0.69398 0.84784 0.33602 0.0
C2616 C 0.70558 0.88523 0.32661 0.0
C2617 C 0.64806 0.85337 0.32075 0.0
C2618 C 0.71364 0.88776 0.31886 0.0
C2619 C 0.73308 0.91318 0.31588 0.0
C2620 C 0.74498 0.93653 0.3206 0.0
C2621 C 0.73678 0.93389 0.32835 0.0
C2622 C 0.71735 0.90851 0.33132 0.0
H2623 H 0.62537 0.84266 0.32065 0.0
H2624 H 0.65598 0.87564 0.3214 0.0
H2625 H 0.65509 0.84993 0.31511 0.0
H2626 H 0.70523 0.86998 0.31516 0.0
H2627 H 0.73907 0.91444 0.3099 0.0
H2628 H 0.04941 0.78541 0.33187 0.0
H2629 H 0.09485 0.79849 0.33675 0.0
H2630 H 0.13061 0.83939 0.31534 0.0
H2631 H 0.08504 0.82616 0.31035 0.0
H2632 H 0.15173 0.80658 0.32097 0.0
H2633 H 0.1519 0.87591 0.34363 0.0
H2634 H 0.1228 0.84203 0.3439 0.0
H2635 H 0.12772 0.86376 0.33578 0.0
C2636 C 0.06689 0.79713 0.32817 0.0
C2637 C 0.06356 0.80487 0.32073 0.0
C2638 C 0.09289 0.80474 0.331 0.0
C2639 C 0.11615 0.82038 0.32647 0.0
C2640 C 0.11292 0.8275 0.31895 0.0
H2641 H 0.29049 0.88593 0.33329 0.0
H2642 H 0.24536 0.8736 0.3283 0.0
C2643 C 0.08686 0.8199 0.31611 0.0
C2644 C 0.14379 0.8291 0.32958 0.0
H2645 H 0.18813 0.86612 0.344 0.0
C2646 C 0.15978 0.81973 0.32597 0.0
C2647 C 0.1542 0.84619 0.33613 0.0
C2648 C 0.13841 0.85779 0.34006 0.0
C2649 C 0.18569 0.82652 0.32883 0.0
C2650 C 0.19608 0.84358 0.33539 0.0
C2651 C 0.18011 0.853 0.33899 0.0
C2652 C 0.22358 0.85202 0.33857 0.0
C2653 C 0.20142 0.81483 0.32492 0.0
C2654 C 0.22647 0.84488 0.34611 0.0
C2655 C 0.25234 0.85209 0.34902 0.0
C2656 C 0.27581 0.86671 0.34444 0.0
C2657 C 0.27286 0.87451 0.33697 0.0
C2658 C 0.24704 0.86732 0.33408 0.0
H2659 H 0.18791 0.79674 0.32134 0.0
H2660 H 0.21709 0.83057 0.32108 0.0
H2661 H 0.21203 0.8088 0.3292 0.0
H2662 H 0.20863 0.83325 0.3497 0.0
H2663 H 0.25387 0.84579 0.3548 0.0
H2664 H 0.7273 0.79965 0.81087 0.0
H2665 H 0.68994 0.8063 0.81543 0.0
H2666 H 0.74158 0.85845 0.83363 0.0
H2667 H 0.77898 0.85234 0.82907 0.0
H2668 H 0.66465 0.79363 0.82972 0.0
H2669 H 0.71265 0.90482 0.82419 0.0
H2670 H 0.72568 0.88421 0.82011 0.0
H2671 H 0.73355 0.89597 0.8299 0.0
C2672 C 0.73074 0.81268 0.81581 0.0
C2673 C 0.75617 0.82555 0.81958 0.0
C2674 C 0.70938 0.81645 0.81841 0.0
C2675 C 0.71313 0.83326 0.82479 0.0
C2676 C 0.73842 0.84593 0.82858 0.0
H2677 H 0.61237 0.87533 0.85272 0.0
H2678 H 0.64926 0.87026 0.84701 0.0
C2679 C 0.75974 0.84224 0.82599 0.0
C2680 C 0.69036 0.83676 0.82769 0.0
H2681 H 0.67278 0.88492 0.83209 0.0
C2682 C 0.6663 0.81355 0.83017 0.0
C2683 C 0.69261 0.86279 0.8283 0.0
C2684 C 0.71741 0.88835 0.82542 0.0
C2685 C 0.64473 0.81574 0.83343 0.0
C2686 C 0.64712 0.8418 0.83412 0.0
C2687 C 0.67106 0.86499 0.83158 0.0
C2688 C 0.62496 0.84539 0.83746 0.0
C2689 C 0.61987 0.79021 0.8363 0.0
C2690 C 0.59926 0.83355 0.8339 0.0
C2691 C 0.57819 0.83639 0.83714 0.0
C2692 C 0.58243 0.8513 0.84399 0.0
C2693 C 0.6084 0.86368 0.84745 0.0
C2694 C 0.6295 0.86081 0.8442 0.0
H2695 H 0.62402 0.77311 0.83711 0.0
H2696 H 0.61263 0.79406 0.84185 0.0
H2697 H 0.60314 0.78364 0.83203 0.0
H2698 H 0.59548 0.82204 0.82861 0.0
H2699 H 0.5585 0.82671 0.83429 0.0
H2700 H 0.12181 0.73053 0.85159 0.0
H2701 H 0.12633 0.77348 0.84681 0.0
H2702 H 0.18519 0.77945 0.83 0.0
H2703 H 0.18063 0.73664 0.83464 0.0
H2704 H 0.17302 0.82557 0.84592 0.0
H2705 H 0.12989 0.78788 0.81685 0.0
H2706 H 0.12599 0.76516 0.82467 0.0
H2707 H 0.15745 0.78215 0.81935 0.0
C2708 C 0.13566 0.74097 0.84687 0.0
C2709 C 0.15069 0.73002 0.84347 0.0
C2710 C 0.13822 0.76549 0.84414 0.0
C2711 C 0.1557 0.77939 0.83795 0.0
C2712 C 0.17108 0.76876 0.83465 0.0
H2713 H 0.2047 0.93187 0.81355 0.0
H2714 H 0.19936 0.88846 0.81822 0.0
C2715 C 0.16854 0.74431 0.83736 0.0
C2716 C 0.15842 0.80534 0.83502 0.0
H2717 H 0.1515 0.83587 0.81885 0.0
C2718 C 0.16814 0.82778 0.84002 0.0
C2719 C 0.15217 0.80822 0.8273 0.0
C2720 C 0.14056 0.78452 0.82174 0.0
C2721 C 0.17227 0.85318 0.83748 0.0
C2722 C 0.16609 0.85608 0.82976 0.0
C2723 C 0.15634 0.83363 0.82475 0.0
C2724 C 0.16902 0.88209 0.82682 0.0
C2725 C 0.18377 0.87688 0.84303 0.0
C2726 C 0.15334 0.89258 0.82999 0.0
C2727 C 0.15631 0.91726 0.82734 0.0
C2728 C 0.17496 0.93197 0.82143 0.0
C2729 C 0.19024 0.92112 0.81813 0.0
C2730 C 0.18721 0.89633 0.82079 0.0
H2731 H 0.19399 0.87336 0.84801 0.0
H2732 H 0.19869 0.89614 0.84013 0.0
H2733 H 0.16688 0.87954 0.84529 0.0
H2734 H 0.13875 0.88164 0.83453 0.0
H2735 H 0.14403 0.92485 0.82998 0.0
H2736 H 0.26229 0.44581 0.83629 0.0
H2737 H 0.22043 0.4082 0.83091 0.0
H2738 H 0.2209 0.35403 0.84832 0.0
H2739 H 0.2627 0.39174 0.85383 0.0
H2740 H 0.21204 0.35916 0.82494 0.0
H2741 H 0.14322 0.34121 0.84977 0.0
H2742 H 0.17625 0.37166 0.84888 0.0
H2743 H 0.17366 0.34026 0.85214 0.0
C2744 C 0.25346 0.42595 0.83902 0.0
C2745 C 0.26584 0.42182 0.84551 0.0
C2746 C 0.22952 0.40445 0.83592 0.0
C2747 C 0.21733 0.37838 0.83926 0.0
C2748 C 0.22964 0.37412 0.84574 0.0
H2749 H 0.07618 0.22188 0.82834 0.0
H2750 H 0.11814 0.25978 0.83357 0.0
C2751 C 0.25362 0.39566 0.84886 0.0
C2752 C 0.19219 0.35559 0.83581 0.0
H2753 H 0.12547 0.30889 0.83961 0.0
C2754 C 0.19306 0.34823 0.82813 0.0
C2755 C 0.16745 0.34138 0.83998 0.0
C2756 C 0.16489 0.34913 0.84813 0.0
C2757 C 0.17002 0.32672 0.82456 0.0
C2758 C 0.14533 0.31246 0.82874 0.0
C2759 C 0.14443 0.31984 0.83641 0.0
C2760 C 0.12026 0.28947 0.82533 0.0
C2761 C 0.17249 0.31901 0.81641 0.0
C2762 C 0.10743 0.29358 0.81895 0.0
C2763 C 0.08336 0.27188 0.81592 0.0
C2764 C 0.07161 0.24572 0.81925 0.0
C2765 C 0.08463 0.24173 0.82562 0.0
C2766 C 0.10862 0.26339 0.82864 0.0
H2767 H 0.19416 0.32737 0.81468 0.0
H2768 H 0.16154 0.29647 0.8157 0.0
H2769 H 0.16315 0.32741 0.81243 0.0
H2770 H 0.1158 0.31367 0.81639 0.0
H2771 H 0.0738 0.27568 0.81104 0.0
H2772 H 0.84869 0.59523 0.64381 0.0
H2773 H 0.83701 0.62912 0.6484 0.0
H2774 H 0.86507 0.62471 0.67115 0.0
H2775 H 0.87656 0.59072 0.66666 0.0
H2776 H 0.81319 0.6199 0.67093 0.0
H2777 H 0.88816 0.70973 0.65399 0.0
H2778 H 0.86725 0.67953 0.64842 0.0
H2779 H 0.89116 0.67962 0.65526 0.0
C2780 C 0.85266 0.60168 0.64977 0.0
C2781 C 0.86362 0.59028 0.65487 0.0
C2782 C 0.84605 0.62113 0.65238 0.0
C2783 C 0.85043 0.62963 0.6601 0.0
C2784 C 0.8616 0.61848 0.66517 0.0
H2785 H 0.81995 0.73803 0.68869 0.0
H2786 H 0.83086 0.70401 0.68379 0.0
C2787 C 0.86821 0.59909 0.66258 0.0
C2788 C 0.84238 0.64931 0.663 0.0
H2789 H 0.85518 0.71482 0.66107 0.0
C2790 C 0.82241 0.64069 0.66879 0.0
C2791 C 0.85438 0.67637 0.66019 0.0
C2792 C 0.8766 0.68704 0.65417 0.0
C2793 C 0.81386 0.65829 0.67178 0.0
C2794 C 0.826 0.68543 0.66901 0.0
C2795 C 0.84588 0.69401 0.66319 0.0
C2796 C 0.81849 0.70533 0.67207 0.0
C2797 C 0.79152 0.6475 0.67776 0.0
C2798 C 0.80828 0.7177 0.6671 0.0
C2799 C 0.80219 0.73728 0.66987 0.0
C2800 C 0.80631 0.745 0.67768 0.0
C2801 C 0.81633 0.73241 0.68266 0.0
C2802 C 0.82248 0.71286 0.67987 0.0
H2803 H 0.77937 0.62481 0.67771 0.0
H2804 H 0.80083 0.65398 0.68356 0.0
H2805 H 0.77749 0.65567 0.67684 0.0
H2806 H 0.80513 0.71227 0.66106 0.0
H2807 H 0.79456 0.74658 0.66587 0.0
H2808 H 0.38902 0.26025 0.64529 0.0
H2809 H 0.35176 0.21855 0.65104 0.0
H2810 H 0.40532 0.22351 0.66943 0.0
H2811 H 0.44242 0.26514 0.66381 0.0
H2812 H 0.35002 0.1689 0.65416 0.0
H2813 H 0.33874 0.21544 0.68103 0.0
H2814 H 0.35726 0.23557 0.67277 0.0
H2815 H 0.37298 0.22261 0.67923 0.0
C2816 C 0.39281 0.25253 0.65058 0.0
C2817 C 0.41866 0.26615 0.65412 0.0
C2818 C 0.37152 0.2287 0.65385 0.0
C2819 C 0.37564 0.21819 0.66073 0.0
C2820 C 0.40149 0.23158 0.66422 0.0
H2821 H 0.2766 0.07482 0.68915 0.0
H2822 H 0.31356 0.11697 0.6835 0.0
C2823 C 0.42273 0.25533 0.66096 0.0
C2824 C 0.35323 0.19277 0.66417 0.0
H2825 H 0.31497 0.16691 0.68049 0.0
C2826 C 0.34222 0.16848 0.6599 0.0
C2827 C 0.34319 0.19225 0.67168 0.0
C2828 C 0.35344 0.21789 0.67643 0.0
C2829 C 0.32178 0.14358 0.66297 0.0
C2830 C 0.31176 0.14305 0.67047 0.0
C2831 C 0.32276 0.16734 0.67475 0.0
C2832 C 0.28942 0.1176 0.67391 0.0
C2833 C 0.31149 0.11793 0.65822 0.0
C2834 C 0.26351 0.10425 0.67047 0.0
C2835 C 0.24243 0.08025 0.67367 0.0
C2836 C 0.24674 0.06913 0.68041 0.0
C2837 C 0.27262 0.08277 0.68393 0.0
C2838 C 0.29375 0.10685 0.68072 0.0
H2839 H 0.32607 0.12044 0.65357 0.0
H2840 H 0.3079 0.10031 0.66187 0.0
H2841 H 0.29183 0.11309 0.65548 0.0
H2842 H 0.25954 0.11249 0.66531 0.0
H2843 H 0.22272 0.07044 0.67083 0.0
H2844 H 0.74043 0.13303 0.64494 0.0
H2845 H 0.78274 0.13779 0.65031 0.0
H2846 H 0.78348 0.19277 0.66764 0.0
H2847 H 0.7412 0.18793 0.6624 0.0
H2848 H 0.83395 0.18494 0.65228 0.0
H2849 H 0.79039 0.1357 0.6804 0.0
H2850 H 0.7693 0.1329 0.67225 0.0
H2851 H 0.78466 0.16336 0.67803 0.0
C2852 C 0.74958 0.1461 0.6499 0.0
C2853 C 0.73729 0.15992 0.65328 0.0
C2854 C 0.77375 0.1488 0.65296 0.0
C2855 C 0.78598 0.16523 0.65946 0.0
C2856 C 0.77407 0.17948 0.66273 0.0
H2857 H 0.93293 0.20841 0.6862 0.0
H2858 H 0.8908 0.20463 0.68099 0.0
C2859 C 0.74994 0.17679 0.65969 0.0
C2860 C 0.81145 0.16788 0.66275 0.0
H2861 H 0.83861 0.15751 0.67913 0.0
C2862 C 0.83495 0.17882 0.65813 0.0
C2863 C 0.81274 0.16 0.67041 0.0
C2864 C 0.78788 0.1471 0.67555 0.0
C2865 C 0.85981 0.18246 0.661 0.0
C2866 C 0.86107 0.17452 0.66865 0.0
C2867 C 0.83761 0.16367 0.67328 0.0
C2868 C 0.88639 0.17662 0.67187 0.0
C2869 C 0.88465 0.19526 0.65585 0.0
C2870 C 0.89755 0.16172 0.66857 0.0
C2871 C 0.92151 0.16381 0.67153 0.0
C2872 C 0.9348 0.18076 0.67788 0.0
C2873 C 0.92328 0.19527 0.68129 0.0
C2874 C 0.89922 0.19313 0.67832 0.0
H2875 H 0.88222 0.20677 0.65102 0.0
H2876 H 0.90328 0.20934 0.65915 0.0
H2877 H 0.88772 0.17892 0.65335 0.0
H2878 H 0.88766 0.14839 0.6637 0.0
H2879 H 0.92965 0.15217 0.66879 0.0
H2880 H 0.07097 0.44711 0.49877 0.0
H2881 H 0.03717 0.45796 0.50381 0.0
H2882 H 0.03919 0.49781 0.48245 0.0
H2883 H 0.07284 0.48672 0.4773 0.0
H2884 H 0.04345 0.50945 0.50589 0.0
H2885 H 0.95736 0.44763 0.486 0.0
H2886 H 0.98643 0.4427 0.48693 0.0
H2887 H 0.98895 0.47051 0.48127 0.0
C2888 C 0.06405 0.45794 0.4951 0.0
C2889 C 0.07458 0.46597 0.48761 0.0
C2890 C 0.04475 0.46417 0.49801 0.0
C2891 C 0.03542 0.47844 0.49349 0.0
C2892 C 0.0457 0.48632 0.48599 0.0
H2893 H 0.92602 0.54187 0.50133 0.0
H2894 H 0.95935 0.53032 0.49631 0.0
C2895 C 0.06502 0.48006 0.48306 0.0
C2896 C 0.01582 0.486 0.49676 0.0
H2897 H 0.95238 0.4783 0.49426 0.0
C2898 C 0.02348 0.50254 0.50337 0.0
C2899 C 0.98979 0.47699 0.49347 0.0
C2900 C 0.97996 0.45827 0.48657 0.0
C2901 C 0.00603 0.51072 0.50669 0.0
C2902 C 0.98002 0.50174 0.50339 0.0
C2903 C 0.97235 0.48518 0.49678 0.0
C2904 C 0.96053 0.50949 0.50663 0.0
C2905 C 0.01584 0.52942 0.51359 0.0
C2906 C 0.95007 0.5016 0.51411 0.0
C2907 C 0.931 0.50825 0.51702 0.0
C2908 C 0.92191 0.52276 0.51248 0.0
C2909 C 0.93258 0.53073 0.505 0.0
C2910 C 0.95161 0.5241 0.50211 0.0
H2911 H 0.03842 0.53987 0.51421 0.0
H2912 H 0.0096 0.54515 0.51319 0.0
H2913 H 0.00661 0.51722 0.51888 0.0
H2914 H 0.95628 0.48988 0.51765 0.0
H2915 H 0.92307 0.50163 0.52278 0.0
H2916 H 0.49196 0.4153 0.52228 0.0
H2917 H 0.50335 0.46103 0.51786 0.0
H2918 H 0.46463 0.42733 0.49606 0.0
H2919 H 0.45286 0.38172 0.50043 0.0
H2920 H 0.53529 0.48966 0.50523 0.0
H2921 H 0.43049 0.47324 0.50213 0.0
H2922 H 0.4377 0.45008 0.50744 0.0
H2923 H 0.43558 0.4484 0.4971 0.0
C2924 C 0.48559 0.41759 0.51658 0.0
C2925 C 0.47138 0.3948 0.51173 0.0
C2926 C 0.49218 0.44374 0.51406 0.0
C2927 C 0.4845 0.44755 0.50667 0.0
C2928 C 0.47025 0.42483 0.50184 0.0
H2929 H 0.51015 0.58551 0.47855 0.0
H2930 H 0.49909 0.54053 0.48351 0.0
C2931 C 0.46366 0.39875 0.50434 0.0
C2932 C 0.49237 0.47536 0.50386 0.0
H2933 H 0.46639 0.5137 0.49647 0.0
C2934 C 0.52024 0.49501 0.50337 0.0
C2935 C 0.47269 0.48227 0.50141 0.0
C2936 C 0.44243 0.46249 0.5021 0.0
C2937 C 0.52898 0.52116 0.50034 0.0
C2938 C 0.50931 0.52796 0.49782 0.0
C2939 C 0.48144 0.50839 0.49835 0.0
C2940 C 0.51714 0.55541 0.49472 0.0
C2941 C 0.55922 0.54106 0.49967 0.0
C2942 C 0.53091 0.57869 0.49938 0.0
C2943 C 0.53727 0.6044 0.49657 0.0
C2944 C 0.52987 0.60735 0.48904 0.0
C2945 C 0.51626 0.584 0.48436 0.0
C2946 C 0.50986 0.55826 0.48719 0.0
H2947 H 0.57139 0.53056 0.49997 0.0
H2948 H 0.56404 0.55266 0.49419 0.0
H2949 H 0.56571 0.55589 0.50449 0.0
H2950 H 0.53628 0.57692 0.50525 0.0
H2951 H 0.54764 0.6219 0.50035 0.0
H2952 H 0.61366 0.07158 0.50072 0.0
H2953 H 0.56799 0.0383 0.49626 0.0
H2954 H 0.53473 0.0402 0.51844 0.0
H2955 H 0.58049 0.07408 0.52294 0.0
H2956 H 0.53184 0.98705 0.50161 0.0
H2957 H 0.48707 0.05476 0.50382 0.0
H2958 H 0.52336 0.06758 0.50444 0.0
H2959 H 0.50172 0.05104 0.51259 0.0
C2960 C 0.59668 0.06497 0.50468 0.0
C2961 C 0.60075 0.07565 0.51218 0.0
C2962 C 0.57055 0.04589 0.5021 0.0
C2963 C 0.54786 0.03708 0.50696 0.0
C2964 C 0.55186 0.04717 0.51453 0.0
H2965 H 0.37523 0.92031 0.49959 0.0
H2966 H 0.41956 0.95365 0.505 0.0
C2967 C 0.57806 0.06637 0.51711 0.0
C2968 C 0.52017 0.01717 0.50406 0.0
H2969 H 0.45702 0.00875 0.50029 0.0
C2970 C 0.51549 0.99181 0.50132 0.0
C2971 C 0.49884 0.02341 0.50368 0.0
C2972 C 0.50295 0.05075 0.50622 0.0
C2973 C 0.49008 0.97248 0.49825 0.0
C2974 C 0.46887 0.97882 0.4978 0.0
C2975 C 0.47337 0.004 0.50063 0.0
C2976 C 0.44188 0.95952 0.4944 0.0
C2977 C 0.48601 0.94527 0.49558 0.0
C2978 C 0.43964 0.95224 0.48659 0.0
C2979 C 0.41431 0.93325 0.48347 0.0
C2980 C 0.39073 0.92119 0.4881 0.0
C2981 C 0.39297 0.92911 0.49587 0.0
C2982 C 0.41829 0.94818 0.49897 0.0
H2983 H 0.50181 0.9411 0.49797 0.0
H2984 H 0.46553 0.92838 0.49728 0.0
H2985 H 0.48741 0.94532 0.48921 0.0
H2986 H 0.45754 0.96113 0.48293 0.0
H2987 H 0.41333 0.92769 0.47746 0.0
H2988 H 0.50918 0.10949 0.00342 0.0
H2989 H 0.51516 0.07266 0.99824 0.0
H2990 H 0.46414 0.019 0.01629 0.0
H2991 H 0.45771 0.05572 0.02147 0.0
H2992 H 0.5377 0.04467 0.00551 0.0
H2993 H 0.43037 0.97365 0.99682 0.0
H2994 H 0.44266 0.00907 0.99912 0.0
H2995 H 0.43452 0.98448 0.00669 0.0
C2996 C 0.49902 0.08981 0.00627 0.0
C2997 C 0.48282 0.08552 0.01285 0.0
C2998 C 0.50253 0.06879 0.0033 0.0
C2999 C 0.48984 0.04299 0.00681 0.0
C3000 C 0.4737 0.0386 0.01339 0.0
H3001 H 0.4898 0.89203 0.99812 0.0
H3002 H 0.48379 0.92887 0.00329 0.0
C3003 C 0.47014 0.05964 0.01637 0.0
C3004 C 0.49424 0.02102 0.0037 0.0
H3005 H 0.46122 0.95682 0.996 0.0
C3006 C 0.52101 0.02549 0.0034 0.0
C3007 C 0.47242 0.99603 0.00095 0.0
C3008 C 0.44339 0.99051 0.00083 0.0
C3009 C 0.5265 0.00546 0.00056 0.0
C3010 C 0.50468 0.98047 0.99781 0.0
C3011 C 0.47791 0.976 0.99811 0.0
C3012 C 0.50907 0.9585 0.9947 0.0
C3013 C 0.55552 0.01097 0.00068 0.0
C3014 C 0.5252 0.96287 0.98812 0.0
C3015 C 0.52876 0.94182 0.98515 0.0
C3016 C 0.51611 0.91596 0.98869 0.0
C3017 C 0.49993 0.9117 0.99526 0.0
C3018 C 0.4964 0.93272 0.99822 0.0
H3019 H 0.56855 0.02785 0.00469 0.0
H3020 H 0.55624 0.99242 0.0024 0.0
H3021 H 0.56439 0.01697 0.99482 0.0
H3022 H 0.53474 0.98246 0.98522 0.0
H3023 H 0.5412 0.94573 0.98005 0.0
H3024 H 0.94472 0.40367 0.01804 0.0
H3025 H 0.98134 0.4463 0.01256 0.0
H3026 H 0.92758 0.44147 0.99425 0.0
H3027 H 0.89084 0.39913 0.9997 0.0
H3028 H 0.00521 0.45623 0.99781 0.0
H3029 H 0.9556 0.51839 0.00294 0.0
H3030 H 0.94414 0.48578 0.00753 0.0
H3031 H 0.93497 0.48728 0.99771 0.0
C3032 C 0.94068 0.41168 0.01285 0.0
C3033 C 0.91479 0.39804 0.00933 0.0
C3034 C 0.96163 0.43603 0.00973 0.0
C3035 C 0.95704 0.44728 0.00307 0.0
C3036 C 0.9314 0.43346 0.99947 0.0
H3037 H 0.05855 0.59409 0.97606 0.0
H3038 H 0.02142 0.55052 0.98093 0.0
C3039 C 0.91046 0.40914 0.00258 0.0
C3040 C 0.97917 0.47327 -0.00017 0.0
H3041 H 0.99616 0.53889 0.99548 0.0
C3042 C 0.00329 0.47434 0.99732 0.0
C3043 C 0.97655 0.49683 0.99917 0.0
C3044 C 0.95154 0.49721 0.00204 0.0
C3045 C 0.02476 0.49825 0.99409 0.0
C3046 C 0.02221 0.52185 0.99348 0.0
C3047 C 0.99803 0.52074 0.99594 0.0
C3048 C 0.04472 0.54812 0.99049 0.0
C3049 C 0.0498 0.49788 0.99124 0.0
C3050 C 0.06996 0.56139 0.9943 0.0
C3051 C 0.09115 0.58621 0.99154 0.0
C3052 C 0.0875 0.59841 0.98493 0.0
C3053 C 0.06206 0.58522 0.98115 0.0
C3054 C 0.04083 0.56035 0.98393 0.0
H3055 H 0.04554 0.47672 0.99017 0.0
H3056 H 0.05765 0.50987 0.98585 0.0
H3057 H 0.0661 0.50716 0.99567 0.0
H3058 H 0.07323 0.55264 0.99946 0.0
H3059 H 0.1104 0.59584 0.99462 0.0
H3060 H 0.38126 0.45303 0.99887 0.0
H3061 H 0.4268 0.46555 0.00354 0.0
H3062 H 0.46154 0.50451 0.98184 0.0
H3063 H 0.41595 0.49237 0.97713 0.0
H3064 H 0.46493 0.45264 0.99787 0.0
H3065 H 0.5061 0.56481 0.99748 0.0
H3066 H 0.47008 0.5405 0.99661 0.0
H3067 H 0.49229 0.54801 0.98846 0.0
C3068 C 0.39854 0.46423 0.99507 0.0
C3069 C 0.39494 0.47184 0.98763 0.0
C3070 C 0.42458 0.47136 0.99776 0.0
C3071 C 0.44763 0.48636 0.9931 0.0
C3072 C 0.4441 0.49342 0.9856 0.0
H3073 H 0.62108 0.54886 0.99972 0.0
H3074 H 0.57574 0.53637 0.99486 0.0
C3075 C 0.418 0.4863 0.98289 0.0
C3076 C 0.47527 0.49445 0.99611 0.0
H3077 H 0.53736 0.54976 0.00044 0.0
C3078 C 0.48075 0.47387 0.99845 0.0
C3079 C 0.49587 0.52217 0.99689 0.0
C3080 C 0.49082 0.54519 0.9948 0.0
C3081 C 0.50641 0.48024 0.00142 0.0
C3082 C 0.52699 0.50796 0.0022 0.0
C3083 C 0.52154 0.52853 -0.00015 0.0
C3084 C 0.5545 0.51602 0.00531 0.0
C3085 C 0.51145 0.45723 0.00354 0.0
C3086 C 0.55771 0.5092 0.01286 0.0
C3087 C 0.58368 0.51634 0.01568 0.0
C3088 C 0.60693 0.53053 0.01099 0.0
C3089 C 0.60365 0.53786 0.00349 0.0
C3090 C 0.57772 0.53075 0.00069 0.0
H3091 H 0.49617 0.43759 0.00086 0.0
H3092 H 0.5322 0.46192 0.00173 0.0
H3093 H 0.50997 0.45449 0.00988 0.0
H3094 H 0.54012 0.4983 0.01658 0.0
H3095 H 0.58547 0.51046 0.02149 0.0
loop_
_geom_bond_atom_site_label_1
_geom_bond_atom_site_label_2
_geom_bond_distance
_geom_bond_site_symmetry_2
_ccdc_geom_bond_type
Mg0 O1 2.028 . S
Mg0 O7 1.986 . S
Mg0 O9 2.114 . S
Mg0 O10 2.251 . S
Mg0 O13 2.010 . S
O1 Mg0 2.028 . S
O1 C4 1.250 . S
O2 Mg3 2.028 . S
O2 C4 1.248 . S
Mg3 O2 2.028 . S
Mg3 O8 2.032 . S
Mg3 O10 2.079 . S
C4 O1 1.250 . S
C4 O2 1.248 . S
C5 O6 1.264 . S
C5 O13 1.249 . S
O6 C5 1.264 . S
O7 Mg0 1.986 . S
O7 C11 1.246 . S
O8 Mg3 2.032 . S
O8 C11 1.259 . S
O9 Mg0 2.114 . S
O9 C12 1.252 . S
O10 Mg0 2.251 . S
O10 Mg3 2.079 . S
O10 C12 1.273 . S
C11 O7 1.246 . S
C11 O8 1.259 . S
C12 O9 1.252 . S
C12 O10 1.273 . S
O13 Mg0 2.010 . S
O13 C5 1.249 . S
Mg14 O15 2.028 . S
Mg14 O21 1.986 . S
Mg14 O23 2.114 1_545 S
Mg14 O24 2.251 1_545 S
Mg14 O27 2.010 . S
O15 Mg14 2.028 . S
O15 C18 1.250 . S
O16 Mg17 2.028 1_545 S
O16 C18 1.248 . S
Mg17 O16 2.028 1_565 S
Mg17 O22 2.049 . S
Mg17 O24 2.079 . S
C18 O15 1.250 . S
C18 O16 1.248 . S
C19 O20 1.264 . S
C19 O27 1.249 . S
O20 C19 1.264 . S
O21 Mg14 1.986 . S
O21 C25 1.246 . S
O22 Mg17 2.049 . S
O22 C25 1.240 1_565 S
O23 Mg14 2.114 1_565 S
O23 C26 1.252 . S
O24 Mg14 2.251 1_565 S
O24 Mg17 2.079 . S
O24 C26 1.273 . S
C25 O21 1.246 . S
C25 O22 1.240 1_545 S
C26 O23 1.252 . S
C26 O24 1.273 . S
O27 Mg14 2.010 . S
O27 C19 1.249 . S
Mg28 O29 2.028 . S
Mg28 O35 1.986 . S
Mg28 O37 2.114 1_655 S
Mg28 O38 2.251 1_655 S
Mg28 O41 2.010 . S
O29 Mg28 2.028 . S
O29 C32 1.250 . S
O30 Mg31 2.028 1_655 S
O30 C32 1.248 . S
Mg31 O30 2.028 1_455 S
Mg31 O36 2.030 . S
Mg31 O38 2.079 . S
C32 O29 1.250 . S
C32 O30 1.248 . S
C33 O34 1.264 . S
C33 O41 1.249 . S
O34 C33 1.264 . S
O35 Mg28 1.986 . S
O35 C39 1.246 . S
O36 Mg31 2.030 . S
O36 C39 1.265 1_455 S
O37 Mg28 2.114 1_455 S
O37 C40 1.252 . S
O38 Mg28 2.251 1_455 S
O38 Mg31 2.079 . S
O38 C40 1.273 . S
C39 O35 1.246 . S
C39 O36 1.265 1_655 S
C40 O37 1.252 . S
C40 O38 1.273 . S
O41 Mg28 2.010 . S
O41 C33 1.249 . S
Mg42 O43 2.028 . S
Mg42 O49 1.986 . S
Mg42 O51 2.114 . S
Mg42 O52 2.251 . S
Mg42 O55 2.010 . S
O43 Mg42 2.028 . S
O43 C46 1.250 . S
O44 Mg45 2.028 . S
O44 C46 1.248 . S
Mg45 O44 2.028 . S
Mg45 O50 2.032 . S
Mg45 O52 2.079 . S
C46 O43 1.250 . S
C46 O44 1.248 . S
C47 O48 1.264 . S
C47 O55 1.249 . S
O48 C47 1.264 . S
O49 Mg42 1.986 . S
O49 C53 1.246 . S
O50 Mg45 2.032 . S
O50 C53 1.259 . S
O51 Mg42 2.114 . S
O51 C54 1.252 . S
O52 Mg42 2.251 . S
O52 Mg45 2.079 . S
O52 C54 1.273 . S
C53 O49 1.246 . S
C53 O50 1.259 . S
C54 O51 1.252 . S
C54 O52 1.273 . S
O55 Mg42 2.010 . S
O55 C47 1.249 . S
Mg56 O57 2.028 . S
Mg56 O63 1.986 . S
Mg56 O65 2.114 1_565 S
Mg56 O66 2.251 1_565 S
Mg56 O69 2.010 . S
O57 Mg56 2.028 . S
O57 C60 1.250 . S
O58 Mg59 2.028 1_565 S
O58 C60 1.248 . S
Mg59 O58 2.028 1_545 S
Mg59 O64 2.030 . S
Mg59 O66 2.079 . S
C60 O57 1.250 . S
C60 O58 1.248 . S
C61 O62 1.264 . S
C61 O69 1.249 . S
O62 C61 1.264 . S
O63 Mg56 1.986 . S
O63 C67 1.246 . S
O64 Mg59 2.030 . S
O64 C67 1.264 1_545 S
O65 Mg56 2.114 1_545 S
O65 C68 1.252 . S
O66 Mg56 2.251 1_545 S
O66 Mg59 2.079 . S
O66 C68 1.273 . S
C67 O63 1.246 . S
C67 O64 1.264 1_565 S
C68 O65 1.252 . S
C68 O66 1.273 . S
O69 Mg56 2.010 . S
O69 C61 1.249 . S
Mg70 O71 2.028 . S
Mg70 O77 1.986 . S
Mg70 O79 2.114 1_455 S
Mg70 O80 2.251 1_455 S
Mg70 O83 2.010 . S
O71 Mg70 2.028 . S
O71 C74 1.250 . S
O72 Mg73 2.028 1_455 S
O72 C74 1.248 . S
Mg73 O72 2.028 1_655 S
Mg73 O78 2.046 . S
Mg73 O80 2.079 . S
C74 O71 1.250 . S
C74 O72 1.248 . S
C75 O76 1.264 . S
C75 O83 1.249 . S
O76 C75 1.264 . S
O77 Mg70 1.986 . S
O77 C81 1.246 . S
O78 Mg73 2.046 . S
O78 C81 1.244 1_655 S
O79 Mg70 2.114 1_655 S
O79 C82 1.252 . S
O80 Mg70 2.251 1_655 S
O80 Mg73 2.079 . S
O80 C82 1.273 . S
C81 O77 1.246 . S
C81 O78 1.244 1_455 S
C82 O79 1.252 . S
C82 O80 1.273 . S
O83 Mg70 2.010 . S
O83 C75 1.249 . S
Mg84 O85 2.028 . S
Mg84 O91 1.986 . S
Mg84 O93 2.114 . S
Mg84 O94 2.251 . S
Mg84 O97 2.010 . S
O85 Mg84 2.028 . S
O85 C88 1.250 . S
O86 Mg87 2.028 . S
O86 C88 1.248 . S
Mg87 O86 2.028 . S
Mg87 O92 2.032 . S
Mg87 O94 2.079 . S
C88 O85 1.250 . S
C88 O86 1.248 . S
C89 O90 1.264 . S
C89 O97 1.249 . S
O90 C89 1.264 . S
O91 Mg84 1.986 . S
O91 C95 1.246 . S
O92 Mg87 2.032 . S
O92 C95 1.259 . S
O93 Mg84 2.114 . S
O93 C96 1.252 . S
O94 Mg84 2.251 . S
O94 Mg87 2.079 . S
O94 C96 1.273 . S
C95 O91 1.246 . S
C95 O92 1.259 . S
C96 O93 1.252 . S
C96 O94 1.273 . S
O97 Mg84 2.010 . S
O97 C89 1.249 . S
Mg98 O99 2.028 . S
Mg98 O105 1.986 . S
Mg98 O107 2.114 1_565 S
Mg98 O108 2.251 1_565 S
Mg98 O111 2.010 . S
O99 Mg98 2.028 . S
O99 C102 1.250 . S
O100 Mg101 2.028 1_565 S
O100 C102 1.248 . S
Mg101 O100 2.028 1_545 S
Mg101 O106 2.049 . S
Mg101 O108 2.079 . S
C102 O99 1.250 . S
C102 O100 1.248 . S
C103 O104 1.264 . S
C103 O111 1.249 . S
O104 C103 1.264 . S
O105 Mg98 1.986 . S
O105 C109 1.246 . S
O106 Mg101 2.049 . S
O106 C109 1.240 1_545 S
O107 Mg98 2.114 1_545 S
O107 C110 1.252 . S
O108 Mg98 2.251 1_545 S
O108 Mg101 2.079 . S
O108 C110 1.273 . S
C109 O105 1.246 . S
C109 O106 1.240 1_565 S
C110 O107 1.252 . S
C110 O108 1.273 . S
O111 Mg98 2.010 . S
O111 C103 1.249 . S
Mg112 O113 2.028 . S
Mg112 O119 1.986 . S
Mg112 O121 2.114 1_455 S
Mg112 O122 2.251 1_455 S
Mg112 O125 2.010 . S
O113 Mg112 2.028 . S
O113 C116 1.250 . S
O114 Mg115 2.028 1_455 S
O114 C116 1.248 . S
Mg115 O114 2.028 1_655 S
Mg115 O120 2.030 . S
Mg115 O122 2.079 . S
C116 O113 1.250 . S
C116 O114 1.248 . S
C117 O118 1.264 . S
C117 O125 1.249 . S
O118 C117 1.264 . S
O119 Mg112 1.986 . S
O119 C123 1.246 . S
O120 Mg115 2.030 . S
O120 C123 1.265 1_655 S
O121 Mg112 2.114 1_655 S
O121 C124 1.252 . S
O122 Mg112 2.251 1_655 S
O122 Mg115 2.079 . S
O122 C124 1.273 . S
C123 O119 1.246 . S
C123 O120 1.265 1_455 S
C124 O121 1.252 . S
C124 O122 1.273 . S
O125 Mg112 2.010 . S
O125 C117 1.249 . S
Mg126 O127 2.028 . S
Mg126 O133 1.986 . S
Mg126 O135 2.114 . S
Mg126 O136 2.251 . S
Mg126 O139 2.010 . S
O127 Mg126 2.028 . S
O127 C130 1.250 . S
O128 Mg129 2.028 . S
O128 C130 1.248 . S
Mg129 O128 2.028 . S
Mg129 O134 2.032 . S
Mg129 O136 2.079 . S
C130 O127 1.250 . S
C130 O128 1.248 . S
C131 O132 1.264 . S
C131 O139 1.249 . S
O132 C131 1.264 . S
O133 Mg126 1.986 . S
O133 C137 1.246 . S
O134 Mg129 2.032 . S
O134 C137 1.259 . S
O135 Mg126 2.114 . S
O135 C138 1.252 . S
O136 Mg126 2.251 . S
O136 Mg129 2.079 . S
O136 C138 1.273 . S
C137 O133 1.246 . S
C137 O134 1.259 . S
C138 O135 1.252 . S
C138 O136 1.273 . S
O139 Mg126 2.010 . S
O139 C131 1.249 . S
Mg140 O141 2.028 . S
Mg140 O147 1.986 . S
Mg140 O149 2.114 1_545 S
Mg140 O150 2.251 1_545 S
Mg140 O153 2.010 . S
O141 Mg140 2.028 . S
O141 C144 1.250 . S
O142 Mg143 2.028 1_545 S
O142 C144 1.248 . S
Mg143 O142 2.028 1_565 S
Mg143 O148 2.030 . S
Mg143 O150 2.079 . S
C144 O141 1.250 . S
C144 O142 1.248 . S
C145 O146 1.264 . S
C145 O153 1.249 . S
O146 C145 1.264 . S
O147 Mg140 1.986 . S
O147 C151 1.246 . S
O148 Mg143 2.030 . S
O148 C151 1.264 1_565 S
O149 Mg140 2.114 1_565 S
O149 C152 1.252 . S
O150 Mg140 2.251 1_565 S
O150 Mg143 2.079 . S
O150 C152 1.273 . S
C151 O147 1.246 . S
C151 O148 1.264 1_545 S
C152 O149 1.252 . S
C152 O150 1.273 . S
O153 Mg140 2.010 . S
O153 C145 1.249 . S
Mg154 O155 2.028 . S
Mg154 O161 1.986 . S
Mg154 O163 2.114 1_655 S
Mg154 O164 2.251 1_655 S
Mg154 O167 2.010 . S
O155 Mg154 2.028 . S
O155 C158 1.250 . S
O156 Mg157 2.028 1_655 S
O156 C158 1.248 . S
Mg157 O156 2.028 1_455 S
Mg157 O162 2.046 . S
Mg157 O164 2.079 . S
C158 O155 1.250 . S
C158 O156 1.248 . S
C159 O160 1.264 . S
C159 O167 1.249 . S
O160 C159 1.264 . S
O161 Mg154 1.986 . S
O161 C165 1.246 . S
O162 Mg157 2.046 . S
O162 C165 1.244 1_455 S
O163 Mg154 2.114 1_455 S
O163 C166 1.252 . S
O164 Mg154 2.251 1_455 S
O164 Mg157 2.079 . S
O164 C166 1.273 . S
C165 O161 1.246 . S
C165 O162 1.244 1_655 S
C166 O163 1.252 . S
C166 O164 1.273 . S
O167 Mg154 2.010 . S
O167 C159 1.249 . S
Mg168 O169 2.028 . S
Mg168 O175 1.986 . S
Mg168 O177 2.114 . S
Mg168 O178 2.251 . S
Mg168 O181 2.010 . S
O169 Mg168 2.028 . S
O169 C172 1.250 . S
O170 Mg171 2.028 . S
O170 C172 1.248 . S
Mg171 O170 2.028 . S
Mg171 O176 2.032 . S
Mg171 O178 2.079 . S
C172 O169 1.250 . S
C172 O170 1.248 . S
C173 O174 1.264 . S
C173 O181 1.249 . S
O174 C173 1.264 . S
O175 Mg168 1.986 . S
O175 C179 1.246 . S
O176 Mg171 2.032 . S
O176 C179 1.259 . S
O177 Mg168 2.114 . S
O177 C180 1.252 . S
O178 Mg168 2.251 . S
O178 Mg171 2.079 . S
O178 C180 1.273 . S
C179 O175 1.246 . S
C179 O176 1.259 . S
C180 O177 1.252 . S
C180 O178 1.273 . S
O181 Mg168 2.010 . S
O181 C173 1.249 . S
Mg182 O183 2.028 . S
Mg182 O189 1.986 . S
Mg182 O191 2.114 . S
Mg182 O192 2.251 . S
Mg182 O195 2.010 . S
O183 Mg182 2.028 . S
O183 C186 1.250 . S
O184 Mg185 2.028 . S
O184 C186 1.248 . S
Mg185 O184 2.028 . S
Mg185 O190 2.032 . S
Mg185 O192 2.079 . S
C186 O183 1.250 . S
C186 O184 1.248 . S
C187 O188 1.264 . S
C187 O195 1.249 . S
O188 C187 1.264 . S
O189 Mg182 1.986 . S
O189 C193 1.246 . S
O190 Mg185 2.032 . S
O190 C193 1.259 . S
O191 Mg182 2.114 . S
O191 C194 1.252 . S
O192 Mg182 2.251 . S
O192 Mg185 2.079 . S
O192 C194 1.273 . S
C193 O189 1.246 . S
C193 O190 1.259 . S
C194 O191 1.252 . S
C194 O192 1.273 . S
O195 Mg182 2.010 . S
O195 C187 1.249 . S
Mg196 O197 2.028 . S
Mg196 O203 1.986 . S
Mg196 O205 2.114 . S
Mg196 O206 2.251 . S
Mg196 O209 2.010 . S
O197 Mg196 2.028 . S
O197 C200 1.250 . S
O198 Mg199 2.028 . S
O198 C200 1.248 . S
Mg199 O198 2.028 . S
Mg199 O204 2.032 . S
Mg199 O206 2.079 . S
C200 O197 1.250 . S
C200 O198 1.248 . S
C201 O202 1.264 . S
C201 O209 1.249 . S
O202 C201 1.264 . S
O203 Mg196 1.986 . S
O203 C207 1.246 . S
O204 Mg199 2.032 . S
O204 C207 1.259 . S
O205 Mg196 2.114 . S
O205 C208 1.252 . S
O206 Mg196 2.251 . S
O206 Mg199 2.079 . S
O206 C208 1.273 . S
C207 O203 1.246 . S
C207 O204 1.259 . S
C208 O205 1.252 . S
C208 O206 1.273 . S
O209 Mg196 2.010 . S
O209 C201 1.249 . S
Mg210 O211 2.028 . S
Mg210 O217 1.986 . S
Mg210 O219 2.114 . S
Mg210 O220 2.251 . S
Mg210 O223 2.010 . S
O211 Mg210 2.028 . S
O211 C214 1.250 . S
O212 Mg213 2.028 . S
O212 C214 1.248 . S
Mg213 O212 2.028 . S
Mg213 O218 2.032 . S
Mg213 O220 2.079 . S
C214 O211 1.250 . S
C214 O212 1.248 . S
C215 O216 1.264 . S
C215 O223 1.249 . S
O216 C215 1.264 . S
O217 Mg210 1.986 . S
O217 C221 1.246 . S
O218 Mg213 2.032 . S
O218 C221 1.259 . S
O219 Mg210 2.114 . S
O219 C222 1.252 . S
O220 Mg210 2.251 . S
O220 Mg213 2.079 . S
O220 C222 1.273 . S
C221 O217 1.246 . S
C221 O218 1.259 . S
C222 O219 1.252 . S
C222 O220 1.273 . S
O223 Mg210 2.010 . S
O223 C215 1.249 . S
Mg224 O225 2.028 . S
Mg224 O231 1.986 . S
Mg224 O233 2.114 . S
Mg224 O234 2.251 . S
Mg224 O237 2.010 . S
O225 Mg224 2.028 . S
O225 C228 1.250 . S
O226 Mg227 2.028 . S
O226 C228 1.248 . S
Mg227 O226 2.028 . S
Mg227 O232 2.032 . S
Mg227 O234 2.079 . S
C228 O225 1.250 . S
C228 O226 1.248 . S
C229 O230 1.264 . S
C229 O237 1.249 . S
O230 C229 1.264 . S
O231 Mg224 1.986 . S
O231 C235 1.246 . S
O232 Mg227 2.032 . S
O232 C235 1.259 . S
O233 Mg224 2.114 . S
O233 C236 1.252 . S
O234 Mg224 2.251 . S
O234 Mg227 2.079 . S
O234 C236 1.273 . S
C235 O231 1.246 . S
C235 O232 1.259 . S
C236 O233 1.252 . S
C236 O234 1.273 . S
O237 Mg224 2.010 . S
O237 C229 1.249 . S
Mg238 O239 2.028 . S
Mg238 O245 1.986 . S
Mg238 O247 2.114 . S
Mg238 O248 2.251 . S
Mg238 O251 2.010 . S
O239 Mg238 2.028 . S
O239 C242 1.250 . S
O240 Mg241 2.028 . S
O240 C242 1.248 . S
Mg241 O240 2.028 . S
Mg241 O246 2.032 . S
Mg241 O248 2.079 . S
C242 O239 1.250 . S
C242 O240 1.248 . S
C243 O244 1.264 . S
C243 O251 1.249 . S
O244 C243 1.264 . S
O245 Mg238 1.986 . S
O245 C249 1.246 . S
O246 Mg241 2.032 . S
O246 C249 1.259 . S
O247 Mg238 2.114 . S
O247 C250 1.252 . S
O248 Mg238 2.251 . S
O248 Mg241 2.079 . S
O248 C250 1.273 . S
C249 O245 1.246 . S
C249 O246 1.259 . S
C250 O247 1.252 . S
C250 O248 1.273 . S
O251 Mg238 2.010 . S
O251 C243 1.249 . S
Mg252 O253 2.028 . S
Mg252 O259 1.986 . S
Mg252 O261 2.114 . S
Mg252 O262 2.251 . S
Mg252 O265 2.010 . S
O253 Mg252 2.028 . S
O253 C256 1.250 . S
O254 Mg255 2.028 . S
O254 C256 1.248 . S
Mg255 O254 2.028 . S
Mg255 O260 2.032 . S
Mg255 O262 2.079 . S
C256 O253 1.250 . S
C256 O254 1.248 . S
C257 O258 1.264 . S
C257 O265 1.249 . S
O258 C257 1.264 . S
O259 Mg252 1.986 . S
O259 C263 1.246 . S
O260 Mg255 2.032 . S
O260 C263 1.259 . S
O261 Mg252 2.114 . S
O261 C264 1.252 . S
O262 Mg252 2.251 . S
O262 Mg255 2.079 . S
O262 C264 1.273 . S
C263 O259 1.246 . S
C263 O260 1.259 . S
C264 O261 1.252 . S
C264 O262 1.273 . S
O265 Mg252 2.010 . S
O265 C257 1.249 . S
Mg266 O267 2.028 . S
Mg266 O273 1.986 . S
Mg266 O275 2.114 . S
Mg266 O276 2.251 . S
Mg266 O279 2.010 . S
O267 Mg266 2.028 . S
O267 C270 1.250 . S
O268 Mg269 2.028 . S
O268 C270 1.248 . S
Mg269 O268 2.028 . S
Mg269 O274 2.032 . S
Mg269 O276 2.079 . S
C270 O267 1.250 . S
C270 O268 1.248 . S
C271 O272 1.264 . S
C271 O279 1.249 . S
O272 C271 1.264 . S
O273 Mg266 1.986 . S
O273 C277 1.246 . S
O274 Mg269 2.032 . S
O274 C277 1.259 . S
O275 Mg266 2.114 . S
O275 C278 1.252 . S
O276 Mg266 2.251 . S
O276 Mg269 2.079 . S
O276 C278 1.273 . S
C277 O273 1.246 . S
C277 O274 1.259 . S
C278 O275 1.252 . S
C278 O276 1.273 . S
O279 Mg266 2.010 . S
O279 C271 1.249 . S
Mg280 O281 2.028 . S
Mg280 O287 1.986 . S
Mg280 O289 2.114 . S
Mg280 O290 2.251 . S
Mg280 O293 2.010 . S
O281 Mg280 2.028 . S
O281 C284 1.250 . S
O282 Mg283 2.028 . S
O282 C284 1.248 . S
Mg283 O282 2.028 . S
Mg283 O288 2.032 . S
Mg283 O290 2.079 . S
C284 O281 1.250 . S
C284 O282 1.248 . S
C285 O286 1.264 . S
C285 O293 1.249 . S
O286 C285 1.264 . S
O287 Mg280 1.986 . S
O287 C291 1.246 . S
O288 Mg283 2.032 . S
O288 C291 1.259 . S
O289 Mg280 2.114 . S
O289 C292 1.252 . S
O290 Mg280 2.251 . S
O290 Mg283 2.079 . S
O290 C292 1.273 . S
C291 O287 1.246 . S
C291 O288 1.259 . S
C292 O289 1.252 . S
C292 O290 1.273 . S
O293 Mg280 2.010 . S
O293 C285 1.249 . S
Mg294 O295 2.028 . S
Mg294 O301 1.986 . S
Mg294 O303 2.114 . S
Mg294 O304 2.251 . S
Mg294 O307 2.010 . S
O295 Mg294 2.028 . S
O295 C298 1.250 . S
O296 Mg297 2.028 . S
O296 C298 1.248 . S
Mg297 O296 2.028 . S
Mg297 O302 2.032 . S
Mg297 O304 2.079 . S
C298 O295 1.250 . S
C298 O296 1.248 . S
C299 O300 1.264 . S
C299 O307 1.249 . S
O300 C299 1.264 . S
O301 Mg294 1.986 . S
O301 C305 1.246 . S
O302 Mg297 2.032 . S
O302 C305 1.259 . S
O303 Mg294 2.114 . S
O303 C306 1.252 . S
O304 Mg294 2.251 . S
O304 Mg297 2.079 . S
O304 C306 1.273 . S
C305 O301 1.246 . S
C305 O302 1.259 . S
C306 O303 1.252 . S
C306 O304 1.273 . S
O307 Mg294 2.010 . S
O307 C299 1.249 . S
Mg308 O309 2.028 . S
Mg308 O315 1.986 . S
Mg308 O317 2.114 . S
Mg308 O318 2.251 . S
Mg308 O321 2.010 . S
O309 Mg308 2.028 . S
O309 C312 1.250 . S
O310 Mg311 2.028 . S
O310 C312 1.248 . S
Mg311 O310 2.028 . S
Mg311 O316 2.032 . S
Mg311 O318 2.079 . S
C312 O309 1.250 . S
C312 O310 1.248 . S
C313 O314 1.264 . S
C313 O321 1.249 . S
O314 C313 1.264 . S
O315 Mg308 1.986 . S
O315 C319 1.246 . S
O316 Mg311 2.032 . S
O316 C319 1.259 . S
O317 Mg308 2.114 . S
O317 C320 1.252 . S
O318 Mg308 2.251 . S
O318 Mg311 2.079 . S
O318 C320 1.273 . S
C319 O315 1.246 . S
C319 O316 1.259 . S
C320 O317 1.252 . S
C320 O318 1.273 . S
O321 Mg308 2.010 . S
O321 C313 1.249 . S
Mg322 O323 2.028 . S
Mg322 O329 1.986 . S
Mg322 O331 2.114 . S
Mg322 O332 2.251 . S
Mg322 O335 2.010 . S
O323 Mg322 2.028 . S
O323 C326 1.250 . S
O324 Mg325 2.028 . S
O324 C326 1.248 . S
Mg325 O324 2.028 . S
Mg325 O330 2.032 . S
Mg325 O332 2.079 . S
C326 O323 1.250 . S
C326 O324 1.248 . S
C327 O328 1.264 . S
C327 O335 1.249 . S
O328 C327 1.264 . S
O329 Mg322 1.986 . S
O329 C333 1.246 . S
O330 Mg325 2.032 . S
O330 C333 1.259 . S
O331 Mg322 2.114 . S
O331 C334 1.252 . S
O332 Mg322 2.251 . S
O332 Mg325 2.079 . S
O332 C334 1.273 . S
C333 O329 1.246 . S
C333 O330 1.259 . S
C334 O331 1.252 . S
C334 O332 1.273 . S
O335 Mg322 2.010 . S
O335 C327 1.249 . S
Mg336 O337 2.028 . S
Mg336 O343 1.986 . S
Mg336 O345 2.114 . S
Mg336 O346 2.251 . S
Mg336 O349 2.010 . S
O337 Mg336 2.028 . S
O337 C340 1.250 . S
O338 Mg339 2.028 . S
O338 C340 1.248 . S
Mg339 O338 2.028 . S
Mg339 O344 2.032 . S
Mg339 O346 2.079 . S
C340 O337 1.250 . S
C340 O338 1.248 . S
C341 O342 1.264 . S
C341 O349 1.249 . S
O342 C341 1.264 . S
O343 Mg336 1.986 . S
O343 C347 1.246 . S
O344 Mg339 2.032 . S
O344 C347 1.259 . S
O345 Mg336 2.114 . S
O345 C348 1.252 . S
O346 Mg336 2.251 . S
O346 Mg339 2.079 . S
O346 C348 1.273 . S
C347 O343 1.246 . S
C347 O344 1.259 . S
C348 O345 1.252 . S
C348 O346 1.273 . S
O349 Mg336 2.010 . S
O349 C341 1.249 . S
Mg350 O351 2.028 . S
Mg350 O357 1.986 . S
Mg350 O359 2.114 . S
Mg350 O360 2.251 . S
Mg350 O363 2.010 . S
O351 Mg350 2.028 . S
O351 C354 1.250 . S
O352 Mg353 2.028 . S
O352 C354 1.248 . S
Mg353 O352 2.028 . S
Mg353 O358 2.032 . S
Mg353 O360 2.079 . S
C354 O351 1.250 . S
C354 O352 1.248 . S
C355 O356 1.264 . S
C355 O363 1.249 . S
O356 C355 1.264 . S
O357 Mg350 1.986 . S
O357 C361 1.246 . S
O358 Mg353 2.032 . S
O358 C361 1.259 . S
O359 Mg350 2.114 . S
O359 C362 1.252 . S
O360 Mg350 2.251 . S
O360 Mg353 2.079 . S
O360 C362 1.273 . S
C361 O357 1.246 . S
C361 O358 1.259 . S
C362 O359 1.252 . S
C362 O360 1.273 . S
O363 Mg350 2.010 . S
O363 C355 1.249 . S
Mg364 O365 2.028 . S
Mg364 O371 1.986 . S
Mg364 O373 2.114 . S
Mg364 O374 2.251 . S
Mg364 O377 2.010 . S
O365 Mg364 2.028 . S
O365 C368 1.250 . S
O366 Mg367 2.028 . S
O366 C368 1.248 . S
Mg367 O366 2.028 . S
Mg367 O372 2.032 . S
Mg367 O374 2.079 . S
C368 O365 1.250 . S
C368 O366 1.248 . S
C369 O370 1.264 . S
C369 O377 1.249 . S
O370 C369 1.264 . S
O371 Mg364 1.986 . S
O371 C375 1.246 . S
O372 Mg367 2.032 . S
O372 C375 1.259 . S
O373 Mg364 2.114 . S
O373 C376 1.252 . S
O374 Mg364 2.251 . S
O374 Mg367 2.079 . S
O374 C376 1.273 . S
C375 O371 1.246 . S
C375 O372 1.259 . S
C376 O373 1.252 . S
C376 O374 1.273 . S
O377 Mg364 2.010 . S
O377 C369 1.249 . S
Mg378 O379 2.028 . S
Mg378 O385 1.986 . S
Mg378 O387 2.114 . S
Mg378 O388 2.251 . S
Mg378 O391 2.010 . S
O379 Mg378 2.028 . S
O379 C382 1.250 . S
O380 Mg381 2.028 . S
O380 C382 1.248 . S
Mg381 O380 2.028 . S
Mg381 O386 2.032 . S
Mg381 O388 2.079 . S
C382 O379 1.250 . S
C382 O380 1.248 . S
C383 O384 1.264 . S
C383 O391 1.249 . S
O384 C383 1.264 . S
O385 Mg378 1.986 . S
O385 C389 1.246 . S
O386 Mg381 2.032 . S
O386 C389 1.259 . S
O387 Mg378 2.114 . S
O387 C390 1.252 . S
O388 Mg378 2.251 . S
O388 Mg381 2.079 . S
O388 C390 1.273 . S
C389 O385 1.246 . S
C389 O386 1.259 . S
C390 O387 1.252 . S
C390 O388 1.273 . S
O391 Mg378 2.010 . S
O391 C383 1.249 . S
Mg392 O393 2.028 . S
Mg392 O399 1.986 . S
Mg392 O401 2.114 . S
Mg392 O402 2.251 . S
Mg392 O405 2.010 . S
O393 Mg392 2.028 . S
O393 C396 1.250 . S
O394 Mg395 2.028 . S
O394 C396 1.248 . S
Mg395 O394 2.028 . S
Mg395 O400 2.032 . S
Mg395 O402 2.079 . S
C396 O393 1.250 . S
C396 O394 1.248 . S
C397 O398 1.264 . S
C397 O405 1.249 . S
O398 C397 1.264 . S
O399 Mg392 1.986 . S
O399 C403 1.246 . S
O400 Mg395 2.032 . S
O400 C403 1.259 . S
O401 Mg392 2.114 . S
O401 C404 1.252 . S
O402 Mg392 2.251 . S
O402 Mg395 2.079 . S
O402 C404 1.273 . S
C403 O399 1.246 . S
C403 O400 1.259 . S
C404 O401 1.252 . S
C404 O402 1.273 . S
O405 Mg392 2.010 . S
O405 C397 1.249 . S
Mg406 O407 2.028 . S
Mg406 O413 1.986 . S
Mg406 O415 2.114 . S
Mg406 O416 2.251 . S
Mg406 O419 2.010 . S
O407 Mg406 2.028 . S
O407 C410 1.250 . S
O408 Mg409 2.028 . S
O408 C410 1.248 . S
Mg409 O408 2.028 . S
Mg409 O414 2.032 . S
Mg409 O416 2.079 . S
C410 O407 1.250 . S
C410 O408 1.248 . S
C411 O412 1.264 . S
C411 O419 1.249 . S
O412 C411 1.264 . S
O413 Mg406 1.986 . S
O413 C417 1.246 . S
O414 Mg409 2.032 . S
O414 C417 1.259 . S
O415 Mg406 2.114 . S
O415 C418 1.252 . S
O416 Mg406 2.251 . S
O416 Mg409 2.079 . S
O416 C418 1.273 . S
C417 O413 1.246 . S
C417 O414 1.259 . S
C418 O415 1.252 . S
C418 O416 1.273 . S
O419 Mg406 2.010 . S
O419 C411 1.249 . S
Mg420 O421 2.028 . S
Mg420 O427 1.986 . S
Mg420 O429 2.114 . S
Mg420 O430 2.251 . S
Mg420 O433 2.010 . S
O421 Mg420 2.028 . S
O421 C424 1.250 . S
O422 Mg423 2.028 . S
O422 C424 1.248 . S
Mg423 O422 2.028 . S
Mg423 O428 2.032 . S
Mg423 O430 2.079 . S
C424 O421 1.250 . S
C424 O422 1.248 . S
C425 O426 1.264 . S
C425 O433 1.249 . S
O426 C425 1.264 . S
O427 Mg420 1.986 . S
O427 C431 1.246 . S
O428 Mg423 2.032 . S
O428 C431 1.259 . S
O429 Mg420 2.114 . S
O429 C432 1.252 . S
O430 Mg420 2.251 . S
O430 Mg423 2.079 . S
O430 C432 1.273 . S
C431 O427 1.246 . S
C431 O428 1.259 . S
C432 O429 1.252 . S
C432 O430 1.273 . S
O433 Mg420 2.010 . S
O433 C425 1.249 . S
Mg434 O435 2.028 . S
Mg434 O441 1.986 . S
Mg434 O443 2.114 . S
Mg434 O444 2.251 . S
Mg434 O447 2.010 . S
O435 Mg434 2.028 . S
O435 C438 1.250 . S
O436 Mg437 2.028 . S
O436 C438 1.248 . S
Mg437 O436 2.028 . S
Mg437 O442 2.032 . S
Mg437 O444 2.079 . S
C438 O435 1.250 . S
C438 O436 1.248 . S
C439 O440 1.264 . S
C439 O447 1.249 . S
O440 C439 1.264 . S
O441 Mg434 1.986 . S
O441 C445 1.246 . S
O442 Mg437 2.032 . S
O442 C445 1.259 . S
O443 Mg434 2.114 . S
O443 C446 1.252 . S
O444 Mg434 2.251 . S
O444 Mg437 2.079 . S
O444 C446 1.273 . S
C445 O441 1.246 . S
C445 O442 1.259 . S
C446 O443 1.252 . S
C446 O444 1.273 . S
O447 Mg434 2.010 . S
O447 C439 1.249 . S
Mg448 O449 2.028 . S
Mg448 O455 1.986 . S
Mg448 O457 2.114 . S
Mg448 O458 2.251 . S
Mg448 O461 2.010 . S
O449 Mg448 2.028 . S
O449 C452 1.250 . S
O450 Mg451 2.028 . S
O450 C452 1.248 . S
Mg451 O450 2.028 . S
Mg451 O456 2.032 . S
Mg451 O458 2.079 . S
C452 O449 1.250 . S
C452 O450 1.248 . S
C453 O454 1.264 . S
C453 O461 1.249 . S
O454 C453 1.264 . S
O455 Mg448 1.986 . S
O455 C459 1.246 . S
O456 Mg451 2.032 . S
O456 C459 1.259 . S
O457 Mg448 2.114 . S
O457 C460 1.252 . S
O458 Mg448 2.251 . S
O458 Mg451 2.079 . S
O458 C460 1.273 . S
C459 O455 1.246 . S
C459 O456 1.259 . S
C460 O457 1.252 . S
C460 O458 1.273 . S
O461 Mg448 2.010 . S
O461 C453 1.249 . S
Mg462 O463 2.028 . S
Mg462 O469 1.986 . S
Mg462 O471 2.114 . S
Mg462 O472 2.251 . S
Mg462 O475 2.010 . S
O463 Mg462 2.028 . S
O463 C466 1.250 . S
O464 Mg465 2.028 . S
O464 C466 1.248 . S
Mg465 O464 2.028 . S
Mg465 O470 2.032 . S
Mg465 O472 2.079 . S
C466 O463 1.250 . S
C466 O464 1.248 . S
C467 O468 1.264 . S
C467 O475 1.249 . S
O468 C467 1.264 . S
O469 Mg462 1.986 . S
O469 C473 1.246 . S
O470 Mg465 2.032 . S
O470 C473 1.259 . S
O471 Mg462 2.114 . S
O471 C474 1.252 . S
O472 Mg462 2.251 . S
O472 Mg465 2.079 . S
O472 C474 1.273 . S
C473 O469 1.246 . S
C473 O470 1.259 . S
C474 O471 1.252 . S
C474 O472 1.273 . S
O475 Mg462 2.010 . S
O475 C467 1.249 . S
Mg476 O477 2.028 . S
Mg476 O483 1.986 . S
Mg476 O485 2.114 . S
Mg476 O486 2.251 . S
Mg476 O489 2.010 . S
O477 Mg476 2.028 . S
O477 C480 1.250 . S
O478 Mg479 2.028 . S
O478 C480 1.248 . S
Mg479 O478 2.028 . S
Mg479 O484 2.032 . S
Mg479 O486 2.079 . S
C480 O477 1.250 . S
C480 O478 1.248 . S
C481 O482 1.264 . S
C481 O489 1.249 . S
O482 C481 1.264 . S
O483 Mg476 1.986 . S
O483 C487 1.246 . S
O484 Mg479 2.032 . S
O484 C487 1.259 . S
O485 Mg476 2.114 . S
O485 C488 1.252 . S
O486 Mg476 2.251 . S
O486 Mg479 2.079 . S
O486 C488 1.273 . S
C487 O483 1.246 . S
C487 O484 1.259 . S
C488 O485 1.252 . S
C488 O486 1.273 . S
O489 Mg476 2.010 . S
O489 C481 1.249 . S
Mg490 O491 2.028 . S
Mg490 O497 1.986 . S
Mg490 O499 2.114 . S
Mg490 O500 2.251 . S
Mg490 O503 2.010 . S
O491 Mg490 2.028 . S
O491 C494 1.250 . S
O492 Mg493 2.028 . S
O492 C494 1.248 . S
Mg493 O492 2.028 . S
Mg493 O498 2.032 . S
Mg493 O500 2.079 . S
C494 O491 1.250 . S
C494 O492 1.248 . S
C495 O496 1.264 . S
C495 O503 1.249 . S
O496 C495 1.264 . S
O497 Mg490 1.986 . S
O497 C501 1.246 . S
O498 Mg493 2.032 . S
O498 C501 1.259 . S
O499 Mg490 2.114 . S
O499 C502 1.252 . S
O500 Mg490 2.251 . S
O500 Mg493 2.079 . S
O500 C502 1.273 . S
C501 O497 1.246 . S
C501 O498 1.259 . S
C502 O499 1.252 . S
C502 O500 1.273 . S
O503 Mg490 2.010 . S
O503 C495 1.249 . S
H504 C512 0.929 . S
H505 C514 0.930 . S
H506 C516 0.930 . S
H507 C519 0.929 . S
H508 C522 0.930 . S
H509 C524 0.960 . S
H510 C524 0.960 . S
H511 C524 0.960 . S
C512 H504 0.929 . S
C512 C513 1.377 . S
C512 C514 1.384 . S
C513 C512 1.377 . S
C513 C519 1.390 . S
C514 H505 0.930 . S
C514 C512 1.384 . S
C514 C515 1.372 . S
C515 C514 1.372 . S
C515 C516 1.400 . S
C515 C520 1.490 . S
C516 H506 0.930 . S
C516 C515 1.400 . S
C516 C519 1.386 . S
H517 C533 0.930 . S
H518 C534 0.931 . S
C519 H507 0.929 . S
C519 C513 1.390 . S
C519 C516 1.386 . S
C520 C515 1.490 . S
C520 C522 1.395 . S
C520 C523 1.403 . S
H521 C527 0.930 . S
C522 H508 0.930 . S
C522 C520 1.395 . S
C522 C525 1.402 1_455 S
C523 C520 1.403 . S
C523 C524 1.524 . S
C523 C527 1.400 1_455 S
C524 H509 0.960 . S
C524 H510 0.960 . S
C524 H511 0.960 . S
C524 C523 1.524 . S
C525 C522 1.402 1_655 S
C525 C526 1.393 . S
C525 C529 1.495 . S
C526 C525 1.393 . S
C526 C527 1.385 . S
C526 C528 1.478 . S
C527 H521 0.930 . S
C527 C523 1.400 1_655 S
C527 C526 1.385 . S
C528 C526 1.478 . S
C528 C530 1.381 . S
C528 C534 1.383 . S
C529 C525 1.495 . S
C529 H535 0.959 1_655 S
C529 H536 0.961 . S
C529 H537 0.960 . S
C530 C528 1.381 . S
C530 C531 1.394 . S
C530 H538 0.930 . S
C531 C530 1.394 . S
C531 C532 1.383 . S
C531 H539 0.929 . S
C532 C531 1.383 . S
C532 C533 1.377 . S
C533 H517 0.930 . S
C533 C532 1.377 . S
C533 C534 1.379 . S
C534 H518 0.931 . S
C534 C528 1.383 . S
C534 C533 1.379 . S
H535 C529 0.959 1_455 S
H536 C529 0.961 . S
H537 C529 0.960 . S
H538 C530 0.930 . S
H539 C531 0.929 . S
H540 C548 0.929 . S
H541 C550 0.930 . S
H542 C552 0.930 . S
H543 C555 0.929 . S
H544 C558 0.930 . S
H545 C560 0.960 . S
H546 C560 0.960 . S
H547 C560 0.960 . S
C548 H540 0.929 . S
C548 C549 1.377 . S
C548 C550 1.384 . S
C549 C548 1.377 . S
C549 C555 1.390 . S
C550 H541 0.930 . S
C550 C548 1.384 . S
C550 C551 1.372 . S
C551 C550 1.372 . S
C551 C552 1.400 . S
C551 C556 1.490 . S
C552 H542 0.930 . S
C552 C551 1.400 . S
C552 C555 1.386 . S
H553 C569 0.930 . S
H554 C570 0.931 . S
C555 H543 0.929 . S
C555 C549 1.390 . S
C555 C552 1.386 . S
C556 C551 1.490 . S
C556 C558 1.395 . S
C556 C559 1.403 . S
H557 C563 0.930 . S
C558 H544 0.930 . S
C558 C556 1.395 . S
C558 C561 1.403 . S
C559 C556 1.403 . S
C559 C560 1.524 . S
C559 C563 1.400 . S
C560 H545 0.960 . S
C560 H546 0.960 . S
C560 H547 0.960 . S
C560 C559 1.524 . S
C561 C558 1.403 . S
C561 C562 1.392 . S
C561 C565 1.495 . S
C562 C561 1.392 . S
C562 C563 1.385 . S
C562 C564 1.478 . S
C563 H557 0.930 . S
C563 C559 1.400 . S
C563 C562 1.385 . S
C564 C562 1.478 . S
C564 C566 1.381 . S
C564 C570 1.383 . S
C565 C561 1.495 . S
C565 H571 0.959 . S
C565 H572 0.961 . S
C565 H573 0.960 . S
C566 C564 1.381 . S
C566 C567 1.394 . S
C566 H574 0.930 . S
C567 C566 1.394 . S
C567 C568 1.383 . S
C567 H575 0.929 . S
C568 C567 1.383 . S
C568 C569 1.377 . S
C569 H553 0.930 . S
C569 C568 1.377 . S
C569 C570 1.379 . S
C570 H554 0.931 . S
C570 C564 1.383 . S
C570 C569 1.379 . S
H571 C565 0.959 . S
H572 C565 0.961 . S
H573 C565 0.960 . S
H574 C566 0.930 . S
H575 C567 0.929 . S
H576 C584 0.929 . S
H577 C586 0.930 . S
H578 C588 0.930 . S
H579 C591 0.929 . S
H580 C594 0.952 . S
H581 C596 0.960 . S
H582 C596 0.960 . S
H583 C596 0.960 . S
C584 H576 0.929 . S
C584 C585 1.377 . S
C584 C586 1.384 . S
C585 C584 1.377 . S
C585 C591 1.390 . S
C586 H577 0.930 . S
C586 C584 1.384 . S
C586 C587 1.372 . S
C587 C586 1.372 . S
C587 C588 1.400 . S
C587 C592 1.490 . S
C588 H578 0.930 . S
C588 C587 1.400 . S
C588 C591 1.386 . S
H589 C605 0.930 . S
H590 C606 0.931 . S
C591 H579 0.929 . S
C591 C585 1.390 . S
C591 C588 1.386 . S
C592 C587 1.490 . S
C592 C594 1.415 . S
C592 C595 1.403 . S
H593 C599 0.930 . S
C594 H580 0.952 . S
C594 C592 1.415 . S
C594 C597 1.363 1_545 S
C595 C592 1.403 . S
C595 C596 1.524 . S
C595 C599 1.400 1_545 S
C596 H581 0.960 . S
C596 H582 0.960 . S
C596 H583 0.960 . S
C596 C595 1.524 . S
C597 C594 1.363 1_565 S
C597 C598 1.392 . S
C597 C601 1.495 . S
C598 C597 1.392 . S
C598 C599 1.385 . S
C598 C600 1.478 . S
C599 H593 0.930 . S
C599 C595 1.400 1_565 S
C599 C598 1.385 . S
C600 C598 1.478 . S
C600 C602 1.381 . S
C600 C606 1.383 . S
C601 C597 1.495 . S
C601 H607 0.959 . S
C601 H608 0.961 . S
C601 H609 0.960 . S
C602 C600 1.381 . S
C602 C603 1.394 . S
C602 H610 0.930 . S
C603 C602 1.394 . S
C603 C604 1.383 . S
C603 H611 0.929 . S
C604 C603 1.383 . S
C604 C605 1.377 . S
C605 H589 0.930 . S
C605 C604 1.377 . S
C605 C606 1.379 . S
C606 H590 0.931 . S
C606 C600 1.383 . S
C606 C605 1.379 . S
H607 C601 0.959 . S
H608 C601 0.961 . S
H609 C601 0.960 . S
H610 C602 0.930 . S
H611 C603 0.929 . S
H612 C620 0.929 . S
H613 C622 0.930 . S
H614 C624 0.930 . S
H615 C627 0.929 . S
H616 C630 0.930 . S
H617 C632 0.960 . S
H618 C632 0.960 . S
H619 C632 0.960 . S
C620 H612 0.929 . S
C620 C621 1.377 . S
C620 C622 1.384 . S
C621 C620 1.377 . S
C621 C627 1.390 . S
C622 H613 0.930 . S
C622 C620 1.384 . S
C622 C623 1.372 . S
C623 C622 1.372 . S
C623 C624 1.400 . S
C623 C628 1.490 . S
C624 H614 0.930 . S
C624 C623 1.400 . S
C624 C627 1.386 . S
H625 C641 0.930 . S
H626 C642 0.931 . S
C627 H615 0.929 . S
C627 C621 1.390 . S
C627 C624 1.386 . S
C628 C623 1.490 . S
C628 C630 1.395 . S
C628 C631 1.403 . S
H629 C635 0.930 . S
C630 H616 0.930 . S
C630 C628 1.395 . S
C630 C633 1.403 . S
C631 C628 1.403 . S
C631 C632 1.524 . S
C631 C635 1.400 1_545 S
C632 H617 0.960 . S
C632 H618 0.960 . S
C632 H619 0.960 . S
C632 C631 1.524 . S
C633 C630 1.403 . S
C633 C634 1.392 1_545 S
C633 C637 1.495 1_545 S
C634 C633 1.392 1_565 S
C634 C635 1.385 . S
C634 C636 1.478 . S
C635 H629 0.930 . S
C635 C631 1.400 1_565 S
C635 C634 1.385 . S
C636 C634 1.478 . S
C636 C638 1.381 . S
C636 C642 1.383 . S
C637 C633 1.495 1_565 S
C637 H643 0.959 1_565 S
C637 H644 0.961 . S
C637 H645 0.960 . S
C638 C636 1.381 . S
C638 C639 1.394 . S
C638 H646 0.930 . S
C639 C638 1.394 . S
C639 C640 1.383 . S
C639 H647 0.929 . S
C640 C639 1.383 . S
C640 C641 1.377 . S
C641 H625 0.930 . S
C641 C640 1.377 . S
C641 C642 1.379 . S
C642 H626 0.931 . S
C642 C636 1.383 . S
C642 C641 1.379 . S
H643 C637 0.959 1_545 S
H644 C637 0.961 . S
H645 C637 0.960 . S
H646 C638 0.930 . S
H647 C639 0.929 . S
H648 C656 0.929 . S
H649 C658 0.930 . S
H650 C660 0.930 . S
H651 C663 0.929 . S
H652 C666 0.930 . S
H653 C668 0.960 . S
H654 C668 0.960 . S
H655 C668 0.960 . S
C656 H648 0.929 . S
C656 C657 1.377 . S
C656 C658 1.384 . S
C657 C656 1.377 . S
C657 C663 1.390 . S
C658 H649 0.930 . S
C658 C656 1.384 . S
C658 C659 1.372 . S
C659 C658 1.372 . S
C659 C660 1.400 . S
C659 C664 1.490 . S
C660 H650 0.930 . S
C660 C659 1.400 . S
C660 C663 1.386 . S
H661 C677 0.930 . S
H662 C678 0.931 . S
C663 H651 0.929 . S
C663 C657 1.390 . S
C663 C660 1.386 . S
C664 C659 1.490 . S
C664 C666 1.395 . S
C664 C667 1.403 . S
H665 C671 0.930 . S
C666 H652 0.930 . S
C666 C664 1.395 . S
C666 C669 1.393 1_655 S
C667 C664 1.403 . S
C667 C668 1.524 . S
C667 C671 1.400 1_655 S
C668 H653 0.960 . S
C668 H654 0.960 . S
C668 H655 0.960 . S
C668 C667 1.524 . S
C669 C666 1.393 1_455 S
C669 C670 1.402 . S
C669 C673 1.496 . S
C670 C669 1.402 . S
C670 C671 1.385 . S
C670 C672 1.478 . S
C671 H665 0.930 . S
C671 C667 1.400 1_455 S
C671 C670 1.385 . S
C672 C670 1.478 . S
C672 C674 1.381 . S
C672 C678 1.383 . S
C673 C669 1.496 . S
C673 H679 0.959 1_455 S
C673 H680 0.961 . S
C673 H681 0.960 . S
C674 C672 1.381 . S
C674 C675 1.394 . S
C674 H682 0.930 . S
C675 C674 1.394 . S
C675 C676 1.383 . S
C675 H683 0.929 . S
C676 C675 1.383 . S
C676 C677 1.377 . S
C677 H661 0.930 . S
C677 C676 1.377 . S
C677 C678 1.379 . S
C678 H662 0.931 . S
C678 C672 1.383 . S
C678 C677 1.379 . S
H679 C673 0.959 1_655 S
H680 C673 0.961 . S
H681 C673 0.960 . S
H682 C674 0.930 . S
H683 C675 0.929 . S
H684 C692 0.929 . S
H685 C694 0.930 . S
H686 C696 0.930 . S
H687 C699 0.929 . S
H688 C702 0.930 . S
H689 C704 0.960 . S
H690 C704 0.960 . S
H691 C704 0.960 . S
C692 H684 0.929 . S
C692 C693 1.377 . S
C692 C694 1.384 . S
C693 C692 1.377 . S
C693 C699 1.390 . S
C694 H685 0.930 . S
C694 C692 1.384 . S
C694 C695 1.372 . S
C695 C694 1.372 . S
C695 C696 1.400 . S
C695 C700 1.490 . S
C696 H686 0.930 . S
C696 C695 1.400 . S
C696 C699 1.386 . S
H697 C713 0.930 . S
H698 C714 0.931 . S
C699 H687 0.929 . S
C699 C693 1.390 . S
C699 C696 1.386 . S
C700 C695 1.490 . S
C700 C702 1.395 . S
C700 C703 1.403 . S
H701 C707 0.930 . S
C702 H688 0.930 . S
C702 C700 1.395 . S
C702 C705 1.403 . S
C703 C700 1.403 . S
C703 C704 1.524 . S
C703 C707 1.400 . S
C704 H689 0.960 . S
C704 H690 0.960 . S
C704 H691 0.960 . S
C704 C703 1.524 . S
C705 C702 1.403 . S
C705 C706 1.392 . S
C705 C709 1.495 . S
C706 C705 1.392 . S
C706 C707 1.385 . S
C706 C708 1.478 . S
C707 H701 0.930 . S
C707 C703 1.400 . S
C707 C706 1.385 . S
C708 C706 1.478 . S
C708 C710 1.381 . S
C708 C714 1.383 . S
C709 C705 1.495 . S
C709 H715 0.959 . S
C709 H716 0.961 . S
C709 H717 0.960 . S
C710 C708 1.381 . S
C710 C711 1.394 . S
C710 H718 0.930 . S
C711 C710 1.394 . S
C711 C712 1.383 . S
C711 H719 0.929 . S
C712 C711 1.383 . S
C712 C713 1.377 . S
C713 H697 0.930 . S
C713 C712 1.377 . S
C713 C714 1.379 . S
C714 H698 0.931 . S
C714 C708 1.383 . S
C714 C713 1.379 . S
H715 C709 0.959 . S
H716 C709 0.961 . S
H717 C709 0.960 . S
H718 C710 0.930 . S
H719 C711 0.929 . S
H720 C728 0.929 . S
H721 C730 0.930 . S
H722 C732 0.930 . S
H723 C735 0.929 . S
H724 C738 0.930 . S
H725 C740 0.960 . S
H726 C740 0.960 . S
H727 C740 0.960 . S
C728 H720 0.929 . S
C728 C729 1.377 . S
C728 C730 1.384 . S
C729 C728 1.377 . S
C729 C735 1.390 . S
C730 H721 0.930 . S
C730 C728 1.384 . S
C730 C731 1.372 . S
C731 C730 1.372 . S
C731 C732 1.400 . S
C731 C736 1.490 . S
C732 H722 0.930 . S
C732 C731 1.400 . S
C732 C735 1.386 . S
H733 C749 0.930 . S
H734 C750 0.931 . S
C735 H723 0.929 . S
C735 C729 1.390 . S
C735 C732 1.386 . S
C736 C731 1.490 . S
C736 C738 1.395 . S
C736 C739 1.403 . S
H737 C743 0.930 . S
C738 H724 0.930 . S
C738 C736 1.395 . S
C738 C741 1.403 1_655 S
C739 C736 1.403 . S
C739 C740 1.524 . S
C739 C743 1.400 1_655 S
C740 H725 0.960 . S
C740 H726 0.960 . S
C740 H727 0.960 . S
C740 C739 1.524 . S
C741 C738 1.403 1_455 S
C741 C742 1.392 . S
C741 C745 1.495 . S
C742 C741 1.392 . S
C742 C743 1.385 . S
C742 C744 1.478 . S
C743 H737 0.930 . S
C743 C739 1.400 1_455 S
C743 C742 1.385 . S
C744 C742 1.478 . S
C744 C746 1.381 . S
C744 C750 1.383 . S
C745 C741 1.495 . S
C745 H751 0.959 . S
C745 H752 0.961 . S
C745 H753 0.960 . S
C746 C744 1.381 . S
C746 C747 1.394 . S
C746 H754 0.930 . S
C747 C746 1.394 . S
C747 C748 1.383 . S
C747 H755 0.929 . S
C748 C747 1.383 . S
C748 C749 1.377 . S
C749 H733 0.930 . S
C749 C748 1.377 . S
C749 C750 1.379 . S
C750 H734 0.931 . S
C750 C744 1.383 . S
C750 C749 1.379 . S
H751 C745 0.959 . S
H752 C745 0.961 . S
H753 C745 0.960 . S
H754 C746 0.930 . S
H755 C747 0.929 . S
H756 C764 0.929 . S
H757 C766 0.930 . S
H758 C768 0.930 . S
H759 C771 0.929 . S
H760 C774 0.930 . S
H761 C776 0.960 . S
H762 C776 0.960 . S
H763 C776 0.960 . S
C764 H756 0.929 . S
C764 C765 1.377 . S
C764 C766 1.384 . S
C765 C764 1.377 . S
C765 C771 1.390 . S
C766 H757 0.930 . S
C766 C764 1.384 . S
C766 C767 1.372 . S
C767 C766 1.372 . S
C767 C768 1.400 . S
C767 C772 1.490 . S
C768 H758 0.930 . S
C768 C767 1.400 . S
C768 C771 1.386 . S
H769 C785 0.930 . S
H770 C786 0.931 . S
C771 H759 0.929 . S
C771 C765 1.390 . S
C771 C768 1.386 . S
C772 C767 1.490 . S
C772 C774 1.395 . S
C772 C775 1.403 . S
H773 C779 0.930 . S
C774 H760 0.930 . S
C774 C772 1.395 . S
C774 C777 1.403 . S
C775 C772 1.403 . S
C775 C776 1.524 . S
C775 C779 1.400 . S
C776 H761 0.960 . S
C776 H762 0.960 . S
C776 H763 0.960 . S
C776 C775 1.524 . S
C777 C774 1.403 . S
C777 C778 1.392 . S
C777 C781 1.495 . S
C778 C777 1.392 . S
C778 C779 1.385 . S
C778 C780 1.478 . S
C779 H773 0.930 . S
C779 C775 1.400 . S
C779 C778 1.385 . S
C780 C778 1.478 . S
C780 C782 1.381 . S
C780 C786 1.383 . S
C781 C777 1.495 . S
C781 H787 0.959 . S
C781 H788 0.961 . S
C781 H789 0.960 . S
C782 C780 1.381 . S
C782 C783 1.394 . S
C782 H790 0.930 . S
C783 C782 1.394 . S
C783 C784 1.383 . S
C783 H791 0.929 . S
C784 C783 1.383 . S
C784 C785 1.377 . S
C785 H769 0.930 . S
C785 C784 1.377 . S
C785 C786 1.379 . S
C786 H770 0.931 . S
C786 C780 1.383 . S
C786 C785 1.379 . S
H787 C781 0.959 . S
H788 C781 0.961 . S
H789 C781 0.960 . S
H790 C782 0.930 . S
H791 C783 0.929 . S
H792 C800 0.929 . S
H793 C802 0.930 . S
H794 C804 0.930 . S
H795 C807 0.929 . S
H796 C810 0.949 . S
H797 C812 0.960 . S
H798 C812 0.960 . S
H799 C812 0.960 . S
C800 H792 0.929 . S
C800 C801 1.377 . S
C800 C802 1.384 . S
C801 C800 1.377 . S
C801 C807 1.390 . S
C802 H793 0.930 . S
C802 C800 1.384 . S
C802 C803 1.372 . S
C803 C802 1.372 . S
C803 C804 1.400 . S
C803 C808 1.490 . S
C804 H794 0.930 . S
C804 C803 1.400 . S
C804 C807 1.386 . S
H805 C821 0.930 . S
H806 C822 0.931 . S
C807 H795 0.929 . S
C807 C801 1.390 . S
C807 C804 1.386 . S
C808 C803 1.490 . S
C808 C810 1.402 . S
C808 C811 1.403 . S
H809 C815 0.930 . S
C810 H796 0.949 . S
C810 C808 1.402 . S
C810 C813 1.379 1_565 S
C811 C808 1.403 . S
C811 C812 1.524 . S
C811 C815 1.400 1_565 S
C812 H797 0.960 . S
C812 H798 0.960 . S
C812 H799 0.960 . S
C812 C811 1.524 . S
C813 C810 1.379 1_545 S
C813 C814 1.392 . S
C813 C817 1.495 . S
C814 C813 1.392 . S
C814 C815 1.385 . S
C814 C816 1.478 . S
C815 H809 0.930 . S
C815 C811 1.400 1_545 S
C815 C814 1.385 . S
C816 C814 1.478 . S
C816 C818 1.381 . S
C816 C822 1.383 . S
C817 C813 1.495 . S
C817 H823 0.959 . S
C817 H824 0.961 . S
C817 H825 0.960 . S
C818 C816 1.381 . S
C818 C819 1.394 . S
C818 H826 0.930 . S
C819 C818 1.394 . S
C819 C820 1.383 . S
C819 H827 0.929 . S
C820 C819 1.383 . S
C820 C821 1.377 . S
C821 H805 0.930 . S
C821 C820 1.377 . S
C821 C822 1.379 . S
C822 H806 0.931 . S
C822 C816 1.383 . S
C822 C821 1.379 . S
H823 C817 0.959 . S
H824 C817 0.961 . S
H825 C817 0.960 . S
H826 C818 0.930 . S
H827 C819 0.929 . S
H828 C836 0.929 . S
H829 C838 0.930 . S
H830 C840 0.930 . S
H831 C843 0.929 . S
H832 C846 0.930 . S
H833 C848 0.960 1_565 S
H834 C848 0.960 . S
H835 C848 0.960 . S
C836 H828 0.929 . S
C836 C837 1.377 . S
C836 C838 1.384 . S
C837 C836 1.377 . S
C837 C843 1.390 . S
C838 H829 0.930 . S
C838 C836 1.384 . S
C838 C839 1.372 . S
C839 C838 1.372 . S
C839 C840 1.400 . S
C839 C844 1.490 . S
C840 H830 0.930 . S
C840 C839 1.400 . S
C840 C843 1.386 . S
H841 C857 0.930 . S
H842 C858 0.931 . S
C843 H831 0.929 . S
C843 C837 1.390 . S
C843 C840 1.386 . S
C844 C839 1.490 . S
C844 C846 1.395 . S
C844 C847 1.403 1_545 S
H845 C851 0.930 . S
C846 H832 0.930 . S
C846 C844 1.395 . S
C846 C849 1.403 1_545 S
C847 C844 1.403 1_565 S
C847 C848 1.524 1_565 S
C847 C851 1.400 . S
C848 H833 0.960 1_545 S
C848 H834 0.960 . S
C848 H835 0.960 . S
C848 C847 1.524 1_545 S
C849 C846 1.403 1_565 S
C849 C850 1.392 . S
C849 C853 1.495 . S
C850 C849 1.392 . S
C850 C851 1.385 . S
C850 C852 1.478 . S
C851 H845 0.930 . S
C851 C847 1.400 . S
C851 C850 1.385 . S
C852 C850 1.478 . S
C852 C854 1.381 . S
C852 C858 1.383 . S
C853 C849 1.495 . S
C853 H859 0.959 . S
C853 H860 0.961 . S
C853 H861 0.960 . S
C854 C852 1.381 . S
C854 C855 1.394 . S
C854 H862 0.930 . S
C855 C854 1.394 . S
C855 C856 1.383 . S
C855 H863 0.929 . S
C856 C855 1.383 . S
C856 C857 1.377 . S
C857 H841 0.930 . S
C857 C856 1.377 . S
C857 C858 1.379 . S
C858 H842 0.931 . S
C858 C852 1.383 . S
C858 C857 1.379 . S
H859 C853 0.959 . S
H860 C853 0.961 . S
H861 C853 0.960 . S
H862 C854 0.930 . S
H863 C855 0.929 . S
H864 C872 0.929 . S
H865 C874 0.930 . S
H866 C876 0.930 . S
H867 C879 0.929 . S
H868 C882 0.930 . S
H869 C884 0.960 . S
H870 C884 0.960 . S
H871 C884 0.960 . S
C872 H864 0.929 . S
C872 C873 1.377 . S
C872 C874 1.384 . S
C873 C872 1.377 . S
C873 C879 1.390 . S
C874 H865 0.930 . S
C874 C872 1.384 . S
C874 C875 1.372 . S
C875 C874 1.372 . S
C875 C876 1.400 . S
C875 C880 1.490 . S
C876 H866 0.930 . S
C876 C875 1.400 . S
C876 C879 1.386 . S
H877 C893 0.930 . S
H878 C894 0.931 . S
C879 H867 0.929 . S
C879 C873 1.390 . S
C879 C876 1.386 . S
C880 C875 1.490 . S
C880 C882 1.395 . S
C880 C883 1.403 . S
H881 C887 0.930 . S
C882 H868 0.930 . S
C882 C880 1.395 . S
C882 C885 1.404 . S
C883 C880 1.403 . S
C883 C884 1.524 . S
C883 C887 1.400 1_455 S
C884 H869 0.960 . S
C884 H870 0.960 . S
C884 H871 0.960 . S
C884 C883 1.524 . S
C885 C882 1.404 . S
C885 C886 1.392 1_455 S
C885 C889 1.495 1_455 S
C886 C885 1.392 1_655 S
C886 C887 1.385 . S
C886 C888 1.478 . S
C887 H881 0.930 . S
C887 C883 1.400 1_655 S
C887 C886 1.385 . S
C888 C886 1.478 . S
C888 C890 1.381 . S
C888 C894 1.383 . S
C889 C885 1.495 1_655 S
C889 H895 0.959 1_655 S
C889 H896 0.961 . S
C889 H897 0.960 . S
C890 C888 1.381 . S
C890 C891 1.394 . S
C890 H898 0.930 . S
C891 C890 1.394 . S
C891 C892 1.383 . S
C891 H899 0.929 . S
C892 C891 1.383 . S
C892 C893 1.377 . S
C893 H877 0.930 . S
C893 C892 1.377 . S
C893 C894 1.379 . S
C894 H878 0.931 . S
C894 C888 1.383 . S
C894 C893 1.379 . S
H895 C889 0.959 1_455 S
H896 C889 0.961 . S
H897 C889 0.960 . S
H898 C890 0.930 . S
H899 C891 0.929 . S
H900 C908 0.929 . S
H901 C910 0.930 . S
H902 C912 0.930 . S
H903 C915 0.929 . S
H904 C918 0.930 . S
H905 C920 0.960 . S
H906 C920 0.960 . S
H907 C920 0.960 . S
C908 H900 0.929 . S
C908 C909 1.377 . S
C908 C910 1.384 . S
C909 C908 1.377 . S
C909 C915 1.390 . S
C910 H901 0.930 . S
C910 C908 1.384 . S
C910 C911 1.372 . S
C911 C910 1.372 . S
C911 C912 1.400 . S
C911 C916 1.490 . S
C912 H902 0.930 . S
C912 C911 1.400 . S
C912 C915 1.386 . S
H913 C929 0.930 . S
H914 C930 0.931 . S
C915 H903 0.929 . S
C915 C909 1.390 . S
C915 C912 1.386 . S
C916 C911 1.490 . S
C916 C918 1.395 . S
C916 C919 1.403 . S
H917 C923 0.930 . S
C918 H904 0.930 . S
C918 C916 1.395 . S
C918 C921 1.403 . S
C919 C916 1.403 . S
C919 C920 1.524 . S
C919 C923 1.400 . S
C920 H905 0.960 . S
C920 H906 0.960 . S
C920 H907 0.960 . S
C920 C919 1.524 . S
C921 C918 1.403 . S
C921 C922 1.392 . S
C921 C925 1.495 . S
C922 C921 1.392 . S
C922 C923 1.385 . S
C922 C924 1.478 . S
C923 H917 0.930 . S
C923 C919 1.400 . S
C923 C922 1.385 . S
C924 C922 1.478 . S
C924 C926 1.381 . S
C924 C930 1.383 . S
C925 C921 1.495 . S
C925 H931 0.959 . S
C925 H932 0.961 . S
C925 H933 0.960 . S
C926 C924 1.381 . S
C926 C927 1.394 . S
C926 H934 0.930 . S
C927 C926 1.394 . S
C927 C928 1.383 . S
C927 H935 0.929 . S
C928 C927 1.383 . S
C928 C929 1.377 . S
C929 H913 0.930 . S
C929 C928 1.377 . S
C929 C930 1.379 . S
C930 H914 0.931 . S
C930 C924 1.383 . S
C930 C929 1.379 . S
H931 C925 0.959 . S
H932 C925 0.961 . S
H933 C925 0.960 . S
H934 C926 0.930 . S
H935 C927 0.929 . S
H936 C944 0.929 . S
H937 C946 0.930 . S
H938 C948 0.930 . S
H939 C951 0.929 . S
H940 C954 0.930 . S
H941 C956 0.960 . S
H942 C956 0.960 . S
H943 C956 0.960 . S
C944 H936 0.929 . S
C944 C945 1.377 . S
C944 C946 1.384 . S
C945 C944 1.377 . S
C945 C951 1.390 . S
C946 H937 0.930 . S
C946 C944 1.384 . S
C946 C947 1.372 . S
C947 C946 1.372 . S
C947 C948 1.400 . S
C947 C952 1.490 . S
C948 H938 0.930 . S
C948 C947 1.400 . S
C948 C951 1.386 . S
H949 C965 0.930 . S
H950 C966 0.931 . S
C951 H939 0.929 . S
C951 C945 1.390 . S
C951 C948 1.386 . S
C952 C947 1.490 . S
C952 C954 1.395 . S
C952 C955 1.403 . S
H953 C959 0.930 . S
C954 H940 0.930 . S
C954 C952 1.395 . S
C954 C957 1.403 . S
C955 C952 1.403 . S
C955 C956 1.524 . S
C955 C959 1.400 . S
C956 H941 0.960 . S
C956 H942 0.960 . S
C956 H943 0.960 . S
C956 C955 1.524 . S
C957 C954 1.403 . S
C957 C958 1.392 . S
C957 C961 1.495 . S
C958 C957 1.392 . S
C958 C959 1.385 . S
C958 C960 1.478 . S
C959 H953 0.930 . S
C959 C955 1.400 . S
C959 C958 1.385 . S
C960 C958 1.478 . S
C960 C962 1.381 . S
C960 C966 1.383 . S
C961 C957 1.495 . S
C961 H967 0.959 . S
C961 H968 0.961 . S
C961 H969 0.960 . S
C962 C960 1.381 . S
C962 C963 1.394 . S
C962 H970 0.930 . S
C963 C962 1.394 . S
C963 C964 1.383 . S
C963 H971 0.929 . S
C964 C963 1.383 . S
C964 C965 1.377 . S
C965 H949 0.930 . S
C965 C964 1.377 . S
C965 C966 1.379 . S
C966 H950 0.931 . S
C966 C960 1.383 . S
C966 C965 1.379 . S
H967 C961 0.959 . S
H968 C961 0.961 . S
H969 C961 0.960 . S
H970 C962 0.930 . S
H971 C963 0.929 . S
H972 C980 0.929 . S
H973 C982 0.930 . S
H974 C984 0.930 . S
H975 C987 0.929 . S
H976 C990 0.930 . S
H977 C992 0.960 . S
H978 C992 0.960 . S
H979 C992 0.960 . S
C980 H972 0.929 . S
C980 C981 1.377 . S
C980 C982 1.384 . S
C981 C980 1.377 . S
C981 C987 1.390 . S
C982 H973 0.930 . S
C982 C980 1.384 . S
C982 C983 1.372 . S
C983 C982 1.372 . S
C983 C984 1.400 . S
C983 C988 1.490 . S
C984 H974 0.930 . S
C984 C983 1.400 . S
C984 C987 1.386 . S
H985 C1001 0.930 . S
H986 C1002 0.931 . S
C987 H975 0.929 . S
C987 C981 1.390 . S
C987 C984 1.386 . S
C988 C983 1.490 . S
C988 C990 1.395 . S
C988 C991 1.403 . S
H989 C995 0.930 . S
C990 H976 0.930 . S
C990 C988 1.395 . S
C990 C993 1.403 . S
C991 C988 1.403 . S
C991 C992 1.524 . S
C991 C995 1.400 . S
C992 H977 0.960 . S
C992 H978 0.960 . S
C992 H979 0.960 . S
C992 C991 1.524 . S
C993 C990 1.403 . S
C993 C994 1.392 . S
C993 C997 1.495 . S
C994 C993 1.392 . S
C994 C995 1.385 . S
C994 C996 1.478 . S
C995 H989 0.930 . S
C995 C991 1.400 . S
C995 C994 1.385 . S
C996 C994 1.478 . S
C996 C998 1.381 . S
C996 C1002 1.383 . S
C997 C993 1.495 . S
C997 H1003 0.959 . S
C997 H1004 0.961 . S
C997 H1005 0.960 . S
C998 C996 1.381 . S
C998 C999 1.394 . S
C998 H1006 0.930 . S
C999 C998 1.394 . S
C999 C1000 1.383 . S
C999 H1007 0.929 . S
C1000 C999 1.383 . S
C1000 C1001 1.377 . S
C1001 H985 0.930 . S
C1001 C1000 1.377 . S
C1001 C1002 1.379 . S
C1002 H986 0.931 . S
C1002 C996 1.383 . S
C1002 C1001 1.379 . S
H1003 C997 0.959 . S
H1004 C997 0.961 . S
H1005 C997 0.960 . S
H1006 C998 0.930 . S
H1007 C999 0.929 . S
H1008 C1016 0.929 . S
H1009 C1018 0.930 . S
H1010 C1020 0.930 . S
H1011 C1023 0.929 . S
H1012 C1026 0.930 . S
H1013 C1028 0.960 . S
H1014 C1028 0.960 . S
H1015 C1028 0.960 . S
C1016 H1008 0.929 . S
C1016 C1017 1.377 . S
C1016 C1018 1.384 . S
C1017 C1016 1.377 . S
C1017 C1023 1.390 . S
C1018 H1009 0.930 . S
C1018 C1016 1.384 . S
C1018 C1019 1.372 . S
C1019 C1018 1.372 . S
C1019 C1020 1.400 . S
C1019 C1024 1.490 . S
C1020 H1010 0.930 . S
C1020 C1019 1.400 . S
C1020 C1023 1.386 . S
H1021 C1037 0.930 . S
H1022 C1038 0.931 . S
C1023 H1011 0.929 . S
C1023 C1017 1.390 . S
C1023 C1020 1.386 . S
C1024 C1019 1.490 . S
C1024 C1026 1.395 . S
C1024 C1027 1.403 . S
H1025 C1031 0.930 . S
C1026 H1012 0.930 . S
C1026 C1024 1.395 . S
C1026 C1029 1.403 . S
C1027 C1024 1.403 . S
C1027 C1028 1.524 . S
C1027 C1031 1.400 . S
C1028 H1013 0.960 . S
C1028 H1014 0.960 . S
C1028 H1015 0.960 . S
C1028 C1027 1.524 . S
C1029 C1026 1.403 . S
C1029 C1030 1.392 . S
C1029 C1033 1.495 . S
C1030 C1029 1.392 . S
C1030 C1031 1.385 . S
C1030 C1032 1.478 . S
C1031 H1025 0.930 . S
C1031 C1027 1.400 . S
C1031 C1030 1.385 . S
C1032 C1030 1.478 . S
C1032 C1034 1.381 . S
C1032 C1038 1.383 . S
C1033 C1029 1.495 . S
C1033 H1039 0.959 . S
C1033 H1040 0.961 . S
C1033 H1041 0.960 . S
C1034 C1032 1.381 . S
C1034 C1035 1.394 . S
C1034 H1042 0.930 . S
C1035 C1034 1.394 . S
C1035 C1036 1.383 . S
C1035 H1043 0.929 . S
C1036 C1035 1.383 . S
C1036 C1037 1.377 . S
C1037 H1021 0.930 . S
C1037 C1036 1.377 . S
C1037 C1038 1.379 . S
C1038 H1022 0.931 . S
C1038 C1032 1.383 . S
C1038 C1037 1.379 . S
H1039 C1033 0.959 . S
H1040 C1033 0.961 . S
H1041 C1033 0.960 . S
H1042 C1034 0.930 . S
H1043 C1035 0.929 . S
H1044 C1052 0.929 . S
H1045 C1054 0.930 . S
H1046 C1056 0.930 . S
H1047 C1059 0.929 . S
H1048 C1062 0.930 . S
H1049 C1064 0.960 . S
H1050 C1064 0.960 . S
H1051 C1064 0.960 . S
C1052 H1044 0.929 . S
C1052 C1053 1.377 . S
C1052 C1054 1.384 . S
C1053 C1052 1.377 . S
C1053 C1059 1.390 . S
C1054 H1045 0.930 . S
C1054 C1052 1.384 . S
C1054 C1055 1.372 . S
C1055 C1054 1.372 . S
C1055 C1056 1.400 . S
C1055 C1060 1.490 . S
C1056 H1046 0.930 . S
C1056 C1055 1.400 . S
C1056 C1059 1.386 . S
H1057 C1073 0.930 . S
H1058 C1074 0.931 . S
C1059 H1047 0.929 . S
C1059 C1053 1.390 . S
C1059 C1056 1.386 . S
C1060 C1055 1.490 . S
C1060 C1062 1.395 . S
C1060 C1063 1.403 . S
H1061 C1067 0.930 . S
C1062 H1048 0.930 . S
C1062 C1060 1.395 . S
C1062 C1065 1.403 . S
C1063 C1060 1.403 . S
C1063 C1064 1.524 . S
C1063 C1067 1.400 . S
C1064 H1049 0.960 . S
C1064 H1050 0.960 . S
C1064 H1051 0.960 . S
C1064 C1063 1.524 . S
C1065 C1062 1.403 . S
C1065 C1066 1.392 . S
C1065 C1069 1.495 . S
C1066 C1065 1.392 . S
C1066 C1067 1.385 . S
C1066 C1068 1.478 . S
C1067 H1061 0.930 . S
C1067 C1063 1.400 . S
C1067 C1066 1.385 . S
C1068 C1066 1.478 . S
C1068 C1070 1.381 . S
C1068 C1074 1.383 . S
C1069 C1065 1.495 . S
C1069 H1075 0.959 . S
C1069 H1076 0.961 . S
C1069 H1077 0.960 . S
C1070 C1068 1.381 . S
C1070 C1071 1.394 . S
C1070 H1078 0.930 . S
C1071 C1070 1.394 . S
C1071 C1072 1.383 . S
C1071 H1079 0.929 . S
C1072 C1071 1.383 . S
C1072 C1073 1.377 . S
C1073 H1057 0.930 . S
C1073 C1072 1.377 . S
C1073 C1074 1.379 . S
C1074 H1058 0.931 . S
C1074 C1068 1.383 . S
C1074 C1073 1.379 . S
H1075 C1069 0.959 . S
H1076 C1069 0.961 . S
H1077 C1069 0.960 . S
H1078 C1070 0.930 . S
H1079 C1071 0.929 . S
H1080 C1088 0.929 . S
H1081 C1090 0.930 . S
H1082 C1092 0.930 . S
H1083 C1095 0.929 . S
H1084 C1098 0.930 . S
H1085 C1100 0.960 . S
H1086 C1100 0.960 . S
H1087 C1100 0.960 . S
C1088 H1080 0.929 . S
C1088 C1089 1.377 . S
C1088 C1090 1.384 . S
C1089 C1088 1.377 . S
C1089 C1095 1.390 . S
C1090 H1081 0.930 . S
C1090 C1088 1.384 . S
C1090 C1091 1.372 . S
C1091 C1090 1.372 . S
C1091 C1092 1.400 . S
C1091 C1096 1.490 . S
C1092 H1082 0.930 . S
C1092 C1091 1.400 . S
C1092 C1095 1.386 . S
H1093 C1109 0.930 . S
H1094 C1110 0.931 . S
C1095 H1083 0.929 . S
C1095 C1089 1.390 . S
C1095 C1092 1.386 . S
C1096 C1091 1.490 . S
C1096 C1098 1.395 . S
C1096 C1099 1.403 . S
H1097 C1103 0.930 . S
C1098 H1084 0.930 . S
C1098 C1096 1.395 . S
C1098 C1101 1.403 . S
C1099 C1096 1.403 . S
C1099 C1100 1.524 . S
C1099 C1103 1.400 . S
C1100 H1085 0.960 . S
C1100 H1086 0.960 . S
C1100 H1087 0.960 . S
C1100 C1099 1.524 . S
C1101 C1098 1.403 . S
C1101 C1102 1.392 . S
C1101 C1105 1.495 . S
C1102 C1101 1.392 . S
C1102 C1103 1.385 . S
C1102 C1104 1.478 . S
C1103 H1097 0.930 . S
C1103 C1099 1.400 . S
C1103 C1102 1.385 . S
C1104 C1102 1.478 . S
C1104 C1106 1.381 . S
C1104 C1110 1.383 . S
C1105 C1101 1.495 . S
C1105 H1111 0.959 . S
C1105 H1112 0.961 . S
C1105 H1113 0.960 . S
C1106 C1104 1.381 . S
C1106 C1107 1.394 . S
C1106 H1114 0.930 . S
C1107 C1106 1.394 . S
C1107 C1108 1.383 . S
C1107 H1115 0.929 . S
C1108 C1107 1.383 . S
C1108 C1109 1.377 . S
C1109 H1093 0.930 . S
C1109 C1108 1.377 . S
C1109 C1110 1.379 . S
C1110 H1094 0.931 . S
C1110 C1104 1.383 . S
C1110 C1109 1.379 . S
H1111 C1105 0.959 . S
H1112 C1105 0.961 . S
H1113 C1105 0.960 . S
H1114 C1106 0.930 . S
H1115 C1107 0.929 . S
H1116 C1124 0.929 . S
H1117 C1126 0.930 . S
H1118 C1128 0.930 . S
H1119 C1131 0.929 . S
H1120 C1134 0.930 . S
H1121 C1136 0.960 . S
H1122 C1136 0.960 . S
H1123 C1136 0.960 . S
C1124 H1116 0.929 . S
C1124 C1125 1.377 . S
C1124 C1126 1.384 . S
C1125 C1124 1.377 . S
C1125 C1131 1.390 . S
C1126 H1117 0.930 . S
C1126 C1124 1.384 . S
C1126 C1127 1.372 . S
C1127 C1126 1.372 . S
C1127 C1128 1.400 . S
C1127 C1132 1.490 . S
C1128 H1118 0.930 . S
C1128 C1127 1.400 . S
C1128 C1131 1.386 . S
H1129 C1145 0.930 . S
H1130 C1146 0.931 . S
C1131 H1119 0.929 . S
C1131 C1125 1.390 . S
C1131 C1128 1.386 . S
C1132 C1127 1.490 . S
C1132 C1134 1.395 . S
C1132 C1135 1.403 . S
H1133 C1139 0.930 . S
C1134 H1120 0.930 . S
C1134 C1132 1.395 . S
C1134 C1137 1.403 . S
C1135 C1132 1.403 . S
C1135 C1136 1.524 . S
C1135 C1139 1.400 . S
C1136 H1121 0.960 . S
C1136 H1122 0.960 . S
C1136 H1123 0.960 . S
C1136 C1135 1.524 . S
C1137 C1134 1.403 . S
C1137 C1138 1.392 . S
C1137 C1141 1.495 . S
C1138 C1137 1.392 . S
C1138 C1139 1.385 . S
C1138 C1140 1.478 . S
C1139 H1133 0.930 . S
C1139 C1135 1.400 . S
C1139 C1138 1.385 . S
C1140 C1138 1.478 . S
C1140 C1142 1.381 . S
C1140 C1146 1.383 . S
C1141 C1137 1.495 . S
C1141 H1147 0.959 . S
C1141 H1148 0.961 . S
C1141 H1149 0.960 . S
C1142 C1140 1.381 . S
C1142 C1143 1.394 . S
C1142 H1150 0.930 . S
C1143 C1142 1.394 . S
C1143 C1144 1.383 . S
C1143 H1151 0.929 . S
C1144 C1143 1.383 . S
C1144 C1145 1.377 . S
C1145 H1129 0.930 . S
C1145 C1144 1.377 . S
C1145 C1146 1.379 . S
C1146 H1130 0.931 . S
C1146 C1140 1.383 . S
C1146 C1145 1.379 . S
H1147 C1141 0.959 . S
H1148 C1141 0.961 . S
H1149 C1141 0.960 . S
H1150 C1142 0.930 . S
H1151 C1143 0.929 . S
H1152 C1160 0.929 . S
H1153 C1162 0.930 . S
H1154 C1164 0.930 . S
H1155 C1167 0.929 . S
H1156 C1170 0.930 . S
H1157 C1172 0.960 . S
H1158 C1172 0.960 . S
H1159 C1172 0.960 . S
C1160 H1152 0.929 . S
C1160 C1161 1.377 . S
C1160 C1162 1.384 . S
C1161 C1160 1.377 . S
C1161 C1167 1.390 . S
C1162 H1153 0.930 . S
C1162 C1160 1.384 . S
C1162 C1163 1.372 . S
C1163 C1162 1.372 . S
C1163 C1164 1.400 . S
C1163 C1168 1.490 . S
C1164 H1154 0.930 . S
C1164 C1163 1.400 . S
C1164 C1167 1.386 . S
H1165 C1181 0.930 . S
H1166 C1182 0.931 . S
C1167 H1155 0.929 . S
C1167 C1161 1.390 . S
C1167 C1164 1.386 . S
C1168 C1163 1.490 . S
C1168 C1170 1.395 . S
C1168 C1171 1.403 . S
H1169 C1175 0.930 . S
C1170 H1156 0.930 . S
C1170 C1168 1.395 . S
C1170 C1173 1.403 . S
C1171 C1168 1.403 . S
C1171 C1172 1.524 . S
C1171 C1175 1.400 . S
C1172 H1157 0.960 . S
C1172 H1158 0.960 . S
C1172 H1159 0.960 . S
C1172 C1171 1.524 . S
C1173 C1170 1.403 . S
C1173 C1174 1.392 . S
C1173 C1177 1.495 . S
C1174 C1173 1.392 . S
C1174 C1175 1.385 . S
C1174 C1176 1.478 . S
C1175 H1169 0.930 . S
C1175 C1171 1.400 . S
C1175 C1174 1.385 . S
C1176 C1174 1.478 . S
C1176 C1178 1.381 . S
C1176 C1182 1.383 . S
C1177 C1173 1.495 . S
C1177 H1183 0.959 . S
C1177 H1184 0.961 . S
C1177 H1185 0.960 . S
C1178 C1176 1.381 . S
C1178 C1179 1.394 . S
C1178 H1186 0.930 . S
C1179 C1178 1.394 . S
C1179 C1180 1.383 . S
C1179 H1187 0.929 . S
C1180 C1179 1.383 . S
C1180 C1181 1.377 . S
C1181 H1165 0.930 . S
C1181 C1180 1.377 . S
C1181 C1182 1.379 . S
C1182 H1166 0.931 . S
C1182 C1176 1.383 . S
C1182 C1181 1.379 . S
H1183 C1177 0.959 . S
H1184 C1177 0.961 . S
H1185 C1177 0.960 . S
H1186 C1178 0.930 . S
H1187 C1179 0.929 . S
H1188 C1196 0.929 . S
H1189 C1198 0.930 . S
H1190 C1200 0.930 . S
H1191 C1203 0.929 . S
H1192 C1206 0.930 . S
H1193 C1208 0.960 . S
H1194 C1208 0.960 . S
H1195 C1208 0.960 . S
C1196 H1188 0.929 . S
C1196 C1197 1.377 . S
C1196 C1198 1.384 . S
C1197 C1196 1.377 . S
C1197 C1203 1.390 . S
C1198 H1189 0.930 . S
C1198 C1196 1.384 . S
C1198 C1199 1.372 . S
C1199 C1198 1.372 . S
C1199 C1200 1.400 . S
C1199 C1204 1.490 . S
C1200 H1190 0.930 . S
C1200 C1199 1.400 . S
C1200 C1203 1.386 . S
H1201 C1217 0.930 . S
H1202 C1218 0.931 . S
C1203 H1191 0.929 . S
C1203 C1197 1.390 . S
C1203 C1200 1.386 . S
C1204 C1199 1.490 . S
C1204 C1206 1.395 . S
C1204 C1207 1.403 . S
H1205 C1211 0.930 . S
C1206 H1192 0.930 . S
C1206 C1204 1.395 . S
C1206 C1209 1.403 . S
C1207 C1204 1.403 . S
C1207 C1208 1.524 . S
C1207 C1211 1.400 . S
C1208 H1193 0.960 . S
C1208 H1194 0.960 . S
C1208 H1195 0.960 . S
C1208 C1207 1.524 . S
C1209 C1206 1.403 . S
C1209 C1210 1.392 . S
C1209 C1213 1.495 . S
C1210 C1209 1.392 . S
C1210 C1211 1.385 . S
C1210 C1212 1.478 . S
C1211 H1205 0.930 . S
C1211 C1207 1.400 . S
C1211 C1210 1.385 . S
C1212 C1210 1.478 . S
C1212 C1214 1.381 . S
C1212 C1218 1.383 . S
C1213 C1209 1.495 . S
C1213 H1219 0.959 . S
C1213 H1220 0.961 . S
C1213 H1221 0.960 . S
C1214 C1212 1.381 . S
C1214 C1215 1.394 . S
C1214 H1222 0.930 . S
C1215 C1214 1.394 . S
C1215 C1216 1.383 . S
C1215 H1223 0.929 . S
C1216 C1215 1.383 . S
C1216 C1217 1.377 . S
C1217 H1201 0.930 . S
C1217 C1216 1.377 . S
C1217 C1218 1.379 . S
C1218 H1202 0.931 . S
C1218 C1212 1.383 . S
C1218 C1217 1.379 . S
H1219 C1213 0.959 . S
H1220 C1213 0.961 . S
H1221 C1213 0.960 . S
H1222 C1214 0.930 . S
H1223 C1215 0.929 . S
H1224 C1232 0.929 . S
H1225 C1234 0.930 . S
H1226 C1236 0.930 . S
H1227 C1239 0.929 . S
H1228 C1242 0.930 . S
H1229 C1244 0.960 . S
H1230 C1244 0.960 . S
H1231 C1244 0.960 . S
C1232 H1224 0.929 . S
C1232 C1233 1.377 . S
C1232 C1234 1.384 . S
C1233 C1232 1.377 . S
C1233 C1239 1.390 . S
C1234 H1225 0.930 . S
C1234 C1232 1.384 . S
C1234 C1235 1.372 . S
C1235 C1234 1.372 . S
C1235 C1236 1.400 . S
C1235 C1240 1.490 . S
C1236 H1226 0.930 . S
C1236 C1235 1.400 . S
C1236 C1239 1.386 . S
H1237 C1253 0.930 . S
H1238 C1254 0.931 . S
C1239 H1227 0.929 . S
C1239 C1233 1.390 . S
C1239 C1236 1.386 . S
C1240 C1235 1.490 . S
C1240 C1242 1.395 . S
C1240 C1243 1.403 . S
H1241 C1247 0.930 . S
C1242 H1228 0.930 . S
C1242 C1240 1.395 . S
C1242 C1245 1.403 . S
C1243 C1240 1.403 . S
C1243 C1244 1.524 . S
C1243 C1247 1.400 . S
C1244 H1229 0.960 . S
C1244 H1230 0.960 . S
C1244 H1231 0.960 . S
C1244 C1243 1.524 . S
C1245 C1242 1.403 . S
C1245 C1246 1.392 . S
C1245 C1249 1.495 . S
C1246 C1245 1.392 . S
C1246 C1247 1.385 . S
C1246 C1248 1.478 . S
C1247 H1241 0.930 . S
C1247 C1243 1.400 . S
C1247 C1246 1.385 . S
C1248 C1246 1.478 . S
C1248 C1250 1.381 . S
C1248 C1254 1.383 . S
C1249 C1245 1.495 . S
C1249 H1255 0.959 . S
C1249 H1256 0.961 . S
C1249 H1257 0.960 . S
C1250 C1248 1.381 . S
C1250 C1251 1.394 . S
C1250 H1258 0.930 . S
C1251 C1250 1.394 . S
C1251 C1252 1.383 . S
C1251 H1259 0.929 . S
C1252 C1251 1.383 . S
C1252 C1253 1.377 . S
C1253 H1237 0.930 . S
C1253 C1252 1.377 . S
C1253 C1254 1.379 . S
C1254 H1238 0.931 . S
C1254 C1248 1.383 . S
C1254 C1253 1.379 . S
H1255 C1249 0.959 . S
H1256 C1249 0.961 . S
H1257 C1249 0.960 . S
H1258 C1250 0.930 . S
H1259 C1251 0.929 . S
H1260 C1268 0.929 . S
H1261 C1270 0.930 . S
H1262 C1272 0.930 . S
H1263 C1275 0.929 . S
H1264 C1278 0.930 . S
H1265 C1280 0.960 . S
H1266 C1280 0.960 . S
H1267 C1280 0.960 . S
C1268 H1260 0.929 . S
C1268 C1269 1.377 . S
C1268 C1270 1.384 . S
C1269 C1268 1.377 . S
C1269 C1275 1.390 . S
C1270 H1261 0.930 . S
C1270 C1268 1.384 . S
C1270 C1271 1.372 . S
C1271 C1270 1.372 . S
C1271 C1272 1.400 . S
C1271 C1276 1.490 . S
C1272 H1262 0.930 . S
C1272 C1271 1.400 . S
C1272 C1275 1.386 . S
H1273 C1289 0.930 . S
H1274 C1290 0.931 . S
C1275 H1263 0.929 . S
C1275 C1269 1.390 . S
C1275 C1272 1.386 . S
C1276 C1271 1.490 . S
C1276 C1278 1.395 . S
C1276 C1279 1.403 . S
H1277 C1283 0.930 . S
C1278 H1264 0.930 . S
C1278 C1276 1.395 . S
C1278 C1281 1.403 . S
C1279 C1276 1.403 . S
C1279 C1280 1.524 . S
C1279 C1283 1.400 . S
C1280 H1265 0.960 . S
C1280 H1266 0.960 . S
C1280 H1267 0.960 . S
C1280 C1279 1.524 . S
C1281 C1278 1.403 . S
C1281 C1282 1.392 . S
C1281 C1285 1.495 . S
C1282 C1281 1.392 . S
C1282 C1283 1.385 . S
C1282 C1284 1.478 . S
C1283 H1277 0.930 . S
C1283 C1279 1.400 . S
C1283 C1282 1.385 . S
C1284 C1282 1.478 . S
C1284 C1286 1.381 . S
C1284 C1290 1.383 . S
C1285 C1281 1.495 . S
C1285 H1291 0.959 . S
C1285 H1292 0.961 . S
C1285 H1293 0.960 . S
C1286 C1284 1.381 . S
C1286 C1287 1.394 . S
C1286 H1294 0.930 . S
C1287 C1286 1.394 . S
C1287 C1288 1.383 . S
C1287 H1295 0.929 . S
C1288 C1287 1.383 . S
C1288 C1289 1.377 . S
C1289 H1273 0.930 . S
C1289 C1288 1.377 . S
C1289 C1290 1.379 . S
C1290 H1274 0.931 . S
C1290 C1284 1.383 . S
C1290 C1289 1.379 . S
H1291 C1285 0.959 . S
H1292 C1285 0.961 . S
H1293 C1285 0.960 . S
H1294 C1286 0.930 . S
H1295 C1287 0.929 . S
H1296 C1304 0.929 . S
H1297 C1306 0.930 . S
H1298 C1308 0.930 . S
H1299 C1311 0.929 . S
H1300 C1314 0.930 . S
H1301 C1316 0.960 . S
H1302 C1316 0.960 . S
H1303 C1316 0.960 . S
C1304 H1296 0.929 . S
C1304 C1305 1.377 . S
C1304 C1306 1.384 . S
C1305 C1304 1.377 . S
C1305 C1311 1.390 . S
C1306 H1297 0.930 . S
C1306 C1304 1.384 . S
C1306 C1307 1.372 . S
C1307 C1306 1.372 . S
C1307 C1308 1.400 . S
C1307 C1312 1.490 . S
C1308 H1298 0.930 . S
C1308 C1307 1.400 . S
C1308 C1311 1.386 . S
H1309 C1325 0.930 . S
H1310 C1326 0.931 . S
C1311 H1299 0.929 . S
C1311 C1305 1.390 . S
C1311 C1308 1.386 . S
C1312 C1307 1.490 . S
C1312 C1314 1.395 . S
C1312 C1315 1.403 . S
H1313 C1319 0.930 . S
C1314 H1300 0.930 . S
C1314 C1312 1.395 . S
C1314 C1317 1.403 . S
C1315 C1312 1.403 . S
C1315 C1316 1.524 . S
C1315 C1319 1.400 . S
C1316 H1301 0.960 . S
C1316 H1302 0.960 . S
C1316 H1303 0.960 . S
C1316 C1315 1.524 . S
C1317 C1314 1.403 . S
C1317 C1318 1.392 . S
C1317 C1321 1.495 . S
C1318 C1317 1.392 . S
C1318 C1319 1.385 . S
C1318 C1320 1.478 . S
C1319 H1313 0.930 . S
C1319 C1315 1.400 . S
C1319 C1318 1.385 . S
C1320 C1318 1.478 . S
C1320 C1322 1.381 . S
C1320 C1326 1.383 . S
C1321 C1317 1.495 . S
C1321 H1327 0.959 . S
C1321 H1328 0.961 . S
C1321 H1329 0.960 . S
C1322 C1320 1.381 . S
C1322 C1323 1.394 . S
C1322 H1330 0.930 . S
C1323 C1322 1.394 . S
C1323 C1324 1.383 . S
C1323 H1331 0.929 . S
C1324 C1323 1.383 . S
C1324 C1325 1.377 . S
C1325 H1309 0.930 . S
C1325 C1324 1.377 . S
C1325 C1326 1.379 . S
C1326 H1310 0.931 . S
C1326 C1320 1.383 . S
C1326 C1325 1.379 . S
H1327 C1321 0.959 . S
H1328 C1321 0.961 . S
H1329 C1321 0.960 . S
H1330 C1322 0.930 . S
H1331 C1323 0.929 . S
H1332 C1340 0.929 . S
H1333 C1342 0.930 . S
H1334 C1344 0.930 . S
H1335 C1347 0.929 . S
H1336 C1350 0.930 . S
H1337 C1352 0.960 . S
H1338 C1352 0.960 . S
H1339 C1352 0.960 . S
C1340 H1332 0.929 . S
C1340 C1341 1.377 . S
C1340 C1342 1.384 . S
C1341 C1340 1.377 . S
C1341 C1347 1.390 . S
C1342 H1333 0.930 . S
C1342 C1340 1.384 . S
C1342 C1343 1.372 . S
C1343 C1342 1.372 . S
C1343 C1344 1.400 . S
C1343 C1348 1.490 . S
C1344 H1334 0.930 . S
C1344 C1343 1.400 . S
C1344 C1347 1.386 . S
H1345 C1361 0.930 . S
H1346 C1362 0.931 . S
C1347 H1335 0.929 . S
C1347 C1341 1.390 . S
C1347 C1344 1.386 . S
C1348 C1343 1.490 . S
C1348 C1350 1.395 . S
C1348 C1351 1.403 . S
H1349 C1355 0.930 . S
C1350 H1336 0.930 . S
C1350 C1348 1.395 . S
C1350 C1353 1.403 . S
C1351 C1348 1.403 . S
C1351 C1352 1.524 . S
C1351 C1355 1.400 . S
C1352 H1337 0.960 . S
C1352 H1338 0.960 . S
C1352 H1339 0.960 . S
C1352 C1351 1.524 . S
C1353 C1350 1.403 . S
C1353 C1354 1.392 . S
C1353 C1357 1.495 . S
C1354 C1353 1.392 . S
C1354 C1355 1.385 . S
C1354 C1356 1.478 . S
C1355 H1349 0.930 . S
C1355 C1351 1.400 . S
C1355 C1354 1.385 . S
C1356 C1354 1.478 . S
C1356 C1358 1.381 . S
C1356 C1362 1.383 . S
C1357 C1353 1.495 . S
C1357 H1363 0.959 . S
C1357 H1364 0.961 . S
C1357 H1365 0.960 . S
C1358 C1356 1.381 . S
C1358 C1359 1.394 . S
C1358 H1366 0.930 . S
C1359 C1358 1.394 . S
C1359 C1360 1.383 . S
C1359 H1367 0.929 . S
C1360 C1359 1.383 . S
C1360 C1361 1.377 . S
C1361 H1345 0.930 . S
C1361 C1360 1.377 . S
C1361 C1362 1.379 . S
C1362 H1346 0.931 . S
C1362 C1356 1.383 . S
C1362 C1361 1.379 . S
H1363 C1357 0.959 . S
H1364 C1357 0.961 . S
H1365 C1357 0.960 . S
H1366 C1358 0.930 . S
H1367 C1359 0.929 . S
H1368 C1376 0.929 . S
H1369 C1378 0.930 . S
H1370 C1380 0.930 . S
H1371 C1383 0.929 . S
H1372 C1386 0.930 . S
H1373 C1388 0.960 . S
H1374 C1388 0.960 . S
H1375 C1388 0.960 . S
C1376 H1368 0.929 . S
C1376 C1377 1.377 . S
C1376 C1378 1.384 . S
C1377 C1376 1.377 . S
C1377 C1383 1.390 . S
C1378 H1369 0.930 . S
C1378 C1376 1.384 . S
C1378 C1379 1.372 . S
C1379 C1378 1.372 . S
C1379 C1380 1.400 . S
C1379 C1384 1.490 . S
C1380 H1370 0.930 . S
C1380 C1379 1.400 . S
C1380 C1383 1.386 . S
H1381 C1397 0.930 . S
H1382 C1398 0.931 . S
C1383 H1371 0.929 . S
C1383 C1377 1.390 . S
C1383 C1380 1.386 . S
C1384 C1379 1.490 . S
C1384 C1386 1.395 . S
C1384 C1387 1.403 . S
H1385 C1391 0.930 . S
C1386 H1372 0.930 . S
C1386 C1384 1.395 . S
C1386 C1389 1.403 . S
C1387 C1384 1.403 . S
C1387 C1388 1.524 . S
C1387 C1391 1.400 . S
C1388 H1373 0.960 . S
C1388 H1374 0.960 . S
C1388 H1375 0.960 . S
C1388 C1387 1.524 . S
C1389 C1386 1.403 . S
C1389 C1390 1.392 . S
C1389 C1393 1.495 . S
C1390 C1389 1.392 . S
C1390 C1391 1.385 . S
C1390 C1392 1.478 . S
C1391 H1385 0.930 . S
C1391 C1387 1.400 . S
C1391 C1390 1.385 . S
C1392 C1390 1.478 . S
C1392 C1394 1.381 . S
C1392 C1398 1.383 . S
C1393 C1389 1.495 . S
C1393 H1399 0.959 . S
C1393 H1400 0.961 . S
C1393 H1401 0.960 . S
C1394 C1392 1.381 . S
C1394 C1395 1.394 . S
C1394 H1402 0.930 . S
C1395 C1394 1.394 . S
C1395 C1396 1.383 . S
C1395 H1403 0.929 . S
C1396 C1395 1.383 . S
C1396 C1397 1.377 . S
C1397 H1381 0.930 . S
C1397 C1396 1.377 . S
C1397 C1398 1.379 . S
C1398 H1382 0.931 . S
C1398 C1392 1.383 . S
C1398 C1397 1.379 . S
H1399 C1393 0.959 . S
H1400 C1393 0.961 . S
H1401 C1393 0.960 . S
H1402 C1394 0.930 . S
H1403 C1395 0.929 . S
H1404 C1412 0.929 . S
H1405 C1414 0.930 . S
H1406 C1416 0.930 . S
H1407 C1419 0.929 . S
H1408 C1422 0.930 . S
H1409 C1424 0.960 . S
H1410 C1424 0.960 . S
H1411 C1424 0.960 . S
C1412 H1404 0.929 . S
C1412 C1413 1.377 . S
C1412 C1414 1.384 . S
C1413 C1412 1.377 . S
C1413 C1419 1.390 . S
C1414 H1405 0.930 . S
C1414 C1412 1.384 . S
C1414 C1415 1.372 . S
C1415 C1414 1.372 . S
C1415 C1416 1.400 . S
C1415 C1420 1.490 . S
C1416 H1406 0.930 . S
C1416 C1415 1.400 . S
C1416 C1419 1.386 . S
H1417 C1433 0.930 . S
H1418 C1434 0.931 . S
C1419 H1407 0.929 . S
C1419 C1413 1.390 . S
C1419 C1416 1.386 . S
C1420 C1415 1.490 . S
C1420 C1422 1.395 . S
C1420 C1423 1.403 . S
H1421 C1427 0.930 . S
C1422 H1408 0.930 . S
C1422 C1420 1.395 . S
C1422 C1425 1.403 . S
C1423 C1420 1.403 . S
C1423 C1424 1.524 . S
C1423 C1427 1.400 . S
C1424 H1409 0.960 . S
C1424 H1410 0.960 . S
C1424 H1411 0.960 . S
C1424 C1423 1.524 . S
C1425 C1422 1.403 . S
C1425 C1426 1.392 . S
C1425 C1429 1.495 . S
C1426 C1425 1.392 . S
C1426 C1427 1.385 . S
C1426 C1428 1.478 . S
C1427 H1421 0.930 . S
C1427 C1423 1.400 . S
C1427 C1426 1.385 . S
C1428 C1426 1.478 . S
C1428 C1430 1.381 . S
C1428 C1434 1.383 . S
C1429 C1425 1.495 . S
C1429 H1435 0.959 . S
C1429 H1436 0.961 . S
C1429 H1437 0.960 . S
C1430 C1428 1.381 . S
C1430 C1431 1.394 . S
C1430 H1438 0.930 . S
C1431 C1430 1.394 . S
C1431 C1432 1.383 . S
C1431 H1439 0.929 . S
C1432 C1431 1.383 . S
C1432 C1433 1.377 . S
C1433 H1417 0.930 . S
C1433 C1432 1.377 . S
C1433 C1434 1.379 . S
C1434 H1418 0.931 . S
C1434 C1428 1.383 . S
C1434 C1433 1.379 . S
H1435 C1429 0.959 . S
H1436 C1429 0.961 . S
H1437 C1429 0.960 . S
H1438 C1430 0.930 . S
H1439 C1431 0.929 . S
H1440 C1448 0.929 . S
H1441 C1450 0.930 . S
H1442 C1452 0.930 . S
H1443 C1455 0.929 . S
H1444 C1458 0.930 . S
H1445 C1460 0.960 . S
H1446 C1460 0.960 . S
H1447 C1460 0.960 . S
C1448 H1440 0.929 . S
C1448 C1449 1.377 . S
C1448 C1450 1.384 . S
C1449 C1448 1.377 . S
C1449 C1455 1.390 . S
C1450 H1441 0.930 . S
C1450 C1448 1.384 . S
C1450 C1451 1.372 . S
C1451 C1450 1.372 . S
C1451 C1452 1.400 . S
C1451 C1456 1.490 . S
C1452 H1442 0.930 . S
C1452 C1451 1.400 . S
C1452 C1455 1.386 . S
H1453 C1469 0.930 . S
H1454 C1470 0.931 . S
C1455 H1443 0.929 . S
C1455 C1449 1.390 . S
C1455 C1452 1.386 . S
C1456 C1451 1.490 . S
C1456 C1458 1.395 . S
C1456 C1459 1.403 . S
H1457 C1463 0.930 . S
C1458 H1444 0.930 . S
C1458 C1456 1.395 . S
C1458 C1461 1.403 . S
C1459 C1456 1.403 . S
C1459 C1460 1.524 . S
C1459 C1463 1.400 . S
C1460 H1445 0.960 . S
C1460 H1446 0.960 . S
C1460 H1447 0.960 . S
C1460 C1459 1.524 . S
C1461 C1458 1.403 . S
C1461 C1462 1.392 . S
C1461 C1465 1.495 . S
C1462 C1461 1.392 . S
C1462 C1463 1.385 . S
C1462 C1464 1.478 . S
C1463 H1457 0.930 . S
C1463 C1459 1.400 . S
C1463 C1462 1.385 . S
C1464 C1462 1.478 . S
C1464 C1466 1.381 . S
C1464 C1470 1.383 . S
C1465 C1461 1.495 . S
C1465 H1471 0.959 . S
C1465 H1472 0.961 . S
C1465 H1473 0.960 . S
C1466 C1464 1.381 . S
C1466 C1467 1.394 . S
C1466 H1474 0.930 . S
C1467 C1466 1.394 . S
C1467 C1468 1.383 . S
C1467 H1475 0.929 . S
C1468 C1467 1.383 . S
C1468 C1469 1.377 . S
C1469 H1453 0.930 . S
C1469 C1468 1.377 . S
C1469 C1470 1.379 . S
C1470 H1454 0.931 . S
C1470 C1464 1.383 . S
C1470 C1469 1.379 . S
H1471 C1465 0.959 . S
H1472 C1465 0.961 . S
H1473 C1465 0.960 . S
H1474 C1466 0.930 . S
H1475 C1467 0.929 . S
H1476 C1484 0.929 . S
H1477 C1486 0.930 . S
H1478 C1488 0.930 . S
H1479 C1491 0.929 . S
H1480 C1494 0.930 . S
H1481 C1496 0.960 . S
H1482 C1496 0.960 . S
H1483 C1496 0.960 . S
C1484 H1476 0.929 . S
C1484 C1485 1.377 . S
C1484 C1486 1.384 . S
C1485 C1484 1.377 . S
C1485 C1491 1.390 . S
C1486 H1477 0.930 . S
C1486 C1484 1.384 . S
C1486 C1487 1.372 . S
C1487 C1486 1.372 . S
C1487 C1488 1.400 . S
C1487 C1492 1.490 . S
C1488 H1478 0.930 . S
C1488 C1487 1.400 . S
C1488 C1491 1.386 . S
H1489 C1505 0.930 . S
H1490 C1506 0.931 . S
C1491 H1479 0.929 . S
C1491 C1485 1.390 . S
C1491 C1488 1.386 . S
C1492 C1487 1.490 . S
C1492 C1494 1.395 . S
C1492 C1495 1.403 . S
H1493 C1499 0.930 . S
C1494 H1480 0.930 . S
C1494 C1492 1.395 . S
C1494 C1497 1.403 . S
C1495 C1492 1.403 . S
C1495 C1496 1.524 . S
C1495 C1499 1.400 . S
C1496 H1481 0.960 . S
C1496 H1482 0.960 . S
C1496 H1483 0.960 . S
C1496 C1495 1.524 . S
C1497 C1494 1.403 . S
C1497 C1498 1.392 . S
C1497 C1501 1.495 . S
C1498 C1497 1.392 . S
C1498 C1499 1.385 . S
C1498 C1500 1.478 . S
C1499 H1493 0.930 . S
C1499 C1495 1.400 . S
C1499 C1498 1.385 . S
C1500 C1498 1.478 . S
C1500 C1502 1.381 . S
C1500 C1506 1.383 . S
C1501 C1497 1.495 . S
C1501 H1507 0.959 . S
C1501 H1508 0.961 . S
C1501 H1509 0.960 . S
C1502 C1500 1.381 . S
C1502 C1503 1.394 . S
C1502 H1510 0.930 . S
C1503 C1502 1.394 . S
C1503 C1504 1.383 . S
C1503 H1511 0.929 . S
C1504 C1503 1.383 . S
C1504 C1505 1.377 . S
C1505 H1489 0.930 . S
C1505 C1504 1.377 . S
C1505 C1506 1.379 . S
C1506 H1490 0.931 . S
C1506 C1500 1.383 . S
C1506 C1505 1.379 . S
H1507 C1501 0.959 . S
H1508 C1501 0.961 . S
H1509 C1501 0.960 . S
H1510 C1502 0.930 . S
H1511 C1503 0.929 . S
H1512 C1520 0.929 . S
H1513 C1522 0.930 . S
H1514 C1524 0.930 . S
H1515 C1527 0.929 . S
H1516 C1530 0.930 . S
H1517 C1532 0.960 . S
H1518 C1532 0.960 . S
H1519 C1532 0.960 . S
C1520 H1512 0.929 . S
C1520 C1521 1.377 . S
C1520 C1522 1.384 . S
C1521 C1520 1.377 . S
C1521 C1527 1.390 . S
C1522 H1513 0.930 . S
C1522 C1520 1.384 . S
C1522 C1523 1.372 . S
C1523 C1522 1.372 . S
C1523 C1524 1.400 . S
C1523 C1528 1.490 . S
C1524 H1514 0.930 . S
C1524 C1523 1.400 . S
C1524 C1527 1.386 . S
H1525 C1541 0.930 . S
H1526 C1542 0.931 . S
C1527 H1515 0.929 . S
C1527 C1521 1.390 . S
C1527 C1524 1.386 . S
C1528 C1523 1.490 . S
C1528 C1530 1.395 . S
C1528 C1531 1.403 . S
H1529 C1535 0.930 . S
C1530 H1516 0.930 . S
C1530 C1528 1.395 . S
C1530 C1533 1.403 . S
C1531 C1528 1.403 . S
C1531 C1532 1.524 . S
C1531 C1535 1.400 . S
C1532 H1517 0.960 . S
C1532 H1518 0.960 . S
C1532 H1519 0.960 . S
C1532 C1531 1.524 . S
C1533 C1530 1.403 . S
C1533 C1534 1.392 . S
C1533 C1537 1.495 . S
C1534 C1533 1.392 . S
C1534 C1535 1.385 . S
C1534 C1536 1.478 . S
C1535 H1529 0.930 . S
C1535 C1531 1.400 . S
C1535 C1534 1.385 . S
C1536 C1534 1.478 . S
C1536 C1538 1.381 . S
C1536 C1542 1.383 . S
C1537 C1533 1.495 . S
C1537 H1543 0.959 . S
C1537 H1544 0.961 . S
C1537 H1545 0.960 . S
C1538 C1536 1.381 . S
C1538 C1539 1.394 . S
C1538 H1546 0.930 . S
C1539 C1538 1.394 . S
C1539 C1540 1.383 . S
C1539 H1547 0.929 . S
C1540 C1539 1.383 . S
C1540 C1541 1.377 . S
C1541 H1525 0.930 . S
C1541 C1540 1.377 . S
C1541 C1542 1.379 . S
C1542 H1526 0.931 . S
C1542 C1536 1.383 . S
C1542 C1541 1.379 . S
H1543 C1537 0.959 . S
H1544 C1537 0.961 . S
H1545 C1537 0.960 . S
H1546 C1538 0.930 . S
H1547 C1539 0.929 . S
H1548 C1556 0.929 . S
H1549 C1558 0.930 . S
H1550 C1560 0.930 . S
H1551 C1563 0.929 . S
H1552 C1566 0.930 . S
H1553 C1568 0.960 . S
H1554 C1568 0.960 . S
H1555 C1568 0.960 . S
C1556 H1548 0.929 . S
C1556 C1557 1.377 . S
C1556 C1558 1.384 . S
C1557 C1556 1.377 . S
C1557 C1563 1.390 . S
C1558 H1549 0.930 . S
C1558 C1556 1.384 . S
C1558 C1559 1.372 . S
C1559 C1558 1.372 . S
C1559 C1560 1.400 . S
C1559 C1564 1.490 . S
C1560 H1550 0.930 . S
C1560 C1559 1.400 . S
C1560 C1563 1.386 . S
H1561 C1577 0.930 . S
H1562 C1578 0.931 . S
C1563 H1551 0.929 . S
C1563 C1557 1.390 . S
C1563 C1560 1.386 . S
C1564 C1559 1.490 . S
C1564 C1566 1.395 . S
C1564 C1567 1.403 . S
H1565 C1571 0.930 . S
C1566 H1552 0.930 . S
C1566 C1564 1.395 . S
C1566 C1569 1.403 . S
C1567 C1564 1.403 . S
C1567 C1568 1.524 . S
C1567 C1571 1.400 . S
C1568 H1553 0.960 . S
C1568 H1554 0.960 . S
C1568 H1555 0.960 . S
C1568 C1567 1.524 . S
C1569 C1566 1.403 . S
C1569 C1570 1.392 . S
C1569 C1573 1.495 . S
C1570 C1569 1.392 . S
C1570 C1571 1.385 . S
C1570 C1572 1.478 . S
C1571 H1565 0.930 . S
C1571 C1567 1.400 . S
C1571 C1570 1.385 . S
C1572 C1570 1.478 . S
C1572 C1574 1.381 . S
C1572 C1578 1.383 . S
C1573 C1569 1.495 . S
C1573 H1579 0.959 . S
C1573 H1580 0.961 . S
C1573 H1581 0.960 . S
C1574 C1572 1.381 . S
C1574 C1575 1.394 . S
C1574 H1582 0.930 . S
C1575 C1574 1.394 . S
C1575 C1576 1.383 . S
C1575 H1583 0.929 . S
C1576 C1575 1.383 . S
C1576 C1577 1.377 . S
C1577 H1561 0.930 . S
C1577 C1576 1.377 . S
C1577 C1578 1.379 . S
C1578 H1562 0.931 . S
C1578 C1572 1.383 . S
C1578 C1577 1.379 . S
H1579 C1573 0.959 . S
H1580 C1573 0.961 . S
H1581 C1573 0.960 . S
H1582 C1574 0.930 . S
H1583 C1575 0.929 . S
H1584 C1592 0.929 . S
H1585 C1594 0.930 . S
H1586 C1596 0.930 . S
H1587 C1599 0.929 . S
H1588 C1602 0.930 . S
H1589 C1604 0.960 . S
H1590 C1604 0.960 . S
H1591 C1604 0.960 . S
C1592 H1584 0.929 . S
C1592 C1593 1.377 . S
C1592 C1594 1.384 . S
C1593 C1592 1.377 . S
C1593 C1599 1.390 . S
C1594 H1585 0.930 . S
C1594 C1592 1.384 . S
C1594 C1595 1.372 . S
C1595 C1594 1.372 . S
C1595 C1596 1.400 . S
C1595 C1600 1.490 . S
C1596 H1586 0.930 . S
C1596 C1595 1.400 . S
C1596 C1599 1.386 . S
H1597 C1613 0.930 . S
H1598 C1614 0.931 . S
C1599 H1587 0.929 . S
C1599 C1593 1.390 . S
C1599 C1596 1.386 . S
C1600 C1595 1.490 . S
C1600 C1602 1.395 . S
C1600 C1603 1.403 . S
H1601 C1607 0.930 . S
C1602 H1588 0.930 . S
C1602 C1600 1.395 . S
C1602 C1605 1.403 . S
C1603 C1600 1.403 . S
C1603 C1604 1.524 . S
C1603 C1607 1.400 . S
C1604 H1589 0.960 . S
C1604 H1590 0.960 . S
C1604 H1591 0.960 . S
C1604 C1603 1.524 . S
C1605 C1602 1.403 . S
C1605 C1606 1.392 . S
C1605 C1609 1.495 . S
C1606 C1605 1.392 . S
C1606 C1607 1.385 . S
C1606 C1608 1.478 . S
C1607 H1601 0.930 . S
C1607 C1603 1.400 . S
C1607 C1606 1.385 . S
C1608 C1606 1.478 . S
C1608 C1610 1.381 . S
C1608 C1614 1.383 . S
C1609 C1605 1.495 . S
C1609 H1615 0.959 . S
C1609 H1616 0.961 . S
C1609 H1617 0.960 . S
C1610 C1608 1.381 . S
C1610 C1611 1.394 . S
C1610 H1618 0.930 . S
C1611 C1610 1.394 . S
C1611 C1612 1.383 . S
C1611 H1619 0.929 . S
C1612 C1611 1.383 . S
C1612 C1613 1.377 . S
C1613 H1597 0.930 . S
C1613 C1612 1.377 . S
C1613 C1614 1.379 . S
C1614 H1598 0.931 . S
C1614 C1608 1.383 . S
C1614 C1613 1.379 . S
H1615 C1609 0.959 . S
H1616 C1609 0.961 . S
H1617 C1609 0.960 . S
H1618 C1610 0.930 . S
H1619 C1611 0.929 . S
H1620 C1628 0.929 . S
H1621 C1630 0.930 . S
H1622 C1632 0.930 . S
H1623 C1635 0.929 . S
H1624 C1638 0.930 . S
H1625 C1640 0.960 . S
H1626 C1640 0.960 . S
H1627 C1640 0.960 . S
C1628 H1620 0.929 . S
C1628 C1629 1.377 . S
C1628 C1630 1.384 . S
C1629 C1628 1.377 . S
C1629 C1635 1.390 . S
C1630 H1621 0.930 . S
C1630 C1628 1.384 . S
C1630 C1631 1.372 . S
C1631 C1630 1.372 . S
C1631 C1632 1.400 . S
C1631 C1636 1.490 . S
C1632 H1622 0.930 . S
C1632 C1631 1.400 . S
C1632 C1635 1.386 . S
H1633 C1649 0.930 . S
H1634 C1650 0.931 . S
C1635 H1623 0.929 . S
C1635 C1629 1.390 . S
C1635 C1632 1.386 . S
C1636 C1631 1.490 . S
C1636 C1638 1.395 . S
C1636 C1639 1.403 . S
H1637 C1643 0.930 . S
C1638 H1624 0.930 . S
C1638 C1636 1.395 . S
C1638 C1641 1.403 . S
C1639 C1636 1.403 . S
C1639 C1640 1.524 . S
C1639 C1643 1.400 . S
C1640 H1625 0.960 . S
C1640 H1626 0.960 . S
C1640 H1627 0.960 . S
C1640 C1639 1.524 . S
C1641 C1638 1.403 . S
C1641 C1642 1.392 . S
C1641 C1645 1.495 . S
C1642 C1641 1.392 . S
C1642 C1643 1.385 . S
C1642 C1644 1.478 . S
C1643 H1637 0.930 . S
C1643 C1639 1.400 . S
C1643 C1642 1.385 . S
C1644 C1642 1.478 . S
C1644 C1646 1.381 . S
C1644 C1650 1.383 . S
C1645 C1641 1.495 . S
C1645 H1651 0.959 . S
C1645 H1652 0.961 . S
C1645 H1653 0.960 . S
C1646 C1644 1.381 . S
C1646 C1647 1.394 . S
C1646 H1654 0.930 . S
C1647 C1646 1.394 . S
C1647 C1648 1.383 . S
C1647 H1655 0.929 . S
C1648 C1647 1.383 . S
C1648 C1649 1.377 . S
C1649 H1633 0.930 . S
C1649 C1648 1.377 . S
C1649 C1650 1.379 . S
C1650 H1634 0.931 . S
C1650 C1644 1.383 . S
C1650 C1649 1.379 . S
H1651 C1645 0.959 . S
H1652 C1645 0.961 . S
H1653 C1645 0.960 . S
H1654 C1646 0.930 . S
H1655 C1647 0.929 . S
H1656 C1664 0.929 . S
H1657 C1666 0.930 . S
H1658 C1668 0.930 . S
H1659 C1671 0.929 . S
H1660 C1674 0.930 . S
H1661 C1676 0.960 . S
H1662 C1676 0.960 . S
H1663 C1676 0.960 . S
C1664 H1656 0.929 . S
C1664 C1665 1.377 . S
C1664 C1666 1.384 . S
C1665 C1664 1.377 . S
C1665 C1671 1.390 . S
C1666 H1657 0.930 . S
C1666 C1664 1.384 . S
C1666 C1667 1.372 . S
C1667 C1666 1.372 . S
C1667 C1668 1.400 . S
C1667 C1672 1.490 . S
C1668 H1658 0.930 . S
C1668 C1667 1.400 . S
C1668 C1671 1.386 . S
H1669 C1685 0.930 . S
H1670 C1686 0.931 . S
C1671 H1659 0.929 . S
C1671 C1665 1.390 . S
C1671 C1668 1.386 . S
C1672 C1667 1.490 . S
C1672 C1674 1.395 . S
C1672 C1675 1.403 . S
H1673 C1679 0.930 . S
C1674 H1660 0.930 . S
C1674 C1672 1.395 . S
C1674 C1677 1.403 . S
C1675 C1672 1.403 . S
C1675 C1676 1.524 . S
C1675 C1679 1.400 . S
C1676 H1661 0.960 . S
C1676 H1662 0.960 . S
C1676 H1663 0.960 . S
C1676 C1675 1.524 . S
C1677 C1674 1.403 . S
C1677 C1678 1.392 . S
C1677 C1681 1.495 . S
C1678 C1677 1.392 . S
C1678 C1679 1.385 . S
C1678 C1680 1.478 . S
C1679 H1673 0.930 . S
C1679 C1675 1.400 . S
C1679 C1678 1.385 . S
C1680 C1678 1.478 . S
C1680 C1682 1.381 . S
C1680 C1686 1.383 . S
C1681 C1677 1.495 . S
C1681 H1687 0.959 . S
C1681 H1688 0.961 . S
C1681 H1689 0.960 . S
C1682 C1680 1.381 . S
C1682 C1683 1.394 . S
C1682 H1690 0.930 . S
C1683 C1682 1.394 . S
C1683 C1684 1.383 . S
C1683 H1691 0.929 . S
C1684 C1683 1.383 . S
C1684 C1685 1.377 . S
C1685 H1669 0.930 . S
C1685 C1684 1.377 . S
C1685 C1686 1.379 . S
C1686 H1670 0.931 . S
C1686 C1680 1.383 . S
C1686 C1685 1.379 . S
H1687 C1681 0.959 . S
H1688 C1681 0.961 . S
H1689 C1681 0.960 . S
H1690 C1682 0.930 . S
H1691 C1683 0.929 . S
H1692 C1700 0.929 . S
H1693 C1702 0.930 . S
H1694 C1704 0.930 . S
H1695 C1707 0.929 . S
H1696 C1710 0.930 . S
H1697 C1712 0.960 . S
H1698 C1712 0.960 . S
H1699 C1712 0.960 . S
C1700 H1692 0.929 . S
C1700 C1701 1.377 . S
C1700 C1702 1.384 . S
C1701 C1700 1.377 . S
C1701 C1707 1.390 . S
C1702 H1693 0.930 . S
C1702 C1700 1.384 . S
C1702 C1703 1.372 . S
C1703 C1702 1.372 . S
C1703 C1704 1.400 . S
C1703 C1708 1.490 . S
C1704 H1694 0.930 . S
C1704 C1703 1.400 . S
C1704 C1707 1.386 . S
H1705 C1721 0.930 . S
H1706 C1722 0.931 . S
C1707 H1695 0.929 . S
C1707 C1701 1.390 . S
C1707 C1704 1.386 . S
C1708 C1703 1.490 . S
C1708 C1710 1.395 . S
C1708 C1711 1.403 . S
H1709 C1715 0.930 . S
C1710 H1696 0.930 . S
C1710 C1708 1.395 . S
C1710 C1713 1.403 . S
C1711 C1708 1.403 . S
C1711 C1712 1.524 . S
C1711 C1715 1.400 . S
C1712 H1697 0.960 . S
C1712 H1698 0.960 . S
C1712 H1699 0.960 . S
C1712 C1711 1.524 . S
C1713 C1710 1.403 . S
C1713 C1714 1.392 . S
C1713 C1717 1.495 . S
C1714 C1713 1.392 . S
C1714 C1715 1.385 . S
C1714 C1716 1.478 . S
C1715 H1709 0.930 . S
C1715 C1711 1.400 . S
C1715 C1714 1.385 . S
C1716 C1714 1.478 . S
C1716 C1718 1.381 . S
C1716 C1722 1.383 . S
C1717 C1713 1.495 . S
C1717 H1723 0.959 . S
C1717 H1724 0.961 . S
C1717 H1725 0.960 . S
C1718 C1716 1.381 . S
C1718 C1719 1.394 . S
C1718 H1726 0.930 . S
C1719 C1718 1.394 . S
C1719 C1720 1.383 . S
C1719 H1727 0.929 . S
C1720 C1719 1.383 . S
C1720 C1721 1.377 . S
C1721 H1705 0.930 . S
C1721 C1720 1.377 . S
C1721 C1722 1.379 . S
C1722 H1706 0.931 . S
C1722 C1716 1.383 . S
C1722 C1721 1.379 . S
H1723 C1717 0.959 . S
H1724 C1717 0.961 . S
H1725 C1717 0.960 . S
H1726 C1718 0.930 . S
H1727 C1719 0.929 . S
H1728 C1736 0.929 . S
H1729 C1738 0.930 . S
H1730 C1740 0.930 . S
H1731 C1743 0.929 . S
H1732 C1746 0.930 . S
H1733 C1748 0.960 . S
H1734 C1748 0.960 . S
H1735 C1748 0.960 . S
C1736 H1728 0.929 . S
C1736 C1737 1.377 . S
C1736 C1738 1.384 . S
C1737 C1736 1.377 . S
C1737 C1743 1.390 . S
C1738 H1729 0.930 . S
C1738 C1736 1.384 . S
C1738 C1739 1.372 . S
C1739 C1738 1.372 . S
C1739 C1740 1.400 . S
C1739 C1744 1.490 . S
C1740 H1730 0.930 . S
C1740 C1739 1.400 . S
C1740 C1743 1.386 . S
H1741 C1757 0.930 . S
H1742 C1758 0.931 . S
C1743 H1731 0.929 . S
C1743 C1737 1.390 . S
C1743 C1740 1.386 . S
C1744 C1739 1.490 . S
C1744 C1746 1.395 . S
C1744 C1747 1.403 . S
H1745 C1751 0.930 . S
C1746 H1732 0.930 . S
C1746 C1744 1.395 . S
C1746 C1749 1.403 . S
C1747 C1744 1.403 . S
C1747 C1748 1.524 . S
C1747 C1751 1.400 . S
C1748 H1733 0.960 . S
C1748 H1734 0.960 . S
C1748 H1735 0.960 . S
C1748 C1747 1.524 . S
C1749 C1746 1.403 . S
C1749 C1750 1.392 . S
C1749 C1753 1.495 . S
C1750 C1749 1.392 . S
C1750 C1751 1.385 . S
C1750 C1752 1.478 . S
C1751 H1745 0.930 . S
C1751 C1747 1.400 . S
C1751 C1750 1.385 . S
C1752 C1750 1.478 . S
C1752 C1754 1.381 . S
C1752 C1758 1.383 . S
C1753 C1749 1.495 . S
C1753 H1759 0.959 . S
C1753 H1760 0.961 . S
C1753 H1761 0.960 . S
C1754 C1752 1.381 . S
C1754 C1755 1.394 . S
C1754 H1762 0.930 . S
C1755 C1754 1.394 . S
C1755 C1756 1.383 . S
C1755 H1763 0.929 . S
C1756 C1755 1.383 . S
C1756 C1757 1.377 . S
C1757 H1741 0.930 . S
C1757 C1756 1.377 . S
C1757 C1758 1.379 . S
C1758 H1742 0.931 . S
C1758 C1752 1.383 . S
C1758 C1757 1.379 . S
H1759 C1753 0.959 . S
H1760 C1753 0.961 . S
H1761 C1753 0.960 . S
H1762 C1754 0.930 . S
H1763 C1755 0.929 . S
H1764 C1772 0.929 . S
H1765 C1774 0.930 . S
H1766 C1776 0.930 . S
H1767 C1779 0.929 . S
H1768 C1782 0.930 . S
H1769 C1784 0.960 . S
H1770 C1784 0.960 . S
H1771 C1784 0.960 . S
C1772 H1764 0.929 . S
C1772 C1773 1.377 . S
C1772 C1774 1.384 . S
C1773 C1772 1.377 . S
C1773 C1779 1.390 . S
C1774 H1765 0.930 . S
C1774 C1772 1.384 . S
C1774 C1775 1.372 . S
C1775 C1774 1.372 . S
C1775 C1776 1.400 . S
C1775 C1780 1.490 . S
C1776 H1766 0.930 . S
C1776 C1775 1.400 . S
C1776 C1779 1.386 . S
H1777 C1793 0.930 . S
H1778 C1794 0.931 . S
C1779 H1767 0.929 . S
C1779 C1773 1.390 . S
C1779 C1776 1.386 . S
C1780 C1775 1.490 . S
C1780 C1782 1.395 . S
C1780 C1783 1.403 . S
H1781 C1787 0.930 . S
C1782 H1768 0.930 . S
C1782 C1780 1.395 . S
C1782 C1785 1.403 . S
C1783 C1780 1.403 . S
C1783 C1784 1.524 . S
C1783 C1787 1.400 . S
C1784 H1769 0.960 . S
C1784 H1770 0.960 . S
C1784 H1771 0.960 . S
C1784 C1783 1.524 . S
C1785 C1782 1.403 . S
C1785 C1786 1.392 . S
C1785 C1789 1.495 . S
C1786 C1785 1.392 . S
C1786 C1787 1.385 . S
C1786 C1788 1.478 . S
C1787 H1781 0.930 . S
C1787 C1783 1.400 . S
C1787 C1786 1.385 . S
C1788 C1786 1.478 . S
C1788 C1790 1.381 . S
C1788 C1794 1.383 . S
C1789 C1785 1.495 . S
C1789 H1795 0.959 . S
C1789 H1796 0.961 . S
C1789 H1797 0.960 . S
C1790 C1788 1.381 . S
C1790 C1791 1.394 . S
C1790 H1798 0.930 . S
C1791 C1790 1.394 . S
C1791 C1792 1.383 . S
C1791 H1799 0.929 . S
C1792 C1791 1.383 . S
C1792 C1793 1.377 . S
C1793 H1777 0.930 . S
C1793 C1792 1.377 . S
C1793 C1794 1.379 . S
C1794 H1778 0.931 . S
C1794 C1788 1.383 . S
C1794 C1793 1.379 . S
H1795 C1789 0.959 . S
H1796 C1789 0.961 . S
H1797 C1789 0.960 . S
H1798 C1790 0.930 . S
H1799 C1791 0.929 . S
H1800 C1808 0.929 . S
H1801 C1810 0.930 . S
H1802 C1812 0.930 . S
H1803 C1815 0.929 . S
H1804 C1818 0.930 . S
H1805 C1820 0.960 . S
H1806 C1820 0.960 . S
H1807 C1820 0.960 . S
C1808 H1800 0.929 . S
C1808 C1809 1.377 . S
C1808 C1810 1.384 . S
C1809 C1808 1.377 . S
C1809 C1815 1.390 . S
C1810 H1801 0.930 . S
C1810 C1808 1.384 . S
C1810 C1811 1.372 . S
C1811 C1810 1.372 . S
C1811 C1812 1.400 . S
C1811 C1816 1.490 . S
C1812 H1802 0.930 . S
C1812 C1811 1.400 . S
C1812 C1815 1.386 . S
H1813 C1829 0.930 . S
H1814 C1830 0.931 . S
C1815 H1803 0.929 . S
C1815 C1809 1.390 . S
C1815 C1812 1.386 . S
C1816 C1811 1.490 . S
C1816 C1818 1.395 . S
C1816 C1819 1.403 . S
H1817 C1823 0.930 . S
C1818 H1804 0.930 . S
C1818 C1816 1.395 . S
C1818 C1821 1.403 . S
C1819 C1816 1.403 . S
C1819 C1820 1.524 . S
C1819 C1823 1.400 . S
C1820 H1805 0.960 . S
C1820 H1806 0.960 . S
C1820 H1807 0.960 . S
C1820 C1819 1.524 . S
C1821 C1818 1.403 . S
C1821 C1822 1.392 . S
C1821 C1825 1.495 . S
C1822 C1821 1.392 . S
C1822 C1823 1.385 . S
C1822 C1824 1.478 . S
C1823 H1817 0.930 . S
C1823 C1819 1.400 . S
C1823 C1822 1.385 . S
C1824 C1822 1.478 . S
C1824 C1826 1.381 . S
C1824 C1830 1.383 . S
C1825 C1821 1.495 . S
C1825 H1831 0.959 . S
C1825 H1832 0.961 . S
C1825 H1833 0.960 . S
C1826 C1824 1.381 . S
C1826 C1827 1.394 . S
C1826 H1834 0.930 . S
C1827 C1826 1.394 . S
C1827 C1828 1.383 . S
C1827 H1835 0.929 . S
C1828 C1827 1.383 . S
C1828 C1829 1.377 . S
C1829 H1813 0.930 . S
C1829 C1828 1.377 . S
C1829 C1830 1.379 . S
C1830 H1814 0.931 . S
C1830 C1824 1.383 . S
C1830 C1829 1.379 . S
H1831 C1825 0.959 . S
H1832 C1825 0.961 . S
H1833 C1825 0.960 . S
H1834 C1826 0.930 . S
H1835 C1827 0.929 . S
H1836 C1844 0.929 . S
H1837 C1846 0.930 . S
H1838 C1848 0.930 . S
H1839 C1851 0.929 . S
H1840 C1854 0.915 . S
H1841 C1856 0.960 . S
H1842 C1856 0.960 . S
H1843 C1856 0.960 1_545 S
C1844 H1836 0.929 . S
C1844 C1845 1.377 1_565 S
C1844 C1846 1.384 . S
C1845 C1844 1.377 1_545 S
C1845 C1851 1.390 . S
C1846 H1837 0.930 . S
C1846 C1844 1.384 . S
C1846 C1847 1.372 1_565 S
C1847 C1846 1.372 1_545 S
C1847 C1848 1.400 . S
C1847 C1852 1.491 . S
C1848 H1838 0.930 . S
C1848 C1847 1.400 . S
C1848 C1851 1.386 . S
H1849 C1865 0.930 . S
H1850 C1866 0.931 . S
C1851 H1839 0.929 . S
C1851 C1845 1.390 . S
C1851 C1848 1.386 . S
C1852 C1847 1.491 . S
C1852 C1854 1.407 . S
C1852 C1855 1.408 1_545 S
H1853 C1859 0.930 . S
C1854 H1840 0.915 . S
C1854 C1852 1.407 . S
C1854 C1857 1.400 1_545 S
C1855 C1852 1.408 1_565 S
C1855 C1856 1.524 . S
C1855 C1859 1.400 . S
C1856 H1841 0.960 . S
C1856 H1842 0.960 . S
C1856 H1843 0.960 1_565 S
C1856 C1855 1.524 . S
C1857 C1854 1.400 1_565 S
C1857 C1858 1.386 . S
C1857 C1861 1.519 1_565 S
C1858 C1857 1.386 . S
C1858 C1859 1.385 . S
C1858 C1860 1.478 . S
C1859 H1853 0.930 . S
C1859 C1855 1.400 . S
C1859 C1858 1.385 . S
C1860 C1858 1.478 . S
C1860 C1862 1.381 . S
C1860 C1866 1.383 1_565 S
C1861 C1857 1.519 1_545 S
C1861 H1867 0.949 . S
C1861 H1868 0.985 . S
C1861 H1869 0.932 1_545 S
C1862 C1860 1.381 . S
C1862 C1863 1.394 . S
C1862 H1870 0.930 . S
C1863 C1862 1.394 . S
C1863 C1864 1.383 . S
C1863 H1871 0.929 . S
C1864 C1863 1.383 . S
C1864 C1865 1.377 1_565 S
C1865 H1849 0.930 . S
C1865 C1864 1.377 1_545 S
C1865 C1866 1.379 . S
C1866 H1850 0.931 . S
C1866 C1860 1.383 1_545 S
C1866 C1865 1.379 . S
H1867 C1861 0.949 . S
H1868 C1861 0.985 . S
H1869 C1861 0.932 1_565 S
H1870 C1862 0.930 . S
H1871 C1863 0.929 . S
H1872 C1880 0.929 . S
H1873 C1882 0.917 . S
H1874 C1884 0.930 . S
H1875 C1887 0.929 . S
H1876 C1890 0.930 . S
H1877 C1892 0.960 . S
H1878 C1892 0.960 . S
H1879 C1892 0.960 . S
C1880 H1872 0.929 . S
C1880 C1881 1.377 . S
C1880 C1882 1.384 . S
C1881 C1880 1.377 . S
C1881 C1887 1.390 . S
C1882 H1873 0.917 . S
C1882 C1880 1.384 . S
C1882 C1883 1.372 . S
C1883 C1882 1.372 . S
C1883 C1884 1.400 . S
C1883 C1888 1.490 . S
C1884 H1874 0.930 . S
C1884 C1883 1.400 . S
C1884 C1887 1.386 . S
H1885 C1901 0.930 . S
H1886 C1902 0.931 . S
C1887 H1875 0.929 . S
C1887 C1881 1.390 . S
C1887 C1884 1.386 . S
C1888 C1883 1.490 . S
C1888 C1890 1.395 1_455 S
C1888 C1891 1.403 . S
H1889 C1895 0.930 . S
C1890 H1876 0.930 . S
C1890 C1888 1.395 1_655 S
C1890 C1893 1.403 . S
C1891 C1888 1.403 . S
C1891 C1892 1.524 . S
C1891 C1895 1.400 . S
C1892 H1877 0.960 . S
C1892 H1878 0.960 . S
C1892 H1879 0.960 . S
C1892 C1891 1.524 . S
C1893 C1890 1.403 . S
C1893 C1894 1.392 . S
C1893 C1897 1.495 . S
C1894 C1893 1.392 . S
C1894 C1895 1.385 1_655 S
C1894 C1896 1.478 . S
C1895 H1889 0.930 . S
C1895 C1891 1.400 . S
C1895 C1894 1.385 1_455 S
C1896 C1894 1.478 . S
C1896 C1898 1.381 . S
C1896 C1902 1.383 . S
C1897 C1893 1.495 . S
C1897 H1903 0.959 . S
C1897 H1904 0.961 . S
C1897 H1905 0.960 . S
C1898 C1896 1.381 . S
C1898 C1899 1.394 . S
C1898 H1906 0.930 . S
C1899 C1898 1.394 . S
C1899 C1900 1.383 . S
C1899 H1907 0.929 . S
C1900 C1899 1.383 . S
C1900 C1901 1.377 . S
C1901 H1885 0.930 . S
C1901 C1900 1.377 . S
C1901 C1902 1.379 . S
C1902 H1886 0.931 . S
C1902 C1896 1.383 . S
C1902 C1901 1.379 . S
H1903 C1897 0.959 . S
H1904 C1897 0.961 . S
H1905 C1897 0.960 . S
H1906 C1898 0.930 . S
H1907 C1899 0.929 . S
H1908 C1916 0.929 . S
H1909 C1918 0.930 . S
H1910 C1920 0.930 . S
H1911 C1923 0.929 . S
H1912 C1926 0.930 . S
H1913 C1928 0.960 . S
H1914 C1928 0.960 . S
H1915 C1928 0.960 . S
C1916 H1908 0.929 . S
C1916 C1917 1.377 . S
C1916 C1918 1.384 . S
C1917 C1916 1.377 . S
C1917 C1923 1.390 . S
C1918 H1909 0.930 . S
C1918 C1916 1.384 . S
C1918 C1919 1.372 . S
C1919 C1918 1.372 . S
C1919 C1920 1.400 . S
C1919 C1924 1.490 . S
C1920 H1910 0.930 . S
C1920 C1919 1.400 . S
C1920 C1923 1.386 . S
H1921 C1937 0.930 . S
H1922 C1938 0.931 . S
C1923 H1911 0.929 . S
C1923 C1917 1.390 . S
C1923 C1920 1.386 . S
C1924 C1919 1.490 . S
C1924 C1926 1.395 . S
C1924 C1927 1.403 . S
H1925 C1931 0.930 . S
C1926 H1912 0.930 . S
C1926 C1924 1.395 . S
C1926 C1929 1.403 . S
C1927 C1924 1.403 . S
C1927 C1928 1.524 . S
C1927 C1931 1.400 . S
C1928 H1913 0.960 . S
C1928 H1914 0.960 . S
C1928 H1915 0.960 . S
C1928 C1927 1.524 . S
C1929 C1926 1.403 . S
C1929 C1930 1.392 . S
C1929 C1933 1.495 . S
C1930 C1929 1.392 . S
C1930 C1931 1.385 . S
C1930 C1932 1.478 . S
C1931 H1925 0.930 . S
C1931 C1927 1.400 . S
C1931 C1930 1.385 . S
C1932 C1930 1.478 . S
C1932 C1934 1.381 . S
C1932 C1938 1.383 . S
C1933 C1929 1.495 . S
C1933 H1939 0.959 . S
C1933 H1940 0.961 . S
C1933 H1941 0.960 . S
C1934 C1932 1.381 . S
C1934 C1935 1.394 . S
C1934 H1942 0.930 . S
C1935 C1934 1.394 . S
C1935 C1936 1.383 . S
C1935 H1943 0.929 . S
C1936 C1935 1.383 . S
C1936 C1937 1.377 . S
C1937 H1921 0.930 . S
C1937 C1936 1.377 . S
C1937 C1938 1.379 . S
C1938 H1922 0.931 . S
C1938 C1932 1.383 . S
C1938 C1937 1.379 . S
H1939 C1933 0.959 . S
H1940 C1933 0.961 . S
H1941 C1933 0.960 . S
H1942 C1934 0.930 . S
H1943 C1935 0.929 . S
H1944 C1952 0.929 . S
H1945 C1954 0.930 . S
H1946 C1956 0.930 . S
H1947 C1959 0.929 . S
H1948 C1962 0.930 . S
H1949 C1964 0.960 . S
H1950 C1964 0.960 . S
H1951 C1964 0.960 . S
C1952 H1944 0.929 . S
C1952 C1953 1.377 . S
C1952 C1954 1.384 . S
C1953 C1952 1.377 . S
C1953 C1959 1.390 1_565 S
C1954 H1945 0.930 . S
C1954 C1952 1.384 . S
C1954 C1955 1.372 . S
C1955 C1954 1.372 . S
C1955 C1956 1.400 1_565 S
C1955 C1960 1.490 . S
C1956 H1946 0.930 . S
C1956 C1955 1.400 1_545 S
C1956 C1959 1.386 . S
H1957 C1973 0.930 . S
H1958 C1974 0.931 . S
C1959 H1947 0.929 . S
C1959 C1953 1.390 1_545 S
C1959 C1956 1.386 . S
C1960 C1955 1.490 . S
C1960 C1962 1.395 . S
C1960 C1963 1.403 1_565 S
H1961 C1967 0.930 . S
C1962 H1948 0.930 . S
C1962 C1960 1.395 . S
C1962 C1965 1.403 . S
C1963 C1960 1.403 1_545 S
C1963 C1964 1.524 . S
C1963 C1967 1.400 . S
C1964 H1949 0.960 . S
C1964 H1950 0.960 . S
C1964 H1951 0.960 . S
C1964 C1963 1.524 . S
C1965 C1962 1.403 . S
C1965 C1966 1.392 . S
C1965 C1969 1.495 . S
C1966 C1965 1.392 . S
C1966 C1967 1.385 1_565 S
C1966 C1968 1.478 . S
C1967 H1961 0.930 . S
C1967 C1963 1.400 . S
C1967 C1966 1.385 1_545 S
C1968 C1966 1.478 . S
C1968 C1970 1.381 . S
C1968 C1974 1.383 1_565 S
C1969 C1965 1.495 . S
C1969 H1975 0.959 . S
C1969 H1976 0.961 . S
C1969 H1977 0.960 . S
C1970 C1968 1.381 . S
C1970 C1971 1.394 . S
C1970 H1978 0.930 . S
C1971 C1970 1.394 . S
C1971 C1972 1.383 1_565 S
C1971 H1979 0.929 . S
C1972 C1971 1.383 1_545 S
C1972 C1973 1.377 . S
C1973 H1957 0.930 . S
C1973 C1972 1.377 . S
C1973 C1974 1.379 . S
C1974 H1958 0.931 . S
C1974 C1968 1.383 1_545 S
C1974 C1973 1.379 . S
H1975 C1969 0.959 . S
H1976 C1969 0.961 . S
H1977 C1969 0.960 . S
H1978 C1970 0.930 . S
H1979 C1971 0.929 . S
H1980 C1988 0.929 . S
H1981 C1990 0.930 . S
H1982 C1992 0.930 . S
H1983 C1995 0.929 . S
H1984 C1998 0.930 . S
H1985 C2000 0.960 . S
H1986 C2000 0.960 . S
H1987 C2000 0.960 . S
C1988 H1980 0.929 . S
C1988 C1989 1.377 1_455 S
C1988 C1990 1.384 . S
C1989 C1988 1.377 1_655 S
C1989 C1995 1.390 . S
C1990 H1981 0.930 . S
C1990 C1988 1.384 . S
C1990 C1991 1.372 1_455 S
C1991 C1990 1.372 1_655 S
C1991 C1992 1.400 . S
C1991 C1996 1.489 1_655 S
C1992 H1982 0.930 . S
C1992 C1991 1.400 . S
C1992 C1995 1.386 . S
H1993 C2009 0.930 . S
H1994 C2010 0.931 . S
C1995 H1983 0.929 . S
C1995 C1989 1.390 . S
C1995 C1992 1.386 . S
C1996 C1991 1.489 1_455 S
C1996 C1998 1.397 . S
C1996 C1999 1.400 1_455 S
H1997 C2003 0.930 . S
C1998 H1984 0.930 . S
C1998 C1996 1.397 . S
C1998 C2001 1.403 . S
C1999 C1996 1.400 1_655 S
C1999 C2000 1.524 . S
C1999 C2003 1.400 . S
C2000 H1985 0.960 . S
C2000 H1986 0.960 . S
C2000 H1987 0.960 . S
C2000 C1999 1.524 . S
C2001 C1998 1.403 . S
C2001 C2002 1.392 . S
C2001 C2005 1.495 . S
C2002 C2001 1.392 . S
C2002 C2003 1.385 1_455 S
C2002 C2004 1.478 . S
C2003 H1997 0.930 . S
C2003 C1999 1.400 . S
C2003 C2002 1.385 1_655 S
C2004 C2002 1.478 . S
C2004 C2006 1.381 . S
C2004 C2010 1.383 1_455 S
C2005 C2001 1.495 . S
C2005 H2011 0.959 . S
C2005 H2012 0.961 . S
C2005 H2013 0.960 . S
C2006 C2004 1.381 . S
C2006 C2007 1.394 . S
C2006 H2014 0.930 . S
C2007 C2006 1.394 . S
C2007 C2008 1.383 . S
C2007 H2015 0.929 . S
C2008 C2007 1.383 . S
C2008 C2009 1.377 1_455 S
C2009 H1993 0.930 . S
C2009 C2008 1.377 1_655 S
C2009 C2010 1.379 . S
C2010 H1994 0.931 . S
C2010 C2004 1.383 1_655 S
C2010 C2009 1.379 . S
H2011 C2005 0.959 . S
H2012 C2005 0.961 . S
H2013 C2005 0.960 . S
H2014 C2006 0.930 . S
H2015 C2007 0.929 . S
H2016 C2024 0.929 . S
H2017 C2026 0.930 . S
H2018 C2028 0.930 . S
H2019 C2031 0.929 . S
H2020 C2034 0.930 . S
H2021 C2036 0.960 . S
H2022 C2036 0.960 . S
H2023 C2036 0.960 . S
C2024 H2016 0.929 . S
C2024 C2025 1.377 . S
C2024 C2026 1.384 . S
C2025 C2024 1.377 . S
C2025 C2031 1.390 . S
C2026 H2017 0.930 . S
C2026 C2024 1.384 . S
C2026 C2027 1.372 . S
C2027 C2026 1.372 . S
C2027 C2028 1.400 . S
C2027 C2032 1.490 . S
C2028 H2018 0.930 . S
C2028 C2027 1.400 . S
C2028 C2031 1.386 . S
H2029 C2045 0.930 . S
H2030 C2046 0.931 . S
C2031 H2019 0.929 . S
C2031 C2025 1.390 . S
C2031 C2028 1.386 . S
C2032 C2027 1.490 . S
C2032 C2034 1.395 . S
C2032 C2035 1.403 . S
H2033 C2039 0.930 . S
C2034 H2020 0.930 . S
C2034 C2032 1.395 . S
C2034 C2037 1.403 . S
C2035 C2032 1.403 . S
C2035 C2036 1.524 . S
C2035 C2039 1.400 . S
C2036 H2021 0.960 . S
C2036 H2022 0.960 . S
C2036 H2023 0.960 . S
C2036 C2035 1.524 . S
C2037 C2034 1.403 . S
C2037 C2038 1.392 . S
C2037 C2041 1.495 . S
C2038 C2037 1.392 . S
C2038 C2039 1.385 . S
C2038 C2040 1.478 . S
C2039 H2033 0.930 . S
C2039 C2035 1.400 . S
C2039 C2038 1.385 . S
C2040 C2038 1.478 . S
C2040 C2042 1.381 . S
C2040 C2046 1.383 . S
C2041 C2037 1.495 . S
C2041 H2047 0.959 . S
C2041 H2048 0.961 . S
C2041 H2049 0.960 . S
C2042 C2040 1.381 . S
C2042 C2043 1.394 . S
C2042 H2050 0.930 . S
C2043 C2042 1.394 . S
C2043 C2044 1.383 . S
C2043 H2051 0.929 . S
C2044 C2043 1.383 . S
C2044 C2045 1.377 . S
C2045 H2029 0.930 . S
C2045 C2044 1.377 . S
C2045 C2046 1.379 . S
C2046 H2030 0.931 . S
C2046 C2040 1.383 . S
C2046 C2045 1.379 . S
H2047 C2041 0.959 . S
H2048 C2041 0.961 . S
H2049 C2041 0.960 . S
H2050 C2042 0.930 . S
H2051 C2043 0.929 . S
H2052 C2060 0.929 . S
H2053 C2062 0.930 . S
H2054 C2064 0.930 . S
H2055 C2067 0.929 . S
H2056 C2070 0.930 . S
H2057 C2072 0.960 . S
H2058 C2072 0.960 . S
H2059 C2072 0.960 . S
C2060 H2052 0.929 . S
C2060 C2061 1.377 . S
C2060 C2062 1.384 . S
C2061 C2060 1.377 . S
C2061 C2067 1.390 . S
C2062 H2053 0.930 . S
C2062 C2060 1.384 . S
C2062 C2063 1.372 . S
C2063 C2062 1.372 . S
C2063 C2064 1.400 . S
C2063 C2068 1.490 . S
C2064 H2054 0.930 . S
C2064 C2063 1.400 . S
C2064 C2067 1.386 . S
H2065 C2081 0.930 . S
H2066 C2082 0.931 . S
C2067 H2055 0.929 . S
C2067 C2061 1.390 . S
C2067 C2064 1.386 . S
C2068 C2063 1.490 . S
C2068 C2070 1.395 . S
C2068 C2071 1.403 . S
H2069 C2075 0.930 . S
C2070 H2056 0.930 . S
C2070 C2068 1.395 . S
C2070 C2073 1.403 . S
C2071 C2068 1.403 . S
C2071 C2072 1.524 . S
C2071 C2075 1.400 . S
C2072 H2057 0.960 . S
C2072 H2058 0.960 . S
C2072 H2059 0.960 . S
C2072 C2071 1.524 . S
C2073 C2070 1.403 . S
C2073 C2074 1.392 . S
C2073 C2077 1.495 . S
C2074 C2073 1.392 . S
C2074 C2075 1.385 . S
C2074 C2076 1.478 . S
C2075 H2069 0.930 . S
C2075 C2071 1.400 . S
C2075 C2074 1.385 . S
C2076 C2074 1.478 . S
C2076 C2078 1.381 . S
C2076 C2082 1.383 . S
C2077 C2073 1.495 . S
C2077 H2083 0.959 . S
C2077 H2084 0.961 . S
C2077 H2085 0.960 . S
C2078 C2076 1.381 . S
C2078 C2079 1.394 . S
C2078 H2086 0.930 . S
C2079 C2078 1.394 . S
C2079 C2080 1.383 . S
C2079 H2087 0.929 . S
C2080 C2079 1.383 . S
C2080 C2081 1.377 . S
C2081 H2065 0.930 . S
C2081 C2080 1.377 . S
C2081 C2082 1.379 . S
C2082 H2066 0.931 . S
C2082 C2076 1.383 . S
C2082 C2081 1.379 . S
H2083 C2077 0.959 . S
H2084 C2077 0.961 . S
H2085 C2077 0.960 . S
H2086 C2078 0.930 . S
H2087 C2079 0.929 . S
H2088 C2096 0.929 . S
H2089 C2098 0.930 . S
H2090 C2100 0.930 . S
H2091 C2103 0.929 . S
H2092 C2106 0.930 . S
H2093 C2108 0.960 . S
H2094 C2108 0.960 . S
H2095 C2108 0.960 . S
C2096 H2088 0.929 . S
C2096 C2097 1.377 . S
C2096 C2098 1.384 . S
C2097 C2096 1.377 . S
C2097 C2103 1.390 . S
C2098 H2089 0.930 . S
C2098 C2096 1.384 . S
C2098 C2099 1.372 . S
C2099 C2098 1.372 . S
C2099 C2100 1.400 . S
C2099 C2104 1.490 . S
C2100 H2090 0.930 . S
C2100 C2099 1.400 . S
C2100 C2103 1.386 . S
H2101 C2117 0.930 . S
H2102 C2118 0.931 . S
C2103 H2091 0.929 . S
C2103 C2097 1.390 . S
C2103 C2100 1.386 . S
C2104 C2099 1.490 . S
C2104 C2106 1.395 . S
C2104 C2107 1.403 . S
H2105 C2111 0.930 . S
C2106 H2092 0.930 . S
C2106 C2104 1.395 . S
C2106 C2109 1.403 . S
C2107 C2104 1.403 . S
C2107 C2108 1.524 . S
C2107 C2111 1.400 . S
C2108 H2093 0.960 . S
C2108 H2094 0.960 . S
C2108 H2095 0.960 . S
C2108 C2107 1.524 . S
C2109 C2106 1.403 . S
C2109 C2110 1.392 . S
C2109 C2113 1.495 . S
C2110 C2109 1.392 . S
C2110 C2111 1.385 . S
C2110 C2112 1.478 . S
C2111 H2105 0.930 . S
C2111 C2107 1.400 . S
C2111 C2110 1.385 . S
C2112 C2110 1.478 . S
C2112 C2114 1.381 . S
C2112 C2118 1.383 . S
C2113 C2109 1.495 . S
C2113 H2119 0.959 . S
C2113 H2120 0.961 . S
C2113 H2121 0.960 . S
C2114 C2112 1.381 . S
C2114 C2115 1.394 . S
C2114 H2122 0.930 . S
C2115 C2114 1.394 . S
C2115 C2116 1.383 . S
C2115 H2123 0.929 . S
C2116 C2115 1.383 . S
C2116 C2117 1.377 . S
C2117 H2101 0.930 . S
C2117 C2116 1.377 . S
C2117 C2118 1.379 . S
C2118 H2102 0.931 . S
C2118 C2112 1.383 . S
C2118 C2117 1.379 . S
H2119 C2113 0.959 . S
H2120 C2113 0.961 . S
H2121 C2113 0.960 . S
H2122 C2114 0.930 . S
H2123 C2115 0.929 . S
H2124 C2132 0.929 . S
H2125 C2134 0.930 . S
H2126 C2136 0.930 . S
H2127 C2139 0.929 . S
H2128 C2142 0.930 . S
H2129 C2144 0.960 . S
H2130 C2144 0.960 . S
H2131 C2144 0.960 . S
C2132 H2124 0.929 . S
C2132 C2133 1.377 . S
C2132 C2134 1.384 . S
C2133 C2132 1.377 . S
C2133 C2139 1.390 . S
C2134 H2125 0.930 . S
C2134 C2132 1.384 . S
C2134 C2135 1.372 . S
C2135 C2134 1.372 . S
C2135 C2136 1.400 . S
C2135 C2140 1.490 . S
C2136 H2126 0.930 . S
C2136 C2135 1.400 . S
C2136 C2139 1.386 . S
H2137 C2153 0.930 . S
H2138 C2154 0.931 . S
C2139 H2127 0.929 . S
C2139 C2133 1.390 . S
C2139 C2136 1.386 . S
C2140 C2135 1.490 . S
C2140 C2142 1.395 . S
C2140 C2143 1.403 . S
H2141 C2147 0.930 . S
C2142 H2128 0.930 . S
C2142 C2140 1.395 . S
C2142 C2145 1.403 . S
C2143 C2140 1.403 . S
C2143 C2144 1.524 . S
C2143 C2147 1.400 . S
C2144 H2129 0.960 . S
C2144 H2130 0.960 . S
C2144 H2131 0.960 . S
C2144 C2143 1.524 . S
C2145 C2142 1.403 . S
C2145 C2146 1.392 . S
C2145 C2149 1.495 . S
C2146 C2145 1.392 . S
C2146 C2147 1.385 . S
C2146 C2148 1.478 . S
C2147 H2141 0.930 . S
C2147 C2143 1.400 . S
C2147 C2146 1.385 . S
C2148 C2146 1.478 . S
C2148 C2150 1.381 . S
C2148 C2154 1.383 . S
C2149 C2145 1.495 . S
C2149 H2155 0.959 . S
C2149 H2156 0.961 . S
C2149 H2157 0.960 . S
C2150 C2148 1.381 . S
C2150 C2151 1.394 . S
C2150 H2158 0.930 . S
C2151 C2150 1.394 . S
C2151 C2152 1.383 . S
C2151 H2159 0.929 . S
C2152 C2151 1.383 . S
C2152 C2153 1.377 . S
C2153 H2137 0.930 . S
C2153 C2152 1.377 . S
C2153 C2154 1.379 . S
C2154 H2138 0.931 . S
C2154 C2148 1.383 . S
C2154 C2153 1.379 . S
H2155 C2149 0.959 . S
H2156 C2149 0.961 . S
H2157 C2149 0.960 . S
H2158 C2150 0.930 . S
H2159 C2151 0.929 . S
H2160 C2168 0.929 . S
H2161 C2170 0.930 . S
H2162 C2172 0.930 . S
H2163 C2175 0.929 . S
H2164 C2178 0.930 . S
H2165 C2180 0.960 . S
H2166 C2180 0.960 . S
H2167 C2180 0.960 . S
C2168 H2160 0.929 . S
C2168 C2169 1.377 . S
C2168 C2170 1.384 . S
C2169 C2168 1.377 . S
C2169 C2175 1.390 . S
C2170 H2161 0.930 . S
C2170 C2168 1.384 . S
C2170 C2171 1.372 . S
C2171 C2170 1.372 . S
C2171 C2172 1.400 . S
C2171 C2176 1.490 . S
C2172 H2162 0.930 . S
C2172 C2171 1.400 . S
C2172 C2175 1.386 . S
H2173 C2189 0.930 . S
H2174 C2190 0.931 . S
C2175 H2163 0.929 . S
C2175 C2169 1.390 . S
C2175 C2172 1.386 . S
C2176 C2171 1.490 . S
C2176 C2178 1.395 . S
C2176 C2179 1.403 . S
H2177 C2183 0.930 . S
C2178 H2164 0.930 . S
C2178 C2176 1.395 . S
C2178 C2181 1.403 . S
C2179 C2176 1.403 . S
C2179 C2180 1.524 . S
C2179 C2183 1.400 . S
C2180 H2165 0.960 . S
C2180 H2166 0.960 . S
C2180 H2167 0.960 . S
C2180 C2179 1.524 . S
C2181 C2178 1.403 . S
C2181 C2182 1.392 . S
C2181 C2185 1.495 . S
C2182 C2181 1.392 . S
C2182 C2183 1.385 . S
C2182 C2184 1.478 . S
C2183 H2177 0.930 . S
C2183 C2179 1.400 . S
C2183 C2182 1.385 . S
C2184 C2182 1.478 . S
C2184 C2186 1.381 . S
C2184 C2190 1.383 . S
C2185 C2181 1.495 . S
C2185 H2191 0.959 . S
C2185 H2192 0.961 . S
C2185 H2193 0.960 . S
C2186 C2184 1.381 . S
C2186 C2187 1.394 . S
C2186 H2194 0.930 . S
C2187 C2186 1.394 . S
C2187 C2188 1.383 . S
C2187 H2195 0.929 . S
C2188 C2187 1.383 . S
C2188 C2189 1.377 . S
C2189 H2173 0.930 . S
C2189 C2188 1.377 . S
C2189 C2190 1.379 . S
C2190 H2174 0.931 . S
C2190 C2184 1.383 . S
C2190 C2189 1.379 . S
H2191 C2185 0.959 . S
H2192 C2185 0.961 . S
H2193 C2185 0.960 . S
H2194 C2186 0.930 . S
H2195 C2187 0.929 . S
H2196 C2204 0.929 . S
H2197 C2206 0.930 . S
H2198 C2208 0.930 . S
H2199 C2211 0.929 . S
H2200 C2214 0.930 . S
H2201 C2216 0.960 . S
H2202 C2216 0.960 . S
H2203 C2216 0.960 . S
C2204 H2196 0.929 . S
C2204 C2205 1.377 . S
C2204 C2206 1.384 . S
C2205 C2204 1.377 . S
C2205 C2211 1.390 . S
C2206 H2197 0.930 . S
C2206 C2204 1.384 . S
C2206 C2207 1.372 . S
C2207 C2206 1.372 . S
C2207 C2208 1.400 . S
C2207 C2212 1.490 . S
C2208 H2198 0.930 . S
C2208 C2207 1.400 . S
C2208 C2211 1.386 . S
H2209 C2225 0.930 . S
H2210 C2226 0.931 . S
C2211 H2199 0.929 . S
C2211 C2205 1.390 . S
C2211 C2208 1.386 . S
C2212 C2207 1.490 . S
C2212 C2214 1.395 . S
C2212 C2215 1.403 . S
H2213 C2219 0.930 . S
C2214 H2200 0.930 . S
C2214 C2212 1.395 . S
C2214 C2217 1.403 . S
C2215 C2212 1.403 . S
C2215 C2216 1.524 . S
C2215 C2219 1.400 . S
C2216 H2201 0.960 . S
C2216 H2202 0.960 . S
C2216 H2203 0.960 . S
C2216 C2215 1.524 . S
C2217 C2214 1.403 . S
C2217 C2218 1.392 . S
C2217 C2221 1.495 . S
C2218 C2217 1.392 . S
C2218 C2219 1.385 . S
C2218 C2220 1.478 . S
C2219 H2213 0.930 . S
C2219 C2215 1.400 . S
C2219 C2218 1.385 . S
C2220 C2218 1.478 . S
C2220 C2222 1.381 . S
C2220 C2226 1.383 . S
C2221 C2217 1.495 . S
C2221 H2227 0.959 . S
C2221 H2228 0.961 . S
C2221 H2229 0.960 . S
C2222 C2220 1.381 . S
C2222 C2223 1.394 . S
C2222 H2230 0.930 . S
C2223 C2222 1.394 . S
C2223 C2224 1.383 . S
C2223 H2231 0.929 . S
C2224 C2223 1.383 . S
C2224 C2225 1.377 . S
C2225 H2209 0.930 . S
C2225 C2224 1.377 . S
C2225 C2226 1.379 . S
C2226 H2210 0.931 . S
C2226 C2220 1.383 . S
C2226 C2225 1.379 . S
H2227 C2221 0.959 . S
H2228 C2221 0.961 . S
H2229 C2221 0.960 . S
H2230 C2222 0.930 . S
H2231 C2223 0.929 . S
H2232 C2240 0.929 . S
H2233 C2242 0.930 . S
H2234 C2244 0.930 . S
H2235 C2247 0.929 . S
H2236 C2250 0.930 . S
H2237 C2252 0.960 . S
H2238 C2252 0.960 . S
H2239 C2252 0.960 . S
C2240 H2232 0.929 . S
C2240 C2241 1.377 . S
C2240 C2242 1.384 . S
C2241 C2240 1.377 . S
C2241 C2247 1.390 . S
C2242 H2233 0.930 . S
C2242 C2240 1.384 . S
C2242 C2243 1.372 . S
C2243 C2242 1.372 . S
C2243 C2244 1.400 . S
C2243 C2248 1.490 . S
C2244 H2234 0.930 . S
C2244 C2243 1.400 . S
C2244 C2247 1.386 . S
H2245 C2261 0.930 . S
H2246 C2262 0.931 . S
C2247 H2235 0.929 . S
C2247 C2241 1.390 . S
C2247 C2244 1.386 . S
C2248 C2243 1.490 . S
C2248 C2250 1.395 . S
C2248 C2251 1.403 . S
H2249 C2255 0.930 . S
C2250 H2236 0.930 . S
C2250 C2248 1.395 . S
C2250 C2253 1.403 . S
C2251 C2248 1.403 . S
C2251 C2252 1.524 . S
C2251 C2255 1.400 . S
C2252 H2237 0.960 . S
C2252 H2238 0.960 . S
C2252 H2239 0.960 . S
C2252 C2251 1.524 . S
C2253 C2250 1.403 . S
C2253 C2254 1.392 . S
C2253 C2257 1.495 . S
C2254 C2253 1.392 . S
C2254 C2255 1.385 . S
C2254 C2256 1.478 . S
C2255 H2249 0.930 . S
C2255 C2251 1.400 . S
C2255 C2254 1.385 . S
C2256 C2254 1.478 . S
C2256 C2258 1.381 . S
C2256 C2262 1.383 . S
C2257 C2253 1.495 . S
C2257 H2263 0.959 . S
C2257 H2264 0.961 . S
C2257 H2265 0.960 . S
C2258 C2256 1.381 . S
C2258 C2259 1.394 . S
C2258 H2266 0.930 . S
C2259 C2258 1.394 . S
C2259 C2260 1.383 . S
C2259 H2267 0.929 . S
C2260 C2259 1.383 . S
C2260 C2261 1.377 . S
C2261 H2245 0.930 . S
C2261 C2260 1.377 . S
C2261 C2262 1.379 . S
C2262 H2246 0.931 . S
C2262 C2256 1.383 . S
C2262 C2261 1.379 . S
H2263 C2257 0.959 . S
H2264 C2257 0.961 . S
H2265 C2257 0.960 . S
H2266 C2258 0.930 . S
H2267 C2259 0.929 . S
H2268 C2276 0.929 . S
H2269 C2278 0.930 . S
H2270 C2280 0.930 . S
H2271 C2283 0.929 . S
H2272 C2286 0.930 . S
H2273 C2288 0.960 . S
H2274 C2288 0.960 . S
H2275 C2288 0.960 . S
C2276 H2268 0.929 . S
C2276 C2277 1.377 . S
C2276 C2278 1.384 . S
C2277 C2276 1.377 . S
C2277 C2283 1.390 . S
C2278 H2269 0.930 . S
C2278 C2276 1.384 . S
C2278 C2279 1.372 . S
C2279 C2278 1.372 . S
C2279 C2280 1.400 . S
C2279 C2284 1.490 . S
C2280 H2270 0.930 . S
C2280 C2279 1.400 . S
C2280 C2283 1.386 . S
H2281 C2297 0.930 . S
H2282 C2298 0.931 . S
C2283 H2271 0.929 . S
C2283 C2277 1.390 . S
C2283 C2280 1.386 . S
C2284 C2279 1.490 . S
C2284 C2286 1.395 . S
C2284 C2287 1.403 . S
H2285 C2291 0.930 . S
C2286 H2272 0.930 . S
C2286 C2284 1.395 . S
C2286 C2289 1.403 . S
C2287 C2284 1.403 . S
C2287 C2288 1.524 . S
C2287 C2291 1.400 . S
C2288 H2273 0.960 . S
C2288 H2274 0.960 . S
C2288 H2275 0.960 . S
C2288 C2287 1.524 . S
C2289 C2286 1.403 . S
C2289 C2290 1.392 . S
C2289 C2293 1.495 . S
C2290 C2289 1.392 . S
C2290 C2291 1.385 . S
C2290 C2292 1.478 . S
C2291 H2285 0.930 . S
C2291 C2287 1.400 . S
C2291 C2290 1.385 . S
C2292 C2290 1.478 . S
C2292 C2294 1.381 . S
C2292 C2298 1.383 . S
C2293 C2289 1.495 . S
C2293 H2299 0.959 . S
C2293 H2300 0.961 . S
C2293 H2301 0.960 . S
C2294 C2292 1.381 . S
C2294 C2295 1.394 . S
C2294 H2302 0.930 . S
C2295 C2294 1.394 . S
C2295 C2296 1.383 . S
C2295 H2303 0.929 . S
C2296 C2295 1.383 . S
C2296 C2297 1.377 . S
C2297 H2281 0.930 . S
C2297 C2296 1.377 . S
C2297 C2298 1.379 . S
C2298 H2282 0.931 . S
C2298 C2292 1.383 . S
C2298 C2297 1.379 . S
H2299 C2293 0.959 . S
H2300 C2293 0.961 . S
H2301 C2293 0.960 . S
H2302 C2294 0.930 . S
H2303 C2295 0.929 . S
H2304 C2312 0.929 . S
H2305 C2314 0.930 . S
H2306 C2316 0.930 . S
H2307 C2319 0.929 . S
H2308 C2322 0.930 . S
H2309 C2324 0.960 . S
H2310 C2324 0.960 . S
H2311 C2324 0.960 . S
C2312 H2304 0.929 . S
C2312 C2313 1.377 . S
C2312 C2314 1.384 . S
C2313 C2312 1.377 . S
C2313 C2319 1.390 . S
C2314 H2305 0.930 . S
C2314 C2312 1.384 . S
C2314 C2315 1.372 . S
C2315 C2314 1.372 . S
C2315 C2316 1.400 . S
C2315 C2320 1.490 . S
C2316 H2306 0.930 . S
C2316 C2315 1.400 . S
C2316 C2319 1.386 . S
H2317 C2333 0.930 . S
H2318 C2334 0.931 . S
C2319 H2307 0.929 . S
C2319 C2313 1.390 . S
C2319 C2316 1.386 . S
C2320 C2315 1.490 . S
C2320 C2322 1.395 . S
C2320 C2323 1.403 . S
H2321 C2327 0.930 . S
C2322 H2308 0.930 . S
C2322 C2320 1.395 . S
C2322 C2325 1.403 . S
C2323 C2320 1.403 . S
C2323 C2324 1.524 . S
C2323 C2327 1.400 . S
C2324 H2309 0.960 . S
C2324 H2310 0.960 . S
C2324 H2311 0.960 . S
C2324 C2323 1.524 . S
C2325 C2322 1.403 . S
C2325 C2326 1.392 . S
C2325 C2329 1.495 . S
C2326 C2325 1.392 . S
C2326 C2327 1.385 . S
C2326 C2328 1.478 . S
C2327 H2321 0.930 . S
C2327 C2323 1.400 . S
C2327 C2326 1.385 . S
C2328 C2326 1.478 . S
C2328 C2330 1.381 . S
C2328 C2334 1.383 . S
C2329 C2325 1.495 . S
C2329 H2335 0.959 . S
C2329 H2336 0.961 . S
C2329 H2337 0.960 . S
C2330 C2328 1.381 . S
C2330 C2331 1.394 . S
C2330 H2338 0.930 . S
C2331 C2330 1.394 . S
C2331 C2332 1.383 . S
C2331 H2339 0.929 . S
C2332 C2331 1.383 . S
C2332 C2333 1.377 . S
C2333 H2317 0.930 . S
C2333 C2332 1.377 . S
C2333 C2334 1.379 . S
C2334 H2318 0.931 . S
C2334 C2328 1.383 . S
C2334 C2333 1.379 . S
H2335 C2329 0.959 . S
H2336 C2329 0.961 . S
H2337 C2329 0.960 . S
H2338 C2330 0.930 . S
H2339 C2331 0.929 . S
H2340 C2348 0.929 . S
H2341 C2350 0.930 . S
H2342 C2352 0.930 . S
H2343 C2355 0.929 . S
H2344 C2358 0.930 . S
H2345 C2360 0.960 . S
H2346 C2360 0.960 . S
H2347 C2360 0.960 . S
C2348 H2340 0.929 . S
C2348 C2349 1.377 . S
C2348 C2350 1.384 . S
C2349 C2348 1.377 . S
C2349 C2355 1.390 . S
C2350 H2341 0.930 . S
C2350 C2348 1.384 . S
C2350 C2351 1.372 . S
C2351 C2350 1.372 . S
C2351 C2352 1.400 . S
C2351 C2356 1.490 . S
C2352 H2342 0.930 . S
C2352 C2351 1.400 . S
C2352 C2355 1.386 . S
H2353 C2369 0.930 . S
H2354 C2370 0.931 . S
C2355 H2343 0.929 . S
C2355 C2349 1.390 . S
C2355 C2352 1.386 . S
C2356 C2351 1.490 . S
C2356 C2358 1.395 . S
C2356 C2359 1.403 . S
H2357 C2363 0.930 . S
C2358 H2344 0.930 . S
C2358 C2356 1.395 . S
C2358 C2361 1.403 . S
C2359 C2356 1.403 . S
C2359 C2360 1.524 . S
C2359 C2363 1.400 . S
C2360 H2345 0.960 . S
C2360 H2346 0.960 . S
C2360 H2347 0.960 . S
C2360 C2359 1.524 . S
C2361 C2358 1.403 . S
C2361 C2362 1.392 . S
C2361 C2365 1.495 . S
C2362 C2361 1.392 . S
C2362 C2363 1.385 . S
C2362 C2364 1.478 . S
C2363 H2357 0.930 . S
C2363 C2359 1.400 . S
C2363 C2362 1.385 . S
C2364 C2362 1.478 . S
C2364 C2366 1.381 . S
C2364 C2370 1.383 . S
C2365 C2361 1.495 . S
C2365 H2371 0.959 . S
C2365 H2372 0.961 . S
C2365 H2373 0.960 . S
C2366 C2364 1.381 . S
C2366 C2367 1.394 . S
C2366 H2374 0.930 . S
C2367 C2366 1.394 . S
C2367 C2368 1.383 . S
C2367 H2375 0.929 . S
C2368 C2367 1.383 . S
C2368 C2369 1.377 . S
C2369 H2353 0.930 . S
C2369 C2368 1.377 . S
C2369 C2370 1.379 . S
C2370 H2354 0.931 . S
C2370 C2364 1.383 . S
C2370 C2369 1.379 . S
H2371 C2365 0.959 . S
H2372 C2365 0.961 . S
H2373 C2365 0.960 . S
H2374 C2366 0.930 . S
H2375 C2367 0.929 . S
H2376 C2384 0.929 . S
H2377 C2386 0.930 . S
H2378 C2388 0.930 . S
H2379 C2391 0.929 . S
H2380 C2394 0.930 . S
H2381 C2396 0.960 . S
H2382 C2396 0.960 . S
H2383 C2396 0.960 . S
C2384 H2376 0.929 . S
C2384 C2385 1.377 . S
C2384 C2386 1.384 . S
C2385 C2384 1.377 . S
C2385 C2391 1.390 . S
C2386 H2377 0.930 . S
C2386 C2384 1.384 . S
C2386 C2387 1.372 . S
C2387 C2386 1.372 . S
C2387 C2388 1.400 . S
C2387 C2392 1.490 . S
C2388 H2378 0.930 . S
C2388 C2387 1.400 . S
C2388 C2391 1.386 . S
H2389 C2405 0.930 . S
H2390 C2406 0.931 . S
C2391 H2379 0.929 . S
C2391 C2385 1.390 . S
C2391 C2388 1.386 . S
C2392 C2387 1.490 . S
C2392 C2394 1.395 . S
C2392 C2395 1.403 . S
H2393 C2399 0.930 . S
C2394 H2380 0.930 . S
C2394 C2392 1.395 . S
C2394 C2397 1.403 . S
C2395 C2392 1.403 . S
C2395 C2396 1.524 . S
C2395 C2399 1.400 . S
C2396 H2381 0.960 . S
C2396 H2382 0.960 . S
C2396 H2383 0.960 . S
C2396 C2395 1.524 . S
C2397 C2394 1.403 . S
C2397 C2398 1.392 . S
C2397 C2401 1.495 . S
C2398 C2397 1.392 . S
C2398 C2399 1.385 . S
C2398 C2400 1.478 . S
C2399 H2393 0.930 . S
C2399 C2395 1.400 . S
C2399 C2398 1.385 . S
C2400 C2398 1.478 . S
C2400 C2402 1.381 . S
C2400 C2406 1.383 . S
C2401 C2397 1.495 . S
C2401 H2407 0.959 . S
C2401 H2408 0.961 . S
C2401 H2409 0.960 . S
C2402 C2400 1.381 . S
C2402 C2403 1.394 . S
C2402 H2410 0.930 . S
C2403 C2402 1.394 . S
C2403 C2404 1.383 . S
C2403 H2411 0.929 . S
C2404 C2403 1.383 . S
C2404 C2405 1.377 . S
C2405 H2389 0.930 . S
C2405 C2404 1.377 . S
C2405 C2406 1.379 . S
C2406 H2390 0.931 . S
C2406 C2400 1.383 . S
C2406 C2405 1.379 . S
H2407 C2401 0.959 . S
H2408 C2401 0.961 . S
H2409 C2401 0.960 . S
H2410 C2402 0.930 . S
H2411 C2403 0.929 . S
H2412 C2420 0.929 . S
H2413 C2422 0.930 . S
H2414 C2424 0.930 . S
H2415 C2427 0.929 . S
H2416 C2430 0.930 . S
H2417 C2432 0.960 . S
H2418 C2432 0.960 . S
H2419 C2432 0.960 . S
C2420 H2412 0.929 . S
C2420 C2421 1.377 . S
C2420 C2422 1.384 . S
C2421 C2420 1.377 . S
C2421 C2427 1.390 . S
C2422 H2413 0.930 . S
C2422 C2420 1.384 . S
C2422 C2423 1.372 . S
C2423 C2422 1.372 . S
C2423 C2424 1.400 . S
C2423 C2428 1.490 . S
C2424 H2414 0.930 . S
C2424 C2423 1.400 . S
C2424 C2427 1.386 . S
H2425 C2441 0.930 . S
H2426 C2442 0.931 . S
C2427 H2415 0.929 . S
C2427 C2421 1.390 . S
C2427 C2424 1.386 . S
C2428 C2423 1.490 . S
C2428 C2430 1.395 . S
C2428 C2431 1.403 . S
H2429 C2435 0.930 . S
C2430 H2416 0.930 . S
C2430 C2428 1.395 . S
C2430 C2433 1.403 . S
C2431 C2428 1.403 . S
C2431 C2432 1.524 . S
C2431 C2435 1.400 . S
C2432 H2417 0.960 . S
C2432 H2418 0.960 . S
C2432 H2419 0.960 . S
C2432 C2431 1.524 . S
C2433 C2430 1.403 . S
C2433 C2434 1.392 . S
C2433 C2437 1.495 . S
C2434 C2433 1.392 . S
C2434 C2435 1.385 . S
C2434 C2436 1.478 . S
C2435 H2429 0.930 . S
C2435 C2431 1.400 . S
C2435 C2434 1.385 . S
C2436 C2434 1.478 . S
C2436 C2438 1.381 . S
C2436 C2442 1.383 . S
C2437 C2433 1.495 . S
C2437 H2443 0.959 . S
C2437 H2444 0.961 . S
C2437 H2445 0.960 . S
C2438 C2436 1.381 . S
C2438 C2439 1.394 . S
C2438 H2446 0.930 . S
C2439 C2438 1.394 . S
C2439 C2440 1.383 . S
C2439 H2447 0.929 . S
C2440 C2439 1.383 . S
C2440 C2441 1.377 . S
C2441 H2425 0.930 . S
C2441 C2440 1.377 . S
C2441 C2442 1.379 . S
C2442 H2426 0.931 . S
C2442 C2436 1.383 . S
C2442 C2441 1.379 . S
H2443 C2437 0.959 . S
H2444 C2437 0.961 . S
H2445 C2437 0.960 . S
H2446 C2438 0.930 . S
H2447 C2439 0.929 . S
H2448 C2456 0.929 . S
H2449 C2458 0.930 . S
H2450 C2460 0.930 . S
H2451 C2463 0.929 . S
H2452 C2466 0.930 . S
H2453 C2468 0.960 . S
H2454 C2468 0.960 . S
H2455 C2468 0.960 . S
C2456 H2448 0.929 . S
C2456 C2457 1.377 . S
C2456 C2458 1.384 . S
C2457 C2456 1.377 . S
C2457 C2463 1.390 . S
C2458 H2449 0.930 . S
C2458 C2456 1.384 . S
C2458 C2459 1.372 . S
C2459 C2458 1.372 . S
C2459 C2460 1.400 . S
C2459 C2464 1.490 . S
C2460 H2450 0.930 . S
C2460 C2459 1.400 . S
C2460 C2463 1.386 . S
H2461 C2477 0.930 . S
H2462 C2478 0.931 . S
C2463 H2451 0.929 . S
C2463 C2457 1.390 . S
C2463 C2460 1.386 . S
C2464 C2459 1.490 . S
C2464 C2466 1.395 . S
C2464 C2467 1.403 . S
H2465 C2471 0.930 . S
C2466 H2452 0.930 . S
C2466 C2464 1.395 . S
C2466 C2469 1.403 . S
C2467 C2464 1.403 . S
C2467 C2468 1.524 . S
C2467 C2471 1.400 . S
C2468 H2453 0.960 . S
C2468 H2454 0.960 . S
C2468 H2455 0.960 . S
C2468 C2467 1.524 . S
C2469 C2466 1.403 . S
C2469 C2470 1.392 . S
C2469 C2473 1.495 . S
C2470 C2469 1.392 . S
C2470 C2471 1.385 . S
C2470 C2472 1.478 . S
C2471 H2465 0.930 . S
C2471 C2467 1.400 . S
C2471 C2470 1.385 . S
C2472 C2470 1.478 . S
C2472 C2474 1.381 . S
C2472 C2478 1.383 . S
C2473 C2469 1.495 . S
C2473 H2479 0.959 . S
C2473 H2480 0.961 . S
C2473 H2481 0.960 . S
C2474 C2472 1.381 . S
C2474 C2475 1.394 . S
C2474 H2482 0.930 . S
C2475 C2474 1.394 . S
C2475 C2476 1.383 . S
C2475 H2483 0.929 . S
C2476 C2475 1.383 . S
C2476 C2477 1.377 . S
C2477 H2461 0.930 . S
C2477 C2476 1.377 . S
C2477 C2478 1.379 . S
C2478 H2462 0.931 . S
C2478 C2472 1.383 . S
C2478 C2477 1.379 . S
H2479 C2473 0.959 . S
H2480 C2473 0.961 . S
H2481 C2473 0.960 . S
H2482 C2474 0.930 . S
H2483 C2475 0.929 . S
H2484 C2492 0.929 . S
H2485 C2494 0.930 . S
H2486 C2496 0.930 . S
H2487 C2499 0.929 . S
H2488 C2502 0.930 . S
H2489 C2504 0.960 . S
H2490 C2504 0.960 . S
H2491 C2504 0.960 . S
C2492 H2484 0.929 . S
C2492 C2493 1.377 . S
C2492 C2494 1.384 . S
C2493 C2492 1.377 . S
C2493 C2499 1.390 . S
C2494 H2485 0.930 . S
C2494 C2492 1.384 . S
C2494 C2495 1.372 . S
C2495 C2494 1.372 . S
C2495 C2496 1.400 . S
C2495 C2500 1.490 . S
C2496 H2486 0.930 . S
C2496 C2495 1.400 . S
C2496 C2499 1.386 . S
H2497 C2513 0.930 . S
H2498 C2514 0.931 . S
C2499 H2487 0.929 . S
C2499 C2493 1.390 . S
C2499 C2496 1.386 . S
C2500 C2495 1.490 . S
C2500 C2502 1.395 . S
C2500 C2503 1.403 . S
H2501 C2507 0.930 . S
C2502 H2488 0.930 . S
C2502 C2500 1.395 . S
C2502 C2505 1.403 . S
C2503 C2500 1.403 . S
C2503 C2504 1.524 . S
C2503 C2507 1.400 . S
C2504 H2489 0.960 . S
C2504 H2490 0.960 . S
C2504 H2491 0.960 . S
C2504 C2503 1.524 . S
C2505 C2502 1.403 . S
C2505 C2506 1.392 . S
C2505 C2509 1.495 . S
C2506 C2505 1.392 . S
C2506 C2507 1.385 . S
C2506 C2508 1.478 . S
C2507 H2501 0.930 . S
C2507 C2503 1.400 . S
C2507 C2506 1.385 . S
C2508 C2506 1.478 . S
C2508 C2510 1.381 . S
C2508 C2514 1.383 . S
C2509 C2505 1.495 . S
C2509 H2515 0.959 . S
C2509 H2516 0.961 . S
C2509 H2517 0.960 . S
C2510 C2508 1.381 . S
C2510 C2511 1.394 . S
C2510 H2518 0.930 . S
C2511 C2510 1.394 . S
C2511 C2512 1.383 . S
C2511 H2519 0.929 . S
C2512 C2511 1.383 . S
C2512 C2513 1.377 . S
C2513 H2497 0.930 . S
C2513 C2512 1.377 . S
C2513 C2514 1.379 . S
C2514 H2498 0.931 . S
C2514 C2508 1.383 . S
C2514 C2513 1.379 . S
H2515 C2509 0.959 . S
H2516 C2509 0.961 . S
H2517 C2509 0.960 . S
H2518 C2510 0.930 . S
H2519 C2511 0.929 . S
H2520 C2528 0.929 . S
H2521 C2530 0.930 . S
H2522 C2532 0.930 . S
H2523 C2535 0.929 . S
H2524 C2538 0.930 . S
H2525 C2540 0.960 . S
H2526 C2540 0.960 . S
H2527 C2540 0.960 . S
C2528 H2520 0.929 . S
C2528 C2529 1.377 . S
C2528 C2530 1.384 . S
C2529 C2528 1.377 . S
C2529 C2535 1.390 . S
C2530 H2521 0.930 . S
C2530 C2528 1.384 . S
C2530 C2531 1.372 . S
C2531 C2530 1.372 . S
C2531 C2532 1.400 . S
C2531 C2536 1.490 . S
C2532 H2522 0.930 . S
C2532 C2531 1.400 . S
C2532 C2535 1.386 . S
H2533 C2549 0.930 . S
H2534 C2550 0.931 . S
C2535 H2523 0.929 . S
C2535 C2529 1.390 . S
C2535 C2532 1.386 . S
C2536 C2531 1.490 . S
C2536 C2538 1.395 . S
C2536 C2539 1.403 . S
H2537 C2543 0.930 . S
C2538 H2524 0.930 . S
C2538 C2536 1.395 . S
C2538 C2541 1.403 . S
C2539 C2536 1.403 . S
C2539 C2540 1.524 . S
C2539 C2543 1.400 . S
C2540 H2525 0.960 . S
C2540 H2526 0.960 . S
C2540 H2527 0.960 . S
C2540 C2539 1.524 . S
C2541 C2538 1.403 . S
C2541 C2542 1.392 . S
C2541 C2545 1.495 . S
C2542 C2541 1.392 . S
C2542 C2543 1.385 . S
C2542 C2544 1.478 . S
C2543 H2537 0.930 . S
C2543 C2539 1.400 . S
C2543 C2542 1.385 . S
C2544 C2542 1.478 . S
C2544 C2546 1.381 . S
C2544 C2550 1.383 . S
C2545 C2541 1.495 . S
C2545 H2551 0.959 . S
C2545 H2552 0.961 . S
C2545 H2553 0.960 . S
C2546 C2544 1.381 . S
C2546 C2547 1.394 . S
C2546 H2554 0.930 . S
C2547 C2546 1.394 . S
C2547 C2548 1.383 . S
C2547 H2555 0.929 . S
C2548 C2547 1.383 . S
C2548 C2549 1.377 . S
C2549 H2533 0.930 . S
C2549 C2548 1.377 . S
C2549 C2550 1.379 . S
C2550 H2534 0.931 . S
C2550 C2544 1.383 . S
C2550 C2549 1.379 . S
H2551 C2545 0.959 . S
H2552 C2545 0.961 . S
H2553 C2545 0.960 . S
H2554 C2546 0.930 . S
H2555 C2547 0.929 . S
H2556 C2564 0.929 . S
H2557 C2566 0.930 . S
H2558 C2568 0.930 . S
H2559 C2571 0.929 . S
H2560 C2574 0.930 . S
H2561 C2576 0.960 . S
H2562 C2576 0.960 . S
H2563 C2576 0.960 . S
C2564 H2556 0.929 . S
C2564 C2565 1.377 . S
C2564 C2566 1.384 . S
C2565 C2564 1.377 . S
C2565 C2571 1.390 . S
C2566 H2557 0.930 . S
C2566 C2564 1.384 . S
C2566 C2567 1.372 . S
C2567 C2566 1.372 . S
C2567 C2568 1.400 . S
C2567 C2572 1.490 . S
C2568 H2558 0.930 . S
C2568 C2567 1.400 . S
C2568 C2571 1.386 . S
H2569 C2585 0.930 . S
H2570 C2586 0.931 . S
C2571 H2559 0.929 . S
C2571 C2565 1.390 . S
C2571 C2568 1.386 . S
C2572 C2567 1.490 . S
C2572 C2574 1.395 . S
C2572 C2575 1.403 . S
H2573 C2579 0.930 . S
C2574 H2560 0.930 . S
C2574 C2572 1.395 . S
C2574 C2577 1.403 . S
C2575 C2572 1.403 . S
C2575 C2576 1.524 . S
C2575 C2579 1.400 . S
C2576 H2561 0.960 . S
C2576 H2562 0.960 . S
C2576 H2563 0.960 . S
C2576 C2575 1.524 . S
C2577 C2574 1.403 . S
C2577 C2578 1.392 . S
C2577 C2581 1.495 . S
C2578 C2577 1.392 . S
C2578 C2579 1.385 . S
C2578 C2580 1.478 . S
C2579 H2573 0.930 . S
C2579 C2575 1.400 . S
C2579 C2578 1.385 . S
C2580 C2578 1.478 . S
C2580 C2582 1.381 . S
C2580 C2586 1.383 . S
C2581 C2577 1.495 . S
C2581 H2587 0.959 . S
C2581 H2588 0.961 . S
C2581 H2589 0.960 . S
C2582 C2580 1.381 . S
C2582 C2583 1.394 . S
C2582 H2590 0.930 . S
C2583 C2582 1.394 . S
C2583 C2584 1.383 . S
C2583 H2591 0.929 . S
C2584 C2583 1.383 . S
C2584 C2585 1.377 . S
C2585 H2569 0.930 . S
C2585 C2584 1.377 . S
C2585 C2586 1.379 . S
C2586 H2570 0.931 . S
C2586 C2580 1.383 . S
C2586 C2585 1.379 . S
H2587 C2581 0.959 . S
H2588 C2581 0.961 . S
H2589 C2581 0.960 . S
H2590 C2582 0.930 . S
H2591 C2583 0.929 . S
H2592 C2600 0.929 . S
H2593 C2602 0.930 . S
H2594 C2604 0.930 . S
H2595 C2607 0.929 . S
H2596 C2610 0.930 . S
H2597 C2612 0.960 . S
H2598 C2612 0.960 . S
H2599 C2612 0.960 . S
C2600 H2592 0.929 . S
C2600 C2601 1.377 . S
C2600 C2602 1.384 . S
C2601 C2600 1.377 . S
C2601 C2607 1.390 . S
C2602 H2593 0.930 . S
C2602 C2600 1.384 . S
C2602 C2603 1.372 . S
C2603 C2602 1.372 . S
C2603 C2604 1.400 . S
C2603 C2608 1.490 . S
C2604 H2594 0.930 . S
C2604 C2603 1.400 . S
C2604 C2607 1.386 . S
H2605 C2621 0.930 . S
H2606 C2622 0.931 . S
C2607 H2595 0.929 . S
C2607 C2601 1.390 . S
C2607 C2604 1.386 . S
C2608 C2603 1.490 . S
C2608 C2610 1.395 . S
C2608 C2611 1.403 . S
H2609 C2615 0.930 . S
C2610 H2596 0.930 . S
C2610 C2608 1.395 . S
C2610 C2613 1.403 . S
C2611 C2608 1.403 . S
C2611 C2612 1.524 . S
C2611 C2615 1.400 . S
C2612 H2597 0.960 . S
C2612 H2598 0.960 . S
C2612 H2599 0.960 . S
C2612 C2611 1.524 . S
C2613 C2610 1.403 . S
C2613 C2614 1.392 . S
C2613 C2617 1.495 . S
C2614 C2613 1.392 . S
C2614 C2615 1.385 . S
C2614 C2616 1.478 . S
C2615 H2609 0.930 . S
C2615 C2611 1.400 . S
C2615 C2614 1.385 . S
C2616 C2614 1.478 . S
C2616 C2618 1.381 . S
C2616 C2622 1.383 . S
C2617 C2613 1.495 . S
C2617 H2623 0.959 . S
C2617 H2624 0.961 . S
C2617 H2625 0.960 . S
C2618 C2616 1.381 . S
C2618 C2619 1.394 . S
C2618 H2626 0.930 . S
C2619 C2618 1.394 . S
C2619 C2620 1.383 . S
C2619 H2627 0.929 . S
C2620 C2619 1.383 . S
C2620 C2621 1.377 . S
C2621 H2605 0.930 . S
C2621 C2620 1.377 . S
C2621 C2622 1.379 . S
C2622 H2606 0.931 . S
C2622 C2616 1.383 . S
C2622 C2621 1.379 . S
H2623 C2617 0.959 . S
H2624 C2617 0.961 . S
H2625 C2617 0.960 . S
H2626 C2618 0.930 . S
H2627 C2619 0.929 . S
H2628 C2636 0.929 . S
H2629 C2638 0.930 . S
H2630 C2640 0.930 . S
H2631 C2643 0.929 . S
H2632 C2646 0.930 . S
H2633 C2648 0.960 . S
H2634 C2648 0.960 . S
H2635 C2648 0.960 . S
C2636 H2628 0.929 . S
C2636 C2637 1.377 . S
C2636 C2638 1.384 . S
C2637 C2636 1.377 . S
C2637 C2643 1.390 . S
C2638 H2629 0.930 . S
C2638 C2636 1.384 . S
C2638 C2639 1.372 . S
C2639 C2638 1.372 . S
C2639 C2640 1.400 . S
C2639 C2644 1.490 . S
C2640 H2630 0.930 . S
C2640 C2639 1.400 . S
C2640 C2643 1.386 . S
H2641 C2657 0.930 . S
H2642 C2658 0.931 . S
C2643 H2631 0.929 . S
C2643 C2637 1.390 . S
C2643 C2640 1.386 . S
C2644 C2639 1.490 . S
C2644 C2646 1.395 . S
C2644 C2647 1.403 . S
H2645 C2651 0.930 . S
C2646 H2632 0.930 . S
C2646 C2644 1.395 . S
C2646 C2649 1.403 . S
C2647 C2644 1.403 . S
C2647 C2648 1.524 . S
C2647 C2651 1.400 . S
C2648 H2633 0.960 . S
C2648 H2634 0.960 . S
C2648 H2635 0.960 . S
C2648 C2647 1.524 . S
C2649 C2646 1.403 . S
C2649 C2650 1.392 . S
C2649 C2653 1.495 . S
C2650 C2649 1.392 . S
C2650 C2651 1.385 . S
C2650 C2652 1.478 . S
C2651 H2645 0.930 . S
C2651 C2647 1.400 . S
C2651 C2650 1.385 . S
C2652 C2650 1.478 . S
C2652 C2654 1.381 . S
C2652 C2658 1.383 . S
C2653 C2649 1.495 . S
C2653 H2659 0.959 . S
C2653 H2660 0.961 . S
C2653 H2661 0.960 . S
C2654 C2652 1.381 . S
C2654 C2655 1.394 . S
C2654 H2662 0.930 . S
C2655 C2654 1.394 . S
C2655 C2656 1.383 . S
C2655 H2663 0.929 . S
C2656 C2655 1.383 . S
C2656 C2657 1.377 . S
C2657 H2641 0.930 . S
C2657 C2656 1.377 . S
C2657 C2658 1.379 . S
C2658 H2642 0.931 . S
C2658 C2652 1.383 . S
C2658 C2657 1.379 . S
H2659 C2653 0.959 . S
H2660 C2653 0.961 . S
H2661 C2653 0.960 . S
H2662 C2654 0.930 . S
H2663 C2655 0.929 . S
H2664 C2672 0.929 . S
H2665 C2674 0.930 . S
H2666 C2676 0.930 . S
H2667 C2679 0.929 . S
H2668 C2682 0.930 . S
H2669 C2684 0.960 . S
H2670 C2684 0.960 . S
H2671 C2684 0.960 . S
C2672 H2664 0.929 . S
C2672 C2673 1.377 . S
C2672 C2674 1.384 . S
C2673 C2672 1.377 . S
C2673 C2679 1.390 . S
C2674 H2665 0.930 . S
C2674 C2672 1.384 . S
C2674 C2675 1.372 . S
C2675 C2674 1.372 . S
C2675 C2676 1.400 . S
C2675 C2680 1.490 . S
C2676 H2666 0.930 . S
C2676 C2675 1.400 . S
C2676 C2679 1.386 . S
H2677 C2693 0.930 . S
H2678 C2694 0.931 . S
C2679 H2667 0.929 . S
C2679 C2673 1.390 . S
C2679 C2676 1.386 . S
C2680 C2675 1.490 . S
C2680 C2682 1.395 . S
C2680 C2683 1.403 . S
H2681 C2687 0.930 . S
C2682 H2668 0.930 . S
C2682 C2680 1.395 . S
C2682 C2685 1.403 . S
C2683 C2680 1.403 . S
C2683 C2684 1.524 . S
C2683 C2687 1.400 . S
C2684 H2669 0.960 . S
C2684 H2670 0.960 . S
C2684 H2671 0.960 . S
C2684 C2683 1.524 . S
C2685 C2682 1.403 . S
C2685 C2686 1.392 . S
C2685 C2689 1.495 . S
C2686 C2685 1.392 . S
C2686 C2687 1.385 . S
C2686 C2688 1.478 . S
C2687 H2681 0.930 . S
C2687 C2683 1.400 . S
C2687 C2686 1.385 . S
C2688 C2686 1.478 . S
C2688 C2690 1.381 . S
C2688 C2694 1.383 . S
C2689 C2685 1.495 . S
C2689 H2695 0.959 . S
C2689 H2696 0.961 . S
C2689 H2697 0.960 . S
C2690 C2688 1.381 . S
C2690 C2691 1.394 . S
C2690 H2698 0.930 . S
C2691 C2690 1.394 . S
C2691 C2692 1.383 . S
C2691 H2699 0.929 . S
C2692 C2691 1.383 . S
C2692 C2693 1.377 . S
C2693 H2677 0.930 . S
C2693 C2692 1.377 . S
C2693 C2694 1.379 . S
C2694 H2678 0.931 . S
C2694 C2688 1.383 . S
C2694 C2693 1.379 . S
H2695 C2689 0.959 . S
H2696 C2689 0.961 . S
H2697 C2689 0.960 . S
H2698 C2690 0.930 . S
H2699 C2691 0.929 . S
H2700 C2708 0.929 . S
H2701 C2710 0.930 . S
H2702 C2712 0.930 . S
H2703 C2715 0.929 . S
H2704 C2718 0.930 . S
H2705 C2720 0.960 . S
H2706 C2720 0.960 . S
H2707 C2720 0.960 . S
C2708 H2700 0.929 . S
C2708 C2709 1.377 . S
C2708 C2710 1.384 . S
C2709 C2708 1.377 . S
C2709 C2715 1.390 . S
C2710 H2701 0.930 . S
C2710 C2708 1.384 . S
C2710 C2711 1.372 . S
C2711 C2710 1.372 . S
C2711 C2712 1.400 . S
C2711 C2716 1.490 . S
C2712 H2702 0.930 . S
C2712 C2711 1.400 . S
C2712 C2715 1.386 . S
H2713 C2729 0.930 . S
H2714 C2730 0.931 . S
C2715 H2703 0.929 . S
C2715 C2709 1.390 . S
C2715 C2712 1.386 . S
C2716 C2711 1.490 . S
C2716 C2718 1.395 . S
C2716 C2719 1.403 . S
H2717 C2723 0.930 . S
C2718 H2704 0.930 . S
C2718 C2716 1.395 . S
C2718 C2721 1.403 . S
C2719 C2716 1.403 . S
C2719 C2720 1.524 . S
C2719 C2723 1.400 . S
C2720 H2705 0.960 . S
C2720 H2706 0.960 . S
C2720 H2707 0.960 . S
C2720 C2719 1.524 . S
C2721 C2718 1.403 . S
C2721 C2722 1.392 . S
C2721 C2725 1.495 . S
C2722 C2721 1.392 . S
C2722 C2723 1.385 . S
C2722 C2724 1.478 . S
C2723 H2717 0.930 . S
C2723 C2719 1.400 . S
C2723 C2722 1.385 . S
C2724 C2722 1.478 . S
C2724 C2726 1.381 . S
C2724 C2730 1.383 . S
C2725 C2721 1.495 . S
C2725 H2731 0.959 . S
C2725 H2732 0.961 . S
C2725 H2733 0.960 . S
C2726 C2724 1.381 . S
C2726 C2727 1.394 . S
C2726 H2734 0.930 . S
C2727 C2726 1.394 . S
C2727 C2728 1.383 . S
C2727 H2735 0.929 . S
C2728 C2727 1.383 . S
C2728 C2729 1.377 . S
C2729 H2713 0.930 . S
C2729 C2728 1.377 . S
C2729 C2730 1.379 . S
C2730 H2714 0.931 . S
C2730 C2724 1.383 . S
C2730 C2729 1.379 . S
H2731 C2725 0.959 . S
H2732 C2725 0.961 . S
H2733 C2725 0.960 . S
H2734 C2726 0.930 . S
H2735 C2727 0.929 . S
H2736 C2744 0.929 . S
H2737 C2746 0.930 . S
H2738 C2748 0.930 . S
H2739 C2751 0.929 . S
H2740 C2754 0.930 . S
H2741 C2756 0.960 . S
H2742 C2756 0.960 . S
H2743 C2756 0.960 . S
C2744 H2736 0.929 . S
C2744 C2745 1.377 . S
C2744 C2746 1.384 . S
C2745 C2744 1.377 . S
C2745 C2751 1.390 . S
C2746 H2737 0.930 . S
C2746 C2744 1.384 . S
C2746 C2747 1.372 . S
C2747 C2746 1.372 . S
C2747 C2748 1.400 . S
C2747 C2752 1.490 . S
C2748 H2738 0.930 . S
C2748 C2747 1.400 . S
C2748 C2751 1.386 . S
H2749 C2765 0.930 . S
H2750 C2766 0.931 . S
C2751 H2739 0.929 . S
C2751 C2745 1.390 . S
C2751 C2748 1.386 . S
C2752 C2747 1.490 . S
C2752 C2754 1.395 . S
C2752 C2755 1.403 . S
H2753 C2759 0.930 . S
C2754 H2740 0.930 . S
C2754 C2752 1.395 . S
C2754 C2757 1.403 . S
C2755 C2752 1.403 . S
C2755 C2756 1.524 . S
C2755 C2759 1.400 . S
C2756 H2741 0.960 . S
C2756 H2742 0.960 . S
C2756 H2743 0.960 . S
C2756 C2755 1.524 . S
C2757 C2754 1.403 . S
C2757 C2758 1.392 . S
C2757 C2761 1.495 . S
C2758 C2757 1.392 . S
C2758 C2759 1.385 . S
C2758 C2760 1.478 . S
C2759 H2753 0.930 . S
C2759 C2755 1.400 . S
C2759 C2758 1.385 . S
C2760 C2758 1.478 . S
C2760 C2762 1.381 . S
C2760 C2766 1.383 . S
C2761 C2757 1.495 . S
C2761 H2767 0.959 . S
C2761 H2768 0.961 . S
C2761 H2769 0.960 . S
C2762 C2760 1.381 . S
C2762 C2763 1.394 . S
C2762 H2770 0.930 . S
C2763 C2762 1.394 . S
C2763 C2764 1.383 . S
C2763 H2771 0.929 . S
C2764 C2763 1.383 . S
C2764 C2765 1.377 . S
C2765 H2749 0.930 . S
C2765 C2764 1.377 . S
C2765 C2766 1.379 . S
C2766 H2750 0.931 . S
C2766 C2760 1.383 . S
C2766 C2765 1.379 . S
H2767 C2761 0.959 . S
H2768 C2761 0.961 . S
H2769 C2761 0.960 . S
H2770 C2762 0.930 . S
H2771 C2763 0.929 . S
H2772 C2780 0.929 . S
H2773 C2782 0.930 . S
H2774 C2784 0.930 . S
H2775 C2787 0.929 . S
H2776 C2790 0.930 . S
H2777 C2792 0.960 . S
H2778 C2792 0.960 . S
H2779 C2792 0.960 . S
C2780 H2772 0.929 . S
C2780 C2781 1.377 . S
C2780 C2782 1.384 . S
C2781 C2780 1.377 . S
C2781 C2787 1.390 . S
C2782 H2773 0.930 . S
C2782 C2780 1.384 . S
C2782 C2783 1.372 . S
C2783 C2782 1.372 . S
C2783 C2784 1.400 . S
C2783 C2788 1.490 . S
C2784 H2774 0.930 . S
C2784 C2783 1.400 . S
C2784 C2787 1.386 . S
H2785 C2801 0.930 . S
H2786 C2802 0.931 . S
C2787 H2775 0.929 . S
C2787 C2781 1.390 . S
C2787 C2784 1.386 . S
C2788 C2783 1.490 . S
C2788 C2790 1.395 . S
C2788 C2791 1.403 . S
H2789 C2795 0.930 . S
C2790 H2776 0.930 . S
C2790 C2788 1.395 . S
C2790 C2793 1.403 . S
C2791 C2788 1.403 . S
C2791 C2792 1.524 . S
C2791 C2795 1.400 . S
C2792 H2777 0.960 . S
C2792 H2778 0.960 . S
C2792 H2779 0.960 . S
C2792 C2791 1.524 . S
C2793 C2790 1.403 . S
C2793 C2794 1.392 . S
C2793 C2797 1.495 . S
C2794 C2793 1.392 . S
C2794 C2795 1.385 . S
C2794 C2796 1.478 . S
C2795 H2789 0.930 . S
C2795 C2791 1.400 . S
C2795 C2794 1.385 . S
C2796 C2794 1.478 . S
C2796 C2798 1.381 . S
C2796 C2802 1.383 . S
C2797 C2793 1.495 . S
C2797 H2803 0.959 . S
C2797 H2804 0.961 . S
C2797 H2805 0.960 . S
C2798 C2796 1.381 . S
C2798 C2799 1.394 . S
C2798 H2806 0.930 . S
C2799 C2798 1.394 . S
C2799 C2800 1.383 . S
C2799 H2807 0.929 . S
C2800 C2799 1.383 . S
C2800 C2801 1.377 . S
C2801 H2785 0.930 . S
C2801 C2800 1.377 . S
C2801 C2802 1.379 . S
C2802 H2786 0.931 . S
C2802 C2796 1.383 . S
C2802 C2801 1.379 . S
H2803 C2797 0.959 . S
H2804 C2797 0.961 . S
H2805 C2797 0.960 . S
H2806 C2798 0.930 . S
H2807 C2799 0.929 . S
H2808 C2816 0.929 . S
H2809 C2818 0.930 . S
H2810 C2820 0.930 . S
H2811 C2823 0.929 . S
H2812 C2826 0.930 . S
H2813 C2828 0.960 . S
H2814 C2828 0.960 . S
H2815 C2828 0.960 . S
C2816 H2808 0.929 . S
C2816 C2817 1.377 . S
C2816 C2818 1.384 . S
C2817 C2816 1.377 . S
C2817 C2823 1.390 . S
C2818 H2809 0.930 . S
C2818 C2816 1.384 . S
C2818 C2819 1.372 . S
C2819 C2818 1.372 . S
C2819 C2820 1.400 . S
C2819 C2824 1.490 . S
C2820 H2810 0.930 . S
C2820 C2819 1.400 . S
C2820 C2823 1.386 . S
H2821 C2837 0.930 . S
H2822 C2838 0.931 . S
C2823 H2811 0.929 . S
C2823 C2817 1.390 . S
C2823 C2820 1.386 . S
C2824 C2819 1.490 . S
C2824 C2826 1.395 . S
C2824 C2827 1.403 . S
H2825 C2831 0.930 . S
C2826 H2812 0.930 . S
C2826 C2824 1.395 . S
C2826 C2829 1.403 . S
C2827 C2824 1.403 . S
C2827 C2828 1.524 . S
C2827 C2831 1.400 . S
C2828 H2813 0.960 . S
C2828 H2814 0.960 . S
C2828 H2815 0.960 . S
C2828 C2827 1.524 . S
C2829 C2826 1.403 . S
C2829 C2830 1.392 . S
C2829 C2833 1.495 . S
C2830 C2829 1.392 . S
C2830 C2831 1.385 . S
C2830 C2832 1.478 . S
C2831 H2825 0.930 . S
C2831 C2827 1.400 . S
C2831 C2830 1.385 . S
C2832 C2830 1.478 . S
C2832 C2834 1.381 . S
C2832 C2838 1.383 . S
C2833 C2829 1.495 . S
C2833 H2839 0.959 . S
C2833 H2840 0.961 . S
C2833 H2841 0.960 . S
C2834 C2832 1.381 . S
C2834 C2835 1.394 . S
C2834 H2842 0.930 . S
C2835 C2834 1.394 . S
C2835 C2836 1.383 . S
C2835 H2843 0.929 . S
C2836 C2835 1.383 . S
C2836 C2837 1.377 . S
C2837 H2821 0.930 . S
C2837 C2836 1.377 . S
C2837 C2838 1.379 . S
C2838 H2822 0.931 . S
C2838 C2832 1.383 . S
C2838 C2837 1.379 . S
H2839 C2833 0.959 . S
H2840 C2833 0.961 . S
H2841 C2833 0.960 . S
H2842 C2834 0.930 . S
H2843 C2835 0.929 . S
H2844 C2852 0.929 . S
H2845 C2854 0.930 . S
H2846 C2856 0.930 . S
H2847 C2859 0.929 . S
H2848 C2862 0.930 . S
H2849 C2864 0.960 . S
H2850 C2864 0.960 . S
H2851 C2864 0.960 . S
C2852 H2844 0.929 . S
C2852 C2853 1.377 . S
C2852 C2854 1.384 . S
C2853 C2852 1.377 . S
C2853 C2859 1.390 . S
C2854 H2845 0.930 . S
C2854 C2852 1.384 . S
C2854 C2855 1.372 . S
C2855 C2854 1.372 . S
C2855 C2856 1.400 . S
C2855 C2860 1.490 . S
C2856 H2846 0.930 . S
C2856 C2855 1.400 . S
C2856 C2859 1.386 . S
H2857 C2873 0.930 . S
H2858 C2874 0.931 . S
C2859 H2847 0.929 . S
C2859 C2853 1.390 . S
C2859 C2856 1.386 . S
C2860 C2855 1.490 . S
C2860 C2862 1.395 . S
C2860 C2863 1.403 . S
H2861 C2867 0.930 . S
C2862 H2848 0.930 . S
C2862 C2860 1.395 . S
C2862 C2865 1.403 . S
C2863 C2860 1.403 . S
C2863 C2864 1.524 . S
C2863 C2867 1.400 . S
C2864 H2849 0.960 . S
C2864 H2850 0.960 . S
C2864 H2851 0.960 . S
C2864 C2863 1.524 . S
C2865 C2862 1.403 . S
C2865 C2866 1.392 . S
C2865 C2869 1.495 . S
C2866 C2865 1.392 . S
C2866 C2867 1.385 . S
C2866 C2868 1.478 . S
C2867 H2861 0.930 . S
C2867 C2863 1.400 . S
C2867 C2866 1.385 . S
C2868 C2866 1.478 . S
C2868 C2870 1.381 . S
C2868 C2874 1.383 . S
C2869 C2865 1.495 . S
C2869 H2875 0.959 . S
C2869 H2876 0.961 . S
C2869 H2877 0.960 . S
C2870 C2868 1.381 . S
C2870 C2871 1.394 . S
C2870 H2878 0.930 . S
C2871 C2870 1.394 . S
C2871 C2872 1.383 . S
C2871 H2879 0.929 . S
C2872 C2871 1.383 . S
C2872 C2873 1.377 . S
C2873 H2857 0.930 . S
C2873 C2872 1.377 . S
C2873 C2874 1.379 . S
C2874 H2858 0.931 . S
C2874 C2868 1.383 . S
C2874 C2873 1.379 . S
H2875 C2869 0.959 . S
H2876 C2869 0.961 . S
H2877 C2869 0.960 . S
H2878 C2870 0.930 . S
H2879 C2871 0.929 . S
H2880 C2888 0.929 . S
H2881 C2890 0.930 . S
H2882 C2892 0.930 . S
H2883 C2895 0.929 . S
H2884 C2898 0.930 . S
H2885 C2900 0.960 . S
H2886 C2900 0.960 . S
H2887 C2900 0.960 1_455 S
C2888 H2880 0.929 . S
C2888 C2889 1.377 . S
C2888 C2890 1.384 . S
C2889 C2888 1.377 . S
C2889 C2895 1.390 . S
C2890 H2881 0.930 . S
C2890 C2888 1.384 . S
C2890 C2891 1.372 . S
C2891 C2890 1.372 . S
C2891 C2892 1.400 . S
C2891 C2896 1.490 . S
C2892 H2882 0.930 . S
C2892 C2891 1.400 . S
C2892 C2895 1.386 . S
H2893 C2909 0.930 . S
H2894 C2910 0.931 . S
C2895 H2883 0.929 . S
C2895 C2889 1.390 . S
C2895 C2892 1.386 . S
C2896 C2891 1.490 . S
C2896 C2898 1.395 . S
C2896 C2899 1.403 1_455 S
H2897 C2903 0.930 . S
C2898 H2884 0.930 . S
C2898 C2896 1.395 . S
C2898 C2901 1.403 . S
C2899 C2896 1.403 1_655 S
C2899 C2900 1.524 . S
C2899 C2903 1.400 . S
C2900 H2885 0.960 . S
C2900 H2886 0.960 . S
C2900 H2887 0.960 1_655 S
C2900 C2899 1.524 . S
C2901 C2898 1.403 . S
C2901 C2902 1.392 1_455 S
C2901 C2905 1.495 . S
C2902 C2901 1.392 1_655 S
C2902 C2903 1.385 . S
C2902 C2904 1.478 . S
C2903 H2897 0.930 . S
C2903 C2899 1.400 . S
C2903 C2902 1.385 . S
C2904 C2902 1.478 . S
C2904 C2906 1.381 . S
C2904 C2910 1.383 . S
C2905 C2901 1.495 . S
C2905 H2911 0.959 . S
C2905 H2912 0.961 . S
C2905 H2913 0.960 1_455 S
C2906 C2904 1.381 . S
C2906 C2907 1.394 . S
C2906 H2914 0.930 . S
C2907 C2906 1.394 . S
C2907 C2908 1.383 . S
C2907 H2915 0.929 . S
C2908 C2907 1.383 . S
C2908 C2909 1.377 . S
C2909 H2893 0.930 . S
C2909 C2908 1.377 . S
C2909 C2910 1.379 . S
C2910 H2894 0.931 . S
C2910 C2904 1.383 . S
C2910 C2909 1.379 . S
H2911 C2905 0.959 . S
H2912 C2905 0.961 . S
H2913 C2905 0.960 1_655 S
H2914 C2906 0.930 . S
H2915 C2907 0.929 . S
H2916 C2924 0.929 . S
H2917 C2926 0.930 . S
H2918 C2928 0.930 . S
H2919 C2931 0.929 . S
H2920 C2934 0.930 . S
H2921 C2936 0.960 . S
H2922 C2936 0.960 . S
H2923 C2936 0.960 . S
C2924 H2916 0.929 . S
C2924 C2925 1.377 . S
C2924 C2926 1.384 . S
C2925 C2924 1.377 . S
C2925 C2931 1.390 . S
C2926 H2917 0.930 . S
C2926 C2924 1.384 . S
C2926 C2927 1.372 . S
C2927 C2926 1.372 . S
C2927 C2928 1.400 . S
C2927 C2932 1.490 . S
C2928 H2918 0.930 . S
C2928 C2927 1.400 . S
C2928 C2931 1.386 . S
H2929 C2945 0.930 . S
H2930 C2946 0.931 . S
C2931 H2919 0.929 . S
C2931 C2925 1.390 . S
C2931 C2928 1.386 . S
C2932 C2927 1.490 . S
C2932 C2934 1.395 . S
C2932 C2935 1.403 . S
H2933 C2939 0.930 . S
C2934 H2920 0.930 . S
C2934 C2932 1.395 . S
C2934 C2937 1.403 . S
C2935 C2932 1.403 . S
C2935 C2936 1.524 . S
C2935 C2939 1.400 . S
C2936 H2921 0.960 . S
C2936 H2922 0.960 . S
C2936 H2923 0.960 . S
C2936 C2935 1.524 . S
C2937 C2934 1.403 . S
C2937 C2938 1.392 . S
C2937 C2941 1.495 . S
C2938 C2937 1.392 . S
C2938 C2939 1.385 . S
C2938 C2940 1.478 . S
C2939 H2933 0.930 . S
C2939 C2935 1.400 . S
C2939 C2938 1.385 . S
C2940 C2938 1.478 . S
C2940 C2942 1.381 . S
C2940 C2946 1.383 . S
C2941 C2937 1.495 . S
C2941 H2947 0.959 . S
C2941 H2948 0.961 . S
C2941 H2949 0.960 . S
C2942 C2940 1.381 . S
C2942 C2943 1.394 . S
C2942 H2950 0.930 . S
C2943 C2942 1.394 . S
C2943 C2944 1.383 . S
C2943 H2951 0.929 . S
C2944 C2943 1.383 . S
C2944 C2945 1.377 . S
C2945 H2929 0.930 . S
C2945 C2944 1.377 . S
C2945 C2946 1.379 . S
C2946 H2930 0.931 . S
C2946 C2940 1.383 . S
C2946 C2945 1.379 . S
H2947 C2941 0.959 . S
H2948 C2941 0.961 . S
H2949 C2941 0.960 . S
H2950 C2942 0.930 . S
H2951 C2943 0.929 . S
H2952 C2960 0.929 . S
H2953 C2962 0.930 . S
H2954 C2964 0.930 . S
H2955 C2967 0.929 . S
H2956 C2970 0.930 . S
H2957 C2972 0.960 . S
H2958 C2972 0.960 . S
H2959 C2972 0.960 . S
C2960 H2952 0.929 . S
C2960 C2961 1.377 . S
C2960 C2962 1.384 . S
C2961 C2960 1.377 . S
C2961 C2967 1.390 . S
C2962 H2953 0.930 . S
C2962 C2960 1.384 . S
C2962 C2963 1.372 . S
C2963 C2962 1.372 . S
C2963 C2964 1.400 . S
C2963 C2968 1.490 . S
C2964 H2954 0.930 . S
C2964 C2963 1.400 . S
C2964 C2967 1.386 . S
H2965 C2981 0.930 . S
H2966 C2982 0.931 . S
C2967 H2955 0.929 . S
C2967 C2961 1.390 . S
C2967 C2964 1.386 . S
C2968 C2963 1.490 . S
C2968 C2970 1.395 1_545 S
C2968 C2971 1.403 . S
H2969 C2975 0.960 . S
C2970 H2956 0.930 . S
C2970 C2968 1.395 1_565 S
C2970 C2973 1.403 . S
C2971 C2968 1.403 . S
C2971 C2972 1.524 . S
C2971 C2975 1.420 . S
C2972 H2957 0.960 . S
C2972 H2958 0.960 . S
C2972 H2959 0.960 . S
C2972 C2971 1.524 . S
C2973 C2970 1.403 . S
C2973 C2974 1.392 . S
C2973 C2977 1.495 . S
C2974 C2973 1.392 . S
C2974 C2975 1.339 1_565 S
C2974 C2976 1.478 . S
C2975 H2969 0.960 . S
C2975 C2971 1.420 . S
C2975 C2974 1.339 1_545 S
C2976 C2974 1.478 . S
C2976 C2978 1.381 . S
C2976 C2982 1.383 . S
C2977 C2973 1.495 . S
C2977 H2983 0.959 . S
C2977 H2984 0.961 . S
C2977 H2985 0.960 . S
C2978 C2976 1.381 . S
C2978 C2979 1.394 . S
C2978 H2986 0.930 . S
C2979 C2978 1.394 . S
C2979 C2980 1.383 . S
C2979 H2987 0.929 . S
C2980 C2979 1.383 . S
C2980 C2981 1.377 . S
C2981 H2965 0.930 . S
C2981 C2980 1.377 . S
C2981 C2982 1.379 . S
C2982 H2966 0.931 . S
C2982 C2976 1.383 . S
C2982 C2981 1.379 . S
H2983 C2977 0.959 . S
H2984 C2977 0.961 . S
H2985 C2977 0.960 . S
H2986 C2978 0.930 . S
H2987 C2979 0.929 . S
H2988 C2996 0.929 . S
H2989 C2998 0.930 1_556 S
H2990 C3000 0.930 . S
H2991 C3003 0.929 . S
H2992 C3006 0.926 . S
H2993 C3008 0.960 . S
H2994 C3008 0.977 . S
H2995 C3008 0.960 . S
C2996 H2988 0.929 . S
C2996 C2997 1.377 . S
C2996 C2998 1.384 . S
C2997 C2996 1.377 . S
C2997 C3003 1.390 . S
C2998 H2989 0.930 1_554 S
C2998 C2996 1.384 . S
C2998 C2999 1.372 . S
C2999 C2998 1.372 . S
C2999 C3000 1.400 . S
C2999 C3004 1.490 . S
C3000 H2990 0.930 . S
C3000 C2999 1.400 . S
C3000 C3003 1.386 . S
H3001 C3017 1.031 . S
H3002 C3018 0.931 1_554 S
C3003 H2991 0.929 . S
C3003 C2997 1.390 . S
C3003 C3000 1.386 . S
C3004 C2999 1.490 . S
C3004 C3006 1.402 . S
C3004 C3007 1.403 1_545 S
H3005 C3011 0.930 . S
C3006 H2992 0.926 . S
C3006 C3004 1.402 . S
C3006 C3009 1.394 1_554 S
C3007 C3004 1.403 1_565 S
C3007 C3008 1.524 . S
C3007 C3011 1.400 1_554 S
C3008 H2993 0.960 . S
C3008 H2994 0.977 . S
C3008 H2995 0.960 . S
C3008 C3007 1.524 . S
C3009 C3006 1.394 1_556 S
C3009 C3010 1.392 1_545 S
C3009 C3013 1.495 . S
C3010 C3009 1.392 1_565 S
C3010 C3011 1.385 . S
C3010 C3012 1.478 . S
C3011 H3005 0.930 . S
C3011 C3007 1.400 1_556 S
C3011 C3010 1.385 . S
C3012 C3010 1.478 . S
C3012 C3014 1.381 . S
C3012 C3018 1.383 . S
C3013 C3009 1.495 . S
C3013 H3019 0.959 . S
C3013 H3020 0.961 . S
C3013 H3021 0.960 . S
C3014 C3012 1.381 . S
C3014 C3015 1.394 . S
C3014 H3022 0.930 . S
C3015 C3014 1.394 . S
C3015 C3016 1.383 . S
C3015 H3023 0.929 . S
C3016 C3015 1.383 . S
C3016 C3017 1.377 . S
C3017 H3001 1.031 . S
C3017 C3016 1.377 . S
C3017 C3018 1.379 . S
C3018 H3002 0.931 1_556 S
C3018 C3012 1.383 . S
C3018 C3017 1.379 . S
H3019 C3013 0.959 . S
H3020 C3013 0.961 . S
H3021 C3013 0.960 . S
H3022 C3014 0.930 . S
H3023 C3015 0.929 . S
H3024 C3032 0.929 . S
H3025 C3034 0.930 . S
H3026 C3036 0.930 . S
H3027 C3039 0.929 . S
H3028 C3042 0.941 . S
H3029 C3044 0.960 . S
H3030 C3044 0.960 . S
H3031 C3044 0.960 . S
C3032 H3024 0.929 . S
C3032 C3033 1.377 . S
C3032 C3034 1.384 . S
C3033 C3032 1.377 . S
C3033 C3039 1.390 . S
C3034 H3025 0.930 . S
C3034 C3032 1.384 . S
C3034 C3035 1.372 . S
C3035 C3034 1.372 . S
C3035 C3036 1.400 . S
C3035 C3040 1.490 . S
C3036 H3026 0.930 . S
C3036 C3035 1.400 . S
C3036 C3039 1.386 . S
H3037 C3053 0.930 . S
H3038 C3054 0.931 . S
C3039 H3027 0.929 . S
C3039 C3033 1.390 . S
C3039 C3036 1.386 . S
C3040 C3035 1.490 . S
C3040 C3042 1.352 1_654 S
C3040 C3043 1.403 . S
H3041 C3047 0.933 . S
C3042 H3028 0.941 . S
C3042 C3040 1.352 1_456 S
C3042 C3045 1.445 . S
C3043 C3040 1.403 . S
C3043 C3044 1.524 . S
C3043 C3047 1.430 1_655 S
C3044 H3029 0.960 . S
C3044 H3030 0.960 . S
C3044 H3031 0.960 . S
C3044 C3043 1.524 . S
C3045 C3042 1.445 . S
C3045 C3046 1.392 . S
C3045 C3049 1.495 . S
C3046 C3045 1.392 . S
C3046 C3047 1.353 1_556 S
C3046 C3048 1.478 . S
C3047 H3041 0.933 . S
C3047 C3043 1.430 1_455 S
C3047 C3046 1.353 1_554 S
C3048 C3046 1.478 . S
C3048 C3050 1.381 . S
C3048 C3054 1.383 . S
C3049 C3045 1.495 . S
C3049 H3055 0.959 . S
C3049 H3056 0.961 . S
C3049 H3057 0.960 . S
C3050 C3048 1.381 . S
C3050 C3051 1.394 . S
C3050 H3058 0.893 1_556 S
C3051 C3050 1.394 . S
C3051 C3052 1.383 . S
C3051 H3059 0.929 . S
C3052 C3051 1.383 . S
C3052 C3053 1.377 . S
C3053 H3037 0.930 . S
C3053 C3052 1.377 . S
C3053 C3054 1.379 . S
C3054 H3038 0.931 . S
C3054 C3048 1.383 . S
C3054 C3053 1.379 . S
H3055 C3049 0.959 . S
H3056 C3049 0.961 . S
H3057 C3049 0.960 . S
H3058 C3050 0.893 1_554 S
H3059 C3051 0.929 . S
H3060 C3068 0.929 . S
H3061 C3070 0.930 . S
H3062 C3072 0.930 . S
H3063 C3075 0.929 . S
H3064 C3078 0.930 . S
H3065 C3080 0.960 . S
H3066 C3080 0.960 . S
H3067 C3080 0.960 . S
C3068 H3060 0.929 . S
C3068 C3069 1.377 . S
C3068 C3070 1.384 . S
C3069 C3068 1.377 . S
C3069 C3075 1.390 . S
C3070 H3061 0.930 . S
C3070 C3068 1.384 . S
C3070 C3071 1.372 . S
C3071 C3070 1.372 . S
C3071 C3072 1.400 . S
C3071 C3076 1.490 . S
C3072 H3062 0.930 . S
C3072 C3071 1.400 . S
C3072 C3075 1.386 . S
H3073 C3089 0.930 . S
H3074 C3090 0.931 . S
C3075 H3063 0.929 . S
C3075 C3069 1.390 . S
C3075 C3072 1.386 . S
C3076 C3071 1.490 . S
C3076 C3078 1.395 . S
C3076 C3079 1.403 1_556 S
H3077 C3083 0.930 . S
C3078 H3064 0.930 . S
C3078 C3076 1.395 . S
C3078 C3081 1.403 . S
C3079 C3076 1.403 1_554 S
C3079 C3080 1.524 . S
C3079 C3083 1.400 . S
C3080 H3065 0.960 . S
C3080 H3066 0.960 . S
C3080 H3067 0.960 . S
C3080 C3079 1.524 . S
C3081 C3078 1.403 . S
C3081 C3082 1.392 1_556 S
C3081 C3085 1.495 . S
C3082 C3081 1.392 1_554 S
C3082 C3083 1.385 . S
C3082 C3084 1.478 . S
C3083 H3077 0.930 . S
C3083 C3079 1.400 . S
C3083 C3082 1.385 . S
C3084 C3082 1.478 . S
C3084 C3086 1.381 . S
C3084 C3090 1.383 . S
C3085 C3081 1.495 . S
C3085 H3091 0.959 . S
C3085 H3092 0.961 . S
C3085 H3093 0.960 . S
C3086 C3084 1.381 . S
C3086 C3087 1.394 . S
C3086 H3094 0.930 . S
C3087 C3086 1.394 . S
C3087 C3088 1.383 . S
C3087 H3095 0.929 . S
C3088 C3087 1.383 . S
C3088 C3089 1.377 . S
C3089 H3073 0.930 . S
C3089 C3088 1.377 . S
C3089 C3090 1.379 . S
C3090 H3074 0.931 . S
C3090 C3084 1.383 . S
C3090 C3089 1.379 . S
H3091 C3085 0.959 . S
H3092 C3085 0.961 . S
H3093 C3085 0.960 . S
H3094 C3086 0.930 . S
H3095 C3087 0.929 . S
C513 C12 0.790 . S
C532 C18 0.745 . S
C549 C26 0.764 . S
C568 C32 0.821 . S
C585 C4 0.795 . S
C604 C40 0.731 . S
C621 C54 0.782 . S
C640 C74 0.742 . S
C657 C68 0.763 . S
C676 C46 0.800 . S
C693 C60 0.795 . S
C712 C82 0.752 . S
C729 C96 0.763 . S
C748 C102 0.799 . S
C765 C116 0.779 . S
C784 C110 0.844 . S
C801 C88 0.785 . S
C820 C124 0.716 . S
C837 C158 0.791 . S
C856 C138 0.816 . S
C873 C152 0.775 . S
C892 C130 0.748 . S
C909 C166 0.772 . S
C928 C144 0.756 . S
C945 C186 0.778 . S
C964 C180 0.781 . S
C981 C194 0.786 . S
C1000 C200 0.740 . S
C1017 C208 0.788 . S
C1036 C172 0.741 . S
C1053 C222 0.768 . S
C1072 C242 0.829 . S
C1089 C236 0.791 . S
C1108 C214 0.747 . S
C1125 C250 0.789 . S
C1144 C228 0.743 . S
C1161 C270 0.788 . S
C1180 C264 0.705 . S
C1197 C278 0.776 . S
C1216 C284 0.747 . S
C1233 C256 0.795 . S
C1252 C292 0.746 . S
C1269 C326 0.780 . S
C1288 C306 0.741 . S
C1305 C320 0.778 . S
C1324 C298 0.824 . S
C1341 C312 0.794 . S
C1360 C334 0.717 . S
C1377 C354 0.788 . S
C1396 C348 0.829 . S
C1413 C362 0.768 . S
C1432 C368 0.829 . S
C1449 C376 0.791 . S
C1468 C340 0.750 . S
C1485 C410 0.795 . S
C1504 C390 0.744 . S
C1521 C404 0.792 . S
C1540 C382 0.753 . S
C1557 C396 0.778 . S
C1576 C418 0.768 . S
C1593 C432 0.791 . S
C1612 C438 0.787 . S
C1629 C446 0.774 . S
C1648 C452 0.751 . S
C1665 C460 0.790 . S
C1684 C424 0.747 . S
C1701 C494 0.793 . S
C1720 C474 0.787 . S
C1737 C466 0.776 . S
C1756 C488 0.824 . S
C1773 C502 0.770 . S
C1792 C480 0.762 . S
C1809 C53 1.463 . S
C1828 C11 1.487 . S
C1845 C25 1.469 . S
C1864 C67 1.435 . S
C1881 C81 1.473 . S
C1900 C39 1.480 . S
C1917 C137 1.464 . S
C1936 C95 1.468 . S
C1953 C109 1.474 . S
C1972 C151 1.453 . S
C1989 C165 1.462 . S
C2008 C123 1.489 . S
C2025 C179 1.474 . S
C2044 C221 1.471 . S
C2061 C193 1.471 . S
C2080 C235 1.438 . S
C2097 C207 1.462 . S
C2116 C249 1.482 . S
C2133 C305 1.471 . S
C2152 C263 1.437 . S
C2169 C319 1.470 . S
C2188 C277 1.475 . S
C2205 C291 1.473 . S
C2224 C333 1.435 . S
C2241 C389 1.462 . S
C2260 C347 1.466 . S
C2277 C403 1.473 . S
C2296 C361 1.445 . S
C2313 C375 1.464 . S
C2332 C417 1.489 . S
C2349 C431 1.466 . S
C2368 C473 1.492 . S
C2385 C487 1.465 . S
C2404 C445 1.492 . S
C2421 C459 1.467 . S
C2440 C501 1.486 . S
C2457 C5 1.531 . S
C2476 C257 1.521 . S
C2493 C19 1.524 . S
C2512 C271 1.541 . S
C2529 C33 1.520 . S
C2548 C285 1.513 . S
C2565 C467 1.523 . S
C2584 C47 1.495 . S
C2601 C481 1.520 . S
C2620 C61 1.519 . S
C2637 C75 1.522 . S
C2656 C495 1.534 . S
C2673 C89 1.531 . S
C2692 C341 1.547 . S
C2709 C355 1.520 . S
C2728 C103 1.522 . S
C2745 C369 1.531 . S
C2764 C117 1.528 . S
C2781 C215 1.530 . S
C2800 C131 1.515 . S
C2817 C229 1.520 . S
C2836 C145 1.504 . S
C2853 C243 1.520 . S
C2872 C159 1.519 . S
C2889 C425 1.520 . S
C2908 C173 1.510 . S
C2925 C187 1.520 . S
C2944 C439 1.499 . S
C2961 C201 1.529 . S
C2980 C453 1.547 . S
C2997 C299 1.524 . S
C3016 C383 1.495 . S
C3033 C313 1.524 . S
C3052 C397 1.544 . S
C3069 C411 1.524 . S
C3088 C327 1.540 . S
