# Generated by pormake.
# Topology tfs, (6)-cn, num edge types: 1
# Building blocks:
#     Node 0, Type 0, BuildingBlock: JUFBIX_clean_sbu_0, # of connection points: 6
#     Node 1, Type 0, BuildingBlock: JUFBIX_clean_sbu_0, # of connection points: 6
#     Node 2, Type 0, BuildingBlock: JUFBIX_clean_sbu_0, # of connection points: 6
#     Node 3, Type 0, BuildingBlock: JUFBIX_clean_sbu_0, # of connection points: 6
#     Node 4, Type 0, BuildingBlock: JUFBIX_clean_sbu_0, # of connection points: 6
#     Node 5, Type 0, BuildingBlock: JUFBIX_clean_sbu_0, # of connection points: 6
#     Edge 6, Type (0, 0), BuildingBlock: CIFDUS_clean_linker_0, # of connection points: 2
#     Edge 7, Type (0, 0), BuildingBlock: CIFDUS_clean_linker_0, # of connection points: 2
#     Edge 8, Type (0, 0), BuildingBlock: CIFDUS_clean_linker_0, # of connection points: 2
#     Edge 9, Type (0, 0), BuildingBlock: CIFDUS_clean_linker_0, # of connection points: 2
#     Edge 10, Type (0, 0), BuildingBlock: CIFDUS_clean_linker_0, # of connection points: 2
#     Edge 11, Type (0, 0), BuildingBlock: CIFDUS_clean_linker_0, # of connection points: 2
#     Edge 12, Type (0, 0), BuildingBlock: CIFDUS_clean_linker_0, # of connection points: 2
#     Edge 13, Type (0, 0), BuildingBlock: CIFDUS_clean_linker_0, # of connection points: 2
#     Edge 14, Type (0, 0), BuildingBlock: CIFDUS_clean_linker_0, # of connection points: 2
#     Edge 15, Type (0, 0), BuildingBlock: CIFDUS_clean_linker_0, # of connection points: 2
#     Edge 16, Type (0, 0), BuildingBlock: CIFDUS_clean_linker_0, # of connection points: 2
#     Edge 17, Type (0, 0), BuildingBlock: CIFDUS_clean_linker_0, # of connection points: 2
#     Edge 18, Type (0, 0), BuildingBlock: CIFDUS_clean_linker_0, # of connection points: 2
#     Edge 19, Type (0, 0), BuildingBlock: CIFDUS_clean_linker_0, # of connection points: 2
#     Edge 20, Type (0, 0), BuildingBlock: CIFDUS_clean_linker_0, # of connection points: 2
#     Edge 21, Type (0, 0), BuildingBlock: CIFDUS_clean_linker_0, # of connection points: 2
#     Edge 22, Type (0, 0), BuildingBlock: CIFDUS_clean_linker_0, # of connection points: 2
#     Edge 23, Type (0, 0), BuildingBlock: CIFDUS_clean_linker_0, # of connection points: 2
# Relax obj value: 0.298
# Max RMSD: 0.233
# Mean RMSD: 0.179
data_MOF--net-tfs--node1-JUFBIX_clean_sbu_0--edge1-CIFDUS_clean_linker_0
_symmetry_space_group_name_H-M    P1
_symmetry_Int_Tables_number       1
_symmetry_cell_setting            triclinic
loop_
_symmetry_equiv_pos_as_xyz
'x, y, z'
_cell_length_a     37.814691
_cell_length_b     41.213836
_cell_length_c     13.068535
_cell_angle_alpha  89.607573
_cell_angle_beta   93.621593
_cell_angle_gamma 111.38021
loop_
_atom_site_label
_atom_site_type_symbol
_atom_site_fract_x
_atom_site_fract_y
_atom_site_fract_z
_atom_type_partial_charge
Co0 Co 0.28731 0.40765 0.02259 0.0
C1 C 0.25965 0.39791 0.2199 0.0
Co2 Co 0.22483 0.38114 0.02778 0.0
C3 C 0.35995 0.4639 1.00021 0.0
C4 C 0.36593 0.42008 0.07741 0.0
N5 N 0.33985 0.4311 0.02917 0.0
N6 N 0.39738 0.47379 0.02921 0.0
C7 C 0.4012 0.44609 0.07711 0.0
H8 H 0.34725 0.48054 0.96077 0.0
H9 H 0.35956 0.3953 0.1149 0.0
C10 C 0.25267 0.391 0.83036 0.0
N11 N 0.17231 0.35637 0.02133 0.0
C12 C 0.14311 0.36112 0.06589 0.0
C13 C 0.15577 0.32696 0.96413 0.0
N14 N 0.10919 0.33551 0.03899 0.0
C15 C 0.11734 0.31419 0.9747 0.0
C16 C 0.24766 0.45307 0.01425 0.0
O17 O 0.28513 0.4062 0.87695 0.0
O18 O 0.22363 0.37802 0.88237 0.0
O19 O 0.21789 0.42542 0.01578 0.0
O20 O 0.28009 0.4504 0.01893 0.0
O21 O 0.22687 0.38469 0.17317 0.0
H22 H 0.17076 0.31552 0.91674 0.0
H23 H 0.14671 0.38271 0.11741 0.0
O24 O 0.28896 0.40895 0.16809 0.0
O25 O 0.29406 0.36451 0.02614 0.0
O26 O 0.23291 0.33746 0.04072 0.0
C27 C 0.26598 0.33646 0.03638 0.0
H28 H 0.42729 0.44523 0.11397 0.0
H29 H 0.09686 0.29133 0.93577 0.0
Co30 Co 0.80809 0.24867 0.08089 0.0
C31 C 0.81788 0.27494 0.28396 0.0
Co32 Co 0.82722 0.30657 0.09848 0.0
C33 C 0.76353 0.17327 0.03326 0.0
C34 C 0.81262 0.18335 0.13652 0.0
N35 N 0.79336 0.19966 0.07943 0.0
N36 N 0.76361 0.14131 0.06016 0.0
C37 C 0.79474 0.14796 0.1247 0.0
H38 H 0.74179 0.17744 0.98295 0.0
H39 H 0.83803 0.19641 0.18532 0.0
C40 C 0.81735 0.28037 0.89548 0.0
N41 N 0.84375 0.35562 0.0995 0.0
C42 C 0.82604 0.37775 0.1222 0.0
C43 C 0.87665 0.37641 0.06156 0.0
N44 N 0.8468 0.41137 0.10009 0.0
C45 C 0.87866 0.41027 0.06224 0.0
C46 C 0.88733 0.28297 0.09788 0.0
O47 O 0.80686 0.25026 0.93523 0.0
O48 O 0.82726 0.30727 0.95352 0.0
O49 O 0.87869 0.30968 0.10806 0.0
O50 O 0.86071 0.25337 0.08423 0.0
O51 O 0.82678 0.30495 0.24394 0.0
H52 H 0.89726 0.36745 0.02979 0.0
H53 H 0.79801 0.3692 0.15143 0.0
O54 O 0.80959 0.24814 0.22618 0.0
O55 O 0.75606 0.24528 0.07748 0.0
O56 O 0.7756 0.30248 0.08936 0.0
C57 C 0.74845 0.27296 0.08188 0.0
H58 H 0.80433 0.12864 0.16069 0.0
H59 H 0.90104 0.43207 0.03133 0.0
Co60 Co 0.57895 0.77619 0.96644 0.0
C61 C 0.58647 0.79952 0.76576 0.0
Co62 Co 0.59637 0.83369 0.95386 0.0
C63 C 0.53549 0.70276 1.00487 0.0
C64 C 0.58746 0.71107 0.93391 0.0
N65 N 0.56693 0.72819 0.97326 0.0
N66 N 0.53565 0.67051 0.98634 0.0
C67 C 0.5685 0.67587 0.94202 0.0
H68 H 0.51253 0.70784 0.03832 0.0
H69 H 0.61382 0.72331 0.8971 0.0
C70 C 0.58894 0.81029 0.15434 0.0
N71 N 0.60868 0.88206 0.94199 0.0
C72 C 0.63685 0.90946 0.98927 0.0
C73 C 0.5897 0.8968 0.87809 0.0
N74 N 0.63616 0.94069 0.95702 0.0
C75 C 0.6063 0.93248 0.88713 0.0
C76 C 0.51694 0.7953 0.94852 0.0
O77 O 0.57885 0.78025 0.11164 0.0
O78 O 0.59818 0.83732 0.09896 0.0
O79 O 0.54196 0.82615 0.94837 0.0
O80 O 0.52772 0.76961 0.9534 0.0
O81 O 0.59437 0.82923 0.80814 0.0
H82 H 0.56522 0.88244 0.82768 0.0
H83 H 0.65769 0.90642 0.04528 0.0
O84 O 0.57928 0.77283 0.82166 0.0
O85 O 0.63013 0.78287 0.98042 0.0
O86 O 0.6502 0.83956 0.96116 0.0
C87 C 0.65729 0.81181 0.97563 0.0
H88 H 0.57743 0.65582 0.91242 0.0
H89 H 0.59656 0.95086 0.84607 0.0
Co90 Co 0.83052 0.66583 0.06057 0.0
C91 C 0.80387 0.64932 0.25869 0.0
Co92 Co 0.77091 0.62968 0.0673 0.0
C93 C 0.91254 0.69732 0.02959 0.0
C94 C 0.89137 0.72808 0.12176 0.0
N95 N 0.88036 0.69769 0.06846 0.0
N96 N 0.94288 0.72658 0.05588 0.0
C97 C 0.92949 0.74583 0.11384 0.0
H98 H 0.91368 0.6761 0.98323 0.0
H99 H 0.8729 0.73661 0.16544 0.0
C100 C 0.79754 0.64611 0.86917 0.0
N101 N 0.72055 0.59914 0.05811 0.0
C102 C 0.70542 0.5652 0.08349 0.0
C103 C 0.69205 0.60537 1.00486 0.0
N104 N 0.66871 0.54992 0.04697 0.0
C105 C 0.66038 0.57543 0.99799 0.0
C106 C 0.77791 0.69901 0.06099 0.0
O107 O 0.82928 0.66405 0.91528 0.0
O108 O 0.76933 0.63019 0.92166 0.0
O109 O 0.75463 0.66809 0.07003 0.0
O110 O 0.8128 0.70429 0.05247 0.0
O111 O 0.77294 0.62939 0.21273 0.0
H112 H 0.69475 0.62957 0.96742 0.0
H113 H 0.72155 0.55173 0.12449 0.0
O114 O 0.83127 0.6672 0.20609 0.0
O115 O 0.84743 0.62681 0.06846 0.0
O116 O 0.78766 0.5917 0.06661 0.0
C117 C 0.82268 0.5959 0.06979 0.0
H118 H 0.94634 0.77055 0.15082 0.0
H119 H 0.63403 0.57245 0.95465 0.0
Co120 Co 0.22575 0.73253 0.01997 0.0
C121 C 0.23292 0.75854 0.22302 0.0
Co122 Co 0.23468 0.78873 0.03637 0.0
C123 C 0.22567 0.66074 0.97597 0.0
C124 C 0.18501 0.66398 0.07815 0.0
N125 N 0.21341 0.68394 0.02131 0.0
N126 N 0.20507 0.62744 1.00121 0.0
C127 C 0.1797 0.62967 0.06538 0.0
H128 H 0.24872 0.66796 0.92512 0.0
H129 H 0.16897 0.67376 0.12703 0.0
C130 C 0.22775 0.76291 0.83358 0.0
N131 N 0.24399 0.8364 0.03927 0.0
C132 C 0.27395 0.86299 0.08282 0.0
C133 C 0.22201 0.85189 0.99058 0.0
N134 N 0.27149 0.89445 0.06302 0.0
C135 C 0.23869 0.88736 1.00513 0.0
C136 C 0.30156 0.77395 0.02896 0.0
O137 O 0.22385 0.7337 0.87436 0.0
O138 O 0.23224 0.78919 0.89077 0.0
O139 O 0.28789 0.79779 0.03727 0.0
O140 O 0.27906 0.74211 0.02242 0.0
O141 O 0.23702 0.78767 0.18207 0.0
H142 H 0.19602 0.83834 0.94448 0.0
H143 H 0.29738 0.85931 0.12678 0.0
O144 O 0.22808 0.73231 0.16577 0.0
O145 O 0.17272 0.72399 0.01548 0.0
O146 O 0.18132 0.77895 0.03472 0.0
C147 C 0.15885 0.74748 0.02357 0.0
H148 H 0.15922 0.60789 0.10234 0.0
H149 H 0.22827 0.90649 0.97139 0.0
Co150 Co 0.44457 0.19997 0.0773 0.0
C151 C 0.45558 0.22571 0.87703 0.0
Co152 Co 0.46613 0.2576 0.06494 0.0
C153 C 0.40085 0.12554 0.10986 0.0
C154 C 0.45267 0.13535 0.03656 0.0
N155 N 0.43171 0.15167 0.07791 0.0
N156 N 0.4021 0.0937 0.09053 0.0
C157 C 0.43478 0.10003 0.04452 0.0
H158 H 0.37769 0.12979 0.14493 0.0
H159 H 0.47879 0.14823 0.99932 0.0
C160 C 0.45498 0.23186 0.2652 0.0
N161 N 0.47849 0.30573 0.06583 0.0
C162 C 0.50852 0.33255 0.03304 0.0
C163 C 0.45693 0.32111 0.10914 0.0
N164 N 0.50578 0.36372 0.05295 0.0
C165 C 0.47336 0.35646 0.1006 0.0
C166 C 0.38612 0.2233 0.05265 0.0
O167 O 0.44399 0.2018 0.22267 0.0
O168 O 0.46551 0.25873 0.20975 0.0
O169 O 0.41431 0.25171 0.05163 0.0
O170 O 0.39165 0.19479 0.06348 0.0
O171 O 0.46647 0.2558 0.91952 0.0
H172 H 0.43114 0.30755 0.14711 0.0
H173 H 0.53184 0.32935 0.99584 0.0
O174 O 0.44534 0.1988 0.93251 0.0
O175 O 0.49769 0.20619 0.09042 0.0
O176 O 0.51803 0.26301 0.07697 0.0
C177 C 0.52523 0.23532 0.08707 0.0
H178 H 0.44428 0.08047 0.01401 0.0
H179 H 0.46289 0.37552 0.13013 0.0
H180 H 0.34494 0.23641 0.1958 0.0
H181 H 0.34641 0.21969 0.8718 0.0
H182 H 0.30232 0.25011 0.83615 0.0
H183 H 0.27558 0.2926 0.89673 0.0
H184 H 0.27579 0.31058 0.22086 0.0
H185 H 0.30647 0.26838 0.25781 0.0
C186 C 0.3338 0.23774 0.11794 0.0
C187 C 0.34823 0.22538 0.03655 0.0
C188 C 0.30957 0.25641 0.0982 0.0
C189 C 0.33482 0.22826 0.9356 0.0
C190 C 0.31019 0.24626 0.9152 0.0
C191 C 0.28103 0.2861 0.97525 0.0
C192 C 0.27341 0.30431 0.05618 0.0
C193 C 0.29912 0.26211 0.99563 0.0
C194 C 0.2811 0.29641 0.15774 0.0
C195 C 0.29889 0.27251 0.17874 0.0
H196 H 0.0493 0.27538 0.05223 0.0
H197 H 0.0838 0.38677 0.0888 0.0
H198 H 1.01809 0.38014 0.11692 0.0
H199 H 0.95012 0.3429 0.11801 0.0
H200 H 0.916 0.23157 0.07553 0.0
H201 H 0.98231 0.23806 0.0616 0.0
C202 C 0.04251 0.29827 0.06606 0.0
C203 C 0.07147 0.33161 0.06692 0.0
C204 C 1.00466 0.29426 0.08026 0.0
C205 C 0.06221 0.36085 0.08798 0.0
C206 C 0.02455 0.35705 0.10327 0.0
C207 C 0.95716 0.31999 0.10638 0.0
C208 C 0.92793 0.28676 0.09703 0.0
C209 C 0.99542 0.32393 0.0976 0.0
C210 C 0.93775 0.25743 0.0825 0.0
C211 C 0.97571 0.26112 0.07448 0.0
H212 H 0.74924 0.08098 0.1633 0.0
H213 H 0.71707 0.12341 0.88557 0.0
H214 H 0.67467 0.06487 0.82884 0.0
H215 H 0.64846 1.00145 0.85554 0.0
H216 H 0.68104 0.95951 0.13407 0.0
H217 H 0.72257 1.01799 0.19096 0.0
C218 C 0.73332 0.0776 0.0898 0.0
C219 C 0.73685 0.10692 0.02856 0.0
C220 C 0.70931 0.04378 0.05716 0.0
C221 C 0.71494 0.10165 0.93482 0.0
C222 C 0.69084 0.06804 0.90199 0.0
C223 C 0.66425 1.00491 0.92922 0.0
C224 C 0.66129 0.97557 0.9901 0.0
C225 C 0.68797 0.03887 0.96224 0.0
C226 C 0.68282 0.98112 0.08457 0.0
C227 C 0.70648 1.01474 0.11766 0.0
H228 H 0.77988 0.7494 0.92138 0.0
H229 H 0.74501 0.71286 0.22205 0.0
H230 H 0.71319 0.75457 0.2335 0.0
H231 H 0.68547 0.79281 0.14613 0.0
H232 H 0.71166 0.82374 0.83657 0.0
H233 H 0.75784 0.79444 0.841 0.0
C234 C 0.76606 0.75136 0.99005 0.0
C235 C 0.76452 0.72817 0.0708 0.0
C236 C 0.74639 0.77457 0.99428 0.0
C237 C 0.74624 0.73041 0.15905 0.0
C238 C 0.72812 0.75426 0.16561 0.0
C239 C 0.70279 0.79459 0.08157 0.0
C240 C 0.69574 0.81082 0.99186 0.0
C241 C 0.72677 0.77545 0.08226 0.0
C242 C 0.71737 0.81219 0.90738 0.0
C243 C 0.74309 0.79469 0.90926 0.0
H244 H 0.11896 0.79081 0.01584 0.0
H245 H 0.10475 0.68207 0.02575 0.0
H246 H 0.03599 0.66561 0.02843 0.0
H247 H 0.97994 0.68224 0.0379 0.0
H248 H 0.99435 0.79086 0.02774 0.0
H249 H 0.06271 0.80714 0.01451 0.0
C250 C 0.10082 0.76351 0.0183 0.0
C251 C 0.11706 0.7378 0.02143 0.0
C252 C 0.06122 0.75415 0.01976 0.0
C253 C 0.09306 0.70249 0.02365 0.0
C254 C 0.05367 0.69298 0.02516 0.0
C255 C 0.99799 0.70937 0.03088 0.0
C256 C 0.98217 0.7353 0.03475 0.0
C257 C 0.03743 0.7186 0.02429 0.0
C258 C 1.00597 0.77045 0.02656 0.0
C259 C 0.04505 0.77979 0.01889 0.0
H260 H 0.25933 0.95486 0.08012 0.0
H261 H 0.34765 0.91158 0.09966 0.0
H262 H 0.39591 0.96995 0.12133 0.0
H263 H 0.41342 0.03338 0.11948 0.0
H264 H 0.32567 0.07712 0.09061 0.0
H265 H 0.27683 1.01855 0.08908 0.0
C266 C 0.28911 0.95814 0.0891 0.0
C267 C 0.29969 0.92868 0.08696 0.0
C268 C 0.31687 0.99194 0.09964 0.0
C269 C 0.33848 0.93354 0.10145 0.0
C270 C 0.3662 0.96702 0.11312 0.0
C271 C 0.38361 0.03014 0.11297 0.0
C272 C 0.37331 0.05968 0.10366 0.0
C273 C 0.35576 0.9964 0.10994 0.0
C274 C 0.3345 0.05497 0.09818 0.0
C275 C 0.30654 0.02142 0.09644 0.0
H276 H 0.26887 0.61278 0.01782 0.0
H277 H 0.14901 0.5692 0.93137 0.0
H278 H 0.15105 0.51058 0.92557 0.0
H279 H 0.18595 0.47105 0.96064 0.0
H280 H 0.30609 0.51503 0.04978 0.0
H281 H 0.30494 0.57359 0.03969 0.0
C282 C 0.24361 0.59049 0.99468 0.0
C283 C 0.20893 0.59516 0.9743 0.0
C284 C 0.24483 0.55671 0.99448 0.0
C285 C 0.17605 0.56605 0.94668 0.0
C286 C 0.17714 0.53254 0.94438 0.0
C287 C 0.21183 0.49345 0.97776 0.0
C288 C 0.24587 0.48845 0.00696 0.0
C289 C 0.21115 0.52739 0.97116 0.0
C290 C 0.27931 0.51792 0.02756 0.0
C291 C 0.2788 0.55158 0.0216 0.0
H292 H 0.59021 0.29261 0.07819 0.0
H293 H 0.54975 0.18062 0.10262 0.0
H294 H 0.61486 0.18215 0.10138 0.0
H295 H 0.68353 0.21525 0.09218 0.0
H296 H 0.72364 0.32731 0.0694 0.0
H297 H 0.65861 0.32563 0.07079 0.0
C298 C 0.5956 0.26852 0.08365 0.0
C299 C 0.56502 0.23657 0.09057 0.0
C300 C 0.63315 0.26953 0.08273 0.0
C301 C 0.57266 0.20563 0.0974 0.0
C302 C 0.60994 0.20645 0.09647 0.0
C303 C 0.67803 0.23928 0.0872 0.0
C304 C 0.70854 0.27131 0.08048 0.0
C305 C 0.64043 0.23823 0.08878 0.0
C306 C 0.70082 0.30223 0.07466 0.0
C307 C 0.66357 0.30135 0.07552 0.0
H308 H 0.54355 0.6083 1.00501 0.0
H309 H 0.46001 0.65711 0.99851 0.0
H310 H 0.40938 0.60013 0.01108 0.0
H311 H 0.38871 0.53616 0.02009 0.0
H312 H 0.47247 0.48786 0.01945 0.0
H313 H 0.52313 0.54493 0.01173 0.0
C314 C 0.51429 0.6066 1.00539 0.0
C315 C 0.50579 0.63714 1.00019 0.0
C316 C 0.48528 0.57374 0.01063 0.0
C317 C 0.46763 0.63424 1.00345 0.0
C318 C 0.43855 0.60157 0.00971 0.0
C319 C 0.41797 0.53808 0.01693 0.0
C320 C 0.42677 0.50767 0.02007 0.0
C321 C 0.44701 0.5711 0.01239 0.0
C322 C 0.46499 0.5108 0.018 0.0
C323 C 0.49395 0.54344 0.01337 0.0
H324 H 0.7758 0.5278 0.07871 0.0
H325 H 0.89455 0.5938 0.08027 0.0
H326 H 0.91235 0.54245 0.09571 0.0
H327 H 0.89422 0.47904 0.10718 0.0
H328 H 0.7754 0.41296 0.1 0.0
H329 H 0.75773 0.46435 0.0915 0.0
C330 C 0.80564 0.53109 0.08231 0.0
C331 C 0.83381 0.5648 0.07785 0.0
C332 C 0.81567 0.50144 0.09126 0.0
C333 C 0.87227 0.56831 0.0831 0.0
C334 C 0.88246 0.53892 0.09218 0.0
C335 C 0.8644 0.47568 0.10299 0.0
C336 C 0.83624 0.44182 0.10341 0.0
C337 C 0.85439 0.50536 0.09597 0.0
C338 C 0.7978 0.43842 0.10067 0.0
C339 C 0.78763 0.46789 0.09488 0.0
H340 H 0.33856 0.73291 0.96602 0.0
H341 H 0.35795 0.83746 0.07027 0.0
H342 H 0.42605 0.85443 0.04868 0.0
H343 H 0.48078 0.83916 1.0025 0.0
H344 H 0.45985 0.7343 0.89719 0.0
H345 H 0.39211 0.71826 0.91549 0.0
C346 C 0.35768 0.75936 0.9847 0.0
C347 C 0.34312 0.78372 0.02054 0.0
C348 C 0.39673 0.7691 0.97087 0.0
C349 C 0.36835 0.81805 0.04296 0.0
C350 C 0.40735 0.82785 0.0303 0.0
C351 C 0.46128 0.813 0.98225 0.0
C352 C 0.47553 0.78805 0.94867 0.0
C353 C 0.42195 0.80361 0.99411 0.0
C354 C 0.44982 0.75409 0.92362 0.0
C355 C 0.41096 0.74475 0.93434 0.0
H356 H 0.59247 0.52302 0.01066 0.0
H357 H 0.68944 0.49394 0.08966 0.0
H358 H 0.64766 0.43276 0.09184 0.0
H359 H 0.5826 0.38727 0.07524 0.0
H360 H 0.48734 0.41788 0.99063 0.0
H361 H 0.52989 0.47859 0.98172 0.0
C362 C 0.60489 0.50352 0.02674 0.0
C363 C 0.6443 0.51355 0.04993 0.0
C364 C 0.58092 0.4684 0.02573 0.0
C365 C 0.65925 0.48742 0.07294 0.0
C366 C 0.63536 0.45223 0.07328 0.0
C367 C 0.57143 0.40726 0.05318 0.0
C368 C 0.53195 0.39826 0.03405 0.0
C369 C 0.59606 0.44239 0.05005 0.0
C370 C 0.51761 0.42434 0.0066 0.0
C371 C 0.54183 0.45901 1.00202 0.0
H372 H 0.30745 0.41749 0.69413 0.0
H373 H 0.18707 0.35992 0.71129 0.0
H374 H 0.17841 0.35743 0.52477 0.0
H375 H 0.2048 0.37158 0.35607 0.0
H376 H 0.32526 0.42877 0.33896 0.0
H377 H 0.33388 0.43143 0.52548 0.0
C378 C 0.27934 0.40432 0.65711 0.0
C379 C 0.24803 0.38894 0.71688 0.0
C380 C 0.27445 0.40297 0.54949 0.0
C381 C 0.21176 0.37202 0.6674 0.0
C382 C 0.2067 0.37058 0.56055 0.0
C383 C 0.23292 0.38472 0.39312 0.0
C384 C 0.26425 0.39998 0.33337 0.0
C385 C 0.23781 0.38602 0.50074 0.0
C386 C 0.30054 0.41677 0.38285 0.0
C387 C 0.30558 0.41831 0.4897 0.0
H388 H 0.80279 0.23 0.74724 0.0
H389 H 0.835 0.34107 0.79086 0.0
H390 H 0.83819 0.34934 0.60656 0.0
H391 H 0.83207 0.32526 0.43217 0.0
H392 H 0.80024 0.21422 0.3886 0.0
H393 H 0.79679 0.20593 0.57284 0.0
C394 C 0.81044 0.25599 0.71642 0.0
C395 C 0.8186 0.28478 0.78303 0.0
C396 C 0.8124 0.26069 0.61 0.0
C397 C 0.82856 0.31834 0.7416 0.0
C398 C 0.83043 0.32318 0.636 0.0
C399 C 0.82444 0.29927 0.46298 0.0
C400 C 0.81646 0.2705 0.3964 0.0
C401 C 0.82248 0.29457 0.5694 0.0
C402 C 0.80656 0.23694 0.43784 0.0
C403 C 0.80453 0.23209 0.5434 0.0
H404 H 0.60154 0.85096 0.62437 0.0
H405 H 0.56902 0.73957 0.65277 0.0
H406 H 0.5668 0.73304 0.46683 0.0
H407 H 0.57393 0.75881 0.29575 0.0
H408 H 0.60687 0.87026 0.26751 0.0
H409 H 0.60905 0.87676 0.4534 0.0
C410 C 0.59398 0.82524 0.58997 0.0
C411 C 0.58544 0.79583 0.6527 0.0
C412 C 0.59279 0.82162 0.48278 0.0
C413 C 0.57573 0.76271 0.60656 0.0
C414 C 0.57443 0.75891 0.50007 0.0
C415 C 0.58156 0.78453 0.33016 0.0
C416 C 0.59014 0.81396 0.26745 0.0
C417 C 0.58287 0.78817 0.43738 0.0
C418 C 0.60008 0.8471 0.31366 0.0
C419 C 0.60135 0.85089 0.42014 0.0
H420 H 0.85048 0.67749 0.73172 0.0
H421 H 0.73379 0.60813 0.75171 0.0
H422 H 0.72541 0.60277 0.56544 0.0
H423 H 0.75101 0.6177 0.39613 0.0
H424 H 0.86755 0.68743 0.37613 0.0
H425 H 0.876 0.69259 0.56241 0.0
C426 C 0.82322 0.66121 0.69535 0.0
C427 C 0.79289 0.64328 0.75583 0.0
C428 C 0.81847 0.65824 0.58786 0.0
C429 C 0.75771 0.62229 0.70724 0.0
C430 C 0.75283 0.61916 0.60053 0.0
C431 C 0.77826 0.634 0.4325 0.0
C432 C 0.80853 0.65208 0.37202 0.0
C433 C 0.78299 0.637 0.54 0.0
C434 C 0.84366 0.67317 0.4206 0.0
C435 C 0.8486 0.67618 0.52732 0.0
H436 H 0.23527 0.80657 0.36864 0.0
H437 H 0.22937 0.70069 0.33067 0.0
H438 H 0.22669 0.69242 0.51518 0.0
H439 H 0.2257 0.71499 0.68799 0.0
H440 H 0.23133 0.8208 0.7259 0.0
H441 H 0.23424 0.82913 0.54148 0.0
C442 C 0.23354 0.78174 0.40075 0.0
C443 C 0.23258 0.75437 0.33569 0.0
C444 C 0.23177 0.777 0.50721 0.0
C445 C 0.23018 0.72229 0.37876 0.0
C446 C 0.22858 0.71745 0.48444 0.0
C447 C 0.22742 0.73982 0.65589 0.0
C448 C 0.22824 0.76714 0.72093 0.0
C449 C 0.22922 0.74457 0.54944 0.0
C450 C 0.23064 0.79923 0.67786 0.0
C451 C 0.23235 0.8041 0.57221 0.0
H452 H 0.47092 0.27632 0.73262 0.0
H453 H 0.43646 0.16499 0.7677 0.0
H454 H 0.43271 0.15691 0.58238 0.0
H455 H 0.43925 0.18126 0.40955 0.0
H456 H 0.47372 0.29258 0.37437 0.0
H457 H 0.47727 0.30066 0.5597 0.0
C458 C 0.46267 0.25031 0.69975 0.0
C459 C 0.45405 0.22138 0.76422 0.0
C460 C 0.46046 0.24573 0.59272 0.0
C461 C 0.44328 0.18781 0.72011 0.0
C462 C 0.44109 0.18309 0.61393 0.0
C463 C 0.44746 0.20727 0.4424 0.0
C464 C 0.45623 0.2362 0.37794 0.0
C465 C 0.44957 0.21184 0.5494 0.0
C466 C 0.46686 0.26976 0.42199 0.0
C467 C 0.46893 0.27448 0.52817 0.0
loop_
_geom_bond_atom_site_label_1
_geom_bond_atom_site_label_2
_geom_bond_distance
_geom_bond_site_symmetry_2
_ccdc_geom_bond_type
Co0 N5 2.057 . S
Co0 O17 2.021 1_554 S
Co0 O20 2.062 . S
Co0 O24 2.117 . S
Co0 O25 2.020 . S
C1 O21 1.259 . S
C1 O24 1.258 . S
Co2 N11 2.057 1_554 S
Co2 O18 2.117 1_554 S
Co2 O19 2.020 . S
Co2 O21 2.021 . S
Co2 O26 2.062 . S
C3 N5 1.316 1_556 S
C3 N6 1.347 1_556 S
C3 H8 0.931 . S
C4 N5 1.375 . S
C4 C7 1.350 . S
C4 H9 0.930 . S
N5 Co0 2.057 . S
N5 C3 1.316 1_554 S
N5 C4 1.375 . S
N6 C3 1.347 1_554 S
N6 C7 1.373 . S
C7 C4 1.350 . S
C7 N6 1.373 . S
C7 H28 0.931 . S
H8 C3 0.931 . S
H9 C4 0.930 . S
C10 O17 1.259 . S
C10 O18 1.258 . S
N11 Co2 2.057 1_556 S
N11 C12 1.316 1_556 S
N11 C13 1.375 . S
C12 N11 1.316 1_554 S
C12 N14 1.347 . S
C12 H23 0.931 . S
C13 N11 1.375 . S
C13 C15 1.350 . S
C13 H22 0.930 . S
N14 C12 1.347 . S
N14 C15 1.373 1_554 S
C15 C13 1.350 . S
C15 N14 1.373 1_556 S
C15 H29 0.931 . S
C16 O19 1.256 . S
C16 O20 1.255 . S
O17 Co0 2.021 1_556 S
O17 C10 1.259 . S
O18 Co2 2.117 1_556 S
O18 C10 1.258 . S
O19 Co2 2.020 . S
O19 C16 1.256 . S
O20 Co0 2.062 . S
O20 C16 1.255 . S
O21 C1 1.259 . S
O21 Co2 2.021 . S
H22 C13 0.930 . S
H23 C12 0.931 . S
O24 Co0 2.117 . S
O24 C1 1.258 . S
O25 Co0 2.020 . S
O25 C27 1.256 . S
O26 Co2 2.062 . S
O26 C27 1.255 . S
C27 O25 1.256 . S
C27 O26 1.255 . S
H28 C7 0.931 . S
H29 C15 0.931 . S
Co30 N35 2.057 . S
Co30 O47 2.021 1_554 S
Co30 O50 2.062 . S
Co30 O54 2.117 . S
Co30 O55 2.020 . S
C31 O51 1.259 . S
C31 O54 1.258 . S
Co32 N41 2.057 . S
Co32 O48 2.117 1_554 S
Co32 O49 2.020 . S
Co32 O51 2.021 . S
Co32 O56 2.062 . S
C33 N35 1.316 . S
C33 N36 1.347 . S
C33 H38 0.931 1_554 S
C34 N35 1.375 . S
C34 C37 1.350 . S
C34 H39 0.930 . S
N35 Co30 2.057 . S
N35 C33 1.316 . S
N35 C34 1.375 . S
N36 C33 1.347 . S
N36 C37 1.373 . S
C37 C34 1.350 . S
C37 N36 1.373 . S
C37 H58 0.931 . S
H38 C33 0.931 1_556 S
H39 C34 0.930 . S
C40 O47 1.259 . S
C40 O48 1.258 . S
N41 Co32 2.057 . S
N41 C42 1.316 . S
N41 C43 1.375 1_554 S
C42 N41 1.316 . S
C42 N44 1.347 . S
C42 H53 0.931 . S
C43 N41 1.375 1_556 S
C43 C45 1.350 . S
C43 H52 0.930 . S
N44 C42 1.347 . S
N44 C45 1.373 1_554 S
C45 C43 1.350 . S
C45 N44 1.373 1_556 S
C45 H59 0.931 . S
C46 O49 1.256 . S
C46 O50 1.255 . S
O47 Co30 2.021 1_556 S
O47 C40 1.259 . S
O48 Co32 2.117 1_556 S
O48 C40 1.258 . S
O49 Co32 2.020 . S
O49 C46 1.256 . S
O50 Co30 2.062 . S
O50 C46 1.255 . S
O51 C31 1.259 . S
O51 Co32 2.021 . S
H52 C43 0.930 . S
H53 C42 0.931 . S
O54 Co30 2.117 . S
O54 C31 1.258 . S
O55 Co30 2.020 . S
O55 C57 1.256 . S
O56 Co32 2.062 . S
O56 C57 1.255 . S
C57 O55 1.256 . S
C57 O56 1.255 . S
H58 C37 0.931 . S
H59 C45 0.931 . S
Co60 N65 2.057 1_554 S
Co60 O77 2.021 . S
Co60 O80 2.062 . S
Co60 O84 2.117 1_554 S
Co60 O85 2.020 . S
C61 O81 1.259 . S
C61 O84 1.258 . S
Co62 N71 2.057 1_556 S
Co62 O78 2.117 1_556 S
Co62 O79 2.020 . S
Co62 O81 2.021 . S
Co62 O86 2.062 . S
C63 N65 1.316 1_554 S
C63 N66 1.347 1_554 S
C63 H68 0.931 . S
C64 N65 1.375 . S
C64 C67 1.350 . S
C64 H69 0.930 . S
N65 Co60 2.057 1_556 S
N65 C63 1.316 1_556 S
N65 C64 1.375 . S
N66 C63 1.347 1_556 S
N66 C67 1.373 . S
C67 C64 1.350 . S
C67 N66 1.373 . S
C67 H88 0.931 . S
H68 C63 0.931 . S
H69 C64 0.930 . S
C70 O77 1.259 . S
C70 O78 1.258 . S
N71 Co62 2.057 1_554 S
N71 C72 1.316 1_554 S
N71 C73 1.375 . S
C72 N71 1.316 1_556 S
C72 N74 1.347 1_556 S
C72 H83 0.931 . S
C73 N71 1.375 . S
C73 C75 1.350 . S
C73 H82 0.930 . S
N74 C72 1.347 1_554 S
N74 C75 1.373 . S
C75 C73 1.350 . S
C75 N74 1.373 . S
C75 H89 0.931 . S
C76 O79 1.255 1_554 S
C76 O80 1.255 . S
O77 Co60 2.021 . S
O77 C70 1.259 . S
O78 Co62 2.117 1_554 S
O78 C70 1.258 . S
O79 Co62 2.020 . S
O79 C76 1.255 1_556 S
O80 Co60 2.062 . S
O80 C76 1.255 . S
O81 C61 1.259 . S
O81 Co62 2.021 . S
H82 C73 0.930 . S
H83 C72 0.931 . S
O84 Co60 2.117 1_556 S
O84 C61 1.258 . S
O85 Co60 2.020 . S
O85 C87 1.256 . S
O86 Co62 2.062 . S
O86 C87 1.255 1_556 S
C87 O85 1.256 . S
C87 O86 1.255 1_554 S
H88 C67 0.931 . S
H89 C75 0.931 . S
Co90 N95 2.057 . S
Co90 O107 2.021 1_554 S
Co90 O110 2.062 . S
Co90 O114 2.117 . S
Co90 O115 2.020 . S
C91 O111 1.259 . S
C91 O114 1.258 . S
Co92 N101 2.057 . S
Co92 O108 2.117 1_554 S
Co92 O109 2.020 . S
Co92 O111 2.021 . S
Co92 O116 2.062 . S
C93 N95 1.316 . S
C93 N96 1.347 . S
C93 H98 0.931 1_554 S
C94 N95 1.375 . S
C94 C97 1.350 . S
C94 H99 0.930 . S
N95 Co90 2.057 . S
N95 C93 1.316 . S
N95 C94 1.375 . S
N96 C93 1.347 . S
N96 C97 1.373 . S
C97 C94 1.350 . S
C97 N96 1.373 . S
C97 H118 0.931 . S
H98 C93 0.931 1_556 S
H99 C94 0.930 . S
C100 O107 1.259 . S
C100 O108 1.258 . S
N101 Co92 2.057 . S
N101 C102 1.316 . S
N101 C103 1.375 1_554 S
C102 N101 1.316 . S
C102 N104 1.347 . S
C102 H113 0.931 . S
C103 N101 1.375 1_556 S
C103 C105 1.350 . S
C103 H112 0.930 . S
N104 C102 1.347 . S
N104 C105 1.373 1_554 S
C105 C103 1.350 . S
C105 N104 1.373 1_556 S
C105 H119 0.931 . S
C106 O109 1.256 . S
C106 O110 1.255 . S
O107 Co90 2.021 1_556 S
O107 C100 1.259 . S
O108 Co92 2.117 1_556 S
O108 C100 1.258 . S
O109 Co92 2.020 . S
O109 C106 1.256 . S
O110 Co90 2.062 . S
O110 C106 1.255 . S
O111 C91 1.259 . S
O111 Co92 2.021 . S
H112 C103 0.930 . S
H113 C102 0.931 . S
O114 Co90 2.117 . S
O114 C91 1.258 . S
O115 Co90 2.020 . S
O115 C117 1.256 . S
O116 Co92 2.062 . S
O116 C117 1.255 . S
C117 O115 1.256 . S
C117 O116 1.255 . S
H118 C97 0.931 . S
H119 C105 0.931 . S
Co120 N125 2.057 . S
Co120 O137 2.021 1_554 S
Co120 O140 2.062 . S
Co120 O144 2.117 . S
Co120 O145 2.020 . S
C121 O141 1.259 . S
C121 O144 1.258 . S
Co122 N131 2.057 1_554 S
Co122 O138 2.117 1_554 S
Co122 O139 2.020 . S
Co122 O141 2.021 . S
Co122 O146 2.062 . S
C123 N125 1.316 1_556 S
C123 N126 1.347 1_556 S
C123 H128 0.931 . S
C124 N125 1.375 . S
C124 C127 1.350 . S
C124 H129 0.930 . S
N125 Co120 2.057 . S
N125 C123 1.316 1_554 S
N125 C124 1.375 . S
N126 C123 1.347 1_554 S
N126 C127 1.373 . S
C127 C124 1.350 . S
C127 N126 1.373 . S
C127 H148 0.931 . S
H128 C123 0.931 . S
H129 C124 0.930 . S
C130 O137 1.259 . S
C130 O138 1.258 . S
N131 Co122 2.057 1_556 S
N131 C132 1.316 1_556 S
N131 C133 1.375 . S
C132 N131 1.316 1_554 S
C132 N134 1.347 . S
C132 H143 0.931 . S
C133 N131 1.375 . S
C133 C135 1.350 . S
C133 H142 0.930 . S
N134 C132 1.347 . S
N134 C135 1.373 1_554 S
C135 C133 1.350 . S
C135 N134 1.373 1_556 S
C135 H149 0.931 . S
C136 O139 1.256 . S
C136 O140 1.255 . S
O137 Co120 2.021 1_556 S
O137 C130 1.259 . S
O138 Co122 2.117 1_556 S
O138 C130 1.258 . S
O139 Co122 2.020 . S
O139 C136 1.256 . S
O140 Co120 2.062 . S
O140 C136 1.255 . S
O141 C121 1.259 . S
O141 Co122 2.021 . S
H142 C133 0.930 . S
H143 C132 0.931 . S
O144 Co120 2.117 . S
O144 C121 1.258 . S
O145 Co120 2.020 . S
O145 C147 1.256 . S
O146 Co122 2.062 . S
O146 C147 1.255 . S
C147 O145 1.256 . S
C147 O146 1.255 . S
H148 C127 0.931 . S
H149 C135 0.931 . S
Co150 N155 2.057 . S
Co150 O167 2.021 . S
Co150 O170 2.062 . S
Co150 O174 2.117 1_554 S
Co150 O175 2.020 . S
C151 O171 1.259 . S
C151 O174 1.258 . S
Co152 N161 2.057 . S
Co152 O168 2.117 . S
Co152 O169 2.020 . S
Co152 O171 2.021 1_554 S
Co152 O176 2.062 . S
C153 N155 1.316 . S
C153 N156 1.347 . S
C153 H158 0.931 . S
C154 N155 1.375 1_556 S
C154 C157 1.350 . S
C154 H159 0.930 . S
N155 Co150 2.057 . S
N155 C153 1.316 . S
N155 C154 1.375 1_554 S
N156 C153 1.347 . S
N156 C157 1.373 1_554 S
C157 C154 1.350 . S
C157 N156 1.373 1_556 S
C157 H178 0.931 . S
H158 C153 0.931 . S
H159 C154 0.930 . S
C160 O167 1.259 . S
C160 O168 1.258 . S
N161 Co152 2.057 . S
N161 C162 1.316 . S
N161 C163 1.375 . S
C162 N161 1.316 . S
C162 N164 1.347 . S
C162 H173 0.931 1_554 S
C163 N161 1.375 . S
C163 C165 1.350 . S
C163 H172 0.930 . S
N164 C162 1.347 . S
N164 C165 1.373 . S
C165 C163 1.350 . S
C165 N164 1.373 . S
C165 H179 0.931 . S
C166 O169 1.256 . S
C166 O170 1.255 . S
O167 Co150 2.021 . S
O167 C160 1.259 . S
O168 Co152 2.117 . S
O168 C160 1.258 . S
O169 Co152 2.020 . S
O169 C166 1.256 . S
O170 Co150 2.062 . S
O170 C166 1.255 . S
O171 C151 1.259 . S
O171 Co152 2.021 1_556 S
H172 C163 0.930 . S
H173 C162 0.931 1_556 S
O174 Co150 2.117 1_556 S
O174 C151 1.258 . S
O175 Co150 2.020 . S
O175 C177 1.256 . S
O176 Co152 2.062 . S
O176 C177 1.255 . S
C177 O175 1.256 . S
C177 O176 1.255 . S
H178 C157 0.931 . S
H179 C165 0.931 . S
H180 C186 0.930 . S
H181 C189 0.930 . S
H182 C190 0.930 . S
H183 C191 0.930 1_556 S
H184 C194 0.930 . S
H185 C195 0.930 . S
C186 H180 0.930 . S
C186 C187 1.355 . S
C186 C188 1.415 . S
C187 C186 1.355 . S
C187 C189 1.419 . S
C188 C186 1.415 . S
C188 C193 1.425 . S
C188 C195 1.409 . S
C189 H181 0.930 . S
C189 C187 1.419 . S
C189 C190 1.362 . S
C190 H182 0.930 . S
C190 C189 1.362 . S
C190 C193 1.409 . S
C191 H183 0.930 1_554 S
C191 C192 1.355 . S
C191 C193 1.415 . S
C192 C191 1.355 . S
C192 C194 1.419 . S
C193 C188 1.425 . S
C193 C190 1.409 . S
C193 C191 1.415 . S
C194 H184 0.930 . S
C194 C192 1.419 . S
C194 C195 1.362 . S
C195 H185 0.930 . S
C195 C188 1.409 . S
C195 C194 1.362 . S
H196 C202 0.930 . S
H197 C205 0.930 . S
H198 C206 0.930 . S
H199 C207 0.930 . S
H200 C210 0.930 . S
H201 C211 0.930 . S
C202 H196 0.930 . S
C202 C203 1.355 1_655 S
C202 C204 1.415 . S
C203 C202 1.355 1_455 S
C203 C205 1.419 1_554 S
C204 C202 1.415 . S
C204 C209 1.425 1_554 S
C204 C211 1.409 . S
C205 H197 0.930 . S
C205 C203 1.419 1_556 S
C205 C206 1.362 1_455 S
C206 H198 0.930 . S
C206 C205 1.362 1_655 S
C206 C209 1.409 . S
C207 H199 0.930 . S
C207 C208 1.355 1_556 S
C207 C209 1.415 . S
C208 C207 1.355 1_554 S
C208 C210 1.419 . S
C209 C204 1.425 1_556 S
C209 C206 1.409 . S
C209 C207 1.415 . S
C210 H200 0.930 . S
C210 C208 1.419 . S
C210 C211 1.362 . S
C211 H201 0.930 . S
C211 C204 1.409 . S
C211 C210 1.362 . S
H212 C218 0.930 . S
H213 C221 0.930 . S
H214 C222 0.930 . S
H215 C223 0.930 . S
H216 C226 0.930 . S
H217 C227 0.930 . S
C218 H212 0.930 . S
C218 C219 1.355 . S
C218 C220 1.415 . S
C219 C218 1.355 . S
C219 C221 1.419 1_554 S
C220 C218 1.415 . S
C220 C225 1.425 1_554 S
C220 C227 1.409 1_545 S
C221 H213 0.930 . S
C221 C219 1.419 1_556 S
C221 C222 1.362 . S
C222 H214 0.930 . S
C222 C221 1.362 . S
C222 C225 1.409 . S
C223 H215 0.930 . S
C223 C224 1.355 1_556 S
C223 C225 1.415 1_565 S
C224 C223 1.355 1_554 S
C224 C226 1.419 . S
C225 C220 1.425 1_556 S
C225 C222 1.409 . S
C225 C223 1.415 1_545 S
C226 H216 0.930 . S
C226 C224 1.419 . S
C226 C227 1.362 . S
C227 H217 0.930 . S
C227 C220 1.409 1_565 S
C227 C226 1.362 . S
H228 C234 0.930 1_556 S
H229 C237 0.930 . S
H230 C238 0.930 . S
H231 C239 0.930 . S
H232 C242 0.930 . S
H233 C243 0.930 . S
C234 H228 0.930 1_554 S
C234 C235 1.355 . S
C234 C236 1.415 . S
C235 C234 1.355 . S
C235 C237 1.419 . S
C236 C234 1.415 . S
C236 C241 1.425 . S
C236 C243 1.409 1_554 S
C237 H229 0.930 . S
C237 C235 1.419 . S
C237 C238 1.362 . S
C238 H230 0.930 . S
C238 C237 1.362 . S
C238 C241 1.409 . S
C239 H231 0.930 . S
C239 C240 1.355 . S
C239 C241 1.415 . S
C240 C239 1.355 . S
C240 C242 1.419 1_554 S
C241 C236 1.425 . S
C241 C238 1.409 . S
C241 C239 1.415 . S
C242 H232 0.930 . S
C242 C240 1.419 1_556 S
C242 C243 1.362 . S
C243 H233 0.930 . S
C243 C236 1.409 1_556 S
C243 C242 1.362 . S
H244 C250 0.930 . S
H245 C253 0.930 . S
H246 C254 0.930 . S
H247 C255 0.930 1_655 S
H248 C258 0.930 1_655 S
H249 C259 0.930 . S
C250 H244 0.930 . S
C250 C251 1.355 1_556 S
C250 C252 1.413 1_556 S
C251 C250 1.355 1_554 S
C251 C253 1.419 . S
C252 C250 1.413 1_554 S
C252 C257 1.433 . S
C252 C259 1.404 1_554 S
C253 H245 0.930 . S
C253 C251 1.419 . S
C253 C254 1.362 . S
C254 H246 0.930 . S
C254 C253 1.362 . S
C254 C257 1.409 . S
C255 H247 0.930 1_455 S
C255 C256 1.355 1_455 S
C255 C257 1.415 . S
C256 C255 1.355 1_655 S
C256 C258 1.419 1_654 S
C257 C252 1.433 . S
C257 C254 1.409 . S
C257 C255 1.415 . S
C258 H248 0.930 1_455 S
C258 C256 1.419 1_456 S
C258 C259 1.362 . S
C259 H249 0.930 . S
C259 C252 1.404 1_556 S
C259 C258 1.362 . S
H260 C266 0.930 . S
H261 C269 0.930 . S
H262 C270 0.930 . S
H263 C271 0.930 . S
H264 C274 0.930 . S
H265 C275 0.930 . S
C266 H260 0.930 . S
C266 C267 1.355 1_556 S
C266 C268 1.415 1_556 S
C267 C266 1.355 1_554 S
C267 C269 1.419 . S
C268 C266 1.415 1_554 S
C268 C273 1.427 . S
C268 C275 1.409 1_564 S
C269 H261 0.930 . S
C269 C267 1.419 . S
C269 C270 1.362 . S
C270 H262 0.930 . S
C270 C269 1.362 . S
C270 C273 1.415 . S
C271 H263 0.930 . S
C271 C272 1.355 . S
C271 C273 1.408 1_545 S
C272 C271 1.355 . S
C272 C274 1.419 1_554 S
C273 C268 1.427 . S
C273 C270 1.415 . S
C273 C271 1.408 1_565 S
C274 H264 0.930 . S
C274 C272 1.419 1_556 S
C274 C275 1.362 . S
C275 H265 0.930 . S
C275 C268 1.409 1_546 S
C275 C274 1.362 . S
H276 C282 0.930 . S
H277 C285 0.930 . S
H278 C286 0.930 . S
H279 C287 0.930 . S
H280 C290 0.930 . S
H281 C291 0.930 . S
C282 H276 0.930 . S
C282 C283 1.355 1_556 S
C282 C284 1.415 . S
C283 C282 1.355 1_554 S
C283 C285 1.419 . S
C284 C282 1.415 . S
C284 C289 1.425 1_556 S
C284 C291 1.409 . S
C285 H277 0.930 . S
C285 C283 1.419 . S
C285 C286 1.362 . S
C286 H278 0.930 . S
C286 C285 1.362 . S
C286 C289 1.409 . S
C287 H279 0.930 . S
C287 C288 1.347 1_554 S
C287 C289 1.415 . S
C288 C287 1.347 1_556 S
C288 C290 1.429 . S
C289 C284 1.425 1_554 S
C289 C286 1.409 . S
C289 C287 1.415 . S
C290 H280 0.930 . S
C290 C288 1.429 . S
C290 C291 1.362 . S
C291 H281 0.930 . S
C291 C284 1.409 . S
C291 C290 1.362 . S
H292 C298 0.930 . S
H293 C301 0.930 . S
H294 C302 0.930 . S
H295 C303 0.930 . S
H296 C306 0.930 . S
H297 C307 0.930 . S
C298 H292 0.930 . S
C298 C299 1.355 1_556 S
C298 C300 1.415 1_556 S
C299 C298 1.355 1_554 S
C299 C301 1.419 . S
C300 C298 1.415 1_554 S
C300 C305 1.425 . S
C300 C307 1.409 1_554 S
C301 H293 0.930 . S
C301 C299 1.419 . S
C301 C302 1.362 . S
C302 H294 0.930 . S
C302 C301 1.362 . S
C302 C305 1.409 . S
C303 H295 0.930 . S
C303 C304 1.355 . S
C303 C305 1.415 . S
C304 C303 1.355 . S
C304 C306 1.419 1_554 S
C305 C300 1.425 . S
C305 C302 1.409 . S
C305 C303 1.415 . S
C306 H296 0.930 . S
C306 C304 1.419 1_556 S
C306 C307 1.362 . S
C307 H297 0.930 . S
C307 C300 1.409 1_556 S
C307 C306 1.362 . S
H308 C314 0.930 . S
H309 C317 0.930 . S
H310 C318 0.930 . S
H311 C319 0.930 . S
H312 C322 0.930 . S
H313 C323 0.930 . S
C314 H308 0.930 . S
C314 C315 1.355 1_554 S
C314 C316 1.415 . S
C315 C314 1.355 1_556 S
C315 C317 1.419 . S
C316 C314 1.415 . S
C316 C321 1.425 1_554 S
C316 C323 1.409 . S
C317 H309 0.930 . S
C317 C315 1.419 . S
C317 C318 1.362 . S
C318 H310 0.930 . S
C318 C317 1.362 . S
C318 C321 1.409 . S
C319 H311 0.930 . S
C319 C320 1.355 1_556 S
C319 C321 1.415 . S
C320 C319 1.355 1_554 S
C320 C322 1.419 . S
C321 C316 1.425 1_556 S
C321 C318 1.409 . S
C321 C319 1.415 . S
C322 H312 0.930 . S
C322 C320 1.419 . S
C322 C323 1.362 . S
C323 H313 0.930 . S
C323 C316 1.409 . S
C323 C322 1.362 . S
H324 C330 0.930 . S
H325 C333 0.934 . S
H326 C334 0.930 . S
H327 C335 0.924 1_556 S
H328 C338 0.930 . S
H329 C339 0.930 . S
C330 H324 0.930 . S
C330 C331 1.355 . S
C330 C332 1.415 . S
C331 C330 1.355 . S
C331 C333 1.414 1_554 S
C332 C330 1.415 . S
C332 C337 1.425 . S
C332 C339 1.409 . S
C333 H325 0.934 . S
C333 C331 1.414 1_556 S
C333 C334 1.363 . S
C334 H326 0.930 . S
C334 C333 1.363 . S
C334 C337 1.409 1_556 S
C335 H327 0.924 1_554 S
C335 C336 1.355 . S
C335 C337 1.415 . S
C336 C335 1.355 . S
C336 C338 1.419 . S
C337 C332 1.425 . S
C337 C334 1.409 1_554 S
C337 C335 1.415 . S
C338 H328 0.930 . S
C338 C336 1.419 . S
C338 C339 1.362 . S
C339 H329 0.930 . S
C339 C332 1.409 . S
C339 C338 1.362 . S
H340 C346 0.930 . S
H341 C349 0.930 . S
H342 C350 0.930 . S
H343 C351 0.930 . S
H344 C354 0.930 . S
H345 C355 0.930 . S
C346 H340 0.930 . S
C346 C347 1.355 1_556 S
C346 C348 1.415 . S
C347 C346 1.355 1_554 S
C347 C349 1.419 . S
C348 C346 1.415 . S
C348 C353 1.425 1_556 S
C348 C355 1.409 . S
C349 H341 0.930 . S
C349 C347 1.419 . S
C349 C350 1.362 . S
C350 H342 0.930 . S
C350 C349 1.362 . S
C350 C353 1.409 . S
C351 H343 0.930 . S
C351 C352 1.355 1_554 S
C351 C353 1.415 . S
C352 C351 1.355 1_556 S
C352 C354 1.419 . S
C353 C348 1.425 1_554 S
C353 C350 1.409 . S
C353 C351 1.415 . S
C354 H344 0.930 . S
C354 C352 1.419 . S
C354 C355 1.362 . S
C355 H345 0.930 . S
C355 C348 1.409 . S
C355 C354 1.362 . S
H356 C362 0.930 . S
H357 C365 0.930 . S
H358 C366 0.930 . S
H359 C367 0.930 1_556 S
H360 C370 0.930 . S
H361 C371 0.930 . S
C362 H356 0.930 . S
C362 C363 1.355 . S
C362 C364 1.415 . S
C363 C362 1.355 . S
C363 C365 1.419 1_554 S
C364 C362 1.415 . S
C364 C369 1.425 . S
C364 C371 1.409 . S
C365 H357 0.930 . S
C365 C363 1.419 1_556 S
C365 C366 1.362 . S
C366 H358 0.930 . S
C366 C365 1.362 . S
C366 C369 1.409 1_556 S
C367 H359 0.930 1_554 S
C367 C368 1.355 . S
C367 C369 1.415 . S
C368 C367 1.355 . S
C368 C370 1.419 . S
C369 C364 1.425 . S
C369 C366 1.409 1_554 S
C369 C367 1.415 . S
C370 H360 0.930 . S
C370 C368 1.419 . S
C370 C371 1.362 . S
C371 H361 0.930 . S
C371 C364 1.409 . S
C371 C370 1.362 . S
H372 C378 0.930 . S
H373 C381 0.930 . S
H374 C382 0.930 . S
H375 C383 0.930 . S
H376 C386 0.930 . S
H377 C387 0.930 . S
C378 H372 0.930 . S
C378 C379 1.355 . S
C378 C380 1.415 . S
C379 C378 1.355 . S
C379 C381 1.419 . S
C380 C378 1.415 . S
C380 C385 1.425 . S
C380 C387 1.409 . S
C381 H373 0.930 . S
C381 C379 1.419 . S
C381 C382 1.362 . S
C382 H374 0.930 . S
C382 C381 1.362 . S
C382 C385 1.409 . S
C383 H375 0.930 . S
C383 C384 1.355 . S
C383 C385 1.415 . S
C384 C383 1.355 . S
C384 C386 1.419 . S
C385 C380 1.425 . S
C385 C382 1.409 . S
C385 C383 1.415 . S
C386 H376 0.930 . S
C386 C384 1.419 . S
C386 C387 1.362 . S
C387 H377 0.930 . S
C387 C380 1.409 . S
C387 C386 1.362 . S
H388 C394 0.930 . S
H389 C397 0.930 . S
H390 C398 0.930 . S
H391 C399 0.930 . S
H392 C402 0.930 . S
H393 C403 0.930 . S
C394 H388 0.930 . S
C394 C395 1.355 . S
C394 C396 1.415 . S
C395 C394 1.355 . S
C395 C397 1.419 . S
C396 C394 1.415 . S
C396 C401 1.425 . S
C396 C403 1.409 . S
C397 H389 0.930 . S
C397 C395 1.419 . S
C397 C398 1.362 . S
C398 H390 0.930 . S
C398 C397 1.362 . S
C398 C401 1.409 . S
C399 H391 0.930 . S
C399 C400 1.355 . S
C399 C401 1.415 . S
C400 C399 1.355 . S
C400 C402 1.419 . S
C401 C396 1.425 . S
C401 C398 1.409 . S
C401 C399 1.415 . S
C402 H392 0.930 . S
C402 C400 1.419 . S
C402 C403 1.362 . S
C403 H393 0.930 . S
C403 C396 1.409 . S
C403 C402 1.362 . S
H404 C410 0.930 . S
H405 C413 0.930 . S
H406 C414 0.930 . S
H407 C415 0.930 . S
H408 C418 0.930 . S
H409 C419 0.930 . S
C410 H404 0.930 . S
C410 C411 1.355 . S
C410 C412 1.415 . S
C411 C410 1.355 . S
C411 C413 1.419 . S
C412 C410 1.415 . S
C412 C417 1.425 . S
C412 C419 1.409 . S
C413 H405 0.930 . S
C413 C411 1.419 . S
C413 C414 1.362 . S
C414 H406 0.930 . S
C414 C413 1.362 . S
C414 C417 1.409 . S
C415 H407 0.930 . S
C415 C416 1.355 . S
C415 C417 1.415 . S
C416 C415 1.355 . S
C416 C418 1.419 . S
C417 C412 1.425 . S
C417 C414 1.409 . S
C417 C415 1.415 . S
C418 H408 0.930 . S
C418 C416 1.419 . S
C418 C419 1.362 . S
C419 H409 0.930 . S
C419 C412 1.409 . S
C419 C418 1.362 . S
H420 C426 0.930 . S
H421 C429 0.930 . S
H422 C430 0.930 . S
H423 C431 0.930 . S
H424 C434 0.930 . S
H425 C435 0.930 . S
C426 H420 0.930 . S
C426 C427 1.355 . S
C426 C428 1.415 . S
C427 C426 1.355 . S
C427 C429 1.419 . S
C428 C426 1.415 . S
C428 C433 1.425 . S
C428 C435 1.409 . S
C429 H421 0.930 . S
C429 C427 1.419 . S
C429 C430 1.362 . S
C430 H422 0.930 . S
C430 C429 1.362 . S
C430 C433 1.409 . S
C431 H423 0.930 . S
C431 C432 1.355 . S
C431 C433 1.415 . S
C432 C431 1.355 . S
C432 C434 1.419 . S
C433 C428 1.425 . S
C433 C430 1.409 . S
C433 C431 1.415 . S
C434 H424 0.930 . S
C434 C432 1.419 . S
C434 C435 1.362 . S
C435 H425 0.930 . S
C435 C428 1.409 . S
C435 C434 1.362 . S
H436 C442 0.930 . S
H437 C445 0.930 . S
H438 C446 0.930 . S
H439 C447 0.930 . S
H440 C450 0.930 . S
H441 C451 0.930 . S
C442 H436 0.930 . S
C442 C443 1.355 . S
C442 C444 1.415 . S
C443 C442 1.355 . S
C443 C445 1.419 . S
C444 C442 1.415 . S
C444 C449 1.425 . S
C444 C451 1.409 . S
C445 H437 0.930 . S
C445 C443 1.419 . S
C445 C446 1.362 . S
C446 H438 0.930 . S
C446 C445 1.362 . S
C446 C449 1.409 . S
C447 H439 0.930 . S
C447 C448 1.355 . S
C447 C449 1.415 . S
C448 C447 1.355 . S
C448 C450 1.419 . S
C449 C444 1.425 . S
C449 C446 1.409 . S
C449 C447 1.415 . S
C450 H440 0.930 . S
C450 C448 1.419 . S
C450 C451 1.362 . S
C451 H441 0.930 . S
C451 C444 1.409 . S
C451 C450 1.362 . S
H452 C458 0.930 . S
H453 C461 0.930 . S
H454 C462 0.930 . S
H455 C463 0.930 . S
H456 C466 0.930 . S
H457 C467 0.930 . S
C458 H452 0.930 . S
C458 C459 1.355 . S
C458 C460 1.415 . S
C459 C458 1.355 . S
C459 C461 1.419 . S
C460 C458 1.415 . S
C460 C465 1.425 . S
C460 C467 1.409 . S
C461 H453 0.930 . S
C461 C459 1.419 . S
C461 C462 1.362 . S
C462 H454 0.930 . S
C462 C461 1.362 . S
C462 C465 1.409 . S
C463 H455 0.930 . S
C463 C464 1.355 . S
C463 C465 1.415 . S
C464 C463 1.355 . S
C464 C466 1.419 . S
C465 C460 1.425 . S
C465 C462 1.409 . S
C465 C463 1.415 . S
C466 H456 0.930 . S
C466 C464 1.419 . S
C466 C467 1.362 . S
C467 H457 0.930 . S
C467 C460 1.409 . S
C467 C466 1.362 . S
C187 C166 1.032 . S
C192 C27 0.930 . S
C203 N14 1.551 . S
C208 C46 1.774 . S
C219 N36 1.697 . S
C224 N74 1.552 . S
C235 C106 1.035 . S
C240 C87 0.969 . S
C251 C147 1.770 . S
C256 N96 1.623 . S
C267 N134 1.669 . S
C272 N156 1.605 . S
C283 N126 1.455 . S
C288 C16 1.492 1_556 S
C299 C177 1.924 . S
C304 C57 1.933 . S
C315 N66 1.258 . S
C320 N6 1.255 . S
C331 C117 1.495 . S
C336 N44 1.499 . S
C347 C136 1.932 . S
C352 C76 1.912 1_556 S
C363 N104 1.255 . S
C368 N164 1.263 . S
C379 C10 1.497 . S
C384 C1 1.497 . S
C395 C40 1.495 . S
C400 C31 1.495 . S
C411 C61 1.498 . S
C416 C70 1.498 . S
C427 C100 1.490 . S
C432 C91 1.490 . S
C443 C121 1.496 . S
C448 C130 1.496 . S
C459 C151 1.499 . S
C464 C160 1.499 . S
