# Generated by pormake.
# Topology snz, (6)-cn, num edge types: 1
# Building blocks:
#     Node 0, Type 0, BuildingBlock: CUKXOW_clean_sbu_0, # of connection points: 6
#     Node 1, Type 0, BuildingBlock: CUKXOW_clean_sbu_0, # of connection points: 6
#     Node 2, Type 0, BuildingBlock: CUKXOW_clean_sbu_0, # of connection points: 6
#     Node 3, Type 0, BuildingBlock: CUKXOW_clean_sbu_0, # of connection points: 6
#     Node 4, Type 0, BuildingBlock: CUKXOW_clean_sbu_0, # of connection points: 6
#     Node 5, Type 0, BuildingBlock: CUKXOW_clean_sbu_0, # of connection points: 6
#     Node 6, Type 0, BuildingBlock: CUKXOW_clean_sbu_0, # of connection points: 6
#     Node 7, Type 0, BuildingBlock: CUKXOW_clean_sbu_0, # of connection points: 6
#     Node 8, Type 0, BuildingBlock: CUKXOW_clean_sbu_0, # of connection points: 6
#     Edge 9, Type (0, 0), BuildingBlock: KIFKEQ_clean_linker_1, # of connection points: 2
#     Edge 10, Type (0, 0), BuildingBlock: KIFKEQ_clean_linker_1, # of connection points: 2
#     Edge 11, Type (0, 0), BuildingBlock: KIFKEQ_clean_linker_1, # of connection points: 2
#     Edge 12, Type (0, 0), BuildingBlock: KIFKEQ_clean_linker_1, # of connection points: 2
#     Edge 13, Type (0, 0), BuildingBlock: KIFKEQ_clean_linker_1, # of connection points: 2
#     Edge 14, Type (0, 0), BuildingBlock: KIFKEQ_clean_linker_1, # of connection points: 2
#     Edge 15, Type (0, 0), BuildingBlock: KIFKEQ_clean_linker_1, # of connection points: 2
#     Edge 16, Type (0, 0), BuildingBlock: KIFKEQ_clean_linker_1, # of connection points: 2
#     Edge 17, Type (0, 0), BuildingBlock: KIFKEQ_clean_linker_1, # of connection points: 2
#     Edge 18, Type (0, 0), BuildingBlock: KIFKEQ_clean_linker_1, # of connection points: 2
#     Edge 19, Type (0, 0), BuildingBlock: KIFKEQ_clean_linker_1, # of connection points: 2
#     Edge 20, Type (0, 0), BuildingBlock: KIFKEQ_clean_linker_1, # of connection points: 2
#     Edge 21, Type (0, 0), BuildingBlock: KIFKEQ_clean_linker_1, # of connection points: 2
#     Edge 22, Type (0, 0), BuildingBlock: KIFKEQ_clean_linker_1, # of connection points: 2
#     Edge 23, Type (0, 0), BuildingBlock: KIFKEQ_clean_linker_1, # of connection points: 2
#     Edge 24, Type (0, 0), BuildingBlock: KIFKEQ_clean_linker_1, # of connection points: 2
#     Edge 25, Type (0, 0), BuildingBlock: KIFKEQ_clean_linker_1, # of connection points: 2
#     Edge 26, Type (0, 0), BuildingBlock: KIFKEQ_clean_linker_1, # of connection points: 2
#     Edge 27, Type (0, 0), BuildingBlock: KIFKEQ_clean_linker_1, # of connection points: 2
#     Edge 28, Type (0, 0), BuildingBlock: KIFKEQ_clean_linker_1, # of connection points: 2
#     Edge 29, Type (0, 0), BuildingBlock: KIFKEQ_clean_linker_1, # of connection points: 2
#     Edge 30, Type (0, 0), BuildingBlock: KIFKEQ_clean_linker_1, # of connection points: 2
#     Edge 31, Type (0, 0), BuildingBlock: KIFKEQ_clean_linker_1, # of connection points: 2
#     Edge 32, Type (0, 0), BuildingBlock: KIFKEQ_clean_linker_1, # of connection points: 2
#     Edge 33, Type (0, 0), BuildingBlock: KIFKEQ_clean_linker_1, # of connection points: 2
#     Edge 34, Type (0, 0), BuildingBlock: KIFKEQ_clean_linker_1, # of connection points: 2
#     Edge 35, Type (0, 0), BuildingBlock: KIFKEQ_clean_linker_1, # of connection points: 2
# Relax obj value: 0.105
# Max RMSD: 0.185
# Mean RMSD: 0.132
data_MOF--net-snz--node1-CUKXOW_clean_sbu_0--edge1-KIFKEQ_clean_linker_1
_symmetry_space_group_name_H-M    P1
_symmetry_Int_Tables_number       1
_symmetry_cell_setting            triclinic
loop_
_symmetry_equiv_pos_as_xyz
'x, y, z'
_cell_length_a     49.822065
_cell_length_b     57.313216
_cell_length_c     14.792034
_cell_angle_alpha  92.745407
_cell_angle_beta   92.763342
_cell_angle_gamma 120.02979
loop_
_atom_site_label
_atom_site_type_symbol
_atom_site_fract_x
_atom_site_fract_y
_atom_site_fract_z
_atom_type_partial_charge
Tb0 Tb 0.04916 0.43183 0.92181 0.0
C1 C 0.09628 0.46233 0.77633 0.0
Tb2 Tb 0.10195 0.49295 0.96232 0.0
O3 O 1.01402 0.44438 0.92795 0.0
O4 O 0.05785 0.47053 0.88824 0.0
O5 O 0.0786 0.4388 0.81043 0.0
C6 C 0.13021 0.54634 0.99051 0.0
O7 O 0.10439 0.48608 0.81933 0.0
C8 C 0.12161 0.45977 0.01008 0.0
C9 C 0.06387 0.45973 0.11742 0.0
O10 O 0.14152 0.53307 0.94899 0.0
O11 O 0.10273 0.52955 0.0144 0.0
O12 O 0.13847 0.48594 0.02329 0.0
O13 O 0.0958 0.45458 0.97339 0.0
O14 O 0.0764 0.48338 0.0822 0.0
O15 O 0.05313 0.43642 0.06837 0.0
C16 C 1.01445 0.37883 0.87846 0.0
O17 O 0.03192 0.39006 0.95362 0.0
O18 O 1.0167 0.39744 0.82745 0.0
C19 C 0.03263 0.4688 0.90668 0.0
Tb20 Tb 0.61493 0.49872 0.01811 0.0
C21 C 0.61418 0.4641 0.17428 0.0
Tb22 Tb 0.60234 0.44033 0.97819 0.0
O23 O 0.56865 0.49031 0.05135 0.0
O24 O 0.57696 0.45922 0.01613 0.0
O25 O 0.63076 0.48778 0.14068 0.0
C26 C 0.58606 0.38991 0.92059 0.0
O27 O 0.59775 0.44152 0.1213 0.0
C28 C 0.66143 0.47997 0.98874 0.0
C29 C 0.58571 0.46939 0.82617 0.0
O30 O 0.60165 0.41111 0.87681 0.0
O31 O 0.57893 0.39694 -0.00345 0.0
O32 O 0.65242 0.45584 0.01259 0.0
O33 O 0.63776 0.4801 0.95694 0.0
O34 O 0.58014 0.44624 0.85835 0.0
O35 O 0.60107 0.49318 0.87445 0.0
C36 C 0.64819 0.55194 0.05938 0.0
O37 O 0.64369 0.54003 0.97862 0.0
O38 O 0.63362 0.53397 0.11569 0.0
C39 C 0.55631 0.46417 0.041 0.0
Tb40 Tb 0.62173 0.98027 0.11773 0.0
C41 C 0.62041 0.94334 0.95077 0.0
Tb42 Tb 0.64573 0.94239 0.14471 0.0
O43 O 0.6689 0.01493 0.12633 0.0
O44 O 0.66066 0.97782 0.07429 0.0
O45 O 0.60652 0.95556 0.98797 0.0
C46 C 0.68138 0.92055 0.18297 0.0
O47 O 0.64032 0.93893 -0.00119 0.0
C48 C 0.58533 0.92094 0.15844 0.0
C49 C 0.64792 0.97997 0.30962 0.0
O50 O 0.65144 0.9073 0.16484 0.0
O51 O 0.69127 0.94611 0.17923 0.0
O52 O 0.59843 0.90748 0.13143 0.0
O53 O 0.60628 0.94464 0.18559 0.0
O54 O 0.66165 0.96792 0.27094 0.0
O55 O 0.62599 0.9824 0.26444 0.0
C56 C 0.59144 0.00662 0.07895 0.0
O57 O 0.61785 0.01662 0.12653 0.0
O58 O 0.58153 0.98137 0.0545 0.0
C59 C 0.68192 0.00175 0.09679 0.0
Tb60 Tb 0.82891 0.79814 0.33674 0.0
C61 C 0.87447 0.83225 0.19142 0.0
Tb62 Tb 0.87595 0.85801 0.38311 0.0
O63 O 0.79137 0.80596 0.36585 0.0
O64 O 0.831 0.83545 0.31307 0.0
O65 O 0.85578 0.80807 0.21939 0.0
C66 C 0.90042 0.91129 0.40684 0.0
O67 O 0.8836 0.8552 0.24128 0.0
C68 C 0.89535 0.82536 0.43623 0.0
C69 C 0.84024 0.82149 0.53428 0.0
O70 O 0.91585 0.89928 0.38601 0.0
O71 O 0.87153 0.89333 0.41376 0.0
O72 O 0.90572 0.84957 0.47446 0.0
O73 O 0.87768 0.82193 0.36682 0.0
O74 O 0.84968 0.84529 0.50196 0.0
O75 O 0.83379 0.7997 0.48207 0.0
C76 C 0.79508 0.74663 0.27212 0.0
O77 O 0.79627 0.76696 0.23387 0.0
O78 O 0.81298 0.75523 0.34738 0.0
C79 C 0.80559 0.83055 0.34289 0.0
Tb80 Tb 0.3206 0.85273 0.3516 0.0
C81 C 0.32537 0.81679 0.49461 0.0
Tb82 Tb 0.2969 0.79177 0.29667 0.0
O83 O 0.28385 0.8408 0.44434 0.0
O84 O 0.27668 0.81596 0.32791 0.0
O85 O 0.33949 0.84139 0.46523 0.0
C86 C 0.26177 0.73985 0.23989 0.0
O87 O 0.30561 0.79459 0.44232 0.0
C88 C 0.35722 0.82229 0.27403 0.0
C89 C 0.29673 0.82843 0.15283 0.0
O90 O 0.26318 0.74995 0.32198 0.0
O91 O 0.28026 0.75883 0.19164 0.0
O92 O 0.34138 0.79626 0.2564 0.0
O93 O 0.33866 0.82894 0.30384 0.0
O94 O 0.27918 0.80537 0.1882 0.0
O95 O 0.31776 0.85023 0.20388 0.0
C96 C 0.34285 0.9056 0.37515 0.0
O97 O 0.31562 0.888 0.33658 0.0
O98 O 0.35802 0.89347 0.39839 0.0
C99 C 0.26518 0.81765 0.40034 0.0
Tb100 Tb 0.26896 0.33687 0.16949 0.0
C101 C 0.26484 0.29758 0.00719 0.0
Tb102 Tb 0.29849 0.29971 0.19256 0.0
O103 O 0.31567 0.37307 0.18914 0.0
O104 O 0.31019 0.33673 0.13631 0.0
O105 O 0.2505 0.30866 0.0493 0.0
C106 C 0.33605 0.27952 0.21295 0.0
O107 O 0.28784 0.29545 0.04733 0.0
C108 C 0.24 0.27513 0.23573 0.0
C109 C 0.29061 0.32991 0.36163 0.0
O110 O 0.31 0.26832 0.16217 0.0
O111 O 0.34165 0.30285 0.24907 0.0
O112 O 0.25768 0.26456 0.24001 0.0
O113 O 0.25585 0.29778 0.20521 0.0
O114 O 0.30925 0.32263 0.32405 0.0
O115 O 0.2706 0.3342 0.3137 0.0
C116 C 0.23195 0.35749 0.1371 0.0
O117 O 0.23665 0.34969 0.21425 0.0
O118 O 0.24838 0.35395 0.07823 0.0
C119 C 0.33016 0.36048 0.16533 0.0
Tb120 Tb 0.43593 0.15301 0.65177 0.0
C121 C 0.50467 0.1983 0.70393 0.0
Tb122 Tb 0.48215 0.13637 0.69667 0.0
O123 O 0.43645 0.16616 0.79435 0.0
O124 O 0.44471 0.13471 0.76484 0.0
O125 O 0.47863 0.19157 0.65443 0.0
C126 C 0.52019 0.12172 0.77667 0.0
O127 O 0.51052 0.17987 0.73509 0.0
C128 C 0.47168 0.13875 0.5196 0.0
C129 C 0.41366 0.09116 0.64576 0.0
O130 O 0.51106 0.11757 0.69099 0.0
O131 O 0.50891 0.13513 0.81663 0.0
O132 O 0.47874 0.12188 0.55345 0.0
O133 O 0.47347 0.15484 0.58443 0.0
O134 O 0.43932 0.09806 0.69761 0.0
O135 O 0.40792 0.10953 0.61358 0.0
C136 C 0.39906 0.16651 0.5586 0.0
O137 O 0.40712 0.17198 0.6451 0.0
O138 O 0.41067 0.15246 0.52583 0.0
C139 C 0.4451 0.15036 0.82918 0.0
Tb140 Tb 0.92242 0.12716 0.66111 0.0
C141 C 0.96114 0.09993 0.61265 0.0
Tb142 Tb 0.99069 0.16321 0.6371 0.0
O143 O 0.91135 0.11194 0.51634 0.0
O144 O 0.94864 0.15022 0.55452 0.0
O145 O 0.93683 0.0974 0.65296 0.0
C146 C 0.04581 0.1923 0.56906 0.0
O147 O 0.98347 0.1235 0.58933 0.0
C148 C 0.97655 0.15753 0.80972 0.0
C149 C 0.95188 0.19047 0.68156 0.0
O150 O 0.0407 0.17698 0.63572 0.0
O151 O 1.02011 0.19113 0.54181 0.0
O152 O 0.99999 0.17881 0.7818 0.0
O153 O 0.96442 0.13994 0.74271 0.0
O154 O 0.97601 0.19284 0.64048 0.0
O155 O 0.92991 0.16706 0.70709 0.0
C156 C 0.86926 0.09798 0.73879 0.0
O157 O 0.87298 0.11391 0.67477 0.0
O158 O 0.89521 0.09861 0.75793 0.0
C159 C 0.9354 0.13258 0.48759 0.0
Tb160 Tb 0.99493 0.66408 0.6688 0.0
C161 C 0.97224 0.60394 0.7046 0.0
Tb162 Tb 0.92677 0.6278 0.68877 0.0
O163 O 1.00692 0.66077 0.81056 0.0
O164 O 0.96481 0.65857 0.77501 0.0
O165 O 0.99435 0.62592 0.67181 0.0
C166 C 0.87189 0.59638 0.75639 0.0
O167 O 0.9449 0.60114 0.72153 0.0
C168 C 0.94061 0.6357 0.51721 0.0
C169 C 0.9487 0.68718 0.64857 0.0
O170 O 0.878 0.59463 0.67281 0.0
O171 O 0.89663 0.61576 0.80155 0.0
O172 O 0.91416 0.63036 0.54695 0.0
O173 O 0.95685 0.63355 0.58181 0.0
O174 O 0.92731 0.66585 0.68613 0.0
O175 O 0.97556 0.68944 0.62802 0.0
C176 C 0.05131 0.69594 0.60988 0.0
O177 O 0.03951 0.70256 0.67593 0.0
O178 O 0.03135 0.67151 0.57729 0.0
C179 C 0.9806 0.65597 0.8396 0.0
H180 H 0.12434 0.50541 0.67572 0.0
H181 H 0.08212 0.41828 0.66068 0.0
H182 H 0.11993 0.50385 0.51263 0.0
H183 H 0.07915 0.41687 0.49558 0.0
H184 H 0.02899 0.4229 0.23427 0.0
H185 H 0.04452 0.42252 0.39335 0.0
H186 H 0.13251 0.49546 0.3702 0.0
H187 H 0.11606 0.49675 0.21498 0.0
C188 C 0.11508 0.48597 0.63754 0.0
C189 C 0.10255 0.46188 0.6808 0.0
C190 C 0.11272 0.48508 0.5436 0.0
C191 C 0.09839 0.46012 0.49139 0.0
C192 C 0.08935 0.43629 0.53453 0.0
C193 C 0.09133 0.43715 0.6289 0.0
C194 C 0.0513 0.43902 0.26451 0.0
C195 C 0.07084 0.46032 0.21436 0.0
C196 C 0.06053 0.43856 0.3545 0.0
C197 C 0.08981 0.45899 0.39409 0.0
C198 C 0.10959 0.47979 0.34231 0.0
C199 C 0.10002 0.48066 0.25375 0.0
H200 H 0.55455 0.42494 0.706 0.0
H201 H 0.60153 0.51237 0.72418 0.0
H202 H 0.55828 0.42408 0.54408 0.0
H203 H 0.60385 0.51138 0.56012 0.0
H204 H 0.56124 0.42866 0.24512 0.0
H205 H 0.54635 0.43156 0.39702 0.0
H206 H 0.63677 0.50233 0.46977 0.0
H207 H 0.651 0.5002 0.31533 0.0
C208 C 0.56475 0.44398 0.67507 0.0
C209 C 0.57869 0.46878 0.72819 0.0
C210 C 0.56673 0.44347 0.58176 0.0
C211 C 0.58221 0.46773 0.53975 0.0
C212 C 0.59273 0.49241 0.59138 0.0
C213 C 0.59105 0.49294 0.68515 0.0
C214 C 0.57812 0.44461 0.29401 0.0
C215 C 0.60754 0.46393 0.26949 0.0
C216 C 0.56946 0.44639 0.38079 0.0
C217 C 0.59029 0.46722 0.4453 0.0
C218 C 0.61991 0.48639 0.42092 0.0
C219 C 0.62834 0.48491 0.3333 0.0
H220 H 0.67265 0.95676 0.87051 0.0
H221 H 0.5772 0.93691 0.81651 0.0
H222 H 0.68466 0.97411 0.72469 0.0
H223 H 0.58825 0.95139 0.66335 0.0
H224 H 0.61759 0.99667 0.42183 0.0
H225 H 0.61284 0.9895 0.58262 0.0
H226 H 0.67971 0.9622 0.57632 0.0
H227 H 0.68662 0.97189 0.42102 0.0
C228 C 0.65379 0.95491 0.82539 0.0
C229 C 0.62388 0.94527 0.85401 0.0
C230 C 0.66074 0.965 0.74141 0.0
C231 C 0.6375 0.96433 0.68207 0.0
C232 C 0.60695 0.95299 0.70853 0.0
C233 C 0.60032 0.94399 0.79488 0.0
C234 C 0.63208 0.99015 0.45629 0.0
C235 C 0.65169 0.98398 0.40861 0.0
C236 C 0.62895 0.98554 0.54775 0.0
C237 C 0.64497 0.97429 0.59151 0.0
C238 C 0.66693 0.97089 0.54554 0.0
C239 C 0.67075 0.97627 0.45556 0.0
H240 H 0.8362 0.85326 0.66833 0.0
H241 H 0.85966 0.79099 0.61661 0.0
H242 H 0.85496 0.85854 0.82727 0.0
H243 H 0.88062 0.79765 0.7729 0.0
H244 H 0.86514 0.78986 0.07799 0.0
H245 H 0.86167 0.7881 0.91485 0.0
H246 H 0.90059 0.87485 0.92791 0.0
H247 H 0.90223 0.87637 0.09302 0.0
C248 C 0.8452 0.84065 0.69146 0.0
C249 C 0.84603 0.82145 0.63146 0.0
C250 C 0.85667 0.8441 0.78155 0.0
C251 C 0.86982 0.82885 0.81205 0.0
C252 C 0.87041 0.80953 0.75161 0.0
C253 C 0.85813 0.80554 0.66239 0.0
C254 C 0.87358 0.80869 0.04634 0.0
C255 C 0.88262 0.83308 0.09764 0.0
C256 C 0.87189 0.80771 0.95246 0.0
C257 C 0.87984 0.83123 0.90874 0.0
C258 C 0.89321 0.85627 0.96035 0.0
C259 C 0.89444 0.85719 0.05468 0.0
H260 H 0.27768 0.78062 0.5815 0.0
H261 H 0.37009 0.85054 0.62762 0.0
H262 H 0.26915 0.78483 0.73823 0.0
H263 H 0.36258 0.8535 0.78898 0.0
H264 H 0.32703 0.87047 0.04606 0.0
H265 H 0.33549 0.86656 0.88598 0.0
H266 H 0.28041 0.77935 0.88279 0.0
H267 H 0.26979 0.78334 0.037 0.0
C268 C 0.2968 0.79619 0.62633 0.0
C269 C 0.32466 0.81518 0.59276 0.0
C270 C 0.29186 0.79867 0.71669 0.0
C271 C 0.31512 0.81961 0.77649 0.0
C272 C 0.34389 0.83756 0.74414 0.0
C273 C 0.34848 0.83557 0.65245 0.0
C274 C 0.31609 0.8506 0.00981 0.0
C275 C 0.29769 0.82729 0.05393 0.0
C276 C 0.32138 0.84829 0.91883 0.0
C277 C 0.3089 0.82261 0.87169 0.0
C278 C 0.28993 0.79949 0.91588 0.0
C279 C 0.28388 0.80182 0.00511 0.0
H280 H 0.23761 0.31638 0.44058 0.0
H281 H 0.33141 0.33188 0.49589 0.0
H282 H 0.22477 0.29991 0.58834 0.0
H283 H 0.31929 0.31743 0.64846 0.0
H284 H 0.28786 0.27432 0.89256 0.0
H285 H 0.29081 0.27884 0.72996 0.0
H286 H 0.23395 0.31628 0.73866 0.0
H287 H 0.22946 0.3103 0.89804 0.0
C288 C 0.25583 0.31705 0.48554 0.0
C289 C 0.28564 0.32563 0.4573 0.0
C290 C 0.24838 0.30747 0.5703 0.0
C291 C 0.27091 0.30718 0.62997 0.0
C292 C 0.30114 0.3167 0.60297 0.0
C293 C 0.30834 0.32554 0.51666 0.0
C294 C 0.27518 0.28268 0.85883 0.0
C295 C 0.25917 0.29265 0.90824 0.0
C296 C 0.27719 0.28559 0.76612 0.0
C297 C 0.26351 0.29874 0.72227 0.0
C298 C 0.24482 0.30606 0.77014 0.0
C299 C 0.24234 0.30271 0.8621 0.0
H300 H 0.47342 0.18088 0.43009 0.0
H301 H 0.45841 0.10042 0.38084 0.0
H302 H 0.46788 0.18383 0.26672 0.0
H303 H 0.45094 0.10234 0.21833 0.0
H304 H 0.46182 0.11749 0.91919 0.0
H305 H 0.46901 0.11559 0.0824 0.0
H306 H 0.44026 0.17454 0.1316 0.0
H307 H 0.43557 0.17771 0.96901 0.0
C308 C 0.46857 0.16365 0.38432 0.0
C309 C 0.46664 0.1405 0.41934 0.0
C310 C 0.46511 0.16517 0.28961 0.0
C311 C 0.45899 0.14338 0.22607 0.0
C312 C 0.45641 0.12002 0.26241 0.0
C313 C 0.46042 0.11874 0.35674 0.0
C314 C 0.45744 0.13029 0.96495 0.0
C315 C 0.44846 0.14799 0.92989 0.0
C316 C 0.46114 0.12898 0.0597 0.0
C317 C 0.45533 0.1449 0.12345 0.0
C318 C 0.44583 0.16228 0.08729 0.0
C319 C 0.44275 0.16393 0.99283 0.0
H320 H 0.98083 0.17711 0.40966 0.0
H321 H 0.90316 0.09709 0.33856 0.0
H322 H 0.99117 0.18236 0.25076 0.0
H323 H 0.91141 0.10283 0.17855 0.0
H324 H 0.94395 0.10978 0.8922 0.0
H325 H 0.93493 0.10377 0.05224 0.0
H326 H 0.98255 0.19064 0.10947 0.0
H327 H 0.99298 0.19618 0.95063 0.0
C328 C 0.96594 0.16052 0.36019 0.0
C329 C 0.94152 0.13648 0.38853 0.0
C330 C 0.97146 0.16367 0.2674 0.0
C331 C 0.95227 0.14311 0.19821 0.0
C332 C 0.92749 0.11917 0.22734 0.0
C333 C 0.92243 0.11588 0.32026 0.0
C334 C 0.95243 0.12757 0.93913 0.0
C335 C 0.9693 0.15348 0.9077 0.0
C336 C 0.9471 0.1242 0.03202 0.0
C337 C 0.95791 0.14663 0.09733 0.0
C338 C 0.97429 0.17256 0.06438 0.0
C339 C 0.98011 0.17587 0.97199 0.0
H340 H 0.99416 0.64635 0.43421 0.0
H341 H 0.90106 0.63101 0.37413 0.0
H342 H 1.00362 0.65196 0.27418 0.0
H343 H 0.90931 0.63461 0.21383 0.0
H344 H 0.93738 0.66273 0.93187 0.0
H345 H 0.9287 0.65877 0.09304 0.0
H346 H 0.99798 0.63485 0.12907 0.0
H347 H 1.00755 0.64041 0.96981 0.0
C348 C 0.97562 0.64405 0.38691 0.0
C349 C 0.94695 0.63845 0.41832 0.0
C350 C 0.98083 0.64693 0.29383 0.0
C351 C 0.95732 0.64381 0.22804 0.0
C352 C 0.92852 0.63787 0.26032 0.0
C353 C 0.92358 0.63548 0.35328 0.0
C354 C 0.95067 0.65658 0.97441 0.0
C355 C 0.97326 0.65201 0.93726 0.0
C356 C 0.94562 0.65411 0.06768 0.0
C357 C 0.96261 0.6465 0.12714 0.0
C358 C 0.98476 0.64142 0.08839 0.0
C359 C 0.99012 0.64435 -0.00418 0.0
H360 H 0.21313 0.36721 0.97374 0.0
H361 H 0.2047 0.37348 0.26173 0.0
H362 H 0.18117 0.38808 0.94658 0.0
H363 H 0.17321 0.39467 0.23473 0.0
H364 H 0.1658 0.46901 0.14172 0.0
H365 H 0.18847 0.44094 0.17481 0.0
H366 H 0.12473 0.38015 0.9669 0.0
H367 H 0.10137 0.4083 0.93503 0.0
C368 C 0.20428 0.37291 0.03107 0.0
C369 C 0.21156 0.36894 0.11988 0.0
C370 C 0.1858 0.38463 0.01547 0.0
C371 C 0.17469 0.39297 0.08855 0.0
C372 C 0.18153 0.3885 0.17718 0.0
C373 C 0.19956 0.3764 0.19261 0.0
C374 C 0.15625 0.44944 0.10414 0.0
C375 C 0.1319 0.44077 0.03589 0.0
C376 C 0.16917 0.43334 0.12327 0.0
C377 C 0.15844 0.40841 0.07328 0.0
C378 C 0.1335 0.39936 0.00619 0.0
C379 C 0.12003 0.4153 0.98839 0.0
H380 H 0.65941 0.57707 0.22776 0.0
H381 H 0.68431 0.5916 0.95199 0.0
H382 H 0.69618 0.62433 0.2764 0.0
H383 H 0.72162 0.63909 0.00094 0.0
H384 H 0.75744 0.72752 0.11571 0.0
H385 H 0.72203 0.68036 0.06079 0.0
H386 H 0.75297 0.65469 0.29394 0.0
H387 H 0.78809 0.70196 0.34946 0.0
C388 C 0.67273 0.59046 0.17753 0.0
C389 C 0.66908 0.58083 0.08618 0.0
C390 C 0.69397 0.61743 0.20551 0.0
C391 C 0.71196 0.63532 0.14264 0.0
C392 C 0.70791 0.62576 0.05076 0.0
C393 C 0.68664 0.59867 0.02275 0.0
C394 C 0.75675 0.71176 0.15485 0.0
C395 C 0.77526 0.71823 0.23698 0.0
C396 C 0.73664 0.6848 0.12318 0.0
C397 C 0.73464 0.66388 0.17331 0.0
C398 C 0.75372 0.67043 0.25459 0.0
C399 C 0.7739 0.69741 0.28612 0.0
H400 H 0.5431 0.86745 0.15197 0.0
H401 H 0.55244 0.94593 0.20536 0.0
H402 H 0.48876 0.84584 0.1816 0.0
H403 H 0.49697 0.92425 0.23045 0.0
H404 H 0.40113 0.8731 0.35212 0.0
H405 H 0.45661 0.8985 0.32521 0.0
H406 H 0.44107 0.83624 0.11772 0.0
H407 H 0.38694 0.81066 0.14882 0.0
C408 C 0.53335 0.88012 0.16905 0.0
C409 C 0.55202 0.90838 0.17585 0.0
C410 C 0.50195 0.86771 0.18536 0.0
C411 C 0.48792 0.88316 0.20702 0.0
C412 C 0.50679 0.91159 0.21456 0.0
C413 C 0.53855 0.92406 0.19957 0.0
C414 C 0.4098 0.86509 0.30068 0.0
C415 C 0.38991 0.83977 0.25344 0.0
C416 C 0.44155 0.87963 0.28485 0.0
C417 C 0.4538 0.86925 0.22047 0.0
C418 C 0.43312 0.84457 0.17023 0.0
C419 C 0.40185 0.82993 0.18738 0.0
H420 H 0.54362 0.99107 0.94875 0.0
H421 H 0.61077 0.05912 0.1296 0.0
H422 H 0.52718 0.02012 0.8778 0.0
H423 H 0.59457 0.08818 0.05857 0.0
H424 H 0.53425 0.12424 0.95851 0.0
H425 H 0.54993 0.09585 0.0374 0.0
H426 H 0.55166 0.05827 0.7792 0.0
H427 H 0.53586 0.08653 0.70063 0.0
C428 C 0.55451 0.01213 0.9741 0.0
C429 C 0.57844 0.0229 0.04445 0.0
C430 C 0.54536 0.02882 0.933 0.0
C431 C 0.55986 0.0565 0.96199 0.0
C432 C 0.58289 0.06693 0.03499 0.0
C433 C 0.59217 0.0503 0.07558 0.0
C434 C 0.53851 0.11022 0.91877 0.0
C435 C 0.53399 0.10762 0.82358 0.0
C436 C 0.54737 0.09392 0.96385 0.0
C437 C 0.55164 0.0746 0.91449 0.0
C438 C 0.54798 0.07262 0.81911 0.0
C439 C 0.53932 0.08902 0.7741 0.0
H440 H 0.92738 0.20244 0.82618 0.0
H441 H 0.97548 0.23493 0.58753 0.0
H442 H 0.93481 0.24697 0.87498 0.0
H443 H 0.98286 0.27903 0.63575 0.0
H444 H 0.98106 0.35365 0.71773 0.0
H445 H 0.95688 0.30563 0.66754 0.0
H446 H 0.9843 0.29035 0.92953 0.0
H447 H 1.00825 0.33831 0.97979 0.0
C448 C 0.93879 0.2189 0.78316 0.0
C449 C 0.95107 0.2154 0.70355 0.0
C450 C 0.94321 0.24435 0.81128 0.0
C451 C 0.9595 0.26645 0.75928 0.0
C452 C 0.96995 0.26236 0.67679 0.0
C453 C 0.96593 0.23714 0.6495 0.0
C454 C 0.98144 0.33991 0.76494 0.0
C455 C 0.99679 0.3496 0.85213 0.0
C456 C 0.96762 0.31249 0.73628 0.0
C457 C 0.96884 0.29431 0.79451 0.0
C458 C 0.9827 0.30384 0.88354 0.0
C459 C 0.99664 0.33129 0.91203 0.0
H460 H 0.86019 0.59084 0.93473 0.0
H461 H 0.81536 0.56399 0.66292 0.0
H462 H 0.80989 0.56337 -0.00285 0.0
H463 H 0.76502 0.5371 0.72529 0.0
H464 H 0.67889 0.52074 0.87733 0.0
H465 H 0.73024 0.54906 0.8238 0.0
H466 H 0.76763 0.51093 0.9924 0.0
H467 H 0.71585 0.48201 0.04485 0.0
C468 C 0.83957 0.57908 0.88843 0.0
C469 C 0.84162 0.57951 0.79399 0.0
C470 C 0.81085 0.56333 0.92414 0.0
C471 C 0.78355 0.5482 0.86608 0.0
C472 C 0.78566 0.54873 0.77162 0.0
C473 C 0.81444 0.56401 0.73595 0.0
C474 C 0.6981 0.51855 0.90376 0.0
C475 C 0.69334 0.49909 0.96513 0.0
C476 C 0.72744 0.53465 0.8726 0.0
C477 C 0.75285 0.53204 0.90336 0.0
C478 C 0.74844 0.51337 0.96766 0.0
C479 C 0.71887 0.49685 -0.00238 0.0
H480 H 0.94424 0.56627 0.82647 0.0
H481 H 1.01629 0.59371 0.64062 0.0
H482 H 0.95861 0.53406 0.87834 0.0
H483 H 0.02971 0.56052 0.68862 0.0
H484 H 0.0695 0.51929 0.85388 0.0
H485 H 0.05432 0.55136 0.80662 0.0
H486 H 0.95854 0.49389 0.8474 0.0
H487 H 0.97442 0.4626 0.9007 0.0
C488 C 0.96277 0.56504 0.79531 0.0
C489 C 0.97913 0.58258 0.7294 0.0
C490 C 0.97101 0.54644 0.82493 0.0
C491 C 0.99554 0.54459 0.78841 0.0
C492 C 1.01124 0.56168 0.72034 0.0
C493 C 1.00334 0.5806 0.69193 0.0
C494 C 0.0453 0.51374 0.85434 0.0
C495 C 1.02322 0.48857 0.882 0.0
C496 C 0.03643 0.53198 0.82569 0.0
C497 C 1.00505 0.52531 0.82196 0.0
C498 C 0.98298 0.50006 0.85035 0.0
C499 C 0.99201 0.48199 0.88059 0.0
H500 H 0.6004 0.37428 0.76307 0.0
H501 H 0.55672 0.34413 0.00979 0.0
H502 H 0.58848 0.32888 0.7098 0.0
H503 H 0.54443 0.29852 0.95605 0.0
H504 H 0.54255 0.22186 0.86013 0.0
H505 H 0.56798 0.2698 0.91488 0.0
H506 H 0.5388 0.28737 0.65975 0.0
H507 H 0.51372 0.23987 0.6055 0.0
C508 C 0.5883 0.35791 0.80594 0.0
C509 C 0.57915 0.36254 0.89002 0.0
C510 C 0.58155 0.33198 0.77555 0.0
C511 C 0.56559 0.3102 0.82882 0.0
C512 C 0.55716 0.31501 0.91414 0.0
C513 C 0.56384 0.34099 0.94443 0.0
C514 C 0.54252 0.23618 0.81499 0.0
C515 C 0.52613 0.22726 0.72888 0.0
C516 C 0.55671 0.26349 0.8466 0.0
C517 C 0.55507 0.28222 0.79189 0.0
C518 C 0.54064 0.27348 0.70329 0.0
C519 C 0.52619 0.24626 0.67229 0.0
H520 H 0.81631 0.10145 0.73178 0.0
H521 H 0.85874 0.05965 0.85476 0.0
H522 H 0.77117 0.07734 0.82019 0.0
H523 H 0.81372 0.03549 0.94221 0.0
H524 H 0.71104 0.97854 0.00947 0.0
H525 H 0.75577 0.00082 0.91833 0.0
H526 H 0.76274 0.07775 0.98872 0.0
H527 H 0.71835 0.05563 0.07951 0.0
C528 C 0.81583 0.08695 0.77703 0.0
C529 C 0.84097 0.08243 0.78662 0.0
C530 C 0.79014 0.07328 0.82793 0.0
C531 C 0.789 0.05459 0.88833 0.0
C532 C 0.81384 0.0496 0.89585 0.0
C533 C 0.83964 0.06352 0.84601 0.0
C534 C 0.72236 0.00023 0.00599 0.0
C535 C 0.71111 0.0153 0.05116 0.0
C536 C 0.74791 0.01297 0.9539 0.0
C537 C 0.76246 0.04098 0.94544 0.0
C538 C 0.75165 0.05608 0.99263 0.0
C539 C 0.72642 0.04343 0.04539 0.0
H540 H 0.6624 0.86721 0.19008 0.0
H541 H 0.74405 0.94671 0.22962 0.0
H542 H 0.69381 0.84705 0.23155 0.0
H543 H 0.7756 0.92664 0.27341 0.0
H544 H 0.82573 0.87651 0.25278 0.0
H545 H 0.79661 0.89926 0.2149 0.0
H546 H 0.72093 0.84282 0.36203 0.0
H547 H 0.7497 0.81993 0.39776 0.0
C548 C 0.6871 0.88038 0.20797 0.0
C549 C 0.70076 0.9085 0.20679 0.0
C550 C 0.70512 0.86886 0.23245 0.0
C551 C 0.73729 0.8852 0.25672 0.0
C552 C 0.751 0.9134 0.2545 0.0
C553 C 0.73291 0.92493 0.22984 0.0
C554 C 0.80299 0.86919 0.27759 0.0
C555 C 0.78986 0.84632 0.32757 0.0
C556 C 0.78631 0.88224 0.25612 0.0
C557 C 0.75617 0.87267 0.2843 0.0
C558 C 0.74371 0.85039 0.33726 0.0
C559 C 0.76031 0.83737 0.35843 0.0
H560 H 0.25773 0.71935 0.06861 0.0
H561 H 0.22025 0.69703 0.32836 0.0
H562 H 0.22431 0.67305 0.00419 0.0
H563 H 0.18695 0.65016 0.26401 0.0
H564 H 0.18935 0.58245 0.9565 0.0
H565 H 0.2206 0.62946 0.018 0.0
H566 H 0.14194 0.6226 0.15136 0.0
H567 H 0.11081 0.5753 0.09081 0.0
C568 C 0.2424 0.70443 0.11208 0.0
C569 C 0.24161 0.71161 0.20354 0.0
C570 C 0.22335 0.6779 0.07522 0.0
C571 C 0.20313 0.65797 0.1291 0.0
C572 C 0.20213 0.6652 0.22067 0.0
C573 C 0.22128 0.69188 0.25769 0.0
C574 C 0.17868 0.59111 -0.00193 0.0
C575 C 0.14776 0.57538 0.01899 0.0
C576 C 0.19652 0.618 0.03322 0.0
C577 C 0.18373 0.62965 0.08985 0.0
C578 C 0.15251 0.61403 0.109 0.0
C579 C 0.13465 0.5871 0.07369 0.0
H580 H 0.52955 0.47135 0.18432 0.0
H581 H 0.51252 0.41427 0.95756 0.0
H582 H 0.47615 0.44418 0.2217 0.0
H583 H 0.45784 0.38741 0.99116 0.0
H584 H 0.36314 0.33682 0.10727 0.0
H585 H 0.41867 0.35908 0.08427 0.0
H586 H 0.42795 0.43636 0.16703 0.0
H587 H 0.37325 0.41392 0.1942 0.0
C588 C 0.51418 0.45283 0.14241 0.0
C589 C 0.52499 0.445 0.06763 0.0
C590 C 0.48338 0.43733 0.16319 0.0
C591 C 0.4621 0.41387 0.10811 0.0
C592 C 0.4734 0.40529 0.03543 0.0
C593 C 0.50469 0.42064 0.01586 0.0
C594 C 0.37729 0.35853 0.12166 0.0
C595 C 0.36392 0.37361 0.15339 0.0
C596 C 0.40909 0.37136 0.10761 0.0
C597 C 0.4282 0.39962 0.12425 0.0
C598 C 0.41448 0.41454 0.1556 0.0
C599 C 0.38291 0.4017 0.17061 0.0
H600 H 0.89139 0.68227 0.62259 0.0
H601 H 0.98932 0.73964 0.61496 0.0
H602 H 0.87884 0.71589 0.57172 0.0
H603 H 0.97662 0.77347 0.56561 0.0
H604 H 0.93632 0.83251 0.57854 0.0
H605 H 0.94981 0.79959 0.63249 0.0
H606 H 0.886 0.7403 0.42135 0.0
H607 H 0.87331 0.77349 0.36561 0.0
C608 C 0.91028 0.70214 0.61108 0.0
C609 C 0.94139 0.70828 0.62306 0.0
C610 C 0.90304 0.72132 0.58133 0.0
C611 C 0.92674 0.74726 0.56454 0.0
C612 C 0.95789 0.75366 0.57845 0.0
C613 C 0.96514 0.73427 0.60645 0.0
C614 C 0.92533 0.81249 0.54337 0.0
C615 C 0.90364 0.80549 0.4681 0.0
C616 C 0.93308 0.7937 0.57419 0.0
C617 C 0.91889 0.76738 0.53129 0.0
C618 C 0.89708 0.76037 0.45624 0.0
C619 C 0.88979 0.77933 0.4244 0.0
H620 H 0.37756 0.06984 0.48586 0.0
H621 H 0.4067 0.04796 0.73176 0.0
H622 H 0.35816 0.0242 0.41536 0.0
H623 H 0.38686 0.00237 0.6622 0.0
H624 H 0.39612 0.94282 0.47343 0.0
H625 H 0.408 0.98687 0.54169 0.0
H626 H 0.32138 0.97494 0.4164 0.0
H627 H 0.30978 0.93097 0.34674 0.0
C628 C 0.37873 0.05499 0.52594 0.0
C629 C 0.39391 0.06243 0.61382 0.0
C630 C 0.36782 0.02893 0.4854 0.0
C631 C 0.37184 0.01002 0.53252 0.0
C632 C 0.38434 0.01681 0.62337 0.0
C633 C 0.39537 0.0428 0.66353 0.0
C634 C 0.37988 0.94981 0.45948 0.0
C635 C 0.35206 0.93358 0.4052 0.0
C636 C 0.38644 0.97483 0.49938 0.0
C637 C 0.36527 0.98405 0.48585 0.0
C638 C 0.33806 0.9683 0.42817 0.0
C639 C 0.33148 0.94322 0.38825 0.0
H640 H 0.10186 0.19652 0.61686 0.0
H641 H 0.05597 0.22197 0.42362 0.0
H642 H 0.14936 0.21911 0.53801 0.0
H643 H 0.1031 0.244 0.34347 0.0
H644 H 0.20363 0.29834 0.26235 0.0
H645 H 0.15758 0.28088 0.3497 0.0
H646 H 0.1645 0.21001 0.39382 0.0
H647 H 0.21025 0.22758 0.30927 0.0
C648 C 0.10202 0.20705 0.5578 0.0
C649 C 0.07525 0.20735 0.52595 0.0
C650 C 0.12912 0.21988 0.5123 0.0
C651 C 0.12993 0.23314 0.43375 0.0
C652 C 0.10338 0.23419 0.40399 0.0
C653 C 0.07633 0.22141 0.44961 0.0
C654 C 0.19506 0.279 0.29042 0.0
C655 C 0.21054 0.26439 0.27945 0.0
C656 C 0.16877 0.26899 0.34045 0.0
C657 C 0.15764 0.24421 0.38004 0.0
C658 C 0.17284 0.22945 0.36649 0.0
C659 C 0.1989 0.23941 0.31699 0.0
H660 H 0.38181 0.20238 0.61775 0.0
H661 H 0.3901 0.16254 0.37438 0.0
H662 H 0.36941 0.23046 0.52536 0.0
H663 H 0.37815 0.19087 0.28178 0.0
H664 H 0.32136 0.22828 0.15778 0.0
H665 H 0.33603 0.19963 0.23828 0.0
H666 H 0.3974 0.26772 0.42851 0.0
H667 H 0.38231 0.29625 0.3486 0.0
C668 C 0.38055 0.1994 0.54445 0.0
C669 C 0.38677 0.18027 0.50311 0.0
C670 C 0.37389 0.21571 0.49157 0.0
C671 C 0.37334 0.21319 0.39631 0.0
C672 C 0.37837 0.19327 0.35494 0.0
C673 C 0.38508 0.17699 0.40791 0.0
C674 C 0.33856 0.23726 0.21547 0.0
C675 C 0.35058 0.26441 0.24738 0.0
C676 C 0.34691 0.22084 0.26171 0.0
C677 C 0.36738 0.23129 0.34081 0.0
C678 C 0.38099 0.25894 0.36897 0.0
C679 C 0.3727 0.27537 0.32258 0.0
H680 H 0.96131 0.95211 0.4089 0.0
H681 H 0.86877 0.93613 0.45374 0.0
H682 H 0.98245 9e-05 0.4604 0.0
H683 H 0.88968 0.98342 0.50478 0.0
H684 H 0.93599 0.05492 0.7032 0.0
H685 H 0.92592 0.01029 0.64972 0.0
H686 H 0.97611 0.04288 0.41454 0.0
H687 H 0.98649 0.08815 0.46871 0.0
C688 C 0.94556 0.95892 0.4288 0.0
C689 C 0.9135 0.94049 0.42837 0.0
C690 C 0.95761 0.98624 0.45801 0.0
C691 C 0.9377 0.9952 0.48785 0.0
C692 C 0.90557 0.97688 0.48369 0.0
C693 C 0.89361 0.94985 0.45415 0.0
C694 C 0.94544 0.05274 0.64095 0.0
C695 C 0.96155 0.07485 0.58922 0.0
C696 C 0.93963 0.0272 0.61038 0.0
C697 C 0.9497 0.02316 0.52722 0.0
C698 C 0.96809 0.04558 0.47885 0.0
C699 C 0.97403 0.07139 0.50983 0.0
H700 H 0.08057 0.68127 0.48742 0.0
H701 H 0.09244 0.74923 0.65945 0.0
H702 H 0.13255 0.70903 0.43715 0.0
H703 H 0.14378 0.77745 0.60665 0.0
H704 H 0.24557 0.81588 0.56838 0.0
H705 H 0.19464 0.78561 0.61874 0.0
H706 H 0.16403 0.74459 0.34894 0.0
H707 H 0.21594 0.77441 0.30007 0.0
C708 C 0.09427 0.70225 0.51395 0.0
C709 C 0.08254 0.71307 0.57773 0.0
C710 C 0.12404 0.71827 0.48466 0.0
C711 C 0.14273 0.7456 0.51788 0.0
C712 C 0.13058 0.7564 0.58085 0.0
C713 C 0.10097 0.74029 0.61077 0.0
C714 C 0.22799 0.80029 0.51993 0.0
C715 C 0.2346 0.79767 0.43006 0.0
C716 C 0.1986 0.78302 0.54859 0.0
C717 C 0.17473 0.76283 0.48777 0.0
C718 C 0.18172 0.75974 0.39813 0.0
C719 C 0.21142 0.77688 0.36976 0.0
loop_
_geom_bond_atom_site_label_1
_geom_bond_atom_site_label_2
_geom_bond_distance
_geom_bond_site_symmetry_2
_ccdc_geom_bond_type
Tb0 O3 2.453 1_455 S
Tb0 O4 2.596 . S
Tb0 O5 2.374 1_554 S
Tb0 O13 2.343 . S
Tb0 O15 2.353 . S
Tb0 O17 2.427 1_455 S
Tb0 O18 2.513 1_554 S
C1 O5 1.251 . S
C1 O7 1.263 . S
Tb2 O4 2.343 . S
Tb2 O7 2.353 1_554 S
Tb2 O10 2.427 . S
Tb2 O11 2.513 . S
Tb2 O12 2.453 . S
Tb2 O13 2.596 . S
Tb2 O14 2.374 . S
O3 Tb0 2.453 1_655 S
O3 C19 1.245 1_655 S
O4 Tb0 2.596 . S
O4 Tb2 2.343 . S
O4 C19 1.259 . S
O5 Tb0 2.374 1_556 S
O5 C1 1.251 . S
C6 O10 1.275 . S
C6 O11 1.246 . S
O7 C1 1.263 . S
O7 Tb2 2.353 1_556 S
C8 O12 1.245 . S
C8 O13 1.259 . S
C9 O14 1.250 . S
C9 O15 1.263 . S
O10 Tb2 2.427 . S
O10 C6 1.275 . S
O11 Tb2 2.513 . S
O11 C6 1.246 . S
O12 Tb2 2.453 . S
O12 C8 1.245 . S
O13 Tb0 2.343 . S
O13 Tb2 2.596 . S
O13 C8 1.259 . S
O14 Tb2 2.374 . S
O14 C9 1.250 . S
O15 Tb0 2.353 . S
O15 C9 1.263 . S
C16 O17 1.275 . S
C16 O18 1.246 1_654 S
O17 Tb0 2.427 1_655 S
O17 C16 1.275 . S
O18 Tb0 2.513 1_556 S
O18 C16 1.246 1_456 S
C19 O3 1.245 1_455 S
C19 O4 1.259 . S
Tb20 O23 2.453 . S
Tb20 O24 2.596 . S
Tb20 O25 2.374 . S
Tb20 O33 2.343 . S
Tb20 O35 2.353 1_554 S
Tb20 O37 2.427 . S
Tb20 O38 2.513 . S
C21 O25 1.251 . S
C21 O27 1.263 . S
Tb22 O24 2.343 . S
Tb22 O27 2.353 . S
Tb22 O30 2.427 . S
Tb22 O31 2.513 1_554 S
Tb22 O32 2.453 . S
Tb22 O33 2.596 . S
Tb22 O34 2.374 1_554 S
O23 Tb20 2.453 . S
O23 C39 1.245 . S
O24 Tb20 2.596 . S
O24 Tb22 2.343 . S
O24 C39 1.259 . S
O25 Tb20 2.374 . S
O25 C21 1.251 . S
C26 O30 1.275 . S
C26 O31 1.246 1_554 S
O27 C21 1.263 . S
O27 Tb22 2.353 . S
C28 O32 1.245 . S
C28 O33 1.259 . S
C29 O34 1.250 . S
C29 O35 1.263 . S
O30 Tb22 2.427 . S
O30 C26 1.275 . S
O31 Tb22 2.513 1_556 S
O31 C26 1.246 1_556 S
O32 Tb22 2.453 . S
O32 C28 1.245 . S
O33 Tb20 2.343 . S
O33 Tb22 2.596 . S
O33 C28 1.259 . S
O34 Tb22 2.374 1_556 S
O34 C29 1.250 . S
O35 Tb20 2.353 1_556 S
O35 C29 1.263 . S
C36 O37 1.275 . S
C36 O38 1.246 . S
O37 Tb20 2.427 . S
O37 C36 1.275 . S
O38 Tb20 2.513 . S
O38 C36 1.246 . S
C39 O23 1.245 . S
C39 O24 1.259 . S
Tb40 O43 2.453 . S
Tb40 O44 2.596 . S
Tb40 O45 2.374 1_554 S
Tb40 O53 2.343 . S
Tb40 O55 2.353 . S
Tb40 O57 2.427 . S
Tb40 O58 2.513 . S
C41 O45 1.251 . S
C41 O47 1.263 1_545 S
Tb42 O44 2.343 1_565 S
Tb42 O47 2.353 1_554 S
Tb42 O50 2.427 . S
Tb42 O51 2.513 . S
Tb42 O52 2.453 . S
Tb42 O53 2.596 1_565 S
Tb42 O54 2.374 . S
O43 Tb40 2.453 . S
O43 C59 1.245 . S
O44 Tb40 2.596 . S
O44 Tb42 2.343 1_545 S
O44 C59 1.259 . S
O45 Tb40 2.374 1_556 S
O45 C41 1.251 . S
C46 O50 1.275 . S
C46 O51 1.246 . S
O47 C41 1.263 1_565 S
O47 Tb42 2.353 1_556 S
C48 O52 1.245 . S
C48 O53 1.259 1_565 S
C49 O54 1.250 1_545 S
C49 O55 1.263 . S
O50 Tb42 2.427 . S
O50 C46 1.275 . S
O51 Tb42 2.513 . S
O51 C46 1.246 . S
O52 Tb42 2.453 . S
O52 C48 1.245 . S
O53 Tb40 2.343 . S
O53 Tb42 2.596 1_545 S
O53 C48 1.259 1_545 S
O54 Tb42 2.374 . S
O54 C49 1.250 1_565 S
O55 Tb40 2.353 . S
O55 C49 1.263 . S
C56 O57 1.275 . S
C56 O58 1.246 . S
O57 Tb40 2.427 . S
O57 C56 1.275 . S
O58 Tb40 2.513 . S
O58 C56 1.246 . S
C59 O43 1.245 . S
C59 O44 1.259 . S
Tb60 O63 2.453 . S
Tb60 O64 2.596 . S
Tb60 O65 2.374 . S
Tb60 O73 2.343 . S
Tb60 O75 2.353 . S
Tb60 O77 2.427 . S
Tb60 O78 2.513 . S
C61 O65 1.251 . S
C61 O67 1.263 . S
Tb62 O64 2.343 . S
Tb62 O67 2.353 . S
Tb62 O70 2.427 . S
Tb62 O71 2.513 . S
Tb62 O72 2.453 . S
Tb62 O73 2.596 . S
Tb62 O74 2.374 . S
O63 Tb60 2.453 . S
O63 C79 1.245 . S
O64 Tb60 2.596 . S
O64 Tb62 2.343 . S
O64 C79 1.259 . S
O65 Tb60 2.374 . S
O65 C61 1.251 . S
C66 O70 1.275 . S
C66 O71 1.246 . S
O67 C61 1.263 . S
O67 Tb62 2.353 . S
C68 O72 1.245 . S
C68 O73 1.259 . S
C69 O74 1.250 . S
C69 O75 1.263 . S
O70 Tb62 2.427 . S
O70 C66 1.275 . S
O71 Tb62 2.513 . S
O71 C66 1.246 . S
O72 Tb62 2.453 . S
O72 C68 1.245 . S
O73 Tb60 2.343 . S
O73 Tb62 2.596 . S
O73 C68 1.259 . S
O74 Tb62 2.374 . S
O74 C69 1.250 . S
O75 Tb60 2.353 . S
O75 C69 1.263 . S
C76 O77 1.275 . S
C76 O78 1.246 . S
O77 Tb60 2.427 . S
O77 C76 1.275 . S
O78 Tb60 2.513 . S
O78 C76 1.246 . S
C79 O63 1.245 . S
C79 O64 1.259 . S
Tb80 O83 2.453 . S
Tb80 O84 2.596 . S
Tb80 O85 2.374 . S
Tb80 O93 2.343 . S
Tb80 O95 2.353 . S
Tb80 O97 2.427 . S
Tb80 O98 2.513 . S
C81 O85 1.251 . S
C81 O87 1.263 . S
Tb82 O84 2.343 . S
Tb82 O87 2.353 . S
Tb82 O90 2.427 . S
Tb82 O91 2.513 . S
Tb82 O92 2.453 . S
Tb82 O93 2.596 . S
Tb82 O94 2.374 . S
O83 Tb80 2.453 . S
O83 C99 1.245 . S
O84 Tb80 2.596 . S
O84 Tb82 2.343 . S
O84 C99 1.259 . S
O85 Tb80 2.374 . S
O85 C81 1.251 . S
C86 O90 1.275 . S
C86 O91 1.246 . S
O87 C81 1.263 . S
O87 Tb82 2.353 . S
C88 O92 1.245 . S
C88 O93 1.259 . S
C89 O94 1.250 . S
C89 O95 1.263 . S
O90 Tb82 2.427 . S
O90 C86 1.275 . S
O91 Tb82 2.513 . S
O91 C86 1.246 . S
O92 Tb82 2.453 . S
O92 C88 1.245 . S
O93 Tb80 2.343 . S
O93 Tb82 2.596 . S
O93 C88 1.259 . S
O94 Tb82 2.374 . S
O94 C89 1.250 . S
O95 Tb80 2.353 . S
O95 C89 1.263 . S
C96 O97 1.275 . S
C96 O98 1.246 . S
O97 Tb80 2.427 . S
O97 C96 1.275 . S
O98 Tb80 2.513 . S
O98 C96 1.246 . S
C99 O83 1.245 . S
C99 O84 1.259 . S
Tb100 O103 2.453 . S
Tb100 O104 2.596 . S
Tb100 O105 2.374 . S
Tb100 O113 2.343 . S
Tb100 O115 2.353 . S
Tb100 O117 2.427 . S
Tb100 O118 2.513 . S
C101 O105 1.251 . S
C101 O107 1.263 . S
Tb102 O104 2.343 . S
Tb102 O107 2.353 . S
Tb102 O110 2.427 . S
Tb102 O111 2.513 . S
Tb102 O112 2.453 . S
Tb102 O113 2.596 . S
Tb102 O114 2.374 . S
O103 Tb100 2.453 . S
O103 C119 1.245 . S
O104 Tb100 2.596 . S
O104 Tb102 2.343 . S
O104 C119 1.259 . S
O105 Tb100 2.374 . S
O105 C101 1.251 . S
C106 O110 1.275 . S
C106 O111 1.246 . S
O107 C101 1.263 . S
O107 Tb102 2.353 . S
C108 O112 1.245 . S
C108 O113 1.259 . S
C109 O114 1.250 . S
C109 O115 1.263 . S
O110 Tb102 2.427 . S
O110 C106 1.275 . S
O111 Tb102 2.513 . S
O111 C106 1.246 . S
O112 Tb102 2.453 . S
O112 C108 1.245 . S
O113 Tb100 2.343 . S
O113 Tb102 2.596 . S
O113 C108 1.259 . S
O114 Tb102 2.374 . S
O114 C109 1.250 . S
O115 Tb100 2.353 . S
O115 C109 1.263 . S
C116 O117 1.275 . S
C116 O118 1.246 . S
O117 Tb100 2.427 . S
O117 C116 1.275 . S
O118 Tb100 2.513 . S
O118 C116 1.246 . S
C119 O103 1.245 . S
C119 O104 1.259 . S
Tb120 O123 2.453 . S
Tb120 O124 2.596 . S
Tb120 O125 2.374 . S
Tb120 O133 2.343 . S
Tb120 O135 2.353 . S
Tb120 O137 2.427 . S
Tb120 O138 2.513 . S
C121 O125 1.251 . S
C121 O127 1.263 . S
Tb122 O124 2.343 . S
Tb122 O127 2.353 . S
Tb122 O130 2.427 . S
Tb122 O131 2.513 . S
Tb122 O132 2.453 . S
Tb122 O133 2.596 . S
Tb122 O134 2.374 . S
O123 Tb120 2.453 . S
O123 C139 1.245 . S
O124 Tb120 2.596 . S
O124 Tb122 2.343 . S
O124 C139 1.259 . S
O125 Tb120 2.374 . S
O125 C121 1.251 . S
C126 O130 1.275 . S
C126 O131 1.246 . S
O127 C121 1.263 . S
O127 Tb122 2.353 . S
C128 O132 1.245 . S
C128 O133 1.259 . S
C129 O134 1.250 . S
C129 O135 1.263 . S
O130 Tb122 2.427 . S
O130 C126 1.275 . S
O131 Tb122 2.513 . S
O131 C126 1.246 . S
O132 Tb122 2.453 . S
O132 C128 1.245 . S
O133 Tb120 2.343 . S
O133 Tb122 2.596 . S
O133 C128 1.259 . S
O134 Tb122 2.374 . S
O134 C129 1.250 . S
O135 Tb120 2.353 . S
O135 C129 1.263 . S
C136 O137 1.275 . S
C136 O138 1.246 . S
O137 Tb120 2.427 . S
O137 C136 1.275 . S
O138 Tb120 2.513 . S
O138 C136 1.246 . S
C139 O123 1.245 . S
C139 O124 1.259 . S
Tb140 O143 2.453 . S
Tb140 O144 2.596 . S
Tb140 O145 2.374 . S
Tb140 O153 2.343 . S
Tb140 O155 2.353 . S
Tb140 O157 2.427 . S
Tb140 O158 2.513 . S
C141 O145 1.251 . S
C141 O147 1.263 . S
Tb142 O144 2.343 . S
Tb142 O147 2.353 . S
Tb142 O150 2.430 . S
Tb142 O151 2.513 1_655 S
Tb142 O152 2.453 . S
Tb142 O153 2.596 . S
Tb142 O154 2.374 . S
O143 Tb140 2.453 . S
O143 C159 1.245 . S
O144 Tb140 2.596 . S
O144 Tb142 2.343 . S
O144 C159 1.259 . S
O145 Tb140 2.374 . S
O145 C141 1.251 . S
C146 O150 1.275 1_455 S
C146 O151 1.246 . S
O147 C141 1.263 . S
O147 Tb142 2.353 . S
C148 O152 1.245 . S
C148 O153 1.259 . S
C149 O154 1.250 . S
C149 O155 1.263 . S
O150 Tb142 2.430 . S
O150 C146 1.275 1_655 S
O151 Tb142 2.513 1_455 S
O151 C146 1.246 . S
O152 Tb142 2.453 . S
O152 C148 1.245 . S
O153 Tb140 2.343 . S
O153 Tb142 2.596 . S
O153 C148 1.259 . S
O154 Tb142 2.374 . S
O154 C149 1.250 . S
O155 Tb140 2.353 . S
O155 C149 1.263 . S
C156 O157 1.275 . S
C156 O158 1.246 . S
O157 Tb140 2.427 . S
O157 C156 1.275 . S
O158 Tb140 2.513 . S
O158 C156 1.246 . S
C159 O143 1.245 . S
C159 O144 1.259 . S
Tb160 O163 2.453 . S
Tb160 O164 2.596 . S
Tb160 O165 2.374 . S
Tb160 O173 2.343 . S
Tb160 O175 2.353 . S
Tb160 O177 2.427 . S
Tb160 O178 2.513 1_655 S
C161 O165 1.251 . S
C161 O167 1.263 . S
Tb162 O164 2.343 . S
Tb162 O167 2.353 . S
Tb162 O170 2.427 . S
Tb162 O171 2.513 . S
Tb162 O172 2.453 . S
Tb162 O173 2.596 . S
Tb162 O174 2.374 . S
O163 Tb160 2.453 . S
O163 C179 1.245 . S
O164 Tb160 2.596 . S
O164 Tb162 2.343 . S
O164 C179 1.259 . S
O165 Tb160 2.374 . S
O165 C161 1.251 . S
C166 O170 1.275 . S
C166 O171 1.246 . S
O167 C161 1.263 . S
O167 Tb162 2.353 . S
C168 O172 1.245 . S
C168 O173 1.259 . S
C169 O174 1.250 . S
C169 O175 1.263 . S
O170 Tb162 2.427 . S
O170 C166 1.275 . S
O171 Tb162 2.513 . S
O171 C166 1.246 . S
O172 Tb162 2.453 . S
O172 C168 1.245 . S
O173 Tb160 2.343 . S
O173 Tb162 2.596 . S
O173 C168 1.259 . S
O174 Tb162 2.374 . S
O174 C169 1.250 . S
O175 Tb160 2.353 . S
O175 C169 1.263 . S
C176 O177 1.275 1_455 S
C176 O178 1.246 . S
O177 Tb160 2.427 . S
O177 C176 1.275 1_655 S
O178 Tb160 2.513 1_455 S
O178 C176 1.246 . S
C179 O163 1.245 . S
C179 O164 1.259 . S
H180 C188 0.950 . S
H181 C193 0.967 . S
H182 C190 0.950 . S
H183 C192 0.950 1_655 S
H184 C194 0.950 1_655 S
H185 C196 0.950 1_655 S
H186 C198 0.950 . S
H187 C199 0.950 . S
C188 H180 0.950 . S
C188 C189 1.386 . S
C188 C190 1.391 . S
C189 C188 1.386 . S
C189 C193 1.393 . S
C190 H182 0.950 . S
C190 C188 1.391 . S
C190 C191 1.400 . S
C191 C190 1.400 . S
C191 C192 1.398 . S
C191 C197 1.491 . S
C192 H183 0.950 1_455 S
C192 C191 1.398 . S
C192 C193 1.391 . S
C193 H181 0.967 . S
C193 C189 1.393 . S
C193 C192 1.391 . S
C194 H184 0.950 1_455 S
C194 C195 1.386 . S
C194 C196 1.391 . S
C195 C194 1.386 . S
C195 C199 1.393 . S
C196 H185 0.950 1_455 S
C196 C194 1.391 . S
C196 C197 1.400 . S
C197 C191 1.491 . S
C197 C196 1.400 . S
C197 C198 1.398 . S
C198 H186 0.950 . S
C198 C197 1.398 . S
C198 C199 1.391 . S
C199 H187 0.950 . S
C199 C195 1.393 . S
C199 C198 1.391 . S
H200 C208 0.950 . S
H201 C213 0.950 . S
H202 C210 0.950 . S
H203 C212 0.950 . S
H204 C214 0.950 . S
H205 C216 0.950 . S
H206 C218 0.950 . S
H207 C219 0.950 . S
C208 H200 0.950 . S
C208 C209 1.386 . S
C208 C210 1.391 . S
C209 C208 1.386 . S
C209 C213 1.393 . S
C210 H202 0.950 . S
C210 C208 1.391 . S
C210 C211 1.400 . S
C211 C210 1.400 . S
C211 C212 1.398 . S
C211 C217 1.491 . S
C212 H203 0.950 . S
C212 C211 1.398 . S
C212 C213 1.391 . S
C213 H201 0.950 . S
C213 C209 1.393 . S
C213 C212 1.391 . S
C214 H204 0.950 . S
C214 C215 1.386 . S
C214 C216 1.391 . S
C215 C214 1.386 . S
C215 C219 1.393 . S
C216 H205 0.950 . S
C216 C214 1.391 . S
C216 C217 1.400 . S
C217 C211 1.491 . S
C217 C216 1.400 . S
C217 C218 1.398 . S
C218 H206 0.950 . S
C218 C217 1.398 . S
C218 C219 1.391 . S
C219 H207 0.950 . S
C219 C215 1.393 . S
C219 C218 1.391 . S
H220 C228 0.927 1_565 S
H221 C233 0.950 . S
H222 C230 0.950 . S
H223 C232 0.950 . S
H224 C234 0.950 . S
H225 C236 0.950 . S
H226 C238 0.950 . S
H227 C239 0.950 . S
C228 H220 0.927 1_545 S
C228 C229 1.401 . S
C228 C230 1.400 . S
C229 C228 1.401 . S
C229 C233 1.393 . S
C230 H222 0.950 . S
C230 C228 1.400 . S
C230 C231 1.400 . S
C231 C230 1.400 . S
C231 C232 1.398 . S
C231 C237 1.491 . S
C232 H223 0.950 . S
C232 C231 1.398 . S
C232 C233 1.391 . S
C233 H221 0.950 . S
C233 C229 1.393 . S
C233 C232 1.391 . S
C234 H224 0.950 . S
C234 C235 1.386 . S
C234 C236 1.391 . S
C235 C234 1.386 . S
C235 C239 1.393 . S
C236 H225 0.950 . S
C236 C234 1.391 . S
C236 C237 1.400 . S
C237 C231 1.491 . S
C237 C236 1.400 . S
C237 C238 1.398 . S
C238 H226 0.950 . S
C238 C237 1.398 . S
C238 C239 1.391 . S
C239 H227 0.950 . S
C239 C235 1.393 . S
C239 C238 1.391 . S
H240 C248 0.950 . S
H241 C253 0.950 . S
H242 C250 0.950 . S
H243 C252 0.950 . S
H244 C254 0.950 . S
H245 C256 0.950 . S
H246 C258 0.950 . S
H247 C259 0.950 1_554 S
C248 H240 0.950 . S
C248 C249 1.386 . S
C248 C250 1.391 . S
C249 C248 1.386 . S
C249 C253 1.393 . S
C250 H242 0.950 . S
C250 C248 1.391 . S
C250 C251 1.400 . S
C251 C250 1.400 . S
C251 C252 1.398 . S
C251 C257 1.491 . S
C252 H243 0.950 . S
C252 C251 1.398 . S
C252 C253 1.391 . S
C253 H241 0.950 . S
C253 C249 1.393 . S
C253 C252 1.391 . S
C254 H244 0.950 . S
C254 C255 1.386 1_556 S
C254 C256 1.391 . S
C255 C254 1.386 1_554 S
C255 C259 1.393 1_554 S
C256 H245 0.950 . S
C256 C254 1.391 . S
C256 C257 1.400 . S
C257 C251 1.491 . S
C257 C256 1.400 . S
C257 C258 1.398 . S
C258 H246 0.950 . S
C258 C257 1.398 . S
C258 C259 1.391 . S
C259 H247 0.950 1_556 S
C259 C255 1.393 1_556 S
C259 C258 1.391 . S
H260 C268 0.950 . S
H261 C273 0.950 . S
H262 C270 0.950 . S
H263 C272 0.950 . S
H264 C274 0.950 . S
H265 C276 0.950 . S
H266 C278 0.950 . S
H267 C279 0.950 . S
C268 H260 0.950 . S
C268 C269 1.386 . S
C268 C270 1.391 . S
C269 C268 1.386 . S
C269 C273 1.393 . S
C270 H262 0.950 . S
C270 C268 1.391 . S
C270 C271 1.400 . S
C271 C270 1.400 . S
C271 C272 1.398 . S
C271 C277 1.491 . S
C272 H263 0.950 . S
C272 C271 1.398 . S
C272 C273 1.391 . S
C273 H261 0.950 . S
C273 C269 1.393 . S
C273 C272 1.391 . S
C274 H264 0.950 . S
C274 C275 1.386 . S
C274 C276 1.391 . S
C275 C274 1.386 . S
C275 C279 1.393 . S
C276 H265 0.950 . S
C276 C274 1.391 . S
C276 C277 1.400 . S
C277 C271 1.491 . S
C277 C276 1.400 . S
C277 C278 1.398 . S
C278 H266 0.950 . S
C278 C277 1.398 . S
C278 C279 1.391 . S
C279 H267 0.950 . S
C279 C275 1.393 . S
C279 C278 1.391 . S
H280 C288 0.950 . S
H281 C293 0.950 . S
H282 C290 0.950 . S
H283 C292 0.950 . S
H284 C294 0.950 . S
H285 C296 0.950 . S
H286 C298 0.950 . S
H287 C299 0.950 . S
C288 H280 0.950 . S
C288 C289 1.386 . S
C288 C290 1.391 . S
C289 C288 1.386 . S
C289 C293 1.393 . S
C290 H282 0.950 . S
C290 C288 1.391 . S
C290 C291 1.400 . S
C291 C290 1.400 . S
C291 C292 1.398 . S
C291 C297 1.491 . S
C292 H283 0.950 . S
C292 C291 1.398 . S
C292 C293 1.391 . S
C293 H281 0.950 . S
C293 C289 1.393 . S
C293 C292 1.391 . S
C294 H284 0.950 . S
C294 C295 1.386 . S
C294 C296 1.391 . S
C295 C294 1.386 . S
C295 C299 1.393 . S
C296 H285 0.950 . S
C296 C294 1.391 . S
C296 C297 1.400 . S
C297 C291 1.491 . S
C297 C296 1.400 . S
C297 C298 1.398 . S
C298 H286 0.950 . S
C298 C297 1.398 . S
C298 C299 1.391 . S
C299 H287 0.950 . S
C299 C295 1.393 . S
C299 C298 1.391 . S
H300 C308 0.950 . S
H301 C313 0.950 . S
H302 C310 0.950 . S
H303 C312 0.950 . S
H304 C314 0.950 . S
H305 C316 0.950 . S
H306 C318 0.950 . S
H307 C319 0.950 . S
C308 H300 0.950 . S
C308 C309 1.386 . S
C308 C310 1.391 . S
C309 C308 1.386 . S
C309 C313 1.393 . S
C310 H302 0.950 . S
C310 C308 1.391 . S
C310 C311 1.400 . S
C311 C310 1.400 . S
C311 C312 1.398 . S
C311 C317 1.491 . S
C312 H303 0.950 . S
C312 C311 1.398 . S
C312 C313 1.391 . S
C313 H301 0.950 . S
C313 C309 1.393 . S
C313 C312 1.391 . S
C314 H304 0.950 . S
C314 C315 1.386 . S
C314 C316 1.391 1_556 S
C315 C314 1.386 . S
C315 C319 1.393 . S
C316 H305 0.950 . S
C316 C314 1.391 1_554 S
C316 C317 1.400 . S
C317 C311 1.491 . S
C317 C316 1.400 . S
C317 C318 1.398 . S
C318 H306 0.950 . S
C318 C317 1.398 . S
C318 C319 1.391 1_554 S
C319 H307 0.950 . S
C319 C315 1.393 . S
C319 C318 1.391 1_556 S
H320 C328 0.950 . S
H321 C333 0.950 . S
H322 C330 0.950 . S
H323 C332 0.950 . S
H324 C334 0.950 . S
H325 C336 0.950 . S
H326 C338 0.950 . S
H327 C339 0.950 . S
C328 H320 0.950 . S
C328 C329 1.386 . S
C328 C330 1.391 . S
C329 C328 1.386 . S
C329 C333 1.393 . S
C330 H322 0.950 . S
C330 C328 1.391 . S
C330 C331 1.400 . S
C331 C330 1.400 . S
C331 C332 1.398 . S
C331 C337 1.491 . S
C332 H323 0.950 . S
C332 C331 1.398 . S
C332 C333 1.391 . S
C333 H321 0.950 . S
C333 C329 1.393 . S
C333 C332 1.391 . S
C334 H324 0.950 . S
C334 C335 1.386 . S
C334 C336 1.391 1_556 S
C335 C334 1.386 . S
C335 C339 1.393 . S
C336 H325 0.950 . S
C336 C334 1.391 1_554 S
C336 C337 1.400 . S
C337 C331 1.491 . S
C337 C336 1.400 . S
C337 C338 1.398 . S
C338 H326 0.950 . S
C338 C337 1.398 . S
C338 C339 1.391 1_554 S
C339 H327 0.950 . S
C339 C335 1.393 . S
C339 C338 1.391 1_556 S
H340 C348 0.950 . S
H341 C353 0.950 . S
H342 C350 0.950 . S
H343 C352 0.950 . S
H344 C354 0.950 . S
H345 C356 0.950 . S
H346 C358 0.950 . S
H347 C359 0.950 . S
C348 H340 0.950 . S
C348 C349 1.386 . S
C348 C350 1.391 . S
C349 C348 1.386 . S
C349 C353 1.393 . S
C350 H342 0.950 . S
C350 C348 1.391 . S
C350 C351 1.400 . S
C351 C350 1.400 . S
C351 C352 1.398 . S
C351 C357 1.491 . S
C352 H343 0.950 . S
C352 C351 1.398 . S
C352 C353 1.391 . S
C353 H341 0.950 . S
C353 C349 1.393 . S
C353 C352 1.391 . S
C354 H344 0.950 . S
C354 C355 1.386 . S
C354 C356 1.391 1_556 S
C355 C354 1.386 . S
C355 C359 1.393 . S
C356 H345 0.950 . S
C356 C354 1.391 1_554 S
C356 C357 1.400 . S
C357 C351 1.491 . S
C357 C356 1.400 . S
C357 C358 1.398 . S
C358 H346 0.950 . S
C358 C357 1.398 . S
C358 C359 1.391 1_554 S
C359 H347 0.950 . S
C359 C355 1.393 . S
C359 C358 1.391 1_556 S
H360 C368 0.950 . S
H361 C373 0.950 . S
H362 C370 0.950 . S
H363 C372 0.950 . S
H364 C374 0.950 . S
H365 C376 0.950 . S
H366 C378 0.950 1_556 S
H367 C379 0.950 1_556 S
C368 H360 0.950 . S
C368 C369 1.386 . S
C368 C370 1.391 . S
C369 C368 1.386 . S
C369 C373 1.393 . S
C370 H362 0.950 . S
C370 C368 1.391 . S
C370 C371 1.400 . S
C371 C370 1.400 . S
C371 C372 1.398 . S
C371 C377 1.491 . S
C372 H363 0.950 . S
C372 C371 1.398 . S
C372 C373 1.391 . S
C373 H361 0.950 . S
C373 C369 1.393 . S
C373 C372 1.391 . S
C374 H364 0.950 . S
C374 C375 1.386 . S
C374 C376 1.391 . S
C375 C374 1.386 . S
C375 C379 1.393 . S
C376 H365 0.950 . S
C376 C374 1.391 . S
C376 C377 1.400 . S
C377 C371 1.491 . S
C377 C376 1.400 . S
C377 C378 1.398 . S
C378 H366 0.950 1_554 S
C378 C377 1.398 . S
C378 C379 1.391 . S
C379 H367 0.950 1_554 S
C379 C375 1.393 . S
C379 C378 1.391 . S
H380 C388 0.950 . S
H381 C393 0.950 . S
H382 C390 0.950 . S
H383 C392 0.950 . S
H384 C394 0.950 . S
H385 C396 0.950 . S
H386 C398 0.950 . S
H387 C399 0.950 . S
C388 H380 0.950 . S
C388 C389 1.386 . S
C388 C390 1.391 . S
C389 C388 1.386 . S
C389 C393 1.393 . S
C390 H382 0.950 . S
C390 C388 1.391 . S
C390 C391 1.400 . S
C391 C390 1.400 . S
C391 C392 1.398 . S
C391 C397 1.491 . S
C392 H383 0.950 . S
C392 C391 1.398 . S
C392 C393 1.391 . S
C393 H381 0.950 . S
C393 C389 1.393 . S
C393 C392 1.391 . S
C394 H384 0.950 . S
C394 C395 1.386 . S
C394 C396 1.391 . S
C395 C394 1.386 . S
C395 C399 1.393 . S
C396 H385 0.950 . S
C396 C394 1.391 . S
C396 C397 1.400 . S
C397 C391 1.491 . S
C397 C396 1.400 . S
C397 C398 1.398 . S
C398 H386 0.950 . S
C398 C397 1.398 . S
C398 C399 1.391 . S
C399 H387 0.950 . S
C399 C395 1.393 . S
C399 C398 1.391 . S
H400 C408 0.950 . S
H401 C413 0.950 . S
H402 C410 0.950 . S
H403 C412 0.950 . S
H404 C414 0.950 . S
H405 C416 0.950 . S
H406 C418 0.950 . S
H407 C419 0.950 . S
C408 H400 0.950 . S
C408 C409 1.386 . S
C408 C410 1.391 . S
C409 C408 1.386 . S
C409 C413 1.393 . S
C410 H402 0.950 . S
C410 C408 1.391 . S
C410 C411 1.400 . S
C411 C410 1.400 . S
C411 C412 1.398 . S
C411 C417 1.491 . S
C412 H403 0.950 . S
C412 C411 1.398 . S
C412 C413 1.391 . S
C413 H401 0.950 . S
C413 C409 1.393 . S
C413 C412 1.391 . S
C414 H404 0.950 . S
C414 C415 1.386 . S
C414 C416 1.391 . S
C415 C414 1.386 . S
C415 C419 1.393 . S
C416 H405 0.950 . S
C416 C414 1.391 . S
C416 C417 1.400 . S
C417 C411 1.491 . S
C417 C416 1.400 . S
C417 C418 1.398 . S
C418 H406 0.950 . S
C418 C417 1.398 . S
C418 C419 1.391 . S
C419 H407 0.950 . S
C419 C415 1.393 . S
C419 C418 1.391 . S
H420 C428 0.950 1_556 S
H421 C433 0.950 . S
H422 C430 0.950 . S
H423 C432 0.950 . S
H424 C434 0.950 . S
H425 C436 0.950 . S
H426 C438 0.950 . S
H427 C439 0.950 . S
C428 H420 0.950 1_554 S
C428 C429 1.386 . S
C428 C430 1.391 1_554 S
C429 C428 1.386 . S
C429 C433 1.393 . S
C430 H422 0.950 . S
C430 C428 1.391 1_556 S
C430 C431 1.400 1_556 S
C431 C430 1.400 1_554 S
C431 C432 1.398 . S
C431 C437 1.491 1_554 S
C432 H423 0.950 . S
C432 C431 1.398 . S
C432 C433 1.391 . S
C433 H421 0.950 . S
C433 C429 1.393 . S
C433 C432 1.391 . S
C434 H424 0.950 . S
C434 C435 1.386 . S
C434 C436 1.391 1_556 S
C435 C434 1.386 . S
C435 C439 1.393 . S
C436 H425 0.950 . S
C436 C434 1.391 1_554 S
C436 C437 1.400 1_554 S
C437 C431 1.491 1_556 S
C437 C436 1.400 1_556 S
C437 C438 1.398 . S
C438 H426 0.950 . S
C438 C437 1.398 . S
C438 C439 1.391 . S
C439 H427 0.950 . S
C439 C435 1.393 . S
C439 C438 1.391 . S
H440 C448 0.950 . S
H441 C453 0.950 . S
H442 C450 0.950 . S
H443 C452 0.936 1_455 S
H444 C454 0.950 . S
H445 C456 0.950 1_455 S
H446 C458 0.950 . S
H447 C459 0.950 . S
C448 H440 0.950 . S
C448 C449 1.386 . S
C448 C450 1.391 . S
C449 C448 1.386 . S
C449 C453 1.393 . S
C450 H442 0.950 . S
C450 C448 1.391 . S
C450 C451 1.400 . S
C451 C450 1.400 . S
C451 C452 1.398 . S
C451 C457 1.491 . S
C452 H443 0.936 1_655 S
C452 C451 1.398 . S
C452 C453 1.391 . S
C453 H441 0.950 . S
C453 C449 1.393 . S
C453 C452 1.391 . S
C454 H444 0.950 . S
C454 C455 1.386 1_455 S
C454 C456 1.391 1_455 S
C455 C454 1.386 1_655 S
C455 C459 1.393 1_556 S
C456 H445 0.950 1_655 S
C456 C454 1.391 1_655 S
C456 C457 1.400 . S
C457 C451 1.491 . S
C457 C456 1.400 . S
C457 C458 1.398 . S
C458 H446 0.950 . S
C458 C457 1.398 . S
C458 C459 1.391 1_556 S
C459 H447 0.950 . S
C459 C455 1.393 1_554 S
C459 C458 1.391 1_554 S
H460 C468 0.950 . S
H461 C473 0.950 . S
H462 C470 0.950 1_554 S
H463 C472 0.950 . S
H464 C474 0.950 . S
H465 C476 0.950 . S
H466 C478 0.950 . S
H467 C479 0.950 . S
C468 H460 0.950 . S
C468 C469 1.386 . S
C468 C470 1.391 . S
C469 C468 1.386 . S
C469 C473 1.393 . S
C470 H462 0.950 1_556 S
C470 C468 1.391 . S
C470 C471 1.400 . S
C471 C470 1.400 . S
C471 C472 1.398 . S
C471 C477 1.491 . S
C472 H463 0.950 . S
C472 C471 1.398 . S
C472 C473 1.391 . S
C473 H461 0.950 . S
C473 C469 1.393 . S
C473 C472 1.391 . S
C474 H464 0.950 . S
C474 C475 1.386 1_556 S
C474 C476 1.391 . S
C475 C474 1.386 1_554 S
C475 C479 1.393 . S
C476 H465 0.950 . S
C476 C474 1.391 . S
C476 C477 1.400 . S
C477 C471 1.491 . S
C477 C476 1.400 . S
C477 C478 1.398 1_556 S
C478 H466 0.950 . S
C478 C477 1.398 1_554 S
C478 C479 1.391 . S
C479 H467 0.950 . S
C479 C475 1.393 . S
C479 C478 1.391 . S
H480 C488 0.950 . S
H481 C493 0.950 1_455 S
H482 C490 0.950 . S
H483 C492 0.950 1_455 S
H484 C494 0.950 . S
H485 C496 0.950 . S
H486 C498 0.950 . S
H487 C499 0.950 . S
C488 H480 0.950 . S
C488 C489 1.386 . S
C488 C490 1.391 . S
C489 C488 1.386 . S
C489 C493 1.393 . S
C490 H482 0.950 . S
C490 C488 1.391 . S
C490 C491 1.400 . S
C491 C490 1.400 . S
C491 C492 1.398 . S
C491 C497 1.491 . S
C492 H483 0.950 1_655 S
C492 C491 1.398 . S
C492 C493 1.391 . S
C493 H481 0.950 1_655 S
C493 C489 1.393 . S
C493 C492 1.391 . S
C494 H484 0.950 . S
C494 C495 1.386 . S
C494 C496 1.391 . S
C495 C494 1.386 . S
C495 C499 1.393 1_455 S
C496 H485 0.950 . S
C496 C494 1.391 . S
C496 C497 1.400 1_455 S
C497 C491 1.491 . S
C497 C496 1.400 1_655 S
C497 C498 1.398 . S
C498 H486 0.950 . S
C498 C497 1.398 . S
C498 C499 1.391 . S
C499 H487 0.950 . S
C499 C495 1.393 1_655 S
C499 C498 1.391 . S
H500 C508 0.950 . S
H501 C513 0.950 . S
H502 C510 0.950 . S
H503 C512 0.950 . S
H504 C514 0.950 . S
H505 C516 0.950 . S
H506 C518 0.950 . S
H507 C519 0.950 . S
C508 H500 0.950 . S
C508 C509 1.386 1_556 S
C508 C510 1.391 . S
C509 C508 1.386 1_554 S
C509 C513 1.393 . S
C510 H502 0.950 . S
C510 C508 1.391 . S
C510 C511 1.400 . S
C511 C510 1.400 . S
C511 C512 1.398 1_556 S
C511 C517 1.491 . S
C512 H503 0.950 . S
C512 C511 1.398 1_554 S
C512 C513 1.391 . S
C513 H501 0.950 . S
C513 C509 1.393 . S
C513 C512 1.391 . S
C514 H504 0.950 . S
C514 C515 1.386 . S
C514 C516 1.391 . S
C515 C514 1.386 . S
C515 C519 1.393 . S
C516 H505 0.950 . S
C516 C514 1.391 . S
C516 C517 1.400 . S
C517 C511 1.491 . S
C517 C516 1.400 . S
C517 C518 1.398 . S
C518 H506 0.950 . S
C518 C517 1.398 . S
C518 C519 1.391 . S
C519 H507 0.950 . S
C519 C515 1.393 . S
C519 C518 1.391 . S
H520 C528 0.950 . S
H521 C533 0.950 . S
H522 C530 0.950 . S
H523 C532 0.950 . S
H524 C534 0.950 . S
H525 C536 0.950 . S
H526 C538 0.950 . S
H527 C539 0.950 . S
C528 H520 0.950 . S
C528 C529 1.386 . S
C528 C530 1.391 . S
C529 C528 1.386 . S
C529 C533 1.393 . S
C530 H522 0.950 . S
C530 C528 1.391 . S
C530 C531 1.400 . S
C531 C530 1.400 . S
C531 C532 1.398 . S
C531 C537 1.491 . S
C532 H523 0.950 . S
C532 C531 1.398 . S
C532 C533 1.391 . S
C533 H521 0.950 . S
C533 C529 1.393 . S
C533 C532 1.391 . S
C534 H524 0.950 . S
C534 C535 1.386 . S
C534 C536 1.391 . S
C535 C534 1.386 . S
C535 C539 1.393 . S
C536 H525 0.950 . S
C536 C534 1.391 . S
C536 C537 1.400 1_554 S
C537 C531 1.491 . S
C537 C536 1.400 1_556 S
C537 C538 1.398 1_556 S
C538 H526 0.950 . S
C538 C537 1.398 1_554 S
C538 C539 1.391 . S
C539 H527 0.950 . S
C539 C535 1.393 . S
C539 C538 1.391 . S
H540 C548 0.950 . S
H541 C553 0.950 . S
H542 C550 0.950 . S
H543 C552 0.950 . S
H544 C554 0.950 . S
H545 C556 0.950 . S
H546 C558 0.950 . S
H547 C559 0.950 . S
C548 H540 0.950 . S
C548 C549 1.386 . S
C548 C550 1.391 . S
C549 C548 1.386 . S
C549 C553 1.393 . S
C550 H542 0.950 . S
C550 C548 1.391 . S
C550 C551 1.400 . S
C551 C550 1.400 . S
C551 C552 1.398 . S
C551 C557 1.491 . S
C552 H543 0.950 . S
C552 C551 1.398 . S
C552 C553 1.391 . S
C553 H541 0.950 . S
C553 C549 1.393 . S
C553 C552 1.391 . S
C554 H544 0.950 . S
C554 C555 1.386 . S
C554 C556 1.391 . S
C555 C554 1.386 . S
C555 C559 1.393 . S
C556 H545 0.950 . S
C556 C554 1.391 . S
C556 C557 1.400 . S
C557 C551 1.491 . S
C557 C556 1.400 . S
C557 C558 1.398 . S
C558 H546 0.950 . S
C558 C557 1.398 . S
C558 C559 1.391 . S
C559 H547 0.950 . S
C559 C555 1.393 . S
C559 C558 1.391 . S
H560 C568 0.950 . S
H561 C573 0.950 . S
H562 C570 0.950 . S
H563 C572 0.950 . S
H564 C574 0.950 . S
H565 C576 0.950 . S
H566 C578 0.950 . S
H567 C579 0.950 . S
C568 H560 0.950 . S
C568 C569 1.386 . S
C568 C570 1.391 . S
C569 C568 1.386 . S
C569 C573 1.393 . S
C570 H562 0.950 . S
C570 C568 1.391 . S
C570 C571 1.400 . S
C571 C570 1.400 . S
C571 C572 1.398 . S
C571 C577 1.491 . S
C572 H563 0.950 . S
C572 C571 1.398 . S
C572 C573 1.391 . S
C573 H561 0.950 . S
C573 C569 1.393 . S
C573 C572 1.391 . S
C574 H564 0.950 . S
C574 C575 1.386 . S
C574 C576 1.391 . S
C575 C574 1.386 . S
C575 C579 1.393 . S
C576 H565 0.950 . S
C576 C574 1.391 . S
C576 C577 1.400 . S
C577 C571 1.491 . S
C577 C576 1.400 . S
C577 C578 1.398 . S
C578 H566 0.950 . S
C578 C577 1.398 . S
C578 C579 1.391 . S
C579 H567 0.950 . S
C579 C575 1.393 . S
C579 C578 1.391 . S
H580 C588 0.950 . S
H581 C593 0.950 . S
H582 C590 0.950 . S
H583 C592 0.950 . S
H584 C594 0.950 . S
H585 C596 0.950 . S
H586 C598 0.950 . S
H587 C599 0.950 . S
C588 H580 0.950 . S
C588 C589 1.386 . S
C588 C590 1.391 . S
C589 C588 1.386 . S
C589 C593 1.393 . S
C590 H582 0.950 . S
C590 C588 1.391 . S
C590 C591 1.400 . S
C591 C590 1.400 . S
C591 C592 1.398 . S
C591 C597 1.491 . S
C592 H583 0.950 . S
C592 C591 1.398 . S
C592 C593 1.391 . S
C593 H581 0.950 . S
C593 C589 1.393 . S
C593 C592 1.391 . S
C594 H584 0.950 . S
C594 C595 1.386 . S
C594 C596 1.391 . S
C595 C594 1.386 . S
C595 C599 1.393 . S
C596 H585 0.950 . S
C596 C594 1.391 . S
C596 C597 1.400 . S
C597 C591 1.491 . S
C597 C596 1.400 . S
C597 C598 1.398 . S
C598 H586 0.950 . S
C598 C597 1.398 . S
C598 C599 1.391 . S
C599 H587 0.950 . S
C599 C595 1.393 . S
C599 C598 1.391 . S
H600 C608 0.950 . S
H601 C613 0.950 . S
H602 C610 0.950 . S
H603 C612 0.950 . S
H604 C614 0.950 . S
H605 C616 0.950 . S
H606 C618 0.950 . S
H607 C619 0.950 . S
C608 H600 0.950 . S
C608 C609 1.386 . S
C608 C610 1.391 . S
C609 C608 1.386 . S
C609 C613 1.393 . S
C610 H602 0.950 . S
C610 C608 1.391 . S
C610 C611 1.400 . S
C611 C610 1.400 . S
C611 C612 1.398 . S
C611 C617 1.491 . S
C612 H603 0.950 . S
C612 C611 1.398 . S
C612 C613 1.391 . S
C613 H601 0.950 . S
C613 C609 1.393 . S
C613 C612 1.391 . S
C614 H604 0.950 . S
C614 C615 1.386 . S
C614 C616 1.391 . S
C615 C614 1.386 . S
C615 C619 1.393 . S
C616 H605 0.950 . S
C616 C614 1.391 . S
C616 C617 1.400 . S
C617 C611 1.491 . S
C617 C616 1.400 . S
C617 C618 1.398 . S
C618 H606 0.950 . S
C618 C617 1.398 . S
C618 C619 1.391 . S
C619 H607 0.950 . S
C619 C615 1.393 . S
C619 C618 1.391 . S
H620 C628 0.950 . S
H621 C633 0.950 . S
H622 C630 0.950 . S
H623 C632 0.950 . S
H624 C634 0.950 . S
H625 C636 0.950 . S
H626 C638 0.947 . S
H627 C639 0.950 . S
C628 H620 0.950 . S
C628 C629 1.386 . S
C628 C630 1.391 . S
C629 C628 1.386 . S
C629 C633 1.393 . S
C630 H622 0.950 . S
C630 C628 1.391 . S
C630 C631 1.400 . S
C631 C630 1.400 . S
C631 C632 1.398 . S
C631 C637 1.491 1_545 S
C632 H623 0.950 . S
C632 C631 1.398 . S
C632 C633 1.391 . S
C633 H621 0.950 . S
C633 C629 1.393 . S
C633 C632 1.391 . S
C634 H624 0.950 . S
C634 C635 1.386 . S
C634 C636 1.391 . S
C635 C634 1.386 . S
C635 C639 1.393 . S
C636 H625 0.950 . S
C636 C634 1.391 . S
C636 C637 1.400 . S
C637 C631 1.491 1_565 S
C637 C636 1.400 . S
C637 C638 1.398 . S
C638 H626 0.947 . S
C638 C637 1.398 . S
C638 C639 1.391 . S
C639 H627 0.950 . S
C639 C635 1.393 . S
C639 C638 1.391 . S
H640 C648 0.950 . S
H641 C653 0.950 . S
H642 C650 0.950 . S
H643 C652 0.950 . S
H644 C654 0.950 . S
H645 C656 0.950 . S
H646 C658 0.950 . S
H647 C659 0.950 . S
C648 H640 0.950 . S
C648 C649 1.386 . S
C648 C650 1.391 . S
C649 C648 1.386 . S
C649 C653 1.393 . S
C650 H642 0.950 . S
C650 C648 1.391 . S
C650 C651 1.400 . S
C651 C650 1.400 . S
C651 C652 1.398 . S
C651 C657 1.491 . S
C652 H643 0.950 . S
C652 C651 1.398 . S
C652 C653 1.391 . S
C653 H641 0.950 . S
C653 C649 1.393 . S
C653 C652 1.391 . S
C654 H644 0.950 . S
C654 C655 1.386 . S
C654 C656 1.391 . S
C655 C654 1.386 . S
C655 C659 1.393 . S
C656 H645 0.950 . S
C656 C654 1.391 . S
C656 C657 1.400 . S
C657 C651 1.491 . S
C657 C656 1.400 . S
C657 C658 1.398 . S
C658 H646 0.950 . S
C658 C657 1.398 . S
C658 C659 1.391 . S
C659 H647 0.950 . S
C659 C655 1.393 . S
C659 C658 1.391 . S
H660 C668 0.950 . S
H661 C673 0.950 . S
H662 C670 0.950 . S
H663 C672 0.950 . S
H664 C674 0.950 . S
H665 C676 0.950 . S
H666 C678 0.950 . S
H667 C679 0.950 . S
C668 H660 0.950 . S
C668 C669 1.386 . S
C668 C670 1.391 . S
C669 C668 1.386 . S
C669 C673 1.393 . S
C670 H662 0.950 . S
C670 C668 1.391 . S
C670 C671 1.400 . S
C671 C670 1.400 . S
C671 C672 1.398 . S
C671 C677 1.491 . S
C672 H663 0.950 . S
C672 C671 1.398 . S
C672 C673 1.391 . S
C673 H661 0.950 . S
C673 C669 1.393 . S
C673 C672 1.391 . S
C674 H664 0.950 . S
C674 C675 1.386 . S
C674 C676 1.391 . S
C675 C674 1.386 . S
C675 C679 1.393 . S
C676 H665 0.950 . S
C676 C674 1.391 . S
C676 C677 1.400 . S
C677 C671 1.491 . S
C677 C676 1.400 . S
C677 C678 1.398 . S
C678 H666 0.950 . S
C678 C677 1.398 . S
C678 C679 1.391 . S
C679 H667 0.950 . S
C679 C675 1.393 . S
C679 C678 1.391 . S
H680 C688 0.950 . S
H681 C693 0.950 . S
H682 C690 0.950 1_545 S
H683 C692 0.950 . S
H684 C694 0.950 . S
H685 C696 0.950 . S
H686 C698 0.950 . S
H687 C699 0.950 . S
C688 H680 0.950 . S
C688 C689 1.386 . S
C688 C690 1.391 . S
C689 C688 1.386 . S
C689 C693 1.393 . S
C690 H682 0.950 1_565 S
C690 C688 1.391 . S
C690 C691 1.400 . S
C691 C690 1.400 . S
C691 C692 1.398 . S
C691 C697 1.491 1_565 S
C692 H683 0.950 . S
C692 C691 1.398 . S
C692 C693 1.391 . S
C693 H681 0.950 . S
C693 C689 1.393 . S
C693 C692 1.391 . S
C694 H684 0.950 . S
C694 C695 1.386 . S
C694 C696 1.391 . S
C695 C694 1.386 . S
C695 C699 1.393 . S
C696 H685 0.950 . S
C696 C694 1.391 . S
C696 C697 1.400 . S
C697 C691 1.491 1_545 S
C697 C696 1.400 . S
C697 C698 1.398 . S
C698 H686 0.950 . S
C698 C697 1.398 . S
C698 C699 1.391 . S
C699 H687 0.950 . S
C699 C695 1.393 . S
C699 C698 1.391 . S
H700 C708 0.950 . S
H701 C713 0.950 . S
H702 C710 0.950 . S
H703 C712 0.950 . S
H704 C714 0.950 . S
H705 C716 0.950 . S
H706 C718 0.950 . S
H707 C719 0.950 . S
C708 H700 0.950 . S
C708 C709 1.386 . S
C708 C710 1.391 . S
C709 C708 1.386 . S
C709 C713 1.393 . S
C710 H702 0.950 . S
C710 C708 1.391 . S
C710 C711 1.400 . S
C711 C710 1.400 . S
C711 C712 1.398 . S
C711 C717 1.491 . S
C712 H703 0.950 . S
C712 C711 1.398 . S
C712 C713 1.391 . S
C713 H701 0.950 . S
C713 C709 1.393 . S
C713 C712 1.391 . S
C714 H704 0.950 . S
C714 C715 1.386 . S
C714 C716 1.391 . S
C715 C714 1.386 . S
C715 C719 1.393 . S
C716 H705 0.950 . S
C716 C714 1.391 . S
C716 C717 1.400 . S
C717 C711 1.491 . S
C717 C716 1.400 . S
C717 C718 1.398 . S
C718 H706 0.950 . S
C718 C717 1.398 . S
C718 C719 1.391 . S
C719 H707 0.950 . S
C719 C715 1.393 . S
C719 C718 1.391 . S
C189 C1 1.094 . S
C195 C9 1.094 . S
C209 C29 1.104 . S
C215 C21 1.104 . S
C229 C41 1.150 . S
C235 C49 1.150 . S
C249 C69 1.095 . S
C255 C61 1.095 . S
C269 C81 1.115 . S
C275 C89 1.115 1_556 S
C289 C109 1.146 . S
C295 C101 1.146 1_556 S
C309 C128 1.295 . S
C315 C139 1.295 . S
C329 C159 1.321 . S
C335 C148 1.321 . S
C349 C168 1.305 . S
C355 C179 1.305 . S
C369 C116 2.118 . S
C375 C8 2.061 . S
C389 C36 1.628 . S
C395 C76 1.611 . S
C409 C48 2.583 . S
C415 C88 2.569 . S
C429 C56 1.045 . S
C435 C126 1.084 . S
C449 C149 1.301 . S
C455 C16 1.257 1_556 S
C469 C166 1.626 . S
C475 C28 1.597 . S
C489 C161 1.734 . S
C495 C19 1.712 1_556 S
C509 C26 0.997 . S
C515 C121 1.045 . S
C529 C156 1.398 . S
C535 C59 1.350 . S
C549 C46 2.111 . S
C555 C79 2.071 . S
C569 C86 1.618 . S
C575 C6 1.611 . S
C589 C39 2.559 . S
C595 C119 2.585 . S
C609 C169 1.734 . S
C615 C68 1.708 . S
C629 C129 1.051 . S
C635 C96 0.987 . S
C649 C146 1.411 . S
C655 C108 1.334 . S
C669 C136 1.080 . S
C675 C106 1.010 . S
C689 C66 1.280 . S
C695 C141 1.297 . S
C709 C176 1.627 . S
C715 C99 1.615 . S
