# Generated by pormake.
# Topology lcv-a, (4)-cn, num edge types: 1
# Building blocks:
#     Node 0, Type 0, BuildingBlock: TATPOV_clean_sbu_0, # of connection points: 4
#     Node 1, Type 0, BuildingBlock: TATPOV_clean_sbu_0, # of connection points: 4
#     Node 2, Type 0, BuildingBlock: TATPOV_clean_sbu_0, # of connection points: 4
#     Node 3, Type 0, BuildingBlock: TATPOV_clean_sbu_0, # of connection points: 4
#     Node 4, Type 0, BuildingBlock: TATPOV_clean_sbu_0, # of connection points: 4
#     Node 5, Type 0, BuildingBlock: TATPOV_clean_sbu_0, # of connection points: 4
#     Node 6, Type 0, BuildingBlock: TATPOV_clean_sbu_0, # of connection points: 4
#     Node 7, Type 0, BuildingBlock: TATPOV_clean_sbu_0, # of connection points: 4
#     Node 8, Type 0, BuildingBlock: TATPOV_clean_sbu_0, # of connection points: 4
#     Node 9, Type 0, BuildingBlock: TATPOV_clean_sbu_0, # of connection points: 4
#     Node 10, Type 0, BuildingBlock: TATPOV_clean_sbu_0, # of connection points: 4
#     Node 11, Type 0, BuildingBlock: TATPOV_clean_sbu_0, # of connection points: 4
#     Node 12, Type 0, BuildingBlock: TATPOV_clean_sbu_0, # of connection points: 4
#     Node 13, Type 0, BuildingBlock: TATPOV_clean_sbu_0, # of connection points: 4
#     Node 14, Type 0, BuildingBlock: TATPOV_clean_sbu_0, # of connection points: 4
#     Node 15, Type 0, BuildingBlock: TATPOV_clean_sbu_0, # of connection points: 4
#     Node 16, Type 0, BuildingBlock: TATPOV_clean_sbu_0, # of connection points: 4
#     Node 17, Type 0, BuildingBlock: TATPOV_clean_sbu_0, # of connection points: 4
#     Node 18, Type 0, BuildingBlock: TATPOV_clean_sbu_0, # of connection points: 4
#     Node 19, Type 0, BuildingBlock: TATPOV_clean_sbu_0, # of connection points: 4
#     Node 20, Type 0, BuildingBlock: TATPOV_clean_sbu_0, # of connection points: 4
#     Node 21, Type 0, BuildingBlock: TATPOV_clean_sbu_0, # of connection points: 4
#     Node 22, Type 0, BuildingBlock: TATPOV_clean_sbu_0, # of connection points: 4
#     Node 23, Type 0, BuildingBlock: TATPOV_clean_sbu_0, # of connection points: 4
#     Node 24, Type 0, BuildingBlock: TATPOV_clean_sbu_0, # of connection points: 4
#     Node 25, Type 0, BuildingBlock: TATPOV_clean_sbu_0, # of connection points: 4
#     Node 26, Type 0, BuildingBlock: TATPOV_clean_sbu_0, # of connection points: 4
#     Node 27, Type 0, BuildingBlock: TATPOV_clean_sbu_0, # of connection points: 4
#     Node 28, Type 0, BuildingBlock: TATPOV_clean_sbu_0, # of connection points: 4
#     Node 29, Type 0, BuildingBlock: TATPOV_clean_sbu_0, # of connection points: 4
#     Node 30, Type 0, BuildingBlock: TATPOV_clean_sbu_0, # of connection points: 4
#     Node 31, Type 0, BuildingBlock: TATPOV_clean_sbu_0, # of connection points: 4
#     Node 32, Type 0, BuildingBlock: TATPOV_clean_sbu_0, # of connection points: 4
#     Node 33, Type 0, BuildingBlock: TATPOV_clean_sbu_0, # of connection points: 4
#     Node 34, Type 0, BuildingBlock: TATPOV_clean_sbu_0, # of connection points: 4
#     Node 35, Type 0, BuildingBlock: TATPOV_clean_sbu_0, # of connection points: 4
#     Node 36, Type 0, BuildingBlock: TATPOV_clean_sbu_0, # of connection points: 4
#     Node 37, Type 0, BuildingBlock: TATPOV_clean_sbu_0, # of connection points: 4
#     Node 38, Type 0, BuildingBlock: TATPOV_clean_sbu_0, # of connection points: 4
#     Node 39, Type 0, BuildingBlock: TATPOV_clean_sbu_0, # of connection points: 4
#     Node 40, Type 0, BuildingBlock: TATPOV_clean_sbu_0, # of connection points: 4
#     Node 41, Type 0, BuildingBlock: TATPOV_clean_sbu_0, # of connection points: 4
#     Node 42, Type 0, BuildingBlock: TATPOV_clean_sbu_0, # of connection points: 4
#     Node 43, Type 0, BuildingBlock: TATPOV_clean_sbu_0, # of connection points: 4
#     Node 44, Type 0, BuildingBlock: TATPOV_clean_sbu_0, # of connection points: 4
#     Node 45, Type 0, BuildingBlock: TATPOV_clean_sbu_0, # of connection points: 4
#     Node 46, Type 0, BuildingBlock: TATPOV_clean_sbu_0, # of connection points: 4
#     Node 47, Type 0, BuildingBlock: TATPOV_clean_sbu_0, # of connection points: 4
#     Edge 48, Type (0, 0), BuildingBlock: XIVTED_clean_linker_0, # of connection points: 2
#     Edge 49, Type (0, 0), BuildingBlock: XIVTED_clean_linker_0, # of connection points: 2
#     Edge 50, Type (0, 0), BuildingBlock: XIVTED_clean_linker_0, # of connection points: 2
#     Edge 51, Type (0, 0), BuildingBlock: XIVTED_clean_linker_0, # of connection points: 2
#     Edge 52, Type (0, 0), BuildingBlock: XIVTED_clean_linker_0, # of connection points: 2
#     Edge 53, Type (0, 0), BuildingBlock: XIVTED_clean_linker_0, # of connection points: 2
#     Edge 54, Type (0, 0), BuildingBlock: XIVTED_clean_linker_0, # of connection points: 2
#     Edge 55, Type (0, 0), BuildingBlock: XIVTED_clean_linker_0, # of connection points: 2
#     Edge 56, Type (0, 0), BuildingBlock: XIVTED_clean_linker_0, # of connection points: 2
#     Edge 57, Type (0, 0), BuildingBlock: XIVTED_clean_linker_0, # of connection points: 2
#     Edge 58, Type (0, 0), BuildingBlock: XIVTED_clean_linker_0, # of connection points: 2
#     Edge 59, Type (0, 0), BuildingBlock: XIVTED_clean_linker_0, # of connection points: 2
#     Edge 60, Type (0, 0), BuildingBlock: XIVTED_clean_linker_0, # of connection points: 2
#     Edge 61, Type (0, 0), BuildingBlock: XIVTED_clean_linker_0, # of connection points: 2
#     Edge 62, Type (0, 0), BuildingBlock: XIVTED_clean_linker_0, # of connection points: 2
#     Edge 63, Type (0, 0), BuildingBlock: XIVTED_clean_linker_0, # of connection points: 2
#     Edge 64, Type (0, 0), BuildingBlock: XIVTED_clean_linker_0, # of connection points: 2
#     Edge 65, Type (0, 0), BuildingBlock: XIVTED_clean_linker_0, # of connection points: 2
#     Edge 66, Type (0, 0), BuildingBlock: XIVTED_clean_linker_0, # of connection points: 2
#     Edge 67, Type (0, 0), BuildingBlock: XIVTED_clean_linker_0, # of connection points: 2
#     Edge 68, Type (0, 0), BuildingBlock: XIVTED_clean_linker_0, # of connection points: 2
#     Edge 69, Type (0, 0), BuildingBlock: XIVTED_clean_linker_0, # of connection points: 2
#     Edge 70, Type (0, 0), BuildingBlock: XIVTED_clean_linker_0, # of connection points: 2
#     Edge 71, Type (0, 0), BuildingBlock: XIVTED_clean_linker_0, # of connection points: 2
#     Edge 72, Type (0, 0), BuildingBlock: XIVTED_clean_linker_0, # of connection points: 2
#     Edge 73, Type (0, 0), BuildingBlock: XIVTED_clean_linker_0, # of connection points: 2
#     Edge 74, Type (0, 0), BuildingBlock: XIVTED_clean_linker_0, # of connection points: 2
#     Edge 75, Type (0, 0), BuildingBlock: XIVTED_clean_linker_0, # of connection points: 2
#     Edge 76, Type (0, 0), BuildingBlock: XIVTED_clean_linker_0, # of connection points: 2
#     Edge 77, Type (0, 0), BuildingBlock: XIVTED_clean_linker_0, # of connection points: 2
#     Edge 78, Type (0, 0), BuildingBlock: XIVTED_clean_linker_0, # of connection points: 2
#     Edge 79, Type (0, 0), BuildingBlock: XIVTED_clean_linker_0, # of connection points: 2
#     Edge 80, Type (0, 0), BuildingBlock: XIVTED_clean_linker_0, # of connection points: 2
#     Edge 81, Type (0, 0), BuildingBlock: XIVTED_clean_linker_0, # of connection points: 2
#     Edge 82, Type (0, 0), BuildingBlock: XIVTED_clean_linker_0, # of connection points: 2
#     Edge 83, Type (0, 0), BuildingBlock: XIVTED_clean_linker_0, # of connection points: 2
#     Edge 84, Type (0, 0), BuildingBlock: XIVTED_clean_linker_0, # of connection points: 2
#     Edge 85, Type (0, 0), BuildingBlock: XIVTED_clean_linker_0, # of connection points: 2
#     Edge 86, Type (0, 0), BuildingBlock: XIVTED_clean_linker_0, # of connection points: 2
#     Edge 87, Type (0, 0), BuildingBlock: XIVTED_clean_linker_0, # of connection points: 2
#     Edge 88, Type (0, 0), BuildingBlock: XIVTED_clean_linker_0, # of connection points: 2
#     Edge 89, Type (0, 0), BuildingBlock: XIVTED_clean_linker_0, # of connection points: 2
#     Edge 90, Type (0, 0), BuildingBlock: XIVTED_clean_linker_0, # of connection points: 2
#     Edge 91, Type (0, 0), BuildingBlock: XIVTED_clean_linker_0, # of connection points: 2
#     Edge 92, Type (0, 0), BuildingBlock: XIVTED_clean_linker_0, # of connection points: 2
#     Edge 93, Type (0, 0), BuildingBlock: XIVTED_clean_linker_0, # of connection points: 2
#     Edge 94, Type (0, 0), BuildingBlock: XIVTED_clean_linker_0, # of connection points: 2
#     Edge 95, Type (0, 0), BuildingBlock: XIVTED_clean_linker_0, # of connection points: 2
#     Edge 96, Type (0, 0), BuildingBlock: XIVTED_clean_linker_0, # of connection points: 2
#     Edge 97, Type (0, 0), BuildingBlock: XIVTED_clean_linker_0, # of connection points: 2
#     Edge 98, Type (0, 0), BuildingBlock: XIVTED_clean_linker_0, # of connection points: 2
#     Edge 99, Type (0, 0), BuildingBlock: XIVTED_clean_linker_0, # of connection points: 2
#     Edge 100, Type (0, 0), BuildingBlock: XIVTED_clean_linker_0, # of connection points: 2
#     Edge 101, Type (0, 0), BuildingBlock: XIVTED_clean_linker_0, # of connection points: 2
#     Edge 102, Type (0, 0), BuildingBlock: XIVTED_clean_linker_0, # of connection points: 2
#     Edge 103, Type (0, 0), BuildingBlock: XIVTED_clean_linker_0, # of connection points: 2
#     Edge 104, Type (0, 0), BuildingBlock: XIVTED_clean_linker_0, # of connection points: 2
#     Edge 105, Type (0, 0), BuildingBlock: XIVTED_clean_linker_0, # of connection points: 2
#     Edge 106, Type (0, 0), BuildingBlock: XIVTED_clean_linker_0, # of connection points: 2
#     Edge 107, Type (0, 0), BuildingBlock: XIVTED_clean_linker_0, # of connection points: 2
#     Edge 108, Type (0, 0), BuildingBlock: XIVTED_clean_linker_0, # of connection points: 2
#     Edge 109, Type (0, 0), BuildingBlock: XIVTED_clean_linker_0, # of connection points: 2
#     Edge 110, Type (0, 0), BuildingBlock: XIVTED_clean_linker_0, # of connection points: 2
#     Edge 111, Type (0, 0), BuildingBlock: XIVTED_clean_linker_0, # of connection points: 2
#     Edge 112, Type (0, 0), BuildingBlock: XIVTED_clean_linker_0, # of connection points: 2
#     Edge 113, Type (0, 0), BuildingBlock: XIVTED_clean_linker_0, # of connection points: 2
#     Edge 114, Type (0, 0), BuildingBlock: XIVTED_clean_linker_0, # of connection points: 2
#     Edge 115, Type (0, 0), BuildingBlock: XIVTED_clean_linker_0, # of connection points: 2
#     Edge 116, Type (0, 0), BuildingBlock: XIVTED_clean_linker_0, # of connection points: 2
#     Edge 117, Type (0, 0), BuildingBlock: XIVTED_clean_linker_0, # of connection points: 2
#     Edge 118, Type (0, 0), BuildingBlock: XIVTED_clean_linker_0, # of connection points: 2
#     Edge 119, Type (0, 0), BuildingBlock: XIVTED_clean_linker_0, # of connection points: 2
#     Edge 120, Type (0, 0), BuildingBlock: XIVTED_clean_linker_0, # of connection points: 2
#     Edge 121, Type (0, 0), BuildingBlock: XIVTED_clean_linker_0, # of connection points: 2
#     Edge 122, Type (0, 0), BuildingBlock: XIVTED_clean_linker_0, # of connection points: 2
#     Edge 123, Type (0, 0), BuildingBlock: XIVTED_clean_linker_0, # of connection points: 2
#     Edge 124, Type (0, 0), BuildingBlock: XIVTED_clean_linker_0, # of connection points: 2
#     Edge 125, Type (0, 0), BuildingBlock: XIVTED_clean_linker_0, # of connection points: 2
#     Edge 126, Type (0, 0), BuildingBlock: XIVTED_clean_linker_0, # of connection points: 2
#     Edge 127, Type (0, 0), BuildingBlock: XIVTED_clean_linker_0, # of connection points: 2
#     Edge 128, Type (0, 0), BuildingBlock: XIVTED_clean_linker_0, # of connection points: 2
#     Edge 129, Type (0, 0), BuildingBlock: XIVTED_clean_linker_0, # of connection points: 2
#     Edge 130, Type (0, 0), BuildingBlock: XIVTED_clean_linker_0, # of connection points: 2
#     Edge 131, Type (0, 0), BuildingBlock: XIVTED_clean_linker_0, # of connection points: 2
#     Edge 132, Type (0, 0), BuildingBlock: XIVTED_clean_linker_0, # of connection points: 2
#     Edge 133, Type (0, 0), BuildingBlock: XIVTED_clean_linker_0, # of connection points: 2
#     Edge 134, Type (0, 0), BuildingBlock: XIVTED_clean_linker_0, # of connection points: 2
#     Edge 135, Type (0, 0), BuildingBlock: XIVTED_clean_linker_0, # of connection points: 2
#     Edge 136, Type (0, 0), BuildingBlock: XIVTED_clean_linker_0, # of connection points: 2
#     Edge 137, Type (0, 0), BuildingBlock: XIVTED_clean_linker_0, # of connection points: 2
#     Edge 138, Type (0, 0), BuildingBlock: XIVTED_clean_linker_0, # of connection points: 2
#     Edge 139, Type (0, 0), BuildingBlock: XIVTED_clean_linker_0, # of connection points: 2
#     Edge 140, Type (0, 0), BuildingBlock: XIVTED_clean_linker_0, # of connection points: 2
#     Edge 141, Type (0, 0), BuildingBlock: XIVTED_clean_linker_0, # of connection points: 2
#     Edge 142, Type (0, 0), BuildingBlock: XIVTED_clean_linker_0, # of connection points: 2
#     Edge 143, Type (0, 0), BuildingBlock: XIVTED_clean_linker_0, # of connection points: 2
# Relax obj value: 0.803
# Max RMSD: 0.293
# Mean RMSD: 0.281
data_MOF--net-lcv-a--node1-TATPOV_clean_sbu_0--edge1-XIVTED_clean_linker_0
_symmetry_space_group_name_H-M    P1
_symmetry_Int_Tables_number       1
_symmetry_cell_setting            triclinic
loop_
_symmetry_equiv_pos_as_xyz
'x, y, z'
_cell_length_a     88.737041
_cell_length_b     88.58459
_cell_length_c     88.528197
_cell_angle_alpha  88.982697
_cell_angle_beta   89.043741
_cell_angle_gamma 89.03259
loop_
_atom_site_label
_atom_site_type_symbol
_atom_site_fract_x
_atom_site_fract_y
_atom_site_fract_z
_atom_type_partial_charge
Zn0 Zn 0.0048 0.29503 0.16047 0.0
Zn1 Zn 0.00459 0.31731 0.17551 0.0
O2 O 0.00677 0.30126 0.19242 0.0
O3 O 0.01804 0.28549 0.17697 0.0
O4 O 0.00221 0.33705 0.1852 0.0
O5 O 0.98552 0.2921 0.16302 0.0
O6 O 0.98623 0.31657 0.16592 0.0
C7 C 0.01451 0.28921 0.19036 0.0
C8 C 0.0244 0.31495 0.14922 0.0
O9 O 0.02456 0.31753 0.16323 0.0
O10 O 0.01232 0.30992 0.14413 0.0
C11 C 0.00719 0.33923 0.19825 0.0
O12 O 0.01753 0.32995 0.20368 0.0
C13 C 0.97871 0.30468 0.16395 0.0
Zn14 Zn 0.00178 0.77691 0.40011 0.0
Zn15 Zn 0.96254 0.77537 0.41054 0.0
O16 O 0.97057 0.78193 0.43157 0.0
O17 O 0.98834 0.784 0.41519 0.0
O18 O 0.94276 0.7666 0.4134 0.0
O19 O -0.0028 0.75394 0.39854 0.0
O20 O 0.97597 0.757 0.40537 0.0
C21 C 0.9846 0.78314 0.4291 0.0
C22 C 0.97556 0.79322 0.3898 0.0
O23 O 0.96188 0.79058 0.3927 0.0
O24 O 0.98463 0.7897 0.40033 0.0
C25 C 0.93258 0.77495 0.41906 0.0
O26 O 0.93423 0.78966 0.4185 0.0
C27 C 0.98711 0.74856 0.40147 0.0
Zn28 Zn 0.51254 0.72444 0.70084 0.0
Zn29 Zn 0.51848 0.70272 0.71444 0.0
O30 O 0.51911 0.72022 0.72931 0.0
O31 O 0.50153 0.73405 0.71882 0.0
O32 O 0.52771 0.68566 0.72528 0.0
O33 O 0.53428 0.72927 0.69628 0.0
O34 O 0.53431 0.70456 0.69705 0.0
C35 C 0.51 0.73145 0.72993 0.0
C36 C 0.49461 0.70023 0.69434 0.0
O37 O 0.49702 0.69738 0.70818 0.0
O38 O 0.50342 0.70901 0.68732 0.0
C39 C 0.52506 0.67167 0.72565 0.0
O40 O 0.51288 0.66638 0.71954 0.0
C41 C 0.54062 0.71682 0.6931 0.0
Zn42 Zn 0.52255 0.27056 0.95862 0.0
Zn43 Zn 0.54776 0.28259 0.97934 0.0
O44 O 0.53132 0.27849 0.99514 0.0
O45 O 0.52797 0.26107 0.97927 0.0
O46 O 0.56512 0.29144 0.98878 0.0
O47 O 0.53139 0.28972 0.94788 0.0
O48 O 0.54172 0.30044 0.96736 0.0
C49 C 0.52315 0.26796 0.99073 0.0
C50 C 0.55168 0.25434 0.95907 0.0
O51 O 0.55686 0.26507 0.96678 0.0
O52 O 0.53777 0.25364 0.95596 0.0
C53 C 0.57474 0.28518 -0.00463 0.0
O54 O 0.57222 0.27126 -7e-05 0.0
C55 C 0.5379 0.30081 0.95373 0.0
Zn56 Zn 0.0599 0.68023 0.38983 0.0
Zn57 Zn 0.04638 0.64265 0.38373 0.0
O58 O 0.06234 0.64223 0.36597 0.0
O59 O 0.06337 0.66154 0.37947 0.0
O60 O 0.0332 0.62513 0.38153 0.0
O61 O 0.03762 0.68077 0.39517 0.0
O62 O 0.03255 0.66104 0.38112 0.0
C63 C 0.06819 0.65489 0.36802 0.0
C64 C 0.06559 0.65125 0.41048 0.0
O65 O 0.05688 0.642 0.40416 0.0
O66 O 0.06777 0.66471 0.40553 0.0
C67 C 0.04036 0.61291 0.37928 0.0
O68 O 0.05449 0.61202 0.3834 0.0
C69 C 0.02881 0.6703 0.39137 0.0
Zn70 Zn 0.57143 0.81612 0.63577 0.0
Zn71 Zn 0.60686 0.80503 0.61343 0.0
O72 O 0.59171 0.80488 0.59519 0.0
O73 O 0.58103 0.81453 0.61452 0.0
O74 O 0.62569 0.79547 0.60713 0.0
O75 O 0.5774 0.79495 0.64454 0.0
O76 O 0.59746 0.79037 0.62936 0.0
C77 C 0.57942 0.808 0.60199 0.0
C78 C 0.60102 0.83123 0.62769 0.0
O79 O 0.61298 0.82508 0.62281 0.0
O80 O 0.58894 0.82554 0.62306 0.0
C81 C 0.63295 0.8025 0.59692 0.0
O82 O 0.62821 0.81602 0.59266 0.0
C83 C 0.58822 0.78635 0.63987 0.0
Zn84 Zn 0.49205 0.34083 0.86367 0.0
Zn85 Zn 0.50269 0.36066 0.85001 0.0
O86 O 0.51113 0.34269 0.83761 0.0
O87 O 0.48902 0.33361 0.84203 0.0
O88 O 0.51102 0.37895 0.84181 0.0
O89 O 0.51151 0.3371 0.87509 0.0
O90 O 0.51215 0.36143 0.87049 0.0
C91 C 0.50153 0.33261 0.83508 0.0
C92 C 0.4716 0.36242 0.86044 0.0
O93 O 0.47983 0.36329 0.84866 0.0
O94 O 0.47703 0.35607 0.87207 0.0
C95 C 0.50494 0.38688 0.8316 0.0
O96 O 0.49187 0.38297 0.82628 0.0
C97 C 0.51689 0.34991 0.87769 0.0
Zn98 Zn 0.92694 0.21498 0.11645 0.0
Zn99 Zn 0.89528 0.2253 0.10635 0.0
O100 O 0.90388 0.2204 0.08681 0.0
O101 O 0.91978 0.20448 0.09699 0.0
O102 O 0.8754 0.23241 0.10139 0.0
O103 O 0.92131 0.2346 0.12831 0.0
O104 O 0.90381 0.24474 0.11384 0.0
C105 C 0.91478 0.21127 0.08533 0.0
C106 C 0.90172 0.20695 0.13343 0.0
O107 O 0.89442 0.2075 0.12121 0.0
O108 O 0.91266 0.21577 0.13491 0.0
C109 C 0.86245 0.22738 0.10424 0.0
O110 O 0.86079 0.21463 0.1118 0.0
C111 C 0.9131 0.24584 0.12441 0.0
Zn112 Zn 0.17393 0.01277 0.27646 0.0
Zn113 Zn 0.18539 0.00571 0.31203 0.0
O114 O 0.20294 0.01842 0.30395 0.0
O115 O 0.184 0.02599 0.29139 0.0
O116 O 0.19083 -0.00241 0.33214 0.0
O117 O 0.168 0.99359 0.28218 0.0
O118 O 0.18467 0.98919 0.30009 0.0
C119 C 0.19811 0.02501 0.29221 0.0
C120 C 0.15612 0.02341 0.30471 0.0
O121 O 0.16436 0.0159 0.31397 0.0
O122 O 0.15927 0.02421 0.29058 0.0
C123 C 0.19734 0.00569 0.34157 0.0
O124 O 0.19875 0.02017 0.33861 0.0
C125 C 0.17392 0.98491 0.2921 0.0
Zn126 Zn 0.2654 0.94991 0.52582 0.0
Zn127 Zn 0.27504 0.98005 0.55588 0.0
O128 O 0.27194 0.99475 0.53737 0.0
O129 O 0.26574 0.97221 0.53214 0.0
O130 O 0.28542 0.99007 0.57197 0.0
O131 O 0.28693 0.94375 0.53213 0.0
O132 O 0.28996 0.96223 0.54906 0.0
C133 C 0.26791 0.98562 0.52743 0.0
C134 C 0.25201 0.96173 0.55683 0.0
O135 O 0.25544 0.972 0.56575 0.0
O136 O 0.2588 0.96209 0.54412 0.0
C137 C 0.28211 0.00069 0.5761 0.0
O138 O 0.27097 0.00788 0.56937 0.0
C139 C 0.29479 0.9505 0.54195 0.0
Zn140 Zn 0.34914 0.09585 0.73841 0.0
Zn141 Zn 0.32948 0.09866 0.76185 0.0
O142 O 0.31388 0.09411 0.74634 0.0
O143 O 0.3292 0.10094 0.72771 0.0
O144 O 0.31875 0.10351 0.78066 0.0
O145 O 0.36061 0.11157 0.75007 0.0
O146 O 0.33851 0.11877 0.75776 0.0
C147 C 0.31605 0.09757 0.73252 0.0
C148 C 0.34878 0.06999 0.759 0.0
O149 O 0.34157 0.07945 0.76715 0.0
O150 O 0.35249 0.0736 0.7455 0.0
C151 C 0.30922 0.0939 0.78489 0.0
O152 O 0.30784 0.08152 0.77713 0.0
C153 C 0.35255 0.12019 0.75824 0.0
Zn154 Zn 0.21851 0.081 -0.00637 0.0
Zn155 Zn 0.21718 0.06526 0.01848 0.0
O156 O 0.22296 0.04799 0.00489 0.0
O157 O 0.21843 0.06008 0.98593 0.0
O158 O 0.21503 0.05501 0.03753 0.0
O159 O 0.1994 0.09213 0.00196 0.0
O160 O 0.19636 0.07437 0.01912 0.0
C161 C 0.22192 0.04796 0.99303 0.0
C162 C 0.2432 0.0862 0.01332 0.0
O163 O 0.23483 0.07874 0.02241 0.0
O164 O 0.23931 0.08829 -0.00029 0.0
C165 C 0.2249 0.04551 0.04167 0.0
O166 O 0.23689 0.04303 0.03313 0.0
C167 C 0.19166 0.08629 0.01266 0.0
Zn168 Zn 0.19805 0.98165 0.20238 0.0
Zn169 Zn 0.20725 -0.00272 0.1735 0.0
O170 O 0.22827 -0.00347 0.18174 0.0
O171 O 0.21938 0.9794 0.19298 0.0
O172 O 0.2091 0.0081 0.1545 0.0
O173 O 0.17954 0.99436 0.19415 0.0
O174 O 0.19303 0.01084 0.18486 0.0
C175 C 0.22792 0.99067 0.19338 0.0
C176 C 0.19857 0.96661 0.174 0.0
O177 O 0.19697 0.97974 0.16809 0.0
O178 O 0.20427 0.96508 0.18705 0.0
C179 C 0.2178 0.00198 0.14492 0.0
O180 O 0.22471 0.99204 0.14864 0.0
C181 C 0.18053 0.00524 0.18876 0.0
Zn182 Zn 0.29364 0.91462 0.4473 0.0
Zn183 Zn 0.2808 0.92773 0.41235 0.0
O184 O 0.28751 0.94926 0.41802 0.0
O185 O 0.29514 0.93211 0.43307 0.0
O186 O 0.26638 0.92942 0.39576 0.0
O187 O 0.27488 0.90192 0.44362 0.0
O188 O 0.26666 0.92052 0.42907 0.0
C189 C 0.29241 0.94597 0.431 0.0
C190 C 0.30988 0.90948 0.41584 0.0
O191 O 0.29918 0.91418 0.40738 0.0
O192 O 0.30912 0.90997 0.43026 0.0
C193 C 0.26996 0.93416 0.3827 0.0
O194 O 0.2843 0.93571 0.37921 0.0
C195 C 0.26514 0.90731 0.43452 0.0
Zn196 Zn 0.40388 0.06608 0.67029 0.0
Zn197 Zn 0.38915 0.05208 0.63805 0.0
O198 O 0.37119 0.06222 0.64911 0.0
O199 O 0.38028 0.06711 0.67209 0.0
O200 O 0.38126 0.03689 0.62458 0.0
O201 O 0.41145 0.04399 0.67406 0.0
O202 O 0.39808 0.03965 0.65418 0.0
C203 C 0.36933 0.06608 0.66292 0.0
C204 C 0.40788 0.07424 0.63777 0.0
O205 O 0.40462 0.06557 0.62723 0.0
O206 O 0.3993 0.07365 0.64921 0.0
C207 C 0.37731 0.041 0.6115 0.0
O208 O 0.38063 0.05467 0.60669 0.0
C209 C 0.40531 0.0347 0.6654 0.0
Zn210 Zn 0.21407 0.11025 0.93533 0.0
Zn211 Zn 0.22273 0.10726 0.89582 0.0
O212 O 0.21683 0.08514 0.89892 0.0
O213 O 0.20942 0.09833 0.91741 0.0
O214 O 0.23611 0.10917 0.87833 0.0
O215 O 0.23594 0.11753 0.93644 0.0
O216 O 0.23576 0.11537 0.91178 0.0
C217 C 0.21263 0.08539 0.91255 0.0
C218 C 0.1989 0.12824 0.90643 0.0
O219 O 0.20552 0.12212 0.89512 0.0
O220 O 0.20179 0.12453 0.92018 0.0
C221 C 0.23239 0.10442 0.86561 0.0
O222 O 0.21912 0.09833 0.86408 0.0
C223 C 0.24228 0.11945 0.92358 0.0
Zn224 Zn 0.28903 0.16288 0.02067 0.0
Zn225 Zn 0.31881 0.17584 0.00743 0.0
O226 O 0.30164 0.19176 0.01189 0.0
O227 O 0.28293 0.18359 0.02668 0.0
O228 O 0.33624 0.18739 0.00023 0.0
O229 O 0.28877 0.16232 -0.00331 0.0
O230 O 0.31162 0.16546 0.99109 0.0
C231 C 0.28931 0.19413 0.01928 0.0
C232 C 0.31688 0.15825 0.03333 0.0
O233 O 0.32656 0.16068 0.02305 0.0
O234 O 0.30653 0.16804 0.03416 0.0
C235 C 0.3395 0.19925 0.00709 0.0
O236 O 0.33251 0.20233 0.01987 0.0
C237 C 0.29792 0.16287 0.98838 0.0
Zn238 Zn 0.74464 0.3471 0.09151 0.0
Zn239 Zn 0.76316 0.3282 0.09762 0.0
O240 O 0.74591 0.31436 0.09275 0.0
O241 O 0.72994 0.33165 0.10044 0.0
O242 O 0.77895 0.31432 0.10388 0.0
O243 O 0.75666 0.36027 0.10561 0.0
O244 O 0.76186 0.33906 0.11741 0.0
C245 C 0.73274 0.31801 0.09718 0.0
C246 C 0.76496 0.34361 0.06744 0.0
O247 O 0.77253 0.33935 0.07888 0.0
O248 O 0.7509 0.3458 0.06904 0.0
C249 C 0.78702 0.30865 0.09357 0.0
O250 O 0.78374 0.31127 0.07935 0.0
C251 C 0.7616 0.35327 0.11714 0.0
Zn252 Zn 0.96081 0.5353 0.26988 0.0
Zn253 Zn 0.97519 0.55612 0.2778 0.0
O254 O 0.98837 0.53671 0.28037 0.0
O255 O 0.9798 0.52585 0.26062 0.0
O256 O 0.98656 0.57245 0.28654 0.0
O257 O 0.95538 0.531 0.29224 0.0
O258 O 0.95792 0.55544 0.29346 0.0
C259 C 0.98895 0.52564 0.27138 0.0
C260 C 0.95653 0.56105 0.25158 0.0
O261 O 0.96948 0.5637 0.25665 0.0
O262 O 0.94884 0.55046 0.25736 0.0
C263 C -0.00243 0.57462 0.28505 0.0
O264 O 0.00534 0.56753 0.27454 0.0
C265 C 0.95344 0.54311 0.29944 0.0
Zn266 Zn 0.73373 0.69579 0.4986 0.0
Zn267 Zn 0.69864 0.7161 0.51628 0.0
O268 O 0.71137 0.73509 0.51209 0.0
O269 O 0.72251 0.71632 0.50161 0.0
O270 O 0.68332 0.72045 0.53156 0.0
O271 O 0.73324 0.68646 0.52022 0.0
O272 O 0.71287 0.70032 0.52663 0.0
C273 C 0.72343 0.72978 0.50629 0.0
C274 C 0.69927 0.70062 0.4914 0.0
O275 O 0.6884 0.70718 0.49802 0.0
O276 O 0.71231 0.7047 0.49525 0.0
C277 C 0.67078 0.72604 0.5276 0.0
O278 O 0.66822 0.72832 0.51316 0.0
C279 C 0.72309 0.6905 0.52988 0.0
Zn280 Zn 0.12373 0.91811 0.22065 0.0
Zn281 Zn 0.1124 0.89538 0.22817 0.0
O282 O 0.09214 0.90512 0.22729 0.0
O283 O 0.1023 0.92125 0.21121 0.0
O284 O 0.10925 0.87452 0.23329 0.0
O285 O 0.12607 0.92667 0.24092 0.0
O286 O 0.12344 0.90286 0.24748 0.0
C287 C 0.0906 0.91553 0.2174 0.0
C288 C 0.13398 0.89683 0.20357 0.0
O289 O 0.12021 0.89435 0.2061 0.0
O290 O 0.14078 0.90337 0.21385 0.0
C291 C 0.09845 0.86647 0.22927 0.0
O292 O 0.0879 0.87204 0.22046 0.0
C293 C 0.12639 0.91639 0.25096 0.0
Zn294 Zn 0.22448 0.87134 0.5308 0.0
Zn295 Zn 0.20592 0.85049 0.5303 0.0
O296 O 0.22262 0.83527 0.53324 0.0
O297 O 0.23613 0.85363 0.54198 0.0
O298 O 0.18755 0.83962 0.52663 0.0
O299 O 0.2279 0.87523 0.50885 0.0
O300 O 0.20758 0.86129 0.50962 0.0
C301 C 0.23424 0.83956 0.54001 0.0
C302 C 0.2007 0.87578 0.54932 0.0
O303 O 0.20259 0.86163 0.55023 0.0
O304 O 0.20467 0.88201 0.53709 0.0
C305 C 0.17657 0.83695 0.53549 0.0
O306 O 0.17718 0.84057 0.54978 0.0
C307 C 0.21664 0.86984 0.50239 0.0
Zn308 Zn 0.90704 0.43252 0.29553 0.0
Zn309 Zn 0.9221 0.40795 0.2808 0.0
O310 O 0.93911 0.42307 0.28675 0.0
O311 O 0.92587 0.44361 0.29305 0.0
O312 O 0.93142 0.39058 0.27013 0.0
O313 O 0.89443 0.43186 0.27568 0.0
O314 O 0.91119 0.41757 0.26392 0.0
C315 C 0.93844 0.43704 0.29042 0.0
C316 C 0.90868 0.40473 0.30974 0.0
O317 O 0.90765 0.3991 0.2968 0.0
O318 O 0.91592 0.41669 0.31039 0.0
C319 C 0.94055 0.38129 0.27616 0.0
O320 O 0.94411 0.38289 0.29037 0.0
C321 C 0.89978 0.42625 0.26355 0.0
Zn322 Zn 0.63695 0.59541 0.8033 0.0
Zn323 Zn 0.61397 0.60926 0.79808 0.0
O324 O 0.59975 0.59253 0.79545 0.0
O325 O 0.61886 0.57936 0.80485 0.0
O326 O 0.6039 0.6289 0.79516 0.0
O327 O 0.64863 0.59549 0.78402 0.0
O328 O 0.62721 0.60679 0.77867 0.0
C329 C 0.60522 0.58003 0.80028 0.0
C330 C 0.63069 0.61087 0.82619 0.0
O331 O 0.61835 0.60679 0.82084 0.0
O332 O 0.6409 0.61379 0.81667 0.0
C333 C 0.5926 0.63277 0.80318 0.0
O334 O 0.58901 0.62451 0.81513 0.0
C335 C 0.64 0.60155 0.77442 0.0
Zn336 Zn 0.51509 0.80994 0.71343 0.0
Zn337 Zn 0.50874 0.84655 0.72548 0.0
O338 O 0.51636 0.84051 0.74672 0.0
O339 O 0.51823 0.8206 0.7329 0.0
O340 O 0.49798 0.86634 0.72562 0.0
O341 O 0.4957 0.81432 0.70168 0.0
O342 O 0.49442 0.83089 0.71922 0.0
C343 C 0.52043 0.82681 0.74533 0.0
C344 C 0.53556 0.83678 0.7051 0.0
O345 O 0.527 0.84662 0.71146 0.0
O346 O 0.53276 0.82266 0.70519 0.0
C347 C 0.50371 0.87798 0.73118 0.0
O348 O 0.51763 0.87721 0.736 0.0
C349 C 0.49084 0.82706 0.70606 0.0
Zn350 Zn 0.43044 0.28803 0.91687 0.0
Zn351 Zn 0.40656 0.28032 0.92429 0.0
O352 O 0.41869 0.27763 0.94406 0.0
O353 O 0.43382 0.29608 0.93814 0.0
O354 O 0.38683 0.27154 0.92864 0.0
O355 O 0.43806 0.26749 0.91119 0.0
O356 O 0.4138 0.26626 0.90714 0.0
C357 C 0.4287 0.28688 0.94799 0.0
C358 C 0.40803 0.30669 0.90619 0.0
O359 O 0.40265 0.3026 0.91891 0.0
O360 O 0.41839 0.29868 0.90045 0.0
C361 C 0.37779 0.27713 0.93826 0.0
O362 O 0.38004 0.29085 0.943 0.0
C363 C 0.42712 0.26115 0.90506 0.0
Zn364 Zn 0.98155 0.2024 0.20011 0.0
Zn365 Zn -0.00597 0.17116 0.20875 0.0
O366 O -0.00284 0.1816 0.22851 0.0
O367 O 0.98024 0.19309 0.22137 0.0
O368 O 0.00182 0.15102 0.21161 0.0
O369 O -0.00549 0.19751 0.18252 0.0
O370 O 0.00754 0.17831 0.19223 0.0
C371 C 0.99188 0.19326 0.22927 0.0
C372 C 0.96349 0.17483 0.19945 0.0
O373 O 0.9757 0.16739 0.20148 0.0
O374 O 0.96302 0.18917 0.19988 0.0
C375 C -0.00493 0.14271 0.22112 0.0
O376 O 0.98691 0.14813 0.22943 0.0
C377 C 0.00553 0.1881 0.18188 0.0
Zn378 Zn 0.0664 0.74139 0.4499 0.0
Zn379 Zn 0.09815 0.75054 0.47172 0.0
O380 O 0.08227 0.75344 0.48875 0.0
O381 O 0.07377 0.73903 0.47182 0.0
O382 O 0.11707 0.76088 0.47551 0.0
O383 O 0.07794 0.75506 0.43395 0.0
O384 O 0.08718 0.76068 0.4552 0.0
C385 C 0.07087 0.74778 0.48262 0.0
C386 C 0.09364 0.71881 0.46052 0.0
O387 O 0.10209 0.72832 0.46678 0.0
O388 O 0.08072 0.72252 0.45515 0.0
C389 C 0.1258 0.75506 0.48524 0.0
O390 O 0.12224 0.74214 0.49176 0.0
C391 C 0.08889 0.76031 0.44108 0.0
Zn392 Zn 0.53836 0.24012 0.8737 0.0
Zn393 Zn 0.5346 0.20348 0.85116 0.0
O394 O 0.54153 0.2177 0.83368 0.0
O395 O 0.54548 0.22898 0.8543 0.0
O396 O 0.52327 0.18742 0.84251 0.0
O397 O 0.51556 0.23552 0.87728 0.0
O398 O 0.51814 0.21501 0.8632 0.0
C399 C 0.5436 0.23012 0.8401 0.0
C400 C 0.55416 0.20705 0.87278 0.0
O401 O 0.55147 0.19543 0.86525 0.0
O402 O 0.54745 0.21909 0.86838 0.0
C403 C 0.53064 0.17691 0.83632 0.0
O404 O 0.5454 0.1765 0.83725 0.0
C405 C 0.51002 0.22379 0.87133 0.0
Zn406 Zn 0.99367 0.21338 0.07984 0.0
Zn407 Zn 0.01906 0.21799 0.06106 0.0
O408 O 0.00494 0.2254 0.04556 0.0
O409 O 0.9869 0.22003 0.05831 0.0
O410 O 0.03828 0.21333 0.05121 0.0
O411 O -0.00399 0.19044 0.08612 0.0
O412 O 0.01348 0.20153 0.07391 0.0
C413 C 0.99372 0.22522 0.04653 0.0
C414 C 0.0138 0.23826 0.08698 0.0
O415 O 0.02144 0.23455 0.07531 0.0
O416 O 0.0019 0.23112 0.09098 0.0
C417 C 0.04415 0.22524 0.04594 0.0
O418 O 0.03724 0.23831 0.0479 0.0
C419 C 0.00983 0.19069 0.08238 0.0
Zn420 Zn 0.08504 0.7475 0.34259 0.0
Zn421 Zn 0.09471 0.76928 0.33034 0.0
O422 O 0.10088 0.75038 0.31806 0.0
O423 O 0.07844 0.74226 0.3212 0.0
O424 O 0.10121 0.7863 0.31757 0.0
O425 O 0.10669 0.7453 0.35116 0.0
O426 O 0.10797 0.76982 0.34842 0.0
C427 C 0.09108 0.74078 0.31476 0.0
C428 C 0.06382 0.76867 0.34606 0.0
O429 O 0.07198 0.77363 0.3351 0.0
O430 O 0.06874 0.75792 0.35429 0.0
C431 C 0.09633 0.78534 0.30431 0.0
O432 O 0.08702 0.7745 0.30115 0.0
C433 C 0.11313 0.75758 0.35411 0.0
Zn434 Zn 0.46479 0.76412 0.62442 0.0
Zn435 Zn 0.44736 0.77273 0.60742 0.0
O436 O 0.46719 0.7762 0.59518 0.0
O437 O 0.47543 0.75545 0.60577 0.0
O438 O 0.43023 0.77717 0.59429 0.0
O439 O 0.46954 0.78546 0.62961 0.0
O440 O 0.44596 0.78951 0.62376 0.0
C441 C 0.47744 0.766 0.59616 0.0
C442 C 0.44409 0.74435 0.62547 0.0
O443 O 0.44468 0.74984 0.61218 0.0
O444 O 0.44861 0.75247 0.63598 0.0
C445 C 0.42646 0.76797 0.58427 0.0
O446 O 0.43438 0.75548 0.58234 0.0
C447 C 0.45811 0.79414 0.62948 0.0
Zn448 Zn 0.71185 0.53946 0.81842 0.0
Zn449 Zn 0.72466 0.52182 0.85637 0.0
O450 O 0.74468 0.52294 0.84439 0.0
O451 O 0.72978 0.53842 0.83297 0.0
O452 O 0.7277 0.50757 0.8731 0.0
O453 O 0.70218 0.51846 0.8189 0.0
O454 O 0.71008 0.51101 0.84195 0.0
C455 C 0.74148 0.52998 0.83229 0.0
C456 C 0.71009 0.54787 0.85357 0.0
O457 O 0.71552 0.54148 0.86513 0.0
O458 O 0.71486 0.54272 0.84105 0.0
C459 C 0.73688 0.51089 0.88322 0.0
O460 O 0.74356 0.524 0.88258 0.0
C461 C 0.70251 0.5089 0.82996 0.0
Zn462 Zn 0.7356 0.45706 0.08604 0.0
Zn463 Zn 0.74347 0.47441 0.104 0.0
O464 O 0.75627 0.47963 0.08508 0.0
O465 O 0.73849 0.47351 0.06982 0.0
O466 O 0.75117 0.48577 0.12092 0.0
O467 O 0.75253 0.44179 0.09061 0.0
O468 O 0.74858 0.45336 0.11201 0.0
C469 C 0.75113 0.47949 0.07174 0.0
C470 C 0.71176 0.46912 0.10301 0.0
O471 O 0.72102 0.47986 0.10299 0.0
O472 O 0.71636 0.45624 0.09888 0.0
C473 C 0.74874 0.49941 0.12425 0.0
O474 O 0.74046 0.50813 0.11543 0.0
C475 C 0.75422 0.44237 0.10473 0.0
Zn476 Zn 0.86884 0.49761 0.32848 0.0
Zn477 Zn 0.85124 0.50811 0.35466 0.0
O478 O 0.83287 0.5104 0.34212 0.0
O479 O 0.84688 0.50338 0.32234 0.0
O480 O 0.84863 0.51889 0.37364 0.0
O481 O 0.88546 0.51185 0.33288 0.0
O482 O 0.86548 0.52126 0.34368 0.0
C483 C 0.83424 0.50753 0.32812 0.0
C484 C 0.86285 0.4757 0.35248 0.0
O485 O 0.85414 0.48551 0.35843 0.0
O486 O 0.8713 0.47905 0.34131 0.0
C487 C 0.84144 0.51361 0.38489 0.0
O488 O 0.83825 0.49919 0.38536 0.0
C489 C 0.87955 0.51948 0.34337 0.0
Zn490 Zn 0.79915 0.62562 0.58234 0.0
Zn491 Zn 0.79674 0.61497 0.60612 0.0
O492 O 0.79177 0.59841 0.59023 0.0
O493 O 0.80745 0.60649 0.57285 0.0
O494 O 0.79178 0.60581 0.62577 0.0
O495 O 0.77643 0.63014 0.58261 0.0
O496 O 0.78135 0.63257 0.60648 0.0
C497 C 0.79877 0.5963 0.5777 0.0
C498 C 0.82204 0.63421 0.60149 0.0
O499 O 0.81875 0.62152 0.6074 0.0
O500 O 0.81346 0.6401 0.59168 0.0
C501 C 0.79992 0.59779 0.63445 0.0
O502 O 0.81406 0.59495 0.63071 0.0
C503 C 0.77253 0.63485 0.59552 0.0
Zn504 Zn 0.70383 0.50456 0.73295 0.0
Zn505 Zn 0.71811 0.52122 0.70492 0.0
O506 O 0.73632 0.51674 0.71802 0.0
O507 O 0.72372 0.49704 0.72358 0.0
O508 O 0.72504 0.53215 0.68682 0.0
O509 O 0.69156 0.5247 0.72958 0.0
O510 O 0.70583 0.53769 0.71356 0.0
C511 C 0.73506 0.50489 0.72603 0.0
C512 C 0.69703 0.493 0.70361 0.0
O513 O 0.70419 0.50421 0.69795 0.0
O514 O 0.69632 0.49044 0.71777 0.0
C515 C 0.72559 0.52793 0.67326 0.0
O516 O 0.72272 0.51387 0.67 0.0
C517 C 0.69422 0.53665 0.72189 0.0
Zn518 Zn 0.77046 0.39194 -0.00157 0.0
Zn519 Zn 0.77175 0.40659 0.96158 0.0
O520 O 0.77736 0.42725 0.97144 0.0
O521 O 0.77394 0.41237 0.99067 0.0
O522 O 0.76858 0.41116 0.93998 0.0
O523 O 0.74827 0.38935 0.99293 0.0
O524 O 0.7508 0.40127 0.97048 0.0
C525 C 0.77647 0.42561 0.98568 0.0
C526 C 0.79104 0.38778 0.97714 0.0
O527 O 0.78692 0.38865 0.96355 0.0
O528 O 0.7861 0.3981 0.98554 0.0
C529 C 0.77868 0.41907 0.93364 0.0
O530 O 0.79183 0.41984 0.94014 0.0
C531 C 0.74267 0.39502 0.98082 0.0
Zn532 Zn 0.86156 0.53548 0.24717 0.0
Zn533 Zn 0.84704 0.52495 0.2126 0.0
O534 O 0.82859 0.53731 0.21941 0.0
O535 O 0.8472 0.54488 0.2319 0.0
O536 O 0.84066 0.51313 0.1952 0.0
O537 O 0.87057 0.51417 0.24356 0.0
O538 O 0.8506 0.51111 0.23002 0.0
C539 C 0.83318 0.54293 0.23148 0.0
C540 C 0.87447 0.54555 0.21535 0.0
O541 O 0.86606 0.53715 0.2076 0.0
O542 O 0.87309 0.54667 0.22972 0.0
C543 C 0.83856 0.52107 0.18336 0.0
O544 O 0.84358 0.53494 0.18292 0.0
C545 C 0.86382 0.50703 0.23346 0.0
Zn546 Zn 0.76841 0.62922 0.45723 0.0
Zn547 Zn 0.77262 0.60454 0.44758 0.0
O548 O 0.77544 0.59082 0.46508 0.0
O549 O 0.77013 0.61251 0.47603 0.0
O550 O 0.7732 0.59313 0.42904 0.0
O551 O 0.78357 0.63886 0.44338 0.0
O552 O 0.79267 0.61658 0.44774 0.0
C553 C 0.77289 0.59823 0.47701 0.0
C554 C 0.74285 0.62256 0.4476 0.0
O555 O 0.75006 0.61044 0.45061 0.0
O556 O 0.75011 0.63445 0.44573 0.0
C557 C 0.76495 0.58168 0.42833 0.0
O558 O 0.75502 0.57906 0.43919 0.0
C559 C 0.79482 0.63026 0.44391 0.0
Zn560 Zn 0.81751 0.70924 0.53704 0.0
Zn561 Zn 0.85452 0.72716 0.52119 0.0
O562 O 0.8405 0.74635 0.52183 0.0
O563 O 0.83044 0.72788 0.53389 0.0
O564 O 0.87213 0.73157 0.50875 0.0
O565 O 0.8207 0.69952 0.51622 0.0
O566 O 0.84266 0.71059 0.50954 0.0
C567 C 0.82882 0.741 0.52816 0.0
C568 C 0.85178 0.71309 0.54795 0.0
O569 O 0.86282 0.71954 0.54166 0.0
O570 O 0.83925 0.71515 0.54146 0.0
C571 C 0.88067 0.74199 0.51273 0.0
O572 O 0.87752 0.74941 0.52513 0.0
C573 C 0.83191 0.70143 0.50704 0.0
Zn574 Zn 0.31917 0.86209 0.49413 0.0
Zn575 Zn 0.35656 0.84786 0.50482 0.0
O576 O 0.34473 0.82847 0.50869 0.0
O577 O 0.33171 0.84282 0.49425 0.0
O578 O 0.37414 0.84766 0.51804 0.0
O579 O 0.3232 0.87828 0.51045 0.0
O580 O 0.34401 0.86505 0.5112 0.0
C581 C 0.33196 0.83161 0.50327 0.0
C582 C 0.35101 0.85722 0.47362 0.0
O583 O 0.36084 0.8521 0.48285 0.0
O584 O 0.33734 0.86026 0.47771 0.0
C585 C 0.38676 0.84272 0.5133 0.0
O586 O 0.38874 0.84078 0.49872 0.0
C587 C 0.33638 0.8763 0.51557 0.0
Zn588 Zn 0.4545 0.08724 0.73502 0.0
Zn589 Zn 0.47032 0.10628 0.74354 0.0
O590 O 0.4775 0.08798 0.75618 0.0
O591 O 0.47353 0.07364 0.73715 0.0
O592 O 0.48177 0.12378 0.7493 0.0
O593 O 0.44001 0.08952 0.75273 0.0
O594 O 0.44917 0.1123 0.7515 0.0
C595 C 0.47856 0.07498 0.75034 0.0
C596 C 0.46421 0.10437 0.71174 0.0
O597 O 0.47498 0.1043 0.72092 0.0
O598 O 0.45128 0.10114 0.71681 0.0
C599 C 0.49583 0.1245 0.74709 0.0
O600 O 0.5029 0.11359 0.73986 0.0
C601 C 0.43943 0.10312 0.75679 0.0
Zn602 Zn 0.20319 0.18774 0.98915 0.0
Zn603 Zn 0.17501 0.20396 -0.00051 0.0
O604 O 0.18539 0.22406 0.0007 0.0
O605 O 0.20296 0.20949 0.99393 0.0
O606 O 0.15387 0.20618 0.00629 0.0
O607 O 0.1942 0.17237 0.00015 0.0
O608 O 0.18293 0.18891 0.01483 0.0
C609 C 0.19872 0.22256 -0.00446 0.0
C610 C 0.1797 0.19262 0.96838 0.0
O611 O 0.17216 0.19746 0.97974 0.0
O612 O 0.19335 0.18827 0.96937 0.0
C613 C 0.14578 0.21574 -0.00073 0.0
O614 O 0.15121 0.22419 0.99117 0.0
C615 C 0.18608 0.17537 0.01161 0.0
Zn616 Zn 0.62038 0.47115 0.77075 0.0
Zn617 Zn 0.60687 0.44998 0.77148 0.0
O618 O 0.59209 0.46699 0.77994 0.0
O619 O 0.60219 0.48391 0.76499 0.0
O620 O 0.59647 0.43098 0.77293 0.0
O621 O 0.62542 0.46771 0.79309 0.0
O622 O 0.62496 0.44473 0.78501 0.0
C623 C 0.59148 0.48012 0.77373 0.0
C624 C 0.62446 0.4559 0.74455 0.0
O625 O 0.61141 0.45212 0.74897 0.0
O626 O 0.63306 0.46208 0.75378 0.0
C627 C 0.58351 0.43041 0.76745 0.0
O628 O 0.57879 0.4416 0.75872 0.0
C629 C 0.6289 0.45393 0.79496 0.0
Zn630 Zn 0.67541 0.39509 0.06687 0.0
Zn631 Zn 0.63523 0.38546 0.05316 0.0
O632 O 0.63905 0.36571 0.06546 0.0
O633 O 0.65904 0.37859 0.0684 0.0
O634 O 0.61953 0.38178 0.03853 0.0
O635 O 0.67466 0.40091 0.04439 0.0
O636 O 0.65227 0.39107 0.03822 0.0
C637 C 0.65237 0.36611 0.07024 0.0
C638 C 0.6434 0.40695 0.07059 0.0
O639 O 0.63048 0.40432 0.06559 0.0
O640 O 0.65304 0.39632 0.06945 0.0
C641 C 0.60671 0.37763 0.0431 0.0
O642 O 0.60301 0.37956 0.05737 0.0
C643 C 0.66489 0.39703 0.03473 0.0
Zn644 Zn 0.39928 0.00177 0.77688 0.0
Zn645 Zn 0.4087 0.96234 0.77724 0.0
O646 O 0.43009 0.97145 0.78216 0.0
O647 O 0.41358 0.98871 0.785 0.0
O648 O 0.41312 0.94062 0.774 0.0
O649 O 0.3947 -0.00646 0.75559 0.0
O650 O 0.4018 0.97154 0.7565 0.0
C651 C 0.42739 0.98542 0.78299 0.0
C652 C 0.38782 0.97832 0.79471 0.0
O653 O 0.38984 0.96457 0.79144 0.0
O654 O 0.39931 0.98653 0.79278 0.0
C655 C 0.42226 0.93463 0.78329 0.0
O656 O 0.42457 0.9415 0.79607 0.0
C657 C 0.3964 0.98316 0.74942 0.0
Zn658 Zn 0.07503 0.99059 0.22448 0.0
Zn659 Zn 0.06252 0.0186 0.21688 0.0
O660 O 0.04405 0.0066 0.22132 0.0
O661 O 0.05744 -0.00468 0.23816 0.0
O662 O 0.05472 0.03879 0.21252 0.0
O663 O 0.08876 -0.00057 0.20841 0.0
O664 O 0.07132 0.01287 0.19713 0.0
C665 C 0.04505 -0.00364 0.23135 0.0
C666 C 0.0813 0.01239 0.24552 0.0
O667 O 0.0774 0.02124 0.23467 0.0
O668 O 0.07899 -0.00173 0.2448 0.0
C669 C 0.05012 0.0452 0.22438 0.0
O670 O 0.05142 0.03816 0.23747 0.0
C671 C 0.0847 0.00806 0.19756 0.0
H672 H -0.00071 0.28707 0.21761 0.0
H673 H 0.0165 0.19941 0.21735 0.0
H674 H 0.03436 0.26534 0.1911 0.0
H675 H 0.98173 0.21983 0.24108 0.0
H676 H 0.02745 0.22417 0.21366 0.0
H677 H -0.00317 0.26389 0.23287 0.0
C678 C 0.00681 0.2776 0.21529 0.0
C679 C 0.01661 0.2779 0.20268 0.0
C680 C 0.01699 0.22327 0.22007 0.0
C681 C 0.01367 0.25137 0.21986 0.0
C682 C 0.01076 0.2091 0.22224 0.0
C683 C -0.00322 0.20764 0.22965 0.0
C684 C 0.00912 0.23613 0.22521 0.0
C685 C 0.99258 0.22058 0.23536 0.0
C686 C 0.00531 0.26432 0.22394 0.0
C687 C 0.02627 0.26541 0.20039 0.0
N688 N -0.00421 0.23436 0.23289 0.0
N689 N 0.02431 0.25253 0.20866 0.0
H690 H 0.06542 0.77762 0.4762 0.0
H691 H 0.98759 0.75679 0.44539 0.0
H692 H 0.04336 0.73573 0.48675 0.0
H693 H 0.00434 0.80054 0.43885 0.0
H694 H 0.00485 0.74982 0.46292 0.0
H695 H 0.04175 0.78775 0.46592 0.0
C696 C 0.05539 0.77082 0.47698 0.0
C697 C 0.05626 0.75585 0.48231 0.0
C698 C 0.00462 0.76106 0.45791 0.0
C699 C 0.02934 0.76707 0.47008 0.0
C700 C -0.00694 0.76502 0.44792 0.0
C701 C -0.00717 0.77927 0.44078 0.0
C702 C 0.01598 0.77149 0.46085 0.0
C703 C 0.00418 0.78944 0.44417 0.0
C704 C 0.04193 0.7765 0.47089 0.0
C705 C 0.04307 0.74735 0.48273 0.0
N706 N 0.0153 0.78536 0.45392 0.0
N707 N 0.03022 0.75298 0.47646 0.0
H708 H 0.4954 0.74422 0.7547 0.0
H709 H 0.54852 0.81453 0.7458 0.0
H710 H 0.53408 0.74821 0.72493 0.0
H711 H 0.50678 0.8157 0.77099 0.0
H712 H 0.54842 0.78711 0.74683 0.0
H713 H 0.50302 0.76747 0.76741 0.0
C714 C 0.50558 0.74988 0.75104 0.0
C715 C 0.51429 0.74436 0.73894 0.0
C716 C 0.53951 0.79328 0.75267 0.0
C717 C 0.52296 0.77066 0.75315 0.0
C718 C 0.53982 0.80902 0.75253 0.0
C719 C 0.52696 0.81724 0.75724 0.0
C720 C 0.5266 0.78598 0.75836 0.0
C721 C 0.51642 0.80962 0.76635 0.0
C722 C 0.50997 0.76305 0.75828 0.0
C723 C 0.52726 0.75207 0.73441 0.0
N724 N 0.51591 0.79428 0.76589 0.0
N725 N 0.53111 0.76487 0.7414 0.0
H726 H 0.44348 0.30795 0.96425 0.0
H727 H 0.5027 0.24676 0.98436 0.0
H728 H 0.4337 0.26047 0.96362 0.0
H729 H 0.50659 0.29224 -0.00119 0.0
H730 H 0.47587 0.25102 0.98049 0.0
H731 H 0.46395 0.30252 0.98185 0.0
C732 C 0.44536 0.29643 0.96818 0.0
C733 C 0.43713 0.28459 0.96218 0.0
C734 C 0.4823 0.2599 0.98544 0.0
C735 C 0.46083 0.27824 0.98188 0.0
C736 C 0.49765 0.25745 0.98767 0.0
C737 C 0.50662 0.26912 0.99283 0.0
C738 C 0.47586 0.27421 0.98815 0.0
C739 C 0.50012 0.28299 -0.00537 0.0
C740 C 0.45707 0.29332 0.97821 0.0
C741 C 0.43989 0.26992 0.9678 0.0
N742 N 0.48457 0.28504 0.9942 0.0
N743 N 0.4518 0.2671 0.97696 0.0
H744 H 0.06485 0.65397 0.33739 0.0
H745 H 0.11573 0.72659 0.32616 0.0
H746 H 0.08964 0.67563 0.37218 0.0
H747 H 0.07646 0.7189 0.29955 0.0
H748 H 0.11354 0.70134 0.33711 0.0
H749 H 0.07547 0.67192 0.31868 0.0
C750 C 0.0729 0.66219 0.34097 0.0
C751 C 0.0765 0.66334 0.35625 0.0
C752 C 0.10577 0.70493 0.32839 0.0
C753 C 0.08872 0.6836 0.33507 0.0
C754 C 0.10719 0.71927 0.32186 0.0
C755 C 0.09587 0.72503 0.3124 0.0
C756 C 0.09333 0.69616 0.32488 0.0
C757 C 0.08519 0.71494 0.30712 0.0
C758 C 0.07887 0.67243 0.33035 0.0
C759 C 0.08667 0.67438 0.36045 0.0
N760 N 0.08384 0.70109 0.31383 0.0
N761 N 0.0924 0.68412 0.34993 0.0
H762 H 0.55919 0.79638 0.62191 0.0
H763 H 0.48866 0.78595 0.57395 0.0
H764 H 0.56709 0.80229 0.57402 0.0
H765 H 0.50254 0.75369 0.60837 0.0
H766 H 0.515 0.79484 0.57221 0.0
H767 H 0.53549 0.78442 0.61689 0.0
C768 C 0.55592 0.79523 0.6103 0.0
C769 C 0.56513 0.80045 0.59841 0.0
C770 C 0.51218 0.7856 0.57985 0.0
C771 C 0.53763 0.78682 0.59251 0.0
C772 C 0.49721 0.78052 0.58085 0.0
C773 C 0.49326 0.76918 0.59147 0.0
C774 C 0.52293 0.77961 0.58993 0.0
C775 C 0.50484 0.76251 0.60007 0.0
C776 C 0.54237 0.78831 0.60743 0.0
C777 C 0.56026 0.79842 0.58352 0.0
N778 N 0.51893 0.76809 0.59941 0.0
N779 N 0.54666 0.79192 0.58094 0.0
H780 H 0.49266 0.30738 0.84898 0.0
H781 H 0.55639 0.25219 0.8218 0.0
H782 H 0.52225 0.32258 0.81276 0.0
H783 H 0.51489 0.23904 0.84363 0.0
H784 H 0.54484 0.27719 0.81572 0.0
H785 H 0.50164 0.28218 0.8458 0.0
C786 C 0.50081 0.30536 0.83995 0.0
C787 C 0.50651 0.31719 0.83098 0.0
C788 C 0.53821 0.26869 0.82158 0.0
C789 C 0.51716 0.28761 0.82725 0.0
C790 C 0.54479 0.25452 0.82509 0.0
C791 C 0.53662 0.24388 0.83368 0.0
C792 C 0.52355 0.27201 0.82693 0.0
C793 C 0.52163 0.24714 0.83742 0.0
C794 C 0.50601 0.29078 0.83815 0.0
C795 C 0.51752 0.31374 0.81988 0.0
N796 N 0.51566 0.26094 0.83422 0.0
N797 N 0.52262 0.29914 0.81835 0.0
H798 H 0.91446 0.20762 0.05484 0.0
H799 H 0.98787 0.25497 0.04989 0.0
H800 H 0.93816 0.22861 0.09079 0.0
H801 H 0.97803 0.21876 0.02044 0.0
H802 H 0.9613 0.25722 0.05676 0.0
H803 H 0.93062 0.22111 0.03633 0.0
C804 C 0.92325 0.21487 0.05875 0.0
C805 C 0.92567 0.21651 0.07417 0.0
C806 C 0.96475 0.24934 0.04808 0.0
C807 C 0.94305 0.2327 0.05344 0.0
C808 C 0.97993 0.2482 0.04388 0.0
C809 C 0.98492 0.2351 0.03652 0.0
C810 C 0.95494 0.23821 0.04316 0.0
C811 C 0.97443 0.22781 0.0278 0.0
C812 C 0.9321 0.22284 0.04829 0.0
C813 C 0.93657 0.22655 0.0789 0.0
N814 N 0.95971 0.22873 0.03205 0.0
N815 N 0.94494 0.23424 0.06855 0.0
H816 H 0.23794 0.98005 0.22056 0.0
H817 H 0.19051 0.03677 0.26484 0.0
H818 H 0.21902 0.01709 0.19879 0.0
H819 H 0.22551 0.01068 0.287 0.0
H820 H 0.20182 0.03051 0.24046 0.0
H821 H 0.23481 0.99248 0.24505 0.0
C822 C 0.23323 0.9914 0.22095 0.0
C823 C 0.22883 -0.00377 0.20774 0.0
C824 C 0.20725 0.02643 0.25065 0.0
C825 C 0.22487 0.01028 0.23548 0.0
C826 C 0.20078 0.02998 0.26458 0.0
C827 C 0.2069 0.02397 0.27795 0.0
C828 C 0.21985 0.01666 0.25006 0.0
C829 C 0.2203 0.01536 0.27695 0.0
C830 C 0.23199 -0.004 0.23485 0.0
C831 C 0.22286 0.01097 0.20873 0.0
N832 N 0.22617 0.01168 0.26319 0.0
N833 N 0.22075 0.01737 0.2224 0.0
H834 H 0.29158 -0.00439 0.51064 0.0
H835 H 0.27454 0.93808 0.45454 0.0
H836 H 0.24665 0.97977 0.50725 0.0
H837 H 0.29996 0.97537 0.43614 0.0
H838 H 0.26593 0.95386 0.47528 0.0
H839 H 0.2957 0.9927 0.48372 0.0
C840 C 0.28206 0.99364 0.50404 0.0
C841 C 0.26863 0.98892 0.51112 0.0
C842 C 0.27329 0.95869 0.46665 0.0
C843 C 0.27392 0.98245 0.48088 0.0
C844 C 0.27836 0.94962 0.45495 0.0
C845 C 0.28797 0.95549 0.44375 0.0
C846 C 0.27821 0.97362 0.46745 0.0
C847 C 0.29252 0.97054 0.44468 0.0
C848 C 0.28472 0.99049 0.48874 0.0
C849 C 0.25729 0.98319 0.5022 0.0
N850 N 0.28781 0.97912 0.45657 0.0
N851 N 0.26032 0.97971 0.48762 0.0
H852 H 0.35411 0.04769 0.68223 0.0
H853 H 0.30485 0.11408 0.70852 0.0
H854 H 0.34998 0.08983 0.65755 0.0
H855 H 0.30351 0.06994 0.7291 0.0
H856 H 0.31266 0.10291 0.68468 0.0
H857 H 0.33001 0.05301 0.69503 0.0
C858 C 0.34792 0.05796 0.67936 0.0
C859 C 0.35396 0.06841 0.66896 0.0
C860 C 0.31017 0.0955 0.69422 0.0
C861 C 0.32652 0.07476 0.68367 0.0
C862 C 0.30528 0.10188 0.7078 0.0
C863 C 0.30541 0.09296 0.72103 0.0
C864 C 0.31439 0.08012 0.69417 0.0
C865 C 0.30478 0.0773 0.71928 0.0
C866 C 0.33412 0.06098 0.68657 0.0
C867 C 0.34562 0.08154 0.66555 0.0
N868 N 0.31043 0.07127 0.70632 0.0
N869 N 0.33245 0.0845 0.67312 0.0
H870 H 0.20786 0.02437 0.97946 0.0
H871 H 0.23694 0.08613 0.93047 0.0
H872 H 0.25153 0.04298 0.98528 0.0
H873 H 0.20125 0.05736 0.91665 0.0
H874 H 0.24652 0.06583 0.94687 0.0
H875 H 0.21089 0.02735 0.95224 0.0
C876 C 0.21853 0.02834 0.97494 0.0
C877 C 0.22855 0.03554 0.98432 0.0
C878 C 0.23674 0.06377 0.94009 0.0
C879 C 0.23202 0.03934 0.95378 0.0
C880 C 0.23114 0.07548 0.93099 0.0
C881 C 0.21814 0.07339 0.92263 0.0
C882 C 0.22903 0.05002 0.9411 0.0
C883 C 0.21118 0.05936 0.92324 0.0
C884 C 0.22016 0.03037 0.95934 0.0
C885 C 0.24275 0.03892 0.9781 0.0
N886 N 0.21653 0.04826 0.93258 0.0
N887 N 0.24373 0.0421 0.96307 0.0
H888 H 0.21621 0.23007 0.97447 0.0
H889 H 0.27183 0.21119 0.03813 0.0
H890 H 0.20742 0.24046 0.01859 0.0
H891 H 0.28296 0.20474 0.9936 0.0
H892 H 0.25048 0.22722 0.03056 0.0
H893 H 0.24283 0.22716 0.98005 0.0
C894 C 0.21991 0.23289 0.98568 0.0
C895 C 0.20995 0.23442 -0.00477 0.0
C896 C 0.25797 0.22277 0.02189 0.0
C897 C 0.24031 0.23169 0.00165 0.0
C898 C 0.27023 0.21374 0.02625 0.0
C899 C 0.27969 0.20719 0.0153 0.0
C900 C 0.25492 0.22491 0.00646 0.0
C901 C 0.27684 0.21031 0.0 0.0
C902 C 0.23512 0.23073 0.98895 0.0
C903 C 0.21525 0.23855 0.00928 0.0
N904 N 0.26452 0.2187 -0.00398 0.0
N905 N 0.23008 0.23632 0.01235 0.0
H906 H 0.67387 0.35419 0.05227 0.0
H907 H 0.7099 0.30942 0.11631 0.0
H908 H 0.65028 0.34632 0.0945 0.0
H909 H 0.72531 0.3065 0.07017 0.0
H910 H 0.68452 0.31519 0.10762 0.0
H911 H 0.68982 0.33204 0.05725 0.0
C912 C 0.67202 0.34763 0.06257 0.0
C913 C 0.66101 0.3521 0.07311 0.0
C914 C 0.69327 0.3127 0.09931 0.0
C915 C 0.67923 0.32675 0.07904 0.0
C916 C 0.70773 0.30906 0.10431 0.0
C917 C 0.71977 0.30869 0.09388 0.0
C918 C 0.69118 0.31583 0.08386 0.0
C919 C 0.71635 0.30761 0.07856 0.0
C920 C 0.681 0.33489 0.06536 0.0
C921 C 0.65883 0.34323 0.0862 0.0
N922 N 0.70247 0.31214 0.07389 0.0
N923 N 0.66812 0.33112 0.08898 0.0
H924 H 0.94176 0.46092 0.3084 0.0
H925 H -0.00494 0.50061 0.25563 0.0
H926 H 0.96566 0.43499 0.27457 0.0
H927 H 0.98782 0.51584 0.30068 0.0
H928 H 0.9907 0.47506 0.26343 0.0
H929 H 0.96101 0.4799 0.3067 0.0
C930 C 0.9513 0.45905 0.30081 0.0
C931 C 0.95201 0.44641 0.29148 0.0
C932 C 0.99061 0.48387 0.27176 0.0
C933 C 0.97431 0.46837 0.28942 0.0
C934 C -0.00799 0.49844 0.26735 0.0
C935 C 0.99311 0.51048 0.27738 0.0
C936 C 0.98412 0.48152 0.28617 0.0
C937 C 0.98921 0.507 0.29246 0.0
C938 C 0.96238 0.46991 0.29991 0.0
C939 C 0.96469 0.44459 0.28194 0.0
N940 N 0.98429 0.49298 0.29623 0.0
N941 N 0.97521 0.45567 0.28088 0.0
H942 H 0.81633 0.75324 0.50226 0.0
H943 H 0.73717 0.72677 0.53315 0.0
H944 H 0.80658 0.74265 0.54905 0.0
H945 H 0.74249 0.74711 0.4889 0.0
H946 H 0.7621 0.73564 0.53977 0.0
H947 H 0.78908 0.75545 0.49768 0.0
C948 C 0.80846 0.75193 0.51166 0.0
C949 C 0.81357 0.74739 0.52598 0.0
C950 C 0.75781 0.73843 0.52867 0.0
C951 C 0.78263 0.74953 0.52082 0.0
C952 C 0.74362 0.73327 0.5249 0.0
C953 C 0.738 0.73607 0.51043 0.0
C954 C 0.76654 0.74634 0.51782 0.0
C955 C 0.74664 0.74458 0.50011 0.0
C956 C 0.79292 0.75307 0.50904 0.0
C957 C 0.803 0.74584 0.53778 0.0
N958 N 0.76061 0.74929 0.50393 0.0
N959 N 0.78804 0.74662 0.53489 0.0
H960 H 0.03826 0.97571 0.25099 0.0
H961 H 0.08272 0.93591 0.1953 0.0
H962 H 0.0355 0.9889 0.20398 0.0
H963 H 0.06422 0.91091 0.23335 0.0
H964 H 0.06053 0.95236 0.19559 0.0
H965 H 0.04056 0.94941 0.24358 0.0
C966 C 0.03737 0.973 0.23915 0.0
C967 C 0.03741 0.98448 0.22807 0.0
C968 C 0.06102 0.94298 0.20358 0.0
C969 C 0.04084 0.95467 0.21949 0.0
C970 C 0.0738 0.93364 0.20348 0.0
C971 C 0.07561 0.92246 0.21472 0.0
C972 C 0.05023 0.9414 0.2153 0.0
C973 C 0.0635 0.91975 0.22479 0.0
C974 C 0.03879 0.95797 0.23487 0.0
C975 C 0.03601 0.98039 0.21291 0.0
N976 N 0.05152 0.92951 0.22519 0.0
N977 N 0.03852 0.96583 0.20898 0.0
H978 H 0.32168 0.8461 0.52795 0.0
H979 H 0.24164 0.81386 0.52444 0.0
H980 H 0.31194 0.80888 0.49925 0.0
H981 H 0.25676 0.8416 0.5605 0.0
H982 H 0.26777 0.80619 0.51921 0.0
H983 H 0.29884 0.84098 0.5427 0.0
C984 C 0.31473 0.83672 0.5249 0.0
C985 C 0.31852 0.82795 0.51241 0.0
C986 C 0.26536 0.81355 0.5286 0.0
C987 C 0.2923 0.82191 0.52918 0.0
C988 C 0.25038 0.81784 0.53171 0.0
C989 C 0.24724 0.82917 0.54226 0.0
C990 C 0.27699 0.82075 0.53614 0.0
C991 C 0.25887 0.83347 0.55169 0.0
C992 C 0.30175 0.83368 0.53338 0.0
C993 C 0.30922 0.81593 0.50881 0.0
N994 N 0.27334 0.82967 0.54808 0.0
N995 N 0.29636 0.81337 0.51704 0.0
H996 H 0.60814 0.55469 0.81793 0.0
H997 H 0.57659 0.50249 0.75809 0.0
H998 H 0.5824 0.57315 0.78087 0.0
H999 H 0.58644 0.48693 0.80325 0.0
H1000 H 0.57352 0.52824 0.76737 0.0
H1001 H 0.59674 0.53022 0.81421 0.0
C1002 C 0.5999 0.55364 0.80913 0.0
C1003 C 0.5964 0.56594 0.79958 0.0
C1004 C 0.57581 0.51915 0.77538 0.0
C1005 C 0.58342 0.53771 0.79501 0.0
C1006 C 0.57738 0.50438 0.77011 0.0
C1007 C 0.58209 0.4926 0.77988 0.0
C1008 C 0.57939 0.52215 0.79043 0.0
C1009 C 0.58295 0.49569 0.79531 0.0
C1010 C 0.5933 0.53965 0.80705 0.0
C1011 C 0.5855 0.56393 0.78845 0.0
N1012 N 0.58218 0.51023 0.80002 0.0
N1013 N 0.57968 0.54999 0.78621 0.0
H1014 H 0.75659 0.5438 0.8092 0.0
H1015 H 0.72688 0.48652 0.74982 0.0
H1016 H 0.7359 0.50178 0.82216 0.0
H1017 H 0.75648 0.52317 0.73776 0.0
H1018 H 0.73233 0.4902 0.77635 0.0
H1019 H 0.75933 0.53485 0.78326 0.0
C1020 C 0.75292 0.53255 0.80658 0.0
C1021 C 0.746 0.52351 0.81769 0.0
C1022 C 0.73789 0.49723 0.7679 0.0
C1023 C 0.74856 0.51337 0.78806 0.0
C1024 C 0.7348 0.49514 0.7527 0.0
C1025 C 0.741 0.50479 0.74154 0.0
C1026 C 0.74728 0.50903 0.772 0.0
C1027 C 0.75126 0.51565 0.746 0.0
C1028 C 0.75444 0.52744 0.7918 0.0
C1029 C 0.74133 0.50905 0.81383 0.0
N1030 N 0.75389 0.51763 0.76091 0.0
N1031 N 0.74243 0.50452 0.79924 0.0
H1032 H 0.76894 0.4562 0.98295 0.0
H1033 H 0.77685 0.46333 0.06993 0.0
H1034 H 0.78758 0.42277 0.01139 0.0
H1035 H 0.74829 0.49327 0.04379 0.0
H1036 H 0.78771 0.45344 0.0467 0.0
H1037 H 0.76796 0.47445 0.00167 0.0
C1038 C 0.77291 0.45273 0.99401 0.0
C1039 C 0.77867 0.43811 -0.00571 0.0
C1040 C 0.77946 0.46256 0.04594 0.0
C1041 C 0.77683 0.45838 0.01824 0.0
C1042 C 0.77345 0.46843 0.05927 0.0
C1043 C 0.76165 0.47911 0.05875 0.0
C1044 C 0.77372 0.46748 0.03195 0.0
C1045 C 0.75736 0.48498 0.04459 0.0
C1046 C 0.77254 0.46319 0.00365 0.0
C1047 C 0.78348 0.4341 0.00884 0.0
N1048 N 0.76323 0.47891 0.03168 0.0
N1049 N 0.78233 0.44408 0.0202 0.0
H1050 H 0.82348 0.48993 0.30619 0.0
H1051 H 0.83438 0.55878 0.25724 0.0
H1052 H 0.81901 0.53422 0.32516 0.0
H1053 H 0.81403 0.51966 0.23834 0.0
H1054 H 0.82547 0.55073 0.28231 0.0
H1055 H 0.81526 0.5002 0.28188 0.0
C1056 C 0.81997 0.5017 0.3054 0.0
C1057 C 0.82223 0.51137 0.31749 0.0
C1058 C 0.82252 0.54413 0.27265 0.0
C1059 C 0.81355 0.5233 0.28968 0.0
C1060 C 0.82767 0.5487 0.25836 0.0
C1061 C 0.825 0.53983 0.24579 0.0
C1062 C 0.81506 0.53033 0.27443 0.0
C1063 C 0.81631 0.52682 0.24779 0.0
C1064 C 0.81542 0.5076 0.29148 0.0
C1065 C 0.81758 0.52648 0.31599 0.0
N1066 N 0.812 0.52222 0.26194 0.0
N1067 N 0.81402 0.53215 0.30211 0.0
H1068 H 0.75398 0.60284 0.50104 0.0
H1069 H 0.81481 0.57907 0.55742 0.0
H1070 H 0.79226 0.57567 0.48708 0.0
H1071 H 0.76955 0.59118 0.57137 0.0
H1072 H 0.80536 0.57197 0.53272 0.0
H1073 H 0.75726 0.59372 0.52699 0.0
C1074 C 0.76302 0.59483 0.50346 0.0
C1075 C 0.77324 0.59051 0.49205 0.0
C1076 C 0.79739 0.57568 0.54134 0.0
C1077 C 0.77735 0.58022 0.52186 0.0
C1078 C 0.80279 0.57961 0.5555 0.0
C1079 C 0.79296 0.5859 0.56637 0.0
C1080 C 0.78219 0.57865 0.5379 0.0
C1081 C 0.77752 0.58641 0.56329 0.0
C1082 C 0.76485 0.58951 0.51828 0.0
C1083 C 0.78441 0.57964 0.49567 0.0
N1084 N 0.77268 0.58336 0.54919 0.0
N1085 N 0.78649 0.57524 0.51036 0.0
H1086 H 0.45505 0.07092 0.76877 0.0
H1087 H 0.45738 0.98822 0.79033 0.0
H1088 H 0.49586 0.04863 0.7534 0.0
H1089 H 0.42274 0.00614 0.76341 0.0
H1090 H 0.47399 0.0077 0.78426 0.0
H1091 H 0.44473 0.0466 0.77607 0.0
C1092 C 0.46213 0.06094 0.76756 0.0
C1093 C 0.47624 0.06175 0.76032 0.0
C1094 C 0.46285 0.00712 0.77952 0.0
C1095 C 0.46461 0.03383 0.76907 0.0
C1096 C 0.45368 -0.00534 0.78295 0.0
C1097 C 0.43881 -0.00563 0.77767 0.0
C1098 C 0.45695 0.0192 0.77087 0.0
C1099 C 0.43391 0.00615 0.76813 0.0
C1100 C 0.45617 0.04705 0.7716 0.0
C1101 C 0.48491 0.0484 0.75896 0.0
N1102 N 0.44284 0.01814 0.76522 0.0
N1103 N 0.47893 0.03483 0.76328 0.0
H1104 H 0.95897 0.29165 0.18348 0.0
H1105 H 0.91415 0.27477 0.11294 0.0
H1106 H 0.96106 0.31805 0.14223 0.0
H1107 H 0.91393 0.24911 0.15472 0.0
H1108 H 0.92184 0.29709 0.12673 0.0
H1109 H 0.9335 0.28417 0.17743 0.0
C1110 C 0.95381 0.29625 0.17335 0.0
C1111 C 0.96219 0.30504 0.16306 0.0
C1112 C 0.91966 0.28671 0.13298 0.0
C1113 C 0.93353 0.29573 0.15553 0.0
C1114 C 0.91534 0.27398 0.12508 0.0
C1115 C 0.91414 0.26002 0.13268 0.0
C1116 C 0.9229 0.28529 0.14846 0.0
C1117 C 0.91543 0.25957 0.14841 0.0
C1118 C 0.93926 0.29197 0.16985 0.0
C1119 C 0.95501 0.31093 0.15024 0.0
N1120 N 0.91998 0.27195 0.15575 0.0
N1121 N 0.94122 0.30574 0.14653 0.0
H1122 H 0.00223 0.66796 0.37614 0.0
H1123 H 0.99365 0.73251 0.42665 0.0
H1124 H 0.02027 0.67236 0.42064 0.0
H1125 H 0.97549 0.72801 0.38221 0.0
H1126 H 0.99266 0.70517 0.43035 0.0
H1127 H 0.98192 0.68047 0.38477 0.0
C1128 C 0.00104 0.6711 0.38788 0.0
C1129 C 0.01344 0.67061 0.39742 0.0
C1130 C 0.98863 0.71008 0.41984 0.0
C1131 C 0.99063 0.68537 0.40694 0.0
C1132 C 0.98945 0.72565 0.41767 0.0
C1133 C 0.98547 0.73224 0.4038 0.0
C1134 C 0.98447 0.701 0.40776 0.0
C1135 C 0.97937 0.72313 0.39278 0.0
C1136 C 0.99073 0.6782 0.39286 0.0
C1137 C 0.01119 0.67382 0.41268 0.0
N1138 N 0.97945 0.70787 0.39482 0.0
N1139 N -0.0014 0.68153 0.41698 0.0
H1140 H 0.56986 0.72121 0.70043 0.0
H1141 H 0.57188 0.76542 0.62634 0.0
H1142 H 0.54108 0.71321 0.66285 0.0
H1143 H 0.60383 0.77063 0.66186 0.0
H1144 H 0.5676 0.73951 0.63495 0.0
H1145 H 0.58926 0.73059 0.68285 0.0
C1146 C 0.56789 0.72095 0.68839 0.0
C1147 C 0.55383 0.71688 0.68299 0.0
C1148 C 0.5758 0.74612 0.64075 0.0
C1149 C 0.57537 0.72844 0.663 0.0
C1150 C 0.57813 0.76095 0.6359 0.0
C1151 C 0.58769 0.77022 0.64388 0.0
C1152 C 0.58262 0.74077 0.65408 0.0
C1153 C 0.59591 0.7639 0.65583 0.0
C1154 C 0.57892 0.72633 0.67833 0.0
C1155 C 0.55175 0.71657 0.66738 0.0
N1156 N 0.5929 0.74963 0.66084 0.0
N1157 N 0.56225 0.72273 0.65792 0.0
H1158 H 0.55032 0.29924 0.92568 0.0
H1159 H 0.51018 0.3581 0.90615 0.0
H1160 H 0.54004 0.33038 0.96139 0.0
H1161 H 0.54741 0.34675 0.87646 0.0
H1162 H 0.52679 0.35569 0.92765 0.0
H1163 H 0.55773 0.32029 0.90941 0.0
C1164 C 0.54952 0.3106 0.93001 0.0
C1165 C 0.54337 0.31334 0.94434 0.0
C1166 C 0.53161 0.3543 0.91643 0.0
C1167 C 0.55144 0.33745 0.9258 0.0
C1168 C 0.52201 0.35542 0.90422 0.0
C1169 C 0.52742 0.35172 0.88987 0.0
C1170 C 0.54626 0.34833 0.91421 0.0
C1171 C 0.54282 0.34883 0.88765 0.0
C1172 C 0.55418 0.32262 0.92091 0.0
C1173 C 0.54373 0.32804 0.94994 0.0
N1174 N 0.55175 0.34677 0.89984 0.0
N1175 N 0.54713 0.33972 0.94044 0.0
H1176 H 0.11112 0.93819 0.26551 0.0
H1177 H 0.18397 0.95607 0.2988 0.0
H1178 H 0.14644 0.90488 0.27202 0.0
H1179 H 0.14442 0.98487 0.2996 0.0
H1180 H 0.16774 0.93395 0.30104 0.0
H1181 H 0.11872 0.95079 0.28812 0.0
C1182 C 0.12031 0.93333 0.272 0.0
C1183 C 0.12851 0.92084 0.2667 0.0
C1184 C 0.16259 0.94511 0.30114 0.0
C1185 C 0.13797 0.93571 0.29219 0.0
C1186 C 0.17186 0.95768 0.29969 0.0
C1187 C 0.16527 0.97197 0.29751 0.0
C1188 C 0.14686 0.94717 0.29999 0.0
C1189 C 0.14974 0.97377 0.29989 0.0
C1190 C 0.12467 0.9405 0.285 0.0
C1191 C 0.1401 0.91477 0.27561 0.0
N1192 N 0.14096 0.96144 0.30066 0.0
N1193 N 0.14487 0.92261 0.2877 0.0
H1194 H 0.34038 0.87827 0.54609 0.0
H1195 H 0.3192 0.95696 0.52441 0.0
H1196 H 0.34963 0.90114 0.50375 0.0
H1197 H 0.30569 0.93203 0.5644 0.0
H1198 H 0.34318 0.94295 0.52404 0.0
H1199 H 0.34353 0.90214 0.55918 0.0
C1200 C 0.34351 0.88827 0.53963 0.0
C1201 C 0.34366 0.88823 0.52384 0.0
C1202 C 0.33524 0.94086 0.53324 0.0
C1203 C 0.34635 0.91534 0.53842 0.0
C1204 C 0.32152 0.94879 0.53336 0.0
C1205 C 0.31039 0.9452 0.54415 0.0
C1206 C 0.33737 0.92867 0.54344 0.0
C1207 C 0.31391 0.93477 0.55565 0.0
C1208 C 0.34542 0.90187 0.54707 0.0
C1209 C 0.34849 0.90111 0.51595 0.0
N1210 N 0.32697 0.92656 0.55478 0.0
N1211 N 0.34927 0.91436 0.5233 0.0
H1212 H 0.35524 0.10117 0.7821 0.0
H1213 H 0.43112 0.13215 0.76331 0.0
H1214 H 0.36485 0.14663 0.76772 0.0
H1215 H 0.42086 0.0859 0.77489 0.0
H1216 H 0.40923 0.14042 0.7781 0.0
H1217 H 0.37919 0.09966 0.79498 0.0
C1218 C 0.36204 0.1112 0.78245 0.0
C1219 C 0.35896 0.12358 0.77284 0.0
C1220 C 0.41193 0.12846 0.77775 0.0
C1221 C 0.3862 0.12189 0.78708 0.0
C1222 C 0.42437 0.12373 0.76914 0.0
C1223 C 0.42742 0.1083 0.76732 0.0
C1224 C 0.40221 0.11769 0.78423 0.0
C1225 C 0.41852 0.09791 0.77546 0.0
C1226 C 0.3758 0.1103 0.78975 0.0
C1227 C 0.36753 0.13649 0.7742 0.0
N1228 N 0.40611 0.10277 0.78328 0.0
N1229 N 0.38117 0.13519 0.78083 0.0
H1230 H 0.19759 0.10239 0.03705 0.0
H1231 H 0.17053 0.15637 -0.00507 0.0
H1232 H 0.16126 0.09142 0.00779 0.0
H1233 H 0.17807 0.16834 0.04111 0.0
H1234 H 0.1583 0.13361 0.00353 0.0
H1235 H 0.18325 0.12417 0.0459 0.0
C1236 C 0.1863 0.10435 0.03288 0.0
C1237 C 0.18089 0.09583 0.02102 0.0
C1238 C 0.16215 0.14131 0.01197 0.0
C1239 C 0.16464 0.12091 0.03067 0.0
C1240 C 0.16944 0.15418 0.00698 0.0
C1241 C 0.1762 0.16352 0.01737 0.0
C1242 C 0.16267 0.1372 0.02735 0.0
C1243 C 0.17372 0.16079 0.03281 0.0
C1244 C 0.17796 0.11668 0.0381 0.0
C1245 C 0.1661 0.09839 0.01632 0.0
N1246 N 0.16767 0.14743 0.03742 0.0
N1247 N 0.15851 0.111 0.02094 0.0
H1248 H 0.10252 0.02732 0.21141 0.0
H1249 H 0.15952 -0.00607 0.17058 0.0
H1250 H 0.09195 0.01127 0.16728 0.0
H1251 H 0.17072 0.03416 0.19427 0.0
H1252 H 0.13535 0.00539 0.16393 0.0
H1253 H 0.12567 0.03796 0.20124 0.0
C1254 C 0.10506 0.02628 0.19945 0.0
C1255 C 0.09616 0.01745 0.19032 0.0
C1256 C 0.14317 0.01196 0.17026 0.0
C1257 C 0.1227 0.02905 0.17876 0.0
C1258 C 0.15682 0.00525 0.17434 0.0
C1259 C 0.16664 0.01285 0.18366 0.0
C1260 C 0.13895 0.026 0.17631 0.0
C1261 C 0.16306 0.02774 0.18761 0.0
C1262 C 0.11814 0.0326 0.19355 0.0
C1263 C 0.09923 0.01717 0.1748 0.0
N1264 N 0.1492 0.03368 0.1844 0.0
N1265 N 0.11267 0.02241 0.16951 0.0
H1266 H 0.2377 0.92175 0.43503 0.0
H1267 H 0.21694 0.85067 0.4788 0.0
H1268 H 0.25847 0.87756 0.43218 0.0
H1269 H 0.20936 0.89722 0.49036 0.0
H1270 H 0.21774 0.85809 0.45196 0.0
H1271 H 0.21394 0.91007 0.44257 0.0
C1272 C 0.23712 0.90955 0.43557 0.0
C1273 C 0.25021 0.90053 0.43427 0.0
C1274 C 0.21526 0.8666 0.46033 0.0
C1275 C 0.22338 0.88729 0.44293 0.0
C1276 C 0.21503 0.8624 0.47559 0.0
C1277 C 0.21387 0.87353 0.48656 0.0
C1278 C 0.21469 0.88202 0.45628 0.0
C1279 C 0.211 0.88848 0.48207 0.0
C1280 C 0.22351 0.90287 0.43966 0.0
C1281 C 0.24877 0.88486 0.43426 0.0
N1282 N 0.21175 0.89235 0.46721 0.0
N1283 N 0.2356 0.87866 0.43891 0.0
H1284 H 0.37855 0.03042 0.67856 0.0
H1285 H 0.41415 0.97165 0.72673 0.0
H1286 H 0.4192 0.00649 0.66551 0.0
H1287 H 0.37053 0.99196 0.73553 0.0
H1288 H 0.41109 0.97703 0.69974 0.0
H1289 H 0.37042 0.00848 0.69321 0.0
C1290 C 0.38569 0.02036 0.67872 0.0
C1291 C 0.39999 0.02043 0.67182 0.0
C1292 C 0.40192 0.97985 0.70746 0.0
C1293 C 0.39097 -0.00461 0.68869 0.0
C1294 C 0.40371 0.97678 0.72288 0.0
C1295 C 0.39284 0.98199 0.7333 0.0
C1296 C 0.38935 0.98842 0.70264 0.0
C1297 C 0.37942 0.98835 0.72782 0.0
C1298 C 0.38099 0.00776 0.68694 0.0
C1299 C 0.40851 0.00705 0.67157 0.0
N1300 N 0.37817 0.99168 0.71287 0.0
N1301 N 0.40405 -0.00491 0.68032 0.0
H1302 H 0.27281 0.11409 0.92201 0.0
H1303 H 0.27131 0.17298 0.97684 0.0
H1304 H 0.23914 0.14958 0.92077 0.0
H1305 H 0.31387 0.15269 0.96356 0.0
H1306 H 0.26229 0.16998 0.95131 0.0
H1307 H 0.2916 0.13257 0.92892 0.0
C1308 C 0.26953 0.12588 0.92281 0.0
C1309 C 0.2544 0.13033 0.92198 0.0
C1310 C 0.27372 0.16639 0.95379 0.0
C1311 C 0.27531 0.15114 0.93052 0.0
C1312 C 0.27876 0.16785 0.9685 0.0
C1313 C 0.29304 0.16228 0.97251 0.0
C1314 C 0.28276 0.15862 0.94317 0.0
C1315 C 0.30252 0.15651 0.96106 0.0
C1316 C 0.28022 0.13649 0.92665 0.0
C1317 C 0.25067 0.14573 0.9223 0.0
N1318 N 0.29704 0.15434 0.94701 0.0
N1319 N 0.26098 0.15562 0.92709 0.0
H1320 H 0.74901 0.3632 0.14349 0.0
H1321 H 0.78366 0.43282 0.10727 0.0
H1322 H 0.7904 0.36288 0.11751 0.0
H1323 H 0.73826 0.42344 0.12214 0.0
H1324 H 0.79282 0.4115 0.1232 0.0
H1325 H 0.75478 0.38835 0.15223 0.0
C1326 C 0.75971 0.36813 0.14025 0.0
C1327 C 0.76876 0.36167 0.12898 0.0
C1328 C 0.78091 0.41436 0.12318 0.0
C1329 C 0.77446 0.39056 0.13748 0.0
C1330 C 0.77569 0.42622 0.11389 0.0
C1331 C 0.7602 0.42943 0.11323 0.0
C1332 C 0.77048 0.40579 0.13168 0.0
C1333 C 0.75026 0.42103 0.12223 0.0
C1334 C 0.76302 0.38253 0.14517 0.0
C1335 C 0.78269 0.36815 0.12551 0.0
N1336 N 0.75555 0.40949 0.13092 0.0
N1337 N 0.78494 0.3827 0.12926 0.0
H1338 H 0.93711 0.56584 0.31267 0.0
H1339 H 0.90025 0.50554 0.36082 0.0
H1340 H 0.95318 0.52022 0.32058 0.0
H1341 H 0.88109 0.54937 0.351 0.0
H1342 H 0.92528 0.51615 0.35983 0.0
H1343 H 0.92267 0.5645 0.33637 0.0
C1344 C 0.9378 0.55563 0.31955 0.0
C1345 C 0.94595 0.54297 0.31447 0.0
C1346 C 0.91564 0.52372 0.35861 0.0
C1347 C 0.92963 0.5414 0.34173 0.0
C1348 C 0.9013 0.51766 0.35938 0.0
C1349 C 0.8891 0.52646 0.35436 0.0
C1350 C 0.91722 0.53846 0.35273 0.0
C1351 C 0.89064 0.54208 0.35363 0.0
C1352 C 0.92967 0.55491 0.33317 0.0
C1353 C 0.94662 0.53008 0.32388 0.0
N1354 N 0.90473 0.54765 0.35199 0.0
N1355 N 0.93837 0.52954 0.33694 0.0
H1356 H 0.74274 0.62844 0.59282 0.0
H1357 H 0.74183 0.70257 0.54974 0.0
H1358 H 0.77303 0.66484 0.60054 0.0
H1359 H 0.70745 0.66917 0.54623 0.0
H1360 H 0.74691 0.69364 0.5754 0.0
H1361 H 0.7234 0.64683 0.585 0.0
C1362 C 0.7451 0.64038 0.59334 0.0
C1363 C 0.75956 0.64523 0.59677 0.0
C1364 C 0.73806 0.68834 0.56921 0.0
C1365 C 0.73806 0.66612 0.58689 0.0
C1366 C 0.73531 0.69336 0.5545 0.0
C1367 C 0.72478 0.68604 0.54577 0.0
C1368 C 0.73071 0.67545 0.57491 0.0
C1369 C 0.71614 0.67461 0.55251 0.0
C1370 C 0.73409 0.6509 0.58885 0.0
C1371 C 0.76206 0.66072 0.59759 0.0
N1372 N 0.71959 0.66934 0.56659 0.0
N1373 N 0.75158 0.67065 0.59217 0.0
H1374 H 0.87496 0.42479 0.24515 0.0
H1375 H 0.89401 0.50338 0.22801 0.0
H1376 H 0.91875 0.4445 0.2488 0.0
H1377 H 0.85121 0.4836 0.21869 0.0
H1378 H 0.90662 0.47986 0.22096 0.0
H1379 H 0.86999 0.44143 0.22322 0.0
C1380 C 0.88352 0.43256 0.24122 0.0
C1381 C 0.8969 0.43399 0.24912 0.0
C1382 C 0.89446 0.48066 0.22015 0.0
C1383 C 0.89125 0.45324 0.22465 0.0
C1384 C 0.88728 0.49406 0.22437 0.0
C1385 C 0.87153 0.49481 0.22525 0.0
C1386 C 0.88569 0.46777 0.21814 0.0
C1387 C 0.86338 0.48298 0.21925 0.0
C1388 C 0.88084 0.44191 0.22861 0.0
C1389 C 0.90801 0.44361 0.24327 0.0
N1390 N 0.87053 0.46963 0.21648 0.0
N1391 N 0.9048 0.45316 0.23164 0.0
H1392 H 0.69913 0.56688 0.71833 0.0
H1393 H 0.62709 0.57813 0.76199 0.0
H1394 H 0.66375 0.53424 0.72182 0.0
H1395 H 0.65768 0.61426 0.75172 0.0
H1396 H 0.63517 0.56556 0.73908 0.0
H1397 H 0.68028 0.58717 0.72083 0.0
C1398 C 0.68734 0.56403 0.71954 0.0
C1399 C 0.68298 0.54895 0.72123 0.0
C1400 C 0.6398 0.57651 0.74138 0.0
C1401 C 0.66147 0.57191 0.72392 0.0
C1402 C 0.63515 0.58367 0.7545 0.0
C1403 C 0.64197 0.59702 0.75873 0.0
C1404 C 0.65184 0.58244 0.73278 0.0
C1405 C 0.65242 0.60377 0.74886 0.0
C1406 C 0.67655 0.5756 0.72073 0.0
C1407 C 0.66759 0.54577 0.72173 0.0
N1408 N 0.65732 0.59621 0.73642 0.0
N1409 N 0.65737 0.55718 0.72339 0.0
H1410 H 0.43821 0.81023 0.64762 0.0
H1411 H 0.50803 0.83649 0.68217 0.0
H1412 H 0.48153 0.81278 0.62511 0.0
H1413 H 0.46407 0.84223 0.70266 0.0
H1414 H 0.49716 0.84058 0.65741 0.0
H1415 H 0.44479 0.832 0.66281 0.0
C1416 C 0.4489 0.81569 0.64555 0.0
C1417 C 0.45959 0.80942 0.63558 0.0
C1418 C 0.48984 0.84157 0.66727 0.0
C1419 C 0.46734 0.83404 0.65297 0.0
C1420 C 0.49614 0.83939 0.68147 0.0
C1421 C 0.48672 0.83816 0.69428 0.0
C1422 C 0.47403 0.84165 0.66606 0.0
C1423 C 0.47155 0.84239 0.69287 0.0
C1424 C 0.45268 0.82815 0.65419 0.0
C1425 C 0.47319 0.81699 0.63314 0.0
N1426 N 0.46547 0.8433 0.67888 0.0
N1427 N 0.47681 0.82868 0.64199 0.0
H1428 H 0.43334 0.26412 0.87523 0.0
H1429 H 0.49316 0.20964 0.89327 0.0
H1430 H 0.42852 0.23095 0.91101 0.0
H1431 H 0.49002 0.23167 0.84969 0.0
H1432 H 0.4656 0.20951 0.89514 0.0
H1433 H 0.4477 0.24583 0.86038 0.0
C1434 C 0.43485 0.25273 0.87967 0.0
C1435 C 0.43026 0.24904 0.89444 0.0
C1436 C 0.47087 0.21412 0.88499 0.0
C1437 C 0.44748 0.22844 0.87811 0.0
C1438 C 0.4866 0.21436 0.88407 0.0
C1439 C 0.49369 0.22151 0.87175 0.0
C1440 C 0.46236 0.22177 0.87385 0.0
C1441 C 0.48486 0.22677 0.85974 0.0
C1442 C 0.44306 0.24223 0.87122 0.0
C1443 C 0.43232 0.23422 0.89976 0.0
N1444 N 0.46961 0.22721 0.86126 0.0
N1445 N 0.44121 0.22451 0.89175 0.0
H1446 H 0.02959 0.20824 0.09635 0.0
H1447 H 0.00174 0.16473 0.16367 0.0
H1448 H 0.01528 0.16209 0.09423 0.0
H1449 H 0.02807 0.20475 0.16803 0.0
H1450 H 0.01365 0.16013 0.13921 0.0
H1451 H 0.03811 0.20367 0.12187 0.0
C1452 C 0.02893 0.19686 0.101 0.0
C1453 C 0.02097 0.18567 0.09356 0.0
C1454 C 0.01716 0.16978 0.14554 0.0
C1455 C 0.03042 0.18049 0.12291 0.0
C1456 C 0.01018 0.1725 0.15943 0.0
C1457 C 0.01355 0.18544 0.16748 0.0
C1458 C 0.02738 0.18028 0.13945 0.0
C1459 C 0.02478 0.19498 0.16178 0.0
C1460 C 0.03381 0.19427 0.11568 0.0
C1461 C 0.02071 0.17117 0.09995 0.0
N1462 N 0.03112 0.19237 0.14792 0.0
N1463 N 0.02504 0.16905 0.1145 0.0
H1464 H 0.1089 0.78293 0.43553 0.0
H1465 H 0.12761 0.73376 0.36833 0.0
H1466 H 0.10311 0.73508 0.43103 0.0
H1467 H 0.12392 0.78236 0.36829 0.0
H1468 H 0.13546 0.73413 0.39459 0.0
H1469 H 0.12941 0.78193 0.41656 0.0
C1470 C 0.11235 0.77214 0.43092 0.0
C1471 C 0.10399 0.75917 0.43417 0.0
C1472 C 0.13345 0.74478 0.38869 0.0
C1473 C 0.12703 0.75796 0.41255 0.0
C1474 C 0.1289 0.74455 0.37369 0.0
C1475 C 0.12399 0.75797 0.36656 0.0
C1476 C 0.13234 0.7584 0.3966 0.0
C1477 C 0.12669 0.77165 0.37372 0.0
C1478 C 0.12408 0.77154 0.42017 0.0
C1479 C 0.109 0.74541 0.42829 0.0
N1480 N 0.13011 0.77151 0.38861 0.0
N1481 N 0.11999 0.7452 0.41749 0.0
H1482 H 0.70263 0.49138 0.80517 0.0
H1483 H 0.62883 0.45872 0.82535 0.0
H1484 H 0.68623 0.49294 0.85121 0.0
H1485 H 0.65618 0.44116 0.78886 0.0
H1486 H 0.65168 0.46434 0.83903 0.0
H1487 H 0.68874 0.46825 0.80168 0.0
C1488 C 0.69609 0.48677 0.81456 0.0
C1489 C 0.6951 0.49429 0.82831 0.0
C1490 C 0.65276 0.45872 0.8283 0.0
C1491 C 0.67895 0.4679 0.82441 0.0
C1492 C 0.63968 0.45543 0.82053 0.0
C1493 C 0.64076 0.45004 0.80577 0.0
C1494 C 0.66677 0.45737 0.82075 0.0
C1495 C 0.65496 0.44571 0.8001 0.0
C1496 C 0.68833 0.47342 0.81267 0.0
C1497 C 0.68693 0.48761 0.8403 0.0
N1498 N 0.66751 0.45006 0.80733 0.0
N1499 N 0.67876 0.47502 0.83795 0.0
H1500 H 0.66447 0.3786 0.0106 0.0
H1501 H 0.73199 0.41758 -0.00516 0.0
H1502 H 0.66976 0.425 0.02274 0.0
H1503 H 0.71815 0.38357 0.96583 0.0
H1504 H 0.70583 0.42433 -0.00075 0.0
H1505 H 0.67683 0.38349 0.98895 0.0
C1506 C 0.668 0.39 0.00792 0.0
C1507 C 0.66747 0.40111 0.01892 0.0
C1508 C 0.7078 0.41542 0.99344 0.0
C1509 C 0.68152 0.4068 0.99427 0.0
C1510 C 0.7228 0.41144 0.99111 0.0
C1511 C 0.72674 0.39958 0.98158 0.0
C1512 C 0.69652 0.40696 0.98676 0.0
C1513 C 0.71538 0.3925 0.97364 0.0
C1514 C 0.67524 0.39303 -0.00586 0.0
C1515 C 0.67121 0.41589 0.01482 0.0
N1516 N 0.70063 0.39597 0.97678 0.0
N1517 N 0.67874 0.41845 0.00161 0.0
H1518 H 0.8546 0.68467 0.49378 0.0
H1519 H 0.808 0.62833 0.47053 0.0
H1520 H 0.80896 0.7006 0.48734 0.0
H1521 H 0.81074 0.65092 0.42708 0.0
H1522 H 0.82227 0.64855 0.48136 0.0
H1523 H 0.8518 0.66755 0.47236 0.0
C1524 C 0.8442 0.68491 0.48754 0.0
C1525 C 0.83178 0.69357 0.49254 0.0
C1526 C 0.82055 0.64859 0.46926 0.0
C1527 C 0.82881 0.67472 0.46801 0.0
C1528 C 0.81261 0.63696 0.46303 0.0
C1529 C 0.80871 0.63771 0.44779 0.0
C1530 C 0.82469 0.661 0.46022 0.0
C1531 C 0.81398 0.64981 0.43879 0.0
C1532 C 0.8427 0.67533 0.47528 0.0
C1533 C 0.8186 0.69368 0.48405 0.0
N1534 N 0.82143 0.66131 0.44524 0.0
N1535 N 0.81735 0.68415 0.47232 0.0
H1536 H 0.037 0.32335 0.12175 0.0
H1537 H 0.00158 0.25072 0.11294 0.0
H1538 H 0.04239 0.29185 0.15876 0.0
H1539 H 0.03907 0.25468 0.08137 0.0
H1540 H 0.01272 0.2706 0.12807 0.0
H1541 H 0.03802 0.30227 0.10418 0.0
C1542 C 0.03932 0.31207 0.12615 0.0
C1543 C 0.03808 0.30907 0.14173 0.0
C1544 C 0.01848 0.26688 0.11787 0.0
C1545 C 0.03878 0.28528 0.12208 0.0
C1546 C 0.01211 0.25567 0.10922 0.0
C1547 C 0.01952 0.25079 0.09603 0.0
C1548 C 0.0322 0.2733 0.11319 0.0
C1549 C 0.03304 0.25791 0.09157 0.0
C1550 C 0.03949 0.30003 0.11614 0.0
C1551 C 0.0421 0.29445 0.14677 0.0
N1552 N 0.03893 0.26887 0.10011 0.0
N1553 N 0.04095 0.28282 0.1371 0.0
H1554 H 0.05061 0.79564 0.33699 0.0
H1555 H 0.97552 0.76887 0.37211 0.0
H1556 H 0.04094 0.7529 0.35894 0.0
H1557 H 0.98936 0.81518 0.37314 0.0
H1558 H -0.00677 0.76336 0.35444 0.0
H1559 H 0.02377 0.80293 0.33988 0.0
C1560 C 0.04285 0.78779 0.3423 0.0
C1561 C 0.048 0.77374 0.34791 0.0
C1562 C 0.99431 0.7749 0.35797 0.0
C1563 C 0.0175 0.78166 0.35053 0.0
C1564 C 0.98239 0.77807 0.36788 0.0
C1565 C 0.98118 0.79236 0.37429 0.0
C1566 C 0.00193 0.78613 0.35465 0.0
C1567 C 0.9903 0.80393 0.36859 0.0
C1568 C 0.02759 0.79188 0.34378 0.0
C1569 C 0.03751 0.76393 0.35465 0.0
N1570 N -0.00081 0.80048 0.35933 0.0
N1571 N 0.02279 0.76808 0.35575 0.0
H1572 H 0.4756 0.7231 0.69071 0.0
H1573 H 0.42384 0.72454 0.63791 0.0
H1574 H 0.4813 0.67573 0.68149 0.0
H1575 H 0.46903 0.72778 0.61987 0.0
H1576 H 0.43238 0.70422 0.65501 0.0
H1577 H 0.4599 0.726 0.6686 0.0
C1578 C 0.47265 0.71308 0.68462 0.0
C1579 C 0.47971 0.69916 0.68781 0.0
C1580 C 0.44021 0.70876 0.64665 0.0
C1581 C 0.46173 0.7024 0.66267 0.0
C1582 C 0.43534 0.72032 0.63688 0.0
C1583 C 0.44587 0.72804 0.62787 0.0
C1584 C 0.45568 0.70555 0.64766 0.0
C1585 C 0.46064 0.7222 0.62691 0.0
C1586 C 0.46392 0.71481 0.67189 0.0
C1587 C 0.47597 0.68661 0.67928 0.0
N1588 N 0.46534 0.71177 0.63728 0.0
N1589 N 0.46743 0.68856 0.6667 0.0
H1590 H 0.57535 0.25862 0.93965 0.0
H1591 H 0.54108 0.19599 0.89831 0.0
H1592 H 0.5499 0.22417 0.963 0.0
H1593 H 0.58157 0.21671 0.88114 0.0
H1594 H 0.54837 0.20193 0.92395 0.0
H1595 H 0.58336 0.24014 0.92084 0.0
C1596 C 0.57212 0.24695 0.94123 0.0
C1597 C 0.56173 0.24285 0.95257 0.0
C1598 C 0.55604 0.20465 0.9147 0.0
C1599 C 0.57025 0.22192 0.93097 0.0
C1600 C 0.55185 0.20122 0.90008 0.0
C1601 C 0.56072 0.20605 0.88779 0.0
C1602 C 0.56897 0.21331 0.91689 0.0
C1603 C 0.57442 0.21301 0.89048 0.0
C1604 C 0.57659 0.23639 0.93044 0.0
C1605 C 0.55772 0.2277 0.95414 0.0
N1606 N 0.57801 0.21677 0.90477 0.0
N1607 N 0.56163 0.21783 0.94319 0.0
H1608 H 0.11389 0.70419 0.4422 0.0
H1609 H 0.05472 0.64898 0.43928 0.0
H1610 H 0.08223 0.69719 0.4789 0.0
H1611 H 0.09528 0.64515 0.41227 0.0
H1612 H 0.06939 0.65847 0.45996 0.0
H1613 H 0.11335 0.67721 0.43689 0.0
C1614 C 0.10732 0.6968 0.44952 0.0
C1615 C 0.09781 0.70277 0.46074 0.0
C1616 C 0.07531 0.65493 0.44979 0.0
C1617 C 0.09655 0.67219 0.45444 0.0
C1618 C 0.06688 0.64927 0.43805 0.0
C1619 C 0.07383 0.64684 0.42399 0.0
C1620 C 0.09046 0.65879 0.44696 0.0
C1621 C 0.08956 0.64735 0.42293 0.0
C1622 C 0.10696 0.68138 0.44652 0.0
C1623 C 0.08947 0.69289 0.46994 0.0
N1624 N 0.09733 0.65394 0.43402 0.0
N1625 N 0.0887 0.6781 0.46634 0.0
H1626 H 0.60917 0.81859 0.65441 0.0
H1627 H 0.5393 0.85954 0.68444 0.0
H1628 H 0.59146 0.85955 0.63412 0.0
H1629 H 0.56358 0.82552 0.71005 0.0
H1630 H 0.5623 0.86476 0.66979 0.0
H1631 H 0.59833 0.82606 0.67868 0.0
C1632 C 0.60362 0.82955 0.6553 0.0
C1633 C 0.60081 0.83838 0.64238 0.0
C1634 C 0.56278 0.85645 0.67889 0.0
C1635 C 0.58783 0.84668 0.66972 0.0
C1636 C 0.54962 0.85344 0.68715 0.0
C1637 C 0.54961 0.84176 0.69797 0.0
C1638 C 0.57584 0.84759 0.68148 0.0
C1639 C 0.56316 0.83425 0.70133 0.0
C1640 C 0.59731 0.83379 0.66912 0.0
C1641 C 0.59351 0.85237 0.64392 0.0
N1642 N 0.57573 0.83712 0.69293 0.0
N1643 N 0.58688 0.85596 0.65732 0.0
H1644 H 0.42841 0.32606 0.91429 0.0
H1645 H 0.45054 0.38237 0.87117 0.0
H1646 H 0.38978 0.32165 0.88597 0.0
H1647 H 0.45623 0.34023 0.8481 0.0
H1648 H 0.42573 0.37418 0.88035 0.0
H1649 H 0.43811 0.3454 0.89715 0.0
C1650 C 0.4214 0.33003 0.90507 0.0
C1651 C 0.40822 0.32249 0.90155 0.0
C1652 C 0.43203 0.36715 0.8725 0.0
C1653 C 0.41923 0.34451 0.88197 0.0
C1654 C 0.44614 0.37182 0.86728 0.0
C1655 C 0.45531 0.36186 0.85907 0.0
C1656 C 0.42764 0.3523 0.86997 0.0
C1657 C 0.44934 0.34817 0.85448 0.0
C1658 C 0.42704 0.3409 0.89519 0.0
C1659 C 0.39991 0.32744 0.88902 0.0
N1660 N 0.43606 0.34347 0.86052 0.0
N1661 N 0.4058 0.33794 0.87928 0.0
H1662 H 0.91898 0.18341 0.1251 0.0
H1663 H 0.93428 0.17571 0.2093 0.0
H1664 H 0.88887 0.19863 0.16049 0.0
H1665 H 0.96348 0.1582 0.17422 0.0
H1666 H 0.91285 0.1737 0.19256 0.0
H1667 H 0.93 0.1649 0.14253 0.0
C1668 C 0.91417 0.18226 0.13639 0.0
C1669 C 0.90315 0.19253 0.14152 0.0
C1670 C 0.92383 0.16979 0.18862 0.0
C1671 C 0.91601 0.17184 0.16169 0.0
C1672 C 0.93602 0.17084 0.19825 0.0
C1673 C 0.95058 0.16743 0.19292 0.0
C1674 C 0.92648 0.16608 0.17342 0.0
C1675 C 0.95236 0.1611 0.17861 0.0
C1676 C 0.92054 0.17177 0.1464 0.0
C1677 C 0.89744 0.19089 0.15624 0.0
N1678 N 0.94052 0.16115 0.1691 0.0
N1679 N 0.90417 0.18094 0.16595 0.0
H1680 H 0.09283 0.04065 0.25015 0.0
H1681 H 0.13383 0.00864 0.32025 0.0
H1682 H 0.08395 -0.00185 0.27289 0.0
H1683 H 0.14409 0.05117 0.29858 0.0
H1684 H 0.10821 0.01078 0.31084 0.0
H1685 H 0.10514 0.0493 0.27295 0.0
C1686 C 0.09329 0.03322 0.25999 0.0
C1687 C 0.08767 0.01851 0.25948 0.0
C1688 C 0.11586 0.01997 0.30855 0.0
C1689 C 0.10157 0.02837 0.28566 0.0
C1690 C 0.13044 0.01889 0.31425 0.0
C1691 C 0.14123 0.02931 0.30929 0.0
C1692 C 0.11249 0.03134 0.29774 0.0
C1693 C 0.13615 0.04252 0.30194 0.0
C1694 C 0.1002 0.0382 0.27306 0.0
C1695 C 0.08843 0.00944 0.27262 0.0
N1696 N 0.12232 0.04285 0.29564 0.0
N1697 N 0.09542 0.01443 0.28505 0.0
H1698 H 0.25998 0.93267 0.55203 0.0
H1699 H 0.1849 0.90098 0.5574 0.0
H1700 H 0.22638 0.96045 0.57437 0.0
H1701 H 0.22267 0.87245 0.56969 0.0
H1702 H 0.19801 0.9227 0.56711 0.0
H1703 H 0.24622 0.91019 0.56008 0.0
C1704 C 0.24968 0.93397 0.55867 0.0
C1705 C 0.24402 0.94831 0.56226 0.0
C1706 C 0.20311 0.91157 0.56841 0.0
C1707 C 0.22826 0.92279 0.57145 0.0
C1708 C 0.19552 0.89913 0.56307 0.0
C1709 C 0.20283 0.885 0.5626 0.0
C1710 C 0.21819 0.90977 0.57273 0.0
C1711 C 0.21671 0.88322 0.56982 0.0
C1712 C 0.24199 0.92118 0.56349 0.0
C1713 C 0.23088 0.9495 0.57121 0.0
N1714 N 0.22432 0.89562 0.57391 0.0
N1715 N 0.22314 0.93686 0.57515 0.0
H1716 H 0.34471 0.05951 0.78804 0.0
H1717 H 0.37102 0.97783 0.76918 0.0
H1718 H 0.35818 0.0446 0.74359 0.0
H1719 H 0.37273 -0.00563 0.8135 0.0
H1720 H 0.3577 -0.00213 0.76015 0.0
H1721 H 0.34757 0.03358 0.79758 0.0
C1722 C 0.3483 0.05081 0.78026 0.0
C1723 C 0.3514 0.05435 0.76499 0.0
C1724 C 0.36054 -0.00312 0.77197 0.0
C1725 C 0.35438 0.02446 0.77587 0.0
C1726 C 0.36771 0.98642 0.77719 0.0
C1727 C 0.37319 0.98582 0.79196 0.0
C1728 C 0.3581 0.00903 0.78177 0.0
C1729 C 0.36893 -0.00541 0.80194 0.0
C1730 C 0.3498 0.03596 0.78572 0.0
C1731 C 0.35587 0.04249 0.75548 0.0
N1732 N 0.36169 0.00718 0.7966 0.0
N1733 N 0.35727 0.0281 0.76108 0.0
H1734 H 0.29823 0.14709 0.0554 0.0
H1735 H 0.26891 0.09158 -0.00314 0.0
H1736 H 0.32422 0.13376 0.01605 0.0
H1737 H 0.25025 0.0937 0.04209 0.0
H1738 H 0.29175 0.10345 0.00558 0.0
H1739 H 0.28362 0.12408 0.05359 0.0
C1740 C 0.3012 0.13906 0.04671 0.0
C1741 C 0.31219 0.1425 0.03566 0.0
C1742 C 0.28276 0.10116 0.01368 0.0
C1743 C 0.29522 0.11654 0.03317 0.0
C1744 C 0.26966 0.09455 0.00864 0.0
C1745 C 0.25751 0.09219 0.01867 0.0
C1746 C 0.28351 0.10586 0.02873 0.0
C1747 C 0.25925 0.0957 0.03392 0.0
C1748 C 0.29282 0.12596 0.04562 0.0
C1749 C 0.31569 0.1317 0.02469 0.0
N1750 N 0.27186 0.10272 0.03843 0.0
N1751 N 0.30691 0.11942 0.02344 0.0
H1752 H 0.20623 0.93671 0.17463 0.0
H1753 H 0.12257 0.91863 0.18557 0.0
H1754 H 0.17078 0.96779 0.16133 0.0
H1755 H 0.158 0.88494 0.18795 0.0
H1756 H 0.13884 0.93458 0.16999 0.0
H1757 H 0.18871 0.9159 0.1729 0.0
C1758 C 0.19486 0.93906 0.17087 0.0
C1759 C 0.18988 0.95395 0.16829 0.0
C1760 C 0.14287 0.9234 0.17322 0.0
C1761 C 0.16956 0.93031 0.16685 0.0
C1762 C 0.13346 0.91415 0.18194 0.0
C1763 C 0.13914 0.90062 0.18824 0.0
C1764 C 0.15796 0.9189 0.17072 0.0
C1765 C 0.15335 0.89542 0.18343 0.0
C1766 C 0.18481 0.92719 0.16991 0.0
C1767 C 0.17505 0.95644 0.16344 0.0
N1768 N 0.16247 0.90477 0.17526 0.0
N1769 N 0.16526 0.94478 0.16332 0.0
H1770 H 0.33795 0.92038 0.41749 0.0
H1771 H 0.34102 0.8429 0.4492 0.0
H1772 H 0.31329 0.88295 0.40085 0.0
H1773 H 0.36985 0.87879 0.46238 0.0
H1774 H 0.34032 0.8536 0.42369 0.0
H1775 H 0.35878 0.90336 0.42373 0.0
C1776 C 0.33733 0.90865 0.41428 0.0
C1777 C 0.32369 0.90282 0.40943 0.0
C1778 C 0.34726 0.85894 0.43192 0.0
C1779 C 0.34698 0.8832 0.41725 0.0
C1780 C 0.34766 0.85277 0.44649 0.0
C1781 C 0.35522 0.86021 0.45782 0.0
C1782 C 0.35373 0.87311 0.429 0.0
C1783 C 0.36371 0.8729 0.45388 0.0
C1784 C 0.34917 0.89885 0.41804 0.0
C1785 C 0.32348 0.88772 0.40517 0.0
N1786 N 0.36235 0.87927 0.43987 0.0
N1787 N 0.33475 0.87823 0.40976 0.0
H1788 H 0.47001 0.07727 0.70049 0.0
H1789 H 0.41811 0.10268 0.63673 0.0
H1790 H 0.4631 0.12388 0.68743 0.0
H1791 H 0.43197 0.05644 0.64449 0.0
H1792 H 0.44066 0.11101 0.64939 0.0
H1793 H 0.46287 0.06968 0.67541 0.0
C1794 C 0.46781 0.08595 0.69197 0.0
C1795 C 0.46703 0.10117 0.69588 0.0
C1796 C 0.43914 0.09904 0.64786 0.0
C1797 C 0.45841 0.09265 0.66731 0.0
C1798 C 0.42631 0.09432 0.64055 0.0
C1799 C 0.42334 0.07893 0.6397 0.0
C1800 C 0.44863 0.08821 0.65482 0.0
C1801 C 0.43404 0.06843 0.64495 0.0
C1802 C 0.46358 0.08162 0.67766 0.0
C1803 C 0.46377 0.11202 0.68471 0.0
N1804 N 0.44607 0.07327 0.65268 0.0
N1805 N 0.45924 0.10752 0.67094 0.0
H1806 H 0.15688 0.17407 0.96197 0.0
H1807 H 0.20801 0.15632 0.89918 0.0
H1808 H 0.18691 0.20673 0.94199 0.0
H1809 H 0.16846 0.1304 0.90951 0.0
H1810 H 0.19465 0.17908 0.90722 0.0
H1811 H 0.15368 0.16309 0.93722 0.0
C1812 C 0.16217 0.17939 0.95217 0.0
C1813 C 0.17249 0.19094 0.95388 0.0
C1814 C 0.18854 0.1686 0.9071 0.0
C1815 C 0.16955 0.17814 0.92579 0.0
C1816 C 0.1962 0.15561 0.90238 0.0
C1817 C 0.18932 0.14157 0.90405 0.0
C1818 C 0.17419 0.16728 0.91398 0.0
C1819 C 0.17413 0.1411 0.90838 0.0
C1820 C 0.16045 0.17309 0.938 0.0
C1821 C 0.17915 0.1975 0.941 0.0
N1822 N 0.16714 0.15374 0.91362 0.0
N1823 N 0.17792 0.19073 0.92747 0.0
H1824 H 0.7743 0.36232 0.9761 0.0
H1825 H 0.79339 0.35382 0.06068 0.0
H1826 H 0.81395 0.38131 -0.00584 0.0
H1827 H 0.7534 0.33736 0.03995 0.0
H1828 H 0.80448 0.35838 0.03544 0.0
H1829 H 0.77133 0.34632 -0.00396 0.0
C1830 C 0.78262 0.36236 0.98492 0.0
C1831 C 0.79395 0.37317 0.98467 0.0
C1832 C 0.79338 0.35352 0.0364 0.0
C1833 C 0.79012 0.35556 0.00814 0.0
C1834 C 0.78703 0.35099 0.05081 0.0
C1835 C 0.77233 0.34552 0.05238 0.0
C1836 C 0.78503 0.35038 0.02347 0.0
C1837 C 0.76462 0.34195 0.03923 0.0
C1838 C 0.78102 0.35359 -0.00453 0.0
C1839 C 0.80496 0.37319 -0.00593 0.0
N1840 N 0.77101 0.34452 0.02536 0.0
N1841 N 0.80222 0.36476 0.00676 0.0
H1842 H 0.89912 0.53292 0.20168 0.0
H1843 H 0.93686 0.58473 0.25006 0.0
H1844 H 0.87899 0.57565 0.2138 0.0
H1845 H 0.9623 0.55346 0.22264 0.0
H1846 H 0.91859 0.58778 0.22999 0.0
H1847 H 0.92388 0.54454 0.20108 0.0
C1848 C 0.89987 0.54497 0.20341 0.0
C1849 C 0.88719 0.55334 0.20815 0.0
C1850 C 0.92847 0.58072 0.22796 0.0
C1851 C 0.91537 0.56656 0.20816 0.0
C1852 C 0.93897 0.57911 0.23943 0.0
C1853 C 0.95082 0.56862 0.23799 0.0
C1854 C 0.92948 0.57108 0.21548 0.0
C1855 C 0.95308 0.56149 0.22414 0.0
C1856 C 0.91403 0.55164 0.20316 0.0
C1857 C 0.88866 0.56882 0.21041 0.0
N1858 N 0.94216 0.56238 0.21358 0.0
N1859 N 0.90258 0.57488 0.21082 0.0
H1860 H 0.73419 0.61894 0.47629 0.0
H1861 H 0.69343 0.69364 0.46233 0.0
H1862 H 0.71835 0.63315 0.4325 0.0
H1863 H 0.69971 0.6741 0.50671 0.0
H1864 H 0.695 0.66835 0.45164 0.0
H1865 H 0.71487 0.63461 0.48813 0.0
C1866 C 0.72591 0.62458 0.46919 0.0
C1867 C 0.72764 0.62473 0.45345 0.0
C1868 C 0.69564 0.66948 0.46377 0.0
C1869 C 0.70594 0.64323 0.46682 0.0
C1870 C 0.69484 0.68391 0.4698 0.0
C1871 C 0.69704 0.68573 0.48522 0.0
C1872 C 0.6991 0.65704 0.47328 0.0
C1873 C 0.69846 0.67297 0.49463 0.0
C1874 C 0.71498 0.63375 0.47594 0.0
C1875 C 0.71716 0.63272 0.44469 0.0
N1876 N 0.69982 0.65912 0.48846 0.0
N1877 N 0.7069 0.64197 0.45152 0.0
H1878 H 0.91005 0.40437 0.34026 0.0
H1879 H 0.84674 0.46125 0.33272 0.0
H1880 H 0.87899 0.40538 0.30336 0.0
H1881 H 0.87143 0.45419 0.37375 0.0
H1882 H 0.85183 0.43532 0.32587 0.0
H1883 H 0.89067 0.41575 0.35644 0.0
C1884 C 0.89883 0.40619 0.33584 0.0
C1885 C 0.89605 0.40385 0.32052 0.0
C1886 C 0.85554 0.43904 0.33677 0.0
C1887 C 0.87413 0.41778 0.33862 0.0
C1888 C 0.85247 0.45386 0.34076 0.0
C1889 C 0.85905 0.4598 0.3536 0.0
C1890 C 0.86528 0.43018 0.34573 0.0
C1891 C 0.86647 0.44998 0.3636 0.0
C1892 C 0.8878 0.41289 0.34501 0.0
C1893 C 0.88151 0.40682 0.31517 0.0
N1894 N 0.86975 0.43563 0.35925 0.0
N1895 N 0.87125 0.4141 0.32408 0.0
H1896 H 0.68302 0.54066 0.84259 0.0
H1897 H 0.65128 0.62156 0.84557 0.0
H1898 H 0.70532 0.57469 0.86775 0.0
H1899 H 0.62285 0.58353 0.83811 0.0
H1900 H 0.66918 0.60479 0.85846 0.0
H1901 H 0.65961 0.55562 0.84392 0.0
C1902 C 0.68291 0.55134 0.84838 0.0
C1903 C 0.69605 0.55674 0.85473 0.0
C1904 C 0.65876 0.60017 0.85452 0.0
C1905 C 0.66948 0.57391 0.85631 0.0
C1906 C 0.64842 0.60981 0.84737 0.0
C1907 C 0.63583 0.60384 0.8404 0.0
C1908 C 0.65653 0.58451 0.85435 0.0
C1909 C 0.6326 0.58855 0.84307 0.0
C1910 C 0.66954 0.55978 0.84933 0.0
C1911 C 0.69538 0.57037 0.86248 0.0
N1912 N 0.64322 0.57926 0.84928 0.0
N1913 N 0.68236 0.5787 0.86277 0.0
H1914 H 0.69019 0.45994 0.12323 0.0
H1915 H 0.66283 0.42526 0.05509 0.0
H1916 H 0.69686 0.483 0.08052 0.0
H1917 H 0.63388 0.42346 0.09458 0.0
H1918 H 0.6732 0.44887 0.06385 0.0
H1919 H 0.66619 0.45063 0.11439 0.0
C1920 C 0.68613 0.46379 0.11232 0.0
C1921 C 0.69553 0.47194 0.10242 0.0
C1922 C 0.66429 0.44357 0.07043 0.0
C1923 C 0.66887 0.46052 0.0919 0.0
C1924 C 0.65856 0.42997 0.06554 0.0
C1925 C 0.64784 0.4223 0.07439 0.0
C1926 C 0.65955 0.44924 0.08449 0.0
C1927 C 0.64234 0.42902 0.08761 0.0
C1928 C 0.67252 0.45832 0.10717 0.0
C1929 C 0.6899 0.47656 0.08837 0.0
N1930 N 0.64857 0.44194 0.09253 0.0
N1931 N 0.67725 0.47015 0.08318 0.0
H1932 H 0.82867 0.65813 0.61872 0.0
H1933 H 0.85357 0.68366 0.54136 0.0
H1934 H 0.84789 0.62693 0.58682 0.0
H1935 H 0.85541 0.71434 0.57844 0.0
H1936 H 0.85552 0.66236 0.55917 0.0
H1937 H 0.84405 0.67812 0.60761 0.0
C1938 C 0.83688 0.65528 0.60998 0.0
C1939 C 0.8367 0.6411 0.60327 0.0
C1940 C 0.85588 0.67372 0.56346 0.0
C1941 C 0.85353 0.66392 0.58995 0.0
C1942 C 0.85459 0.68582 0.55331 0.0
C1943 C 0.85414 0.70057 0.55861 0.0
C1944 C 0.85632 0.67645 0.57905 0.0
C1945 C 0.85557 0.70299 0.57409 0.0
C1946 C 0.84549 0.66676 0.60344 0.0
C1947 C 0.84752 0.6379 0.59204 0.0
N1948 N 0.85628 0.69099 0.58387 0.0
N1949 N 0.85501 0.64942 0.58518 0.0
H1950 H 0.62011 0.48079 0.72767 0.0
H1951 H 0.6959 0.46281 0.6996 0.0
H1952 H 0.63752 0.43523 0.72553 0.0
H1953 H 0.67314 0.50477 0.68871 0.0
H1954 H 0.67199 0.44991 0.6989 0.0
H1955 H 0.63458 0.48737 0.70501 0.0
C1956 C 0.62652 0.47201 0.72194 0.0
C1957 C 0.62803 0.45761 0.72849 0.0
C1958 C 0.67217 0.46183 0.69597 0.0
C1959 C 0.64507 0.46506 0.70297 0.0
C1960 C 0.68593 0.46914 0.69618 0.0
C1961 C 0.68634 0.48486 0.69457 0.0
C1962 C 0.6588 0.4705 0.69492 0.0
C1963 C 0.67318 0.49261 0.69023 0.0
C1964 C 0.63482 0.47573 0.70899 0.0
C1965 C 0.63639 0.44656 0.72084 0.0
N1966 N 0.65976 0.48546 0.6912 0.0
N1967 N 0.64496 0.45062 0.70861 0.0
H1968 H 0.01104 0.36472 0.21461 0.0
H1969 H 0.93367 0.35863 0.25697 0.0
H1970 H 0.98241 0.32975 0.20548 0.0
H1971 H 0.96978 0.38666 0.27131 0.0
H1972 H 0.95017 0.34891 0.23658 0.0
H1973 H -0.00685 0.37513 0.23334 0.0
C1974 C 0.00033 0.3593 0.21662 0.0
C1975 C -0.00335 0.34637 0.20881 0.0
C1976 C 0.9545 0.35709 0.24428 0.0
C1977 C 0.97939 0.35781 0.23017 0.0
C1978 C 0.94518 0.36245 0.25596 0.0
C1979 C 0.95066 0.37307 0.26595 0.0
C1980 C 0.96913 0.36282 0.24245 0.0
C1981 C 0.9654 0.37811 0.26405 0.0
C1982 C 0.99312 0.36516 0.22725 0.0
C1983 C 0.98556 0.33975 0.21148 0.0
N1984 N 0.97409 0.37304 0.25243 0.0
N1985 N 0.97596 0.34546 0.22206 0.0
H1986 H 0.94188 0.75295 0.43836 0.0
H1987 H 0.87048 0.76256 0.49311 0.0
H1988 H 0.90405 0.78258 0.42845 0.0
H1989 H 0.90974 0.73572 0.5045 0.0
H1990 H 0.88226 0.76936 0.46893 0.0
H1991 H 0.92954 0.74514 0.46181 0.0
C1992 C 0.93074 0.75751 0.44095 0.0
C1993 C 0.92383 0.76838 0.4315 0.0
C1994 C 0.88848 0.76225 0.4768 0.0
C1995 C 0.90985 0.75967 0.45841 0.0
C1996 C 0.88188 0.7586 0.49064 0.0
C1997 C 0.88945 0.749 0.50075 0.0
C1998 C 0.90277 0.75626 0.47316 0.0
C1999 C 0.90384 0.7435 0.497 0.0
C2000 C 0.9238 0.75316 0.45443 0.0
C2001 C 0.90965 0.77418 0.43551 0.0
N2002 N 0.91011 0.74724 0.4834 0.0
N2003 N 0.90307 0.76974 0.44875 0.0
H2004 H 0.56296 0.62642 0.80215 0.0
H2005 H 0.55528 0.67372 0.72531 0.0
H2006 H 0.59635 0.65733 0.7848 0.0
H2007 H 0.51879 0.64823 0.74517 0.0
H2008 H 0.57185 0.66437 0.74516 0.0
H2009 H 0.5469 0.6331 0.78092 0.0
C2010 C 0.56661 0.63512 0.79422 0.0
C2011 C 0.58097 0.64132 0.79512 0.0
C2012 C 0.56029 0.66064 0.74511 0.0
C2013 C 0.56299 0.64855 0.7706 0.0
C2014 C 0.5509 0.66581 0.7337 0.0
C2015 C 0.53562 0.66201 0.73399 0.0
C2016 C 0.55424 0.65173 0.75689 0.0
C2017 C 0.53049 0.65154 0.74478 0.0
C2018 C 0.55761 0.63865 0.78191 0.0
C2019 C 0.58531 0.65232 0.78442 0.0
N2020 N 0.53975 0.64696 0.75608 0.0
N2021 N 0.57642 0.65546 0.77244 0.0
H2022 H 0.61184 0.37039 0.01348 0.0
H2023 H 0.57224 0.29074 0.02495 0.0
H2024 H 0.58676 0.35681 0.05356 0.0
H2025 H 0.59636 0.30288 0.98685 0.0
H2026 H 0.57974 0.31417 0.03644 0.0
H2027 H 0.60687 0.3459 0.00245 0.0
C2028 C 0.60499 0.36239 0.01982 0.0
C2029 C 0.59986 0.36553 0.03457 0.0
C2030 C 0.58392 0.31164 0.02519 0.0
C2031 C 0.59457 0.33748 0.02222 0.0
C2032 C 0.57991 0.2981 0.0188 0.0
C2033 C 0.58417 0.29509 0.0039 0.0
C2034 C 0.59224 0.32215 0.01656 0.0
C2035 C 0.59365 0.30516 -0.00391 0.0
C2036 C 0.60238 0.34835 0.01361 0.0
C2037 C 0.591 0.35486 0.04221 0.0
N2038 N 0.59727 0.31841 0.00248 0.0
N2039 N 0.58881 0.34122 0.03602 0.0
H2040 H 0.9941 0.56581 0.31345 0.0
H2041 H 0.04994 0.61968 0.35128 0.0
H2042 H 0.02101 0.59443 0.28735 0.0
H2043 H 0.02088 0.58957 0.37644 0.0
H2044 H 0.04053 0.60988 0.32771 0.0
H2045 H 0.00284 0.57369 0.33646 0.0
C2046 C 0.00015 0.57389 0.31262 0.0
C2047 C 0.00507 0.57966 0.29858 0.0
C2048 C 0.03638 0.6052 0.33834 0.0
C2049 C 0.01857 0.58871 0.32493 0.0
C2050 C 0.04181 0.6107 0.35175 0.0
C2051 C 0.03629 0.60516 0.36564 0.0
C2052 C 0.02535 0.59408 0.3389 0.0
C2053 C 0.0255 0.59389 0.36586 0.0
C2054 C 0.00689 0.57831 0.32577 0.0
C2055 C 0.01696 0.5898 0.29804 0.0
N2056 N 0.02035 0.58868 0.3526 0.0
N2057 N 0.02328 0.59416 0.31113 0.0
H2058 H 0.64554 0.74358 0.52336 0.0
H2059 H 0.65547 0.78237 0.60303 0.0
H2060 H 0.67509 0.72599 0.55801 0.0
H2061 H 0.62733 0.80018 0.56746 0.0
H2062 H 0.66226 0.76085 0.58715 0.0
H2063 H 0.63584 0.76228 0.54105 0.0
C2064 C 0.64975 0.74346 0.53478 0.0
C2065 C 0.66154 0.7337 0.53906 0.0
C2066 C 0.65473 0.76955 0.58276 0.0
C2067 C 0.65094 0.75519 0.55908 0.0
C2068 C 0.65117 0.78193 0.59166 0.0
C2069 C 0.64112 0.79304 0.58631 0.0
C2070 C 0.64791 0.76829 0.56864 0.0
C2071 C 0.63543 0.79196 0.57175 0.0
C2072 C 0.64435 0.75422 0.54482 0.0
C2073 C 0.66633 0.7337 0.5541 0.0
N2074 N 0.63876 0.77964 0.56346 0.0
N2075 N 0.66125 0.74458 0.56351 0.0
H2076 H 0.51621 0.37568 0.80634 0.0
H2077 H 0.57087 0.44286 0.79152 0.0
H2078 H 0.51968 0.41277 0.83684 0.0
H2079 H 0.57397 0.40131 0.76701 0.0
H2080 H 0.55478 0.43068 0.81045 0.0
H2081 H 0.53943 0.3834 0.79371 0.0
C2082 C 0.5216 0.38592 0.80985 0.0
C2083 C 0.5157 0.39428 0.82185 0.0
C2084 C 0.5589 0.42418 0.80094 0.0
C2085 C 0.5423 0.40294 0.80789 0.0
C2086 C 0.56778 0.43119 0.79005 0.0
C2087 C 0.57277 0.42319 0.77741 0.0
C2088 C 0.55468 0.40922 0.79884 0.0
C2089 C 0.56951 0.40793 0.77628 0.0
C2090 C 0.53504 0.39004 0.803 0.0
C2091 C 0.52356 0.40667 0.82698 0.0
N2092 N 0.56032 0.40143 0.78679 0.0
N2093 N 0.53644 0.41084 0.81975 0.0
H2094 H 0.85975 0.2476 0.0815 0.0
H2095 H 0.78984 0.29078 0.11873 0.0
H2096 H 0.83828 0.23249 0.12303 0.0
H2097 H 0.81297 0.30498 0.07777 0.0
H2098 H 0.8095 0.27151 0.12292 0.0
H2099 H 0.84376 0.27003 0.08145 0.0
C2100 C 0.85131 0.24888 0.09041 0.0
C2101 C 0.85009 0.23817 0.10217 0.0
C2102 C 0.81035 0.27897 0.11313 0.0
C2103 C 0.83197 0.26394 0.10242 0.0
C2104 C 0.7992 0.28993 0.11075 0.0
C2105 C 0.79965 0.29888 0.09755 0.0
C2106 C 0.82185 0.27718 0.10221 0.0
C2107 C 0.81203 0.29777 0.08774 0.0
C2108 C 0.84238 0.2618 0.09054 0.0
C2109 C 0.83925 0.24038 0.1136 0.0
N2110 N 0.82262 0.28694 0.09018 0.0
N2111 N 0.83055 0.25313 0.11347 0.0
H2112 H 0.23935 0.93345 0.387 0.0
H2113 H 0.22726 0.0063 0.33772 0.0
H2114 H 0.27409 0.95473 0.35978 0.0
H2115 H 0.19172 0.98861 0.36516 0.0
H2116 H 0.24452 0.98953 0.3467 0.0
H2117 H 0.22139 0.95289 0.37856 0.0
C2118 C 0.24313 0.94203 0.379 0.0
C2119 C 0.25833 0.94268 0.3743 0.0
C2120 C 0.23306 0.98947 0.35109 0.0
C2121 C 0.23796 0.96507 0.36495 0.0
C2122 C 0.22352 -0.00185 0.34619 0.0
C2123 C 0.20841 -0.00219 0.35092 0.0
C2124 C 0.22792 0.97792 0.36083 0.0
C2125 C 0.20338 0.98924 0.36143 0.0
C2126 C 0.23291 0.95322 0.37435 0.0
C2127 C 0.26255 0.95389 0.36381 0.0
N2128 N 0.21337 0.97838 0.36603 0.0
N2129 N 0.25246 0.96478 0.35965 0.0
H2130 H 0.29482 0.99477 0.60234 0.0
H2131 H 0.36375 0.04751 0.58473 0.0
H2132 H 0.29531 0.02651 0.56715 0.0
H2133 H 0.36291 0.01592 0.62248 0.0
H2134 H 0.33936 0.03836 0.57705 0.0
H2135 H 0.31988 0.00097 0.61051 0.0
C2136 C 0.30032 0.00196 0.59671 0.0
C2137 C 0.29339 0.00886 0.58422 0.0
C2138 C 0.34456 0.03337 0.58697 0.0
C2139 C 0.32159 0.01823 0.59277 0.0
C2140 C 0.35856 0.03847 0.59124 0.0
C2141 C 0.36515 0.03276 0.60445 0.0
C2142 C 0.33714 0.02254 0.59602 0.0
C2143 C 0.35808 0.02085 0.61234 0.0
C2144 C 0.3144 0.00674 0.60115 0.0
C2145 C 0.30027 0.02114 0.57702 0.0
N2146 N 0.34429 0.01629 0.60813 0.0
N2147 N 0.31418 0.02529 0.58125 0.0
H2148 H 0.2273 0.09898 0.836 0.0
H2149 H 0.31328 0.10976 0.81069 0.0
H2150 H 0.2618 0.11291 0.86642 0.0
H2151 H 0.27965 0.0881 0.78436 0.0
H2152 H 0.29372 0.11606 0.82968 0.0
H2153 H 0.24559 0.10018 0.81522 0.0
C2154 C 0.23871 0.10231 0.83828 0.0
C2155 C 0.2431 0.10566 0.85291 0.0
C2156 C 0.29065 0.11001 0.81969 0.0
C2157 C 0.26409 0.10695 0.82931 0.0
C2158 C 0.30176 0.10637 0.80897 0.0
C2159 C 0.29799 0.09798 0.79634 0.0
C2160 C 0.27579 0.10538 0.81748 0.0
C2161 C 0.283 0.09411 0.79427 0.0
C2162 C 0.24914 0.10306 0.82643 0.0
C2163 C 0.25799 0.11012 0.85527 0.0
N2164 N 0.27243 0.09781 0.80478 0.0
N2165 N 0.26804 0.11049 0.84358 0.0
H2166 H 0.20279 0.02674 0.13389 0.0
H2167 H 0.24013 0.02067 0.05216 0.0
H2168 H 0.23298 0.99316 0.12088 0.0
H2169 H 0.20428 0.05228 0.06359 0.0
H2170 H 0.23688 0.00853 0.07693 0.0
H2171 H 0.20263 0.03583 0.10784 0.0
C2172 C 0.20953 0.02075 0.12554 0.0
C2173 C 0.21823 0.00796 0.12948 0.0
C2174 C 0.22968 0.01808 0.07395 0.0
C2175 C 0.21802 0.01823 0.09975 0.0
C2176 C 0.2316 0.02502 0.0599 0.0
C2177 C 0.2227 0.03761 0.05605 0.0
C2178 C 0.21896 0.02399 0.08418 0.0
C2179 C 0.21154 0.04269 0.06625 0.0
C2180 C 0.20933 0.02587 0.11066 0.0
C2181 C 0.22669 0.0006 0.11827 0.0
N2182 N 0.21009 0.03593 0.07998 0.0
N2183 N 0.22641 0.00589 0.10386 0.0
H2184 H 0.32232 0.21653 0.99118 0.0
H2185 H 0.39366 0.25926 0.95657 0.0
H2186 H 0.3685 0.2086 0.00335 0.0
H2187 H 0.34813 0.26964 0.94315 0.0
H2188 H 0.38437 0.23961 0.97366 0.0
H2189 H 0.33145 0.23531 0.9728 0.0
C2190 C 0.33425 0.21898 0.99062 0.0
C2191 C 0.34505 0.21158 -0.00234 0.0
C2192 C 0.37634 0.24619 0.96709 0.0
C2193 C 0.35492 0.2324 0.97907 0.0
C2194 C 0.38163 0.25741 0.95742 0.0
C2195 C 0.37153 0.26614 0.94885 0.0
C2196 C 0.36081 0.24374 0.96824 0.0
C2197 C 0.35613 0.26327 0.94993 0.0
C2198 C 0.33945 0.22955 0.98009 0.0
C2199 C 0.36039 0.21462 -0.00361 0.0
N2200 N 0.35118 0.25224 0.95958 0.0
N2201 N 0.36458 0.22476 0.98844 0.0
H2202 H 0.10685 0.81374 0.30814 0.0
H2203 H 0.10149 0.83706 0.22105 0.0
H2204 H 0.09648 0.78141 0.27404 0.0
H2205 H 0.09199 0.8663 0.25856 0.0
H2206 H 0.10602 0.816 0.23911 0.0
H2207 H 0.11025 0.83295 0.28827 0.0
C2208 C 0.10551 0.81066 0.29645 0.0
C2209 C 0.10078 0.79625 0.29263 0.0
C2210 C 0.10282 0.82704 0.24328 0.0
C2211 C 0.10451 0.81793 0.27013 0.0
C2212 C 0.09987 0.83883 0.23305 0.0
C2213 C 0.09603 0.85312 0.2385 0.0
C2214 C 0.10218 0.8299 0.25884 0.0
C2215 C 0.09461 0.85524 0.25406 0.0
C2216 C 0.10744 0.82157 0.28517 0.0
C2217 C 0.09954 0.79264 0.27738 0.0
N2218 N 0.09786 0.84377 0.26373 0.0
N2219 N 0.10118 0.80353 0.2666 0.0
H2220 H 0.14131 0.7779 0.47163 0.0
H2221 H 0.16536 0.81233 0.5501 0.0
H2222 H 0.13447 0.75493 0.51454 0.0
H2223 H 0.16356 0.83775 0.50816 0.0
H2224 H 0.1546 0.79076 0.53748 0.0
H2225 H 0.15271 0.79879 0.48472 0.0
C2226 C 0.14253 0.77715 0.48379 0.0
C2227 C 0.13672 0.7649 0.49211 0.0
C2228 C 0.15629 0.80116 0.53111 0.0
C2229 C 0.14912 0.78881 0.50711 0.0
C2230 C 0.16213 0.81352 0.53839 0.0
C2231 C 0.16537 0.82664 0.53006 0.0
C2232 C 0.15374 0.8021 0.5155 0.0
C2233 C 0.16126 0.82767 0.51486 0.0
C2234 C 0.14881 0.78913 0.49126 0.0
C2235 C 0.13873 0.76426 0.50776 0.0
N2236 N 0.15582 0.81543 0.50796 0.0
N2237 N 0.14454 0.77624 0.51483 0.0
H2238 H 0.50819 0.89912 0.75282 0.0
H2239 H 0.41952 0.91409 0.76102 0.0
H2240 H 0.47565 0.88461 0.72065 0.0
H2241 H 0.4519 0.93315 0.79076 0.0
H2242 H 0.44024 0.90279 0.74636 0.0
H2243 H 0.48823 0.91345 0.76582 0.0
C2244 C 0.49693 0.89925 0.74826 0.0
C2245 C 0.49342 0.89026 0.73597 0.0
C2246 C 0.44283 0.90939 0.75613 0.0
C2247 C 0.47057 0.90623 0.75094 0.0
C2248 C 0.431 0.91562 0.76462 0.0
C2249 C 0.43403 0.92456 0.77706 0.0
C2250 C 0.45778 0.91222 0.76008 0.0
C2251 C 0.44907 0.92624 0.78128 0.0
C2252 C 0.48551 0.90729 0.75579 0.0
C2253 C 0.47872 0.89104 0.73039 0.0
N2254 N 0.46042 0.92027 0.7727 0.0
N2255 N 0.46776 0.89863 0.73809 0.0
H2256 H 0.03552 0.05735 0.20007 0.0
H2257 H 0.00861 0.13035 0.24541 0.0
H2258 H 0.0466 0.06562 0.24647 0.0
H2259 H -0.00546 0.12115 0.2002 0.0
H2260 H 0.02231 0.10619 0.24607 0.0
H2261 H 0.02048 0.08073 0.19958 0.0
C2262 C 0.03488 0.0642 0.21009 0.0
C2263 C 0.04216 0.05966 0.22338 0.0
C2264 C 0.01598 0.10927 0.2361 0.0
C2265 C 0.0251 0.08612 0.22293 0.0
C2266 C 0.00806 0.12291 0.23585 0.0
C2267 C 0.00034 0.1273 0.22288 0.0
C2268 C 0.01607 0.10013 0.22328 0.0
C2269 C 0.00028 0.11779 0.21046 0.0
C2270 C 0.02624 0.07743 0.20984 0.0
C2271 C 0.04099 0.06874 0.23608 0.0
N2272 N 0.00809 0.10455 0.21093 0.0
N2273 N 0.03259 0.0816 0.23554 0.0
H2274 H 0.51644 0.11404 0.76652 0.0
H2275 H 0.50749 0.18612 0.8186 0.0
H2276 H 0.49132 0.15413 0.75344 0.0
H2277 H 0.5372 0.1482 0.82816 0.0
H2278 H 0.49868 0.17335 0.79628 0.0
H2279 H 0.52251 0.12576 0.79023 0.0
C2280 C 0.51282 0.12562 0.76839 0.0
C2281 C 0.50373 0.13334 0.758 0.0
C2282 C 0.50696 0.16773 0.80337 0.0
C2283 C 0.51019 0.14664 0.78516 0.0
C2284 C 0.51188 0.17492 0.81616 0.0
C2285 C 0.52323 0.16816 0.82497 0.0
C2286 C 0.51342 0.15373 0.79957 0.0
C2287 C 0.52861 0.15378 0.82142 0.0
C2288 C 0.51597 0.13218 0.78205 0.0
C2289 C 0.49866 0.14803 0.76116 0.0
N2290 N 0.5237 0.14703 0.80888 0.0
N2291 N 0.50195 0.15426 0.77456 0.0
H2292 H 0.12398 0.19472 -0.00138 0.0
H2293 H 0.06535 0.2468 0.04398 0.0
H2294 H 0.13228 0.24085 0.01018 0.0
H2295 H 0.05527 0.2019 0.02943 0.0
H2296 H 0.08962 0.24513 0.0307 0.0
H2297 H 0.09807 0.1975 0.00837 0.0
C2298 C 0.12021 0.20545 0.00314 0.0
C2299 C 0.13001 0.21763 0.00366 0.0
C2300 C 0.08206 0.23569 0.03028 0.0
C2301 C 0.10088 0.22079 0.01512 0.0
C2302 C 0.06825 0.23666 0.03784 0.0
C2303 C 0.05849 0.22446 0.03775 0.0
C2304 C 0.08598 0.22246 0.02251 0.0
C2305 C 0.06268 0.21148 0.02982 0.0
C2306 C 0.10551 0.20705 0.00869 0.0
C2307 C 0.12486 0.23131 0.00954 0.0
N2308 N 0.07618 0.21081 0.02247 0.0
N2309 N 0.11063 0.23249 0.01523 0.0
H2310 H 0.38491 0.84317 0.54413 0.0
H2311 H 0.43199 0.76679 0.55421 0.0
H2312 H 0.40864 0.82157 0.50715 0.0
H2313 H 0.40018 0.7837 0.58741 0.0
H2314 H 0.42327 0.78616 0.53634 0.0
H2315 H 0.39254 0.82236 0.56081 0.0
C2316 C 0.39203 0.83422 0.53959 0.0
C2317 C 0.39576 0.83382 0.52412 0.0
C2318 C 0.41791 0.78541 0.5474 0.0
C2319 C 0.40416 0.8099 0.54301 0.0
C2320 C 0.42267 0.77416 0.55748 0.0
C2321 C 0.41695 0.77399 0.57229 0.0
C2322 C 0.40739 0.79635 0.5523 0.0
C2323 C 0.40499 0.78377 0.57608 0.0
C2324 C 0.39614 0.82223 0.54906 0.0
C2325 C 0.40526 0.82217 0.51894 0.0
N2326 N 0.40076 0.79483 0.56621 0.0
N2327 N 0.40895 0.81049 0.52834 0.0
H2328 H 0.77962 0.42534 0.90319 0.0
H2329 H 0.73161 0.50213 0.91247 0.0
H2330 H 0.76491 0.44274 0.94624 0.0
H2331 H 0.75673 0.49096 0.87201 0.0
H2332 H 0.7415 0.47893 0.92468 0.0
H2333 H 0.76889 0.44809 0.89074 0.0
C2334 C 0.77423 0.43404 0.90994 0.0
C2335 C 0.77318 0.43247 0.92564 0.0
C2336 C 0.74496 0.48165 0.91318 0.0
C2337 C 0.76094 0.45808 0.91179 0.0
C2338 C 0.73942 0.49487 0.90634 0.0
C2339 C 0.74373 0.49836 0.89147 0.0
C2340 C 0.7547 0.47202 0.90494 0.0
C2341 C 0.75347 0.48858 0.88365 0.0
C2342 C 0.7681 0.44693 0.90293 0.0
C2343 C 0.76596 0.44377 0.93406 0.0
N2344 N 0.75865 0.47579 0.89048 0.0
N2345 N 0.76009 0.45614 0.92703 0.0
H2346 H 0.82221 0.49512 0.18394 0.0
H2347 H 0.76419 0.52558 0.12218 0.0
H2348 H 0.82739 0.53743 0.15953 0.0
H2349 H 0.75641 0.48674 0.15113 0.0
H2350 H 0.78693 0.5308 0.13627 0.0
H2351 H 0.79858 0.4913 0.171 0.0
C2352 C 0.81851 0.50349 0.17567 0.0
C2353 C 0.82663 0.51676 0.173 0.0
C2354 C 0.78007 0.52132 0.13976 0.0
C2355 C 0.79948 0.5126 0.15842 0.0
C2356 C 0.76697 0.51852 0.13189 0.0
C2357 C 0.7586 0.50569 0.1355 0.0
C2358 C 0.78468 0.5112 0.15126 0.0
C2359 C 0.76274 0.4967 0.148 0.0
C2360 C 0.80492 0.50139 0.16843 0.0
C2361 C 0.82139 0.52712 0.16206 0.0
N2362 N 0.77564 0.49951 0.15533 0.0
N2363 N 0.80805 0.5249 0.15527 0.0
H2364 H 0.83506 0.51712 0.41517 0.0
H2365 H 0.77252 0.58093 0.39865 0.0
H2366 H 0.82416 0.53393 0.37054 0.0
H2367 H 0.77453 0.55547 0.44054 0.0
H2368 H 0.79283 0.565 0.38836 0.0
H2369 H 0.81519 0.53388 0.42571 0.0
C2370 C 0.82852 0.52438 0.40769 0.0
C2371 C 0.83104 0.52422 0.39208 0.0
C2372 C 0.78862 0.56269 0.3997 0.0
C2373 C 0.8084 0.54274 0.4037 0.0
C2374 C 0.77684 0.57153 0.40539 0.0
C2375 C 0.77176 0.56917 0.42026 0.0
C2376 C 0.79539 0.55166 0.40909 0.0
C2377 C 0.77796 0.55728 0.42886 0.0
C2378 C 0.81723 0.53383 0.41361 0.0
C2379 C 0.82252 0.53385 0.3827 0.0
N2380 N 0.7897 0.54907 0.42323 0.0
N2381 N 0.81147 0.54263 0.38865 0.0
H2382 H 0.77702 0.60514 0.65367 0.0
H2383 H 0.7476 0.52063 0.6529 0.0
H2384 H 0.80293 0.56744 0.63642 0.0
H2385 H 0.72128 0.55812 0.67003 0.0
H2386 H 0.76683 0.53823 0.64404 0.0
H2387 H 0.75644 0.58811 0.66019 0.0
C2388 C 0.77857 0.59314 0.65185 0.0
C2389 C 0.79158 0.5876 0.64448 0.0
C2390 C 0.75671 0.54266 0.64947 0.0
C2391 C 0.76796 0.5683 0.65106 0.0
C2392 C 0.74561 0.53264 0.65422 0.0
C2393 C 0.73315 0.538 0.66247 0.0
C2394 C 0.75519 0.55801 0.65309 0.0
C2395 C 0.731 0.55363 0.66394 0.0
C2396 C 0.76671 0.58351 0.65519 0.0
C2397 C 0.79309 0.57208 0.64219 0.0
N2398 N 0.74212 0.56313 0.65958 0.0
N2399 N 0.78126 0.56297 0.64519 0.0
loop_
_geom_bond_atom_site_label_1
_geom_bond_atom_site_label_2
_geom_bond_distance
_geom_bond_site_symmetry_2
_ccdc_geom_bond_type
Zn0 O3 2.031 . S
Zn0 O5 2.049 1_455 S
Zn0 O10 2.067 . S
Zn1 O2 1.962 . S
Zn1 O4 1.986 1_455 S
Zn1 O6 1.996 1_455 S
Zn1 O9 1.943 . S
O2 Zn1 1.962 . S
O2 C7 1.254 . S
O3 Zn0 2.031 . S
O3 C7 1.269 . S
O4 Zn1 1.986 1_655 S
O4 C11 1.262 1_655 S
O5 Zn0 2.049 1_655 S
O5 C13 1.260 . S
O6 Zn1 1.996 1_655 S
O6 C13 1.257 . S
C7 O2 1.254 . S
C7 O3 1.269 . S
C8 O9 1.249 . S
C8 O10 1.270 . S
O9 Zn1 1.943 . S
O9 C8 1.249 . S
O10 Zn0 2.067 . S
O10 C8 1.270 . S
C11 O4 1.262 1_455 S
C11 O12 1.232 . S
O12 C11 1.232 . S
C13 O5 1.260 . S
C13 O6 1.257 . S
Zn14 O17 2.031 . S
Zn14 O19 2.049 . S
Zn14 O24 2.042 1_455 S
Zn15 O16 1.962 . S
Zn15 O18 1.986 . S
Zn15 O20 1.996 . S
Zn15 O23 1.943 . S
O16 Zn15 1.962 . S
O16 C21 1.254 1_655 S
O17 Zn14 2.031 . S
O17 C21 1.269 . S
O18 Zn15 1.986 . S
O18 C25 1.262 . S
O19 Zn14 2.049 . S
O19 C27 1.260 1_455 S
O20 Zn15 1.996 . S
O20 C27 1.257 . S
C21 O16 1.254 1_455 S
C21 O17 1.269 . S
C22 O23 1.249 . S
C22 O24 1.309 . S
O23 Zn15 1.943 . S
O23 C22 1.249 . S
O24 Zn14 2.042 1_655 S
O24 C22 1.309 . S
C25 O18 1.262 . S
C25 O26 1.232 . S
O26 C25 1.232 . S
C27 O19 1.260 1_655 S
C27 O20 1.257 . S
Zn28 O31 2.031 . S
Zn28 O33 2.049 . S
Zn28 O38 2.067 . S
Zn29 O30 1.962 . S
Zn29 O32 1.986 . S
Zn29 O34 1.996 . S
Zn29 O37 1.943 . S
O30 Zn29 1.962 . S
O30 C35 1.254 . S
O31 Zn28 2.031 . S
O31 C35 1.269 . S
O32 Zn29 1.986 . S
O32 C39 1.262 . S
O33 Zn28 2.049 . S
O33 C41 1.260 . S
O34 Zn29 1.996 . S
O34 C41 1.257 . S
C35 O30 1.254 . S
C35 O31 1.269 . S
C36 O37 1.249 . S
C36 O38 1.270 . S
O37 Zn29 1.943 . S
O37 C36 1.249 . S
O38 Zn28 2.067 . S
O38 C36 1.270 . S
C39 O32 1.262 . S
C39 O40 1.232 . S
O40 C39 1.232 . S
C41 O33 1.260 . S
C41 O34 1.257 . S
Zn42 O45 2.031 . S
Zn42 O47 2.049 . S
Zn42 O52 2.067 . S
Zn43 O44 1.962 . S
Zn43 O46 1.986 . S
Zn43 O48 1.996 . S
Zn43 O51 1.943 . S
O44 Zn43 1.962 . S
O44 C49 1.254 . S
O45 Zn42 2.031 . S
O45 C49 1.269 . S
O46 Zn43 1.986 . S
O46 C53 1.262 . S
O47 Zn42 2.049 . S
O47 C55 1.260 . S
O48 Zn43 1.996 . S
O48 C55 1.257 . S
C49 O44 1.254 . S
C49 O45 1.269 . S
C50 O51 1.249 . S
C50 O52 1.270 . S
O51 Zn43 1.943 . S
O51 C50 1.249 . S
O52 Zn42 2.067 . S
O52 C50 1.270 . S
C53 O46 1.262 . S
C53 O54 1.220 1_556 S
O54 C53 1.220 1_554 S
C55 O47 1.260 . S
C55 O48 1.257 . S
Zn56 O59 2.031 . S
Zn56 O61 2.049 . S
Zn56 O66 2.067 . S
Zn57 O58 1.962 . S
Zn57 O60 1.986 . S
Zn57 O62 1.996 . S
Zn57 O65 1.943 . S
O58 Zn57 1.962 . S
O58 C63 1.254 . S
O59 Zn56 2.031 . S
O59 C63 1.269 . S
O60 Zn57 1.986 . S
O60 C67 1.262 . S
O61 Zn56 2.049 . S
O61 C69 1.260 . S
O62 Zn57 1.996 . S
O62 C69 1.257 . S
C63 O58 1.254 . S
C63 O59 1.269 . S
C64 O65 1.249 . S
C64 O66 1.270 . S
O65 Zn57 1.943 . S
O65 C64 1.249 . S
O66 Zn56 2.067 . S
O66 C64 1.270 . S
C67 O60 1.262 . S
C67 O68 1.232 . S
O68 C67 1.232 . S
C69 O61 1.260 . S
C69 O62 1.257 . S
Zn70 O73 2.031 . S
Zn70 O75 2.049 . S
Zn70 O80 2.067 . S
Zn71 O72 1.962 . S
Zn71 O74 1.986 . S
Zn71 O76 1.996 . S
Zn71 O79 1.943 . S
O72 Zn71 1.962 . S
O72 C77 1.254 . S
O73 Zn70 2.031 . S
O73 C77 1.269 . S
O74 Zn71 1.986 . S
O74 C81 1.262 . S
O75 Zn70 2.049 . S
O75 C83 1.260 . S
O76 Zn71 1.996 . S
O76 C83 1.257 . S
C77 O72 1.254 . S
C77 O73 1.269 . S
C78 O79 1.249 . S
C78 O80 1.270 . S
O79 Zn71 1.943 . S
O79 C78 1.249 . S
O80 Zn70 2.067 . S
O80 C78 1.270 . S
C81 O74 1.262 . S
C81 O82 1.232 . S
O82 C81 1.232 . S
C83 O75 1.260 . S
C83 O76 1.257 . S
Zn84 O87 2.031 . S
Zn84 O89 2.049 . S
Zn84 O94 2.067 . S
Zn85 O86 1.962 . S
Zn85 O88 1.986 . S
Zn85 O90 1.996 . S
Zn85 O93 1.943 . S
O86 Zn85 1.962 . S
O86 C91 1.254 . S
O87 Zn84 2.031 . S
O87 C91 1.269 . S
O88 Zn85 1.986 . S
O88 C95 1.262 . S
O89 Zn84 2.049 . S
O89 C97 1.260 . S
O90 Zn85 1.996 . S
O90 C97 1.257 . S
C91 O86 1.254 . S
C91 O87 1.269 . S
C92 O93 1.249 . S
C92 O94 1.270 . S
O93 Zn85 1.943 . S
O93 C92 1.249 . S
O94 Zn84 2.067 . S
O94 C92 1.270 . S
C95 O88 1.262 . S
C95 O96 1.232 . S
O96 C95 1.232 . S
C97 O89 1.260 . S
C97 O90 1.257 . S
Zn98 O101 2.031 . S
Zn98 O103 2.049 . S
Zn98 O108 2.067 . S
Zn99 O100 1.962 . S
Zn99 O102 1.986 . S
Zn99 O104 1.996 . S
Zn99 O107 1.943 . S
O100 Zn99 1.962 . S
O100 C105 1.254 . S
O101 Zn98 2.031 . S
O101 C105 1.269 . S
O102 Zn99 1.986 . S
O102 C109 1.262 . S
O103 Zn98 2.049 . S
O103 C111 1.260 . S
O104 Zn99 1.996 . S
O104 C111 1.257 . S
C105 O100 1.254 . S
C105 O101 1.269 . S
C106 O107 1.249 . S
C106 O108 1.270 . S
O107 Zn99 1.943 . S
O107 C106 1.249 . S
O108 Zn98 2.067 . S
O108 C106 1.270 . S
C109 O102 1.262 . S
C109 O110 1.232 . S
O110 C109 1.232 . S
C111 O103 1.260 . S
C111 O104 1.257 . S
Zn112 O115 2.031 . S
Zn112 O117 2.049 1_545 S
Zn112 O122 2.067 . S
Zn113 O114 1.962 . S
Zn113 O116 1.986 1_545 S
Zn113 O118 1.996 1_545 S
Zn113 O121 1.943 . S
O114 Zn113 1.962 . S
O114 C119 1.254 . S
O115 Zn112 2.031 . S
O115 C119 1.269 . S
O116 Zn113 1.986 1_565 S
O116 C123 1.262 1_565 S
O117 Zn112 2.049 1_565 S
O117 C125 1.260 . S
O118 Zn113 1.996 1_565 S
O118 C125 1.257 . S
C119 O114 1.254 . S
C119 O115 1.269 . S
C120 O121 1.249 . S
C120 O122 1.270 . S
O121 Zn113 1.943 . S
O121 C120 1.249 . S
O122 Zn112 2.067 . S
O122 C120 1.270 . S
C123 O116 1.262 1_545 S
C123 O124 1.232 . S
O124 C123 1.232 . S
C125 O117 1.260 . S
C125 O118 1.257 . S
Zn126 O129 2.031 . S
Zn126 O131 2.049 . S
Zn126 O136 2.067 . S
Zn127 O128 1.962 . S
Zn127 O130 1.986 . S
Zn127 O132 1.996 . S
Zn127 O135 1.943 . S
O128 Zn127 1.962 . S
O128 C133 1.254 . S
O129 Zn126 2.031 . S
O129 C133 1.269 . S
O130 Zn127 1.986 . S
O130 C137 1.262 . S
O131 Zn126 2.049 . S
O131 C139 1.260 . S
O132 Zn127 1.996 . S
O132 C139 1.257 . S
C133 O128 1.254 . S
C133 O129 1.269 . S
C134 O135 1.249 . S
C134 O136 1.270 . S
O135 Zn127 1.943 . S
O135 C134 1.249 . S
O136 Zn126 2.067 . S
O136 C134 1.270 . S
C137 O130 1.262 . S
C137 O138 1.220 1_565 S
O138 C137 1.220 1_545 S
C139 O131 1.260 . S
C139 O132 1.257 . S
Zn140 O143 2.031 . S
Zn140 O145 2.049 . S
Zn140 O150 2.067 . S
Zn141 O142 1.962 . S
Zn141 O144 1.986 . S
Zn141 O146 1.996 . S
Zn141 O149 1.943 . S
O142 Zn141 1.962 . S
O142 C147 1.254 . S
O143 Zn140 2.031 . S
O143 C147 1.269 . S
O144 Zn141 1.986 . S
O144 C151 1.262 . S
O145 Zn140 2.049 . S
O145 C153 1.260 . S
O146 Zn141 1.996 . S
O146 C153 1.257 . S
C147 O142 1.254 . S
C147 O143 1.269 . S
C148 O149 1.249 . S
C148 O150 1.270 . S
O149 Zn141 1.943 . S
O149 C148 1.249 . S
O150 Zn140 2.067 . S
O150 C148 1.270 . S
C151 O144 1.262 . S
C151 O152 1.232 . S
O152 C151 1.232 . S
C153 O145 1.260 . S
C153 O146 1.257 . S
Zn154 O157 2.032 1_554 S
Zn154 O159 2.049 . S
Zn154 O164 2.067 . S
Zn155 O156 1.962 . S
Zn155 O158 1.986 . S
Zn155 O160 1.996 . S
Zn155 O163 1.943 . S
O156 Zn155 1.962 . S
O156 C161 1.300 . S
O157 Zn154 2.032 1_556 S
O157 C161 1.269 1_556 S
O158 Zn155 1.986 . S
O158 C165 1.262 . S
O159 Zn154 2.049 . S
O159 C167 1.260 . S
O160 Zn155 1.996 . S
O160 C167 1.257 . S
C161 O156 1.300 . S
C161 O157 1.269 1_554 S
C162 O163 1.249 . S
C162 O164 1.270 . S
O163 Zn155 1.943 . S
O163 C162 1.249 . S
O164 Zn154 2.067 . S
O164 C162 1.270 . S
C165 O158 1.262 . S
C165 O166 1.232 . S
O166 C165 1.232 . S
C167 O159 1.260 . S
C167 O160 1.257 . S
Zn168 O171 2.031 . S
Zn168 O173 2.049 1_565 S
Zn168 O178 2.067 . S
Zn169 O170 1.962 . S
Zn169 O172 1.986 . S
Zn169 O174 1.996 . S
Zn169 O177 1.943 1_545 S
O170 Zn169 1.962 . S
O170 C175 1.254 . S
O171 Zn168 2.031 . S
O171 C175 1.269 1_565 S
O172 Zn169 1.986 . S
O172 C179 1.262 . S
O173 Zn168 2.049 1_545 S
O173 C181 1.260 . S
O174 Zn169 1.996 . S
O174 C181 1.257 . S
C175 O170 1.254 . S
C175 O171 1.269 1_545 S
C176 O177 1.249 . S
C176 O178 1.270 . S
O177 Zn169 1.943 1_565 S
O177 C176 1.249 . S
O178 Zn168 2.067 . S
O178 C176 1.270 . S
C179 O172 1.262 . S
C179 O180 1.232 . S
O180 C179 1.232 . S
C181 O173 1.260 . S
C181 O174 1.257 . S
Zn182 O185 2.031 . S
Zn182 O187 2.049 . S
Zn182 O192 2.067 . S
Zn183 O184 1.962 . S
Zn183 O186 1.986 . S
Zn183 O188 1.996 . S
Zn183 O191 1.943 . S
O184 Zn183 1.962 . S
O184 C189 1.254 . S
O185 Zn182 2.031 . S
O185 C189 1.269 . S
O186 Zn183 1.986 . S
O186 C193 1.262 . S
O187 Zn182 2.049 . S
O187 C195 1.260 . S
O188 Zn183 1.996 . S
O188 C195 1.257 . S
C189 O184 1.254 . S
C189 O185 1.269 . S
C190 O191 1.249 . S
C190 O192 1.270 . S
O191 Zn183 1.943 . S
O191 C190 1.249 . S
O192 Zn182 2.067 . S
O192 C190 1.270 . S
C193 O186 1.262 . S
C193 O194 1.232 . S
O194 C193 1.232 . S
C195 O187 1.260 . S
C195 O188 1.257 . S
Zn196 O199 2.031 . S
Zn196 O201 2.049 . S
Zn196 O206 2.067 . S
Zn197 O198 1.962 . S
Zn197 O200 1.986 . S
Zn197 O202 1.996 . S
Zn197 O205 1.943 . S
O198 Zn197 1.962 . S
O198 C203 1.254 . S
O199 Zn196 2.031 . S
O199 C203 1.269 . S
O200 Zn197 1.986 . S
O200 C207 1.262 . S
O201 Zn196 2.049 . S
O201 C209 1.260 . S
O202 Zn197 1.996 . S
O202 C209 1.257 . S
C203 O198 1.254 . S
C203 O199 1.269 . S
C204 O205 1.249 . S
C204 O206 1.270 . S
O205 Zn197 1.943 . S
O205 C204 1.249 . S
O206 Zn196 2.067 . S
O206 C204 1.270 . S
C207 O200 1.262 . S
C207 O208 1.232 . S
O208 C207 1.232 . S
C209 O201 1.260 . S
C209 O202 1.257 . S
Zn210 O213 2.031 . S
Zn210 O215 2.049 . S
Zn210 O220 2.067 . S
Zn211 O212 1.962 . S
Zn211 O214 1.986 . S
Zn211 O216 1.996 . S
Zn211 O219 1.943 . S
O212 Zn211 1.962 . S
O212 C217 1.254 . S
O213 Zn210 2.031 . S
O213 C217 1.269 . S
O214 Zn211 1.986 . S
O214 C221 1.262 . S
O215 Zn210 2.049 . S
O215 C223 1.260 . S
O216 Zn211 1.996 . S
O216 C223 1.257 . S
C217 O212 1.254 . S
C217 O213 1.269 . S
C218 O219 1.249 . S
C218 O220 1.270 . S
O219 Zn211 1.943 . S
O219 C218 1.249 . S
O220 Zn210 2.067 . S
O220 C218 1.270 . S
C221 O214 1.262 . S
C221 O222 1.232 . S
O222 C221 1.232 . S
C223 O215 1.260 . S
C223 O216 1.257 . S
Zn224 O227 2.031 . S
Zn224 O229 2.049 1_554 S
Zn224 O234 2.067 . S
Zn225 O226 1.962 . S
Zn225 O228 1.986 1_554 S
Zn225 O230 1.996 1_554 S
Zn225 O233 1.943 . S
O226 Zn225 1.962 . S
O226 C231 1.254 . S
O227 Zn224 2.031 . S
O227 C231 1.269 . S
O228 Zn225 1.986 1_556 S
O228 C235 1.262 1_556 S
O229 Zn224 2.049 1_556 S
O229 C237 1.260 . S
O230 Zn225 1.996 1_556 S
O230 C237 1.257 . S
C231 O226 1.254 . S
C231 O227 1.269 . S
C232 O233 1.249 . S
C232 O234 1.270 . S
O233 Zn225 1.943 . S
O233 C232 1.249 . S
O234 Zn224 2.067 . S
O234 C232 1.270 . S
C235 O228 1.262 1_554 S
C235 O236 1.232 . S
O236 C235 1.232 . S
C237 O229 1.260 . S
C237 O230 1.257 . S
Zn238 O241 2.031 . S
Zn238 O243 2.049 . S
Zn238 O248 2.067 . S
Zn239 O240 1.962 . S
Zn239 O242 1.986 . S
Zn239 O244 1.996 . S
Zn239 O247 1.943 . S
O240 Zn239 1.962 . S
O240 C245 1.254 . S
O241 Zn238 2.031 . S
O241 C245 1.269 . S
O242 Zn239 1.986 . S
O242 C249 1.262 . S
O243 Zn238 2.049 . S
O243 C251 1.260 . S
O244 Zn239 1.996 . S
O244 C251 1.257 . S
C245 O240 1.254 . S
C245 O241 1.269 . S
C246 O247 1.249 . S
C246 O248 1.270 . S
O247 Zn239 1.943 . S
O247 C246 1.249 . S
O248 Zn238 2.067 . S
O248 C246 1.270 . S
C249 O242 1.262 . S
C249 O250 1.232 . S
O250 C249 1.232 . S
C251 O243 1.260 . S
C251 O244 1.257 . S
Zn252 O255 2.031 . S
Zn252 O257 2.049 . S
Zn252 O262 2.067 . S
Zn253 O254 1.962 . S
Zn253 O256 1.986 . S
Zn253 O258 1.996 . S
Zn253 O261 1.943 . S
O254 Zn253 1.962 . S
O254 C259 1.254 . S
O255 Zn252 2.031 . S
O255 C259 1.269 . S
O256 Zn253 1.986 . S
O256 C263 1.262 . S
O257 Zn252 2.049 . S
O257 C265 1.260 . S
O258 Zn253 1.996 . S
O258 C265 1.257 . S
C259 O254 1.254 . S
C259 O255 1.269 . S
C260 O261 1.249 . S
C260 O262 1.270 . S
O261 Zn253 1.943 . S
O261 C260 1.249 . S
O262 Zn252 2.067 . S
O262 C260 1.270 . S
C263 O256 1.262 . S
C263 O264 1.220 1_655 S
O264 C263 1.220 1_455 S
C265 O257 1.260 . S
C265 O258 1.257 . S
Zn266 O269 2.031 . S
Zn266 O271 2.049 . S
Zn266 O276 2.067 . S
Zn267 O268 1.962 . S
Zn267 O270 1.986 . S
Zn267 O272 1.996 . S
Zn267 O275 1.943 . S
O268 Zn267 1.962 . S
O268 C273 1.254 . S
O269 Zn266 2.031 . S
O269 C273 1.269 . S
O270 Zn267 1.986 . S
O270 C277 1.262 . S
O271 Zn266 2.049 . S
O271 C279 1.260 . S
O272 Zn267 1.996 . S
O272 C279 1.257 . S
C273 O268 1.254 . S
C273 O269 1.269 . S
C274 O275 1.249 . S
C274 O276 1.270 . S
O275 Zn267 1.943 . S
O275 C274 1.249 . S
O276 Zn266 2.067 . S
O276 C274 1.270 . S
C277 O270 1.262 . S
C277 O278 1.232 . S
O278 C277 1.232 . S
C279 O271 1.260 . S
C279 O272 1.257 . S
Zn280 O283 2.031 . S
Zn280 O285 2.049 . S
Zn280 O290 2.067 . S
Zn281 O282 1.962 . S
Zn281 O284 1.986 . S
Zn281 O286 1.996 . S
Zn281 O289 1.943 . S
O282 Zn281 1.962 . S
O282 C287 1.254 . S
O283 Zn280 2.031 . S
O283 C287 1.269 . S
O284 Zn281 1.986 . S
O284 C291 1.262 . S
O285 Zn280 2.049 . S
O285 C293 1.260 . S
O286 Zn281 1.996 . S
O286 C293 1.257 . S
C287 O282 1.254 . S
C287 O283 1.269 . S
C288 O289 1.249 . S
C288 O290 1.270 . S
O289 Zn281 1.943 . S
O289 C288 1.249 . S
O290 Zn280 2.067 . S
O290 C288 1.270 . S
C291 O284 1.262 . S
C291 O292 1.232 . S
O292 C291 1.232 . S
C293 O285 1.260 . S
C293 O286 1.257 . S
Zn294 O297 2.031 . S
Zn294 O299 2.049 . S
Zn294 O304 2.067 . S
Zn295 O296 1.962 . S
Zn295 O298 1.986 . S
Zn295 O300 1.996 . S
Zn295 O303 1.943 . S
O296 Zn295 1.962 . S
O296 C301 1.254 . S
O297 Zn294 2.031 . S
O297 C301 1.269 . S
O298 Zn295 1.986 . S
O298 C305 1.262 . S
O299 Zn294 2.049 . S
O299 C307 1.260 . S
O300 Zn295 1.996 . S
O300 C307 1.257 . S
C301 O296 1.254 . S
C301 O297 1.269 . S
C302 O303 1.249 . S
C302 O304 1.270 . S
O303 Zn295 1.943 . S
O303 C302 1.249 . S
O304 Zn294 2.067 . S
O304 C302 1.270 . S
C305 O298 1.262 . S
C305 O306 1.232 . S
O306 C305 1.232 . S
C307 O299 1.260 . S
C307 O300 1.257 . S
Zn308 O311 2.031 . S
Zn308 O313 2.049 . S
Zn308 O318 2.067 . S
Zn309 O310 1.962 . S
Zn309 O312 1.986 . S
Zn309 O314 1.996 . S
Zn309 O317 1.943 . S
O310 Zn309 1.962 . S
O310 C315 1.254 . S
O311 Zn308 2.031 . S
O311 C315 1.269 . S
O312 Zn309 1.986 . S
O312 C319 1.262 . S
O313 Zn308 2.049 . S
O313 C321 1.260 . S
O314 Zn309 1.996 . S
O314 C321 1.257 . S
C315 O310 1.254 . S
C315 O311 1.269 . S
C316 O317 1.249 . S
C316 O318 1.270 . S
O317 Zn309 1.943 . S
O317 C316 1.249 . S
O318 Zn308 2.067 . S
O318 C316 1.270 . S
C319 O312 1.262 . S
C319 O320 1.232 . S
O320 C319 1.232 . S
C321 O313 1.260 . S
C321 O314 1.257 . S
Zn322 O325 2.031 . S
Zn322 O327 2.049 . S
Zn322 O332 2.067 . S
Zn323 O324 1.962 . S
Zn323 O326 1.986 . S
Zn323 O328 1.996 . S
Zn323 O331 1.943 . S
O324 Zn323 1.962 . S
O324 C329 1.254 . S
O325 Zn322 2.031 . S
O325 C329 1.269 . S
O326 Zn323 1.986 . S
O326 C333 1.262 . S
O327 Zn322 2.049 . S
O327 C335 1.260 . S
O328 Zn323 1.996 . S
O328 C335 1.257 . S
C329 O324 1.254 . S
C329 O325 1.269 . S
C330 O331 1.249 . S
C330 O332 1.270 . S
O331 Zn323 1.943 . S
O331 C330 1.249 . S
O332 Zn322 2.067 . S
O332 C330 1.270 . S
C333 O326 1.262 . S
C333 O334 1.232 . S
O334 C333 1.232 . S
C335 O327 1.260 . S
C335 O328 1.257 . S
Zn336 O339 2.031 . S
Zn336 O341 2.049 . S
Zn336 O346 2.067 . S
Zn337 O338 1.962 . S
Zn337 O340 1.986 . S
Zn337 O342 1.996 . S
Zn337 O345 1.943 . S
O338 Zn337 1.962 . S
O338 C343 1.254 . S
O339 Zn336 2.031 . S
O339 C343 1.269 . S
O340 Zn337 1.986 . S
O340 C347 1.262 . S
O341 Zn336 2.049 . S
O341 C349 1.260 . S
O342 Zn337 1.996 . S
O342 C349 1.257 . S
C343 O338 1.254 . S
C343 O339 1.269 . S
C344 O345 1.249 . S
C344 O346 1.270 . S
O345 Zn337 1.943 . S
O345 C344 1.249 . S
O346 Zn336 2.067 . S
O346 C344 1.270 . S
C347 O340 1.262 . S
C347 O348 1.232 . S
O348 C347 1.232 . S
C349 O341 1.260 . S
C349 O342 1.257 . S
Zn350 O353 2.031 . S
Zn350 O355 2.049 . S
Zn350 O360 2.067 . S
Zn351 O352 1.962 . S
Zn351 O354 1.986 . S
Zn351 O356 1.996 . S
Zn351 O359 1.943 . S
O352 Zn351 1.962 . S
O352 C357 1.254 . S
O353 Zn350 2.031 . S
O353 C357 1.269 . S
O354 Zn351 1.986 . S
O354 C361 1.262 . S
O355 Zn350 2.049 . S
O355 C363 1.260 . S
O356 Zn351 1.996 . S
O356 C363 1.257 . S
C357 O352 1.254 . S
C357 O353 1.269 . S
C358 O359 1.249 . S
C358 O360 1.270 . S
O359 Zn351 1.943 . S
O359 C358 1.249 . S
O360 Zn350 2.067 . S
O360 C358 1.270 . S
C361 O354 1.262 . S
C361 O362 1.232 . S
O362 C361 1.232 . S
C363 O355 1.260 . S
C363 O356 1.257 . S
Zn364 O367 2.031 . S
Zn364 O369 2.049 1_655 S
Zn364 O374 2.067 . S
Zn365 O366 1.962 . S
Zn365 O368 1.986 . S
Zn365 O370 1.996 . S
Zn365 O373 1.943 1_455 S
O366 Zn365 1.962 . S
O366 C371 1.254 . S
O367 Zn364 2.031 . S
O367 C371 1.269 1_655 S
O368 Zn365 1.986 . S
O368 C375 1.262 . S
O369 Zn364 2.049 1_455 S
O369 C377 1.260 . S
O370 Zn365 1.996 . S
O370 C377 1.257 . S
C371 O366 1.254 . S
C371 O367 1.269 1_455 S
C372 O373 1.249 . S
C372 O374 1.270 . S
O373 Zn365 1.943 1_655 S
O373 C372 1.249 . S
O374 Zn364 2.067 . S
O374 C372 1.270 . S
C375 O368 1.262 . S
C375 O376 1.232 . S
O376 C375 1.232 . S
C377 O369 1.260 . S
C377 O370 1.257 . S
Zn378 O381 2.031 . S
Zn378 O383 2.049 . S
Zn378 O388 2.067 . S
Zn379 O380 1.962 . S
Zn379 O382 1.986 . S
Zn379 O384 1.996 . S
Zn379 O387 1.943 . S
O380 Zn379 1.962 . S
O380 C385 1.254 . S
O381 Zn378 2.031 . S
O381 C385 1.269 . S
O382 Zn379 1.986 . S
O382 C389 1.262 . S
O383 Zn378 2.049 . S
O383 C391 1.260 . S
O384 Zn379 1.996 . S
O384 C391 1.257 . S
C385 O380 1.254 . S
C385 O381 1.269 . S
C386 O387 1.249 . S
C386 O388 1.270 . S
O387 Zn379 1.943 . S
O387 C386 1.249 . S
O388 Zn378 2.067 . S
O388 C386 1.270 . S
C389 O382 1.262 . S
C389 O390 1.232 . S
O390 C389 1.232 . S
C391 O383 1.260 . S
C391 O384 1.257 . S
Zn392 O395 2.031 . S
Zn392 O397 2.049 . S
Zn392 O402 2.067 . S
Zn393 O394 1.962 . S
Zn393 O396 1.986 . S
Zn393 O398 1.996 . S
Zn393 O401 1.943 . S
O394 Zn393 1.962 . S
O394 C399 1.254 . S
O395 Zn392 2.031 . S
O395 C399 1.269 . S
O396 Zn393 1.986 . S
O396 C403 1.262 . S
O397 Zn392 2.049 . S
O397 C405 1.260 . S
O398 Zn393 1.996 . S
O398 C405 1.257 . S
C399 O394 1.254 . S
C399 O395 1.269 . S
C400 O401 1.249 . S
C400 O402 1.270 . S
O401 Zn393 1.943 . S
O401 C400 1.249 . S
O402 Zn392 2.067 . S
O402 C400 1.270 . S
C403 O396 1.262 . S
C403 O404 1.232 . S
O404 C403 1.232 . S
C405 O397 1.260 . S
C405 O398 1.257 . S
Zn406 O409 2.032 1_455 S
Zn406 O411 2.049 . S
Zn406 O416 2.067 . S
Zn407 O408 1.962 . S
Zn407 O410 1.986 . S
Zn407 O412 1.996 . S
Zn407 O415 1.943 . S
O408 Zn407 1.962 . S
O408 C413 1.300 . S
O409 Zn406 2.032 1_655 S
O409 C413 1.269 1_655 S
O410 Zn407 1.986 . S
O410 C417 1.262 . S
O411 Zn406 2.049 . S
O411 C419 1.260 . S
O412 Zn407 1.996 . S
O412 C419 1.257 . S
C413 O408 1.300 . S
C413 O409 1.269 1_455 S
C414 O415 1.249 . S
C414 O416 1.270 . S
O415 Zn407 1.943 . S
O415 C414 1.249 . S
O416 Zn406 2.067 . S
O416 C414 1.270 . S
C417 O410 1.262 . S
C417 O418 1.232 . S
O418 C417 1.232 . S
C419 O411 1.260 . S
C419 O412 1.257 . S
Zn420 O423 2.031 . S
Zn420 O425 2.049 . S
Zn420 O430 2.067 . S
Zn421 O422 1.962 . S
Zn421 O424 1.986 . S
Zn421 O426 1.996 . S
Zn421 O429 1.943 . S
O422 Zn421 1.962 . S
O422 C427 1.254 . S
O423 Zn420 2.031 . S
O423 C427 1.269 . S
O424 Zn421 1.986 . S
O424 C431 1.262 . S
O425 Zn420 2.049 . S
O425 C433 1.260 . S
O426 Zn421 1.996 . S
O426 C433 1.257 . S
C427 O422 1.254 . S
C427 O423 1.269 . S
C428 O429 1.249 . S
C428 O430 1.270 . S
O429 Zn421 1.943 . S
O429 C428 1.249 . S
O430 Zn420 2.067 . S
O430 C428 1.270 . S
C431 O424 1.262 . S
C431 O432 1.232 . S
O432 C431 1.232 . S
C433 O425 1.260 . S
C433 O426 1.257 . S
Zn434 O437 2.031 . S
Zn434 O439 2.049 . S
Zn434 O444 2.067 . S
Zn435 O436 1.962 . S
Zn435 O438 1.986 . S
Zn435 O440 1.996 . S
Zn435 O443 1.943 . S
O436 Zn435 1.962 . S
O436 C441 1.254 . S
O437 Zn434 2.031 . S
O437 C441 1.269 . S
O438 Zn435 1.986 . S
O438 C445 1.262 . S
O439 Zn434 2.049 . S
O439 C447 1.260 . S
O440 Zn435 1.996 . S
O440 C447 1.257 . S
C441 O436 1.254 . S
C441 O437 1.269 . S
C442 O443 1.249 . S
C442 O444 1.270 . S
O443 Zn435 1.943 . S
O443 C442 1.249 . S
O444 Zn434 2.067 . S
O444 C442 1.270 . S
C445 O438 1.262 . S
C445 O446 1.232 . S
O446 C445 1.232 . S
C447 O439 1.260 . S
C447 O440 1.257 . S
Zn448 O451 2.031 . S
Zn448 O453 2.049 . S
Zn448 O458 2.067 . S
Zn449 O450 1.962 . S
Zn449 O452 1.986 . S
Zn449 O454 1.996 . S
Zn449 O457 1.943 . S
O450 Zn449 1.962 . S
O450 C455 1.254 . S
O451 Zn448 2.031 . S
O451 C455 1.269 . S
O452 Zn449 1.986 . S
O452 C459 1.262 . S
O453 Zn448 2.049 . S
O453 C461 1.260 . S
O454 Zn449 1.996 . S
O454 C461 1.257 . S
C455 O450 1.254 . S
C455 O451 1.269 . S
C456 O457 1.249 . S
C456 O458 1.270 . S
O457 Zn449 1.943 . S
O457 C456 1.249 . S
O458 Zn448 2.067 . S
O458 C456 1.270 . S
C459 O452 1.262 . S
C459 O460 1.232 . S
O460 C459 1.232 . S
C461 O453 1.260 . S
C461 O454 1.257 . S
Zn462 O465 2.031 . S
Zn462 O467 2.049 . S
Zn462 O472 2.067 . S
Zn463 O464 1.962 . S
Zn463 O466 1.986 . S
Zn463 O468 1.996 . S
Zn463 O471 1.943 . S
O464 Zn463 1.962 . S
O464 C469 1.254 . S
O465 Zn462 2.031 . S
O465 C469 1.269 . S
O466 Zn463 1.986 . S
O466 C473 1.262 . S
O467 Zn462 2.049 . S
O467 C475 1.260 . S
O468 Zn463 1.996 . S
O468 C475 1.257 . S
C469 O464 1.254 . S
C469 O465 1.269 . S
C470 O471 1.249 . S
C470 O472 1.270 . S
O471 Zn463 1.943 . S
O471 C470 1.249 . S
O472 Zn462 2.067 . S
O472 C470 1.270 . S
C473 O466 1.262 . S
C473 O474 1.232 . S
O474 C473 1.232 . S
C475 O467 1.260 . S
C475 O468 1.257 . S
Zn476 O479 2.031 . S
Zn476 O481 2.049 . S
Zn476 O486 2.067 . S
Zn477 O478 1.962 . S
Zn477 O480 1.986 . S
Zn477 O482 1.996 . S
Zn477 O485 1.943 . S
O478 Zn477 1.962 . S
O478 C483 1.254 . S
O479 Zn476 2.031 . S
O479 C483 1.269 . S
O480 Zn477 1.986 . S
O480 C487 1.262 . S
O481 Zn476 2.049 . S
O481 C489 1.260 . S
O482 Zn477 1.996 . S
O482 C489 1.257 . S
C483 O478 1.254 . S
C483 O479 1.269 . S
C484 O485 1.249 . S
C484 O486 1.270 . S
O485 Zn477 1.943 . S
O485 C484 1.249 . S
O486 Zn476 2.067 . S
O486 C484 1.270 . S
C487 O480 1.262 . S
C487 O488 1.232 . S
O488 C487 1.232 . S
C489 O481 1.260 . S
C489 O482 1.257 . S
Zn490 O493 2.031 . S
Zn490 O495 2.049 . S
Zn490 O500 2.067 . S
Zn491 O492 1.962 . S
Zn491 O494 1.986 . S
Zn491 O496 1.996 . S
Zn491 O499 1.943 . S
O492 Zn491 1.962 . S
O492 C497 1.254 . S
O493 Zn490 2.031 . S
O493 C497 1.269 . S
O494 Zn491 1.986 . S
O494 C501 1.262 . S
O495 Zn490 2.049 . S
O495 C503 1.260 . S
O496 Zn491 1.996 . S
O496 C503 1.257 . S
C497 O492 1.254 . S
C497 O493 1.269 . S
C498 O499 1.249 . S
C498 O500 1.270 . S
O499 Zn491 1.943 . S
O499 C498 1.249 . S
O500 Zn490 2.067 . S
O500 C498 1.270 . S
C501 O494 1.262 . S
C501 O502 1.232 . S
O502 C501 1.232 . S
C503 O495 1.260 . S
C503 O496 1.257 . S
Zn504 O507 2.031 . S
Zn504 O509 2.049 . S
Zn504 O514 2.067 . S
Zn505 O506 1.962 . S
Zn505 O508 1.986 . S
Zn505 O510 1.996 . S
Zn505 O513 1.943 . S
O506 Zn505 1.962 . S
O506 C511 1.254 . S
O507 Zn504 2.031 . S
O507 C511 1.269 . S
O508 Zn505 1.986 . S
O508 C515 1.262 . S
O509 Zn504 2.049 . S
O509 C517 1.260 . S
O510 Zn505 1.996 . S
O510 C517 1.257 . S
C511 O506 1.254 . S
C511 O507 1.269 . S
C512 O513 1.249 . S
C512 O514 1.270 . S
O513 Zn505 1.943 . S
O513 C512 1.249 . S
O514 Zn504 2.067 . S
O514 C512 1.270 . S
C515 O508 1.262 . S
C515 O516 1.232 . S
O516 C515 1.232 . S
C517 O509 1.260 . S
C517 O510 1.257 . S
Zn518 O521 2.031 . S
Zn518 O523 2.049 . S
Zn518 O528 2.042 1_554 S
Zn519 O520 1.962 . S
Zn519 O522 1.986 . S
Zn519 O524 1.996 . S
Zn519 O527 1.943 . S
O520 Zn519 1.962 . S
O520 C525 1.254 1_556 S
O521 Zn518 2.031 . S
O521 C525 1.269 . S
O522 Zn519 1.986 . S
O522 C529 1.262 . S
O523 Zn518 2.049 . S
O523 C531 1.260 1_554 S
O524 Zn519 1.996 . S
O524 C531 1.257 . S
C525 O520 1.254 1_554 S
C525 O521 1.269 . S
C526 O527 1.249 . S
C526 O528 1.309 . S
O527 Zn519 1.943 . S
O527 C526 1.249 . S
O528 Zn518 2.042 1_556 S
O528 C526 1.309 . S
C529 O522 1.262 . S
C529 O530 1.232 . S
O530 C529 1.232 . S
C531 O523 1.260 1_556 S
C531 O524 1.257 . S
Zn532 O535 2.031 . S
Zn532 O537 2.049 . S
Zn532 O542 2.067 . S
Zn533 O534 1.962 . S
Zn533 O536 1.986 . S
Zn533 O538 1.996 . S
Zn533 O541 1.943 . S
O534 Zn533 1.962 . S
O534 C539 1.254 . S
O535 Zn532 2.031 . S
O535 C539 1.269 . S
O536 Zn533 1.986 . S
O536 C543 1.262 . S
O537 Zn532 2.049 . S
O537 C545 1.260 . S
O538 Zn533 1.996 . S
O538 C545 1.257 . S
C539 O534 1.254 . S
C539 O535 1.269 . S
C540 O541 1.249 . S
C540 O542 1.270 . S
O541 Zn533 1.943 . S
O541 C540 1.249 . S
O542 Zn532 2.067 . S
O542 C540 1.270 . S
C543 O536 1.262 . S
C543 O544 1.232 . S
O544 C543 1.232 . S
C545 O537 1.260 . S
C545 O538 1.257 . S
Zn546 O549 2.031 . S
Zn546 O551 2.049 . S
Zn546 O556 2.067 . S
Zn547 O548 1.962 . S
Zn547 O550 1.986 . S
Zn547 O552 1.996 . S
Zn547 O555 1.943 . S
O548 Zn547 1.962 . S
O548 C553 1.254 . S
O549 Zn546 2.031 . S
O549 C553 1.269 . S
O550 Zn547 1.986 . S
O550 C557 1.262 . S
O551 Zn546 2.049 . S
O551 C559 1.260 . S
O552 Zn547 1.996 . S
O552 C559 1.257 . S
C553 O548 1.254 . S
C553 O549 1.269 . S
C554 O555 1.249 . S
C554 O556 1.270 . S
O555 Zn547 1.943 . S
O555 C554 1.249 . S
O556 Zn546 2.067 . S
O556 C554 1.270 . S
C557 O550 1.262 . S
C557 O558 1.232 . S
O558 C557 1.232 . S
C559 O551 1.260 . S
C559 O552 1.257 . S
Zn560 O563 2.031 . S
Zn560 O565 2.049 . S
Zn560 O570 2.067 . S
Zn561 O562 1.962 . S
Zn561 O564 1.986 . S
Zn561 O566 1.996 . S
Zn561 O569 1.943 . S
O562 Zn561 1.962 . S
O562 C567 1.254 . S
O563 Zn560 2.031 . S
O563 C567 1.269 . S
O564 Zn561 1.986 . S
O564 C571 1.262 . S
O565 Zn560 2.049 . S
O565 C573 1.260 . S
O566 Zn561 1.996 . S
O566 C573 1.257 . S
C567 O562 1.254 . S
C567 O563 1.269 . S
C568 O569 1.249 . S
C568 O570 1.270 . S
O569 Zn561 1.943 . S
O569 C568 1.249 . S
O570 Zn560 2.067 . S
O570 C568 1.270 . S
C571 O564 1.262 . S
C571 O572 1.232 . S
O572 C571 1.232 . S
C573 O565 1.260 . S
C573 O566 1.257 . S
Zn574 O577 2.031 . S
Zn574 O579 2.049 . S
Zn574 O584 2.067 . S
Zn575 O576 1.962 . S
Zn575 O578 1.986 . S
Zn575 O580 1.996 . S
Zn575 O583 1.943 . S
O576 Zn575 1.962 . S
O576 C581 1.254 . S
O577 Zn574 2.031 . S
O577 C581 1.269 . S
O578 Zn575 1.986 . S
O578 C585 1.262 . S
O579 Zn574 2.049 . S
O579 C587 1.260 . S
O580 Zn575 1.996 . S
O580 C587 1.257 . S
C581 O576 1.254 . S
C581 O577 1.269 . S
C582 O583 1.249 . S
C582 O584 1.270 . S
O583 Zn575 1.943 . S
O583 C582 1.249 . S
O584 Zn574 2.067 . S
O584 C582 1.270 . S
C585 O578 1.262 . S
C585 O586 1.232 . S
O586 C585 1.232 . S
C587 O579 1.260 . S
C587 O580 1.257 . S
Zn588 O591 2.031 . S
Zn588 O593 2.049 . S
Zn588 O598 2.067 . S
Zn589 O590 1.962 . S
Zn589 O592 1.986 . S
Zn589 O594 1.996 . S
Zn589 O597 1.943 . S
O590 Zn589 1.962 . S
O590 C595 1.254 . S
O591 Zn588 2.031 . S
O591 C595 1.269 . S
O592 Zn589 1.986 . S
O592 C599 1.262 . S
O593 Zn588 2.049 . S
O593 C601 1.260 . S
O594 Zn589 1.996 . S
O594 C601 1.257 . S
C595 O590 1.254 . S
C595 O591 1.269 . S
C596 O597 1.249 . S
C596 O598 1.270 . S
O597 Zn589 1.943 . S
O597 C596 1.249 . S
O598 Zn588 2.067 . S
O598 C596 1.270 . S
C599 O592 1.262 . S
C599 O600 1.232 . S
O600 C599 1.232 . S
C601 O593 1.260 . S
C601 O594 1.257 . S
Zn602 O605 2.031 . S
Zn602 O607 2.049 1_556 S
Zn602 O612 2.067 . S
Zn603 O604 1.962 . S
Zn603 O606 1.986 . S
Zn603 O608 1.996 . S
Zn603 O611 1.943 1_554 S
O604 Zn603 1.962 . S
O604 C609 1.254 . S
O605 Zn602 2.031 . S
O605 C609 1.269 1_556 S
O606 Zn603 1.986 . S
O606 C613 1.262 . S
O607 Zn602 2.049 1_554 S
O607 C615 1.260 . S
O608 Zn603 1.996 . S
O608 C615 1.257 . S
C609 O604 1.254 . S
C609 O605 1.269 1_554 S
C610 O611 1.249 . S
C610 O612 1.270 . S
O611 Zn603 1.943 1_556 S
O611 C610 1.249 . S
O612 Zn602 2.067 . S
O612 C610 1.270 . S
C613 O606 1.262 . S
C613 O614 1.232 . S
O614 C613 1.232 . S
C615 O607 1.260 . S
C615 O608 1.257 . S
Zn616 O619 2.031 . S
Zn616 O621 2.049 . S
Zn616 O626 2.067 . S
Zn617 O618 1.962 . S
Zn617 O620 1.986 . S
Zn617 O622 1.996 . S
Zn617 O625 1.943 . S
O618 Zn617 1.962 . S
O618 C623 1.254 . S
O619 Zn616 2.031 . S
O619 C623 1.269 . S
O620 Zn617 1.986 . S
O620 C627 1.262 . S
O621 Zn616 2.049 . S
O621 C629 1.260 . S
O622 Zn617 1.996 . S
O622 C629 1.257 . S
C623 O618 1.254 . S
C623 O619 1.269 . S
C624 O625 1.249 . S
C624 O626 1.270 . S
O625 Zn617 1.943 . S
O625 C624 1.249 . S
O626 Zn616 2.067 . S
O626 C624 1.270 . S
C627 O620 1.262 . S
C627 O628 1.232 . S
O628 C627 1.232 . S
C629 O621 1.260 . S
C629 O622 1.257 . S
Zn630 O633 2.031 . S
Zn630 O635 2.049 . S
Zn630 O640 2.067 . S
Zn631 O632 1.962 . S
Zn631 O634 1.986 . S
Zn631 O636 1.996 . S
Zn631 O639 1.943 . S
O632 Zn631 1.962 . S
O632 C637 1.254 . S
O633 Zn630 2.031 . S
O633 C637 1.269 . S
O634 Zn631 1.986 . S
O634 C641 1.262 . S
O635 Zn630 2.049 . S
O635 C643 1.260 . S
O636 Zn631 1.996 . S
O636 C643 1.257 . S
C637 O632 1.254 . S
C637 O633 1.269 . S
C638 O639 1.249 . S
C638 O640 1.270 . S
O639 Zn631 1.943 . S
O639 C638 1.249 . S
O640 Zn630 2.067 . S
O640 C638 1.270 . S
C641 O634 1.262 . S
C641 O642 1.232 . S
O642 C641 1.232 . S
C643 O635 1.260 . S
C643 O636 1.257 . S
Zn644 O647 2.031 . S
Zn644 O649 2.049 . S
Zn644 O654 2.042 1_545 S
Zn645 O646 1.962 . S
Zn645 O648 1.986 . S
Zn645 O650 1.996 . S
Zn645 O653 1.943 . S
O646 Zn645 1.962 . S
O646 C651 1.254 1_565 S
O647 Zn644 2.031 . S
O647 C651 1.269 . S
O648 Zn645 1.986 . S
O648 C655 1.262 . S
O649 Zn644 2.049 . S
O649 C657 1.260 1_545 S
O650 Zn645 1.996 . S
O650 C657 1.257 . S
C651 O646 1.254 1_545 S
C651 O647 1.269 . S
C652 O653 1.249 . S
C652 O654 1.310 . S
O653 Zn645 1.943 . S
O653 C652 1.249 . S
O654 Zn644 2.042 1_565 S
O654 C652 1.310 . S
C655 O648 1.262 . S
C655 O656 1.232 . S
O656 C655 1.232 . S
C657 O649 1.260 1_565 S
C657 O650 1.257 . S
Zn658 O661 2.032 1_545 S
Zn658 O663 2.049 . S
Zn658 O668 2.067 . S
Zn659 O660 1.962 . S
Zn659 O662 1.986 . S
Zn659 O664 1.996 . S
Zn659 O667 1.943 . S
O660 Zn659 1.962 . S
O660 C665 1.300 . S
O661 Zn658 2.032 1_565 S
O661 C665 1.269 1_565 S
O662 Zn659 1.986 . S
O662 C669 1.262 . S
O663 Zn658 2.049 . S
O663 C671 1.260 . S
O664 Zn659 1.996 . S
O664 C671 1.257 . S
C665 O660 1.300 . S
C665 O661 1.269 1_545 S
C666 O667 1.249 . S
C666 O668 1.270 . S
O667 Zn659 1.943 . S
O667 C666 1.249 . S
O668 Zn658 2.067 . S
O668 C666 1.270 . S
C669 O662 1.262 . S
C669 O670 1.232 . S
O670 C669 1.232 . S
C671 O663 1.260 . S
C671 O664 1.257 . S
H672 C678 0.930 . S
H673 C682 0.930 . S
H674 C687 0.929 . S
H675 C685 0.929 . S
H676 C680 0.929 . S
H677 C686 0.929 . S
C678 H672 0.930 . S
C678 C679 1.367 . S
C678 C686 1.378 . S
C679 C678 1.367 . S
C679 C687 1.433 . S
C680 H676 0.929 . S
C680 C682 1.378 . S
C680 C684 1.350 . S
C681 C684 1.463 . S
C681 C686 1.350 . S
C681 N689 1.427 . S
C682 H673 0.930 . S
C682 C680 1.378 . S
C682 C683 1.367 . S
C683 C682 1.367 . S
C683 C685 1.433 1_455 S
C684 C680 1.350 . S
C684 C681 1.463 . S
C684 N688 1.463 . S
C685 H675 0.929 . S
C685 C683 1.433 1_655 S
C685 N688 1.370 1_655 S
C686 H677 0.929 . S
C686 C678 1.378 . S
C686 C681 1.350 . S
C687 H674 0.929 . S
C687 C679 1.433 . S
C687 N689 1.384 . S
N688 C684 1.463 . S
N688 C685 1.370 1_455 S
N689 C681 1.427 . S
N689 C687 1.384 . S
H690 C696 0.930 . S
H691 C700 0.983 . S
H692 C705 0.929 . S
H693 C703 0.929 . S
H694 C698 0.929 . S
H695 C704 0.929 . S
C696 H690 0.930 . S
C696 C697 1.367 . S
C696 C704 1.378 . S
C697 C696 1.367 . S
C697 C705 1.433 . S
C698 H694 0.929 . S
C698 C700 1.378 . S
C698 C702 1.350 . S
C699 C702 1.463 . S
C699 C704 1.350 . S
C699 N707 1.427 . S
C700 H691 0.983 . S
C700 C698 1.378 . S
C700 C701 1.367 . S
C701 C700 1.367 . S
C701 C703 1.433 . S
C702 C698 1.350 . S
C702 C699 1.463 . S
C702 N706 1.427 . S
C703 H693 0.929 . S
C703 C701 1.433 . S
C703 N706 1.384 . S
C704 H695 0.929 . S
C704 C696 1.378 . S
C704 C699 1.350 . S
C705 H692 0.929 . S
C705 C697 1.433 . S
C705 N707 1.384 . S
N706 C702 1.427 . S
N706 C703 1.384 . S
N707 C699 1.427 . S
N707 C705 1.384 . S
H708 C714 0.930 . S
H709 C718 0.930 . S
H710 C723 0.929 . S
H711 C721 0.929 . S
H712 C716 0.929 . S
H713 C722 0.929 . S
C714 H708 0.930 . S
C714 C715 1.367 . S
C714 C722 1.378 . S
C715 C714 1.367 . S
C715 C723 1.433 . S
C716 H712 0.929 . S
C716 C718 1.378 . S
C716 C720 1.350 . S
C717 C720 1.463 . S
C717 C722 1.350 . S
C717 N725 1.427 . S
C718 H709 0.930 . S
C718 C716 1.378 . S
C718 C719 1.367 . S
C719 C718 1.367 . S
C719 C721 1.433 . S
C720 C716 1.350 . S
C720 C717 1.463 . S
C720 N724 1.427 . S
C721 H711 0.929 . S
C721 C719 1.433 . S
C721 N724 1.384 . S
C722 H713 0.929 . S
C722 C714 1.378 . S
C722 C717 1.350 . S
C723 H710 0.929 . S
C723 C715 1.433 . S
C723 N725 1.384 . S
N724 C720 1.427 . S
N724 C721 1.384 . S
N725 C717 1.427 . S
N725 C723 1.384 . S
H726 C732 0.930 . S
H727 C736 0.930 . S
H728 C741 0.929 . S
H729 C739 0.915 1_554 S
H730 C734 0.929 . S
H731 C740 0.929 . S
C732 H726 0.930 . S
C732 C733 1.367 . S
C732 C740 1.378 . S
C733 C732 1.367 . S
C733 C741 1.433 . S
C734 H730 0.929 . S
C734 C736 1.378 . S
C734 C738 1.350 . S
C735 C738 1.463 . S
C735 C740 1.350 . S
C735 N743 1.427 . S
C736 H727 0.930 . S
C736 C734 1.378 . S
C736 C737 1.367 . S
C737 C736 1.367 . S
C737 C739 1.433 . S
C738 C734 1.350 . S
C738 C735 1.463 . S
C738 N742 1.427 . S
C739 H729 0.915 1_556 S
C739 C737 1.433 . S
C739 N742 1.384 . S
C740 H731 0.929 . S
C740 C732 1.378 . S
C740 C735 1.350 . S
C741 H728 0.929 . S
C741 C733 1.433 . S
C741 N743 1.384 . S
N742 C738 1.427 . S
N742 C739 1.384 . S
N743 C735 1.427 . S
N743 C741 1.384 . S
H744 C750 0.930 . S
H745 C754 0.930 . S
H746 C759 0.929 . S
H747 C757 0.929 . S
H748 C752 0.929 . S
H749 C758 0.929 . S
C750 H744 0.930 . S
C750 C751 1.367 . S
C750 C758 1.378 . S
C751 C750 1.367 . S
C751 C759 1.433 . S
C752 H748 0.929 . S
C752 C754 1.378 . S
C752 C756 1.350 . S
C753 C756 1.463 . S
C753 C758 1.350 . S
C753 N761 1.427 . S
C754 H745 0.930 . S
C754 C752 1.378 . S
C754 C755 1.367 . S
C755 C754 1.367 . S
C755 C757 1.433 . S
C756 C752 1.350 . S
C756 C753 1.463 . S
C756 N760 1.427 . S
C757 H747 0.929 . S
C757 C755 1.433 . S
C757 N760 1.384 . S
C758 H749 0.929 . S
C758 C750 1.378 . S
C758 C753 1.350 . S
C759 H746 0.929 . S
C759 C751 1.433 . S
C759 N761 1.384 . S
N760 C756 1.427 . S
N760 C757 1.384 . S
N761 C753 1.427 . S
N761 C759 1.384 . S
H762 C768 0.930 . S
H763 C772 0.930 . S
H764 C777 0.929 . S
H765 C775 0.929 . S
H766 C770 0.929 . S
H767 C776 0.929 . S
C768 H762 0.930 . S
C768 C769 1.367 . S
C768 C776 1.378 . S
C769 C768 1.367 . S
C769 C777 1.433 . S
C770 H766 0.929 . S
C770 C772 1.378 . S
C770 C774 1.350 . S
C771 C774 1.463 . S
C771 C776 1.350 . S
C771 N779 1.427 . S
C772 H763 0.930 . S
C772 C770 1.378 . S
C772 C773 1.367 . S
C773 C772 1.367 . S
C773 C775 1.433 . S
C774 C770 1.350 . S
C774 C771 1.463 . S
C774 N778 1.427 . S
C775 H765 0.929 . S
C775 C773 1.433 . S
C775 N778 1.384 . S
C776 H767 0.929 . S
C776 C768 1.378 . S
C776 C771 1.350 . S
C777 H764 0.929 . S
C777 C769 1.433 . S
C777 N779 1.384 . S
N778 C774 1.427 . S
N778 C775 1.384 . S
N779 C771 1.427 . S
N779 C777 1.384 . S
H780 C786 0.930 . S
H781 C790 0.930 . S
H782 C795 0.929 . S
H783 C793 0.929 . S
H784 C788 0.929 . S
H785 C794 0.929 . S
C786 H780 0.930 . S
C786 C787 1.367 . S
C786 C794 1.378 . S
C787 C786 1.367 . S
C787 C795 1.433 . S
C788 H784 0.929 . S
C788 C790 1.378 . S
C788 C792 1.350 . S
C789 C792 1.463 . S
C789 C794 1.350 . S
C789 N797 1.427 . S
C790 H781 0.930 . S
C790 C788 1.378 . S
C790 C791 1.367 . S
C791 C790 1.367 . S
C791 C793 1.433 . S
C792 C788 1.350 . S
C792 C789 1.463 . S
C792 N796 1.427 . S
C793 H783 0.929 . S
C793 C791 1.433 . S
C793 N796 1.384 . S
C794 H785 0.929 . S
C794 C786 1.378 . S
C794 C789 1.350 . S
C795 H782 0.929 . S
C795 C787 1.433 . S
C795 N797 1.384 . S
N796 C792 1.427 . S
N796 C793 1.384 . S
N797 C789 1.427 . S
N797 C795 1.384 . S
H798 C804 0.930 . S
H799 C808 0.930 1_455 S
H800 C813 0.929 . S
H801 C811 0.929 . S
H802 C806 0.929 . S
H803 C812 0.929 . S
C804 H798 0.930 . S
C804 C805 1.367 . S
C804 C812 1.378 . S
C805 C804 1.367 . S
C805 C813 1.433 . S
C806 H802 0.929 . S
C806 C808 1.378 . S
C806 C810 1.350 . S
C807 C810 1.463 . S
C807 C812 1.350 . S
C807 N815 1.427 . S
C808 H799 0.930 1_655 S
C808 C806 1.378 . S
C808 C809 1.367 . S
C809 C808 1.367 . S
C809 C811 1.433 . S
C810 C806 1.350 . S
C810 C807 1.463 . S
C810 N814 1.427 . S
C811 H801 0.929 . S
C811 C809 1.433 . S
C811 N814 1.384 . S
C812 H803 0.929 . S
C812 C804 1.378 . S
C812 C807 1.350 . S
C813 H800 0.929 . S
C813 C805 1.433 . S
C813 N815 1.384 . S
N814 C810 1.427 . S
N814 C811 1.384 . S
N815 C807 1.427 . S
N815 C813 1.384 . S
H816 C822 0.914 1_565 S
H817 C826 0.930 . S
H818 C831 0.929 . S
H819 C829 0.929 . S
H820 C824 0.929 . S
H821 C830 0.929 . S
C822 H816 0.914 1_545 S
C822 C823 1.374 . S
C822 C830 1.389 . S
C823 C822 1.374 . S
C823 C831 1.433 . S
C824 H820 0.929 . S
C824 C826 1.378 . S
C824 C828 1.350 . S
C825 C828 1.463 . S
C825 C830 1.350 . S
C825 N833 1.427 . S
C826 H817 0.930 . S
C826 C824 1.378 . S
C826 C827 1.367 . S
C827 C826 1.367 . S
C827 C829 1.433 . S
C828 C824 1.350 . S
C828 C825 1.463 . S
C828 N832 1.427 . S
C829 H819 0.929 . S
C829 C827 1.433 . S
C829 N832 1.384 . S
C830 H821 0.929 . S
C830 C822 1.389 . S
C830 C825 1.350 . S
C831 H818 0.929 . S
C831 C823 1.433 . S
C831 N833 1.384 . S
N832 C828 1.427 . S
N832 C829 1.384 . S
N833 C825 1.427 . S
N833 C831 1.384 . S
H834 C840 0.930 1_545 S
H835 C844 0.930 . S
H836 C849 0.929 . S
H837 C847 0.929 . S
H838 C842 0.929 . S
H839 C848 0.929 . S
C840 H834 0.930 1_565 S
C840 C841 1.367 . S
C840 C848 1.378 . S
C841 C840 1.367 . S
C841 C849 1.433 . S
C842 H838 0.929 . S
C842 C844 1.378 . S
C842 C846 1.350 . S
C843 C846 1.463 . S
C843 C848 1.350 . S
C843 N851 1.427 . S
C844 H835 0.930 . S
C844 C842 1.378 . S
C844 C845 1.367 . S
C845 C844 1.367 . S
C845 C847 1.433 . S
C846 C842 1.350 . S
C846 C843 1.463 . S
C846 N850 1.427 . S
C847 H837 0.929 . S
C847 C845 1.433 . S
C847 N850 1.384 . S
C848 H839 0.929 . S
C848 C840 1.378 . S
C848 C843 1.350 . S
C849 H836 0.929 . S
C849 C841 1.433 . S
C849 N851 1.384 . S
N850 C846 1.427 . S
N850 C847 1.384 . S
N851 C843 1.427 . S
N851 C849 1.384 . S
H852 C858 0.930 . S
H853 C862 0.930 . S
H854 C867 0.929 . S
H855 C865 0.929 . S
H856 C860 0.929 . S
H857 C866 0.929 . S
C858 H852 0.930 . S
C858 C859 1.367 . S
C858 C866 1.378 . S
C859 C858 1.367 . S
C859 C867 1.433 . S
C860 H856 0.929 . S
C860 C862 1.378 . S
C860 C864 1.350 . S
C861 C864 1.463 . S
C861 C866 1.350 . S
C861 N869 1.427 . S
C862 H853 0.930 . S
C862 C860 1.378 . S
C862 C863 1.367 . S
C863 C862 1.367 . S
C863 C865 1.433 . S
C864 C860 1.350 . S
C864 C861 1.463 . S
C864 N868 1.427 . S
C865 H855 0.929 . S
C865 C863 1.433 . S
C865 N868 1.384 . S
C866 H857 0.929 . S
C866 C858 1.378 . S
C866 C861 1.350 . S
C867 H854 0.929 . S
C867 C859 1.433 . S
C867 N869 1.384 . S
N868 C864 1.427 . S
N868 C865 1.384 . S
N869 C861 1.427 . S
N869 C867 1.384 . S
H870 C876 0.930 . S
H871 C880 0.930 . S
H872 C885 0.881 1_554 S
H873 C883 0.929 . S
H874 C878 0.929 . S
H875 C884 0.929 . S
C876 H870 0.930 . S
C876 C877 1.367 . S
C876 C884 1.378 . S
C877 C876 1.367 . S
C877 C885 1.433 . S
C878 H874 0.929 . S
C878 C880 1.378 . S
C878 C882 1.350 . S
C879 C882 1.463 . S
C879 C884 1.350 . S
C879 N887 1.427 . S
C880 H871 0.930 . S
C880 C878 1.378 . S
C880 C881 1.367 . S
C881 C880 1.367 . S
C881 C883 1.433 . S
C882 C878 1.350 . S
C882 C879 1.463 . S
C882 N886 1.427 . S
C883 H873 0.929 . S
C883 C881 1.433 . S
C883 N886 1.384 . S
C884 H875 0.929 . S
C884 C876 1.378 . S
C884 C879 1.350 . S
C885 H872 0.881 1_556 S
C885 C877 1.433 . S
C885 N887 1.384 . S
N886 C882 1.427 . S
N886 C883 1.384 . S
N887 C879 1.427 . S
N887 C885 1.384 . S
H888 C894 0.930 . S
H889 C898 0.930 . S
H890 C903 0.929 . S
H891 C901 0.902 1_556 S
H892 C896 0.929 . S
H893 C902 0.929 . S
C894 H888 0.930 . S
C894 C895 1.367 1_556 S
C894 C902 1.378 . S
C895 C894 1.367 1_554 S
C895 C903 1.433 . S
C896 H892 0.929 . S
C896 C898 1.378 . S
C896 C900 1.350 . S
C897 C900 1.463 . S
C897 C902 1.350 1_554 S
C897 N905 1.427 . S
C898 H889 0.930 . S
C898 C896 1.378 . S
C898 C899 1.367 . S
C899 C898 1.367 . S
C899 C901 1.433 . S
C900 C896 1.350 . S
C900 C897 1.463 . S
C900 N904 1.427 . S
C901 H891 0.902 1_554 S
C901 C899 1.433 . S
C901 N904 1.384 . S
C902 H893 0.929 . S
C902 C894 1.378 . S
C902 C897 1.350 1_556 S
C903 H890 0.929 . S
C903 C895 1.433 . S
C903 N905 1.384 . S
N904 C900 1.427 . S
N904 C901 1.384 . S
N905 C897 1.427 . S
N905 C903 1.384 . S
H906 C912 0.930 . S
H907 C916 0.930 . S
H908 C921 0.929 . S
H909 C919 0.929 . S
H910 C914 0.929 . S
H911 C920 0.929 . S
C912 H906 0.930 . S
C912 C913 1.367 . S
C912 C920 1.378 . S
C913 C912 1.367 . S
C913 C921 1.433 . S
C914 H910 0.929 . S
C914 C916 1.378 . S
C914 C918 1.350 . S
C915 C918 1.463 . S
C915 C920 1.350 . S
C915 N923 1.427 . S
C916 H907 0.930 . S
C916 C914 1.378 . S
C916 C917 1.367 . S
C917 C916 1.367 . S
C917 C919 1.433 . S
C918 C914 1.350 . S
C918 C915 1.463 . S
C918 N922 1.427 . S
C919 H909 0.929 . S
C919 C917 1.433 . S
C919 N922 1.384 . S
C920 H911 0.929 . S
C920 C912 1.378 . S
C920 C915 1.350 . S
C921 H908 0.929 . S
C921 C913 1.433 . S
C921 N923 1.384 . S
N922 C918 1.427 . S
N922 C919 1.384 . S
N923 C915 1.427 . S
N923 C921 1.384 . S
H924 C930 0.930 . S
H925 C934 0.930 1_455 S
H926 C939 0.929 . S
H927 C937 0.929 . S
H928 C932 0.929 . S
H929 C938 0.929 . S
C930 H924 0.930 . S
C930 C931 1.367 . S
C930 C938 1.378 . S
C931 C930 1.367 . S
C931 C939 1.433 . S
C932 H928 0.929 . S
C932 C934 1.378 . S
C932 C936 1.350 . S
C933 C936 1.463 . S
C933 C938 1.350 . S
C933 N941 1.427 . S
C934 H925 0.930 1_655 S
C934 C932 1.378 . S
C934 C935 1.367 . S
C935 C934 1.367 . S
C935 C937 1.433 . S
C936 C932 1.350 . S
C936 C933 1.463 . S
C936 N940 1.427 . S
C937 H927 0.929 . S
C937 C935 1.433 . S
C937 N940 1.384 . S
C938 H929 0.929 . S
C938 C930 1.378 . S
C938 C933 1.350 . S
C939 H926 0.929 . S
C939 C931 1.433 . S
C939 N941 1.384 . S
N940 C936 1.427 . S
N940 C937 1.384 . S
N941 C933 1.427 . S
N941 C939 1.384 . S
H942 C948 0.930 . S
H943 C952 0.930 . S
H944 C957 0.929 . S
H945 C955 0.929 . S
H946 C950 0.929 . S
H947 C956 0.929 . S
C948 H942 0.930 . S
C948 C949 1.367 . S
C948 C956 1.378 . S
C949 C948 1.367 . S
C949 C957 1.433 . S
C950 H946 0.929 . S
C950 C952 1.378 . S
C950 C954 1.350 . S
C951 C954 1.463 . S
C951 C956 1.350 . S
C951 N959 1.427 . S
C952 H943 0.930 . S
C952 C950 1.378 . S
C952 C953 1.367 . S
C953 C952 1.367 . S
C953 C955 1.433 . S
C954 C950 1.350 . S
C954 C951 1.463 . S
C954 N958 1.427 . S
C955 H945 0.929 . S
C955 C953 1.433 . S
C955 N958 1.384 . S
C956 H947 0.929 . S
C956 C948 1.378 . S
C956 C951 1.350 . S
C957 H944 0.929 . S
C957 C949 1.433 . S
C957 N959 1.384 . S
N958 C954 1.427 . S
N958 C955 1.384 . S
N959 C951 1.427 . S
N959 C957 1.384 . S
H960 C966 0.930 . S
H961 C970 0.930 . S
H962 C975 0.929 1_545 S
H963 C973 0.929 . S
H964 C968 0.929 . S
H965 C974 0.929 . S
C966 H960 0.930 . S
C966 C967 1.367 . S
C966 C974 1.378 . S
C967 C966 1.367 . S
C967 C975 1.433 . S
C968 H964 0.929 . S
C968 C970 1.378 . S
C968 C972 1.350 . S
C969 C972 1.463 . S
C969 C974 1.350 . S
C969 N977 1.427 . S
C970 H961 0.930 . S
C970 C968 1.378 . S
C970 C971 1.367 . S
C971 C970 1.367 . S
C971 C973 1.433 . S
C972 C968 1.350 . S
C972 C969 1.463 . S
C972 N976 1.427 . S
C973 H963 0.929 . S
C973 C971 1.433 . S
C973 N976 1.384 . S
C974 H965 0.929 . S
C974 C966 1.378 . S
C974 C969 1.350 . S
C975 H962 0.929 1_565 S
C975 C967 1.433 . S
C975 N977 1.384 . S
N976 C972 1.427 . S
N976 C973 1.384 . S
N977 C969 1.427 . S
N977 C975 1.384 . S
H978 C984 0.930 . S
H979 C988 0.930 . S
H980 C993 0.929 . S
H981 C991 0.929 . S
H982 C986 0.929 . S
H983 C992 0.929 . S
C984 H978 0.930 . S
C984 C985 1.367 . S
C984 C992 1.378 . S
C985 C984 1.367 . S
C985 C993 1.433 . S
C986 H982 0.929 . S
C986 C988 1.378 . S
C986 C990 1.350 . S
C987 C990 1.463 . S
C987 C992 1.350 . S
C987 N995 1.427 . S
C988 H979 0.930 . S
C988 C986 1.378 . S
C988 C989 1.367 . S
C989 C988 1.367 . S
C989 C991 1.433 . S
C990 C986 1.350 . S
C990 C987 1.463 . S
C990 N994 1.427 . S
C991 H981 0.929 . S
C991 C989 1.433 . S
C991 N994 1.384 . S
C992 H983 0.929 . S
C992 C984 1.378 . S
C992 C987 1.350 . S
C993 H980 0.929 . S
C993 C985 1.433 . S
C993 N995 1.384 . S
N994 C990 1.427 . S
N994 C991 1.384 . S
N995 C987 1.427 . S
N995 C993 1.384 . S
H996 C1002 0.930 . S
H997 C1006 0.930 . S
H998 C1011 0.929 . S
H999 C1009 0.929 . S
H1000 C1004 0.929 . S
H1001 C1010 0.929 . S
C1002 H996 0.930 . S
C1002 C1003 1.367 . S
C1002 C1010 1.378 . S
C1003 C1002 1.367 . S
C1003 C1011 1.433 . S
C1004 H1000 0.929 . S
C1004 C1006 1.378 . S
C1004 C1008 1.350 . S
C1005 C1008 1.463 . S
C1005 C1010 1.350 . S
C1005 N1013 1.427 . S
C1006 H997 0.930 . S
C1006 C1004 1.378 . S
C1006 C1007 1.367 . S
C1007 C1006 1.367 . S
C1007 C1009 1.433 . S
C1008 C1004 1.350 . S
C1008 C1005 1.463 . S
C1008 N1012 1.427 . S
C1009 H999 0.929 . S
C1009 C1007 1.433 . S
C1009 N1012 1.384 . S
C1010 H1001 0.929 . S
C1010 C1002 1.378 . S
C1010 C1005 1.350 . S
C1011 H998 0.929 . S
C1011 C1003 1.433 . S
C1011 N1013 1.384 . S
N1012 C1008 1.427 . S
N1012 C1009 1.384 . S
N1013 C1005 1.427 . S
N1013 C1011 1.384 . S
H1014 C1020 0.930 . S
H1015 C1024 0.930 . S
H1016 C1029 0.929 . S
H1017 C1027 0.929 . S
H1018 C1022 0.929 . S
H1019 C1028 0.929 . S
C1020 H1014 0.930 . S
C1020 C1021 1.367 . S
C1020 C1028 1.378 . S
C1021 C1020 1.367 . S
C1021 C1029 1.433 . S
C1022 H1018 0.929 . S
C1022 C1024 1.378 . S
C1022 C1026 1.350 . S
C1023 C1026 1.463 . S
C1023 C1028 1.350 . S
C1023 N1031 1.427 . S
C1024 H1015 0.930 . S
C1024 C1022 1.378 . S
C1024 C1025 1.367 . S
C1025 C1024 1.367 . S
C1025 C1027 1.433 . S
C1026 C1022 1.350 . S
C1026 C1023 1.463 . S
C1026 N1030 1.427 . S
C1027 H1017 0.929 . S
C1027 C1025 1.433 . S
C1027 N1030 1.384 . S
C1028 H1019 0.929 . S
C1028 C1020 1.378 . S
C1028 C1023 1.350 . S
C1029 H1016 0.929 . S
C1029 C1021 1.433 . S
C1029 N1031 1.384 . S
N1030 C1026 1.427 . S
N1030 C1027 1.384 . S
N1031 C1023 1.427 . S
N1031 C1029 1.384 . S
H1032 C1038 0.930 1_556 S
H1033 C1042 0.930 . S
H1034 C1047 0.929 . S
H1035 C1045 0.929 . S
H1036 C1040 0.929 . S
H1037 C1046 0.929 . S
C1038 H1032 0.930 1_554 S
C1038 C1039 1.367 . S
C1038 C1046 1.378 . S
C1039 C1038 1.367 . S
C1039 C1047 1.433 . S
C1040 H1036 0.929 . S
C1040 C1042 1.378 . S
C1040 C1044 1.350 . S
C1041 C1044 1.463 . S
C1041 C1046 1.350 . S
C1041 N1049 1.427 . S
C1042 H1033 0.930 . S
C1042 C1040 1.378 . S
C1042 C1043 1.367 . S
C1043 C1042 1.367 . S
C1043 C1045 1.433 . S
C1044 C1040 1.350 . S
C1044 C1041 1.463 . S
C1044 N1048 1.427 . S
C1045 H1035 0.929 . S
C1045 C1043 1.433 . S
C1045 N1048 1.384 . S
C1046 H1037 0.929 . S
C1046 C1038 1.378 . S
C1046 C1041 1.350 . S
C1047 H1034 0.929 . S
C1047 C1039 1.433 . S
C1047 N1049 1.384 . S
N1048 C1044 1.427 . S
N1048 C1045 1.384 . S
N1049 C1041 1.427 . S
N1049 C1047 1.384 . S
H1050 C1056 0.930 . S
H1051 C1060 0.930 . S
H1052 C1065 0.929 . S
H1053 C1063 0.929 . S
H1054 C1058 0.929 . S
H1055 C1064 0.929 . S
C1056 H1050 0.930 . S
C1056 C1057 1.367 . S
C1056 C1064 1.378 . S
C1057 C1056 1.367 . S
C1057 C1065 1.433 . S
C1058 H1054 0.929 . S
C1058 C1060 1.378 . S
C1058 C1062 1.350 . S
C1059 C1062 1.463 . S
C1059 C1064 1.350 . S
C1059 N1067 1.427 . S
C1060 H1051 0.930 . S
C1060 C1058 1.378 . S
C1060 C1061 1.367 . S
C1061 C1060 1.367 . S
C1061 C1063 1.433 . S
C1062 C1058 1.350 . S
C1062 C1059 1.463 . S
C1062 N1066 1.427 . S
C1063 H1053 0.929 . S
C1063 C1061 1.433 . S
C1063 N1066 1.384 . S
C1064 H1055 0.929 . S
C1064 C1056 1.378 . S
C1064 C1059 1.350 . S
C1065 H1052 0.929 . S
C1065 C1057 1.433 . S
C1065 N1067 1.384 . S
N1066 C1062 1.427 . S
N1066 C1063 1.384 . S
N1067 C1059 1.427 . S
N1067 C1065 1.384 . S
H1068 C1074 0.930 . S
H1069 C1078 0.930 . S
H1070 C1083 0.929 . S
H1071 C1081 0.929 . S
H1072 C1076 0.929 . S
H1073 C1082 0.929 . S
C1074 H1068 0.930 . S
C1074 C1075 1.367 . S
C1074 C1082 1.378 . S
C1075 C1074 1.367 . S
C1075 C1083 1.433 . S
C1076 H1072 0.929 . S
C1076 C1078 1.378 . S
C1076 C1080 1.350 . S
C1077 C1080 1.463 . S
C1077 C1082 1.350 . S
C1077 N1085 1.427 . S
C1078 H1069 0.930 . S
C1078 C1076 1.378 . S
C1078 C1079 1.367 . S
C1079 C1078 1.367 . S
C1079 C1081 1.433 . S
C1080 C1076 1.350 . S
C1080 C1077 1.463 . S
C1080 N1084 1.427 . S
C1081 H1071 0.929 . S
C1081 C1079 1.433 . S
C1081 N1084 1.384 . S
C1082 H1073 0.929 . S
C1082 C1074 1.378 . S
C1082 C1077 1.350 . S
C1083 H1070 0.929 . S
C1083 C1075 1.433 . S
C1083 N1085 1.384 . S
N1084 C1080 1.427 . S
N1084 C1081 1.384 . S
N1085 C1077 1.427 . S
N1085 C1083 1.384 . S
H1086 C1092 0.930 . S
H1087 C1096 0.924 1_565 S
H1088 C1101 0.929 . S
H1089 C1099 0.929 . S
H1090 C1094 0.929 . S
H1091 C1100 0.929 . S
C1092 H1086 0.930 . S
C1092 C1093 1.367 . S
C1092 C1100 1.378 . S
C1093 C1092 1.367 . S
C1093 C1101 1.433 . S
C1094 H1090 0.929 . S
C1094 C1096 1.378 . S
C1094 C1098 1.350 . S
C1095 C1098 1.463 . S
C1095 C1100 1.350 . S
C1095 N1103 1.427 . S
C1096 H1087 0.924 1_545 S
C1096 C1094 1.378 . S
C1096 C1097 1.367 . S
C1097 C1096 1.367 . S
C1097 C1099 1.433 . S
C1098 C1094 1.350 . S
C1098 C1095 1.463 . S
C1098 N1102 1.427 . S
C1099 H1089 0.929 . S
C1099 C1097 1.433 . S
C1099 N1102 1.384 . S
C1100 H1091 0.929 . S
C1100 C1092 1.378 . S
C1100 C1095 1.350 . S
C1101 H1088 0.929 . S
C1101 C1093 1.433 . S
C1101 N1103 1.384 . S
N1102 C1098 1.427 . S
N1102 C1099 1.384 . S
N1103 C1095 1.427 . S
N1103 C1101 1.384 . S
H1104 C1110 0.930 . S
H1105 C1114 0.930 . S
H1106 C1119 0.929 . S
H1107 C1117 0.929 . S
H1108 C1112 0.929 . S
H1109 C1118 0.929 . S
C1110 H1104 0.930 . S
C1110 C1111 1.367 . S
C1110 C1118 1.378 . S
C1111 C1110 1.367 . S
C1111 C1119 1.433 . S
C1112 H1108 0.929 . S
C1112 C1114 1.378 . S
C1112 C1116 1.350 . S
C1113 C1116 1.463 . S
C1113 C1118 1.350 . S
C1113 N1121 1.427 . S
C1114 H1105 0.930 . S
C1114 C1112 1.378 . S
C1114 C1115 1.367 . S
C1115 C1114 1.367 . S
C1115 C1117 1.433 . S
C1116 C1112 1.350 . S
C1116 C1113 1.463 . S
C1116 N1120 1.427 . S
C1117 H1107 0.929 . S
C1117 C1115 1.433 . S
C1117 N1120 1.384 . S
C1118 H1109 0.929 . S
C1118 C1110 1.378 . S
C1118 C1113 1.350 . S
C1119 H1106 0.929 . S
C1119 C1111 1.433 . S
C1119 N1121 1.384 . S
N1120 C1116 1.427 . S
N1120 C1117 1.384 . S
N1121 C1113 1.427 . S
N1121 C1119 1.384 . S
H1122 C1128 0.930 . S
H1123 C1132 0.930 . S
H1124 C1137 0.929 . S
H1125 C1135 0.929 . S
H1126 C1130 0.929 . S
H1127 C1136 0.929 1_655 S
C1128 H1122 0.930 . S
C1128 C1129 1.367 . S
C1128 C1136 1.378 . S
C1129 C1128 1.367 . S
C1129 C1137 1.433 . S
C1130 H1126 0.929 . S
C1130 C1132 1.378 1_455 S
C1130 C1134 1.350 1_455 S
C1131 C1134 1.463 1_455 S
C1131 C1136 1.350 . S
C1131 N1139 1.427 . S
C1132 H1123 0.930 . S
C1132 C1130 1.378 1_655 S
C1132 C1133 1.367 . S
C1133 C1132 1.367 . S
C1133 C1135 1.433 . S
C1134 C1130 1.350 1_655 S
C1134 C1131 1.463 1_655 S
C1134 N1138 1.426 . S
C1135 H1125 0.929 . S
C1135 C1133 1.433 . S
C1135 N1138 1.384 . S
C1136 H1127 0.929 1_455 S
C1136 C1128 1.378 . S
C1136 C1131 1.350 . S
C1137 H1124 0.929 . S
C1137 C1129 1.433 . S
C1137 N1139 1.384 . S
N1138 C1134 1.426 . S
N1138 C1135 1.384 . S
N1139 C1131 1.427 . S
N1139 C1137 1.384 . S
H1140 C1146 0.930 . S
H1141 C1150 0.930 . S
H1142 C1155 0.929 . S
H1143 C1153 0.929 . S
H1144 C1148 0.929 . S
H1145 C1154 0.929 . S
C1146 H1140 0.930 . S
C1146 C1147 1.367 . S
C1146 C1154 1.378 . S
C1147 C1146 1.367 . S
C1147 C1155 1.433 . S
C1148 H1144 0.929 . S
C1148 C1150 1.378 . S
C1148 C1152 1.350 . S
C1149 C1152 1.463 . S
C1149 C1154 1.350 . S
C1149 N1157 1.427 . S
C1150 H1141 0.930 . S
C1150 C1148 1.378 . S
C1150 C1151 1.367 . S
C1151 C1150 1.367 . S
C1151 C1153 1.433 . S
C1152 C1148 1.350 . S
C1152 C1149 1.463 . S
C1152 N1156 1.427 . S
C1153 H1143 0.929 . S
C1153 C1151 1.433 . S
C1153 N1156 1.384 . S
C1154 H1145 0.929 . S
C1154 C1146 1.378 . S
C1154 C1149 1.350 . S
C1155 H1142 0.929 . S
C1155 C1147 1.433 . S
C1155 N1157 1.384 . S
N1156 C1152 1.427 . S
N1156 C1153 1.384 . S
N1157 C1149 1.427 . S
N1157 C1155 1.384 . S
H1158 C1164 0.930 . S
H1159 C1168 0.930 . S
H1160 C1173 0.929 . S
H1161 C1171 0.929 . S
H1162 C1166 0.929 . S
H1163 C1172 0.929 . S
C1164 H1158 0.930 . S
C1164 C1165 1.367 . S
C1164 C1172 1.378 . S
C1165 C1164 1.367 . S
C1165 C1173 1.433 . S
C1166 H1162 0.929 . S
C1166 C1168 1.378 . S
C1166 C1170 1.350 . S
C1167 C1170 1.463 . S
C1167 C1172 1.350 . S
C1167 N1175 1.427 . S
C1168 H1159 0.930 . S
C1168 C1166 1.378 . S
C1168 C1169 1.367 . S
C1169 C1168 1.367 . S
C1169 C1171 1.433 . S
C1170 C1166 1.350 . S
C1170 C1167 1.463 . S
C1170 N1174 1.427 . S
C1171 H1161 0.929 . S
C1171 C1169 1.433 . S
C1171 N1174 1.384 . S
C1172 H1163 0.929 . S
C1172 C1164 1.378 . S
C1172 C1167 1.350 . S
C1173 H1160 0.929 . S
C1173 C1165 1.433 . S
C1173 N1175 1.384 . S
N1174 C1170 1.427 . S
N1174 C1171 1.384 . S
N1175 C1167 1.427 . S
N1175 C1173 1.384 . S
H1176 C1182 0.930 . S
H1177 C1186 0.930 . S
H1178 C1191 0.929 . S
H1179 C1189 0.929 . S
H1180 C1184 0.929 . S
H1181 C1190 0.929 . S
C1182 H1176 0.930 . S
C1182 C1183 1.367 . S
C1182 C1190 1.378 . S
C1183 C1182 1.367 . S
C1183 C1191 1.433 . S
C1184 H1180 0.929 . S
C1184 C1186 1.378 . S
C1184 C1188 1.350 . S
C1185 C1188 1.463 . S
C1185 C1190 1.350 . S
C1185 N1193 1.427 . S
C1186 H1177 0.930 . S
C1186 C1184 1.378 . S
C1186 C1187 1.367 . S
C1187 C1186 1.367 . S
C1187 C1189 1.433 . S
C1188 C1184 1.350 . S
C1188 C1185 1.463 . S
C1188 N1192 1.427 . S
C1189 H1179 0.929 . S
C1189 C1187 1.433 . S
C1189 N1192 1.384 . S
C1190 H1181 0.929 . S
C1190 C1182 1.378 . S
C1190 C1185 1.350 . S
C1191 H1178 0.929 . S
C1191 C1183 1.433 . S
C1191 N1193 1.384 . S
N1192 C1188 1.427 . S
N1192 C1189 1.384 . S
N1193 C1185 1.427 . S
N1193 C1191 1.384 . S
H1194 C1200 0.930 . S
H1195 C1204 0.930 . S
H1196 C1209 0.929 . S
H1197 C1207 0.929 . S
H1198 C1202 0.929 . S
H1199 C1208 0.929 . S
C1200 H1194 0.930 . S
C1200 C1201 1.367 . S
C1200 C1208 1.378 . S
C1201 C1200 1.367 . S
C1201 C1209 1.433 . S
C1202 H1198 0.929 . S
C1202 C1204 1.378 . S
C1202 C1206 1.350 . S
C1203 C1206 1.463 . S
C1203 C1208 1.350 . S
C1203 N1211 1.427 . S
C1204 H1195 0.930 . S
C1204 C1202 1.378 . S
C1204 C1205 1.367 . S
C1205 C1204 1.367 . S
C1205 C1207 1.433 . S
C1206 C1202 1.350 . S
C1206 C1203 1.463 . S
C1206 N1210 1.427 . S
C1207 H1197 0.929 . S
C1207 C1205 1.433 . S
C1207 N1210 1.384 . S
C1208 H1199 0.929 . S
C1208 C1200 1.378 . S
C1208 C1203 1.350 . S
C1209 H1196 0.929 . S
C1209 C1201 1.433 . S
C1209 N1211 1.384 . S
N1210 C1206 1.427 . S
N1210 C1207 1.384 . S
N1211 C1203 1.427 . S
N1211 C1209 1.384 . S
H1212 C1218 0.930 . S
H1213 C1222 0.930 . S
H1214 C1227 0.929 . S
H1215 C1225 0.929 . S
H1216 C1220 0.929 . S
H1217 C1226 0.929 . S
C1218 H1212 0.930 . S
C1218 C1219 1.367 . S
C1218 C1226 1.378 . S
C1219 C1218 1.367 . S
C1219 C1227 1.433 . S
C1220 H1216 0.929 . S
C1220 C1222 1.378 . S
C1220 C1224 1.350 . S
C1221 C1224 1.463 . S
C1221 C1226 1.350 . S
C1221 N1229 1.427 . S
C1222 H1213 0.930 . S
C1222 C1220 1.378 . S
C1222 C1223 1.367 . S
C1223 C1222 1.367 . S
C1223 C1225 1.433 . S
C1224 C1220 1.350 . S
C1224 C1221 1.463 . S
C1224 N1228 1.427 . S
C1225 H1215 0.929 . S
C1225 C1223 1.433 . S
C1225 N1228 1.384 . S
C1226 H1217 0.929 . S
C1226 C1218 1.378 . S
C1226 C1221 1.350 . S
C1227 H1214 0.929 . S
C1227 C1219 1.433 . S
C1227 N1229 1.384 . S
N1228 C1224 1.427 . S
N1228 C1225 1.384 . S
N1229 C1221 1.427 . S
N1229 C1227 1.384 . S
H1230 C1236 0.930 . S
H1231 C1240 0.930 1_556 S
H1232 C1245 0.929 . S
H1233 C1243 0.929 . S
H1234 C1238 0.929 . S
H1235 C1244 0.929 . S
C1236 H1230 0.930 . S
C1236 C1237 1.367 . S
C1236 C1244 1.378 . S
C1237 C1236 1.367 . S
C1237 C1245 1.433 . S
C1238 H1234 0.929 . S
C1238 C1240 1.378 . S
C1238 C1242 1.350 . S
C1239 C1242 1.463 . S
C1239 C1244 1.350 . S
C1239 N1247 1.427 . S
C1240 H1231 0.930 1_554 S
C1240 C1238 1.378 . S
C1240 C1241 1.367 . S
C1241 C1240 1.367 . S
C1241 C1243 1.433 . S
C1242 C1238 1.350 . S
C1242 C1239 1.463 . S
C1242 N1246 1.427 . S
C1243 H1233 0.929 . S
C1243 C1241 1.433 . S
C1243 N1246 1.384 . S
C1244 H1235 0.929 . S
C1244 C1236 1.378 . S
C1244 C1239 1.350 . S
C1245 H1232 0.929 . S
C1245 C1237 1.433 . S
C1245 N1247 1.384 . S
N1246 C1242 1.427 . S
N1246 C1243 1.384 . S
N1247 C1239 1.427 . S
N1247 C1245 1.384 . S
H1248 C1254 0.930 . S
H1249 C1258 0.930 . S
H1250 C1263 0.929 . S
H1251 C1261 0.929 . S
H1252 C1256 0.929 . S
H1253 C1262 0.929 . S
C1254 H1248 0.930 . S
C1254 C1255 1.367 . S
C1254 C1262 1.378 . S
C1255 C1254 1.367 . S
C1255 C1263 1.433 . S
C1256 H1252 0.929 . S
C1256 C1258 1.378 . S
C1256 C1260 1.350 . S
C1257 C1260 1.463 . S
C1257 C1262 1.350 . S
C1257 N1265 1.427 . S
C1258 H1249 0.930 . S
C1258 C1256 1.378 . S
C1258 C1259 1.367 . S
C1259 C1258 1.367 . S
C1259 C1261 1.433 . S
C1260 C1256 1.350 . S
C1260 C1257 1.463 . S
C1260 N1264 1.427 . S
C1261 H1251 0.929 . S
C1261 C1259 1.433 . S
C1261 N1264 1.384 . S
C1262 H1253 0.929 . S
C1262 C1254 1.378 . S
C1262 C1257 1.350 . S
C1263 H1250 0.929 . S
C1263 C1255 1.433 . S
C1263 N1265 1.384 . S
N1264 C1260 1.427 . S
N1264 C1261 1.384 . S
N1265 C1257 1.427 . S
N1265 C1263 1.384 . S
H1266 C1272 0.930 . S
H1267 C1276 0.930 . S
H1268 C1281 0.929 . S
H1269 C1279 0.929 . S
H1270 C1274 0.929 . S
H1271 C1280 0.929 . S
C1272 H1266 0.930 . S
C1272 C1273 1.367 . S
C1272 C1280 1.378 . S
C1273 C1272 1.367 . S
C1273 C1281 1.433 . S
C1274 H1270 0.929 . S
C1274 C1276 1.378 . S
C1274 C1278 1.350 . S
C1275 C1278 1.463 . S
C1275 C1280 1.350 . S
C1275 N1283 1.427 . S
C1276 H1267 0.930 . S
C1276 C1274 1.378 . S
C1276 C1277 1.367 . S
C1277 C1276 1.367 . S
C1277 C1279 1.433 . S
C1278 C1274 1.350 . S
C1278 C1275 1.463 . S
C1278 N1282 1.427 . S
C1279 H1269 0.929 . S
C1279 C1277 1.433 . S
C1279 N1282 1.384 . S
C1280 H1271 0.929 . S
C1280 C1272 1.378 . S
C1280 C1275 1.350 . S
C1281 H1268 0.929 . S
C1281 C1273 1.433 . S
C1281 N1283 1.384 . S
N1282 C1278 1.427 . S
N1282 C1279 1.384 . S
N1283 C1275 1.427 . S
N1283 C1281 1.384 . S
H1284 C1290 0.930 . S
H1285 C1294 0.930 . S
H1286 C1299 0.929 . S
H1287 C1297 0.929 1_545 S
H1288 C1292 0.929 . S
H1289 C1298 0.929 . S
C1290 H1284 0.930 . S
C1290 C1291 1.367 . S
C1290 C1298 1.378 . S
C1291 C1290 1.367 . S
C1291 C1299 1.433 . S
C1292 H1288 0.929 . S
C1292 C1294 1.378 . S
C1292 C1296 1.404 . S
C1293 C1296 1.429 1_545 S
C1293 C1298 1.350 . S
C1293 N1301 1.427 . S
C1294 H1285 0.930 . S
C1294 C1292 1.378 . S
C1294 C1295 1.367 . S
C1295 C1294 1.367 . S
C1295 C1297 1.433 . S
C1296 C1292 1.404 . S
C1296 C1293 1.429 1_565 S
C1296 N1300 1.404 1_565 S
C1297 H1287 0.929 1_565 S
C1297 C1295 1.433 . S
C1297 N1300 1.384 1_565 S
C1298 H1289 0.929 . S
C1298 C1290 1.378 . S
C1298 C1293 1.350 . S
C1299 H1286 0.929 . S
C1299 C1291 1.433 . S
C1299 N1301 1.384 . S
N1300 C1296 1.404 1_545 S
N1300 C1297 1.384 1_545 S
N1301 C1293 1.427 . S
N1301 C1299 1.384 . S
H1302 C1308 0.930 . S
H1303 C1312 0.930 . S
H1304 C1317 0.929 . S
H1305 C1315 0.929 . S
H1306 C1310 0.929 . S
H1307 C1316 0.929 . S
C1308 H1302 0.930 . S
C1308 C1309 1.367 . S
C1308 C1316 1.378 . S
C1309 C1308 1.367 . S
C1309 C1317 1.433 . S
C1310 H1306 0.929 . S
C1310 C1312 1.378 . S
C1310 C1314 1.350 . S
C1311 C1314 1.463 . S
C1311 C1316 1.350 . S
C1311 N1319 1.427 . S
C1312 H1303 0.930 . S
C1312 C1310 1.378 . S
C1312 C1313 1.367 . S
C1313 C1312 1.367 . S
C1313 C1315 1.433 . S
C1314 C1310 1.350 . S
C1314 C1311 1.463 . S
C1314 N1318 1.427 . S
C1315 H1305 0.929 . S
C1315 C1313 1.433 . S
C1315 N1318 1.384 . S
C1316 H1307 0.929 . S
C1316 C1308 1.378 . S
C1316 C1311 1.350 . S
C1317 H1304 0.929 . S
C1317 C1309 1.433 . S
C1317 N1319 1.384 . S
N1318 C1314 1.427 . S
N1318 C1315 1.384 . S
N1319 C1311 1.427 . S
N1319 C1317 1.384 . S
H1320 C1326 0.930 . S
H1321 C1330 0.930 . S
H1322 C1335 0.929 . S
H1323 C1333 0.929 . S
H1324 C1328 0.929 . S
H1325 C1334 0.929 . S
C1326 H1320 0.930 . S
C1326 C1327 1.367 . S
C1326 C1334 1.378 . S
C1327 C1326 1.367 . S
C1327 C1335 1.433 . S
C1328 H1324 0.929 . S
C1328 C1330 1.378 . S
C1328 C1332 1.350 . S
C1329 C1332 1.463 . S
C1329 C1334 1.350 . S
C1329 N1337 1.427 . S
C1330 H1321 0.930 . S
C1330 C1328 1.378 . S
C1330 C1331 1.367 . S
C1331 C1330 1.367 . S
C1331 C1333 1.433 . S
C1332 C1328 1.350 . S
C1332 C1329 1.463 . S
C1332 N1336 1.427 . S
C1333 H1323 0.929 . S
C1333 C1331 1.433 . S
C1333 N1336 1.384 . S
C1334 H1325 0.929 . S
C1334 C1326 1.378 . S
C1334 C1329 1.350 . S
C1335 H1322 0.929 . S
C1335 C1327 1.433 . S
C1335 N1337 1.384 . S
N1336 C1332 1.427 . S
N1336 C1333 1.384 . S
N1337 C1329 1.427 . S
N1337 C1335 1.384 . S
H1338 C1344 0.930 . S
H1339 C1348 0.930 . S
H1340 C1353 0.929 . S
H1341 C1351 0.929 . S
H1342 C1346 0.929 . S
H1343 C1352 0.929 . S
C1344 H1338 0.930 . S
C1344 C1345 1.367 . S
C1344 C1352 1.378 . S
C1345 C1344 1.367 . S
C1345 C1353 1.433 . S
C1346 H1342 0.929 . S
C1346 C1348 1.378 . S
C1346 C1350 1.350 . S
C1347 C1350 1.463 . S
C1347 C1352 1.350 . S
C1347 N1355 1.427 . S
C1348 H1339 0.930 . S
C1348 C1346 1.378 . S
C1348 C1349 1.367 . S
C1349 C1348 1.367 . S
C1349 C1351 1.433 . S
C1350 C1346 1.350 . S
C1350 C1347 1.463 . S
C1350 N1354 1.427 . S
C1351 H1341 0.929 . S
C1351 C1349 1.433 . S
C1351 N1354 1.384 . S
C1352 H1343 0.929 . S
C1352 C1344 1.378 . S
C1352 C1347 1.350 . S
C1353 H1340 0.929 . S
C1353 C1345 1.433 . S
C1353 N1355 1.384 . S
N1354 C1350 1.427 . S
N1354 C1351 1.384 . S
N1355 C1347 1.427 . S
N1355 C1353 1.384 . S
H1356 C1362 0.930 . S
H1357 C1366 0.930 . S
H1358 C1371 0.929 . S
H1359 C1369 0.929 . S
H1360 C1364 0.929 . S
H1361 C1370 0.929 . S
C1362 H1356 0.930 . S
C1362 C1363 1.367 . S
C1362 C1370 1.378 . S
C1363 C1362 1.367 . S
C1363 C1371 1.433 . S
C1364 H1360 0.929 . S
C1364 C1366 1.378 . S
C1364 C1368 1.350 . S
C1365 C1368 1.463 . S
C1365 C1370 1.350 . S
C1365 N1373 1.427 . S
C1366 H1357 0.930 . S
C1366 C1364 1.378 . S
C1366 C1367 1.367 . S
C1367 C1366 1.367 . S
C1367 C1369 1.433 . S
C1368 C1364 1.350 . S
C1368 C1365 1.463 . S
C1368 N1372 1.427 . S
C1369 H1359 0.929 . S
C1369 C1367 1.433 . S
C1369 N1372 1.384 . S
C1370 H1361 0.929 . S
C1370 C1362 1.378 . S
C1370 C1365 1.350 . S
C1371 H1358 0.929 . S
C1371 C1363 1.433 . S
C1371 N1373 1.384 . S
N1372 C1368 1.427 . S
N1372 C1369 1.384 . S
N1373 C1365 1.427 . S
N1373 C1371 1.384 . S
H1374 C1380 0.930 . S
H1375 C1384 0.930 . S
H1376 C1389 0.929 . S
H1377 C1387 0.929 . S
H1378 C1382 0.929 . S
H1379 C1388 0.929 . S
C1380 H1374 0.930 . S
C1380 C1381 1.367 . S
C1380 C1388 1.378 . S
C1381 C1380 1.367 . S
C1381 C1389 1.433 . S
C1382 H1378 0.929 . S
C1382 C1384 1.378 . S
C1382 C1386 1.350 . S
C1383 C1386 1.463 . S
C1383 C1388 1.350 . S
C1383 N1391 1.427 . S
C1384 H1375 0.930 . S
C1384 C1382 1.378 . S
C1384 C1385 1.367 . S
C1385 C1384 1.367 . S
C1385 C1387 1.433 . S
C1386 C1382 1.350 . S
C1386 C1383 1.463 . S
C1386 N1390 1.427 . S
C1387 H1377 0.929 . S
C1387 C1385 1.433 . S
C1387 N1390 1.384 . S
C1388 H1379 0.929 . S
C1388 C1380 1.378 . S
C1388 C1383 1.350 . S
C1389 H1376 0.929 . S
C1389 C1381 1.433 . S
C1389 N1391 1.384 . S
N1390 C1386 1.427 . S
N1390 C1387 1.384 . S
N1391 C1383 1.427 . S
N1391 C1389 1.384 . S
H1392 C1398 0.930 . S
H1393 C1402 0.930 . S
H1394 C1407 0.929 . S
H1395 C1405 0.929 . S
H1396 C1400 0.929 . S
H1397 C1406 0.929 . S
C1398 H1392 0.930 . S
C1398 C1399 1.367 . S
C1398 C1406 1.378 . S
C1399 C1398 1.367 . S
C1399 C1407 1.433 . S
C1400 H1396 0.929 . S
C1400 C1402 1.378 . S
C1400 C1404 1.350 . S
C1401 C1404 1.463 . S
C1401 C1406 1.350 . S
C1401 N1409 1.427 . S
C1402 H1393 0.930 . S
C1402 C1400 1.378 . S
C1402 C1403 1.367 . S
C1403 C1402 1.367 . S
C1403 C1405 1.433 . S
C1404 C1400 1.350 . S
C1404 C1401 1.463 . S
C1404 N1408 1.427 . S
C1405 H1395 0.929 . S
C1405 C1403 1.433 . S
C1405 N1408 1.384 . S
C1406 H1397 0.929 . S
C1406 C1398 1.378 . S
C1406 C1401 1.350 . S
C1407 H1394 0.929 . S
C1407 C1399 1.433 . S
C1407 N1409 1.384 . S
N1408 C1404 1.427 . S
N1408 C1405 1.384 . S
N1409 C1401 1.427 . S
N1409 C1407 1.384 . S
H1410 C1416 0.930 . S
H1411 C1420 0.930 . S
H1412 C1425 0.929 . S
H1413 C1423 0.929 . S
H1414 C1418 0.929 . S
H1415 C1424 0.929 . S
C1416 H1410 0.930 . S
C1416 C1417 1.367 . S
C1416 C1424 1.378 . S
C1417 C1416 1.367 . S
C1417 C1425 1.433 . S
C1418 H1414 0.929 . S
C1418 C1420 1.378 . S
C1418 C1422 1.350 . S
C1419 C1422 1.463 . S
C1419 C1424 1.350 . S
C1419 N1427 1.427 . S
C1420 H1411 0.930 . S
C1420 C1418 1.378 . S
C1420 C1421 1.367 . S
C1421 C1420 1.367 . S
C1421 C1423 1.433 . S
C1422 C1418 1.350 . S
C1422 C1419 1.463 . S
C1422 N1426 1.427 . S
C1423 H1413 0.929 . S
C1423 C1421 1.433 . S
C1423 N1426 1.384 . S
C1424 H1415 0.929 . S
C1424 C1416 1.378 . S
C1424 C1419 1.350 . S
C1425 H1412 0.929 . S
C1425 C1417 1.433 . S
C1425 N1427 1.384 . S
N1426 C1422 1.427 . S
N1426 C1423 1.384 . S
N1427 C1419 1.427 . S
N1427 C1425 1.384 . S
H1428 C1434 0.930 . S
H1429 C1438 0.930 . S
H1430 C1443 0.929 . S
H1431 C1441 0.929 . S
H1432 C1436 0.929 . S
H1433 C1442 0.929 . S
C1434 H1428 0.930 . S
C1434 C1435 1.367 . S
C1434 C1442 1.378 . S
C1435 C1434 1.367 . S
C1435 C1443 1.433 . S
C1436 H1432 0.929 . S
C1436 C1438 1.378 . S
C1436 C1440 1.350 . S
C1437 C1440 1.463 . S
C1437 C1442 1.350 . S
C1437 N1445 1.427 . S
C1438 H1429 0.930 . S
C1438 C1436 1.378 . S
C1438 C1439 1.367 . S
C1439 C1438 1.367 . S
C1439 C1441 1.433 . S
C1440 C1436 1.350 . S
C1440 C1437 1.463 . S
C1440 N1444 1.427 . S
C1441 H1431 0.929 . S
C1441 C1439 1.433 . S
C1441 N1444 1.384 . S
C1442 H1433 0.929 . S
C1442 C1434 1.378 . S
C1442 C1437 1.350 . S
C1443 H1430 0.929 . S
C1443 C1435 1.433 . S
C1443 N1445 1.384 . S
N1444 C1440 1.427 . S
N1444 C1441 1.384 . S
N1445 C1437 1.427 . S
N1445 C1443 1.384 . S
H1446 C1452 0.930 . S
H1447 C1456 0.930 . S
H1448 C1461 0.929 . S
H1449 C1459 0.929 . S
H1450 C1454 0.929 . S
H1451 C1460 0.929 . S
C1452 H1446 0.930 . S
C1452 C1453 1.367 . S
C1452 C1460 1.378 . S
C1453 C1452 1.367 . S
C1453 C1461 1.433 . S
C1454 H1450 0.929 . S
C1454 C1456 1.378 . S
C1454 C1458 1.350 . S
C1455 C1458 1.463 . S
C1455 C1460 1.350 . S
C1455 N1463 1.427 . S
C1456 H1447 0.930 . S
C1456 C1454 1.378 . S
C1456 C1457 1.367 . S
C1457 C1456 1.367 . S
C1457 C1459 1.433 . S
C1458 C1454 1.350 . S
C1458 C1455 1.463 . S
C1458 N1462 1.427 . S
C1459 H1449 0.929 . S
C1459 C1457 1.433 . S
C1459 N1462 1.384 . S
C1460 H1451 0.929 . S
C1460 C1452 1.378 . S
C1460 C1455 1.350 . S
C1461 H1448 0.929 . S
C1461 C1453 1.433 . S
C1461 N1463 1.384 . S
N1462 C1458 1.427 . S
N1462 C1459 1.384 . S
N1463 C1455 1.427 . S
N1463 C1461 1.384 . S
H1464 C1470 0.930 . S
H1465 C1474 0.930 . S
H1466 C1479 0.929 . S
H1467 C1477 0.929 . S
H1468 C1472 0.929 . S
H1469 C1478 0.929 . S
C1470 H1464 0.930 . S
C1470 C1471 1.367 . S
C1470 C1478 1.378 . S
C1471 C1470 1.367 . S
C1471 C1479 1.433 . S
C1472 H1468 0.929 . S
C1472 C1474 1.378 . S
C1472 C1476 1.350 . S
C1473 C1476 1.463 . S
C1473 C1478 1.350 . S
C1473 N1481 1.427 . S
C1474 H1465 0.930 . S
C1474 C1472 1.378 . S
C1474 C1475 1.367 . S
C1475 C1474 1.367 . S
C1475 C1477 1.433 . S
C1476 C1472 1.350 . S
C1476 C1473 1.463 . S
C1476 N1480 1.427 . S
C1477 H1467 0.929 . S
C1477 C1475 1.433 . S
C1477 N1480 1.384 . S
C1478 H1469 0.929 . S
C1478 C1470 1.378 . S
C1478 C1473 1.350 . S
C1479 H1466 0.929 . S
C1479 C1471 1.433 . S
C1479 N1481 1.384 . S
N1480 C1476 1.427 . S
N1480 C1477 1.384 . S
N1481 C1473 1.427 . S
N1481 C1479 1.384 . S
H1482 C1488 0.930 . S
H1483 C1492 0.930 . S
H1484 C1497 0.929 . S
H1485 C1495 0.929 . S
H1486 C1490 0.929 . S
H1487 C1496 0.929 . S
C1488 H1482 0.930 . S
C1488 C1489 1.367 . S
C1488 C1496 1.378 . S
C1489 C1488 1.367 . S
C1489 C1497 1.433 . S
C1490 H1486 0.929 . S
C1490 C1492 1.378 . S
C1490 C1494 1.350 . S
C1491 C1494 1.463 . S
C1491 C1496 1.350 . S
C1491 N1499 1.427 . S
C1492 H1483 0.930 . S
C1492 C1490 1.378 . S
C1492 C1493 1.367 . S
C1493 C1492 1.367 . S
C1493 C1495 1.433 . S
C1494 C1490 1.350 . S
C1494 C1491 1.463 . S
C1494 N1498 1.427 . S
C1495 H1485 0.929 . S
C1495 C1493 1.433 . S
C1495 N1498 1.384 . S
C1496 H1487 0.929 . S
C1496 C1488 1.378 . S
C1496 C1491 1.350 . S
C1497 H1484 0.929 . S
C1497 C1489 1.433 . S
C1497 N1499 1.384 . S
N1498 C1494 1.427 . S
N1498 C1495 1.384 . S
N1499 C1491 1.427 . S
N1499 C1497 1.384 . S
H1500 C1506 0.930 . S
H1501 C1510 0.930 1_554 S
H1502 C1515 0.929 . S
H1503 C1513 0.929 . S
H1504 C1508 0.929 . S
H1505 C1514 0.929 1_556 S
C1506 H1500 0.930 . S
C1506 C1507 1.367 . S
C1506 C1514 1.378 . S
C1507 C1506 1.367 . S
C1507 C1515 1.433 . S
C1508 H1504 0.929 . S
C1508 C1510 1.378 1_554 S
C1508 C1512 1.354 1_554 S
C1509 C1512 1.467 1_554 S
C1509 C1514 1.350 . S
C1509 N1517 1.427 . S
C1510 H1501 0.930 1_556 S
C1510 C1508 1.378 1_556 S
C1510 C1511 1.367 . S
C1511 C1510 1.367 . S
C1511 C1513 1.433 . S
C1512 C1508 1.354 1_556 S
C1512 C1509 1.467 1_556 S
C1512 N1516 1.419 . S
C1513 H1503 0.929 . S
C1513 C1511 1.433 . S
C1513 N1516 1.384 . S
C1514 H1505 0.929 1_554 S
C1514 C1506 1.378 . S
C1514 C1509 1.350 . S
C1515 H1502 0.929 . S
C1515 C1507 1.433 . S
C1515 N1517 1.384 . S
N1516 C1512 1.419 . S
N1516 C1513 1.384 . S
N1517 C1509 1.427 . S
N1517 C1515 1.384 . S
H1518 C1524 0.930 . S
H1519 C1528 0.930 . S
H1520 C1533 0.929 . S
H1521 C1531 0.929 . S
H1522 C1526 0.929 . S
H1523 C1532 0.929 . S
C1524 H1518 0.930 . S
C1524 C1525 1.367 . S
C1524 C1532 1.378 . S
C1525 C1524 1.367 . S
C1525 C1533 1.433 . S
C1526 H1522 0.929 . S
C1526 C1528 1.378 . S
C1526 C1530 1.350 . S
C1527 C1530 1.463 . S
C1527 C1532 1.350 . S
C1527 N1535 1.427 . S
C1528 H1519 0.930 . S
C1528 C1526 1.378 . S
C1528 C1529 1.367 . S
C1529 C1528 1.367 . S
C1529 C1531 1.433 . S
C1530 C1526 1.350 . S
C1530 C1527 1.463 . S
C1530 N1534 1.427 . S
C1531 H1521 0.929 . S
C1531 C1529 1.433 . S
C1531 N1534 1.384 . S
C1532 H1523 0.929 . S
C1532 C1524 1.378 . S
C1532 C1527 1.350 . S
C1533 H1520 0.929 . S
C1533 C1525 1.433 . S
C1533 N1535 1.384 . S
N1534 C1530 1.427 . S
N1534 C1531 1.384 . S
N1535 C1527 1.427 . S
N1535 C1533 1.384 . S
H1536 C1542 0.930 . S
H1537 C1546 0.930 . S
H1538 C1551 0.929 . S
H1539 C1549 0.929 . S
H1540 C1544 0.929 . S
H1541 C1550 0.929 . S
C1542 H1536 0.930 . S
C1542 C1543 1.367 . S
C1542 C1550 1.378 . S
C1543 C1542 1.367 . S
C1543 C1551 1.433 . S
C1544 H1540 0.929 . S
C1544 C1546 1.378 . S
C1544 C1548 1.350 . S
C1545 C1548 1.463 . S
C1545 C1550 1.350 . S
C1545 N1553 1.427 . S
C1546 H1537 0.930 . S
C1546 C1544 1.378 . S
C1546 C1547 1.367 . S
C1547 C1546 1.367 . S
C1547 C1549 1.433 . S
C1548 C1544 1.350 . S
C1548 C1545 1.463 . S
C1548 N1552 1.427 . S
C1549 H1539 0.929 . S
C1549 C1547 1.433 . S
C1549 N1552 1.384 . S
C1550 H1541 0.929 . S
C1550 C1542 1.378 . S
C1550 C1545 1.350 . S
C1551 H1538 0.929 . S
C1551 C1543 1.433 . S
C1551 N1553 1.384 . S
N1552 C1548 1.427 . S
N1552 C1549 1.384 . S
N1553 C1545 1.427 . S
N1553 C1551 1.384 . S
H1554 C1560 0.930 . S
H1555 C1564 0.932 . S
H1556 C1569 0.929 . S
H1557 C1567 0.929 . S
H1558 C1562 0.929 . S
H1559 C1568 0.929 . S
C1560 H1554 0.930 . S
C1560 C1561 1.367 . S
C1560 C1568 1.378 . S
C1561 C1560 1.367 . S
C1561 C1569 1.433 . S
C1562 H1558 0.929 . S
C1562 C1564 1.374 1_455 S
C1562 C1566 1.350 . S
C1563 C1566 1.463 . S
C1563 C1568 1.350 . S
C1563 N1571 1.427 . S
C1564 H1555 0.932 . S
C1564 C1562 1.374 1_655 S
C1564 C1565 1.369 . S
C1565 C1564 1.369 . S
C1565 C1567 1.433 . S
C1566 C1562 1.350 . S
C1566 C1563 1.463 . S
C1566 N1570 1.427 . S
C1567 H1557 0.929 . S
C1567 C1565 1.433 . S
C1567 N1570 1.384 1_655 S
C1568 H1559 0.929 . S
C1568 C1560 1.378 . S
C1568 C1563 1.350 . S
C1569 H1556 0.929 . S
C1569 C1561 1.433 . S
C1569 N1571 1.384 . S
N1570 C1566 1.427 . S
N1570 C1567 1.384 1_455 S
N1571 C1563 1.427 . S
N1571 C1569 1.384 . S
H1572 C1578 0.930 . S
H1573 C1582 0.930 . S
H1574 C1587 0.929 . S
H1575 C1585 0.929 . S
H1576 C1580 0.929 . S
H1577 C1586 0.929 . S
C1578 H1572 0.930 . S
C1578 C1579 1.367 . S
C1578 C1586 1.378 . S
C1579 C1578 1.367 . S
C1579 C1587 1.433 . S
C1580 H1576 0.929 . S
C1580 C1582 1.378 . S
C1580 C1584 1.350 . S
C1581 C1584 1.463 . S
C1581 C1586 1.350 . S
C1581 N1589 1.427 . S
C1582 H1573 0.930 . S
C1582 C1580 1.378 . S
C1582 C1583 1.367 . S
C1583 C1582 1.367 . S
C1583 C1585 1.433 . S
C1584 C1580 1.350 . S
C1584 C1581 1.463 . S
C1584 N1588 1.427 . S
C1585 H1575 0.929 . S
C1585 C1583 1.433 . S
C1585 N1588 1.384 . S
C1586 H1577 0.929 . S
C1586 C1578 1.378 . S
C1586 C1581 1.350 . S
C1587 H1574 0.929 . S
C1587 C1579 1.433 . S
C1587 N1589 1.384 . S
N1588 C1584 1.427 . S
N1588 C1585 1.384 . S
N1589 C1581 1.427 . S
N1589 C1587 1.384 . S
H1590 C1596 0.930 . S
H1591 C1600 0.930 . S
H1592 C1605 0.929 . S
H1593 C1603 0.929 . S
H1594 C1598 0.929 . S
H1595 C1604 0.929 . S
C1596 H1590 0.930 . S
C1596 C1597 1.367 . S
C1596 C1604 1.378 . S
C1597 C1596 1.367 . S
C1597 C1605 1.433 . S
C1598 H1594 0.929 . S
C1598 C1600 1.378 . S
C1598 C1602 1.350 . S
C1599 C1602 1.463 . S
C1599 C1604 1.350 . S
C1599 N1607 1.427 . S
C1600 H1591 0.930 . S
C1600 C1598 1.378 . S
C1600 C1601 1.367 . S
C1601 C1600 1.367 . S
C1601 C1603 1.433 . S
C1602 C1598 1.350 . S
C1602 C1599 1.463 . S
C1602 N1606 1.427 . S
C1603 H1593 0.929 . S
C1603 C1601 1.433 . S
C1603 N1606 1.384 . S
C1604 H1595 0.929 . S
C1604 C1596 1.378 . S
C1604 C1599 1.350 . S
C1605 H1592 0.929 . S
C1605 C1597 1.433 . S
C1605 N1607 1.384 . S
N1606 C1602 1.427 . S
N1606 C1603 1.384 . S
N1607 C1599 1.427 . S
N1607 C1605 1.384 . S
H1608 C1614 0.930 . S
H1609 C1618 0.930 . S
H1610 C1623 0.929 . S
H1611 C1621 0.929 . S
H1612 C1616 0.929 . S
H1613 C1622 0.929 . S
C1614 H1608 0.930 . S
C1614 C1615 1.367 . S
C1614 C1622 1.378 . S
C1615 C1614 1.367 . S
C1615 C1623 1.433 . S
C1616 H1612 0.929 . S
C1616 C1618 1.378 . S
C1616 C1620 1.350 . S
C1617 C1620 1.463 . S
C1617 C1622 1.350 . S
C1617 N1625 1.427 . S
C1618 H1609 0.930 . S
C1618 C1616 1.378 . S
C1618 C1619 1.367 . S
C1619 C1618 1.367 . S
C1619 C1621 1.433 . S
C1620 C1616 1.350 . S
C1620 C1617 1.463 . S
C1620 N1624 1.427 . S
C1621 H1611 0.929 . S
C1621 C1619 1.433 . S
C1621 N1624 1.384 . S
C1622 H1613 0.929 . S
C1622 C1614 1.378 . S
C1622 C1617 1.350 . S
C1623 H1610 0.929 . S
C1623 C1615 1.433 . S
C1623 N1625 1.384 . S
N1624 C1620 1.427 . S
N1624 C1621 1.384 . S
N1625 C1617 1.427 . S
N1625 C1623 1.384 . S
H1626 C1632 0.930 . S
H1627 C1636 0.930 . S
H1628 C1641 0.929 . S
H1629 C1639 0.929 . S
H1630 C1634 0.929 . S
H1631 C1640 0.929 . S
C1632 H1626 0.930 . S
C1632 C1633 1.367 . S
C1632 C1640 1.378 . S
C1633 C1632 1.367 . S
C1633 C1641 1.433 . S
C1634 H1630 0.929 . S
C1634 C1636 1.378 . S
C1634 C1638 1.350 . S
C1635 C1638 1.463 . S
C1635 C1640 1.350 . S
C1635 N1643 1.427 . S
C1636 H1627 0.930 . S
C1636 C1634 1.378 . S
C1636 C1637 1.367 . S
C1637 C1636 1.367 . S
C1637 C1639 1.433 . S
C1638 C1634 1.350 . S
C1638 C1635 1.463 . S
C1638 N1642 1.427 . S
C1639 H1629 0.929 . S
C1639 C1637 1.433 . S
C1639 N1642 1.384 . S
C1640 H1631 0.929 . S
C1640 C1632 1.378 . S
C1640 C1635 1.350 . S
C1641 H1628 0.929 . S
C1641 C1633 1.433 . S
C1641 N1643 1.384 . S
N1642 C1638 1.427 . S
N1642 C1639 1.384 . S
N1643 C1635 1.427 . S
N1643 C1641 1.384 . S
H1644 C1650 0.930 . S
H1645 C1654 0.930 . S
H1646 C1659 0.929 . S
H1647 C1657 0.929 . S
H1648 C1652 0.929 . S
H1649 C1658 0.929 . S
C1650 H1644 0.930 . S
C1650 C1651 1.367 . S
C1650 C1658 1.378 . S
C1651 C1650 1.367 . S
C1651 C1659 1.433 . S
C1652 H1648 0.929 . S
C1652 C1654 1.378 . S
C1652 C1656 1.350 . S
C1653 C1656 1.463 . S
C1653 C1658 1.350 . S
C1653 N1661 1.427 . S
C1654 H1645 0.930 . S
C1654 C1652 1.378 . S
C1654 C1655 1.367 . S
C1655 C1654 1.367 . S
C1655 C1657 1.433 . S
C1656 C1652 1.350 . S
C1656 C1653 1.463 . S
C1656 N1660 1.427 . S
C1657 H1647 0.929 . S
C1657 C1655 1.433 . S
C1657 N1660 1.384 . S
C1658 H1649 0.929 . S
C1658 C1650 1.378 . S
C1658 C1653 1.350 . S
C1659 H1646 0.929 . S
C1659 C1651 1.433 . S
C1659 N1661 1.384 . S
N1660 C1656 1.427 . S
N1660 C1657 1.384 . S
N1661 C1653 1.427 . S
N1661 C1659 1.384 . S
H1662 C1668 0.930 . S
H1663 C1672 0.930 . S
H1664 C1677 0.929 . S
H1665 C1675 0.929 . S
H1666 C1670 0.929 . S
H1667 C1676 0.929 . S
C1668 H1662 0.930 . S
C1668 C1669 1.367 . S
C1668 C1676 1.378 . S
C1669 C1668 1.367 . S
C1669 C1677 1.433 . S
C1670 H1666 0.929 . S
C1670 C1672 1.378 . S
C1670 C1674 1.350 . S
C1671 C1674 1.463 . S
C1671 C1676 1.350 . S
C1671 N1679 1.427 . S
C1672 H1663 0.930 . S
C1672 C1670 1.378 . S
C1672 C1673 1.367 . S
C1673 C1672 1.367 . S
C1673 C1675 1.433 . S
C1674 C1670 1.350 . S
C1674 C1671 1.463 . S
C1674 N1678 1.427 . S
C1675 H1665 0.929 . S
C1675 C1673 1.433 . S
C1675 N1678 1.384 . S
C1676 H1667 0.929 . S
C1676 C1668 1.378 . S
C1676 C1671 1.350 . S
C1677 H1664 0.929 . S
C1677 C1669 1.433 . S
C1677 N1679 1.384 . S
N1678 C1674 1.427 . S
N1678 C1675 1.384 . S
N1679 C1671 1.427 . S
N1679 C1677 1.384 . S
H1680 C1686 0.930 . S
H1681 C1690 0.930 . S
H1682 C1695 0.929 . S
H1683 C1693 0.929 . S
H1684 C1688 0.929 . S
H1685 C1694 0.929 . S
C1686 H1680 0.930 . S
C1686 C1687 1.367 . S
C1686 C1694 1.378 . S
C1687 C1686 1.367 . S
C1687 C1695 1.433 . S
C1688 H1684 0.929 . S
C1688 C1690 1.378 . S
C1688 C1692 1.350 . S
C1689 C1692 1.463 . S
C1689 C1694 1.350 . S
C1689 N1697 1.427 . S
C1690 H1681 0.930 . S
C1690 C1688 1.378 . S
C1690 C1691 1.367 . S
C1691 C1690 1.367 . S
C1691 C1693 1.433 . S
C1692 C1688 1.350 . S
C1692 C1689 1.463 . S
C1692 N1696 1.427 . S
C1693 H1683 0.929 . S
C1693 C1691 1.433 . S
C1693 N1696 1.384 . S
C1694 H1685 0.929 . S
C1694 C1686 1.378 . S
C1694 C1689 1.350 . S
C1695 H1682 0.929 . S
C1695 C1687 1.433 . S
C1695 N1697 1.384 . S
N1696 C1692 1.427 . S
N1696 C1693 1.384 . S
N1697 C1689 1.427 . S
N1697 C1695 1.384 . S
H1698 C1704 0.930 . S
H1699 C1708 0.930 . S
H1700 C1713 0.929 . S
H1701 C1711 0.929 . S
H1702 C1706 0.929 . S
H1703 C1712 0.929 . S
C1704 H1698 0.930 . S
C1704 C1705 1.367 . S
C1704 C1712 1.378 . S
C1705 C1704 1.367 . S
C1705 C1713 1.433 . S
C1706 H1702 0.929 . S
C1706 C1708 1.378 . S
C1706 C1710 1.350 . S
C1707 C1710 1.463 . S
C1707 C1712 1.350 . S
C1707 N1715 1.427 . S
C1708 H1699 0.930 . S
C1708 C1706 1.378 . S
C1708 C1709 1.367 . S
C1709 C1708 1.367 . S
C1709 C1711 1.433 . S
C1710 C1706 1.350 . S
C1710 C1707 1.463 . S
C1710 N1714 1.427 . S
C1711 H1701 0.929 . S
C1711 C1709 1.433 . S
C1711 N1714 1.384 . S
C1712 H1703 0.929 . S
C1712 C1704 1.378 . S
C1712 C1707 1.350 . S
C1713 H1700 0.929 . S
C1713 C1705 1.433 . S
C1713 N1715 1.384 . S
N1714 C1710 1.427 . S
N1714 C1711 1.384 . S
N1715 C1707 1.427 . S
N1715 C1713 1.384 . S
H1716 C1722 0.930 . S
H1717 C1726 0.930 . S
H1718 C1731 0.929 . S
H1719 C1729 0.929 . S
H1720 C1724 0.929 . S
H1721 C1730 0.929 . S
C1722 H1716 0.930 . S
C1722 C1723 1.367 . S
C1722 C1730 1.378 . S
C1723 C1722 1.367 . S
C1723 C1731 1.433 . S
C1724 H1720 0.929 . S
C1724 C1726 1.378 1_545 S
C1724 C1728 1.350 . S
C1725 C1728 1.463 . S
C1725 C1730 1.350 . S
C1725 N1733 1.427 . S
C1726 H1717 0.930 . S
C1726 C1724 1.378 1_565 S
C1726 C1727 1.367 . S
C1727 C1726 1.367 . S
C1727 C1729 1.433 . S
C1728 C1724 1.350 . S
C1728 C1725 1.463 . S
C1728 N1732 1.427 . S
C1729 H1719 0.929 . S
C1729 C1727 1.433 . S
C1729 N1732 1.384 1_565 S
C1730 H1721 0.929 . S
C1730 C1722 1.378 . S
C1730 C1725 1.350 . S
C1731 H1718 0.929 . S
C1731 C1723 1.433 . S
C1731 N1733 1.384 . S
N1732 C1728 1.427 . S
N1732 C1729 1.384 1_545 S
N1733 C1725 1.427 . S
N1733 C1731 1.384 . S
H1734 C1740 0.930 . S
H1735 C1744 0.930 . S
H1736 C1749 0.929 . S
H1737 C1747 0.929 . S
H1738 C1742 0.929 . S
H1739 C1748 0.929 . S
C1740 H1734 0.930 . S
C1740 C1741 1.367 . S
C1740 C1748 1.378 . S
C1741 C1740 1.367 . S
C1741 C1749 1.433 . S
C1742 H1738 0.929 . S
C1742 C1744 1.378 . S
C1742 C1746 1.350 . S
C1743 C1746 1.463 . S
C1743 C1748 1.350 . S
C1743 N1751 1.427 . S
C1744 H1735 0.930 . S
C1744 C1742 1.378 . S
C1744 C1745 1.367 . S
C1745 C1744 1.367 . S
C1745 C1747 1.433 . S
C1746 C1742 1.350 . S
C1746 C1743 1.463 . S
C1746 N1750 1.427 . S
C1747 H1737 0.929 . S
C1747 C1745 1.433 . S
C1747 N1750 1.384 . S
C1748 H1739 0.929 . S
C1748 C1740 1.378 . S
C1748 C1743 1.350 . S
C1749 H1736 0.929 . S
C1749 C1741 1.433 . S
C1749 N1751 1.384 . S
N1750 C1746 1.427 . S
N1750 C1747 1.384 . S
N1751 C1743 1.427 . S
N1751 C1749 1.384 . S
H1752 C1758 0.930 . S
H1753 C1762 0.930 . S
H1754 C1767 0.929 . S
H1755 C1765 0.929 . S
H1756 C1760 0.929 . S
H1757 C1766 0.929 . S
C1758 H1752 0.930 . S
C1758 C1759 1.367 . S
C1758 C1766 1.378 . S
C1759 C1758 1.367 . S
C1759 C1767 1.433 . S
C1760 H1756 0.929 . S
C1760 C1762 1.378 . S
C1760 C1764 1.350 . S
C1761 C1764 1.463 . S
C1761 C1766 1.350 . S
C1761 N1769 1.427 . S
C1762 H1753 0.930 . S
C1762 C1760 1.378 . S
C1762 C1763 1.367 . S
C1763 C1762 1.367 . S
C1763 C1765 1.433 . S
C1764 C1760 1.350 . S
C1764 C1761 1.463 . S
C1764 N1768 1.427 . S
C1765 H1755 0.929 . S
C1765 C1763 1.433 . S
C1765 N1768 1.384 . S
C1766 H1757 0.929 . S
C1766 C1758 1.378 . S
C1766 C1761 1.350 . S
C1767 H1754 0.929 . S
C1767 C1759 1.433 . S
C1767 N1769 1.384 . S
N1768 C1764 1.427 . S
N1768 C1765 1.384 . S
N1769 C1761 1.427 . S
N1769 C1767 1.384 . S
H1770 C1776 0.930 . S
H1771 C1780 0.930 . S
H1772 C1785 0.929 . S
H1773 C1783 0.929 . S
H1774 C1778 0.929 . S
H1775 C1784 0.929 . S
C1776 H1770 0.930 . S
C1776 C1777 1.367 . S
C1776 C1784 1.378 . S
C1777 C1776 1.367 . S
C1777 C1785 1.433 . S
C1778 H1774 0.929 . S
C1778 C1780 1.378 . S
C1778 C1782 1.350 . S
C1779 C1782 1.463 . S
C1779 C1784 1.350 . S
C1779 N1787 1.427 . S
C1780 H1771 0.930 . S
C1780 C1778 1.378 . S
C1780 C1781 1.367 . S
C1781 C1780 1.367 . S
C1781 C1783 1.433 . S
C1782 C1778 1.350 . S
C1782 C1779 1.463 . S
C1782 N1786 1.427 . S
C1783 H1773 0.929 . S
C1783 C1781 1.433 . S
C1783 N1786 1.384 . S
C1784 H1775 0.929 . S
C1784 C1776 1.378 . S
C1784 C1779 1.350 . S
C1785 H1772 0.929 . S
C1785 C1777 1.433 . S
C1785 N1787 1.384 . S
N1786 C1782 1.427 . S
N1786 C1783 1.384 . S
N1787 C1779 1.427 . S
N1787 C1785 1.384 . S
H1788 C1794 0.930 . S
H1789 C1798 0.930 . S
H1790 C1803 0.929 . S
H1791 C1801 0.929 . S
H1792 C1796 0.929 . S
H1793 C1802 0.929 . S
C1794 H1788 0.930 . S
C1794 C1795 1.367 . S
C1794 C1802 1.378 . S
C1795 C1794 1.367 . S
C1795 C1803 1.433 . S
C1796 H1792 0.929 . S
C1796 C1798 1.378 . S
C1796 C1800 1.350 . S
C1797 C1800 1.463 . S
C1797 C1802 1.350 . S
C1797 N1805 1.427 . S
C1798 H1789 0.930 . S
C1798 C1796 1.378 . S
C1798 C1799 1.367 . S
C1799 C1798 1.367 . S
C1799 C1801 1.433 . S
C1800 C1796 1.350 . S
C1800 C1797 1.463 . S
C1800 N1804 1.427 . S
C1801 H1791 0.929 . S
C1801 C1799 1.433 . S
C1801 N1804 1.384 . S
C1802 H1793 0.929 . S
C1802 C1794 1.378 . S
C1802 C1797 1.350 . S
C1803 H1790 0.929 . S
C1803 C1795 1.433 . S
C1803 N1805 1.384 . S
N1804 C1800 1.427 . S
N1804 C1801 1.384 . S
N1805 C1797 1.427 . S
N1805 C1803 1.384 . S
H1806 C1812 0.930 . S
H1807 C1816 0.930 . S
H1808 C1821 0.929 . S
H1809 C1819 0.929 . S
H1810 C1814 0.929 . S
H1811 C1820 0.929 . S
C1812 H1806 0.930 . S
C1812 C1813 1.367 . S
C1812 C1820 1.378 . S
C1813 C1812 1.367 . S
C1813 C1821 1.433 . S
C1814 H1810 0.929 . S
C1814 C1816 1.378 . S
C1814 C1818 1.350 . S
C1815 C1818 1.463 . S
C1815 C1820 1.350 . S
C1815 N1823 1.427 . S
C1816 H1807 0.930 . S
C1816 C1814 1.378 . S
C1816 C1817 1.367 . S
C1817 C1816 1.367 . S
C1817 C1819 1.433 . S
C1818 C1814 1.350 . S
C1818 C1815 1.463 . S
C1818 N1822 1.427 . S
C1819 H1809 0.929 . S
C1819 C1817 1.433 . S
C1819 N1822 1.384 . S
C1820 H1811 0.929 . S
C1820 C1812 1.378 . S
C1820 C1815 1.350 . S
C1821 H1808 0.929 . S
C1821 C1813 1.433 . S
C1821 N1823 1.384 . S
N1822 C1818 1.427 . S
N1822 C1819 1.384 . S
N1823 C1815 1.427 . S
N1823 C1821 1.384 . S
H1824 C1830 0.930 . S
H1825 C1834 0.930 . S
H1826 C1839 0.929 . S
H1827 C1837 0.929 . S
H1828 C1832 0.929 . S
H1829 C1838 0.929 . S
C1830 H1824 0.930 . S
C1830 C1831 1.367 . S
C1830 C1838 1.378 1_556 S
C1831 C1830 1.367 . S
C1831 C1839 1.433 1_556 S
C1832 H1828 0.929 . S
C1832 C1834 1.378 . S
C1832 C1836 1.350 . S
C1833 C1836 1.463 . S
C1833 C1838 1.350 . S
C1833 N1841 1.427 . S
C1834 H1825 0.930 . S
C1834 C1832 1.378 . S
C1834 C1835 1.367 . S
C1835 C1834 1.367 . S
C1835 C1837 1.433 . S
C1836 C1832 1.350 . S
C1836 C1833 1.463 . S
C1836 N1840 1.427 . S
C1837 H1827 0.929 . S
C1837 C1835 1.433 . S
C1837 N1840 1.384 . S
C1838 H1829 0.929 . S
C1838 C1830 1.378 1_554 S
C1838 C1833 1.350 . S
C1839 H1826 0.929 . S
C1839 C1831 1.433 1_554 S
C1839 N1841 1.384 . S
N1840 C1836 1.427 . S
N1840 C1837 1.384 . S
N1841 C1833 1.427 . S
N1841 C1839 1.384 . S
H1842 C1848 0.930 . S
H1843 C1852 0.930 . S
H1844 C1857 0.929 . S
H1845 C1855 0.929 . S
H1846 C1850 0.929 . S
H1847 C1856 0.929 . S
C1848 H1842 0.930 . S
C1848 C1849 1.367 . S
C1848 C1856 1.378 . S
C1849 C1848 1.367 . S
C1849 C1857 1.433 . S
C1850 H1846 0.929 . S
C1850 C1852 1.378 . S
C1850 C1854 1.350 . S
C1851 C1854 1.463 . S
C1851 C1856 1.350 . S
C1851 N1859 1.427 . S
C1852 H1843 0.930 . S
C1852 C1850 1.378 . S
C1852 C1853 1.367 . S
C1853 C1852 1.367 . S
C1853 C1855 1.433 . S
C1854 C1850 1.350 . S
C1854 C1851 1.463 . S
C1854 N1858 1.427 . S
C1855 H1845 0.929 . S
C1855 C1853 1.433 . S
C1855 N1858 1.384 . S
C1856 H1847 0.929 . S
C1856 C1848 1.378 . S
C1856 C1851 1.350 . S
C1857 H1844 0.929 . S
C1857 C1849 1.433 . S
C1857 N1859 1.384 . S
N1858 C1854 1.427 . S
N1858 C1855 1.384 . S
N1859 C1851 1.427 . S
N1859 C1857 1.384 . S
H1860 C1866 0.930 . S
H1861 C1870 0.930 . S
H1862 C1875 0.929 . S
H1863 C1873 0.929 . S
H1864 C1868 0.929 . S
H1865 C1874 0.929 . S
C1866 H1860 0.930 . S
C1866 C1867 1.367 . S
C1866 C1874 1.378 . S
C1867 C1866 1.367 . S
C1867 C1875 1.433 . S
C1868 H1864 0.929 . S
C1868 C1870 1.378 . S
C1868 C1872 1.350 . S
C1869 C1872 1.463 . S
C1869 C1874 1.350 . S
C1869 N1877 1.427 . S
C1870 H1861 0.930 . S
C1870 C1868 1.378 . S
C1870 C1871 1.367 . S
C1871 C1870 1.367 . S
C1871 C1873 1.433 . S
C1872 C1868 1.350 . S
C1872 C1869 1.463 . S
C1872 N1876 1.427 . S
C1873 H1863 0.929 . S
C1873 C1871 1.433 . S
C1873 N1876 1.384 . S
C1874 H1865 0.929 . S
C1874 C1866 1.378 . S
C1874 C1869 1.350 . S
C1875 H1862 0.929 . S
C1875 C1867 1.433 . S
C1875 N1877 1.384 . S
N1876 C1872 1.427 . S
N1876 C1873 1.384 . S
N1877 C1869 1.427 . S
N1877 C1875 1.384 . S
H1878 C1884 0.930 . S
H1879 C1888 0.930 . S
H1880 C1893 0.929 . S
H1881 C1891 0.929 . S
H1882 C1886 0.929 . S
H1883 C1892 0.929 . S
C1884 H1878 0.930 . S
C1884 C1885 1.367 . S
C1884 C1892 1.378 . S
C1885 C1884 1.367 . S
C1885 C1893 1.433 . S
C1886 H1882 0.929 . S
C1886 C1888 1.378 . S
C1886 C1890 1.350 . S
C1887 C1890 1.463 . S
C1887 C1892 1.350 . S
C1887 N1895 1.427 . S
C1888 H1879 0.930 . S
C1888 C1886 1.378 . S
C1888 C1889 1.367 . S
C1889 C1888 1.367 . S
C1889 C1891 1.433 . S
C1890 C1886 1.350 . S
C1890 C1887 1.463 . S
C1890 N1894 1.427 . S
C1891 H1881 0.929 . S
C1891 C1889 1.433 . S
C1891 N1894 1.384 . S
C1892 H1883 0.929 . S
C1892 C1884 1.378 . S
C1892 C1887 1.350 . S
C1893 H1880 0.929 . S
C1893 C1885 1.433 . S
C1893 N1895 1.384 . S
N1894 C1890 1.427 . S
N1894 C1891 1.384 . S
N1895 C1887 1.427 . S
N1895 C1893 1.384 . S
H1896 C1902 0.930 . S
H1897 C1906 0.930 . S
H1898 C1911 0.929 . S
H1899 C1909 0.929 . S
H1900 C1904 0.929 . S
H1901 C1910 0.929 . S
C1902 H1896 0.930 . S
C1902 C1903 1.367 . S
C1902 C1910 1.378 . S
C1903 C1902 1.367 . S
C1903 C1911 1.433 . S
C1904 H1900 0.929 . S
C1904 C1906 1.378 . S
C1904 C1908 1.350 . S
C1905 C1908 1.463 . S
C1905 C1910 1.350 . S
C1905 N1913 1.427 . S
C1906 H1897 0.930 . S
C1906 C1904 1.378 . S
C1906 C1907 1.367 . S
C1907 C1906 1.367 . S
C1907 C1909 1.433 . S
C1908 C1904 1.350 . S
C1908 C1905 1.463 . S
C1908 N1912 1.427 . S
C1909 H1899 0.929 . S
C1909 C1907 1.433 . S
C1909 N1912 1.384 . S
C1910 H1901 0.929 . S
C1910 C1902 1.378 . S
C1910 C1905 1.350 . S
C1911 H1898 0.929 . S
C1911 C1903 1.433 . S
C1911 N1913 1.384 . S
N1912 C1908 1.427 . S
N1912 C1909 1.384 . S
N1913 C1905 1.427 . S
N1913 C1911 1.384 . S
H1914 C1920 0.930 . S
H1915 C1924 0.930 . S
H1916 C1929 0.929 . S
H1917 C1927 0.929 . S
H1918 C1922 0.929 . S
H1919 C1928 0.929 . S
C1920 H1914 0.930 . S
C1920 C1921 1.367 . S
C1920 C1928 1.378 . S
C1921 C1920 1.367 . S
C1921 C1929 1.433 . S
C1922 H1918 0.929 . S
C1922 C1924 1.378 . S
C1922 C1926 1.350 . S
C1923 C1926 1.463 . S
C1923 C1928 1.350 . S
C1923 N1931 1.427 . S
C1924 H1915 0.930 . S
C1924 C1922 1.378 . S
C1924 C1925 1.367 . S
C1925 C1924 1.367 . S
C1925 C1927 1.433 . S
C1926 C1922 1.350 . S
C1926 C1923 1.463 . S
C1926 N1930 1.427 . S
C1927 H1917 0.929 . S
C1927 C1925 1.433 . S
C1927 N1930 1.384 . S
C1928 H1919 0.929 . S
C1928 C1920 1.378 . S
C1928 C1923 1.350 . S
C1929 H1916 0.929 . S
C1929 C1921 1.433 . S
C1929 N1931 1.384 . S
N1930 C1926 1.427 . S
N1930 C1927 1.384 . S
N1931 C1923 1.427 . S
N1931 C1929 1.384 . S
H1932 C1938 0.930 . S
H1933 C1942 0.930 . S
H1934 C1947 0.929 . S
H1935 C1945 0.929 . S
H1936 C1940 0.929 . S
H1937 C1946 0.929 . S
C1938 H1932 0.930 . S
C1938 C1939 1.367 . S
C1938 C1946 1.378 . S
C1939 C1938 1.367 . S
C1939 C1947 1.433 . S
C1940 H1936 0.929 . S
C1940 C1942 1.378 . S
C1940 C1944 1.350 . S
C1941 C1944 1.463 . S
C1941 C1946 1.350 . S
C1941 N1949 1.427 . S
C1942 H1933 0.930 . S
C1942 C1940 1.378 . S
C1942 C1943 1.367 . S
C1943 C1942 1.367 . S
C1943 C1945 1.433 . S
C1944 C1940 1.350 . S
C1944 C1941 1.463 . S
C1944 N1948 1.427 . S
C1945 H1935 0.929 . S
C1945 C1943 1.433 . S
C1945 N1948 1.384 . S
C1946 H1937 0.929 . S
C1946 C1938 1.378 . S
C1946 C1941 1.350 . S
C1947 H1934 0.929 . S
C1947 C1939 1.433 . S
C1947 N1949 1.384 . S
N1948 C1944 1.427 . S
N1948 C1945 1.384 . S
N1949 C1941 1.427 . S
N1949 C1947 1.384 . S
H1950 C1956 0.930 . S
H1951 C1960 0.930 . S
H1952 C1965 0.929 . S
H1953 C1963 0.929 . S
H1954 C1958 0.929 . S
H1955 C1964 0.929 . S
C1956 H1950 0.930 . S
C1956 C1957 1.367 . S
C1956 C1964 1.378 . S
C1957 C1956 1.367 . S
C1957 C1965 1.433 . S
C1958 H1954 0.929 . S
C1958 C1960 1.378 . S
C1958 C1962 1.350 . S
C1959 C1962 1.463 . S
C1959 C1964 1.350 . S
C1959 N1967 1.427 . S
C1960 H1951 0.930 . S
C1960 C1958 1.378 . S
C1960 C1961 1.367 . S
C1961 C1960 1.367 . S
C1961 C1963 1.433 . S
C1962 C1958 1.350 . S
C1962 C1959 1.463 . S
C1962 N1966 1.427 . S
C1963 H1953 0.929 . S
C1963 C1961 1.433 . S
C1963 N1966 1.384 . S
C1964 H1955 0.929 . S
C1964 C1956 1.378 . S
C1964 C1959 1.350 . S
C1965 H1952 0.929 . S
C1965 C1957 1.433 . S
C1965 N1967 1.384 . S
N1966 C1962 1.427 . S
N1966 C1963 1.384 . S
N1967 C1959 1.427 . S
N1967 C1965 1.384 . S
H1968 C1974 0.930 . S
H1969 C1978 0.930 . S
H1970 C1983 0.929 . S
H1971 C1981 0.929 . S
H1972 C1976 0.929 . S
H1973 C1982 0.929 . S
C1974 H1968 0.930 . S
C1974 C1975 1.367 1_455 S
C1974 C1982 1.378 1_455 S
C1975 C1974 1.367 1_655 S
C1975 C1983 1.433 . S
C1976 H1972 0.929 . S
C1976 C1978 1.378 . S
C1976 C1980 1.350 . S
C1977 C1980 1.463 . S
C1977 C1982 1.350 . S
C1977 N1985 1.427 . S
C1978 H1969 0.930 . S
C1978 C1976 1.378 . S
C1978 C1979 1.367 . S
C1979 C1978 1.367 . S
C1979 C1981 1.433 . S
C1980 C1976 1.350 . S
C1980 C1977 1.463 . S
C1980 N1984 1.427 . S
C1981 H1971 0.929 . S
C1981 C1979 1.433 . S
C1981 N1984 1.384 . S
C1982 H1973 0.929 . S
C1982 C1974 1.378 1_655 S
C1982 C1977 1.350 . S
C1983 H1970 0.929 . S
C1983 C1975 1.433 . S
C1983 N1985 1.384 . S
N1984 C1980 1.427 . S
N1984 C1981 1.384 . S
N1985 C1977 1.427 . S
N1985 C1983 1.384 . S
H1986 C1992 0.930 . S
H1987 C1996 0.930 . S
H1988 C2001 0.929 . S
H1989 C1999 0.929 . S
H1990 C1994 0.929 . S
H1991 C2000 0.929 . S
C1992 H1986 0.930 . S
C1992 C1993 1.367 . S
C1992 C2000 1.378 . S
C1993 C1992 1.367 . S
C1993 C2001 1.433 . S
C1994 H1990 0.929 . S
C1994 C1996 1.378 . S
C1994 C1998 1.350 . S
C1995 C1998 1.463 . S
C1995 C2000 1.350 . S
C1995 N2003 1.427 . S
C1996 H1987 0.930 . S
C1996 C1994 1.378 . S
C1996 C1997 1.367 . S
C1997 C1996 1.367 . S
C1997 C1999 1.433 . S
C1998 C1994 1.350 . S
C1998 C1995 1.463 . S
C1998 N2002 1.427 . S
C1999 H1989 0.929 . S
C1999 C1997 1.433 . S
C1999 N2002 1.384 . S
C2000 H1991 0.929 . S
C2000 C1992 1.378 . S
C2000 C1995 1.350 . S
C2001 H1988 0.929 . S
C2001 C1993 1.433 . S
C2001 N2003 1.384 . S
N2002 C1998 1.427 . S
N2002 C1999 1.384 . S
N2003 C1995 1.427 . S
N2003 C2001 1.384 . S
H2004 C2010 0.930 . S
H2005 C2014 0.930 . S
H2006 C2019 0.929 . S
H2007 C2017 0.929 . S
H2008 C2012 0.929 . S
H2009 C2018 0.929 . S
C2010 H2004 0.930 . S
C2010 C2011 1.367 . S
C2010 C2018 1.378 . S
C2011 C2010 1.367 . S
C2011 C2019 1.433 . S
C2012 H2008 0.929 . S
C2012 C2014 1.378 . S
C2012 C2016 1.350 . S
C2013 C2016 1.463 . S
C2013 C2018 1.350 . S
C2013 N2021 1.427 . S
C2014 H2005 0.930 . S
C2014 C2012 1.378 . S
C2014 C2015 1.367 . S
C2015 C2014 1.367 . S
C2015 C2017 1.433 . S
C2016 C2012 1.350 . S
C2016 C2013 1.463 . S
C2016 N2020 1.427 . S
C2017 H2007 0.929 . S
C2017 C2015 1.433 . S
C2017 N2020 1.384 . S
C2018 H2009 0.929 . S
C2018 C2010 1.378 . S
C2018 C2013 1.350 . S
C2019 H2006 0.929 . S
C2019 C2011 1.433 . S
C2019 N2021 1.384 . S
N2020 C2016 1.427 . S
N2020 C2017 1.384 . S
N2021 C2013 1.427 . S
N2021 C2019 1.384 . S
H2022 C2028 0.930 . S
H2023 C2032 0.930 . S
H2024 C2037 0.929 . S
H2025 C2035 0.929 . S
H2026 C2030 0.929 . S
H2027 C2036 0.929 . S
C2028 H2022 0.930 . S
C2028 C2029 1.367 . S
C2028 C2036 1.378 . S
C2029 C2028 1.367 . S
C2029 C2037 1.433 . S
C2030 H2026 0.929 . S
C2030 C2032 1.378 . S
C2030 C2034 1.350 . S
C2031 C2034 1.463 . S
C2031 C2036 1.350 . S
C2031 N2039 1.427 . S
C2032 H2023 0.930 . S
C2032 C2030 1.378 . S
C2032 C2033 1.367 . S
C2033 C2032 1.367 . S
C2033 C2035 1.433 1_554 S
C2034 C2030 1.350 . S
C2034 C2031 1.463 . S
C2034 N2038 1.427 . S
C2035 H2025 0.929 . S
C2035 C2033 1.433 1_556 S
C2035 N2038 1.384 1_556 S
C2036 H2027 0.929 . S
C2036 C2028 1.378 . S
C2036 C2031 1.350 . S
C2037 H2024 0.929 . S
C2037 C2029 1.433 . S
C2037 N2039 1.384 . S
N2038 C2034 1.427 . S
N2038 C2035 1.384 1_554 S
N2039 C2031 1.427 . S
N2039 C2037 1.384 . S
H2040 C2046 0.930 1_655 S
H2041 C2050 0.930 . S
H2042 C2055 0.929 . S
H2043 C2053 0.929 . S
H2044 C2048 0.929 . S
H2045 C2054 0.929 . S
C2046 H2040 0.930 1_455 S
C2046 C2047 1.367 . S
C2046 C2054 1.378 . S
C2047 C2046 1.367 . S
C2047 C2055 1.433 . S
C2048 H2044 0.929 . S
C2048 C2050 1.378 . S
C2048 C2052 1.350 . S
C2049 C2052 1.463 . S
C2049 C2054 1.350 . S
C2049 N2057 1.427 . S
C2050 H2041 0.930 . S
C2050 C2048 1.378 . S
C2050 C2051 1.367 . S
C2051 C2050 1.367 . S
C2051 C2053 1.433 . S
C2052 C2048 1.350 . S
C2052 C2049 1.463 . S
C2052 N2056 1.427 . S
C2053 H2043 0.929 . S
C2053 C2051 1.433 . S
C2053 N2056 1.384 . S
C2054 H2045 0.929 . S
C2054 C2046 1.378 . S
C2054 C2049 1.350 . S
C2055 H2042 0.929 . S
C2055 C2047 1.433 . S
C2055 N2057 1.384 . S
N2056 C2052 1.427 . S
N2056 C2053 1.384 . S
N2057 C2049 1.427 . S
N2057 C2055 1.384 . S
H2058 C2064 0.930 . S
H2059 C2068 0.930 . S
H2060 C2073 0.929 . S
H2061 C2071 0.929 . S
H2062 C2066 0.929 . S
H2063 C2072 0.929 . S
C2064 H2058 0.930 . S
C2064 C2065 1.367 . S
C2064 C2072 1.378 . S
C2065 C2064 1.367 . S
C2065 C2073 1.433 . S
C2066 H2062 0.929 . S
C2066 C2068 1.378 . S
C2066 C2070 1.350 . S
C2067 C2070 1.463 . S
C2067 C2072 1.350 . S
C2067 N2075 1.427 . S
C2068 H2059 0.930 . S
C2068 C2066 1.378 . S
C2068 C2069 1.367 . S
C2069 C2068 1.367 . S
C2069 C2071 1.433 . S
C2070 C2066 1.350 . S
C2070 C2067 1.463 . S
C2070 N2074 1.427 . S
C2071 H2061 0.929 . S
C2071 C2069 1.433 . S
C2071 N2074 1.384 . S
C2072 H2063 0.929 . S
C2072 C2064 1.378 . S
C2072 C2067 1.350 . S
C2073 H2060 0.929 . S
C2073 C2065 1.433 . S
C2073 N2075 1.384 . S
N2074 C2070 1.427 . S
N2074 C2071 1.384 . S
N2075 C2067 1.427 . S
N2075 C2073 1.384 . S
H2076 C2082 0.930 . S
H2077 C2086 0.930 . S
H2078 C2091 0.929 . S
H2079 C2089 0.929 . S
H2080 C2084 0.929 . S
H2081 C2090 0.929 . S
C2082 H2076 0.930 . S
C2082 C2083 1.367 . S
C2082 C2090 1.378 . S
C2083 C2082 1.367 . S
C2083 C2091 1.433 . S
C2084 H2080 0.929 . S
C2084 C2086 1.378 . S
C2084 C2088 1.350 . S
C2085 C2088 1.463 . S
C2085 C2090 1.350 . S
C2085 N2093 1.427 . S
C2086 H2077 0.930 . S
C2086 C2084 1.378 . S
C2086 C2087 1.367 . S
C2087 C2086 1.367 . S
C2087 C2089 1.433 . S
C2088 C2084 1.350 . S
C2088 C2085 1.463 . S
C2088 N2092 1.427 . S
C2089 H2079 0.929 . S
C2089 C2087 1.433 . S
C2089 N2092 1.384 . S
C2090 H2081 0.929 . S
C2090 C2082 1.378 . S
C2090 C2085 1.350 . S
C2091 H2078 0.929 . S
C2091 C2083 1.433 . S
C2091 N2093 1.384 . S
N2092 C2088 1.427 . S
N2092 C2089 1.384 . S
N2093 C2085 1.427 . S
N2093 C2091 1.384 . S
H2094 C2100 0.930 . S
H2095 C2104 0.930 . S
H2096 C2109 0.929 . S
H2097 C2107 0.929 . S
H2098 C2102 0.929 . S
H2099 C2108 0.929 . S
C2100 H2094 0.930 . S
C2100 C2101 1.367 . S
C2100 C2108 1.378 . S
C2101 C2100 1.367 . S
C2101 C2109 1.433 . S
C2102 H2098 0.929 . S
C2102 C2104 1.378 . S
C2102 C2106 1.350 . S
C2103 C2106 1.463 . S
C2103 C2108 1.350 . S
C2103 N2111 1.427 . S
C2104 H2095 0.930 . S
C2104 C2102 1.378 . S
C2104 C2105 1.367 . S
C2105 C2104 1.367 . S
C2105 C2107 1.433 . S
C2106 C2102 1.350 . S
C2106 C2103 1.463 . S
C2106 N2110 1.427 . S
C2107 H2097 0.929 . S
C2107 C2105 1.433 . S
C2107 N2110 1.384 . S
C2108 H2099 0.929 . S
C2108 C2100 1.378 . S
C2108 C2103 1.350 . S
C2109 H2096 0.929 . S
C2109 C2101 1.433 . S
C2109 N2111 1.384 . S
N2110 C2106 1.427 . S
N2110 C2107 1.384 . S
N2111 C2103 1.427 . S
N2111 C2109 1.384 . S
H2112 C2118 0.930 . S
H2113 C2122 0.930 1_545 S
H2114 C2127 0.929 . S
H2115 C2125 0.929 . S
H2116 C2120 0.929 . S
H2117 C2126 0.929 . S
C2118 H2112 0.930 . S
C2118 C2119 1.367 . S
C2118 C2126 1.378 . S
C2119 C2118 1.367 . S
C2119 C2127 1.433 . S
C2120 H2116 0.929 . S
C2120 C2122 1.378 . S
C2120 C2124 1.350 . S
C2121 C2124 1.463 . S
C2121 C2126 1.350 . S
C2121 N2129 1.427 . S
C2122 H2113 0.930 1_565 S
C2122 C2120 1.378 . S
C2122 C2123 1.367 . S
C2123 C2122 1.367 . S
C2123 C2125 1.433 . S
C2124 C2120 1.350 . S
C2124 C2121 1.463 . S
C2124 N2128 1.427 . S
C2125 H2115 0.929 . S
C2125 C2123 1.433 . S
C2125 N2128 1.384 . S
C2126 H2117 0.929 . S
C2126 C2118 1.378 . S
C2126 C2121 1.350 . S
C2127 H2114 0.929 . S
C2127 C2119 1.433 . S
C2127 N2129 1.384 . S
N2128 C2124 1.427 . S
N2128 C2125 1.384 . S
N2129 C2121 1.427 . S
N2129 C2127 1.384 . S
H2130 C2136 0.930 1_565 S
H2131 C2140 0.930 . S
H2132 C2145 0.929 . S
H2133 C2143 0.929 . S
H2134 C2138 0.929 . S
H2135 C2144 0.929 . S
C2136 H2130 0.930 1_545 S
C2136 C2137 1.367 . S
C2136 C2144 1.378 . S
C2137 C2136 1.367 . S
C2137 C2145 1.433 . S
C2138 H2134 0.929 . S
C2138 C2140 1.378 . S
C2138 C2142 1.350 . S
C2139 C2142 1.463 . S
C2139 C2144 1.350 . S
C2139 N2147 1.427 . S
C2140 H2131 0.930 . S
C2140 C2138 1.378 . S
C2140 C2141 1.367 . S
C2141 C2140 1.367 . S
C2141 C2143 1.433 . S
C2142 C2138 1.350 . S
C2142 C2139 1.463 . S
C2142 N2146 1.427 . S
C2143 H2133 0.929 . S
C2143 C2141 1.433 . S
C2143 N2146 1.384 . S
C2144 H2135 0.929 . S
C2144 C2136 1.378 . S
C2144 C2139 1.350 . S
C2145 H2132 0.929 . S
C2145 C2137 1.433 . S
C2145 N2147 1.384 . S
N2146 C2142 1.427 . S
N2146 C2143 1.384 . S
N2147 C2139 1.427 . S
N2147 C2145 1.384 . S
H2148 C2154 0.930 . S
H2149 C2158 0.930 . S
H2150 C2163 0.929 . S
H2151 C2161 0.929 . S
H2152 C2156 0.929 . S
H2153 C2162 0.929 . S
C2154 H2148 0.930 . S
C2154 C2155 1.367 . S
C2154 C2162 1.378 . S
C2155 C2154 1.367 . S
C2155 C2163 1.433 . S
C2156 H2152 0.929 . S
C2156 C2158 1.378 . S
C2156 C2160 1.350 . S
C2157 C2160 1.463 . S
C2157 C2162 1.350 . S
C2157 N2165 1.427 . S
C2158 H2149 0.930 . S
C2158 C2156 1.378 . S
C2158 C2159 1.367 . S
C2159 C2158 1.367 . S
C2159 C2161 1.433 . S
C2160 C2156 1.350 . S
C2160 C2157 1.463 . S
C2160 N2164 1.427 . S
C2161 H2151 0.929 . S
C2161 C2159 1.433 . S
C2161 N2164 1.384 . S
C2162 H2153 0.929 . S
C2162 C2154 1.378 . S
C2162 C2157 1.350 . S
C2163 H2150 0.929 . S
C2163 C2155 1.433 . S
C2163 N2165 1.384 . S
N2164 C2160 1.427 . S
N2164 C2161 1.384 . S
N2165 C2157 1.427 . S
N2165 C2163 1.384 . S
H2166 C2172 0.930 . S
H2167 C2176 0.930 . S
H2168 C2181 0.918 1_565 S
H2169 C2179 0.929 . S
H2170 C2174 0.929 . S
H2171 C2180 0.929 . S
C2172 H2166 0.930 . S
C2172 C2173 1.367 . S
C2172 C2180 1.378 . S
C2173 C2172 1.367 . S
C2173 C2181 1.433 . S
C2174 H2170 0.929 . S
C2174 C2176 1.378 . S
C2174 C2178 1.350 . S
C2175 C2178 1.463 . S
C2175 C2180 1.350 . S
C2175 N2183 1.427 . S
C2176 H2167 0.930 . S
C2176 C2174 1.378 . S
C2176 C2177 1.367 . S
C2177 C2176 1.367 . S
C2177 C2179 1.433 . S
C2178 C2174 1.350 . S
C2178 C2175 1.463 . S
C2178 N2182 1.427 . S
C2179 H2169 0.929 . S
C2179 C2177 1.433 . S
C2179 N2182 1.384 . S
C2180 H2171 0.929 . S
C2180 C2172 1.378 . S
C2180 C2175 1.350 . S
C2181 H2168 0.918 1_545 S
C2181 C2173 1.433 . S
C2181 N2183 1.384 . S
N2182 C2178 1.427 . S
N2182 C2179 1.384 . S
N2183 C2175 1.427 . S
N2183 C2181 1.384 . S
H2184 C2190 0.930 . S
H2185 C2194 0.930 . S
H2186 C2199 0.929 1_554 S
H2187 C2197 0.929 . S
H2188 C2192 0.929 . S
H2189 C2198 0.929 . S
C2190 H2184 0.930 . S
C2190 C2191 1.367 . S
C2190 C2198 1.378 . S
C2191 C2190 1.367 . S
C2191 C2199 1.433 . S
C2192 H2188 0.929 . S
C2192 C2194 1.378 . S
C2192 C2196 1.350 . S
C2193 C2196 1.463 . S
C2193 C2198 1.350 . S
C2193 N2201 1.427 . S
C2194 H2185 0.930 . S
C2194 C2192 1.378 . S
C2194 C2195 1.367 . S
C2195 C2194 1.367 . S
C2195 C2197 1.433 . S
C2196 C2192 1.350 . S
C2196 C2193 1.463 . S
C2196 N2200 1.427 . S
C2197 H2187 0.929 . S
C2197 C2195 1.433 . S
C2197 N2200 1.384 . S
C2198 H2189 0.929 . S
C2198 C2190 1.378 . S
C2198 C2193 1.350 . S
C2199 H2186 0.929 1_556 S
C2199 C2191 1.433 . S
C2199 N2201 1.384 . S
N2200 C2196 1.427 . S
N2200 C2197 1.384 . S
N2201 C2193 1.427 . S
N2201 C2199 1.384 . S
H2202 C2208 0.930 . S
H2203 C2212 0.930 . S
H2204 C2217 0.929 . S
H2205 C2215 0.929 . S
H2206 C2210 0.929 . S
H2207 C2216 0.929 . S
C2208 H2202 0.930 . S
C2208 C2209 1.367 . S
C2208 C2216 1.378 . S
C2209 C2208 1.367 . S
C2209 C2217 1.433 . S
C2210 H2206 0.929 . S
C2210 C2212 1.378 . S
C2210 C2214 1.350 . S
C2211 C2214 1.463 . S
C2211 C2216 1.350 . S
C2211 N2219 1.427 . S
C2212 H2203 0.930 . S
C2212 C2210 1.378 . S
C2212 C2213 1.367 . S
C2213 C2212 1.367 . S
C2213 C2215 1.433 . S
C2214 C2210 1.350 . S
C2214 C2211 1.463 . S
C2214 N2218 1.427 . S
C2215 H2205 0.929 . S
C2215 C2213 1.433 . S
C2215 N2218 1.384 . S
C2216 H2207 0.929 . S
C2216 C2208 1.378 . S
C2216 C2211 1.350 . S
C2217 H2204 0.929 . S
C2217 C2209 1.433 . S
C2217 N2219 1.384 . S
N2218 C2214 1.427 . S
N2218 C2215 1.384 . S
N2219 C2211 1.427 . S
N2219 C2217 1.384 . S
H2220 C2226 0.930 . S
H2221 C2230 0.930 . S
H2222 C2235 0.929 . S
H2223 C2233 0.929 . S
H2224 C2228 0.929 . S
H2225 C2234 0.929 . S
C2226 H2220 0.930 . S
C2226 C2227 1.367 . S
C2226 C2234 1.378 . S
C2227 C2226 1.367 . S
C2227 C2235 1.433 . S
C2228 H2224 0.929 . S
C2228 C2230 1.378 . S
C2228 C2232 1.350 . S
C2229 C2232 1.463 . S
C2229 C2234 1.350 . S
C2229 N2237 1.427 . S
C2230 H2221 0.930 . S
C2230 C2228 1.378 . S
C2230 C2231 1.367 . S
C2231 C2230 1.367 . S
C2231 C2233 1.433 . S
C2232 C2228 1.350 . S
C2232 C2229 1.463 . S
C2232 N2236 1.427 . S
C2233 H2223 0.929 . S
C2233 C2231 1.433 . S
C2233 N2236 1.384 . S
C2234 H2225 0.929 . S
C2234 C2226 1.378 . S
C2234 C2229 1.350 . S
C2235 H2222 0.929 . S
C2235 C2227 1.433 . S
C2235 N2237 1.384 . S
N2236 C2232 1.427 . S
N2236 C2233 1.384 . S
N2237 C2229 1.427 . S
N2237 C2235 1.384 . S
H2238 C2244 0.930 . S
H2239 C2248 0.930 . S
H2240 C2253 0.929 . S
H2241 C2251 0.929 . S
H2242 C2246 0.929 . S
H2243 C2252 0.929 . S
C2244 H2238 0.930 . S
C2244 C2245 1.367 . S
C2244 C2252 1.378 . S
C2245 C2244 1.367 . S
C2245 C2253 1.433 . S
C2246 H2242 0.929 . S
C2246 C2248 1.378 . S
C2246 C2250 1.350 . S
C2247 C2250 1.463 . S
C2247 C2252 1.350 . S
C2247 N2255 1.427 . S
C2248 H2239 0.930 . S
C2248 C2246 1.378 . S
C2248 C2249 1.367 . S
C2249 C2248 1.367 . S
C2249 C2251 1.433 . S
C2250 C2246 1.350 . S
C2250 C2247 1.463 . S
C2250 N2254 1.427 . S
C2251 H2241 0.929 . S
C2251 C2249 1.433 . S
C2251 N2254 1.384 . S
C2252 H2243 0.929 . S
C2252 C2244 1.378 . S
C2252 C2247 1.350 . S
C2253 H2240 0.929 . S
C2253 C2245 1.433 . S
C2253 N2255 1.384 . S
N2254 C2250 1.427 . S
N2254 C2251 1.384 . S
N2255 C2247 1.427 . S
N2255 C2253 1.384 . S
H2256 C2262 0.930 . S
H2257 C2266 0.930 . S
H2258 C2271 0.929 . S
H2259 C2269 0.929 . S
H2260 C2264 0.929 . S
H2261 C2270 0.929 . S
C2262 H2256 0.930 . S
C2262 C2263 1.367 . S
C2262 C2270 1.378 . S
C2263 C2262 1.367 . S
C2263 C2271 1.433 . S
C2264 H2260 0.929 . S
C2264 C2266 1.378 . S
C2264 C2268 1.350 . S
C2265 C2268 1.463 . S
C2265 C2270 1.350 . S
C2265 N2273 1.427 . S
C2266 H2257 0.930 . S
C2266 C2264 1.378 . S
C2266 C2267 1.367 . S
C2267 C2266 1.367 . S
C2267 C2269 1.433 . S
C2268 C2264 1.350 . S
C2268 C2265 1.463 . S
C2268 N2272 1.427 . S
C2269 H2259 0.929 . S
C2269 C2267 1.433 . S
C2269 N2272 1.384 . S
C2270 H2261 0.929 . S
C2270 C2262 1.378 . S
C2270 C2265 1.350 . S
C2271 H2258 0.929 . S
C2271 C2263 1.433 . S
C2271 N2273 1.384 . S
N2272 C2268 1.427 . S
N2272 C2269 1.384 . S
N2273 C2265 1.427 . S
N2273 C2271 1.384 . S
H2274 C2280 0.930 . S
H2275 C2284 0.930 . S
H2276 C2289 0.929 . S
H2277 C2287 0.929 . S
H2278 C2282 0.929 . S
H2279 C2288 0.929 . S
C2280 H2274 0.930 . S
C2280 C2281 1.367 . S
C2280 C2288 1.378 . S
C2281 C2280 1.367 . S
C2281 C2289 1.433 . S
C2282 H2278 0.929 . S
C2282 C2284 1.378 . S
C2282 C2286 1.350 . S
C2283 C2286 1.463 . S
C2283 C2288 1.350 . S
C2283 N2291 1.427 . S
C2284 H2275 0.930 . S
C2284 C2282 1.378 . S
C2284 C2285 1.367 . S
C2285 C2284 1.367 . S
C2285 C2287 1.433 . S
C2286 C2282 1.350 . S
C2286 C2283 1.463 . S
C2286 N2290 1.427 . S
C2287 H2277 0.929 . S
C2287 C2285 1.433 . S
C2287 N2290 1.384 . S
C2288 H2279 0.929 . S
C2288 C2280 1.378 . S
C2288 C2283 1.350 . S
C2289 H2276 0.929 . S
C2289 C2281 1.433 . S
C2289 N2291 1.384 . S
N2290 C2286 1.427 . S
N2290 C2287 1.384 . S
N2291 C2283 1.427 . S
N2291 C2289 1.384 . S
H2292 C2298 0.930 . S
H2293 C2302 0.930 . S
H2294 C2307 0.929 . S
H2295 C2305 0.929 . S
H2296 C2300 0.929 . S
H2297 C2306 0.929 . S
C2298 H2292 0.930 . S
C2298 C2299 1.367 . S
C2298 C2306 1.378 . S
C2299 C2298 1.367 . S
C2299 C2307 1.433 . S
C2300 H2296 0.929 . S
C2300 C2302 1.378 . S
C2300 C2304 1.350 . S
C2301 C2304 1.463 . S
C2301 C2306 1.350 . S
C2301 N2309 1.427 . S
C2302 H2293 0.930 . S
C2302 C2300 1.378 . S
C2302 C2303 1.367 . S
C2303 C2302 1.367 . S
C2303 C2305 1.433 . S
C2304 C2300 1.350 . S
C2304 C2301 1.463 . S
C2304 N2308 1.427 . S
C2305 H2295 0.929 . S
C2305 C2303 1.433 . S
C2305 N2308 1.384 . S
C2306 H2297 0.929 . S
C2306 C2298 1.378 . S
C2306 C2301 1.350 . S
C2307 H2294 0.929 . S
C2307 C2299 1.433 . S
C2307 N2309 1.384 . S
N2308 C2304 1.427 . S
N2308 C2305 1.384 . S
N2309 C2301 1.427 . S
N2309 C2307 1.384 . S
H2310 C2316 0.930 . S
H2311 C2320 0.930 . S
H2312 C2325 0.929 . S
H2313 C2323 0.929 . S
H2314 C2318 0.929 . S
H2315 C2324 0.929 . S
C2316 H2310 0.930 . S
C2316 C2317 1.367 . S
C2316 C2324 1.378 . S
C2317 C2316 1.367 . S
C2317 C2325 1.433 . S
C2318 H2314 0.929 . S
C2318 C2320 1.378 . S
C2318 C2322 1.350 . S
C2319 C2322 1.463 . S
C2319 C2324 1.350 . S
C2319 N2327 1.427 . S
C2320 H2311 0.930 . S
C2320 C2318 1.378 . S
C2320 C2321 1.367 . S
C2321 C2320 1.367 . S
C2321 C2323 1.433 . S
C2322 C2318 1.350 . S
C2322 C2319 1.463 . S
C2322 N2326 1.427 . S
C2323 H2313 0.929 . S
C2323 C2321 1.433 . S
C2323 N2326 1.384 . S
C2324 H2315 0.929 . S
C2324 C2316 1.378 . S
C2324 C2319 1.350 . S
C2325 H2312 0.929 . S
C2325 C2317 1.433 . S
C2325 N2327 1.384 . S
N2326 C2322 1.427 . S
N2326 C2323 1.384 . S
N2327 C2319 1.427 . S
N2327 C2325 1.384 . S
H2328 C2334 0.930 . S
H2329 C2338 0.930 . S
H2330 C2343 0.929 . S
H2331 C2341 0.929 . S
H2332 C2336 0.929 . S
H2333 C2342 0.929 . S
C2334 H2328 0.930 . S
C2334 C2335 1.367 . S
C2334 C2342 1.378 . S
C2335 C2334 1.367 . S
C2335 C2343 1.433 . S
C2336 H2332 0.929 . S
C2336 C2338 1.378 . S
C2336 C2340 1.350 . S
C2337 C2340 1.463 . S
C2337 C2342 1.350 . S
C2337 N2345 1.427 . S
C2338 H2329 0.930 . S
C2338 C2336 1.378 . S
C2338 C2339 1.367 . S
C2339 C2338 1.367 . S
C2339 C2341 1.433 . S
C2340 C2336 1.350 . S
C2340 C2337 1.463 . S
C2340 N2344 1.427 . S
C2341 H2331 0.929 . S
C2341 C2339 1.433 . S
C2341 N2344 1.384 . S
C2342 H2333 0.929 . S
C2342 C2334 1.378 . S
C2342 C2337 1.350 . S
C2343 H2330 0.929 . S
C2343 C2335 1.433 . S
C2343 N2345 1.384 . S
N2344 C2340 1.427 . S
N2344 C2341 1.384 . S
N2345 C2337 1.427 . S
N2345 C2343 1.384 . S
H2346 C2352 0.930 . S
H2347 C2356 0.930 . S
H2348 C2361 0.929 . S
H2349 C2359 0.929 . S
H2350 C2354 0.929 . S
H2351 C2360 0.929 . S
C2352 H2346 0.930 . S
C2352 C2353 1.367 . S
C2352 C2360 1.378 . S
C2353 C2352 1.367 . S
C2353 C2361 1.433 . S
C2354 H2350 0.929 . S
C2354 C2356 1.378 . S
C2354 C2358 1.350 . S
C2355 C2358 1.463 . S
C2355 C2360 1.350 . S
C2355 N2363 1.427 . S
C2356 H2347 0.930 . S
C2356 C2354 1.378 . S
C2356 C2357 1.367 . S
C2357 C2356 1.367 . S
C2357 C2359 1.433 . S
C2358 C2354 1.350 . S
C2358 C2355 1.463 . S
C2358 N2362 1.427 . S
C2359 H2349 0.929 . S
C2359 C2357 1.433 . S
C2359 N2362 1.384 . S
C2360 H2351 0.929 . S
C2360 C2352 1.378 . S
C2360 C2355 1.350 . S
C2361 H2348 0.929 . S
C2361 C2353 1.433 . S
C2361 N2363 1.384 . S
N2362 C2358 1.427 . S
N2362 C2359 1.384 . S
N2363 C2355 1.427 . S
N2363 C2361 1.384 . S
H2364 C2370 0.930 . S
H2365 C2374 0.930 . S
H2366 C2379 0.929 . S
H2367 C2377 0.929 . S
H2368 C2372 0.929 . S
H2369 C2378 0.929 . S
C2370 H2364 0.930 . S
C2370 C2371 1.367 . S
C2370 C2378 1.378 . S
C2371 C2370 1.367 . S
C2371 C2379 1.433 . S
C2372 H2368 0.929 . S
C2372 C2374 1.378 . S
C2372 C2376 1.350 . S
C2373 C2376 1.463 . S
C2373 C2378 1.350 . S
C2373 N2381 1.427 . S
C2374 H2365 0.930 . S
C2374 C2372 1.378 . S
C2374 C2375 1.367 . S
C2375 C2374 1.367 . S
C2375 C2377 1.433 . S
C2376 C2372 1.350 . S
C2376 C2373 1.463 . S
C2376 N2380 1.427 . S
C2377 H2367 0.929 . S
C2377 C2375 1.433 . S
C2377 N2380 1.384 . S
C2378 H2369 0.929 . S
C2378 C2370 1.378 . S
C2378 C2373 1.350 . S
C2379 H2366 0.929 . S
C2379 C2371 1.433 . S
C2379 N2381 1.384 . S
N2380 C2376 1.427 . S
N2380 C2377 1.384 . S
N2381 C2373 1.427 . S
N2381 C2379 1.384 . S
H2382 C2388 0.930 . S
H2383 C2392 0.930 . S
H2384 C2397 0.929 . S
H2385 C2395 0.929 . S
H2386 C2390 0.929 . S
H2387 C2396 0.929 . S
C2388 H2382 0.930 . S
C2388 C2389 1.367 . S
C2388 C2396 1.378 . S
C2389 C2388 1.367 . S
C2389 C2397 1.433 . S
C2390 H2386 0.929 . S
C2390 C2392 1.378 . S
C2390 C2394 1.350 . S
C2391 C2394 1.463 . S
C2391 C2396 1.350 . S
C2391 N2399 1.427 . S
C2392 H2383 0.930 . S
C2392 C2390 1.378 . S
C2392 C2393 1.367 . S
C2393 C2392 1.367 . S
C2393 C2395 1.433 . S
C2394 C2390 1.350 . S
C2394 C2391 1.463 . S
C2394 N2398 1.427 . S
C2395 H2385 0.929 . S
C2395 C2393 1.433 . S
C2395 N2398 1.384 . S
C2396 H2387 0.929 . S
C2396 C2388 1.378 . S
C2396 C2391 1.350 . S
C2397 H2384 0.929 . S
C2397 C2389 1.433 . S
C2397 N2399 1.384 . S
N2398 C2394 1.427 . S
N2398 C2395 1.384 . S
N2399 C2391 1.427 . S
N2399 C2397 1.384 . S
C679 C7 0.675 . S
C683 C371 0.671 . S
C697 C385 0.655 . S
C701 C21 0.619 . S
C715 C35 0.696 . S
C719 C343 0.680 . S
C733 C357 0.682 . S
C737 C49 0.697 . S
C751 C63 0.527 . S
C755 C427 0.646 . S
C769 C77 0.630 . S
C773 C441 0.667 . S
C787 C91 0.630 . S
C791 C399 0.700 . S
C805 C105 0.654 . S
C809 C413 0.618 1_655 S
C823 C175 0.721 . S
C827 C119 0.666 . S
C841 C133 0.716 . S
C845 C189 0.638 . S
C859 C203 0.489 . S
C863 C147 0.683 . S
C877 C161 0.661 1_556 S
C881 C217 0.600 . S
C895 C609 0.682 . S
C899 C231 0.699 . S
C913 C637 0.490 . S
C917 C245 0.682 . S
C931 C315 0.651 . S
C935 C259 0.730 . S
C949 C567 0.702 . S
C953 C273 0.650 . S
C967 C665 0.664 1_565 S
C971 C287 0.623 . S
C985 C581 0.625 . S
C989 C301 0.683 . S
C1003 C329 0.648 . S
C1007 C623 0.670 . S
C1021 C455 0.722 . S
C1025 C511 0.665 . S
C1039 C525 0.649 . S
C1043 C469 0.630 . S
C1057 C483 0.661 . S
C1061 C539 0.687 . S
C1075 C553 0.638 . S
C1079 C497 0.679 . S
C1093 C595 0.632 . S
C1097 C651 0.658 . S
C1111 C13 0.712 . S
C1115 C111 0.689 . S
C1129 C69 0.751 . S
C1133 C27 0.732 . S
C1147 C41 0.722 . S
C1151 C83 0.717 . S
C1165 C55 0.694 . S
C1169 C97 0.812 . S
C1183 C293 0.660 . S
C1187 C125 0.746 . S
C1201 C587 0.815 . S
C1205 C139 0.667 . S
C1219 C153 0.918 . S
C1223 C601 0.736 . S
C1237 C167 0.771 . S
C1241 C615 0.683 . S
C1255 C671 0.753 . S
C1259 C181 0.700 . S
C1273 C195 0.733 . S
C1277 C307 0.709 . S
C1291 C209 0.708 . S
C1295 C657 0.778 . S
C1309 C223 0.711 . S
C1313 C237 0.697 . S
C1327 C251 0.922 . S
C1331 C475 0.718 . S
C1345 C265 0.713 . S
C1349 C489 0.790 . S
C1363 C503 0.757 . S
C1367 C279 0.681 . S
C1381 C321 0.772 . S
C1385 C545 0.684 . S
C1399 C517 0.728 . S
C1403 C335 0.714 . S
C1417 C447 0.815 . S
C1421 C349 0.664 . S
C1435 C363 0.731 . S
C1439 C405 0.731 . S
C1453 C419 0.740 . S
C1457 C377 0.708 . S
C1471 C391 0.733 . S
C1475 C433 0.914 . S
C1489 C461 0.661 . S
C1493 C629 0.813 . S
C1507 C643 0.759 . S
C1511 C531 0.728 . S
C1525 C573 0.715 . S
C1529 C559 0.765 . S
C1543 C8 0.850 . S
C1547 C414 0.913 . S
C1561 C428 1.103 . S
C1565 C22 0.861 . S
C1579 C36 0.754 . S
C1583 C442 0.798 . S
C1597 C50 0.884 . S
C1601 C400 0.856 . S
C1615 C386 0.982 . S
C1619 C64 0.960 . S
C1633 C78 0.821 . S
C1637 C344 0.868 . S
C1651 C358 0.771 . S
C1655 C92 0.819 . S
C1669 C106 0.844 . S
C1673 C372 0.908 . S
C1687 C666 0.927 . S
C1691 C120 0.802 . S
C1705 C134 0.869 . S
C1709 C302 0.884 . S
C1723 C148 1.101 . S
C1727 C652 0.861 . S
C1741 C232 0.845 . S
C1745 C162 0.925 . S
C1759 C176 0.899 . S
C1763 C288 0.844 . S
C1777 C190 0.799 . S
C1781 C582 0.811 . S
C1795 C596 0.979 . S
C1799 C204 0.986 . S
C1813 C610 0.875 . S
C1817 C218 0.841 . S
C1831 C526 0.873 . S
C1835 C246 1.092 . S
C1849 C540 0.849 . S
C1853 C260 0.892 . S
C1867 C554 0.759 . S
C1871 C274 0.803 . S
C1885 C316 0.819 . S
C1889 C484 0.780 . S
C1903 C456 0.849 . S
C1907 C330 0.855 . S
C1921 C470 1.003 . S
C1925 C638 0.945 . S
C1939 C498 0.844 . S
C1943 C568 0.851 . S
C1957 C624 0.762 . S
C1961 C512 0.803 . S
C1975 C11 1.381 1_655 S
C1979 C319 1.381 . S
C1993 C25 1.320 . S
C1997 C571 1.378 . S
C2011 C333 1.252 . S
C2015 C39 1.264 . S
C2029 C641 1.325 . S
C2033 C53 1.370 1_554 S
C2047 C263 1.362 1_455 S
C2051 C67 1.320 . S
C2065 C277 1.278 . S
C2069 C81 1.263 . S
C2083 C95 1.163 . S
C2087 C627 1.167 . S
C2101 C109 1.197 . S
C2105 C249 1.210 . S
C2119 C193 1.366 . S
C2123 C123 1.366 1_565 S
C2137 C137 1.373 1_545 S
C2141 C207 1.337 . S
C2155 C221 1.206 . S
C2159 C151 1.208 . S
C2173 C179 1.157 . S
C2177 C165 1.163 . S
C2191 C235 1.362 1_556 S
C2195 C361 1.362 . S
C2209 C431 1.207 . S
C2213 C291 1.206 . S
C2227 C389 1.241 . S
C2231 C305 1.247 . S
C2245 C347 1.390 . S
C2249 C655 1.336 . S
C2263 C669 1.169 . S
C2267 C375 1.162 . S
C2281 C599 1.244 . S
C2285 C403 1.237 . S
C2299 C613 1.158 . S
C2303 C417 1.158 . S
C2317 C585 1.164 . S
C2321 C445 1.173 . S
C2335 C529 1.341 . S
C2339 C459 1.389 . S
C2353 C543 1.237 . S
C2357 C473 1.246 . S
C2371 C487 1.180 . S
C2375 C557 1.184 . S
C2389 C501 1.259 . S
C2393 C515 1.275 . S
