# Generated by pormake.
# Topology ull, (4)-cn, num edge types: 1
# Building blocks:
#     Node 0, Type 0, BuildingBlock: CEKHIL_clean_sbu_0, # of connection points: 4
#     Node 1, Type 0, BuildingBlock: CEKHIL_clean_sbu_0, # of connection points: 4
#     Node 2, Type 0, BuildingBlock: CEKHIL_clean_sbu_0, # of connection points: 4
#     Node 3, Type 0, BuildingBlock: CEKHIL_clean_sbu_0, # of connection points: 4
#     Node 4, Type 0, BuildingBlock: CEKHIL_clean_sbu_0, # of connection points: 4
#     Node 5, Type 0, BuildingBlock: CEKHIL_clean_sbu_0, # of connection points: 4
#     Node 6, Type 0, BuildingBlock: CEKHIL_clean_sbu_0, # of connection points: 4
#     Node 7, Type 0, BuildingBlock: CEKHIL_clean_sbu_0, # of connection points: 4
#     Node 8, Type 0, BuildingBlock: CEKHIL_clean_sbu_0, # of connection points: 4
#     Node 9, Type 0, BuildingBlock: CEKHIL_clean_sbu_0, # of connection points: 4
#     Node 10, Type 0, BuildingBlock: CEKHIL_clean_sbu_0, # of connection points: 4
#     Node 11, Type 0, BuildingBlock: CEKHIL_clean_sbu_0, # of connection points: 4
#     Node 12, Type 0, BuildingBlock: CEKHIL_clean_sbu_0, # of connection points: 4
#     Node 13, Type 0, BuildingBlock: CEKHIL_clean_sbu_0, # of connection points: 4
#     Node 14, Type 0, BuildingBlock: CEKHIL_clean_sbu_0, # of connection points: 4
#     Node 15, Type 0, BuildingBlock: CEKHIL_clean_sbu_0, # of connection points: 4
#     Node 16, Type 0, BuildingBlock: CEKHIL_clean_sbu_0, # of connection points: 4
#     Node 17, Type 0, BuildingBlock: CEKHIL_clean_sbu_0, # of connection points: 4
#     Node 18, Type 0, BuildingBlock: CEKHIL_clean_sbu_0, # of connection points: 4
#     Node 19, Type 0, BuildingBlock: CEKHIL_clean_sbu_0, # of connection points: 4
#     Node 20, Type 0, BuildingBlock: CEKHIL_clean_sbu_0, # of connection points: 4
#     Node 21, Type 0, BuildingBlock: CEKHIL_clean_sbu_0, # of connection points: 4
#     Node 22, Type 0, BuildingBlock: CEKHIL_clean_sbu_0, # of connection points: 4
#     Node 23, Type 0, BuildingBlock: CEKHIL_clean_sbu_0, # of connection points: 4
#     Node 24, Type 0, BuildingBlock: CEKHIL_clean_sbu_0, # of connection points: 4
#     Node 25, Type 0, BuildingBlock: CEKHIL_clean_sbu_0, # of connection points: 4
#     Node 26, Type 0, BuildingBlock: CEKHIL_clean_sbu_0, # of connection points: 4
#     Node 27, Type 0, BuildingBlock: CEKHIL_clean_sbu_0, # of connection points: 4
#     Node 28, Type 0, BuildingBlock: CEKHIL_clean_sbu_0, # of connection points: 4
#     Node 29, Type 0, BuildingBlock: CEKHIL_clean_sbu_0, # of connection points: 4
#     Node 30, Type 0, BuildingBlock: CEKHIL_clean_sbu_0, # of connection points: 4
#     Node 31, Type 0, BuildingBlock: CEKHIL_clean_sbu_0, # of connection points: 4
#     Node 32, Type 0, BuildingBlock: CEKHIL_clean_sbu_0, # of connection points: 4
#     Node 33, Type 0, BuildingBlock: CEKHIL_clean_sbu_0, # of connection points: 4
#     Node 34, Type 0, BuildingBlock: CEKHIL_clean_sbu_0, # of connection points: 4
#     Node 35, Type 0, BuildingBlock: CEKHIL_clean_sbu_0, # of connection points: 4
#     Node 36, Type 0, BuildingBlock: CEKHIL_clean_sbu_0, # of connection points: 4
#     Node 37, Type 0, BuildingBlock: CEKHIL_clean_sbu_0, # of connection points: 4
#     Node 38, Type 0, BuildingBlock: CEKHIL_clean_sbu_0, # of connection points: 4
#     Node 39, Type 0, BuildingBlock: CEKHIL_clean_sbu_0, # of connection points: 4
#     Node 40, Type 0, BuildingBlock: CEKHIL_clean_sbu_0, # of connection points: 4
#     Node 41, Type 0, BuildingBlock: CEKHIL_clean_sbu_0, # of connection points: 4
#     Node 42, Type 0, BuildingBlock: CEKHIL_clean_sbu_0, # of connection points: 4
#     Node 43, Type 0, BuildingBlock: CEKHIL_clean_sbu_0, # of connection points: 4
#     Node 44, Type 0, BuildingBlock: CEKHIL_clean_sbu_0, # of connection points: 4
#     Node 45, Type 0, BuildingBlock: CEKHIL_clean_sbu_0, # of connection points: 4
#     Node 46, Type 0, BuildingBlock: CEKHIL_clean_sbu_0, # of connection points: 4
#     Node 47, Type 0, BuildingBlock: CEKHIL_clean_sbu_0, # of connection points: 4
#     Edge 48, Type (0, 0), BuildingBlock: EZIPEK_clean_linker_0, # of connection points: 2
#     Edge 49, Type (0, 0), BuildingBlock: EZIPEK_clean_linker_0, # of connection points: 2
#     Edge 50, Type (0, 0), BuildingBlock: EZIPEK_clean_linker_0, # of connection points: 2
#     Edge 51, Type (0, 0), BuildingBlock: EZIPEK_clean_linker_0, # of connection points: 2
#     Edge 52, Type (0, 0), BuildingBlock: EZIPEK_clean_linker_0, # of connection points: 2
#     Edge 53, Type (0, 0), BuildingBlock: EZIPEK_clean_linker_0, # of connection points: 2
#     Edge 54, Type (0, 0), BuildingBlock: EZIPEK_clean_linker_0, # of connection points: 2
#     Edge 55, Type (0, 0), BuildingBlock: EZIPEK_clean_linker_0, # of connection points: 2
#     Edge 56, Type (0, 0), BuildingBlock: EZIPEK_clean_linker_0, # of connection points: 2
#     Edge 57, Type (0, 0), BuildingBlock: EZIPEK_clean_linker_0, # of connection points: 2
#     Edge 58, Type (0, 0), BuildingBlock: EZIPEK_clean_linker_0, # of connection points: 2
#     Edge 59, Type (0, 0), BuildingBlock: EZIPEK_clean_linker_0, # of connection points: 2
#     Edge 60, Type (0, 0), BuildingBlock: EZIPEK_clean_linker_0, # of connection points: 2
#     Edge 61, Type (0, 0), BuildingBlock: EZIPEK_clean_linker_0, # of connection points: 2
#     Edge 62, Type (0, 0), BuildingBlock: EZIPEK_clean_linker_0, # of connection points: 2
#     Edge 63, Type (0, 0), BuildingBlock: EZIPEK_clean_linker_0, # of connection points: 2
#     Edge 64, Type (0, 0), BuildingBlock: EZIPEK_clean_linker_0, # of connection points: 2
#     Edge 65, Type (0, 0), BuildingBlock: EZIPEK_clean_linker_0, # of connection points: 2
#     Edge 66, Type (0, 0), BuildingBlock: EZIPEK_clean_linker_0, # of connection points: 2
#     Edge 67, Type (0, 0), BuildingBlock: EZIPEK_clean_linker_0, # of connection points: 2
#     Edge 68, Type (0, 0), BuildingBlock: EZIPEK_clean_linker_0, # of connection points: 2
#     Edge 69, Type (0, 0), BuildingBlock: EZIPEK_clean_linker_0, # of connection points: 2
#     Edge 70, Type (0, 0), BuildingBlock: EZIPEK_clean_linker_0, # of connection points: 2
#     Edge 71, Type (0, 0), BuildingBlock: EZIPEK_clean_linker_0, # of connection points: 2
#     Edge 72, Type (0, 0), BuildingBlock: EZIPEK_clean_linker_0, # of connection points: 2
#     Edge 73, Type (0, 0), BuildingBlock: EZIPEK_clean_linker_0, # of connection points: 2
#     Edge 74, Type (0, 0), BuildingBlock: EZIPEK_clean_linker_0, # of connection points: 2
#     Edge 75, Type (0, 0), BuildingBlock: EZIPEK_clean_linker_0, # of connection points: 2
#     Edge 76, Type (0, 0), BuildingBlock: EZIPEK_clean_linker_0, # of connection points: 2
#     Edge 77, Type (0, 0), BuildingBlock: EZIPEK_clean_linker_0, # of connection points: 2
#     Edge 78, Type (0, 0), BuildingBlock: EZIPEK_clean_linker_0, # of connection points: 2
#     Edge 79, Type (0, 0), BuildingBlock: EZIPEK_clean_linker_0, # of connection points: 2
#     Edge 80, Type (0, 0), BuildingBlock: EZIPEK_clean_linker_0, # of connection points: 2
#     Edge 81, Type (0, 0), BuildingBlock: EZIPEK_clean_linker_0, # of connection points: 2
#     Edge 82, Type (0, 0), BuildingBlock: EZIPEK_clean_linker_0, # of connection points: 2
#     Edge 83, Type (0, 0), BuildingBlock: EZIPEK_clean_linker_0, # of connection points: 2
#     Edge 84, Type (0, 0), BuildingBlock: EZIPEK_clean_linker_0, # of connection points: 2
#     Edge 85, Type (0, 0), BuildingBlock: EZIPEK_clean_linker_0, # of connection points: 2
#     Edge 86, Type (0, 0), BuildingBlock: EZIPEK_clean_linker_0, # of connection points: 2
#     Edge 87, Type (0, 0), BuildingBlock: EZIPEK_clean_linker_0, # of connection points: 2
#     Edge 88, Type (0, 0), BuildingBlock: EZIPEK_clean_linker_0, # of connection points: 2
#     Edge 89, Type (0, 0), BuildingBlock: EZIPEK_clean_linker_0, # of connection points: 2
#     Edge 90, Type (0, 0), BuildingBlock: EZIPEK_clean_linker_0, # of connection points: 2
#     Edge 91, Type (0, 0), BuildingBlock: EZIPEK_clean_linker_0, # of connection points: 2
#     Edge 92, Type (0, 0), BuildingBlock: EZIPEK_clean_linker_0, # of connection points: 2
#     Edge 93, Type (0, 0), BuildingBlock: EZIPEK_clean_linker_0, # of connection points: 2
#     Edge 94, Type (0, 0), BuildingBlock: EZIPEK_clean_linker_0, # of connection points: 2
#     Edge 95, Type (0, 0), BuildingBlock: EZIPEK_clean_linker_0, # of connection points: 2
#     Edge 96, Type (0, 0), BuildingBlock: EZIPEK_clean_linker_0, # of connection points: 2
#     Edge 97, Type (0, 0), BuildingBlock: EZIPEK_clean_linker_0, # of connection points: 2
#     Edge 98, Type (0, 0), BuildingBlock: EZIPEK_clean_linker_0, # of connection points: 2
#     Edge 99, Type (0, 0), BuildingBlock: EZIPEK_clean_linker_0, # of connection points: 2
#     Edge 100, Type (0, 0), BuildingBlock: EZIPEK_clean_linker_0, # of connection points: 2
#     Edge 101, Type (0, 0), BuildingBlock: EZIPEK_clean_linker_0, # of connection points: 2
#     Edge 102, Type (0, 0), BuildingBlock: EZIPEK_clean_linker_0, # of connection points: 2
#     Edge 103, Type (0, 0), BuildingBlock: EZIPEK_clean_linker_0, # of connection points: 2
#     Edge 104, Type (0, 0), BuildingBlock: EZIPEK_clean_linker_0, # of connection points: 2
#     Edge 105, Type (0, 0), BuildingBlock: EZIPEK_clean_linker_0, # of connection points: 2
#     Edge 106, Type (0, 0), BuildingBlock: EZIPEK_clean_linker_0, # of connection points: 2
#     Edge 107, Type (0, 0), BuildingBlock: EZIPEK_clean_linker_0, # of connection points: 2
#     Edge 108, Type (0, 0), BuildingBlock: EZIPEK_clean_linker_0, # of connection points: 2
#     Edge 109, Type (0, 0), BuildingBlock: EZIPEK_clean_linker_0, # of connection points: 2
#     Edge 110, Type (0, 0), BuildingBlock: EZIPEK_clean_linker_0, # of connection points: 2
#     Edge 111, Type (0, 0), BuildingBlock: EZIPEK_clean_linker_0, # of connection points: 2
#     Edge 112, Type (0, 0), BuildingBlock: EZIPEK_clean_linker_0, # of connection points: 2
#     Edge 113, Type (0, 0), BuildingBlock: EZIPEK_clean_linker_0, # of connection points: 2
#     Edge 114, Type (0, 0), BuildingBlock: EZIPEK_clean_linker_0, # of connection points: 2
#     Edge 115, Type (0, 0), BuildingBlock: EZIPEK_clean_linker_0, # of connection points: 2
#     Edge 116, Type (0, 0), BuildingBlock: EZIPEK_clean_linker_0, # of connection points: 2
#     Edge 117, Type (0, 0), BuildingBlock: EZIPEK_clean_linker_0, # of connection points: 2
#     Edge 118, Type (0, 0), BuildingBlock: EZIPEK_clean_linker_0, # of connection points: 2
#     Edge 119, Type (0, 0), BuildingBlock: EZIPEK_clean_linker_0, # of connection points: 2
#     Edge 120, Type (0, 0), BuildingBlock: EZIPEK_clean_linker_0, # of connection points: 2
#     Edge 121, Type (0, 0), BuildingBlock: EZIPEK_clean_linker_0, # of connection points: 2
#     Edge 122, Type (0, 0), BuildingBlock: EZIPEK_clean_linker_0, # of connection points: 2
#     Edge 123, Type (0, 0), BuildingBlock: EZIPEK_clean_linker_0, # of connection points: 2
#     Edge 124, Type (0, 0), BuildingBlock: EZIPEK_clean_linker_0, # of connection points: 2
#     Edge 125, Type (0, 0), BuildingBlock: EZIPEK_clean_linker_0, # of connection points: 2
#     Edge 126, Type (0, 0), BuildingBlock: EZIPEK_clean_linker_0, # of connection points: 2
#     Edge 127, Type (0, 0), BuildingBlock: EZIPEK_clean_linker_0, # of connection points: 2
#     Edge 128, Type (0, 0), BuildingBlock: EZIPEK_clean_linker_0, # of connection points: 2
#     Edge 129, Type (0, 0), BuildingBlock: EZIPEK_clean_linker_0, # of connection points: 2
#     Edge 130, Type (0, 0), BuildingBlock: EZIPEK_clean_linker_0, # of connection points: 2
#     Edge 131, Type (0, 0), BuildingBlock: EZIPEK_clean_linker_0, # of connection points: 2
#     Edge 132, Type (0, 0), BuildingBlock: EZIPEK_clean_linker_0, # of connection points: 2
#     Edge 133, Type (0, 0), BuildingBlock: EZIPEK_clean_linker_0, # of connection points: 2
#     Edge 134, Type (0, 0), BuildingBlock: EZIPEK_clean_linker_0, # of connection points: 2
#     Edge 135, Type (0, 0), BuildingBlock: EZIPEK_clean_linker_0, # of connection points: 2
#     Edge 136, Type (0, 0), BuildingBlock: EZIPEK_clean_linker_0, # of connection points: 2
#     Edge 137, Type (0, 0), BuildingBlock: EZIPEK_clean_linker_0, # of connection points: 2
#     Edge 138, Type (0, 0), BuildingBlock: EZIPEK_clean_linker_0, # of connection points: 2
#     Edge 139, Type (0, 0), BuildingBlock: EZIPEK_clean_linker_0, # of connection points: 2
#     Edge 140, Type (0, 0), BuildingBlock: EZIPEK_clean_linker_0, # of connection points: 2
#     Edge 141, Type (0, 0), BuildingBlock: EZIPEK_clean_linker_0, # of connection points: 2
#     Edge 142, Type (0, 0), BuildingBlock: EZIPEK_clean_linker_0, # of connection points: 2
#     Edge 143, Type (0, 0), BuildingBlock: EZIPEK_clean_linker_0, # of connection points: 2
# Relax obj value: 0.022
# Max RMSD: 0.081
# Mean RMSD: 0.081
data_MOF--net-ull--node1-CEKHIL_clean_sbu_0--edge1-EZIPEK_clean_linker_0
_symmetry_space_group_name_H-M    P1
_symmetry_Int_Tables_number       1
_symmetry_cell_setting            triclinic
loop_
_symmetry_equiv_pos_as_xyz
'x, y, z'
_cell_length_a     44.384751
_cell_length_b     44.496808
_cell_length_c     44.438905
_cell_angle_alpha  90.035346
_cell_angle_beta   90.008372
_cell_angle_gamma 89.955626
loop_
_atom_site_label
_atom_site_type_symbol
_atom_site_fract_x
_atom_site_fract_y
_atom_site_fract_z
_atom_type_partial_charge
Co0 Co 0.04305 0.34023 0.17186 0.0
O1 O 0.07733 0.34827 0.19712 0.0
O2 O 0.03419 0.37306 0.19942 0.0
C3 C 0.06994 0.33916 0.12827 0.0
O4 O 0.00329 0.33908 0.14809 0.0
Co5 Co 0.03915 0.28092 0.13573 0.0
O6 O 0.00444 0.30014 0.11559 0.0
C7 C 0.02523 0.28034 0.2008 0.0
C8 C 0.06183 0.37006 0.20876 0.0
C9 C 0.99199 0.32366 0.12615 0.0
O10 O 0.02773 0.30921 0.20177 0.0
O11 O 0.03099 0.26485 0.17718 0.0
O12 O 0.06129 0.36433 0.14012 0.0
O13 O 0.06416 0.31558 0.14436 0.0
Co14 Co 0.66046 0.03553 0.16585 0.0
O15 O 0.653 0.07154 0.18892 0.0
O16 O 0.62754 0.029 0.19368 0.0
C17 C 0.66313 0.05873 0.12026 0.0
O18 O 0.65985 0.99436 0.14559 0.0
Co19 Co 0.71991 0.02641 0.13159 0.0
O20 O 0.70273 0.98702 0.11964 0.0
C21 C 0.7198 0.01904 0.19695 0.0
C22 C 0.63128 0.05683 0.20174 0.0
C23 C 0.67696 0.97831 0.12865 0.0
O24 O 0.69079 0.02081 0.19692 0.0
O25 O 0.73589 0.02386 0.1736 0.0
O26 O 0.63732 0.05191 0.13211 0.0
O27 O 0.68635 0.05391 0.13719 0.0
Co28 Co 0.9644 0.65719 0.17538 0.0
O29 O 0.93211 0.64995 0.20332 0.0
O30 O 0.97582 0.62575 0.20337 0.0
C31 C 0.9351 0.65685 0.13354 0.0
O32 O 1.00233 0.65772 0.14908 0.0
Co33 Co 0.96509 0.71581 0.13748 0.0
O34 O 1.00049 0.69739 0.11754 0.0
C35 C 0.98303 0.71815 0.20126 0.0
C36 C 0.94898 0.62906 0.21467 0.0
C37 C 0.0132 0.67367 0.12738 0.0
O38 O 0.98189 0.68925 0.20278 0.0
O39 O 0.97502 0.73314 0.17803 0.0
O40 O 0.94409 0.63193 0.14572 0.0
O41 O 0.9416 0.68088 0.14865 0.0
Co42 Co 0.34882 0.97023 0.17083 0.0
O43 O 0.35541 0.93476 0.19493 0.0
O44 O 0.38079 0.97734 0.19971 0.0
C45 C 0.34774 0.94558 0.12606 0.0
O46 O 0.35009 0.01095 0.14972 0.0
Co47 Co 0.29096 0.97831 0.13324 0.0
O48 O 0.30989 0.01623 0.11932 0.0
C49 C 0.28814 0.98708 0.19862 0.0
C50 C 0.37683 0.94963 0.20808 0.0
C51 C 0.33461 0.02578 0.13028 0.0
O52 O 0.31715 0.98565 0.20014 0.0
O53 O 0.27329 0.98122 0.17465 0.0
O54 O 0.37319 0.95291 0.13839 0.0
O55 O 0.324 0.95117 0.14192 0.0
Co56 Co 0.04619 0.65378 0.83181 0.0
O57 O 0.07911 0.64673 0.80456 0.0
O58 O 0.03607 0.62141 0.80434 0.0
C59 C 0.07483 0.65509 0.87397 0.0
O60 O 0.00789 0.65411 0.85767 0.0
Co61 Co 0.04369 0.71344 0.86803 0.0
O62 O 0.00856 0.69474 0.88806 0.0
C63 C 0.02689 0.71365 0.80396 0.0
C64 C 0.063 0.62517 0.7934 0.0
C65 C 0.99648 0.67045 0.87885 0.0
O66 O 0.0284 0.68474 0.80336 0.0
O67 O 0.0343 0.72947 0.82684 0.0
O68 O 0.06662 0.62968 0.86226 0.0
O69 O 0.06801 0.67861 0.85822 0.0
Co70 Co 0.34766 0.03979 0.83371 0.0
O71 O 0.35899 0.07522 0.81248 0.0
O72 O 0.37815 0.03046 0.80341 0.0
C73 C 0.34978 0.06208 0.87938 0.0
O74 O 0.34153 0.9984 0.85293 0.0
Co75 Co 0.2882 0.04025 0.8699 0.0
O76 O 0.30659 0.00453 0.88903 0.0
C77 C 0.28612 0.02902 0.80454 0.0
C78 C 0.37743 0.05902 0.79687 0.0
C79 C 0.32658 0.9887 0.87585 0.0
O80 O 0.31502 0.0307 0.80324 0.0
O81 O 0.27099 0.0339 0.82858 0.0
O82 O 0.37407 0.0515 0.86702 0.0
O83 O 0.32576 0.06105 0.86301 0.0
Co84 Co 0.95819 0.34593 0.83132 0.0
O85 O 0.92405 0.35434 0.80595 0.0
O86 O 0.96783 0.37809 0.80336 0.0
C87 C 0.93122 0.3453 0.87475 0.0
O88 O 0.99795 0.34402 0.85522 0.0
Co89 Co 0.96091 0.2865 0.86761 0.0
O90 O 0.99597 0.30506 0.88767 0.0
C91 C 0.97544 0.28581 0.80264 0.0
C92 C 0.94026 0.37522 0.79379 0.0
C93 C 0.00896 0.32825 0.87709 0.0
O94 O 0.97313 0.31465 0.80161 0.0
O95 O 0.96946 0.27042 0.82624 0.0
O96 O 0.94012 0.37041 0.86296 0.0
O97 O 0.93679 0.32167 0.85867 0.0
Co98 Co 0.65668 0.96537 0.8311 0.0
O99 O 0.645 0.93193 0.80636 0.0
O100 O 0.6244 0.9773 0.80412 0.0
C101 C 0.6567 0.93827 0.87407 0.0
O102 O 0.66224 0.00495 0.85391 0.0
Co103 Co 0.71642 0.96474 0.86682 0.0
O104 O 0.6987 0.9994 0.88858 0.0
C105 C 0.71709 0.97891 0.80171 0.0
C106 C 0.62493 0.94958 0.79475 0.0
C107 C 0.67754 0.0146 0.87661 0.0
O108 O 0.68813 0.978 0.80078 0.0
O109 O 0.73256 0.97268 0.82522 0.0
O110 O 0.63189 0.94965 0.86364 0.0
O111 O 0.68036 0.9422 0.85755 0.0
Co112 Co 0.17466 0.04311 0.34799 0.0
O113 O 0.20063 0.07651 0.35693 0.0
O114 O 0.20356 0.03186 0.37887 0.0
C115 C 0.131 0.06937 0.34971 0.0
O116 O 0.15017 0.00396 0.34501 0.0
Co117 Co 0.13798 0.0439 0.28862 0.0
O118 O 0.11999 0.00647 0.30418 0.0
C119 C 0.20245 0.02863 0.28643 0.0
C120 C 0.21345 0.05932 0.37662 0.0
C121 C 0.12929 0.99316 0.32779 0.0
O122 O 0.20357 0.02925 0.31538 0.0
O123 O 0.17895 0.03601 0.27146 0.0
O124 O 0.14368 0.05995 0.37424 0.0
O125 O 0.14673 0.06563 0.32544 0.0
Co126 Co 0.96262 0.16888 0.34841 0.0
O127 O 0.92928 0.19566 0.35573 0.0
O128 O 0.97297 0.19712 0.37993 0.0
C129 C 0.93456 0.12614 0.34851 0.0
O130 O 1.0016 0.14439 0.34825 0.0
Co131 Co 0.96578 0.13034 0.29034 0.0
O132 O 1.00211 0.11229 0.30901 0.0
C133 C 0.98103 0.1948 0.28731 0.0
C134 C 0.94577 0.20748 0.37671 0.0
C135 C 0.01393 0.12325 0.3327 0.0
O136 O 0.97934 0.19675 0.31623 0.0
O137 O 0.97409 0.17105 0.2726 0.0
O138 O 0.9432 0.13848 0.37351 0.0
O139 O 0.94097 0.1413 0.32451 0.0
Co140 Co 0.82992 0.95954 0.34691 0.0
O141 O 0.80523 0.92459 0.3539 0.0
O142 O 0.80117 0.96752 0.37886 0.0
C143 C 0.87384 0.93335 0.34571 0.0
O144 O 0.85214 1.0 0.34702 0.0
Co145 Co 0.86839 0.96597 0.28904 0.0
O146 O 0.88681 1.00059 0.31004 0.0
C147 C 0.80274 0.9778 0.28668 0.0
C148 C 0.79223 0.93995 0.37502 0.0
C149 C 0.87444 0.0123 0.33307 0.0
O150 O 0.80058 0.97475 0.31543 0.0
O151 O 0.82708 0.97302 0.27196 0.0
O152 O 0.862 0.94151 0.37115 0.0
O153 O 0.85808 0.93971 0.32211 0.0
Co154 Co 0.04351 0.83459 0.34584 0.0
O155 O 0.07943 0.81193 0.3547 0.0
O156 O 0.03571 0.80638 0.37811 0.0
C157 C 0.06689 0.87997 0.3448 0.0
O158 O 1.00189 0.85436 0.34416 0.0
Co159 Co 0.03709 0.87012 0.28666 0.0
O160 O 0.99837 0.88434 0.30354 0.0
C161 C 0.02788 0.8046 0.28585 0.0
C162 C 0.06385 0.79862 0.37546 0.0
C163 C 0.98752 0.87337 0.32767 0.0
O164 O 0.0308 0.80368 0.31469 0.0
O165 O 0.03189 0.82845 0.27031 0.0
O166 O 0.05848 0.86815 0.37011 0.0
O167 O 0.06303 0.86339 0.32119 0.0
Co168 Co 0.17002 0.96602 0.66018 0.0
O169 O 0.19347 0.92984 0.65457 0.0
O170 O 0.19798 0.97105 0.62705 0.0
C171 C 0.12473 0.94232 0.66367 0.0
O172 O 0.1492 0.0069 0.65746 0.0
Co173 Co 0.13483 0.9775 0.71879 0.0
O174 O 0.12379 0.01647 0.70023 0.0
C175 C 0.20015 0.98607 0.71888 0.0
C176 C 0.20607 0.94341 0.63202 0.0
C177 C 0.1325 0.02384 0.67398 0.0
O178 O 0.20069 0.98256 0.69004 0.0
O179 O 0.1766 0.98187 0.73486 0.0
O180 O 0.13662 0.94813 0.63767 0.0
O181 O 0.14138 0.94858 0.68672 0.0
Co182 Co 0.03625 0.17349 0.65485 0.0
O183 O 0.07029 0.1993 0.64756 0.0
O184 O 0.02697 0.20137 0.62272 0.0
C185 C 0.06404 0.13077 0.65576 0.0
O186 O 0.99661 0.15022 0.65419 0.0
Co187 Co 0.03104 0.13512 0.71234 0.0
O188 O 0.99482 0.11766 0.6928 0.0
C189 C 0.01863 0.20008 0.71568 0.0
C190 C 0.05442 0.21097 0.62603 0.0
C191 C 0.98372 0.12898 0.66894 0.0
O192 O 0.01983 0.20201 0.6867 0.0
O193 O 0.02555 0.17621 0.73019 0.0
O194 O 0.05504 0.14211 0.63042 0.0
O195 O 0.05754 0.14615 0.67956 0.0
Co196 Co 0.83127 0.03542 0.65454 0.0
O197 O 0.80592 0.06917 0.64521 0.0
O198 O 0.80368 0.02485 0.62239 0.0
C199 C 0.87429 0.06262 0.655 0.0
O200 O 0.85452 0.99577 0.65737 0.0
Co201 Co 0.86781 0.03363 0.71379 0.0
O202 O 0.88784 0.99829 0.69548 0.0
C203 C 0.80268 0.02009 0.71494 0.0
C204 C 0.79404 0.0524 0.62456 0.0
C205 C 0.87659 0.98492 0.67278 0.0
O206 O 0.8016 0.02116 0.68601 0.0
O207 O 0.82622 0.02654 0.73027 0.0
O208 O 0.86327 0.05257 0.62989 0.0
O209 O 0.85819 0.05757 0.67872 0.0
Co210 Co 0.96615 0.82854 0.65794 0.0
O211 O 0.93395 0.80189 0.64688 0.0
O212 O 0.97892 0.80295 0.62503 0.0
C213 C 0.93741 0.87066 0.6593 0.0
O214 O 0.00415 0.8543 0.66214 0.0
Co215 Co 0.96441 0.86201 0.71929 0.0
O216 O 1.00007 0.88341 0.70348 0.0
C217 C 0.9815 0.79798 0.71783 0.0
C218 C 0.95179 0.79198 0.62603 0.0
C219 C 0.0139 0.87523 0.67973 0.0
O220 O 0.98139 0.79839 0.6888 0.0
O221 O 0.97306 0.82029 0.73396 0.0
O222 O 0.94753 0.86022 0.634 0.0
O223 O 0.94259 0.85377 0.68245 0.0
Co224 Co 0.35134 0.17679 0.03652 0.0
O225 O 0.36008 0.20562 0.06753 0.0
O226 O 0.3831 0.20367 0.02327 0.0
C227 C 0.35225 0.13618 0.06702 0.0
O228 O 0.34927 0.14895 0.99988 0.0
Co229 Co 0.29214 0.13996 0.03909 0.0
O230 O 0.30932 0.11798 0.00434 0.0
C231 C 0.28991 0.20288 0.01871 0.0
C232 C 0.38092 0.21576 0.04986 0.0
C233 C 0.33294 0.12677 0.99066 0.0
O234 O 0.31895 0.20409 0.01903 0.0
O235 O 0.27489 0.18018 0.028 0.0
O236 O 0.37703 0.14763 0.05678 0.0
O237 O 0.32805 0.15138 0.06113 0.0
Co238 Co 0.34517 0.83203 0.96726 0.0
O239 O 0.35506 0.8072 0.93307 0.0
O240 O 0.38043 0.80772 0.97601 0.0
C241 C 0.33931 0.87533 0.93988 0.0
O242 O 0.34365 0.85574 0.00665 0.0
Co243 Co 0.2836 0.86043 0.97374 0.0
O244 O 0.30066 0.88223 0.00866 0.0
C245 C 0.28877 0.7968 0.98661 0.0
C246 C 0.37757 0.79735 0.9488 0.0
C247 C 0.32628 0.87519 0.01925 0.0
O248 O 0.31762 0.79923 0.98397 0.0
O249 O 0.27063 0.81831 0.9811 0.0
O250 O 0.3655 0.86626 0.94911 0.0
O251 O 0.31735 0.85694 0.94579 0.0
Co252 Co 0.17008 0.3451 0.9591 0.0
O253 O 0.19244 0.35526 0.9233 0.0
O254 O 0.19822 0.37744 0.96752 0.0
C255 C 0.12434 0.34424 0.93607 0.0
O256 O 0.15047 0.34178 1.00075 0.0
Co257 Co 0.13519 0.28544 0.96376 0.0
O258 O 0.11869 0.30242 1.0015 0.0
C259 C 0.20093 0.28517 0.97358 0.0
C260 C 0.20583 0.37564 0.9393 0.0
C261 C 0.13024 0.32557 0.01376 0.0
O262 O 0.20155 0.314 0.97073 0.0
O263 O 0.17712 0.26947 0.96959 0.0
O264 O 0.136 0.36938 0.94516 0.0
O265 O 0.14134 0.32078 0.93898 0.0
Co266 Co 0.65833 0.17313 0.96179 0.0
O267 O 0.64811 0.20032 0.92969 0.0
O268 O 0.62345 0.19715 0.97291 0.0
C269 C 0.66341 0.13274 0.93014 0.0
O270 O 0.66111 0.14669 0.99928 0.0
Co271 Co 0.72023 0.14109 0.96284 0.0
O272 O 0.70297 0.11818 0.99691 0.0
C273 C 0.71605 0.20457 0.9819 0.0
C274 C 0.62577 0.20906 0.94628 0.0
C275 C 0.67851 0.12599 0.00973 0.0
O276 O 0.68706 0.20371 0.98 0.0
O277 O 0.73321 0.1828 0.97408 0.0
O278 O 0.6374 0.14065 0.94089 0.0
O279 O 0.68518 0.15006 0.9385 0.0
Co280 Co 0.8372 0.65305 0.96323 0.0
O281 O 0.81498 0.64408 0.92705 0.0
O282 O 0.80796 0.62157 0.97092 0.0
C283 C 0.88326 0.6529 0.94086 0.0
O284 O 0.85637 0.65525 0.00512 0.0
Co285 Co 0.87364 0.71176 0.96902 0.0
O286 O 0.8881 0.69463 0.00746 0.0
C287 C 0.8078 0.71366 0.97744 0.0
C288 C 0.80068 0.62407 0.94267 0.0
C289 C 0.8762 0.67129 0.01894 0.0
O290 O 0.8065 0.68486 0.97483 0.0
O291 O 0.83203 0.72876 0.97365 0.0
O292 O 0.87074 0.62796 0.94933 0.0
O293 O 0.86687 0.67677 0.94386 0.0
Co294 Co 0.65885 0.82637 0.03519 0.0
O295 O 0.65232 0.80087 0.06959 0.0
O296 O 0.62665 0.79824 0.02684 0.0
C297 C 0.66004 0.86935 0.06253 0.0
O298 O 0.6572 0.84931 0.99538 0.0
Co299 Co 0.71593 0.86518 0.02834 0.0
O300 O 0.69483 0.88301 0.99324 0.0
C301 C 0.71963 0.8 0.01677 0.0
C302 C 0.63048 0.78898 0.05431 0.0
C303 C 0.67104 0.87117 0.9825 0.0
O304 O 0.69067 0.7978 0.01863 0.0
O305 O 0.73404 0.8242 0.02271 0.0
O306 O 0.63457 0.85779 0.05412 0.0
O307 O 0.68384 0.85407 0.05565 0.0
Co308 Co 0.17262 0.65194 0.04374 0.0
O309 O 0.19485 0.64229 0.07969 0.0
O310 O 0.2004 0.61926 0.03575 0.0
C311 C 0.12682 0.65396 0.0664 0.0
O312 O 0.15323 0.65476 1.00211 0.0
Co313 Co 0.13884 0.71226 0.03799 0.0
O314 O 0.12282 0.69519 1.00007 0.0
C315 C 0.20457 0.71109 0.02915 0.0
C316 C 0.20808 0.62166 0.06389 0.0
C317 C 0.13376 0.67137 0.98852 0.0
O318 O 0.20447 0.68226 0.03157 0.0
O319 O 0.18118 0.72739 0.03328 0.0
O320 O 0.13822 0.62843 0.05805 0.0
O321 O 0.1442 0.67708 0.06321 0.0
Co322 Co 0.8321 0.34801 0.04409 0.0
O323 O 0.80951 0.35767 0.07985 0.0
O324 O 0.80453 0.38085 0.03602 0.0
C325 C 0.87756 0.34582 0.06746 0.0
O326 O 0.85192 0.34543 0.00262 0.0
Co327 Co 0.86659 0.28801 0.03813 0.0
O328 O 0.88338 0.3058 1.0009 0.0
C329 C 0.80082 0.28884 0.02839 0.0
C330 C 0.79655 0.37852 0.06409 0.0
C331 C 0.87205 0.32938 0.98927 0.0
O332 O 0.80044 0.31764 0.03146 0.0
O333 O 0.82442 0.27279 0.03237 0.0
O334 O 0.8664 0.37141 0.05899 0.0
O335 O 0.86026 0.32275 0.06372 0.0
Co336 Co 0.53861 0.84951 0.67507 0.0
O337 O 0.573 0.86054 0.69903 0.0
O338 O 0.52795 0.88198 0.70213 0.0
C339 C 0.56441 0.84851 0.63114 0.0
O340 O 0.49819 0.84567 0.65344 0.0
Co341 Co 0.53609 0.79 0.63962 0.0
O342 O 0.49978 0.8074 0.62044 0.0
C343 C 0.52434 0.78946 0.70508 0.0
C344 C 0.55586 0.88092 0.71094 0.0
C345 C 0.48668 0.83014 0.63189 0.0
O346 O 0.526 0.81837 0.70597 0.0
O347 O 0.52974 0.774 0.68138 0.0
O348 O 0.55406 0.87364 0.64177 0.0
O349 O 0.56054 0.82511 0.64794 0.0
Co350 Co 0.15959 0.53785 0.6689 0.0
O351 O 0.15344 0.5727 0.694 0.0
O352 O 0.12807 0.53004 0.69806 0.0
C353 C 0.15968 0.56428 0.62497 0.0
O354 O 0.15827 0.49768 0.64642 0.0
Co355 Co 0.21686 0.53136 0.62976 0.0
O356 O 0.19645 0.4953 0.61314 0.0
C357 C 0.22086 0.52062 0.6951 0.0
C358 C 0.13202 0.55764 0.70687 0.0
C359 C 0.1727 0.48449 0.62499 0.0
O360 O 0.19187 0.52179 0.69717 0.0
O361 O 0.23519 0.52709 0.67095 0.0
O362 O 0.13462 0.55643 0.63774 0.0
O363 O 0.18368 0.55763 0.6401 0.0
Co364 Co 0.46682 0.15779 0.67339 0.0
O365 O 0.43115 0.14876 0.69569 0.0
O366 O 0.47489 0.12658 0.703 0.0
C367 C 0.44285 0.15768 0.62847 0.0
O368 O 0.50815 0.15974 0.6532 0.0
Co369 Co 0.47181 0.21631 0.63662 0.0
O370 O 0.50783 0.19693 0.61889 0.0
C371 C 0.48103 0.21854 0.70224 0.0
C372 C 0.44657 0.12879 0.71027 0.0
C373 C 0.52022 0.17427 0.63125 0.0
O374 O 0.47889 0.18972 0.70363 0.0
O375 O 0.47677 0.23358 0.67808 0.0
O376 O 0.45211 0.13271 0.64044 0.0
O377 O 0.44669 0.18158 0.64456 0.0
Co378 Co 0.84453 0.46473 0.66995 0.0
O379 O 0.85123 0.4287 0.69324 0.0
O380 O 0.87607 0.47146 0.69931 0.0
C381 C 0.84419 0.44132 0.62431 0.0
O382 O 0.84582 0.50595 0.64988 0.0
Co383 Co 0.78687 0.47354 0.63266 0.0
O384 O 0.80501 0.51251 0.6206 0.0
C385 C 0.78358 0.48134 0.69801 0.0
C386 C 0.87228 0.44355 0.70697 0.0
C387 C 0.82998 0.52159 0.63139 0.0
O388 O 0.81257 0.47946 0.6995 0.0
O389 O 0.76875 0.47601 0.67391 0.0
O390 O 0.86936 0.44843 0.63729 0.0
O391 O 0.82017 0.44619 0.64009 0.0
Co392 Co 0.54666 0.15378 0.32701 0.0
O393 O 0.57962 0.14575 0.30009 0.0
O394 O 0.53624 0.12105 0.30002 0.0
C395 C 0.57467 0.15571 0.36962 0.0
O396 O 0.50824 0.15547 0.35266 0.0
Co397 Co 0.5457 0.21497 0.361 0.0
O398 O 0.50918 0.19813 0.38016 0.0
C399 C 0.52861 0.21315 0.29721 0.0
C400 C 0.5632 0.12442 0.28898 0.0
C401 C 0.49678 0.17346 0.37245 0.0
O402 O 0.52941 0.18423 0.29773 0.0
O403 O 0.53666 0.22969 0.31933 0.0
O404 O 0.56643 0.1301 0.35835 0.0
O405 O 0.56863 0.17883 0.35303 0.0
Co406 Co 0.84819 0.54195 0.33515 0.0
O407 O 0.85844 0.57742 0.31255 0.0
O408 O 0.88161 0.5335 0.30832 0.0
C409 C 0.84565 0.56575 0.38018 0.0
O410 O 0.84498 0.50077 0.35526 0.0
Co411 Co 0.78751 0.53703 0.36889 0.0
O412 O 0.80456 0.49955 0.3858 0.0
C413 C 0.78925 0.52593 0.30345 0.0
C414 C 0.87967 0.56156 0.30031 0.0
C415 C 0.82831 0.48766 0.375 0.0
O416 O 0.8181 0.52918 0.30327 0.0
O417 O 0.77286 0.53006 0.32676 0.0
O418 O 0.87135 0.55688 0.3695 0.0
O419 O 0.82266 0.56208 0.36268 0.0
Co420 Co 0.4584 0.8508 0.33358 0.0
O421 O 0.42567 0.86059 0.30698 0.0
O422 O 0.47016 0.88323 0.30678 0.0
C423 C 0.43092 0.85002 0.3765 0.0
O424 O 0.4968 0.84705 0.35902 0.0
Co425 Co 0.45658 0.78931 0.36632 0.0
O426 O 0.49509 0.80302 0.38407 0.0
C427 C 0.47463 0.79093 0.30296 0.0
C428 C 0.44299 0.88118 0.29589 0.0
C429 C 0.5081 0.82771 0.37755 0.0
O430 O 0.47427 0.81987 0.30381 0.0
O431 O 0.46602 0.77439 0.32483 0.0
O432 O 0.44026 0.87526 0.36532 0.0
O433 O 0.43518 0.82668 0.35959 0.0
Co434 Co 0.1575 0.46119 0.33137 0.0
O435 O 0.15147 0.42693 0.30559 0.0
O436 O 0.12624 0.46971 0.30192 0.0
C437 C 0.15706 0.43426 0.37489 0.0
O438 O 0.15723 0.50082 0.35453 0.0
Co439 Co 0.21566 0.46406 0.36987 0.0
O440 O 0.19863 0.50298 0.38393 0.0
C441 C 0.21898 0.47612 0.3055 0.0
C442 C 0.13027 0.44221 0.29269 0.0
C443 C 0.17427 0.51432 0.37373 0.0
O444 O 0.19008 0.47861 0.30421 0.0
O445 O 0.23181 0.46281 0.32758 0.0
O446 O 0.13197 0.44247 0.36239 0.0
O447 O 0.18103 0.44017 0.35964 0.0
Co448 Co 0.6717 0.54064 0.84781 0.0
O449 O 0.69559 0.57585 0.85636 0.0
O450 O 0.70107 0.53174 0.87886 0.0
C451 C 0.62647 0.56483 0.84857 0.0
O452 O 0.651 0.49962 0.84634 0.0
Co453 Co 0.6337 0.53564 0.78991 0.0
O454 O 0.6185 0.49777 0.80751 0.0
C455 C 0.69914 0.52439 0.78665 0.0
C456 C 0.70942 0.55961 0.87626 0.0
C457 C 0.63053 0.48622 0.83079 0.0
O458 O 0.70132 0.52757 0.8154 0.0
O459 O 0.67465 0.5288 0.77211 0.0
O460 O 0.63913 0.55604 0.87337 0.0
O461 O 0.64227 0.56097 0.82442 0.0
Co462 Co 0.46348 0.67441 0.85041 0.0
O463 O 0.43019 0.70106 0.85851 0.0
O464 O 0.47354 0.7015 0.88321 0.0
C465 C 0.43511 0.63191 0.84874 0.0
O466 O 0.50222 0.64916 0.84931 0.0
Co467 Co 0.46587 0.63877 0.79037 0.0
O468 O 0.50107 0.61857 0.80882 0.0
C469 C 0.48181 0.70307 0.79058 0.0
C470 C 0.44641 0.71215 0.88006 0.0
C471 C 0.51351 0.628 0.83288 0.0
O472 O 0.48044 0.70353 0.81956 0.0
O473 O 0.47467 0.68017 0.77469 0.0
O474 O 0.44377 0.64323 0.87419 0.0
O475 O 0.44164 0.64804 0.82541 0.0
Co476 Co 0.33234 0.46446 0.84627 0.0
O477 O 0.30849 0.42902 0.85396 0.0
O478 O 0.30257 0.47269 0.87721 0.0
C479 C 0.37734 0.44021 0.8471 0.0
O480 O 0.35313 0.50558 0.84555 0.0
Co481 Co 0.37166 0.47027 0.78908 0.0
O482 O 0.38826 0.50639 0.80904 0.0
C483 C 0.30595 0.48064 0.78482 0.0
C484 C 0.29447 0.44478 0.87411 0.0
C485 C 0.37513 0.5183 0.83155 0.0
O486 O 0.30321 0.47766 0.81355 0.0
O487 O 0.3308 0.47651 0.77078 0.0
O488 O 0.36455 0.44865 0.87197 0.0
O489 O 0.36186 0.44464 0.82287 0.0
Co490 Co 0.54044 0.33183 0.84956 0.0
O491 O 0.57271 0.30414 0.85787 0.0
O492 O 0.529 0.3051 0.88207 0.0
C493 C 0.56988 0.37333 0.84827 0.0
O494 O 0.50258 0.35817 0.84817 0.0
Co495 Co 0.53959 0.36785 0.78965 0.0
O496 O 0.50366 0.38776 0.807 0.0
C497 C 0.52231 0.30394 0.78938 0.0
C498 C 0.55582 0.29365 0.8792 0.0
C499 C 0.49129 0.37892 0.8313 0.0
O500 O 0.52301 0.30337 0.81838 0.0
O501 O 0.53038 0.32667 0.77372 0.0
O502 O 0.56081 0.36229 0.87372 0.0
O503 O 0.56319 0.35746 0.8248 0.0
Co504 Co 0.67182 0.46514 0.16069 0.0
O505 O 0.69542 0.43013 0.1509 0.0
O506 O 0.69933 0.47422 0.12801 0.0
C507 C 0.62694 0.44081 0.16248 0.0
O508 O 0.65083 0.50597 0.16388 0.0
Co509 Co 0.63791 0.46917 0.22118 0.0
O510 O 0.62028 0.50641 0.2043 0.0
C511 C 0.70308 0.48137 0.21987 0.0
C512 C 0.70809 0.44641 0.13033 0.0
C513 C 0.63083 0.51865 0.18065 0.0
O514 O 0.70313 0.47841 0.19107 0.0
O515 O 0.67989 0.47671 0.23628 0.0
O516 O 0.63804 0.4497 0.13699 0.0
O517 O 0.64417 0.4445 0.18569 0.0
Co518 Co 0.54171 0.67497 0.16058 0.0
O519 O 0.57598 0.69976 0.15128 0.0
O520 O 0.53269 0.70077 0.12649 0.0
C521 C 0.56866 0.63171 0.16384 0.0
O522 O 0.5022 0.65104 0.16273 0.0
Co523 Co 0.53804 0.6422 0.2219 0.0
O524 O 0.50322 0.62127 0.20378 0.0
C525 C 0.52341 0.70684 0.21897 0.0
C526 C 0.56034 0.7102 0.12901 0.0
C527 C 0.49094 0.63012 0.17945 0.0
O528 O 0.526 0.70627 0.19007 0.0
O529 O 0.52953 0.68429 0.23577 0.0
O530 O 0.56004 0.64222 0.13808 0.0
O531 O 0.56284 0.64894 0.18664 0.0
Co532 Co 0.33517 0.54005 0.16174 0.0
O533 O 0.30994 0.57416 0.15306 0.0
O534 O 0.3061 0.52975 0.1308 0.0
C535 C 0.37933 0.56594 0.16037 0.0
O536 O 0.35753 0.50018 0.1639 0.0
Co537 Co 0.3733 0.53884 0.21996 0.0
O538 O 0.3888 0.50009 0.2038 0.0
C539 C 0.30818 0.52857 0.22353 0.0
C540 C 0.29693 0.55745 0.133 0.0
C541 C 0.37778 0.48767 0.18039 0.0
O542 O 0.30691 0.52565 0.1947 0.0
O543 O 0.33126 0.53963 0.23678 0.0
O544 O 0.36698 0.55643 0.13569 0.0
O545 O 0.36366 0.56188 0.18447 0.0
Co546 Co 0.4656 0.33147 0.15579 0.0
O547 O 0.43246 0.30612 0.14414 0.0
O548 O 0.4766 0.3074 0.121 0.0
C549 C 0.43766 0.37392 0.15999 0.0
O550 O 0.5044 0.35618 0.16075 0.0
Co551 Co 0.46592 0.36217 0.2187 0.0
O552 O 0.50082 0.38461 0.2027 0.0
C553 C 0.48195 0.29787 0.2135 0.0
C554 C 0.44925 0.29691 0.12213 0.0
C555 C 0.51438 0.37679 0.17869 0.0
O556 O 0.48084 0.29949 0.18456 0.0
O557 O 0.47451 0.3196 0.23088 0.0
O558 O 0.44717 0.36467 0.13403 0.0
O559 O 0.44309 0.35583 0.18214 0.0
Co560 Co 0.84983 0.67472 0.5408 0.0
O561 O 0.86172 0.70025 0.57356 0.0
O562 O 0.88268 0.70072 0.52828 0.0
C563 C 0.8494 0.6321 0.56857 0.0
O564 O 0.84439 0.64998 0.5022 0.0
Co565 Co 0.78877 0.64127 0.54316 0.0
O566 O 0.80374 0.61998 0.50714 0.0
C567 C 0.78972 0.70556 0.52689 0.0
C568 C 0.8823 0.71074 0.55581 0.0
C569 C 0.82696 0.62872 0.49279 0.0
O570 O 0.81875 0.70541 0.52718 0.0
O571 O 0.77376 0.68294 0.53476 0.0
O572 O 0.8743 0.64255 0.55759 0.0
O573 O 0.82597 0.64903 0.56466 0.0
Co574 Co 0.84748 0.33084 0.46213 0.0
O575 O 0.85596 0.30478 0.42863 0.0
O576 O 0.88069 0.30409 0.47195 0.0
C577 C 0.84528 0.37352 0.43442 0.0
O578 O 0.84576 0.35588 0.50095 0.0
Co579 Co 0.78641 0.36497 0.46418 0.0
O580 O 0.80407 0.38493 0.49986 0.0
C581 C 0.78808 0.3007 0.4796 0.0
C582 C 0.87768 0.29379 0.44468 0.0
C583 C 0.82852 0.37642 0.51225 0.0
O584 O 0.8171 0.30105 0.47868 0.0
O585 O 0.77162 0.32316 0.47233 0.0
O586 O 0.87094 0.3625 0.44295 0.0
O587 O 0.82213 0.35691 0.44049 0.0
Co588 Co 0.6677 0.84474 0.46455 0.0
O589 O 0.69152 0.85109 0.42874 0.0
O590 O 0.69496 0.87819 0.47047 0.0
C591 C 0.62249 0.84052 0.44055 0.0
O592 O 0.64629 0.84664 0.50525 0.0
Co593 Co 0.63516 0.78523 0.47565 0.0
O594 O 0.62481 0.80211 0.5157 0.0
C595 C 0.70015 0.78688 0.48379 0.0
C596 C 0.7038 0.87336 0.44302 0.0
C597 C 0.63122 0.82908 0.52262 0.0
O598 O 0.69921 0.81571 0.48102 0.0
O599 O 0.67732 0.77001 0.47943 0.0
O600 O 0.63396 0.86664 0.44661 0.0
O601 O 0.63967 0.81772 0.44657 0.0
Co602 Co 0.1587 0.67183 0.46051 0.0
O603 O 0.15106 0.69744 0.42644 0.0
O604 O 0.12684 0.7001 0.47003 0.0
C605 C 0.15948 0.62852 0.43352 0.0
O606 O 0.15964 0.6487 0.50034 0.0
Co607 Co 0.21738 0.63407 0.46458 0.0
O608 O 0.19752 0.61501 0.49959 0.0
C609 C 0.21911 0.69906 0.47842 0.0
C610 C 0.13024 0.70988 0.44266 0.0
C611 C 0.17444 0.62665 0.51201 0.0
O612 O 0.19026 0.70076 0.476 0.0
O613 O 0.23423 0.67524 0.47254 0.0
O614 O 0.13413 0.6403 0.44216 0.0
O615 O 0.18318 0.64427 0.43958 0.0
Co616 Co 0.33916 0.15613 0.46217 0.0
O617 O 0.31511 0.14866 0.42673 0.0
O618 O 0.31194 0.12289 0.46925 0.0
C619 C 0.38423 0.1595 0.43768 0.0
O620 O 0.36069 0.15536 0.50278 0.0
Co621 Co 0.37236 0.21578 0.47116 0.0
O622 O 0.38379 0.19954 0.51114 0.0
C623 C 0.3073 0.21468 0.48052 0.0
C624 C 0.30295 0.12676 0.44169 0.0
C625 C 0.37657 0.17309 0.51922 0.0
O626 O 0.30788 0.18578 0.47815 0.0
O627 O 0.33025 0.23122 0.47542 0.0
O628 O 0.37275 0.13361 0.4446 0.0
O629 O 0.36715 0.18249 0.44319 0.0
Co630 Co 0.15793 0.32766 0.5381 0.0
O631 O 0.148 0.30335 0.57245 0.0
O632 O 0.1253 0.3003 0.52816 0.0
C633 C 0.15809 0.37161 0.56399 0.0
O634 O 0.16105 0.35082 0.49827 0.0
Co635 Co 0.21807 0.36247 0.53663 0.0
O636 O 0.20133 0.38163 0.50024 0.0
C637 C 0.21834 0.2976 0.52315 0.0
C638 C 0.12694 0.29161 0.55609 0.0
C639 C 0.17769 0.37192 0.48724 0.0
O640 O 0.18932 0.29711 0.52458 0.0
O641 O 0.23399 0.32091 0.52942 0.0
O642 O 0.1332 0.35993 0.55433 0.0
O643 O 0.18188 0.35516 0.55998 0.0
Co644 Co 0.67403 0.15436 0.53867 0.0
O645 O 0.69861 0.14508 0.57314 0.0
O646 O 0.70091 0.12124 0.52941 0.0
C647 C 0.6306 0.15662 0.56563 0.0
O648 O 0.65155 0.15648 0.49845 0.0
Co649 Co 0.63805 0.21387 0.53425 0.0
O650 O 0.6189 0.19522 0.49863 0.0
C651 C 0.70367 0.21379 0.5222 0.0
C652 C 0.71009 0.12357 0.55711 0.0
C653 C 0.63015 0.17192 0.48637 0.0
O654 O 0.70458 0.1849 0.52413 0.0
O655 O 0.68006 0.22939 0.52773 0.0
O656 O 0.64122 0.13108 0.55632 0.0
O657 O 0.64718 0.17972 0.55961 0.0
Co658 Co 0.32938 0.8455 0.54427 0.0
O659 O 0.30261 0.85148 0.57791 0.0
O660 O 0.30071 0.8772 0.53526 0.0
C661 C 0.37214 0.84494 0.57215 0.0
O662 O 0.35412 0.84649 0.50528 0.0
Co663 Co 0.36838 0.78752 0.53981 0.0
O664 O 0.38624 0.80718 0.50405 0.0
C665 C 0.30374 0.78494 0.52458 0.0
C666 C 0.29052 0.87299 0.56238 0.0
C667 C 0.37539 0.83115 0.49271 0.0
O668 O 0.30166 0.81376 0.52675 0.0
O669 O 0.32757 0.77012 0.53116 0.0
O670 O 0.35969 0.87016 0.5644 0.0
O671 O 0.35704 0.82113 0.56504 0.0
C672 C 0.12344 0.4188 0.24174 0.0
C673 C 0.11081 0.42773 0.26964 0.0
C674 C 0.06457 0.3996 0.25761 0.0
C675 C 0.07675 0.39224 0.22899 0.0
N676 N 0.1137 0.40312 0.19063 0.0
N677 N 0.06745 0.43089 0.30232 0.0
C678 C 0.10496 0.40438 0.2201 0.0
C679 C 0.0806 0.41978 0.27683 0.0
N680 N 0.15336 0.42323 0.23607 0.0
N681 N 0.0388 0.38587 0.2673 0.0
H682 H 0.07884 0.44441 0.31772 0.0
H683 H 0.0446 0.42855 0.30708 0.0
H684 H 0.02674 0.37062 0.25419 0.0
H685 H 0.03065 0.38765 0.28919 0.0
H686 H 0.16438 0.41409 0.21749 0.0
H687 H 0.1678 0.43373 0.25122 0.0
H688 H 0.13269 0.41415 0.18241 0.0
H689 H 0.10017 0.39409 0.17373 0.0
C690 C 0.59388 0.09736 0.21381 0.0
C691 C 0.6107 0.07191 0.22337 0.0
C692 C 0.58911 0.07673 0.27403 0.0
C693 C 0.57574 0.1044 0.26546 0.0
N694 N 0.56608 0.1422 0.22794 0.0
N695 N 0.62678 0.03867 0.26311 0.0
C696 C 0.57822 0.11498 0.23549 0.0
C697 C 0.60867 0.06164 0.25355 0.0
N698 N 0.59203 0.10405 0.18383 0.0
N699 N 0.58324 0.06501 0.30184 0.0
H700 H 0.64162 0.02729 0.24892 0.0
H701 H 0.62893 0.03237 0.28556 0.0
H702 H 0.56952 0.0758 0.31755 0.0
H703 H 0.58978 0.04352 0.30844 0.0
H704 H 0.57784 0.12051 0.17508 0.0
H705 H 0.60259 0.09125 0.16724 0.0
H706 H 0.5704 0.1531 0.20767 0.0
H707 H 0.55277 0.15472 0.24271 0.0
C708 C 0.92411 0.5808 0.22927 0.0
C709 C 0.93675 0.60875 0.23805 0.0
C710 C 0.91808 0.60129 0.28939 0.0
C711 C 0.90156 0.57579 0.27944 0.0
N712 N 0.88678 0.5423 0.23936 0.0
N713 N 0.94557 0.64645 0.27586 0.0
C714 C 0.90439 0.56546 0.24934 0.0
C715 C 0.93382 0.61915 0.26802 0.0
N716 N 0.93076 0.56909 0.20161 0.0
N717 N 0.91944 0.60785 0.31943 0.0
H718 H 0.95892 0.65912 0.2613 0.0
H719 H 0.94095 0.6572 0.29616 0.0
H720 H 0.90885 0.59479 0.33578 0.0
H721 H 0.93331 0.62441 0.32847 0.0
H722 H 0.92479 0.54746 0.19496 0.0
H723 H 0.94459 0.58004 0.18614 0.0
H724 H 0.88516 0.53602 0.21685 0.0
H725 H 0.87188 0.53065 0.25322 0.0
C726 C 0.42919 0.89118 0.24222 0.0
C727 C 0.43132 0.90158 0.27228 0.0
C728 C 0.39906 0.94479 0.26011 0.0
C729 C 0.39725 0.93459 0.22989 0.0
N730 N 0.41635 0.90252 0.19044 0.0
N731 N 0.42383 0.94091 0.30874 0.0
C732 C 0.41404 0.90906 0.22043 0.0
C733 C 0.41816 0.92938 0.28079 0.0
N734 N 0.44108 0.86383 0.2347 0.0
N735 N 0.38118 0.96802 0.26949 0.0
H736 H 0.43732 0.9299 0.32449 0.0
H737 H 0.41739 0.9624 0.31542 0.0
H738 H 0.36676 0.97967 0.2551 0.0
H739 H 0.37886 0.97436 0.29192 0.0
H740 H 0.43691 0.85308 0.2143 0.0
H741 H 0.45398 0.85106 0.2496 0.0
H742 H 0.43056 0.886 0.18183 0.0
H743 H 0.40622 0.91553 0.17376 0.0
C744 C 0.09442 0.59802 0.71867 0.0
C745 C 0.1112 0.57257 0.72838 0.0
C746 C 0.08924 0.57749 0.77885 0.0
C747 C 0.07594 0.60517 0.77011 0.0
N748 N 0.06665 0.64295 0.73249 0.0
N749 N 0.12676 0.53918 0.76814 0.0
C750 C 0.07865 0.6157 0.74018 0.0
C751 C 0.10889 0.5623 0.75851 0.0
N752 N 0.09262 0.60464 0.68868 0.0
N753 N 0.08321 0.56587 0.80667 0.0
H754 H 0.14152 0.52766 0.75397 0.0
H755 H 0.12873 0.5328 0.79058 0.0
H756 H 0.06944 0.57674 0.82228 0.0
H757 H 0.08971 0.54442 0.81339 0.0
H758 H 0.07836 0.621 0.67985 0.0
H759 H 0.10323 0.59186 0.67214 0.0
H760 H 0.07123 0.65384 0.71227 0.0
H761 H 0.05321 0.65551 0.7471 0.0
C762 C 0.4252 0.0642 0.7643 0.0
C763 C 0.39569 0.07372 0.7727 0.0
C764 C 0.40467 0.12113 0.747 0.0
C765 C 0.43143 0.10989 0.73369 0.0
N766 N 0.46252 0.06567 0.72476 0.0
N767 N 0.35424 0.10691 0.75981 0.0
C768 C 0.44055 0.07993 0.74083 0.0
C769 C 0.38438 0.10078 0.76017 0.0
N770 N 0.43933 0.04131 0.77907 0.0
N771 N 0.39886 0.15124 0.74837 0.0
H772 H 0.33803 0.09107 0.76593 0.0
H773 H 0.34551 0.12606 0.7494 0.0
H774 H 0.41482 0.16744 0.7426 0.0
H775 H 0.37992 0.15982 0.75936 0.0
H776 H 0.46182 0.03577 0.77511 0.0
H777 H 0.43005 0.03009 0.79737 0.0
H778 H 0.46773 0.04304 0.72798 0.0
H779 H 0.47294 0.07493 0.70599 0.0
C780 C 0.91473 0.40832 0.71897 0.0
C781 C 0.89218 0.42859 0.7292 0.0
C782 C 0.90674 0.41869 0.78149 0.0
C783 C 0.92668 0.39584 0.77139 0.0
N784 N 0.94882 0.36729 0.73104 0.0
N785 N 0.86481 0.45181 0.76983 0.0
C786 C 0.93067 0.39038 0.74023 0.0
C787 C 0.88784 0.43366 0.76038 0.0
N788 N 0.92129 0.40673 0.68895 0.0
N789 N 0.90632 0.42636 0.81129 0.0
H790 H 0.85096 0.46362 0.75499 0.0
H791 H 0.85807 0.45369 0.79218 0.0
H792 H 0.92001 0.41592 0.82724 0.0
H793 H 0.8945 0.44468 0.81983 0.0
H794 H 0.93946 0.39477 0.68022 0.0
H795 H 0.90997 0.41941 0.67278 0.0
H796 H 0.94997 0.35967 0.70892 0.0
H797 H 0.96164 0.35446 0.74597 0.0
C798 C 0.60547 0.94264 0.74219 0.0
C799 C 0.60245 0.93733 0.77347 0.0
C800 C 0.56503 0.89789 0.76389 0.0
C801 C 0.56849 0.90277 0.7326 0.0
N802 N 0.586 0.93383 0.69185 0.0
N803 N 0.57455 0.91582 0.81461 0.0
C804 C 0.58677 0.92656 0.72173 0.0
C805 C 0.58059 0.91682 0.78446 0.0
N806 N 0.6272 0.96188 0.73204 0.0
N807 N 0.54796 0.87433 0.77385 0.0
H808 H 0.58534 0.92976 0.8301 0.0
H809 H 0.55708 0.90334 0.82396 0.0
H810 H 0.53547 0.86068 0.7594 0.0
H811 H 0.54743 0.86723 0.79616 0.0
H812 H 0.6331 0.9641 0.70949 0.0
H813 H 0.64061 0.97464 0.7465 0.0
H814 H 0.59661 0.9526 0.6828 0.0
H815 H 0.57245 0.92245 0.67641 0.0
C816 C 0.2302 0.08433 0.42415 0.0
C817 C 0.23775 0.07147 0.39593 0.0
C818 C 0.28957 0.08981 0.40119 0.0
C819 C 0.28088 0.10623 0.42722 0.0
N820 N 0.24226 0.12156 0.46221 0.0
N821 N 0.27379 0.06292 0.35634 0.0
C822 C 0.25111 0.10384 0.43866 0.0
C823 C 0.26728 0.07434 0.38416 0.0
N824 N 0.20295 0.07797 0.43696 0.0
N825 N 0.31932 0.08816 0.39335 0.0
H826 H 0.25851 0.05004 0.344 0.0
H827 H 0.29366 0.06751 0.34478 0.0
H828 H 0.33635 0.09856 0.40571 0.0
H829 H 0.3275 0.07424 0.37637 0.0
H830 H 0.19715 0.08416 0.4588 0.0
H831 H 0.18702 0.06414 0.42665 0.0
H832 H 0.22003 0.12341 0.46942 0.0
H833 H 0.25675 0.13639 0.47319 0.0
C834 C 0.91719 0.28243 0.40627 0.0
C835 C 0.89943 0.2725 0.43093 0.0
C836 C 0.91897 0.22135 0.42432 0.0
C837 C 0.93305 0.23051 0.39713 0.0
N838 N 0.94537 0.26915 0.36135 0.0
N839 N 0.88187 0.23254 0.46295 0.0
C840 C 0.93229 0.26095 0.38796 0.0
C841 C 0.90023 0.24202 0.44016 0.0
N842 N 0.92025 0.31252 0.40091 0.0
N843 N 0.92354 0.19287 0.43491 0.0
H844 H 0.86824 0.24714 0.47529 0.0
H845 H 0.87864 0.21004 0.46847 0.0
H846 H 0.93678 0.17712 0.42362 0.0
H847 H 0.91636 0.18559 0.45598 0.0
H848 H 0.93504 0.32145 0.3851 0.0
H849 H 0.91006 0.32884 0.41432 0.0
H850 H 0.94237 0.29011 0.35137 0.0
H851 H 0.95811 0.25433 0.34833 0.0
C852 C 0.71732 0.91761 0.41081 0.0
C853 C 0.7267 0.89258 0.42827 0.0
C854 C 0.77941 0.90266 0.41516 0.0
C855 C 0.76975 0.92553 0.39505 0.0
N856 N 0.72975 0.95378 0.37177 0.0
N857 N 0.76599 0.8598 0.44617 0.0
C858 C 0.73876 0.93299 0.39256 0.0
C859 C 0.7576 0.88478 0.43032 0.0
N860 N 0.68794 0.92682 0.41199 0.0
N861 N 0.80951 0.89869 0.42041 0.0
H862 H 0.75085 0.84715 0.45886 0.0
H863 H 0.78753 0.85056 0.44548 0.0
H864 H 0.82608 0.91156 0.40993 0.0
H865 H 0.81809 0.88455 0.43698 0.0
H866 H 0.68013 0.94663 0.40231 0.0
H867 H 0.67162 0.91572 0.4247 0.0
H868 H 0.70732 0.95785 0.36627 0.0
H869 H 0.74487 0.96581 0.35845 0.0
C870 C 0.06775 0.74657 0.39757 0.0
C871 C 0.07835 0.77664 0.39601 0.0
C872 C 0.12182 0.76343 0.42756 0.0
C873 C 0.11082 0.73364 0.42973 0.0
N874 N 0.07069 0.69799 0.42229 0.0
N875 N 0.11108 0.81542 0.41525 0.0
C876 C 0.0828 0.72565 0.41662 0.0
C877 C 0.10413 0.78559 0.41272 0.0
N878 N 0.04454 0.73751 0.37948 0.0
N879 N 0.14951 0.77039 0.43911 0.0
H880 H 0.09818 0.83235 0.40539 0.0
H881 H 0.12782 0.82365 0.42944 0.0
H882 H 0.16241 0.75514 0.45146 0.0
H883 H 0.16049 0.79065 0.435 0.0
H884 H 0.03805 0.71517 0.37702 0.0
H885 H 0.03317 0.75198 0.36495 0.0
H886 H 0.04895 0.69186 0.41598 0.0
H887 H 0.08146 0.68193 0.43558 0.0
C888 C 0.21683 0.90102 0.59625 0.0
C889 C 0.22707 0.92712 0.61164 0.0
C890 C 0.27695 0.92113 0.58845 0.0
C891 C 0.26775 0.89304 0.57634 0.0
N892 N 0.22979 0.85496 0.56995 0.0
N893 N 0.26759 0.96057 0.62507 0.0
C894 C 0.23789 0.88264 0.58058 0.0
C895 C 0.25725 0.93703 0.60819 0.0
N896 N 0.18673 0.89452 0.59554 0.0
N897 N 0.3046 0.93254 0.58118 0.0
H898 H 0.25396 0.97258 0.63995 0.0
H899 H 0.29017 0.96676 0.62625 0.0
H900 H 0.31992 0.92119 0.5675 0.0
H901 H 0.31143 0.95425 0.58663 0.0
H902 H 0.17745 0.87754 0.58237 0.0
H903 H 0.17053 0.90798 0.60588 0.0
H904 H 0.20966 0.84435 0.57558 0.0
H905 H 0.24401 0.84179 0.55669 0.0
C906 C 0.08235 0.2218 0.57834 0.0
C907 C 0.06822 0.23262 0.60491 0.0
C908 C 0.08624 0.2834 0.59404 0.0
C909 C 0.10412 0.27176 0.57018 0.0
N910 N 0.12063 0.22981 0.5401 0.0
N911 N 0.05692 0.27314 0.63897 0.0
C912 C 0.10223 0.24099 0.56211 0.0
C913 C 0.07005 0.26333 0.61291 0.0
N914 N 0.07673 0.19316 0.56872 0.0
N915 N 0.08404 0.31378 0.59803 0.0
H916 H 0.04337 0.2594 0.65232 0.0
H917 H 0.06066 0.29432 0.64819 0.0
H918 H 0.09488 0.32913 0.58406 0.0
H919 H 0.06926 0.32388 0.61315 0.0
H920 H 0.08397 0.18476 0.54808 0.0
H921 H 0.06256 0.17848 0.58029 0.0
H922 H 0.123 0.20699 0.53553 0.0
H923 H 0.13514 0.24329 0.52753 0.0
C924 C 0.74115 0.06873 0.61454 0.0
C925 C 0.77105 0.06507 0.60411 0.0
C926 C 0.7605 0.09756 0.56072 0.0
C927 C 0.73049 0.10117 0.57115 0.0
N928 N 0.69003 0.08396 0.60304 0.0
N929 N 0.80777 0.07021 0.56457 0.0
C930 C 0.72014 0.08483 0.5966 0.0
C931 C 0.78018 0.07747 0.57616 0.0
N932 N 0.73306 0.05751 0.64202 0.0
N933 N 0.77071 0.11463 0.53728 0.0
H934 H 0.82282 0.05598 0.57563 0.0
H935 H 0.81473 0.07613 0.54301 0.0
H936 H 0.757 0.12959 0.52549 0.0
H937 H 0.79321 0.11564 0.53079 0.0
H938 H 0.71284 0.06273 0.65269 0.0
H939 H 0.74739 0.04417 0.65501 0.0
H940 H 0.68071 0.07017 0.6195 0.0
H941 H 0.67389 0.0948 0.58991 0.0
C942 C 0.90585 0.76185 0.56117 0.0
C943 C 0.9059 0.73079 0.5681 0.0
C944 C 0.94129 0.73928 0.60966 0.0
C945 C 0.94046 0.77043 0.6034 0.0
N946 N 0.92853 0.81087 0.56945 0.0
N947 N 0.92971 0.6888 0.59266 0.0
C948 C 0.92497 0.78152 0.57775 0.0
C949 C 0.92565 0.71915 0.59037 0.0
N950 N 0.88637 0.77268 0.53996 0.0
N951 N 0.95605 0.72914 0.63468 0.0
H952 H 0.91917 0.67363 0.57822 0.0
H953 H 0.94564 0.67882 0.60667 0.0
H954 H 0.96886 0.7432 0.64846 0.0
H955 H 0.95442 0.70721 0.64266 0.0
H956 H 0.88256 0.79546 0.53625 0.0
H957 H 0.87271 0.75872 0.52694 0.0
H958 H 0.92 0.81986 0.54959 0.0
H959 H 0.94236 0.8257 0.58127 0.0
C960 C 0.41066 0.28861 0.08174 0.0
C961 C 0.43613 0.27777 0.098 0.0
C962 C 0.4297 0.22784 0.0754 0.0
C963 C 0.40284 0.23808 0.06133 0.0
N964 N 0.37045 0.27831 0.04573 0.0
N965 N 0.4735 0.23936 0.10629 0.0
C966 C 0.39427 0.26864 0.06275 0.0
C967 C 0.447 0.24814 0.09326 0.0
N968 N 0.40213 0.318 0.08483 0.0
N969 N 0.43766 0.19824 0.07284 0.0
H970 H 0.48592 0.25313 0.12063 0.0
H971 H 0.48429 0.2191 0.1018 0.0
H972 H 0.42644 0.18334 0.05863 0.0
H973 H 0.45478 0.18802 0.08511 0.0
H974 H 0.38232 0.32708 0.07632 0.0
H975 H 0.41514 0.33377 0.09627 0.0
H976 H 0.36333 0.3005 0.04418 0.0
H977 H 0.35854 0.264 0.03141 0.0
C978 C 0.4215 0.78614 0.91504 0.0
C979 C 0.39927 0.77571 0.93554 0.0
C980 C 0.41155 0.72347 0.92299 0.0
C981 C 0.43302 0.73387 0.90163 0.0
N982 N 0.46243 0.77405 0.88055 0.0
N983 N 0.37678 0.73538 0.96364 0.0
C984 C 0.43937 0.76495 0.89881 0.0
C985 C 0.39556 0.7446 0.94104 0.0
N986 N 0.42486 0.81637 0.91065 0.0
N987 N 0.40591 0.69336 0.92533 0.0
H988 H 0.36437 0.75034 0.97682 0.0
H989 H 0.37493 0.71325 0.97091 0.0
H990 H 0.41862 0.67717 0.91411 0.0
H991 H 0.38809 0.68425 0.93747 0.0
H992 H 0.43799 0.82584 0.89376 0.0
H993 H 0.41364 0.83232 0.92371 0.0
H994 H 0.47009 0.79607 0.87907 0.0
H995 H 0.4754 0.75903 0.86799 0.0
C996 C 0.24076 0.42938 0.88264 0.0
C997 C 0.27086 0.43085 0.89316 0.0
C998 C 0.25823 0.39734 0.93524 0.0
C999 C 0.22787 0.39651 0.9252 0.0
N1000 N 0.1887 0.41709 0.8937 0.0
N1001 N 0.30721 0.42151 0.9323 0.0
C1002 C 0.21868 0.41413 0.90014 0.0
C1003 C 0.27921 0.41659 0.92047 0.0
N1004 N 0.23345 0.44191 0.85551 0.0
N1005 N 0.26749 0.37844 0.95768 0.0
H1006 H 0.32323 0.43506 0.92178 0.0
H1007 H 0.31369 0.41435 0.95364 0.0
H1008 H 0.25295 0.36386 0.96889 0.0
H1009 H 0.28996 0.37544 0.96366 0.0
H1010 H 0.21289 0.43846 0.84477 0.0
H1011 H 0.24871 0.45437 0.84274 0.0
H1012 H 0.18029 0.4319 0.87762 0.0
H1013 H 0.17184 0.40684 0.90642 0.0
C1014 C 0.58439 0.21919 0.90962 0.0
C1015 C 0.60268 0.22961 0.93367 0.0
C1016 C 0.5822 0.28039 0.92716 0.0
C1017 C 0.56789 0.27084 0.90022 0.0
N1018 N 0.55534 0.23165 0.86505 0.0
N1019 N 0.61989 0.26989 0.96547 0.0
C1020 C 0.56874 0.24028 0.89138 0.0
C1021 C 0.60146 0.26009 0.94286 0.0
N1022 N 0.58156 0.189 0.90475 0.0
N1023 N 0.57747 0.30892 0.93755 0.0
H1024 H 0.63369 0.25545 0.9778 0.0
H1025 H 0.62283 0.29244 0.97097 0.0
H1026 H 0.56379 0.32436 0.92634 0.0
H1027 H 0.58495 0.31656 0.95839 0.0
H1028 H 0.56664 0.17966 0.88928 0.0
H1029 H 0.59204 0.17308 0.91841 0.0
H1030 H 0.5583 0.21056 0.85532 0.0
H1031 H 0.54234 0.24623 0.85201 0.0
C1032 C 0.72525 0.58804 0.9223 0.0
C1033 C 0.73333 0.57281 0.89543 0.0
C1034 C 0.78632 0.58616 0.90349 0.0
C1035 C 0.77771 0.60455 0.9282 0.0
N1036 N 0.73867 0.62563 0.95955 0.0
N1037 N 0.77082 0.55877 0.85884 0.0
C1038 C 0.74712 0.60594 0.93745 0.0
C1039 C 0.76371 0.57212 0.88564 0.0
N1040 N 0.69666 0.58522 0.93339 0.0
N1041 N 0.81621 0.58138 0.89771 0.0
H1042 H 0.75506 0.54726 0.84577 0.0
H1043 H 0.79182 0.56064 0.84859 0.0
H1044 H 0.83338 0.59084 0.91064 0.0
H1045 H 0.82407 0.56592 0.88196 0.0
H1046 H 0.69011 0.59313 0.95445 0.0
H1047 H 0.68001 0.57268 0.92258 0.0
H1048 H 0.71632 0.63028 0.96492 0.0
H1049 H 0.75393 0.63917 0.97113 0.0
C1050 C 0.60002 0.71755 0.08974 0.0
C1051 C 0.575 0.72932 0.1059 0.0
C1052 C 0.58213 0.77811 0.08126 0.0
C1053 C 0.60962 0.76747 0.06878 0.0
N1054 N 0.64558 0.72767 0.06132 0.0
N1055 N 0.54275 0.77101 0.11856 0.0
C1056 C 0.61872 0.73729 0.07295 0.0
C1057 C 0.56586 0.75957 0.10173 0.0
N1058 N 0.60526 0.68728 0.08963 0.0
N1059 N 0.57171 0.806 0.07361 0.0
H1060 H 0.5302 0.75801 0.13352 0.0
H1061 H 0.53721 0.79373 0.11927 0.0
H1062 H 0.58336 0.82036 0.05919 0.0
H1063 H 0.55047 0.81399 0.0795 0.0
H1064 H 0.62131 0.67689 0.07607 0.0
H1065 H 0.59151 0.67206 0.10091 0.0
H1066 H 0.65552 0.70721 0.06682 0.0
H1067 H 0.65876 0.74094 0.04716 0.0
C1068 C 0.26178 0.61263 0.0783 0.0
C1069 C 0.23157 0.60244 0.07761 0.0
C1070 C 0.24443 0.56066 0.11138 0.0
C1071 C 0.27476 0.57073 0.11181 0.0
N1072 N 0.31389 0.60134 0.08997 0.0
N1073 N 0.19486 0.56412 0.08831 0.0
C1074 C 0.2839 0.59527 0.09354 0.0
C1075 C 0.22316 0.5755 0.09245 0.0
N1076 N 0.26918 0.6394 0.06513 0.0
N1077 N 0.23563 0.53799 0.13017 0.0
H1078 H 0.17872 0.57474 0.07493 0.0
H1079 H 0.18809 0.54311 0.09604 0.0
H1080 H 0.25065 0.52628 0.14388 0.0
H1081 H 0.21325 0.53195 0.13365 0.0
H1082 H 0.28986 0.65002 0.06816 0.0
H1083 H 0.25393 0.65205 0.05254 0.0
H1084 H 0.32221 0.61697 0.07467 0.0
H1085 H 0.33079 0.58866 0.10019 0.0
C1086 C 0.76177 0.43159 0.12134 0.0
C1087 C 0.73171 0.43337 0.11074 0.0
C1088 C 0.74434 0.40067 0.06804 0.0
C1089 C 0.77463 0.39938 0.0783 0.0
N1090 N 0.81381 0.41917 0.11027 0.0
N1091 N 0.69543 0.42504 0.07135 0.0
C1092 C 0.78383 0.41653 0.10366 0.0
C1093 C 0.7234 0.41975 0.0831 0.0
N1094 N 0.76906 0.44361 0.14872 0.0
N1095 N 0.73514 0.38233 0.04511 0.0
H1096 H 0.67945 0.43846 0.08214 0.0
H1097 H 0.68893 0.41829 0.04987 0.0
H1098 H 0.74968 0.36789 0.03367 0.0
H1099 H 0.7127 0.37965 0.03887 0.0
H1100 H 0.78954 0.43979 0.15949 0.0
H1101 H 0.75389 0.45608 0.1616 0.0
H1102 H 0.82223 0.43367 0.12662 0.0
H1103 H 0.83065 0.40901 0.09743 0.0
C1104 C 0.97738 0.24656 0.26426 0.0
C1105 C 0.99434 0.22008 0.26982 0.0
C1106 C 0.03522 0.23957 0.23812 0.0
C1107 C 0.01623 0.26325 0.22831 0.0
N1108 N 0.96892 0.28978 0.232 0.0
N1109 N 0.03911 0.19044 0.26112 0.0
C1110 C 0.98742 0.26728 0.24182 0.0
C1111 C 0.0233 0.21645 0.25668 0.0
N1112 N 0.95147 0.25165 0.28009 0.0
N1113 N 0.06497 0.23966 0.23013 0.0
H1114 H 0.03173 0.17328 0.27526 0.0
H1115 H 0.05858 0.18492 0.24926 0.0
H1116 H 0.07449 0.25679 0.21721 0.0
H1117 H 0.08079 0.22471 0.23883 0.0
H1118 H 0.93974 0.27191 0.2796 0.0
H1119 H 0.94282 0.23632 0.29557 0.0
H1120 H 0.94629 0.29157 0.23789 0.0
H1121 H 0.97576 0.30606 0.21668 0.0
C1122 C 0.76603 0.96625 0.24603 0.0
C1123 C 0.77577 0.98628 0.26876 0.0
C1124 C 0.74092 0.02472 0.24938 0.0
C1125 C 0.73569 0.00659 0.22364 0.0
N1126 N 0.74488 0.96051 0.19627 0.0
N1127 N 0.77346 0.03517 0.29211 0.0
C1128 C 0.74845 0.97732 0.22179 0.0
C1129 C 0.76305 0.01555 0.27086 0.0
N1130 N 0.77347 0.93648 0.24786 0.0
N1131 N 0.72518 0.05087 0.25297 0.0
H1132 H 0.78934 0.02919 0.30833 0.0
H1133 H 0.76779 0.05787 0.29259 0.0
H1134 H 0.70949 0.05846 0.23723 0.0
H1135 H 0.72583 0.06372 0.27255 0.0
H1136 H 0.76469 0.92012 0.23358 0.0
H1137 H 0.786 0.92771 0.2657 0.0
H1138 H 0.75658 0.94063 0.19219 0.0
H1139 H 0.73187 0.9675 0.17807 0.0
C1140 C 0.02613 0.74714 0.22337 0.0
C1141 C 0.99658 0.73532 0.22654 0.0
C1142 C 0.98924 0.76508 0.27253 0.0
C1143 C 0.01872 0.77712 0.2691 0.0
N1144 N 0.06788 0.77364 0.24665 0.0
N1145 N 0.95255 0.72751 0.25716 0.0
C1146 C 0.03802 0.76613 0.2462 0.0
C1147 C 0.97907 0.74231 0.25231 0.0
N1148 N 0.04243 0.74107 0.19797 0.0
N1149 N 0.97024 0.77678 0.29374 0.0
H1150 H 0.94402 0.71157 0.2422 0.0
H1151 H 0.94024 0.7292 0.27703 0.0
H1152 H 0.97682 0.79311 0.3092 0.0
H1153 H 0.94738 0.77171 0.2949 0.0
H1154 H 0.06256 0.75179 0.19261 0.0
H1155 H 0.03487 0.72659 0.18114 0.0
H1156 H 0.08386 0.76423 0.23231 0.0
H1157 H 0.07721 0.78716 0.26344 0.0
C1158 C 0.24389 0.9916 0.27207 0.0
C1159 C 0.22972 0.02014 0.26873 0.0
C1160 C 0.25617 0.02789 0.22107 0.0
C1161 C 0.27072 0.99959 0.22435 0.0
N1162 N 0.28373 0.9576 0.25602 0.0
N1163 N 0.23079 0.06917 0.24594 0.0
C1164 C 0.26655 0.9826 0.25105 0.0
C1165 C 0.23868 0.03947 0.24511 0.0
N1166 N 0.23447 0.97228 0.294 0.0
N1167 N 0.25797 0.04335 0.19457 0.0
H1168 H 0.21874 0.07852 0.26382 0.0
H1169 H 0.23907 0.08503 0.23082 0.0
H1170 H 0.27049 0.03595 0.17621 0.0
H1171 H 0.24499 0.0623 0.18989 0.0
H1172 H 0.24117 0.94989 0.29518 0.0
H1173 H 0.21843 0.97801 0.31007 0.0
H1174 H 0.28398 0.94605 0.27639 0.0
H1175 H 0.29958 0.94975 0.24057 0.0
C1176 C 0.03199 0.73773 0.75306 0.0
C1177 C 0.01362 0.72981 0.77791 0.0
C1178 C 0.97153 0.75803 0.75594 0.0
C1179 C 0.99139 0.77048 0.7343 0.0
N1180 N 0.04089 0.77232 0.71185 0.0
N1181 N 0.96605 0.73281 0.80393 0.0
C1182 C 0.0216 0.7599 0.73228 0.0
C1183 C 0.98329 0.7398 0.77943 0.0
N1184 N 0.05946 0.72428 0.74956 0.0
N1185 N 0.94129 0.76341 0.75365 0.0
H1186 H 0.97363 0.71892 0.82124 0.0
H1187 H 0.945 0.74229 0.80811 0.0
H1188 H 0.93207 0.77614 0.7362 0.0
H1189 H 0.9252 0.75286 0.76701 0.0
H1190 H 0.07271 0.72665 0.73038 0.0
H1191 H 0.06796 0.70869 0.76491 0.0
H1192 H 0.06404 0.76854 0.71182 0.0
H1193 H 0.03401 0.78773 0.69567 0.0
C1194 C 0.22408 0.02892 0.74654 0.0
C1195 C 0.22648 0.9993 0.7347 0.0
C1196 C 0.27168 0.99056 0.76523 0.0
C1197 C 0.26901 0.02013 0.77721 0.0
N1198 N 0.24855 0.06997 0.7729 0.0
N1199 N 0.25615 0.95472 0.72689 0.0
C1200 C 0.24709 0.04014 0.76569 0.0
C1201 C 0.2517 0.98115 0.7419 0.0
N1202 N 0.19913 0.0459 0.74052 0.0
N1203 N 0.29181 0.9708 0.77752 0.0
H1204 H 0.24147 0.94702 0.71025 0.0
H1205 H 0.2756 0.94179 0.72901 0.0
H1206 H 0.30676 0.97666 0.79464 0.0
H1207 H 0.29237 0.94801 0.77226 0.0
H1208 H 0.19433 0.06613 0.75131 0.0
H1209 H 0.18206 0.0388 0.72609 0.0
H1210 H 0.23499 0.08631 0.76299 0.0
H1211 H 0.26547 0.0788 0.78662 0.0
C1212 C 0.97745 0.22104 0.7483 0.0
C1213 C 0.00558 0.22524 0.73357 0.0
C1214 C 0.01238 0.27302 0.76063 0.0
C1215 C 0.98409 0.26864 0.7751 0.0
N1216 N 0.93574 0.24427 0.77464 0.0
N1217 N 0.04709 0.25778 0.72106 0.0
C1218 C 0.96537 0.24448 0.76624 0.0
C1219 C 0.02199 0.25227 0.73798 0.0
N1220 N 0.96268 0.19417 0.74625 0.0
N1221 N 0.03087 0.29581 0.76971 0.0
H1222 H 0.05564 0.24237 0.70557 0.0
H1223 H 0.05818 0.27838 0.72078 0.0
H1224 H 0.02444 0.31197 0.78538 0.0
H1225 H 0.05322 0.29788 0.76294 0.0
H1226 H 0.94396 0.18877 0.75931 0.0
H1227 H 0.97047 0.17622 0.73341 0.0
H1228 H 0.92017 0.22877 0.76647 0.0
H1229 H 0.92602 0.26165 0.7871 0.0
C1230 C 0.75933 0.03135 0.74902 0.0
C1231 C 0.77573 0.01003 0.73189 0.0
C1232 C 0.74654 0.96902 0.75463 0.0
C1233 C 0.73374 0.98993 0.77501 0.0
N1234 N 0.7266 0.04095 0.79177 0.0
N1235 N 0.78505 0.95873 0.71715 0.0
C1236 C 0.73941 0.02118 0.77196 0.0
C1237 C 0.76899 0.9789 0.73395 0.0
N1238 N 0.7626 0.06128 0.74291 0.0
N1239 N 0.737 0.93982 0.75505 0.0
H1240 H 0.80057 0.96527 0.70081 0.0
H1241 H 0.78406 0.93556 0.72014 0.0
H1242 H 0.72065 0.93213 0.77007 0.0
H1243 H 0.7433 0.92382 0.73917 0.0
H1244 H 0.74948 0.07808 0.75261 0.0
H1245 H 0.77688 0.06919 0.72601 0.0
H1246 H 0.73257 0.0635 0.79335 0.0
H1247 H 0.71067 0.03445 0.80774 0.0
C1248 C 0.24181 0.2732 0.01154 0.0
C1249 C 0.22876 0.26869 0.98262 0.0
C1250 C 0.25937 0.22324 0.97573 0.0
C1251 C 0.27241 0.22769 0.00459 0.0
N1252 N 0.28179 0.26036 0.04671 0.0
N1253 N 0.23112 0.24468 0.93417 0.0
C1254 C 0.26567 0.25399 0.02131 0.0
C1255 C 0.23955 0.24536 0.96374 0.0
N1256 N 0.23008 0.29437 0.03053 0.0
N1257 N 0.26509 0.19733 0.9602 0.0
H1258 H 0.21703 0.26092 0.9247 0.0
H1259 H 0.24033 0.22997 0.91842 0.0
H1260 H 0.28015 0.18101 0.96779 0.0
H1261 H 0.25354 0.19107 0.94079 0.0
H1262 H 0.23616 0.29627 0.05307 0.0
H1263 H 0.21258 0.30878 0.02447 0.0
H1264 H 0.28007 0.28063 0.05831 0.0
H1265 H 0.2989 0.24637 0.0547 0.0
C1266 C 0.24593 0.74714 0.04108 0.0
C1267 C 0.23279 0.72679 0.02041 0.0
C1268 C 0.26669 0.7453 0.98076 0.0
C1269 C 0.27526 0.7693 0.99984 0.0
N1270 N 0.27382 0.79341 0.04837 0.0
N1271 N 0.23051 0.70568 0.97043 0.0
C1272 C 0.26552 0.76999 0.03027 0.0
C1273 C 0.24362 0.72512 0.99033 0.0
N1274 N 0.23961 0.74444 0.07106 0.0
N1275 N 0.28034 0.74222 0.95338 0.0
H1276 H 0.214 0.69026 0.97671 0.0
H1277 H 0.23476 0.70584 0.9474 0.0
H1278 H 0.29712 0.75692 0.94603 0.0
H1279 H 0.2771 0.72383 0.93926 0.0
H1280 H 0.25039 0.75682 0.08776 0.0
H1281 H 0.22551 0.72764 0.07943 0.0
H1282 H 0.26469 0.79734 0.06959 0.0
H1283 H 0.28888 0.80995 0.0414 0.0
C1284 C 0.7611 0.25042 0.03832 0.0
C1285 C 0.77298 0.27278 0.019 0.0
C1286 C 0.73845 0.25628 0.97896 0.0
C1287 C 0.731 0.23069 0.99639 0.0
N1288 N 0.73527 0.20265 0.0426 0.0
N1289 N 0.77382 0.29696 0.97038 0.0
C1290 C 0.742 0.22778 0.02625 0.0
C1291 C 0.76143 0.27617 0.98933 0.0
N1292 N 0.76806 0.25106 0.06828 0.0
N1293 N 0.72388 0.26121 0.95234 0.0
H1294 H 0.79045 0.31206 0.9771 0.0
H1295 H 0.76902 0.29807 0.94748 0.0
H1296 H 0.70732 0.2467 0.94415 0.0
H1297 H 0.72619 0.28082 0.93979 0.0
H1298 H 0.75808 0.23709 0.08418 0.0
H1299 H 0.78175 0.26769 0.07766 0.0
H1300 H 0.74541 0.19738 0.06305 0.0
H1301 H 0.72071 0.18601 0.03479 0.0
C1302 C 0.76637 0.72803 0.01394 0.0
C1303 C 0.78016 0.73098 0.9852 0.0
C1304 C 0.75202 0.77745 0.97619 0.0
C1305 C 0.73769 0.77445 0.00467 0.0
N1306 N 0.7269 0.7442 0.04831 0.0
N1307 N 0.77952 0.75305 0.93585 0.0
C1308 C 0.7432 0.74862 0.02262 0.0
C1309 C 0.77073 0.75395 0.96532 0.0
N1310 N 0.77679 0.70694 0.03375 0.0
N1311 N 0.74891 0.80336 0.95998 0.0
H1312 H 0.79289 0.73578 0.92718 0.0
H1313 H 0.77104 0.76749 0.91945 0.0
H1314 H 0.73555 0.82126 0.96699 0.0
H1315 H 0.76154 0.80818 0.94084 0.0
H1316 H 0.77031 0.70601 0.05624 0.0
H1317 H 0.79352 0.69143 0.0283 0.0
H1318 H 0.72747 0.72432 0.06065 0.0
H1319 H 0.71108 0.75965 0.05618 0.0
C1320 C 0.5246 0.72741 0.76298 0.0
C1321 C 0.49474 0.72922 0.77431 0.0
C1322 C 0.48563 0.77448 0.74402 0.0
C1323 C 0.51546 0.77243 0.73249 0.0
N1324 N 0.56563 0.75253 0.7371 0.0
N1325 N 0.44942 0.75801 0.78164 0.0
C1326 C 0.53569 0.75066 0.74405 0.0
C1327 C 0.47619 0.75411 0.76696 0.0
N1328 N 0.54197 0.70285 0.76938 0.0
N1329 N 0.46572 0.79443 0.73169 0.0
H1330 H 0.44176 0.74313 0.79809 0.0
H1331 H 0.43615 0.77719 0.77946 0.0
H1332 H 0.47171 0.80977 0.71502 0.0
H1333 H 0.44277 0.79452 0.73652 0.0
H1334 H 0.56252 0.6984 0.75899 0.0
H1335 H 0.53494 0.68578 0.78382 0.0
H1336 H 0.58211 0.73908 0.74694 0.0
H1337 H 0.57438 0.76964 0.72363 0.0
C1338 C 0.27182 0.46949 0.74177 0.0
C1339 C 0.27926 0.48861 0.7661 0.0
C1340 C 0.24215 0.52551 0.74777 0.0
C1341 C 0.2389 0.50864 0.72079 0.0
N1342 N 0.25397 0.46581 0.69065 0.0
N1343 N 0.27327 0.53622 0.79145 0.0
C1344 C 0.25455 0.48089 0.71744 0.0
C1345 C 0.26453 0.51683 0.76924 0.0
N1346 N 0.281 0.44016 0.74215 0.0
N1347 N 0.22443 0.55017 0.75259 0.0
H1348 H 0.28952 0.53083 0.8075 0.0
H1349 H 0.26602 0.55844 0.79273 0.0
H1350 H 0.20896 0.55806 0.73681 0.0
H1351 H 0.22348 0.56147 0.77311 0.0
H1352 H 0.27379 0.42426 0.72652 0.0
H1353 H 0.29317 0.43099 0.76004 0.0
H1354 H 0.2677 0.44739 0.68599 0.0
H1355 H 0.24178 0.4731 0.67204 0.0
C1356 C 0.52811 0.25327 0.76526 0.0
C1357 C 0.50947 0.27805 0.7727 0.0
C1358 C 0.46911 0.25745 0.74106 0.0
C1359 C 0.48952 0.23575 0.72964 0.0
N1360 N 0.53911 0.2134 0.72964 0.0
N1361 N 0.46236 0.30458 0.76768 0.0
C1362 C 0.51906 0.23333 0.74181 0.0
C1363 C 0.47984 0.28019 0.76085 0.0
N1364 N 0.55458 0.24907 0.7804 0.0
N1365 N 0.43936 0.25595 0.73323 0.0
H1366 H 0.46905 0.32109 0.78294 0.0
H1367 H 0.44203 0.30939 0.75703 0.0
H1368 H 0.43088 0.23923 0.7191 0.0
H1369 H 0.42269 0.26933 0.74286 0.0
H1370 H 0.56783 0.22988 0.7782 0.0
H1371 H 0.56199 0.26368 0.79721 0.0
H1372 H 0.56194 0.21307 0.73497 0.0
H1373 H 0.53342 0.19834 0.71259 0.0
C1374 C 0.76196 0.47732 0.75064 0.0
C1375 C 0.76628 0.49414 0.72383 0.0
C1376 C 0.73469 0.53456 0.74453 0.0
C1377 C 0.72605 0.51564 0.76857 0.0
N1378 N 0.73001 0.46789 0.79401 0.0
N1379 N 0.75407 0.53798 0.69394 0.0
C1380 C 0.7397 0.48688 0.77188 0.0
C1381 C 0.75206 0.52264 0.7205 0.0
N1382 N 0.7786 0.45194 0.75551 0.0
N1383 N 0.72654 0.5642 0.74493 0.0
H1384 H 0.76674 0.53053 0.6757 0.0
H1385 H 0.74125 0.55699 0.68909 0.0
H1386 H 0.71427 0.57367 0.76259 0.0
H1387 H 0.73463 0.57993 0.72958 0.0
H1388 H 0.77878 0.44044 0.77591 0.0
H1389 H 0.79406 0.44366 0.73989 0.0
H1390 H 0.73639 0.44541 0.79538 0.0
H1391 H 0.71394 0.474 0.80998 0.0
C1392 C 0.48418 0.23754 0.27265 0.0
C1393 C 0.5148 0.22853 0.27104 0.0
C1394 C 0.52199 0.25912 0.22568 0.0
C1395 C 0.4918 0.26955 0.22841 0.0
N1396 N 0.44188 0.26168 0.24778 0.0
N1397 N 0.56065 0.22412 0.24261 0.0
C1398 C 0.47215 0.25634 0.24976 0.0
C1399 C 0.53294 0.23704 0.24625 0.0
N1400 N 0.46699 0.22917 0.29676 0.0
N1401 N 0.54066 0.2715 0.20465 0.0
H1402 H 0.56931 0.2084 0.25773 0.0
H1403 H 0.57399 0.22703 0.22358 0.0
H1404 H 0.5331 0.28627 0.18815 0.0
H1405 H 0.56383 0.268 0.20407 0.0
H1406 H 0.44567 0.23787 0.30119 0.0
H1407 H 0.47476 0.2146 0.31342 0.0
H1408 H 0.42585 0.25078 0.26093 0.0
H1409 H 0.43256 0.27491 0.23075 0.0
C1410 C 0.77222 0.48369 0.27043 0.0
C1411 C 0.77367 0.51508 0.27598 0.0
C1412 C 0.73574 0.52398 0.2368 0.0
C1413 C 0.73063 0.49253 0.23512 0.0
N1414 N 0.74429 0.442 0.2486 0.0
N1415 N 0.75837 0.56556 0.26421 0.0
C1416 C 0.7493 0.47221 0.25112 0.0
C1417 C 0.75617 0.5354 0.25872 0.0
N1418 N 0.79264 0.46499 0.28386 0.0
N1419 N 0.7209 0.54279 0.21751 0.0
H1420 H 0.77433 0.57456 0.27893 0.0
H1421 H 0.74384 0.58156 0.25521 0.0
H1422 H 0.70571 0.53505 0.20137 0.0
H1423 H 0.72526 0.56569 0.21573 0.0
H1424 H 0.79452 0.44217 0.27912 0.0
H1425 H 0.80951 0.47281 0.2982 0.0
H1426 H 0.75453 0.42589 0.26212 0.0
H1427 H 0.72874 0.43301 0.23344 0.0
C1428 C 0.48329 0.74572 0.2309 0.0
C1429 C 0.51322 0.7348 0.23451 0.0
C1430 C 0.51951 0.76589 0.27971 0.0
C1431 C 0.48912 0.77551 0.27708 0.0
N1432 N 0.44449 0.78101 0.24698 0.0
N1433 N 0.56239 0.7414 0.25616 0.0
C1434 C 0.47185 0.76763 0.25145 0.0
C1435 C 0.53216 0.74723 0.25697 0.0
N1436 N 0.46528 0.73396 0.20894 0.0
N1437 N 0.53589 0.77361 0.30461 0.0
H1438 H 0.5722 0.72828 0.23931 0.0
H1439 H 0.57805 0.75178 0.27016 0.0
H1440 H 0.52777 0.78813 0.32116 0.0
H1441 H 0.55685 0.76444 0.30976 0.0
H1442 H 0.4422 0.73783 0.20749 0.0
H1443 H 0.47329 0.7193 0.19254 0.0
H1444 H 0.43184 0.77858 0.22741 0.0
H1445 H 0.43549 0.79664 0.26202 0.0
C1446 C 0.2917 0.5039 0.27173 0.0
C1447 C 0.28381 0.51568 0.24313 0.0
C1448 C 0.23152 0.49962 0.25307 0.0
C1449 C 0.23938 0.49215 0.28344 0.0
N1450 N 0.27535 0.50445 0.32291 0.0
N1451 N 0.24319 0.53186 0.21059 0.0
C1452 C 0.26895 0.49961 0.29324 0.0
C1453 C 0.2528 0.51562 0.2348 0.0
N1454 N 0.32052 0.49548 0.27843 0.0
N1455 N 0.2045 0.49133 0.24108 0.0
H1456 H 0.25743 0.54567 0.19812 0.0
H1457 H 0.22047 0.53448 0.20523 0.0
H1458 H 0.18795 0.48004 0.25298 0.0
H1459 H 0.1996 0.49361 0.21825 0.0
H1460 H 0.32606 0.48565 0.29903 0.0
H1461 H 0.33755 0.49417 0.26233 0.0
H1462 H 0.29672 0.51114 0.33008 0.0
H1463 H 0.25863 0.5064 0.33929 0.0
C1464 C 0.75116 0.74464 0.53802 0.0
C1465 C 0.77296 0.73317 0.5178 0.0
C1466 C 0.75248 0.76566 0.47785 0.0
C1467 C 0.72743 0.77227 0.49653 0.0
N1468 N 0.70204 0.76735 0.54432 0.0
N1469 N 0.79563 0.73339 0.46844 0.0
C1470 C 0.72674 0.7619 0.52675 0.0
C1471 C 0.77445 0.74438 0.48784 0.0
N1472 N 0.75409 0.73909 0.56813 0.0
N1473 N 0.75489 0.77931 0.45042 0.0
H1474 H 0.81287 0.71906 0.47522 0.0
H1475 H 0.79554 0.7375 0.44539 0.0
H1476 H 0.73858 0.79407 0.4422 0.0
H1477 H 0.77395 0.77788 0.43685 0.0
H1478 H 0.74056 0.74904 0.58449 0.0
H1479 H 0.7722 0.72696 0.57694 0.0
H1480 H 0.69861 0.75741 0.56524 0.0
H1481 H 0.68385 0.78027 0.53708 0.0
C1482 C 0.74167 0.2293 0.48292 0.0
C1483 C 0.73107 0.23064 0.51307 0.0
C1484 C 0.76239 0.27499 0.52263 0.0
C1485 C 0.77243 0.27415 0.49232 0.0
N1486 N 0.77794 0.24694 0.44587 0.0
N1487 N 0.73736 0.24895 0.5636 0.0
C1488 C 0.76426 0.24994 0.47325 0.0
C1489 C 0.7435 0.25164 0.53358 0.0
N1490 N 0.72883 0.20965 0.46305 0.0
N1491 N 0.76992 0.29881 0.54056 0.0
H1492 H 0.72387 0.23176 0.57218 0.0
H1493 H 0.74779 0.26179 0.58019 0.0
H1494 H 0.78446 0.31583 0.53358 0.0
H1495 H 0.76048 0.30268 0.56166 0.0
H1496 H 0.73285 0.21005 0.43998 0.0
H1497 H 0.71266 0.19389 0.46935 0.0
H1498 H 0.77513 0.22832 0.43197 0.0
H1499 H 0.79424 0.262 0.4382 0.0
C1500 C 0.25357 0.7592 0.52922 0.0
C1501 C 0.27848 0.76771 0.51118 0.0
C1502 C 0.2583 0.73814 0.46914 0.0
C1503 C 0.23633 0.72578 0.48864 0.0
N1504 N 0.21347 0.72315 0.53785 0.0
N1505 N 0.30592 0.76424 0.46441 0.0
C1506 C 0.23366 0.73632 0.51874 0.0
C1507 C 0.28108 0.75711 0.48113 0.0
N1508 N 0.24925 0.77269 0.55653 0.0
N1509 N 0.25702 0.73204 0.43901 0.0
H1510 H 0.32279 0.77859 0.47212 0.0
H1511 H 0.31088 0.75441 0.44373 0.0
H1512 H 0.24027 0.71854 0.42956 0.0
H1513 H 0.27056 0.7426 0.42308 0.0
H1514 H 0.22991 0.76983 0.56945 0.0
H1515 H 0.26405 0.7887 0.56521 0.0
H1516 H 0.2129 0.72722 0.56091 0.0
H1517 H 0.19838 0.70655 0.53105 0.0
C1518 C 0.23278 0.2569 0.48554 0.0
C1519 C 0.23545 0.26995 0.51468 0.0
C1520 C 0.28255 0.24243 0.52303 0.0
C1521 C 0.28045 0.22989 0.49367 0.0
N1522 N 0.25034 0.21909 0.44996 0.0
N1523 N 0.25686 0.26728 0.56429 0.0
C1524 C 0.2543 0.23492 0.47601 0.0
C1525 C 0.25841 0.26002 0.53444 0.0
N1526 N 0.21093 0.26679 0.46629 0.0
N1527 N 0.30821 0.23859 0.53962 0.0
H1528 H 0.239 0.27963 0.5733 0.0
H1529 H 0.27133 0.25846 0.58049 0.0
H1530 H 0.32622 0.2254 0.53244 0.0
H1531 H 0.31253 0.25011 0.55956 0.0
H1532 H 0.21011 0.2611 0.44358 0.0
H1533 H 0.19429 0.28201 0.47265 0.0
H1534 H 0.2305 0.21951 0.43746 0.0
H1535 H 0.26607 0.2035 0.44214 0.0
C1536 C 0.08248 0.3586 0.0758 0.0
C1537 C 0.08814 0.3381 0.09988 0.0
C1538 C 0.12557 0.31218 0.06841 0.0
C1539 C 0.12012 0.3329 0.0448 0.0
N1540 N 0.10182 0.38185 0.03047 0.0
N1541 N 0.12386 0.30341 0.12204 0.0
C1542 C 0.10143 0.35816 0.04999 0.0
C1543 C 0.11221 0.31711 0.09709 0.0
N1544 N 0.05815 0.37745 0.07646 0.0
N1545 N 0.14377 0.28786 0.06358 0.0
H1546 H 0.11702 0.30865 0.14385 0.0
H1547 H 0.14301 0.28988 0.12149 0.0
H1548 H 0.15606 0.28485 0.04378 0.0
H1549 H 0.14547 0.27003 0.07868 0.0
H1550 H 0.05139 0.39014 0.05795 0.0
H1551 H 0.04258 0.37819 0.09391 0.0
H1552 H 0.09073 0.40206 0.03472 0.0
H1553 H 0.11599 0.38267 0.01181 0.0
C1554 C 0.66181 0.10794 0.09235 0.0
C1555 C 0.66517 0.07618 0.09172 0.0
C1556 C 0.66882 0.07776 0.03663 0.0
C1557 C 0.66996 0.10956 0.0376 0.0
N1558 N 0.66959 0.15541 0.06674 0.0
N1559 N 0.67563 0.03116 0.06347 0.0
C1560 C 0.66664 0.12487 0.06552 0.0
C1561 C 0.66962 0.06118 0.06388 0.0
N1562 N 0.65381 0.12193 0.11856 0.0
N1563 N 0.66605 0.06341 0.00953 0.0
H1564 H 0.67636 0.0185 0.083 0.0
H1565 H 0.68239 0.01949 0.0443 0.0
H1566 H 0.66446 0.07495 0.98915 0.0
H1567 H 0.66209 0.04043 0.00749 0.0
H1568 H 0.64755 0.14446 0.11976 0.0
H1569 H 0.65126 0.11052 0.13889 0.0
H1570 H 0.67142 0.16742 0.08678 0.0
H1571 H 0.67213 0.16879 0.04771 0.0
C1572 C 0.8923 0.67778 0.10269 0.0
C1573 C 0.91699 0.65753 0.1052 0.0
C1574 C 0.90552 0.63862 0.05445 0.0
C1575 C 0.88578 0.6632 0.04988 0.0
N1576 N 0.85997 0.70663 0.06958 0.0
N1577 N 0.94889 0.62005 0.0814 0.0
C1578 C 0.87904 0.68292 0.07403 0.0
C1579 C 0.92386 0.63796 0.0807 0.0
N1580 N 0.88031 0.69079 0.12786 0.0
N1581 N 0.90684 0.61594 0.03378 0.0
H1582 H 0.96417 0.61965 0.09914 0.0
H1583 H 0.95652 0.608 0.06278 0.0
H1584 H 0.89338 0.6155 0.01457 0.0
H1585 H 0.91873 0.59606 0.03734 0.0
H1586 H 0.86069 0.70366 0.12758 0.0
H1587 H 0.88765 0.68575 0.14956 0.0
H1588 H 0.8572 0.72391 0.08517 0.0
H1589 H 0.84801 0.70978 0.0496 0.0
C1590 C 0.34122 0.92357 0.04325 0.0
C1591 C 0.33703 0.89211 0.04594 0.0
C1592 C 0.34643 0.89538 0.10032 0.0
C1593 C 0.34625 0.92723 0.09814 0.0
N1594 N 0.34313 0.97202 0.06794 0.0
N1595 N 0.33566 0.84743 0.07647 0.0
C1596 C 0.34379 0.94142 0.06966 0.0
C1597 C 0.34007 0.87774 0.07428 0.0
N1598 N 0.34362 0.9362 0.01527 0.0
N1599 N 0.3531 0.88204 0.12723 0.0
H1600 H 0.33278 0.83367 0.05772 0.0
H1601 H 0.33355 0.83601 0.09679 0.0
H1602 H 0.35729 0.89424 0.14683 0.0
H1603 H 0.35674 0.85908 0.1298 0.0
H1604 H 0.34959 0.9585 0.01154 0.0
H1605 H 0.34239 0.92363 0.99547 0.0
H1606 H 0.33756 0.98394 0.04857 0.0
H1607 H 0.34671 0.98557 0.0866 0.0
C1608 C 0.11684 0.67747 0.90486 0.0
C1609 C 0.09257 0.65674 0.90244 0.0
C1610 C 0.10429 0.63842 0.9533 0.0
C1611 C 0.1236 0.66335 0.95774 0.0
N1612 N 0.14858 0.70713 0.93777 0.0
N1613 N 0.06114 0.61914 0.92655 0.0
C1614 C 0.12993 0.68307 0.9335 0.0
C1615 C 0.08594 0.63734 0.9271 0.0
N1616 N 0.12871 0.69041 0.87961 0.0
N1617 N 0.10339 0.61573 0.97396 0.0
H1618 H 0.04585 0.61843 0.90883 0.0
H1619 H 0.05367 0.6072 0.94527 0.0
H1620 H 0.11679 0.61545 0.99319 0.0
H1621 H 0.09188 0.59565 0.97035 0.0
H1622 H 0.14809 0.7036 0.87985 0.0
H1623 H 0.1216 0.685 0.85792 0.0
H1624 H 0.15096 0.72436 0.92208 0.0
H1625 H 0.16058 0.71062 0.95766 0.0
C1626 C 0.35076 0.06298 0.93586 0.0
C1627 C 0.35036 0.07879 0.90822 0.0
C1628 C 0.34184 0.12646 0.93469 0.0
C1629 C 0.34128 0.11068 0.9625 0.0
N1630 N 0.34804 0.06461 0.99042 0.0
N1631 N 0.35322 0.12558 0.88127 0.0
C1632 C 0.3466 0.07908 0.96331 0.0
C1633 C 0.34824 0.11056 0.90766 0.0
N1634 N 0.35453 0.03248 0.93565 0.0
N1635 N 0.33442 0.1563 0.93379 0.0
H1636 H 0.3581 0.11461 0.8611 0.0
H1637 H 0.35535 0.14882 0.87977 0.0
H1638 H 0.33007 0.1691 0.95292 0.0
H1639 H 0.33043 0.16808 0.91397 0.0
H1640 H 0.35144 0.01858 0.95419 0.0
H1641 H 0.36062 0.02071 0.91632 0.0
H1642 H 0.35464 0.04238 0.99326 0.0
H1643 H 0.34372 0.07526 0.01081 0.0
C1644 C 0.8761 0.31746 0.93428 0.0
C1645 C 0.88205 0.33742 0.95843 0.0
C1646 C 0.91915 0.36401 0.92763 0.0
C1647 C 0.91311 0.34415 0.90312 0.0
N1648 N 0.87696 0.31033 0.88039 0.0
N1649 N 0.90062 0.38589 0.974 0.0
C1650 C 0.889 0.32321 0.9056 0.0
C1651 C 0.90066 0.3628 0.95374 0.0
N1652 N 0.85787 0.2931 0.93862 0.0
N1653 N 0.94338 0.38294 0.92705 0.0
H1654 H 0.88678 0.38619 0.99292 0.0
H1655 H 0.91164 0.40621 0.97021 0.0
H1656 H 0.95853 0.3843 0.90928 0.0
H1657 H 0.95048 0.39511 0.94579 0.0
H1658 H 0.85583 0.27577 0.92296 0.0
H1659 H 0.84591 0.2895 0.95851 0.0
H1660 H 0.85776 0.29688 0.88077 0.0
H1661 H 0.88354 0.31621 0.85866 0.0
C1662 C 0.6402 0.90682 0.95206 0.0
C1663 C 0.66037 0.88239 0.95294 0.0
C1664 C 0.67107 0.88973 0.89941 0.0
C1665 C 0.65694 0.91843 0.90093 0.0
N1666 N 0.63006 0.95548 0.93055 0.0
N1667 N 0.69211 0.84745 0.92681 0.0
C1668 C 0.64169 0.92722 0.92766 0.0
C1669 C 0.67494 0.87287 0.92631 0.0
N1670 N 0.6188 0.9097 0.97383 0.0
N1671 N 0.67917 0.87785 0.8722 0.0
H1672 H 0.69162 0.83274 0.94506 0.0
H1673 H 0.70675 0.84127 0.90956 0.0
H1674 H 0.67474 0.88848 0.85178 0.0
H1675 H 0.68732 0.85607 0.86952 0.0
H1676 H 0.60206 0.92613 0.97328 0.0
H1677 H 0.61554 0.89296 0.98996 0.0
H1678 H 0.62121 0.96358 0.95072 0.0
H1679 H 0.63211 0.97178 0.91391 0.0
C1680 C 0.09894 0.11427 0.33666 0.0
C1681 C 0.10141 0.08521 0.34978 0.0
C1682 C 0.04646 0.0827 0.35484 0.0
C1683 C 0.04393 0.1116 0.34175 0.0
N1684 N 0.06764 0.15811 0.32733 0.0
N1685 N 0.07807 0.04693 0.38078 0.0
C1686 C 0.07018 0.12845 0.33494 0.0
C1687 C 0.07542 0.07116 0.36209 0.0
N1688 N 0.1241 0.12848 0.32607 0.0
N1689 N 0.02128 0.06561 0.35924 0.0
H1690 H 0.09833 0.03611 0.38534 0.0
H1691 H 0.06007 0.03848 0.39322 0.0
H1692 H 0.99968 0.07324 0.35416 0.0
H1693 H 0.02202 0.04308 0.36555 0.0
H1694 H 0.12339 0.14756 0.31255 0.0
H1695 H 0.14589 0.12066 0.33 0.0
H1696 H 0.08596 0.17247 0.32479 0.0
H1697 H 0.047 0.16923 0.3262 0.0
C1698 C 0.92231 0.07344 0.36735 0.0
C1699 C 0.9161 0.09802 0.34767 0.0
C1700 C 0.87827 0.0673 0.32154 0.0
C1701 C 0.8844 0.04309 0.34134 0.0
N1702 N 0.90373 0.02706 0.38919 0.0
N1703 N 0.87995 0.12109 0.31408 0.0
C1704 C 0.90361 0.04748 0.36631 0.0
C1705 C 0.89166 0.09579 0.32705 0.0
N1706 N 0.94686 0.07389 0.3859 0.0
N1707 N 0.85964 0.06312 0.29741 0.0
H1708 H 0.88722 0.14269 0.31953 0.0
H1709 H 0.86053 0.121 0.30092 0.0
H1710 H 0.84759 0.04328 0.29392 0.0
H1711 H 0.85736 0.07878 0.28014 0.0
H1712 H 0.95401 0.05518 0.39805 0.0
H1713 H 0.96201 0.09166 0.38702 0.0
H1714 H 0.91552 0.03024 0.40922 0.0
H1715 H 0.88892 0.00891 0.38964 0.0
C1716 C 0.90349 0.88978 0.32473 0.0
C1717 C 0.90217 0.91536 0.3439 0.0
C1718 C 0.95393 0.90485 0.36031 0.0
C1719 C 0.95706 0.8837 0.3367 0.0
N1720 N 0.93498 0.85614 0.29552 0.0
N1721 N 0.92834 0.94967 0.37706 0.0
C1722 C 0.93184 0.87618 0.31863 0.0
C1723 C 0.92787 0.92337 0.36124 0.0
N1724 N 0.87757 0.87746 0.3136 0.0
N1725 N 0.97574 0.90734 0.38184 0.0
H1726 H 0.91043 0.96469 0.37711 0.0
H1727 H 0.94766 0.95807 0.3874 0.0
H1728 H 0.99471 0.89354 0.38235 0.0
H1729 H 0.97329 0.92067 0.40098 0.0
H1730 H 0.87707 0.85727 0.30172 0.0
H1731 H 0.85619 0.88537 0.31922 0.0
H1732 H 0.91838 0.85258 0.27933 0.0
H1733 H 0.95487 0.84423 0.29164 0.0
C1734 C 0.13051 0.93712 0.33762 0.0
C1735 C 0.11396 0.96443 0.33569 0.0
C1736 C 0.06652 0.93638 0.34117 0.0
C1737 C 0.08305 0.90923 0.34352 0.0
N1738 N 0.13057 0.88396 0.35016 0.0
N1739 N 0.06645 0.9907 0.33959 0.0
C1740 C 0.11502 0.9097 0.3437 0.0
C1741 C 0.08202 0.96418 0.33862 0.0
N1742 N 0.16073 0.93704 0.33174 0.0
N1743 N 0.03581 0.93547 0.34065 0.0
H1744 H 0.07647 0.01151 0.33615 0.0
H1745 H 0.04389 0.9925 0.34569 0.0
H1746 H 0.02398 0.91599 0.34533 0.0
H1747 H 0.02208 0.95341 0.33449 0.0
H1748 H 0.17347 0.91755 0.32924 0.0
H1749 H 0.17281 0.9565 0.32694 0.0
H1750 H 0.15371 0.88337 0.35396 0.0
H1751 H 0.11998 0.86344 0.35423 0.0
C1752 C 0.06992 0.87637 0.66872 0.0
C1753 C 0.04203 0.89174 0.67213 0.0
C1754 C 0.06859 0.94001 0.67176 0.0
C1755 C 0.09622 0.92493 0.66641 0.0
N1756 N 0.12278 0.87901 0.65498 0.0
N1757 N 0.0142 0.93833 0.66974 0.0
C1758 C 0.0967 0.89317 0.66321 0.0
C1759 C 0.04122 0.92361 0.67147 0.0
N1760 N 0.07124 0.84595 0.67258 0.0
N1761 N 0.06846 0.96995 0.67811 0.0
H1762 H 0.99355 0.92722 0.66943 0.0
H1763 H 0.0123 0.9613 0.66567 0.0
H1764 H 0.08804 0.98254 0.67818 0.0
H1765 H 0.04958 0.9816 0.68573 0.0
H1766 H 0.09133 0.83392 0.67393 0.0
H1767 H 0.05232 0.83287 0.67692 0.0
H1768 H 0.12374 0.85646 0.64874 0.0
H1769 H 0.14319 0.89027 0.65234 0.0
C1770 C 0.13191 0.07997 0.66953 0.0
C1771 C 0.11965 0.05178 0.66133 0.0
C1772 C 0.07181 0.07535 0.64841 0.0
C1773 C 0.08356 0.10371 0.65695 0.0
N1774 N 0.12668 0.13435 0.66931 0.0
N1775 N 0.08276 0.02431 0.63294 0.0
C1776 C 0.11428 0.10647 0.66562 0.0
C1777 C 0.09118 0.05009 0.64733 0.0
N1778 N 0.16034 0.08115 0.68115 0.0
N1779 N 0.0417 0.07206 0.64345 0.0
H1780 H 0.09723 0.00593 0.63092 0.0
H1781 H 0.06309 0.02247 0.62029 0.0
H1782 H 0.02679 0.0898 0.64629 0.0
H1783 H 0.03131 0.05136 0.64001 0.0
H1784 H 0.16957 0.10013 0.69127 0.0
H1785 H 0.17462 0.06251 0.68078 0.0
H1786 H 0.14952 0.13804 0.67308 0.0
H1787 H 0.11445 0.15416 0.6664 0.0
C1788 C 0.92748 0.12734 0.67362 0.0
C1789 C 0.95399 0.11758 0.65889 0.0
C1790 C 0.92815 0.07301 0.64041 0.0
C1791 C 0.90151 0.08205 0.65568 0.0
N1792 N 0.87332 0.12249 0.6788 0.0
N1793 N 0.97483 0.0896 0.61775 0.0
C1794 C 0.90038 0.11063 0.67007 0.0
C1795 C 0.95287 0.09304 0.63891 0.0
N1796 N 0.92827 0.15289 0.69055 0.0
N1797 N 0.93063 0.04474 0.6288 0.0
H1798 H 0.99141 0.1059 0.61456 0.0
H1799 H 0.97412 0.0731 0.60111 0.0
H1800 H 0.91367 0.02883 0.63103 0.0
H1801 H 0.95065 0.03623 0.61997 0.0
H1802 H 0.91121 0.1593 0.70531 0.0
H1803 H 0.94658 0.16754 0.68971 0.0
H1804 H 0.8708 0.14422 0.68713 0.0
H1805 H 0.85279 0.11182 0.67494 0.0
C1806 C 0.92641 0.92377 0.64151 0.0
C1807 C 0.91981 0.89925 0.66109 0.0
C1808 C 0.88245 0.93064 0.68701 0.0
C1809 C 0.88787 0.95421 0.66623 0.0
N1810 N 0.90679 0.96852 0.61756 0.0
N1811 N 0.88333 0.87698 0.69496 0.0
C1812 C 0.9071 0.94923 0.6414 0.0
C1813 C 0.89547 0.90193 0.68177 0.0
N1814 N 0.95191 0.9239 0.62427 0.0
N1815 N 0.86472 0.93551 0.71168 0.0
H1816 H 0.88993 0.85518 0.68952 0.0
H1817 H 0.86398 0.87767 0.70822 0.0
H1818 H 0.85328 0.95565 0.71543 0.0
H1819 H 0.86292 0.92012 0.72926 0.0
H1820 H 0.95872 0.9426 0.61191 0.0
H1821 H 0.9683 0.9072 0.62516 0.0
H1822 H 0.91888 0.9646 0.59783 0.0
H1823 H 0.89143 0.98617 0.61603 0.0
C1824 C 0.33093 0.08185 0.12951 0.0
C1825 C 0.34559 0.05539 0.11967 0.0
C1826 C 0.36875 0.08273 0.07793 0.0
C1827 C 0.35211 0.10887 0.08632 0.0
N1828 N 0.3262 0.136 0.12567 0.0
N1829 N 0.38661 0.03313 0.09238 0.0
C1830 C 0.33567 0.10925 0.11378 0.0
C1831 C 0.36727 0.05668 0.09643 0.0
N1832 N 0.31278 0.08065 0.15425 0.0
N1833 N 0.38466 0.08205 0.0516 0.0
H1834 H 0.38645 0.01427 0.10629 0.0
H1835 H 0.40484 0.03359 0.07765 0.0
H1836 H 0.38581 0.09998 0.03664 0.0
H1837 H 0.39446 0.06266 0.04288 0.0
H1838 H 0.29787 0.09763 0.16045 0.0
H1839 H 0.31286 0.06211 0.16857 0.0
H1840 H 0.31616 0.13811 0.14672 0.0
H1841 H 0.33112 0.15672 0.1159 0.0
C1842 C 0.35926 0.94396 0.89151 0.0
C1843 C 0.33057 0.95736 0.88707 0.0
C1844 C 0.308 0.91859 0.91844 0.0
C1845 C 0.33591 0.90299 0.92052 0.0
N1846 N 0.38491 0.8965 0.8969 0.0
N1847 N 0.27678 0.94885 0.88609 0.0
C1848 C 0.36073 0.9143 0.90345 0.0
C1849 C 0.30465 0.94165 0.89691 0.0
N1850 N 0.38513 0.95941 0.88557 0.0
N1851 N 0.28553 0.9139 0.93865 0.0
H1852 H 0.27363 0.96454 0.86892 0.0
H1853 H 0.25758 0.9365 0.89163 0.0
H1854 H 0.2894 0.90246 0.95847 0.0
H1855 H 0.26544 0.92609 0.93847 0.0
H1856 H 0.40635 0.95101 0.89118 0.0
H1857 H 0.3854 0.98151 0.87792 0.0
H1858 H 0.40245 0.90363 0.88301 0.0
H1859 H 0.3852 0.87351 0.90118 0.0
C1860 C 0.0393 0.34429 0.92192 0.0
C1861 C 0.03838 0.33651 0.89092 0.0
C1862 C 0.09374 0.33847 0.8888 0.0
C1863 C 0.09468 0.34309 0.92039 0.0
N1864 N 0.06877 0.34955 0.96751 0.0
N1865 N 0.06457 0.32254 0.84548 0.0
C1866 C 0.06753 0.34611 0.93702 0.0
C1867 C 0.06557 0.33294 0.87441 0.0
N1868 N 0.01303 0.35024 0.93685 0.0
N1869 N 0.11976 0.34011 0.87242 0.0
H1870 H 0.04446 0.31822 0.83422 0.0
H1871 H 0.08356 0.316 0.83338 0.0
H1872 H 0.14077 0.34402 0.88219 0.0
H1873 H 0.1203 0.34024 0.849 0.0
H1874 H 0.01196 0.35952 0.95832 0.0
H1875 H 0.99194 0.34765 0.92695 0.0
H1876 H 0.05022 0.34801 0.98175 0.0
H1877 H 0.08896 0.35239 0.9789 0.0
C1878 C 0.64157 0.08857 0.90151 0.0
C1879 C 0.66739 0.10541 0.91029 0.0
C1880 C 0.69898 0.06565 0.88785 0.0
C1881 C 0.67355 0.04625 0.88681 0.0
N1882 N 0.62014 0.03922 0.89458 0.0
N1883 N 0.72158 0.11164 0.90548 0.0
C1884 C 0.64468 0.0577 0.89411 0.0
C1885 C 0.6964 0.09447 0.90166 0.0
N1886 N 0.61446 0.10253 0.89756 0.0
N1887 N 0.72509 0.0575 0.87361 0.0
H1888 H 0.72113 0.13498 0.90629 0.0
H1889 H 0.74323 0.10258 0.90609 0.0
H1890 H 0.72754 0.03744 0.86173 0.0
H1891 H 0.74336 0.07188 0.87068 0.0
H1892 H 0.59548 0.09151 0.88924 0.0
H1893 H 0.61229 0.12584 0.89756 0.0
H1894 H 0.5993 0.04604 0.90299 0.0
H1895 H 0.62114 0.01652 0.88898 0.0
C1896 C 0.94059 0.65954 0.87736 0.0
C1897 C 0.968 0.66111 0.8939 0.0
C1898 C 0.94002 0.65453 0.94123 0.0
C1899 C 0.91267 0.65342 0.92476 0.0
N1900 N 0.8871 0.64791 0.8773 0.0
N1901 N 0.99467 0.65494 0.94077 0.0
C1902 C 0.91305 0.65375 0.89283 0.0
C1903 C 0.96791 0.65704 0.92563 0.0
N1904 N 0.94059 0.66527 0.84714 0.0
N1905 N 0.93921 0.65395 0.97191 0.0
H1906 H 0.01548 0.65756 0.93031 0.0
H1907 H 0.99661 0.6486 0.96321 0.0
H1908 H 0.91952 0.6496 0.9837 0.0
H1909 H 0.9575 0.65878 0.98574 0.0
H1910 H 0.92108 0.66849 0.83454 0.0
H1911 H 0.96018 0.66871 0.83473 0.0
H1912 H 0.88634 0.64451 0.85413 0.0
H1913 H 0.86652 0.64389 0.88789 0.0
C1914 C 0.67616 0.92197 0.12843 0.0
C1915 C 0.66564 0.94951 0.11644 0.0
C1916 C 0.65075 0.92454 0.06999 0.0
C1917 C 0.66147 0.8968 0.08148 0.0
N1918 N 0.67822 0.86756 0.12405 0.0
N1919 N 0.63327 0.97483 0.08128 0.0
C1920 C 0.67241 0.89501 0.1115 0.0
C1921 C 0.64965 0.95003 0.08902 0.0
N1922 N 0.68963 0.92179 0.15603 0.0
N1923 N 0.64369 0.92712 0.04028 0.0
H1924 H 0.63118 0.99334 0.09555 0.0
H1925 H 0.61917 0.97561 0.06255 0.0
H1926 H 0.64656 0.90931 0.02548 0.0
H1927 H 0.63854 0.94746 0.02988 0.0
H1928 H 0.70144 0.90355 0.16473 0.0
H1929 H 0.68898 0.94051 0.17015 0.0
H1930 H 0.68376 0.86447 0.14659 0.0
H1931 H 0.67528 0.8474 0.11245 0.0
C1932 C 0.04211 0.65881 0.08123 0.0
C1933 C 0.04192 0.66456 0.11269 0.0
C1934 C 0.09699 0.65826 0.11421 0.0
C1935 C 0.09741 0.65588 0.08237 0.0
N1936 N 0.07091 0.65387 0.0352 0.0
N1937 N 0.06917 0.67205 0.15912 0.0
C1938 C 0.07006 0.65586 0.06583 0.0
C1939 C 0.06933 0.66453 0.12928 0.0
N1940 N 0.01541 0.65551 0.06621 0.0
N1941 N 0.12299 0.65376 0.13011 0.0
H1942 H 0.04949 0.67589 0.17129 0.0
H1943 H 0.08859 0.6764 0.17152 0.0
H1944 H 0.14367 0.64941 0.11982 0.0
H1945 H 0.12376 0.65181 0.15344 0.0
H1946 H 0.01363 0.64786 0.04415 0.0
H1947 H 0.99454 0.65845 0.07648 0.0
H1948 H 0.05255 0.65776 0.02117 0.0
H1949 H 0.09071 0.64951 0.0236 0.0
C1950 C 0.96247 0.34137 0.08136 0.0
C1951 C 0.96296 0.33297 0.11221 0.0
C1952 C 0.90783 0.33806 0.11455 0.0
C1953 C 0.90714 0.3435 0.0831 0.0
N1954 N 0.93324 0.3501 0.03614 0.0
N1955 N 0.93612 0.31959 0.15741 0.0
C1956 C 0.93436 0.34543 0.06646 0.0
C1957 C 0.93566 0.33064 0.12873 0.0
N1958 N 0.98903 0.34575 0.0664 0.0
N1959 N 0.88192 0.34071 0.13098 0.0
H1960 H 0.95598 0.31371 0.16843 0.0
H1961 H 0.91684 0.31396 0.16948 0.0
H1962 H 0.86117 0.34605 0.12133 0.0
H1963 H 0.88135 0.34025 0.1544 0.0
H1964 H 0.99068 0.35537 0.04514 0.0
H1965 H 0.00995 0.34129 0.076 0.0
H1966 H 0.95155 0.34787 0.02169 0.0
H1967 H 0.91326 0.35504 0.02507 0.0
C1968 C 0.58779 0.85289 0.54868 0.0
C1969 C 0.61737 0.84115 0.55039 0.0
C1970 C 0.61417 0.8405 0.60547 0.0
C1971 C 0.58296 0.84741 0.60337 0.0
N1972 N 0.53936 0.85843 0.57297 0.0
N1973 N 0.66019 0.82587 0.57959 0.0
C1974 C 0.56965 0.85359 0.57499 0.0
C1975 C 0.63108 0.83576 0.57863 0.0
N1976 N 0.57721 0.86359 0.52185 0.0
N1977 N 0.62777 0.83946 0.63308 0.0
H1978 H 0.67385 0.82557 0.56049 0.0
H1979 H 0.67059 0.81759 0.59887 0.0
H1980 H 0.61617 0.84326 0.65313 0.0
H1981 H 0.65089 0.83718 0.63617 0.0
H1982 H 0.55677 0.87482 0.51949 0.0
H1983 H 0.59039 0.86397 0.50242 0.0
H1984 H 0.52764 0.85964 0.5527 0.0
H1985 H 0.52545 0.85879 0.59175 0.0
C1986 C 0.18196 0.60703 0.59501 0.0
C1987 C 0.16061 0.58326 0.59714 0.0
C1988 C 0.14124 0.59761 0.54729 0.0
C1989 C 0.16682 0.6159 0.54271 0.0
N1990 N 0.21211 0.63853 0.56236 0.0
N1991 N 0.12099 0.55447 0.57294 0.0
C1992 C 0.1874 0.62072 0.56663 0.0
C1993 C 0.14025 0.57834 0.57278 0.0
N1994 N 0.1956 0.61797 0.62033 0.0
N1995 N 0.11768 0.59891 0.52761 0.0
H1996 H 0.11952 0.53939 0.59062 0.0
H1997 H 0.1084 0.54804 0.55422 0.0
H1998 H 0.11709 0.61417 0.50987 0.0
H1999 H 0.09733 0.5878 0.53117 0.0
H2000 H 0.20939 0.6369 0.62029 0.0
H2001 H 0.19007 0.61074 0.64194 0.0
H2002 H 0.22978 0.6398 0.57776 0.0
H2003 H 0.21564 0.65087 0.54272 0.0
C2004 C 0.37648 0.16984 0.57547 0.0
C2005 C 0.38976 0.16188 0.54765 0.0
C2006 C 0.43707 0.14939 0.57281 0.0
C2007 C 0.42424 0.15798 0.60076 0.0
N2008 N 0.37982 0.16939 0.63 0.0
N2009 N 0.4282 0.13464 0.52104 0.0
C2010 C 0.3933 0.16617 0.60251 0.0
C2011 C 0.41863 0.1485 0.54675 0.0
N2012 N 0.34782 0.18099 0.57583 0.0
N2013 N 0.46723 0.14383 0.57078 0.0
H2014 H 0.41448 0.13266 0.50208 0.0
H2015 H 0.44812 0.12233 0.51963 0.0
H2016 H 0.48145 0.14535 0.58928 0.0
H2017 H 0.47851 0.14058 0.55049 0.0
H2018 H 0.33794 0.19109 0.59452 0.0
H2019 H 0.33405 0.18041 0.55682 0.0
H2020 H 0.3568 0.17271 0.63292 0.0
H2021 H 0.39128 0.16633 0.65025 0.0
C2022 C 0.83921 0.42415 0.5401 0.0
C2023 C 0.83733 0.39228 0.54047 0.0
C2024 C 0.84551 0.3927 0.59529 0.0
C2025 C 0.84341 0.42456 0.59524 0.0
N2026 N 0.8374 0.47081 0.5679 0.0
N2027 N 0.83648 0.34593 0.56865 0.0
C2028 C 0.84022 0.44031 0.56768 0.0
C2029 C 0.84031 0.3764 0.56809 0.0
N2030 N 0.84076 0.439 0.5132 0.0
N2031 N 0.85282 0.37804 0.62132 0.0
H2032 H 0.83336 0.33305 0.54933 0.0
H2033 H 0.83444 0.33352 0.5884 0.0
H2034 H 0.85606 0.38913 0.64175 0.0
H2035 H 0.85803 0.35524 0.62227 0.0
H2036 H 0.84582 0.46175 0.51116 0.0
H2037 H 0.83943 0.42811 0.4925 0.0
H2038 H 0.83086 0.48355 0.54936 0.0
H2039 H 0.84013 0.48331 0.58736 0.0
C2040 C 0.61545 0.17823 0.40217 0.0
C2041 C 0.59084 0.15799 0.399 0.0
C2042 C 0.59974 0.1404 0.45068 0.0
C2043 C 0.61985 0.16456 0.45545 0.0
N2044 N 0.64644 0.20766 0.43602 0.0
N2045 N 0.55686 0.12237 0.42261 0.0
C2046 C 0.62752 0.18389 0.43127 0.0
C2047 C 0.58238 0.13951 0.4238 0.0
N2048 N 0.62861 0.19062 0.37728 0.0
N2049 N 0.59736 0.11818 0.47168 0.0
H2050 H 0.54211 0.1223 0.4044 0.0
H2051 H 0.54828 0.11097 0.44119 0.0
H2052 H 0.61081 0.11768 0.49088 0.0
H2053 H 0.58494 0.09861 0.46827 0.0
H2054 H 0.64829 0.20332 0.37817 0.0
H2055 H 0.62217 0.18527 0.35538 0.0
H2056 H 0.64984 0.2246 0.42021 0.0
H2057 H 0.65746 0.21135 0.45643 0.0
C2058 C 0.84024 0.6138 0.40914 0.0
C2059 C 0.84331 0.58207 0.40924 0.0
C2060 C 0.83952 0.58158 0.46438 0.0
C2061 C 0.83393 0.61305 0.46407 0.0
N2062 N 0.82438 0.65848 0.43609 0.0
N2063 N 0.84558 0.53532 0.43626 0.0
C2064 C 0.83333 0.62908 0.43645 0.0
C2065 C 0.84311 0.56589 0.43672 0.0
N2066 N 0.84466 0.6294 0.383 0.0
N2067 N 0.84198 0.56675 0.49122 0.0
H2068 H 0.85072 0.52361 0.41675 0.0
H2069 H 0.84146 0.52142 0.45461 0.0
H2070 H 0.83767 0.57687 0.51188 0.0
H2071 H 0.84984 0.54484 0.49345 0.0
H2072 H 0.84607 0.65273 0.38198 0.0
H2073 H 0.84956 0.61893 0.36256 0.0
H2074 H 0.82016 0.67053 0.41646 0.0
H2075 H 0.81858 0.67023 0.45552 0.0
C2076 C 0.41809 0.85091 0.46129 0.0
C2077 C 0.38782 0.84083 0.46319 0.0
C2078 C 0.3853 0.83784 0.408 0.0
C2079 C 0.41544 0.84848 0.40619 0.0
N2080 N 0.45717 0.87336 0.43085 0.0
N2081 N 0.3404 0.83125 0.43852 0.0
C2082 C 0.43069 0.85781 0.43271 0.0
C2083 C 0.37069 0.83644 0.43656 0.0
N2084 N 0.43531 0.8528 0.48672 0.0
N2085 N 0.37057 0.8291 0.38242 0.0
H2086 H 0.32895 0.83011 0.45895 0.0
H2087 H 0.32604 0.83071 0.42001 0.0
H2088 H 0.37931 0.83227 0.36088 0.0
H2089 H 0.35025 0.81744 0.38252 0.0
H2090 H 0.45851 0.85635 0.48636 0.0
H2091 H 0.42686 0.84852 0.50815 0.0
H2092 H 0.46707 0.88397 0.44926 0.0
H2093 H 0.46859 0.8772 0.41077 0.0
C2094 C 0.15901 0.43404 0.43143 0.0
C2095 C 0.15823 0.4178 0.40399 0.0
C2096 C 0.16807 0.37073 0.43121 0.0
C2097 C 0.16881 0.38702 0.45873 0.0
N2098 N 0.16142 0.43347 0.48586 0.0
N2099 N 0.15587 0.37049 0.37786 0.0
C2100 C 0.16322 0.41849 0.45903 0.0
C2101 C 0.16081 0.38603 0.40396 0.0
N2102 N 0.15647 0.46457 0.43093 0.0
N2103 N 0.17613 0.34108 0.43086 0.0
H2104 H 0.15082 0.38108 0.35753 0.0
H2105 H 0.15426 0.34719 0.37676 0.0
H2106 H 0.18182 0.32923 0.45025 0.0
H2107 H 0.17944 0.32871 0.41125 0.0
H2108 H 0.16118 0.47862 0.44906 0.0
H2109 H 0.15042 0.47601 0.41156 0.0
H2110 H 0.15367 0.45542 0.48817 0.0
H2111 H 0.16607 0.42344 0.50648 0.0
C2112 C 0.59735 0.61333 0.84692 0.0
C2113 C 0.59728 0.58145 0.84836 0.0
C2114 C 0.54189 0.58147 0.84715 0.0
C2115 C 0.54209 0.61297 0.84199 0.0
N2116 N 0.56983 0.65913 0.83564 0.0
N2117 N 0.56991 0.53487 0.85012 0.0
C2118 C 0.56976 0.62907 0.84195 0.0
C2119 C 0.56961 0.56549 0.84888 0.0
N2120 N 0.6238 0.62856 0.85097 0.0
N2121 N 0.51501 0.56695 0.851 0.0
H2122 H 0.58962 0.52286 0.85356 0.0
H2123 H 0.55117 0.52132 0.84649 0.0
H2124 H 0.49429 0.57778 0.84912 0.0
H2125 H 0.51302 0.5448 0.8582 0.0
H2126 H 0.62513 0.65178 0.85344 0.0
H2127 H 0.64439 0.61775 0.85434 0.0
H2128 H 0.58927 0.67142 0.83122 0.0
H2129 H 0.5502 0.67171 0.83314 0.0
C2130 C 0.42177 0.57935 0.86707 0.0
C2131 C 0.41669 0.60381 0.84692 0.0
C2132 C 0.37984 0.57311 0.81944 0.0
C2133 C 0.38467 0.54916 0.8399 0.0
N2134 N 0.40101 0.53416 0.88928 0.0
N2135 N 0.38196 0.62681 0.81173 0.0
C2136 C 0.40254 0.55384 0.86579 0.0
C2137 C 0.39312 0.60158 0.82529 0.0
N2138 N 0.44582 0.57931 0.88628 0.0
N2139 N 0.3624 0.56874 0.79448 0.0
H2140 H 0.38879 0.64845 0.81755 0.0
H2141 H 0.36317 0.6266 0.79769 0.0
H2142 H 0.3503 0.54899 0.7907 0.0
H2143 H 0.36117 0.5842 0.77691 0.0
H2144 H 0.45193 0.56056 0.89893 0.0
H2145 H 0.4618 0.59635 0.88724 0.0
H2146 H 0.41176 0.53787 0.9098 0.0
H2147 H 0.386 0.51616 0.88953 0.0
C2148 C 0.43391 0.43963 0.85126 0.0
C2149 C 0.40657 0.42381 0.84662 0.0
C2150 C 0.43507 0.37694 0.83903 0.0
C2151 C 0.46239 0.39359 0.8399 0.0
N2152 N 0.48812 0.44112 0.845 0.0
N2153 N 0.38044 0.37772 0.83531 0.0
C2154 C 0.46188 0.42502 0.84566 0.0
C2155 C 0.40697 0.39249 0.84045 0.0
N2156 N 0.43311 0.46863 0.86126 0.0
N2157 N 0.43592 0.3463 0.83681 0.0
H2158 H 0.35939 0.38781 0.83802 0.0
H2159 H 0.37909 0.35595 0.82688 0.0
H2160 H 0.45582 0.3341 0.83455 0.0
H2161 H 0.41713 0.33256 0.83933 0.0
H2162 H 0.452 0.48056 0.86831 0.0
H2163 H 0.41302 0.48004 0.86484 0.0
H2164 H 0.489 0.46449 0.84513 0.0
H2165 H 0.50923 0.43119 0.84252 0.0
C2166 C 0.61299 0.40283 0.82622 0.0
C2167 C 0.58819 0.40134 0.84646 0.0
C2168 C 0.60051 0.45214 0.86412 0.0
C2169 C 0.62036 0.45574 0.83949 0.0
N2170 N 0.64574 0.43461 0.79645 0.0
N2171 N 0.55601 0.42703 0.8824 0.0
C2172 C 0.62667 0.43108 0.82032 0.0
C2173 C 0.58148 0.42652 0.86512 0.0
N2174 N 0.62465 0.37715 0.81397 0.0
N2175 N 0.59983 0.47304 0.88662 0.0
H2176 H 0.54018 0.4098 0.8827 0.0
H2177 H 0.54873 0.44617 0.89382 0.0
H2178 H 0.61422 0.49153 0.88707 0.0
H2179 H 0.58757 0.47015 0.9064 0.0
H2180 H 0.6443 0.37678 0.80116 0.0
H2181 H 0.61698 0.35574 0.8196 0.0
H2182 H 0.64826 0.41852 0.77958 0.0
H2183 H 0.65793 0.45431 0.79273 0.0
C2184 C 0.57088 0.37681 0.17297 0.0
C2185 C 0.54306 0.39256 0.17171 0.0
C2186 C 0.57017 0.44005 0.16365 0.0
C2187 C 0.59792 0.42418 0.16424 0.0
N2188 N 0.62475 0.37711 0.16349 0.0
N2189 N 0.51554 0.43853 0.16324 0.0
C2190 C 0.59827 0.39242 0.16711 0.0
C2191 C 0.54256 0.42403 0.16629 0.0
N2192 N 0.57127 0.34732 0.18154 0.0
N2193 N 0.57033 0.47063 0.16142 0.0
H2194 H 0.49491 0.42803 0.16685 0.0
H2195 H 0.51319 0.4605 0.15561 0.0
H2196 H 0.5899 0.4826 0.15723 0.0
H2197 H 0.55162 0.4843 0.16486 0.0
H2198 H 0.59088 0.3354 0.18631 0.0
H2199 H 0.55173 0.3353 0.18635 0.0
H2200 H 0.6261 0.3538 0.16194 0.0
H2201 H 0.64527 0.3878 0.15946 0.0
C2202 C 0.60046 0.55317 0.1477 0.0
C2203 C 0.61943 0.54908 0.17299 0.0
C2204 C 0.61087 0.60161 0.1873 0.0
C2205 C 0.5868 0.60348 0.16622 0.0
N2206 N 0.55655 0.57834 0.12814 0.0
N2207 N 0.64227 0.56935 0.21793 0.0
C2208 C 0.58116 0.57866 0.14665 0.0
C2209 C 0.62439 0.57327 0.19319 0.0
N2210 N 0.60079 0.53293 0.12459 0.0
N2211 N 0.62239 0.62706 0.20013 0.0
H2212 H 0.65444 0.5497 0.22193 0.0
H2213 H 0.64364 0.58508 0.23527 0.0
H2214 H 0.61547 0.64862 0.19416 0.0
H2215 H 0.64158 0.62704 0.21364 0.0
H2216 H 0.58951 0.53649 0.10433 0.0
H2217 H 0.61496 0.51428 0.12417 0.0
H2218 H 0.54989 0.55934 0.11615 0.0
H2219 H 0.54062 0.59545 0.12722 0.0
C2220 C 0.46351 0.58295 0.1654 0.0
C2221 C 0.46276 0.61453 0.17018 0.0
C2222 C 0.40794 0.61453 0.162 0.0
C2223 C 0.40834 0.58269 0.16074 0.0
N2224 N 0.436 0.53625 0.16055 0.0
N2225 N 0.43417 0.66028 0.1759 0.0
C2226 C 0.43606 0.56686 0.16192 0.0
C2227 C 0.43499 0.6304 0.16882 0.0
N2228 N 0.49062 0.5684 0.16371 0.0
N2229 N 0.3817 0.62959 0.1562 0.0
H2230 H 0.45341 0.67256 0.18112 0.0
H2231 H 0.41434 0.67243 0.17883 0.0
H2232 H 0.36151 0.6186 0.15134 0.0
H2233 H 0.3804 0.6528 0.15361 0.0
H2234 H 0.49321 0.54623 0.1567 0.0
H2235 H 0.51113 0.57904 0.16757 0.0
H2236 H 0.45444 0.5227 0.16554 0.0
H2237 H 0.41671 0.52428 0.15524 0.0
C2238 C 0.42624 0.42772 0.14465 0.0
C2239 C 0.42025 0.40246 0.16349 0.0
C2240 C 0.38389 0.43283 0.19199 0.0
C2241 C 0.389 0.45733 0.17227 0.0
N2242 N 0.40657 0.47374 0.12353 0.0
N2243 N 0.38466 0.37885 0.19739 0.0
C2244 C 0.40729 0.45336 0.14648 0.0
C2245 C 0.39661 0.40434 0.18508 0.0
N2246 N 0.45085 0.42834 0.12617 0.0
N2247 N 0.36643 0.43653 0.21705 0.0
H2248 H 0.39079 0.35729 0.19058 0.0
H2249 H 0.36578 0.37899 0.21132 0.0
H2250 H 0.35454 0.45626 0.22154 0.0
H2251 H 0.36504 0.42047 0.23406 0.0
H2252 H 0.45751 0.44759 0.11459 0.0
H2253 H 0.46692 0.41137 0.1251 0.0
H2254 H 0.41748 0.47023 0.10305 0.0
H2255 H 0.3923 0.49232 0.12339 0.0
C2256 C 0.82735 0.57777 0.63089 0.0
C2257 C 0.84139 0.55106 0.62084 0.0
C2258 C 0.86463 0.57808 0.57892 0.0
C2259 C 0.84879 0.6046 0.58767 0.0
N2260 N 0.8248 0.63207 0.62804 0.0
N2261 N 0.88195 0.52829 0.59318 0.0
C2262 C 0.83287 0.60519 0.61545 0.0
C2263 C 0.86291 0.55206 0.59742 0.0
N2264 N 0.80913 0.57686 0.65558 0.0
N2265 N 0.88004 0.577 0.5523 0.0
H2266 H 0.88169 0.50938 0.60702 0.0
H2267 H 0.9001 0.52864 0.57835 0.0
H2268 H 0.88163 0.59496 0.53743 0.0
H2269 H 0.88895 0.55729 0.54333 0.0
H2270 H 0.79464 0.5942 0.66179 0.0
H2271 H 0.80862 0.5582 0.66974 0.0
H2272 H 0.81527 0.63414 0.64934 0.0
H2273 H 0.8307 0.65275 0.61875 0.0
C2274 C 0.86124 0.4528 0.40493 0.0
C2275 C 0.8362 0.45707 0.38564 0.0
C2276 C 0.82233 0.40423 0.3926 0.0
C2277 C 0.84313 0.40201 0.41685 0.0
N2278 N 0.88035 0.42666 0.44844 0.0
N2279 N 0.79193 0.43693 0.36139 0.0
C2280 C 0.86232 0.42683 0.42349 0.0
C2281 C 0.81639 0.4328 0.37963 0.0
N2282 N 0.88404 0.47338 0.4056 0.0
N2283 N 0.8097 0.37893 0.38053 0.0
H2284 H 0.78796 0.45685 0.34969 0.0
H2285 H 0.77478 0.42109 0.35924 0.0
H2286 H 0.81553 0.35729 0.38735 0.0
H2287 H 0.79646 0.37917 0.36118 0.0
H2288 H 0.90414 0.46985 0.41719 0.0
H2289 H 0.88441 0.49237 0.39192 0.0
H2290 H 0.89213 0.44553 0.45579 0.0
H2291 H 0.88095 0.40918 0.46396 0.0
C2292 C 0.53877 0.82877 0.42488 0.0
C2293 C 0.53709 0.83407 0.39339 0.0
C2294 C 0.59118 0.84661 0.39336 0.0
C2295 C 0.59331 0.8376 0.42399 0.0
N2296 N 0.56967 0.81468 0.467 0.0
N2297 N 0.5632 0.84347 0.34658 0.0
C2298 C 0.56726 0.8271 0.43912 0.0
C2299 C 0.56364 0.84208 0.3773 0.0
N2300 N 0.51303 0.82614 0.44159 0.0
N2301 N 0.61553 0.85922 0.37942 0.0
H2302 H 0.54389 0.83983 0.33378 0.0
H2303 H 0.58255 0.84566 0.33352 0.0
H2304 H 0.63662 0.86106 0.3896 0.0
H2305 H 0.61432 0.86958 0.35844 0.0
H2306 H 0.51292 0.82607 0.46504 0.0
H2307 H 0.49151 0.82702 0.43236 0.0
H2308 H 0.55217 0.80337 0.47775 0.0
H2309 H 0.59007 0.8133 0.47805 0.0
C2310 C 0.14272 0.57496 0.42377 0.0
C2311 C 0.16095 0.60002 0.41584 0.0
C2312 C 0.18544 0.56944 0.37685 0.0
C2313 C 0.16633 0.54499 0.38421 0.0
N2314 N 0.11979 0.52864 0.40686 0.0
N2315 N 0.19231 0.62336 0.37796 0.0
C2316 C 0.1426 0.54911 0.40504 0.0
C2317 C 0.18027 0.59797 0.39037 0.0
N2318 N 0.12696 0.57483 0.45013 0.0
N2319 N 0.20848 0.56549 0.35683 0.0
H2320 H 0.18727 0.64492 0.38564 0.0
H2321 H 0.20436 0.62335 0.35784 0.0
H2322 H 0.21148 0.54567 0.3446 0.0
H2323 H 0.22541 0.58136 0.35349 0.0
H2324 H 0.11583 0.55589 0.45828 0.0
H2325 H 0.12788 0.5924 0.46548 0.0
H2326 H 0.10072 0.53192 0.42015 0.0
H2327 H 0.11812 0.51036 0.3923 0.0
C2328 C 0.46812 0.16749 0.42039 0.0
C2329 C 0.46842 0.16543 0.38853 0.0
C2330 C 0.41378 0.15566 0.38921 0.0
C2331 C 0.41312 0.16188 0.4206 0.0
N2332 N 0.4394 0.17851 0.46497 0.0
N2333 N 0.4407 0.16084 0.34196 0.0
C2334 C 0.44024 0.16907 0.43584 0.0
C2335 C 0.44107 0.16003 0.3727 0.0
N2336 N 0.49462 0.16727 0.43608 0.0
N2337 N 0.38831 0.14568 0.37511 0.0
H2338 H 0.45999 0.16375 0.32897 0.0
H2339 H 0.42096 0.16081 0.3293 0.0
H2340 H 0.36759 0.14379 0.38599 0.0
H2341 H 0.38817 0.13738 0.3532 0.0
H2342 H 0.49575 0.16521 0.45941 0.0
H2343 H 0.51562 0.16613 0.42568 0.0
H2344 H 0.45788 0.18744 0.47633 0.0
H2345 H 0.41942 0.1799 0.47679 0.0
C2346 C 0.17926 0.42853 0.62459 0.0
C2347 C 0.16313 0.45414 0.61477 0.0
C2348 C 0.14059 0.42511 0.5738 0.0
C2349 C 0.15823 0.39967 0.5824 0.0
N2350 N 0.18494 0.37444 0.62256 0.0
N2351 N 0.12023 0.47359 0.58862 0.0
C2352 C 0.17498 0.40055 0.60971 0.0
C2353 C 0.14114 0.45139 0.59204 0.0
N2354 N 0.19827 0.431 0.64857 0.0
N2355 N 0.12427 0.42487 0.54771 0.0
H2356 H 0.11918 0.49166 0.60347 0.0
H2357 H 0.10188 0.47218 0.57409 0.0
H2358 H 0.12324 0.40662 0.53313 0.0
H2359 H 0.11389 0.44391 0.53887 0.0
H2360 H 0.21406 0.4147 0.65444 0.0
H2361 H 0.19819 0.44993 0.66239 0.0
H2362 H 0.19514 0.3734 0.64362 0.0
H2363 H 0.17994 0.35325 0.6139 0.0
C2364 C 0.57778 0.14006 0.57989 0.0
C2365 C 0.60332 0.15867 0.58521 0.0
C2366 C 0.57528 0.18491 0.62496 0.0
C2367 C 0.55042 0.16558 0.62009 0.0
N2368 N 0.53284 0.11798 0.60129 0.0
N2369 N 0.62924 0.19079 0.62086 0.0
C2370 C 0.5533 0.14082 0.60039 0.0
C2371 C 0.60299 0.17885 0.61011 0.0
N2372 N 0.57574 0.12311 0.55437 0.0
N2373 N 0.5725 0.20902 0.64381 0.0
H2374 H 0.65037 0.18469 0.61267 0.0
H2375 H 0.63034 0.20366 0.64042 0.0
H2376 H 0.55321 0.21293 0.65668 0.0
H2377 H 0.58873 0.22586 0.64541 0.0
H2378 H 0.55624 0.11157 0.54828 0.0
H2379 H 0.59204 0.12331 0.53763 0.0
H2380 H 0.53531 0.09822 0.58892 0.0
H2381 H 0.51542 0.11735 0.61703 0.0
C2382 C 0.43206 0.81691 0.62673 0.0
C2383 C 0.45592 0.83728 0.62102 0.0
C2384 C 0.42496 0.86348 0.5838 0.0
C2385 C 0.40059 0.84357 0.58996 0.0
N2386 N 0.37825 0.80877 0.62533 0.0
N2387 N 0.47108 0.88582 0.6024 0.0
C2388 C 0.40332 0.82235 0.61375 0.0
C2389 C 0.45105 0.86255 0.60231 0.0
N2390 N 0.43674 0.79247 0.64476 0.0
N2391 N 0.42421 0.88212 0.55938 0.0
H2392 H 0.48976 0.8864 0.61659 0.0
H2393 H 0.46722 0.90599 0.59112 0.0
H2394 H 0.40642 0.8829 0.54415 0.0
H2395 H 0.4428 0.89452 0.55229 0.0
H2396 H 0.42134 0.77491 0.64665 0.0
H2397 H 0.45672 0.78899 0.65665 0.0
H2398 H 0.37872 0.79514 0.64437 0.0
H2399 H 0.35644 0.81407 0.61842 0.0
loop_
_geom_bond_atom_site_label_1
_geom_bond_atom_site_label_2
_geom_bond_distance
_geom_bond_site_symmetry_2
_ccdc_geom_bond_type
Co0 O1 2.216 . S
Co0 O2 2.091 . S
Co0 O4 2.004 1_455 S
Co0 O10 2.021 . S
Co0 O12 2.137 . S
Co0 O13 2.244 . S
O1 Co0 2.216 . S
O1 C8 1.247 . S
O2 Co0 2.091 . S
O2 C8 1.261 . S
C3 O12 1.247 . S
C3 O13 1.272 . S
O4 Co0 2.004 1_655 S
O4 C9 1.259 . S
Co5 O6 2.061 1_455 S
Co5 O11 2.052 . S
Co5 O13 2.135 . S
O6 Co5 2.061 1_655 S
O6 C9 1.235 . S
C7 O10 1.238 . S
C7 O11 1.241 . S
C8 O1 1.247 . S
C8 O2 1.261 . S
C9 O4 1.259 . S
C9 O6 1.235 . S
O10 Co0 2.021 . S
O10 C7 1.238 . S
O11 Co5 2.052 . S
O11 C7 1.241 . S
O12 Co0 2.137 . S
O12 C3 1.247 . S
O13 Co0 2.244 . S
O13 C3 1.272 . S
O13 Co5 2.135 . S
Co14 O15 2.216 . S
Co14 O16 2.091 . S
Co14 O18 2.004 1_545 S
Co14 O24 2.021 . S
Co14 O26 2.137 . S
Co14 O27 2.244 . S
O15 Co14 2.216 . S
O15 C22 1.247 . S
O16 Co14 2.091 . S
O16 C22 1.261 . S
C17 O26 1.247 . S
C17 O27 1.272 . S
O18 Co14 2.004 1_565 S
O18 C23 1.259 . S
Co19 O20 2.061 1_545 S
Co19 O25 2.052 . S
Co19 O27 2.135 . S
O20 Co19 2.061 1_565 S
O20 C23 1.235 . S
C21 O24 1.238 . S
C21 O25 1.241 . S
C22 O15 1.247 . S
C22 O16 1.261 . S
C23 O18 1.259 . S
C23 O20 1.235 . S
O24 Co14 2.021 . S
O24 C21 1.238 . S
O25 Co19 2.052 . S
O25 C21 1.241 . S
O26 Co14 2.137 . S
O26 C17 1.247 . S
O27 Co14 2.244 . S
O27 C17 1.272 . S
O27 Co19 2.135 . S
Co28 O29 2.216 . S
Co28 O30 2.091 . S
Co28 O32 2.004 1_655 S
Co28 O38 2.021 . S
Co28 O40 2.137 . S
Co28 O41 2.244 . S
O29 Co28 2.216 . S
O29 C36 1.247 . S
O30 Co28 2.091 . S
O30 C36 1.261 . S
C31 O40 1.247 . S
C31 O41 1.272 . S
O32 Co28 2.004 1_455 S
O32 C37 1.259 . S
Co33 O34 2.061 1_655 S
Co33 O39 2.052 . S
Co33 O41 2.135 . S
O34 Co33 2.061 1_455 S
O34 C37 1.235 . S
C35 O38 1.238 . S
C35 O39 1.241 . S
C36 O29 1.247 . S
C36 O30 1.261 . S
C37 O32 1.259 . S
C37 O34 1.235 . S
O38 Co28 2.021 . S
O38 C35 1.238 . S
O39 Co33 2.052 . S
O39 C35 1.241 . S
O40 Co28 2.137 . S
O40 C31 1.247 . S
O41 Co28 2.244 . S
O41 C31 1.272 . S
O41 Co33 2.135 . S
Co42 O43 2.216 . S
Co42 O44 2.091 . S
Co42 O46 2.004 1_565 S
Co42 O52 2.021 . S
Co42 O54 2.137 . S
Co42 O55 2.244 . S
O43 Co42 2.216 . S
O43 C50 1.247 . S
O44 Co42 2.091 . S
O44 C50 1.261 . S
C45 O54 1.247 . S
C45 O55 1.272 . S
O46 Co42 2.004 1_545 S
O46 C51 1.259 . S
Co47 O48 2.061 1_565 S
Co47 O53 2.052 . S
Co47 O55 2.135 . S
O48 Co47 2.061 1_545 S
O48 C51 1.235 . S
C49 O52 1.238 . S
C49 O53 1.241 . S
C50 O43 1.247 . S
C50 O44 1.261 . S
C51 O46 1.259 . S
C51 O48 1.235 . S
O52 Co42 2.021 . S
O52 C49 1.238 . S
O53 Co47 2.052 . S
O53 C49 1.241 . S
O54 Co42 2.137 . S
O54 C45 1.247 . S
O55 Co42 2.244 . S
O55 C45 1.272 . S
O55 Co47 2.135 . S
Co56 O57 2.216 . S
Co56 O58 2.091 . S
Co56 O60 2.004 1_455 S
Co56 O66 2.021 . S
Co56 O68 2.137 . S
Co56 O69 2.244 . S
O57 Co56 2.216 . S
O57 C64 1.247 . S
O58 Co56 2.091 . S
O58 C64 1.261 . S
C59 O68 1.247 . S
C59 O69 1.272 . S
O60 Co56 2.004 1_655 S
O60 C65 1.259 . S
Co61 O62 2.061 1_455 S
Co61 O67 2.052 . S
Co61 O69 2.135 . S
O62 Co61 2.061 1_655 S
O62 C65 1.235 . S
C63 O66 1.238 . S
C63 O67 1.241 . S
C64 O57 1.247 . S
C64 O58 1.261 . S
C65 O60 1.259 . S
C65 O62 1.235 . S
O66 Co56 2.021 . S
O66 C63 1.238 . S
O67 Co61 2.052 . S
O67 C63 1.241 . S
O68 Co56 2.137 . S
O68 C59 1.247 . S
O69 Co56 2.244 . S
O69 C59 1.272 . S
O69 Co61 2.135 . S
Co70 O71 2.216 . S
Co70 O72 2.091 . S
Co70 O74 2.004 1_545 S
Co70 O80 2.021 . S
Co70 O82 2.137 . S
Co70 O83 2.244 . S
O71 Co70 2.216 . S
O71 C78 1.247 . S
O72 Co70 2.091 . S
O72 C78 1.261 . S
C73 O82 1.247 . S
C73 O83 1.272 . S
O74 Co70 2.004 1_565 S
O74 C79 1.259 . S
Co75 O76 2.061 1_545 S
Co75 O81 2.052 . S
Co75 O83 2.135 . S
O76 Co75 2.061 1_565 S
O76 C79 1.235 . S
C77 O80 1.238 . S
C77 O81 1.241 . S
C78 O71 1.247 . S
C78 O72 1.261 . S
C79 O74 1.259 . S
C79 O76 1.235 . S
O80 Co70 2.021 . S
O80 C77 1.238 . S
O81 Co75 2.052 . S
O81 C77 1.241 . S
O82 Co70 2.137 . S
O82 C73 1.247 . S
O83 Co70 2.244 . S
O83 C73 1.272 . S
O83 Co75 2.135 . S
Co84 O85 2.216 . S
Co84 O86 2.091 . S
Co84 O88 2.004 1_655 S
Co84 O94 2.021 . S
Co84 O96 2.137 . S
Co84 O97 2.244 . S
O85 Co84 2.216 . S
O85 C92 1.247 . S
O86 Co84 2.091 . S
O86 C92 1.261 . S
C87 O96 1.247 . S
C87 O97 1.272 . S
O88 Co84 2.004 1_455 S
O88 C93 1.259 . S
Co89 O90 2.061 1_655 S
Co89 O95 2.052 . S
Co89 O97 2.135 . S
O90 Co89 2.061 1_455 S
O90 C93 1.235 . S
C91 O94 1.238 . S
C91 O95 1.241 . S
C92 O85 1.247 . S
C92 O86 1.261 . S
C93 O88 1.259 . S
C93 O90 1.235 . S
O94 Co84 2.021 . S
O94 C91 1.238 . S
O95 Co89 2.052 . S
O95 C91 1.241 . S
O96 Co84 2.137 . S
O96 C87 1.247 . S
O97 Co84 2.244 . S
O97 C87 1.272 . S
O97 Co89 2.135 . S
Co98 O99 2.216 . S
Co98 O100 2.091 . S
Co98 O102 2.004 1_565 S
Co98 O108 2.021 . S
Co98 O110 2.137 . S
Co98 O111 2.244 . S
O99 Co98 2.216 . S
O99 C106 1.247 . S
O100 Co98 2.091 . S
O100 C106 1.261 . S
C101 O110 1.247 . S
C101 O111 1.272 . S
O102 Co98 2.004 1_545 S
O102 C107 1.259 . S
Co103 O104 2.061 1_565 S
Co103 O109 2.052 . S
Co103 O111 2.135 . S
O104 Co103 2.061 1_545 S
O104 C107 1.235 . S
C105 O108 1.238 . S
C105 O109 1.241 . S
C106 O99 1.247 . S
C106 O100 1.261 . S
C107 O102 1.259 . S
C107 O104 1.235 . S
O108 Co98 2.021 . S
O108 C105 1.238 . S
O109 Co103 2.052 . S
O109 C105 1.241 . S
O110 Co98 2.137 . S
O110 C101 1.247 . S
O111 Co98 2.244 . S
O111 C101 1.272 . S
O111 Co103 2.135 . S
Co112 O113 2.216 . S
Co112 O114 2.091 . S
Co112 O116 2.004 1_545 S
Co112 O122 2.021 . S
Co112 O124 2.137 . S
Co112 O125 2.244 . S
O113 Co112 2.216 . S
O113 C120 1.247 . S
O114 Co112 2.091 . S
O114 C120 1.261 . S
C115 O124 1.247 . S
C115 O125 1.272 . S
O116 Co112 2.004 1_565 S
O116 C121 1.259 . S
Co117 O118 2.061 1_545 S
Co117 O123 2.052 . S
Co117 O125 2.135 . S
O118 Co117 2.061 1_565 S
O118 C121 1.235 . S
C119 O122 1.238 . S
C119 O123 1.241 . S
C120 O113 1.247 . S
C120 O114 1.261 . S
C121 O116 1.259 . S
C121 O118 1.235 . S
O122 Co112 2.021 . S
O122 C119 1.238 . S
O123 Co117 2.052 . S
O123 C119 1.241 . S
O124 Co112 2.137 . S
O124 C115 1.247 . S
O125 Co112 2.244 . S
O125 C115 1.272 . S
O125 Co117 2.135 . S
Co126 O127 2.216 . S
Co126 O128 2.091 . S
Co126 O130 2.004 1_655 S
Co126 O136 2.021 . S
Co126 O138 2.137 . S
Co126 O139 2.244 . S
O127 Co126 2.216 . S
O127 C134 1.247 . S
O128 Co126 2.091 . S
O128 C134 1.261 . S
C129 O138 1.247 . S
C129 O139 1.272 . S
O130 Co126 2.004 1_455 S
O130 C135 1.259 . S
Co131 O132 2.061 1_655 S
Co131 O137 2.052 . S
Co131 O139 2.135 . S
O132 Co131 2.061 1_455 S
O132 C135 1.235 . S
C133 O136 1.238 . S
C133 O137 1.241 . S
C134 O127 1.247 . S
C134 O128 1.261 . S
C135 O130 1.259 . S
C135 O132 1.235 . S
O136 Co126 2.021 . S
O136 C133 1.238 . S
O137 Co131 2.052 . S
O137 C133 1.241 . S
O138 Co126 2.137 . S
O138 C129 1.247 . S
O139 Co126 2.244 . S
O139 C129 1.272 . S
O139 Co131 2.135 . S
Co140 O141 2.216 . S
Co140 O142 2.091 . S
Co140 O144 2.004 1_565 S
Co140 O150 2.021 . S
Co140 O152 2.137 . S
Co140 O153 2.244 . S
O141 Co140 2.216 . S
O141 C148 1.247 . S
O142 Co140 2.091 . S
O142 C148 1.261 . S
C143 O152 1.247 . S
C143 O153 1.272 . S
O144 Co140 2.004 1_545 S
O144 C149 1.259 . S
Co145 O146 2.061 1_565 S
Co145 O151 2.052 . S
Co145 O153 2.135 . S
O146 Co145 2.061 1_545 S
O146 C149 1.235 . S
C147 O150 1.238 . S
C147 O151 1.241 . S
C148 O141 1.247 . S
C148 O142 1.261 . S
C149 O144 1.259 . S
C149 O146 1.235 . S
O150 Co140 2.021 . S
O150 C147 1.238 . S
O151 Co145 2.052 . S
O151 C147 1.241 . S
O152 Co140 2.137 . S
O152 C143 1.247 . S
O153 Co140 2.244 . S
O153 C143 1.272 . S
O153 Co145 2.135 . S
Co154 O155 2.216 . S
Co154 O156 2.091 . S
Co154 O158 2.004 1_455 S
Co154 O164 2.021 . S
Co154 O166 2.137 . S
Co154 O167 2.244 . S
O155 Co154 2.216 . S
O155 C162 1.247 . S
O156 Co154 2.091 . S
O156 C162 1.261 . S
C157 O166 1.247 . S
C157 O167 1.272 . S
O158 Co154 2.004 1_655 S
O158 C163 1.259 . S
Co159 O160 2.061 1_455 S
Co159 O165 2.052 . S
Co159 O167 2.135 . S
O160 Co159 2.061 1_655 S
O160 C163 1.235 . S
C161 O164 1.238 . S
C161 O165 1.241 . S
C162 O155 1.247 . S
C162 O156 1.261 . S
C163 O158 1.259 . S
C163 O160 1.235 . S
O164 Co154 2.021 . S
O164 C161 1.238 . S
O165 Co159 2.052 . S
O165 C161 1.241 . S
O166 Co154 2.137 . S
O166 C157 1.247 . S
O167 Co154 2.244 . S
O167 C157 1.272 . S
O167 Co159 2.135 . S
Co168 O169 2.216 . S
Co168 O170 2.091 . S
Co168 O172 2.004 1_565 S
Co168 O178 2.021 . S
Co168 O180 2.137 . S
Co168 O181 2.244 . S
O169 Co168 2.216 . S
O169 C176 1.247 . S
O170 Co168 2.091 . S
O170 C176 1.261 . S
C171 O180 1.247 . S
C171 O181 1.272 . S
O172 Co168 2.004 1_545 S
O172 C177 1.259 . S
Co173 O174 2.061 1_565 S
Co173 O179 2.052 . S
Co173 O181 2.135 . S
O174 Co173 2.061 1_545 S
O174 C177 1.235 . S
C175 O178 1.238 . S
C175 O179 1.241 . S
C176 O169 1.247 . S
C176 O170 1.261 . S
C177 O172 1.259 . S
C177 O174 1.235 . S
O178 Co168 2.021 . S
O178 C175 1.238 . S
O179 Co173 2.052 . S
O179 C175 1.241 . S
O180 Co168 2.137 . S
O180 C171 1.247 . S
O181 Co168 2.244 . S
O181 C171 1.272 . S
O181 Co173 2.135 . S
Co182 O183 2.216 . S
Co182 O184 2.091 . S
Co182 O186 2.004 1_455 S
Co182 O192 2.021 . S
Co182 O194 2.137 . S
Co182 O195 2.244 . S
O183 Co182 2.216 . S
O183 C190 1.247 . S
O184 Co182 2.091 . S
O184 C190 1.261 . S
C185 O194 1.247 . S
C185 O195 1.272 . S
O186 Co182 2.004 1_655 S
O186 C191 1.259 . S
Co187 O188 2.061 1_455 S
Co187 O193 2.052 . S
Co187 O195 2.135 . S
O188 Co187 2.061 1_655 S
O188 C191 1.235 . S
C189 O192 1.238 . S
C189 O193 1.241 . S
C190 O183 1.247 . S
C190 O184 1.261 . S
C191 O186 1.259 . S
C191 O188 1.235 . S
O192 Co182 2.021 . S
O192 C189 1.238 . S
O193 Co187 2.052 . S
O193 C189 1.241 . S
O194 Co182 2.137 . S
O194 C185 1.247 . S
O195 Co182 2.244 . S
O195 C185 1.272 . S
O195 Co187 2.135 . S
Co196 O197 2.216 . S
Co196 O198 2.091 . S
Co196 O200 2.004 1_545 S
Co196 O206 2.021 . S
Co196 O208 2.137 . S
Co196 O209 2.244 . S
O197 Co196 2.216 . S
O197 C204 1.247 . S
O198 Co196 2.091 . S
O198 C204 1.261 . S
C199 O208 1.247 . S
C199 O209 1.272 . S
O200 Co196 2.004 1_565 S
O200 C205 1.259 . S
Co201 O202 2.061 1_545 S
Co201 O207 2.052 . S
Co201 O209 2.135 . S
O202 Co201 2.061 1_565 S
O202 C205 1.235 . S
C203 O206 1.238 . S
C203 O207 1.241 . S
C204 O197 1.247 . S
C204 O198 1.261 . S
C205 O200 1.259 . S
C205 O202 1.235 . S
O206 Co196 2.021 . S
O206 C203 1.238 . S
O207 Co201 2.052 . S
O207 C203 1.241 . S
O208 Co196 2.137 . S
O208 C199 1.247 . S
O209 Co196 2.244 . S
O209 C199 1.272 . S
O209 Co201 2.135 . S
Co210 O211 2.216 . S
Co210 O212 2.091 . S
Co210 O214 2.004 1_655 S
Co210 O220 2.021 . S
Co210 O222 2.137 . S
Co210 O223 2.244 . S
O211 Co210 2.216 . S
O211 C218 1.247 . S
O212 Co210 2.091 . S
O212 C218 1.261 . S
C213 O222 1.247 . S
C213 O223 1.272 . S
O214 Co210 2.004 1_455 S
O214 C219 1.259 . S
Co215 O216 2.061 1_655 S
Co215 O221 2.052 . S
Co215 O223 2.135 . S
O216 Co215 2.061 1_455 S
O216 C219 1.235 . S
C217 O220 1.238 . S
C217 O221 1.241 . S
C218 O211 1.247 . S
C218 O212 1.261 . S
C219 O214 1.259 . S
C219 O216 1.235 . S
O220 Co210 2.021 . S
O220 C217 1.238 . S
O221 Co215 2.052 . S
O221 C217 1.241 . S
O222 Co210 2.137 . S
O222 C213 1.247 . S
O223 Co210 2.244 . S
O223 C213 1.272 . S
O223 Co215 2.135 . S
Co224 O225 2.216 . S
Co224 O226 2.091 . S
Co224 O228 2.004 1_554 S
Co224 O234 2.021 . S
Co224 O236 2.137 . S
Co224 O237 2.244 . S
O225 Co224 2.216 . S
O225 C232 1.247 . S
O226 Co224 2.091 . S
O226 C232 1.261 . S
C227 O236 1.247 . S
C227 O237 1.272 . S
O228 Co224 2.004 1_556 S
O228 C233 1.259 . S
Co229 O230 2.061 1_554 S
Co229 O235 2.052 . S
Co229 O237 2.135 . S
O230 Co229 2.061 1_556 S
O230 C233 1.235 . S
C231 O234 1.238 . S
C231 O235 1.241 . S
C232 O225 1.247 . S
C232 O226 1.261 . S
C233 O228 1.259 . S
C233 O230 1.235 . S
O234 Co224 2.021 . S
O234 C231 1.238 . S
O235 Co229 2.052 . S
O235 C231 1.241 . S
O236 Co224 2.137 . S
O236 C227 1.247 . S
O237 Co224 2.244 . S
O237 C227 1.272 . S
O237 Co229 2.135 . S
Co238 O239 2.216 . S
Co238 O240 2.091 . S
Co238 O242 2.004 1_556 S
Co238 O248 2.021 . S
Co238 O250 2.137 . S
Co238 O251 2.244 . S
O239 Co238 2.216 . S
O239 C246 1.247 . S
O240 Co238 2.091 . S
O240 C246 1.261 . S
C241 O250 1.247 . S
C241 O251 1.272 . S
O242 Co238 2.004 1_554 S
O242 C247 1.259 . S
Co243 O244 2.061 1_556 S
Co243 O249 2.052 . S
Co243 O251 2.135 . S
O244 Co243 2.061 1_554 S
O244 C247 1.235 . S
C245 O248 1.238 . S
C245 O249 1.241 . S
C246 O239 1.247 . S
C246 O240 1.261 . S
C247 O242 1.259 . S
C247 O244 1.235 . S
O248 Co238 2.021 . S
O248 C245 1.238 . S
O249 Co243 2.052 . S
O249 C245 1.241 . S
O250 Co238 2.137 . S
O250 C241 1.247 . S
O251 Co238 2.244 . S
O251 C241 1.272 . S
O251 Co243 2.135 . S
Co252 O253 2.216 . S
Co252 O254 2.091 . S
Co252 O256 2.004 1_556 S
Co252 O262 2.021 . S
Co252 O264 2.137 . S
Co252 O265 2.244 . S
O253 Co252 2.216 . S
O253 C260 1.247 . S
O254 Co252 2.091 . S
O254 C260 1.261 . S
C255 O264 1.247 . S
C255 O265 1.272 . S
O256 Co252 2.004 1_554 S
O256 C261 1.259 . S
Co257 O258 2.061 1_556 S
Co257 O263 2.052 . S
Co257 O265 2.135 . S
O258 Co257 2.061 1_554 S
O258 C261 1.235 . S
C259 O262 1.238 . S
C259 O263 1.241 . S
C260 O253 1.247 . S
C260 O254 1.261 . S
C261 O256 1.259 . S
C261 O258 1.235 . S
O262 Co252 2.021 . S
O262 C259 1.238 . S
O263 Co257 2.052 . S
O263 C259 1.241 . S
O264 Co252 2.137 . S
O264 C255 1.247 . S
O265 Co252 2.244 . S
O265 C255 1.272 . S
O265 Co257 2.135 . S
Co266 O267 2.216 . S
Co266 O268 2.091 . S
Co266 O270 2.004 1_556 S
Co266 O276 2.021 . S
Co266 O278 2.137 . S
Co266 O279 2.244 . S
O267 Co266 2.216 . S
O267 C274 1.247 . S
O268 Co266 2.091 . S
O268 C274 1.261 . S
C269 O278 1.247 . S
C269 O279 1.272 . S
O270 Co266 2.004 1_554 S
O270 C275 1.259 . S
Co271 O272 2.061 1_556 S
Co271 O277 2.052 . S
Co271 O279 2.135 . S
O272 Co271 2.061 1_554 S
O272 C275 1.235 . S
C273 O276 1.238 . S
C273 O277 1.241 . S
C274 O267 1.247 . S
C274 O268 1.261 . S
C275 O270 1.259 . S
C275 O272 1.235 . S
O276 Co266 2.021 . S
O276 C273 1.238 . S
O277 Co271 2.052 . S
O277 C273 1.241 . S
O278 Co266 2.137 . S
O278 C269 1.247 . S
O279 Co266 2.244 . S
O279 C269 1.272 . S
O279 Co271 2.135 . S
Co280 O281 2.216 . S
Co280 O282 2.091 . S
Co280 O284 2.004 1_556 S
Co280 O290 2.021 . S
Co280 O292 2.137 . S
Co280 O293 2.244 . S
O281 Co280 2.216 . S
O281 C288 1.247 . S
O282 Co280 2.091 . S
O282 C288 1.261 . S
C283 O292 1.247 . S
C283 O293 1.272 . S
O284 Co280 2.004 1_554 S
O284 C289 1.259 . S
Co285 O286 2.061 1_556 S
Co285 O291 2.052 . S
Co285 O293 2.135 . S
O286 Co285 2.061 1_554 S
O286 C289 1.235 . S
C287 O290 1.238 . S
C287 O291 1.241 . S
C288 O281 1.247 . S
C288 O282 1.261 . S
C289 O284 1.259 . S
C289 O286 1.235 . S
O290 Co280 2.021 . S
O290 C287 1.238 . S
O291 Co285 2.052 . S
O291 C287 1.241 . S
O292 Co280 2.137 . S
O292 C283 1.247 . S
O293 Co280 2.244 . S
O293 C283 1.272 . S
O293 Co285 2.135 . S
Co294 O295 2.216 . S
Co294 O296 2.091 . S
Co294 O298 2.004 1_554 S
Co294 O304 2.021 . S
Co294 O306 2.137 . S
Co294 O307 2.244 . S
O295 Co294 2.216 . S
O295 C302 1.247 . S
O296 Co294 2.091 . S
O296 C302 1.261 . S
C297 O306 1.247 . S
C297 O307 1.272 . S
O298 Co294 2.004 1_556 S
O298 C303 1.259 . S
Co299 O300 2.061 1_554 S
Co299 O305 2.052 . S
Co299 O307 2.135 . S
O300 Co299 2.061 1_556 S
O300 C303 1.235 . S
C301 O304 1.238 . S
C301 O305 1.241 . S
C302 O295 1.247 . S
C302 O296 1.261 . S
C303 O298 1.259 . S
C303 O300 1.235 . S
O304 Co294 2.021 . S
O304 C301 1.238 . S
O305 Co299 2.052 . S
O305 C301 1.241 . S
O306 Co294 2.137 . S
O306 C297 1.247 . S
O307 Co294 2.244 . S
O307 C297 1.272 . S
O307 Co299 2.135 . S
Co308 O309 2.216 . S
Co308 O310 2.091 . S
Co308 O312 2.004 1_554 S
Co308 O318 2.021 . S
Co308 O320 2.137 . S
Co308 O321 2.244 . S
O309 Co308 2.216 . S
O309 C316 1.247 . S
O310 Co308 2.091 . S
O310 C316 1.261 . S
C311 O320 1.247 . S
C311 O321 1.272 . S
O312 Co308 2.004 1_556 S
O312 C317 1.259 . S
Co313 O314 2.061 1_554 S
Co313 O319 2.052 . S
Co313 O321 2.135 . S
O314 Co313 2.061 1_556 S
O314 C317 1.235 . S
C315 O318 1.238 . S
C315 O319 1.241 . S
C316 O309 1.247 . S
C316 O310 1.261 . S
C317 O312 1.259 . S
C317 O314 1.235 . S
O318 Co308 2.021 . S
O318 C315 1.238 . S
O319 Co313 2.052 . S
O319 C315 1.241 . S
O320 Co308 2.137 . S
O320 C311 1.247 . S
O321 Co308 2.244 . S
O321 C311 1.272 . S
O321 Co313 2.135 . S
Co322 O323 2.216 . S
Co322 O324 2.091 . S
Co322 O326 2.004 1_554 S
Co322 O332 2.021 . S
Co322 O334 2.137 . S
Co322 O335 2.244 . S
O323 Co322 2.216 . S
O323 C330 1.247 . S
O324 Co322 2.091 . S
O324 C330 1.261 . S
C325 O334 1.247 . S
C325 O335 1.272 . S
O326 Co322 2.004 1_556 S
O326 C331 1.259 . S
Co327 O328 2.061 1_554 S
Co327 O333 2.052 . S
Co327 O335 2.135 . S
O328 Co327 2.061 1_556 S
O328 C331 1.235 . S
C329 O332 1.238 . S
C329 O333 1.241 . S
C330 O323 1.247 . S
C330 O324 1.261 . S
C331 O326 1.259 . S
C331 O328 1.235 . S
O332 Co322 2.021 . S
O332 C329 1.238 . S
O333 Co327 2.052 . S
O333 C329 1.241 . S
O334 Co322 2.137 . S
O334 C325 1.247 . S
O335 Co322 2.244 . S
O335 C325 1.272 . S
O335 Co327 2.135 . S
Co336 O337 2.216 . S
Co336 O338 2.091 . S
Co336 O340 2.004 . S
Co336 O346 2.021 . S
Co336 O348 2.137 . S
Co336 O349 2.244 . S
O337 Co336 2.216 . S
O337 C344 1.247 . S
O338 Co336 2.091 . S
O338 C344 1.261 . S
C339 O348 1.247 . S
C339 O349 1.272 . S
O340 Co336 2.004 . S
O340 C345 1.259 . S
Co341 O342 2.061 . S
Co341 O347 2.052 . S
Co341 O349 2.135 . S
O342 Co341 2.061 . S
O342 C345 1.235 . S
C343 O346 1.238 . S
C343 O347 1.241 . S
C344 O337 1.247 . S
C344 O338 1.261 . S
C345 O340 1.259 . S
C345 O342 1.235 . S
O346 Co336 2.021 . S
O346 C343 1.238 . S
O347 Co341 2.052 . S
O347 C343 1.241 . S
O348 Co336 2.137 . S
O348 C339 1.247 . S
O349 Co336 2.244 . S
O349 C339 1.272 . S
O349 Co341 2.135 . S
Co350 O351 2.216 . S
Co350 O352 2.091 . S
Co350 O354 2.004 . S
Co350 O360 2.021 . S
Co350 O362 2.137 . S
Co350 O363 2.244 . S
O351 Co350 2.216 . S
O351 C358 1.247 . S
O352 Co350 2.091 . S
O352 C358 1.261 . S
C353 O362 1.247 . S
C353 O363 1.272 . S
O354 Co350 2.004 . S
O354 C359 1.259 . S
Co355 O356 2.061 . S
Co355 O361 2.052 . S
Co355 O363 2.135 . S
O356 Co355 2.061 . S
O356 C359 1.235 . S
C357 O360 1.238 . S
C357 O361 1.241 . S
C358 O351 1.247 . S
C358 O352 1.261 . S
C359 O354 1.259 . S
C359 O356 1.235 . S
O360 Co350 2.021 . S
O360 C357 1.238 . S
O361 Co355 2.052 . S
O361 C357 1.241 . S
O362 Co350 2.137 . S
O362 C353 1.247 . S
O363 Co350 2.244 . S
O363 C353 1.272 . S
O363 Co355 2.135 . S
Co364 O365 2.216 . S
Co364 O366 2.091 . S
Co364 O368 2.004 . S
Co364 O374 2.021 . S
Co364 O376 2.137 . S
Co364 O377 2.244 . S
O365 Co364 2.216 . S
O365 C372 1.247 . S
O366 Co364 2.091 . S
O366 C372 1.261 . S
C367 O376 1.247 . S
C367 O377 1.272 . S
O368 Co364 2.004 . S
O368 C373 1.259 . S
Co369 O370 2.061 . S
Co369 O375 2.052 . S
Co369 O377 2.135 . S
O370 Co369 2.061 . S
O370 C373 1.235 . S
C371 O374 1.238 . S
C371 O375 1.241 . S
C372 O365 1.247 . S
C372 O366 1.261 . S
C373 O368 1.259 . S
C373 O370 1.235 . S
O374 Co364 2.021 . S
O374 C371 1.238 . S
O375 Co369 2.052 . S
O375 C371 1.241 . S
O376 Co364 2.137 . S
O376 C367 1.247 . S
O377 Co364 2.244 . S
O377 C367 1.272 . S
O377 Co369 2.135 . S
Co378 O379 2.216 . S
Co378 O380 2.091 . S
Co378 O382 2.004 . S
Co378 O388 2.021 . S
Co378 O390 2.137 . S
Co378 O391 2.244 . S
O379 Co378 2.216 . S
O379 C386 1.247 . S
O380 Co378 2.091 . S
O380 C386 1.261 . S
C381 O390 1.247 . S
C381 O391 1.272 . S
O382 Co378 2.004 . S
O382 C387 1.259 . S
Co383 O384 2.061 . S
Co383 O389 2.052 . S
Co383 O391 2.135 . S
O384 Co383 2.061 . S
O384 C387 1.235 . S
C385 O388 1.238 . S
C385 O389 1.241 . S
C386 O379 1.247 . S
C386 O380 1.261 . S
C387 O382 1.259 . S
C387 O384 1.235 . S
O388 Co378 2.021 . S
O388 C385 1.238 . S
O389 Co383 2.052 . S
O389 C385 1.241 . S
O390 Co378 2.137 . S
O390 C381 1.247 . S
O391 Co378 2.244 . S
O391 C381 1.272 . S
O391 Co383 2.135 . S
Co392 O393 2.216 . S
Co392 O394 2.091 . S
Co392 O396 2.004 . S
Co392 O402 2.021 . S
Co392 O404 2.137 . S
Co392 O405 2.244 . S
O393 Co392 2.216 . S
O393 C400 1.247 . S
O394 Co392 2.091 . S
O394 C400 1.261 . S
C395 O404 1.247 . S
C395 O405 1.272 . S
O396 Co392 2.004 . S
O396 C401 1.259 . S
Co397 O398 2.061 . S
Co397 O403 2.052 . S
Co397 O405 2.135 . S
O398 Co397 2.061 . S
O398 C401 1.235 . S
C399 O402 1.238 . S
C399 O403 1.241 . S
C400 O393 1.247 . S
C400 O394 1.261 . S
C401 O396 1.259 . S
C401 O398 1.235 . S
O402 Co392 2.021 . S
O402 C399 1.238 . S
O403 Co397 2.052 . S
O403 C399 1.241 . S
O404 Co392 2.137 . S
O404 C395 1.247 . S
O405 Co392 2.244 . S
O405 C395 1.272 . S
O405 Co397 2.135 . S
Co406 O407 2.216 . S
Co406 O408 2.091 . S
Co406 O410 2.004 . S
Co406 O416 2.021 . S
Co406 O418 2.137 . S
Co406 O419 2.244 . S
O407 Co406 2.216 . S
O407 C414 1.247 . S
O408 Co406 2.091 . S
O408 C414 1.261 . S
C409 O418 1.247 . S
C409 O419 1.272 . S
O410 Co406 2.004 . S
O410 C415 1.259 . S
Co411 O412 2.061 . S
Co411 O417 2.052 . S
Co411 O419 2.135 . S
O412 Co411 2.061 . S
O412 C415 1.235 . S
C413 O416 1.238 . S
C413 O417 1.241 . S
C414 O407 1.247 . S
C414 O408 1.261 . S
C415 O410 1.259 . S
C415 O412 1.235 . S
O416 Co406 2.021 . S
O416 C413 1.238 . S
O417 Co411 2.052 . S
O417 C413 1.241 . S
O418 Co406 2.137 . S
O418 C409 1.247 . S
O419 Co406 2.244 . S
O419 C409 1.272 . S
O419 Co411 2.135 . S
Co420 O421 2.216 . S
Co420 O422 2.091 . S
Co420 O424 2.004 . S
Co420 O430 2.021 . S
Co420 O432 2.137 . S
Co420 O433 2.244 . S
O421 Co420 2.216 . S
O421 C428 1.247 . S
O422 Co420 2.091 . S
O422 C428 1.261 . S
C423 O432 1.247 . S
C423 O433 1.272 . S
O424 Co420 2.004 . S
O424 C429 1.259 . S
Co425 O426 2.061 . S
Co425 O431 2.052 . S
Co425 O433 2.135 . S
O426 Co425 2.061 . S
O426 C429 1.235 . S
C427 O430 1.238 . S
C427 O431 1.241 . S
C428 O421 1.247 . S
C428 O422 1.261 . S
C429 O424 1.259 . S
C429 O426 1.235 . S
O430 Co420 2.021 . S
O430 C427 1.238 . S
O431 Co425 2.052 . S
O431 C427 1.241 . S
O432 Co420 2.137 . S
O432 C423 1.247 . S
O433 Co420 2.244 . S
O433 C423 1.272 . S
O433 Co425 2.135 . S
Co434 O435 2.216 . S
Co434 O436 2.091 . S
Co434 O438 2.004 . S
Co434 O444 2.021 . S
Co434 O446 2.137 . S
Co434 O447 2.244 . S
O435 Co434 2.216 . S
O435 C442 1.247 . S
O436 Co434 2.091 . S
O436 C442 1.261 . S
C437 O446 1.247 . S
C437 O447 1.272 . S
O438 Co434 2.004 . S
O438 C443 1.259 . S
Co439 O440 2.061 . S
Co439 O445 2.052 . S
Co439 O447 2.135 . S
O440 Co439 2.061 . S
O440 C443 1.235 . S
C441 O444 1.238 . S
C441 O445 1.241 . S
C442 O435 1.247 . S
C442 O436 1.261 . S
C443 O438 1.259 . S
C443 O440 1.235 . S
O444 Co434 2.021 . S
O444 C441 1.238 . S
O445 Co439 2.052 . S
O445 C441 1.241 . S
O446 Co434 2.137 . S
O446 C437 1.247 . S
O447 Co434 2.244 . S
O447 C437 1.272 . S
O447 Co439 2.135 . S
Co448 O449 2.216 . S
Co448 O450 2.091 . S
Co448 O452 2.004 . S
Co448 O458 2.021 . S
Co448 O460 2.137 . S
Co448 O461 2.244 . S
O449 Co448 2.216 . S
O449 C456 1.247 . S
O450 Co448 2.091 . S
O450 C456 1.261 . S
C451 O460 1.247 . S
C451 O461 1.272 . S
O452 Co448 2.004 . S
O452 C457 1.259 . S
Co453 O454 2.061 . S
Co453 O459 2.052 . S
Co453 O461 2.135 . S
O454 Co453 2.061 . S
O454 C457 1.235 . S
C455 O458 1.238 . S
C455 O459 1.241 . S
C456 O449 1.247 . S
C456 O450 1.261 . S
C457 O452 1.259 . S
C457 O454 1.235 . S
O458 Co448 2.021 . S
O458 C455 1.238 . S
O459 Co453 2.052 . S
O459 C455 1.241 . S
O460 Co448 2.137 . S
O460 C451 1.247 . S
O461 Co448 2.244 . S
O461 C451 1.272 . S
O461 Co453 2.135 . S
Co462 O463 2.216 . S
Co462 O464 2.091 . S
Co462 O466 2.004 . S
Co462 O472 2.021 . S
Co462 O474 2.137 . S
Co462 O475 2.244 . S
O463 Co462 2.216 . S
O463 C470 1.247 . S
O464 Co462 2.091 . S
O464 C470 1.261 . S
C465 O474 1.247 . S
C465 O475 1.272 . S
O466 Co462 2.004 . S
O466 C471 1.259 . S
Co467 O468 2.061 . S
Co467 O473 2.052 . S
Co467 O475 2.135 . S
O468 Co467 2.061 . S
O468 C471 1.235 . S
C469 O472 1.238 . S
C469 O473 1.241 . S
C470 O463 1.247 . S
C470 O464 1.261 . S
C471 O466 1.259 . S
C471 O468 1.235 . S
O472 Co462 2.021 . S
O472 C469 1.238 . S
O473 Co467 2.052 . S
O473 C469 1.241 . S
O474 Co462 2.137 . S
O474 C465 1.247 . S
O475 Co462 2.244 . S
O475 C465 1.272 . S
O475 Co467 2.135 . S
Co476 O477 2.216 . S
Co476 O478 2.091 . S
Co476 O480 2.004 . S
Co476 O486 2.021 . S
Co476 O488 2.137 . S
Co476 O489 2.244 . S
O477 Co476 2.216 . S
O477 C484 1.247 . S
O478 Co476 2.091 . S
O478 C484 1.261 . S
C479 O488 1.247 . S
C479 O489 1.272 . S
O480 Co476 2.004 . S
O480 C485 1.259 . S
Co481 O482 2.061 . S
Co481 O487 2.052 . S
Co481 O489 2.135 . S
O482 Co481 2.061 . S
O482 C485 1.235 . S
C483 O486 1.238 . S
C483 O487 1.241 . S
C484 O477 1.247 . S
C484 O478 1.261 . S
C485 O480 1.259 . S
C485 O482 1.235 . S
O486 Co476 2.021 . S
O486 C483 1.238 . S
O487 Co481 2.052 . S
O487 C483 1.241 . S
O488 Co476 2.137 . S
O488 C479 1.247 . S
O489 Co476 2.244 . S
O489 C479 1.272 . S
O489 Co481 2.135 . S
Co490 O491 2.216 . S
Co490 O492 2.091 . S
Co490 O494 2.004 . S
Co490 O500 2.021 . S
Co490 O502 2.137 . S
Co490 O503 2.244 . S
O491 Co490 2.216 . S
O491 C498 1.247 . S
O492 Co490 2.091 . S
O492 C498 1.261 . S
C493 O502 1.247 . S
C493 O503 1.272 . S
O494 Co490 2.004 . S
O494 C499 1.259 . S
Co495 O496 2.061 . S
Co495 O501 2.052 . S
Co495 O503 2.135 . S
O496 Co495 2.061 . S
O496 C499 1.235 . S
C497 O500 1.238 . S
C497 O501 1.241 . S
C498 O491 1.247 . S
C498 O492 1.261 . S
C499 O494 1.259 . S
C499 O496 1.235 . S
O500 Co490 2.021 . S
O500 C497 1.238 . S
O501 Co495 2.052 . S
O501 C497 1.241 . S
O502 Co490 2.137 . S
O502 C493 1.247 . S
O503 Co490 2.244 . S
O503 C493 1.272 . S
O503 Co495 2.135 . S
Co504 O505 2.216 . S
Co504 O506 2.091 . S
Co504 O508 2.004 . S
Co504 O514 2.021 . S
Co504 O516 2.137 . S
Co504 O517 2.244 . S
O505 Co504 2.216 . S
O505 C512 1.247 . S
O506 Co504 2.091 . S
O506 C512 1.261 . S
C507 O516 1.247 . S
C507 O517 1.272 . S
O508 Co504 2.004 . S
O508 C513 1.259 . S
Co509 O510 2.061 . S
Co509 O515 2.052 . S
Co509 O517 2.135 . S
O510 Co509 2.061 . S
O510 C513 1.235 . S
C511 O514 1.238 . S
C511 O515 1.241 . S
C512 O505 1.247 . S
C512 O506 1.261 . S
C513 O508 1.259 . S
C513 O510 1.235 . S
O514 Co504 2.021 . S
O514 C511 1.238 . S
O515 Co509 2.052 . S
O515 C511 1.241 . S
O516 Co504 2.137 . S
O516 C507 1.247 . S
O517 Co504 2.244 . S
O517 C507 1.272 . S
O517 Co509 2.135 . S
Co518 O519 2.216 . S
Co518 O520 2.091 . S
Co518 O522 2.004 . S
Co518 O528 2.021 . S
Co518 O530 2.137 . S
Co518 O531 2.244 . S
O519 Co518 2.216 . S
O519 C526 1.247 . S
O520 Co518 2.091 . S
O520 C526 1.261 . S
C521 O530 1.247 . S
C521 O531 1.272 . S
O522 Co518 2.004 . S
O522 C527 1.259 . S
Co523 O524 2.061 . S
Co523 O529 2.052 . S
Co523 O531 2.135 . S
O524 Co523 2.061 . S
O524 C527 1.235 . S
C525 O528 1.238 . S
C525 O529 1.241 . S
C526 O519 1.247 . S
C526 O520 1.261 . S
C527 O522 1.259 . S
C527 O524 1.235 . S
O528 Co518 2.021 . S
O528 C525 1.238 . S
O529 Co523 2.052 . S
O529 C525 1.241 . S
O530 Co518 2.137 . S
O530 C521 1.247 . S
O531 Co518 2.244 . S
O531 C521 1.272 . S
O531 Co523 2.135 . S
Co532 O533 2.216 . S
Co532 O534 2.091 . S
Co532 O536 2.004 . S
Co532 O542 2.021 . S
Co532 O544 2.137 . S
Co532 O545 2.244 . S
O533 Co532 2.216 . S
O533 C540 1.247 . S
O534 Co532 2.091 . S
O534 C540 1.261 . S
C535 O544 1.247 . S
C535 O545 1.272 . S
O536 Co532 2.004 . S
O536 C541 1.259 . S
Co537 O538 2.061 . S
Co537 O543 2.052 . S
Co537 O545 2.135 . S
O538 Co537 2.061 . S
O538 C541 1.235 . S
C539 O542 1.238 . S
C539 O543 1.241 . S
C540 O533 1.247 . S
C540 O534 1.261 . S
C541 O536 1.259 . S
C541 O538 1.235 . S
O542 Co532 2.021 . S
O542 C539 1.238 . S
O543 Co537 2.052 . S
O543 C539 1.241 . S
O544 Co532 2.137 . S
O544 C535 1.247 . S
O545 Co532 2.244 . S
O545 C535 1.272 . S
O545 Co537 2.135 . S
Co546 O547 2.216 . S
Co546 O548 2.091 . S
Co546 O550 2.004 . S
Co546 O556 2.021 . S
Co546 O558 2.137 . S
Co546 O559 2.244 . S
O547 Co546 2.216 . S
O547 C554 1.247 . S
O548 Co546 2.091 . S
O548 C554 1.261 . S
C549 O558 1.247 . S
C549 O559 1.272 . S
O550 Co546 2.004 . S
O550 C555 1.259 . S
Co551 O552 2.061 . S
Co551 O557 2.052 . S
Co551 O559 2.135 . S
O552 Co551 2.061 . S
O552 C555 1.235 . S
C553 O556 1.238 . S
C553 O557 1.241 . S
C554 O547 1.247 . S
C554 O548 1.261 . S
C555 O550 1.259 . S
C555 O552 1.235 . S
O556 Co546 2.021 . S
O556 C553 1.238 . S
O557 Co551 2.052 . S
O557 C553 1.241 . S
O558 Co546 2.137 . S
O558 C549 1.247 . S
O559 Co546 2.244 . S
O559 C549 1.272 . S
O559 Co551 2.135 . S
Co560 O561 2.216 . S
Co560 O562 2.091 . S
Co560 O564 2.004 . S
Co560 O570 2.021 . S
Co560 O572 2.137 . S
Co560 O573 2.244 . S
O561 Co560 2.216 . S
O561 C568 1.247 . S
O562 Co560 2.091 . S
O562 C568 1.261 . S
C563 O572 1.247 . S
C563 O573 1.272 . S
O564 Co560 2.004 . S
O564 C569 1.259 . S
Co565 O566 2.061 . S
Co565 O571 2.052 . S
Co565 O573 2.135 . S
O566 Co565 2.061 . S
O566 C569 1.235 . S
C567 O570 1.238 . S
C567 O571 1.241 . S
C568 O561 1.247 . S
C568 O562 1.261 . S
C569 O564 1.259 . S
C569 O566 1.235 . S
O570 Co560 2.021 . S
O570 C567 1.238 . S
O571 Co565 2.052 . S
O571 C567 1.241 . S
O572 Co560 2.137 . S
O572 C563 1.247 . S
O573 Co560 2.244 . S
O573 C563 1.272 . S
O573 Co565 2.135 . S
Co574 O575 2.216 . S
Co574 O576 2.091 . S
Co574 O578 2.004 . S
Co574 O584 2.021 . S
Co574 O586 2.137 . S
Co574 O587 2.244 . S
O575 Co574 2.216 . S
O575 C582 1.247 . S
O576 Co574 2.091 . S
O576 C582 1.261 . S
C577 O586 1.247 . S
C577 O587 1.272 . S
O578 Co574 2.004 . S
O578 C583 1.259 . S
Co579 O580 2.061 . S
Co579 O585 2.052 . S
Co579 O587 2.135 . S
O580 Co579 2.061 . S
O580 C583 1.235 . S
C581 O584 1.238 . S
C581 O585 1.241 . S
C582 O575 1.247 . S
C582 O576 1.261 . S
C583 O578 1.259 . S
C583 O580 1.235 . S
O584 Co574 2.021 . S
O584 C581 1.238 . S
O585 Co579 2.052 . S
O585 C581 1.241 . S
O586 Co574 2.137 . S
O586 C577 1.247 . S
O587 Co574 2.244 . S
O587 C577 1.272 . S
O587 Co579 2.135 . S
Co588 O589 2.216 . S
Co588 O590 2.091 . S
Co588 O592 2.004 . S
Co588 O598 2.021 . S
Co588 O600 2.137 . S
Co588 O601 2.244 . S
O589 Co588 2.216 . S
O589 C596 1.247 . S
O590 Co588 2.091 . S
O590 C596 1.261 . S
C591 O600 1.247 . S
C591 O601 1.272 . S
O592 Co588 2.004 . S
O592 C597 1.259 . S
Co593 O594 2.061 . S
Co593 O599 2.052 . S
Co593 O601 2.135 . S
O594 Co593 2.061 . S
O594 C597 1.235 . S
C595 O598 1.238 . S
C595 O599 1.241 . S
C596 O589 1.247 . S
C596 O590 1.261 . S
C597 O592 1.259 . S
C597 O594 1.235 . S
O598 Co588 2.021 . S
O598 C595 1.238 . S
O599 Co593 2.052 . S
O599 C595 1.241 . S
O600 Co588 2.137 . S
O600 C591 1.247 . S
O601 Co588 2.244 . S
O601 C591 1.272 . S
O601 Co593 2.135 . S
Co602 O603 2.216 . S
Co602 O604 2.091 . S
Co602 O606 2.004 . S
Co602 O612 2.021 . S
Co602 O614 2.137 . S
Co602 O615 2.244 . S
O603 Co602 2.216 . S
O603 C610 1.247 . S
O604 Co602 2.091 . S
O604 C610 1.261 . S
C605 O614 1.247 . S
C605 O615 1.272 . S
O606 Co602 2.004 . S
O606 C611 1.259 . S
Co607 O608 2.061 . S
Co607 O613 2.052 . S
Co607 O615 2.135 . S
O608 Co607 2.061 . S
O608 C611 1.235 . S
C609 O612 1.238 . S
C609 O613 1.241 . S
C610 O603 1.247 . S
C610 O604 1.261 . S
C611 O606 1.259 . S
C611 O608 1.235 . S
O612 Co602 2.021 . S
O612 C609 1.238 . S
O613 Co607 2.052 . S
O613 C609 1.241 . S
O614 Co602 2.137 . S
O614 C605 1.247 . S
O615 Co602 2.244 . S
O615 C605 1.272 . S
O615 Co607 2.135 . S
Co616 O617 2.216 . S
Co616 O618 2.091 . S
Co616 O620 2.004 . S
Co616 O626 2.021 . S
Co616 O628 2.137 . S
Co616 O629 2.244 . S
O617 Co616 2.216 . S
O617 C624 1.247 . S
O618 Co616 2.091 . S
O618 C624 1.261 . S
C619 O628 1.247 . S
C619 O629 1.272 . S
O620 Co616 2.004 . S
O620 C625 1.259 . S
Co621 O622 2.061 . S
Co621 O627 2.052 . S
Co621 O629 2.135 . S
O622 Co621 2.061 . S
O622 C625 1.235 . S
C623 O626 1.238 . S
C623 O627 1.241 . S
C624 O617 1.247 . S
C624 O618 1.261 . S
C625 O620 1.259 . S
C625 O622 1.235 . S
O626 Co616 2.021 . S
O626 C623 1.238 . S
O627 Co621 2.052 . S
O627 C623 1.241 . S
O628 Co616 2.137 . S
O628 C619 1.247 . S
O629 Co616 2.244 . S
O629 C619 1.272 . S
O629 Co621 2.135 . S
Co630 O631 2.216 . S
Co630 O632 2.091 . S
Co630 O634 2.004 . S
Co630 O640 2.021 . S
Co630 O642 2.137 . S
Co630 O643 2.244 . S
O631 Co630 2.216 . S
O631 C638 1.247 . S
O632 Co630 2.091 . S
O632 C638 1.261 . S
C633 O642 1.247 . S
C633 O643 1.272 . S
O634 Co630 2.004 . S
O634 C639 1.259 . S
Co635 O636 2.061 . S
Co635 O641 2.052 . S
Co635 O643 2.135 . S
O636 Co635 2.061 . S
O636 C639 1.235 . S
C637 O640 1.238 . S
C637 O641 1.241 . S
C638 O631 1.247 . S
C638 O632 1.261 . S
C639 O634 1.259 . S
C639 O636 1.235 . S
O640 Co630 2.021 . S
O640 C637 1.238 . S
O641 Co635 2.052 . S
O641 C637 1.241 . S
O642 Co630 2.137 . S
O642 C633 1.247 . S
O643 Co630 2.244 . S
O643 C633 1.272 . S
O643 Co635 2.135 . S
Co644 O645 2.216 . S
Co644 O646 2.091 . S
Co644 O648 2.004 . S
Co644 O654 2.021 . S
Co644 O656 2.137 . S
Co644 O657 2.244 . S
O645 Co644 2.216 . S
O645 C652 1.247 . S
O646 Co644 2.091 . S
O646 C652 1.261 . S
C647 O656 1.247 . S
C647 O657 1.272 . S
O648 Co644 2.004 . S
O648 C653 1.259 . S
Co649 O650 2.061 . S
Co649 O655 2.052 . S
Co649 O657 2.135 . S
O650 Co649 2.061 . S
O650 C653 1.235 . S
C651 O654 1.238 . S
C651 O655 1.241 . S
C652 O645 1.247 . S
C652 O646 1.261 . S
C653 O648 1.259 . S
C653 O650 1.235 . S
O654 Co644 2.021 . S
O654 C651 1.238 . S
O655 Co649 2.052 . S
O655 C651 1.241 . S
O656 Co644 2.137 . S
O656 C647 1.247 . S
O657 Co644 2.244 . S
O657 C647 1.272 . S
O657 Co649 2.135 . S
Co658 O659 2.216 . S
Co658 O660 2.091 . S
Co658 O662 2.004 . S
Co658 O668 2.021 . S
Co658 O670 2.137 . S
Co658 O671 2.244 . S
O659 Co658 2.216 . S
O659 C666 1.247 . S
O660 Co658 2.091 . S
O660 C666 1.261 . S
C661 O670 1.247 . S
C661 O671 1.272 . S
O662 Co658 2.004 . S
O662 C667 1.259 . S
Co663 O664 2.061 . S
Co663 O669 2.052 . S
Co663 O671 2.135 . S
O664 Co663 2.061 . S
O664 C667 1.235 . S
C665 O668 1.238 . S
C665 O669 1.241 . S
C666 O659 1.247 . S
C666 O660 1.261 . S
C667 O662 1.259 . S
C667 O664 1.235 . S
O668 Co658 2.021 . S
O668 C665 1.238 . S
O669 Co663 2.052 . S
O669 C665 1.241 . S
O670 Co658 2.137 . S
O670 C661 1.247 . S
O671 Co658 2.244 . S
O671 C661 1.272 . S
O671 Co663 2.135 . S
C672 C673 1.363 . S
C672 C678 1.379 . S
C672 N680 1.356 . S
C673 C672 1.363 . S
C673 C679 1.363 . S
C674 C675 1.363 . S
C674 C679 1.379 . S
C674 N681 1.356 . S
C675 C674 1.363 . S
C675 C678 1.363 . S
N676 C678 1.356 . S
N676 H688 0.984 . S
N676 H689 0.985 . S
N677 C679 1.356 . S
N677 H682 0.984 . S
N677 H683 0.985 . S
C678 C672 1.379 . S
C678 C675 1.363 . S
C678 N676 1.356 . S
C679 C673 1.363 . S
C679 C674 1.379 . S
C679 N677 1.356 . S
N680 C672 1.356 . S
N680 H686 0.984 . S
N680 H687 0.984 . S
N681 C674 1.356 . S
N681 H684 0.984 . S
N681 H685 0.985 . S
H682 N677 0.984 . S
H683 N677 0.985 . S
H684 N681 0.984 . S
H685 N681 0.985 . S
H686 N680 0.984 . S
H687 N680 0.984 . S
H688 N676 0.984 . S
H689 N676 0.985 . S
C690 C691 1.363 . S
C690 C696 1.379 . S
C690 N698 1.356 . S
C691 C690 1.363 . S
C691 C697 1.363 . S
C692 C693 1.363 . S
C692 C697 1.379 . S
C692 N699 1.356 . S
C693 C692 1.363 . S
C693 C696 1.363 . S
N694 C696 1.356 . S
N694 H706 0.984 . S
N694 H707 0.985 . S
N695 C697 1.356 . S
N695 H700 0.984 . S
N695 H701 0.985 . S
C696 C690 1.379 . S
C696 C693 1.363 . S
C696 N694 1.356 . S
C697 C691 1.363 . S
C697 C692 1.379 . S
C697 N695 1.356 . S
N698 C690 1.356 . S
N698 H704 0.984 . S
N698 H705 0.984 . S
N699 C692 1.356 . S
N699 H702 0.984 . S
N699 H703 0.985 . S
H700 N695 0.984 . S
H701 N695 0.985 . S
H702 N699 0.984 . S
H703 N699 0.985 . S
H704 N698 0.984 . S
H705 N698 0.984 . S
H706 N694 0.984 . S
H707 N694 0.985 . S
C708 C709 1.363 . S
C708 C714 1.379 . S
C708 N716 1.356 . S
C709 C708 1.363 . S
C709 C715 1.363 . S
C710 C711 1.363 . S
C710 C715 1.379 . S
C710 N717 1.356 . S
C711 C710 1.363 . S
C711 C714 1.363 . S
N712 C714 1.356 . S
N712 H724 0.984 . S
N712 H725 0.985 . S
N713 C715 1.356 . S
N713 H718 0.984 . S
N713 H719 0.985 . S
C714 C708 1.379 . S
C714 C711 1.363 . S
C714 N712 1.356 . S
C715 C709 1.363 . S
C715 C710 1.379 . S
C715 N713 1.356 . S
N716 C708 1.356 . S
N716 H722 0.984 . S
N716 H723 0.984 . S
N717 C710 1.356 . S
N717 H720 0.984 . S
N717 H721 0.985 . S
H718 N713 0.984 . S
H719 N713 0.985 . S
H720 N717 0.984 . S
H721 N717 0.985 . S
H722 N716 0.984 . S
H723 N716 0.984 . S
H724 N712 0.984 . S
H725 N712 0.985 . S
C726 C727 1.363 . S
C726 C732 1.379 . S
C726 N734 1.356 . S
C727 C726 1.363 . S
C727 C733 1.363 . S
C728 C729 1.363 . S
C728 C733 1.379 . S
C728 N735 1.356 . S
C729 C728 1.363 . S
C729 C732 1.363 . S
N730 C732 1.356 . S
N730 H742 0.984 . S
N730 H743 0.985 . S
N731 C733 1.356 . S
N731 H736 0.984 . S
N731 H737 0.985 . S
C732 C726 1.379 . S
C732 C729 1.363 . S
C732 N730 1.356 . S
C733 C727 1.363 . S
C733 C728 1.379 . S
C733 N731 1.356 . S
N734 C726 1.356 . S
N734 H740 0.984 . S
N734 H741 0.984 . S
N735 C728 1.356 . S
N735 H738 0.984 . S
N735 H739 0.985 . S
H736 N731 0.984 . S
H737 N731 0.985 . S
H738 N735 0.984 . S
H739 N735 0.985 . S
H740 N734 0.984 . S
H741 N734 0.984 . S
H742 N730 0.984 . S
H743 N730 0.985 . S
C744 C745 1.363 . S
C744 C750 1.379 . S
C744 N752 1.356 . S
C745 C744 1.363 . S
C745 C751 1.363 . S
C746 C747 1.363 . S
C746 C751 1.379 . S
C746 N753 1.356 . S
C747 C746 1.363 . S
C747 C750 1.363 . S
N748 C750 1.356 . S
N748 H760 0.984 . S
N748 H761 0.985 . S
N749 C751 1.356 . S
N749 H754 0.984 . S
N749 H755 0.985 . S
C750 C744 1.379 . S
C750 C747 1.363 . S
C750 N748 1.356 . S
C751 C745 1.363 . S
C751 C746 1.379 . S
C751 N749 1.356 . S
N752 C744 1.356 . S
N752 H758 0.984 . S
N752 H759 0.984 . S
N753 C746 1.356 . S
N753 H756 0.984 . S
N753 H757 0.985 . S
H754 N749 0.984 . S
H755 N749 0.985 . S
H756 N753 0.984 . S
H757 N753 0.985 . S
H758 N752 0.984 . S
H759 N752 0.984 . S
H760 N748 0.984 . S
H761 N748 0.985 . S
C762 C763 1.363 . S
C762 C768 1.379 . S
C762 N770 1.356 . S
C763 C762 1.363 . S
C763 C769 1.363 . S
C764 C765 1.363 . S
C764 C769 1.379 . S
C764 N771 1.356 . S
C765 C764 1.363 . S
C765 C768 1.363 . S
N766 C768 1.356 . S
N766 H778 0.984 . S
N766 H779 0.985 . S
N767 C769 1.356 . S
N767 H772 0.984 . S
N767 H773 0.985 . S
C768 C762 1.379 . S
C768 C765 1.363 . S
C768 N766 1.356 . S
C769 C763 1.363 . S
C769 C764 1.379 . S
C769 N767 1.356 . S
N770 C762 1.356 . S
N770 H776 0.984 . S
N770 H777 0.984 . S
N771 C764 1.356 . S
N771 H774 0.984 . S
N771 H775 0.985 . S
H772 N767 0.984 . S
H773 N767 0.985 . S
H774 N771 0.984 . S
H775 N771 0.985 . S
H776 N770 0.984 . S
H777 N770 0.984 . S
H778 N766 0.984 . S
H779 N766 0.985 . S
C780 C781 1.363 . S
C780 C786 1.379 . S
C780 N788 1.356 . S
C781 C780 1.363 . S
C781 C787 1.363 . S
C782 C783 1.363 . S
C782 C787 1.379 . S
C782 N789 1.356 . S
C783 C782 1.363 . S
C783 C786 1.363 . S
N784 C786 1.356 . S
N784 H796 0.984 . S
N784 H797 0.985 . S
N785 C787 1.356 . S
N785 H790 0.984 . S
N785 H791 0.985 . S
C786 C780 1.379 . S
C786 C783 1.363 . S
C786 N784 1.356 . S
C787 C781 1.363 . S
C787 C782 1.379 . S
C787 N785 1.356 . S
N788 C780 1.356 . S
N788 H794 0.984 . S
N788 H795 0.984 . S
N789 C782 1.356 . S
N789 H792 0.984 . S
N789 H793 0.985 . S
H790 N785 0.984 . S
H791 N785 0.985 . S
H792 N789 0.984 . S
H793 N789 0.985 . S
H794 N788 0.984 . S
H795 N788 0.984 . S
H796 N784 0.984 . S
H797 N784 0.985 . S
C798 C799 1.363 . S
C798 C804 1.379 . S
C798 N806 1.356 . S
C799 C798 1.363 . S
C799 C805 1.363 . S
C800 C801 1.363 . S
C800 C805 1.379 . S
C800 N807 1.356 . S
C801 C800 1.363 . S
C801 C804 1.363 . S
N802 C804 1.356 . S
N802 H814 0.984 . S
N802 H815 0.985 . S
N803 C805 1.356 . S
N803 H808 0.984 . S
N803 H809 0.985 . S
C804 C798 1.379 . S
C804 C801 1.363 . S
C804 N802 1.356 . S
C805 C799 1.363 . S
C805 C800 1.379 . S
C805 N803 1.356 . S
N806 C798 1.356 . S
N806 H812 0.984 . S
N806 H813 0.984 . S
N807 C800 1.356 . S
N807 H810 0.984 . S
N807 H811 0.985 . S
H808 N803 0.984 . S
H809 N803 0.985 . S
H810 N807 0.984 . S
H811 N807 0.985 . S
H812 N806 0.984 . S
H813 N806 0.984 . S
H814 N802 0.984 . S
H815 N802 0.985 . S
C816 C817 1.363 . S
C816 C822 1.379 . S
C816 N824 1.356 . S
C817 C816 1.363 . S
C817 C823 1.363 . S
C818 C819 1.363 . S
C818 C823 1.379 . S
C818 N825 1.356 . S
C819 C818 1.363 . S
C819 C822 1.363 . S
N820 C822 1.356 . S
N820 H832 0.984 . S
N820 H833 0.985 . S
N821 C823 1.356 . S
N821 H826 0.984 . S
N821 H827 0.985 . S
C822 C816 1.379 . S
C822 C819 1.363 . S
C822 N820 1.356 . S
C823 C817 1.363 . S
C823 C818 1.379 . S
C823 N821 1.356 . S
N824 C816 1.356 . S
N824 H830 0.984 . S
N824 H831 0.984 . S
N825 C818 1.356 . S
N825 H828 0.984 . S
N825 H829 0.985 . S
H826 N821 0.984 . S
H827 N821 0.985 . S
H828 N825 0.984 . S
H829 N825 0.985 . S
H830 N824 0.984 . S
H831 N824 0.984 . S
H832 N820 0.984 . S
H833 N820 0.985 . S
C834 C835 1.363 . S
C834 C840 1.379 . S
C834 N842 1.356 . S
C835 C834 1.363 . S
C835 C841 1.363 . S
C836 C837 1.363 . S
C836 C841 1.379 . S
C836 N843 1.356 . S
C837 C836 1.363 . S
C837 C840 1.363 . S
N838 C840 1.356 . S
N838 H850 0.984 . S
N838 H851 0.985 . S
N839 C841 1.356 . S
N839 H844 0.984 . S
N839 H845 0.985 . S
C840 C834 1.379 . S
C840 C837 1.363 . S
C840 N838 1.356 . S
C841 C835 1.363 . S
C841 C836 1.379 . S
C841 N839 1.356 . S
N842 C834 1.356 . S
N842 H848 0.984 . S
N842 H849 0.984 . S
N843 C836 1.356 . S
N843 H846 0.984 . S
N843 H847 0.985 . S
H844 N839 0.984 . S
H845 N839 0.985 . S
H846 N843 0.984 . S
H847 N843 0.985 . S
H848 N842 0.984 . S
H849 N842 0.984 . S
H850 N838 0.984 . S
H851 N838 0.985 . S
C852 C853 1.363 . S
C852 C858 1.379 . S
C852 N860 1.356 . S
C853 C852 1.363 . S
C853 C859 1.363 . S
C854 C855 1.363 . S
C854 C859 1.379 . S
C854 N861 1.356 . S
C855 C854 1.363 . S
C855 C858 1.363 . S
N856 C858 1.356 . S
N856 H868 0.984 . S
N856 H869 0.985 . S
N857 C859 1.356 . S
N857 H862 0.984 . S
N857 H863 0.985 . S
C858 C852 1.379 . S
C858 C855 1.363 . S
C858 N856 1.356 . S
C859 C853 1.363 . S
C859 C854 1.379 . S
C859 N857 1.356 . S
N860 C852 1.356 . S
N860 H866 0.984 . S
N860 H867 0.984 . S
N861 C854 1.356 . S
N861 H864 0.984 . S
N861 H865 0.985 . S
H862 N857 0.984 . S
H863 N857 0.985 . S
H864 N861 0.984 . S
H865 N861 0.985 . S
H866 N860 0.984 . S
H867 N860 0.984 . S
H868 N856 0.984 . S
H869 N856 0.985 . S
C870 C871 1.363 . S
C870 C876 1.379 . S
C870 N878 1.356 . S
C871 C870 1.363 . S
C871 C877 1.363 . S
C872 C873 1.363 . S
C872 C877 1.379 . S
C872 N879 1.356 . S
C873 C872 1.363 . S
C873 C876 1.363 . S
N874 C876 1.356 . S
N874 H886 0.984 . S
N874 H887 0.985 . S
N875 C877 1.356 . S
N875 H880 0.984 . S
N875 H881 0.985 . S
C876 C870 1.379 . S
C876 C873 1.363 . S
C876 N874 1.356 . S
C877 C871 1.363 . S
C877 C872 1.379 . S
C877 N875 1.356 . S
N878 C870 1.356 . S
N878 H884 0.984 . S
N878 H885 0.984 . S
N879 C872 1.356 . S
N879 H882 0.984 . S
N879 H883 0.985 . S
H880 N875 0.984 . S
H881 N875 0.985 . S
H882 N879 0.984 . S
H883 N879 0.985 . S
H884 N878 0.984 . S
H885 N878 0.984 . S
H886 N874 0.984 . S
H887 N874 0.985 . S
C888 C889 1.363 . S
C888 C894 1.379 . S
C888 N896 1.356 . S
C889 C888 1.363 . S
C889 C895 1.363 . S
C890 C891 1.363 . S
C890 C895 1.379 . S
C890 N897 1.356 . S
C891 C890 1.363 . S
C891 C894 1.363 . S
N892 C894 1.356 . S
N892 H904 0.984 . S
N892 H905 0.985 . S
N893 C895 1.356 . S
N893 H898 0.984 . S
N893 H899 0.985 . S
C894 C888 1.379 . S
C894 C891 1.363 . S
C894 N892 1.356 . S
C895 C889 1.363 . S
C895 C890 1.379 . S
C895 N893 1.356 . S
N896 C888 1.356 . S
N896 H902 0.984 . S
N896 H903 0.984 . S
N897 C890 1.356 . S
N897 H900 0.984 . S
N897 H901 0.985 . S
H898 N893 0.984 . S
H899 N893 0.985 . S
H900 N897 0.984 . S
H901 N897 0.985 . S
H902 N896 0.984 . S
H903 N896 0.984 . S
H904 N892 0.984 . S
H905 N892 0.985 . S
C906 C907 1.363 . S
C906 C912 1.379 . S
C906 N914 1.356 . S
C907 C906 1.363 . S
C907 C913 1.363 . S
C908 C909 1.363 . S
C908 C913 1.379 . S
C908 N915 1.356 . S
C909 C908 1.363 . S
C909 C912 1.363 . S
N910 C912 1.356 . S
N910 H922 0.984 . S
N910 H923 0.985 . S
N911 C913 1.356 . S
N911 H916 0.984 . S
N911 H917 0.985 . S
C912 C906 1.379 . S
C912 C909 1.363 . S
C912 N910 1.356 . S
C913 C907 1.363 . S
C913 C908 1.379 . S
C913 N911 1.356 . S
N914 C906 1.356 . S
N914 H920 0.984 . S
N914 H921 0.984 . S
N915 C908 1.356 . S
N915 H918 0.984 . S
N915 H919 0.985 . S
H916 N911 0.984 . S
H917 N911 0.985 . S
H918 N915 0.984 . S
H919 N915 0.985 . S
H920 N914 0.984 . S
H921 N914 0.984 . S
H922 N910 0.984 . S
H923 N910 0.985 . S
C924 C925 1.363 . S
C924 C930 1.379 . S
C924 N932 1.356 . S
C925 C924 1.363 . S
C925 C931 1.363 . S
C926 C927 1.363 . S
C926 C931 1.379 . S
C926 N933 1.356 . S
C927 C926 1.363 . S
C927 C930 1.363 . S
N928 C930 1.356 . S
N928 H940 0.984 . S
N928 H941 0.985 . S
N929 C931 1.356 . S
N929 H934 0.984 . S
N929 H935 0.985 . S
C930 C924 1.379 . S
C930 C927 1.363 . S
C930 N928 1.356 . S
C931 C925 1.363 . S
C931 C926 1.379 . S
C931 N929 1.356 . S
N932 C924 1.356 . S
N932 H938 0.984 . S
N932 H939 0.984 . S
N933 C926 1.356 . S
N933 H936 0.984 . S
N933 H937 0.985 . S
H934 N929 0.984 . S
H935 N929 0.985 . S
H936 N933 0.984 . S
H937 N933 0.985 . S
H938 N932 0.984 . S
H939 N932 0.984 . S
H940 N928 0.984 . S
H941 N928 0.985 . S
C942 C943 1.363 . S
C942 C948 1.379 . S
C942 N950 1.356 . S
C943 C942 1.363 . S
C943 C949 1.363 . S
C944 C945 1.363 . S
C944 C949 1.379 . S
C944 N951 1.356 . S
C945 C944 1.363 . S
C945 C948 1.363 . S
N946 C948 1.356 . S
N946 H958 0.984 . S
N946 H959 0.985 . S
N947 C949 1.356 . S
N947 H952 0.984 . S
N947 H953 0.985 . S
C948 C942 1.379 . S
C948 C945 1.363 . S
C948 N946 1.356 . S
C949 C943 1.363 . S
C949 C944 1.379 . S
C949 N947 1.356 . S
N950 C942 1.356 . S
N950 H956 0.984 . S
N950 H957 0.984 . S
N951 C944 1.356 . S
N951 H954 0.984 . S
N951 H955 0.985 . S
H952 N947 0.984 . S
H953 N947 0.985 . S
H954 N951 0.984 . S
H955 N951 0.985 . S
H956 N950 0.984 . S
H957 N950 0.984 . S
H958 N946 0.984 . S
H959 N946 0.985 . S
C960 C961 1.363 . S
C960 C966 1.379 . S
C960 N968 1.356 . S
C961 C960 1.363 . S
C961 C967 1.363 . S
C962 C963 1.363 . S
C962 C967 1.379 . S
C962 N969 1.356 . S
C963 C962 1.363 . S
C963 C966 1.363 . S
N964 C966 1.356 . S
N964 H976 0.984 . S
N964 H977 0.985 . S
N965 C967 1.356 . S
N965 H970 0.984 . S
N965 H971 0.985 . S
C966 C960 1.379 . S
C966 C963 1.363 . S
C966 N964 1.356 . S
C967 C961 1.363 . S
C967 C962 1.379 . S
C967 N965 1.356 . S
N968 C960 1.356 . S
N968 H974 0.984 . S
N968 H975 0.984 . S
N969 C962 1.356 . S
N969 H972 0.984 . S
N969 H973 0.985 . S
H970 N965 0.984 . S
H971 N965 0.985 . S
H972 N969 0.984 . S
H973 N969 0.985 . S
H974 N968 0.984 . S
H975 N968 0.984 . S
H976 N964 0.984 . S
H977 N964 0.985 . S
C978 C979 1.363 . S
C978 C984 1.379 . S
C978 N986 1.356 . S
C979 C978 1.363 . S
C979 C985 1.363 . S
C980 C981 1.363 . S
C980 C985 1.379 . S
C980 N987 1.356 . S
C981 C980 1.363 . S
C981 C984 1.363 . S
N982 C984 1.356 . S
N982 H994 0.984 . S
N982 H995 0.985 . S
N983 C985 1.356 . S
N983 H988 0.984 . S
N983 H989 0.985 . S
C984 C978 1.379 . S
C984 C981 1.363 . S
C984 N982 1.356 . S
C985 C979 1.363 . S
C985 C980 1.379 . S
C985 N983 1.356 . S
N986 C978 1.356 . S
N986 H992 0.984 . S
N986 H993 0.984 . S
N987 C980 1.356 . S
N987 H990 0.984 . S
N987 H991 0.985 . S
H988 N983 0.984 . S
H989 N983 0.985 . S
H990 N987 0.984 . S
H991 N987 0.985 . S
H992 N986 0.984 . S
H993 N986 0.984 . S
H994 N982 0.984 . S
H995 N982 0.985 . S
C996 C997 1.363 . S
C996 C1002 1.379 . S
C996 N1004 1.356 . S
C997 C996 1.363 . S
C997 C1003 1.363 . S
C998 C999 1.363 . S
C998 C1003 1.379 . S
C998 N1005 1.356 . S
C999 C998 1.363 . S
C999 C1002 1.363 . S
N1000 C1002 1.356 . S
N1000 H1012 0.984 . S
N1000 H1013 0.985 . S
N1001 C1003 1.356 . S
N1001 H1006 0.984 . S
N1001 H1007 0.985 . S
C1002 C996 1.379 . S
C1002 C999 1.363 . S
C1002 N1000 1.356 . S
C1003 C997 1.363 . S
C1003 C998 1.379 . S
C1003 N1001 1.356 . S
N1004 C996 1.356 . S
N1004 H1010 0.984 . S
N1004 H1011 0.984 . S
N1005 C998 1.356 . S
N1005 H1008 0.984 . S
N1005 H1009 0.985 . S
H1006 N1001 0.984 . S
H1007 N1001 0.985 . S
H1008 N1005 0.984 . S
H1009 N1005 0.985 . S
H1010 N1004 0.984 . S
H1011 N1004 0.984 . S
H1012 N1000 0.984 . S
H1013 N1000 0.985 . S
C1014 C1015 1.363 . S
C1014 C1020 1.379 . S
C1014 N1022 1.356 . S
C1015 C1014 1.363 . S
C1015 C1021 1.363 . S
C1016 C1017 1.363 . S
C1016 C1021 1.379 . S
C1016 N1023 1.356 . S
C1017 C1016 1.363 . S
C1017 C1020 1.363 . S
N1018 C1020 1.356 . S
N1018 H1030 0.984 . S
N1018 H1031 0.985 . S
N1019 C1021 1.356 . S
N1019 H1024 0.984 . S
N1019 H1025 0.985 . S
C1020 C1014 1.379 . S
C1020 C1017 1.363 . S
C1020 N1018 1.356 . S
C1021 C1015 1.363 . S
C1021 C1016 1.379 . S
C1021 N1019 1.356 . S
N1022 C1014 1.356 . S
N1022 H1028 0.984 . S
N1022 H1029 0.984 . S
N1023 C1016 1.356 . S
N1023 H1026 0.984 . S
N1023 H1027 0.985 . S
H1024 N1019 0.984 . S
H1025 N1019 0.985 . S
H1026 N1023 0.984 . S
H1027 N1023 0.985 . S
H1028 N1022 0.984 . S
H1029 N1022 0.984 . S
H1030 N1018 0.984 . S
H1031 N1018 0.985 . S
C1032 C1033 1.363 . S
C1032 C1038 1.379 . S
C1032 N1040 1.356 . S
C1033 C1032 1.363 . S
C1033 C1039 1.363 . S
C1034 C1035 1.363 . S
C1034 C1039 1.379 . S
C1034 N1041 1.356 . S
C1035 C1034 1.363 . S
C1035 C1038 1.363 . S
N1036 C1038 1.356 . S
N1036 H1048 0.984 . S
N1036 H1049 0.985 . S
N1037 C1039 1.356 . S
N1037 H1042 0.984 . S
N1037 H1043 0.985 . S
C1038 C1032 1.379 . S
C1038 C1035 1.363 . S
C1038 N1036 1.356 . S
C1039 C1033 1.363 . S
C1039 C1034 1.379 . S
C1039 N1037 1.356 . S
N1040 C1032 1.356 . S
N1040 H1046 0.984 . S
N1040 H1047 0.984 . S
N1041 C1034 1.356 . S
N1041 H1044 0.984 . S
N1041 H1045 0.985 . S
H1042 N1037 0.984 . S
H1043 N1037 0.985 . S
H1044 N1041 0.984 . S
H1045 N1041 0.985 . S
H1046 N1040 0.984 . S
H1047 N1040 0.984 . S
H1048 N1036 0.984 . S
H1049 N1036 0.985 . S
C1050 C1051 1.363 . S
C1050 C1056 1.379 . S
C1050 N1058 1.356 . S
C1051 C1050 1.363 . S
C1051 C1057 1.363 . S
C1052 C1053 1.363 . S
C1052 C1057 1.379 . S
C1052 N1059 1.356 . S
C1053 C1052 1.363 . S
C1053 C1056 1.363 . S
N1054 C1056 1.356 . S
N1054 H1066 0.984 . S
N1054 H1067 0.985 . S
N1055 C1057 1.356 . S
N1055 H1060 0.984 . S
N1055 H1061 0.985 . S
C1056 C1050 1.379 . S
C1056 C1053 1.363 . S
C1056 N1054 1.356 . S
C1057 C1051 1.363 . S
C1057 C1052 1.379 . S
C1057 N1055 1.356 . S
N1058 C1050 1.356 . S
N1058 H1064 0.984 . S
N1058 H1065 0.984 . S
N1059 C1052 1.356 . S
N1059 H1062 0.984 . S
N1059 H1063 0.985 . S
H1060 N1055 0.984 . S
H1061 N1055 0.985 . S
H1062 N1059 0.984 . S
H1063 N1059 0.985 . S
H1064 N1058 0.984 . S
H1065 N1058 0.984 . S
H1066 N1054 0.984 . S
H1067 N1054 0.985 . S
C1068 C1069 1.363 . S
C1068 C1074 1.379 . S
C1068 N1076 1.356 . S
C1069 C1068 1.363 . S
C1069 C1075 1.363 . S
C1070 C1071 1.363 . S
C1070 C1075 1.379 . S
C1070 N1077 1.356 . S
C1071 C1070 1.363 . S
C1071 C1074 1.363 . S
N1072 C1074 1.356 . S
N1072 H1084 0.984 . S
N1072 H1085 0.985 . S
N1073 C1075 1.356 . S
N1073 H1078 0.984 . S
N1073 H1079 0.985 . S
C1074 C1068 1.379 . S
C1074 C1071 1.363 . S
C1074 N1072 1.356 . S
C1075 C1069 1.363 . S
C1075 C1070 1.379 . S
C1075 N1073 1.356 . S
N1076 C1068 1.356 . S
N1076 H1082 0.984 . S
N1076 H1083 0.984 . S
N1077 C1070 1.356 . S
N1077 H1080 0.984 . S
N1077 H1081 0.985 . S
H1078 N1073 0.984 . S
H1079 N1073 0.985 . S
H1080 N1077 0.984 . S
H1081 N1077 0.985 . S
H1082 N1076 0.984 . S
H1083 N1076 0.984 . S
H1084 N1072 0.984 . S
H1085 N1072 0.985 . S
C1086 C1087 1.363 . S
C1086 C1092 1.379 . S
C1086 N1094 1.356 . S
C1087 C1086 1.363 . S
C1087 C1093 1.363 . S
C1088 C1089 1.363 . S
C1088 C1093 1.379 . S
C1088 N1095 1.356 . S
C1089 C1088 1.363 . S
C1089 C1092 1.363 . S
N1090 C1092 1.356 . S
N1090 H1102 0.984 . S
N1090 H1103 0.985 . S
N1091 C1093 1.356 . S
N1091 H1096 0.984 . S
N1091 H1097 0.985 . S
C1092 C1086 1.379 . S
C1092 C1089 1.363 . S
C1092 N1090 1.356 . S
C1093 C1087 1.363 . S
C1093 C1088 1.379 . S
C1093 N1091 1.356 . S
N1094 C1086 1.356 . S
N1094 H1100 0.984 . S
N1094 H1101 0.984 . S
N1095 C1088 1.356 . S
N1095 H1098 0.984 . S
N1095 H1099 0.985 . S
H1096 N1091 0.984 . S
H1097 N1091 0.985 . S
H1098 N1095 0.984 . S
H1099 N1095 0.985 . S
H1100 N1094 0.984 . S
H1101 N1094 0.984 . S
H1102 N1090 0.984 . S
H1103 N1090 0.985 . S
C1104 C1105 1.363 . S
C1104 C1110 1.391 . S
C1104 N1112 1.356 . S
C1105 C1104 1.363 . S
C1105 C1111 1.351 1_655 S
C1106 C1107 1.363 . S
C1106 C1111 1.391 . S
C1106 N1113 1.356 . S
C1107 C1106 1.363 . S
C1107 C1110 1.351 1_455 S
N1108 C1110 1.354 1_455 S
N1108 H1120 0.984 1_455 S
N1108 H1121 0.985 . S
N1109 C1111 1.354 1_655 S
N1109 H1114 0.984 . S
N1109 H1115 0.985 1_655 S
C1110 C1104 1.391 . S
C1110 C1107 1.351 1_655 S
C1110 N1108 1.354 1_655 S
C1111 C1105 1.351 1_455 S
C1111 C1106 1.391 . S
C1111 N1109 1.354 1_455 S
N1112 C1104 1.356 . S
N1112 H1118 0.984 . S
N1112 H1119 0.984 . S
N1113 C1106 1.356 . S
N1113 H1116 0.984 . S
N1113 H1117 0.985 . S
H1114 N1109 0.984 . S
H1115 N1109 0.985 1_455 S
H1116 N1113 0.984 . S
H1117 N1113 0.985 . S
H1118 N1112 0.984 . S
H1119 N1112 0.984 . S
H1120 N1108 0.984 1_655 S
H1121 N1108 0.985 . S
C1122 C1123 1.363 . S
C1122 C1128 1.379 . S
C1122 N1130 1.356 . S
C1123 C1122 1.363 . S
C1123 C1129 1.363 1_565 S
C1124 C1125 1.363 . S
C1124 C1129 1.379 . S
C1124 N1131 1.356 . S
C1125 C1124 1.363 . S
C1125 C1128 1.363 1_545 S
N1126 C1128 1.356 . S
N1126 H1138 0.984 . S
N1126 H1139 0.985 . S
N1127 C1129 1.356 . S
N1127 H1132 0.984 . S
N1127 H1133 0.985 . S
C1128 C1122 1.379 . S
C1128 C1125 1.363 1_565 S
C1128 N1126 1.356 . S
C1129 C1123 1.363 1_545 S
C1129 C1124 1.379 . S
C1129 N1127 1.356 . S
N1130 C1122 1.356 . S
N1130 H1136 0.984 . S
N1130 H1137 0.984 . S
N1131 C1124 1.356 . S
N1131 H1134 0.984 . S
N1131 H1135 0.985 . S
H1132 N1127 0.984 . S
H1133 N1127 0.985 . S
H1134 N1131 0.984 . S
H1135 N1131 0.985 . S
H1136 N1130 0.984 . S
H1137 N1130 0.984 . S
H1138 N1126 0.984 . S
H1139 N1126 0.985 . S
C1140 C1141 1.363 1_455 S
C1140 C1146 1.379 . S
C1140 N1148 1.356 . S
C1141 C1140 1.363 1_655 S
C1141 C1147 1.363 . S
C1142 C1143 1.363 1_655 S
C1142 C1147 1.379 . S
C1142 N1149 1.356 . S
C1143 C1142 1.363 1_455 S
C1143 C1146 1.363 . S
N1144 C1146 1.356 . S
N1144 H1156 0.984 . S
N1144 H1157 0.985 . S
N1145 C1147 1.356 . S
N1145 H1150 0.984 . S
N1145 H1151 0.985 . S
C1146 C1140 1.379 . S
C1146 C1143 1.363 . S
C1146 N1144 1.356 . S
C1147 C1141 1.363 . S
C1147 C1142 1.379 . S
C1147 N1145 1.356 . S
N1148 C1140 1.356 . S
N1148 H1154 0.984 . S
N1148 H1155 0.984 . S
N1149 C1142 1.356 . S
N1149 H1152 0.984 . S
N1149 H1153 0.985 . S
H1150 N1145 0.984 . S
H1151 N1145 0.985 . S
H1152 N1149 0.984 . S
H1153 N1149 0.985 . S
H1154 N1148 0.984 . S
H1155 N1148 0.984 . S
H1156 N1144 0.984 . S
H1157 N1144 0.985 . S
C1158 C1159 1.363 1_565 S
C1158 C1164 1.379 . S
C1158 N1166 1.355 1_565 S
C1159 C1158 1.363 1_545 S
C1159 C1165 1.363 . S
C1160 C1161 1.363 1_545 S
C1160 C1165 1.379 . S
C1160 N1167 1.355 1_545 S
C1161 C1160 1.363 1_565 S
C1161 C1164 1.363 . S
N1162 C1164 1.356 . S
N1162 H1174 0.984 . S
N1162 H1175 0.985 . S
N1163 C1165 1.356 . S
N1163 H1168 0.984 . S
N1163 H1169 0.985 . S
C1164 C1158 1.379 . S
C1164 C1161 1.363 . S
C1164 N1162 1.356 . S
C1165 C1159 1.363 . S
C1165 C1160 1.379 . S
C1165 N1163 1.356 . S
N1166 C1158 1.355 1_545 S
N1166 H1172 0.976 1_545 S
N1166 H1173 0.995 . S
N1167 C1160 1.355 1_565 S
N1167 H1170 0.995 . S
N1167 H1171 0.976 1_565 S
H1168 N1163 0.984 . S
H1169 N1163 0.985 . S
H1170 N1167 0.995 . S
H1171 N1167 0.976 1_545 S
H1172 N1166 0.976 1_565 S
H1173 N1166 0.995 . S
H1174 N1162 0.984 . S
H1175 N1162 0.985 . S
C1176 C1177 1.363 . S
C1176 C1182 1.387 . S
C1176 N1184 1.356 . S
C1177 C1176 1.363 . S
C1177 C1183 1.355 1_455 S
C1178 C1179 1.363 . S
C1178 C1183 1.387 . S
C1178 N1185 1.356 . S
C1179 C1178 1.363 . S
C1179 C1182 1.355 1_655 S
N1180 C1182 1.354 1_655 S
N1180 H1192 0.984 1_655 S
N1180 H1193 0.985 . S
N1181 C1183 1.354 1_455 S
N1181 H1186 0.984 . S
N1181 H1187 0.985 1_455 S
C1182 C1176 1.387 . S
C1182 C1179 1.355 1_455 S
C1182 N1180 1.354 1_455 S
C1183 C1177 1.355 1_655 S
C1183 C1178 1.387 . S
C1183 N1181 1.354 1_655 S
N1184 C1176 1.356 . S
N1184 H1190 0.984 . S
N1184 H1191 0.984 . S
N1185 C1178 1.356 . S
N1185 H1188 0.984 . S
N1185 H1189 0.985 . S
H1186 N1181 0.984 . S
H1187 N1181 0.985 1_655 S
H1188 N1185 0.984 . S
H1189 N1185 0.985 . S
H1190 N1184 0.984 . S
H1191 N1184 0.984 . S
H1192 N1180 0.984 1_455 S
H1193 N1180 0.985 . S
C1194 C1195 1.363 1_545 S
C1194 C1200 1.379 . S
C1194 N1202 1.356 . S
C1195 C1194 1.363 1_565 S
C1195 C1201 1.363 . S
C1196 C1197 1.363 1_565 S
C1196 C1201 1.379 . S
C1196 N1203 1.356 . S
C1197 C1196 1.363 1_545 S
C1197 C1200 1.363 . S
N1198 C1200 1.356 . S
N1198 H1210 0.984 . S
N1198 H1211 0.985 . S
N1199 C1201 1.356 . S
N1199 H1204 0.984 . S
N1199 H1205 0.985 . S
C1200 C1194 1.379 . S
C1200 C1197 1.363 . S
C1200 N1198 1.356 . S
C1201 C1195 1.363 . S
C1201 C1196 1.379 . S
C1201 N1199 1.356 . S
N1202 C1194 1.356 . S
N1202 H1208 0.984 . S
N1202 H1209 0.984 . S
N1203 C1196 1.356 . S
N1203 H1206 0.984 . S
N1203 H1207 0.985 . S
H1204 N1199 0.984 . S
H1205 N1199 0.985 . S
H1206 N1203 0.984 . S
H1207 N1203 0.985 . S
H1208 N1202 0.984 . S
H1209 N1202 0.984 . S
H1210 N1198 0.984 . S
H1211 N1198 0.985 . S
C1212 C1213 1.363 1_655 S
C1212 C1218 1.379 . S
C1212 N1220 1.356 . S
C1213 C1212 1.363 1_455 S
C1213 C1219 1.363 . S
C1214 C1215 1.363 1_455 S
C1214 C1219 1.379 . S
C1214 N1221 1.356 . S
C1215 C1214 1.363 1_655 S
C1215 C1218 1.363 . S
N1216 C1218 1.356 . S
N1216 H1228 0.984 . S
N1216 H1229 0.985 . S
N1217 C1219 1.356 . S
N1217 H1222 0.984 . S
N1217 H1223 0.985 . S
C1218 C1212 1.379 . S
C1218 C1215 1.363 . S
C1218 N1216 1.356 . S
C1219 C1213 1.363 . S
C1219 C1214 1.379 . S
C1219 N1217 1.356 . S
N1220 C1212 1.356 . S
N1220 H1226 0.984 . S
N1220 H1227 0.984 . S
N1221 C1214 1.356 . S
N1221 H1224 0.984 . S
N1221 H1225 0.985 . S
H1222 N1217 0.984 . S
H1223 N1217 0.985 . S
H1224 N1221 0.984 . S
H1225 N1221 0.985 . S
H1226 N1220 0.984 . S
H1227 N1220 0.984 . S
H1228 N1216 0.984 . S
H1229 N1216 0.985 . S
C1230 C1231 1.363 . S
C1230 C1236 1.379 . S
C1230 N1238 1.356 . S
C1231 C1230 1.363 . S
C1231 C1237 1.363 1_545 S
C1232 C1233 1.363 . S
C1232 C1237 1.379 . S
C1232 N1239 1.356 . S
C1233 C1232 1.363 . S
C1233 C1236 1.363 1_565 S
N1234 C1236 1.356 . S
N1234 H1246 0.984 . S
N1234 H1247 0.985 . S
N1235 C1237 1.356 . S
N1235 H1240 0.984 . S
N1235 H1241 0.985 . S
C1236 C1230 1.379 . S
C1236 C1233 1.363 1_545 S
C1236 N1234 1.356 . S
C1237 C1231 1.363 1_565 S
C1237 C1232 1.379 . S
C1237 N1235 1.356 . S
N1238 C1230 1.356 . S
N1238 H1244 0.984 . S
N1238 H1245 0.984 . S
N1239 C1232 1.356 . S
N1239 H1242 0.984 . S
N1239 H1243 0.985 . S
H1240 N1235 0.984 . S
H1241 N1235 0.985 . S
H1242 N1239 0.984 . S
H1243 N1239 0.985 . S
H1244 N1238 0.984 . S
H1245 N1238 0.984 . S
H1246 N1234 0.984 . S
H1247 N1234 0.985 . S
C1248 C1249 1.354 1_554 S
C1248 C1254 1.387 . S
C1248 N1256 1.354 1_554 S
C1249 C1248 1.354 1_556 S
C1249 C1255 1.363 . S
C1250 C1251 1.354 1_556 S
C1250 C1255 1.387 . S
C1250 N1257 1.354 1_556 S
C1251 C1250 1.354 1_554 S
C1251 C1254 1.363 . S
N1252 C1254 1.356 . S
N1252 H1264 0.984 . S
N1252 H1265 0.985 . S
N1253 C1255 1.356 . S
N1253 H1258 0.984 . S
N1253 H1259 0.985 . S
C1254 C1248 1.387 . S
C1254 C1251 1.363 . S
C1254 N1252 1.356 . S
C1255 C1249 1.363 . S
C1255 C1250 1.387 . S
C1255 N1253 1.356 . S
N1256 C1248 1.354 1_556 S
N1256 H1262 0.984 1_556 S
N1256 H1263 0.984 . S
N1257 C1250 1.354 1_554 S
N1257 H1260 0.984 . S
N1257 H1261 0.985 1_554 S
H1258 N1253 0.984 . S
H1259 N1253 0.985 . S
H1260 N1257 0.984 . S
H1261 N1257 0.985 1_556 S
H1262 N1256 0.984 1_554 S
H1263 N1256 0.984 . S
H1264 N1252 0.984 . S
H1265 N1252 0.985 . S
C1266 C1267 1.363 . S
C1266 C1272 1.379 . S
C1266 N1274 1.356 . S
C1267 C1266 1.363 . S
C1267 C1273 1.363 1_554 S
C1268 C1269 1.363 . S
C1268 C1273 1.379 . S
C1268 N1275 1.356 . S
C1269 C1268 1.363 . S
C1269 C1272 1.363 1_556 S
N1270 C1272 1.356 . S
N1270 H1282 0.984 . S
N1270 H1283 0.985 . S
N1271 C1273 1.356 . S
N1271 H1276 0.984 . S
N1271 H1277 0.985 . S
C1272 C1266 1.379 . S
C1272 C1269 1.363 1_554 S
C1272 N1270 1.356 . S
C1273 C1267 1.363 1_556 S
C1273 C1268 1.379 . S
C1273 N1271 1.356 . S
N1274 C1266 1.356 . S
N1274 H1280 0.984 . S
N1274 H1281 0.984 . S
N1275 C1268 1.356 . S
N1275 H1278 0.984 . S
N1275 H1279 0.985 . S
H1276 N1271 0.984 . S
H1277 N1271 0.985 . S
H1278 N1275 0.984 . S
H1279 N1275 0.985 . S
H1280 N1274 0.984 . S
H1281 N1274 0.984 . S
H1282 N1270 0.984 . S
H1283 N1270 0.985 . S
C1284 C1285 1.363 . S
C1284 C1290 1.379 . S
C1284 N1292 1.356 . S
C1285 C1284 1.363 . S
C1285 C1291 1.363 1_554 S
C1286 C1287 1.363 . S
C1286 C1291 1.379 . S
C1286 N1293 1.356 . S
C1287 C1286 1.363 . S
C1287 C1290 1.363 1_556 S
N1288 C1290 1.356 . S
N1288 H1300 0.984 . S
N1288 H1301 0.972 1_554 S
N1289 C1291 1.356 . S
N1289 H1294 0.972 1_556 S
N1289 H1295 0.985 . S
C1290 C1284 1.379 . S
C1290 C1287 1.363 1_554 S
C1290 N1288 1.356 . S
C1291 C1285 1.363 1_556 S
C1291 C1286 1.379 . S
C1291 N1289 1.356 . S
N1292 C1284 1.356 . S
N1292 H1298 0.984 . S
N1292 H1299 0.984 . S
N1293 C1286 1.356 . S
N1293 H1296 0.984 . S
N1293 H1297 0.985 . S
H1294 N1289 0.972 1_554 S
H1295 N1289 0.985 . S
H1296 N1293 0.984 . S
H1297 N1293 0.985 . S
H1298 N1292 0.984 . S
H1299 N1292 0.984 . S
H1300 N1288 0.984 . S
H1301 N1288 0.972 1_556 S
C1302 C1303 1.363 1_554 S
C1302 C1308 1.379 . S
C1302 N1310 1.356 . S
C1303 C1302 1.363 1_556 S
C1303 C1309 1.363 . S
C1304 C1305 1.363 1_556 S
C1304 C1309 1.379 . S
C1304 N1311 1.356 . S
C1305 C1304 1.363 1_554 S
C1305 C1308 1.363 . S
N1306 C1308 1.356 . S
N1306 H1318 0.984 . S
N1306 H1319 0.985 . S
N1307 C1309 1.356 . S
N1307 H1312 0.984 . S
N1307 H1313 0.985 . S
C1308 C1302 1.379 . S
C1308 C1305 1.363 . S
C1308 N1306 1.356 . S
C1309 C1303 1.363 . S
C1309 C1304 1.379 . S
C1309 N1307 1.356 . S
N1310 C1302 1.356 . S
N1310 H1316 0.984 . S
N1310 H1317 0.984 . S
N1311 C1304 1.356 . S
N1311 H1314 0.984 . S
N1311 H1315 0.985 . S
H1312 N1307 0.984 . S
H1313 N1307 0.985 . S
H1314 N1311 0.984 . S
H1315 N1311 0.985 . S
H1316 N1310 0.984 . S
H1317 N1310 0.984 . S
H1318 N1306 0.984 . S
H1319 N1306 0.985 . S
C1320 C1321 1.363 . S
C1320 C1326 1.379 . S
C1320 N1328 1.356 . S
C1321 C1320 1.363 . S
C1321 C1327 1.363 . S
C1322 C1323 1.363 . S
C1322 C1327 1.379 . S
C1322 N1329 1.356 . S
C1323 C1322 1.363 . S
C1323 C1326 1.363 . S
N1324 C1326 1.356 . S
N1324 H1336 0.984 . S
N1324 H1337 0.985 . S
N1325 C1327 1.356 . S
N1325 H1330 0.984 . S
N1325 H1331 0.985 . S
C1326 C1320 1.379 . S
C1326 C1323 1.363 . S
C1326 N1324 1.356 . S
C1327 C1321 1.363 . S
C1327 C1322 1.379 . S
C1327 N1325 1.356 . S
N1328 C1320 1.356 . S
N1328 H1334 0.984 . S
N1328 H1335 0.984 . S
N1329 C1322 1.356 . S
N1329 H1332 0.984 . S
N1329 H1333 0.985 . S
H1330 N1325 0.984 . S
H1331 N1325 0.985 . S
H1332 N1329 0.984 . S
H1333 N1329 0.985 . S
H1334 N1328 0.984 . S
H1335 N1328 0.984 . S
H1336 N1324 0.984 . S
H1337 N1324 0.985 . S
C1338 C1339 1.363 . S
C1338 C1344 1.379 . S
C1338 N1346 1.356 . S
C1339 C1338 1.363 . S
C1339 C1345 1.363 . S
C1340 C1341 1.363 . S
C1340 C1345 1.379 . S
C1340 N1347 1.356 . S
C1341 C1340 1.363 . S
C1341 C1344 1.363 . S
N1342 C1344 1.356 . S
N1342 H1354 0.984 . S
N1342 H1355 0.985 . S
N1343 C1345 1.356 . S
N1343 H1348 0.984 . S
N1343 H1349 0.985 . S
C1344 C1338 1.379 . S
C1344 C1341 1.363 . S
C1344 N1342 1.356 . S
C1345 C1339 1.363 . S
C1345 C1340 1.379 . S
C1345 N1343 1.356 . S
N1346 C1338 1.356 . S
N1346 H1352 0.984 . S
N1346 H1353 0.984 . S
N1347 C1340 1.356 . S
N1347 H1350 0.984 . S
N1347 H1351 0.985 . S
H1348 N1343 0.984 . S
H1349 N1343 0.985 . S
H1350 N1347 0.984 . S
H1351 N1347 0.985 . S
H1352 N1346 0.984 . S
H1353 N1346 0.984 . S
H1354 N1342 0.984 . S
H1355 N1342 0.985 . S
C1356 C1357 1.363 . S
C1356 C1362 1.379 . S
C1356 N1364 1.356 . S
C1357 C1356 1.363 . S
C1357 C1363 1.363 . S
C1358 C1359 1.363 . S
C1358 C1363 1.379 . S
C1358 N1365 1.356 . S
C1359 C1358 1.363 . S
C1359 C1362 1.363 . S
N1360 C1362 1.356 . S
N1360 H1372 0.984 . S
N1360 H1373 0.985 . S
N1361 C1363 1.356 . S
N1361 H1366 0.984 . S
N1361 H1367 0.985 . S
C1362 C1356 1.379 . S
C1362 C1359 1.363 . S
C1362 N1360 1.356 . S
C1363 C1357 1.363 . S
C1363 C1358 1.379 . S
C1363 N1361 1.356 . S
N1364 C1356 1.356 . S
N1364 H1370 0.984 . S
N1364 H1371 0.984 . S
N1365 C1358 1.356 . S
N1365 H1368 0.984 . S
N1365 H1369 0.985 . S
H1366 N1361 0.984 . S
H1367 N1361 0.985 . S
H1368 N1365 0.984 . S
H1369 N1365 0.985 . S
H1370 N1364 0.984 . S
H1371 N1364 0.984 . S
H1372 N1360 0.984 . S
H1373 N1360 0.985 . S
C1374 C1375 1.363 . S
C1374 C1380 1.379 . S
C1374 N1382 1.356 . S
C1375 C1374 1.363 . S
C1375 C1381 1.363 . S
C1376 C1377 1.363 . S
C1376 C1381 1.379 . S
C1376 N1383 1.356 . S
C1377 C1376 1.363 . S
C1377 C1380 1.363 . S
N1378 C1380 1.356 . S
N1378 H1390 0.984 . S
N1378 H1391 0.985 . S
N1379 C1381 1.356 . S
N1379 H1384 0.984 . S
N1379 H1385 0.985 . S
C1380 C1374 1.379 . S
C1380 C1377 1.363 . S
C1380 N1378 1.356 . S
C1381 C1375 1.363 . S
C1381 C1376 1.379 . S
C1381 N1379 1.356 . S
N1382 C1374 1.356 . S
N1382 H1388 0.984 . S
N1382 H1389 0.984 . S
N1383 C1376 1.356 . S
N1383 H1386 0.984 . S
N1383 H1387 0.985 . S
H1384 N1379 0.984 . S
H1385 N1379 0.985 . S
H1386 N1383 0.984 . S
H1387 N1383 0.985 . S
H1388 N1382 0.984 . S
H1389 N1382 0.984 . S
H1390 N1378 0.984 . S
H1391 N1378 0.985 . S
C1392 C1393 1.363 . S
C1392 C1398 1.379 . S
C1392 N1400 1.356 . S
C1393 C1392 1.363 . S
C1393 C1399 1.363 . S
C1394 C1395 1.363 . S
C1394 C1399 1.379 . S
C1394 N1401 1.356 . S
C1395 C1394 1.363 . S
C1395 C1398 1.363 . S
N1396 C1398 1.356 . S
N1396 H1408 0.984 . S
N1396 H1409 0.985 . S
N1397 C1399 1.356 . S
N1397 H1402 0.984 . S
N1397 H1403 0.985 . S
C1398 C1392 1.379 . S
C1398 C1395 1.363 . S
C1398 N1396 1.356 . S
C1399 C1393 1.363 . S
C1399 C1394 1.379 . S
C1399 N1397 1.356 . S
N1400 C1392 1.356 . S
N1400 H1406 0.984 . S
N1400 H1407 0.984 . S
N1401 C1394 1.356 . S
N1401 H1404 0.984 . S
N1401 H1405 0.985 . S
H1402 N1397 0.984 . S
H1403 N1397 0.985 . S
H1404 N1401 0.984 . S
H1405 N1401 0.985 . S
H1406 N1400 0.984 . S
H1407 N1400 0.984 . S
H1408 N1396 0.984 . S
H1409 N1396 0.985 . S
C1410 C1411 1.363 . S
C1410 C1416 1.379 . S
C1410 N1418 1.356 . S
C1411 C1410 1.363 . S
C1411 C1417 1.363 . S
C1412 C1413 1.363 . S
C1412 C1417 1.379 . S
C1412 N1419 1.356 . S
C1413 C1412 1.363 . S
C1413 C1416 1.363 . S
N1414 C1416 1.356 . S
N1414 H1426 0.984 . S
N1414 H1427 0.985 . S
N1415 C1417 1.356 . S
N1415 H1420 0.984 . S
N1415 H1421 0.985 . S
C1416 C1410 1.379 . S
C1416 C1413 1.363 . S
C1416 N1414 1.356 . S
C1417 C1411 1.363 . S
C1417 C1412 1.379 . S
C1417 N1415 1.356 . S
N1418 C1410 1.356 . S
N1418 H1424 0.984 . S
N1418 H1425 0.984 . S
N1419 C1412 1.356 . S
N1419 H1422 0.984 . S
N1419 H1423 0.985 . S
H1420 N1415 0.984 . S
H1421 N1415 0.985 . S
H1422 N1419 0.984 . S
H1423 N1419 0.985 . S
H1424 N1418 0.984 . S
H1425 N1418 0.984 . S
H1426 N1414 0.984 . S
H1427 N1414 0.985 . S
C1428 C1429 1.363 . S
C1428 C1434 1.379 . S
C1428 N1436 1.356 . S
C1429 C1428 1.363 . S
C1429 C1435 1.363 . S
C1430 C1431 1.363 . S
C1430 C1435 1.379 . S
C1430 N1437 1.356 . S
C1431 C1430 1.363 . S
C1431 C1434 1.363 . S
N1432 C1434 1.356 . S
N1432 H1444 0.984 . S
N1432 H1445 0.985 . S
N1433 C1435 1.356 . S
N1433 H1438 0.984 . S
N1433 H1439 0.985 . S
C1434 C1428 1.379 . S
C1434 C1431 1.363 . S
C1434 N1432 1.356 . S
C1435 C1429 1.363 . S
C1435 C1430 1.379 . S
C1435 N1433 1.356 . S
N1436 C1428 1.356 . S
N1436 H1442 0.984 . S
N1436 H1443 0.984 . S
N1437 C1430 1.356 . S
N1437 H1440 0.984 . S
N1437 H1441 0.985 . S
H1438 N1433 0.984 . S
H1439 N1433 0.985 . S
H1440 N1437 0.984 . S
H1441 N1437 0.985 . S
H1442 N1436 0.984 . S
H1443 N1436 0.984 . S
H1444 N1432 0.984 . S
H1445 N1432 0.985 . S
C1446 C1447 1.363 . S
C1446 C1452 1.379 . S
C1446 N1454 1.356 . S
C1447 C1446 1.363 . S
C1447 C1453 1.363 . S
C1448 C1449 1.363 . S
C1448 C1453 1.379 . S
C1448 N1455 1.356 . S
C1449 C1448 1.363 . S
C1449 C1452 1.363 . S
N1450 C1452 1.356 . S
N1450 H1462 0.984 . S
N1450 H1463 0.985 . S
N1451 C1453 1.356 . S
N1451 H1456 0.984 . S
N1451 H1457 0.985 . S
C1452 C1446 1.379 . S
C1452 C1449 1.363 . S
C1452 N1450 1.356 . S
C1453 C1447 1.363 . S
C1453 C1448 1.379 . S
C1453 N1451 1.356 . S
N1454 C1446 1.356 . S
N1454 H1460 0.984 . S
N1454 H1461 0.984 . S
N1455 C1448 1.356 . S
N1455 H1458 0.984 . S
N1455 H1459 0.985 . S
H1456 N1451 0.984 . S
H1457 N1451 0.985 . S
H1458 N1455 0.984 . S
H1459 N1455 0.985 . S
H1460 N1454 0.984 . S
H1461 N1454 0.984 . S
H1462 N1450 0.984 . S
H1463 N1450 0.985 . S
C1464 C1465 1.363 . S
C1464 C1470 1.379 . S
C1464 N1472 1.356 . S
C1465 C1464 1.363 . S
C1465 C1471 1.363 . S
C1466 C1467 1.363 . S
C1466 C1471 1.379 . S
C1466 N1473 1.356 . S
C1467 C1466 1.363 . S
C1467 C1470 1.363 . S
N1468 C1470 1.356 . S
N1468 H1480 0.984 . S
N1468 H1481 0.985 . S
N1469 C1471 1.356 . S
N1469 H1474 0.984 . S
N1469 H1475 0.985 . S
C1470 C1464 1.379 . S
C1470 C1467 1.363 . S
C1470 N1468 1.356 . S
C1471 C1465 1.363 . S
C1471 C1466 1.379 . S
C1471 N1469 1.356 . S
N1472 C1464 1.356 . S
N1472 H1478 0.984 . S
N1472 H1479 0.984 . S
N1473 C1466 1.356 . S
N1473 H1476 0.984 . S
N1473 H1477 0.985 . S
H1474 N1469 0.984 . S
H1475 N1469 0.985 . S
H1476 N1473 0.984 . S
H1477 N1473 0.985 . S
H1478 N1472 0.984 . S
H1479 N1472 0.984 . S
H1480 N1468 0.984 . S
H1481 N1468 0.985 . S
C1482 C1483 1.363 . S
C1482 C1488 1.379 . S
C1482 N1490 1.356 . S
C1483 C1482 1.363 . S
C1483 C1489 1.363 . S
C1484 C1485 1.363 . S
C1484 C1489 1.379 . S
C1484 N1491 1.356 . S
C1485 C1484 1.363 . S
C1485 C1488 1.363 . S
N1486 C1488 1.356 . S
N1486 H1498 0.984 . S
N1486 H1499 0.985 . S
N1487 C1489 1.356 . S
N1487 H1492 0.984 . S
N1487 H1493 0.985 . S
C1488 C1482 1.379 . S
C1488 C1485 1.363 . S
C1488 N1486 1.356 . S
C1489 C1483 1.363 . S
C1489 C1484 1.379 . S
C1489 N1487 1.356 . S
N1490 C1482 1.356 . S
N1490 H1496 0.984 . S
N1490 H1497 0.984 . S
N1491 C1484 1.356 . S
N1491 H1494 0.984 . S
N1491 H1495 0.985 . S
H1492 N1487 0.984 . S
H1493 N1487 0.985 . S
H1494 N1491 0.984 . S
H1495 N1491 0.985 . S
H1496 N1490 0.984 . S
H1497 N1490 0.984 . S
H1498 N1486 0.984 . S
H1499 N1486 0.985 . S
C1500 C1501 1.363 . S
C1500 C1506 1.379 . S
C1500 N1508 1.356 . S
C1501 C1500 1.363 . S
C1501 C1507 1.363 . S
C1502 C1503 1.363 . S
C1502 C1507 1.379 . S
C1502 N1509 1.356 . S
C1503 C1502 1.363 . S
C1503 C1506 1.363 . S
N1504 C1506 1.356 . S
N1504 H1516 0.984 . S
N1504 H1517 0.985 . S
N1505 C1507 1.356 . S
N1505 H1510 0.984 . S
N1505 H1511 0.985 . S
C1506 C1500 1.379 . S
C1506 C1503 1.363 . S
C1506 N1504 1.356 . S
C1507 C1501 1.363 . S
C1507 C1502 1.379 . S
C1507 N1505 1.356 . S
N1508 C1500 1.356 . S
N1508 H1514 0.984 . S
N1508 H1515 0.984 . S
N1509 C1502 1.356 . S
N1509 H1512 0.984 . S
N1509 H1513 0.985 . S
H1510 N1505 0.984 . S
H1511 N1505 0.985 . S
H1512 N1509 0.984 . S
H1513 N1509 0.985 . S
H1514 N1508 0.984 . S
H1515 N1508 0.984 . S
H1516 N1504 0.984 . S
H1517 N1504 0.985 . S
C1518 C1519 1.363 . S
C1518 C1524 1.379 . S
C1518 N1526 1.356 . S
C1519 C1518 1.363 . S
C1519 C1525 1.363 . S
C1520 C1521 1.363 . S
C1520 C1525 1.379 . S
C1520 N1527 1.356 . S
C1521 C1520 1.363 . S
C1521 C1524 1.363 . S
N1522 C1524 1.356 . S
N1522 H1534 0.984 . S
N1522 H1535 0.985 . S
N1523 C1525 1.356 . S
N1523 H1528 0.984 . S
N1523 H1529 0.985 . S
C1524 C1518 1.379 . S
C1524 C1521 1.363 . S
C1524 N1522 1.356 . S
C1525 C1519 1.363 . S
C1525 C1520 1.379 . S
C1525 N1523 1.356 . S
N1526 C1518 1.356 . S
N1526 H1532 0.984 . S
N1526 H1533 0.984 . S
N1527 C1520 1.356 . S
N1527 H1530 0.984 . S
N1527 H1531 0.985 . S
H1528 N1523 0.984 . S
H1529 N1523 0.985 . S
H1530 N1527 0.984 . S
H1531 N1527 0.985 . S
H1532 N1526 0.984 . S
H1533 N1526 0.984 . S
H1534 N1522 0.984 . S
H1535 N1522 0.985 . S
C1536 C1537 1.363 . S
C1536 C1542 1.379 . S
C1536 N1544 1.356 . S
C1537 C1536 1.363 . S
C1537 C1543 1.363 . S
C1538 C1539 1.363 . S
C1538 C1543 1.379 . S
C1538 N1545 1.356 . S
C1539 C1538 1.363 . S
C1539 C1542 1.363 . S
N1540 C1542 1.356 . S
N1540 H1552 0.984 . S
N1540 H1553 0.985 . S
N1541 C1543 1.356 . S
N1541 H1546 0.984 . S
N1541 H1547 0.985 . S
C1542 C1536 1.379 . S
C1542 C1539 1.363 . S
C1542 N1540 1.356 . S
C1543 C1537 1.363 . S
C1543 C1538 1.379 . S
C1543 N1541 1.356 . S
N1544 C1536 1.356 . S
N1544 H1550 0.984 . S
N1544 H1551 0.984 . S
N1545 C1538 1.356 . S
N1545 H1548 0.984 . S
N1545 H1549 0.985 . S
H1546 N1541 0.984 . S
H1547 N1541 0.985 . S
H1548 N1545 0.984 . S
H1549 N1545 0.985 . S
H1550 N1544 0.984 . S
H1551 N1544 0.984 . S
H1552 N1540 0.984 . S
H1553 N1540 0.985 . S
C1554 C1555 1.363 . S
C1554 C1560 1.379 . S
C1554 N1562 1.356 . S
C1555 C1554 1.363 . S
C1555 C1561 1.363 . S
C1556 C1557 1.363 . S
C1556 C1561 1.379 . S
C1556 N1563 1.356 . S
C1557 C1556 1.363 . S
C1557 C1560 1.363 . S
N1558 C1560 1.356 . S
N1558 H1570 0.984 . S
N1558 H1571 0.985 . S
N1559 C1561 1.356 . S
N1559 H1564 0.984 . S
N1559 H1565 0.985 . S
C1560 C1554 1.379 . S
C1560 C1557 1.363 . S
C1560 N1558 1.356 . S
C1561 C1555 1.363 . S
C1561 C1556 1.379 . S
C1561 N1559 1.356 . S
N1562 C1554 1.356 . S
N1562 H1568 0.984 . S
N1562 H1569 0.984 . S
N1563 C1556 1.356 . S
N1563 H1566 0.984 . S
N1563 H1567 0.985 . S
H1564 N1559 0.984 . S
H1565 N1559 0.985 . S
H1566 N1563 0.984 . S
H1567 N1563 0.985 . S
H1568 N1562 0.984 . S
H1569 N1562 0.984 . S
H1570 N1558 0.984 . S
H1571 N1558 0.985 . S
C1572 C1573 1.363 . S
C1572 C1578 1.379 . S
C1572 N1580 1.356 . S
C1573 C1572 1.363 . S
C1573 C1579 1.363 . S
C1574 C1575 1.363 . S
C1574 C1579 1.379 . S
C1574 N1581 1.356 . S
C1575 C1574 1.363 . S
C1575 C1578 1.363 . S
N1576 C1578 1.356 . S
N1576 H1588 0.984 . S
N1576 H1589 0.985 . S
N1577 C1579 1.356 . S
N1577 H1582 0.984 . S
N1577 H1583 0.985 . S
C1578 C1572 1.379 . S
C1578 C1575 1.363 . S
C1578 N1576 1.356 . S
C1579 C1573 1.363 . S
C1579 C1574 1.379 . S
C1579 N1577 1.356 . S
N1580 C1572 1.356 . S
N1580 H1586 0.984 . S
N1580 H1587 0.984 . S
N1581 C1574 1.356 . S
N1581 H1584 0.984 . S
N1581 H1585 0.985 . S
H1582 N1577 0.984 . S
H1583 N1577 0.985 . S
H1584 N1581 0.984 . S
H1585 N1581 0.985 . S
H1586 N1580 0.984 . S
H1587 N1580 0.984 . S
H1588 N1576 0.984 . S
H1589 N1576 0.985 . S
C1590 C1591 1.363 . S
C1590 C1596 1.379 . S
C1590 N1598 1.356 . S
C1591 C1590 1.363 . S
C1591 C1597 1.363 . S
C1592 C1593 1.363 . S
C1592 C1597 1.379 . S
C1592 N1599 1.356 . S
C1593 C1592 1.363 . S
C1593 C1596 1.363 . S
N1594 C1596 1.356 . S
N1594 H1606 0.984 . S
N1594 H1607 0.985 . S
N1595 C1597 1.356 . S
N1595 H1600 0.984 . S
N1595 H1601 0.985 . S
C1596 C1590 1.379 . S
C1596 C1593 1.363 . S
C1596 N1594 1.356 . S
C1597 C1591 1.363 . S
C1597 C1592 1.379 . S
C1597 N1595 1.356 . S
N1598 C1590 1.356 . S
N1598 H1604 0.984 . S
N1598 H1605 0.984 . S
N1599 C1592 1.356 . S
N1599 H1602 0.984 . S
N1599 H1603 0.985 . S
H1600 N1595 0.984 . S
H1601 N1595 0.985 . S
H1602 N1599 0.984 . S
H1603 N1599 0.985 . S
H1604 N1598 0.984 . S
H1605 N1598 0.984 . S
H1606 N1594 0.984 . S
H1607 N1594 0.985 . S
C1608 C1609 1.363 . S
C1608 C1614 1.379 . S
C1608 N1616 1.356 . S
C1609 C1608 1.363 . S
C1609 C1615 1.363 . S
C1610 C1611 1.363 . S
C1610 C1615 1.379 . S
C1610 N1617 1.356 . S
C1611 C1610 1.363 . S
C1611 C1614 1.363 . S
N1612 C1614 1.356 . S
N1612 H1624 0.984 . S
N1612 H1625 0.985 . S
N1613 C1615 1.356 . S
N1613 H1618 0.984 . S
N1613 H1619 0.985 . S
C1614 C1608 1.379 . S
C1614 C1611 1.363 . S
C1614 N1612 1.356 . S
C1615 C1609 1.363 . S
C1615 C1610 1.379 . S
C1615 N1613 1.356 . S
N1616 C1608 1.356 . S
N1616 H1622 0.984 . S
N1616 H1623 0.984 . S
N1617 C1610 1.356 . S
N1617 H1620 0.984 . S
N1617 H1621 0.985 . S
H1618 N1613 0.984 . S
H1619 N1613 0.985 . S
H1620 N1617 0.984 . S
H1621 N1617 0.985 . S
H1622 N1616 0.984 . S
H1623 N1616 0.984 . S
H1624 N1612 0.984 . S
H1625 N1612 0.985 . S
C1626 C1627 1.363 . S
C1626 C1632 1.379 . S
C1626 N1634 1.356 . S
C1627 C1626 1.363 . S
C1627 C1633 1.363 . S
C1628 C1629 1.363 . S
C1628 C1633 1.379 . S
C1628 N1635 1.356 . S
C1629 C1628 1.363 . S
C1629 C1632 1.363 . S
N1630 C1632 1.356 . S
N1630 H1642 0.984 . S
N1630 H1643 0.985 . S
N1631 C1633 1.356 . S
N1631 H1636 0.984 . S
N1631 H1637 0.985 . S
C1632 C1626 1.379 . S
C1632 C1629 1.363 . S
C1632 N1630 1.356 . S
C1633 C1627 1.363 . S
C1633 C1628 1.379 . S
C1633 N1631 1.356 . S
N1634 C1626 1.356 . S
N1634 H1640 0.984 . S
N1634 H1641 0.984 . S
N1635 C1628 1.356 . S
N1635 H1638 0.984 . S
N1635 H1639 0.985 . S
H1636 N1631 0.984 . S
H1637 N1631 0.985 . S
H1638 N1635 0.984 . S
H1639 N1635 0.985 . S
H1640 N1634 0.984 . S
H1641 N1634 0.984 . S
H1642 N1630 0.984 . S
H1643 N1630 0.985 . S
C1644 C1645 1.363 . S
C1644 C1650 1.379 . S
C1644 N1652 1.356 . S
C1645 C1644 1.363 . S
C1645 C1651 1.363 . S
C1646 C1647 1.363 . S
C1646 C1651 1.379 . S
C1646 N1653 1.356 . S
C1647 C1646 1.363 . S
C1647 C1650 1.363 . S
N1648 C1650 1.356 . S
N1648 H1660 0.984 . S
N1648 H1661 0.985 . S
N1649 C1651 1.356 . S
N1649 H1654 0.984 . S
N1649 H1655 0.985 . S
C1650 C1644 1.379 . S
C1650 C1647 1.363 . S
C1650 N1648 1.356 . S
C1651 C1645 1.363 . S
C1651 C1646 1.379 . S
C1651 N1649 1.356 . S
N1652 C1644 1.356 . S
N1652 H1658 0.984 . S
N1652 H1659 0.984 . S
N1653 C1646 1.356 . S
N1653 H1656 0.984 . S
N1653 H1657 0.985 . S
H1654 N1649 0.984 . S
H1655 N1649 0.985 . S
H1656 N1653 0.984 . S
H1657 N1653 0.985 . S
H1658 N1652 0.984 . S
H1659 N1652 0.984 . S
H1660 N1648 0.984 . S
H1661 N1648 0.985 . S
C1662 C1663 1.363 . S
C1662 C1668 1.379 . S
C1662 N1670 1.356 . S
C1663 C1662 1.363 . S
C1663 C1669 1.363 . S
C1664 C1665 1.363 . S
C1664 C1669 1.379 . S
C1664 N1671 1.356 . S
C1665 C1664 1.363 . S
C1665 C1668 1.363 . S
N1666 C1668 1.356 . S
N1666 H1678 0.984 . S
N1666 H1679 0.985 . S
N1667 C1669 1.356 . S
N1667 H1672 0.984 . S
N1667 H1673 0.985 . S
C1668 C1662 1.379 . S
C1668 C1665 1.363 . S
C1668 N1666 1.356 . S
C1669 C1663 1.363 . S
C1669 C1664 1.379 . S
C1669 N1667 1.356 . S
N1670 C1662 1.356 . S
N1670 H1676 0.984 . S
N1670 H1677 0.984 . S
N1671 C1664 1.356 . S
N1671 H1674 0.984 . S
N1671 H1675 0.985 . S
H1672 N1667 0.984 . S
H1673 N1667 0.985 . S
H1674 N1671 0.984 . S
H1675 N1671 0.985 . S
H1676 N1670 0.984 . S
H1677 N1670 0.984 . S
H1678 N1666 0.984 . S
H1679 N1666 0.985 . S
C1680 C1681 1.363 . S
C1680 C1686 1.379 . S
C1680 N1688 1.356 . S
C1681 C1680 1.363 . S
C1681 C1687 1.363 . S
C1682 C1683 1.363 . S
C1682 C1687 1.379 . S
C1682 N1689 1.356 . S
C1683 C1682 1.363 . S
C1683 C1686 1.363 . S
N1684 C1686 1.356 . S
N1684 H1696 0.984 . S
N1684 H1697 0.985 . S
N1685 C1687 1.356 . S
N1685 H1690 0.984 . S
N1685 H1691 0.985 . S
C1686 C1680 1.379 . S
C1686 C1683 1.363 . S
C1686 N1684 1.356 . S
C1687 C1681 1.363 . S
C1687 C1682 1.379 . S
C1687 N1685 1.356 . S
N1688 C1680 1.356 . S
N1688 H1694 0.984 . S
N1688 H1695 0.984 . S
N1689 C1682 1.356 . S
N1689 H1692 0.984 . S
N1689 H1693 0.985 . S
H1690 N1685 0.984 . S
H1691 N1685 0.985 . S
H1692 N1689 0.984 . S
H1693 N1689 0.985 . S
H1694 N1688 0.984 . S
H1695 N1688 0.984 . S
H1696 N1684 0.984 . S
H1697 N1684 0.985 . S
C1698 C1699 1.363 . S
C1698 C1704 1.379 . S
C1698 N1706 1.356 . S
C1699 C1698 1.363 . S
C1699 C1705 1.363 . S
C1700 C1701 1.363 . S
C1700 C1705 1.379 . S
C1700 N1707 1.356 . S
C1701 C1700 1.363 . S
C1701 C1704 1.363 . S
N1702 C1704 1.356 . S
N1702 H1714 0.984 . S
N1702 H1715 0.985 . S
N1703 C1705 1.356 . S
N1703 H1708 0.984 . S
N1703 H1709 0.985 . S
C1704 C1698 1.379 . S
C1704 C1701 1.363 . S
C1704 N1702 1.356 . S
C1705 C1699 1.363 . S
C1705 C1700 1.379 . S
C1705 N1703 1.356 . S
N1706 C1698 1.356 . S
N1706 H1712 0.984 . S
N1706 H1713 0.984 . S
N1707 C1700 1.356 . S
N1707 H1710 0.984 . S
N1707 H1711 0.985 . S
H1708 N1703 0.984 . S
H1709 N1703 0.985 . S
H1710 N1707 0.984 . S
H1711 N1707 0.985 . S
H1712 N1706 0.984 . S
H1713 N1706 0.984 . S
H1714 N1702 0.984 . S
H1715 N1702 0.985 . S
C1716 C1717 1.363 . S
C1716 C1722 1.379 . S
C1716 N1724 1.356 . S
C1717 C1716 1.363 . S
C1717 C1723 1.363 . S
C1718 C1719 1.363 . S
C1718 C1723 1.379 . S
C1718 N1725 1.356 . S
C1719 C1718 1.363 . S
C1719 C1722 1.363 . S
N1720 C1722 1.356 . S
N1720 H1732 0.984 . S
N1720 H1733 0.985 . S
N1721 C1723 1.356 . S
N1721 H1726 0.984 . S
N1721 H1727 0.985 . S
C1722 C1716 1.379 . S
C1722 C1719 1.363 . S
C1722 N1720 1.356 . S
C1723 C1717 1.363 . S
C1723 C1718 1.379 . S
C1723 N1721 1.356 . S
N1724 C1716 1.356 . S
N1724 H1730 0.984 . S
N1724 H1731 0.984 . S
N1725 C1718 1.356 . S
N1725 H1728 0.984 . S
N1725 H1729 0.985 . S
H1726 N1721 0.984 . S
H1727 N1721 0.985 . S
H1728 N1725 0.984 . S
H1729 N1725 0.985 . S
H1730 N1724 0.984 . S
H1731 N1724 0.984 . S
H1732 N1720 0.984 . S
H1733 N1720 0.985 . S
C1734 C1735 1.363 . S
C1734 C1740 1.379 . S
C1734 N1742 1.356 . S
C1735 C1734 1.363 . S
C1735 C1741 1.363 . S
C1736 C1737 1.363 . S
C1736 C1741 1.379 . S
C1736 N1743 1.356 . S
C1737 C1736 1.363 . S
C1737 C1740 1.363 . S
N1738 C1740 1.356 . S
N1738 H1750 0.984 . S
N1738 H1751 0.985 . S
N1739 C1741 1.356 . S
N1739 H1744 0.984 . S
N1739 H1745 0.985 . S
C1740 C1734 1.379 . S
C1740 C1737 1.363 . S
C1740 N1738 1.356 . S
C1741 C1735 1.363 . S
C1741 C1736 1.379 . S
C1741 N1739 1.356 . S
N1742 C1734 1.356 . S
N1742 H1748 0.984 . S
N1742 H1749 0.984 . S
N1743 C1736 1.356 . S
N1743 H1746 0.984 . S
N1743 H1747 0.985 . S
H1744 N1739 0.984 . S
H1745 N1739 0.985 . S
H1746 N1743 0.984 . S
H1747 N1743 0.985 . S
H1748 N1742 0.984 . S
H1749 N1742 0.984 . S
H1750 N1738 0.984 . S
H1751 N1738 0.985 . S
C1752 C1753 1.363 . S
C1752 C1758 1.379 . S
C1752 N1760 1.356 . S
C1753 C1752 1.363 . S
C1753 C1759 1.363 . S
C1754 C1755 1.363 . S
C1754 C1759 1.379 . S
C1754 N1761 1.356 . S
C1755 C1754 1.363 . S
C1755 C1758 1.363 . S
N1756 C1758 1.356 . S
N1756 H1768 0.984 . S
N1756 H1769 0.985 . S
N1757 C1759 1.356 . S
N1757 H1762 0.984 . S
N1757 H1763 0.985 . S
C1758 C1752 1.379 . S
C1758 C1755 1.363 . S
C1758 N1756 1.356 . S
C1759 C1753 1.363 . S
C1759 C1754 1.379 . S
C1759 N1757 1.356 . S
N1760 C1752 1.356 . S
N1760 H1766 0.984 . S
N1760 H1767 0.984 . S
N1761 C1754 1.356 . S
N1761 H1764 0.984 . S
N1761 H1765 0.985 . S
H1762 N1757 0.984 . S
H1763 N1757 0.985 . S
H1764 N1761 0.984 . S
H1765 N1761 0.985 . S
H1766 N1760 0.984 . S
H1767 N1760 0.984 . S
H1768 N1756 0.984 . S
H1769 N1756 0.985 . S
C1770 C1771 1.363 . S
C1770 C1776 1.379 . S
C1770 N1778 1.356 . S
C1771 C1770 1.363 . S
C1771 C1777 1.363 . S
C1772 C1773 1.363 . S
C1772 C1777 1.379 . S
C1772 N1779 1.356 . S
C1773 C1772 1.363 . S
C1773 C1776 1.363 . S
N1774 C1776 1.356 . S
N1774 H1786 0.984 . S
N1774 H1787 0.985 . S
N1775 C1777 1.356 . S
N1775 H1780 0.984 . S
N1775 H1781 0.985 . S
C1776 C1770 1.379 . S
C1776 C1773 1.363 . S
C1776 N1774 1.356 . S
C1777 C1771 1.363 . S
C1777 C1772 1.379 . S
C1777 N1775 1.356 . S
N1778 C1770 1.356 . S
N1778 H1784 0.984 . S
N1778 H1785 0.984 . S
N1779 C1772 1.356 . S
N1779 H1782 0.984 . S
N1779 H1783 0.985 . S
H1780 N1775 0.984 . S
H1781 N1775 0.985 . S
H1782 N1779 0.984 . S
H1783 N1779 0.985 . S
H1784 N1778 0.984 . S
H1785 N1778 0.984 . S
H1786 N1774 0.984 . S
H1787 N1774 0.985 . S
C1788 C1789 1.363 . S
C1788 C1794 1.379 . S
C1788 N1796 1.356 . S
C1789 C1788 1.363 . S
C1789 C1795 1.363 . S
C1790 C1791 1.363 . S
C1790 C1795 1.379 . S
C1790 N1797 1.356 . S
C1791 C1790 1.363 . S
C1791 C1794 1.363 . S
N1792 C1794 1.356 . S
N1792 H1804 0.984 . S
N1792 H1805 0.985 . S
N1793 C1795 1.356 . S
N1793 H1798 0.984 . S
N1793 H1799 0.985 . S
C1794 C1788 1.379 . S
C1794 C1791 1.363 . S
C1794 N1792 1.356 . S
C1795 C1789 1.363 . S
C1795 C1790 1.379 . S
C1795 N1793 1.356 . S
N1796 C1788 1.356 . S
N1796 H1802 0.984 . S
N1796 H1803 0.984 . S
N1797 C1790 1.356 . S
N1797 H1800 0.984 . S
N1797 H1801 0.985 . S
H1798 N1793 0.984 . S
H1799 N1793 0.985 . S
H1800 N1797 0.984 . S
H1801 N1797 0.985 . S
H1802 N1796 0.984 . S
H1803 N1796 0.984 . S
H1804 N1792 0.984 . S
H1805 N1792 0.985 . S
C1806 C1807 1.363 . S
C1806 C1812 1.379 . S
C1806 N1814 1.356 . S
C1807 C1806 1.363 . S
C1807 C1813 1.363 . S
C1808 C1809 1.363 . S
C1808 C1813 1.379 . S
C1808 N1815 1.356 . S
C1809 C1808 1.363 . S
C1809 C1812 1.363 . S
N1810 C1812 1.356 . S
N1810 H1822 0.984 . S
N1810 H1823 0.985 . S
N1811 C1813 1.356 . S
N1811 H1816 0.984 . S
N1811 H1817 0.985 . S
C1812 C1806 1.379 . S
C1812 C1809 1.363 . S
C1812 N1810 1.356 . S
C1813 C1807 1.363 . S
C1813 C1808 1.379 . S
C1813 N1811 1.356 . S
N1814 C1806 1.356 . S
N1814 H1820 0.984 . S
N1814 H1821 0.984 . S
N1815 C1808 1.356 . S
N1815 H1818 0.984 . S
N1815 H1819 0.985 . S
H1816 N1811 0.984 . S
H1817 N1811 0.985 . S
H1818 N1815 0.984 . S
H1819 N1815 0.985 . S
H1820 N1814 0.984 . S
H1821 N1814 0.984 . S
H1822 N1810 0.984 . S
H1823 N1810 0.985 . S
C1824 C1825 1.363 . S
C1824 C1830 1.379 . S
C1824 N1832 1.356 . S
C1825 C1824 1.363 . S
C1825 C1831 1.363 . S
C1826 C1827 1.363 . S
C1826 C1831 1.379 . S
C1826 N1833 1.356 . S
C1827 C1826 1.363 . S
C1827 C1830 1.363 . S
N1828 C1830 1.356 . S
N1828 H1840 0.984 . S
N1828 H1841 0.985 . S
N1829 C1831 1.356 . S
N1829 H1834 0.984 . S
N1829 H1835 0.985 . S
C1830 C1824 1.379 . S
C1830 C1827 1.363 . S
C1830 N1828 1.356 . S
C1831 C1825 1.363 . S
C1831 C1826 1.379 . S
C1831 N1829 1.356 . S
N1832 C1824 1.356 . S
N1832 H1838 0.984 . S
N1832 H1839 0.984 . S
N1833 C1826 1.356 . S
N1833 H1836 0.984 . S
N1833 H1837 0.985 . S
H1834 N1829 0.984 . S
H1835 N1829 0.985 . S
H1836 N1833 0.984 . S
H1837 N1833 0.985 . S
H1838 N1832 0.984 . S
H1839 N1832 0.984 . S
H1840 N1828 0.984 . S
H1841 N1828 0.985 . S
C1842 C1843 1.363 . S
C1842 C1848 1.379 . S
C1842 N1850 1.356 . S
C1843 C1842 1.363 . S
C1843 C1849 1.363 . S
C1844 C1845 1.363 . S
C1844 C1849 1.379 . S
C1844 N1851 1.356 . S
C1845 C1844 1.363 . S
C1845 C1848 1.363 . S
N1846 C1848 1.356 . S
N1846 H1858 0.984 . S
N1846 H1859 0.985 . S
N1847 C1849 1.356 . S
N1847 H1852 0.984 . S
N1847 H1853 0.985 . S
C1848 C1842 1.379 . S
C1848 C1845 1.363 . S
C1848 N1846 1.356 . S
C1849 C1843 1.363 . S
C1849 C1844 1.379 . S
C1849 N1847 1.356 . S
N1850 C1842 1.356 . S
N1850 H1856 0.984 . S
N1850 H1857 0.984 . S
N1851 C1844 1.356 . S
N1851 H1854 0.984 . S
N1851 H1855 0.985 . S
H1852 N1847 0.984 . S
H1853 N1847 0.985 . S
H1854 N1851 0.984 . S
H1855 N1851 0.985 . S
H1856 N1850 0.984 . S
H1857 N1850 0.984 . S
H1858 N1846 0.984 . S
H1859 N1846 0.985 . S
C1860 C1861 1.363 . S
C1860 C1866 1.379 . S
C1860 N1868 1.356 . S
C1861 C1860 1.363 . S
C1861 C1867 1.363 . S
C1862 C1863 1.363 . S
C1862 C1867 1.379 . S
C1862 N1869 1.356 . S
C1863 C1862 1.363 . S
C1863 C1866 1.363 . S
N1864 C1866 1.356 . S
N1864 H1876 0.984 . S
N1864 H1877 0.985 . S
N1865 C1867 1.356 . S
N1865 H1870 0.984 . S
N1865 H1871 0.985 . S
C1866 C1860 1.379 . S
C1866 C1863 1.363 . S
C1866 N1864 1.356 . S
C1867 C1861 1.363 . S
C1867 C1862 1.379 . S
C1867 N1865 1.356 . S
N1868 C1860 1.356 . S
N1868 H1874 0.984 . S
N1868 H1875 0.984 . S
N1869 C1862 1.356 . S
N1869 H1872 0.984 . S
N1869 H1873 0.985 . S
H1870 N1865 0.984 . S
H1871 N1865 0.985 . S
H1872 N1869 0.984 . S
H1873 N1869 0.985 . S
H1874 N1868 0.984 . S
H1875 N1868 0.984 . S
H1876 N1864 0.984 . S
H1877 N1864 0.985 . S
C1878 C1879 1.363 . S
C1878 C1884 1.379 . S
C1878 N1886 1.356 . S
C1879 C1878 1.363 . S
C1879 C1885 1.363 . S
C1880 C1881 1.363 . S
C1880 C1885 1.379 . S
C1880 N1887 1.356 . S
C1881 C1880 1.363 . S
C1881 C1884 1.363 . S
N1882 C1884 1.356 . S
N1882 H1894 0.984 . S
N1882 H1895 0.985 . S
N1883 C1885 1.356 . S
N1883 H1888 0.984 . S
N1883 H1889 0.985 . S
C1884 C1878 1.379 . S
C1884 C1881 1.363 . S
C1884 N1882 1.356 . S
C1885 C1879 1.363 . S
C1885 C1880 1.379 . S
C1885 N1883 1.356 . S
N1886 C1878 1.356 . S
N1886 H1892 0.984 . S
N1886 H1893 0.984 . S
N1887 C1880 1.356 . S
N1887 H1890 0.984 . S
N1887 H1891 0.985 . S
H1888 N1883 0.984 . S
H1889 N1883 0.985 . S
H1890 N1887 0.984 . S
H1891 N1887 0.985 . S
H1892 N1886 0.984 . S
H1893 N1886 0.984 . S
H1894 N1882 0.984 . S
H1895 N1882 0.985 . S
C1896 C1897 1.363 . S
C1896 C1902 1.379 . S
C1896 N1904 1.356 . S
C1897 C1896 1.363 . S
C1897 C1903 1.363 . S
C1898 C1899 1.363 . S
C1898 C1903 1.379 . S
C1898 N1905 1.356 . S
C1899 C1898 1.363 . S
C1899 C1902 1.363 . S
N1900 C1902 1.356 . S
N1900 H1912 0.984 . S
N1900 H1913 0.985 . S
N1901 C1903 1.356 . S
N1901 H1906 0.984 . S
N1901 H1907 0.985 . S
C1902 C1896 1.379 . S
C1902 C1899 1.363 . S
C1902 N1900 1.356 . S
C1903 C1897 1.363 . S
C1903 C1898 1.379 . S
C1903 N1901 1.356 . S
N1904 C1896 1.356 . S
N1904 H1910 0.984 . S
N1904 H1911 0.984 . S
N1905 C1898 1.356 . S
N1905 H1908 0.984 . S
N1905 H1909 0.985 . S
H1906 N1901 0.984 . S
H1907 N1901 0.985 . S
H1908 N1905 0.984 . S
H1909 N1905 0.985 . S
H1910 N1904 0.984 . S
H1911 N1904 0.984 . S
H1912 N1900 0.984 . S
H1913 N1900 0.985 . S
C1914 C1915 1.363 . S
C1914 C1920 1.379 . S
C1914 N1922 1.356 . S
C1915 C1914 1.363 . S
C1915 C1921 1.363 . S
C1916 C1917 1.363 . S
C1916 C1921 1.379 . S
C1916 N1923 1.356 . S
C1917 C1916 1.363 . S
C1917 C1920 1.363 . S
N1918 C1920 1.356 . S
N1918 H1930 0.984 . S
N1918 H1931 0.985 . S
N1919 C1921 1.356 . S
N1919 H1924 0.984 . S
N1919 H1925 0.985 . S
C1920 C1914 1.379 . S
C1920 C1917 1.363 . S
C1920 N1918 1.356 . S
C1921 C1915 1.363 . S
C1921 C1916 1.379 . S
C1921 N1919 1.356 . S
N1922 C1914 1.356 . S
N1922 H1928 0.984 . S
N1922 H1929 0.984 . S
N1923 C1916 1.356 . S
N1923 H1926 0.984 . S
N1923 H1927 0.985 . S
H1924 N1919 0.984 . S
H1925 N1919 0.985 . S
H1926 N1923 0.984 . S
H1927 N1923 0.985 . S
H1928 N1922 0.984 . S
H1929 N1922 0.984 . S
H1930 N1918 0.984 . S
H1931 N1918 0.985 . S
C1932 C1933 1.363 . S
C1932 C1938 1.379 . S
C1932 N1940 1.356 . S
C1933 C1932 1.363 . S
C1933 C1939 1.363 . S
C1934 C1935 1.363 . S
C1934 C1939 1.379 . S
C1934 N1941 1.356 . S
C1935 C1934 1.363 . S
C1935 C1938 1.363 . S
N1936 C1938 1.356 . S
N1936 H1948 0.984 . S
N1936 H1949 0.985 . S
N1937 C1939 1.356 . S
N1937 H1942 0.984 . S
N1937 H1943 0.985 . S
C1938 C1932 1.379 . S
C1938 C1935 1.363 . S
C1938 N1936 1.356 . S
C1939 C1933 1.363 . S
C1939 C1934 1.379 . S
C1939 N1937 1.356 . S
N1940 C1932 1.356 . S
N1940 H1946 0.984 . S
N1940 H1947 0.984 . S
N1941 C1934 1.356 . S
N1941 H1944 0.984 . S
N1941 H1945 0.985 . S
H1942 N1937 0.984 . S
H1943 N1937 0.985 . S
H1944 N1941 0.984 . S
H1945 N1941 0.985 . S
H1946 N1940 0.984 . S
H1947 N1940 0.984 . S
H1948 N1936 0.984 . S
H1949 N1936 0.985 . S
C1950 C1951 1.363 . S
C1950 C1956 1.379 . S
C1950 N1958 1.356 . S
C1951 C1950 1.363 . S
C1951 C1957 1.363 . S
C1952 C1953 1.363 . S
C1952 C1957 1.379 . S
C1952 N1959 1.356 . S
C1953 C1952 1.363 . S
C1953 C1956 1.363 . S
N1954 C1956 1.356 . S
N1954 H1966 0.984 . S
N1954 H1967 0.985 . S
N1955 C1957 1.356 . S
N1955 H1960 0.984 . S
N1955 H1961 0.985 . S
C1956 C1950 1.379 . S
C1956 C1953 1.363 . S
C1956 N1954 1.356 . S
C1957 C1951 1.363 . S
C1957 C1952 1.379 . S
C1957 N1955 1.356 . S
N1958 C1950 1.356 . S
N1958 H1964 0.984 . S
N1958 H1965 0.984 . S
N1959 C1952 1.356 . S
N1959 H1962 0.984 . S
N1959 H1963 0.985 . S
H1960 N1955 0.984 . S
H1961 N1955 0.985 . S
H1962 N1959 0.984 . S
H1963 N1959 0.985 . S
H1964 N1958 0.984 . S
H1965 N1958 0.984 . S
H1966 N1954 0.984 . S
H1967 N1954 0.985 . S
C1968 C1969 1.363 . S
C1968 C1974 1.379 . S
C1968 N1976 1.356 . S
C1969 C1968 1.363 . S
C1969 C1975 1.363 . S
C1970 C1971 1.363 . S
C1970 C1975 1.379 . S
C1970 N1977 1.356 . S
C1971 C1970 1.363 . S
C1971 C1974 1.363 . S
N1972 C1974 1.356 . S
N1972 H1984 0.984 . S
N1972 H1985 0.985 . S
N1973 C1975 1.356 . S
N1973 H1978 0.984 . S
N1973 H1979 0.985 . S
C1974 C1968 1.379 . S
C1974 C1971 1.363 . S
C1974 N1972 1.356 . S
C1975 C1969 1.363 . S
C1975 C1970 1.379 . S
C1975 N1973 1.356 . S
N1976 C1968 1.356 . S
N1976 H1982 0.984 . S
N1976 H1983 0.984 . S
N1977 C1970 1.356 . S
N1977 H1980 0.984 . S
N1977 H1981 0.985 . S
H1978 N1973 0.984 . S
H1979 N1973 0.985 . S
H1980 N1977 0.984 . S
H1981 N1977 0.985 . S
H1982 N1976 0.984 . S
H1983 N1976 0.984 . S
H1984 N1972 0.984 . S
H1985 N1972 0.985 . S
C1986 C1987 1.363 . S
C1986 C1992 1.379 . S
C1986 N1994 1.356 . S
C1987 C1986 1.363 . S
C1987 C1993 1.363 . S
C1988 C1989 1.363 . S
C1988 C1993 1.379 . S
C1988 N1995 1.356 . S
C1989 C1988 1.363 . S
C1989 C1992 1.363 . S
N1990 C1992 1.356 . S
N1990 H2002 0.984 . S
N1990 H2003 0.985 . S
N1991 C1993 1.356 . S
N1991 H1996 0.984 . S
N1991 H1997 0.985 . S
C1992 C1986 1.379 . S
C1992 C1989 1.363 . S
C1992 N1990 1.356 . S
C1993 C1987 1.363 . S
C1993 C1988 1.379 . S
C1993 N1991 1.356 . S
N1994 C1986 1.356 . S
N1994 H2000 0.984 . S
N1994 H2001 0.984 . S
N1995 C1988 1.356 . S
N1995 H1998 0.984 . S
N1995 H1999 0.985 . S
H1996 N1991 0.984 . S
H1997 N1991 0.985 . S
H1998 N1995 0.984 . S
H1999 N1995 0.985 . S
H2000 N1994 0.984 . S
H2001 N1994 0.984 . S
H2002 N1990 0.984 . S
H2003 N1990 0.985 . S
C2004 C2005 1.363 . S
C2004 C2010 1.379 . S
C2004 N2012 1.356 . S
C2005 C2004 1.363 . S
C2005 C2011 1.363 . S
C2006 C2007 1.363 . S
C2006 C2011 1.379 . S
C2006 N2013 1.356 . S
C2007 C2006 1.363 . S
C2007 C2010 1.363 . S
N2008 C2010 1.356 . S
N2008 H2020 0.984 . S
N2008 H2021 0.985 . S
N2009 C2011 1.356 . S
N2009 H2014 0.984 . S
N2009 H2015 0.985 . S
C2010 C2004 1.379 . S
C2010 C2007 1.363 . S
C2010 N2008 1.356 . S
C2011 C2005 1.363 . S
C2011 C2006 1.379 . S
C2011 N2009 1.356 . S
N2012 C2004 1.356 . S
N2012 H2018 0.984 . S
N2012 H2019 0.984 . S
N2013 C2006 1.356 . S
N2013 H2016 0.984 . S
N2013 H2017 0.985 . S
H2014 N2009 0.984 . S
H2015 N2009 0.985 . S
H2016 N2013 0.984 . S
H2017 N2013 0.985 . S
H2018 N2012 0.984 . S
H2019 N2012 0.984 . S
H2020 N2008 0.984 . S
H2021 N2008 0.985 . S
C2022 C2023 1.363 . S
C2022 C2028 1.379 . S
C2022 N2030 1.356 . S
C2023 C2022 1.363 . S
C2023 C2029 1.363 . S
C2024 C2025 1.363 . S
C2024 C2029 1.379 . S
C2024 N2031 1.356 . S
C2025 C2024 1.363 . S
C2025 C2028 1.363 . S
N2026 C2028 1.356 . S
N2026 H2038 0.984 . S
N2026 H2039 0.985 . S
N2027 C2029 1.356 . S
N2027 H2032 0.984 . S
N2027 H2033 0.985 . S
C2028 C2022 1.379 . S
C2028 C2025 1.363 . S
C2028 N2026 1.356 . S
C2029 C2023 1.363 . S
C2029 C2024 1.379 . S
C2029 N2027 1.356 . S
N2030 C2022 1.356 . S
N2030 H2036 0.984 . S
N2030 H2037 0.984 . S
N2031 C2024 1.356 . S
N2031 H2034 0.984 . S
N2031 H2035 0.985 . S
H2032 N2027 0.984 . S
H2033 N2027 0.985 . S
H2034 N2031 0.984 . S
H2035 N2031 0.985 . S
H2036 N2030 0.984 . S
H2037 N2030 0.984 . S
H2038 N2026 0.984 . S
H2039 N2026 0.985 . S
C2040 C2041 1.363 . S
C2040 C2046 1.379 . S
C2040 N2048 1.356 . S
C2041 C2040 1.363 . S
C2041 C2047 1.363 . S
C2042 C2043 1.363 . S
C2042 C2047 1.379 . S
C2042 N2049 1.356 . S
C2043 C2042 1.363 . S
C2043 C2046 1.363 . S
N2044 C2046 1.356 . S
N2044 H2056 0.984 . S
N2044 H2057 0.985 . S
N2045 C2047 1.356 . S
N2045 H2050 0.984 . S
N2045 H2051 0.985 . S
C2046 C2040 1.379 . S
C2046 C2043 1.363 . S
C2046 N2044 1.356 . S
C2047 C2041 1.363 . S
C2047 C2042 1.379 . S
C2047 N2045 1.356 . S
N2048 C2040 1.356 . S
N2048 H2054 0.984 . S
N2048 H2055 0.984 . S
N2049 C2042 1.356 . S
N2049 H2052 0.984 . S
N2049 H2053 0.985 . S
H2050 N2045 0.984 . S
H2051 N2045 0.985 . S
H2052 N2049 0.984 . S
H2053 N2049 0.985 . S
H2054 N2048 0.984 . S
H2055 N2048 0.984 . S
H2056 N2044 0.984 . S
H2057 N2044 0.985 . S
C2058 C2059 1.363 . S
C2058 C2064 1.379 . S
C2058 N2066 1.356 . S
C2059 C2058 1.363 . S
C2059 C2065 1.363 . S
C2060 C2061 1.363 . S
C2060 C2065 1.379 . S
C2060 N2067 1.356 . S
C2061 C2060 1.363 . S
C2061 C2064 1.363 . S
N2062 C2064 1.356 . S
N2062 H2074 0.984 . S
N2062 H2075 0.985 . S
N2063 C2065 1.356 . S
N2063 H2068 0.984 . S
N2063 H2069 0.985 . S
C2064 C2058 1.379 . S
C2064 C2061 1.363 . S
C2064 N2062 1.356 . S
C2065 C2059 1.363 . S
C2065 C2060 1.379 . S
C2065 N2063 1.356 . S
N2066 C2058 1.356 . S
N2066 H2072 0.984 . S
N2066 H2073 0.984 . S
N2067 C2060 1.356 . S
N2067 H2070 0.984 . S
N2067 H2071 0.985 . S
H2068 N2063 0.984 . S
H2069 N2063 0.985 . S
H2070 N2067 0.984 . S
H2071 N2067 0.985 . S
H2072 N2066 0.984 . S
H2073 N2066 0.984 . S
H2074 N2062 0.984 . S
H2075 N2062 0.985 . S
C2076 C2077 1.363 . S
C2076 C2082 1.379 . S
C2076 N2084 1.356 . S
C2077 C2076 1.363 . S
C2077 C2083 1.363 . S
C2078 C2079 1.363 . S
C2078 C2083 1.379 . S
C2078 N2085 1.356 . S
C2079 C2078 1.363 . S
C2079 C2082 1.363 . S
N2080 C2082 1.356 . S
N2080 H2092 0.984 . S
N2080 H2093 0.985 . S
N2081 C2083 1.356 . S
N2081 H2086 0.984 . S
N2081 H2087 0.985 . S
C2082 C2076 1.379 . S
C2082 C2079 1.363 . S
C2082 N2080 1.356 . S
C2083 C2077 1.363 . S
C2083 C2078 1.379 . S
C2083 N2081 1.356 . S
N2084 C2076 1.356 . S
N2084 H2090 0.984 . S
N2084 H2091 0.984 . S
N2085 C2078 1.356 . S
N2085 H2088 0.984 . S
N2085 H2089 0.985 . S
H2086 N2081 0.984 . S
H2087 N2081 0.985 . S
H2088 N2085 0.984 . S
H2089 N2085 0.985 . S
H2090 N2084 0.984 . S
H2091 N2084 0.984 . S
H2092 N2080 0.984 . S
H2093 N2080 0.985 . S
C2094 C2095 1.363 . S
C2094 C2100 1.379 . S
C2094 N2102 1.356 . S
C2095 C2094 1.363 . S
C2095 C2101 1.363 . S
C2096 C2097 1.363 . S
C2096 C2101 1.379 . S
C2096 N2103 1.356 . S
C2097 C2096 1.363 . S
C2097 C2100 1.363 . S
N2098 C2100 1.356 . S
N2098 H2110 0.984 . S
N2098 H2111 0.985 . S
N2099 C2101 1.356 . S
N2099 H2104 0.984 . S
N2099 H2105 0.985 . S
C2100 C2094 1.379 . S
C2100 C2097 1.363 . S
C2100 N2098 1.356 . S
C2101 C2095 1.363 . S
C2101 C2096 1.379 . S
C2101 N2099 1.356 . S
N2102 C2094 1.356 . S
N2102 H2108 0.984 . S
N2102 H2109 0.984 . S
N2103 C2096 1.356 . S
N2103 H2106 0.984 . S
N2103 H2107 0.985 . S
H2104 N2099 0.984 . S
H2105 N2099 0.985 . S
H2106 N2103 0.984 . S
H2107 N2103 0.985 . S
H2108 N2102 0.984 . S
H2109 N2102 0.984 . S
H2110 N2098 0.984 . S
H2111 N2098 0.985 . S
C2112 C2113 1.363 . S
C2112 C2118 1.379 . S
C2112 N2120 1.356 . S
C2113 C2112 1.363 . S
C2113 C2119 1.363 . S
C2114 C2115 1.363 . S
C2114 C2119 1.379 . S
C2114 N2121 1.356 . S
C2115 C2114 1.363 . S
C2115 C2118 1.363 . S
N2116 C2118 1.356 . S
N2116 H2128 0.984 . S
N2116 H2129 0.985 . S
N2117 C2119 1.356 . S
N2117 H2122 0.984 . S
N2117 H2123 0.985 . S
C2118 C2112 1.379 . S
C2118 C2115 1.363 . S
C2118 N2116 1.356 . S
C2119 C2113 1.363 . S
C2119 C2114 1.379 . S
C2119 N2117 1.356 . S
N2120 C2112 1.356 . S
N2120 H2126 0.984 . S
N2120 H2127 0.984 . S
N2121 C2114 1.356 . S
N2121 H2124 0.984 . S
N2121 H2125 0.985 . S
H2122 N2117 0.984 . S
H2123 N2117 0.985 . S
H2124 N2121 0.984 . S
H2125 N2121 0.985 . S
H2126 N2120 0.984 . S
H2127 N2120 0.984 . S
H2128 N2116 0.984 . S
H2129 N2116 0.985 . S
C2130 C2131 1.363 . S
C2130 C2136 1.379 . S
C2130 N2138 1.356 . S
C2131 C2130 1.363 . S
C2131 C2137 1.363 . S
C2132 C2133 1.363 . S
C2132 C2137 1.379 . S
C2132 N2139 1.356 . S
C2133 C2132 1.363 . S
C2133 C2136 1.363 . S
N2134 C2136 1.356 . S
N2134 H2146 0.984 . S
N2134 H2147 0.985 . S
N2135 C2137 1.356 . S
N2135 H2140 0.984 . S
N2135 H2141 0.985 . S
C2136 C2130 1.379 . S
C2136 C2133 1.363 . S
C2136 N2134 1.356 . S
C2137 C2131 1.363 . S
C2137 C2132 1.379 . S
C2137 N2135 1.356 . S
N2138 C2130 1.356 . S
N2138 H2144 0.984 . S
N2138 H2145 0.984 . S
N2139 C2132 1.356 . S
N2139 H2142 0.984 . S
N2139 H2143 0.985 . S
H2140 N2135 0.984 . S
H2141 N2135 0.985 . S
H2142 N2139 0.984 . S
H2143 N2139 0.985 . S
H2144 N2138 0.984 . S
H2145 N2138 0.984 . S
H2146 N2134 0.984 . S
H2147 N2134 0.985 . S
C2148 C2149 1.363 . S
C2148 C2154 1.379 . S
C2148 N2156 1.356 . S
C2149 C2148 1.363 . S
C2149 C2155 1.363 . S
C2150 C2151 1.363 . S
C2150 C2155 1.379 . S
C2150 N2157 1.356 . S
C2151 C2150 1.363 . S
C2151 C2154 1.363 . S
N2152 C2154 1.356 . S
N2152 H2164 0.984 . S
N2152 H2165 0.985 . S
N2153 C2155 1.356 . S
N2153 H2158 0.984 . S
N2153 H2159 0.985 . S
C2154 C2148 1.379 . S
C2154 C2151 1.363 . S
C2154 N2152 1.356 . S
C2155 C2149 1.363 . S
C2155 C2150 1.379 . S
C2155 N2153 1.356 . S
N2156 C2148 1.356 . S
N2156 H2162 0.984 . S
N2156 H2163 0.984 . S
N2157 C2150 1.356 . S
N2157 H2160 0.984 . S
N2157 H2161 0.985 . S
H2158 N2153 0.984 . S
H2159 N2153 0.985 . S
H2160 N2157 0.984 . S
H2161 N2157 0.985 . S
H2162 N2156 0.984 . S
H2163 N2156 0.984 . S
H2164 N2152 0.984 . S
H2165 N2152 0.985 . S
C2166 C2167 1.363 . S
C2166 C2172 1.379 . S
C2166 N2174 1.356 . S
C2167 C2166 1.363 . S
C2167 C2173 1.363 . S
C2168 C2169 1.363 . S
C2168 C2173 1.379 . S
C2168 N2175 1.356 . S
C2169 C2168 1.363 . S
C2169 C2172 1.363 . S
N2170 C2172 1.356 . S
N2170 H2182 0.984 . S
N2170 H2183 0.985 . S
N2171 C2173 1.356 . S
N2171 H2176 0.984 . S
N2171 H2177 0.985 . S
C2172 C2166 1.379 . S
C2172 C2169 1.363 . S
C2172 N2170 1.356 . S
C2173 C2167 1.363 . S
C2173 C2168 1.379 . S
C2173 N2171 1.356 . S
N2174 C2166 1.356 . S
N2174 H2180 0.984 . S
N2174 H2181 0.984 . S
N2175 C2168 1.356 . S
N2175 H2178 0.984 . S
N2175 H2179 0.985 . S
H2176 N2171 0.984 . S
H2177 N2171 0.985 . S
H2178 N2175 0.984 . S
H2179 N2175 0.985 . S
H2180 N2174 0.984 . S
H2181 N2174 0.984 . S
H2182 N2170 0.984 . S
H2183 N2170 0.985 . S
C2184 C2185 1.363 . S
C2184 C2190 1.379 . S
C2184 N2192 1.356 . S
C2185 C2184 1.363 . S
C2185 C2191 1.363 . S
C2186 C2187 1.363 . S
C2186 C2191 1.379 . S
C2186 N2193 1.356 . S
C2187 C2186 1.363 . S
C2187 C2190 1.363 . S
N2188 C2190 1.356 . S
N2188 H2200 0.984 . S
N2188 H2201 0.985 . S
N2189 C2191 1.356 . S
N2189 H2194 0.984 . S
N2189 H2195 0.985 . S
C2190 C2184 1.379 . S
C2190 C2187 1.363 . S
C2190 N2188 1.356 . S
C2191 C2185 1.363 . S
C2191 C2186 1.379 . S
C2191 N2189 1.356 . S
N2192 C2184 1.356 . S
N2192 H2198 0.984 . S
N2192 H2199 0.984 . S
N2193 C2186 1.356 . S
N2193 H2196 0.984 . S
N2193 H2197 0.985 . S
H2194 N2189 0.984 . S
H2195 N2189 0.985 . S
H2196 N2193 0.984 . S
H2197 N2193 0.985 . S
H2198 N2192 0.984 . S
H2199 N2192 0.984 . S
H2200 N2188 0.984 . S
H2201 N2188 0.985 . S
C2202 C2203 1.363 . S
C2202 C2208 1.379 . S
C2202 N2210 1.356 . S
C2203 C2202 1.363 . S
C2203 C2209 1.363 . S
C2204 C2205 1.363 . S
C2204 C2209 1.379 . S
C2204 N2211 1.356 . S
C2205 C2204 1.363 . S
C2205 C2208 1.363 . S
N2206 C2208 1.356 . S
N2206 H2218 0.984 . S
N2206 H2219 0.985 . S
N2207 C2209 1.356 . S
N2207 H2212 0.984 . S
N2207 H2213 0.985 . S
C2208 C2202 1.379 . S
C2208 C2205 1.363 . S
C2208 N2206 1.356 . S
C2209 C2203 1.363 . S
C2209 C2204 1.379 . S
C2209 N2207 1.356 . S
N2210 C2202 1.356 . S
N2210 H2216 0.984 . S
N2210 H2217 0.984 . S
N2211 C2204 1.356 . S
N2211 H2214 0.984 . S
N2211 H2215 0.985 . S
H2212 N2207 0.984 . S
H2213 N2207 0.985 . S
H2214 N2211 0.984 . S
H2215 N2211 0.985 . S
H2216 N2210 0.984 . S
H2217 N2210 0.984 . S
H2218 N2206 0.984 . S
H2219 N2206 0.985 . S
C2220 C2221 1.363 . S
C2220 C2226 1.379 . S
C2220 N2228 1.356 . S
C2221 C2220 1.363 . S
C2221 C2227 1.363 . S
C2222 C2223 1.363 . S
C2222 C2227 1.379 . S
C2222 N2229 1.356 . S
C2223 C2222 1.363 . S
C2223 C2226 1.363 . S
N2224 C2226 1.356 . S
N2224 H2236 0.984 . S
N2224 H2237 0.985 . S
N2225 C2227 1.356 . S
N2225 H2230 0.984 . S
N2225 H2231 0.985 . S
C2226 C2220 1.379 . S
C2226 C2223 1.363 . S
C2226 N2224 1.356 . S
C2227 C2221 1.363 . S
C2227 C2222 1.379 . S
C2227 N2225 1.356 . S
N2228 C2220 1.356 . S
N2228 H2234 0.984 . S
N2228 H2235 0.984 . S
N2229 C2222 1.356 . S
N2229 H2232 0.984 . S
N2229 H2233 0.985 . S
H2230 N2225 0.984 . S
H2231 N2225 0.985 . S
H2232 N2229 0.984 . S
H2233 N2229 0.985 . S
H2234 N2228 0.984 . S
H2235 N2228 0.984 . S
H2236 N2224 0.984 . S
H2237 N2224 0.985 . S
C2238 C2239 1.363 . S
C2238 C2244 1.379 . S
C2238 N2246 1.356 . S
C2239 C2238 1.363 . S
C2239 C2245 1.363 . S
C2240 C2241 1.363 . S
C2240 C2245 1.379 . S
C2240 N2247 1.356 . S
C2241 C2240 1.363 . S
C2241 C2244 1.363 . S
N2242 C2244 1.356 . S
N2242 H2254 0.984 . S
N2242 H2255 0.985 . S
N2243 C2245 1.356 . S
N2243 H2248 0.984 . S
N2243 H2249 0.985 . S
C2244 C2238 1.379 . S
C2244 C2241 1.363 . S
C2244 N2242 1.356 . S
C2245 C2239 1.363 . S
C2245 C2240 1.379 . S
C2245 N2243 1.356 . S
N2246 C2238 1.356 . S
N2246 H2252 0.984 . S
N2246 H2253 0.984 . S
N2247 C2240 1.356 . S
N2247 H2250 0.984 . S
N2247 H2251 0.985 . S
H2248 N2243 0.984 . S
H2249 N2243 0.985 . S
H2250 N2247 0.984 . S
H2251 N2247 0.985 . S
H2252 N2246 0.984 . S
H2253 N2246 0.984 . S
H2254 N2242 0.984 . S
H2255 N2242 0.985 . S
C2256 C2257 1.363 . S
C2256 C2262 1.379 . S
C2256 N2264 1.356 . S
C2257 C2256 1.363 . S
C2257 C2263 1.363 . S
C2258 C2259 1.363 . S
C2258 C2263 1.379 . S
C2258 N2265 1.356 . S
C2259 C2258 1.363 . S
C2259 C2262 1.363 . S
N2260 C2262 1.356 . S
N2260 H2272 0.984 . S
N2260 H2273 0.985 . S
N2261 C2263 1.356 . S
N2261 H2266 0.984 . S
N2261 H2267 0.985 . S
C2262 C2256 1.379 . S
C2262 C2259 1.363 . S
C2262 N2260 1.356 . S
C2263 C2257 1.363 . S
C2263 C2258 1.379 . S
C2263 N2261 1.356 . S
N2264 C2256 1.356 . S
N2264 H2270 0.984 . S
N2264 H2271 0.984 . S
N2265 C2258 1.356 . S
N2265 H2268 0.984 . S
N2265 H2269 0.985 . S
H2266 N2261 0.984 . S
H2267 N2261 0.985 . S
H2268 N2265 0.984 . S
H2269 N2265 0.985 . S
H2270 N2264 0.984 . S
H2271 N2264 0.984 . S
H2272 N2260 0.984 . S
H2273 N2260 0.985 . S
C2274 C2275 1.363 . S
C2274 C2280 1.379 . S
C2274 N2282 1.356 . S
C2275 C2274 1.363 . S
C2275 C2281 1.363 . S
C2276 C2277 1.363 . S
C2276 C2281 1.379 . S
C2276 N2283 1.356 . S
C2277 C2276 1.363 . S
C2277 C2280 1.363 . S
N2278 C2280 1.356 . S
N2278 H2290 0.984 . S
N2278 H2291 0.985 . S
N2279 C2281 1.356 . S
N2279 H2284 0.984 . S
N2279 H2285 0.985 . S
C2280 C2274 1.379 . S
C2280 C2277 1.363 . S
C2280 N2278 1.356 . S
C2281 C2275 1.363 . S
C2281 C2276 1.379 . S
C2281 N2279 1.356 . S
N2282 C2274 1.356 . S
N2282 H2288 0.984 . S
N2282 H2289 0.984 . S
N2283 C2276 1.356 . S
N2283 H2286 0.984 . S
N2283 H2287 0.985 . S
H2284 N2279 0.984 . S
H2285 N2279 0.985 . S
H2286 N2283 0.984 . S
H2287 N2283 0.985 . S
H2288 N2282 0.984 . S
H2289 N2282 0.984 . S
H2290 N2278 0.984 . S
H2291 N2278 0.985 . S
C2292 C2293 1.363 . S
C2292 C2298 1.379 . S
C2292 N2300 1.356 . S
C2293 C2292 1.363 . S
C2293 C2299 1.363 . S
C2294 C2295 1.363 . S
C2294 C2299 1.379 . S
C2294 N2301 1.356 . S
C2295 C2294 1.363 . S
C2295 C2298 1.363 . S
N2296 C2298 1.356 . S
N2296 H2308 0.984 . S
N2296 H2309 0.985 . S
N2297 C2299 1.356 . S
N2297 H2302 0.984 . S
N2297 H2303 0.985 . S
C2298 C2292 1.379 . S
C2298 C2295 1.363 . S
C2298 N2296 1.356 . S
C2299 C2293 1.363 . S
C2299 C2294 1.379 . S
C2299 N2297 1.356 . S
N2300 C2292 1.356 . S
N2300 H2306 0.984 . S
N2300 H2307 0.984 . S
N2301 C2294 1.356 . S
N2301 H2304 0.984 . S
N2301 H2305 0.985 . S
H2302 N2297 0.984 . S
H2303 N2297 0.985 . S
H2304 N2301 0.984 . S
H2305 N2301 0.985 . S
H2306 N2300 0.984 . S
H2307 N2300 0.984 . S
H2308 N2296 0.984 . S
H2309 N2296 0.985 . S
C2310 C2311 1.363 . S
C2310 C2316 1.379 . S
C2310 N2318 1.356 . S
C2311 C2310 1.363 . S
C2311 C2317 1.363 . S
C2312 C2313 1.363 . S
C2312 C2317 1.379 . S
C2312 N2319 1.356 . S
C2313 C2312 1.363 . S
C2313 C2316 1.363 . S
N2314 C2316 1.356 . S
N2314 H2326 0.984 . S
N2314 H2327 0.985 . S
N2315 C2317 1.356 . S
N2315 H2320 0.984 . S
N2315 H2321 0.985 . S
C2316 C2310 1.379 . S
C2316 C2313 1.363 . S
C2316 N2314 1.356 . S
C2317 C2311 1.363 . S
C2317 C2312 1.379 . S
C2317 N2315 1.356 . S
N2318 C2310 1.356 . S
N2318 H2324 0.984 . S
N2318 H2325 0.984 . S
N2319 C2312 1.356 . S
N2319 H2322 0.984 . S
N2319 H2323 0.985 . S
H2320 N2315 0.984 . S
H2321 N2315 0.985 . S
H2322 N2319 0.984 . S
H2323 N2319 0.985 . S
H2324 N2318 0.984 . S
H2325 N2318 0.984 . S
H2326 N2314 0.984 . S
H2327 N2314 0.985 . S
C2328 C2329 1.363 . S
C2328 C2334 1.379 . S
C2328 N2336 1.356 . S
C2329 C2328 1.363 . S
C2329 C2335 1.363 . S
C2330 C2331 1.363 . S
C2330 C2335 1.379 . S
C2330 N2337 1.356 . S
C2331 C2330 1.363 . S
C2331 C2334 1.363 . S
N2332 C2334 1.356 . S
N2332 H2344 0.984 . S
N2332 H2345 0.985 . S
N2333 C2335 1.356 . S
N2333 H2338 0.984 . S
N2333 H2339 0.985 . S
C2334 C2328 1.379 . S
C2334 C2331 1.363 . S
C2334 N2332 1.356 . S
C2335 C2329 1.363 . S
C2335 C2330 1.379 . S
C2335 N2333 1.356 . S
N2336 C2328 1.356 . S
N2336 H2342 0.984 . S
N2336 H2343 0.984 . S
N2337 C2330 1.356 . S
N2337 H2340 0.984 . S
N2337 H2341 0.985 . S
H2338 N2333 0.984 . S
H2339 N2333 0.985 . S
H2340 N2337 0.984 . S
H2341 N2337 0.985 . S
H2342 N2336 0.984 . S
H2343 N2336 0.984 . S
H2344 N2332 0.984 . S
H2345 N2332 0.985 . S
C2346 C2347 1.363 . S
C2346 C2352 1.379 . S
C2346 N2354 1.356 . S
C2347 C2346 1.363 . S
C2347 C2353 1.363 . S
C2348 C2349 1.363 . S
C2348 C2353 1.379 . S
C2348 N2355 1.356 . S
C2349 C2348 1.363 . S
C2349 C2352 1.363 . S
N2350 C2352 1.356 . S
N2350 H2362 0.984 . S
N2350 H2363 0.985 . S
N2351 C2353 1.356 . S
N2351 H2356 0.984 . S
N2351 H2357 0.985 . S
C2352 C2346 1.379 . S
C2352 C2349 1.363 . S
C2352 N2350 1.356 . S
C2353 C2347 1.363 . S
C2353 C2348 1.379 . S
C2353 N2351 1.356 . S
N2354 C2346 1.356 . S
N2354 H2360 0.984 . S
N2354 H2361 0.984 . S
N2355 C2348 1.356 . S
N2355 H2358 0.984 . S
N2355 H2359 0.985 . S
H2356 N2351 0.984 . S
H2357 N2351 0.985 . S
H2358 N2355 0.984 . S
H2359 N2355 0.985 . S
H2360 N2354 0.984 . S
H2361 N2354 0.984 . S
H2362 N2350 0.984 . S
H2363 N2350 0.985 . S
C2364 C2365 1.363 . S
C2364 C2370 1.379 . S
C2364 N2372 1.356 . S
C2365 C2364 1.363 . S
C2365 C2371 1.363 . S
C2366 C2367 1.363 . S
C2366 C2371 1.379 . S
C2366 N2373 1.356 . S
C2367 C2366 1.363 . S
C2367 C2370 1.363 . S
N2368 C2370 1.356 . S
N2368 H2380 0.984 . S
N2368 H2381 0.985 . S
N2369 C2371 1.356 . S
N2369 H2374 0.984 . S
N2369 H2375 0.985 . S
C2370 C2364 1.379 . S
C2370 C2367 1.363 . S
C2370 N2368 1.356 . S
C2371 C2365 1.363 . S
C2371 C2366 1.379 . S
C2371 N2369 1.356 . S
N2372 C2364 1.356 . S
N2372 H2378 0.984 . S
N2372 H2379 0.984 . S
N2373 C2366 1.356 . S
N2373 H2376 0.984 . S
N2373 H2377 0.985 . S
H2374 N2369 0.984 . S
H2375 N2369 0.985 . S
H2376 N2373 0.984 . S
H2377 N2373 0.985 . S
H2378 N2372 0.984 . S
H2379 N2372 0.984 . S
H2380 N2368 0.984 . S
H2381 N2368 0.985 . S
C2382 C2383 1.363 . S
C2382 C2388 1.379 . S
C2382 N2390 1.356 . S
C2383 C2382 1.363 . S
C2383 C2389 1.363 . S
C2384 C2385 1.363 . S
C2384 C2389 1.379 . S
C2384 N2391 1.356 . S
C2385 C2384 1.363 . S
C2385 C2388 1.363 . S
N2386 C2388 1.356 . S
N2386 H2398 0.984 . S
N2386 H2399 0.985 . S
N2387 C2389 1.356 . S
N2387 H2392 0.984 . S
N2387 H2393 0.985 . S
C2388 C2382 1.379 . S
C2388 C2385 1.363 . S
C2388 N2386 1.356 . S
C2389 C2383 1.363 . S
C2389 C2384 1.379 . S
C2389 N2387 1.356 . S
N2390 C2382 1.356 . S
N2390 H2396 0.984 . S
N2390 H2397 0.984 . S
N2391 C2384 1.356 . S
N2391 H2394 0.984 . S
N2391 H2395 0.985 . S
H2392 N2387 0.984 . S
H2393 N2387 0.985 . S
H2394 N2391 0.984 . S
H2395 N2391 0.985 . S
H2396 N2390 0.984 . S
H2397 N2390 0.984 . S
H2398 N2386 0.984 . S
H2399 N2386 0.985 . S
C673 C442 1.420 . S
C675 C8 1.420 . S
C691 C22 1.420 . S
C693 C400 1.420 . S
C709 C36 1.420 . S
C711 C414 1.420 . S
C727 C428 1.420 . S
C729 C50 1.420 . S
C745 C358 1.420 . S
C747 C64 1.420 . S
C763 C78 1.420 . S
C765 C372 1.420 . S
C781 C386 1.420 . S
C783 C92 1.420 . S
C799 C106 1.420 . S
C801 C344 1.420 . S
C817 C120 1.420 . S
C819 C624 1.420 . S
C835 C582 1.420 . S
C837 C134 1.420 . S
C853 C596 1.420 . S
C855 C148 1.420 . S
C871 C162 1.420 . S
C873 C610 1.420 . S
C889 C176 1.420 . S
C891 C666 1.420 . S
C907 C190 1.420 . S
C909 C638 1.420 . S
C925 C204 1.420 . S
C927 C652 1.420 . S
C943 C568 1.420 . S
C945 C218 1.420 . S
C961 C554 1.420 . S
C963 C232 1.420 . S
C979 C246 1.420 . S
C981 C470 1.420 . S
C997 C484 1.420 . S
C999 C260 1.420 . S
C1015 C274 1.420 . S
C1017 C498 1.420 . S
C1033 C456 1.420 . S
C1035 C288 1.420 . S
C1051 C526 1.420 . S
C1053 C302 1.420 . S
C1069 C316 1.420 . S
C1071 C540 1.420 . S
C1087 C512 1.420 . S
C1089 C330 1.420 . S
C1105 C133 1.365 . S
C1107 C7 1.365 . S
C1123 C147 1.365 . S
C1125 C21 1.365 . S
C1141 C35 1.365 . S
C1143 C161 1.365 . S
C1159 C119 1.365 . S
C1161 C49 1.365 . S
C1177 C63 1.365 . S
C1179 C217 1.365 . S
C1195 C175 1.365 . S
C1197 C77 1.365 . S
C1213 C189 1.365 . S
C1215 C91 1.365 . S
C1231 C203 1.365 . S
C1233 C105 1.365 . S
C1249 C259 1.365 . S
C1251 C231 1.365 . S
C1267 C315 1.365 . S
C1269 C245 1.365 . S
C1285 C329 1.365 . S
C1287 C273 1.365 . S
C1303 C287 1.365 . S
C1305 C301 1.365 . S
C1321 C469 1.365 . S
C1323 C343 1.365 . S
C1339 C483 1.365 . S
C1341 C357 1.365 . S
C1357 C497 1.365 . S
C1359 C371 1.365 . S
C1375 C385 1.365 . S
C1377 C455 1.365 . S
C1393 C399 1.365 . S
C1395 C553 1.365 . S
C1411 C413 1.365 . S
C1413 C511 1.365 . S
C1429 C525 1.365 . S
C1431 C427 1.365 . S
C1447 C539 1.365 . S
C1449 C441 1.365 . S
C1465 C567 1.365 . S
C1467 C595 1.365 . S
C1483 C651 1.365 . S
C1485 C581 1.365 . S
C1501 C665 1.365 . S
C1503 C609 1.365 . S
C1519 C637 1.365 . S
C1521 C623 1.365 . S
C1537 C3 1.454 . S
C1539 C261 1.423 . S
C1555 C17 1.454 . S
C1557 C275 1.423 . S
C1573 C31 1.454 . S
C1575 C289 1.423 . S
C1591 C247 1.423 . S
C1593 C45 1.454 . S
C1609 C59 1.454 . S
C1611 C317 1.423 . S
C1627 C73 1.454 . S
C1629 C233 1.423 . S
C1645 C331 1.423 . S
C1647 C87 1.454 . S
C1663 C303 1.423 . S
C1665 C101 1.454 . S
C1681 C115 1.454 . S
C1683 C135 1.423 . S
C1699 C129 1.454 . S
C1701 C149 1.423 . S
C1717 C143 1.454 . S
C1719 C163 1.423 . S
C1735 C121 1.423 . S
C1737 C157 1.454 . S
C1753 C219 1.423 . S
C1755 C171 1.454 . S
C1771 C177 1.423 . S
C1773 C185 1.454 . S
C1789 C191 1.423 . S
C1791 C199 1.454 . S
C1807 C213 1.454 . S
C1809 C205 1.423 . S
C1825 C51 1.423 . S
C1827 C227 1.454 . S
C1843 C79 1.423 . S
C1845 C241 1.454 . S
C1861 C93 1.423 . S
C1863 C255 1.454 . S
C1879 C269 1.454 . S
C1881 C107 1.423 . S
C1897 C65 1.423 . S
C1899 C283 1.454 . S
C1915 C23 1.423 . S
C1917 C297 1.454 . S
C1933 C37 1.423 . S
C1935 C311 1.454 . S
C1951 C9 1.423 . S
C1953 C325 1.454 . S
C1969 C597 1.423 . S
C1971 C339 1.454 . S
C1987 C353 1.454 . S
C1989 C611 1.423 . S
C2005 C625 1.423 . S
C2007 C367 1.454 . S
C2023 C583 1.423 . S
C2025 C381 1.454 . S
C2041 C395 1.454 . S
C2043 C653 1.423 . S
C2059 C409 1.454 . S
C2061 C569 1.423 . S
C2077 C667 1.423 . S
C2079 C423 1.454 . S
C2095 C437 1.454 . S
C2097 C639 1.423 . S
C2113 C451 1.454 . S
C2115 C471 1.423 . S
C2131 C465 1.454 . S
C2133 C485 1.423 . S
C2149 C479 1.454 . S
C2151 C499 1.423 . S
C2167 C493 1.454 . S
C2169 C457 1.423 . S
C2185 C555 1.423 . S
C2187 C507 1.454 . S
C2203 C513 1.423 . S
C2205 C521 1.454 . S
C2221 C527 1.423 . S
C2223 C535 1.454 . S
C2239 C549 1.454 . S
C2241 C541 1.423 . S
C2257 C387 1.423 . S
C2259 C563 1.454 . S
C2275 C415 1.423 . S
C2277 C577 1.454 . S
C2293 C429 1.423 . S
C2295 C591 1.454 . S
C2311 C605 1.454 . S
C2313 C443 1.423 . S
C2329 C401 1.423 . S
C2331 C619 1.454 . S
C2347 C359 1.423 . S
C2349 C633 1.454 . S
C2365 C647 1.454 . S
C2367 C373 1.423 . S
C2383 C345 1.423 . S
C2385 C661 1.454 . S
