# Generated by pormake.
# Topology sml, (6)-cn, num edge types: 1
# Building blocks:
#     Node 0, Type 0, BuildingBlock: BETDEL_clean_sbu_0, # of connection points: 6
#     Node 1, Type 0, BuildingBlock: BETDEL_clean_sbu_0, # of connection points: 6
#     Node 2, Type 0, BuildingBlock: BETDEL_clean_sbu_0, # of connection points: 6
#     Node 3, Type 0, BuildingBlock: BETDEL_clean_sbu_0, # of connection points: 6
#     Node 4, Type 0, BuildingBlock: BETDEL_clean_sbu_0, # of connection points: 6
#     Node 5, Type 0, BuildingBlock: BETDEL_clean_sbu_0, # of connection points: 6
#     Edge 6, Type (0, 0), BuildingBlock: KIFKEQ_clean_linker_1, # of connection points: 2
#     Edge 7, Type (0, 0), BuildingBlock: KIFKEQ_clean_linker_1, # of connection points: 2
#     Edge 8, Type (0, 0), BuildingBlock: KIFKEQ_clean_linker_1, # of connection points: 2
#     Edge 9, Type (0, 0), BuildingBlock: KIFKEQ_clean_linker_1, # of connection points: 2
#     Edge 10, Type (0, 0), BuildingBlock: KIFKEQ_clean_linker_1, # of connection points: 2
#     Edge 11, Type (0, 0), BuildingBlock: KIFKEQ_clean_linker_1, # of connection points: 2
#     Edge 12, Type (0, 0), BuildingBlock: KIFKEQ_clean_linker_1, # of connection points: 2
#     Edge 13, Type (0, 0), BuildingBlock: KIFKEQ_clean_linker_1, # of connection points: 2
#     Edge 14, Type (0, 0), BuildingBlock: KIFKEQ_clean_linker_1, # of connection points: 2
#     Edge 15, Type (0, 0), BuildingBlock: KIFKEQ_clean_linker_1, # of connection points: 2
#     Edge 16, Type (0, 0), BuildingBlock: KIFKEQ_clean_linker_1, # of connection points: 2
#     Edge 17, Type (0, 0), BuildingBlock: KIFKEQ_clean_linker_1, # of connection points: 2
#     Edge 18, Type (0, 0), BuildingBlock: KIFKEQ_clean_linker_1, # of connection points: 2
#     Edge 19, Type (0, 0), BuildingBlock: KIFKEQ_clean_linker_1, # of connection points: 2
#     Edge 20, Type (0, 0), BuildingBlock: KIFKEQ_clean_linker_1, # of connection points: 2
#     Edge 21, Type (0, 0), BuildingBlock: KIFKEQ_clean_linker_1, # of connection points: 2
#     Edge 22, Type (0, 0), BuildingBlock: KIFKEQ_clean_linker_1, # of connection points: 2
#     Edge 23, Type (0, 0), BuildingBlock: KIFKEQ_clean_linker_1, # of connection points: 2
# Relax obj value: 0.137
# Max RMSD: 0.174
# Mean RMSD: 0.174
data_MOF--net-sml--node1-BETDEL_clean_sbu_0--edge1-KIFKEQ_clean_linker_1
_symmetry_space_group_name_H-M    P1
_symmetry_Int_Tables_number       1
_symmetry_cell_setting            triclinic
loop_
_symmetry_equiv_pos_as_xyz
'x, y, z'
_cell_length_a     36.445388
_cell_length_b     36.429112
_cell_length_c     18.267883
_cell_angle_alpha  90.011269
_cell_angle_beta   90.021504
_cell_angle_gamma 120.00232
loop_
_atom_site_label
_atom_site_type_symbol
_atom_site_fract_x
_atom_site_fract_y
_atom_site_fract_z
_atom_type_partial_charge
Dy0 Dy 0.18198 0.43074 0.07332 0.0
C1 C 0.21446 0.42298 0.38054 0.0
C2 C 0.18672 0.44015 0.92511 0.0
Dy3 Dy 0.20904 0.4255 0.23218 0.0
O4 O 0.15162 0.41945 0.96178 0.0
O5 O 0.21872 0.45634 0.96952 0.0
O6 O 0.1136 0.40174 0.10544 0.0
O7 O 0.15418 0.38669 0.16435 0.0
C8 C 0.11797 0.38335 0.1632 0.0
C9 C 0.27183 0.4726 0.13927 0.0
O10 O 0.21282 0.37064 0.18702 0.0
O11 O 0.20568 0.38438 0.06483 0.0
O12 O 0.23776 0.4557 0.33984 0.0
O13 O 0.18887 0.39099 0.33996 0.0
O14 O 0.2761 0.45177 0.19327 0.0
O15 O 0.23609 0.47006 0.14211 0.0
O16 O 0.18256 0.48786 0.12027 0.0
O17 O 0.17812 0.46545 0.24068 0.0
C18 C 0.21408 0.3637 0.11602 0.0
C19 C 0.1759 0.4908 0.19094 0.0
Dy20 Dy 0.81975 0.24975 0.62715 0.0
C21 C 0.78712 0.20905 0.31999 0.0
C22 C 0.81537 0.25478 0.77542 0.0
Dy23 Dy 0.79258 0.21702 0.46838 0.0
O24 O 0.85027 0.26789 0.73869 0.0
O25 O 0.78339 0.2401 0.73102 0.0
O26 O 0.88806 0.28929 0.59472 0.0
O27 O 0.84754 0.23345 0.53617 0.0
C28 C 0.8837 0.26642 0.5371 0.0
C29 C 0.72982 0.20123 0.56138 0.0
O30 O 0.78921 0.15865 0.51379 0.0
O31 O 0.79595 0.17963 0.6359 0.0
O32 O 0.76381 0.21843 0.36073 0.0
O33 O 0.81273 0.20267 0.36054 0.0
O34 O 0.72559 0.17609 0.50744 0.0
O35 O 0.7655 0.23453 0.55842 0.0
O36 O 0.81968 0.3065 0.57983 0.0
O37 O 0.82327 0.28781 0.45952 0.0
C38 C 0.78781 0.15053 0.58483 0.0
C39 C 0.8259 0.31571 0.50896 0.0
Dy40 Dy 0.57287 0.74679 0.71446 0.0
C41 C 0.59304 0.78877 0.02087 0.0
C42 C 0.56857 0.73872 0.56575 0.0
Dy43 Dy 0.58309 0.78238 0.87244 0.0
O44 O 0.59912 0.74161 0.60637 0.0
O45 O 0.53941 0.73877 0.60668 0.0
O46 O 0.59699 0.70438 0.75167 0.0
O47 O 0.61936 0.76405 0.80199 0.0
C48 C 0.61992 0.72962 0.80414 0.0
C49 C 0.53236 0.7954 0.78303 0.0
O50 O 0.63805 0.83851 0.82227 0.0
O51 O 0.61373 0.81787 0.70327 0.0
O52 O 0.57023 0.80048 0.98368 0.0
O53 O 0.61137 0.77506 0.9767 0.0
O54 O 0.55392 0.82156 0.83559 0.0
O55 O 0.53623 0.76308 0.78637 0.0
O56 O 0.51603 0.69098 0.76428 0.0
O57 O 0.53676 0.71272 0.88476 0.0
C58 C 0.63929 0.84679 0.75139 0.0
C59 C 0.51202 0.68381 0.83602 0.0
Dy60 Dy 0.75773 0.58444 0.30034 0.0
C61 C 0.80195 0.59607 0.98949 0.0
C62 C 0.74293 0.57865 0.44748 0.0
Dy63 Dy 0.79495 0.58637 0.13743 0.0
O64 O 0.75289 0.61174 0.40739 0.0
O65 O 0.73904 0.54767 0.40641 0.0
O66 O 0.74301 0.6354 0.2656 0.0
O67 O 0.74583 0.59504 0.18821 0.0
C68 C 0.74294 0.62772 0.19609 0.0
C69 C 0.82147 0.55023 0.23718 0.0
O70 O 0.8457 0.64789 0.18435 0.0
O71 O 0.82737 0.63114 0.30747 0.0
O72 O 0.7997 0.56409 0.02513 0.0
O73 O 0.80226 0.62373 0.03508 0.0
O74 O 0.83328 0.55499 0.16871 0.0
O75 O 0.79832 0.56636 0.24551 0.0
O76 O 0.70523 0.5224 0.25651 0.0
O77 O 0.73129 0.52722 0.13662 0.0
C78 C 0.85402 0.65532 0.25546 0.0
C79 C 0.70254 0.50738 0.18883 0.0
Dy80 Dy 0.24453 0.82793 0.40119 0.0
C81 C 0.20147 0.79164 0.71268 0.0
C82 C 0.258 0.82765 0.25467 0.0
Dy83 Dy 0.20748 0.79269 0.56451 0.0
O84 O 0.26844 0.86166 0.29297 0.0
O85 O 0.24205 0.79473 0.29707 0.0
O86 O 0.25488 0.89233 0.43424 0.0
O87 O 0.25533 0.85088 0.51298 0.0
C88 C 0.25616 0.88551 0.50406 0.0
C89 C 0.18283 0.73023 0.46508 0.0
O90 O 0.15628 0.80287 0.51809 0.0
O91 O 0.17613 0.80999 0.39442 0.0
O92 O 0.20796 0.76558 0.67373 0.0
O93 O 0.19621 0.81744 0.67027 0.0
O94 O 0.16994 0.72281 0.53289 0.0
O95 O 0.2057 0.76955 0.45761 0.0
O96 O 0.2978 0.82002 0.44575 0.0
O97 O 0.2724 0.80027 0.56617 0.0
C98 C 0.14876 0.80468 0.44719 0.0
C99 C 0.30105 0.80892 0.51397 0.0
Dy100 Dy 0.42871 0.17466 0.98517 0.0
C101 C 0.40921 0.19693 0.6789 0.0
C102 C 0.43317 0.17096 0.13389 0.0
Dy103 Dy 0.41921 0.20075 0.82736 0.0
O104 O 0.40274 0.14307 0.09332 0.0
O105 O 0.46211 0.20033 0.0929 0.0
O106 O 0.40356 0.10801 0.94738 0.0
O107 O 0.38217 0.1462 0.89747 0.0
C108 C 0.38092 0.11089 0.89499 0.0
C109 C 0.4706 0.26402 0.91714 0.0
O110 O 0.36445 0.20232 0.8775 0.0
O111 O 0.38841 0.20544 0.99659 0.0
O112 O 0.43131 0.23166 0.71609 0.0
O113 O 0.39166 0.16485 0.72309 0.0
O114 O 0.44942 0.26916 0.86455 0.0
O115 O 0.46605 0.22755 0.91359 0.0
O116 O 0.48523 0.17499 0.93553 0.0
O117 O 0.46515 0.17693 0.81496 0.0
C118 C 0.36313 0.20921 0.94845 0.0
C119 C 0.48944 0.17212 0.86377 0.0
H120 H 0.29908 0.21204 0.87419 0.0
H121 H 0.3634 0.2419 0.08302 0.0
H122 H 0.25639 0.24241 0.91602 0.0
H123 H 0.32218 0.27361 0.12364 0.0
H124 H 0.22627 0.30791 0.19944 0.0
H125 H 0.25575 0.26399 0.16 0.0
H126 H 0.26554 0.3102 0.93881 0.0
H127 H 0.23473 0.35251 0.97747 0.0
C128 C 0.30406 0.22497 0.92904 0.0
C129 C 0.33482 0.22468 0.97502 0.0
C130 C 0.27974 0.24262 0.95296 0.0
C131 C 0.28592 0.26081 0.02317 0.0
C132 C 0.31592 0.25938 0.06972 0.0
C133 C 0.33988 0.24139 0.04611 0.0
C134 C 0.23419 0.30822 0.14223 0.0
C135 C 0.22823 0.33389 0.09179 0.0
C136 C 0.25138 0.28323 0.11962 0.0
C137 C 0.2634 0.28366 0.04619 0.0
C138 C 0.25614 0.3084 0.99551 0.0
C139 C 0.23863 0.33299 0.01792 0.0
H140 H 0.03657 0.32211 0.13966 0.0
H141 H 0.12379 0.39655 0.31016 0.0
H142 H 0.97989 0.28812 0.22972 0.0
H143 H 0.06734 0.36521 0.40002 0.0
H144 H 0.96512 0.28675 0.56077 0.0
H145 H 0.02179 0.30933 0.47074 0.0
H146 H 0.9343 0.2985 0.30022 0.0
H147 H 0.87784 0.27348 0.39007 0.0
C148 C 0.04351 0.33104 0.19673 0.0
C149 C 0.08461 0.36124 0.21844 0.0
C150 C 0.01098 0.31196 0.24847 0.0
C151 C 0.01854 0.32377 0.32289 0.0
C152 C 0.06007 0.35416 0.34405 0.0
C153 C 0.09272 0.37232 0.29248 0.0
C154 C 0.95816 0.28861 0.50366 0.0
C155 C 0.91706 0.27761 0.48189 0.0
C156 C 0.99069 0.302 0.45194 0.0
C157 C 0.98312 0.3061 0.37746 0.0
C158 C 0.94158 0.29483 0.35624 0.0
C159 C 0.90893 0.28041 0.4078 0.0
H160 H 0.77631 0.08275 0.50158 0.0
H161 H 0.7668 0.11857 0.7233 0.0
H162 H 0.74702 0.00936 0.54088 0.0
H163 H 0.73619 0.0454 0.76182 0.0
H164 H 0.7031 0.9137 0.82613 0.0
H165 H 0.74566 0.98687 0.78474 0.0
H166 H 0.68049 0.95235 0.57656 0.0
H167 H 0.63937 0.87932 0.61675 0.0
C168 C 0.76819 0.07506 0.55872 0.0
C169 C 0.7738 0.10661 0.60912 0.0
C170 C 0.75112 0.03289 0.58124 0.0
C171 C 0.73886 0.0212 0.65454 0.0
C172 C 0.74577 0.05309 0.70522 0.0
C173 C 0.76317 0.09522 0.6829 0.0
C174 C 0.69824 0.92168 0.77124 0.0
C175 C 0.66766 0.89061 0.72498 0.0
C176 C 0.72248 0.96372 0.74757 0.0
C177 C 0.71642 0.97578 0.67735 0.0
C178 C 0.68664 0.94434 0.63051 0.0
C179 C 0.66274 0.90232 0.65387 0.0
H180 H 0.68198 0.78083 0.9015 0.0
H181 H 0.60288 0.65029 0.83656 0.0
H182 H 0.7149 0.75882 0.99582 0.0
H183 H 0.63443 0.6281 0.93117 0.0
H184 H 0.72299 0.60064 0.05542 0.0
H185 H 0.69758 0.62866 0.95982 0.0
H186 H 0.70216 0.72225 0.11094 0.0
H187 H 0.73044 0.69561 0.20556 0.0
C188 C 0.67153 0.74746 0.90778 0.0
C189 C 0.64005 0.71727 0.86173 0.0
C190 C 0.69021 0.73478 0.96188 0.0
C191 C 0.67766 0.69166 0.97085 0.0
C192 C 0.64575 0.66164 0.9249 0.0
C193 C 0.62742 0.67432 0.87081 0.0
C194 C 0.71966 0.6279 0.06771 0.0
C195 C 0.72931 0.64633 0.13762 0.0
C196 C 0.70434 0.64357 0.01321 0.0
C197 C 0.69731 0.67751 0.02766 0.0
C198 C 0.7076 0.6964 0.09751 0.0
C199 C 0.72353 0.68099 0.1519 0.0
H200 H 0.07439 0.76113 0.52286 0.0
H201 H 0.12601 0.82499 0.31756 0.0
H202 H 0.00309 0.73289 0.47477 0.0
H203 H 0.05463 0.79819 0.27016 0.0
H204 H 0.92851 0.68835 0.17929 0.0
H205 H 0.99975 0.73259 0.22754 0.0
H206 H 0.94717 0.74215 0.43409 0.0
H207 H 0.87607 0.69641 0.38654 0.0
C208 C 0.0705 0.77024 0.46822 0.0
C209 C 0.10589 0.79498 0.42386 0.0
C210 C 0.02948 0.75408 0.44047 0.0
C211 C 0.02285 0.76275 0.36798 0.0
C212 C 0.05838 0.78993 0.3255 0.0
C213 C 0.09937 0.80562 0.35293 0.0
C214 C 0.9322 0.70063 0.23447 0.0
C215 C 0.89671 0.68854 0.27931 0.0
C216 C 0.97314 0.72617 0.26228 0.0
C217 C 0.97946 0.74067 0.3353 0.0
C218 C 0.9437 0.73078 0.37834 0.0
C219 C 0.90287 0.70479 0.35086 0.0
H220 H 0.31969 0.10169 0.79694 0.0
H221 H 0.39589 0.04719 0.8629 0.0
H222 H 0.28591 0.0469 0.70238 0.0
H223 H 0.36338 0.99353 0.76833 0.0
H224 H 0.27311 0.87816 0.6461 0.0
H225 H 0.29861 0.93187 0.74106 0.0
H226 H 0.2983 0.02179 0.58698 0.0
H227 H 0.26991 0.96654 0.49259 0.0
C228 C 0.32931 0.07813 0.79087 0.0
C229 C 0.36024 0.07852 0.83728 0.0
C230 C 0.31013 0.04686 0.73666 0.0
C231 C 0.32154 0.01542 0.72809 0.0
C232 C 0.35293 0.01645 0.77433 0.0
C233 C 0.3718 0.0474 0.82841 0.0
C234 C 0.27733 0.909 0.63291 0.0
C235 C 0.26901 0.91796 0.56212 0.0
C236 C 0.29272 0.94014 0.68711 0.0
C237 C 0.30117 0.98148 0.67161 0.0
C238 C 0.29185 0.99024 0.60109 0.0
C239 C 0.27582 0.9587 0.54688 0.0
H240 H 0.25932 0.47634 0.84616 0.0
H241 H 0.12321 0.40335 0.82414 0.0
H242 H 0.26708 0.47091 0.71491 0.0
H243 H 0.1308 0.39886 0.6919 0.0
H244 H 0.16141 0.35973 0.47285 0.0
H245 H 0.15473 0.36468 0.60519 0.0
H246 H 0.25564 0.49539 0.60003 0.0
H247 H 0.26295 0.48993 0.46862 0.0
C248 C 0.23103 0.45965 0.81291 0.0
C249 C 0.19066 0.44028 0.84501 0.0
C250 C 0.23545 0.45661 0.73769 0.0
C251 C 0.19956 0.43428 0.69293 0.0
C252 C 0.15908 0.41566 0.72506 0.0
C253 C 0.15468 0.41859 0.80053 0.0
C254 C 0.18249 0.38925 0.50042 0.0
C255 C 0.21283 0.42437 0.46087 0.0
C256 C 0.17837 0.39228 0.57594 0.0
C257 C 0.20448 0.43052 0.61309 0.0
C258 C 0.23535 0.46534 0.57332 0.0
C259 C 0.23951 0.46226 0.49802 0.0
H260 H 0.83984 0.19844 0.22745 0.0
H261 H 0.7391 0.22819 0.23208 0.0
H262 H 0.84663 0.21024 0.09517 0.0
H263 H 0.74658 0.24122 0.10078 0.0
H264 H 0.74278 0.21933 0.85449 0.0
H265 H 0.73487 0.2059 0.98566 0.0
H266 H 0.87107 0.26811 0.00851 0.0
H267 H 0.87877 0.28033 0.87634 0.0
C268 C 0.81896 0.20717 0.19998 0.0
C269 C 0.7888 0.21218 0.23965 0.0
C270 C 0.82315 0.21442 0.12448 0.0
C271 C 0.79732 0.22694 0.08744 0.0
C272 C 0.76664 0.23115 0.12734 0.0
C273 C 0.7624 0.22377 0.20261 0.0
C274 C 0.77103 0.23045 0.8877 0.0
C275 C 0.8114 0.2509 0.85554 0.0
C276 C 0.76652 0.22284 0.96289 0.0
C277 C 0.80233 0.23576 0.0076 0.0
C278 C 0.84282 0.2571 0.97542 0.0
C279 C 0.8473 0.26452 0.89998 0.0
H280 H 0.63407 0.75176 0.47823 0.0
H281 H 0.50835 0.7354 0.47246 0.0
H282 H 0.64157 0.76603 0.34748 0.0
H283 H 0.51493 0.74792 0.34039 0.0
H284 H 0.55678 0.81633 0.12142 0.0
H285 H 0.55055 0.80322 0.25327 0.0
H286 H 0.619 0.73518 0.23137 0.0
H287 H 0.62667 0.74997 0.10071 0.0
C288 C 0.60769 0.75043 0.44856 0.0
C289 C 0.57059 0.74237 0.4853 0.0
C290 C 0.61191 0.75851 0.37343 0.0
C291 C 0.57893 0.7583 0.33307 0.0
C292 C 0.54131 0.74914 0.36983 0.0
C293 C 0.53727 0.74144 0.44529 0.0
C294 C 0.57094 0.79911 0.14525 0.0
C295 C 0.59239 0.78438 0.10114 0.0
C296 C 0.56696 0.79111 0.2206 0.0
C297 C 0.58398 0.76783 0.25316 0.0
C298 C 0.60598 0.7537 0.20867 0.0
C299 C 0.61032 0.76209 0.13363 0.0
H300 H 0.77794 0.64465 0.91294 0.0
H301 H 0.81091 0.54697 0.88685 0.0
H302 H 0.75893 0.63861 0.78391 0.0
H303 H 0.79433 0.54238 0.75668 0.0
H304 H 0.72494 0.51324 0.54137 0.0
H305 H 0.73836 0.51794 0.67306 0.0
H306 H 0.78454 0.65279 0.66506 0.0
H307 H 0.76889 0.64734 0.53506 0.0
C308 C 0.78205 0.62256 0.87903 0.0
C309 C 0.79608 0.59642 0.90964 0.0
C310 C 0.77118 0.61905 0.80488 0.0
C311 C 0.77478 0.58978 0.75931 0.0
C312 C 0.79009 0.56454 0.79004 0.0
C313 C 0.80023 0.56756 0.86447 0.0
C314 C 0.73714 0.54362 0.56837 0.0
C315 C 0.74569 0.57984 0.52816 0.0
C316 C 0.74544 0.54654 0.64367 0.0
C317 C 0.76309 0.5859 0.68012 0.0
C318 C 0.77045 0.62183 0.63967 0.0
C319 C 0.76157 0.61875 0.56482 0.0
H320 H 0.22643 0.74827 0.79979 0.0
H321 H 0.19286 0.84633 0.80467 0.0
H322 H 0.24483 0.75978 0.92851 0.0
H323 H 0.20935 0.85666 0.9357 0.0
H324 H 0.27979 0.89143 0.15463 0.0
H325 H 0.26651 0.88338 0.02245 0.0
H326 H 0.21372 0.74793 0.04396 0.0
H327 H 0.22869 0.75636 0.17399 0.0
C328 C 0.22217 0.77178 0.82895 0.0
C329 C 0.20782 0.79613 0.79252 0.0
C330 C 0.23267 0.77836 0.90297 0.0
C331 C 0.22846 0.80906 0.94289 0.0
C332 C 0.21355 0.83316 0.90648 0.0
C333 C 0.20352 0.82689 0.83178 0.0
C334 C 0.26617 0.86016 0.13043 0.0
C335 C 0.25551 0.82457 0.17425 0.0
C336 C 0.258 0.85542 0.05502 0.0
C337 C 0.23882 0.81496 0.02239 0.0
C338 C 0.22913 0.77965 0.0666 0.0
C339 C 0.23762 0.78445 0.14141 0.0
H340 H 0.3764 0.12446 0.59934 0.0
H341 H 0.44449 0.26072 0.578 0.0
H342 H 0.38389 0.11729 0.46866 0.0
H343 H 0.45055 0.25375 0.44609 0.0
H344 H 0.49311 0.22852 0.22679 0.0
H345 H 0.48662 0.23461 0.35883 0.0
H346 H 0.36068 0.1249 0.35263 0.0
H347 H 0.3681 0.11801 0.22184 0.0
C348 C 0.39232 0.15291 0.56629 0.0
C349 C 0.40981 0.19316 0.59862 0.0
C350 C 0.39655 0.14883 0.49122 0.0
C351 C 0.41799 0.18493 0.44652 0.0
C352 C 0.43457 0.22526 0.47892 0.0
C353 C 0.43068 0.22931 0.5543 0.0
C354 C 0.46437 0.20542 0.25413 0.0
C355 C 0.43122 0.17267 0.21435 0.0
C356 C 0.46037 0.20916 0.32958 0.0
C357 C 0.42298 0.18042 0.3666 0.0
C358 C 0.39017 0.14728 0.32647 0.0
C359 C 0.39434 0.14335 0.25134 0.0
H360 H 0.196 0.56657 0.1252 0.0
H361 H 0.13879 0.49167 0.31911 0.0
H362 H 0.1919 0.62582 0.18045 0.0
H363 H 0.13533 0.55039 0.37417 0.0
H364 H 0.11262 0.65301 0.44955 0.0
H365 H 0.10368 0.59487 0.37056 0.0
H366 H 0.22934 0.67475 0.28307 0.0
H367 H 0.23802 0.73241 0.36262 0.0
C368 C 0.18187 0.56248 0.17889 0.0
C369 C 0.16804 0.52459 0.218 0.0
C370 C 0.17982 0.59647 0.21076 0.0
C371 C 0.16343 0.59294 0.28188 0.0
C372 C 0.14767 0.55418 0.31907 0.0
C373 C 0.15 0.52053 0.28763 0.0
C374 C 0.13787 0.65826 0.41219 0.0
C375 C 0.17557 0.69744 0.4106 0.0
C376 C 0.13288 0.62501 0.36716 0.0
C377 C 0.1658 0.63011 0.32037 0.0
C378 C 0.20299 0.66996 0.31713 0.0
C379 C 0.20788 0.70321 0.36217 0.0
H380 H 0.65772 0.1265 0.58705 0.0
H381 H 0.72708 0.25682 0.65853 0.0
H382 H 0.60084 0.11285 0.67275 0.0
H383 H 0.67014 0.24334 0.74412 0.0
H384 H 0.5694 0.20184 0.91969 0.0
H385 H 0.63 0.20467 0.85547 0.0
H386 H 0.54796 0.13496 0.67486 0.0
H387 H 0.4881 0.13188 0.73879 0.0
C388 C 0.66087 0.15215 0.62146 0.0
C389 C 0.69666 0.19273 0.61603 0.0
C390 C 0.62836 0.14434 0.67059 0.0
C391 C 0.63089 0.17702 0.71523 0.0
C392 C 0.66744 0.21732 0.71136 0.0
C393 C 0.69993 0.22513 0.66203 0.0
C394 C 0.56431 0.18615 0.86722 0.0
C395 C 0.52418 0.16682 0.83401 0.0
C396 C 0.59899 0.18815 0.83012 0.0
C397 C 0.59386 0.17031 0.75979 0.0
C398 C 0.55307 0.1487 0.72909 0.0
C399 C 0.51874 0.14712 0.76561 0.0
H400 H 0.34405 0.47022 0.11362 0.0
H401 H 0.2743 0.53065 0.04183 0.0
H402 H 0.4008 0.51342 0.02769 0.0
H403 H 0.33115 0.57418 0.95614 0.0
H404 H 0.43184 0.63377 0.78061 0.0
H405 H 0.37129 0.57603 0.84502 0.0
H406 H 0.45362 0.58815 0.02498 0.0
H407 H 0.51342 0.64483 0.96082 0.0
C408 C 0.34081 0.49262 0.07913 0.0
C409 C 0.30495 0.49728 0.08455 0.0
C410 C 0.37325 0.51732 0.02987 0.0
C411 C 0.37059 0.54735 0.98512 0.0
C412 C 0.33397 0.55096 0.98899 0.0
C413 C 0.30153 0.52625 0.0384 0.0
C414 C 0.43699 0.62314 0.83298 0.0
C415 C 0.4772 0.64384 0.86593 0.0
C416 C 0.40234 0.59047 0.87021 0.0
C417 C 0.40756 0.5777 0.94042 0.0
C418 C 0.44842 0.59681 0.97085 0.0
C419 C 0.48272 0.62952 0.93419 0.0
H420 H 0.81295 0.37561 0.57838 0.0
H421 H 0.85692 0.34988 0.37563 0.0
H422 H 0.81876 0.43989 0.52393 0.0
H423 H 0.86141 0.41239 0.32128 0.0
H424 H 0.88772 0.53619 0.23951 0.0
H425 H 0.89686 0.48707 0.31767 0.0
H426 H 0.78124 0.45664 0.43212 0.0
H427 H 0.7732 0.50691 0.35492 0.0
C428 C 0.82438 0.38393 0.52274 0.0
C429 C 0.83414 0.35743 0.48126 0.0
C430 C 0.82738 0.42054 0.49131 0.0
C431 C 0.84049 0.43142 0.41806 0.0
C432 C 0.85186 0.40565 0.37807 0.0
C433 C 0.84884 0.36934 0.40921 0.0
C434 C 0.86481 0.51962 0.28247 0.0
C435 C 0.82982 0.52536 0.29151 0.0
C436 C 0.86985 0.49128 0.32703 0.0
C437 C 0.83945 0.4673 0.38067 0.0
C438 C 0.80556 0.47483 0.39211 0.0
C439 C 0.80089 0.50368 0.34798 0.0
H440 H 0.30051 0.74699 0.59435 0.0
H441 H 0.38525 0.86503 0.48677 0.0
H442 H 0.36058 0.74555 0.64921 0.0
H443 H 0.44623 0.86395 0.54307 0.0
H444 H 0.52362 0.865 0.75916 0.0
H445 H 0.47139 0.86919 0.6797 0.0
H446 H 0.42409 0.73956 0.61236 0.0
H447 H 0.47548 0.73524 0.69173 0.0
C448 C 0.33221 0.7723 0.5815 0.0
C449 C 0.33838 0.806 0.53616 0.0
C450 C 0.36661 0.77145 0.61279 0.0
C451 C 0.40808 0.80465 0.60046 0.0
C452 C 0.41452 0.83803 0.55356 0.0
C453 C 0.37983 0.83845 0.52087 0.0
C454 C 0.50227 0.83764 0.72673 0.0
C455 C 0.50336 0.79973 0.7319 0.0
C456 C 0.47273 0.84015 0.68083 0.0
C457 C 0.44366 0.80465 0.64002 0.0
C458 C 0.44593 0.76733 0.64347 0.0
C459 C 0.47545 0.76492 0.68881 0.0
H460 H 0.61838 0.47931 0.21547 0.0
H461 H 0.70316 0.44562 0.10922 0.0
H462 H 0.5575 0.41757 0.15837 0.0
H463 H 0.64311 0.38437 0.05347 0.0
H464 H 0.52731 0.25981 0.00761 0.0
H465 H 0.57905 0.31496 0.08754 0.0
H466 H 0.53284 0.39847 0.0222 0.0
H467 H 0.48033 0.34266 0.94216 0.0
C468 C 0.62383 0.45809 0.18158 0.0
C469 C 0.66529 0.46694 0.16686 0.0
C470 C 0.58918 0.42316 0.14837 0.0
C471 C 0.59561 0.39622 0.10144 0.0
C472 C 0.63706 0.40424 0.08986 0.0
C473 C 0.67145 0.43933 0.12169 0.0
C474 C 0.5277 0.28969 0.01104 0.0
C475 C 0.49996 0.29707 0.9684 0.0
C476 C 0.55742 0.32129 0.0567 0.0
C477 C 0.56006 0.36104 0.06098 0.0
C478 C 0.53123 0.36797 0.02048 0.0
C479 C 0.50151 0.33627 0.97423 0.0
loop_
_geom_bond_atom_site_label_1
_geom_bond_atom_site_label_2
_geom_bond_distance
_geom_bond_site_symmetry_2
_ccdc_geom_bond_type
Dy0 O4 2.398 . S
Dy0 O5 2.491 . S
Dy0 O6 2.403 . S
Dy0 O7 2.664 . S
Dy0 O11 2.326 . S
Dy0 O15 2.310 . S
Dy0 O16 2.351 . S
C1 O12 1.185 . S
C1 O13 1.355 . S
C2 O4 1.185 . S
C2 O5 1.355 . S
Dy3 O7 2.310 . S
Dy3 O10 2.351 . S
Dy3 O12 2.398 . S
Dy3 O13 2.491 . S
Dy3 O14 2.403 . S
Dy3 O15 2.664 . S
Dy3 O17 2.326 . S
O4 Dy0 2.398 . S
O4 C2 1.185 . S
O5 Dy0 2.491 . S
O5 C2 1.355 . S
O6 Dy0 2.403 . S
O6 C8 1.254 . S
O7 Dy0 2.664 . S
O7 Dy3 2.310 . S
O7 C8 1.268 . S
C8 O6 1.254 . S
C8 O7 1.268 . S
C9 O14 1.254 . S
C9 O15 1.268 . S
O10 Dy3 2.351 . S
O10 C18 1.249 . S
O11 Dy0 2.326 . S
O11 C18 1.267 . S
O12 C1 1.185 . S
O12 Dy3 2.398 . S
O13 C1 1.355 . S
O13 Dy3 2.491 . S
O14 Dy3 2.403 . S
O14 C9 1.254 . S
O15 Dy0 2.310 . S
O15 Dy3 2.664 . S
O15 C9 1.268 . S
O16 Dy0 2.351 . S
O16 C19 1.249 . S
O17 Dy3 2.326 . S
O17 C19 1.267 . S
C18 O10 1.249 . S
C18 O11 1.267 . S
C19 O16 1.249 . S
C19 O17 1.267 . S
Dy20 O24 2.398 . S
Dy20 O25 2.491 . S
Dy20 O26 2.403 . S
Dy20 O27 2.664 . S
Dy20 O31 2.326 . S
Dy20 O35 2.310 . S
Dy20 O36 2.351 . S
C21 O32 1.185 . S
C21 O33 1.355 . S
C22 O24 1.185 . S
C22 O25 1.355 . S
Dy23 O27 2.310 . S
Dy23 O30 2.351 . S
Dy23 O32 2.398 . S
Dy23 O33 2.491 . S
Dy23 O34 2.403 . S
Dy23 O35 2.664 . S
Dy23 O37 2.326 . S
O24 Dy20 2.398 . S
O24 C22 1.185 . S
O25 Dy20 2.491 . S
O25 C22 1.355 . S
O26 Dy20 2.403 . S
O26 C28 1.254 . S
O27 Dy20 2.664 . S
O27 Dy23 2.310 . S
O27 C28 1.268 . S
C28 O26 1.254 . S
C28 O27 1.268 . S
C29 O34 1.254 . S
C29 O35 1.268 . S
O30 Dy23 2.351 . S
O30 C38 1.249 . S
O31 Dy20 2.326 . S
O31 C38 1.267 . S
O32 C21 1.185 . S
O32 Dy23 2.398 . S
O33 C21 1.355 . S
O33 Dy23 2.491 . S
O34 Dy23 2.403 . S
O34 C29 1.254 . S
O35 Dy20 2.310 . S
O35 Dy23 2.664 . S
O35 C29 1.268 . S
O36 Dy20 2.351 . S
O36 C39 1.249 . S
O37 Dy23 2.326 . S
O37 C39 1.267 . S
C38 O30 1.249 . S
C38 O31 1.267 . S
C39 O36 1.249 . S
C39 O37 1.267 . S
Dy40 O44 2.398 . S
Dy40 O45 2.491 . S
Dy40 O46 2.403 . S
Dy40 O47 2.664 . S
Dy40 O51 2.326 . S
Dy40 O55 2.310 . S
Dy40 O56 2.351 . S
C41 O52 1.185 . S
C41 O53 1.355 . S
C42 O44 1.185 . S
C42 O45 1.355 . S
Dy43 O47 2.310 1_554 S
Dy43 O50 2.351 1_554 S
Dy43 O52 2.398 . S
Dy43 O53 2.491 . S
Dy43 O54 2.403 . S
Dy43 O55 2.664 1_554 S
Dy43 O57 2.326 . S
O44 Dy40 2.398 . S
O44 C42 1.185 . S
O45 Dy40 2.491 . S
O45 C42 1.355 . S
O46 Dy40 2.403 . S
O46 C48 1.254 . S
O47 Dy40 2.664 . S
O47 Dy43 2.310 1_556 S
O47 C48 1.268 . S
C48 O46 1.254 . S
C48 O47 1.268 . S
C49 O54 1.254 1_556 S
C49 O55 1.268 . S
O50 Dy43 2.351 1_556 S
O50 C58 1.249 . S
O51 Dy40 2.326 . S
O51 C58 1.267 . S
O52 C41 1.185 . S
O52 Dy43 2.398 . S
O53 C41 1.355 . S
O53 Dy43 2.491 . S
O54 Dy43 2.403 . S
O54 C49 1.254 1_554 S
O55 Dy40 2.310 . S
O55 Dy43 2.664 1_556 S
O55 C49 1.268 . S
O56 Dy40 2.351 . S
O56 C59 1.249 1_556 S
O57 Dy43 2.326 . S
O57 C59 1.267 . S
C58 O50 1.249 . S
C58 O51 1.267 . S
C59 O56 1.249 1_554 S
C59 O57 1.267 . S
Dy60 O64 2.398 . S
Dy60 O65 2.491 . S
Dy60 O66 2.403 . S
Dy60 O67 2.664 . S
Dy60 O71 2.326 . S
Dy60 O75 2.310 . S
Dy60 O76 2.351 . S
C61 O72 1.185 . S
C61 O73 1.355 . S
C62 O64 1.185 . S
C62 O65 1.355 . S
Dy63 O67 2.310 1_556 S
Dy63 O70 2.351 1_556 S
Dy63 O72 2.398 . S
Dy63 O73 2.491 . S
Dy63 O74 2.403 1_556 S
Dy63 O75 2.664 1_556 S
Dy63 O77 2.326 . S
O64 Dy60 2.398 . S
O64 C62 1.185 . S
O65 Dy60 2.491 . S
O65 C62 1.355 . S
O66 Dy60 2.403 . S
O66 C68 1.254 . S
O67 Dy60 2.664 . S
O67 Dy63 2.310 1_554 S
O67 C68 1.268 . S
C68 O66 1.254 . S
C68 O67 1.268 . S
C69 O74 1.254 . S
C69 O75 1.268 . S
O70 Dy63 2.351 1_554 S
O70 C78 1.249 . S
O71 Dy60 2.326 . S
O71 C78 1.267 . S
O72 C61 1.185 . S
O72 Dy63 2.398 . S
O73 C61 1.355 . S
O73 Dy63 2.491 . S
O74 Dy63 2.403 1_554 S
O74 C69 1.254 . S
O75 Dy60 2.310 . S
O75 Dy63 2.664 1_554 S
O75 C69 1.268 . S
O76 Dy60 2.351 . S
O76 C79 1.249 . S
O77 Dy63 2.326 . S
O77 C79 1.267 1_556 S
C78 O70 1.249 . S
C78 O71 1.267 . S
C79 O76 1.249 . S
C79 O77 1.267 1_554 S
Dy80 O84 2.398 . S
Dy80 O85 2.491 . S
Dy80 O86 2.403 . S
Dy80 O87 2.664 . S
Dy80 O91 2.326 . S
Dy80 O95 2.310 . S
Dy80 O96 2.351 . S
C81 O92 1.185 . S
C81 O93 1.355 . S
C82 O84 1.185 . S
C82 O85 1.355 . S
Dy83 O87 2.310 . S
Dy83 O90 2.351 . S
Dy83 O92 2.398 . S
Dy83 O93 2.491 . S
Dy83 O94 2.403 . S
Dy83 O95 2.664 . S
Dy83 O97 2.326 . S
O84 Dy80 2.398 . S
O84 C82 1.185 . S
O85 Dy80 2.491 . S
O85 C82 1.355 . S
O86 Dy80 2.403 . S
O86 C88 1.254 . S
O87 Dy80 2.664 . S
O87 Dy83 2.310 . S
O87 C88 1.268 . S
C88 O86 1.254 . S
C88 O87 1.268 . S
C89 O94 1.254 . S
C89 O95 1.268 . S
O90 Dy83 2.351 . S
O90 C98 1.249 . S
O91 Dy80 2.326 . S
O91 C98 1.267 . S
O92 C81 1.185 . S
O92 Dy83 2.398 . S
O93 C81 1.355 . S
O93 Dy83 2.491 . S
O94 Dy83 2.403 . S
O94 C89 1.254 . S
O95 Dy80 2.310 . S
O95 Dy83 2.664 . S
O95 C89 1.268 . S
O96 Dy80 2.351 . S
O96 C99 1.249 . S
O97 Dy83 2.326 . S
O97 C99 1.267 . S
C98 O90 1.249 . S
C98 O91 1.267 . S
C99 O96 1.249 . S
C99 O97 1.267 . S
Dy100 O104 2.398 . S
Dy100 O105 2.491 . S
Dy100 O106 2.403 . S
Dy100 O107 2.664 . S
Dy100 O111 2.326 . S
Dy100 O115 2.310 . S
Dy100 O116 2.351 . S
C101 O112 1.185 . S
C101 O113 1.355 . S
C102 O104 1.185 . S
C102 O105 1.355 . S
Dy103 O107 2.310 . S
Dy103 O110 2.351 . S
Dy103 O112 2.398 . S
Dy103 O113 2.491 . S
Dy103 O114 2.403 . S
Dy103 O115 2.664 . S
Dy103 O117 2.326 . S
O104 Dy100 2.398 . S
O104 C102 1.185 . S
O105 Dy100 2.491 . S
O105 C102 1.355 . S
O106 Dy100 2.403 . S
O106 C108 1.254 . S
O107 Dy100 2.664 . S
O107 Dy103 2.310 . S
O107 C108 1.268 . S
C108 O106 1.254 . S
C108 O107 1.268 . S
C109 O114 1.254 . S
C109 O115 1.268 . S
O110 Dy103 2.351 . S
O110 C118 1.249 . S
O111 Dy100 2.326 . S
O111 C118 1.267 . S
O112 C101 1.185 . S
O112 Dy103 2.398 . S
O113 C101 1.355 . S
O113 Dy103 2.491 . S
O114 Dy103 2.403 . S
O114 C109 1.254 . S
O115 Dy100 2.310 . S
O115 Dy103 2.664 . S
O115 C109 1.268 . S
O116 Dy100 2.351 . S
O116 C119 1.249 . S
O117 Dy103 2.326 . S
O117 C119 1.267 . S
C118 O110 1.249 . S
C118 O111 1.267 . S
C119 O116 1.249 . S
C119 O117 1.267 . S
H120 C128 0.950 . S
H121 C133 0.950 . S
H122 C130 0.950 . S
H123 C132 0.950 1_554 S
H124 C134 0.950 . S
H125 C136 0.950 . S
H126 C138 0.950 1_556 S
H127 C139 0.950 . S
C128 H120 0.950 . S
C128 C129 1.386 . S
C128 C130 1.391 . S
C129 C128 1.386 . S
C129 C133 1.393 . S
C130 H122 0.950 . S
C130 C128 1.391 . S
C130 C131 1.400 . S
C131 C130 1.400 . S
C131 C132 1.398 . S
C131 C137 1.491 1_556 S
C132 H123 0.950 1_556 S
C132 C131 1.398 . S
C132 C133 1.391 . S
C133 H121 0.950 . S
C133 C129 1.393 . S
C133 C132 1.391 . S
C134 H124 0.950 . S
C134 C135 1.386 . S
C134 C136 1.391 . S
C135 C134 1.386 . S
C135 C139 1.393 . S
C136 H125 0.950 . S
C136 C134 1.391 . S
C136 C137 1.400 . S
C137 C131 1.491 1_554 S
C137 C136 1.400 . S
C137 C138 1.398 . S
C138 H126 0.950 1_554 S
C138 C137 1.398 . S
C138 C139 1.391 . S
C139 H127 0.950 . S
C139 C135 1.393 . S
C139 C138 1.391 . S
H140 C148 0.950 . S
H141 C153 0.950 . S
H142 C150 0.950 . S
H143 C152 0.950 . S
H144 C154 0.950 . S
H145 C156 0.950 . S
H146 C158 0.950 . S
H147 C159 0.950 . S
C148 H140 0.950 . S
C148 C149 1.386 . S
C148 C150 1.391 . S
C149 C148 1.386 . S
C149 C153 1.393 . S
C150 H142 0.950 . S
C150 C148 1.391 . S
C150 C151 1.400 . S
C151 C150 1.400 . S
C151 C152 1.398 . S
C151 C157 1.491 1_455 S
C152 H143 0.950 . S
C152 C151 1.398 . S
C152 C153 1.391 . S
C153 H141 0.950 . S
C153 C149 1.393 . S
C153 C152 1.391 . S
C154 H144 0.950 . S
C154 C155 1.386 . S
C154 C156 1.391 . S
C155 C154 1.386 . S
C155 C159 1.393 . S
C156 H145 0.950 . S
C156 C154 1.391 . S
C156 C157 1.400 . S
C157 C151 1.491 1_655 S
C157 C156 1.400 . S
C157 C158 1.398 . S
C158 H146 0.950 . S
C158 C157 1.398 . S
C158 C159 1.391 . S
C159 H147 0.950 . S
C159 C155 1.393 . S
C159 C158 1.391 . S
H160 C168 0.950 . S
H161 C173 0.950 . S
H162 C170 0.950 1_565 S
H163 C172 0.950 . S
H164 C174 0.950 . S
H165 C176 0.950 1_545 S
H166 C178 0.950 . S
H167 C179 0.950 . S
C168 H160 0.950 . S
C168 C169 1.386 . S
C168 C170 1.391 . S
C169 C168 1.386 . S
C169 C173 1.393 . S
C170 H162 0.950 1_545 S
C170 C168 1.391 . S
C170 C171 1.400 . S
C171 C170 1.400 . S
C171 C172 1.398 . S
C171 C177 1.491 1_545 S
C172 H163 0.950 . S
C172 C171 1.398 . S
C172 C173 1.391 . S
C173 H161 0.950 . S
C173 C169 1.393 . S
C173 C172 1.391 . S
C174 H164 0.950 . S
C174 C175 1.386 . S
C174 C176 1.391 . S
C175 C174 1.386 . S
C175 C179 1.393 . S
C176 H165 0.950 1_565 S
C176 C174 1.391 . S
C176 C177 1.400 . S
C177 C171 1.491 1_565 S
C177 C176 1.400 . S
C177 C178 1.398 . S
C178 H166 0.950 . S
C178 C177 1.398 . S
C178 C179 1.391 . S
C179 H167 0.950 . S
C179 C175 1.393 . S
C179 C178 1.391 . S
H180 C188 0.950 . S
H181 C193 0.950 . S
H182 C190 0.950 . S
H183 C192 0.950 . S
H184 C194 0.950 . S
H185 C196 0.950 . S
H186 C198 0.950 1_556 S
H187 C199 0.950 . S
C188 H180 0.950 . S
C188 C189 1.386 . S
C188 C190 1.391 . S
C189 C188 1.386 . S
C189 C193 1.393 1_556 S
C190 H182 0.950 . S
C190 C188 1.391 . S
C190 C191 1.400 1_556 S
C191 C190 1.400 1_554 S
C191 C192 1.398 . S
C191 C197 1.491 . S
C192 H183 0.950 . S
C192 C191 1.398 . S
C192 C193 1.391 . S
C193 H181 0.950 . S
C193 C189 1.393 1_554 S
C193 C192 1.391 . S
C194 H184 0.950 . S
C194 C195 1.386 . S
C194 C196 1.391 . S
C195 C194 1.386 . S
C195 C199 1.393 . S
C196 H185 0.950 . S
C196 C194 1.391 . S
C196 C197 1.400 . S
C197 C191 1.491 . S
C197 C196 1.400 . S
C197 C198 1.398 . S
C198 H186 0.950 1_554 S
C198 C197 1.398 . S
C198 C199 1.391 . S
C199 H187 0.950 . S
C199 C195 1.393 . S
C199 C198 1.391 . S
H200 C208 0.950 . S
H201 C213 0.950 . S
H202 C210 0.950 1_655 S
H203 C212 0.950 . S
H204 C214 0.950 . S
H205 C216 0.950 1_455 S
H206 C218 0.950 . S
H207 C219 0.950 . S
C208 H200 0.950 . S
C208 C209 1.386 . S
C208 C210 1.391 . S
C209 C208 1.386 . S
C209 C213 1.393 . S
C210 H202 0.950 1_455 S
C210 C208 1.391 . S
C210 C211 1.400 . S
C211 C210 1.400 . S
C211 C212 1.398 . S
C211 C217 1.491 1_455 S
C212 H203 0.950 . S
C212 C211 1.398 . S
C212 C213 1.391 . S
C213 H201 0.950 . S
C213 C209 1.393 . S
C213 C212 1.391 . S
C214 H204 0.950 . S
C214 C215 1.386 . S
C214 C216 1.391 . S
C215 C214 1.386 . S
C215 C219 1.393 . S
C216 H205 0.950 1_655 S
C216 C214 1.391 . S
C216 C217 1.400 . S
C217 C211 1.491 1_655 S
C217 C216 1.400 . S
C217 C218 1.398 . S
C218 H206 0.950 . S
C218 C217 1.398 . S
C218 C219 1.391 . S
C219 H207 0.950 . S
C219 C215 1.393 . S
C219 C218 1.391 . S
H220 C228 0.950 . S
H221 C233 0.950 . S
H222 C230 0.950 . S
H223 C232 0.950 . S
H224 C234 0.950 . S
H225 C236 0.950 . S
H226 C238 0.950 . S
H227 C239 0.950 . S
C228 H220 0.950 . S
C228 C229 1.386 . S
C228 C230 1.391 . S
C229 C228 1.386 . S
C229 C233 1.393 . S
C230 H222 0.950 . S
C230 C228 1.391 . S
C230 C231 1.400 . S
C231 C230 1.400 . S
C231 C232 1.398 . S
C231 C237 1.491 1_545 S
C232 H223 0.950 . S
C232 C231 1.398 . S
C232 C233 1.391 . S
C233 H221 0.950 . S
C233 C229 1.393 . S
C233 C232 1.391 . S
C234 H224 0.950 . S
C234 C235 1.386 . S
C234 C236 1.391 . S
C235 C234 1.386 . S
C235 C239 1.393 . S
C236 H225 0.950 . S
C236 C234 1.391 . S
C236 C237 1.400 . S
C237 C231 1.491 1_565 S
C237 C236 1.400 . S
C237 C238 1.398 . S
C238 H226 0.950 . S
C238 C237 1.398 . S
C238 C239 1.391 . S
C239 H227 0.950 . S
C239 C235 1.393 . S
C239 C238 1.391 . S
H240 C248 0.950 . S
H241 C253 0.950 . S
H242 C250 0.950 . S
H243 C252 0.950 . S
H244 C254 0.950 . S
H245 C256 0.950 . S
H246 C258 0.950 . S
H247 C259 0.950 . S
C248 H240 0.950 . S
C248 C249 1.386 . S
C248 C250 1.391 . S
C249 C248 1.386 . S
C249 C253 1.393 . S
C250 H242 0.950 . S
C250 C248 1.391 . S
C250 C251 1.400 . S
C251 C250 1.400 . S
C251 C252 1.398 . S
C251 C257 1.491 . S
C252 H243 0.950 . S
C252 C251 1.398 . S
C252 C253 1.391 . S
C253 H241 0.950 . S
C253 C249 1.393 . S
C253 C252 1.391 . S
C254 H244 0.950 . S
C254 C255 1.386 . S
C254 C256 1.391 . S
C255 C254 1.386 . S
C255 C259 1.393 . S
C256 H245 0.950 . S
C256 C254 1.391 . S
C256 C257 1.400 . S
C257 C251 1.491 . S
C257 C256 1.400 . S
C257 C258 1.398 . S
C258 H246 0.950 . S
C258 C257 1.398 . S
C258 C259 1.391 . S
C259 H247 0.950 . S
C259 C255 1.393 . S
C259 C258 1.391 . S
H260 C268 0.950 . S
H261 C273 0.950 . S
H262 C270 0.950 . S
H263 C272 0.950 . S
H264 C274 0.950 . S
H265 C276 0.950 . S
H266 C278 0.950 . S
H267 C279 0.950 . S
C268 H260 0.950 . S
C268 C269 1.386 . S
C268 C270 1.391 1_554 S
C269 C268 1.386 . S
C269 C273 1.393 . S
C270 H262 0.950 . S
C270 C268 1.391 1_556 S
C270 C271 1.400 . S
C271 C270 1.400 . S
C271 C272 1.398 . S
C271 C277 1.491 . S
C272 H263 0.950 . S
C272 C271 1.398 . S
C272 C273 1.391 1_556 S
C273 H261 0.950 . S
C273 C269 1.393 . S
C273 C272 1.391 1_554 S
C274 H264 0.950 . S
C274 C275 1.386 . S
C274 C276 1.391 . S
C275 C274 1.386 . S
C275 C279 1.393 . S
C276 H265 0.950 . S
C276 C274 1.391 . S
C276 C277 1.400 . S
C277 C271 1.491 . S
C277 C276 1.400 . S
C277 C278 1.398 . S
C278 H266 0.950 . S
C278 C277 1.398 . S
C278 C279 1.391 . S
C279 H267 0.950 . S
C279 C275 1.393 . S
C279 C278 1.391 . S
H280 C288 0.950 . S
H281 C293 0.950 . S
H282 C290 0.950 . S
H283 C292 0.950 . S
H284 C294 0.950 . S
H285 C296 0.950 . S
H286 C298 0.950 . S
H287 C299 0.950 . S
C288 H280 0.950 . S
C288 C289 1.386 . S
C288 C290 1.391 . S
C289 C288 1.386 . S
C289 C293 1.393 . S
C290 H282 0.950 . S
C290 C288 1.391 . S
C290 C291 1.400 . S
C291 C290 1.400 . S
C291 C292 1.398 . S
C291 C297 1.491 . S
C292 H283 0.950 . S
C292 C291 1.398 . S
C292 C293 1.391 . S
C293 H281 0.950 . S
C293 C289 1.393 . S
C293 C292 1.391 . S
C294 H284 0.950 . S
C294 C295 1.386 . S
C294 C296 1.391 . S
C295 C294 1.386 . S
C295 C299 1.393 . S
C296 H285 0.950 . S
C296 C294 1.391 . S
C296 C297 1.400 . S
C297 C291 1.491 . S
C297 C296 1.400 . S
C297 C298 1.398 . S
C298 H286 0.950 . S
C298 C297 1.398 . S
C298 C299 1.391 . S
C299 H287 0.950 . S
C299 C295 1.393 . S
C299 C298 1.391 . S
H300 C308 0.950 . S
H301 C313 0.950 . S
H302 C310 0.950 . S
H303 C312 0.950 . S
H304 C314 0.950 . S
H305 C316 0.950 . S
H306 C318 0.950 . S
H307 C319 0.950 . S
C308 H300 0.950 . S
C308 C309 1.386 . S
C308 C310 1.391 . S
C309 C308 1.386 . S
C309 C313 1.393 . S
C310 H302 0.950 . S
C310 C308 1.391 . S
C310 C311 1.400 . S
C311 C310 1.400 . S
C311 C312 1.398 . S
C311 C317 1.491 . S
C312 H303 0.950 . S
C312 C311 1.398 . S
C312 C313 1.391 . S
C313 H301 0.950 . S
C313 C309 1.393 . S
C313 C312 1.391 . S
C314 H304 0.950 . S
C314 C315 1.386 . S
C314 C316 1.391 . S
C315 C314 1.386 . S
C315 C319 1.393 . S
C316 H305 0.950 . S
C316 C314 1.391 . S
C316 C317 1.400 . S
C317 C311 1.491 . S
C317 C316 1.400 . S
C317 C318 1.398 . S
C318 H306 0.950 . S
C318 C317 1.398 . S
C318 C319 1.391 . S
C319 H307 0.950 . S
C319 C315 1.393 . S
C319 C318 1.391 . S
H320 C328 0.950 . S
H321 C333 0.950 . S
H322 C330 0.950 . S
H323 C332 0.950 . S
H324 C334 0.950 . S
H325 C336 0.950 . S
H326 C338 0.950 . S
H327 C339 0.950 . S
C328 H320 0.950 . S
C328 C329 1.386 . S
C328 C330 1.391 1_556 S
C329 C328 1.386 . S
C329 C333 1.393 . S
C330 H322 0.950 . S
C330 C328 1.391 1_554 S
C330 C331 1.400 . S
C331 C330 1.400 . S
C331 C332 1.398 . S
C331 C337 1.491 . S
C332 H323 0.950 . S
C332 C331 1.398 . S
C332 C333 1.391 1_554 S
C333 H321 0.950 . S
C333 C329 1.393 . S
C333 C332 1.391 1_556 S
C334 H324 0.950 . S
C334 C335 1.386 . S
C334 C336 1.391 . S
C335 C334 1.386 . S
C335 C339 1.393 . S
C336 H325 0.950 . S
C336 C334 1.391 . S
C336 C337 1.400 . S
C337 C331 1.491 . S
C337 C336 1.400 . S
C337 C338 1.398 . S
C338 H326 0.950 . S
C338 C337 1.398 . S
C338 C339 1.391 . S
C339 H327 0.950 . S
C339 C335 1.393 . S
C339 C338 1.391 . S
H340 C348 0.950 . S
H341 C353 0.950 . S
H342 C350 0.950 . S
H343 C352 0.950 . S
H344 C354 0.950 . S
H345 C356 0.950 . S
H346 C358 0.950 . S
H347 C359 0.950 . S
C348 H340 0.950 . S
C348 C349 1.386 . S
C348 C350 1.391 . S
C349 C348 1.386 . S
C349 C353 1.393 . S
C350 H342 0.950 . S
C350 C348 1.391 . S
C350 C351 1.400 . S
C351 C350 1.400 . S
C351 C352 1.398 . S
C351 C357 1.491 . S
C352 H343 0.950 . S
C352 C351 1.398 . S
C352 C353 1.391 . S
C353 H341 0.950 . S
C353 C349 1.393 . S
C353 C352 1.391 . S
C354 H344 0.950 . S
C354 C355 1.386 . S
C354 C356 1.391 . S
C355 C354 1.386 . S
C355 C359 1.393 . S
C356 H345 0.950 . S
C356 C354 1.391 . S
C356 C357 1.400 . S
C357 C351 1.491 . S
C357 C356 1.400 . S
C357 C358 1.398 . S
C358 H346 0.950 . S
C358 C357 1.398 . S
C358 C359 1.391 . S
C359 H347 0.950 . S
C359 C355 1.393 . S
C359 C358 1.391 . S
H360 C368 0.950 . S
H361 C373 0.950 . S
H362 C370 0.950 . S
H363 C372 0.950 . S
H364 C374 0.950 . S
H365 C376 0.950 . S
H366 C378 0.950 . S
H367 C379 0.950 . S
C368 H360 0.950 . S
C368 C369 1.386 . S
C368 C370 1.391 . S
C369 C368 1.386 . S
C369 C373 1.393 . S
C370 H362 0.950 . S
C370 C368 1.391 . S
C370 C371 1.400 . S
C371 C370 1.400 . S
C371 C372 1.398 . S
C371 C377 1.491 . S
C372 H363 0.950 . S
C372 C371 1.398 . S
C372 C373 1.391 . S
C373 H361 0.950 . S
C373 C369 1.393 . S
C373 C372 1.391 . S
C374 H364 0.950 . S
C374 C375 1.386 . S
C374 C376 1.391 . S
C375 C374 1.386 . S
C375 C379 1.393 . S
C376 H365 0.950 . S
C376 C374 1.391 . S
C376 C377 1.400 . S
C377 C371 1.491 . S
C377 C376 1.400 . S
C377 C378 1.398 . S
C378 H366 0.950 . S
C378 C377 1.398 . S
C378 C379 1.391 . S
C379 H367 0.950 . S
C379 C375 1.393 . S
C379 C378 1.391 . S
H380 C388 0.950 . S
H381 C393 0.950 . S
H382 C390 0.950 . S
H383 C392 0.950 . S
H384 C394 0.950 . S
H385 C396 0.950 . S
H386 C398 0.950 . S
H387 C399 0.950 . S
C388 H380 0.950 . S
C388 C389 1.386 . S
C388 C390 1.391 . S
C389 C388 1.386 . S
C389 C393 1.393 . S
C390 H382 0.950 . S
C390 C388 1.391 . S
C390 C391 1.400 . S
C391 C390 1.400 . S
C391 C392 1.398 . S
C391 C397 1.491 . S
C392 H383 0.950 . S
C392 C391 1.398 . S
C392 C393 1.391 . S
C393 H381 0.950 . S
C393 C389 1.393 . S
C393 C392 1.391 . S
C394 H384 0.950 . S
C394 C395 1.386 . S
C394 C396 1.391 . S
C395 C394 1.386 . S
C395 C399 1.393 . S
C396 H385 0.950 . S
C396 C394 1.391 . S
C396 C397 1.400 . S
C397 C391 1.491 . S
C397 C396 1.400 . S
C397 C398 1.398 . S
C398 H386 0.950 . S
C398 C397 1.398 . S
C398 C399 1.391 . S
C399 H387 0.950 . S
C399 C395 1.393 . S
C399 C398 1.391 . S
H400 C408 0.950 . S
H401 C413 0.950 . S
H402 C410 0.950 . S
H403 C412 0.950 . S
H404 C414 0.950 1_556 S
H405 C416 0.950 . S
H406 C418 0.950 . S
H407 C419 0.950 . S
C408 H400 0.950 . S
C408 C409 1.386 . S
C408 C410 1.391 . S
C409 C408 1.386 . S
C409 C413 1.393 . S
C410 H402 0.950 . S
C410 C408 1.391 . S
C410 C411 1.400 . S
C411 C410 1.400 . S
C411 C412 1.398 . S
C411 C417 1.491 . S
C412 H403 0.950 . S
C412 C411 1.398 . S
C412 C413 1.391 . S
C413 H401 0.950 . S
C413 C409 1.393 . S
C413 C412 1.391 . S
C414 H404 0.950 1_554 S
C414 C415 1.386 . S
C414 C416 1.391 . S
C415 C414 1.386 . S
C415 C419 1.393 . S
C416 H405 0.950 . S
C416 C414 1.391 . S
C416 C417 1.400 . S
C417 C411 1.491 . S
C417 C416 1.400 . S
C417 C418 1.398 . S
C418 H406 0.950 . S
C418 C417 1.398 . S
C418 C419 1.391 . S
C419 H407 0.950 . S
C419 C415 1.393 . S
C419 C418 1.391 . S
H420 C428 0.950 . S
H421 C433 0.950 . S
H422 C430 0.950 . S
H423 C432 0.950 . S
H424 C434 0.950 . S
H425 C436 0.950 . S
H426 C438 0.950 . S
H427 C439 0.950 . S
C428 H420 0.950 . S
C428 C429 1.386 . S
C428 C430 1.391 . S
C429 C428 1.386 . S
C429 C433 1.393 . S
C430 H422 0.950 . S
C430 C428 1.391 . S
C430 C431 1.400 . S
C431 C430 1.400 . S
C431 C432 1.398 . S
C431 C437 1.491 . S
C432 H423 0.950 . S
C432 C431 1.398 . S
C432 C433 1.391 . S
C433 H421 0.950 . S
C433 C429 1.393 . S
C433 C432 1.391 . S
C434 H424 0.950 . S
C434 C435 1.386 . S
C434 C436 1.391 . S
C435 C434 1.386 . S
C435 C439 1.393 . S
C436 H425 0.950 . S
C436 C434 1.391 . S
C436 C437 1.400 . S
C437 C431 1.491 . S
C437 C436 1.400 . S
C437 C438 1.398 . S
C438 H426 0.950 . S
C438 C437 1.398 . S
C438 C439 1.391 . S
C439 H427 0.950 . S
C439 C435 1.393 . S
C439 C438 1.391 . S
H440 C448 0.950 . S
H441 C453 0.950 . S
H442 C450 0.950 . S
H443 C452 0.950 . S
H444 C454 0.950 . S
H445 C456 0.950 . S
H446 C458 0.950 . S
H447 C459 0.950 . S
C448 H440 0.950 . S
C448 C449 1.386 . S
C448 C450 1.391 . S
C449 C448 1.386 . S
C449 C453 1.393 . S
C450 H442 0.950 . S
C450 C448 1.391 . S
C450 C451 1.400 . S
C451 C450 1.400 . S
C451 C452 1.398 . S
C451 C457 1.491 . S
C452 H443 0.950 . S
C452 C451 1.398 . S
C452 C453 1.391 . S
C453 H441 0.950 . S
C453 C449 1.393 . S
C453 C452 1.391 . S
C454 H444 0.950 . S
C454 C455 1.386 . S
C454 C456 1.391 . S
C455 C454 1.386 . S
C455 C459 1.393 . S
C456 H445 0.950 . S
C456 C454 1.391 . S
C456 C457 1.400 . S
C457 C451 1.491 . S
C457 C456 1.400 . S
C457 C458 1.398 . S
C458 H446 0.950 . S
C458 C457 1.398 . S
C458 C459 1.391 . S
C459 H447 0.950 . S
C459 C455 1.393 . S
C459 C458 1.391 . S
H460 C468 0.950 1_554 S
H461 C473 0.950 . S
H462 C470 0.950 . S
H463 C472 0.950 . S
H464 C474 0.950 . S
H465 C476 0.950 . S
H466 C478 0.950 . S
H467 C479 0.950 . S
C468 H460 0.950 1_556 S
C468 C469 1.386 . S
C468 C470 1.391 . S
C469 C468 1.386 . S
C469 C473 1.393 . S
C470 H462 0.950 . S
C470 C468 1.391 . S
C470 C471 1.400 . S
C471 C470 1.400 . S
C471 C472 1.398 . S
C471 C477 1.491 . S
C472 H463 0.950 . S
C472 C471 1.398 . S
C472 C473 1.391 . S
C473 H461 0.950 . S
C473 C469 1.393 . S
C473 C472 1.391 . S
C474 H464 0.950 . S
C474 C475 1.386 . S
C474 C476 1.391 . S
C475 C474 1.386 . S
C475 C479 1.393 . S
C476 H465 0.950 . S
C476 C474 1.391 . S
C476 C477 1.400 . S
C477 C471 1.491 . S
C477 C476 1.400 . S
C477 C478 1.398 . S
C478 H466 0.950 . S
C478 C477 1.398 . S
C478 C479 1.391 . S
C479 H467 0.950 . S
C479 C475 1.393 . S
C479 C478 1.391 . S
C129 C118 1.548 . S
C135 C18 1.548 . S
C149 C8 1.480 . S
C155 C28 1.455 . S
C169 C38 1.543 . S
C175 C58 1.543 . S
C189 C48 1.476 . S
C195 C68 1.475 . S
C209 C98 1.547 . S
C215 C78 1.547 . S
C229 C108 1.475 . S
C235 C88 1.476 . S
C249 C2 1.217 1_556 S
C255 C1 1.217 . S
C269 C21 1.205 . S
C275 C22 1.205 . S
C289 C42 1.209 . S
C295 C41 1.209 . S
C309 C61 1.214 . S
C315 C62 1.214 . S
C329 C81 1.219 . S
C335 C82 1.219 . S
C349 C101 1.208 . S
C355 C102 1.208 1_554 S
C369 C19 1.608 . S
C375 C89 1.623 . S
C389 C29 1.627 . S
C395 C119 1.605 . S
C409 C9 1.626 . S
C415 C59 1.600 . S
C429 C39 1.607 . S
C435 C69 1.623 . S
C449 C99 1.595 . S
C455 C49 1.622 . S
C469 C79 1.609 1_556 S
C475 C109 1.626 . S
