# Generated by pormake.
# Topology uox, (4)-cn, num edge types: 1
# Building blocks:
#     Node 0, Type 0, BuildingBlock: AZAVOO_clean_sbu_0, # of connection points: 4
#     Node 1, Type 0, BuildingBlock: AZAVOO_clean_sbu_0, # of connection points: 4
#     Node 2, Type 0, BuildingBlock: AZAVOO_clean_sbu_0, # of connection points: 4
#     Node 3, Type 0, BuildingBlock: AZAVOO_clean_sbu_0, # of connection points: 4
#     Node 4, Type 0, BuildingBlock: AZAVOO_clean_sbu_0, # of connection points: 4
#     Node 5, Type 0, BuildingBlock: AZAVOO_clean_sbu_0, # of connection points: 4
#     Node 6, Type 0, BuildingBlock: AZAVOO_clean_sbu_0, # of connection points: 4
#     Node 7, Type 0, BuildingBlock: AZAVOO_clean_sbu_0, # of connection points: 4
#     Node 8, Type 0, BuildingBlock: AZAVOO_clean_sbu_0, # of connection points: 4
#     Node 9, Type 0, BuildingBlock: AZAVOO_clean_sbu_0, # of connection points: 4
#     Node 10, Type 0, BuildingBlock: AZAVOO_clean_sbu_0, # of connection points: 4
#     Node 11, Type 0, BuildingBlock: AZAVOO_clean_sbu_0, # of connection points: 4
#     Node 12, Type 0, BuildingBlock: AZAVOO_clean_sbu_0, # of connection points: 4
#     Node 13, Type 0, BuildingBlock: AZAVOO_clean_sbu_0, # of connection points: 4
#     Node 14, Type 0, BuildingBlock: AZAVOO_clean_sbu_0, # of connection points: 4
#     Node 15, Type 0, BuildingBlock: AZAVOO_clean_sbu_0, # of connection points: 4
#     Node 16, Type 0, BuildingBlock: AZAVOO_clean_sbu_0, # of connection points: 4
#     Node 17, Type 0, BuildingBlock: AZAVOO_clean_sbu_0, # of connection points: 4
#     Node 18, Type 0, BuildingBlock: AZAVOO_clean_sbu_0, # of connection points: 4
#     Node 19, Type 0, BuildingBlock: AZAVOO_clean_sbu_0, # of connection points: 4
#     Node 20, Type 0, BuildingBlock: AZAVOO_clean_sbu_0, # of connection points: 4
#     Node 21, Type 0, BuildingBlock: AZAVOO_clean_sbu_0, # of connection points: 4
#     Node 22, Type 0, BuildingBlock: AZAVOO_clean_sbu_0, # of connection points: 4
#     Node 23, Type 0, BuildingBlock: AZAVOO_clean_sbu_0, # of connection points: 4
#     Node 24, Type 0, BuildingBlock: AZAVOO_clean_sbu_0, # of connection points: 4
#     Node 25, Type 0, BuildingBlock: AZAVOO_clean_sbu_0, # of connection points: 4
#     Node 26, Type 0, BuildingBlock: AZAVOO_clean_sbu_0, # of connection points: 4
#     Node 27, Type 0, BuildingBlock: AZAVOO_clean_sbu_0, # of connection points: 4
#     Node 28, Type 0, BuildingBlock: AZAVOO_clean_sbu_0, # of connection points: 4
#     Node 29, Type 0, BuildingBlock: AZAVOO_clean_sbu_0, # of connection points: 4
#     Node 30, Type 0, BuildingBlock: AZAVOO_clean_sbu_0, # of connection points: 4
#     Node 31, Type 0, BuildingBlock: AZAVOO_clean_sbu_0, # of connection points: 4
#     Edge 32, Type (0, 0), BuildingBlock: AJUNOK_clean_linker_0, # of connection points: 2
#     Edge 33, Type (0, 0), BuildingBlock: AJUNOK_clean_linker_0, # of connection points: 2
#     Edge 34, Type (0, 0), BuildingBlock: AJUNOK_clean_linker_0, # of connection points: 2
#     Edge 35, Type (0, 0), BuildingBlock: AJUNOK_clean_linker_0, # of connection points: 2
#     Edge 36, Type (0, 0), BuildingBlock: AJUNOK_clean_linker_0, # of connection points: 2
#     Edge 37, Type (0, 0), BuildingBlock: AJUNOK_clean_linker_0, # of connection points: 2
#     Edge 38, Type (0, 0), BuildingBlock: AJUNOK_clean_linker_0, # of connection points: 2
#     Edge 39, Type (0, 0), BuildingBlock: AJUNOK_clean_linker_0, # of connection points: 2
#     Edge 40, Type (0, 0), BuildingBlock: AJUNOK_clean_linker_0, # of connection points: 2
#     Edge 41, Type (0, 0), BuildingBlock: AJUNOK_clean_linker_0, # of connection points: 2
#     Edge 42, Type (0, 0), BuildingBlock: AJUNOK_clean_linker_0, # of connection points: 2
#     Edge 43, Type (0, 0), BuildingBlock: AJUNOK_clean_linker_0, # of connection points: 2
#     Edge 44, Type (0, 0), BuildingBlock: AJUNOK_clean_linker_0, # of connection points: 2
#     Edge 45, Type (0, 0), BuildingBlock: AJUNOK_clean_linker_0, # of connection points: 2
#     Edge 46, Type (0, 0), BuildingBlock: AJUNOK_clean_linker_0, # of connection points: 2
#     Edge 47, Type (0, 0), BuildingBlock: AJUNOK_clean_linker_0, # of connection points: 2
#     Edge 48, Type (0, 0), BuildingBlock: AJUNOK_clean_linker_0, # of connection points: 2
#     Edge 49, Type (0, 0), BuildingBlock: AJUNOK_clean_linker_0, # of connection points: 2
#     Edge 50, Type (0, 0), BuildingBlock: AJUNOK_clean_linker_0, # of connection points: 2
#     Edge 51, Type (0, 0), BuildingBlock: AJUNOK_clean_linker_0, # of connection points: 2
#     Edge 52, Type (0, 0), BuildingBlock: AJUNOK_clean_linker_0, # of connection points: 2
#     Edge 53, Type (0, 0), BuildingBlock: AJUNOK_clean_linker_0, # of connection points: 2
#     Edge 54, Type (0, 0), BuildingBlock: AJUNOK_clean_linker_0, # of connection points: 2
#     Edge 55, Type (0, 0), BuildingBlock: AJUNOK_clean_linker_0, # of connection points: 2
#     Edge 56, Type (0, 0), BuildingBlock: AJUNOK_clean_linker_0, # of connection points: 2
#     Edge 57, Type (0, 0), BuildingBlock: AJUNOK_clean_linker_0, # of connection points: 2
#     Edge 58, Type (0, 0), BuildingBlock: AJUNOK_clean_linker_0, # of connection points: 2
#     Edge 59, Type (0, 0), BuildingBlock: AJUNOK_clean_linker_0, # of connection points: 2
#     Edge 60, Type (0, 0), BuildingBlock: AJUNOK_clean_linker_0, # of connection points: 2
#     Edge 61, Type (0, 0), BuildingBlock: AJUNOK_clean_linker_0, # of connection points: 2
#     Edge 62, Type (0, 0), BuildingBlock: AJUNOK_clean_linker_0, # of connection points: 2
#     Edge 63, Type (0, 0), BuildingBlock: AJUNOK_clean_linker_0, # of connection points: 2
#     Edge 64, Type (0, 0), BuildingBlock: AJUNOK_clean_linker_0, # of connection points: 2
#     Edge 65, Type (0, 0), BuildingBlock: AJUNOK_clean_linker_0, # of connection points: 2
#     Edge 66, Type (0, 0), BuildingBlock: AJUNOK_clean_linker_0, # of connection points: 2
#     Edge 67, Type (0, 0), BuildingBlock: AJUNOK_clean_linker_0, # of connection points: 2
#     Edge 68, Type (0, 0), BuildingBlock: AJUNOK_clean_linker_0, # of connection points: 2
#     Edge 69, Type (0, 0), BuildingBlock: AJUNOK_clean_linker_0, # of connection points: 2
#     Edge 70, Type (0, 0), BuildingBlock: AJUNOK_clean_linker_0, # of connection points: 2
#     Edge 71, Type (0, 0), BuildingBlock: AJUNOK_clean_linker_0, # of connection points: 2
#     Edge 72, Type (0, 0), BuildingBlock: AJUNOK_clean_linker_0, # of connection points: 2
#     Edge 73, Type (0, 0), BuildingBlock: AJUNOK_clean_linker_0, # of connection points: 2
#     Edge 74, Type (0, 0), BuildingBlock: AJUNOK_clean_linker_0, # of connection points: 2
#     Edge 75, Type (0, 0), BuildingBlock: AJUNOK_clean_linker_0, # of connection points: 2
#     Edge 76, Type (0, 0), BuildingBlock: AJUNOK_clean_linker_0, # of connection points: 2
#     Edge 77, Type (0, 0), BuildingBlock: AJUNOK_clean_linker_0, # of connection points: 2
#     Edge 78, Type (0, 0), BuildingBlock: AJUNOK_clean_linker_0, # of connection points: 2
#     Edge 79, Type (0, 0), BuildingBlock: AJUNOK_clean_linker_0, # of connection points: 2
#     Edge 80, Type (0, 0), BuildingBlock: AJUNOK_clean_linker_0, # of connection points: 2
#     Edge 81, Type (0, 0), BuildingBlock: AJUNOK_clean_linker_0, # of connection points: 2
#     Edge 82, Type (0, 0), BuildingBlock: AJUNOK_clean_linker_0, # of connection points: 2
#     Edge 83, Type (0, 0), BuildingBlock: AJUNOK_clean_linker_0, # of connection points: 2
#     Edge 84, Type (0, 0), BuildingBlock: AJUNOK_clean_linker_0, # of connection points: 2
#     Edge 85, Type (0, 0), BuildingBlock: AJUNOK_clean_linker_0, # of connection points: 2
#     Edge 86, Type (0, 0), BuildingBlock: AJUNOK_clean_linker_0, # of connection points: 2
#     Edge 87, Type (0, 0), BuildingBlock: AJUNOK_clean_linker_0, # of connection points: 2
#     Edge 88, Type (0, 0), BuildingBlock: AJUNOK_clean_linker_0, # of connection points: 2
#     Edge 89, Type (0, 0), BuildingBlock: AJUNOK_clean_linker_0, # of connection points: 2
#     Edge 90, Type (0, 0), BuildingBlock: AJUNOK_clean_linker_0, # of connection points: 2
#     Edge 91, Type (0, 0), BuildingBlock: AJUNOK_clean_linker_0, # of connection points: 2
#     Edge 92, Type (0, 0), BuildingBlock: AJUNOK_clean_linker_0, # of connection points: 2
#     Edge 93, Type (0, 0), BuildingBlock: AJUNOK_clean_linker_0, # of connection points: 2
#     Edge 94, Type (0, 0), BuildingBlock: AJUNOK_clean_linker_0, # of connection points: 2
#     Edge 95, Type (0, 0), BuildingBlock: AJUNOK_clean_linker_0, # of connection points: 2
# Relax obj value: 0.134
# Max RMSD: 0.161
# Mean RMSD: 0.161
data_MOF--net-uox--node1-AZAVOO_clean_sbu_0--edge1-AJUNOK_clean_linker_0
_symmetry_space_group_name_H-M    P1
_symmetry_Int_Tables_number       1
_symmetry_cell_setting            triclinic
loop_
_symmetry_equiv_pos_as_xyz
'x, y, z'
_cell_length_a     31.842775
_cell_length_b     31.803107
_cell_length_c     62.441055
_cell_angle_alpha  89.834071
_cell_angle_beta   89.958346
_cell_angle_gamma 90.1143
loop_
_atom_site_label
_atom_site_type_symbol
_atom_site_fract_x
_atom_site_fract_y
_atom_site_fract_z
_atom_type_partial_charge
Mg0 Mg 0.47389 0.99912 0.13565 0.0
O1 O 0.42326 0.0509 0.13292 0.0
O2 O 0.36637 0.02709 0.14993 0.0
Mg3 Mg 0.3781 0.96044 0.16261 0.0
C4 C 0.38533 0.05558 0.13918 0.0
C5 C 0.54527 0.03681 0.10725 0.0
O6 O 0.53705 0.00095 0.09772 0.0
O7 O 0.48673 0.01231 0.17151 0.0
O8 O 0.42972 0.98086 0.18537 0.0
O9 O 0.44784 0.96772 0.10596 0.0
O10 O 0.42737 0.95256 0.13864 0.0
C11 C 0.46549 0.99844 0.18747 0.0
C12 C 0.42333 0.9464 0.1185 0.0
O13 O 0.52439 0.04622 0.12396 0.0
Mg14 Mg 0.23918 0.22106 0.38845 0.0
O15 O 0.18653 0.17202 0.38381 0.0
O16 O 0.20708 0.11162 0.39852 0.0
Mg17 Mg 0.27177 0.1215 0.41382 0.0
C18 C 0.18021 0.13325 0.38809 0.0
C19 C 0.20184 0.2902 0.35849 0.0
O20 O 0.23575 0.2788 0.34803 0.0
O21 O 0.22374 0.23162 0.42421 0.0
O22 O 0.24671 0.16999 0.43721 0.0
O23 O 0.27152 0.19492 0.35912 0.0
O24 O 0.2844 0.17412 0.39219 0.0
C25 C 0.2312 0.20658 0.43986 0.0
C26 C 0.29158 0.17046 0.37217 0.0
O27 O 0.19382 0.27244 0.37635 0.0
Mg28 Mg 0.02723 0.00519 0.63214 0.0
O29 O 0.07457 0.95038 0.62848 0.0
O30 O 0.13189 0.96774 0.64688 0.0
Mg31 Mg 0.12475 0.03431 0.66042 0.0
C32 C 0.11153 0.94195 0.63517 0.0
C33 C 0.95558 0.97444 0.60188 0.0
O34 O 0.96752 0.00972 0.59272 0.0
O35 O 0.01225 0.9899 0.66764 0.0
O36 O 0.07062 0.01684 0.68238 0.0
O37 O 0.05561 0.03998 0.6037 0.0
O38 O 0.07595 0.0485 0.6369 0.0
C39 C 0.03362 0.0017 0.68394 0.0
C40 C 0.07993 0.05886 0.61723 0.0
O41 O 0.97431 0.96284 0.61891 0.0
Mg42 Mg 0.25724 0.78355 0.8829 0.0
O43 O 0.31285 0.82989 0.88254 0.0
O44 O 0.29311 0.8875 0.90012 0.0
Mg45 Mg 0.22424 0.88014 0.91083 0.0
C46 C 0.32043 0.86688 0.88945 0.0
C47 C 0.29412 0.71306 0.85355 0.0
O48 O 0.26175 0.72598 0.8423 0.0
O49 O 0.26472 0.76651 0.91891 0.0
O50 O 0.23627 0.82475 0.93273 0.0
O51 O 0.23162 0.81342 0.85266 0.0
O52 O 0.21553 0.83442 0.88517 0.0
C53 C 0.25014 0.78743 0.93475 0.0
C54 C 0.21218 0.83972 0.86491 0.0
O55 O 0.3011 0.7302 0.87162 0.0
Mg56 Mg 0.46439 0.99577 0.32845 0.0
O57 O 0.41724 0.94074 0.32924 0.0
O58 O 0.36088 0.96077 0.31059 0.0
Mg59 Mg 0.36956 0.02926 0.29926 0.0
C60 C 0.38061 0.93345 0.32175 0.0
C61 C 0.53676 0.96057 0.35741 0.0
O62 O 0.52656 0.99499 0.36775 0.0
O63 O 0.48158 0.98552 0.29278 0.0
O64 O 0.42459 0.01416 0.27766 0.0
O65 O 0.43463 0.02314 0.35819 0.0
O66 O 0.41431 0.03817 0.32538 0.0
C67 C 0.46153 0.99908 0.27641 0.0
C68 C 0.40872 0.04238 0.34558 0.0
O69 O 0.51702 0.9517 0.34027 0.0
Mg70 Mg 0.2573 0.23813 0.57513 0.0
O71 O 0.30516 0.18169 0.57746 0.0
O72 O 0.27571 0.12299 0.56415 0.0
Mg73 Mg 0.21482 0.13857 0.54645 0.0
C74 C 0.30571 0.14182 0.57389 0.0
C75 C 0.29304 0.30865 0.60464 0.0
O76 O 0.25419 0.30501 0.61153 0.0
O77 O 0.27428 0.25908 0.53972 0.0
O78 O 0.24513 0.1992 0.54193 0.0
O79 O 0.22189 0.20994 0.60294 0.0
O80 O 0.20739 0.19165 0.56984 0.0
C81 C 0.2561 0.2292 0.53009 0.0
C82 C 0.20012 0.18706 0.58991 0.0
O83 O 0.30512 0.28471 0.58953 0.0
Mg84 Mg 0.02552 0.00283 0.82446 0.0
O85 O 0.0739 0.05668 0.82645 0.0
O86 O 0.13162 0.03649 0.80915 0.0
Mg87 Mg 0.12102 0.97 0.7956 0.0
C88 C 0.11157 0.06344 0.82031 0.0
C89 C 0.95999 0.03844 0.85638 0.0
O90 O 0.97495 0.00544 0.86648 0.0
O91 O 0.0088 0.01611 0.78902 0.0
O92 O 0.06704 0.98959 0.77399 0.0
O93 O 0.05692 0.97302 0.85321 0.0
O94 O 0.07285 0.95846 0.8197 0.0
C95 C 0.03014 0.00487 0.77261 0.0
C96 C 0.07994 0.95285 0.83961 0.0
O97 O 0.97461 0.04709 0.83789 0.0
Mg98 Mg 0.24217 0.77463 0.075 0.0
O99 O 0.18803 0.823 0.07859 0.0
O100 O 0.20719 0.88012 0.06026 0.0
Mg101 Mg 0.27329 0.87169 0.04646 0.0
C102 C 0.18067 0.86025 0.07183 0.0
C103 C 0.2065 0.7078 0.10701 0.0
O104 O 0.23803 0.72403 0.11775 0.0
O105 O 0.22699 0.75985 0.03954 0.0
O106 O 0.2536 0.81834 0.02454 0.0
O107 O 0.27667 0.80275 0.10338 0.0
O108 O 0.28641 0.82276 0.07014 0.0
C109 C 0.23798 0.78151 0.02314 0.0
C110 C 0.29608 0.82687 0.08987 0.0
O111 O 0.19896 0.72211 0.08833 0.0
Mg112 Mg 0.53306 0.00251 0.82837 0.0
O113 O 0.57857 0.94663 0.82752 0.0
O114 O 0.63486 0.96577 0.8086 0.0
Mg115 Mg 0.62693 0.0348 0.79801 0.0
C116 C 0.61469 0.93854 0.81968 0.0
C117 C 0.46396 0.96518 0.85892 0.0
O118 O 0.47631 0.99802 0.86999 0.0
O119 O 0.51318 0.99416 0.79296 0.0
O120 O 0.57021 0.0216 0.77721 0.0
O121 O 0.56536 0.02728 0.85791 0.0
O122 O 0.58412 0.04423 0.82506 0.0
C123 C 0.53275 0.0076 0.7764 0.0
C124 C 0.59098 0.04694 0.84525 0.0
O125 O 0.48079 0.95844 0.84074 0.0
Mg126 Mg 0.75235 0.79134 0.57694 0.0
O127 O 0.8057 0.84052 0.57777 0.0
O128 O 0.78391 0.89611 0.559 0.0
Mg129 Mg 0.71653 0.88469 0.54696 0.0
C130 C 0.81171 0.87754 0.57033 0.0
C131 C 0.79255 0.72566 0.60844 0.0
O132 O 0.76129 0.74021 0.61998 0.0
O133 O 0.76424 0.77387 0.5414 0.0
O134 O 0.7348 0.83001 0.52576 0.0
O135 O 0.72268 0.82072 0.60624 0.0
O136 O 0.70806 0.83991 0.57322 0.0
C137 C 0.75106 0.79352 0.5248 0.0
C138 C 0.70281 0.84561 0.59335 0.0
O139 O 0.79778 0.74027 0.5896 0.0
Mg140 Mg 0.96863 0.00709 0.32133 0.0
O141 O 0.91785 0.06022 0.32433 0.0
O142 O 0.85658 0.03572 0.31201 0.0
Mg143 Mg 0.87452 0.98065 0.29092 0.0
C144 C 0.87799 0.06363 0.32187 0.0
C145 C 0.03923 0.03914 0.35163 0.0
O146 O 0.03086 0.00169 0.35951 0.0
O147 O 0.98848 0.01767 0.28618 0.0
O148 O 0.92245 0.02657 0.27746 0.0
O149 O 0.9377 0.97418 0.34894 0.0
O150 O 0.92137 0.96171 0.3153 0.0
C151 C 0.95995 0.01852 0.27194 0.0
C152 C 0.91474 0.95413 0.33521 0.0
O153 O 0.0187 0.0516 0.33532 0.0
Mg154 Mg 0.74327 0.22798 0.07715 0.0
O155 O 0.69094 0.17615 0.07875 0.0
O156 O 0.71451 0.11554 0.06484 0.0
Mg157 Mg 0.77788 0.12674 0.04822 0.0
C158 C 0.68635 0.13685 0.07466 0.0
C159 C 0.7071 0.29332 0.10978 0.0
O160 O 0.74094 0.28038 0.11981 0.0
O161 O 0.72866 0.25162 0.04203 0.0
O162 O 0.75367 0.18962 0.04157 0.0
O163 O 0.7757 0.1966 0.10508 0.0
O164 O 0.78955 0.17805 0.072 0.0
C165 C 0.74515 0.22238 0.0312 0.0
C166 C 0.7963 0.17275 0.09205 0.0
O167 O 0.69851 0.27729 0.09163 0.0
Mg168 Mg 0.51729 0.00825 0.63599 0.0
O169 O 0.56763 0.06019 0.63391 0.0
O170 O 0.62522 0.03641 0.65013 0.0
Mg171 Mg 0.61258 0.96968 0.66307 0.0
C172 C 0.60582 0.06494 0.63963 0.0
C173 C 0.44264 0.04007 0.60961 0.0
O174 O 0.44838 0.00106 0.60341 0.0
O175 O 0.50331 0.02093 0.67176 0.0
O176 O 0.56089 0.9909 0.68571 0.0
O177 O 0.54583 0.97881 0.60638 0.0
O178 O 0.56305 0.96178 0.63945 0.0
C179 C 0.52492 0.008 0.68776 0.0
C180 C 0.56896 0.95712 0.61937 0.0
O181 O 0.46719 0.05484 0.6238 0.0
Mg182 Mg 0.74289 0.77857 0.38394 0.0
O183 O 0.68895 0.82662 0.3814 0.0
O184 O 0.71002 0.88575 0.39719 0.0
Mg185 Mg 0.77805 0.87784 0.4087 0.0
C186 C 0.68231 0.86457 0.38708 0.0
C187 C 0.70394 0.70757 0.35575 0.0
O188 O 0.73665 0.71938 0.34439 0.0
O189 O 0.73267 0.76701 0.42034 0.0
O190 O 0.76217 0.82632 0.43261 0.0
O191 O 0.77188 0.80465 0.35337 0.0
O192 O 0.7872 0.82724 0.38558 0.0
C193 C 0.7467 0.78978 0.43567 0.0
C194 C 0.7927 0.83046 0.36535 0.0
O195 O 0.69725 0.72574 0.37359 0.0
Mg196 Mg 0.96412 0.98658 0.13384 0.0
O197 O 0.91391 0.93471 0.12759 0.0
O198 O 0.85543 0.95555 0.14394 0.0
Mg199 Mg 0.86545 0.01844 0.16047 0.0
C200 C 0.8753 0.92905 0.13252 0.0
C201 C 0.03532 0.95423 0.10383 0.0
O202 O 0.02392 0.98975 0.09479 0.0
O203 O 0.97453 0.96746 0.16925 0.0
O204 O 0.91415 0.99135 0.18311 0.0
O205 O 0.93978 0.02501 0.10568 0.0
O206 O 0.91749 0.03204 0.13868 0.0
C207 C 0.95025 0.97456 0.1852 0.0
C208 C 0.91524 0.04375 0.11913 0.0
O209 O 0.01631 0.94275 0.12084 0.0
Mg210 Mg 0.76242 0.22367 0.88948 0.0
O211 O 0.81429 0.17341 0.88572 0.0
O212 O 0.79139 0.11454 0.90142 0.0
Mg213 Mg 0.72618 0.1259 0.91574 0.0
C214 C 0.81931 0.13487 0.89096 0.0
C215 C 0.79969 0.2904 0.8586 0.0
O216 O 0.76622 0.27649 0.84858 0.0
O217 O 0.77746 0.23509 0.9253 0.0
O218 O 0.752 0.17464 0.93875 0.0
O219 O 0.73054 0.19696 0.86016 0.0
O220 O 0.71621 0.17744 0.89326 0.0
C221 C 0.76877 0.21078 0.94111 0.0
C222 C 0.70976 0.17303 0.8732 0.0
O223 O 0.80823 0.27474 0.8769 0.0
Mg224 Mg 0.96523 0.51219 0.6366 0.0
O225 O 0.92222 0.57044 0.63415 0.0
O226 O 0.86569 0.55773 0.65416 0.0
Mg227 Mg 0.8699 0.49108 0.66805 0.0
C228 C 0.88662 0.58161 0.6416 0.0
C229 C 0.03517 0.54243 0.6043 0.0
O230 O 0.01912 0.51044 0.59384 0.0
O231 O 0.98614 0.52443 0.67156 0.0
O232 O 0.9276 0.50319 0.68827 0.0
O233 O 0.93208 0.48262 0.60857 0.0
O234 O 0.91257 0.47238 0.64193 0.0
C235 C 0.96591 0.51468 0.68857 0.0
C236 C 0.90637 0.46508 0.62197 0.0
O237 O 0.01992 0.55153 0.62258 0.0
Mg238 Mg 0.74501 0.72552 0.88159 0.0
O239 O 0.69621 0.66982 0.87991 0.0
O240 O 0.72303 0.61109 0.8946 0.0
Mg241 Mg 0.78384 0.62622 0.91259 0.0
C242 C 0.69407 0.63027 0.88423 0.0
C243 C 0.71053 0.79358 0.84987 0.0
O244 O 0.74884 0.78826 0.84253 0.0
O245 O 0.72756 0.74908 0.91624 0.0
O246 O 0.75541 0.68837 0.91521 0.0
O247 O 0.78243 0.69472 0.85523 0.0
O248 O 0.79341 0.67929 0.88911 0.0
C249 C 0.74592 0.71982 0.92631 0.0
C250 C 0.80307 0.67348 0.86945 0.0
O251 O 0.69862 0.77155 0.86582 0.0
Mg252 Mg 0.52333 0.49632 0.13368 0.0
O253 O 0.5721 0.44273 0.13312 0.0
O254 O 0.62981 0.46623 0.14942 0.0
Mg255 Mg 0.62054 0.53512 0.15914 0.0
C256 C 0.60967 0.43725 0.13972 0.0
C257 C 0.45549 0.45423 0.10486 0.0
O258 O 0.46838 0.48593 0.09302 0.0
O259 O 0.50971 0.48907 0.1701 0.0
O260 O 0.56781 0.52066 0.18244 0.0
O261 O 0.55075 0.52263 0.10292 0.0
O262 O 0.57136 0.54144 0.13501 0.0
C263 C 0.53137 0.50498 0.18538 0.0
C264 C 0.57572 0.54482 0.11472 0.0
O265 O 0.47176 0.44931 0.12334 0.0
Mg266 Mg 0.74519 0.27452 0.3862 0.0
O267 O 0.79807 0.32359 0.38265 0.0
O268 O 0.77783 0.38176 0.39951 0.0
Mg269 Mg 0.71119 0.37207 0.41281 0.0
C270 C 0.8048 0.36144 0.3885 0.0
C271 C 0.77954 0.20188 0.35799 0.0
O272 O 0.74283 0.20985 0.3493 0.0
O273 O 0.75957 0.26191 0.42192 0.0
O274 O 0.73045 0.31997 0.43576 0.0
O275 O 0.71303 0.30066 0.35673 0.0
O276 O 0.70016 0.32228 0.38941 0.0
C277 C 0.74692 0.28368 0.43788 0.0
C278 C 0.69287 0.32581 0.36933 0.0
O279 O 0.79065 0.22318 0.37427 0.0
Mg280 Mg 0.97962 0.49637 0.82809 0.0
O281 O 0.93235 0.44127 0.83143 0.0
O282 O 0.87468 0.45985 0.81356 0.0
Mg283 Mg 0.88161 0.52692 0.80057 0.0
C284 C 0.89519 0.4334 0.82483 0.0
C285 C 0.04554 0.45695 0.8595 0.0
O286 O 0.02761 0.48539 0.87164 0.0
O287 O 0.99413 0.48388 0.79222 0.0
O288 O 0.93522 0.51091 0.7782 0.0
O289 O 0.95155 0.52834 0.85725 0.0
O290 O 0.93034 0.53961 0.82437 0.0
C291 C 0.97222 0.49624 0.7762 0.0
C292 C 0.92633 0.54763 0.84431 0.0
O293 O 0.03278 0.45299 0.84028 0.0
Mg294 Mg 0.75657 0.71227 0.06715 0.0
O295 O 0.81044 0.66501 0.07333 0.0
O296 O 0.79374 0.60508 0.05698 0.0
Mg297 Mg 0.7298 0.61209 0.04087 0.0
C298 C 0.8187 0.62693 0.06843 0.0
C299 C 0.7825 0.78758 0.09512 0.0
O300 O 0.74463 0.77775 0.10184 0.0
O301 O 0.77518 0.72361 0.03204 0.0
O302 O 0.7542 0.66226 0.01794 0.0
O303 O 0.72103 0.68708 0.09559 0.0
O304 O 0.71331 0.66319 0.06284 0.0
C305 C 0.76917 0.69932 0.01604 0.0
C306 C 0.70291 0.66102 0.08263 0.0
O307 O 0.79824 0.76597 0.08 0.0
Mg308 Mg 0.51823 0.50429 0.32631 0.0
O309 O 0.56718 0.55757 0.33065 0.0
O310 O 0.6249 0.53881 0.31291 0.0
Mg311 Mg 0.61556 0.47341 0.29829 0.0
C312 C 0.60485 0.56485 0.32459 0.0
C313 C 0.44879 0.5379 0.35715 0.0
O314 O 0.46139 0.50346 0.36685 0.0
O315 O 0.50471 0.52109 0.29088 0.0
O316 O 0.56339 0.49504 0.27608 0.0
O317 O 0.54557 0.46888 0.35469 0.0
O318 O 0.56585 0.45988 0.32146 0.0
C319 C 0.52682 0.51102 0.27454 0.0
C320 C 0.56983 0.44988 0.34119 0.0
O321 O 0.4663 0.548 0.33952 0.0
Mg322 Mg 0.74806 0.27459 0.57904 0.0
O323 O 0.69635 0.32525 0.57981 0.0
O324 O 0.72118 0.38228 0.56325 0.0
Mg325 Mg 0.78839 0.36917 0.55144 0.0
C326 C 0.69206 0.36326 0.57355 0.0
C327 C 0.7094 0.20416 0.60781 0.0
O328 O 0.74549 0.21152 0.61728 0.0
O329 O 0.73702 0.25969 0.54323 0.0
O330 O 0.768 0.31682 0.52905 0.0
O331 O 0.77614 0.30408 0.60872 0.0
O332 O 0.79451 0.32047 0.57574 0.0
C333 C 0.75085 0.28075 0.52717 0.0
C334 C 0.79809 0.3273 0.5958 0.0
O335 O 0.70034 0.22516 0.59104 0.0
Mg336 Mg 0.01979 0.4942 0.32738 0.0
O337 O 0.0675 0.44012 0.33124 0.0
O338 O 0.12625 0.45926 0.31443 0.0
Mg339 Mg 0.11879 0.52614 0.30115 0.0
C340 C 0.10522 0.43267 0.32545 0.0
C341 C 0.94754 0.45929 0.35628 0.0
O342 O 0.95753 0.49429 0.36619 0.0
O343 O 0.0073 0.48079 0.29154 0.0
O344 O 0.06648 0.5089 0.2782 0.0
O345 O 0.04593 0.52625 0.35683 0.0
O346 O 0.06851 0.53817 0.32417 0.0
C347 C 0.0298 0.49351 0.27578 0.0
C348 C 0.07156 0.54595 0.34419 0.0
O349 O 0.96721 0.44989 0.33919 0.0
Mg350 Mg 0.25346 0.26751 0.07638 0.0
O351 O 0.30778 0.31546 0.07947 0.0
O352 O 0.28842 0.37347 0.06197 0.0
Mg353 Mg 0.22168 0.36511 0.0488 0.0
C354 C 0.315 0.35308 0.07323 0.0
C355 C 0.28645 0.19681 0.10626 0.0
O356 O 0.25186 0.20917 0.1158 0.0
O357 O 0.26658 0.25313 0.04067 0.0
O358 O 0.23901 0.3117 0.02643 0.0
O359 O 0.22268 0.29526 0.10567 0.0
O360 O 0.20984 0.31643 0.07284 0.0
C361 C 0.25421 0.27483 0.02458 0.0
C362 C 0.2031 0.32069 0.09293 0.0
O363 O 0.29698 0.21487 0.08883 0.0
Mg364 Mg 0.474 0.50594 0.82454 0.0
O365 O 0.42715 0.56083 0.82811 0.0
O366 O 0.3688 0.54271 0.81072 0.0
Mg367 Mg 0.37552 0.47559 0.79768 0.0
C368 C 0.38977 0.56887 0.82195 0.0
C369 C 0.55254 0.53266 0.85014 0.0
O370 O 0.5457 0.49375 0.85637 0.0
O371 O 0.48776 0.51945 0.78886 0.0
O372 O 0.42913 0.49148 0.77501 0.0
O373 O 0.44706 0.47414 0.85394 0.0
O374 O 0.42449 0.46274 0.82129 0.0
C375 C 0.46607 0.50652 0.77292 0.0
C376 C 0.42123 0.45482 0.84133 0.0
O377 O 0.52769 0.54865 0.83642 0.0
Mg378 Mg 0.2422 0.72144 0.5779 0.0
O379 O 0.18778 0.67338 0.57936 0.0
O380 O 0.20817 0.61672 0.56113 0.0
Mg381 Mg 0.27622 0.62566 0.54941 0.0
C382 C 0.18082 0.63636 0.57224 0.0
C383 C 0.20677 0.79498 0.60623 0.0
O384 O 0.24129 0.78528 0.61664 0.0
O385 O 0.23168 0.73765 0.54209 0.0
O386 O 0.26101 0.68041 0.5276 0.0
O387 O 0.27202 0.69263 0.60758 0.0
O388 O 0.28516 0.6719 0.57472 0.0
C389 C 0.24579 0.71728 0.52597 0.0
C390 C 0.29114 0.66701 0.59482 0.0
O391 O 0.19777 0.77433 0.58939 0.0
Mg392 Mg 0.02898 0.49917 0.1353 0.0
O393 O 0.0767 0.55374 0.13234 0.0
O394 O 0.13335 0.53582 0.15118 0.0
Mg395 Mg 0.12505 0.46895 0.16444 0.0
C396 C 0.11343 0.56191 0.13943 0.0
C397 C 0.96105 0.53416 0.10399 0.0
O398 O 0.97423 0.5007 0.09371 0.0
O399 O 0.01268 0.51331 0.17061 0.0
O400 O 0.07045 0.48652 0.18601 0.0
O401 O 0.05852 0.4661 0.10692 0.0
O402 O 0.07714 0.45571 0.14032 0.0
C403 C 0.03345 0.50162 0.18713 0.0
C404 C 0.08228 0.44675 0.12057 0.0
O405 O 0.97736 0.54266 0.12207 0.0
Mg406 Mg 0.2494 0.27275 0.88382 0.0
O407 O 0.19619 0.32203 0.88195 0.0
O408 O 0.21697 0.37801 0.90062 0.0
Mg409 Mg 0.28406 0.36778 0.91291 0.0
C410 C 0.18966 0.35894 0.88925 0.0
C411 C 0.21174 0.20403 0.85305 0.0
O412 O 0.24595 0.21482 0.8426 0.0
O413 O 0.2364 0.2563 0.91947 0.0
O414 O 0.26563 0.31335 0.93445 0.0
O415 O 0.28175 0.30297 0.8551 0.0
O416 O 0.29423 0.31996 0.88849 0.0
C417 C 0.2495 0.27672 0.93583 0.0
C418 C 0.30207 0.32602 0.86867 0.0
O419 O 0.20391 0.22207 0.87081 0.0
Mg420 Mg 0.48216 0.50646 0.63232 0.0
O421 O 0.4321 0.4543 0.6309 0.0
O422 O 0.37461 0.47695 0.64754 0.0
Mg423 Mg 0.38738 0.54341 0.66059 0.0
C424 C 0.39417 0.44883 0.63691 0.0
C425 C 0.55301 0.4684 0.60327 0.0
O426 O 0.54699 0.50503 0.59399 0.0
O427 O 0.49761 0.4933 0.66789 0.0
O428 O 0.43968 0.52132 0.68254 0.0
O429 O 0.45144 0.5365 0.60329 0.0
O430 O 0.43641 0.55257 0.63671 0.0
C431 C 0.476 0.50481 0.68414 0.0
C432 C 0.42917 0.55776 0.6168 0.0
O433 O 0.53119 0.45918 0.61973 0.0
Mg434 Mg 0.24806 0.72341 0.38571 0.0
O435 O 0.30083 0.67356 0.38284 0.0
O436 O 0.27975 0.61745 0.40143 0.0
Mg437 Mg 0.21385 0.6283 0.41509 0.0
C438 C 0.30695 0.63622 0.38979 0.0
C439 C 0.28479 0.78896 0.35337 0.0
O440 O 0.25226 0.77407 0.34291 0.0
O441 O 0.26333 0.73922 0.42104 0.0
O442 O 0.2343 0.68222 0.43636 0.0
O443 O 0.21376 0.69457 0.35748 0.0
O444 O 0.20284 0.67668 0.39096 0.0
C445 C 0.25094 0.71863 0.43755 0.0
C446 C 0.19382 0.67144 0.37124 0.0
O447 O 0.29254 0.77419 0.37194 0.0
C448 C 0.48353 0.96156 0.24354 0.0
C449 C 0.48049 0.99931 0.25493 0.0
C450 C 0.48416 0.96187 0.22107 0.0
C451 C 0.48213 -0.00012 0.20942 0.0
H452 H 0.48077 0.93173 0.25184 0.0
H453 H 0.48217 0.93208 0.21274 0.0
S454 S 0.48091 0.10708 0.23208 0.0
N455 N 0.48099 0.07566 0.25321 0.0
N456 N 0.48252 0.07599 0.21094 0.0
C457 C 0.48393 0.03777 0.22068 0.0
C458 C 0.48299 0.0375 0.24352 0.0
C459 C 0.21935 0.19674 0.49911 0.0
C460 C 0.24552 0.22903 0.50692 0.0
C461 C 0.211 0.19253 0.47727 0.0
C462 C 0.22803 0.22065 0.46226 0.0
H463 H 0.20624 0.17335 0.50983 0.0
H464 H 0.19309 0.16549 0.47196 0.0
S465 S 0.29478 0.31327 0.47422 0.0
N466 N 0.28545 0.29193 0.49793 0.0
N467 N 0.26973 0.28376 0.4566 0.0
C468 C 0.2518 0.25485 0.46982 0.0
C469 C 0.2606 0.25908 0.49221 0.0
C470 C 0.01416 0.04281 0.73899 0.0
C471 C 0.01202 0.00559 0.75098 0.0
C472 C 0.01566 0.04139 0.71657 0.0
C473 C 0.01504 0.00276 0.70552 0.0
H474 H 0.01935 0.07262 0.74694 0.0
H475 H 0.02149 0.0704 0.7079 0.0
S476 S 0.00283 0.89725 0.72967 0.0
N477 N 0.00378 0.92964 0.75032 0.0
N478 N 0.00662 0.92719 0.70808 0.0
C479 C 0.00812 0.96586 0.71722 0.0
C480 C 0.00665 0.96727 0.74006 0.0
C481 C 0.20573 0.77267 0.96633 0.0
C482 C 0.24507 0.76845 0.95616 0.0
C483 C 0.2019 0.77036 -0.01133 0.0
C484 C 0.23731 0.76357 0.00149 0.0
H485 H 0.17843 0.7819 0.9571 0.0
H486 H 0.17213 0.7785 -0.00403 0.0
S487 S 0.34589 0.74375 -0.01741 0.0
N488 N 0.31882 0.75171 0.96037 0.0
N489 N 0.31178 0.74723 0.00247 0.0
C490 C 0.27581 0.75453 -0.00862 0.0
C491 C 0.2797 0.75693 0.96862 0.0
C492 C 0.50684 0.97149 0.7438 0.0
C493 C 0.51264 0.00893 0.7552 0.0
C494 C 0.50498 0.97204 0.72134 0.0
C495 C 0.5085 0.01 0.70974 0.0
H496 H 0.50845 0.94148 0.75202 0.0
H497 H 0.50504 0.94227 0.71293 0.0
S498 S 0.51685 0.11677 0.73254 0.0
N499 N 0.51616 0.08521 0.75361 0.0
N500 N 0.51241 0.08599 0.71139 0.0
C501 C 0.50938 0.04781 0.72109 0.0
C502 C 0.51155 0.0473 0.7439 0.0
C503 C 0.78728 0.77724 0.46882 0.0
C504 C 0.74869 0.77393 0.45786 0.0
C505 C 0.789 0.77738 0.49126 0.0
C506 C 0.75211 0.77436 0.5034 0.0
H507 H 0.81592 0.78358 0.45998 0.0
H508 H 0.81863 0.78437 0.49902 0.0
S509 S 0.64419 0.75883 0.48254 0.0
N510 N 0.67368 0.7623 0.46081 0.0
N511 N 0.67667 0.76286 0.50307 0.0
C512 C 0.71398 0.76666 0.49267 0.0
C513 C 0.71229 0.76629 0.46981 0.0
C514 C 0.99496 0.01618 0.23594 0.0
C515 C 0.9672 0.99838 0.25094 0.0
C516 C 0.99421 0.00327 0.21438 0.0
C517 C 0.96577 0.97221 0.20735 0.0
H518 H 0.01468 0.0425 0.24044 0.0
H519 H 0.01265 0.02081 0.2028 0.0
S520 S 0.89359 0.90987 0.24143 0.0
N521 N 0.9162 0.94314 0.2581 0.0
N522 N 0.91414 0.91987 0.21766 0.0
C523 C 0.94145 0.9512 0.22273 0.0
C524 C 0.94225 0.96414 0.24453 0.0
C525 C 0.74353 0.25249 0.97211 0.0
C526 C 0.77338 0.22475 0.9634 0.0
C527 C 0.7358 0.25356 -0.00568 0.0
C528 C 0.75735 0.22644 0.00835 0.0
H529 H 0.72361 0.27081 0.96158 0.0
H530 H 0.71101 0.2736 0.00033 0.0
S531 S 0.84342 0.15325 -0.00647 0.0
N532 N 0.82777 0.17352 0.97052 0.0
N533 N 0.81412 0.17564 0.01208 0.0
C534 C 0.78975 0.2013 -0.00013 0.0
C535 C 0.79755 0.20043 0.97743 0.0
C536 C 0.99055 0.54514 0.72283 0.0
C537 C 0.98726 0.5102 0.70934 0.0
C538 C 0.99217 0.53982 0.74514 0.0
C539 C 0.99028 0.49948 0.75456 0.0
H540 H 0.98712 0.57659 0.71635 0.0
H541 H 0.99017 0.56755 0.75514 0.0
S542 S 0.98828 0.39809 0.72583 0.0
N543 N 0.98801 0.434 0.70665 0.0
N544 N 0.99045 0.42426 0.74863 0.0
C545 C 0.99183 0.46439 0.74115 0.0
C546 C 0.99042 0.46975 0.71846 0.0
C547 C 0.74127 0.74208 -0.01396 0.0
C548 C 0.77276 0.71529 -0.00595 0.0
C549 C 0.73389 0.74551 0.96389 0.0
C550 C 0.75762 0.72193 0.94923 0.0
H551 H 0.72001 0.75769 -0.00302 0.0
H552 H 0.70783 0.76448 0.95835 0.0
S553 S 0.84878 0.6537 0.96227 0.0
N554 N 0.83089 0.66918 -0.01422 0.0
N555 N 0.81837 0.67647 0.94427 0.0
C556 C 0.79166 0.69818 0.9571 0.0
C557 C 0.79887 0.6946 0.97952 0.0
C558 C 0.51812 0.54951 0.2405 0.0
C559 C 0.50974 0.5135 0.25273 0.0
C560 C 0.52033 0.54717 0.21813 0.0
C561 C 0.51441 0.50874 0.20729 0.0
H562 H 0.52727 0.57852 0.2483 0.0
H563 H 0.53036 0.57489 0.20936 0.0
S564 S 0.48576 0.40694 0.23207 0.0
N565 N 0.49066 0.43951 0.2525 0.0
N566 N 0.49474 0.43528 0.21031 0.0
C567 C 0.50161 0.47361 0.21918 0.0
C568 C 0.49941 0.47598 0.24201 0.0
C569 C 0.71076 0.26521 0.49418 0.0
C570 C 0.74893 0.26397 0.50529 0.0
C571 C 0.7103 0.26673 0.47174 0.0
C572 C 0.74792 0.26668 0.45981 0.0
H573 H 0.68155 0.2695 0.50282 0.0
H574 H 0.68053 0.27167 0.46373 0.0
S575 S 0.85544 0.2572 0.4815 0.0
N576 N 0.82483 0.25769 0.50289 0.0
N577 N 0.8237 0.26005 0.46062 0.0
C578 C 0.78586 0.26086 0.47067 0.0
C579 C 0.78639 0.25967 0.49351 0.0
C580 C 0.01374 0.5347 0.24331 0.0
C581 C 0.01293 0.49546 0.25389 0.0
C582 C 0.01433 0.53736 0.22089 0.0
C583 C 0.01411 0.50078 0.20848 0.0
H584 H 0.01813 0.56332 0.25243 0.0
H585 H 0.01953 0.56771 0.2134 0.0
S586 S 0.0054 0.3911 0.22833 0.0
N587 N 0.00652 0.41989 0.25031 0.0
N588 N 0.00751 0.42465 0.20809 0.0
C589 C 0.00861 0.46174 0.21883 0.0
C590 C 0.00798 0.45908 0.24164 0.0
C591 C 0.29025 0.2556 -0.00924 0.0
C592 C 0.25325 0.25701 0.00287 0.0
C593 C 0.2885 0.25609 0.96831 0.0
C594 C 0.24978 0.25789 0.95738 0.0
H595 H 0.32048 0.25874 -0.00144 0.0
H596 H 0.31765 0.25939 0.95948 0.0
S597 S 0.14425 0.25512 -0.01801 0.0
N598 N 0.17697 0.25457 0.00252 0.0
N599 N 0.17395 0.25555 0.96028 0.0
C600 C 0.21275 0.25448 0.96929 0.0
C601 C 0.21447 0.25409 -0.00788 0.0
C602 C 0.48011 0.46611 0.73996 0.0
C603 C 0.48434 0.50417 0.75128 0.0
C604 C 0.48419 0.46481 0.71764 0.0
C605 C 0.49252 0.50158 0.706 0.0
H606 H 0.47002 0.43782 0.74823 0.0
H607 H 0.47622 0.43599 0.70934 0.0
S608 S 0.51278 0.6076 0.72832 0.0
N609 N 0.50276 0.57809 0.74956 0.0
N610 N 0.51006 0.5759 0.70743 0.0
C611 C 0.50129 0.5388 0.71733 0.0
C612 C 0.49732 0.54007 0.7401 0.0
C613 C 0.21113 0.74067 0.49241 0.0
C614 C 0.2479 0.7363 0.5045 0.0
C615 C 0.213 0.74107 0.46996 0.0
C616 C 0.25162 0.7373 0.45905 0.0
H617 H 0.18072 0.73898 0.50017 0.0
H618 H 0.18378 0.73983 0.46109 0.0
S619 S 0.35695 0.73276 0.48368 0.0
N620 N 0.3242 0.73438 0.5042 0.0
N621 N 0.32741 0.735 0.46197 0.0
C622 C 0.28869 0.738 0.47098 0.0
C623 C 0.28686 0.73751 0.4938 0.0
C624 C 0.36491 0.8951 0.1252 0.0
C625 C 0.39063 0.91699 0.11048 0.0
C626 C 0.33406 0.8667 0.11841 0.0
C627 C 0.32804 0.85824 0.0966 0.0
H628 H 0.36884 0.89918 0.14223 0.0
H629 H 0.31513 0.85093 0.13042 0.0
S630 S 0.39015 0.9035 0.05152 0.0
N631 N 0.40928 0.92655 0.07306 0.0
N632 N 0.35296 0.87157 0.06025 0.0
C633 C 0.35439 0.87889 0.08166 0.0
C634 C 0.38529 0.90853 0.0886 0.0
C635 C 0.3597 0.1334 0.37495 0.0
C636 C 0.32034 0.13738 0.36494 0.0
C637 C 0.38741 0.10111 0.36932 0.0
C638 C 0.37635 0.07137 0.35374 0.0
H639 H 0.36943 0.15592 0.38697 0.0
H640 H 0.4182 0.10028 0.37668 0.0
S641 S 0.27308 0.06288 0.3265 0.0
N642 N 0.26946 0.10627 0.34085 0.0
N643 N 0.32059 0.04409 0.33104 0.0
C644 C 0.33593 0.0735 0.34466 0.0
C645 C 0.3081 0.10695 0.35007 0.0
C646 C 0.11912 0.09883 0.58894 0.0
C647 C 0.11109 0.09129 0.61071 0.0
C648 C 0.14752 0.1301 0.58246 0.0
C649 C 0.16991 0.15454 0.59746 0.0
H650 H 0.10305 0.08078 0.57674 0.0
H651 H 0.1513 0.13533 0.56547 0.0
S652 S 0.15698 0.15051 0.65645 0.0
N653 N 0.12479 0.11405 0.64733 0.0
N654 N 0.17993 0.17079 0.6351 0.0
C655 C 0.16163 0.14788 0.61928 0.0
C656 C 0.13193 0.11671 0.62591 0.0
C657 C 0.1196 0.88634 0.83596 0.0
C658 C 0.11493 0.9256 0.846 0.0
C659 C 0.15298 0.85962 0.84121 0.0
C660 C 0.1831 0.87166 0.8564 0.0
H661 H 0.09662 0.87574 0.82437 0.0
H662 H 0.15416 0.82867 0.83402 0.0
S663 S 0.19017 0.97544 0.88322 0.0
N664 N 0.14592 0.97768 0.86947 0.0
N665 N 0.21009 0.92844 0.87851 0.0
C666 C 0.18043 0.91217 0.86531 0.0
C667 C 0.14591 0.93897 0.86033 0.0
C668 C 0.6428 0.13369 0.87684 0.0
C669 C 0.68098 0.13984 0.86591 0.0
C670 C 0.61469 0.10204 0.87066 0.0
C671 C 0.62411 0.07511 0.85355 0.0
H672 H 0.63414 0.15416 0.88996 0.0
H673 H 0.58476 0.09964 0.87885 0.0
S674 S 0.72436 0.07244 0.82316 0.0
N675 N 0.72928 0.11342 0.83915 0.0
N676 N 0.67754 0.05233 0.82828 0.0
C677 C 0.66352 0.07921 0.84349 0.0
C678 C 0.69173 0.11205 0.84949 0.0
C679 C 0.60917 0.89068 0.62234 0.0
C680 C 0.60336 0.92978 0.61217 0.0
C681 C 0.64273 0.86443 0.61682 0.0
C682 C 0.67195 0.87666 0.60114 0.0
H683 H 0.58717 0.88001 0.63445 0.0
H684 H 0.64503 0.83382 0.62439 0.0
S685 S 0.6755 0.97988 0.57325 0.0
N686 N 0.63206 0.9817 0.58769 0.0
N687 N 0.69645 0.93331 0.57803 0.0
C688 C 0.66785 0.9168 0.59181 0.0
C689 C 0.63316 0.94317 0.59713 0.0
C690 C 0.84466 0.88828 0.37113 0.0
C691 C 0.82172 0.86302 0.35674 0.0
C692 C 0.87373 0.91817 0.36398 0.0
C693 C 0.88182 0.92381 0.34207 0.0
H694 H 0.84106 0.8845 0.38824 0.0
H695 H 0.89054 0.93643 0.37583 0.0
S696 S 0.83171 0.86452 0.29756 0.0
N697 N 0.80946 0.84544 0.31942 0.0
N698 N 0.86533 0.90052 0.30585 0.0
C699 C 0.85939 0.89861 0.32738 0.0
C700 C 0.82916 0.86847 0.33473 0.0
C701 C 0.84687 0.11421 0.08448 0.0
C702 C 0.82567 0.13954 0.09952 0.0
C703 C 0.87548 0.08317 0.09088 0.0
C704 C 0.88462 0.07654 0.1126 0.0
H705 H 0.84195 0.11856 0.06749 0.0
H706 H 0.89064 0.0644 0.07867 0.0
S707 S 0.84139 0.13749 0.15837 0.0
N708 N 0.81768 0.15722 0.13713 0.0
N709 N 0.87276 0.10048 0.14917 0.0
C710 C 0.86467 0.10252 0.12783 0.0
C711 C 0.83497 0.13363 0.1213 0.0
C712 C 0.85821 0.37609 0.59021 0.0
C713 C 0.82413 0.36299 0.60299 0.0
C714 C 0.88332 0.41036 0.59605 0.0
C715 C 0.87533 0.43306 0.61488 0.0
H716 H 0.86606 0.35925 0.57569 0.0
H717 H 0.91003 0.41818 0.58604 0.0
S718 S 0.78563 0.41526 0.65205 0.0
N719 N 0.78111 0.37751 0.63412 0.0
N720 N 0.8276 0.44249 0.64496 0.0
C721 C 0.84011 0.42132 0.62729 0.0
C722 C 0.81473 0.3861 0.6214 0.0
C723 C 0.86662 0.59647 0.83652 0.0
C724 C 0.89418 0.57823 0.8516 0.0
C725 C 0.8372 0.62695 0.84241 0.0
C726 C 0.83447 0.64112 0.86359 0.0
H727 H 0.86795 0.5879 0.81984 0.0
H728 H 0.81663 0.63961 0.83019 0.0
S729 S 0.90225 0.60711 0.90895 0.0
N730 N 0.91801 0.57825 0.88855 0.0
N731 N 0.86424 0.63709 0.89951 0.0
C732 C 0.86256 0.6241 0.87881 0.0
C733 C 0.89202 0.59236 0.87285 0.0
C734 C 0.66458 0.6245 0.11219 0.0
C735 C 0.6715 0.62978 0.09016 0.0
C736 C 0.63378 0.59685 0.11981 0.0
C737 C 0.60891 0.57265 0.10578 0.0
H738 H 0.68266 0.64233 0.12373 0.0
H739 H 0.62909 0.59531 0.13693 0.0
S740 S 0.61283 0.57631 0.04645 0.0
N741 N 0.64915 0.61007 0.05421 0.0
N742 N 0.59257 0.5567 0.06868 0.0
C743 C 0.61541 0.57755 0.08367 0.0
C744 C 0.64641 0.60634 0.07584 0.0
C745 C 0.64195 0.38426 0.37621 0.0
C746 C 0.6628 0.35801 0.36144 0.0
C747 C 0.61234 0.41408 0.36956 0.0
C748 C 0.60185 0.41862 0.34787 0.0
H749 H 0.64783 0.38152 0.39319 0.0
H750 H 0.5974 0.4335 0.38157 0.0
S751 S 0.64434 0.3551 0.30284 0.0
N752 N 0.66945 0.33752 0.32415 0.0
N753 N 0.61259 0.39215 0.31166 0.0
C754 C 0.6217 0.39194 0.33292 0.0
C755 C 0.65239 0.36199 0.33969 0.0
C756 C 0.13062 0.59615 0.33706 0.0
C757 C 0.1034 0.57649 0.35189 0.0
C758 C 0.15994 0.62645 0.34342 0.0
C759 C 0.16288 0.63895 0.36487 0.0
H760 H 0.12905 0.58884 0.3202 0.0
H761 H 0.18021 0.64035 0.33138 0.0
S762 S 0.09603 0.60063 0.40982 0.0
N763 N 0.08012 0.5733 0.38891 0.0
N764 N 0.13371 0.6317 0.40083 0.0
C765 C 0.13514 0.62044 0.37986 0.0
C766 C 0.10577 0.58894 0.3734 0.0
C767 C 0.15402 0.38059 0.08585 0.0
C768 C 0.17412 0.35382 0.1007 0.0
C769 C 0.12502 0.41099 0.0924 0.0
C770 C 0.11438 0.41556 0.11406 0.0
H771 H 0.15989 0.37775 0.06889 0.0
H772 H 0.11047 0.43067 0.08033 0.0
S773 S 0.1554 0.35116 0.1593 0.0
N774 N 0.18028 0.33318 0.13805 0.0
N775 N 0.12443 0.38884 0.15036 0.0
C776 C 0.13368 0.38854 0.12911 0.0
C777 C 0.1638 0.35804 0.12244 0.0
C778 C 0.36131 0.40531 0.83452 0.0
C779 C 0.38967 0.42386 0.8491 0.0
C780 C 0.33294 0.37396 0.84092 0.0
C781 C 0.33202 0.35945 0.86213 0.0
H782 H 0.36126 0.41436 0.81785 0.0
H783 H 0.31177 0.36089 0.8291 0.0
S784 S 0.40198 0.39487 0.90632 0.0
N785 N 0.41586 0.42415 0.88563 0.0
N786 N 0.36396 0.36411 0.89754 0.0
C787 C 0.36069 0.37713 0.87686 0.0
C788 C 0.38913 0.40956 0.87039 0.0
C789 C 0.38963 0.6244 0.62018 0.0
C790 C 0.39375 0.58467 0.61054 0.0
C791 C 0.35478 0.64999 0.61602 0.0
C792 C 0.32258 0.63636 0.60237 0.0
H793 H 0.4139 0.63604 0.63079 0.0
H794 H 0.35383 0.68121 0.62291 0.0
S795 S 0.31434 0.53125 0.57701 0.0
N796 N 0.36057 0.53072 0.589 0.0
N797 N 0.294 0.57799 0.58191 0.0
C798 C 0.32513 0.5956 0.59373 0.0
C799 C 0.36104 0.5699 0.59763 0.0
C800 C 0.37591 0.11879 0.1152 0.0
C801 C 0.36124 0.09352 0.13224 0.0
C802 C 0.35181 0.15218 0.107 0.0
C803 C 0.3121 0.16202 0.11558 0.0
H804 H 0.40584 0.11211 0.1077 0.0
H805 H 0.36433 0.17018 0.09369 0.0
S806 S 0.26012 0.10721 0.16116 0.0
N807 N 0.30494 0.08206 0.158 0.0
N808 N 0.25993 0.14445 0.14272 0.0
C809 C 0.29755 0.13772 0.13301 0.0
C810 C 0.32198 0.10365 0.14128 0.0
C811 C 0.13395 0.06948 0.38538 0.0
C812 C 0.14204 0.11157 0.37957 0.0
C813 C 0.10039 0.0469 0.37651 0.0
C814 C 0.07334 0.06512 0.36127 0.0
H815 H 0.15405 0.0534 0.39672 0.0
H816 H 0.0962 0.01448 0.38143 0.0
S817 S 0.07886 0.17514 0.34132 0.0
N818 N 0.11867 0.17123 0.35813 0.0
N819 N 0.05573 0.12862 0.34144 0.0
C820 C 0.0803 0.10748 0.35562 0.0
C821 C 0.11448 0.1307 0.36477 0.0
C822 C 0.17183 0.89136 0.63758 0.0
C823 C 0.13303 0.90238 0.6283 0.0
C824 C 0.19472 0.85639 0.63055 0.0
C825 C 0.18018 0.83069 0.61377 0.0
H826 H 0.18514 0.9102 0.65032 0.0
H827 H 0.22456 0.84999 0.63819 0.0
S828 S 0.07945 0.84411 0.58457 0.0
N829 N 0.08026 0.88338 0.60181 0.0
N830 N 0.1234 0.81777 0.58857 0.0
C831 C 0.14098 0.84062 0.6046 0.0
C832 C 0.11741 0.87629 0.61187 0.0
C833 C 0.40384 0.95229 0.88403 0.0
C834 C 0.42964 0.93776 0.8673 0.0
C835 C 0.36978 0.92846 0.89159 0.0
C836 C 0.36007 0.88874 0.88294 0.0
H837 H 0.40923 0.98293 0.89104 0.0
H838 H 0.35035 0.94188 0.90407 0.0
S839 S 0.42047 0.83438 0.84021 0.0
N840 N 0.44494 0.87978 0.84325 0.0
N841 N 0.38122 0.83478 0.8575 0.0
C842 C 0.38678 0.87297 0.86679 0.0
C843 C 0.42135 0.89752 0.85896 0.0
C844 C 0.34693 0.83804 0.3547 0.0
C845 C 0.31066 0.82372 0.34404 0.0
C846 C 0.3704 0.87228 0.34686 0.0
C847 C 0.35841 0.894 0.32812 0.0
H848 H 0.357 0.82316 0.36944 0.0
H849 H 0.39733 0.88267 0.35602 0.0
S850 S 0.268 0.86721 0.29317 0.0
N851 N 0.26551 0.8326 0.31287 0.0
N852 N 0.3093 0.89687 0.29837 0.0
C853 C 0.32305 0.87915 0.31692 0.0
C854 C 0.29932 0.8441 0.3248 0.0
C855 C 0.37374 0.13406 0.59449 0.0
C856 C 0.34133 0.11574 0.58223 0.0
C857 C 0.40629 0.10958 0.60333 0.0
C858 C 0.40798 0.06575 0.60021 0.0
H859 H 0.37388 0.16758 0.5975 0.0
H860 H 0.43036 0.12523 0.61263 0.0
S861 S 0.33086 0.0018 0.56965 0.0
N862 N 0.31338 0.0504 0.56761 0.0
N863 N 0.37399 0.00499 0.58413 0.0
C864 C 0.37593 0.04704 0.58794 0.0
C865 C 0.34284 0.07182 0.57899 0.0
C866 C 0.17351 0.1125 0.81888 0.0
C867 C 0.1343 0.10185 0.82786 0.0
C868 C 0.19765 0.14591 0.82689 0.0
C869 C 0.18399 0.17014 0.84442 0.0
H870 H 0.18615 0.09449 0.80567 0.0
H871 H 0.22777 0.15216 0.81947 0.0
S872 S 0.08278 0.15685 0.8733 0.0
N873 N 0.08219 0.11962 0.85493 0.0
N874 N 0.12766 0.18213 0.87 0.0
C875 C 0.14441 0.16057 0.85329 0.0
C876 C 0.11957 0.12664 0.84502 0.0
C877 C 0.11887 0.86888 0.09684 0.0
C878 C 0.14158 0.8825 0.07869 0.0
C879 C 0.0843 0.89175 0.10469 0.0
C880 C 0.07074 0.92913 0.09467 0.0
H881 H 0.12854 0.84093 0.10545 0.0
H882 H 0.06853 0.88031 0.11894 0.0
S883 S 0.1171 0.97649 0.04548 0.0
N884 N 0.14614 0.93458 0.05016 0.0
N885 N 0.08164 0.97722 0.06474 0.0
C886 C 0.09234 0.94228 0.07607 0.0
C887 C 0.12754 0.91911 0.06815 0.0
C888 C 0.70058 0.85631 0.82603 0.0
C889 C 0.68344 0.82744 0.8408 0.0
C890 C 0.67749 0.8909 0.81861 0.0
C891 C 0.63603 0.89829 0.82553 0.0
H892 H 0.7327 0.85303 0.82057 0.0
H893 H 0.69294 0.91273 0.80782 0.0
S894 S 0.57459 0.82926 0.86221 0.0
N895 N 0.62107 0.80656 0.86072 0.0
N896 N 0.57754 0.87134 0.84675 0.0
C897 C 0.61767 0.86841 0.83947 0.0
C898 C 0.64136 0.83316 0.84711 0.0
C899 C 0.91042 0.90929 0.6011 0.0
C900 C 0.92024 0.94929 0.59273 0.0
C901 C 0.87635 0.88574 0.59325 0.0
C902 C 0.85033 0.90121 0.57675 0.0
H903 H 0.92893 0.89611 0.61402 0.0
H904 H 0.86981 0.85556 0.60062 0.0
S905 S 0.8636 0.00349 0.54853 0.0
N906 N 0.90183 0.00267 0.56634 0.0
N907 N 0.83812 0.95869 0.5517 0.0
C908 C 0.86045 0.94077 0.56787 0.0
C909 C 0.89522 0.96468 0.57581 0.0
C910 C 0.78911 0.13989 0.33396 0.0
C911 C 0.80642 0.16784 0.349 0.0
C912 C 0.8127 0.107 0.32523 0.0
C913 C 0.85498 0.10044 0.33097 0.0
H914 H 0.7567 0.14301 0.32896 0.0
H915 H 0.7973 0.08642 0.31387 0.0
S916 S 0.91617 0.16586 0.36911 0.0
N917 N 0.86908 0.18755 0.36889 0.0
N918 N 0.91361 0.12575 0.35241 0.0
C919 C 0.87311 0.12862 0.34575 0.0
C920 C 0.84882 0.16217 0.35479 0.0
C921 C 0.63936 0.07347 0.07449 0.0
C922 C 0.64816 0.11398 0.0824 0.0
C923 C 0.60583 0.04943 0.08243 0.0
C924 C 0.57947 0.06449 0.09881 0.0
H925 H 0.65883 0.05977 0.06211 0.0
H926 H 0.60108 0.01835 0.0758 0.0
S927 S 0.5875 0.16924 0.12467 0.0
N928 N 0.62655 0.1687 0.10726 0.0
N929 N 0.5636 0.12337 0.12223 0.0
C930 C 0.58722 0.10529 0.10665 0.0
C931 C 0.6214 0.13003 0.09843 0.0
C932 C 0.69579 0.14285 0.63218 0.0
C933 C 0.68098 0.17065 0.6163 0.0
C934 C 0.67087 0.10976 0.63998 0.0
C935 C 0.62975 0.10295 0.63242 0.0
H936 H 0.72735 0.14603 0.63843 0.0
H937 H 0.68441 0.08895 0.65187 0.0
S938 S 0.57475 0.16857 0.59183 0.0
N939 N 0.62164 0.19038 0.59397 0.0
N940 N 0.57468 0.12841 0.60863 0.0
C941 C 0.61398 0.13135 0.61698 0.0
C942 C 0.63958 0.16501 0.60892 0.0
C943 C 0.59827 0.94902 0.38173 0.0
C944 C 0.57196 0.93384 0.36535 0.0
C945 C 0.63292 0.92588 0.389 0.0
C946 C 0.64281 0.88622 0.38039 0.0
H947 H 0.59269 0.97957 0.38878 0.0
H948 H 0.65247 0.93966 0.40133 0.0
S949 S 0.5823 0.83072 0.33808 0.0
N950 N 0.55708 0.87555 0.34136 0.0
N951 N 0.62197 0.83191 0.35508 0.0
C952 C 0.61594 0.86994 0.36445 0.0
C953 C 0.58072 0.89376 0.35691 0.0
C954 C 0.84856 0.83055 0.10008 0.0
C955 C 0.806 0.8232 0.10508 0.0
C956 C 0.87099 0.86415 0.10929 0.0
C957 C 0.8518 0.89198 0.12386 0.0
H958 H 0.86479 0.81022 0.08893 0.0
H959 H 0.90352 0.86856 0.10472 0.0
S960 S 0.74078 0.8864 0.14241 0.0
N961 N 0.7456 0.84668 0.1257 0.0
N962 N 0.7873 0.90921 0.14295 0.0
C963 C 0.80926 0.88466 0.12911 0.0
C964 C 0.78653 0.85052 0.11976 0.0
C965 C 0.91172 0.1012 0.85615 0.0
C966 C 0.92574 0.06402 0.86617 0.0
C967 C 0.87836 0.12479 0.86467 0.0
C968 C 0.85729 0.11195 0.88344 0.0
H969 H 0.92629 0.11201 0.84145 0.0
H970 H 0.86819 0.15261 0.85609 0.0
S971 S 0.88335 0.01873 0.91677 0.0
N972 N 0.91702 0.01689 0.8967 0.0
N973 N 0.85445 0.06091 0.91245 0.0
C974 C 0.87166 0.0755 0.89393 0.0
C975 C 0.9058 0.05168 0.88538 0.0
C976 C 0.80732 0.67045 0.63614 0.0
C977 C 0.81946 0.69122 0.61716 0.0
C978 C 0.83014 0.63629 0.64427 0.0
C979 C 0.86649 0.62134 0.63394 0.0
H980 H 0.77924 0.6799 0.64463 0.0
H981 H 0.81854 0.62095 0.65863 0.0
S982 S 0.91385 0.66672 0.58456 0.0
N983 N 0.87178 0.69579 0.58885 0.0
N984 N 0.91486 0.63176 0.60415 0.0
C985 C 0.88005 0.64287 0.61537 0.0
C986 C 0.85649 0.67761 0.60698 0.0
C987 C 0.62548 0.62429 0.86404 0.0
C988 C 0.65756 0.60508 0.87617 0.0
C989 C 0.59178 0.60082 0.85565 0.0
C990 C 0.58855 0.55712 0.85907 0.0
H991 H 0.62641 0.65777 0.86085 0.0
H992 H 0.56802 0.61718 0.84646 0.0
S993 S 0.66427 0.49103 0.88938 0.0
N994 N 0.68364 0.53904 0.89094 0.0
N995 N 0.62078 0.49546 0.87525 0.0
C996 C 0.6203 0.53749 0.87117 0.0
C997 C 0.65459 0.56127 0.87968 0.0
C998 C 0.61933 0.37395 0.11617 0.0
C999 C 0.63228 0.39782 0.13398 0.0
C1000 C 0.64317 0.3398 0.10874 0.0
C1001 C 0.68079 0.32775 0.11889 0.0
H1002 H 0.59134 0.38262 0.10737 0.0
H1003 H 0.63232 0.32324 0.09464 0.0
S1004 S 0.72633 0.37729 0.16752 0.0
N1005 N 0.68373 0.40506 0.16249 0.0
N1006 N 0.72822 0.34098 0.14873 0.0
C1007 C 0.69309 0.35022 0.13731 0.0
C1008 C 0.66897 0.38517 0.14477 0.0
C1009 C 0.8519 0.42485 0.38847 0.0
C1010 C 0.84346 0.3839 0.38105 0.0
C1011 C 0.88583 0.44842 0.38057 0.0
C1012 C 0.91287 0.43237 0.36474 0.0
H1013 H 0.83178 0.43932 0.40033 0.0
H1014 H 0.89031 0.47992 0.38672 0.0
S1015 S 0.90673 0.32582 0.34075 0.0
N1016 N 0.86667 0.3275 0.35753 0.0
N1017 N 0.93024 0.37198 0.34266 0.0
C1018 C 0.9056 0.3911 0.3575 0.0
C1019 C 0.87108 0.36685 0.36566 0.0
C1020 C 0.88503 0.3741 0.85123 0.0
C1021 C 0.8734 0.39423 0.83199 0.0
C1022 C 0.86157 0.34021 0.85958 0.0
C1023 C 0.82569 0.32479 0.84895 0.0
H1024 H 0.91161 0.38552 0.86035 0.0
H1025 H 0.87128 0.32654 0.87469 0.0
S1026 S 0.78441 0.36384 0.79684 0.0
N1027 N 0.82527 0.39425 0.8018 0.0
N1028 N 0.78155 0.33085 0.81722 0.0
C1029 C 0.8148 0.34361 0.82922 0.0
C1030 C 0.83851 0.37818 0.82083 0.0
C1031 C 0.90406 0.54508 0.07699 0.0
C1032 C 0.92649 0.56011 0.09483 0.0
C1033 C 0.87015 0.56743 0.06837 0.0
C1034 C 0.85714 0.60612 0.07703 0.0
H1035 H 0.91216 0.51527 0.06976 0.0
H1036 H 0.85371 0.55383 0.05486 0.0
S1037 S 0.90677 0.6608 0.12307 0.0
N1038 N 0.9343 0.61719 0.12039 0.0
N1039 N 0.87066 0.65937 0.10412 0.0
C1040 C 0.88004 0.62227 0.09451 0.0
C1041 C 0.91455 0.59923 0.10343 0.0
C1042 C 0.66596 0.61464 0.32267 0.0
C1043 C 0.62742 0.6033 0.33218 0.0
C1044 C 0.68982 0.64854 0.33027 0.0
C1045 C 0.67658 0.6727 0.34789 0.0
H1046 H 0.67825 0.59691 0.30927 0.0
H1047 H 0.71937 0.65534 0.32238 0.0
S1048 S 0.5772 0.65767 0.37815 0.0
N1049 N 0.57638 0.62021 0.3599 0.0
N1050 N 0.62141 0.68381 0.37422 0.0
C1051 C 0.63773 0.66237 0.35737 0.0
C1052 C 0.61313 0.62785 0.34951 0.0
C1053 C 0.64906 0.42944 0.57293 0.0
C1054 C 0.65392 0.3876 0.57999 0.0
C1055 C 0.616 0.45473 0.58023 0.0
C1056 C 0.58626 0.43958 0.59508 0.0
H1057 H 0.67146 0.4433 0.5619 0.0
H1058 H 0.61443 0.48685 0.57449 0.0
S1059 S 0.58227 0.33134 0.61748 0.0
N1060 N 0.62418 0.3314 0.6019 0.0
N1061 N 0.56228 0.37907 0.61565 0.0
C1062 C 0.5898 0.39744 0.60183 0.0
C1063 C 0.62344 0.37147 0.59428 0.0
C1064 C 0.1668 0.38358 0.3248 0.0
C1065 C 0.12693 0.39377 0.33306 0.0
C1066 C 0.19011 0.34975 0.33289 0.0
C1067 C 0.1749 0.32454 0.34979 0.0
H1068 H 0.18067 0.40233 0.3121 0.0
H1069 H 0.22082 0.34397 0.32607 0.0
S1070 S 0.0711 0.33555 0.3763 0.0
N1071 N 0.07227 0.37408 0.35853 0.0
N1072 N 0.11628 0.31064 0.37378 0.0
C1073 C 0.1346 0.33345 0.35787 0.0
C1074 C 0.11058 0.36788 0.34949 0.0
C1075 C 0.3657 0.41329 0.07049 0.0
C1076 C 0.3535 0.37562 0.08066 0.0
C1077 C 0.39899 0.43777 0.07827 0.0
C1078 C 0.42154 0.42605 0.09674 0.0
H1079 H 0.34898 0.42447 0.05649 0.0
H1080 H 0.40646 0.46668 0.06988 0.0
S1081 S 0.40384 0.32924 0.12893 0.0
N1082 N 0.36799 0.32688 0.10987 0.0
N1083 N 0.43039 0.37309 0.12455 0.0
C1084 C 0.41046 0.38795 0.10685 0.0
C1085 C 0.37664 0.36269 0.09878 0.0
C1086 C 0.30658 0.65398 0.82788 0.0
C1087 C 0.32074 0.67805 0.84535 0.0
C1088 C 0.32969 0.61975 0.82013 0.0
C1089 C 0.36834 0.60804 0.82933 0.0
H1090 H 0.27683 0.66102 0.82029 0.0
H1091 H 0.31666 0.60195 0.80693 0.0
S1092 S 0.42105 0.66249 0.87459 0.0
N1093 N 0.37705 0.68897 0.87104 0.0
N1094 N 0.42066 0.62482 0.85645 0.0
C1095 C 0.38364 0.63268 0.84641 0.0
C1096 C 0.35981 0.66749 0.85443 0.0
C1097 C 0.08372 0.60509 0.60453 0.0
C1098 C 0.07095 0.56699 0.59507 0.0
C1099 C 0.11813 0.62808 0.59654 0.0
C1100 C 0.14163 0.61382 0.57884 0.0
H1101 H 0.06723 0.61721 0.61837 0.0
H1102 H 0.12704 0.6567 0.60474 0.0
S1103 S 0.12015 0.51692 0.54755 0.0
N1104 N 0.08381 0.5169 0.5664 0.0
N1105 N 0.1483 0.5598 0.55155 0.0
C1106 C 0.12859 0.57625 0.56892 0.0
C1107 C 0.09339 0.55298 0.57697 0.0
C1108 C 0.12354 0.62154 0.11327 0.0
C1109 C 0.13512 0.6013 0.13249 0.0
C1110 C 0.14633 0.65617 0.10529 0.0
C1111 C 0.18144 0.67235 0.11628 0.0
H1112 H 0.09743 0.60976 0.10391 0.0
H1113 H 0.13662 0.66996 0.09021 0.0
S1114 S 0.22252 0.63302 0.16837 0.0
N1115 N 0.18256 0.6017 0.16297 0.0
N1116 N 0.22503 0.6666 0.14821 0.0
C1117 C 0.19237 0.6533 0.13594 0.0
C1118 C 0.16937 0.61789 0.14396 0.0
C1119 C 0.12993 0.37204 0.8637 0.0
C1120 C 0.15079 0.38194 0.88295 0.0
C1121 C 0.09585 0.39615 0.85632 0.0
C1122 C 0.08078 0.43085 0.868 0.0
H1123 H 0.14082 0.34625 0.85387 0.0
H1124 H 0.08146 0.38766 0.84122 0.0
S1125 S 0.12244 0.46805 0.92027 0.0
N1126 N 0.15245 0.42764 0.91407 0.0
N1127 N 0.08848 0.47251 0.90044 0.0
C1128 C 0.10053 0.44019 0.88764 0.0
C1129 C 0.13544 0.4159 0.89503 0.0
C1130 C 0.30428 0.37146 0.62814 0.0
C1131 C 0.32094 0.34198 0.61365 0.0
C1132 C 0.32853 0.40486 0.63602 0.0
C1133 C 0.37077 0.41044 0.62988 0.0
H1134 H 0.27179 0.3694 0.63318 0.0
H1135 H 0.31355 0.427 0.64672 0.0
S1136 S 0.43075 0.34004 0.59356 0.0
N1137 N 0.38325 0.31921 0.59438 0.0
N1138 N 0.42894 0.38178 0.60919 0.0
C1139 C 0.38838 0.38029 0.61595 0.0
C1140 C 0.3635 0.34624 0.60785 0.0
C1141 C 0.40273 0.60245 0.35713 0.0
C1142 C 0.41401 0.56365 0.36642 0.0
C1143 C 0.36913 0.6264 0.3652 0.0
C1144 C 0.3451 0.61248 0.38284 0.0
H1145 H 0.41969 0.61434 0.34334 0.0
H1146 H 0.36131 0.65556 0.35714 0.0
S1147 S 0.36294 0.51408 0.41379 0.0
N1148 N 0.39918 0.51331 0.39491 0.0
N1149 N 0.33648 0.55798 0.40995 0.0
C1150 C 0.35673 0.5742 0.3926 0.0
C1151 C 0.39098 0.54994 0.38445 0.0
loop_
_geom_bond_atom_site_label_1
_geom_bond_atom_site_label_2
_geom_bond_distance
_geom_bond_site_symmetry_2
_ccdc_geom_bond_type
Mg0 O1 2.028 . S
Mg0 O7 1.986 . S
Mg0 O9 2.114 1_545 S
Mg0 O10 2.251 1_545 S
Mg0 O13 2.010 . S
O1 Mg0 2.028 . S
O1 C4 1.250 . S
O2 Mg3 2.028 . S
O2 C4 1.248 . S
Mg3 O2 2.028 . S
Mg3 O8 2.032 . S
Mg3 O10 2.079 1_545 S
C4 O1 1.250 . S
C4 O2 1.248 . S
C5 O6 1.264 . S
C5 O13 1.249 . S
O6 C5 1.264 . S
O7 Mg0 1.986 . S
O7 C11 1.246 . S
O8 Mg3 2.032 . S
O8 C11 1.259 . S
O9 Mg0 2.114 1_565 S
O9 C12 1.252 . S
O10 Mg0 2.251 1_565 S
O10 Mg3 2.079 1_565 S
O10 C12 1.273 . S
C11 O7 1.246 . S
C11 O8 1.259 . S
C12 O9 1.252 . S
C12 O10 1.273 . S
O13 Mg0 2.010 . S
O13 C5 1.249 . S
Mg14 O15 2.028 . S
Mg14 O21 1.986 . S
Mg14 O23 2.114 . S
Mg14 O24 2.251 . S
Mg14 O27 2.010 . S
O15 Mg14 2.028 . S
O15 C18 1.250 . S
O16 Mg17 2.028 . S
O16 C18 1.248 . S
Mg17 O16 2.028 . S
Mg17 O22 2.032 . S
Mg17 O24 2.079 . S
C18 O15 1.250 . S
C18 O16 1.248 . S
C19 O20 1.264 . S
C19 O27 1.249 . S
O20 C19 1.264 . S
O21 Mg14 1.986 . S
O21 C25 1.246 . S
O22 Mg17 2.032 . S
O22 C25 1.259 . S
O23 Mg14 2.114 . S
O23 C26 1.252 . S
O24 Mg14 2.251 . S
O24 Mg17 2.079 . S
O24 C26 1.273 . S
C25 O21 1.246 . S
C25 O22 1.259 . S
C26 O23 1.252 . S
C26 O24 1.273 . S
O27 Mg14 2.010 . S
O27 C19 1.249 . S
Mg28 O29 2.028 . S
Mg28 O35 1.986 . S
Mg28 O37 2.114 1_565 S
Mg28 O38 2.251 1_565 S
Mg28 O41 2.010 1_455 S
O29 Mg28 2.028 . S
O29 C32 1.250 . S
O30 Mg31 2.028 . S
O30 C32 1.248 . S
Mg31 O30 2.028 . S
Mg31 O36 2.032 . S
Mg31 O38 2.079 1_565 S
C32 O29 1.250 . S
C32 O30 1.248 . S
C33 O34 1.264 . S
C33 O41 1.249 . S
O34 C33 1.264 . S
O35 Mg28 1.986 . S
O35 C39 1.246 . S
O36 Mg31 2.032 . S
O36 C39 1.259 . S
O37 Mg28 2.114 1_545 S
O37 C40 1.252 . S
O38 Mg28 2.251 1_545 S
O38 Mg31 2.079 1_545 S
O38 C40 1.273 . S
C39 O35 1.246 . S
C39 O36 1.259 . S
C40 O37 1.252 . S
C40 O38 1.273 . S
O41 Mg28 2.010 1_655 S
O41 C33 1.249 . S
Mg42 O43 2.028 . S
Mg42 O49 1.986 . S
Mg42 O51 2.114 . S
Mg42 O52 2.251 . S
Mg42 O55 2.010 . S
O43 Mg42 2.028 . S
O43 C46 1.250 . S
O44 Mg45 2.028 . S
O44 C46 1.248 . S
Mg45 O44 2.028 . S
Mg45 O50 2.032 . S
Mg45 O52 2.079 . S
C46 O43 1.250 . S
C46 O44 1.248 . S
C47 O48 1.264 . S
C47 O55 1.249 . S
O48 C47 1.264 . S
O49 Mg42 1.986 . S
O49 C53 1.246 . S
O50 Mg45 2.032 . S
O50 C53 1.259 . S
O51 Mg42 2.114 . S
O51 C54 1.252 . S
O52 Mg42 2.251 . S
O52 Mg45 2.079 . S
O52 C54 1.273 . S
C53 O49 1.246 . S
C53 O50 1.259 . S
C54 O51 1.252 . S
C54 O52 1.273 . S
O55 Mg42 2.010 . S
O55 C47 1.249 . S
Mg56 O57 2.028 . S
Mg56 O63 1.986 . S
Mg56 O65 2.114 1_565 S
Mg56 O66 2.251 1_565 S
Mg56 O69 2.010 . S
O57 Mg56 2.028 . S
O57 C60 1.250 . S
O58 Mg59 2.028 . S
O58 C60 1.248 . S
Mg59 O58 2.028 . S
Mg59 O64 2.032 . S
Mg59 O66 2.079 1_565 S
C60 O57 1.250 . S
C60 O58 1.248 . S
C61 O62 1.264 . S
C61 O69 1.249 . S
O62 C61 1.264 . S
O63 Mg56 1.986 . S
O63 C67 1.246 . S
O64 Mg59 2.032 . S
O64 C67 1.259 . S
O65 Mg56 2.114 1_545 S
O65 C68 1.252 . S
O66 Mg56 2.251 1_545 S
O66 Mg59 2.079 1_545 S
O66 C68 1.273 . S
C67 O63 1.246 . S
C67 O64 1.259 . S
C68 O65 1.252 . S
C68 O66 1.273 . S
O69 Mg56 2.010 . S
O69 C61 1.249 . S
Mg70 O71 2.028 . S
Mg70 O77 1.986 . S
Mg70 O79 2.114 . S
Mg70 O80 2.251 . S
Mg70 O83 2.010 . S
O71 Mg70 2.028 . S
O71 C74 1.250 . S
O72 Mg73 2.028 . S
O72 C74 1.248 . S
Mg73 O72 2.028 . S
Mg73 O78 2.032 . S
Mg73 O80 2.079 . S
C74 O71 1.250 . S
C74 O72 1.248 . S
C75 O76 1.264 . S
C75 O83 1.249 . S
O76 C75 1.264 . S
O77 Mg70 1.986 . S
O77 C81 1.246 . S
O78 Mg73 2.032 . S
O78 C81 1.259 . S
O79 Mg70 2.114 . S
O79 C82 1.252 . S
O80 Mg70 2.251 . S
O80 Mg73 2.079 . S
O80 C82 1.273 . S
C81 O77 1.246 . S
C81 O78 1.259 . S
C82 O79 1.252 . S
C82 O80 1.273 . S
O83 Mg70 2.010 . S
O83 C75 1.249 . S
Mg84 O85 2.028 . S
Mg84 O91 1.986 . S
Mg84 O93 2.114 1_545 S
Mg84 O94 2.251 1_545 S
Mg84 O97 2.010 1_455 S
O85 Mg84 2.028 . S
O85 C88 1.250 . S
O86 Mg87 2.028 . S
O86 C88 1.248 . S
Mg87 O86 2.028 . S
Mg87 O92 2.032 . S
Mg87 O94 2.079 1_545 S
C88 O85 1.250 . S
C88 O86 1.248 . S
C89 O90 1.264 . S
C89 O97 1.249 . S
O90 C89 1.264 . S
O91 Mg84 1.986 . S
O91 C95 1.246 . S
O92 Mg87 2.032 . S
O92 C95 1.259 . S
O93 Mg84 2.114 1_565 S
O93 C96 1.252 . S
O94 Mg84 2.251 1_565 S
O94 Mg87 2.079 1_565 S
O94 C96 1.273 . S
C95 O91 1.246 . S
C95 O92 1.259 . S
C96 O93 1.252 . S
C96 O94 1.273 . S
O97 Mg84 2.010 1_655 S
O97 C89 1.249 . S
Mg98 O99 2.028 . S
Mg98 O105 1.986 . S
Mg98 O107 2.114 . S
Mg98 O108 2.251 . S
Mg98 O111 2.010 . S
O99 Mg98 2.028 . S
O99 C102 1.250 . S
O100 Mg101 2.028 . S
O100 C102 1.248 . S
Mg101 O100 2.028 . S
Mg101 O106 2.032 . S
Mg101 O108 2.079 . S
C102 O99 1.250 . S
C102 O100 1.248 . S
C103 O104 1.264 . S
C103 O111 1.249 . S
O104 C103 1.264 . S
O105 Mg98 1.986 . S
O105 C109 1.246 . S
O106 Mg101 2.032 . S
O106 C109 1.259 . S
O107 Mg98 2.114 . S
O107 C110 1.252 . S
O108 Mg98 2.251 . S
O108 Mg101 2.079 . S
O108 C110 1.273 . S
C109 O105 1.246 . S
C109 O106 1.259 . S
C110 O107 1.252 . S
C110 O108 1.273 . S
O111 Mg98 2.010 . S
O111 C103 1.249 . S
Mg112 O113 2.028 . S
Mg112 O119 1.986 . S
Mg112 O121 2.114 1_565 S
Mg112 O122 2.251 1_565 S
Mg112 O125 2.010 . S
O113 Mg112 2.028 . S
O113 C116 1.250 . S
O114 Mg115 2.028 . S
O114 C116 1.248 . S
Mg115 O114 2.028 . S
Mg115 O120 2.032 . S
Mg115 O122 2.079 1_565 S
C116 O113 1.250 . S
C116 O114 1.248 . S
C117 O118 1.264 . S
C117 O125 1.249 . S
O118 C117 1.264 . S
O119 Mg112 1.986 . S
O119 C123 1.246 . S
O120 Mg115 2.032 . S
O120 C123 1.259 . S
O121 Mg112 2.114 1_545 S
O121 C124 1.252 . S
O122 Mg112 2.251 1_545 S
O122 Mg115 2.079 1_545 S
O122 C124 1.273 . S
C123 O119 1.246 . S
C123 O120 1.259 . S
C124 O121 1.252 . S
C124 O122 1.273 . S
O125 Mg112 2.010 . S
O125 C117 1.249 . S
Mg126 O127 2.028 . S
Mg126 O133 1.986 . S
Mg126 O135 2.114 . S
Mg126 O136 2.251 . S
Mg126 O139 2.010 . S
O127 Mg126 2.028 . S
O127 C130 1.250 . S
O128 Mg129 2.028 . S
O128 C130 1.248 . S
Mg129 O128 2.028 . S
Mg129 O134 2.032 . S
Mg129 O136 2.079 . S
C130 O127 1.250 . S
C130 O128 1.248 . S
C131 O132 1.264 . S
C131 O139 1.249 . S
O132 C131 1.264 . S
O133 Mg126 1.986 . S
O133 C137 1.246 . S
O134 Mg129 2.032 . S
O134 C137 1.259 . S
O135 Mg126 2.114 . S
O135 C138 1.252 . S
O136 Mg126 2.251 . S
O136 Mg129 2.079 . S
O136 C138 1.273 . S
C137 O133 1.246 . S
C137 O134 1.259 . S
C138 O135 1.252 . S
C138 O136 1.273 . S
O139 Mg126 2.010 . S
O139 C131 1.249 . S
Mg140 O141 2.028 . S
Mg140 O147 1.986 . S
Mg140 O149 2.114 1_545 S
Mg140 O150 2.251 1_545 S
Mg140 O153 2.010 1_655 S
O141 Mg140 2.028 . S
O141 C144 1.250 . S
O142 Mg143 2.028 . S
O142 C144 1.248 . S
Mg143 O142 2.028 . S
Mg143 O148 2.032 . S
Mg143 O150 2.079 1_545 S
C144 O141 1.250 . S
C144 O142 1.248 . S
C145 O146 1.264 . S
C145 O153 1.249 . S
O146 C145 1.264 . S
O147 Mg140 1.986 . S
O147 C151 1.246 . S
O148 Mg143 2.032 . S
O148 C151 1.259 . S
O149 Mg140 2.114 1_565 S
O149 C152 1.252 . S
O150 Mg140 2.251 1_565 S
O150 Mg143 2.079 1_565 S
O150 C152 1.273 . S
C151 O147 1.246 . S
C151 O148 1.259 . S
C152 O149 1.252 . S
C152 O150 1.273 . S
O153 Mg140 2.010 1_455 S
O153 C145 1.249 . S
Mg154 O155 2.028 . S
Mg154 O161 1.986 . S
Mg154 O163 2.114 . S
Mg154 O164 2.251 . S
Mg154 O167 2.010 . S
O155 Mg154 2.028 . S
O155 C158 1.250 . S
O156 Mg157 2.028 . S
O156 C158 1.248 . S
Mg157 O156 2.028 . S
Mg157 O162 2.032 . S
Mg157 O164 2.079 . S
C158 O155 1.250 . S
C158 O156 1.248 . S
C159 O160 1.264 . S
C159 O167 1.249 . S
O160 C159 1.264 . S
O161 Mg154 1.986 . S
O161 C165 1.246 . S
O162 Mg157 2.032 . S
O162 C165 1.259 . S
O163 Mg154 2.114 . S
O163 C166 1.252 . S
O164 Mg154 2.251 . S
O164 Mg157 2.079 . S
O164 C166 1.273 . S
C165 O161 1.246 . S
C165 O162 1.259 . S
C166 O163 1.252 . S
C166 O164 1.273 . S
O167 Mg154 2.010 . S
O167 C159 1.249 . S
Mg168 O169 2.028 . S
Mg168 O175 1.986 . S
Mg168 O177 2.114 1_545 S
Mg168 O178 2.251 1_545 S
Mg168 O181 2.010 . S
O169 Mg168 2.028 . S
O169 C172 1.250 . S
O170 Mg171 2.028 . S
O170 C172 1.248 . S
Mg171 O170 2.028 . S
Mg171 O176 2.032 . S
Mg171 O178 2.079 1_545 S
C172 O169 1.250 . S
C172 O170 1.248 . S
C173 O174 1.264 . S
C173 O181 1.249 . S
O174 C173 1.264 . S
O175 Mg168 1.986 . S
O175 C179 1.246 . S
O176 Mg171 2.032 . S
O176 C179 1.259 . S
O177 Mg168 2.114 1_565 S
O177 C180 1.252 . S
O178 Mg168 2.251 1_565 S
O178 Mg171 2.079 1_565 S
O178 C180 1.273 . S
C179 O175 1.246 . S
C179 O176 1.259 . S
C180 O177 1.252 . S
C180 O178 1.273 . S
O181 Mg168 2.010 . S
O181 C173 1.249 . S
Mg182 O183 2.028 . S
Mg182 O189 1.986 . S
Mg182 O191 2.114 . S
Mg182 O192 2.251 . S
Mg182 O195 2.010 . S
O183 Mg182 2.028 . S
O183 C186 1.250 . S
O184 Mg185 2.028 . S
O184 C186 1.248 . S
Mg185 O184 2.028 . S
Mg185 O190 2.032 . S
Mg185 O192 2.079 . S
C186 O183 1.250 . S
C186 O184 1.248 . S
C187 O188 1.264 . S
C187 O195 1.249 . S
O188 C187 1.264 . S
O189 Mg182 1.986 . S
O189 C193 1.246 . S
O190 Mg185 2.032 . S
O190 C193 1.259 . S
O191 Mg182 2.114 . S
O191 C194 1.252 . S
O192 Mg182 2.251 . S
O192 Mg185 2.079 . S
O192 C194 1.273 . S
C193 O189 1.246 . S
C193 O190 1.259 . S
C194 O191 1.252 . S
C194 O192 1.273 . S
O195 Mg182 2.010 . S
O195 C187 1.249 . S
Mg196 O197 2.028 . S
Mg196 O203 1.986 . S
Mg196 O205 2.114 1_565 S
Mg196 O206 2.251 1_565 S
Mg196 O209 2.010 1_655 S
O197 Mg196 2.028 . S
O197 C200 1.250 . S
O198 Mg199 2.028 . S
O198 C200 1.248 . S
Mg199 O198 2.028 . S
Mg199 O204 2.032 . S
Mg199 O206 2.079 1_565 S
C200 O197 1.250 . S
C200 O198 1.248 . S
C201 O202 1.264 . S
C201 O209 1.249 . S
O202 C201 1.264 . S
O203 Mg196 1.986 . S
O203 C207 1.246 . S
O204 Mg199 2.032 . S
O204 C207 1.259 . S
O205 Mg196 2.114 1_545 S
O205 C208 1.252 . S
O206 Mg196 2.251 1_545 S
O206 Mg199 2.079 1_545 S
O206 C208 1.273 . S
C207 O203 1.246 . S
C207 O204 1.259 . S
C208 O205 1.252 . S
C208 O206 1.273 . S
O209 Mg196 2.010 1_455 S
O209 C201 1.249 . S
Mg210 O211 2.028 . S
Mg210 O217 1.986 . S
Mg210 O219 2.114 . S
Mg210 O220 2.251 . S
Mg210 O223 2.010 . S
O211 Mg210 2.028 . S
O211 C214 1.250 . S
O212 Mg213 2.028 . S
O212 C214 1.248 . S
Mg213 O212 2.028 . S
Mg213 O218 2.032 . S
Mg213 O220 2.079 . S
C214 O211 1.250 . S
C214 O212 1.248 . S
C215 O216 1.264 . S
C215 O223 1.249 . S
O216 C215 1.264 . S
O217 Mg210 1.986 . S
O217 C221 1.246 . S
O218 Mg213 2.032 . S
O218 C221 1.259 . S
O219 Mg210 2.114 . S
O219 C222 1.252 . S
O220 Mg210 2.251 . S
O220 Mg213 2.079 . S
O220 C222 1.273 . S
C221 O217 1.246 . S
C221 O218 1.259 . S
C222 O219 1.252 . S
C222 O220 1.273 . S
O223 Mg210 2.010 . S
O223 C215 1.249 . S
Mg224 O225 2.028 . S
Mg224 O231 1.986 . S
Mg224 O233 2.114 . S
Mg224 O234 2.251 . S
Mg224 O237 2.010 1_655 S
O225 Mg224 2.028 . S
O225 C228 1.250 . S
O226 Mg227 2.028 . S
O226 C228 1.248 . S
Mg227 O226 2.028 . S
Mg227 O232 2.032 . S
Mg227 O234 2.079 . S
C228 O225 1.250 . S
C228 O226 1.248 . S
C229 O230 1.264 . S
C229 O237 1.249 . S
O230 C229 1.264 . S
O231 Mg224 1.986 . S
O231 C235 1.246 . S
O232 Mg227 2.032 . S
O232 C235 1.259 . S
O233 Mg224 2.114 . S
O233 C236 1.252 . S
O234 Mg224 2.251 . S
O234 Mg227 2.079 . S
O234 C236 1.273 . S
C235 O231 1.246 . S
C235 O232 1.259 . S
C236 O233 1.252 . S
C236 O234 1.273 . S
O237 Mg224 2.010 1_455 S
O237 C229 1.249 . S
Mg238 O239 2.028 . S
Mg238 O245 1.986 . S
Mg238 O247 2.114 . S
Mg238 O248 2.251 . S
Mg238 O251 2.010 . S
O239 Mg238 2.028 . S
O239 C242 1.250 . S
O240 Mg241 2.028 . S
O240 C242 1.248 . S
Mg241 O240 2.028 . S
Mg241 O246 2.032 . S
Mg241 O248 2.079 . S
C242 O239 1.250 . S
C242 O240 1.248 . S
C243 O244 1.264 . S
C243 O251 1.249 . S
O244 C243 1.264 . S
O245 Mg238 1.986 . S
O245 C249 1.246 . S
O246 Mg241 2.032 . S
O246 C249 1.259 . S
O247 Mg238 2.114 . S
O247 C250 1.252 . S
O248 Mg238 2.251 . S
O248 Mg241 2.079 . S
O248 C250 1.273 . S
C249 O245 1.246 . S
C249 O246 1.259 . S
C250 O247 1.252 . S
C250 O248 1.273 . S
O251 Mg238 2.010 . S
O251 C243 1.249 . S
Mg252 O253 2.028 . S
Mg252 O259 1.986 . S
Mg252 O261 2.114 . S
Mg252 O262 2.251 . S
Mg252 O265 2.010 . S
O253 Mg252 2.028 . S
O253 C256 1.250 . S
O254 Mg255 2.028 . S
O254 C256 1.248 . S
Mg255 O254 2.028 . S
Mg255 O260 2.032 . S
Mg255 O262 2.079 . S
C256 O253 1.250 . S
C256 O254 1.248 . S
C257 O258 1.264 . S
C257 O265 1.249 . S
O258 C257 1.264 . S
O259 Mg252 1.986 . S
O259 C263 1.246 . S
O260 Mg255 2.032 . S
O260 C263 1.259 . S
O261 Mg252 2.114 . S
O261 C264 1.252 . S
O262 Mg252 2.251 . S
O262 Mg255 2.079 . S
O262 C264 1.273 . S
C263 O259 1.246 . S
C263 O260 1.259 . S
C264 O261 1.252 . S
C264 O262 1.273 . S
O265 Mg252 2.010 . S
O265 C257 1.249 . S
Mg266 O267 2.028 . S
Mg266 O273 1.986 . S
Mg266 O275 2.114 . S
Mg266 O276 2.251 . S
Mg266 O279 2.010 . S
O267 Mg266 2.028 . S
O267 C270 1.250 . S
O268 Mg269 2.028 . S
O268 C270 1.248 . S
Mg269 O268 2.028 . S
Mg269 O274 2.032 . S
Mg269 O276 2.079 . S
C270 O267 1.250 . S
C270 O268 1.248 . S
C271 O272 1.264 . S
C271 O279 1.249 . S
O272 C271 1.264 . S
O273 Mg266 1.986 . S
O273 C277 1.246 . S
O274 Mg269 2.032 . S
O274 C277 1.259 . S
O275 Mg266 2.114 . S
O275 C278 1.252 . S
O276 Mg266 2.251 . S
O276 Mg269 2.079 . S
O276 C278 1.273 . S
C277 O273 1.246 . S
C277 O274 1.259 . S
C278 O275 1.252 . S
C278 O276 1.273 . S
O279 Mg266 2.010 . S
O279 C271 1.249 . S
Mg280 O281 2.028 . S
Mg280 O287 1.986 . S
Mg280 O289 2.114 . S
Mg280 O290 2.251 . S
Mg280 O293 2.010 1_655 S
O281 Mg280 2.028 . S
O281 C284 1.250 . S
O282 Mg283 2.028 . S
O282 C284 1.248 . S
Mg283 O282 2.028 . S
Mg283 O288 2.032 . S
Mg283 O290 2.079 . S
C284 O281 1.250 . S
C284 O282 1.248 . S
C285 O286 1.264 . S
C285 O293 1.249 . S
O286 C285 1.264 . S
O287 Mg280 1.986 . S
O287 C291 1.246 . S
O288 Mg283 2.032 . S
O288 C291 1.259 . S
O289 Mg280 2.114 . S
O289 C292 1.252 . S
O290 Mg280 2.251 . S
O290 Mg283 2.079 . S
O290 C292 1.273 . S
C291 O287 1.246 . S
C291 O288 1.259 . S
C292 O289 1.252 . S
C292 O290 1.273 . S
O293 Mg280 2.010 1_455 S
O293 C285 1.249 . S
Mg294 O295 2.028 . S
Mg294 O301 1.986 . S
Mg294 O303 2.114 . S
Mg294 O304 2.251 . S
Mg294 O307 2.010 . S
O295 Mg294 2.028 . S
O295 C298 1.250 . S
O296 Mg297 2.028 . S
O296 C298 1.248 . S
Mg297 O296 2.028 . S
Mg297 O302 2.032 . S
Mg297 O304 2.079 . S
C298 O295 1.250 . S
C298 O296 1.248 . S
C299 O300 1.264 . S
C299 O307 1.249 . S
O300 C299 1.264 . S
O301 Mg294 1.986 . S
O301 C305 1.246 . S
O302 Mg297 2.032 . S
O302 C305 1.259 . S
O303 Mg294 2.114 . S
O303 C306 1.252 . S
O304 Mg294 2.251 . S
O304 Mg297 2.079 . S
O304 C306 1.273 . S
C305 O301 1.246 . S
C305 O302 1.259 . S
C306 O303 1.252 . S
C306 O304 1.273 . S
O307 Mg294 2.010 . S
O307 C299 1.249 . S
Mg308 O309 2.028 . S
Mg308 O315 1.986 . S
Mg308 O317 2.114 . S
Mg308 O318 2.251 . S
Mg308 O321 2.010 . S
O309 Mg308 2.028 . S
O309 C312 1.250 . S
O310 Mg311 2.028 . S
O310 C312 1.248 . S
Mg311 O310 2.028 . S
Mg311 O316 2.032 . S
Mg311 O318 2.079 . S
C312 O309 1.250 . S
C312 O310 1.248 . S
C313 O314 1.264 . S
C313 O321 1.249 . S
O314 C313 1.264 . S
O315 Mg308 1.986 . S
O315 C319 1.246 . S
O316 Mg311 2.032 . S
O316 C319 1.259 . S
O317 Mg308 2.114 . S
O317 C320 1.252 . S
O318 Mg308 2.251 . S
O318 Mg311 2.079 . S
O318 C320 1.273 . S
C319 O315 1.246 . S
C319 O316 1.259 . S
C320 O317 1.252 . S
C320 O318 1.273 . S
O321 Mg308 2.010 . S
O321 C313 1.249 . S
Mg322 O323 2.028 . S
Mg322 O329 1.986 . S
Mg322 O331 2.114 . S
Mg322 O332 2.251 . S
Mg322 O335 2.010 . S
O323 Mg322 2.028 . S
O323 C326 1.250 . S
O324 Mg325 2.028 . S
O324 C326 1.248 . S
Mg325 O324 2.028 . S
Mg325 O330 2.032 . S
Mg325 O332 2.079 . S
C326 O323 1.250 . S
C326 O324 1.248 . S
C327 O328 1.264 . S
C327 O335 1.249 . S
O328 C327 1.264 . S
O329 Mg322 1.986 . S
O329 C333 1.246 . S
O330 Mg325 2.032 . S
O330 C333 1.259 . S
O331 Mg322 2.114 . S
O331 C334 1.252 . S
O332 Mg322 2.251 . S
O332 Mg325 2.079 . S
O332 C334 1.273 . S
C333 O329 1.246 . S
C333 O330 1.259 . S
C334 O331 1.252 . S
C334 O332 1.273 . S
O335 Mg322 2.010 . S
O335 C327 1.249 . S
Mg336 O337 2.028 . S
Mg336 O343 1.986 . S
Mg336 O345 2.114 . S
Mg336 O346 2.251 . S
Mg336 O349 2.010 1_455 S
O337 Mg336 2.028 . S
O337 C340 1.250 . S
O338 Mg339 2.028 . S
O338 C340 1.248 . S
Mg339 O338 2.028 . S
Mg339 O344 2.032 . S
Mg339 O346 2.079 . S
C340 O337 1.250 . S
C340 O338 1.248 . S
C341 O342 1.264 . S
C341 O349 1.249 . S
O342 C341 1.264 . S
O343 Mg336 1.986 . S
O343 C347 1.246 . S
O344 Mg339 2.032 . S
O344 C347 1.259 . S
O345 Mg336 2.114 . S
O345 C348 1.252 . S
O346 Mg336 2.251 . S
O346 Mg339 2.079 . S
O346 C348 1.273 . S
C347 O343 1.246 . S
C347 O344 1.259 . S
C348 O345 1.252 . S
C348 O346 1.273 . S
O349 Mg336 2.010 1_655 S
O349 C341 1.249 . S
Mg350 O351 2.028 . S
Mg350 O357 1.986 . S
Mg350 O359 2.114 . S
Mg350 O360 2.251 . S
Mg350 O363 2.010 . S
O351 Mg350 2.028 . S
O351 C354 1.250 . S
O352 Mg353 2.028 . S
O352 C354 1.248 . S
Mg353 O352 2.028 . S
Mg353 O358 2.032 . S
Mg353 O360 2.079 . S
C354 O351 1.250 . S
C354 O352 1.248 . S
C355 O356 1.264 . S
C355 O363 1.249 . S
O356 C355 1.264 . S
O357 Mg350 1.986 . S
O357 C361 1.246 . S
O358 Mg353 2.032 . S
O358 C361 1.259 . S
O359 Mg350 2.114 . S
O359 C362 1.252 . S
O360 Mg350 2.251 . S
O360 Mg353 2.079 . S
O360 C362 1.273 . S
C361 O357 1.246 . S
C361 O358 1.259 . S
C362 O359 1.252 . S
C362 O360 1.273 . S
O363 Mg350 2.010 . S
O363 C355 1.249 . S
Mg364 O365 2.028 . S
Mg364 O371 1.986 . S
Mg364 O373 2.114 . S
Mg364 O374 2.251 . S
Mg364 O377 2.010 . S
O365 Mg364 2.028 . S
O365 C368 1.250 . S
O366 Mg367 2.028 . S
O366 C368 1.248 . S
Mg367 O366 2.028 . S
Mg367 O372 2.032 . S
Mg367 O374 2.079 . S
C368 O365 1.250 . S
C368 O366 1.248 . S
C369 O370 1.264 . S
C369 O377 1.249 . S
O370 C369 1.264 . S
O371 Mg364 1.986 . S
O371 C375 1.246 . S
O372 Mg367 2.032 . S
O372 C375 1.259 . S
O373 Mg364 2.114 . S
O373 C376 1.252 . S
O374 Mg364 2.251 . S
O374 Mg367 2.079 . S
O374 C376 1.273 . S
C375 O371 1.246 . S
C375 O372 1.259 . S
C376 O373 1.252 . S
C376 O374 1.273 . S
O377 Mg364 2.010 . S
O377 C369 1.249 . S
Mg378 O379 2.028 . S
Mg378 O385 1.986 . S
Mg378 O387 2.114 . S
Mg378 O388 2.251 . S
Mg378 O391 2.010 . S
O379 Mg378 2.028 . S
O379 C382 1.250 . S
O380 Mg381 2.028 . S
O380 C382 1.248 . S
Mg381 O380 2.028 . S
Mg381 O386 2.032 . S
Mg381 O388 2.079 . S
C382 O379 1.250 . S
C382 O380 1.248 . S
C383 O384 1.264 . S
C383 O391 1.249 . S
O384 C383 1.264 . S
O385 Mg378 1.986 . S
O385 C389 1.246 . S
O386 Mg381 2.032 . S
O386 C389 1.259 . S
O387 Mg378 2.114 . S
O387 C390 1.252 . S
O388 Mg378 2.251 . S
O388 Mg381 2.079 . S
O388 C390 1.273 . S
C389 O385 1.246 . S
C389 O386 1.259 . S
C390 O387 1.252 . S
C390 O388 1.273 . S
O391 Mg378 2.010 . S
O391 C383 1.249 . S
Mg392 O393 2.028 . S
Mg392 O399 1.986 . S
Mg392 O401 2.114 . S
Mg392 O402 2.251 . S
Mg392 O405 2.010 1_455 S
O393 Mg392 2.028 . S
O393 C396 1.250 . S
O394 Mg395 2.028 . S
O394 C396 1.248 . S
Mg395 O394 2.028 . S
Mg395 O400 2.032 . S
Mg395 O402 2.079 . S
C396 O393 1.250 . S
C396 O394 1.248 . S
C397 O398 1.264 . S
C397 O405 1.249 . S
O398 C397 1.264 . S
O399 Mg392 1.986 . S
O399 C403 1.246 . S
O400 Mg395 2.032 . S
O400 C403 1.259 . S
O401 Mg392 2.114 . S
O401 C404 1.252 . S
O402 Mg392 2.251 . S
O402 Mg395 2.079 . S
O402 C404 1.273 . S
C403 O399 1.246 . S
C403 O400 1.259 . S
C404 O401 1.252 . S
C404 O402 1.273 . S
O405 Mg392 2.010 1_655 S
O405 C397 1.249 . S
Mg406 O407 2.028 . S
Mg406 O413 1.986 . S
Mg406 O415 2.114 . S
Mg406 O416 2.251 . S
Mg406 O419 2.010 . S
O407 Mg406 2.028 . S
O407 C410 1.250 . S
O408 Mg409 2.028 . S
O408 C410 1.248 . S
Mg409 O408 2.028 . S
Mg409 O414 2.032 . S
Mg409 O416 2.079 . S
C410 O407 1.250 . S
C410 O408 1.248 . S
C411 O412 1.264 . S
C411 O419 1.249 . S
O412 C411 1.264 . S
O413 Mg406 1.986 . S
O413 C417 1.246 . S
O414 Mg409 2.032 . S
O414 C417 1.259 . S
O415 Mg406 2.114 . S
O415 C418 1.252 . S
O416 Mg406 2.251 . S
O416 Mg409 2.079 . S
O416 C418 1.273 . S
C417 O413 1.246 . S
C417 O414 1.259 . S
C418 O415 1.252 . S
C418 O416 1.273 . S
O419 Mg406 2.010 . S
O419 C411 1.249 . S
Mg420 O421 2.028 . S
Mg420 O427 1.986 . S
Mg420 O429 2.114 . S
Mg420 O430 2.251 . S
Mg420 O433 2.010 . S
O421 Mg420 2.028 . S
O421 C424 1.250 . S
O422 Mg423 2.028 . S
O422 C424 1.248 . S
Mg423 O422 2.028 . S
Mg423 O428 2.032 . S
Mg423 O430 2.079 . S
C424 O421 1.250 . S
C424 O422 1.248 . S
C425 O426 1.264 . S
C425 O433 1.249 . S
O426 C425 1.264 . S
O427 Mg420 1.986 . S
O427 C431 1.246 . S
O428 Mg423 2.032 . S
O428 C431 1.259 . S
O429 Mg420 2.114 . S
O429 C432 1.252 . S
O430 Mg420 2.251 . S
O430 Mg423 2.079 . S
O430 C432 1.273 . S
C431 O427 1.246 . S
C431 O428 1.259 . S
C432 O429 1.252 . S
C432 O430 1.273 . S
O433 Mg420 2.010 . S
O433 C425 1.249 . S
Mg434 O435 2.028 . S
Mg434 O441 1.986 . S
Mg434 O443 2.114 . S
Mg434 O444 2.251 . S
Mg434 O447 2.010 . S
O435 Mg434 2.028 . S
O435 C438 1.250 . S
O436 Mg437 2.028 . S
O436 C438 1.248 . S
Mg437 O436 2.028 . S
Mg437 O442 2.032 . S
Mg437 O444 2.079 . S
C438 O435 1.250 . S
C438 O436 1.248 . S
C439 O440 1.264 . S
C439 O447 1.249 . S
O440 C439 1.264 . S
O441 Mg434 1.986 . S
O441 C445 1.246 . S
O442 Mg437 2.032 . S
O442 C445 1.259 . S
O443 Mg434 2.114 . S
O443 C446 1.252 . S
O444 Mg434 2.251 . S
O444 Mg437 2.079 . S
O444 C446 1.273 . S
C445 O441 1.246 . S
C445 O442 1.259 . S
C446 O443 1.252 . S
C446 O444 1.273 . S
O447 Mg434 2.010 . S
O447 C439 1.249 . S
C448 C449 1.369 . S
C448 C450 1.419 . S
C448 H452 0.930 . S
C449 C448 1.369 . S
C449 C458 1.429 1_565 S
C450 C448 1.419 . S
C450 C451 1.363 1_565 S
C450 H453 0.929 . S
C451 C450 1.363 1_545 S
C451 C457 1.428 . S
H452 C448 0.930 . S
H453 C450 0.929 . S
S454 N455 1.613 . S
S454 N456 1.610 . S
N455 S454 1.613 . S
N455 C458 1.350 . S
N456 S454 1.610 . S
N456 C457 1.351 . S
C457 C451 1.428 . S
C457 N456 1.351 . S
C457 C458 1.434 . S
C458 C449 1.429 1_545 S
C458 N455 1.350 . S
C458 C457 1.434 . S
C459 C460 1.369 . S
C459 C461 1.419 . S
C459 H463 0.930 . S
C460 C459 1.369 . S
C460 C469 1.429 . S
C461 C459 1.419 . S
C461 C462 1.363 . S
C461 H464 0.929 . S
C462 C461 1.363 . S
C462 C468 1.428 . S
H463 C459 0.930 . S
H464 C461 0.929 . S
S465 N466 1.613 . S
S465 N467 1.610 . S
N466 S465 1.613 . S
N466 C469 1.350 . S
N467 S465 1.610 . S
N467 C468 1.351 . S
C468 C462 1.428 . S
C468 N467 1.351 . S
C468 C469 1.434 . S
C469 C460 1.429 . S
C469 N466 1.350 . S
C469 C468 1.434 . S
C470 C471 1.369 . S
C470 C472 1.419 . S
C470 H474 0.930 . S
C471 C470 1.369 . S
C471 C480 1.429 1_545 S
C472 C470 1.419 . S
C472 C473 1.363 1_545 S
C472 H475 0.929 . S
C473 C472 1.363 1_565 S
C473 C479 1.428 . S
H474 C470 0.930 . S
H475 C472 0.929 . S
S476 N477 1.613 . S
S476 N478 1.610 . S
N477 S476 1.613 . S
N477 C480 1.350 . S
N478 S476 1.610 . S
N478 C479 1.351 . S
C479 C473 1.428 . S
C479 N478 1.351 . S
C479 C480 1.434 . S
C480 C471 1.429 1_565 S
C480 N477 1.350 . S
C480 C479 1.434 . S
C481 C482 1.369 . S
C481 C483 1.419 1_556 S
C481 H485 0.930 . S
C482 C481 1.369 . S
C482 C491 1.429 . S
C483 C481 1.419 1_554 S
C483 C484 1.363 . S
C483 H486 0.929 . S
C484 C483 1.363 . S
C484 C490 1.428 . S
H485 C481 0.930 . S
H486 C483 0.929 . S
S487 N488 1.613 1_554 S
S487 N489 1.610 . S
N488 S487 1.613 1_556 S
N488 C491 1.350 . S
N489 S487 1.610 . S
N489 C490 1.351 . S
C490 C484 1.428 . S
C490 N489 1.351 . S
C490 C491 1.434 1_554 S
C491 C482 1.429 . S
C491 N488 1.350 . S
C491 C490 1.434 1_556 S
C492 C493 1.369 . S
C492 C494 1.419 . S
C492 H496 0.930 . S
C493 C492 1.369 . S
C493 C502 1.429 1_565 S
C494 C492 1.419 . S
C494 C495 1.363 1_565 S
C494 H497 0.929 . S
C495 C494 1.363 1_545 S
C495 C501 1.428 . S
H496 C492 0.930 . S
H497 C494 0.929 . S
S498 N499 1.613 . S
S498 N500 1.610 . S
N499 S498 1.613 . S
N499 C502 1.350 . S
N500 S498 1.610 . S
N500 C501 1.351 . S
C501 C495 1.428 . S
C501 N500 1.351 . S
C501 C502 1.434 . S
C502 C493 1.429 1_545 S
C502 N499 1.350 . S
C502 C501 1.434 . S
C503 C504 1.369 . S
C503 C505 1.419 . S
C503 H507 0.930 . S
C504 C503 1.369 . S
C504 C513 1.429 . S
C505 C503 1.419 . S
C505 C506 1.363 . S
C505 H508 0.929 . S
C506 C505 1.363 . S
C506 C512 1.428 . S
H507 C503 0.930 . S
H508 C505 0.929 . S
S509 N510 1.613 . S
S509 N511 1.610 . S
N510 S509 1.613 . S
N510 C513 1.350 . S
N511 S509 1.610 . S
N511 C512 1.351 . S
C512 C506 1.428 . S
C512 N511 1.351 . S
C512 C513 1.434 . S
C513 C504 1.429 . S
C513 N510 1.350 . S
C513 C512 1.434 . S
C514 C515 1.369 . S
C514 C516 1.419 . S
C514 H518 0.930 . S
C515 C514 1.369 . S
C515 C524 1.429 1_545 S
C516 C514 1.419 . S
C516 C517 1.363 1_545 S
C516 H519 0.929 . S
C517 C516 1.363 1_565 S
C517 C523 1.428 . S
H518 C514 0.930 . S
H519 C516 0.929 . S
S520 N521 1.613 . S
S520 N522 1.610 . S
N521 S520 1.613 . S
N521 C524 1.350 . S
N522 S520 1.610 . S
N522 C523 1.351 . S
C523 C517 1.428 . S
C523 N522 1.351 . S
C523 C524 1.434 . S
C524 C515 1.429 1_565 S
C524 N521 1.350 . S
C524 C523 1.434 . S
C525 C526 1.369 . S
C525 C527 1.419 1_556 S
C525 H529 0.930 . S
C526 C525 1.369 . S
C526 C535 1.429 . S
C527 C525 1.419 1_554 S
C527 C528 1.363 . S
C527 H530 0.929 . S
C528 C527 1.363 . S
C528 C534 1.428 . S
H529 C525 0.930 . S
H530 C527 0.929 . S
S531 N532 1.613 1_554 S
S531 N533 1.610 . S
N532 S531 1.613 1_556 S
N532 C535 1.350 . S
N533 S531 1.610 . S
N533 C534 1.351 . S
C534 C528 1.428 . S
C534 N533 1.351 . S
C534 C535 1.434 1_554 S
C535 C526 1.429 . S
C535 N532 1.350 . S
C535 C534 1.434 1_556 S
C536 C537 1.369 . S
C536 C538 1.419 . S
C536 H540 0.930 . S
C537 C536 1.369 . S
C537 C546 1.429 . S
C538 C536 1.419 . S
C538 C539 1.363 . S
C538 H541 0.929 . S
C539 C538 1.363 . S
C539 C545 1.428 . S
H540 C536 0.930 . S
H541 C538 0.929 . S
S542 N543 1.613 . S
S542 N544 1.610 . S
N543 S542 1.613 . S
N543 C546 1.350 . S
N544 S542 1.610 . S
N544 C545 1.351 . S
C545 C539 1.428 . S
C545 N544 1.351 . S
C545 C546 1.434 . S
C546 C537 1.429 . S
C546 N543 1.350 . S
C546 C545 1.434 . S
C547 C548 1.369 . S
C547 C549 1.419 1_554 S
C547 H551 0.930 . S
C548 C547 1.369 . S
C548 C557 1.429 . S
C549 C547 1.419 1_556 S
C549 C550 1.363 . S
C549 H552 0.929 . S
C550 C549 1.363 . S
C550 C556 1.428 . S
H551 C547 0.930 . S
H552 C549 0.929 . S
S553 N554 1.613 1_556 S
S553 N555 1.610 . S
N554 S553 1.613 1_554 S
N554 C557 1.350 . S
N555 S553 1.610 . S
N555 C556 1.351 . S
C556 C550 1.428 . S
C556 N555 1.351 . S
C556 C557 1.434 1_556 S
C557 C548 1.429 . S
C557 N554 1.350 . S
C557 C556 1.434 1_554 S
C558 C559 1.369 . S
C558 C560 1.419 . S
C558 H562 0.930 . S
C559 C558 1.369 . S
C559 C568 1.429 . S
C560 C558 1.419 . S
C560 C561 1.363 . S
C560 H563 0.929 . S
C561 C560 1.363 . S
C561 C567 1.428 . S
H562 C558 0.930 . S
H563 C560 0.929 . S
S564 N565 1.613 . S
S564 N566 1.610 . S
N565 S564 1.613 . S
N565 C568 1.350 . S
N566 S564 1.610 . S
N566 C567 1.351 . S
C567 C561 1.428 . S
C567 N566 1.351 . S
C567 C568 1.434 . S
C568 C559 1.429 . S
C568 N565 1.350 . S
C568 C567 1.434 . S
C569 C570 1.369 . S
C569 C571 1.419 . S
C569 H573 0.930 . S
C570 C569 1.369 . S
C570 C579 1.429 . S
C571 C569 1.419 . S
C571 C572 1.363 . S
C571 H574 0.929 . S
C572 C571 1.363 . S
C572 C578 1.428 . S
H573 C569 0.930 . S
H574 C571 0.929 . S
S575 N576 1.613 . S
S575 N577 1.610 . S
N576 S575 1.613 . S
N576 C579 1.350 . S
N577 S575 1.610 . S
N577 C578 1.351 . S
C578 C572 1.428 . S
C578 N577 1.351 . S
C578 C579 1.434 . S
C579 C570 1.429 . S
C579 N576 1.350 . S
C579 C578 1.434 . S
C580 C581 1.369 . S
C580 C582 1.419 . S
C580 H584 0.930 . S
C581 C580 1.369 . S
C581 C590 1.429 . S
C582 C580 1.419 . S
C582 C583 1.363 . S
C582 H585 0.929 . S
C583 C582 1.363 . S
C583 C589 1.428 . S
H584 C580 0.930 . S
H585 C582 0.929 . S
S586 N587 1.613 . S
S586 N588 1.610 . S
N587 S586 1.613 . S
N587 C590 1.350 . S
N588 S586 1.610 . S
N588 C589 1.351 . S
C589 C583 1.428 . S
C589 N588 1.351 . S
C589 C590 1.434 . S
C590 C581 1.429 . S
C590 N587 1.350 . S
C590 C589 1.434 . S
C591 C592 1.369 . S
C591 C593 1.419 1_554 S
C591 H595 0.930 . S
C592 C591 1.369 . S
C592 C601 1.429 . S
C593 C591 1.419 1_556 S
C593 C594 1.363 . S
C593 H596 0.929 . S
C594 C593 1.363 . S
C594 C600 1.428 . S
H595 C591 0.930 . S
H596 C593 0.929 . S
S597 N598 1.613 . S
S597 N599 1.610 1_554 S
N598 S597 1.613 . S
N598 C601 1.350 . S
N599 S597 1.610 1_556 S
N599 C600 1.351 . S
C600 C594 1.428 . S
C600 N599 1.351 . S
C600 C601 1.434 1_556 S
C601 C592 1.429 . S
C601 N598 1.350 . S
C601 C600 1.434 1_554 S
C602 C603 1.369 . S
C602 C604 1.419 . S
C602 H606 0.930 . S
C603 C602 1.369 . S
C603 C612 1.429 . S
C604 C602 1.419 . S
C604 C605 1.363 . S
C604 H607 0.929 . S
C605 C604 1.363 . S
C605 C611 1.428 . S
H606 C602 0.930 . S
H607 C604 0.929 . S
S608 N609 1.613 . S
S608 N610 1.610 . S
N609 S608 1.613 . S
N609 C612 1.350 . S
N610 S608 1.610 . S
N610 C611 1.351 . S
C611 C605 1.428 . S
C611 N610 1.351 . S
C611 C612 1.434 . S
C612 C603 1.429 . S
C612 N609 1.350 . S
C612 C611 1.434 . S
C613 C614 1.369 . S
C613 C615 1.419 . S
C613 H617 0.930 . S
C614 C613 1.369 . S
C614 C623 1.429 . S
C615 C613 1.419 . S
C615 C616 1.363 . S
C615 H618 0.929 . S
C616 C615 1.363 . S
C616 C622 1.428 . S
H617 C613 0.930 . S
H618 C615 0.929 . S
S619 N620 1.613 . S
S619 N621 1.610 . S
N620 S619 1.613 . S
N620 C623 1.350 . S
N621 S619 1.610 . S
N621 C622 1.351 . S
C622 C616 1.428 . S
C622 N621 1.351 . S
C622 C623 1.434 . S
C623 C614 1.429 . S
C623 N620 1.350 . S
C623 C622 1.434 . S
C624 C625 1.369 . S
C624 C626 1.419 . S
C624 H628 0.930 . S
C625 C624 1.369 . S
C625 C634 1.429 . S
C626 C624 1.419 . S
C626 C627 1.363 . S
C626 H629 0.929 . S
C627 C626 1.363 . S
C627 C633 1.428 . S
H628 C624 0.930 . S
H629 C626 0.929 . S
S630 N631 1.613 . S
S630 N632 1.610 . S
N631 S630 1.613 . S
N631 C634 1.350 . S
N632 S630 1.610 . S
N632 C633 1.351 . S
C633 C627 1.428 . S
C633 N632 1.351 . S
C633 C634 1.434 . S
C634 C625 1.429 . S
C634 N631 1.350 . S
C634 C633 1.434 . S
C635 C636 1.369 . S
C635 C637 1.419 . S
C635 H639 0.930 . S
C636 C635 1.369 . S
C636 C645 1.429 . S
C637 C635 1.419 . S
C637 C638 1.363 . S
C637 H640 0.929 . S
C638 C637 1.363 . S
C638 C644 1.428 . S
H639 C635 0.930 . S
H640 C637 0.929 . S
S641 N642 1.613 . S
S641 N643 1.610 . S
N642 S641 1.613 . S
N642 C645 1.350 . S
N643 S641 1.610 . S
N643 C644 1.351 . S
C644 C638 1.428 . S
C644 N643 1.351 . S
C644 C645 1.434 . S
C645 C636 1.429 . S
C645 N642 1.350 . S
C645 C644 1.434 . S
C646 C647 1.369 . S
C646 C648 1.419 . S
C646 H650 0.930 . S
C647 C646 1.369 . S
C647 C656 1.429 . S
C648 C646 1.419 . S
C648 C649 1.363 . S
C648 H651 0.929 . S
C649 C648 1.363 . S
C649 C655 1.428 . S
H650 C646 0.930 . S
H651 C648 0.929 . S
S652 N653 1.613 . S
S652 N654 1.610 . S
N653 S652 1.613 . S
N653 C656 1.350 . S
N654 S652 1.610 . S
N654 C655 1.351 . S
C655 C649 1.428 . S
C655 N654 1.351 . S
C655 C656 1.434 . S
C656 C647 1.429 . S
C656 N653 1.350 . S
C656 C655 1.434 . S
C657 C658 1.369 . S
C657 C659 1.419 . S
C657 H661 0.930 . S
C658 C657 1.369 . S
C658 C667 1.429 . S
C659 C657 1.419 . S
C659 C660 1.363 . S
C659 H662 0.929 . S
C660 C659 1.363 . S
C660 C666 1.428 . S
H661 C657 0.930 . S
H662 C659 0.929 . S
S663 N664 1.613 . S
S663 N665 1.610 . S
N664 S663 1.613 . S
N664 C667 1.350 . S
N665 S663 1.610 . S
N665 C666 1.351 . S
C666 C660 1.428 . S
C666 N665 1.351 . S
C666 C667 1.434 . S
C667 C658 1.429 . S
C667 N664 1.350 . S
C667 C666 1.434 . S
C668 C669 1.369 . S
C668 C670 1.419 . S
C668 H672 0.930 . S
C669 C668 1.369 . S
C669 C678 1.429 . S
C670 C668 1.419 . S
C670 C671 1.363 . S
C670 H673 0.929 . S
C671 C670 1.363 . S
C671 C677 1.428 . S
H672 C668 0.930 . S
H673 C670 0.929 . S
S674 N675 1.613 . S
S674 N676 1.610 . S
N675 S674 1.613 . S
N675 C678 1.350 . S
N676 S674 1.610 . S
N676 C677 1.351 . S
C677 C671 1.428 . S
C677 N676 1.351 . S
C677 C678 1.434 . S
C678 C669 1.429 . S
C678 N675 1.350 . S
C678 C677 1.434 . S
C679 C680 1.369 . S
C679 C681 1.419 . S
C679 H683 0.930 . S
C680 C679 1.369 . S
C680 C689 1.429 . S
C681 C679 1.419 . S
C681 C682 1.363 . S
C681 H684 0.929 . S
C682 C681 1.363 . S
C682 C688 1.428 . S
H683 C679 0.930 . S
H684 C681 0.929 . S
S685 N686 1.613 . S
S685 N687 1.610 . S
N686 S685 1.613 . S
N686 C689 1.350 . S
N687 S685 1.610 . S
N687 C688 1.351 . S
C688 C682 1.428 . S
C688 N687 1.351 . S
C688 C689 1.434 . S
C689 C680 1.429 . S
C689 N686 1.350 . S
C689 C688 1.434 . S
C690 C691 1.369 . S
C690 C692 1.419 . S
C690 H694 0.930 . S
C691 C690 1.369 . S
C691 C700 1.429 . S
C692 C690 1.419 . S
C692 C693 1.363 . S
C692 H695 0.929 . S
C693 C692 1.363 . S
C693 C699 1.428 . S
H694 C690 0.930 . S
H695 C692 0.929 . S
S696 N697 1.613 . S
S696 N698 1.610 . S
N697 S696 1.613 . S
N697 C700 1.350 . S
N698 S696 1.610 . S
N698 C699 1.351 . S
C699 C693 1.428 . S
C699 N698 1.351 . S
C699 C700 1.434 . S
C700 C691 1.429 . S
C700 N697 1.350 . S
C700 C699 1.434 . S
C701 C702 1.369 . S
C701 C703 1.419 . S
C701 H705 0.930 . S
C702 C701 1.369 . S
C702 C711 1.429 . S
C703 C701 1.419 . S
C703 C704 1.363 . S
C703 H706 0.929 . S
C704 C703 1.363 . S
C704 C710 1.428 . S
H705 C701 0.930 . S
H706 C703 0.929 . S
S707 N708 1.613 . S
S707 N709 1.610 . S
N708 S707 1.613 . S
N708 C711 1.350 . S
N709 S707 1.610 . S
N709 C710 1.351 . S
C710 C704 1.428 . S
C710 N709 1.351 . S
C710 C711 1.434 . S
C711 C702 1.429 . S
C711 N708 1.350 . S
C711 C710 1.434 . S
C712 C713 1.369 . S
C712 C714 1.419 . S
C712 H716 0.930 . S
C713 C712 1.369 . S
C713 C722 1.429 . S
C714 C712 1.419 . S
C714 C715 1.363 . S
C714 H717 0.929 . S
C715 C714 1.363 . S
C715 C721 1.428 . S
H716 C712 0.930 . S
H717 C714 0.929 . S
S718 N719 1.613 . S
S718 N720 1.610 . S
N719 S718 1.613 . S
N719 C722 1.350 . S
N720 S718 1.610 . S
N720 C721 1.351 . S
C721 C715 1.428 . S
C721 N720 1.351 . S
C721 C722 1.434 . S
C722 C713 1.429 . S
C722 N719 1.350 . S
C722 C721 1.434 . S
C723 C724 1.369 . S
C723 C725 1.419 . S
C723 H727 0.930 . S
C724 C723 1.369 . S
C724 C733 1.429 . S
C725 C723 1.419 . S
C725 C726 1.363 . S
C725 H728 0.929 . S
C726 C725 1.363 . S
C726 C732 1.428 . S
H727 C723 0.930 . S
H728 C725 0.929 . S
S729 N730 1.613 . S
S729 N731 1.610 . S
N730 S729 1.613 . S
N730 C733 1.350 . S
N731 S729 1.610 . S
N731 C732 1.351 . S
C732 C726 1.428 . S
C732 N731 1.351 . S
C732 C733 1.434 . S
C733 C724 1.429 . S
C733 N730 1.350 . S
C733 C732 1.434 . S
C734 C735 1.369 . S
C734 C736 1.419 . S
C734 H738 0.930 . S
C735 C734 1.369 . S
C735 C744 1.429 . S
C736 C734 1.419 . S
C736 C737 1.363 . S
C736 H739 0.929 . S
C737 C736 1.363 . S
C737 C743 1.428 . S
H738 C734 0.930 . S
H739 C736 0.929 . S
S740 N741 1.613 . S
S740 N742 1.610 . S
N741 S740 1.613 . S
N741 C744 1.350 . S
N742 S740 1.610 . S
N742 C743 1.351 . S
C743 C737 1.428 . S
C743 N742 1.351 . S
C743 C744 1.434 . S
C744 C735 1.429 . S
C744 N741 1.350 . S
C744 C743 1.434 . S
C745 C746 1.369 . S
C745 C747 1.419 . S
C745 H749 0.930 . S
C746 C745 1.369 . S
C746 C755 1.429 . S
C747 C745 1.419 . S
C747 C748 1.363 . S
C747 H750 0.929 . S
C748 C747 1.363 . S
C748 C754 1.428 . S
H749 C745 0.930 . S
H750 C747 0.929 . S
S751 N752 1.613 . S
S751 N753 1.610 . S
N752 S751 1.613 . S
N752 C755 1.350 . S
N753 S751 1.610 . S
N753 C754 1.351 . S
C754 C748 1.428 . S
C754 N753 1.351 . S
C754 C755 1.434 . S
C755 C746 1.429 . S
C755 N752 1.350 . S
C755 C754 1.434 . S
C756 C757 1.369 . S
C756 C758 1.419 . S
C756 H760 0.930 . S
C757 C756 1.369 . S
C757 C766 1.429 . S
C758 C756 1.419 . S
C758 C759 1.363 . S
C758 H761 0.929 . S
C759 C758 1.363 . S
C759 C765 1.428 . S
H760 C756 0.930 . S
H761 C758 0.929 . S
S762 N763 1.613 . S
S762 N764 1.610 . S
N763 S762 1.613 . S
N763 C766 1.350 . S
N764 S762 1.610 . S
N764 C765 1.351 . S
C765 C759 1.428 . S
C765 N764 1.351 . S
C765 C766 1.434 . S
C766 C757 1.429 . S
C766 N763 1.350 . S
C766 C765 1.434 . S
C767 C768 1.369 . S
C767 C769 1.419 . S
C767 H771 0.930 . S
C768 C767 1.369 . S
C768 C777 1.429 . S
C769 C767 1.419 . S
C769 C770 1.363 . S
C769 H772 0.929 . S
C770 C769 1.363 . S
C770 C776 1.428 . S
H771 C767 0.930 . S
H772 C769 0.929 . S
S773 N774 1.613 . S
S773 N775 1.610 . S
N774 S773 1.613 . S
N774 C777 1.350 . S
N775 S773 1.610 . S
N775 C776 1.351 . S
C776 C770 1.428 . S
C776 N775 1.351 . S
C776 C777 1.434 . S
C777 C768 1.429 . S
C777 N774 1.350 . S
C777 C776 1.434 . S
C778 C779 1.369 . S
C778 C780 1.419 . S
C778 H782 0.930 . S
C779 C778 1.369 . S
C779 C788 1.429 . S
C780 C778 1.419 . S
C780 C781 1.363 . S
C780 H783 0.929 . S
C781 C780 1.363 . S
C781 C787 1.428 . S
H782 C778 0.930 . S
H783 C780 0.929 . S
S784 N785 1.613 . S
S784 N786 1.610 . S
N785 S784 1.613 . S
N785 C788 1.350 . S
N786 S784 1.610 . S
N786 C787 1.351 . S
C787 C781 1.428 . S
C787 N786 1.351 . S
C787 C788 1.434 . S
C788 C779 1.429 . S
C788 N785 1.350 . S
C788 C787 1.434 . S
C789 C790 1.369 . S
C789 C791 1.419 . S
C789 H793 0.930 . S
C790 C789 1.369 . S
C790 C799 1.429 . S
C791 C789 1.419 . S
C791 C792 1.363 . S
C791 H794 0.929 . S
C792 C791 1.363 . S
C792 C798 1.428 . S
H793 C789 0.930 . S
H794 C791 0.929 . S
S795 N796 1.613 . S
S795 N797 1.610 . S
N796 S795 1.613 . S
N796 C799 1.350 . S
N797 S795 1.610 . S
N797 C798 1.351 . S
C798 C792 1.428 . S
C798 N797 1.351 . S
C798 C799 1.434 . S
C799 C790 1.429 . S
C799 N796 1.350 . S
C799 C798 1.434 . S
C800 C801 1.369 . S
C800 C802 1.419 . S
C800 H804 0.930 . S
C801 C800 1.369 . S
C801 C810 1.429 . S
C802 C800 1.419 . S
C802 C803 1.363 . S
C802 H805 0.929 . S
C803 C802 1.363 . S
C803 C809 1.428 . S
H804 C800 0.930 . S
H805 C802 0.929 . S
S806 N807 1.613 . S
S806 N808 1.610 . S
N807 S806 1.613 . S
N807 C810 1.350 . S
N808 S806 1.610 . S
N808 C809 1.351 . S
C809 C803 1.428 . S
C809 N808 1.351 . S
C809 C810 1.434 . S
C810 C801 1.429 . S
C810 N807 1.350 . S
C810 C809 1.434 . S
C811 C812 1.369 . S
C811 C813 1.419 . S
C811 H815 0.930 . S
C812 C811 1.369 . S
C812 C821 1.429 . S
C813 C811 1.419 . S
C813 C814 1.363 . S
C813 H816 0.929 . S
C814 C813 1.363 . S
C814 C820 1.428 . S
H815 C811 0.930 . S
H816 C813 0.929 . S
S817 N818 1.613 . S
S817 N819 1.610 . S
N818 S817 1.613 . S
N818 C821 1.350 . S
N819 S817 1.610 . S
N819 C820 1.351 . S
C820 C814 1.428 . S
C820 N819 1.351 . S
C820 C821 1.434 . S
C821 C812 1.429 . S
C821 N818 1.350 . S
C821 C820 1.434 . S
C822 C823 1.369 . S
C822 C824 1.419 . S
C822 H826 0.930 . S
C823 C822 1.369 . S
C823 C832 1.429 . S
C824 C822 1.419 . S
C824 C825 1.363 . S
C824 H827 0.929 . S
C825 C824 1.363 . S
C825 C831 1.428 . S
H826 C822 0.930 . S
H827 C824 0.929 . S
S828 N829 1.613 . S
S828 N830 1.610 . S
N829 S828 1.613 . S
N829 C832 1.350 . S
N830 S828 1.610 . S
N830 C831 1.351 . S
C831 C825 1.428 . S
C831 N830 1.351 . S
C831 C832 1.434 . S
C832 C823 1.429 . S
C832 N829 1.350 . S
C832 C831 1.434 . S
C833 C834 1.369 . S
C833 C835 1.419 . S
C833 H837 0.930 . S
C834 C833 1.369 . S
C834 C843 1.429 . S
C835 C833 1.419 . S
C835 C836 1.363 . S
C835 H838 0.929 . S
C836 C835 1.363 . S
C836 C842 1.428 . S
H837 C833 0.930 . S
H838 C835 0.929 . S
S839 N840 1.613 . S
S839 N841 1.610 . S
N840 S839 1.613 . S
N840 C843 1.350 . S
N841 S839 1.610 . S
N841 C842 1.351 . S
C842 C836 1.428 . S
C842 N841 1.351 . S
C842 C843 1.434 . S
C843 C834 1.429 . S
C843 N840 1.350 . S
C843 C842 1.434 . S
C844 C845 1.369 . S
C844 C846 1.419 . S
C844 H848 0.930 . S
C845 C844 1.369 . S
C845 C854 1.429 . S
C846 C844 1.419 . S
C846 C847 1.363 . S
C846 H849 0.929 . S
C847 C846 1.363 . S
C847 C853 1.428 . S
H848 C844 0.930 . S
H849 C846 0.929 . S
S850 N851 1.613 . S
S850 N852 1.610 . S
N851 S850 1.613 . S
N851 C854 1.350 . S
N852 S850 1.610 . S
N852 C853 1.351 . S
C853 C847 1.428 . S
C853 N852 1.351 . S
C853 C854 1.434 . S
C854 C845 1.429 . S
C854 N851 1.350 . S
C854 C853 1.434 . S
C855 C856 1.369 . S
C855 C857 1.419 . S
C855 H859 0.930 . S
C856 C855 1.369 . S
C856 C865 1.429 . S
C857 C855 1.419 . S
C857 C858 1.363 . S
C857 H860 0.929 . S
C858 C857 1.363 . S
C858 C864 1.428 . S
H859 C855 0.930 . S
H860 C857 0.929 . S
S861 N862 1.613 . S
S861 N863 1.610 . S
N862 S861 1.613 . S
N862 C865 1.350 . S
N863 S861 1.610 . S
N863 C864 1.351 . S
C864 C858 1.428 . S
C864 N863 1.351 . S
C864 C865 1.434 . S
C865 C856 1.429 . S
C865 N862 1.350 . S
C865 C864 1.434 . S
C866 C867 1.369 . S
C866 C868 1.419 . S
C866 H870 0.930 . S
C867 C866 1.369 . S
C867 C876 1.429 . S
C868 C866 1.419 . S
C868 C869 1.363 . S
C868 H871 0.929 . S
C869 C868 1.363 . S
C869 C875 1.428 . S
H870 C866 0.930 . S
H871 C868 0.929 . S
S872 N873 1.613 . S
S872 N874 1.610 . S
N873 S872 1.613 . S
N873 C876 1.350 . S
N874 S872 1.610 . S
N874 C875 1.351 . S
C875 C869 1.428 . S
C875 N874 1.351 . S
C875 C876 1.434 . S
C876 C867 1.429 . S
C876 N873 1.350 . S
C876 C875 1.434 . S
C877 C878 1.369 . S
C877 C879 1.419 . S
C877 H881 0.930 . S
C878 C877 1.369 . S
C878 C887 1.429 . S
C879 C877 1.419 . S
C879 C880 1.363 . S
C879 H882 0.929 . S
C880 C879 1.363 . S
C880 C886 1.428 . S
H881 C877 0.930 . S
H882 C879 0.929 . S
S883 N884 1.613 . S
S883 N885 1.610 . S
N884 S883 1.613 . S
N884 C887 1.350 . S
N885 S883 1.610 . S
N885 C886 1.351 . S
C886 C880 1.428 . S
C886 N885 1.351 . S
C886 C887 1.434 . S
C887 C878 1.429 . S
C887 N884 1.350 . S
C887 C886 1.434 . S
C888 C889 1.369 . S
C888 C890 1.419 . S
C888 H892 0.930 . S
C889 C888 1.369 . S
C889 C898 1.429 . S
C890 C888 1.419 . S
C890 C891 1.363 . S
C890 H893 0.929 . S
C891 C890 1.363 . S
C891 C897 1.428 . S
H892 C888 0.930 . S
H893 C890 0.929 . S
S894 N895 1.613 . S
S894 N896 1.610 . S
N895 S894 1.613 . S
N895 C898 1.350 . S
N896 S894 1.610 . S
N896 C897 1.351 . S
C897 C891 1.428 . S
C897 N896 1.351 . S
C897 C898 1.434 . S
C898 C889 1.429 . S
C898 N895 1.350 . S
C898 C897 1.434 . S
C899 C900 1.369 . S
C899 C901 1.419 . S
C899 H903 0.930 . S
C900 C899 1.369 . S
C900 C909 1.429 . S
C901 C899 1.419 . S
C901 C902 1.363 . S
C901 H904 0.929 . S
C902 C901 1.363 . S
C902 C908 1.428 . S
H903 C899 0.930 . S
H904 C901 0.929 . S
S905 N906 1.613 . S
S905 N907 1.610 . S
N906 S905 1.613 . S
N906 C909 1.350 . S
N907 S905 1.610 . S
N907 C908 1.351 . S
C908 C902 1.428 . S
C908 N907 1.351 . S
C908 C909 1.434 . S
C909 C900 1.429 . S
C909 N906 1.350 . S
C909 C908 1.434 . S
C910 C911 1.369 . S
C910 C912 1.419 . S
C910 H914 0.930 . S
C911 C910 1.369 . S
C911 C920 1.429 . S
C912 C910 1.419 . S
C912 C913 1.363 . S
C912 H915 0.929 . S
C913 C912 1.363 . S
C913 C919 1.428 . S
H914 C910 0.930 . S
H915 C912 0.929 . S
S916 N917 1.613 . S
S916 N918 1.610 . S
N917 S916 1.613 . S
N917 C920 1.350 . S
N918 S916 1.610 . S
N918 C919 1.351 . S
C919 C913 1.428 . S
C919 N918 1.351 . S
C919 C920 1.434 . S
C920 C911 1.429 . S
C920 N917 1.350 . S
C920 C919 1.434 . S
C921 C922 1.369 . S
C921 C923 1.419 . S
C921 H925 0.930 . S
C922 C921 1.369 . S
C922 C931 1.429 . S
C923 C921 1.419 . S
C923 C924 1.363 . S
C923 H926 0.929 . S
C924 C923 1.363 . S
C924 C930 1.428 . S
H925 C921 0.930 . S
H926 C923 0.929 . S
S927 N928 1.613 . S
S927 N929 1.610 . S
N928 S927 1.613 . S
N928 C931 1.350 . S
N929 S927 1.610 . S
N929 C930 1.351 . S
C930 C924 1.428 . S
C930 N929 1.351 . S
C930 C931 1.434 . S
C931 C922 1.429 . S
C931 N928 1.350 . S
C931 C930 1.434 . S
C932 C933 1.369 . S
C932 C934 1.419 . S
C932 H936 0.930 . S
C933 C932 1.369 . S
C933 C942 1.429 . S
C934 C932 1.419 . S
C934 C935 1.363 . S
C934 H937 0.929 . S
C935 C934 1.363 . S
C935 C941 1.428 . S
H936 C932 0.930 . S
H937 C934 0.929 . S
S938 N939 1.613 . S
S938 N940 1.610 . S
N939 S938 1.613 . S
N939 C942 1.350 . S
N940 S938 1.610 . S
N940 C941 1.351 . S
C941 C935 1.428 . S
C941 N940 1.351 . S
C941 C942 1.434 . S
C942 C933 1.429 . S
C942 N939 1.350 . S
C942 C941 1.434 . S
C943 C944 1.369 . S
C943 C945 1.419 . S
C943 H947 0.930 . S
C944 C943 1.369 . S
C944 C953 1.429 . S
C945 C943 1.419 . S
C945 C946 1.363 . S
C945 H948 0.929 . S
C946 C945 1.363 . S
C946 C952 1.428 . S
H947 C943 0.930 . S
H948 C945 0.929 . S
S949 N950 1.613 . S
S949 N951 1.610 . S
N950 S949 1.613 . S
N950 C953 1.350 . S
N951 S949 1.610 . S
N951 C952 1.351 . S
C952 C946 1.428 . S
C952 N951 1.351 . S
C952 C953 1.434 . S
C953 C944 1.429 . S
C953 N950 1.350 . S
C953 C952 1.434 . S
C954 C955 1.369 . S
C954 C956 1.419 . S
C954 H958 0.930 . S
C955 C954 1.369 . S
C955 C964 1.429 . S
C956 C954 1.419 . S
C956 C957 1.363 . S
C956 H959 0.929 . S
C957 C956 1.363 . S
C957 C963 1.428 . S
H958 C954 0.930 . S
H959 C956 0.929 . S
S960 N961 1.613 . S
S960 N962 1.610 . S
N961 S960 1.613 . S
N961 C964 1.350 . S
N962 S960 1.610 . S
N962 C963 1.351 . S
C963 C957 1.428 . S
C963 N962 1.351 . S
C963 C964 1.434 . S
C964 C955 1.429 . S
C964 N961 1.350 . S
C964 C963 1.434 . S
C965 C966 1.369 . S
C965 C967 1.419 . S
C965 H969 0.930 . S
C966 C965 1.369 . S
C966 C975 1.429 . S
C967 C965 1.419 . S
C967 C968 1.363 . S
C967 H970 0.929 . S
C968 C967 1.363 . S
C968 C974 1.428 . S
H969 C965 0.930 . S
H970 C967 0.929 . S
S971 N972 1.613 . S
S971 N973 1.610 . S
N972 S971 1.613 . S
N972 C975 1.350 . S
N973 S971 1.610 . S
N973 C974 1.351 . S
C974 C968 1.428 . S
C974 N973 1.351 . S
C974 C975 1.434 . S
C975 C966 1.429 . S
C975 N972 1.350 . S
C975 C974 1.434 . S
C976 C977 1.369 . S
C976 C978 1.419 . S
C976 H980 0.930 . S
C977 C976 1.369 . S
C977 C986 1.429 . S
C978 C976 1.419 . S
C978 C979 1.363 . S
C978 H981 0.929 . S
C979 C978 1.363 . S
C979 C985 1.428 . S
H980 C976 0.930 . S
H981 C978 0.929 . S
S982 N983 1.613 . S
S982 N984 1.610 . S
N983 S982 1.613 . S
N983 C986 1.350 . S
N984 S982 1.610 . S
N984 C985 1.351 . S
C985 C979 1.428 . S
C985 N984 1.351 . S
C985 C986 1.434 . S
C986 C977 1.429 . S
C986 N983 1.350 . S
C986 C985 1.434 . S
C987 C988 1.369 . S
C987 C989 1.419 . S
C987 H991 0.930 . S
C988 C987 1.369 . S
C988 C997 1.429 . S
C989 C987 1.419 . S
C989 C990 1.363 . S
C989 H992 0.929 . S
C990 C989 1.363 . S
C990 C996 1.428 . S
H991 C987 0.930 . S
H992 C989 0.929 . S
S993 N994 1.613 . S
S993 N995 1.610 . S
N994 S993 1.613 . S
N994 C997 1.350 . S
N995 S993 1.610 . S
N995 C996 1.351 . S
C996 C990 1.428 . S
C996 N995 1.351 . S
C996 C997 1.434 . S
C997 C988 1.429 . S
C997 N994 1.350 . S
C997 C996 1.434 . S
C998 C999 1.369 . S
C998 C1000 1.419 . S
C998 H1002 0.930 . S
C999 C998 1.369 . S
C999 C1008 1.429 . S
C1000 C998 1.419 . S
C1000 C1001 1.363 . S
C1000 H1003 0.929 . S
C1001 C1000 1.363 . S
C1001 C1007 1.428 . S
H1002 C998 0.930 . S
H1003 C1000 0.929 . S
S1004 N1005 1.613 . S
S1004 N1006 1.610 . S
N1005 S1004 1.613 . S
N1005 C1008 1.350 . S
N1006 S1004 1.610 . S
N1006 C1007 1.351 . S
C1007 C1001 1.428 . S
C1007 N1006 1.351 . S
C1007 C1008 1.434 . S
C1008 C999 1.429 . S
C1008 N1005 1.350 . S
C1008 C1007 1.434 . S
C1009 C1010 1.369 . S
C1009 C1011 1.419 . S
C1009 H1013 0.930 . S
C1010 C1009 1.369 . S
C1010 C1019 1.429 . S
C1011 C1009 1.419 . S
C1011 C1012 1.363 . S
C1011 H1014 0.929 . S
C1012 C1011 1.363 . S
C1012 C1018 1.428 . S
H1013 C1009 0.930 . S
H1014 C1011 0.929 . S
S1015 N1016 1.613 . S
S1015 N1017 1.610 . S
N1016 S1015 1.613 . S
N1016 C1019 1.350 . S
N1017 S1015 1.610 . S
N1017 C1018 1.351 . S
C1018 C1012 1.428 . S
C1018 N1017 1.351 . S
C1018 C1019 1.434 . S
C1019 C1010 1.429 . S
C1019 N1016 1.350 . S
C1019 C1018 1.434 . S
C1020 C1021 1.369 . S
C1020 C1022 1.419 . S
C1020 H1024 0.930 . S
C1021 C1020 1.369 . S
C1021 C1030 1.429 . S
C1022 C1020 1.419 . S
C1022 C1023 1.363 . S
C1022 H1025 0.929 . S
C1023 C1022 1.363 . S
C1023 C1029 1.428 . S
H1024 C1020 0.930 . S
H1025 C1022 0.929 . S
S1026 N1027 1.613 . S
S1026 N1028 1.610 . S
N1027 S1026 1.613 . S
N1027 C1030 1.350 . S
N1028 S1026 1.610 . S
N1028 C1029 1.351 . S
C1029 C1023 1.428 . S
C1029 N1028 1.351 . S
C1029 C1030 1.434 . S
C1030 C1021 1.429 . S
C1030 N1027 1.350 . S
C1030 C1029 1.434 . S
C1031 C1032 1.369 . S
C1031 C1033 1.419 . S
C1031 H1035 0.930 . S
C1032 C1031 1.369 . S
C1032 C1041 1.429 . S
C1033 C1031 1.419 . S
C1033 C1034 1.363 . S
C1033 H1036 0.929 . S
C1034 C1033 1.363 . S
C1034 C1040 1.428 . S
H1035 C1031 0.930 . S
H1036 C1033 0.929 . S
S1037 N1038 1.613 . S
S1037 N1039 1.610 . S
N1038 S1037 1.613 . S
N1038 C1041 1.350 . S
N1039 S1037 1.610 . S
N1039 C1040 1.351 . S
C1040 C1034 1.428 . S
C1040 N1039 1.351 . S
C1040 C1041 1.434 . S
C1041 C1032 1.429 . S
C1041 N1038 1.350 . S
C1041 C1040 1.434 . S
C1042 C1043 1.369 . S
C1042 C1044 1.419 . S
C1042 H1046 0.930 . S
C1043 C1042 1.369 . S
C1043 C1052 1.429 . S
C1044 C1042 1.419 . S
C1044 C1045 1.363 . S
C1044 H1047 0.929 . S
C1045 C1044 1.363 . S
C1045 C1051 1.428 . S
H1046 C1042 0.930 . S
H1047 C1044 0.929 . S
S1048 N1049 1.613 . S
S1048 N1050 1.610 . S
N1049 S1048 1.613 . S
N1049 C1052 1.350 . S
N1050 S1048 1.610 . S
N1050 C1051 1.351 . S
C1051 C1045 1.428 . S
C1051 N1050 1.351 . S
C1051 C1052 1.434 . S
C1052 C1043 1.429 . S
C1052 N1049 1.350 . S
C1052 C1051 1.434 . S
C1053 C1054 1.369 . S
C1053 C1055 1.419 . S
C1053 H1057 0.930 . S
C1054 C1053 1.369 . S
C1054 C1063 1.429 . S
C1055 C1053 1.419 . S
C1055 C1056 1.363 . S
C1055 H1058 0.929 . S
C1056 C1055 1.363 . S
C1056 C1062 1.428 . S
H1057 C1053 0.930 . S
H1058 C1055 0.929 . S
S1059 N1060 1.613 . S
S1059 N1061 1.610 . S
N1060 S1059 1.613 . S
N1060 C1063 1.350 . S
N1061 S1059 1.610 . S
N1061 C1062 1.351 . S
C1062 C1056 1.428 . S
C1062 N1061 1.351 . S
C1062 C1063 1.434 . S
C1063 C1054 1.429 . S
C1063 N1060 1.350 . S
C1063 C1062 1.434 . S
C1064 C1065 1.369 . S
C1064 C1066 1.419 . S
C1064 H1068 0.930 . S
C1065 C1064 1.369 . S
C1065 C1074 1.429 . S
C1066 C1064 1.419 . S
C1066 C1067 1.363 . S
C1066 H1069 0.929 . S
C1067 C1066 1.363 . S
C1067 C1073 1.428 . S
H1068 C1064 0.930 . S
H1069 C1066 0.929 . S
S1070 N1071 1.613 . S
S1070 N1072 1.610 . S
N1071 S1070 1.613 . S
N1071 C1074 1.350 . S
N1072 S1070 1.610 . S
N1072 C1073 1.351 . S
C1073 C1067 1.428 . S
C1073 N1072 1.351 . S
C1073 C1074 1.434 . S
C1074 C1065 1.429 . S
C1074 N1071 1.350 . S
C1074 C1073 1.434 . S
C1075 C1076 1.369 . S
C1075 C1077 1.419 . S
C1075 H1079 0.930 . S
C1076 C1075 1.369 . S
C1076 C1085 1.429 . S
C1077 C1075 1.419 . S
C1077 C1078 1.363 . S
C1077 H1080 0.929 . S
C1078 C1077 1.363 . S
C1078 C1084 1.428 . S
H1079 C1075 0.930 . S
H1080 C1077 0.929 . S
S1081 N1082 1.613 . S
S1081 N1083 1.610 . S
N1082 S1081 1.613 . S
N1082 C1085 1.350 . S
N1083 S1081 1.610 . S
N1083 C1084 1.351 . S
C1084 C1078 1.428 . S
C1084 N1083 1.351 . S
C1084 C1085 1.434 . S
C1085 C1076 1.429 . S
C1085 N1082 1.350 . S
C1085 C1084 1.434 . S
C1086 C1087 1.369 . S
C1086 C1088 1.419 . S
C1086 H1090 0.930 . S
C1087 C1086 1.369 . S
C1087 C1096 1.429 . S
C1088 C1086 1.419 . S
C1088 C1089 1.363 . S
C1088 H1091 0.929 . S
C1089 C1088 1.363 . S
C1089 C1095 1.428 . S
H1090 C1086 0.930 . S
H1091 C1088 0.929 . S
S1092 N1093 1.613 . S
S1092 N1094 1.610 . S
N1093 S1092 1.613 . S
N1093 C1096 1.350 . S
N1094 S1092 1.610 . S
N1094 C1095 1.351 . S
C1095 C1089 1.428 . S
C1095 N1094 1.351 . S
C1095 C1096 1.434 . S
C1096 C1087 1.429 . S
C1096 N1093 1.350 . S
C1096 C1095 1.434 . S
C1097 C1098 1.369 . S
C1097 C1099 1.419 . S
C1097 H1101 0.930 . S
C1098 C1097 1.369 . S
C1098 C1107 1.429 . S
C1099 C1097 1.419 . S
C1099 C1100 1.363 . S
C1099 H1102 0.929 . S
C1100 C1099 1.363 . S
C1100 C1106 1.428 . S
H1101 C1097 0.930 . S
H1102 C1099 0.929 . S
S1103 N1104 1.613 . S
S1103 N1105 1.610 . S
N1104 S1103 1.613 . S
N1104 C1107 1.350 . S
N1105 S1103 1.610 . S
N1105 C1106 1.351 . S
C1106 C1100 1.428 . S
C1106 N1105 1.351 . S
C1106 C1107 1.434 . S
C1107 C1098 1.429 . S
C1107 N1104 1.350 . S
C1107 C1106 1.434 . S
C1108 C1109 1.369 . S
C1108 C1110 1.419 . S
C1108 H1112 0.930 . S
C1109 C1108 1.369 . S
C1109 C1118 1.429 . S
C1110 C1108 1.419 . S
C1110 C1111 1.363 . S
C1110 H1113 0.929 . S
C1111 C1110 1.363 . S
C1111 C1117 1.428 . S
H1112 C1108 0.930 . S
H1113 C1110 0.929 . S
S1114 N1115 1.613 . S
S1114 N1116 1.610 . S
N1115 S1114 1.613 . S
N1115 C1118 1.350 . S
N1116 S1114 1.610 . S
N1116 C1117 1.351 . S
C1117 C1111 1.428 . S
C1117 N1116 1.351 . S
C1117 C1118 1.434 . S
C1118 C1109 1.429 . S
C1118 N1115 1.350 . S
C1118 C1117 1.434 . S
C1119 C1120 1.369 . S
C1119 C1121 1.419 . S
C1119 H1123 0.930 . S
C1120 C1119 1.369 . S
C1120 C1129 1.429 . S
C1121 C1119 1.419 . S
C1121 C1122 1.363 . S
C1121 H1124 0.929 . S
C1122 C1121 1.363 . S
C1122 C1128 1.428 . S
H1123 C1119 0.930 . S
H1124 C1121 0.929 . S
S1125 N1126 1.613 . S
S1125 N1127 1.610 . S
N1126 S1125 1.613 . S
N1126 C1129 1.350 . S
N1127 S1125 1.610 . S
N1127 C1128 1.351 . S
C1128 C1122 1.428 . S
C1128 N1127 1.351 . S
C1128 C1129 1.434 . S
C1129 C1120 1.429 . S
C1129 N1126 1.350 . S
C1129 C1128 1.434 . S
C1130 C1131 1.369 . S
C1130 C1132 1.419 . S
C1130 H1134 0.930 . S
C1131 C1130 1.369 . S
C1131 C1140 1.429 . S
C1132 C1130 1.419 . S
C1132 C1133 1.363 . S
C1132 H1135 0.929 . S
C1133 C1132 1.363 . S
C1133 C1139 1.428 . S
H1134 C1130 0.930 . S
H1135 C1132 0.929 . S
S1136 N1137 1.613 . S
S1136 N1138 1.610 . S
N1137 S1136 1.613 . S
N1137 C1140 1.350 . S
N1138 S1136 1.610 . S
N1138 C1139 1.351 . S
C1139 C1133 1.428 . S
C1139 N1138 1.351 . S
C1139 C1140 1.434 . S
C1140 C1131 1.429 . S
C1140 N1137 1.350 . S
C1140 C1139 1.434 . S
C1141 C1142 1.369 . S
C1141 C1143 1.419 . S
C1141 H1145 0.930 . S
C1142 C1141 1.369 . S
C1142 C1151 1.429 . S
C1143 C1141 1.419 . S
C1143 C1144 1.363 . S
C1143 H1146 0.929 . S
C1144 C1143 1.363 . S
C1144 C1150 1.428 . S
H1145 C1141 0.930 . S
H1146 C1143 0.929 . S
S1147 N1148 1.613 . S
S1147 N1149 1.610 . S
N1148 S1147 1.613 . S
N1148 C1151 1.350 . S
N1149 S1147 1.610 . S
N1149 C1150 1.351 . S
C1150 C1144 1.428 . S
C1150 N1149 1.351 . S
C1150 C1151 1.434 . S
C1151 C1142 1.429 . S
C1151 N1148 1.350 . S
C1151 C1150 1.434 . S
C449 C67 1.481 . S
C451 C11 1.483 . S
C460 C81 1.484 . S
C462 C25 1.484 . S
C471 C95 1.481 . S
C473 C39 1.483 . S
C482 C53 1.485 . S
C484 C109 1.484 . S
C493 C123 1.480 . S
C495 C179 1.481 . S
C504 C193 1.481 . S
C506 C137 1.480 . S
C515 C151 1.479 . S
C517 C207 1.481 . S
C526 C221 1.479 . S
C528 C165 1.479 . S
C537 C235 1.479 . S
C539 C291 1.480 . S
C548 C305 1.481 . S
C550 C249 1.480 . S
C559 C319 1.482 . S
C561 C263 1.483 . S
C570 C333 1.479 . S
C572 C277 1.479 . S
C581 C347 1.482 . S
C583 C403 1.481 . S
C592 C361 1.483 . S
C594 C417 1.483 . S
C603 C375 1.481 . S
C605 C431 1.481 . S
C614 C389 1.484 . S
C616 C445 1.484 . S
C625 C12 1.077 . S
C627 C110 1.071 . S
C636 C26 1.071 . S
C638 C68 1.073 . S
C647 C40 1.072 . S
C649 C82 1.077 . S
C658 C96 1.071 . S
C660 C54 1.073 . S
C669 C222 1.074 . S
C671 C124 1.071 . S
C680 C180 1.075 . S
C682 C138 1.071 . S
C691 C194 1.076 . S
C693 C152 1.071 . S
C702 C166 1.077 . S
C704 C208 1.074 . S
C713 C334 1.071 . S
C715 C236 1.072 . S
C724 C292 1.077 . S
C726 C250 1.072 . S
C735 C306 1.071 . S
C737 C264 1.077 . S
C746 C278 1.078 . S
C748 C320 1.073 . S
C757 C348 1.077 . S
C759 C446 1.071 . S
C768 C362 1.078 . S
C770 C404 1.072 . S
C779 C376 1.077 . S
C781 C418 1.074 . S
C790 C432 1.076 . S
C792 C390 1.071 . S
C801 C4 1.492 . S
C803 C355 1.433 . S
C812 C18 1.495 . S
C814 C145 1.436 . S
C823 C32 1.494 . S
C825 C383 1.440 . S
C834 C117 1.432 . S
C836 C46 1.492 . S
C845 C439 1.436 . S
C847 C60 1.491 . S
C856 C74 1.490 . S
C858 C173 1.432 . S
C867 C88 1.494 . S
C869 C411 1.435 . S
C878 C102 1.489 . S
C880 C201 1.432 . S
C889 C243 1.442 . S
C891 C116 1.496 . S
C900 C33 1.432 . S
C902 C130 1.492 . S
C911 C271 1.442 . S
C913 C144 1.496 . S
C922 C158 1.497 . S
C924 C5 1.441 . S
C933 C327 1.438 . S
C935 C172 1.495 . S
C944 C61 1.435 . S
C946 C186 1.494 . S
C955 C299 1.431 . S
C957 C200 1.491 . S
C966 C89 1.436 . S
C968 C214 1.491 . S
C977 C131 1.433 . S
C979 C228 1.493 . S
C988 C242 1.490 . S
C990 C369 1.432 . S
C999 C256 1.489 . S
C1001 C159 1.432 . S
C1010 C270 1.497 . S
C1012 C341 1.441 . S
C1021 C284 1.489 . S
C1023 C215 1.432 . S
C1032 C397 1.440 . S
C1034 C298 1.496 . S
C1043 C312 1.497 . S
C1045 C187 1.439 . S
C1054 C326 1.495 . S
C1056 C425 1.441 . S
C1065 C340 1.496 . S
C1067 C19 1.438 . S
C1076 C354 1.497 . S
C1078 C257 1.440 . S
C1087 C47 1.441 . S
C1089 C368 1.495 . S
C1098 C229 1.431 . S
C1100 C382 1.491 . S
C1109 C396 1.491 . S
C1111 C103 1.436 . S
C1120 C410 1.490 . S
C1122 C285 1.434 . S
C1131 C75 1.434 . S
C1133 C424 1.493 . S
C1142 C313 1.432 . S
C1144 C438 1.491 . S
