# Generated by pormake.
# Topology smu, (6)-cn, num edge types: 1
# Building blocks:
#     Node 0, Type 0, BuildingBlock: PAMTUU_clean_sbu_0, # of connection points: 6
#     Node 1, Type 0, BuildingBlock: PAMTUU_clean_sbu_0, # of connection points: 6
#     Node 2, Type 0, BuildingBlock: PAMTUU_clean_sbu_0, # of connection points: 6
#     Node 3, Type 0, BuildingBlock: PAMTUU_clean_sbu_0, # of connection points: 6
#     Node 4, Type 0, BuildingBlock: PAMTUU_clean_sbu_0, # of connection points: 6
#     Node 5, Type 0, BuildingBlock: PAMTUU_clean_sbu_0, # of connection points: 6
#     Edge 6, Type (0, 0), BuildingBlock: CIFDUS_clean_linker_0, # of connection points: 2
#     Edge 7, Type (0, 0), BuildingBlock: CIFDUS_clean_linker_0, # of connection points: 2
#     Edge 8, Type (0, 0), BuildingBlock: CIFDUS_clean_linker_0, # of connection points: 2
#     Edge 9, Type (0, 0), BuildingBlock: CIFDUS_clean_linker_0, # of connection points: 2
#     Edge 10, Type (0, 0), BuildingBlock: CIFDUS_clean_linker_0, # of connection points: 2
#     Edge 11, Type (0, 0), BuildingBlock: CIFDUS_clean_linker_0, # of connection points: 2
#     Edge 12, Type (0, 0), BuildingBlock: CIFDUS_clean_linker_0, # of connection points: 2
#     Edge 13, Type (0, 0), BuildingBlock: CIFDUS_clean_linker_0, # of connection points: 2
#     Edge 14, Type (0, 0), BuildingBlock: CIFDUS_clean_linker_0, # of connection points: 2
#     Edge 15, Type (0, 0), BuildingBlock: CIFDUS_clean_linker_0, # of connection points: 2
#     Edge 16, Type (0, 0), BuildingBlock: CIFDUS_clean_linker_0, # of connection points: 2
#     Edge 17, Type (0, 0), BuildingBlock: CIFDUS_clean_linker_0, # of connection points: 2
#     Edge 18, Type (0, 0), BuildingBlock: CIFDUS_clean_linker_0, # of connection points: 2
#     Edge 19, Type (0, 0), BuildingBlock: CIFDUS_clean_linker_0, # of connection points: 2
#     Edge 20, Type (0, 0), BuildingBlock: CIFDUS_clean_linker_0, # of connection points: 2
#     Edge 21, Type (0, 0), BuildingBlock: CIFDUS_clean_linker_0, # of connection points: 2
#     Edge 22, Type (0, 0), BuildingBlock: CIFDUS_clean_linker_0, # of connection points: 2
#     Edge 23, Type (0, 0), BuildingBlock: CIFDUS_clean_linker_0, # of connection points: 2
# Relax obj value: 0.221
# Max RMSD: 0.320
# Mean RMSD: 0.320
data_MOF--net-smu--node1-PAMTUU_clean_sbu_0--edge1-CIFDUS_clean_linker_0
_symmetry_space_group_name_H-M    P1
_symmetry_Int_Tables_number       1
_symmetry_cell_setting            triclinic
loop_
_symmetry_equiv_pos_as_xyz
'x, y, z'
_cell_length_a     35.718803
_cell_length_b     35.804521
_cell_length_c     24.006035
_cell_angle_alpha  89.779393
_cell_angle_beta   90.473276
_cell_angle_gamma 119.90145
loop_
_atom_site_label
_atom_site_type_symbol
_atom_site_fract_x
_atom_site_fract_y
_atom_site_fract_z
_atom_type_partial_charge
Tb0 Tb 0.32568 0.1252 0.26732 0.0
Tb1 Tb 0.38735 0.08313 0.26594 0.0
C2 C 0.3316 0.07788 0.15912 0.0
C3 C 0.24206 0.16362 0.27624 0.0
C4 C 0.17365 0.18133 0.27077 0.0
C5 C 0.1922 0.17687 0.2217 0.0
C6 C 0.22641 0.16842 0.22436 0.0
C7 C 0.22169 0.16571 0.3251 0.0
C8 C 0.18786 0.17469 0.32241 0.0
C9 C 0.28345 0.16387 0.2813 0.0
O10 O 0.28075 0.05881 0.26028 0.0
O11 O 0.3217 0.0251 0.26935 0.0
O12 O 0.35204 0.05764 0.34171 0.0
O13 O 0.34094 0.11454 0.35395 0.0
O14 O 0.4299 0.07044 0.22002 0.0
O15 O 0.42713 0.06493 0.30936 0.0
O16 O 0.42268 0.15086 0.29337 0.0
O17 O 0.38747 0.1729 0.23671 0.0
O18 O 0.30765 0.08916 0.18848 0.0
O19 O 0.36847 0.08289 0.17856 0.0
C20 C 0.284 0.02428 0.26775 0.0
O21 O 0.28616 0.13851 0.31814 0.0
O22 O 0.30546 0.16744 0.23651 0.0
C23 C 0.33897 0.07873 0.37252 0.0
C24 C 0.49598 0.08894 0.26901 0.0
C25 C 0.58732 0.12561 0.27497 0.0
C26 C 0.56046 0.09847 0.31745 0.0
C27 C 0.51557 0.08034 0.31438 0.0
C28 C 0.52274 0.11778 0.22768 0.0
C29 C 0.56793 0.13598 0.23071 0.0
C30 C 0.44787 0.06546 0.26481 0.0
C31 C 0.42161 0.18191 0.26578 0.0
H32 H 0.18114 0.18139 0.1814 0.0
H33 H 0.24154 0.16725 0.18601 0.0
H34 H 0.23322 0.16232 0.36564 0.0
H35 H 0.17324 0.17711 0.3606 0.0
H36 H 0.57412 0.09052 0.3529 0.0
H37 H 0.49598 0.05861 0.34712 0.0
H38 H 0.50879 0.12544 0.19229 0.0
H39 H 0.58747 0.15676 0.19726 0.0
Tb40 Tb 0.82466 0.71164 0.27875 0.0
Tb41 Tb 0.72481 0.63899 0.27507 0.0
C42 C 0.76587 0.69559 0.16871 0.0
C43 C 0.94654 0.79527 0.27613 0.0
C44 C 0.03324 0.86096 0.27685 0.0
C45 C 1.01816 0.8288 0.23587 0.0
C46 C 0.97504 0.79606 0.23558 0.0
C47 C 0.96132 0.82877 0.31534 0.0
C48 C 1.00427 0.86123 0.31577 0.0
C49 C 0.90548 0.75552 0.28564 0.0
O50 O 0.79718 0.75137 0.26378 0.0
O51 O 0.72529 0.70158 0.28299 0.0
O52 O 0.74395 0.65338 0.36217 0.0
O53 O 0.79976 0.72236 0.35619 0.0
O54 O 0.6666 0.59849 0.23329 0.0
O55 O 0.67219 0.59303 0.32183 0.0
O56 O 0.76295 0.60876 0.2505 0.0
O57 O 0.81312 0.65085 0.31162 0.0
O58 O 0.80541 0.71095 0.18978 0.0
O59 O 0.7313 0.66873 0.19602 0.0
C60 C 0.75707 0.74151 0.27222 0.0
O61 O 0.8791 0.757 0.32154 0.0
O62 O 0.88544 0.72907 0.24437 0.0
C63 C 0.76688 0.69216 0.38345 0.0
C64 C 0.62627 0.52846 0.2727 0.0
C65 C 0.57635 0.43786 0.26171 0.0
C66 C 0.57761 0.45799 0.3124 0.0
C67 C 0.60218 0.50282 0.31772 0.0
C68 C 0.62648 0.50825 0.22266 0.0
C69 C 0.60174 0.46344 0.21725 0.0
C70 C 0.64833 0.57598 0.27769 0.0
C71 C 0.79696 0.61692 0.28026 0.0
H72 H 0.03987 0.82853 0.20484 0.0
H73 H 0.96458 0.77026 0.20544 0.0
H74 H 0.94044 0.82871 0.34786 0.0
H75 H 1.01521 0.88559 0.34805 0.0
H76 H 0.55822 0.43929 0.3473 0.0
H77 H 0.60141 0.51759 0.35667 0.0
H78 H 0.64493 0.527 0.1872 0.0
H79 H 0.60201 0.44884 0.17793 0.0
Tb80 Tb 0.9128 0.20348 0.26151 0.0
Tb81 Tb 0.94471 0.3066 0.27368 0.0
C82 C 0.94303 0.26792 0.15411 0.0
C83 C 0.87087 0.07776 0.25287 0.0
C84 C 0.83753 0.98792 0.2472 0.0
C85 C 0.8323 1.0103 0.20231 0.0
C86 C 0.84865 0.05465 0.2052 0.0
C87 C 0.87682 0.05575 0.29766 0.0
C88 C 0.86003 1.01108 0.295 0.0
C89 C 0.88642 0.12434 0.2561 0.0
O90 O 0.97622 0.23852 0.22828 0.0
O91 O 1.00394 0.30038 0.27953 0.0
O92 O 0.94205 0.28265 0.35816 0.0
O93 O 0.94895 0.22369 0.34033 0.0
O94 O 0.97381 0.37149 0.24727 0.0
O95 O 0.94002 0.35126 0.32518 0.0
O96 O 0.87612 0.272 0.25034 0.0
O97 O 0.85868 0.20869 0.29232 0.0
O98 O 0.92476 0.22792 0.17416 0.0
O99 O 0.95331 0.30155 0.1858 0.0
C100 C 1.00872 0.2701 0.25407 0.0
O101 O 0.91816 0.15024 0.28872 0.0
O102 O 0.8698 0.1431 0.2261 0.0
C103 C 0.9536 0.25469 0.37377 0.0
C104 C 0.93568 0.40709 0.27869 0.0
C105 C 0.89148 0.45428 0.26427 0.0
C106 C 0.91093 0.4543 0.31559 0.0
C107 C 0.93283 0.43131 0.32248 0.0
C108 C 0.91566 0.40601 0.22748 0.0
C109 C 0.89391 0.42948 0.2203 0.0
C110 C 0.95842 0.38246 0.28932 0.0
C111 C 0.84692 0.2349 0.27099 0.0
H112 H 0.81492 0.99334 0.16505 0.0
H113 H 0.84378 0.07087 0.17006 0.0
H114 H 0.89387 0.07295 0.33498 0.0
H115 H 0.865 0.99477 0.32994 0.0
H116 H 0.9089 0.47173 0.35109 0.0
H117 H 0.94737 0.43219 0.36261 0.0
H118 H 0.91682 0.38713 0.19308 0.0
H119 H 0.87956 0.42863 0.1801 0.0
Tb120 Tb 0.09755 0.38139 0.7724 0.0
Tb121 Tb 0.12613 0.30841 0.7692 0.0
C122 C 0.08878 0.32559 0.8794 0.0
C123 C 0.10596 0.49149 0.77607 0.0
C124 C 0.14115 0.58212 0.77413 0.0
C125 C 0.11039 0.55641 0.81417 0.0
C126 C 0.09301 0.51177 0.81498 0.0
C127 C 0.13822 0.51709 0.73743 0.0
C128 C 0.15575 0.56207 0.73659 0.0
C129 C 0.08283 0.44373 0.77483 0.0
O130 O 0.16673 0.41328 0.75092 0.0
O131 O 0.17908 0.36745 0.80116 0.0
O132 O 0.11192 0.31616 0.68125 0.0
O133 O 0.07072 0.34842 0.69445 0.0
O134 O 0.12949 0.25784 0.8073 0.0
O135 O 0.16675 0.28822 0.73287 0.0
O136 O 0.0582 0.27121 0.75438 0.0
O137 O 0.03657 0.31917 0.78426 0.0
O138 O 0.09843 0.36386 0.85991 0.0
O139 O 0.09504 0.29855 0.84966 0.0
C140 C 0.19407 0.4038 0.77481 0.0
O141 O 0.08446 0.42493 0.72934 0.0
O142 O 0.08588 0.42422 0.81904 0.0
C143 C 0.0836 0.32712 0.6631 0.0
C144 C 0.15718 0.21888 0.75926 0.0
C145 C 0.18236 0.156 0.76434 0.0
C146 C 0.20069 0.18952 0.72495 0.0
C147 C 0.18801 0.22046 0.72227 0.0
C148 C 0.13554 0.18304 0.79464 0.0
C149 C 0.14783 0.15167 0.79684 0.0
C150 C 0.15717 0.25904 0.77145 0.0
C151 C 0.02848 0.27967 0.77178 0.0
H152 H 0.09904 0.57076 0.84448 0.0
H153 H 0.06841 0.49286 0.84532 0.0
H154 H 0.14904 0.50233 0.70701 0.0
H155 H 0.17938 0.58087 0.70523 0.0
H156 H 0.22746 0.1943 0.69924 0.0
H157 H 0.2054 0.24786 0.6949 0.0
H158 H 0.11154 0.18089 0.82379 0.0
H159 H 0.13194 0.12549 0.82632 0.0
Tb160 Tb 0.31661 0.93865 0.76411 0.0
Tb161 Tb 0.21325 0.90242 0.76203 0.0
C162 C 0.26932 0.94442 0.87116 0.0
C163 C 0.41877 0.93328 0.76874 0.0
C164 C 0.47328 0.89698 0.7737 0.0
C165 C 0.4782 0.92892 0.81186 0.0
C166 C 0.45146 0.94699 0.80915 0.0
C167 C 0.41207 0.89965 0.73234 0.0
C168 C 0.43911 0.8817 0.7348 0.0
C169 C 0.39451 0.95666 0.76287 0.0
O170 O 0.28416 0.86993 0.74248 0.0
O171 O 0.22238 0.85006 0.78898 0.0
O172 O 0.23667 0.90984 0.67499 0.0
O173 O 0.30589 0.96393 0.68831 0.0
O174 O 0.15219 0.86126 0.79541 0.0
O175 O 0.15871 0.89169 0.71502 0.0
O176 O 0.23771 0.97043 0.76565 0.0
O177 O 0.31231 0.99805 0.76423 0.0
O178 O 0.29792 0.93503 0.85127 0.0
O179 O 0.23468 0.93688 0.84206 0.0
C180 C 0.24857 0.83984 0.76518 0.0
O181 O 0.37041 0.9484 0.71852 0.0
O182 O 0.37555 0.96017 0.80718 0.0
C183 C 0.27202 0.94379 0.65619 0.0
C184 C 0.09109 0.86475 0.761 0.0
C185 C 1.0045 0.84278 0.77631 0.0
C186 C 0.02037 0.84436 0.72257 0.0
C187 C 0.06328 0.85522 0.71505 0.0
C188 C 0.07604 0.86563 0.81455 0.0
C189 C 0.03305 0.85481 0.8221 0.0
C190 C 0.1322 0.86564 0.75237 0.0
C191 C 0.27766 1.00259 0.76534 0.0
H192 H 0.50343 0.94071 0.84332 0.0
H193 H 0.45711 0.9726 0.83785 0.0
H194 H 0.38685 0.88808 0.70086 0.0
H195 H 0.43436 0.8572 0.70476 0.0
H196 H 0.99938 0.83627 0.68643 0.0
H197 H 0.07418 0.85409 0.67342 0.0
H198 H 0.09679 0.87264 0.85076 0.0
H199 H 0.02169 0.85395 0.86405 0.0
Tb200 Tb 0.65153 0.71916 0.77054 0.0
Tb201 Tb 0.71889 0.82375 0.77366 0.0
C202 C 0.70828 0.76558 0.87701 0.0
C203 C 0.54211 0.61875 0.77123 0.0
C204 C 0.45007 0.57284 0.76758 0.0
C205 C 0.47306 0.55849 0.80096 0.0
C206 C 0.51836 0.58115 0.80276 0.0
C207 C 0.51945 0.63365 0.73825 0.0
C208 C 0.47398 0.61098 0.7365 0.0
C209 C 0.5902 0.6414 0.77341 0.0
O210 O 0.61599 0.75194 0.74719 0.0
O211 O 0.65599 0.81073 0.79988 0.0
O212 O 0.71468 0.80572 0.68525 0.0
O213 O 0.68153 0.73125 0.6898 0.0
O214 O 0.75347 0.8795 0.82141 0.0
O215 O 0.7458 0.88381 0.73255 0.0
O216 O 0.7612 0.7988 0.75949 0.0
O217 O 0.7164 0.72472 0.7733 0.0
O218 O 0.66941 0.73788 0.85814 0.0
O219 O 0.73488 0.79958 0.84805 0.0
C220 C 0.62078 0.78641 0.77206 0.0
O221 O 0.6109 0.66102 0.72847 0.0
O222 O 0.60864 0.66462 0.81747 0.0
C223 C 0.70367 0.76781 0.66296 0.0
C224 C 0.80492 0.94486 0.77772 0.0
C225 C 0.87212 0.03124 0.78597 0.0
C226 C 0.85009 0.01501 0.73519 0.0
C227 C 0.81666 0.97224 0.73119 0.0
C228 C 0.82925 0.96019 0.82711 0.0
C229 C 0.86241 1.00289 0.8312 0.0
C230 C 0.76244 0.90499 0.77868 0.0
C231 C 0.75493 0.75953 0.76502 0.0
H232 H 0.45599 0.52984 0.82632 0.0
H233 H 0.53494 0.56916 0.82887 0.0
H234 H 0.53684 0.66267 0.7136 0.0
H235 H 0.45758 0.62296 0.71005 0.0
H236 H 0.85757 0.03576 0.69915 0.0
H237 H 0.79833 0.96142 0.69267 0.0
H238 H 0.82087 0.94015 0.86398 0.0
H239 H 0.87855 0.01427 0.87104 0.0
H240 H 0.2382 0.92886 0.97894 0.0
H241 H 0.33135 0.0279 0.87202 0.0
H242 H 0.35742 0.07912 0.94929 0.0
H243 H 0.3571 0.09519 0.04971 0.0
H244 H 0.26397 0.99645 0.15683 0.0
H245 H 0.23582 0.94599 0.07884 0.0
C246 C 0.26406 0.96168 0.97272 0.0
C247 C 0.28287 0.97443 0.9197 0.0
C248 C 0.2795 0.99113 1.018 0.0
C249 C 0.31647 0.01712 0.9124 0.0
C250 C 0.33148 0.04653 0.9567 0.0
C251 C 0.33023 0.06284 0.05562 0.0
C252 C 0.31236 0.0499 0.10906 0.0
C253 C 0.31375 0.03386 1.01001 0.0
C254 C 0.27786 1.00762 0.11611 0.0
C255 C 0.2618 0.97855 0.07139 0.0
H256 H 0.66156 0.71159 0.58011 0.0
H257 H 0.78697 0.81572 0.62678 0.0
H258 H 0.81891 0.8017 0.54479 0.0
H259 H 0.81087 0.7574 0.46043 0.0
H260 H 0.68413 0.65262 0.41757 0.0
H261 H 0.65315 0.66982 0.49616 0.0
C262 C 0.69571 0.73186 0.57153 0.0
C263 C 0.72159 0.76533 0.60849 0.0
C264 C 0.71376 0.72321 0.52497 0.0
C265 C 0.76605 0.79075 0.59774 0.0
C266 C 0.7844 0.7823 0.55127 0.0
C267 C 0.77657 0.73824 0.46868 0.0
C268 C 0.75014 0.70299 0.43378 0.0
C269 C 0.75859 0.74825 0.51472 0.0
C270 C 0.70559 0.67899 0.44455 0.0
C271 C 0.68763 0.68904 0.48931 0.0
H272 H 0.97689 0.22678 0.09228 0.0
H273 H 0.95529 0.33507 0.08973 0.0
H274 H 1.00059 0.36389 1.00786 0.0
H275 H 0.04866 0.36057 0.93847 0.0
H276 H 0.06991 0.2521 0.93773 0.0
H277 H 0.02295 0.22157 1.01853 0.0
C278 C 0.98099 0.25593 0.07273 0.0
C279 C 0.96189 0.27828 0.09699 0.0
C280 C 1.008 0.27302 0.02549 0.0
C281 C 0.96892 0.3168 0.0718 0.0
C282 C 0.99529 0.33364 0.02514 0.0
C283 C 0.04361 0.33056 0.95634 0.0
C284 C 0.06384 0.3094 0.93237 0.0
C285 C 1.01567 0.31256 1.00218 0.0
C286 C 0.05563 0.26978 0.95562 0.0
C287 C 0.02835 0.25199 1.00174 0.0
H288 H 0.27679 0.99819 0.40228 0.0
H289 H 0.3706 0.12126 0.47066 0.0
H290 H 0.35832 0.08934 0.56399 0.0
H291 H 0.32722 0.02522 0.62318 0.0
H292 H 0.22489 0.90414 0.56036 0.0
H293 H 0.23529 0.93598 0.46664 0.0
C294 C 0.29378 0.01817 0.43796 0.0
C295 C 0.32479 0.06212 0.42974 0.0
C296 C 0.28578 0.99967 0.49174 0.0
C297 C 0.3465 0.08765 0.47604 0.0
C298 C 0.33976 0.06923 0.52922 0.0
C299 C 0.3059 1.00592 0.58971 0.0
C300 C 0.27495 0.96224 0.59931 0.0
C301 C 0.31034 0.02512 0.5372 0.0
C302 C 0.24884 0.93773 0.55447 0.0
C303 C 0.25479 0.95603 0.50092 0.0
H304 H 0.6815 0.7578 0.98489 0.0
H305 H 0.77219 0.74602 0.88093 0.0
H306 H 0.80363 0.72971 0.96125 0.0
H307 H 0.80219 0.71374 0.06261 0.0
H308 H 0.70658 0.72032 0.16425 0.0
H309 H 0.68087 0.74348 0.08516 0.0
C310 C 0.70825 0.75184 0.98009 0.0
C311 C 0.72552 0.75459 0.9271 0.0
C312 C 0.72541 0.74124 0.02678 0.0
C313 C 0.7598 0.74624 0.92144 0.0
C314 C 0.77739 0.73619 0.96753 0.0
C315 C 0.77634 0.721 0.06743 0.0
C316 C 0.75663 0.71534 0.11958 0.0
C317 C 0.76036 0.73331 0.02072 0.0
C318 C 0.72249 0.72425 0.12466 0.0
C319 C 0.70746 0.73746 0.07931 0.0
H320 H 0.93357 0.23777 0.48442 0.0
H321 H 0.04044 0.2996 0.37215 0.0
H322 H 0.09159 0.32451 0.44981 0.0
H323 H 0.10606 0.33284 0.55188 0.0
H324 H 0.99827 0.27418 0.66347 0.0
H325 H 0.94804 0.24354 0.58571 0.0
C326 C 0.96807 0.25615 0.47718 0.0
C327 C 0.98329 0.26612 0.4224 0.0
C328 C 0.9974 0.27103 0.52259 0.0
C329 C 0.02804 0.29059 0.41369 0.0
C330 C 0.05737 0.30518 0.45833 0.0
C331 C 0.07169 0.31271 0.55892 0.0
C332 C 0.05594 0.30539 0.61367 0.0
C333 C 0.04252 0.29604 0.51325 0.0
C334 C 1.01119 0.27991 0.62197 0.0
C335 C 0.98232 0.26255 0.57732 0.0
H336 H 0.65622 0.20527 0.24703 0.0
H337 H 0.62548 0.07861 0.30368 0.0
H338 H 0.7019 0.10109 0.30822 0.0
H339 H 0.77786 0.15642 0.2969 0.0
H340 H 0.80999 0.28302 0.23858 0.0
H341 H 0.73319 0.2608 0.23362 0.0
C342 C 0.66623 0.18253 0.26006 0.0
C343 C 0.63473 0.14036 0.27577 0.0
C344 C 0.71074 0.19567 0.26242 0.0
C345 C 0.64867 0.11151 0.29262 0.0
C346 C 0.69255 0.12426 0.29491 0.0
C347 C 0.76822 0.17934 0.28328 0.0
C348 C 0.80002 0.22154 0.26849 0.0
C349 C 0.72392 0.1663 0.28029 0.0
C350 C 0.78648 0.2504 0.25041 0.0
C351 C 0.74243 0.23768 0.24753 0.0
H352 H 0.56132 0.37235 0.33372 0.0
H353 H 0.52401 0.39765 0.17267 0.0
H354 H 0.47384 0.32095 0.15967 0.0
H355 H 0.43972 0.24687 0.19414 0.0
H356 H 0.47687 0.22009 0.35414 0.0
H357 H 0.52761 0.29719 0.36777 0.0
C358 C 0.54214 0.36102 0.29585 0.0
C359 C 0.5467 0.39077 0.25408 0.0
C360 C 0.51334 0.31664 0.28846 0.0
C361 C 0.52177 0.3755 0.20508 0.0
C362 C 0.49283 0.33163 0.19773 0.0
C363 C 0.45921 0.25784 0.23183 0.0
C364 C 0.45494 0.22779 0.27282 0.0
C365 C 0.48838 0.30196 0.23907 0.0
C366 C 0.48019 0.24251 0.32153 0.0
C367 C 0.50895 0.2866 0.32946 0.0
H368 H 0.9147 0.53267 0.30976 0.0
H369 H 0.81795 0.43515 0.20286 0.0
H370 H 0.78058 0.47673 0.1962 0.0
H371 H 0.77361 0.5402 0.22443 0.0
H372 H 0.8704 0.63449 0.33505 0.0
H373 H 0.9082 0.59423 0.33747 0.0
C374 C 0.88509 0.51991 0.28554 0.0
C375 C 0.86917 0.48028 0.2575 0.0
C376 C 0.86322 0.54341 0.2829 0.0
C377 C 0.83143 0.46555 0.22479 0.0
C378 C 0.80972 0.48922 0.22129 0.0
C379 C 0.80288 0.55179 0.24907 0.0
C380 C 0.81857 0.59033 0.27984 0.0
C381 C 0.82501 0.52809 0.25072 0.0
C382 C 0.85694 0.6049 0.31121 0.0
C383 C 0.87892 0.58191 0.31262 0.0
H384 H 0.22319 0.65099 0.75773 0.0
H385 H 0.09067 0.61888 0.78044 0.0
H386 H 0.11219 0.69492 0.77972 0.0
H387 H 0.1683 0.77065 0.77513 0.0
H388 H 0.30094 0.80477 0.74938 0.0
H389 H 0.27978 0.72816 0.74857 0.0
C390 C 0.19905 0.66068 0.76208 0.0
C391 C 0.15539 0.62904 0.77017 0.0
C392 C 0.21168 0.70493 0.76134 0.0
C393 C 0.12458 0.64235 0.77561 0.0
C394 C 0.13682 0.68594 0.77489 0.0
C395 C 0.19273 0.76146 0.7694 0.0
C396 C 0.23628 0.79354 0.76277 0.0
C397 C 0.18027 0.7175 0.76846 0.0
C398 C 0.26723 0.78081 0.75455 0.0
C399 C 0.25511 0.73696 0.75418 0.0
H400 H 0.45942 0.8149 0.75693 0.0
H401 H 0.56034 0.94607 0.7865 0.0
H402 H 0.61402 0.92327 0.78893 0.0
H403 H 0.63273 0.86652 0.7844 0.0
H404 H 0.53396 0.73554 0.75036 0.0
H405 H 0.47919 0.75787 0.74728 0.0
C406 C 0.49318 0.83851 0.7635 0.0
C407 C 0.50553 0.88208 0.77273 0.0
C408 C 0.52433 0.82523 0.7641 0.0
C409 C 0.54956 0.91217 0.78101 0.0
C410 C 0.58045 0.89924 0.78196 0.0
C411 C 0.59918 0.84274 0.77644 0.0
C412 C 0.58733 0.79932 0.76821 0.0
C413 C 0.56818 0.85587 0.77414 0.0
C414 C 0.54388 0.76914 0.7569 0.0
C415 C 0.51258 0.78191 0.75525 0.0
H416 H 0.24511 0.49274 0.76795 0.0
H417 H 0.251 0.37528 0.76824 0.0
H418 H 0.32944 0.41642 0.76406 0.0
H419 H 0.39704 0.48546 0.76358 0.0
H420 H 0.39331 0.60395 0.76675 0.0
H421 H 0.31422 0.56309 0.76618 0.0
C422 C 0.26363 0.47629 0.76671 0.0
C423 C 0.24193 0.43087 0.76881 0.0
C424 C 0.30944 0.50039 0.7653 0.0
C425 C 0.26663 0.41013 0.7674 0.0
C426 C 0.31167 0.43365 0.76492 0.0
C427 C 0.37905 0.50249 0.76447 0.0
C428 C 0.40152 0.54791 0.76543 0.0
C429 C 0.33351 0.47877 0.76464 0.0
C430 C 0.37721 0.56911 0.76547 0.0
C431 C 0.33181 0.54569 0.76543 0.0
H432 H 0.17657 0.25557 0.3042 0.0
H433 H 0.09369 0.13123 0.22976 0.0
H434 H 0.03628 0.14885 0.21888 0.0
H435 H 1.01108 0.19866 0.22762 0.0
H436 H 0.09155 0.3256 0.29767 0.0
H437 H 0.1493 0.30786 0.3132 0.0
C438 C 0.14574 0.23251 0.28589 0.0
C439 C 0.13898 0.19218 0.26758 0.0
C440 C 0.11312 0.24339 0.27862 0.0
C441 C 0.09932 0.16237 0.24377 0.0
C442 C 0.06671 0.1725 0.23752 0.0
C443 C 0.04119 0.22328 0.24588 0.0
C444 C 0.04669 0.26378 0.26135 0.0
C445 C 0.07357 0.21299 0.25408 0.0
C446 C 0.0862 0.29423 0.28545 0.0
C447 C 0.11914 0.284 0.29431 0.0
H448 H 0.10431 0.85104 0.26968 0.0
H449 H 0.06426 0.946 0.28971 0.0
H450 H 0.13898 1.00249 0.29811 0.0
H451 H 0.21301 0.02466 0.29828 0.0
H452 H 0.25904 0.93638 0.26187 0.0
H453 H 0.18365 0.87599 0.26594 0.0
C454 C 0.11224 0.88422 0.27543 0.0
C455 C 0.07899 0.89452 0.27951 0.0
C456 C 0.15567 0.917 0.27865 0.0
C457 C 0.08928 0.93734 0.28747 0.0
C458 C 0.13189 0.96956 0.29223 0.0
C459 C 0.20731 0.9925 0.2896 0.0
C460 C 0.24165 0.9853 0.27697 0.0
C461 C 0.16496 0.95961 0.28762 0.0
C462 C 0.23309 0.94288 0.27021 0.0
C463 C 0.19009 0.90863 0.27201 0.0
H464 H 0.79201 0.92553 0.32526 0.0
H465 H 0.84409 0.94441 0.15923 0.0
H466 H 0.81322 0.86705 0.14819 0.0
H467 H 0.77751 0.79551 0.18776 0.0
H468 H 0.73038 0.77438 0.35581 0.0
H469 H 0.75189 0.851 0.36378 0.0
C470 C 0.79652 0.91257 0.28677 0.0
C471 C 0.81996 0.9407 0.24286 0.0
C472 C 0.77872 0.86771 0.2807 0.0
C473 C 0.8256 0.9235 0.19322 0.0
C474 C 0.80792 0.87925 0.18683 0.0
C475 C 0.76968 0.80714 0.22505 0.0
C476 C 0.75092 0.77911 0.27037 0.0
C477 C 0.78457 0.8512 0.23022 0.0
C478 C 0.74313 0.79502 0.31962 0.0
C479 C 0.75652 0.83904 0.32455 0.0
H480 H 0.22027 0.12842 0.68944 0.0
H481 H 0.191 0.12363 0.86461 0.0
H482 H 0.22667 0.08195 0.88292 0.0
H483 H 0.26157 0.04252 0.84759 0.0
H484 H 0.29443 0.05196 0.67433 0.0
H485 H 0.2648 0.09909 0.65739 0.0
C486 C 0.22243 0.11928 0.73192 0.0
C487 C 0.20241 0.12894 0.77526 0.0
C488 C 0.24489 0.09734 0.7428 0.0
C489 C 0.2048 0.1156 0.82986 0.0
C490 C 0.22597 0.09246 0.8407 0.0
C491 C 0.26442 0.05702 0.80693 0.0
C492 C 0.28115 0.04481 0.76238 0.0
C493 C 0.24593 0.08298 0.7974 0.0
C494 C 0.28319 0.06218 0.70939 0.0
C495 C 0.26514 0.08823 0.69951 0.0
H496 H 0.93508 0.77437 0.72685 0.0
H497 H 0.97002 0.87781 0.84463 0.0
H498 H 0.89414 0.85496 0.8578 0.0
H499 H 0.81985 0.81091 0.83004 0.0
H500 H 0.78189 0.70979 0.70865 0.0
H501 H 0.85752 0.72604 0.70287 0.0
C502 C 0.92598 0.79188 0.75528 0.0
C503 C 0.95815 0.82788 0.78464 0.0
C504 C 0.88211 0.77881 0.7622 0.0
C505 C 0.94596 0.84987 0.82201 0.0
C506 C 0.90264 0.83691 0.82944 0.0
C507 C 0.82786 0.79149 0.80337 0.0
C508 C 0.79552 0.75878 0.77043 0.0
C509 C 0.87076 0.80196 0.79922 0.0
C510 C 0.80619 0.73434 0.73541 0.0
C511 C 0.84942 0.74417 0.73158 0.0
H512 H 0.02134 0.21878 0.83949 0.0
H513 H 0.94551 0.25251 0.73226 0.0
H514 H 0.88863 0.17629 0.7278 0.0
H515 H 0.86568 0.09944 0.74545 0.0
H516 H 0.94835 0.06809 0.8435 0.0
H517 H 0.99799 0.14426 0.85982 0.0
C518 C 0.99167 0.20959 0.81652 0.0
C519 C 0.98764 0.24084 0.78574 0.0
C520 C 0.96112 0.16603 0.81125 0.0
C521 C 0.94931 0.22889 0.75614 0.0
C522 C 0.91722 0.18528 0.75294 0.0
C523 C 0.89473 0.10929 0.76999 0.0
C524 C 0.90321 0.07794 0.79324 0.0
C525 C 0.92379 0.15342 0.77833 0.0
C526 C 0.94068 0.09134 0.8257 0.0
C527 C 0.9691 0.1349 0.83511 0.0
loop_
_geom_bond_atom_site_label_1
_geom_bond_atom_site_label_2
_geom_bond_distance
_geom_bond_site_symmetry_2
_ccdc_geom_bond_type
Tb0 C9 2.764 . S
Tb0 O10 2.325 . S
Tb0 O13 2.303 . S
Tb0 O17 2.322 . S
Tb0 O18 2.349 . S
Tb0 O21 2.415 . S
Tb0 O22 2.399 . S
Tb1 O11 2.322 . S
Tb1 O12 2.349 . S
Tb1 O14 2.415 . S
Tb1 O15 2.399 . S
Tb1 O16 2.325 . S
Tb1 O19 2.303 . S
Tb1 C30 2.764 . S
C2 O18 1.261 . S
C2 O19 1.257 . S
C3 C6 1.358 . S
C3 C7 1.332 . S
C3 C9 1.504 . S
C4 C5 1.373 . S
C4 C8 1.308 . S
C5 C4 1.373 . S
C5 C6 1.429 . S
C5 H32 0.932 . S
C6 C3 1.358 . S
C6 C5 1.429 . S
C6 H33 0.930 . S
C7 C3 1.332 . S
C7 C8 1.394 . S
C7 H34 0.932 . S
C8 C4 1.308 . S
C8 C7 1.394 . S
C8 H35 0.929 . S
C9 Tb0 2.764 . S
C9 C3 1.504 . S
C9 O21 1.239 . S
C9 O22 1.263 . S
O10 Tb0 2.325 . S
O10 C20 1.236 . S
O11 Tb1 2.322 . S
O11 C20 1.257 . S
O12 Tb1 2.349 . S
O12 C23 1.261 . S
O13 Tb0 2.303 . S
O13 C23 1.257 . S
O14 Tb1 2.415 . S
O14 C30 1.239 . S
O15 Tb1 2.399 . S
O15 C30 1.263 . S
O16 Tb1 2.325 . S
O16 C31 1.236 . S
O17 Tb0 2.322 . S
O17 C31 1.257 . S
O18 Tb0 2.349 . S
O18 C2 1.261 . S
O19 Tb1 2.303 . S
O19 C2 1.257 . S
C20 O10 1.236 . S
C20 O11 1.257 . S
O21 Tb0 2.415 . S
O21 C9 1.239 . S
O22 Tb0 2.399 . S
O22 C9 1.263 . S
C23 O12 1.261 . S
C23 O13 1.257 . S
C24 C27 1.358 . S
C24 C28 1.332 . S
C24 C30 1.504 . S
C25 C26 1.373 . S
C25 C29 1.308 . S
C26 C25 1.373 . S
C26 C27 1.429 . S
C26 H36 0.932 . S
C27 C24 1.358 . S
C27 C26 1.429 . S
C27 H37 0.930 . S
C28 C24 1.332 . S
C28 C29 1.394 . S
C28 H38 0.932 . S
C29 C25 1.308 . S
C29 C28 1.394 . S
C29 H39 0.929 . S
C30 Tb1 2.764 . S
C30 O14 1.239 . S
C30 O15 1.263 . S
C30 C24 1.504 . S
C31 O16 1.236 . S
C31 O17 1.257 . S
H32 C5 0.932 . S
H33 C6 0.930 . S
H34 C7 0.932 . S
H35 C8 0.929 . S
H36 C26 0.932 . S
H37 C27 0.930 . S
H38 C28 0.932 . S
H39 C29 0.929 . S
Tb40 C49 2.764 . S
Tb40 O50 2.325 . S
Tb40 O53 2.303 . S
Tb40 O57 2.322 . S
Tb40 O58 2.349 . S
Tb40 O61 2.415 . S
Tb40 O62 2.399 . S
Tb41 O51 2.322 . S
Tb41 O52 2.349 . S
Tb41 O54 2.415 . S
Tb41 O55 2.399 . S
Tb41 O56 2.325 . S
Tb41 O59 2.303 . S
Tb41 C70 2.764 . S
C42 O58 1.261 . S
C42 O59 1.257 . S
C43 C46 1.358 . S
C43 C47 1.332 . S
C43 C49 1.504 . S
C44 C45 1.373 . S
C44 C48 1.308 1_455 S
C45 C44 1.373 . S
C45 C46 1.429 1_455 S
C45 H72 0.932 . S
C46 C43 1.358 . S
C46 C45 1.429 1_655 S
C46 H73 0.930 . S
C47 C43 1.332 . S
C47 C48 1.394 . S
C47 H74 0.932 . S
C48 C44 1.308 1_655 S
C48 C47 1.394 . S
C48 H75 0.929 . S
C49 Tb40 2.764 . S
C49 C43 1.504 . S
C49 O61 1.239 . S
C49 O62 1.263 . S
O50 Tb40 2.325 . S
O50 C60 1.236 . S
O51 Tb41 2.322 . S
O51 C60 1.257 . S
O52 Tb41 2.349 . S
O52 C63 1.261 . S
O53 Tb40 2.303 . S
O53 C63 1.257 . S
O54 Tb41 2.415 . S
O54 C70 1.239 . S
O55 Tb41 2.399 . S
O55 C70 1.263 . S
O56 Tb41 2.325 . S
O56 C71 1.236 . S
O57 Tb40 2.322 . S
O57 C71 1.257 . S
O58 Tb40 2.349 . S
O58 C42 1.261 . S
O59 Tb41 2.303 . S
O59 C42 1.257 . S
C60 O50 1.236 . S
C60 O51 1.257 . S
O61 Tb40 2.415 . S
O61 C49 1.239 . S
O62 Tb40 2.399 . S
O62 C49 1.263 . S
C63 O52 1.261 . S
C63 O53 1.257 . S
C64 C67 1.358 . S
C64 C68 1.332 . S
C64 C70 1.504 . S
C65 C66 1.373 . S
C65 C69 1.308 . S
C66 C65 1.373 . S
C66 C67 1.429 . S
C66 H76 0.932 . S
C67 C64 1.358 . S
C67 C66 1.429 . S
C67 H77 0.930 . S
C68 C64 1.332 . S
C68 C69 1.394 . S
C68 H78 0.932 . S
C69 C65 1.308 . S
C69 C68 1.394 . S
C69 H79 0.929 . S
C70 Tb41 2.764 . S
C70 O54 1.239 . S
C70 O55 1.263 . S
C70 C64 1.504 . S
C71 O56 1.236 . S
C71 O57 1.257 . S
H72 C45 0.932 . S
H73 C46 0.930 . S
H74 C47 0.932 . S
H75 C48 0.929 . S
H76 C66 0.932 . S
H77 C67 0.930 . S
H78 C68 0.932 . S
H79 C69 0.929 . S
Tb80 C89 2.764 . S
Tb80 O90 2.325 . S
Tb80 O93 2.303 . S
Tb80 O97 2.322 . S
Tb80 O98 2.349 . S
Tb80 O101 2.415 . S
Tb80 O102 2.399 . S
Tb81 O91 2.322 . S
Tb81 O92 2.349 . S
Tb81 O94 2.415 . S
Tb81 O95 2.399 . S
Tb81 O96 2.325 . S
Tb81 O99 2.303 . S
Tb81 C110 2.764 . S
C82 O98 1.261 . S
C82 O99 1.257 . S
C83 C86 1.358 . S
C83 C87 1.332 . S
C83 C89 1.504 . S
C84 C85 1.373 . S
C84 C88 1.308 1_565 S
C85 C84 1.373 . S
C85 C86 1.429 1_565 S
C85 H112 0.932 . S
C86 C83 1.358 . S
C86 C85 1.429 1_545 S
C86 H113 0.930 . S
C87 C83 1.332 . S
C87 C88 1.394 . S
C87 H114 0.932 . S
C88 C84 1.308 1_545 S
C88 C87 1.394 . S
C88 H115 0.929 . S
C89 Tb80 2.764 . S
C89 C83 1.504 . S
C89 O101 1.239 . S
C89 O102 1.263 . S
O90 Tb80 2.325 . S
O90 C100 1.236 . S
O91 Tb81 2.322 . S
O91 C100 1.257 . S
O92 Tb81 2.349 . S
O92 C103 1.261 . S
O93 Tb80 2.303 . S
O93 C103 1.257 . S
O94 Tb81 2.415 . S
O94 C110 1.239 . S
O95 Tb81 2.399 . S
O95 C110 1.263 . S
O96 Tb81 2.325 . S
O96 C111 1.236 . S
O97 Tb80 2.322 . S
O97 C111 1.257 . S
O98 Tb80 2.349 . S
O98 C82 1.261 . S
O99 Tb81 2.303 . S
O99 C82 1.257 . S
C100 O90 1.236 . S
C100 O91 1.257 . S
O101 Tb80 2.415 . S
O101 C89 1.239 . S
O102 Tb80 2.399 . S
O102 C89 1.263 . S
C103 O92 1.261 . S
C103 O93 1.257 . S
C104 C107 1.358 . S
C104 C108 1.332 . S
C104 C110 1.504 . S
C105 C106 1.373 . S
C105 C109 1.308 . S
C106 C105 1.373 . S
C106 C107 1.429 . S
C106 H116 0.932 . S
C107 C104 1.358 . S
C107 C106 1.429 . S
C107 H117 0.930 . S
C108 C104 1.332 . S
C108 C109 1.394 . S
C108 H118 0.932 . S
C109 C105 1.308 . S
C109 C108 1.394 . S
C109 H119 0.929 . S
C110 Tb81 2.764 . S
C110 O94 1.239 . S
C110 O95 1.263 . S
C110 C104 1.504 . S
C111 O96 1.236 . S
C111 O97 1.257 . S
H112 C85 0.932 . S
H113 C86 0.930 . S
H114 C87 0.932 . S
H115 C88 0.929 . S
H116 C106 0.932 . S
H117 C107 0.930 . S
H118 C108 0.932 . S
H119 C109 0.929 . S
Tb120 C129 2.764 . S
Tb120 O130 2.325 . S
Tb120 O133 2.303 . S
Tb120 O137 2.322 . S
Tb120 O138 2.349 . S
Tb120 O141 2.415 . S
Tb120 O142 2.399 . S
Tb121 O131 2.322 . S
Tb121 O132 2.349 . S
Tb121 O134 2.415 . S
Tb121 O135 2.399 . S
Tb121 O136 2.325 . S
Tb121 O139 2.303 . S
Tb121 C150 2.764 . S
C122 O138 1.261 . S
C122 O139 1.257 . S
C123 C126 1.358 . S
C123 C127 1.332 . S
C123 C129 1.504 . S
C124 C125 1.373 . S
C124 C128 1.308 . S
C125 C124 1.373 . S
C125 C126 1.429 . S
C125 H152 0.932 . S
C126 C123 1.358 . S
C126 C125 1.429 . S
C126 H153 0.930 . S
C127 C123 1.332 . S
C127 C128 1.394 . S
C127 H154 0.932 . S
C128 C124 1.308 . S
C128 C127 1.394 . S
C128 H155 0.929 . S
C129 Tb120 2.764 . S
C129 C123 1.504 . S
C129 O141 1.239 . S
C129 O142 1.263 . S
O130 Tb120 2.325 . S
O130 C140 1.236 . S
O131 Tb121 2.322 . S
O131 C140 1.257 . S
O132 Tb121 2.349 . S
O132 C143 1.261 . S
O133 Tb120 2.303 . S
O133 C143 1.257 . S
O134 Tb121 2.415 . S
O134 C150 1.239 . S
O135 Tb121 2.399 . S
O135 C150 1.263 . S
O136 Tb121 2.325 . S
O136 C151 1.236 . S
O137 Tb120 2.322 . S
O137 C151 1.257 . S
O138 Tb120 2.349 . S
O138 C122 1.261 . S
O139 Tb121 2.303 . S
O139 C122 1.257 . S
C140 O130 1.236 . S
C140 O131 1.257 . S
O141 Tb120 2.415 . S
O141 C129 1.239 . S
O142 Tb120 2.399 . S
O142 C129 1.263 . S
C143 O132 1.261 . S
C143 O133 1.257 . S
C144 C147 1.358 . S
C144 C148 1.332 . S
C144 C150 1.504 . S
C145 C146 1.373 . S
C145 C149 1.308 . S
C146 C145 1.373 . S
C146 C147 1.429 . S
C146 H156 0.932 . S
C147 C144 1.358 . S
C147 C146 1.429 . S
C147 H157 0.930 . S
C148 C144 1.332 . S
C148 C149 1.394 . S
C148 H158 0.932 . S
C149 C145 1.308 . S
C149 C148 1.394 . S
C149 H159 0.929 . S
C150 Tb121 2.764 . S
C150 O134 1.239 . S
C150 O135 1.263 . S
C150 C144 1.504 . S
C151 O136 1.236 . S
C151 O137 1.257 . S
H152 C125 0.932 . S
H153 C126 0.930 . S
H154 C127 0.932 . S
H155 C128 0.929 . S
H156 C146 0.932 . S
H157 C147 0.930 . S
H158 C148 0.932 . S
H159 C149 0.929 . S
Tb160 C169 2.764 . S
Tb160 O170 2.325 . S
Tb160 O173 2.303 . S
Tb160 O177 2.322 . S
Tb160 O178 2.349 . S
Tb160 O181 2.415 . S
Tb160 O182 2.399 . S
Tb161 O171 2.322 . S
Tb161 O172 2.349 . S
Tb161 O174 2.415 . S
Tb161 O175 2.399 . S
Tb161 O176 2.325 . S
Tb161 O179 2.303 . S
Tb161 C190 2.764 . S
C162 O178 1.261 . S
C162 O179 1.257 . S
C163 C166 1.358 . S
C163 C167 1.332 . S
C163 C169 1.504 . S
C164 C165 1.373 . S
C164 C168 1.308 . S
C165 C164 1.373 . S
C165 C166 1.429 . S
C165 H192 0.932 . S
C166 C163 1.358 . S
C166 C165 1.429 . S
C166 H193 0.930 . S
C167 C163 1.332 . S
C167 C168 1.394 . S
C167 H194 0.932 . S
C168 C164 1.308 . S
C168 C167 1.394 . S
C168 H195 0.929 . S
C169 Tb160 2.764 . S
C169 C163 1.504 . S
C169 O181 1.239 . S
C169 O182 1.263 . S
O170 Tb160 2.325 . S
O170 C180 1.236 . S
O171 Tb161 2.322 . S
O171 C180 1.257 . S
O172 Tb161 2.349 . S
O172 C183 1.261 . S
O173 Tb160 2.303 . S
O173 C183 1.257 . S
O174 Tb161 2.415 . S
O174 C190 1.239 . S
O175 Tb161 2.399 . S
O175 C190 1.263 . S
O176 Tb161 2.325 . S
O176 C191 1.236 . S
O177 Tb160 2.322 . S
O177 C191 1.257 . S
O178 Tb160 2.349 . S
O178 C162 1.261 . S
O179 Tb161 2.303 . S
O179 C162 1.257 . S
C180 O170 1.236 . S
C180 O171 1.257 . S
O181 Tb160 2.415 . S
O181 C169 1.239 . S
O182 Tb160 2.399 . S
O182 C169 1.263 . S
C183 O172 1.261 . S
C183 O173 1.257 . S
C184 C187 1.358 . S
C184 C188 1.332 . S
C184 C190 1.504 . S
C185 C186 1.373 . S
C185 C189 1.308 1_655 S
C186 C185 1.373 . S
C186 C187 1.429 1_655 S
C186 H196 0.932 . S
C187 C184 1.358 . S
C187 C186 1.429 1_455 S
C187 H197 0.930 . S
C188 C184 1.332 . S
C188 C189 1.394 . S
C188 H198 0.932 . S
C189 C185 1.308 1_455 S
C189 C188 1.394 . S
C189 H199 0.929 . S
C190 Tb161 2.764 . S
C190 O174 1.239 . S
C190 O175 1.263 . S
C190 C184 1.504 . S
C191 O176 1.236 . S
C191 O177 1.257 . S
H192 C165 0.932 . S
H193 C166 0.930 . S
H194 C167 0.932 . S
H195 C168 0.929 . S
H196 C186 0.932 . S
H197 C187 0.930 . S
H198 C188 0.932 . S
H199 C189 0.929 . S
Tb200 C209 2.764 . S
Tb200 O210 2.325 . S
Tb200 O213 2.303 . S
Tb200 O217 2.322 . S
Tb200 O218 2.349 . S
Tb200 O221 2.415 . S
Tb200 O222 2.399 . S
Tb201 O211 2.322 . S
Tb201 O212 2.349 . S
Tb201 O214 2.415 . S
Tb201 O215 2.399 . S
Tb201 O216 2.325 . S
Tb201 O219 2.303 . S
Tb201 C230 2.764 . S
C202 O218 1.261 . S
C202 O219 1.257 . S
C203 C206 1.358 . S
C203 C207 1.332 . S
C203 C209 1.504 . S
C204 C205 1.373 . S
C204 C208 1.308 . S
C205 C204 1.373 . S
C205 C206 1.429 . S
C205 H232 0.932 . S
C206 C203 1.358 . S
C206 C205 1.429 . S
C206 H233 0.930 . S
C207 C203 1.332 . S
C207 C208 1.394 . S
C207 H234 0.932 . S
C208 C204 1.308 . S
C208 C207 1.394 . S
C208 H235 0.929 . S
C209 Tb200 2.764 . S
C209 C203 1.504 . S
C209 O221 1.239 . S
C209 O222 1.263 . S
O210 Tb200 2.325 . S
O210 C220 1.236 . S
O211 Tb201 2.322 . S
O211 C220 1.257 . S
O212 Tb201 2.349 . S
O212 C223 1.261 . S
O213 Tb200 2.303 . S
O213 C223 1.257 . S
O214 Tb201 2.415 . S
O214 C230 1.239 . S
O215 Tb201 2.399 . S
O215 C230 1.263 . S
O216 Tb201 2.325 . S
O216 C231 1.236 . S
O217 Tb200 2.322 . S
O217 C231 1.257 . S
O218 Tb200 2.349 . S
O218 C202 1.261 . S
O219 Tb201 2.303 . S
O219 C202 1.257 . S
C220 O210 1.236 . S
C220 O211 1.257 . S
O221 Tb200 2.415 . S
O221 C209 1.239 . S
O222 Tb200 2.399 . S
O222 C209 1.263 . S
C223 O212 1.261 . S
C223 O213 1.257 . S
C224 C227 1.358 . S
C224 C228 1.332 . S
C224 C230 1.504 . S
C225 C226 1.373 . S
C225 C229 1.308 1_545 S
C226 C225 1.373 . S
C226 C227 1.429 1_545 S
C226 H236 0.932 . S
C227 C224 1.358 . S
C227 C226 1.429 1_565 S
C227 H237 0.930 . S
C228 C224 1.332 . S
C228 C229 1.394 . S
C228 H238 0.932 . S
C229 C225 1.308 1_565 S
C229 C228 1.394 . S
C229 H239 0.929 . S
C230 Tb201 2.764 . S
C230 O214 1.239 . S
C230 O215 1.263 . S
C230 C224 1.504 . S
C231 O216 1.236 . S
C231 O217 1.257 . S
H232 C205 0.932 . S
H233 C206 0.930 . S
H234 C207 0.932 . S
H235 C208 0.929 . S
H236 C226 0.932 . S
H237 C227 0.930 . S
H238 C228 0.932 . S
H239 C229 0.929 . S
H240 C246 0.938 . S
H241 C249 0.930 . S
H242 C250 0.930 . S
H243 C251 0.938 . S
H244 C254 0.930 . S
H245 C255 0.930 . S
C246 H240 0.938 . S
C246 C247 1.355 . S
C246 C248 1.415 1_556 S
C247 C246 1.355 . S
C247 C249 1.419 . S
C248 C246 1.415 1_554 S
C248 C253 1.425 1_564 S
C248 C255 1.409 . S
C249 H241 0.930 . S
C249 C247 1.419 . S
C249 C250 1.362 1_565 S
C250 H242 0.930 . S
C250 C249 1.362 1_545 S
C250 C253 1.409 . S
C251 H243 0.938 . S
C251 C252 1.355 . S
C251 C253 1.415 1_554 S
C252 C251 1.355 . S
C252 C254 1.419 . S
C253 C248 1.425 1_546 S
C253 C250 1.409 . S
C253 C251 1.415 1_556 S
C254 H244 0.930 . S
C254 C252 1.419 . S
C254 C255 1.362 1_545 S
C255 H245 0.930 . S
C255 C248 1.409 . S
C255 C254 1.362 1_565 S
H256 C262 0.930 . S
H257 C265 0.930 . S
H258 C266 0.930 . S
H259 C267 0.930 . S
H260 C270 0.930 . S
H261 C271 0.930 . S
C262 H256 0.930 . S
C262 C263 1.355 . S
C262 C264 1.415 . S
C263 C262 1.355 . S
C263 C265 1.419 . S
C264 C262 1.415 . S
C264 C269 1.425 . S
C264 C271 1.409 . S
C265 H257 0.930 . S
C265 C263 1.419 . S
C265 C266 1.362 . S
C266 H258 0.930 . S
C266 C265 1.362 . S
C266 C269 1.409 . S
C267 H259 0.930 . S
C267 C268 1.355 . S
C267 C269 1.415 . S
C268 C267 1.355 . S
C268 C270 1.419 . S
C269 C264 1.425 . S
C269 C266 1.409 . S
C269 C267 1.415 . S
C270 H260 0.930 . S
C270 C268 1.419 . S
C270 C271 1.362 . S
C271 H261 0.930 . S
C271 C264 1.409 . S
C271 C270 1.362 . S
H272 C278 0.930 . S
H273 C281 0.930 . S
H274 C282 0.930 . S
H275 C283 0.930 . S
H276 C286 0.930 . S
H277 C287 0.930 . S
C278 H272 0.930 . S
C278 C279 1.355 . S
C278 C280 1.415 1_554 S
C279 C278 1.355 . S
C279 C281 1.419 . S
C280 C278 1.415 1_556 S
C280 C285 1.425 1_656 S
C280 C287 1.409 . S
C281 H273 0.930 . S
C281 C279 1.419 . S
C281 C282 1.362 1_655 S
C282 H274 0.930 . S
C282 C281 1.362 1_455 S
C282 C285 1.409 . S
C283 H275 0.930 . S
C283 C284 1.355 . S
C283 C285 1.415 1_556 S
C284 C283 1.355 . S
C284 C286 1.419 . S
C285 C280 1.425 1_454 S
C285 C282 1.409 . S
C285 C283 1.415 1_554 S
C286 H276 0.930 . S
C286 C284 1.419 . S
C286 C287 1.362 1_455 S
C287 H277 0.930 . S
C287 C280 1.409 . S
C287 C286 1.362 1_655 S
H288 C294 0.930 . S
H289 C297 0.930 . S
H290 C298 0.930 . S
H291 C299 0.930 . S
H292 C302 0.930 . S
H293 C303 0.930 . S
C294 H288 0.930 . S
C294 C295 1.355 . S
C294 C296 1.415 1_545 S
C295 C294 1.355 . S
C295 C297 1.419 . S
C296 C294 1.415 1_565 S
C296 C301 1.425 1_565 S
C296 C303 1.409 . S
C297 H289 0.930 . S
C297 C295 1.419 . S
C297 C298 1.362 . S
C298 H290 0.930 . S
C298 C297 1.362 . S
C298 C301 1.409 . S
C299 H291 0.930 . S
C299 C300 1.355 . S
C299 C301 1.415 1_565 S
C300 C299 1.355 . S
C300 C302 1.419 . S
C301 C296 1.425 1_545 S
C301 C298 1.409 . S
C301 C299 1.415 1_545 S
C302 H292 0.930 . S
C302 C300 1.419 . S
C302 C303 1.362 . S
C303 H293 0.930 . S
C303 C296 1.409 . S
C303 C302 1.362 . S
H304 C310 0.930 . S
H305 C313 0.930 . S
H306 C314 0.930 . S
H307 C315 0.930 . S
H308 C318 0.930 . S
H309 C319 0.930 . S
C310 H304 0.930 . S
C310 C311 1.355 . S
C310 C312 1.415 1_556 S
C311 C310 1.355 . S
C311 C313 1.419 . S
C312 C310 1.415 1_554 S
C312 C317 1.425 1_554 S
C312 C319 1.409 . S
C313 H305 0.930 . S
C313 C311 1.419 . S
C313 C314 1.362 . S
C314 H306 0.930 . S
C314 C313 1.362 . S
C314 C317 1.409 . S
C315 H307 0.930 . S
C315 C316 1.355 . S
C315 C317 1.415 1_554 S
C316 C315 1.355 . S
C316 C318 1.419 . S
C317 C312 1.425 1_556 S
C317 C314 1.409 . S
C317 C315 1.415 1_556 S
C318 H308 0.930 . S
C318 C316 1.419 . S
C318 C319 1.362 . S
C319 H309 0.930 . S
C319 C312 1.409 . S
C319 C318 1.362 . S
H320 C326 0.930 . S
H321 C329 0.930 . S
H322 C330 0.930 . S
H323 C331 0.930 . S
H324 C334 0.930 . S
H325 C335 0.930 . S
C326 H320 0.930 . S
C326 C327 1.355 . S
C326 C328 1.415 . S
C327 C326 1.355 . S
C327 C329 1.419 . S
C328 C326 1.415 . S
C328 C333 1.425 1_655 S
C328 C335 1.409 . S
C329 H321 0.930 . S
C329 C327 1.419 . S
C329 C330 1.362 1_655 S
C330 H322 0.930 . S
C330 C329 1.362 1_455 S
C330 C333 1.409 . S
C331 H323 0.930 . S
C331 C332 1.355 . S
C331 C333 1.415 . S
C332 C331 1.355 . S
C332 C334 1.419 . S
C333 C328 1.425 1_455 S
C333 C330 1.409 . S
C333 C331 1.415 . S
C334 H324 0.930 . S
C334 C332 1.419 . S
C334 C335 1.362 1_455 S
C335 H325 0.930 . S
C335 C328 1.409 . S
C335 C334 1.362 1_655 S
H336 C342 0.930 . S
H337 C345 0.930 . S
H338 C346 0.930 . S
H339 C347 0.930 . S
H340 C350 0.930 . S
H341 C351 0.930 . S
C342 H336 0.930 . S
C342 C343 1.355 . S
C342 C344 1.415 . S
C343 C342 1.355 . S
C343 C345 1.419 . S
C344 C342 1.415 . S
C344 C349 1.425 . S
C344 C351 1.409 . S
C345 H337 0.930 . S
C345 C343 1.419 . S
C345 C346 1.362 . S
C346 H338 0.930 . S
C346 C345 1.362 . S
C346 C349 1.409 . S
C347 H339 0.930 . S
C347 C348 1.355 . S
C347 C349 1.415 . S
C348 C347 1.355 . S
C348 C350 1.419 . S
C349 C344 1.425 . S
C349 C346 1.409 . S
C349 C347 1.415 . S
C350 H340 0.930 . S
C350 C348 1.419 . S
C350 C351 1.362 . S
C351 H341 0.930 . S
C351 C344 1.409 . S
C351 C350 1.362 . S
H352 C358 0.930 . S
H353 C361 0.930 . S
H354 C362 0.930 . S
H355 C363 0.930 . S
H356 C366 0.930 . S
H357 C367 0.930 . S
C358 H352 0.930 . S
C358 C359 1.355 . S
C358 C360 1.415 . S
C359 C358 1.355 . S
C359 C361 1.419 . S
C360 C358 1.415 . S
C360 C365 1.425 . S
C360 C367 1.409 . S
C361 H353 0.930 . S
C361 C359 1.419 . S
C361 C362 1.362 . S
C362 H354 0.930 . S
C362 C361 1.362 . S
C362 C365 1.409 . S
C363 H355 0.930 . S
C363 C364 1.355 . S
C363 C365 1.415 . S
C364 C363 1.355 . S
C364 C366 1.419 . S
C365 C360 1.425 . S
C365 C362 1.409 . S
C365 C363 1.415 . S
C366 H356 0.930 . S
C366 C364 1.419 . S
C366 C367 1.362 . S
C367 H357 0.930 . S
C367 C360 1.409 . S
C367 C366 1.362 . S
H368 C374 0.930 . S
H369 C377 0.930 . S
H370 C378 0.930 . S
H371 C379 0.930 . S
H372 C382 0.930 . S
H373 C383 0.930 . S
C374 H368 0.930 . S
C374 C375 1.355 . S
C374 C376 1.415 . S
C375 C374 1.355 . S
C375 C377 1.419 . S
C376 C374 1.415 . S
C376 C381 1.425 . S
C376 C383 1.409 . S
C377 H369 0.930 . S
C377 C375 1.419 . S
C377 C378 1.362 . S
C378 H370 0.930 . S
C378 C377 1.362 . S
C378 C381 1.409 . S
C379 H371 0.930 . S
C379 C380 1.355 . S
C379 C381 1.415 . S
C380 C379 1.355 . S
C380 C382 1.419 . S
C381 C376 1.425 . S
C381 C378 1.409 . S
C381 C379 1.415 . S
C382 H372 0.930 . S
C382 C380 1.419 . S
C382 C383 1.362 . S
C383 H373 0.930 . S
C383 C376 1.409 . S
C383 C382 1.362 . S
H384 C390 0.930 . S
H385 C393 0.930 . S
H386 C394 0.930 . S
H387 C395 0.930 . S
H388 C398 0.930 . S
H389 C399 0.930 . S
C390 H384 0.930 . S
C390 C391 1.355 . S
C390 C392 1.415 . S
C391 C390 1.355 . S
C391 C393 1.419 . S
C392 C390 1.415 . S
C392 C397 1.425 . S
C392 C399 1.409 . S
C393 H385 0.930 . S
C393 C391 1.419 . S
C393 C394 1.362 . S
C394 H386 0.930 . S
C394 C393 1.362 . S
C394 C397 1.409 . S
C395 H387 0.930 . S
C395 C396 1.355 . S
C395 C397 1.415 . S
C396 C395 1.355 . S
C396 C398 1.419 . S
C397 C392 1.425 . S
C397 C394 1.409 . S
C397 C395 1.415 . S
C398 H388 0.930 . S
C398 C396 1.419 . S
C398 C399 1.362 . S
C399 H389 0.930 . S
C399 C392 1.409 . S
C399 C398 1.362 . S
H400 C406 0.930 . S
H401 C409 0.930 . S
H402 C410 0.930 . S
H403 C411 0.930 . S
H404 C414 0.930 . S
H405 C415 0.930 . S
C406 H400 0.930 . S
C406 C407 1.355 . S
C406 C408 1.415 . S
C407 C406 1.355 . S
C407 C409 1.419 . S
C408 C406 1.415 . S
C408 C413 1.425 . S
C408 C415 1.409 . S
C409 H401 0.930 . S
C409 C407 1.419 . S
C409 C410 1.362 . S
C410 H402 0.930 . S
C410 C409 1.362 . S
C410 C413 1.409 . S
C411 H403 0.930 . S
C411 C412 1.355 . S
C411 C413 1.415 . S
C412 C411 1.355 . S
C412 C414 1.419 . S
C413 C408 1.425 . S
C413 C410 1.409 . S
C413 C411 1.415 . S
C414 H404 0.930 . S
C414 C412 1.419 . S
C414 C415 1.362 . S
C415 H405 0.930 . S
C415 C408 1.409 . S
C415 C414 1.362 . S
H416 C422 0.930 . S
H417 C425 0.930 . S
H418 C426 0.930 . S
H419 C427 0.930 . S
H420 C430 0.930 . S
H421 C431 0.930 . S
C422 H416 0.930 . S
C422 C423 1.355 . S
C422 C424 1.415 . S
C423 C422 1.355 . S
C423 C425 1.419 . S
C424 C422 1.415 . S
C424 C429 1.425 . S
C424 C431 1.409 . S
C425 H417 0.930 . S
C425 C423 1.419 . S
C425 C426 1.362 . S
C426 H418 0.930 . S
C426 C425 1.362 . S
C426 C429 1.409 . S
C427 H419 0.930 . S
C427 C428 1.355 . S
C427 C429 1.415 . S
C428 C427 1.355 . S
C428 C430 1.419 . S
C429 C424 1.425 . S
C429 C426 1.409 . S
C429 C427 1.415 . S
C430 H420 0.930 . S
C430 C428 1.419 . S
C430 C431 1.362 . S
C431 H421 0.930 . S
C431 C424 1.409 . S
C431 C430 1.362 . S
H432 C438 0.930 . S
H433 C441 0.930 . S
H434 C442 0.930 1_655 S
H435 C443 0.930 . S
H436 C446 0.930 . S
H437 C447 0.930 . S
C438 H432 0.930 . S
C438 C439 1.355 . S
C438 C440 1.415 . S
C439 C438 1.355 . S
C439 C441 1.419 . S
C440 C438 1.415 . S
C440 C445 1.425 . S
C440 C447 1.409 . S
C441 H433 0.930 . S
C441 C439 1.419 . S
C441 C442 1.362 . S
C442 H434 0.930 1_455 S
C442 C441 1.362 . S
C442 C445 1.409 . S
C443 H435 0.930 . S
C443 C444 1.355 1_655 S
C443 C445 1.415 1_655 S
C444 C443 1.355 1_455 S
C444 C446 1.419 . S
C445 C440 1.425 . S
C445 C442 1.409 . S
C445 C443 1.415 1_455 S
C446 H436 0.930 . S
C446 C444 1.419 . S
C446 C447 1.362 . S
C447 H437 0.930 . S
C447 C440 1.409 . S
C447 C446 1.362 . S
H448 C454 0.930 . S
H449 C457 0.930 . S
H450 C458 0.930 . S
H451 C459 0.930 . S
H452 C462 0.930 . S
H453 C463 0.930 . S
C454 H448 0.930 . S
C454 C455 1.355 . S
C454 C456 1.415 . S
C455 C454 1.355 . S
C455 C457 1.419 . S
C456 C454 1.415 . S
C456 C461 1.425 . S
C456 C463 1.409 . S
C457 H449 0.930 . S
C457 C455 1.419 . S
C457 C458 1.362 1_565 S
C458 H450 0.930 . S
C458 C457 1.362 1_545 S
C458 C461 1.409 1_545 S
C459 H451 0.930 . S
C459 C460 1.339 1_545 S
C459 C461 1.415 1_545 S
C460 C459 1.339 1_565 S
C460 C462 1.436 . S
C461 C456 1.425 . S
C461 C458 1.409 1_565 S
C461 C459 1.415 1_565 S
C462 H452 0.930 . S
C462 C460 1.436 . S
C462 C463 1.362 . S
C463 H453 0.930 . S
C463 C456 1.409 . S
C463 C462 1.362 . S
H464 C470 0.930 . S
H465 C473 0.930 . S
H466 C474 0.930 . S
H467 C475 0.930 . S
H468 C478 0.930 . S
H469 C479 0.930 . S
C470 H464 0.930 . S
C470 C471 1.355 . S
C470 C472 1.415 . S
C471 C470 1.355 . S
C471 C473 1.419 . S
C472 C470 1.415 . S
C472 C477 1.425 . S
C472 C479 1.409 . S
C473 H465 0.930 . S
C473 C471 1.419 . S
C473 C474 1.362 . S
C474 H466 0.930 . S
C474 C473 1.362 . S
C474 C477 1.409 . S
C475 H467 0.930 . S
C475 C476 1.355 . S
C475 C477 1.415 . S
C476 C475 1.355 . S
C476 C478 1.419 . S
C477 C472 1.425 . S
C477 C474 1.409 . S
C477 C475 1.415 . S
C478 H468 0.930 . S
C478 C476 1.419 . S
C478 C479 1.362 . S
C479 H469 0.930 . S
C479 C472 1.409 . S
C479 C478 1.362 . S
H480 C486 0.930 . S
H481 C489 0.930 . S
H482 C490 0.930 . S
H483 C491 0.930 . S
H484 C494 0.930 . S
H485 C495 0.930 . S
C486 H480 0.930 . S
C486 C487 1.355 . S
C486 C488 1.415 . S
C487 C486 1.355 . S
C487 C489 1.419 . S
C488 C486 1.415 . S
C488 C493 1.425 . S
C488 C495 1.409 . S
C489 H481 0.930 . S
C489 C487 1.419 . S
C489 C490 1.362 . S
C490 H482 0.930 . S
C490 C489 1.362 . S
C490 C493 1.409 . S
C491 H483 0.930 . S
C491 C492 1.355 1_545 S
C491 C493 1.415 . S
C492 C491 1.355 1_565 S
C492 C494 1.419 . S
C493 C488 1.425 . S
C493 C490 1.409 . S
C493 C491 1.415 . S
C494 H484 0.930 . S
C494 C492 1.419 . S
C494 C495 1.362 1_565 S
C495 H485 0.930 . S
C495 C488 1.409 . S
C495 C494 1.362 1_545 S
H496 C502 0.930 . S
H497 C505 0.930 . S
H498 C506 0.930 . S
H499 C507 0.930 . S
H500 C510 0.930 . S
H501 C511 0.930 . S
C502 H496 0.930 . S
C502 C503 1.355 . S
C502 C504 1.415 . S
C503 C502 1.355 . S
C503 C505 1.419 . S
C504 C502 1.415 . S
C504 C509 1.425 . S
C504 C511 1.409 . S
C505 H497 0.930 . S
C505 C503 1.419 . S
C505 C506 1.362 . S
C506 H498 0.930 . S
C506 C505 1.362 . S
C506 C509 1.409 . S
C507 H499 0.930 . S
C507 C508 1.355 . S
C507 C509 1.415 . S
C508 C507 1.355 . S
C508 C510 1.419 . S
C509 C504 1.425 . S
C509 C506 1.409 . S
C509 C507 1.415 . S
C510 H500 0.930 . S
C510 C508 1.419 . S
C510 C511 1.362 . S
C511 H501 0.930 . S
C511 C504 1.409 . S
C511 C510 1.362 . S
H512 C518 0.930 . S
H513 C521 0.930 . S
H514 C522 0.930 . S
H515 C523 0.930 . S
H516 C526 0.930 . S
H517 C527 0.930 1_455 S
C518 H512 0.930 . S
C518 C519 1.355 . S
C518 C520 1.415 1_455 S
C519 C518 1.355 . S
C519 C521 1.419 1_455 S
C520 C518 1.415 1_655 S
C520 C525 1.425 . S
C520 C527 1.409 . S
C521 H513 0.930 . S
C521 C519 1.419 1_655 S
C521 C522 1.362 . S
C522 H514 0.930 . S
C522 C521 1.362 . S
C522 C525 1.409 . S
C523 H515 0.930 . S
C523 C524 1.355 . S
C523 C525 1.415 . S
C524 C523 1.355 . S
C524 C526 1.419 . S
C525 C520 1.425 . S
C525 C522 1.409 . S
C525 C523 1.415 . S
C526 H516 0.930 . S
C526 C524 1.419 . S
C526 C527 1.362 . S
C527 H517 0.930 1_655 S
C527 C520 1.409 . S
C527 C526 1.362 . S
C247 C162 2.349 . S
C252 C2 2.421 . S
C263 C223 2.409 . S
C268 C63 2.336 . S
C279 C82 2.433 . S
C284 C122 2.361 . S
C295 C23 2.406 . S
C300 C183 2.469 . S
C311 C202 2.360 . S
C316 C42 2.432 . S
C327 C103 2.334 . S
C332 C143 2.407 . S
C343 C25 1.865 . S
C348 C111 1.872 . S
C359 C65 1.829 . S
C364 C31 1.828 . S
C375 C105 1.805 . S
C380 C71 1.811 . S
C391 C124 1.864 . S
C396 C180 1.872 . S
C407 C164 1.862 . S
C412 C220 1.872 . S
C423 C140 1.820 . S
C428 C204 1.804 . S
C439 C4 1.190 . S
C444 C100 1.196 1_455 S
C455 C44 1.199 . S
C460 C20 1.192 1_565 S
C471 C84 1.146 . S
C476 C60 1.160 . S
C487 C145 1.167 . S
C492 C191 1.147 . S
C503 C185 1.198 . S
C508 C231 1.188 . S
C519 C151 1.152 . S
C524 C225 1.171 . S
