# Generated by pormake.
# Topology vcr, (7)-cn, num edge types: 1
# Building blocks:
#     Node 0, Type 0, BuildingBlock: HICVOG_clean_sbu_0, # of connection points: 7
#     Node 1, Type 0, BuildingBlock: HICVOG_clean_sbu_0, # of connection points: 7
#     Node 2, Type 0, BuildingBlock: HICVOG_clean_sbu_0, # of connection points: 7
#     Node 3, Type 0, BuildingBlock: HICVOG_clean_sbu_0, # of connection points: 7
#     Node 4, Type 0, BuildingBlock: HICVOG_clean_sbu_0, # of connection points: 7
#     Node 5, Type 0, BuildingBlock: HICVOG_clean_sbu_0, # of connection points: 7
#     Node 6, Type 0, BuildingBlock: HICVOG_clean_sbu_0, # of connection points: 7
#     Node 7, Type 0, BuildingBlock: HICVOG_clean_sbu_0, # of connection points: 7
#     Edge 8, Type (0, 0), BuildingBlock: UVAHIK_clean_linker_0, # of connection points: 2
#     Edge 9, Type (0, 0), BuildingBlock: UVAHIK_clean_linker_0, # of connection points: 2
#     Edge 10, Type (0, 0), BuildingBlock: UVAHIK_clean_linker_0, # of connection points: 2
#     Edge 11, Type (0, 0), BuildingBlock: UVAHIK_clean_linker_0, # of connection points: 2
#     Edge 12, Type (0, 0), BuildingBlock: UVAHIK_clean_linker_0, # of connection points: 2
#     Edge 13, Type (0, 0), BuildingBlock: UVAHIK_clean_linker_0, # of connection points: 2
#     Edge 14, Type (0, 0), BuildingBlock: UVAHIK_clean_linker_0, # of connection points: 2
#     Edge 15, Type (0, 0), BuildingBlock: UVAHIK_clean_linker_0, # of connection points: 2
#     Edge 16, Type (0, 0), BuildingBlock: UVAHIK_clean_linker_0, # of connection points: 2
#     Edge 17, Type (0, 0), BuildingBlock: UVAHIK_clean_linker_0, # of connection points: 2
#     Edge 18, Type (0, 0), BuildingBlock: UVAHIK_clean_linker_0, # of connection points: 2
#     Edge 19, Type (0, 0), BuildingBlock: UVAHIK_clean_linker_0, # of connection points: 2
#     Edge 20, Type (0, 0), BuildingBlock: UVAHIK_clean_linker_0, # of connection points: 2
#     Edge 21, Type (0, 0), BuildingBlock: UVAHIK_clean_linker_0, # of connection points: 2
#     Edge 22, Type (0, 0), BuildingBlock: UVAHIK_clean_linker_0, # of connection points: 2
#     Edge 23, Type (0, 0), BuildingBlock: UVAHIK_clean_linker_0, # of connection points: 2
#     Edge 24, Type (0, 0), BuildingBlock: UVAHIK_clean_linker_0, # of connection points: 2
#     Edge 25, Type (0, 0), BuildingBlock: UVAHIK_clean_linker_0, # of connection points: 2
#     Edge 26, Type (0, 0), BuildingBlock: UVAHIK_clean_linker_0, # of connection points: 2
#     Edge 27, Type (0, 0), BuildingBlock: UVAHIK_clean_linker_0, # of connection points: 2
#     Edge 28, Type (0, 0), BuildingBlock: UVAHIK_clean_linker_0, # of connection points: 2
#     Edge 29, Type (0, 0), BuildingBlock: UVAHIK_clean_linker_0, # of connection points: 2
#     Edge 30, Type (0, 0), BuildingBlock: UVAHIK_clean_linker_0, # of connection points: 2
#     Edge 31, Type (0, 0), BuildingBlock: UVAHIK_clean_linker_0, # of connection points: 2
#     Edge 32, Type (0, 0), BuildingBlock: UVAHIK_clean_linker_0, # of connection points: 2
#     Edge 33, Type (0, 0), BuildingBlock: UVAHIK_clean_linker_0, # of connection points: 2
#     Edge 34, Type (0, 0), BuildingBlock: UVAHIK_clean_linker_0, # of connection points: 2
#     Edge 35, Type (0, 0), BuildingBlock: UVAHIK_clean_linker_0, # of connection points: 2
# Relax obj value: 0.281
# Max RMSD: 0.256
# Mean RMSD: 0.256
data_MOF--net-vcr--node1-HICVOG_clean_sbu_0--edge1-UVAHIK_clean_linker_0
_symmetry_space_group_name_H-M    P1
_symmetry_Int_Tables_number       1
_symmetry_cell_setting            triclinic
loop_
_symmetry_equiv_pos_as_xyz
'x, y, z'
_cell_length_a     43.737297
_cell_length_b     65.997174
_cell_length_c     23.733626
_cell_angle_alpha  89.948339
_cell_angle_beta   90.001102
_cell_angle_gamma 89.989606
loop_
_atom_site_label
_atom_site_type_symbol
_atom_site_fract_x
_atom_site_fract_y
_atom_site_fract_z
_atom_type_partial_charge
Zn0 Zn 0.14513 0.12239 0.15988 0.0
C1 C 0.1037 0.09537 0.02996 0.0
N2 N 0.12799 0.08292 0.03331 0.0
C3 C 0.14565 0.09195 0.07202 0.0
N4 N 0.13258 0.10887 0.09245 0.0
N5 N 0.10646 0.11127 0.06539 0.0
C6 C 0.01947 0.14429 0.04559 0.0
O7 O 0.0292 0.1623 0.06095 0.0
O8 O 0.19131 0.12174 0.16014 0.0
Zn9 Zn 0.08228 0.13571 0.06446 0.0
N10 N 0.12797 0.10775 0.22347 0.0
C11 C 0.09308 0.08274 0.25647 0.0
C12 C 0.10616 0.09362 0.21242 0.0
C13 C 0.13627 0.1121 0.27744 0.0
N14 N 0.10148 0.08693 0.31016 0.0
C15 C 0.12252 0.10149 0.32234 0.0
O16 O 0.08358 0.15333 0.13524 0.0
C17 C 0.10614 0.16084 0.16214 0.0
O18 O 0.13153 0.15151 0.16646 0.0
H19 H 0.09905 0.09066 0.16964 0.0
H20 H 0.15331 0.12367 0.28501 0.0
C21 C 0.10109 0.14455 0.95099 0.0
C22 C 0.11317 0.15669 0.90736 0.0
C23 C 0.11852 0.18384 0.97244 0.0
C24 C 0.10661 0.17177 0.01518 0.0
N25 N 0.09831 0.15236 0.00384 0.0
N26 N 0.1215 0.17606 0.9199 0.0
H27 H 0.09343 0.12923 0.94346 0.0
C28 C 0.20367 0.13382 0.12513 0.0
O29 O 0.18601 0.14583 0.09522 0.0
O30 O 0.03833 0.12965 0.04473 0.0
H31 H 0.10389 0.17795 0.05691 0.0
H32 H 0.07608 0.07122 0.24815 0.0
H33 H 0.12528 0.19931 0.98085 0.0
Zn34 Zn 0.421 0.89428 0.05895 0.0
C35 C 0.35927 0.93908 0.06728 0.0
N36 N 0.37764 0.94816 0.02976 0.0
C37 C 0.40135 0.93526 0.02594 0.0
N38 N 0.39759 0.91904 0.05999 0.0
N39 N 0.37136 0.92166 0.08657 0.0
C40 C 0.29834 0.89693 0.11936 0.0
O41 O 0.31501 0.88391 0.09088 0.0
O42 O 0.46508 0.89992 0.03753 0.0
Zn43 Zn 0.35791 0.90799 0.15335 0.0
N44 N 0.40389 0.87763 0.99927 0.0
C45 C 0.3817 0.84642 0.97049 0.0
C46 C 0.39454 0.85853 0.01209 0.0
C47 C 0.40128 0.88504 0.94588 0.0
N48 N 0.37899 0.85379 0.91744 0.0
C49 C 0.3884 0.8728 0.90329 0.0
O50 O 0.37117 0.87878 0.16057 0.0
C51 C 0.39668 0.86953 0.15747 0.0
O52 O 0.41932 0.8769 0.13041 0.0
H53 H 0.39713 0.85261 0.05413 0.0
H54 H 0.40971 0.90011 0.93715 0.0
C55 C 0.36604 0.91764 0.27125 0.0
C56 C 0.37972 0.92781 0.31698 0.0
C57 C 0.40967 0.94692 0.25261 0.0
C58 C 0.39675 0.93642 0.20777 0.0
N59 N 0.37472 0.92232 0.21769 0.0
N60 N 0.40097 0.94236 0.30593 0.0
H61 H 0.34885 0.90609 0.27785 0.0
C62 C 0.48737 0.89545 0.0696 0.0
O63 O 0.48176 0.88741 0.11918 0.0
O64 O 0.31167 0.90916 0.15266 0.0
H65 H 0.40424 0.93957 0.16531 0.0
H66 H 0.37409 0.83121 0.98014 0.0
H67 H 0.42686 0.95841 0.2452 0.0
Zn68 Zn 0.14511 0.40878 0.34039 0.0
C69 C 0.10047 0.43661 0.46584 0.0
N70 N 0.12292 0.4503 0.45914 0.0
C71 C 0.14147 0.44129 0.42186 0.0
N72 N 0.1306 0.42317 0.40532 0.0
N73 N 0.10492 0.4201 0.43331 0.0
C74 C 0.01831 0.39695 0.4341 0.0
O75 O 0.02367 0.39229 0.38122 0.0
O76 O 0.19113 0.40792 0.34656 0.0
Zn77 Zn 0.08427 0.39453 0.44125 0.0
N78 N 0.13217 0.42405 0.27472 0.0
C79 C 0.10097 0.45031 0.2369 0.0
C80 C 0.1107 0.4387 0.28244 0.0
C81 C 0.14303 0.41973 0.22233 0.0
N82 N 0.11203 0.44621 0.18482 0.0
C83 C 0.13254 0.43104 0.17587 0.0
O84 O 0.0844 0.37587 0.37304 0.0
C85 C 0.10515 0.36988 0.33922 0.0
O86 O 0.12928 0.3802 0.33022 0.0
H87 H 0.10121 0.44147 0.32371 0.0
H88 H 0.15947 0.40762 0.21706 0.0
C89 C 0.10965 0.38835 0.5515 0.0
C90 C 0.12723 0.3782 0.59237 0.0
C91 C 0.13648 0.35169 0.52706 0.0
C92 C 0.11893 0.36174 0.48687 0.0
N93 N 0.10605 0.37993 0.49961 0.0
N94 N 0.14029 0.36014 0.57862 0.0
H95 H 0.09951 0.40298 0.56011 0.0
C96 C 0.2018 0.39627 0.38447 0.0
O97 O 0.18267 0.3852 0.4141 0.0
O98 O 0.04075 0.39893 0.46769 0.0
H99 H 0.11596 0.35512 0.44572 0.0
H100 H 0.08436 0.46227 0.24271 0.0
H101 H 0.14707 0.3373 0.51734 0.0
Zn102 Zn 0.42155 0.63553 0.43907 0.0
C103 C 0.35811 0.5919 0.43031 0.0
N104 N 0.37564 0.58268 0.46892 0.0
C105 C 0.40009 0.59499 0.47242 0.0
N106 N 0.3975 0.61101 0.43725 0.0
N107 N 0.37137 0.60879 0.41014 0.0
C108 C 0.30016 0.63369 0.37762 0.0
O109 O 0.31772 0.64565 0.40781 0.0
O110 O 0.46548 0.62946 0.45942 0.0
Zn111 Zn 0.35888 0.62236 0.34276 0.0
N112 N 0.40504 0.65189 0.49977 0.0
C113 C 0.38421 0.68319 0.53111 0.0
C114 C 0.39658 0.6713 0.48852 0.0
C115 C 0.40194 0.64393 0.55242 0.0
N116 N 0.38092 0.67525 0.58344 0.0
C117 C 0.38937 0.65589 0.59591 0.0
O118 O 0.37273 0.65139 0.33583 0.0
C119 C 0.39793 0.66088 0.3409 0.0
O120 O 0.42029 0.65361 0.36895 0.0
H121 H 0.39951 0.67759 0.44694 0.0
H122 H 0.4097 0.62862 0.5599 0.0
C123 C 0.36703 0.61168 0.22542 0.0
C124 C 0.38084 0.60114 0.1805 0.0
C125 C 0.4118 0.58332 0.24609 0.0
C126 C 0.39866 0.59414 0.29013 0.0
N127 N 0.37607 0.60776 0.27925 0.0
N128 N 0.40267 0.58708 0.19253 0.0
H129 H 0.3494 0.62287 0.21795 0.0
C130 C 0.48393 0.64431 0.46196 0.0
O131 O 0.47384 0.66252 0.44938 0.0
O132 O 0.31263 0.62177 0.3424 0.0
H133 H 0.40627 0.59151 0.3328 0.0
H134 H 0.37733 0.69865 0.52276 0.0
H135 H 0.4294 0.57219 0.25429 0.0
Zn136 Zn 0.85814 0.90845 0.83913 0.0
C137 C 0.90277 0.93485 0.96689 0.0
N138 N 0.87718 0.94599 0.97143 0.0
C139 C 0.85844 0.9375 0.93344 0.0
N140 N 0.87202 0.92198 0.90621 0.0
N141 N 0.89961 0.92003 0.92816 0.0
C142 C 0.98629 0.90229 0.93226 0.0
O143 O 0.98229 0.90462 0.87777 0.0
O144 O 0.81195 0.90751 0.84378 0.0
Zn145 Zn 0.92025 0.8944 0.9342 0.0
N146 N 0.87262 0.92408 0.7748 0.0
C147 C 0.90224 0.9517 0.74041 0.0
C148 C 0.89086 0.94037 0.78513 0.0
C149 C 0.86602 0.91832 0.72106 0.0
N150 N 0.89567 0.94601 0.68693 0.0
C151 C 0.87805 0.9295 0.67548 0.0
O152 O 0.92068 0.87665 0.86407 0.0
C153 C 0.89888 0.87008 0.83339 0.0
O154 O 0.87382 0.87979 0.82818 0.0
H155 H 0.89641 0.94467 0.8278 0.0
H156 H 0.85161 0.90523 0.71434 0.0
C157 C 0.89838 0.886 0.046 0.0
C158 C 0.88216 0.87515 0.08756 0.0
C159 C 0.86656 0.85152 0.0178 0.0
C160 C 0.88264 0.86229 0.97704 0.0
N161 N 0.89826 0.8793 0.99174 0.0
N162 N 0.86676 0.85814 0.07183 0.0
H163 H 0.91141 0.89942 0.05639 0.0
C164 C 0.80186 0.89894 0.88807 0.0
O165 O 0.82158 0.89075 0.92314 0.0
O166 O 0.96339 0.89817 0.96321 0.0
H167 H 0.88261 0.85699 0.93416 0.0
H168 H 0.91647 0.96482 0.74807 0.0
H169 H 0.85406 0.83796 0.00666 0.0
Zn170 Zn 0.58127 0.13509 0.93486 0.0
C171 C 0.64632 0.0931 0.9404 0.0
N172 N 0.62765 0.08489 0.97909 0.0
C173 C 0.60205 0.09598 0.9743 0.0
N174 N 0.60519 0.11059 0.93498 0.0
N175 N 0.63265 0.10848 0.91251 0.0
C176 C 0.70384 0.13337 0.87886 0.0
O177 O 0.68596 0.14536 0.90833 0.0
O178 O 0.5371 0.12908 0.95297 0.0
Zn179 Zn 0.64556 0.12116 0.84344 0.0
N180 N 0.59663 0.1515 0.99674 0.0
C181 C 0.61786 0.18263 0.02858 0.0
C182 C 0.60661 0.17057 0.98528 0.0
C183 C 0.59726 0.14402 0.05028 0.0
N184 N 0.61864 0.17518 0.08179 0.0
C185 C 0.60871 0.15615 0.09446 0.0
O186 O 0.63155 0.15016 0.83322 0.0
C187 C 0.60647 0.15989 0.83705 0.0
O188 O 0.58377 0.15297 0.86482 0.0
H189 H 0.60573 0.1765 0.94297 0.0
H190 H 0.58844 0.12898 0.058 0.0
C191 C 0.63383 0.11139 0.72621 0.0
C192 C 0.62086 0.1 0.68198 0.0
C193 C 0.59888 0.07773 0.74946 0.0
C194 C 0.61133 0.0892 0.7929 0.0
N195 N 0.62893 0.10563 0.78063 0.0
N196 N 0.6039 0.08337 0.69531 0.0
H197 H 0.6478 0.12458 0.71781 0.0
C198 C 0.51841 0.14382 0.95332 0.0
O199 O 0.52836 0.16194 0.93953 0.0
O200 O 0.69174 0.12115 0.84399 0.0
H201 H 0.6072 0.08487 0.83612 0.0
H202 H 0.62588 0.19783 0.02005 0.0
H203 H 0.58516 0.0645 0.75865 0.0
Zn204 Zn 0.85837 0.6216 0.66028 0.0
C205 C 0.89931 0.59594 0.52777 0.0
N206 N 0.8732 0.58527 0.52433 0.0
C207 C 0.8555 0.59383 0.5639 0.0
N208 N 0.87016 0.60896 0.59088 0.0
N209 N 0.89737 0.61061 0.5672 0.0
C210 C 0.98507 0.64298 0.5483 0.0
O211 O 0.97517 0.66113 0.56196 0.0
O212 O 0.81214 0.62144 0.66225 0.0
Zn213 Zn 0.92226 0.63475 0.5674 0.0
N214 N 0.87615 0.60608 0.72194 0.0
C215 C 0.9073 0.5785 0.75171 0.0
C216 C 0.8939 0.58981 0.70886 0.0
C217 C 0.87202 0.61185 0.77651 0.0
N218 N 0.90307 0.58415 0.80605 0.0
C219 C 0.88598 0.60064 0.82009 0.0
O220 O 0.92038 0.65268 0.63753 0.0
C221 C 0.89789 0.65993 0.66522 0.0
O222 O 0.87255 0.65053 0.66929 0.0
H223 H 0.89743 0.58549 0.66548 0.0
H224 H 0.85792 0.62492 0.7855 0.0
C225 C 0.90774 0.64422 0.45199 0.0
C226 C 0.89643 0.65636 0.40771 0.0
C227 C 0.88513 0.68229 0.47398 0.0
C228 C 0.89623 0.67021 0.51741 0.0
N229 N 0.90724 0.65141 0.50577 0.0
N230 N 0.88549 0.67513 0.42049 0.0
H231 H 0.9173 0.62937 0.44424 0.0
C232 C 0.79927 0.63407 0.62946 0.0
O233 O 0.81643 0.6467 0.60059 0.0
O234 O 0.96632 0.62827 0.54892 0.0
H235 H 0.89613 0.67589 0.55996 0.0
H236 H 0.92116 0.56539 0.74191 0.0
H237 H 0.87631 0.69728 0.48263 0.0
Zn238 Zn 0.64641 0.40861 0.65922 0.0
C239 C 0.6003 0.43421 0.53121 0.0
N240 N 0.62544 0.44569 0.52598 0.0
C241 C 0.64472 0.43767 0.56396 0.0
N242 N 0.63181 0.42199 0.59193 0.0
N243 N 0.60423 0.41954 0.57014 0.0
C244 C 0.51684 0.38639 0.5605 0.0
O245 O 0.52639 0.36875 0.57921 0.0
O246 O 0.69266 0.40847 0.65479 0.0
Zn247 Zn 0.58059 0.39491 0.57141 0.0
N248 N 0.63115 0.42355 0.7246 0.0
C249 C 0.6024 0.45157 0.75902 0.0
C250 C 0.61393 0.44033 0.71429 0.0
C251 C 0.63642 0.41717 0.77843 0.0
N252 N 0.60783 0.44535 0.81251 0.0
C253 C 0.62434 0.42835 0.82401 0.0
O254 O 0.58387 0.37764 0.6426 0.0
C255 C 0.60727 0.37016 0.66704 0.0
O256 O 0.63279 0.37947 0.66811 0.0
H257 H 0.60942 0.44514 0.6716 0.0
H258 H 0.64996 0.40368 0.78539 0.0
C259 C 0.59695 0.38547 0.45582 0.0
C260 C 0.60752 0.3728 0.41198 0.0
C261 C 0.61402 0.34618 0.47851 0.0
C262 C 0.60346 0.3587 0.52134 0.0
N263 N 0.59532 0.37812 0.5095 0.0
N264 N 0.61574 0.35347 0.42523 0.0
H265 H 0.58947 0.4008 0.44766 0.0
C266 C 0.70303 0.40025 0.61024 0.0
O267 O 0.68355 0.39217 0.57457 0.0
O268 O 0.53609 0.40067 0.55475 0.0
H269 H 0.60154 0.35283 0.56357 0.0
H270 H 0.58902 0.46508 0.75134 0.0
H271 H 0.62062 0.3307 0.48741 0.0
C272 C 0.47662 0.12263 0.99629 0.0
C273 C 0.4864 0.14101 0.97224 0.0
C274 C 0.44678 0.12062 0.0171 0.0
C275 C 0.38118 0.15195 0.06518 0.0
H276 H 0.33385 0.10289 0.04346 0.0
C277 C 0.25064 0.15013 0.08651 0.0
C278 C 0.2371 0.13387 0.11547 0.0
C279 C 0.28185 0.15005 0.07451 0.0
C280 C 0.34696 0.11658 0.0505 0.0
H281 H 0.4722 0.17143 0.94952 0.0
H282 H 0.42029 0.16781 0.98438 0.0
H283 H 0.38677 0.10436 0.01023 0.0
H284 H 0.24574 0.10472 0.15461 0.0
H285 H 0.30058 0.10445 0.13268 0.0
H286 H 0.34117 0.16435 0.10394 0.0
C287 C 0.43577 0.15509 0.9887 0.0
C288 C 0.37728 0.11744 0.03149 0.0
C289 C 0.46553 0.15713 0.96824 0.0
C290 C 0.25556 0.11751 0.13247 0.0
C291 C 0.28686 0.1173 0.11964 0.0
C292 C 0.35092 0.15113 0.08373 0.0
C293 C 0.42609 0.13693 0.01415 0.0
C294 C 0.39458 0.13529 0.03768 0.0
C295 C 0.3003 0.1336 0.09057 0.0
C296 C 0.3333 0.13358 0.07575 0.0
H297 H 0.49217 0.10993 1.00009 0.0
H298 H 0.44017 0.10646 0.03668 0.0
H299 H 0.39402 0.16575 0.0721 0.0
H300 H 0.23706 0.16294 0.07279 0.0
H301 H 0.29146 0.16271 0.05146 0.0
C302 C 0.25008 0.88248 0.07988 0.0
C303 C 0.26496 0.89812 0.10921 0.0
C304 C 0.21902 0.88393 0.06686 0.0
C305 C 0.15834 0.92062 0.03994 0.0
H306 H 0.10468 0.87434 0.05929 0.0
C307 C 0.04181 0.91167 0.92574 0.0
C308 C 0.01722 0.90401 0.95739 0.0
C309 C 0.07124 0.9125 0.94884 0.0
C310 C 0.11929 0.88746 0.05404 0.0
H311 H 0.25873 0.92748 0.14854 0.0
H312 H 0.20436 0.93019 0.12465 0.0
H313 H 0.15739 0.87258 0.09289 0.0
H314 H 0.00415 0.89164 0.03864 0.0
H315 H 0.05556 0.89285 0.07855 0.0
H316 H 0.12031 0.93533 0.99999 0.0
C317 C 0.21687 0.91677 0.112 0.0
C318 C 0.14952 0.8864 0.07291 0.0
C319 C 0.24793 0.91517 0.12589 0.0
C320 C 0.0226 0.89756 0.01301 0.0
C321 C 0.05207 0.89817 0.03584 0.0
C322 C 0.12816 0.9216 0.02039 0.0
C323 C 0.20213 0.90117 0.0822 0.0
C324 C 0.16946 0.90289 0.06566 0.0
C325 C 0.07676 0.90549 0.00387 0.0
C326 C 0.10837 0.90496 0.0269 0.0
H327 H 0.26251 0.86913 0.06643 0.0
H328 H 0.20838 0.87174 0.0434 0.0
H329 H 0.17324 0.93352 0.03343 0.0
H330 H 0.03841 0.91687 0.8829 0.0
H331 H 0.08984 0.91809 0.92303 0.0
C332 C 0.47502 0.40638 0.51338 0.0
C333 C 0.48453 0.38905 0.54315 0.0
C334 C 0.44486 0.40808 0.49395 0.0
C335 C 0.37708 0.37617 0.46142 0.0
H336 H 0.33299 0.42715 0.4636 0.0
C337 C 0.24673 0.3806 0.43277 0.0
C338 C 0.23491 0.39583 0.39756 0.0
C339 C 0.27768 0.38037 0.44716 0.0
C340 C 0.34516 0.41286 0.46214 0.0
H341 H 0.4695 0.3603 0.57771 0.0
H342 H 0.41704 0.36345 0.5453 0.0
H343 H 0.38589 0.4259 0.49687 0.0
H344 H 0.24634 0.42288 0.35003 0.0
H345 H 0.30061 0.42255 0.37572 0.0
H346 H 0.33621 0.36307 0.42788 0.0
C347 C 0.43295 0.3755 0.53539 0.0
C348 C 0.37548 0.41213 0.48115 0.0
C349 C 0.46305 0.37376 0.55442 0.0
C350 C 0.2548 0.41087 0.377 0.0
C351 C 0.2858 0.41077 0.392 0.0
C352 C 0.3468 0.37688 0.44287 0.0
C353 C 0.42353 0.39252 0.50411 0.0
C354 C 0.39171 0.3937 0.4817 0.0
C355 C 0.29756 0.39548 0.42716 0.0
C356 C 0.33037 0.39517 0.4436 0.0
H357 H 0.49104 0.41844 0.50394 0.0
H358 H 0.43851 0.42134 0.46973 0.0
H359 H 0.38904 0.36182 0.45976 0.0
H360 H 0.23204 0.36883 0.44946 0.0
H361 H 0.28596 0.36853 0.47487 0.0
C362 C 0.02689 0.62182 0.50518 0.0
C363 C 0.01709 0.64016 0.52938 0.0
C364 C 0.05676 0.61985 0.4844 0.0
C365 C 0.12243 0.65132 0.43692 0.0
H366 H 0.16984 0.60224 0.45812 0.0
C367 C 0.25304 0.64976 0.41639 0.0
C368 C 0.26671 0.63363 0.3872 0.0
C369 C 0.2218 0.64958 0.42826 0.0
C370 C 0.15671 0.61594 0.45123 0.0
H371 H 0.0313 0.67053 0.5524 0.0
H372 H 0.0832 0.66696 0.51764 0.0
H373 H 0.11683 0.60357 0.49098 0.0
H374 H 0.25829 0.60456 0.3476 0.0
H375 H 0.20342 0.6041 0.3693 0.0
H376 H 0.1625 0.66387 0.39871 0.0
C377 C 0.06774 0.65426 0.51314 0.0
C378 C 0.12634 0.61672 0.47002 0.0
C379 C 0.03796 0.65626 0.53355 0.0
C380 C 0.24836 0.61727 0.3699 0.0
C381 C 0.21704 0.61694 0.3826 0.0
C382 C 0.15274 0.65058 0.4186 0.0
C383 C 0.07745 0.63615 0.48752 0.0
C384 C 0.109 0.63457 0.46405 0.0
C385 C 0.20345 0.63314 0.41185 0.0
C386 C 0.1704 0.63303 0.42641 0.0
H387 H 0.01133 0.60913 0.50124 0.0
H388 H 0.06338 0.60572 0.46471 0.0
H389 H 0.10957 0.66513 0.43015 0.0
H390 H 0.26651 0.66258 0.43037 0.0
H391 H 0.21209 0.66216 0.45146 0.0
C392 C 0.7474 0.9093 0.86849 0.0
C393 C 0.76886 0.89908 0.90231 0.0
C394 C 0.71638 0.90961 0.88352 0.0
C395 C 0.66005 0.88217 0.97242 0.0
H396 H 0.61159 0.93112 0.95851 0.0
C397 C 0.54361 0.88989 0.08157 0.0
C398 C 0.51933 0.89793 0.04988 0.0
C399 C 0.57359 0.89088 0.0615 0.0
C400 C 0.62476 0.91729 0.96212 0.0
H401 H 0.77457 0.88146 0.97885 0.0
H402 H 0.721 0.8822 0.00515 0.0
H403 H 0.66473 0.93099 0.92613 0.0
H404 H 0.5077 0.91407 0.97312 0.0
H405 H 0.56027 0.91582 0.93807 0.0
H406 H 0.62039 0.86853 0.00902 0.0
C407 C 0.72783 0.88964 0.96645 0.0
C408 C 0.65518 0.91719 0.94346 0.0
C409 C 0.75867 0.88932 0.95148 0.0
C410 C 0.52588 0.9076 0.9984 0.0
C411 C 0.55599 0.9087 0.97844 0.0
C412 C 0.62981 0.8823 0.99125 0.0
C413 C 0.70622 0.89969 0.93262 0.0
C414 C 0.67332 0.89968 0.94908 0.0
C415 C 0.58011 0.90003 0.00936 0.0
C416 C 0.6119 0.89992 0.98701 0.0
H417 H 0.75456 0.91709 0.83054 0.0
H418 H 0.70034 0.91739 0.85633 0.0
H419 H 0.67306 0.86827 0.97619 0.0
H420 H 0.53944 0.88243 0.12151 0.0
H421 H 0.59172 0.88437 0.08681 0.0
C422 C 0.75578 0.11718 0.87249 0.0
C423 C 0.73723 0.13358 0.88872 0.0
C424 C 0.78711 0.11716 0.88504 0.0
C425 C 0.85092 0.15146 0.91949 0.0
H426 H 0.8878 0.10469 0.99151 0.0
C427 C 0.96644 0.15752 0.03201 0.0
C428 C 0.9874 0.14151 0.02699 0.0
C429 C 0.93654 0.15547 0.01229 0.0
C430 C 0.878 0.11777 0.97067 0.0
H431 H 0.73699 0.16286 0.93012 0.0
H432 H 0.79143 0.16291 0.95128 0.0
H433 H 0.83463 0.10307 0.95978 0.0
H434 H 0.99322 0.11057 0.99804 0.0
H435 H 0.94095 0.10707 0.9628 0.0
H436 H 0.89399 0.16623 0.93014 0.0
C437 C 0.7819 0.1501 0.92881 0.0
C438 C 0.84755 0.11683 0.95251 0.0
C439 C 0.75066 0.15002 0.91694 0.0
C440 C 0.9776 0.1232 0.0026 0.0
C441 C 0.94761 0.12117 0.98258 0.0
C442 C 0.88132 0.15236 0.93724 0.0
C443 C 0.80047 0.13366 0.91329 0.0
C444 C 0.83353 0.13382 0.92772 0.0
C445 C 0.9268 0.13738 0.98665 0.0
C446 C 0.8951 0.13569 0.96413 0.0
H447 H 0.746 0.1042 0.85113 0.0
H448 H 0.80089 0.1043 0.87242 0.0
H449 H 0.84092 0.16467 0.89958 0.0
H450 H 0.97312 0.17177 0.05101 0.0
H451 H 0.92098 0.1681 0.01741 0.0
C452 C 0.75145 0.65092 0.59661 0.0
C453 C 0.76577 0.63397 0.62077 0.0
C454 C 0.72015 0.65074 0.58523 0.0
C455 C 0.65613 0.61696 0.55398 0.0
H456 H 0.60746 0.66461 0.587 0.0
C457 C 0.52612 0.62267 0.50199 0.0
C458 C 0.51587 0.64148 0.48133 0.0
C459 C 0.55599 0.62051 0.52262 0.0
C460 C 0.62075 0.65125 0.57694 0.0
H461 H 0.75855 0.60342 0.65169 0.0
H462 H 0.70357 0.60302 0.63109 0.0
H463 H 0.66048 0.66311 0.61791 0.0
H464 H 0.52925 0.67256 0.46477 0.0
H465 H 0.58114 0.66872 0.49947 0.0
H466 H 0.61656 0.60533 0.51164 0.0
C467 C 0.71668 0.61649 0.62137 0.0
C468 C 0.65112 0.65037 0.5949 0.0
C469 C 0.74806 0.61678 0.63354 0.0
C470 C 0.53627 0.65791 0.48078 0.0
C471 C 0.56603 0.65574 0.50115 0.0
C472 C 0.6257 0.61789 0.53564 0.0
C473 C 0.70242 0.6335 0.59709 0.0
C474 C 0.66933 0.63339 0.58276 0.0
C475 C 0.57622 0.6371 0.52297 0.0
C476 C 0.60782 0.63523 0.54597 0.0
H477 H 0.76448 0.66437 0.58616 0.0
H478 H 0.70994 0.66398 0.56584 0.0
H479 H 0.66968 0.60373 0.54368 0.0
H480 H 0.51095 0.60971 0.50308 0.0
H481 H 0.563 0.60597 0.53937 0.0
C482 C 0.7464 0.39191 0.54591 0.0
C483 C 0.73613 0.4004 0.59677 0.0
C484 C 0.77737 0.39207 0.53197 0.0
C485 C 0.85104 0.41724 0.56356 0.0
H486 H 0.88405 0.37015 0.48711 0.0
C487 C 0.9802 0.40656 0.50883 0.0
C488 C 0.98646 0.39896 0.45467 0.0
C489 C 0.95008 0.4075 0.5288 0.0
C490 C 0.87514 0.38348 0.50805 0.0
H491 H 0.75046 0.41597 0.67272 0.0
H492 H 0.80492 0.41594 0.64873 0.0
H493 H 0.83114 0.36996 0.51862 0.0
H494 H 0.96592 0.38687 0.37859 0.0
H495 H 0.91362 0.38843 0.41346 0.0
H496 H 0.89543 0.43062 0.55305 0.0
C497 C 0.78883 0.40932 0.61938 0.0
C498 C 0.84476 0.3834 0.52608 0.0
C499 C 0.75766 0.40921 0.63333 0.0
C500 C 0.96195 0.39272 0.42058 0.0
C501 C 0.93197 0.3935 0.44069 0.0
C502 C 0.88161 0.41726 0.54577 0.0
C503 C 0.79907 0.40063 0.56859 0.0
C504 C 0.83212 0.40039 0.55321 0.0
C505 C 0.92569 0.40067 0.49522 0.0
C506 C 0.89382 0.40048 0.517 0.0
H507 H 0.73047 0.38517 0.51643 0.0
H508 H 0.78426 0.38565 0.49195 0.0
H509 H 0.84201 0.43064 0.58391 0.0
H510 H 0.99858 0.41163 0.53597 0.0
H511 H 0.94596 0.41308 0.57103 0.0
C512 C 0.07489 0.33861 0.31519 0.0
C513 C 0.10271 0.34928 0.31443 0.0
C514 C 0.07339 0.31854 0.29614 0.0
C515 C 0.11792 0.27946 0.21602 0.0
H516 H 0.06476 0.24188 0.29474 0.0
C517 C 0.13055 0.19278 0.19735 0.0
C518 C 0.10387 0.18189 0.18393 0.0
C519 C 0.12896 0.21318 0.21275 0.0
C520 C 0.07954 0.25225 0.27215 0.0
H521 H 0.15079 0.34713 0.29277 0.0
H522 H 0.14847 0.3122 0.26155 0.0
H523 H 0.0647 0.27764 0.32098 0.0
H524 H 0.05447 0.18386 0.17793 0.0
H525 H 0.05171 0.21949 0.20644 0.0
H526 H 0.13353 0.2538 0.1688 0.0
C527 C 0.12748 0.31938 0.27515 0.0
C528 C 0.07942 0.27281 0.28688 0.0
C529 C 0.12887 0.33949 0.29337 0.0
C530 C 0.07545 0.19178 0.18804 0.0
C531 C 0.07383 0.21216 0.20442 0.0
C532 C 0.11837 0.25889 0.20201 0.0
C533 C 0.09978 0.30851 0.27659 0.0
C534 C 0.09877 0.28672 0.25925 0.0
C535 C 0.10063 0.22314 0.21599 0.0
C536 C 0.09933 0.24505 0.23011 0.0
H537 H 0.05426 0.34571 0.33096 0.0
H538 H 0.05149 0.3109 0.29695 0.0
H539 H 0.13261 0.28966 0.19271 0.0
H540 H 0.15285 0.18571 0.19442 0.0
H541 H 0.14995 0.22123 0.22198 0.0
C542 C 0.42826 0.69217 0.3163 0.0
C543 C 0.40022 0.68175 0.31755 0.0
C544 C 0.42973 0.71228 0.29735 0.0
C545 C 0.3844 0.7514 0.21903 0.0
H546 H 0.43941 0.78906 0.29277 0.0
C547 C 0.37239 0.8379 0.19533 0.0
C548 C 0.39901 0.84865 0.18061 0.0
C549 C 0.37403 0.81762 0.21205 0.0
C550 C 0.4241 0.77866 0.27156 0.0
H551 H 0.35169 0.68447 0.29999 0.0
H552 H 0.35405 0.7194 0.26888 0.0
H553 H 0.43953 0.75339 0.32052 0.0
H554 H 0.44838 0.84656 0.17384 0.0
H555 H 0.45121 0.81115 0.20441 0.0
H556 H 0.36832 0.77688 0.17151 0.0
C557 C 0.37518 0.712 0.28081 0.0
C558 C 0.42424 0.75817 0.28719 0.0
C559 C 0.37378 0.69189 0.29904 0.0
C560 C 0.42743 0.83875 0.18485 0.0
C561 C 0.42909 0.81849 0.20246 0.0
C562 C 0.38397 0.77189 0.20408 0.0
C563 C 0.40314 0.72255 0.27976 0.0
C564 C 0.4042 0.74425 0.26143 0.0
C565 C 0.40234 0.80762 0.21526 0.0
C566 C 0.40364 0.78577 0.23042 0.0
H567 H 0.4491 0.68483 0.3302 0.0
H568 H 0.45178 0.71973 0.29639 0.0
H569 H 0.36917 0.74117 0.19709 0.0
H570 H 0.35009 0.84497 0.19244 0.0
H571 H 0.35306 0.80968 0.22226 0.0
C572 C 0.87439 0.83896 0.79289 0.0
C573 C 0.90102 0.84925 0.80989 0.0
C574 C 0.87556 0.81855 0.77729 0.0
C575 C 0.92535 0.77802 0.72574 0.0
H576 H 0.86738 0.74231 0.79939 0.0
C577 C 0.92828 0.69108 0.69045 0.0
C578 C 0.90009 0.68087 0.68796 0.0
C579 C 0.92974 0.71137 0.70767 0.0
C580 C 0.88346 0.75203 0.77766 0.0
H581 H 0.95001 0.84623 0.82146 0.0
H582 H 0.95209 0.81062 0.79272 0.0
H583 H 0.86706 0.77836 0.82092 0.0
H584 H 0.85129 0.68413 0.7018 0.0
H585 H 0.85366 0.71939 0.72987 0.0
H586 H 0.94115 0.75191 0.68095 0.0
C587 C 0.9303 0.81842 0.79211 0.0
C588 C 0.88333 0.77272 0.79029 0.0
C589 C 0.92907 0.83879 0.80863 0.0
C590 C 0.87348 0.69139 0.7038 0.0
C591 C 0.87488 0.7117 0.72024 0.0
C592 C 0.92519 0.75733 0.71237 0.0
C593 C 0.90344 0.80798 0.77745 0.0
C594 C 0.90415 0.78596 0.76429 0.0
C595 C 0.90299 0.72207 0.72216 0.0
C596 C 0.90412 0.74403 0.73794 0.0
H597 H 0.85235 0.84646 0.79349 0.0
H598 H 0.85455 0.81095 0.76558 0.0
H599 H 0.94155 0.7879 0.70484 0.0
H600 H 0.94925 0.68344 0.67865 0.0
H601 H 0.9519 0.71864 0.70954 0.0
C602 C 0.57685 0.19139 0.81205 0.0
C603 C 0.60473 0.18077 0.81361 0.0
C604 C 0.57583 0.21165 0.79444 0.0
C605 C 0.62214 0.25153 0.72129 0.0
H606 H 0.56658 0.28825 0.79733 0.0
C607 C 0.63263 0.33845 0.70227 0.0
C608 C 0.60566 0.34911 0.68934 0.0
C609 C 0.63155 0.318 0.71771 0.0
C610 C 0.58206 0.27814 0.77547 0.0
H611 H 0.65341 0.18326 0.7974 0.0
H612 H 0.65181 0.2185 0.7684 0.0
H613 H 0.56647 0.25233 0.82187 0.0
H614 H 0.55626 0.34666 0.68441 0.0
H615 H 0.55441 0.31102 0.71257 0.0
H616 H 0.63829 0.27756 0.67617 0.0
C617 C 0.63049 0.21114 0.77929 0.0
C618 C 0.58192 0.25749 0.78926 0.0
C619 C 0.63145 0.19084 0.79624 0.0
C620 C 0.57748 0.33895 0.6941 0.0
C621 C 0.57639 0.31854 0.71033 0.0
C622 C 0.62255 0.2722 0.70811 0.0
C623 C 0.60271 0.22192 0.77852 0.0
C624 C 0.60205 0.24387 0.76251 0.0
C625 C 0.60346 0.30775 0.72135 0.0
C626 C 0.60261 0.28575 0.73518 0.0
H627 H 0.55579 0.18411 0.82499 0.0
H628 H 0.5539 0.21925 0.79345 0.0
H629 H 0.63752 0.24156 0.69876 0.0
H630 H 0.65476 0.34571 0.69893 0.0
H631 H 0.65277 0.31015 0.72659 0.0
C632 C 0.30511 0.95013 0.07203 0.0
C633 C 0.33464 0.95041 0.09476 0.0
C634 C 0.28391 0.96501 0.08745 0.0
C635 C 0.28491 0.01807 0.13365 0.0
H636 H 0.19696 1.0114 0.13567 0.0
C637 C 0.16426 0.06666 0.14052 0.0
C638 C 0.1709 0.08099 0.09869 0.0
C639 C 0.18578 0.05202 0.15541 0.0
C640 C 0.2215 1.01357 0.13632 0.0
H641 H 0.36532 0.96609 0.15133 0.0
H642 H 0.32807 0.99128 0.18079 0.0
H643 H 0.22971 0.98157 0.13596 0.0
H644 H 0.20513 0.09179 0.04032 0.0
H645 H 0.24296 0.06606 0.06568 0.0
H646 H 0.2767 0.05005 0.13333 0.0
C647 C 0.32112 0.97978 0.1509 0.0
C648 C 0.24024 0.99643 0.13577 0.0
C649 C 0.34229 0.96506 0.13504 0.0
C650 C 0.19989 0.08112 0.07368 0.0
C651 C 0.22146 0.06637 0.08826 0.0
C652 C 0.26617 0.0352 0.13433 0.0
C653 C 0.29214 0.98047 0.12549 0.0
C654 C 0.27216 0.99847 0.13328 0.0
C655 C 0.21413 0.05114 0.12767 0.0
C656 C 0.23423 0.03316 0.1345 0.0
H657 H 0.29908 0.93923 0.03979 0.0
H658 H 0.26188 0.96518 0.06663 0.0
H659 H 0.30941 0.02024 0.13093 0.0
H660 H 0.14165 0.06575 0.1587 0.0
H661 H 0.17956 0.04068 0.18639 0.0
C662 C 0.15701 0.46895 0.35828 0.0
C663 C 0.16554 0.4528 0.39328 0.0
C664 C 0.17829 0.48362 0.3427 0.0
C665 C 0.26045 0.49851 0.35235 0.0
H666 H 0.22576 0.55225 0.37053 0.0
C667 C 0.30401 0.58083 0.43073 0.0
C668 C 0.33247 0.5813 0.40383 0.0
C669 C 0.28203 0.56659 0.41464 0.0
C670 C 0.23581 0.53737 0.36521 0.0
H671 H 0.20273 0.43901 0.43931 0.0
H672 H 0.24011 0.46496 0.41354 0.0
H673 H 0.19228 0.52292 0.36905 0.0
H674 H 0.36045 0.56756 0.33923 0.0
H675 H 0.32176 0.54345 0.30895 0.0
H676 H 0.30416 0.51292 0.35247 0.0
C677 C 0.21729 0.46596 0.39607 0.0
C678 C 0.21659 0.52051 0.36355 0.0
C679 C 0.19598 0.45104 0.41082 0.0
C680 C 0.33822 0.56805 0.35898 0.0
C681 C 0.31626 0.55392 0.34256 0.0
C682 C 0.27971 0.51538 0.35437 0.0
C683 C 0.2083 0.48288 0.36371 0.0
C684 C 0.22869 0.50082 0.35818 0.0
C685 C 0.28838 0.55247 0.37169 0.0
C686 C 0.26764 0.53498 0.362 0.0
H687 H 0.13338 0.47104 0.34603 0.0
H688 H 0.17071 0.4962 0.31689 0.0
H689 H 0.27052 0.48361 0.34763 0.0
H690 H 0.29947 0.59066 0.46631 0.0
H691 H 0.26094 0.5658 0.43843 0.0
C692 C 0.69212 0.07419 0.9694 0.0
C693 C 0.67505 0.08275 0.92534 0.0
C694 C 0.71217 0.05824 0.95902 0.0
C695 C 0.75576 0.02837 0.86052 0.0
H696 H 0.72725 0.98314 0.95115 0.0
C697 C 0.82158 0.9529 0.86469 0.0
C698 C 0.82881 0.9469 0.91982 0.0
C699 C 0.79844 0.96715 0.855 0.0
C700 C 0.73548 0.99557 0.92547 0.0
H701 H 0.66819 0.08278 0.83509 0.0
H702 H 0.70381 0.05499 0.81658 0.0
H703 H 0.70015 1.01539 0.95449 0.0
H704 H 0.81614 0.9497 0.00755 0.0
H705 H 0.77579 0.97424 0.99114 0.0
H706 H 0.79214 1.00888 0.83381 0.0
C707 C 0.70131 0.0606 0.85921 0.0
C708 C 0.72001 1.01401 0.92746 0.0
C709 C 0.68101 0.07659 0.86978 0.0
C710 C 0.81086 0.954 0.96454 0.0
C711 C 0.78768 0.96806 0.95501 0.0
C712 C 0.77156 1.00991 0.85901 0.0
C713 C 0.71561 0.05059 0.90428 0.0
C714 C 0.73054 0.03072 0.89639 0.0
C715 C 0.7821 0.9755 0.90042 0.0
C716 C 0.76211 0.99351 0.89291 0.0
H717 H 0.68797 0.07866 0.01267 0.0
H718 H 0.72339 0.05094 0.99433 0.0
H719 H 0.7641 0.04106 0.83597 0.0
H720 H 0.83507 0.94781 0.82952 0.0
H721 H 0.79437 0.97235 0.81237 0.0
C722 C 0.68107 0.45348 0.63332 0.0
C723 C 0.67348 0.44826 0.57767 0.0
C724 C 0.70136 0.46948 0.64394 0.0
C725 C 0.71726 0.5174 0.58094 0.0
H726 H 0.79353 0.52085 0.66333 0.0
C727 C 0.80637 0.57813 0.53807 0.0
C728 C 0.82645 0.58433 0.58068 0.0
C729 C 0.7836 0.56392 0.54926 0.0
C730 C 0.77183 0.52028 0.64142 0.0
H731 H 0.68375 0.45396 0.48981 0.0
H732 H 0.71906 0.4817 0.50824 0.0
H733 H 0.76536 0.48874 0.66108 0.0
H734 H 0.83727 0.58148 0.6692 0.0
H735 H 0.79726 0.55673 0.68931 0.0
H736 H 0.72353 0.54867 0.5605 0.0
C737 C 0.70905 0.4737 0.54362 0.0
C738 C 0.75592 0.50186 0.63985 0.0
C739 C 0.68904 0.45774 0.53316 0.0
C740 C 0.82197 0.57717 0.63574 0.0
C741 C 0.79925 0.56279 0.64704 0.0
C742 C 0.73287 0.53579 0.58303 0.0
C743 C 0.71406 0.4804 0.59888 0.0
C744 C 0.72912 0.50016 0.60784 0.0
C745 C 0.78063 0.5554 0.60334 0.0
C746 C 0.76094 0.53728 0.61145 0.0
H747 H 0.6696 0.44648 0.66841 0.0
H748 H 0.70516 0.47433 0.68697 0.0
H749 H 0.69624 0.51649 0.55688 0.0
H750 H 0.80964 0.58325 0.49508 0.0
H751 H 0.76995 0.55848 0.51434 0.0
C752 C 0.05099 0.08408 0.04913 0.0
C753 C 0.07449 0.08714 0.00976 0.0
C754 C 0.03013 0.06826 0.04183 0.0
C755 C 0.00362 0.02767 0.94498 0.0
H756 H 0.00335 0.99508 0.0812 0.0
C757 C 0.95376 0.94784 0.94012 0.0
C758 C 0.93215 0.94409 0.98258 0.0
C759 C 0.97456 0.9638 0.94556 0.0
C760 C 0.00304 1.00401 0.04291 0.0
H761 H 0.0927 0.0777 0.92928 0.0
H762 H 0.05594 0.05037 0.91573 0.0
H763 H 0.0265 0.02865 0.08227 0.0
H764 H 0.91705 0.95271 0.0659 0.0
H765 H 0.95325 0.98049 0.07577 0.0
H766 H 0.97996 1.00312 0.90567 0.0
C767 C 0.05355 0.06003 0.95231 0.0
C768 C 0.01607 0.02335 0.04361 0.0
C769 C 0.07446 0.07582 0.95975 0.0
C770 C 0.93383 0.95512 0.03298 0.0
C771 C 0.95449 0.97114 0.03837 0.0
C772 C 0.99044 1.00836 0.94433 0.0
C773 C 0.03248 0.05528 0.99505 0.0
C774 C 0.01646 0.03542 0.9947 0.0
C775 C 0.97384 0.97641 0.99331 0.0
C776 C 0.99001 0.99627 0.99329 0.0
H777 H 0.05092 0.09225 0.08872 0.0
H778 H 0.0137 0.0652 0.07493 0.0
H779 H 0.00353 0.03661 0.90668 0.0
H780 H 0.95239 0.93999 0.90015 0.0
H781 H 0.98967 0.96715 0.91063 0.0
C782 C 0.55066 0.08339 0.94821 0.0
C783 C 0.57268 0.08672 0.99025 0.0
C784 C 0.53017 0.06721 0.95285 0.0
C785 C 0.5028 0.02575 0.04729 0.0
H786 H 0.50274 0.99452 0.9088 0.0
C787 C 0.45414 0.94581 0.04743 0.0
C788 C 0.43104 0.94315 0.00704 0.0
C789 C 0.47527 0.96157 0.0417 0.0
C790 C 0.50252 1.00307 0.94774 0.0
H791 H 0.5884 0.07732 0.07261 0.0
H792 H 0.55258 0.04927 0.0812 0.0
H793 H 0.52583 0.02815 0.91018 0.0
H794 H 0.4139 0.95323 0.92632 0.0
H795 H 0.45104 0.98046 0.91555 0.0
H796 H 0.47954 1.00065 0.08484 0.0
C797 C 0.55098 0.059 0.04456 0.0
C798 C 0.51543 0.02245 0.94845 0.0
C799 C 0.5714 0.07519 0.03992 0.0
C800 C 0.43183 0.95479 0.95755 0.0
C801 C 0.45297 0.97053 0.95173 0.0
C802 C 0.48996 1.00636 0.0466 0.0
C803 C 0.53145 0.05406 0.99952 0.0
C804 C 0.51567 0.03407 0.99821 0.0
C805 C 0.47357 0.97491 0.99552 0.0
C806 C 0.48967 0.99477 0.99682 0.0
H807 H 0.55147 0.09176 0.90895 0.0
H808 H 0.51485 0.06412 0.91805 0.0
H809 H 0.50241 0.03431 0.0862 0.0
H810 H 0.45362 0.93739 0.08663 0.0
H811 H 0.49135 0.9643 0.07557 0.0
C812 C 0.04693 0.44632 0.44928 0.0
C813 C 0.07086 0.44342 0.48785 0.0
C814 C 0.02571 0.46189 0.45763 0.0
C815 C 0.02799 0.51223 0.52216 0.0
H816 H 0.9447 0.51653 0.46808 0.0
C817 C 0.95072 0.58268 0.551 0.0
C818 C 0.92809 0.58627 0.51021 0.0
C819 C 0.97077 0.5663 0.54518 0.0
C820 C 0.96816 0.51564 0.48248 0.0
H821 H 0.08914 0.45246 0.56859 0.0
H822 H 0.05132 0.47902 0.58465 0.0
H823 H 0.96917 0.48335 0.47277 0.0
H824 H 0.91084 0.57716 0.42867 0.0
H825 H 0.94646 0.54894 0.41754 0.0
H826 H 0.02701 0.5445 0.53177 0.0
C827 C 0.04943 0.4698 0.54707 0.0
C828 C 0.98206 0.49658 0.48564 0.0
C829 C 0.0707 0.45432 0.53853 0.0
C830 C 0.92823 0.57476 0.46052 0.0
C831 C 0.94824 0.55839 0.45468 0.0
C832 C 0.01409 0.53127 0.51906 0.0
C833 C 0.02815 0.47471 0.50478 0.0
C834 C 0.01215 0.49463 0.50555 0.0
C835 C 0.96843 0.55325 0.49853 0.0
C836 C 0.98405 0.53322 0.49897 0.0
H837 H 0.04701 0.43844 0.40923 0.0
H838 H 0.00956 0.46517 0.42426 0.0
H839 H 0.0515 0.5114 0.53629 0.0
H840 H 0.95066 0.59095 0.5904 0.0
H841 H 0.98606 0.5628 0.57973 0.0
C842 C 0.42897 0.57495 0.54215 0.0
C843 C 0.4292 0.58655 0.49255 0.0
C844 C 0.44961 0.55898 0.54913 0.0
C845 C 0.48674 0.5225 0.45676 0.0
H846 H 0.52228 0.5013 0.59418 0.0
C847 C 0.56866 0.45411 0.46524 0.0
C848 C 0.57054 0.44292 0.51542 0.0
C849 C 0.54785 0.47007 0.46028 0.0
C850 C 0.51194 0.50681 0.55565 0.0
H851 H 0.45306 0.59196 0.41403 0.0
H852 H 0.48979 0.56453 0.42699 0.0
H853 H 0.49912 0.53492 0.59426 0.0
H854 H 0.55001 0.43818 0.59742 0.0
H855 H 0.5126 0.46535 0.58775 0.0
H856 H 0.4992 0.49437 0.41819 0.0
C857 C 0.47334 0.56752 0.46009 0.0
C858 C 0.499 0.5262 0.55562 0.0
C859 C 0.45276 0.58355 0.45327 0.0
C860 C 0.54871 0.44628 0.55777 0.0
C861 C 0.52778 0.46222 0.55277 0.0
C862 C 0.49952 0.50309 0.45683 0.0
C863 C 0.47069 0.5543 0.50634 0.0
C864 C 0.4864 0.53431 0.5061 0.0
C865 C 0.52848 0.4751 0.50549 0.0
C866 C 0.51237 0.49499 0.50624 0.0
H867 H 0.4107 0.57679 0.57257 0.0
H868 H 0.447 0.54913 0.58533 0.0
H869 H 0.47648 0.52809 0.41821 0.0
H870 H 0.58552 0.45197 0.43231 0.0
H871 H 0.54906 0.4796 0.42317 0.0
C872 C 0.11946 0.16368 0.80435 0.0
C873 C 0.11665 0.14942 0.84821 0.0
C874 C 0.12331 0.15748 0.74862 0.0
C875 C 0.10965 0.11487 0.65306 0.0
H876 H 0.16741 0.14291 0.55651 0.0
C877 C 0.12706 0.09056 0.42268 0.0
C878 C 0.12901 0.1061 0.38232 0.0
C879 C 0.12923 0.09491 0.48012 0.0
C880 C 0.15099 0.13504 0.58273 0.0
H881 H 0.11671 0.1171 0.86673 0.0
H882 H 0.12272 0.10639 0.76929 0.0
H883 H 0.1636 0.15213 0.65581 0.0
H884 H 0.13513 0.13846 0.37082 0.0
H885 H 0.13858 0.1461 0.47101 0.0
H886 H 0.09639 0.09815 0.57998 0.0
C887 C 0.1216 0.12245 0.77847 0.0
C888 C 0.14886 0.14029 0.63966 0.0
C889 C 0.11794 0.12866 0.8345 0.0
C890 C 0.13413 0.12606 0.40066 0.0
C891 C 0.13605 0.13044 0.45825 0.0
C892 C 0.11165 0.1097 0.59608 0.0
C893 C 0.12441 0.13681 0.73498 0.0
C894 C 0.12796 0.1304 0.67533 0.0
C895 C 0.13303 0.11496 0.49875 0.0
C896 C 0.13218 0.11981 0.56004 0.0
H897 H 0.11844 0.17979 0.81286 0.0
H898 H 0.12494 0.16892 0.716 0.0
H899 H 0.09305 0.10715 0.67928 0.0
H900 H 0.12333 0.075 0.40987 0.0
H901 H 0.12747 0.08254 0.50997 0.0
C902 C 0.37606 0.93755 0.41845 0.0
C903 C 0.37315 0.9226 0.37662 0.0
C904 C 0.37407 0.93249 0.4755 0.0
C905 C 0.38788 0.88955 0.56949 0.0
H906 H 0.34766 0.92274 0.68208 0.0
C907 C 0.38148 0.86472 0.80116 0.0
C908 C 0.3854 0.87945 0.84343 0.0
C909 C 0.3783 0.87028 0.74477 0.0
C910 C 0.35932 0.91345 0.65123 0.0
H911 H 0.36526 0.89053 0.36225 0.0
H912 H 0.36147 0.88176 0.46184 0.0
H913 H 0.34334 0.93167 0.5824 0.0
H914 H 0.38796 0.91194 0.85838 0.0
H915 H 0.38351 0.9215 0.75974 0.0
H916 H 0.40444 0.87156 0.63784 0.0
C917 C 0.36537 0.89743 0.45031 0.0
C918 C 0.35671 0.91851 0.59413 0.0
C919 C 0.36714 0.90252 0.39316 0.0
C920 C 0.38573 0.90002 0.82744 0.0
C921 C 0.38268 0.90558 0.7707 0.0
C922 C 0.39063 0.88456 0.62644 0.0
C923 C 0.36943 0.91229 0.49211 0.0
C924 C 0.37094 0.90659 0.55264 0.0
C925 C 0.37907 0.89074 0.72865 0.0
C926 C 0.37634 0.8964 0.66808 0.0
H927 H 0.38068 0.95316 0.40711 0.0
H928 H 0.37752 0.94426 0.50662 0.0
H929 H 0.39968 0.8803 0.53869 0.0
H930 H 0.38097 0.84874 0.81142 0.0
H931 H 0.37496 0.85844 0.71379 0.0
C932 C 0.14534 0.44211 0.07836 0.0
C933 C 0.14147 0.4263 0.11728 0.0
C934 C 0.14897 0.43797 0.02108 0.0
C935 C 0.16199 0.39623 0.91758 0.0
H936 H 0.11798 0.43247 0.81765 0.0
C937 C 0.15974 0.38294 0.67773 0.0
C938 C 0.13195 0.38645 0.64971 0.0
C939 C 0.16384 0.38925 0.73335 0.0
C940 C 0.1302 0.42209 0.84492 0.0
H941 H 0.13898 0.39369 0.12706 0.0
H942 H 0.14446 0.3864 0.02699 0.0
H943 H 0.12049 0.43999 0.91758 0.0
H944 H 0.08654 0.39929 0.6582 0.0
H945 H 0.09335 0.40989 0.75556 0.0
H946 H 0.17015 0.37772 0.84533 0.0
C947 C 0.14559 0.40203 0.04064 0.0
C948 C 0.13211 0.42659 0.9023 0.0
C949 C 0.14245 0.40618 0.09814 0.0
C950 C 0.10844 0.39669 0.67824 0.0
C951 C 0.1124 0.40278 0.73417 0.0
C952 C 0.15979 0.39161 0.86025 0.0
C953 C 0.14815 0.41791 0.00119 0.0
C954 C 0.14785 0.41366 0.93952 0.0
C955 C 0.14006 0.39896 0.76267 0.0
C956 C 0.14366 0.40441 0.82321 0.0
H957 H 0.14483 0.45776 0.09211 0.0
H958 H 0.15169 0.45057 0.99226 0.0
H959 H 0.17462 0.38603 0.94473 0.0
H960 H 0.17836 0.37521 0.65664 0.0
H961 H 0.18567 0.38642 0.75341 0.0
C962 C 0.38445 0.62766 0.66829 0.0
C963 C 0.38551 0.64846 0.65485 0.0
C964 C 0.38048 0.62131 0.72415 0.0
C965 C 0.35216 0.63868 0.86265 0.0
H966 H 0.4056 0.59717 0.92305 0.0
C967 C 0.36773 0.62521 0.10174 0.0
C968 C 0.37363 0.6054 0.12059 0.0
C969 C 0.36533 0.62936 0.04406 0.0
C970 C 0.39006 0.60852 0.90674 0.0
H971 H 0.38293 0.67875 0.69049 0.0
H972 H 0.3759 0.66762 0.78703 0.0
H973 H 0.40888 0.60614 0.8237 0.0
H974 H 0.38011 0.57429 0.09397 0.0
H975 H 0.37512 0.5814 0.9937 0.0
H976 H 0.33342 0.64117 0.94568 0.0
C977 C 0.37795 0.65626 0.75433 0.0
C978 C 0.39202 0.61368 0.84973 0.0
C979 C 0.38212 0.66261 0.69878 0.0
C980 C 0.37578 0.58974 0.08072 0.0
C981 C 0.37312 0.59384 0.0232 0.0
C982 C 0.35005 0.63344 0.91961 0.0
C983 C 0.37712 0.63556 0.76772 0.0
C984 C 0.37341 0.62902 0.82723 0.0
C985 C 0.36864 0.61378 0.004 0.0
C986 C 0.36925 0.61846 0.94258 0.0
H987 H 0.38613 0.61618 0.63597 0.0
H988 H 0.37959 0.60523 0.73315 0.0
H989 H 0.33719 0.65037 0.8463 0.0
H990 H 0.36654 0.6377 0.13119 0.0
H991 H 0.36227 0.64494 0.03086 0.0
C992 C 0.88449 0.90165 0.16452 0.0
C993 C 0.88166 0.88127 0.14782 0.0
C994 C 0.88278 0.90695 0.22156 0.0
C995 C 0.89067 0.88545 0.3648 0.0
H996 H 0.84399 0.9326 0.41053 0.0
C997 C 0.86915 0.9034 0.5993 0.0
C998 C 0.87317 0.92372 0.61561 0.0
C999 C 0.8679 0.89816 0.54221 0.0
C1000 C 0.85731 0.91947 0.39842 0.0
H1001 H 0.87478 0.85059 0.17832 0.0
H1002 H 0.87158 0.85987 0.27714 0.0
H1003 H 0.84774 0.92397 0.31076 0.0
H1004 H 0.87809 0.95446 0.58437 0.0
H1005 H 0.87629 0.9453 0.4853 0.0
H1006 H 0.90049 0.88101 0.45222 0.0
C1007 C 0.8755 0.87171 0.24635 0.0
C1008 C 0.85952 0.91457 0.34123 0.0
C1009 C 0.8771 0.86642 0.18953 0.0
C1010 C 0.87504 0.93866 0.57343 0.0
C1011 C 0.87376 0.93343 0.51649 0.0
C1012 C 0.8885 0.89037 0.42191 0.0
C1013 C 0.87827 0.89203 0.26311 0.0
C1014 C 0.87623 0.8975 0.32377 0.0
C1015 C 0.87067 0.91309 0.50012 0.0
C1016 C 0.87183 0.90745 0.43946 0.0
H1017 H 0.8874 0.91359 0.13369 0.0
H1018 H 0.88517 0.92274 0.23317 0.0
H1019 H 0.90409 0.87237 0.35271 0.0
H1020 H 0.86814 0.89139 0.63031 0.0
H1021 H 0.86517 0.88236 0.53101 0.0
C1022 C 0.62334 0.09031 0.5803 0.0
C1023 C 0.62437 0.10557 0.6216 0.0
C1024 C 0.6237 0.09521 0.52304 0.0
C1025 C 0.64065 0.13671 0.42195 0.0
H1026 H 0.58581 0.10669 0.32437 0.0
C1027 C 0.61126 0.16372 0.19762 0.0
C1028 C 0.61008 0.14921 0.15423 0.0
C1029 C 0.6139 0.15784 0.25391 0.0
C1030 C 0.60152 0.11505 0.35088 0.0
H1031 H 0.62661 0.13809 0.63456 0.0
H1032 H 0.62714 0.14664 0.53466 0.0
H1033 H 0.5895 0.09773 0.4238 0.0
H1034 H 0.61131 0.11685 0.13705 0.0
H1035 H 0.61546 0.10666 0.23546 0.0
H1036 H 0.6523 0.15422 0.34905 0.0
C1037 C 0.62664 0.13081 0.54665 0.0
C1038 C 0.60369 0.10991 0.40794 0.0
C1039 C 0.62642 0.12589 0.6041 0.0
C1040 C 0.61142 0.12854 0.16897 0.0
C1041 C 0.61396 0.12265 0.22555 0.0
C1042 C 0.6384 0.14189 0.36494 0.0
C1043 C 0.62486 0.11553 0.50539 0.0
C1044 C 0.62319 0.12073 0.4443 0.0
C1045 C 0.61547 0.13726 0.26862 0.0
C1046 C 0.61866 0.13121 0.32878 0.0
H1047 H 0.62197 0.07449 0.59225 0.0
H1048 H 0.62293 0.08302 0.49255 0.0
H1049 H 0.65627 0.14516 0.44842 0.0
H1050 H 0.61006 0.17976 0.18821 0.0
H1051 H 0.61445 0.16948 0.28605 0.0
C1052 C 0.88091 0.62659 0.89769 0.0
C1053 C 0.8833 0.60626 0.8805 0.0
C1054 C 0.88115 0.6316 0.95502 0.0
C1055 C 0.90556 0.61127 0.09358 0.0
H1056 H 0.85512 0.65462 0.15265 0.0
C1057 C 0.89569 0.62904 0.33253 0.0
C1058 C 0.89612 0.64966 0.34777 0.0
C1059 C 0.89396 0.62333 0.27577 0.0
C1060 C 0.86954 0.64258 0.13669 0.0
H1061 H 0.88699 0.57527 0.91025 0.0
H1062 H 0.88684 0.58396 0.00983 0.0
H1063 H 0.85143 0.64556 0.05331 0.0
H1064 H 0.89546 0.68034 0.31456 0.0
H1065 H 0.89243 0.67036 0.2163 0.0
H1066 H 0.92358 0.60829 0.17713 0.0
C1067 C 0.88541 0.59608 0.97915 0.0
C1068 C 0.86746 0.6374 0.07971 0.0
C1069 C 0.88531 0.59109 0.92198 0.0
C1070 C 0.89494 0.66432 0.30471 0.0
C1071 C 0.8931 0.65862 0.24822 0.0
C1072 C 0.90755 0.6164 0.15063 0.0
C1073 C 0.88376 0.61641 0.99644 0.0
C1074 C 0.88552 0.62173 0.05735 0.0
C1075 C 0.89237 0.63808 0.23303 0.0
C1076 C 0.88969 0.63219 0.17277 0.0
H1077 H 0.88003 0.63873 0.86704 0.0
H1078 H 0.88028 0.64744 0.96677 0.0
H1079 H 0.92021 0.59935 0.07766 0.0
H1080 H 0.89583 0.61722 0.36415 0.0
H1081 H 0.8931 0.60736 0.26542 0.0
C1082 C 0.61202 0.39988 0.33601 0.0
C1083 C 0.60944 0.37937 0.35186 0.0
C1084 C 0.61483 0.40532 0.27907 0.0
C1085 C 0.60196 0.38538 0.13428 0.0
H1086 H 0.65759 0.42825 0.08997 0.0
C1087 C 0.62902 0.40168 0.90011 0.0
C1088 C 0.62814 0.42218 0.88392 0.0
C1089 C 0.62888 0.39629 0.95728 0.0
C1090 C 0.64183 0.41631 0.10169 0.0
H1091 H 0.60784 0.34862 0.31936 0.0
H1092 H 0.61327 0.35806 0.2213 0.0
H1093 H 0.65182 0.41973 0.18956 0.0
H1094 H 0.62751 0.45304 0.9153 0.0
H1095 H 0.62729 0.44366 0.01446 0.0
H1096 H 0.592 0.38193 0.0465 0.0
C1097 C 0.61259 0.36999 0.25256 0.0
C1098 C 0.63841 0.41149 0.15884 0.0
C1099 C 0.60975 0.36457 0.30917 0.0
C1100 C 0.62815 0.4371 0.92623 0.0
C1101 C 0.62823 0.43173 0.98319 0.0
C1102 C 0.60547 0.39015 0.07722 0.0
C1103 C 0.61517 0.39042 0.23661 0.0
C1104 C 0.61842 0.39595 0.1759 0.0
C1105 C 0.62803 0.41127 0.99949 0.0
C1106 C 0.62541 0.40568 0.06016 0.0
H1107 H 0.61248 0.41178 0.36731 0.0
H1108 H 0.61657 0.42122 0.26831 0.0
H1109 H 0.58595 0.37357 0.1458 0.0
H1110 H 0.62856 0.38975 0.86885 0.0
H1111 H 0.62903 0.38038 0.96845 0.0
loop_
_geom_bond_atom_site_label_1
_geom_bond_atom_site_label_2
_geom_bond_distance
_geom_bond_site_symmetry_2
_ccdc_geom_bond_type
Zn0 N4 2.020 . S
Zn0 O8 2.019 . S
Zn0 N10 2.119 . S
Zn0 O18 1.975 . S
C1 N2 1.334 . S
C1 N5 1.336 . S
N2 C1 1.334 . S
N2 C3 1.334 . S
C3 N2 1.334 . S
C3 N4 1.336 . S
N4 Zn0 2.020 . S
N4 C3 1.336 . S
N4 N5 1.354 . S
N5 C1 1.336 . S
N5 N4 1.354 . S
N5 Zn9 2.020 . S
C6 O7 1.244 . S
C6 O30 1.257 . S
O7 C6 1.244 . S
O8 Zn0 2.019 . S
O8 C28 1.257 . S
Zn9 N5 2.020 . S
Zn9 O16 1.975 . S
Zn9 N25 2.119 1_554 S
Zn9 O30 2.019 . S
N10 Zn0 2.119 . S
N10 C12 1.334 . S
N10 C13 1.328 . S
C11 C12 1.391 . S
C11 N14 1.329 . S
C11 H32 0.930 . S
C12 N10 1.334 . S
C12 C11 1.391 . S
C12 H19 0.930 . S
C13 N10 1.328 . S
C13 C15 1.392 . S
C13 H20 0.930 . S
N14 C11 1.329 . S
N14 C15 1.331 . S
C15 C13 1.392 . S
C15 N14 1.331 . S
O16 Zn9 1.975 . S
O16 C17 1.252 . S
C17 O16 1.252 . S
C17 O18 1.252 . S
O18 Zn0 1.975 . S
O18 C17 1.252 . S
H19 C12 0.930 . S
H20 C13 0.930 . S
C21 C22 1.392 . S
C21 N25 1.328 . S
C21 H27 0.930 . S
C22 C21 1.392 . S
C22 N26 1.331 . S
C23 C24 1.391 . S
C23 N26 1.329 . S
C23 H33 0.930 . S
C24 C23 1.391 . S
C24 N25 1.334 . S
C24 H31 0.930 . S
N25 Zn9 2.119 1_556 S
N25 C21 1.328 . S
N25 C24 1.334 . S
N26 C22 1.331 . S
N26 C23 1.329 . S
H27 C21 0.930 . S
C28 O8 1.257 . S
C28 O29 1.244 . S
O29 C28 1.244 . S
O30 C6 1.257 . S
O30 Zn9 2.019 . S
H31 C24 0.930 . S
H32 C11 0.930 . S
H33 C23 0.930 . S
Zn34 N38 2.020 . S
Zn34 O42 2.019 . S
Zn34 N44 2.119 1_554 S
Zn34 O52 1.975 . S
C35 N36 1.334 . S
C35 N39 1.336 . S
N36 C35 1.334 . S
N36 C37 1.334 . S
C37 N36 1.334 . S
C37 N38 1.336 . S
N38 Zn34 2.020 . S
N38 C37 1.336 . S
N38 N39 1.354 . S
N39 C35 1.336 . S
N39 N38 1.354 . S
N39 Zn43 2.020 . S
C40 O41 1.244 . S
C40 O64 1.257 . S
O41 C40 1.244 . S
O42 Zn34 2.019 . S
O42 C62 1.257 . S
Zn43 N39 2.020 . S
Zn43 O50 1.975 . S
Zn43 N59 2.119 . S
Zn43 O64 2.019 . S
N44 Zn34 2.119 1_556 S
N44 C46 1.334 . S
N44 C47 1.328 . S
C45 C46 1.391 . S
C45 N48 1.329 . S
C45 H66 0.930 . S
C46 N44 1.334 . S
C46 C45 1.391 . S
C46 H53 0.930 . S
C47 N44 1.328 . S
C47 C49 1.392 . S
C47 H54 0.930 . S
N48 C45 1.329 . S
N48 C49 1.331 . S
C49 C47 1.392 . S
C49 N48 1.331 . S
O50 Zn43 1.975 . S
O50 C51 1.252 . S
C51 O50 1.252 . S
C51 O52 1.252 . S
O52 Zn34 1.975 . S
O52 C51 1.252 . S
H53 C46 0.930 . S
H54 C47 0.930 . S
C55 C56 1.392 . S
C55 N59 1.328 . S
C55 H61 0.930 . S
C56 C55 1.392 . S
C56 N60 1.331 . S
C57 C58 1.391 . S
C57 N60 1.329 . S
C57 H67 0.930 . S
C58 C57 1.391 . S
C58 N59 1.334 . S
C58 H65 0.930 . S
N59 Zn43 2.119 . S
N59 C55 1.328 . S
N59 C58 1.334 . S
N60 C56 1.331 . S
N60 C57 1.329 . S
H61 C55 0.930 . S
C62 O42 1.257 . S
C62 O63 1.244 . S
O63 C62 1.244 . S
O64 C40 1.257 . S
O64 Zn43 2.019 . S
H65 C58 0.930 . S
H66 C45 0.930 . S
H67 C57 0.930 . S
Zn68 N72 2.020 . S
Zn68 O76 2.019 . S
Zn68 N78 2.119 . S
Zn68 O86 1.975 . S
C69 N70 1.334 . S
C69 N73 1.336 . S
N70 C69 1.334 . S
N70 C71 1.334 . S
C71 N70 1.334 . S
C71 N72 1.336 . S
N72 Zn68 2.020 . S
N72 C71 1.336 . S
N72 N73 1.354 . S
N73 C69 1.336 . S
N73 N72 1.354 . S
N73 Zn77 2.020 . S
C74 O75 1.244 . S
C74 O98 1.257 . S
O75 C74 1.244 . S
O76 Zn68 2.019 . S
O76 C96 1.257 . S
Zn77 N73 2.020 . S
Zn77 O84 1.975 . S
Zn77 N93 2.119 . S
Zn77 O98 2.019 . S
N78 Zn68 2.119 . S
N78 C80 1.334 . S
N78 C81 1.328 . S
C79 C80 1.391 . S
C79 N82 1.329 . S
C79 H100 0.930 . S
C80 N78 1.334 . S
C80 C79 1.391 . S
C80 H87 0.930 . S
C81 N78 1.328 . S
C81 C83 1.392 . S
C81 H88 0.930 . S
N82 C79 1.329 . S
N82 C83 1.331 . S
C83 C81 1.392 . S
C83 N82 1.331 . S
O84 Zn77 1.975 . S
O84 C85 1.252 . S
C85 O84 1.252 . S
C85 O86 1.252 . S
O86 Zn68 1.975 . S
O86 C85 1.252 . S
H87 C80 0.930 . S
H88 C81 0.930 . S
C89 C90 1.392 . S
C89 N93 1.328 . S
C89 H95 0.930 . S
C90 C89 1.392 . S
C90 N94 1.331 . S
C91 C92 1.391 . S
C91 N94 1.329 . S
C91 H101 0.930 . S
C92 C91 1.391 . S
C92 N93 1.334 . S
C92 H99 0.930 . S
N93 Zn77 2.119 . S
N93 C89 1.328 . S
N93 C92 1.334 . S
N94 C90 1.331 . S
N94 C91 1.329 . S
H95 C89 0.930 . S
C96 O76 1.257 . S
C96 O97 1.244 . S
O97 C96 1.244 . S
O98 C74 1.257 . S
O98 Zn77 2.019 . S
H99 C92 0.930 . S
H100 C79 0.930 . S
H101 C91 0.930 . S
Zn102 N106 2.020 . S
Zn102 O110 2.019 . S
Zn102 N112 2.119 . S
Zn102 O120 1.975 . S
C103 N104 1.334 . S
C103 N107 1.336 . S
N104 C103 1.334 . S
N104 C105 1.334 . S
C105 N104 1.334 . S
C105 N106 1.336 . S
N106 Zn102 2.020 . S
N106 C105 1.336 . S
N106 N107 1.354 . S
N107 C103 1.336 . S
N107 N106 1.354 . S
N107 Zn111 2.020 . S
C108 O109 1.244 . S
C108 O132 1.257 . S
O109 C108 1.244 . S
O110 Zn102 2.019 . S
O110 C130 1.257 . S
Zn111 N107 2.020 . S
Zn111 O118 1.975 . S
Zn111 N127 2.119 . S
Zn111 O132 2.019 . S
N112 Zn102 2.119 . S
N112 C114 1.334 . S
N112 C115 1.328 . S
C113 C114 1.391 . S
C113 N116 1.329 . S
C113 H134 0.930 . S
C114 N112 1.334 . S
C114 C113 1.391 . S
C114 H121 0.930 . S
C115 N112 1.328 . S
C115 C117 1.392 . S
C115 H122 0.930 . S
N116 C113 1.329 . S
N116 C117 1.331 . S
C117 C115 1.392 . S
C117 N116 1.331 . S
O118 Zn111 1.975 . S
O118 C119 1.252 . S
C119 O118 1.252 . S
C119 O120 1.252 . S
O120 Zn102 1.975 . S
O120 C119 1.252 . S
H121 C114 0.930 . S
H122 C115 0.930 . S
C123 C124 1.392 . S
C123 N127 1.328 . S
C123 H129 0.930 . S
C124 C123 1.392 . S
C124 N128 1.331 . S
C125 C126 1.391 . S
C125 N128 1.329 . S
C125 H135 0.930 . S
C126 C125 1.391 . S
C126 N127 1.334 . S
C126 H133 0.930 . S
N127 Zn111 2.119 . S
N127 C123 1.328 . S
N127 C126 1.334 . S
N128 C124 1.331 . S
N128 C125 1.329 . S
H129 C123 0.930 . S
C130 O110 1.257 . S
C130 O131 1.244 . S
O131 C130 1.244 . S
O132 C108 1.257 . S
O132 Zn111 2.019 . S
H133 C126 0.930 . S
H134 C113 0.930 . S
H135 C125 0.930 . S
Zn136 N140 2.020 . S
Zn136 O144 2.019 . S
Zn136 N146 2.119 . S
Zn136 O154 1.975 . S
C137 N138 1.334 . S
C137 N141 1.336 . S
N138 C137 1.334 . S
N138 C139 1.334 . S
C139 N138 1.334 . S
C139 N140 1.336 . S
N140 Zn136 2.020 . S
N140 C139 1.336 . S
N140 N141 1.354 . S
N141 C137 1.336 . S
N141 N140 1.354 . S
N141 Zn145 2.020 . S
C142 O143 1.244 . S
C142 O166 1.257 . S
O143 C142 1.244 . S
O144 Zn136 2.019 . S
O144 C164 1.257 . S
Zn145 N141 2.020 . S
Zn145 O152 1.975 . S
Zn145 N161 2.119 1_556 S
Zn145 O166 2.019 . S
N146 Zn136 2.119 . S
N146 C148 1.334 . S
N146 C149 1.328 . S
C147 C148 1.391 . S
C147 N150 1.329 . S
C147 H168 0.930 . S
C148 N146 1.334 . S
C148 C147 1.391 . S
C148 H155 0.930 . S
C149 N146 1.328 . S
C149 C151 1.392 . S
C149 H156 0.930 . S
N150 C147 1.329 . S
N150 C151 1.331 . S
C151 C149 1.392 . S
C151 N150 1.331 . S
O152 Zn145 1.975 . S
O152 C153 1.252 . S
C153 O152 1.252 . S
C153 O154 1.252 . S
O154 Zn136 1.975 . S
O154 C153 1.252 . S
H155 C148 0.930 . S
H156 C149 0.930 . S
C157 C158 1.392 . S
C157 N161 1.328 . S
C157 H163 0.930 . S
C158 C157 1.392 . S
C158 N162 1.331 . S
C159 C160 1.391 . S
C159 N162 1.329 . S
C159 H169 0.930 . S
C160 C159 1.391 . S
C160 N161 1.334 . S
C160 H167 0.930 . S
N161 Zn145 2.119 1_554 S
N161 C157 1.328 . S
N161 C160 1.334 . S
N162 C158 1.331 . S
N162 C159 1.329 . S
H163 C157 0.930 . S
C164 O144 1.257 . S
C164 O165 1.244 . S
O165 C164 1.244 . S
O166 C142 1.257 . S
O166 Zn145 2.019 . S
H167 C160 0.930 . S
H168 C147 0.930 . S
H169 C159 0.930 . S
Zn170 N174 2.020 . S
Zn170 O178 2.019 . S
Zn170 N180 2.119 1_556 S
Zn170 O188 1.975 . S
C171 N172 1.334 . S
C171 N175 1.336 . S
N172 C171 1.334 . S
N172 C173 1.334 . S
C173 N172 1.334 . S
C173 N174 1.336 . S
N174 Zn170 2.020 . S
N174 C173 1.336 . S
N174 N175 1.354 . S
N175 C171 1.336 . S
N175 N174 1.354 . S
N175 Zn179 2.020 . S
C176 O177 1.244 . S
C176 O200 1.257 . S
O177 C176 1.244 . S
O178 Zn170 2.019 . S
O178 C198 1.257 . S
Zn179 N175 2.020 . S
Zn179 O186 1.975 . S
Zn179 N195 2.119 . S
Zn179 O200 2.019 . S
N180 Zn170 2.119 1_554 S
N180 C182 1.334 . S
N180 C183 1.328 . S
C181 C182 1.391 . S
C181 N184 1.329 . S
C181 H202 0.930 . S
C182 N180 1.334 . S
C182 C181 1.391 . S
C182 H189 0.930 . S
C183 N180 1.328 . S
C183 C185 1.392 . S
C183 H190 0.930 . S
N184 C181 1.329 . S
N184 C185 1.331 . S
C185 C183 1.392 . S
C185 N184 1.331 . S
O186 Zn179 1.975 . S
O186 C187 1.252 . S
C187 O186 1.252 . S
C187 O188 1.252 . S
O188 Zn170 1.975 . S
O188 C187 1.252 . S
H189 C182 0.930 . S
H190 C183 0.930 . S
C191 C192 1.392 . S
C191 N195 1.328 . S
C191 H197 0.930 . S
C192 C191 1.392 . S
C192 N196 1.331 . S
C193 C194 1.391 . S
C193 N196 1.329 . S
C193 H203 0.930 . S
C194 C193 1.391 . S
C194 N195 1.334 . S
C194 H201 0.930 . S
N195 Zn179 2.119 . S
N195 C191 1.328 . S
N195 C194 1.334 . S
N196 C192 1.331 . S
N196 C193 1.329 . S
H197 C191 0.930 . S
C198 O178 1.257 . S
C198 O199 1.244 . S
O199 C198 1.244 . S
O200 C176 1.257 . S
O200 Zn179 2.019 . S
H201 C194 0.930 . S
H202 C181 0.930 . S
H203 C193 0.930 . S
Zn204 N208 2.020 . S
Zn204 O212 2.019 . S
Zn204 N214 2.119 . S
Zn204 O222 1.975 . S
C205 N206 1.334 . S
C205 N209 1.336 . S
N206 C205 1.334 . S
N206 C207 1.334 . S
C207 N206 1.334 . S
C207 N208 1.336 . S
N208 Zn204 2.020 . S
N208 C207 1.336 . S
N208 N209 1.354 . S
N209 C205 1.336 . S
N209 N208 1.354 . S
N209 Zn213 2.020 . S
C210 O211 1.244 . S
C210 O234 1.257 . S
O211 C210 1.244 . S
O212 Zn204 2.019 . S
O212 C232 1.257 . S
Zn213 N209 2.020 . S
Zn213 O220 1.975 . S
Zn213 N229 2.119 . S
Zn213 O234 2.019 . S
N214 Zn204 2.119 . S
N214 C216 1.334 . S
N214 C217 1.328 . S
C215 C216 1.391 . S
C215 N218 1.329 . S
C215 H236 0.930 . S
C216 N214 1.334 . S
C216 C215 1.391 . S
C216 H223 0.930 . S
C217 N214 1.328 . S
C217 C219 1.392 . S
C217 H224 0.930 . S
N218 C215 1.329 . S
N218 C219 1.331 . S
C219 C217 1.392 . S
C219 N218 1.331 . S
O220 Zn213 1.975 . S
O220 C221 1.252 . S
C221 O220 1.252 . S
C221 O222 1.252 . S
O222 Zn204 1.975 . S
O222 C221 1.252 . S
H223 C216 0.930 . S
H224 C217 0.930 . S
C225 C226 1.392 . S
C225 N229 1.328 . S
C225 H231 0.930 . S
C226 C225 1.392 . S
C226 N230 1.331 . S
C227 C228 1.391 . S
C227 N230 1.329 . S
C227 H237 0.930 . S
C228 C227 1.391 . S
C228 N229 1.334 . S
C228 H235 0.930 . S
N229 Zn213 2.119 . S
N229 C225 1.328 . S
N229 C228 1.334 . S
N230 C226 1.331 . S
N230 C227 1.329 . S
H231 C225 0.930 . S
C232 O212 1.257 . S
C232 O233 1.244 . S
O233 C232 1.244 . S
O234 C210 1.257 . S
O234 Zn213 2.019 . S
H235 C228 0.930 . S
H236 C215 0.930 . S
H237 C227 0.930 . S
Zn238 N242 2.020 . S
Zn238 O246 2.019 . S
Zn238 N248 2.119 . S
Zn238 O256 1.975 . S
C239 N240 1.334 . S
C239 N243 1.336 . S
N240 C239 1.334 . S
N240 C241 1.334 . S
C241 N240 1.334 . S
C241 N242 1.336 . S
N242 Zn238 2.020 . S
N242 C241 1.336 . S
N242 N243 1.354 . S
N243 C239 1.336 . S
N243 N242 1.354 . S
N243 Zn247 2.020 . S
C244 O245 1.244 . S
C244 O268 1.257 . S
O245 C244 1.244 . S
O246 Zn238 2.019 . S
O246 C266 1.257 . S
Zn247 N243 2.020 . S
Zn247 O254 1.975 . S
Zn247 N263 2.119 . S
Zn247 O268 2.019 . S
N248 Zn238 2.119 . S
N248 C250 1.334 . S
N248 C251 1.328 . S
C249 C250 1.391 . S
C249 N252 1.329 . S
C249 H270 0.930 . S
C250 N248 1.334 . S
C250 C249 1.391 . S
C250 H257 0.930 . S
C251 N248 1.328 . S
C251 C253 1.392 . S
C251 H258 0.930 . S
N252 C249 1.329 . S
N252 C253 1.331 . S
C253 C251 1.392 . S
C253 N252 1.331 . S
O254 Zn247 1.975 . S
O254 C255 1.252 . S
C255 O254 1.252 . S
C255 O256 1.252 . S
O256 Zn238 1.975 . S
O256 C255 1.252 . S
H257 C250 0.930 . S
H258 C251 0.930 . S
C259 C260 1.392 . S
C259 N263 1.328 . S
C259 H265 0.930 . S
C260 C259 1.392 . S
C260 N264 1.331 . S
C261 C262 1.391 . S
C261 N264 1.329 . S
C261 H271 0.930 . S
C262 C261 1.391 . S
C262 N263 1.334 . S
C262 H269 0.930 . S
N263 Zn247 2.119 . S
N263 C259 1.328 . S
N263 C262 1.334 . S
N264 C260 1.331 . S
N264 C261 1.329 . S
H265 C259 0.930 . S
C266 O246 1.257 . S
C266 O267 1.244 . S
O267 C266 1.244 . S
O268 C244 1.257 . S
O268 Zn247 2.019 . S
H269 C262 0.930 . S
H270 C249 0.930 . S
H271 C261 0.930 . S
C272 C273 1.349 . S
C272 C274 1.327 1_556 S
C272 H297 0.950 . S
C273 C272 1.349 . S
C273 C289 1.349 . S
C274 C272 1.327 1_554 S
C274 C293 1.429 1_554 S
C274 H298 0.950 . S
C275 C292 1.574 1_556 S
C275 C294 1.368 1_556 S
C275 H299 0.949 . S
H276 C280 0.949 . S
C277 C278 1.349 . S
C277 C279 1.327 . S
C277 H300 0.950 . S
C278 C277 1.349 . S
C278 C290 1.349 . S
C279 C277 1.327 . S
C279 C295 1.429 . S
C279 H301 0.950 . S
C280 H276 0.949 . S
C280 C288 1.574 . S
C280 C296 1.368 . S
H281 C289 0.950 . S
H282 C287 0.950 . S
H283 C288 0.949 . S
H284 C290 0.950 . S
H285 C291 0.950 . S
H286 C292 0.949 . S
C287 H282 0.950 . S
C287 C289 1.327 . S
C287 C293 1.429 . S
C288 C280 1.574 . S
C288 H283 0.949 . S
C288 C294 1.368 . S
C289 C273 1.349 . S
C289 H281 0.950 . S
C289 C287 1.327 . S
C290 C278 1.349 . S
C290 H284 0.950 . S
C290 C291 1.327 . S
C291 H285 0.950 . S
C291 C290 1.327 . S
C291 C295 1.429 . S
C292 C275 1.574 1_554 S
C292 H286 0.949 . S
C292 C296 1.368 . S
C293 C274 1.429 1_556 S
C293 C287 1.429 . S
C293 C294 1.523 1_556 S
C294 C275 1.368 1_554 S
C294 C288 1.368 . S
C294 C293 1.523 1_554 S
C295 C279 1.429 . S
C295 C291 1.429 . S
C295 C296 1.523 . S
C296 C280 1.368 . S
C296 C292 1.368 . S
C296 C295 1.523 . S
H297 C272 0.950 . S
H298 C274 0.950 . S
H299 C275 0.949 . S
H300 C277 0.950 . S
H301 C279 0.950 . S
C302 C303 1.349 . S
C302 C304 1.327 . S
C302 H327 0.950 . S
C303 C302 1.349 . S
C303 C319 1.349 . S
C304 C302 1.327 . S
C304 C323 1.429 . S
C304 H328 0.950 . S
C305 C322 1.574 1_554 S
C305 C324 1.368 . S
C305 H329 0.949 . S
H306 C310 0.949 . S
C307 C308 1.349 . S
C307 C309 1.327 . S
C307 H330 0.950 . S
C308 C307 1.349 . S
C308 C320 1.349 . S
C309 C307 1.327 . S
C309 C325 1.429 . S
C309 H331 0.950 . S
C310 H306 0.949 . S
C310 C318 1.574 . S
C310 C326 1.368 . S
H311 C319 0.950 . S
H312 C317 0.950 . S
H313 C318 0.949 . S
H314 C320 0.950 . S
H315 C321 0.950 . S
H316 C322 0.949 . S
C317 H312 0.950 . S
C317 C319 1.327 . S
C317 C323 1.429 . S
C318 C310 1.574 . S
C318 H313 0.949 . S
C318 C324 1.368 . S
C319 C303 1.349 . S
C319 H311 0.950 . S
C319 C317 1.327 . S
C320 C308 1.349 . S
C320 H314 0.950 . S
C320 C321 1.327 1_556 S
C321 H315 0.950 . S
C321 C320 1.327 1_554 S
C321 C325 1.429 1_554 S
C322 C305 1.574 1_556 S
C322 H316 0.949 . S
C322 C326 1.368 1_556 S
C323 C304 1.429 . S
C323 C317 1.429 . S
C323 C324 1.523 . S
C324 C305 1.368 . S
C324 C318 1.368 . S
C324 C323 1.523 . S
C325 C309 1.429 . S
C325 C321 1.429 1_556 S
C325 C326 1.523 1_556 S
C326 C310 1.368 . S
C326 C322 1.368 1_554 S
C326 C325 1.523 1_554 S
H327 C302 0.950 . S
H328 C304 0.950 . S
H329 C305 0.949 . S
H330 C307 0.950 . S
H331 C309 0.950 . S
C332 C333 1.349 . S
C332 C334 1.327 . S
C332 H357 0.950 . S
C333 C332 1.349 . S
C333 C349 1.349 . S
C334 C332 1.327 . S
C334 C353 1.429 . S
C334 H358 0.950 . S
C335 C352 1.574 . S
C335 C354 1.368 . S
C335 H359 0.949 . S
H336 C340 0.949 . S
C337 C338 1.349 . S
C337 C339 1.327 . S
C337 H360 0.950 . S
C338 C337 1.349 . S
C338 C350 1.349 . S
C339 C337 1.327 . S
C339 C355 1.429 . S
C339 H361 0.950 . S
C340 H336 0.949 . S
C340 C348 1.574 . S
C340 C356 1.368 . S
H341 C349 0.950 . S
H342 C347 0.950 . S
H343 C348 0.949 . S
H344 C350 0.950 . S
H345 C351 0.950 . S
H346 C352 0.949 . S
C347 H342 0.950 . S
C347 C349 1.327 . S
C347 C353 1.429 . S
C348 C340 1.574 . S
C348 H343 0.949 . S
C348 C354 1.368 . S
C349 C333 1.349 . S
C349 H341 0.950 . S
C349 C347 1.327 . S
C350 C338 1.349 . S
C350 H344 0.950 . S
C350 C351 1.327 . S
C351 H345 0.950 . S
C351 C350 1.327 . S
C351 C355 1.429 . S
C352 C335 1.574 . S
C352 H346 0.949 . S
C352 C356 1.368 . S
C353 C334 1.429 . S
C353 C347 1.429 . S
C353 C354 1.523 . S
C354 C335 1.368 . S
C354 C348 1.368 . S
C354 C353 1.523 . S
C355 C339 1.429 . S
C355 C351 1.429 . S
C355 C356 1.523 . S
C356 C340 1.368 . S
C356 C352 1.368 . S
C356 C355 1.523 . S
H357 C332 0.950 . S
H358 C334 0.950 . S
H359 C335 0.949 . S
H360 C337 0.950 . S
H361 C339 0.950 . S
C362 C363 1.349 . S
C362 C364 1.327 . S
C362 H387 0.950 . S
C363 C362 1.349 . S
C363 C379 1.349 . S
C364 C362 1.327 . S
C364 C383 1.429 . S
C364 H388 0.950 . S
C365 C382 1.574 . S
C365 C384 1.368 . S
C365 H389 0.949 . S
H366 C370 0.949 . S
C367 C368 1.349 . S
C367 C369 1.327 . S
C367 H390 0.950 . S
C368 C367 1.349 . S
C368 C380 1.349 . S
C369 C367 1.327 . S
C369 C385 1.429 . S
C369 H391 0.950 . S
C370 H366 0.949 . S
C370 C378 1.574 . S
C370 C386 1.368 . S
H371 C379 0.950 . S
H372 C377 0.950 . S
H373 C378 0.949 . S
H374 C380 0.950 . S
H375 C381 0.950 . S
H376 C382 0.949 . S
C377 H372 0.950 . S
C377 C379 1.327 . S
C377 C383 1.429 . S
C378 C370 1.574 . S
C378 H373 0.949 . S
C378 C384 1.368 . S
C379 C363 1.349 . S
C379 H371 0.950 . S
C379 C377 1.327 . S
C380 C368 1.349 . S
C380 H374 0.950 . S
C380 C381 1.327 . S
C381 H375 0.950 . S
C381 C380 1.327 . S
C381 C385 1.429 . S
C382 C365 1.574 . S
C382 H376 0.949 . S
C382 C386 1.368 . S
C383 C364 1.429 . S
C383 C377 1.429 . S
C383 C384 1.523 . S
C384 C365 1.368 . S
C384 C378 1.368 . S
C384 C383 1.523 . S
C385 C369 1.429 . S
C385 C381 1.429 . S
C385 C386 1.523 . S
C386 C370 1.368 . S
C386 C382 1.368 . S
C386 C385 1.523 . S
H387 C362 0.950 . S
H388 C364 0.950 . S
H389 C365 0.949 . S
H390 C367 0.950 . S
H391 C369 0.950 . S
C392 C393 1.349 . S
C392 C394 1.327 . S
C392 H417 0.950 . S
C393 C392 1.349 . S
C393 C409 1.349 . S
C394 C392 1.327 . S
C394 C413 1.429 . S
C394 H418 0.950 . S
C395 C412 1.574 1_556 S
C395 C414 1.368 . S
C395 H419 0.949 . S
H396 C400 0.949 . S
C397 C398 1.349 . S
C397 C399 1.327 . S
C397 H420 0.950 . S
C398 C397 1.349 . S
C398 C410 1.349 . S
C399 C397 1.327 . S
C399 C415 1.429 . S
C399 H421 0.950 . S
C400 H396 0.949 . S
C400 C408 1.574 . S
C400 C416 1.368 . S
H401 C409 0.950 . S
H402 C407 0.950 . S
H403 C408 0.949 . S
H404 C410 0.950 . S
H405 C411 0.950 . S
H406 C412 0.949 . S
C407 H402 0.950 . S
C407 C409 1.327 . S
C407 C413 1.429 . S
C408 C400 1.574 . S
C408 H403 0.949 . S
C408 C414 1.368 . S
C409 C393 1.349 . S
C409 H401 0.950 . S
C409 C407 1.327 . S
C410 C398 1.349 . S
C410 H404 0.950 . S
C410 C411 1.327 1_554 S
C411 H405 0.950 . S
C411 C410 1.327 1_556 S
C411 C415 1.429 1_556 S
C412 C395 1.574 1_554 S
C412 H406 0.949 . S
C412 C416 1.368 1_554 S
C413 C394 1.429 . S
C413 C407 1.429 . S
C413 C414 1.523 . S
C414 C395 1.368 . S
C414 C408 1.368 . S
C414 C413 1.523 . S
C415 C399 1.429 . S
C415 C411 1.429 1_554 S
C415 C416 1.523 1_554 S
C416 C400 1.368 . S
C416 C412 1.368 1_556 S
C416 C415 1.523 1_556 S
H417 C392 0.950 . S
H418 C394 0.950 . S
H419 C395 0.949 . S
H420 C397 0.950 . S
H421 C399 0.950 . S
C422 C423 1.349 . S
C422 C424 1.327 . S
C422 H447 0.950 . S
C423 C422 1.349 . S
C423 C439 1.349 . S
C424 C422 1.327 . S
C424 C443 1.429 . S
C424 H448 0.950 . S
C425 C442 1.574 1_556 S
C425 C444 1.368 . S
C425 H449 0.949 . S
H426 C430 0.949 . S
C427 C428 1.349 . S
C427 C429 1.327 . S
C427 H450 0.950 . S
C428 C427 1.349 . S
C428 C440 1.349 . S
C429 C427 1.327 . S
C429 C445 1.429 . S
C429 H451 0.950 . S
C430 H426 0.949 . S
C430 C438 1.574 . S
C430 C446 1.368 . S
H431 C439 0.950 . S
H432 C437 0.950 . S
H433 C438 0.949 . S
H434 C440 0.950 . S
H435 C441 0.950 . S
H436 C442 0.949 . S
C437 H432 0.950 . S
C437 C439 1.327 . S
C437 C443 1.429 . S
C438 C430 1.574 . S
C438 H433 0.949 . S
C438 C444 1.368 . S
C439 C423 1.349 . S
C439 H431 0.950 . S
C439 C437 1.327 . S
C440 C428 1.349 . S
C440 H434 0.950 . S
C440 C441 1.327 1_554 S
C441 H435 0.950 . S
C441 C440 1.327 1_556 S
C441 C445 1.429 1_556 S
C442 C425 1.574 1_554 S
C442 H436 0.949 . S
C442 C446 1.368 1_554 S
C443 C424 1.429 . S
C443 C437 1.429 . S
C443 C444 1.523 . S
C444 C425 1.368 . S
C444 C438 1.368 . S
C444 C443 1.523 . S
C445 C429 1.429 . S
C445 C441 1.429 1_554 S
C445 C446 1.523 1_554 S
C446 C430 1.368 . S
C446 C442 1.368 1_556 S
C446 C445 1.523 1_556 S
H447 C422 0.950 . S
H448 C424 0.950 . S
H449 C425 0.949 . S
H450 C427 0.950 . S
H451 C429 0.950 . S
C452 C453 1.349 . S
C452 C454 1.327 . S
C452 H477 0.950 . S
C453 C452 1.349 . S
C453 C469 1.349 . S
C454 C452 1.327 . S
C454 C473 1.429 . S
C454 H478 0.950 . S
C455 C472 1.574 . S
C455 C474 1.368 . S
C455 H479 0.949 . S
H456 C460 0.949 . S
C457 C458 1.349 . S
C457 C459 1.327 . S
C457 H480 0.950 . S
C458 C457 1.349 . S
C458 C470 1.349 . S
C459 C457 1.327 . S
C459 C475 1.429 . S
C459 H481 0.950 . S
C460 H456 0.949 . S
C460 C468 1.574 . S
C460 C476 1.368 . S
H461 C469 0.950 . S
H462 C467 0.950 . S
H463 C468 0.949 . S
H464 C470 0.950 . S
H465 C471 0.950 . S
H466 C472 0.949 . S
C467 H462 0.950 . S
C467 C469 1.327 . S
C467 C473 1.429 . S
C468 C460 1.574 . S
C468 H463 0.949 . S
C468 C474 1.368 . S
C469 C453 1.349 . S
C469 H461 0.950 . S
C469 C467 1.327 . S
C470 C458 1.349 . S
C470 H464 0.950 . S
C470 C471 1.327 . S
C471 H465 0.950 . S
C471 C470 1.327 . S
C471 C475 1.429 . S
C472 C455 1.574 . S
C472 H466 0.949 . S
C472 C476 1.368 . S
C473 C454 1.429 . S
C473 C467 1.429 . S
C473 C474 1.523 . S
C474 C455 1.368 . S
C474 C468 1.368 . S
C474 C473 1.523 . S
C475 C459 1.429 . S
C475 C471 1.429 . S
C475 C476 1.523 . S
C476 C460 1.368 . S
C476 C472 1.368 . S
C476 C475 1.523 . S
H477 C452 0.950 . S
H478 C454 0.950 . S
H479 C455 0.949 . S
H480 C457 0.950 . S
H481 C459 0.950 . S
C482 C483 1.349 . S
C482 C484 1.327 . S
C482 H507 0.950 . S
C483 C482 1.349 . S
C483 C499 1.349 . S
C484 C482 1.327 . S
C484 C503 1.429 . S
C484 H508 0.950 . S
C485 C502 1.574 . S
C485 C504 1.368 . S
C485 H509 0.949 . S
H486 C490 0.949 . S
C487 C488 1.349 . S
C487 C489 1.327 . S
C487 H510 0.950 . S
C488 C487 1.349 . S
C488 C500 1.349 . S
C489 C487 1.327 . S
C489 C505 1.429 . S
C489 H511 0.950 . S
C490 H486 0.949 . S
C490 C498 1.574 . S
C490 C506 1.368 . S
H491 C499 0.950 . S
H492 C497 0.950 . S
H493 C498 0.949 . S
H494 C500 0.950 . S
H495 C501 0.950 . S
H496 C502 0.949 . S
C497 H492 0.950 . S
C497 C499 1.327 . S
C497 C503 1.429 . S
C498 C490 1.574 . S
C498 H493 0.949 . S
C498 C504 1.368 . S
C499 C483 1.349 . S
C499 H491 0.950 . S
C499 C497 1.327 . S
C500 C488 1.349 . S
C500 H494 0.950 . S
C500 C501 1.327 . S
C501 H495 0.950 . S
C501 C500 1.327 . S
C501 C505 1.429 . S
C502 C485 1.574 . S
C502 H496 0.949 . S
C502 C506 1.368 . S
C503 C484 1.429 . S
C503 C497 1.429 . S
C503 C504 1.523 . S
C504 C485 1.368 . S
C504 C498 1.368 . S
C504 C503 1.523 . S
C505 C489 1.429 . S
C505 C501 1.429 . S
C505 C506 1.523 . S
C506 C490 1.368 . S
C506 C502 1.368 . S
C506 C505 1.523 . S
H507 C482 0.950 . S
H508 C484 0.950 . S
H509 C485 0.949 . S
H510 C487 0.950 . S
H511 C489 0.950 . S
C512 C513 1.349 . S
C512 C514 1.327 . S
C512 H537 0.950 . S
C513 C512 1.349 . S
C513 C529 1.349 . S
C514 C512 1.327 . S
C514 C533 1.429 . S
C514 H538 0.950 . S
C515 C532 1.574 . S
C515 C534 1.368 . S
C515 H539 0.949 . S
H516 C520 0.949 . S
C517 C518 1.349 . S
C517 C519 1.327 . S
C517 H540 0.950 . S
C518 C517 1.349 . S
C518 C530 1.349 . S
C519 C517 1.327 . S
C519 C535 1.429 . S
C519 H541 0.950 . S
C520 H516 0.949 . S
C520 C528 1.574 . S
C520 C536 1.368 . S
H521 C529 0.950 . S
H522 C527 0.950 . S
H523 C528 0.949 . S
H524 C530 0.950 . S
H525 C531 0.950 . S
H526 C532 0.949 . S
C527 H522 0.950 . S
C527 C529 1.327 . S
C527 C533 1.429 . S
C528 C520 1.574 . S
C528 H523 0.949 . S
C528 C534 1.368 . S
C529 C513 1.349 . S
C529 H521 0.950 . S
C529 C527 1.327 . S
C530 C518 1.349 . S
C530 H524 0.950 . S
C530 C531 1.327 . S
C531 H525 0.950 . S
C531 C530 1.327 . S
C531 C535 1.429 . S
C532 C515 1.574 . S
C532 H526 0.949 . S
C532 C536 1.368 . S
C533 C514 1.429 . S
C533 C527 1.429 . S
C533 C534 1.523 . S
C534 C515 1.368 . S
C534 C528 1.368 . S
C534 C533 1.523 . S
C535 C519 1.429 . S
C535 C531 1.429 . S
C535 C536 1.523 . S
C536 C520 1.368 . S
C536 C532 1.368 . S
C536 C535 1.523 . S
H537 C512 0.950 . S
H538 C514 0.950 . S
H539 C515 0.949 . S
H540 C517 0.950 . S
H541 C519 0.950 . S
C542 C543 1.349 . S
C542 C544 1.327 . S
C542 H567 0.950 . S
C543 C542 1.349 . S
C543 C559 1.349 . S
C544 C542 1.327 . S
C544 C563 1.429 . S
C544 H568 0.950 . S
C545 C562 1.574 . S
C545 C564 1.368 . S
C545 H569 0.949 . S
H546 C550 0.949 . S
C547 C548 1.349 . S
C547 C549 1.327 . S
C547 H570 0.950 . S
C548 C547 1.349 . S
C548 C560 1.349 . S
C549 C547 1.327 . S
C549 C565 1.429 . S
C549 H571 0.950 . S
C550 H546 0.949 . S
C550 C558 1.574 . S
C550 C566 1.368 . S
H551 C559 0.950 . S
H552 C557 0.950 . S
H553 C558 0.949 . S
H554 C560 0.950 . S
H555 C561 0.950 . S
H556 C562 0.949 . S
C557 H552 0.950 . S
C557 C559 1.327 . S
C557 C563 1.429 . S
C558 C550 1.574 . S
C558 H553 0.949 . S
C558 C564 1.368 . S
C559 C543 1.349 . S
C559 H551 0.950 . S
C559 C557 1.327 . S
C560 C548 1.349 . S
C560 H554 0.950 . S
C560 C561 1.327 . S
C561 H555 0.950 . S
C561 C560 1.327 . S
C561 C565 1.429 . S
C562 C545 1.574 . S
C562 H556 0.949 . S
C562 C566 1.368 . S
C563 C544 1.429 . S
C563 C557 1.429 . S
C563 C564 1.523 . S
C564 C545 1.368 . S
C564 C558 1.368 . S
C564 C563 1.523 . S
C565 C549 1.429 . S
C565 C561 1.429 . S
C565 C566 1.523 . S
C566 C550 1.368 . S
C566 C562 1.368 . S
C566 C565 1.523 . S
H567 C542 0.950 . S
H568 C544 0.950 . S
H569 C545 0.949 . S
H570 C547 0.950 . S
H571 C549 0.950 . S
C572 C573 1.349 . S
C572 C574 1.327 . S
C572 H597 0.950 . S
C573 C572 1.349 . S
C573 C589 1.349 . S
C574 C572 1.327 . S
C574 C593 1.429 . S
C574 H598 0.950 . S
C575 C592 1.574 . S
C575 C594 1.368 . S
C575 H599 0.949 . S
H576 C580 0.949 . S
C577 C578 1.349 . S
C577 C579 1.327 . S
C577 H600 0.950 . S
C578 C577 1.349 . S
C578 C590 1.349 . S
C579 C577 1.327 . S
C579 C595 1.429 . S
C579 H601 0.950 . S
C580 H576 0.949 . S
C580 C588 1.574 . S
C580 C596 1.368 . S
H581 C589 0.950 . S
H582 C587 0.950 . S
H583 C588 0.949 . S
H584 C590 0.950 . S
H585 C591 0.950 . S
H586 C592 0.949 . S
C587 H582 0.950 . S
C587 C589 1.327 . S
C587 C593 1.429 . S
C588 C580 1.574 . S
C588 H583 0.949 . S
C588 C594 1.368 . S
C589 C573 1.349 . S
C589 H581 0.950 . S
C589 C587 1.327 . S
C590 C578 1.349 . S
C590 H584 0.950 . S
C590 C591 1.327 . S
C591 H585 0.950 . S
C591 C590 1.327 . S
C591 C595 1.429 . S
C592 C575 1.574 . S
C592 H586 0.949 . S
C592 C596 1.368 . S
C593 C574 1.429 . S
C593 C587 1.429 . S
C593 C594 1.523 . S
C594 C575 1.368 . S
C594 C588 1.368 . S
C594 C593 1.523 . S
C595 C579 1.429 . S
C595 C591 1.429 . S
C595 C596 1.523 . S
C596 C580 1.368 . S
C596 C592 1.368 . S
C596 C595 1.523 . S
H597 C572 0.950 . S
H598 C574 0.950 . S
H599 C575 0.949 . S
H600 C577 0.950 . S
H601 C579 0.950 . S
C602 C603 1.349 . S
C602 C604 1.327 . S
C602 H627 0.950 . S
C603 C602 1.349 . S
C603 C619 1.349 . S
C604 C602 1.327 . S
C604 C623 1.429 . S
C604 H628 0.950 . S
C605 C622 1.574 . S
C605 C624 1.368 . S
C605 H629 0.949 . S
H606 C610 0.949 . S
C607 C608 1.349 . S
C607 C609 1.327 . S
C607 H630 0.950 . S
C608 C607 1.349 . S
C608 C620 1.349 . S
C609 C607 1.327 . S
C609 C625 1.429 . S
C609 H631 0.950 . S
C610 H606 0.949 . S
C610 C618 1.574 . S
C610 C626 1.368 . S
H611 C619 0.950 . S
H612 C617 0.950 . S
H613 C618 0.949 . S
H614 C620 0.950 . S
H615 C621 0.950 . S
H616 C622 0.949 . S
C617 H612 0.950 . S
C617 C619 1.327 . S
C617 C623 1.429 . S
C618 C610 1.574 . S
C618 H613 0.949 . S
C618 C624 1.368 . S
C619 C603 1.349 . S
C619 H611 0.950 . S
C619 C617 1.327 . S
C620 C608 1.349 . S
C620 H614 0.950 . S
C620 C621 1.327 . S
C621 H615 0.950 . S
C621 C620 1.327 . S
C621 C625 1.429 . S
C622 C605 1.574 . S
C622 H616 0.949 . S
C622 C626 1.368 . S
C623 C604 1.429 . S
C623 C617 1.429 . S
C623 C624 1.523 . S
C624 C605 1.368 . S
C624 C618 1.368 . S
C624 C623 1.523 . S
C625 C609 1.429 . S
C625 C621 1.429 . S
C625 C626 1.523 . S
C626 C610 1.368 . S
C626 C622 1.368 . S
C626 C625 1.523 . S
H627 C602 0.950 . S
H628 C604 0.950 . S
H629 C605 0.949 . S
H630 C607 0.950 . S
H631 C609 0.950 . S
C632 C633 1.349 . S
C632 C634 1.327 . S
C632 H657 0.950 . S
C633 C632 1.349 . S
C633 C649 1.349 . S
C634 C632 1.327 . S
C634 C653 1.429 . S
C634 H658 0.950 . S
C635 C652 1.574 1_565 S
C635 C654 1.368 . S
C635 H659 0.949 . S
H636 C640 0.949 . S
C637 C638 1.349 . S
C637 C639 1.327 . S
C637 H660 0.950 . S
C638 C637 1.349 . S
C638 C650 1.349 . S
C639 C637 1.327 . S
C639 C655 1.429 . S
C639 H661 0.950 . S
C640 H636 0.949 . S
C640 C648 1.574 1_545 S
C640 C656 1.368 . S
H641 C649 0.950 . S
H642 C647 0.950 . S
H643 C648 0.949 . S
H644 C650 0.950 . S
H645 C651 0.950 . S
H646 C652 0.949 . S
C647 H642 0.950 . S
C647 C649 1.327 . S
C647 C653 1.429 . S
C648 C640 1.574 1_565 S
C648 H643 0.949 . S
C648 C654 1.368 . S
C649 C633 1.349 . S
C649 H641 0.950 . S
C649 C647 1.327 . S
C650 C638 1.349 . S
C650 H644 0.950 . S
C650 C651 1.327 . S
C651 H645 0.950 . S
C651 C650 1.327 . S
C651 C655 1.429 . S
C652 C635 1.574 1_545 S
C652 H646 0.949 . S
C652 C656 1.368 . S
C653 C634 1.429 . S
C653 C647 1.429 . S
C653 C654 1.523 . S
C654 C635 1.368 . S
C654 C648 1.368 . S
C654 C653 1.523 . S
C655 C639 1.429 . S
C655 C651 1.429 . S
C655 C656 1.523 . S
C656 C640 1.368 . S
C656 C652 1.368 . S
C656 C655 1.523 . S
H657 C632 0.950 . S
H658 C634 0.950 . S
H659 C635 0.949 . S
H660 C637 0.950 . S
H661 C639 0.950 . S
C662 C663 1.349 . S
C662 C664 1.327 . S
C662 H687 0.950 . S
C663 C662 1.349 . S
C663 C679 1.349 . S
C664 C662 1.327 . S
C664 C683 1.429 . S
C664 H688 0.950 . S
C665 C682 1.574 . S
C665 C684 1.368 . S
C665 H689 0.949 . S
H666 C670 0.949 . S
C667 C668 1.349 . S
C667 C669 1.327 . S
C667 H690 0.950 . S
C668 C667 1.349 . S
C668 C680 1.349 . S
C669 C667 1.327 . S
C669 C685 1.429 . S
C669 H691 0.950 . S
C670 H666 0.949 . S
C670 C678 1.574 . S
C670 C686 1.368 . S
H671 C679 0.950 . S
H672 C677 0.950 . S
H673 C678 0.949 . S
H674 C680 0.950 . S
H675 C681 0.950 . S
H676 C682 0.949 . S
C677 H672 0.950 . S
C677 C679 1.327 . S
C677 C683 1.429 . S
C678 C670 1.574 . S
C678 H673 0.949 . S
C678 C684 1.368 . S
C679 C663 1.349 . S
C679 H671 0.950 . S
C679 C677 1.327 . S
C680 C668 1.349 . S
C680 H674 0.950 . S
C680 C681 1.327 . S
C681 H675 0.950 . S
C681 C680 1.327 . S
C681 C685 1.429 . S
C682 C665 1.574 . S
C682 H676 0.949 . S
C682 C686 1.368 . S
C683 C664 1.429 . S
C683 C677 1.429 . S
C683 C684 1.523 . S
C684 C665 1.368 . S
C684 C678 1.368 . S
C684 C683 1.523 . S
C685 C669 1.429 . S
C685 C681 1.429 . S
C685 C686 1.523 . S
C686 C670 1.368 . S
C686 C682 1.368 . S
C686 C685 1.523 . S
H687 C662 0.950 . S
H688 C664 0.950 . S
H689 C665 0.949 . S
H690 C667 0.950 . S
H691 C669 0.950 . S
C692 C693 1.349 . S
C692 C694 1.327 . S
C692 H717 0.950 . S
C693 C692 1.349 . S
C693 C709 1.349 . S
C694 C692 1.327 . S
C694 C713 1.429 . S
C694 H718 0.950 . S
C695 C712 1.574 1_545 S
C695 C714 1.368 . S
C695 H719 0.949 . S
H696 C700 0.949 . S
C697 C698 1.349 . S
C697 C699 1.327 . S
C697 H720 0.950 . S
C698 C697 1.349 . S
C698 C710 1.349 . S
C699 C697 1.327 . S
C699 C715 1.429 . S
C699 H721 0.950 . S
C700 H696 0.949 . S
C700 C708 1.574 1_565 S
C700 C716 1.368 . S
H701 C709 0.950 . S
H702 C707 0.950 . S
H703 C708 0.949 . S
H704 C710 0.950 . S
H705 C711 0.950 . S
H706 C712 0.949 . S
C707 H702 0.950 . S
C707 C709 1.327 . S
C707 C713 1.429 . S
C708 C700 1.574 1_545 S
C708 H703 0.949 . S
C708 C714 1.368 . S
C709 C693 1.349 . S
C709 H701 0.950 . S
C709 C707 1.327 . S
C710 C698 1.349 . S
C710 H704 0.950 . S
C710 C711 1.327 . S
C711 H705 0.950 . S
C711 C710 1.327 . S
C711 C715 1.429 . S
C712 C695 1.574 1_565 S
C712 H706 0.949 . S
C712 C716 1.368 . S
C713 C694 1.429 . S
C713 C707 1.429 . S
C713 C714 1.523 . S
C714 C695 1.368 . S
C714 C708 1.368 . S
C714 C713 1.523 . S
C715 C699 1.429 . S
C715 C711 1.429 . S
C715 C716 1.523 . S
C716 C700 1.368 . S
C716 C712 1.368 . S
C716 C715 1.523 . S
H717 C692 0.950 . S
H718 C694 0.950 . S
H719 C695 0.949 . S
H720 C697 0.950 . S
H721 C699 0.950 . S
C722 C723 1.349 . S
C722 C724 1.327 . S
C722 H747 0.950 . S
C723 C722 1.349 . S
C723 C739 1.349 . S
C724 C722 1.327 . S
C724 C743 1.429 . S
C724 H748 0.950 . S
C725 C742 1.574 . S
C725 C744 1.368 . S
C725 H749 0.949 . S
H726 C730 0.949 . S
C727 C728 1.349 . S
C727 C729 1.327 . S
C727 H750 0.950 . S
C728 C727 1.349 . S
C728 C740 1.349 . S
C729 C727 1.327 . S
C729 C745 1.429 . S
C729 H751 0.950 . S
C730 H726 0.949 . S
C730 C738 1.574 . S
C730 C746 1.368 . S
H731 C739 0.950 . S
H732 C737 0.950 . S
H733 C738 0.949 . S
H734 C740 0.950 . S
H735 C741 0.950 . S
H736 C742 0.949 . S
C737 H732 0.950 . S
C737 C739 1.327 . S
C737 C743 1.429 . S
C738 C730 1.574 . S
C738 H733 0.949 . S
C738 C744 1.368 . S
C739 C723 1.349 . S
C739 H731 0.950 . S
C739 C737 1.327 . S
C740 C728 1.349 . S
C740 H734 0.950 . S
C740 C741 1.327 . S
C741 H735 0.950 . S
C741 C740 1.327 . S
C741 C745 1.429 . S
C742 C725 1.574 . S
C742 H736 0.949 . S
C742 C746 1.368 . S
C743 C724 1.429 . S
C743 C737 1.429 . S
C743 C744 1.523 . S
C744 C725 1.368 . S
C744 C738 1.368 . S
C744 C743 1.523 . S
C745 C729 1.429 . S
C745 C741 1.429 . S
C745 C746 1.523 . S
C746 C730 1.368 . S
C746 C742 1.368 . S
C746 C745 1.523 . S
H747 C722 0.950 . S
H748 C724 0.950 . S
H749 C725 0.949 . S
H750 C727 0.950 . S
H751 C729 0.950 . S
C752 C753 1.349 . S
C752 C754 1.327 . S
C752 H777 0.950 . S
C753 C752 1.349 . S
C753 C769 1.349 1_554 S
C754 C752 1.327 . S
C754 C773 1.429 . S
C754 H778 0.950 . S
C755 C772 1.574 1_545 S
C755 C774 1.368 1_556 S
C755 H779 0.949 . S
H756 C760 0.949 . S
C757 C758 1.349 . S
C757 C759 1.327 . S
C757 H780 0.950 . S
C758 C757 1.349 . S
C758 C770 1.349 1_556 S
C759 C757 1.327 . S
C759 C775 1.429 . S
C759 H781 0.950 . S
C760 H756 0.949 . S
C760 C768 1.574 1_565 S
C760 C776 1.368 1_554 S
H761 C769 0.950 . S
H762 C767 0.950 . S
H763 C768 0.949 . S
H764 C770 0.950 . S
H765 C771 0.950 . S
H766 C772 0.949 . S
C767 H762 0.950 . S
C767 C769 1.327 . S
C767 C773 1.429 1_556 S
C768 C760 1.574 1_545 S
C768 H763 0.949 . S
C768 C774 1.368 1_655 S
C769 C753 1.349 1_556 S
C769 H761 0.950 . S
C769 C767 1.327 . S
C770 C758 1.349 1_554 S
C770 H764 0.950 . S
C770 C771 1.327 . S
C771 H765 0.950 . S
C771 C770 1.327 . S
C771 C775 1.429 1_554 S
C772 C755 1.574 1_565 S
C772 H766 0.949 . S
C772 C776 1.368 1_455 S
C773 C754 1.429 . S
C773 C767 1.429 1_554 S
C773 C774 1.523 . S
C774 C755 1.368 1_554 S
C774 C768 1.368 1_455 S
C774 C773 1.523 . S
C775 C759 1.429 . S
C775 C771 1.429 1_556 S
C775 C776 1.523 . S
C776 C760 1.368 1_556 S
C776 C772 1.368 1_655 S
C776 C775 1.523 . S
H777 C752 0.950 . S
H778 C754 0.950 . S
H779 C755 0.949 . S
H780 C757 0.950 . S
H781 C759 0.950 . S
C782 C783 1.349 . S
C782 C784 1.327 . S
C782 H807 0.950 . S
C783 C782 1.349 . S
C783 C799 1.349 1_556 S
C784 C782 1.327 . S
C784 C803 1.429 . S
C784 H808 0.950 . S
C785 C802 1.574 1_545 S
C785 C804 1.368 1_554 S
C785 H809 0.949 . S
H786 C790 0.949 . S
C787 C788 1.349 . S
C787 C789 1.327 . S
C787 H810 0.950 . S
C788 C787 1.349 . S
C788 C800 1.349 1_554 S
C789 C787 1.327 . S
C789 C805 1.429 . S
C789 H811 0.950 . S
C790 H786 0.949 . S
C790 C798 1.574 1_565 S
C790 C806 1.368 1_556 S
H791 C799 0.950 . S
H792 C797 0.950 . S
H793 C798 0.949 . S
H794 C800 0.950 . S
H795 C801 0.950 . S
H796 C802 0.949 . S
C797 H792 0.950 . S
C797 C799 1.327 . S
C797 C803 1.429 1_554 S
C798 C790 1.574 1_545 S
C798 H793 0.949 . S
C798 C804 1.368 . S
C799 C783 1.349 1_554 S
C799 H791 0.950 . S
C799 C797 1.327 . S
C800 C788 1.349 1_556 S
C800 H794 0.950 . S
C800 C801 1.327 . S
C801 H795 0.950 . S
C801 C800 1.327 . S
C801 C805 1.429 1_556 S
C802 C785 1.574 1_565 S
C802 H796 0.949 . S
C802 C806 1.368 . S
C803 C784 1.429 . S
C803 C797 1.429 1_556 S
C803 C804 1.523 . S
C804 C785 1.368 1_556 S
C804 C798 1.368 . S
C804 C803 1.523 . S
C805 C789 1.429 . S
C805 C801 1.429 1_554 S
C805 C806 1.523 . S
C806 C790 1.368 1_554 S
C806 C802 1.368 . S
C806 C805 1.523 . S
H807 C782 0.950 . S
H808 C784 0.950 . S
H809 C785 0.949 . S
H810 C787 0.950 . S
H811 C789 0.950 . S
C812 C813 1.349 . S
C812 C814 1.327 . S
C812 H837 0.950 . S
C813 C812 1.349 . S
C813 C829 1.349 . S
C814 C812 1.327 . S
C814 C833 1.429 . S
C814 H838 0.950 . S
C815 C832 1.574 . S
C815 C834 1.368 . S
C815 H839 0.949 . S
H816 C820 0.949 . S
C817 C818 1.349 . S
C817 C819 1.327 . S
C817 H840 0.950 . S
C818 C817 1.349 . S
C818 C830 1.349 . S
C819 C817 1.327 . S
C819 C835 1.429 . S
C819 H841 0.950 . S
C820 H816 0.949 . S
C820 C828 1.574 . S
C820 C836 1.368 . S
H821 C829 0.950 . S
H822 C827 0.950 . S
H823 C828 0.949 . S
H824 C830 0.950 . S
H825 C831 0.950 . S
H826 C832 0.949 . S
C827 H822 0.950 . S
C827 C829 1.327 . S
C827 C833 1.429 . S
C828 C820 1.574 . S
C828 H823 0.949 . S
C828 C834 1.368 1_655 S
C829 C813 1.349 . S
C829 H821 0.950 . S
C829 C827 1.327 . S
C830 C818 1.349 . S
C830 H824 0.950 . S
C830 C831 1.327 . S
C831 H825 0.950 . S
C831 C830 1.327 . S
C831 C835 1.429 . S
C832 C815 1.574 . S
C832 H826 0.949 . S
C832 C836 1.368 1_455 S
C833 C814 1.429 . S
C833 C827 1.429 . S
C833 C834 1.523 . S
C834 C815 1.368 . S
C834 C828 1.368 1_455 S
C834 C833 1.523 . S
C835 C819 1.429 . S
C835 C831 1.429 . S
C835 C836 1.523 . S
C836 C820 1.368 . S
C836 C832 1.368 1_655 S
C836 C835 1.523 . S
H837 C812 0.950 . S
H838 C814 0.950 . S
H839 C815 0.949 . S
H840 C817 0.950 . S
H841 C819 0.950 . S
C842 C843 1.349 . S
C842 C844 1.327 . S
C842 H867 0.950 . S
C843 C842 1.349 . S
C843 C859 1.349 . S
C844 C842 1.327 . S
C844 C863 1.429 . S
C844 H868 0.950 . S
C845 C862 1.574 . S
C845 C864 1.368 . S
C845 H869 0.949 . S
H846 C850 0.949 . S
C847 C848 1.349 . S
C847 C849 1.327 . S
C847 H870 0.950 . S
C848 C847 1.349 . S
C848 C860 1.349 . S
C849 C847 1.327 . S
C849 C865 1.429 . S
C849 H871 0.950 . S
C850 H846 0.949 . S
C850 C858 1.574 . S
C850 C866 1.368 . S
H851 C859 0.950 . S
H852 C857 0.950 . S
H853 C858 0.949 . S
H854 C860 0.950 . S
H855 C861 0.950 . S
H856 C862 0.949 . S
C857 H852 0.950 . S
C857 C859 1.327 . S
C857 C863 1.429 . S
C858 C850 1.574 . S
C858 H853 0.949 . S
C858 C864 1.368 . S
C859 C843 1.349 . S
C859 H851 0.950 . S
C859 C857 1.327 . S
C860 C848 1.349 . S
C860 H854 0.950 . S
C860 C861 1.327 . S
C861 H855 0.950 . S
C861 C860 1.327 . S
C861 C865 1.429 . S
C862 C845 1.574 . S
C862 H856 0.949 . S
C862 C866 1.368 . S
C863 C844 1.429 . S
C863 C857 1.429 . S
C863 C864 1.523 . S
C864 C845 1.368 . S
C864 C858 1.368 . S
C864 C863 1.523 . S
C865 C849 1.429 . S
C865 C861 1.429 . S
C865 C866 1.523 . S
C866 C850 1.368 . S
C866 C862 1.368 . S
C866 C865 1.523 . S
H867 C842 0.950 . S
H868 C844 0.950 . S
H869 C845 0.949 . S
H870 C847 0.950 . S
H871 C849 0.950 . S
C872 C873 1.349 . S
C872 C874 1.327 . S
C872 H897 0.950 . S
C873 C872 1.349 . S
C873 C889 1.349 . S
C874 C872 1.327 . S
C874 C893 1.429 . S
C874 H898 0.950 . S
C875 C892 1.574 . S
C875 C894 1.368 . S
C875 H899 0.949 . S
H876 C880 0.949 . S
C877 C878 1.349 . S
C877 C879 1.327 . S
C877 H900 0.950 . S
C878 C877 1.349 . S
C878 C890 1.349 . S
C879 C877 1.327 . S
C879 C895 1.429 . S
C879 H901 0.950 . S
C880 H876 0.949 . S
C880 C888 1.574 . S
C880 C896 1.368 . S
H881 C889 0.950 . S
H882 C887 0.950 . S
H883 C888 0.949 . S
H884 C890 0.950 . S
H885 C891 0.950 . S
H886 C892 0.949 . S
C887 H882 0.950 . S
C887 C889 1.327 . S
C887 C893 1.429 . S
C888 C880 1.574 . S
C888 H883 0.949 . S
C888 C894 1.368 . S
C889 C873 1.349 . S
C889 H881 0.950 . S
C889 C887 1.327 . S
C890 C878 1.349 . S
C890 H884 0.950 . S
C890 C891 1.327 . S
C891 H885 0.950 . S
C891 C890 1.327 . S
C891 C895 1.429 . S
C892 C875 1.574 . S
C892 H886 0.949 . S
C892 C896 1.368 . S
C893 C874 1.429 . S
C893 C887 1.429 . S
C893 C894 1.523 . S
C894 C875 1.368 . S
C894 C888 1.368 . S
C894 C893 1.523 . S
C895 C879 1.429 . S
C895 C891 1.429 . S
C895 C896 1.523 . S
C896 C880 1.368 . S
C896 C892 1.368 . S
C896 C895 1.523 . S
H897 C872 0.950 . S
H898 C874 0.950 . S
H899 C875 0.949 . S
H900 C877 0.950 . S
H901 C879 0.950 . S
C902 C903 1.349 . S
C902 C904 1.327 . S
C902 H927 0.950 . S
C903 C902 1.349 . S
C903 C919 1.349 . S
C904 C902 1.327 . S
C904 C923 1.429 . S
C904 H928 0.950 . S
C905 C922 1.574 . S
C905 C924 1.368 . S
C905 H929 0.949 . S
H906 C910 0.949 . S
C907 C908 1.349 . S
C907 C909 1.327 . S
C907 H930 0.950 . S
C908 C907 1.349 . S
C908 C920 1.349 . S
C909 C907 1.327 . S
C909 C925 1.429 . S
C909 H931 0.950 . S
C910 H906 0.949 . S
C910 C918 1.574 . S
C910 C926 1.368 . S
H911 C919 0.950 . S
H912 C917 0.950 . S
H913 C918 0.949 . S
H914 C920 0.950 . S
H915 C921 0.950 . S
H916 C922 0.949 . S
C917 H912 0.950 . S
C917 C919 1.327 . S
C917 C923 1.429 . S
C918 C910 1.574 . S
C918 H913 0.949 . S
C918 C924 1.368 . S
C919 C903 1.349 . S
C919 H911 0.950 . S
C919 C917 1.327 . S
C920 C908 1.349 . S
C920 H914 0.950 . S
C920 C921 1.327 . S
C921 H915 0.950 . S
C921 C920 1.327 . S
C921 C925 1.429 . S
C922 C905 1.574 . S
C922 H916 0.949 . S
C922 C926 1.368 . S
C923 C904 1.429 . S
C923 C917 1.429 . S
C923 C924 1.523 . S
C924 C905 1.368 . S
C924 C918 1.368 . S
C924 C923 1.523 . S
C925 C909 1.429 . S
C925 C921 1.429 . S
C925 C926 1.523 . S
C926 C910 1.368 . S
C926 C922 1.368 . S
C926 C925 1.523 . S
H927 C902 0.950 . S
H928 C904 0.950 . S
H929 C905 0.949 . S
H930 C907 0.950 . S
H931 C909 0.950 . S
C932 C933 1.349 . S
C932 C934 1.327 . S
C932 H957 0.950 . S
C933 C932 1.349 . S
C933 C949 1.349 . S
C934 C932 1.327 . S
C934 C953 1.429 . S
C934 H958 0.950 . S
C935 C952 1.574 . S
C935 C954 1.368 . S
C935 H959 0.949 . S
H936 C940 0.949 . S
C937 C938 1.349 . S
C937 C939 1.327 . S
C937 H960 0.950 . S
C938 C937 1.349 . S
C938 C950 1.349 . S
C939 C937 1.327 . S
C939 C955 1.429 . S
C939 H961 0.950 . S
C940 H936 0.949 . S
C940 C948 1.574 . S
C940 C956 1.368 . S
H941 C949 0.950 . S
H942 C947 0.950 . S
H943 C948 0.949 . S
H944 C950 0.950 . S
H945 C951 0.950 . S
H946 C952 0.949 . S
C947 H942 0.950 . S
C947 C949 1.327 . S
C947 C953 1.429 . S
C948 C940 1.574 . S
C948 H943 0.949 . S
C948 C954 1.368 . S
C949 C933 1.349 . S
C949 H941 0.950 . S
C949 C947 1.327 . S
C950 C938 1.349 . S
C950 H944 0.950 . S
C950 C951 1.327 . S
C951 H945 0.950 . S
C951 C950 1.327 . S
C951 C955 1.429 . S
C952 C935 1.574 . S
C952 H946 0.949 . S
C952 C956 1.368 . S
C953 C934 1.429 . S
C953 C947 1.429 . S
C953 C954 1.523 1_554 S
C954 C935 1.368 . S
C954 C948 1.368 . S
C954 C953 1.523 1_556 S
C955 C939 1.429 . S
C955 C951 1.429 . S
C955 C956 1.523 . S
C956 C940 1.368 . S
C956 C952 1.368 . S
C956 C955 1.523 . S
H957 C932 0.950 . S
H958 C934 0.950 . S
H959 C935 0.949 . S
H960 C937 0.950 . S
H961 C939 0.950 . S
C962 C963 1.349 . S
C962 C964 1.327 . S
C962 H987 0.950 . S
C963 C962 1.349 . S
C963 C979 1.349 . S
C964 C962 1.327 . S
C964 C983 1.429 . S
C964 H988 0.950 . S
C965 C982 1.574 . S
C965 C984 1.368 . S
C965 H989 0.949 . S
H966 C970 0.949 . S
C967 C968 1.349 . S
C967 C969 1.327 . S
C967 H990 0.950 . S
C968 C967 1.349 . S
C968 C980 1.349 . S
C969 C967 1.327 . S
C969 C985 1.429 . S
C969 H991 0.950 . S
C970 H966 0.949 . S
C970 C978 1.574 . S
C970 C986 1.368 . S
H971 C979 0.950 . S
H972 C977 0.950 . S
H973 C978 0.949 . S
H974 C980 0.950 . S
H975 C981 0.950 . S
H976 C982 0.949 . S
C977 H972 0.950 . S
C977 C979 1.327 . S
C977 C983 1.429 . S
C978 C970 1.574 . S
C978 H973 0.949 . S
C978 C984 1.368 . S
C979 C963 1.349 . S
C979 H971 0.950 . S
C979 C977 1.327 . S
C980 C968 1.349 . S
C980 H974 0.950 . S
C980 C981 1.327 . S
C981 H975 0.950 . S
C981 C980 1.327 . S
C981 C985 1.429 . S
C982 C965 1.574 . S
C982 H976 0.949 . S
C982 C986 1.368 . S
C983 C964 1.429 . S
C983 C977 1.429 . S
C983 C984 1.523 . S
C984 C965 1.368 . S
C984 C978 1.368 . S
C984 C983 1.523 . S
C985 C969 1.429 . S
C985 C981 1.429 . S
C985 C986 1.523 1_554 S
C986 C970 1.368 . S
C986 C982 1.368 . S
C986 C985 1.523 1_556 S
H987 C962 0.950 . S
H988 C964 0.950 . S
H989 C965 0.949 . S
H990 C967 0.950 . S
H991 C969 0.950 . S
C992 C993 1.349 . S
C992 C994 1.327 . S
C992 H1017 0.950 . S
C993 C992 1.349 . S
C993 C1009 1.349 . S
C994 C992 1.327 . S
C994 C1013 1.429 . S
C994 H1018 0.950 . S
C995 C1012 1.574 . S
C995 C1014 1.368 . S
C995 H1019 0.949 . S
H996 C1000 0.949 . S
C997 C998 1.349 . S
C997 C999 1.327 . S
C997 H1020 0.950 . S
C998 C997 1.349 . S
C998 C1010 1.349 . S
C999 C997 1.327 . S
C999 C1015 1.429 . S
C999 H1021 0.950 . S
C1000 H996 0.949 . S
C1000 C1008 1.574 . S
C1000 C1016 1.368 . S
H1001 C1009 0.950 . S
H1002 C1007 0.950 . S
H1003 C1008 0.949 . S
H1004 C1010 0.950 . S
H1005 C1011 0.950 . S
H1006 C1012 0.949 . S
C1007 H1002 0.950 . S
C1007 C1009 1.327 . S
C1007 C1013 1.429 . S
C1008 C1000 1.574 . S
C1008 H1003 0.949 . S
C1008 C1014 1.368 . S
C1009 C993 1.349 . S
C1009 H1001 0.950 . S
C1009 C1007 1.327 . S
C1010 C998 1.349 . S
C1010 H1004 0.950 . S
C1010 C1011 1.327 . S
C1011 H1005 0.950 . S
C1011 C1010 1.327 . S
C1011 C1015 1.429 . S
C1012 C995 1.574 . S
C1012 H1006 0.949 . S
C1012 C1016 1.368 . S
C1013 C994 1.429 . S
C1013 C1007 1.429 . S
C1013 C1014 1.523 . S
C1014 C995 1.368 . S
C1014 C1008 1.368 . S
C1014 C1013 1.523 . S
C1015 C999 1.429 . S
C1015 C1011 1.429 . S
C1015 C1016 1.523 . S
C1016 C1000 1.368 . S
C1016 C1012 1.368 . S
C1016 C1015 1.523 . S
H1017 C992 0.950 . S
H1018 C994 0.950 . S
H1019 C995 0.949 . S
H1020 C997 0.950 . S
H1021 C999 0.950 . S
C1022 C1023 1.349 . S
C1022 C1024 1.327 . S
C1022 H1047 0.950 . S
C1023 C1022 1.349 . S
C1023 C1039 1.349 . S
C1024 C1022 1.327 . S
C1024 C1043 1.429 . S
C1024 H1048 0.950 . S
C1025 C1042 1.574 . S
C1025 C1044 1.368 . S
C1025 H1049 0.949 . S
H1026 C1030 0.949 . S
C1027 C1028 1.349 . S
C1027 C1029 1.327 . S
C1027 H1050 0.950 . S
C1028 C1027 1.349 . S
C1028 C1040 1.349 . S
C1029 C1027 1.327 . S
C1029 C1045 1.429 . S
C1029 H1051 0.950 . S
C1030 H1026 0.949 . S
C1030 C1038 1.574 . S
C1030 C1046 1.368 . S
H1031 C1039 0.950 . S
H1032 C1037 0.950 . S
H1033 C1038 0.949 . S
H1034 C1040 0.950 . S
H1035 C1041 0.950 . S
H1036 C1042 0.949 . S
C1037 H1032 0.950 . S
C1037 C1039 1.327 . S
C1037 C1043 1.429 . S
C1038 C1030 1.574 . S
C1038 H1033 0.949 . S
C1038 C1044 1.368 . S
C1039 C1023 1.349 . S
C1039 H1031 0.950 . S
C1039 C1037 1.327 . S
C1040 C1028 1.349 . S
C1040 H1034 0.950 . S
C1040 C1041 1.327 . S
C1041 H1035 0.950 . S
C1041 C1040 1.327 . S
C1041 C1045 1.429 . S
C1042 C1025 1.574 . S
C1042 H1036 0.949 . S
C1042 C1046 1.368 . S
C1043 C1024 1.429 . S
C1043 C1037 1.429 . S
C1043 C1044 1.523 . S
C1044 C1025 1.368 . S
C1044 C1038 1.368 . S
C1044 C1043 1.523 . S
C1045 C1029 1.429 . S
C1045 C1041 1.429 . S
C1045 C1046 1.523 . S
C1046 C1030 1.368 . S
C1046 C1042 1.368 . S
C1046 C1045 1.523 . S
H1047 C1022 0.950 . S
H1048 C1024 0.950 . S
H1049 C1025 0.949 . S
H1050 C1027 0.950 . S
H1051 C1029 0.950 . S
C1052 C1053 1.349 . S
C1052 C1054 1.327 . S
C1052 H1077 0.950 . S
C1053 C1052 1.349 . S
C1053 C1069 1.349 . S
C1054 C1052 1.327 . S
C1054 C1073 1.429 . S
C1054 H1078 0.950 . S
C1055 C1072 1.574 . S
C1055 C1074 1.368 . S
C1055 H1079 0.949 . S
H1056 C1060 0.949 . S
C1057 C1058 1.349 . S
C1057 C1059 1.327 . S
C1057 H1080 0.950 . S
C1058 C1057 1.349 . S
C1058 C1070 1.349 . S
C1059 C1057 1.327 . S
C1059 C1075 1.429 . S
C1059 H1081 0.950 . S
C1060 H1056 0.949 . S
C1060 C1068 1.574 . S
C1060 C1076 1.368 . S
H1061 C1069 0.950 . S
H1062 C1067 0.950 . S
H1063 C1068 0.949 . S
H1064 C1070 0.950 . S
H1065 C1071 0.950 . S
H1066 C1072 0.949 . S
C1067 H1062 0.950 . S
C1067 C1069 1.327 . S
C1067 C1073 1.429 . S
C1068 C1060 1.574 . S
C1068 H1063 0.949 . S
C1068 C1074 1.368 . S
C1069 C1053 1.349 . S
C1069 H1061 0.950 . S
C1069 C1067 1.327 . S
C1070 C1058 1.349 . S
C1070 H1064 0.950 . S
C1070 C1071 1.327 . S
C1071 H1065 0.950 . S
C1071 C1070 1.327 . S
C1071 C1075 1.429 . S
C1072 C1055 1.574 . S
C1072 H1066 0.949 . S
C1072 C1076 1.368 . S
C1073 C1054 1.429 . S
C1073 C1067 1.429 . S
C1073 C1074 1.523 1_556 S
C1074 C1055 1.368 . S
C1074 C1068 1.368 . S
C1074 C1073 1.523 1_554 S
C1075 C1059 1.429 . S
C1075 C1071 1.429 . S
C1075 C1076 1.523 . S
C1076 C1060 1.368 . S
C1076 C1072 1.368 . S
C1076 C1075 1.523 . S
H1077 C1052 0.950 . S
H1078 C1054 0.950 . S
H1079 C1055 0.949 . S
H1080 C1057 0.950 . S
H1081 C1059 0.950 . S
C1082 C1083 1.349 . S
C1082 C1084 1.327 . S
C1082 H1107 0.950 . S
C1083 C1082 1.349 . S
C1083 C1099 1.349 . S
C1084 C1082 1.327 . S
C1084 C1103 1.429 . S
C1084 H1108 0.950 . S
C1085 C1102 1.574 . S
C1085 C1104 1.368 . S
C1085 H1109 0.949 . S
H1086 C1090 0.949 . S
C1087 C1088 1.349 . S
C1087 C1089 1.327 . S
C1087 H1110 0.950 . S
C1088 C1087 1.349 . S
C1088 C1100 1.349 . S
C1089 C1087 1.327 . S
C1089 C1105 1.429 . S
C1089 H1111 0.950 . S
C1090 H1086 0.949 . S
C1090 C1098 1.574 . S
C1090 C1106 1.368 . S
H1091 C1099 0.950 . S
H1092 C1097 0.950 . S
H1093 C1098 0.949 . S
H1094 C1100 0.950 . S
H1095 C1101 0.950 . S
H1096 C1102 0.949 . S
C1097 H1092 0.950 . S
C1097 C1099 1.327 . S
C1097 C1103 1.429 . S
C1098 C1090 1.574 . S
C1098 H1093 0.949 . S
C1098 C1104 1.368 . S
C1099 C1083 1.349 . S
C1099 H1091 0.950 . S
C1099 C1097 1.327 . S
C1100 C1088 1.349 . S
C1100 H1094 0.950 . S
C1100 C1101 1.327 . S
C1101 H1095 0.950 . S
C1101 C1100 1.327 . S
C1101 C1105 1.429 . S
C1102 C1085 1.574 . S
C1102 H1096 0.949 . S
C1102 C1106 1.368 . S
C1103 C1084 1.429 . S
C1103 C1097 1.429 . S
C1103 C1104 1.523 . S
C1104 C1085 1.368 . S
C1104 C1098 1.368 . S
C1104 C1103 1.523 . S
C1105 C1089 1.429 . S
C1105 C1101 1.429 . S
C1105 C1106 1.523 1_556 S
C1106 C1090 1.368 . S
C1106 C1102 1.368 . S
C1106 C1105 1.523 1_554 S
H1107 C1082 0.950 . S
H1108 C1084 0.950 . S
H1109 C1085 0.949 . S
H1110 C1087 0.950 . S
H1111 C1089 0.950 . S
C273 C198 1.597 . S
C278 C28 1.578 . S
C303 C40 1.578 . S
C308 C142 1.597 1_455 S
C333 C244 1.597 . S
C338 C96 1.578 . S
C363 C210 1.597 1_455 S
C368 C108 1.578 . S
C393 C164 1.578 . S
C398 C62 1.597 . S
C423 C176 1.578 . S
C428 C6 1.597 1_655 S
C453 C232 1.578 . S
C458 C130 1.597 . S
C483 C266 1.578 . S
C488 C74 1.597 1_655 S
C513 C85 1.750 . S
C518 C17 1.750 . S
C543 C119 1.750 . S
C548 C51 1.750 . S
C573 C153 1.750 . S
C578 C221 1.750 . S
C603 C187 1.750 . S
C608 C255 1.750 . S
C633 C35 1.624 . S
C638 C3 1.624 . S
C663 C71 1.624 . S
C668 C103 1.624 . S
C693 C171 1.624 . S
C698 C139 1.624 . S
C723 C241 1.624 . S
C728 C207 1.624 . S
C753 C1 1.782 . S
C758 C137 1.782 . S
C783 C173 1.782 . S
C788 C37 1.782 . S
C813 C69 1.782 . S
C818 C205 1.782 . S
C843 C105 1.782 . S
C848 C239 1.782 . S
C873 C22 1.227 . S
C878 C15 1.233 . S
C903 C56 1.233 . S
C908 C49 1.227 . S
C933 C83 1.233 . S
C938 C90 1.227 . S
C963 C117 1.227 . S
C968 C124 1.233 . S
C993 C158 1.227 . S
C998 C151 1.233 . S
C1023 C192 1.233 . S
C1028 C185 1.227 . S
C1053 C219 1.233 . S
C1058 C226 1.227 . S
C1083 C260 1.227 . S
C1088 C253 1.233 . S
