# Generated by pormake.
# Topology wme, (6)-cn, num edge types: 1
# Building blocks:
#     Node 0, Type 0, BuildingBlock: BETGAK_clean_sbu_0, # of connection points: 6
#     Node 1, Type 0, BuildingBlock: BETGAK_clean_sbu_0, # of connection points: 6
#     Node 2, Type 0, BuildingBlock: BETGAK_clean_sbu_0, # of connection points: 6
#     Node 3, Type 0, BuildingBlock: BETGAK_clean_sbu_0, # of connection points: 6
#     Node 4, Type 0, BuildingBlock: BETGAK_clean_sbu_0, # of connection points: 6
#     Node 5, Type 0, BuildingBlock: BETGAK_clean_sbu_0, # of connection points: 6
#     Node 6, Type 0, BuildingBlock: BETGAK_clean_sbu_0, # of connection points: 6
#     Node 7, Type 0, BuildingBlock: BETGAK_clean_sbu_0, # of connection points: 6
#     Node 8, Type 0, BuildingBlock: BETGAK_clean_sbu_0, # of connection points: 6
#     Node 9, Type 0, BuildingBlock: BETGAK_clean_sbu_0, # of connection points: 6
#     Node 10, Type 0, BuildingBlock: BETGAK_clean_sbu_0, # of connection points: 6
#     Node 11, Type 0, BuildingBlock: BETGAK_clean_sbu_0, # of connection points: 6
#     Edge 12, Type (0, 0), BuildingBlock: ZUJKAS_clean_linker_0, # of connection points: 2
#     Edge 13, Type (0, 0), BuildingBlock: ZUJKAS_clean_linker_0, # of connection points: 2
#     Edge 14, Type (0, 0), BuildingBlock: ZUJKAS_clean_linker_0, # of connection points: 2
#     Edge 15, Type (0, 0), BuildingBlock: ZUJKAS_clean_linker_0, # of connection points: 2
#     Edge 16, Type (0, 0), BuildingBlock: ZUJKAS_clean_linker_0, # of connection points: 2
#     Edge 17, Type (0, 0), BuildingBlock: ZUJKAS_clean_linker_0, # of connection points: 2
#     Edge 18, Type (0, 0), BuildingBlock: ZUJKAS_clean_linker_0, # of connection points: 2
#     Edge 19, Type (0, 0), BuildingBlock: ZUJKAS_clean_linker_0, # of connection points: 2
#     Edge 20, Type (0, 0), BuildingBlock: ZUJKAS_clean_linker_0, # of connection points: 2
#     Edge 21, Type (0, 0), BuildingBlock: ZUJKAS_clean_linker_0, # of connection points: 2
#     Edge 22, Type (0, 0), BuildingBlock: ZUJKAS_clean_linker_0, # of connection points: 2
#     Edge 23, Type (0, 0), BuildingBlock: ZUJKAS_clean_linker_0, # of connection points: 2
#     Edge 24, Type (0, 0), BuildingBlock: ZUJKAS_clean_linker_0, # of connection points: 2
#     Edge 25, Type (0, 0), BuildingBlock: ZUJKAS_clean_linker_0, # of connection points: 2
#     Edge 26, Type (0, 0), BuildingBlock: ZUJKAS_clean_linker_0, # of connection points: 2
#     Edge 27, Type (0, 0), BuildingBlock: ZUJKAS_clean_linker_0, # of connection points: 2
#     Edge 28, Type (0, 0), BuildingBlock: ZUJKAS_clean_linker_0, # of connection points: 2
#     Edge 29, Type (0, 0), BuildingBlock: ZUJKAS_clean_linker_0, # of connection points: 2
#     Edge 30, Type (0, 0), BuildingBlock: ZUJKAS_clean_linker_0, # of connection points: 2
#     Edge 31, Type (0, 0), BuildingBlock: ZUJKAS_clean_linker_0, # of connection points: 2
#     Edge 32, Type (0, 0), BuildingBlock: ZUJKAS_clean_linker_0, # of connection points: 2
#     Edge 33, Type (0, 0), BuildingBlock: ZUJKAS_clean_linker_0, # of connection points: 2
#     Edge 34, Type (0, 0), BuildingBlock: ZUJKAS_clean_linker_0, # of connection points: 2
#     Edge 35, Type (0, 0), BuildingBlock: ZUJKAS_clean_linker_0, # of connection points: 2
#     Edge 36, Type (0, 0), BuildingBlock: ZUJKAS_clean_linker_0, # of connection points: 2
#     Edge 37, Type (0, 0), BuildingBlock: ZUJKAS_clean_linker_0, # of connection points: 2
#     Edge 38, Type (0, 0), BuildingBlock: ZUJKAS_clean_linker_0, # of connection points: 2
#     Edge 39, Type (0, 0), BuildingBlock: ZUJKAS_clean_linker_0, # of connection points: 2
#     Edge 40, Type (0, 0), BuildingBlock: ZUJKAS_clean_linker_0, # of connection points: 2
#     Edge 41, Type (0, 0), BuildingBlock: ZUJKAS_clean_linker_0, # of connection points: 2
#     Edge 42, Type (0, 0), BuildingBlock: ZUJKAS_clean_linker_0, # of connection points: 2
#     Edge 43, Type (0, 0), BuildingBlock: ZUJKAS_clean_linker_0, # of connection points: 2
#     Edge 44, Type (0, 0), BuildingBlock: ZUJKAS_clean_linker_0, # of connection points: 2
#     Edge 45, Type (0, 0), BuildingBlock: ZUJKAS_clean_linker_0, # of connection points: 2
#     Edge 46, Type (0, 0), BuildingBlock: ZUJKAS_clean_linker_0, # of connection points: 2
#     Edge 47, Type (0, 0), BuildingBlock: ZUJKAS_clean_linker_0, # of connection points: 2
# Relax obj value: 0.099
# Max RMSD: 0.194
# Mean RMSD: 0.194
data_MOF--net-wme--node1-BETGAK_clean_sbu_0--edge1-ZUJKAS_clean_linker_0
_symmetry_space_group_name_H-M    P1
_symmetry_Int_Tables_number       1
_symmetry_cell_setting            triclinic
loop_
_symmetry_equiv_pos_as_xyz
'x, y, z'
_cell_length_a     49.169468
_cell_length_b     49.200811
_cell_length_c     68.153457
_cell_angle_alpha  89.946443
_cell_angle_beta   90.102892
_cell_angle_gamma 120.02134
loop_
_atom_site_label
_atom_site_type_symbol
_atom_site_fract_x
_atom_site_fract_y
_atom_site_fract_z
_atom_type_partial_charge
La0 La 0.22472 0.36872 0.13178 0.0
La1 La 0.25734 0.32936 0.13892 0.0
C2 C 0.2033 0.40585 0.12979 0.0
C3 C 0.20383 0.43486 0.13648 0.0
C4 C 0.22373 0.46404 0.12758 0.0
C5 C 0.21952 0.48983 0.13093 0.0
C6 C 0.19509 0.48697 0.14308 0.0
C7 C 0.17616 0.45819 0.15266 0.0
C8 C 0.18043 0.43249 0.14937 0.0
C9 C 0.23883 0.34535 0.10063 0.0
C10 C 0.29738 0.40291 0.14236 0.0
C11 C 0.27693 0.29223 0.13079 0.0
C12 C 0.26455 0.25826 0.13397 0.0
C13 C 0.28477 0.24724 0.13959 0.0
C14 C 0.27341 0.21494 0.14159 0.0
C15 C 0.24155 0.19298 0.13795 0.0
C16 C 0.22132 0.20425 0.13262 0.0
C17 C 0.23265 0.23643 0.13069 0.0
C18 C 0.23872 0.34015 0.17309 0.0
C19 C 0.18191 0.29671 0.13758 0.0
O20 O 0.2262 0.40823 0.11873 0.0
O21 O 0.19259 0.38188 0.14184 0.0
O22 O 0.21345 0.34699 0.10214 0.0
O23 O 0.25476 0.35686 0.11586 0.0
O24 O 0.27058 0.40321 0.14351 0.0
O25 O 0.29832 0.37693 0.13822 0.0
O26 O 0.28623 0.31042 0.14635 0.0
O27 O 0.26057 0.29924 0.11872 0.0
O28 O 0.25343 0.32464 0.17082 0.0
O29 O 0.23521 0.34882 0.15626 0.0
O30 O 0.20708 0.29353 0.13553 0.0
O31 O 0.18393 0.32442 0.1387 0.0
H32 H 0.24166 0.46661 0.11731 0.0
H33 H 0.23441 0.51154 0.12319 0.0
H34 H 0.15745 0.45526 0.16235 0.0
H35 H 0.16439 0.41029 0.15626 0.0
H36 H 0.30944 0.2636 0.14222 0.0
H37 H 0.28961 0.2072 0.14597 0.0
H38 H 0.19681 0.18818 0.12937 0.0
H39 H 0.21649 0.24415 0.12621 0.0
La40 La 0.876 0.214 0.63266 0.0
La41 La 0.94824 0.24712 0.63979 0.0
C42 C 0.8175 0.19284 0.63024 0.0
C43 C 0.7894 0.19544 0.63501 0.0
C44 C 0.77436 0.20239 0.6199 0.0
C45 C 0.74464 0.19901 0.62276 0.0
C46 C 0.72899 0.18844 0.64083 0.0
C47 C 0.74466 0.18274 0.65624 0.0
C48 C 0.77445 0.18609 0.65335 0.0
C49 C 0.91367 0.22768 0.60165 0.0
C50 C 0.91446 0.28712 0.6421 0.0
C51 C 1.00473 0.26666 0.63088 0.0
C52 C 1.02783 0.25611 0.6338 0.0
C53 C 0.03249 0.24594 0.65212 0.0
C54 C 0.05314 0.23416 0.65397 0.0
C55 C 0.06933 0.23204 0.63751 0.0
C56 C 0.06453 0.24238 0.61923 0.0
C57 C 0.04416 0.25434 0.61745 0.0
C58 C 0.91869 0.22957 0.67397 0.0
C59 C 0.90541 0.17156 0.63921 0.0
O60 O 0.83797 0.21281 0.61772 0.0
O61 O 0.83075 0.18486 0.64408 0.0
O62 O 0.88686 0.20207 0.60335 0.0
O63 O 0.91792 0.24393 0.61669 0.0
O64 O 0.8873 0.26037 0.64324 0.0
O65 O 0.94148 0.288 0.63833 0.0
O66 O 0.99621 0.27689 0.64618 0.0
O67 O 0.98087 0.2483 0.61966 0.0
O68 O 0.949 0.24432 0.67184 0.0
O69 O 0.90673 0.22538 0.65703 0.0
O70 O 0.93377 0.19676 0.63705 0.0
O71 O 0.87959 0.17342 0.64009 0.0
H72 H 0.78492 0.20901 0.60547 0.0
H73 H 0.73332 0.20321 0.61042 0.0
H74 H 0.73362 0.17505 0.67046 0.0
H75 H 0.78517 0.1802 0.66527 0.0
H76 H 1.01998 0.24676 0.66496 0.0
H77 H 0.05646 0.22681 0.66832 0.0
H78 H 0.07597 0.2406 0.60613 0.0
H79 H 0.04064 0.26167 0.60311 0.0
La80 La 0.68309 0.86616 0.13191 0.0
La81 La 0.72067 0.93815 0.14 0.0
C82 C 0.64719 0.8075 0.12889 0.0
C83 C 0.61621 0.77882 0.13192 0.0
C84 C 0.60063 0.76024 0.1155 0.0
C85 C 0.57426 0.7304 0.11774 0.0
C86 C 0.56269 0.71825 0.1365 0.0
C87 C 0.57742 0.73739 0.15296 0.0
C88 C 0.60407 0.76732 0.15071 0.0
C89 C 0.70815 0.905 0.10151 0.0
C90 C 0.64658 0.90328 0.14041 0.0
C91 C 0.7572 0.99517 0.13204 0.0
C92 C 0.79043 1.01791 0.13614 0.0
C93 C 0.8089 1.00925 0.14731 0.0
C94 C 0.84127 0.02984 0.1493 0.0
C95 C 0.85576 0.05948 0.14015 0.0
C96 C 0.83694 0.06817 0.12924 0.0
C97 C 0.80462 0.04753 0.12721 0.0
C98 C 0.70769 0.90761 0.17385 0.0
C99 C 0.75471 0.89663 0.13995 0.0
O100 O 0.64948 0.82768 0.11552 0.0
O101 O 0.66556 0.8211 0.14403 0.0
O102 O 0.70761 0.87849 0.10317 0.0
O103 O 0.6951 0.90841 0.11632 0.0
O104 O 0.64639 0.8762 0.14071 0.0
O105 O 0.67286 0.93078 0.13809 0.0
O106 O 0.73773 0.98569 0.14698 0.0
O107 O 0.75278 0.97189 0.12065 0.0
O108 O 0.72283 0.93794 0.17206 0.0
O109 O 0.70082 0.89609 0.15676 0.0
O110 O 0.75742 0.92477 0.13784 0.0
O111 O 0.72726 0.87048 0.14024 0.0
H112 H 0.60962 0.76833 0.10086 0.0
H113 H 0.56324 0.71656 0.10474 0.0
H114 H 0.56918 0.72872 0.16763 0.0
H115 H 0.61573 0.78091 0.16368 0.0
H116 H 0.7984 0.98633 0.15416 0.0
H117 H 0.85495 0.0225 0.15796 0.0
H118 H 0.84732 0.09057 0.12175 0.0
H119 H 0.79084 0.0544 0.11825 0.0
La120 La 0.83452 0.67147 0.63148 0.0
La121 La 0.8003 0.70937 0.63952 0.0
C122 C 0.85727 0.63557 0.62858 0.0
C123 C 0.85552 0.60483 0.63153 0.0
C124 C 0.85929 0.58983 0.61509 0.0
C125 C 0.86334 0.56381 0.61728 0.0
C126 C 0.8637 0.55197 0.636 0.0
C127 C 0.85851 0.56609 0.65247 0.0
C128 C 0.85469 0.59243 0.65028 0.0
C129 C 0.82085 0.69655 0.60103 0.0
C130 C 0.76089 0.63532 0.64022 0.0
C131 C 0.78002 0.74598 0.63123 0.0
C132 C 0.7905 0.77943 0.63449 0.0
C133 C 0.81123 0.79652 0.64979 0.0
C134 C 0.8237 0.82909 0.65116 0.0
C135 C 0.81606 0.84516 0.63706 0.0
C136 C 0.7949 0.82776 0.62197 0.0
C137 C 0.78222 0.79526 0.62074 0.0
C138 C 0.81787 0.69627 0.67334 0.0
C139 C 0.87593 0.74314 0.63919 0.0
O140 O 0.83925 0.63771 0.61522 0.0
O141 O 0.86199 0.65389 0.64371 0.0
O142 O 0.84667 0.6957 0.60266 0.0
O143 O 0.80437 0.68367 0.61589 0.0
O144 O 0.78774 0.63501 0.6404 0.0
O145 O 0.7597 0.66161 0.63788 0.0
O146 O 0.77043 0.72715 0.64651 0.0
O147 O 0.79847 0.74101 0.61982 0.0
O148 O 0.80269 0.71146 0.67158 0.0
O149 O 0.82248 0.68945 0.65623 0.0
O150 O 0.85048 0.74595 0.63743 0.0
O151 O 0.87455 0.71567 0.63944 0.0
H152 H 0.86036 0.59904 0.60049 0.0
H153 H 0.86675 0.55325 0.60426 0.0
H154 H 0.85875 0.55763 0.66711 0.0
H155 H 0.85217 0.60365 0.66326 0.0
H156 H 0.81838 0.78483 0.66036 0.0
H157 H 0.84012 0.84185 0.66286 0.0
H158 H 0.78825 0.83933 0.61101 0.0
H159 H 0.7665 0.78254 0.60873 0.0
La160 La 0.18354 0.82482 0.1318 0.0
La161 La 0.11151 0.79214 0.13973 0.0
C162 C 0.24218 0.84681 0.12988 0.0
C163 C 0.27066 0.84585 0.13613 0.0
C164 C 0.27994 0.82657 0.12643 0.0
C165 C 0.30994 0.83057 0.12947 0.0
C166 C 0.33151 0.85413 0.14215 0.0
C167 C 0.32163 0.87236 0.15252 0.0
C168 C 0.29165 0.86832 0.14952 0.0
C169 C 0.14509 0.80959 0.10104 0.0
C170 C 0.14556 0.75234 0.14292 0.0
C171 C 0.05456 0.77138 0.13152 0.0
C172 C 0.03184 0.78222 0.13463 0.0
C173 C 0.03467 0.80166 0.15051 0.0
C174 C 1.01483 0.81441 0.15193 0.0
C175 C 0.99219 0.80833 0.13733 0.0
C176 C 0.98925 0.7885 0.12161 0.0
C177 C 1.00886 0.77559 0.1203 0.0
C178 C 0.14234 0.81267 0.17335 0.0
C179 C 0.15376 0.86737 0.13662 0.0
O180 O 0.22188 0.82483 0.11817 0.0
O181 O 0.22865 0.85635 0.14254 0.0
O182 O 0.17231 0.83485 0.10206 0.0
O183 O 0.14106 0.79418 0.11648 0.0
O184 O 0.17276 0.77912 0.14323 0.0
O185 O 0.11832 0.75127 0.13964 0.0
O186 O 0.06398 0.76231 0.14699 0.0
O187 O 0.0778 0.78923 0.11979 0.0
O188 O 0.112 0.79832 0.17156 0.0
O189 O 0.15371 0.8151 0.15639 0.0
O190 O 0.12536 0.842 0.13559 0.0
O191 O 0.17971 0.86574 0.13751 0.0
H192 H 0.26461 0.80937 0.11577 0.0
H193 H 0.31678 0.81625 0.12111 0.0
H194 H 0.33739 0.89038 0.16264 0.0
H195 H 0.28547 0.88386 0.15705 0.0
H196 H 0.05268 0.80758 0.16154 0.0
H197 H 1.01785 0.82979 0.16412 0.0
H198 H 0.97183 0.78305 0.11026 0.0
H199 H 1.00656 0.76096 0.10781 0.0
La200 La 0.37738 0.17218 0.63277 0.0
La201 La 0.33881 0.10029 0.64141 0.0
C202 C 0.41408 0.23069 0.63001 0.0
C203 C 0.44351 0.25933 0.63608 0.0
C204 C 0.47164 0.26935 0.62568 0.0
C205 C 0.49748 0.29948 0.62862 0.0
C206 C 0.4957 0.32045 0.64189 0.0
C207 C 0.46806 0.30986 0.65294 0.0
C208 C 0.4423 0.27974 0.65004 0.0
C209 C 0.35236 0.13311 0.60244 0.0
C210 C 0.41249 0.13428 0.64312 0.0
C211 C 0.30092 0.04332 0.63449 0.0
C212 C 0.26668 0.02268 0.63753 0.0
C213 C 0.25514 0.99365 0.647 0.0
C214 C 0.22272 0.97354 0.64924 0.0
C215 C 0.20111 0.98198 0.64196 0.0
C216 C 0.21286 1.01131 0.63271 0.0
C217 C 0.24517 0.03142 0.63058 0.0
C218 C 0.35307 0.13205 0.6749 0.0
C219 C 0.30558 0.14252 0.64031 0.0
O220 O 0.41582 0.20998 0.61876 0.0
O221 O 0.39092 0.21763 0.64263 0.0
O222 O 0.35426 0.16028 0.60355 0.0
O223 O 0.36474 0.12947 0.61755 0.0
O224 O 0.41278 0.16142 0.6437 0.0
O225 O 0.38633 0.107 0.63992 0.0
O226 O 0.31878 0.05293 0.65021 0.0
O227 O 0.30897 0.06584 0.6216 0.0
O228 O 0.33802 0.10166 0.67356 0.0
O229 O 0.3592 0.14275 0.65764 0.0
O230 O 0.30252 0.11418 0.63872 0.0
O231 O 0.33321 0.16847 0.64048 0.0
H232 H 0.47326 0.2545 0.61457 0.0
H233 H 0.51827 0.30689 0.61975 0.0
H234 H 0.46602 0.32517 0.6635 0.0
H235 H 0.42091 0.27301 0.65813 0.0
H236 H 0.27121 0.98641 0.65254 0.0
H237 H 0.21462 0.95137 0.65671 0.0
H238 H 0.19709 1.01852 0.62662 0.0
H239 H 0.25321 0.05363 0.62318 0.0
La240 La 0.68237 0.82601 0.41301 0.0
La241 La 0.71925 0.79061 0.40515 0.0
C242 C 0.64681 0.84927 0.41468 0.0
C243 C 0.61602 0.84659 0.40996 0.0
C244 C 0.5905 0.83136 0.42293 0.0
C245 C 0.56382 0.83442 0.42072 0.0
C246 C 0.562 0.8529 0.40555 0.0
C247 C 0.58691 0.86688 0.39204 0.0
C248 C 0.61362 0.86387 0.39427 0.0
C249 C 0.70699 0.8122 0.44362 0.0
C250 C 0.64516 0.75195 0.40489 0.0
C251 C 0.75635 0.77075 0.41287 0.0
C252 C 0.79067 0.78369 0.41041 0.0
C253 C 0.8021 0.77 0.39711 0.0
C254 C 0.8345 0.7819 0.39507 0.0
C255 C 0.85621 0.8077 0.40636 0.0
C256 C 0.84466 0.82133 0.41965 0.0
C257 C 0.8124 0.80953 0.42165 0.0
C258 C 0.70572 0.80792 0.37131 0.0
C259 C 0.75441 0.86639 0.40575 0.0
O260 O 0.64785 0.83077 0.42816 0.0
O261 O 0.66679 0.85487 0.40039 0.0
O262 O 0.70614 0.83801 0.44201 0.0
O263 O 0.69407 0.79568 0.42875 0.0
O264 O 0.64534 0.77906 0.40447 0.0
O265 O 0.6713 0.75037 0.40704 0.0
O266 O 0.7389 0.76266 0.39696 0.0
O267 O 0.74822 0.78552 0.42543 0.0
O268 O 0.72005 0.79191 0.373 0.0
O269 O 0.69983 0.81319 0.38848 0.0
O270 O 0.75655 0.84056 0.40743 0.0
O271 O 0.72719 0.8656 0.40543 0.0
H272 H 0.59162 0.81815 0.43531 0.0
H273 H 0.54488 0.82288 0.43121 0.0
H274 H 0.58652 0.88152 0.38029 0.0
H275 H 0.63306 0.8764 0.38423 0.0
H276 H 0.78596 0.75004 0.38831 0.0
H277 H 0.84253 0.77097 0.38456 0.0
H278 H 0.86054 0.84079 0.42887 0.0
H279 H 0.8046 0.82064 0.43218 0.0
La280 La 0.87646 0.67157 0.91283 0.0
La281 La 0.94833 0.71009 0.90397 0.0
C282 C 0.81796 0.63479 0.91574 0.0
C283 C 0.78972 0.60403 0.9113 0.0
C284 C 0.77449 0.58278 0.9267 0.0
C285 C 0.74466 0.5565 0.92402 0.0
C286 C 0.72912 0.55077 0.90583 0.0
C287 C 0.74497 0.57135 0.89015 0.0
C288 C 0.77487 0.59772 0.89286 0.0
C289 C 0.91589 0.69667 0.94296 0.0
C290 C 0.91439 0.63622 0.90313 0.0
C291 C 1.00541 0.74797 0.91086 0.0
C292 C 1.0265 0.78197 0.90738 0.0
C293 C 0.05724 0.79312 0.90067 0.0
C294 C 0.07785 0.82541 0.89833 0.0
C295 C 0.06818 0.8473 0.90274 0.0
C296 C 0.03715 0.8359 0.90916 0.0
C297 C 1.01657 0.80369 0.9114 0.0
C298 C 0.91641 0.69615 0.87054 0.0
C299 C 0.90599 0.74332 0.90588 0.0
O300 O 0.83856 0.63559 0.92833 0.0
O301 O 0.8311 0.65544 0.90159 0.0
O302 O 0.88879 0.695 0.9419 0.0
O303 O 0.91937 0.68417 0.92788 0.0
O304 O 0.88715 0.63576 0.90301 0.0
O305 O 0.94181 0.66261 0.90549 0.0
O306 O 0.99574 0.72956 0.8954 0.0
O307 O 0.98278 0.74077 0.92352 0.0
O308 O 0.94682 0.71129 0.87189 0.0
O309 O 0.90568 0.68978 0.88781 0.0
O310 O 0.9344 0.74631 0.90669 0.0
O311 O 0.87996 0.71578 0.90588 0.0
H312 H 0.78499 0.58729 0.94119 0.0
H313 H 0.73316 0.54156 0.93653 0.0
H314 H 0.73401 0.56747 0.87585 0.0
H315 H 0.78577 0.61375 0.8807 0.0
H316 H 0.06542 0.77685 0.89743 0.0
H317 H 0.10137 0.8332 0.89304 0.0
H318 H 1.02888 0.85189 0.91299 0.0
H319 H 0.99303 0.79589 0.91665 0.0
La320 La 0.22605 0.86662 0.41322 0.0
La321 La 0.25749 0.93805 0.40465 0.0
C322 C 0.20577 0.80848 0.41677 0.0
C323 C 0.20811 0.78034 0.41183 0.0
C324 C 0.21549 0.76546 0.42681 0.0
C325 C 0.21201 0.73574 0.42388 0.0
C326 C 0.20092 0.71997 0.40588 0.0
C327 C 0.19478 0.73547 0.39059 0.0
C328 C 0.19823 0.76527 0.39354 0.0
C329 C 0.24044 0.90569 0.44356 0.0
C330 C 0.29822 0.90516 0.4018 0.0
C331 C 0.27747 0.99526 0.4115 0.0
C332 C 0.26565 1.01698 0.40737 0.0
C333 C 0.2861 0.04949 0.408 0.0
C334 C 0.27444 0.07018 0.40606 0.0
C335 C 0.24198 0.05871 0.40367 0.0
C336 C 0.22175 0.02601 0.40247 0.0
C337 C 0.23349 1.00544 0.40417 0.0
C338 C 0.23749 0.90675 0.37114 0.0
C339 C 0.18228 0.89447 0.40711 0.0
O340 O 0.22721 0.82985 0.42826 0.0
O341 O 0.19586 0.82064 0.40334 0.0
O342 O 0.21513 0.87855 0.44245 0.0
O343 O 0.25621 0.90954 0.42833 0.0
O344 O 0.27165 0.87781 0.40145 0.0
O345 O 0.2989 0.93212 0.40527 0.0
O346 O 0.28669 0.98535 0.39641 0.0
O347 O 0.26032 0.97254 0.42377 0.0
O348 O 0.25141 0.93703 0.37282 0.0
O349 O 0.23518 0.89557 0.38816 0.0
O350 O 0.20725 0.92304 0.40888 0.0
O351 O 0.18467 0.86898 0.4062 0.0
H352 H 0.22254 0.77616 0.44118 0.0
H353 H 0.21657 0.72452 0.43612 0.0
H354 H 0.18667 0.7243 0.37643 0.0
H355 H 0.19206 0.77592 0.38173 0.0
H356 H 0.31102 0.05889 0.41038 0.0
H357 H 0.2909 0.09516 0.40663 0.0
H358 H 0.19663 1.01611 0.4009 0.0
H359 H 0.21726 0.98044 0.40356 0.0
La360 La 0.37802 0.21567 0.91363 0.0
La361 La 0.339 0.24853 0.90522 0.0
C362 C 0.41469 0.19392 0.91699 0.0
C363 C 0.44526 0.19545 0.91383 0.0
C364 C 0.46054 0.19188 0.93021 0.0
C365 C 0.4864 0.18762 0.92793 0.0
C366 C 0.4978 0.18688 0.90915 0.0
C367 C 0.48346 0.19195 0.89272 0.0
C368 C 0.45725 0.19595 0.89502 0.0
C369 C 0.35315 0.22981 0.94393 0.0
C370 C 0.41292 0.28875 0.9038 0.0
C371 C 0.302 0.26848 0.91302 0.0
C372 C 0.26873 0.2578 0.90889 0.0
C373 C 0.25049 0.23086 0.89753 0.0
C374 C 0.21811 0.21895 0.89546 0.0
C375 C 0.20338 0.23376 0.90471 0.0
C376 C 0.22198 0.26107 0.91582 0.0
C377 C 0.25431 0.27288 0.91793 0.0
C378 C 0.35181 0.23043 0.87157 0.0
C379 C 0.30618 0.17303 0.90674 0.0
O380 O 0.41321 0.21305 0.92975 0.0
O381 O 0.39538 0.18764 0.90215 0.0
O382 O 0.35444 0.20421 0.94266 0.0
O383 O 0.36554 0.24582 0.92885 0.0
O384 O 0.41366 0.26214 0.90356 0.0
O385 O 0.38652 0.28952 0.90668 0.0
O386 O 0.32148 0.27858 0.89808 0.0
O387 O 0.30659 0.24976 0.92447 0.0
O388 O 0.33621 0.24519 0.87322 0.0
O389 O 0.3592 0.22648 0.88869 0.0
O390 O 0.30293 0.19826 0.90786 0.0
O391 O 0.33387 0.17484 0.90657 0.0
H392 H 0.45165 0.1911 0.94487 0.0
H393 H 0.49716 0.18427 0.9409 0.0
H394 H 0.49164 0.19144 0.87805 0.0
H395 H 0.44578 0.19835 0.88208 0.0
H396 H 0.26118 0.2187 0.8906 0.0
H397 H 0.20461 0.19809 0.88664 0.0
H398 H 0.21142 0.27283 0.92339 0.0
H399 H 0.26792 0.29339 0.92703 0.0
La400 La 0.18104 0.36566 0.41296 0.0
La401 La 0.11316 0.33053 0.40241 0.0
C402 C 0.23995 0.40111 0.41623 0.0
C403 C 0.26871 0.43131 0.41131 0.0
C404 C 0.27829 0.45836 0.42281 0.0
C405 C 0.30829 0.48477 0.42044 0.0
C406 C 0.32958 0.48467 0.40668 0.0
C407 C 0.31945 0.45806 0.39467 0.0
C408 C 0.2895 0.43176 0.39699 0.0
C409 C 0.14096 0.34089 0.44279 0.0
C410 C 0.14566 0.40326 0.40418 0.0
C411 C 0.05484 0.29161 0.40283 0.0
C412 C 0.03473 0.25706 0.40262 0.0
C413 C 0.04438 0.23776 0.39341 0.0
C414 C 1.02481 0.20504 0.39336 0.0
C415 C 0.99516 0.19095 0.40251 0.0
C416 C 0.98588 0.21048 0.41193 0.0
C417 C 1.00546 0.24313 0.41199 0.0
C418 C 0.15023 0.35537 0.37184 0.0
C419 C 0.15187 0.29393 0.40822 0.0
O420 O 0.21955 0.40105 0.42858 0.0
O421 O 0.22636 0.38037 0.40224 0.0
O422 O 0.16784 0.34211 0.44194 0.0
O423 O 0.13826 0.35427 0.42787 0.0
O424 O 0.17231 0.40283 0.40294 0.0
O425 O 0.1185 0.37703 0.40699 0.0
O426 O 0.07081 0.30481 0.38688 0.0
O427 O 0.07175 0.3037 0.41864 0.0
O428 O 0.12271 0.35259 0.3738 0.0
O429 O 0.15566 0.34275 0.38648 0.0
O430 O 0.12422 0.29232 0.40632 0.0
O431 O 0.17816 0.32097 0.40948 0.0
H432 H 0.26316 0.4587 0.43421 0.0
H433 H 0.3153 0.50471 0.43006 0.0
H434 H 0.33496 0.45727 0.38372 0.0
H435 H 0.28312 0.41122 0.38806 0.0
H436 H 0.06692 0.24799 0.38611 0.0
H437 H 0.03267 0.19084 0.38582 0.0
H438 H 0.96351 0.20052 0.41943 0.0
H439 H 0.99768 0.25755 0.41935 0.0
La440 La 0.83425 0.17306 0.91343 0.0
La441 La 0.80161 0.10127 0.9045 0.0
C442 C 0.85546 0.23144 0.91646 0.0
C443 C 0.85482 0.26002 0.91006 0.0
C444 C 0.83669 0.27024 0.92024 0.0
C445 C 0.84098 0.30028 0.91697 0.0
C446 C 0.86373 0.32098 0.90359 0.0
C447 C 0.88084 0.3102 0.8928 0.0
C448 C 0.87649 0.28017 0.89602 0.0
C449 C 0.82056 0.13375 0.94364 0.0
C450 C 0.76147 0.13477 0.90288 0.0
C451 C 0.78236 0.04416 0.91121 0.0
C452 C 0.79508 0.02298 0.9076 0.0
C453 C 0.77508 0.99183 0.90174 0.0
C454 C 0.78672 0.97119 0.89943 0.0
C455 C 0.81864 0.98128 0.90299 0.0
C456 C 0.83867 1.0127 0.90852 0.0
C457 C 0.82705 0.03326 0.91077 0.0
C458 C 0.81907 0.13339 0.87113 0.0
C459 C 0.87709 0.14433 0.90557 0.0
O460 O 0.83231 0.21038 0.92716 0.0
O461 O 0.8666 0.21878 0.90428 0.0
O462 O 0.84556 0.16115 0.94262 0.0
O463 O 0.80451 0.13003 0.92853 0.0
O464 O 0.78822 0.162 0.90209 0.0
O465 O 0.76061 0.10769 0.90632 0.0
O466 O 0.77354 0.05394 0.89583 0.0
O467 O 0.79812 0.06675 0.92386 0.0
O468 O 0.80396 0.10298 0.87234 0.0
O469 O 0.82339 0.1439 0.88844 0.0
O470 O 0.85201 0.11577 0.90705 0.0
O471 O 0.87499 0.17002 0.90554 0.0
H472 H 0.82021 0.25561 0.93143 0.0
H473 H 0.82756 0.30785 0.92567 0.0
H474 H 0.89821 0.3253 0.88216 0.0
H475 H 0.89118 0.2733 0.88809 0.0
H476 H 0.75036 0.98336 0.89919 0.0
H477 H 0.77067 0.94729 0.89488 0.0
H478 H 0.86323 0.02128 0.91171 0.0
H479 H 0.84302 0.05708 0.91544 0.0
H480 H 0.20781 0.923 0.13143 0.0
H481 H 0.2153 0.9757 0.13193 0.0
H482 H 0.11636 0.93786 0.14223 0.0
H483 H 0.10837 0.88426 0.14172 0.0
H484 H 0.18111 0.99888 0.10645 0.0
H485 H 0.16656 1.00645 0.18701 0.0
H486 H 0.17716 0.97914 0.17681 0.0
H487 H 0.13799 0.97221 0.1738 0.0
C488 C 0.18747 0.92562 0.13385 0.0
C489 C 0.15743 0.89924 0.13663 0.0
C490 C 0.19188 0.95589 0.13408 0.0
C491 C 0.16648 0.9607 0.13725 0.0
C492 C 0.13632 0.93459 0.13992 0.0
H493 H 0.18452 0.14647 0.15179 0.0
H494 H 0.16359 0.0897 0.15105 0.0
C495 C 0.13179 0.90403 0.13954 0.0
C496 C 0.17223 0.9933 0.1375 0.0
H497 H 0.18307 0.05243 0.16851 0.0
C498 C 0.18117 1.01053 0.11996 0.0
C499 C 0.1722 1.00836 0.15514 0.0
C500 C 0.16309 0.99081 0.17436 0.0
C501 C 0.19075 0.04264 0.11965 0.0
C502 C 0.19229 0.05817 0.13746 0.0
C503 C 0.18216 0.04062 0.1549 0.0
C504 C 0.20528 0.09273 0.13833 0.0
C505 C 0.19912 0.05957 0.1002 0.0
C506 C 0.23598 0.11343 0.13186 0.0
C507 C 0.24792 0.14589 0.13204 0.0
C508 C 0.22954 0.15848 0.13892 0.0
C509 C 0.19915 0.13767 0.14602 0.0
C510 C 0.18719 0.10517 0.14575 0.0
H511 H 0.18745 0.04306 0.08781 0.0
H512 H 0.19238 0.07798 0.09974 0.0
H513 H 0.22487 0.07094 0.09794 0.0
H514 H 0.25071 0.10446 0.12652 0.0
H515 H 0.27129 0.16105 0.12633 0.0
H516 H 0.30415 0.19609 0.64817 0.0
H517 H 0.25894 0.20349 0.64971 0.0
H518 H 0.19732 0.10519 0.63769 0.0
H519 H 0.24294 0.09739 0.63598 0.0
H520 H 0.18568 0.14653 0.61434 0.0
H521 H 0.19275 0.17664 0.69313 0.0
H522 H 0.22952 0.19912 0.68064 0.0
H523 H 0.21251 0.15729 0.68291 0.0
C524 C 0.28106 0.17583 0.64594 0.0
C525 C 0.27731 0.14606 0.64194 0.0
C526 C 0.25513 0.18015 0.64698 0.0
C527 C 0.22468 0.15485 0.64414 0.0
C528 C 0.22063 0.12502 0.6401 0.0
H529 H 0.06264 0.18304 0.66065 0.0
H530 H 0.09756 0.16102 0.66269 0.0
C531 C 0.24672 0.12059 0.63915 0.0
C532 C 0.19761 0.16044 0.6445 0.0
H533 H 0.16323 0.19244 0.67264 0.0
C534 C 0.18041 0.15609 0.62718 0.0
C535 C 0.19051 0.17266 0.6613 0.0
C536 C 0.20708 0.17642 0.68061 0.0
C537 C 0.15751 0.16518 0.62591 0.0
C538 C 0.15186 0.17924 0.64234 0.0
C539 C 0.16784 0.18202 0.65998 0.0
C540 C 0.13062 0.19258 0.64121 0.0
C541 C 0.13982 0.16008 0.60691 0.0
C542 C 0.13797 0.2181 0.6288 0.0
C543 C 0.11837 0.23109 0.62781 0.0
C544 C 0.09081 0.21879 0.63918 0.0
C545 C 0.08376 0.19342 0.65183 0.0
C546 C 0.10357 0.18059 0.65291 0.0
H547 H 0.14065 0.14189 0.59771 0.0
H548 H 0.11487 0.15293 0.60971 0.0
H549 H 0.15064 0.18236 0.59848 0.0
H550 H 0.15911 0.22822 0.61998 0.0
H551 H 0.12507 0.25102 0.61824 0.0
H552 H 0.90252 0.04451 0.13791 0.0
H553 H 0.95944 0.08018 0.13951 0.0
H554 H 0.94443 0.1588 0.14633 0.0
H555 H 0.88763 0.12333 0.14527 0.0
H556 H 0.99714 0.1308 0.11475 0.0
H557 H 1.00455 0.17111 0.19142 0.0
H558 H 0.97038 0.13671 0.18191 0.0
H559 H 0.97623 0.17521 0.177 0.0
C560 C 0.91131 0.06934 0.14007 0.0
C561 C 0.89042 0.08101 0.14156 0.0
C562 C 0.94387 0.08972 0.14083 0.0
C563 C 0.95623 0.12212 0.14331 0.0
C564 C 0.93547 0.13383 0.14477 0.0
H565 H 0.12633 0.29584 0.1416 0.0
H566 H 0.07366 0.25083 0.14336 0.0
C567 C 0.90296 0.11353 0.14395 0.0
C568 C 0.99078 0.14397 0.14375 0.0
H569 H 0.04921 0.20211 0.17107 0.0
C570 C 1.00867 0.14609 0.12716 0.0
C571 C 1.00584 0.16376 0.16001 0.0
C572 C 0.98834 0.16143 0.17868 0.0
C573 C 0.04083 0.16867 0.12598 0.0
C574 C 0.05555 0.18934 0.14193 0.0
C575 C 0.03791 0.18632 0.15882 0.0
C576 C 0.08826 0.21622 0.14075 0.0
C577 C 0.05844 0.1713 0.10732 0.0
C578 C 0.11429 0.21184 0.13879 0.0
C579 C 0.14488 0.23782 0.13776 0.0
C580 C 0.1499 0.26859 0.13869 0.0
C581 C 0.12363 0.27263 0.14078 0.0
C582 C 0.09332 0.24684 0.14183 0.0
H583 H 0.04244 0.15716 0.09521 0.0
H584 H 0.07221 0.19616 0.10251 0.0
H585 H 0.07515 0.16276 0.11004 0.0
H586 H 0.111 0.18838 0.13823 0.0
H587 H 0.16447 0.23376 0.13629 0.0
H588 H 0.84127 0.88654 0.6066 0.0
H589 H 0.86323 0.94342 0.60714 0.0
H590 H 0.84497 0.93947 0.66927 0.0
H591 H 0.82356 0.88253 0.66885 0.0
H592 H 0.83464 0.97497 0.61534 0.0
H593 H 0.93316 1.0123 0.66768 0.0
H594 H 0.91262 0.9733 0.65733 0.0
H595 H 0.89642 0.98323 0.67795 0.0
C596 C 0.84207 0.8978 0.62041 0.0
C597 C 0.83059 0.87998 0.63768 0.0
C598 C 0.85477 0.93038 0.62072 0.0
C599 C 0.85626 0.94598 0.63829 0.0
C600 C 0.84497 0.92824 0.65561 0.0
H601 H 0.8528 0.11724 0.64955 0.0
H602 H 0.84411 0.0641 0.64903 0.0
C603 C 0.83254 0.89563 0.65535 0.0
C604 C 0.86741 0.98032 0.63811 0.0
H605 H 0.91743 0.05027 0.6604 0.0
C606 C 0.85299 0.9914 0.62507 0.0
C607 C 0.89169 1.00205 0.65058 0.0
C608 C 0.9096 0.99219 0.66402 0.0
C609 C 0.86132 0.02317 0.62461 0.0
C610 C 0.88428 0.04454 0.63785 0.0
C611 C 0.8996 0.03382 0.6504 0.0
C612 C 0.8911 0.07752 0.6395 0.0
C613 C 0.84532 0.03358 0.60995 0.0
C614 C 0.92092 0.10309 0.63508 0.0
C615 C 0.92614 0.13393 0.63543 0.0
C616 C 0.90159 0.13961 0.64027 0.0
C617 C 0.8722 0.11391 0.64545 0.0
C618 C 0.86709 0.08335 0.64513 0.0
H619 H 0.83561 1.01706 0.59737 0.0
H620 H 0.82552 0.03429 0.61723 0.0
H621 H 0.86182 0.05741 0.60423 0.0
H622 H 0.93988 0.09912 0.63084 0.0
H623 H 0.94908 0.15314 0.63145 0.0
H624 H 0.96097 0.81373 0.1691 0.0
H625 H 0.92511 0.83483 0.1697 0.0
H626 H 0.94254 0.85766 0.10823 0.0
H627 H 0.978 0.83629 0.10746 0.0
H628 H 0.93168 0.89325 0.16074 0.0
H629 H 0.84772 0.80138 0.1098 0.0
H630 H 0.87971 0.79922 0.12121 0.0
H631 H 0.88679 0.82411 0.10024 0.0
C632 C 0.95734 0.82349 0.15576 0.0
C633 C 0.97196 0.8229 0.13816 0.0
C634 C 0.93685 0.83554 0.15612 0.0
C635 C 0.93066 0.84731 0.13892 0.0
C636 C 0.94632 0.84801 0.12156 0.0
H637 H 0.81669 0.94061 0.13215 0.0
H638 H 0.86187 0.93197 0.13219 0.0
C639 C 0.96657 0.83575 0.12115 0.0
C640 C 0.90684 0.85755 0.13895 0.0
H641 H 0.83655 0.84104 0.11879 0.0
C642 C 0.91091 0.88194 0.15154 0.0
C643 C 0.87959 0.84257 0.12705 0.0
C644 C 0.87293 0.81518 0.11394 0.0
C645 C 0.8884 0.89162 0.15258 0.0
C646 C 0.86132 0.87675 0.14057 0.0
C647 C 0.85746 0.85262 0.12787 0.0
C648 C 0.83521 0.8837 0.142 0.0
C649 C 0.89319 0.91692 0.16697 0.0
C650 C 0.80536 0.85961 0.14755 0.0
C651 C 0.7797 0.86436 0.14741 0.0
C652 C 0.78311 0.8934 0.14164 0.0
C653 C 0.81326 0.91799 0.13668 0.0
C654 C 0.83911 0.91312 0.13677 0.0
H655 H 0.91225 0.92196 0.17764 0.0
H656 H 0.89956 0.93885 0.15883 0.0
H657 H 0.87119 0.91005 0.17518 0.0
H658 H 0.80178 0.83678 0.15171 0.0
H659 H 0.75699 0.84492 0.15154 0.0
H660 H 0.89245 0.80582 0.63782 0.0
H661 H 0.94598 0.85166 0.63854 0.0
H662 H 0.98428 0.79014 0.64433 0.0
H663 H 0.93176 0.74475 0.64372 0.0
H664 H 0.99839 0.86639 0.66978 0.0
H665 H 1.02559 0.84727 0.59371 0.0
H666 H 0.98588 0.83258 0.60229 0.0
H667 H 1.00691 0.81278 0.60889 0.0
C668 C 0.91228 0.80211 0.63934 0.0
C669 C 0.90767 0.7715 0.64055 0.0
C670 C 0.9428 0.82829 0.63977 0.0
C671 C 0.96901 0.82416 0.64127 0.0
C672 C 0.96438 0.79379 0.64295 0.0
H673 H 0.16911 0.91787 0.63795 0.0
H674 H 0.11245 0.88218 0.6387 0.0
C675 C 0.93417 0.76782 0.6426 0.0
C676 C 1.00157 0.8511 0.64077 0.0
H677 H 0.06894 0.88129 0.61381 0.0
C678 C 1.0138 0.87014 0.65745 0.0
C679 C 1.02154 0.85563 0.62471 0.0
C680 C 1.00937 0.83619 0.60628 0.0
C681 C 0.04595 0.89267 0.65885 0.0
C682 C 0.06617 0.89657 0.64297 0.0
C683 C 0.05355 0.87822 0.62603 0.0
C684 C 0.10069 0.9185 0.64379 0.0
C685 C 0.0582 0.91098 0.67768 0.0
C686 C 0.11308 0.95086 0.64652 0.0
C687 C 0.14561 0.97136 0.64641 0.0
C688 C 0.1665 0.96 0.64332 0.0
C689 C 0.15392 0.9275 0.64071 0.0
C690 C 0.12144 0.90704 0.64094 0.0
H691 H 0.04148 0.89977 0.69001 0.0
H692 H 0.08112 0.91332 0.68183 0.0
H693 H 0.06171 0.9349 0.67559 0.0
H694 H 0.0976 0.96039 0.64837 0.0
H695 H 0.15436 0.99615 0.64868 0.0
H696 H 0.16345 0.93834 0.41281 0.0
H697 H 0.10932 0.92885 0.41269 0.0
H698 H 0.07452 0.83131 0.39936 0.0
H699 H 0.12778 0.8403 0.3994 0.0
H700 H 0.06039 0.90053 0.38155 0.0
H701 H 1.02745 0.8307 0.45022 0.0
H702 H 0.06781 0.85686 0.4433 0.0
H703 H 0.04603 0.81861 0.43232 0.0
C704 C 0.14428 0.91493 0.40975 0.0
C705 C 0.15009 0.89008 0.40629 0.0
C706 C 0.11339 0.90956 0.40971 0.0
C707 C 0.08791 0.87925 0.40633 0.0
C708 C 0.09377 0.85474 0.40235 0.0
H709 H 0.88659 0.77405 0.40211 0.0
H710 H 0.94315 0.79395 0.4013 0.0
C711 C 0.12439 0.86003 0.40236 0.0
C712 C 0.05494 0.87254 0.40709 0.0
H713 H 0.98539 0.82672 0.43068 0.0
C714 C 0.04401 0.88477 0.39243 0.0
C715 C 0.03365 0.85187 0.42127 0.0
C716 C 0.04431 0.83894 0.43779 0.0
C717 C 1.012 0.87574 0.39107 0.0
C718 C 0.99054 0.85433 0.40496 0.0
C719 C 1.00176 0.84291 0.41995 0.0
C720 C 0.95623 0.84281 0.40408 0.0
C721 C 1.00124 0.88815 0.37433 0.0
C722 C 0.94469 0.86364 0.40582 0.0
C723 C 0.91229 0.85235 0.40608 0.0
C724 C 0.8907 0.81991 0.4048 0.0
C725 C 0.90241 0.79916 0.40284 0.0
C726 C 0.93479 0.8105 0.40254 0.0
H727 H 1.01889 0.89783 0.36235 0.0
H728 H 0.97865 0.86946 0.36816 0.0
H729 H 0.99757 0.90732 0.3798 0.0
H730 H 0.96071 0.88861 0.40739 0.0
H731 H 0.90418 0.86907 0.4074 0.0
H732 H 0.05599 0.89359 0.89055 0.0
H733 H 0.09236 0.95029 0.88941 0.0
H734 H 0.16728 0.93617 0.91 0.0
H735 H 0.13106 0.87964 0.91179 0.0
H736 H 0.13125 0.99114 0.92212 0.0
H737 H 0.20097 0.9898 0.85853 0.0
H738 H 0.1619 0.9579 0.86376 0.0
H739 H 0.19491 0.96198 0.87755 0.0
C740 C 0.08014 0.90248 0.89499 0.0
C741 C 0.09051 0.88183 0.90122 0.0
C742 C 0.10092 0.93493 0.89423 0.0
C743 C 0.13255 0.94739 0.89944 0.0
C744 C 0.14304 0.92697 0.90563 0.0
H745 H 0.30467 0.11737 0.91122 0.0
H746 H 0.26001 0.06465 0.90872 0.0
C747 C 0.12228 0.89459 0.90653 0.0
C748 C 0.15472 0.98176 0.89872 0.0
H749 H 0.22257 0.03703 0.87702 0.0
C750 C 0.15104 1.00135 0.91211 0.0
C751 C 0.18036 0.99495 0.88558 0.0
C752 C 0.18476 0.97518 0.8704 0.0
C753 C 0.17334 0.03358 0.91343 0.0
C754 C 0.19963 0.04657 0.90073 0.0
C755 C 0.20248 0.0271 0.88679 0.0
C756 C 0.22609 0.07939 0.9028 0.0
C757 C 0.16942 0.05305 0.92905 0.0
C758 C 0.22202 0.10556 0.90041 0.0
C759 C 0.2478 0.13619 0.90197 0.0
C760 C 0.27809 0.14107 0.90571 0.0
C761 C 0.28183 0.11471 0.90818 0.0
C762 C 0.25623 0.08438 0.90675 0.0
H763 H 0.15144 0.03825 0.94008 0.0
H764 H 0.19201 0.06812 0.93674 0.0
H765 H 0.16187 0.0686 0.92208 0.0
H766 H 0.19906 0.10233 0.89702 0.0
H767 H 0.24411 0.15594 0.89991 0.0
H768 H 0.20144 0.28868 0.42081 0.0
H769 H 0.20812 0.24294 0.41961 0.0
H770 H 0.11528 0.18778 0.39512 0.0
H771 H 0.10816 0.23389 0.39634 0.0
H772 H 0.16473 0.17844 0.4371 0.0
H773 H 0.18125 0.18226 0.35602 0.0
H774 H 0.18787 0.21658 0.36959 0.0
H775 H 0.14863 0.18478 0.36599 0.0
C776 C 0.18227 0.26687 0.4152 0.0
C777 C 0.1543 0.26506 0.40851 0.0
C778 C 0.18616 0.24071 0.41459 0.0
C779 C 0.16235 0.21211 0.40714 0.0
C780 C 0.13403 0.20979 0.4008 0.0
H781 H 0.19201 0.05361 0.38221 0.0
H782 H 0.16899 0.08756 0.3835 0.0
C783 C 0.12996 0.23608 0.40157 0.0
C784 C 0.16805 0.18529 0.40584 0.0
H785 H 0.19156 0.14761 0.37393 0.0
C786 C 0.17015 0.17131 0.42328 0.0
C787 C 0.175 0.17604 0.38778 0.0
C788 C 0.17324 0.19062 0.3687 0.0
C789 C 0.17978 0.14882 0.42321 0.0
C790 C 0.18855 0.14084 0.40526 0.0
C791 C 0.18514 0.15389 0.38771 0.0
C792 C 0.20252 0.12008 0.40449 0.0
C793 C 0.18047 0.13391 0.44243 0.0
C794 C 0.22947 0.12733 0.41552 0.0
C795 C 0.24239 0.10767 0.4151 0.0
C796 C 0.22905 0.08051 0.40332 0.0
C797 C 0.20262 0.07389 0.39177 0.0
C798 C 0.18951 0.09344 0.39237 0.0
H799 H 0.16347 0.1341 0.45307 0.0
H800 H 0.17496 0.10929 0.44034 0.0
H801 H 0.20425 0.14752 0.449 0.0
H802 H 0.24055 0.14823 0.42455 0.0
H803 H 0.2625 0.11352 0.42435 0.0
H804 H 0.17127 0.26555 0.89975 0.0
H805 H 0.11439 0.24397 0.89862 0.0
H806 H 0.09991 0.1504 0.90462 0.0
H807 H 0.15682 0.17185 0.90628 0.0
H808 H 0.07003 0.2 0.87195 0.0
H809 H 0.04512 0.1552 0.94861 0.0
H810 H 0.08425 0.1829 0.94029 0.0
H811 H 0.06664 0.14218 0.93381 0.0
C812 C 0.15603 0.24039 0.901 0.0
C813 C 0.1687 0.22049 0.90322 0.0
C814 C 0.12349 0.22807 0.90023 0.0
C815 C 0.10285 0.1956 0.9018 0.0
C816 C 0.11535 0.17557 0.9037 0.0
H817 H 0.89524 0.09938 0.90744 0.0
H818 H 0.94889 0.10799 0.90518 0.0
C819 C 0.14793 0.18787 0.90442 0.0
C820 C 0.06832 0.18297 0.90128 0.0
H821 H 1.0018 0.14677 0.92929 0.0
C822 C 0.05508 0.18818 0.88444 0.0
C823 C 0.04875 0.16728 0.91752 0.0
C824 C 0.0618 0.16168 0.93617 0.0
C825 C 1.023 0.17872 0.88354 0.0
C826 C 1.00367 0.16417 0.90006 0.0
C827 C 1.01662 0.15788 0.91663 0.0
C828 C 0.97091 0.15823 0.90106 0.0
C829 C 1.01013 0.18465 0.86492 0.0
C830 C 0.96551 0.18356 0.89976 0.0
C831 C 0.93511 0.17877 0.90108 0.0
C832 C 0.90915 0.14845 0.90386 0.0
C833 C 0.91456 0.12299 0.90525 0.0
C834 C 0.94522 0.12787 0.90397 0.0
H835 H 1.02469 0.18639 0.852 0.0
H836 H 0.98557 0.16575 0.8622 0.0
H837 H 1.01037 0.20724 0.86626 0.0
H838 H 0.98495 0.20726 0.89795 0.0
H839 H 0.93212 0.19908 0.9 0.0
H840 H 1.01016 0.14424 0.40656 0.0
H841 H 0.97453 0.08726 0.40537 0.0
H842 H 0.89597 0.10195 0.39668 0.0
H843 H 0.93132 0.15866 0.39726 0.0
H844 H 0.92265 0.04892 0.42931 0.0
H845 H 0.88565 0.04243 0.3519 0.0
H846 H 0.91961 0.07651 0.3619 0.0
H847 H 0.88085 0.07059 0.36592 0.0
C848 C 0.98535 0.13535 0.40415 0.0
C849 C 0.97369 0.15617 0.40195 0.0
C850 C 0.96498 0.10275 0.40361 0.0
C851 C 0.93261 0.09027 0.40064 0.0
C852 C 0.92091 0.11097 0.39863 0.0
H853 H 0.75749 0.92271 0.40014 0.0
H854 H 0.8036 0.97463 0.39859 0.0
C855 C 0.94117 0.14347 0.3992 0.0
C856 C 0.91074 0.0557 0.40001 0.0
H857 H 0.85317 0.99787 0.37204 0.0
C858 C 0.90778 0.0376 0.41669 0.0
C859 C 0.89151 0.04087 0.38348 0.0
C860 C 0.89474 0.05853 0.36471 0.0
C861 C 0.88481 1.00553 0.4177 0.0
C862 C 0.86458 0.9911 0.40148 0.0
C863 C 0.86857 1.00891 0.3845 0.0
C864 C 0.83702 0.95869 0.40249 0.0
C865 C 0.88125 0.98775 0.43645 0.0
C866 C 0.8403 0.93209 0.40507 0.0
C867 C 0.81364 0.90189 0.40602 0.0
C868 C 0.78327 0.89785 0.40435 0.0
C869 C 0.78034 0.92465 0.40156 0.0
C870 C 0.80679 0.95455 0.40061 0.0
H871 H 0.89517 1.00357 0.44868 0.0
H872 H 0.8562 0.97434 0.44093 0.0
H873 H 0.88944 0.97072 0.43403 0.0
H874 H 0.86343 0.93463 0.40624 0.0
H875 H 0.81682 0.88183 0.40812 0.0
H876 H 0.95124 0.80533 0.89931 0.0
H877 H 0.94344 0.85105 0.8985 0.0
H878 H 0.84491 0.7906 0.91043 0.0
H879 H 0.8522 0.7453 0.91123 0.0
H880 H 0.89455 0.85697 0.87301 0.0
H881 H 0.87987 0.86276 0.95337 0.0
H882 H 0.90067 0.84469 0.9428 0.0
H883 H 0.85848 0.82413 0.94283 0.0
C884 C 0.92797 0.80184 0.90182 0.0
C885 C 0.9024 0.77158 0.90535 0.0
C886 C 0.92355 0.82794 0.9013 0.0
C887 C 0.89363 0.82415 0.90458 0.0
C888 C 0.86822 0.79406 0.90805 0.0
H889 H 0.78951 0.91959 0.91447 0.0
H890 H 0.81038 0.88381 0.91371 0.0
C891 C 0.8725 0.76812 0.90841 0.0
C892 C 0.88811 0.85116 0.90424 0.0
H893 H 0.86205 0.89012 0.93308 0.0
C894 C 0.888 0.86473 0.88615 0.0
C895 C 0.87932 0.86093 0.9214 0.0
C896 C 0.87978 0.8476 0.94126 0.0
C897 C 0.8778 0.88678 0.88464 0.0
C898 C 0.86805 0.89586 0.90176 0.0
C899 C 0.86932 0.88306 0.91994 0.0
C900 C 0.85517 0.91754 0.90116 0.0
C901 C 0.87609 0.89895 0.86462 0.0
C902 C 0.87332 0.94845 0.89429 0.0
C903 C 0.86127 0.96891 0.89446 0.0
C904 C 0.83088 0.959 0.9017 0.0
C905 C 0.81275 0.92794 0.90848 0.0
C906 C 0.82478 0.9075 0.90823 0.0
H907 H 0.877 0.88407 0.85267 0.0
H908 H 0.8542 0.90008 0.86297 0.0
H909 H 0.89636 0.92302 0.86275 0.0
H910 H 0.89703 0.95695 0.88909 0.0
H911 H 0.87583 0.99254 0.88896 0.0
H912 H 0.19723 0.7469 0.1503 0.0
H913 H 0.20098 0.69956 0.15167 0.0
H914 H 0.10099 0.64302 0.14272 0.0
H915 H 0.097 0.69078 0.14082 0.0
H916 H 0.17541 0.64956 0.17608 0.0
H917 H 0.13443 0.6106 0.09979 0.0
H918 H 0.14449 0.64909 0.10859 0.0
H919 H 0.10736 0.61553 0.11494 0.0
C920 C 0.17585 0.72449 0.14863 0.0
C921 C 0.14676 0.72283 0.14529 0.0
C922 C 0.17811 0.69732 0.14947 0.0
C923 C 0.15141 0.66765 0.14697 0.0
C924 C 0.12208 0.66567 0.14424 0.0
H925 H 0.13752 0.4831 0.14276 0.0
H926 H 0.12586 0.52588 0.14476 0.0
C927 C 0.11978 0.69301 0.14333 0.0
C928 C 0.15485 0.63917 0.14718 0.0
H929 H 0.14634 0.57791 0.11895 0.0
C930 C 0.16894 0.63385 0.16359 0.0
C931 C 0.14651 0.61864 0.13089 0.0
C932 C 0.13261 0.62378 0.11247 0.0
C933 C 0.17502 0.6088 0.16413 0.0
C934 C 0.16714 0.58861 0.14773 0.0
C935 C 0.15243 0.59344 0.1315 0.0
C936 C 0.17442 0.56264 0.14702 0.0
C937 C 0.18968 0.60402 0.18231 0.0
C938 C 0.20566 0.56904 0.14749 0.0
C939 C 0.21244 0.54458 0.1464 0.0
C940 C 0.18811 0.51316 0.14484 0.0
C941 C 0.15685 0.50692 0.14433 0.0
C942 C 0.15011 0.53138 0.14532 0.0
H943 H 0.18703 0.61627 0.19522 0.0
H944 H 0.17903 0.57867 0.18581 0.0
H945 H 0.21516 0.61363 0.17974 0.0
H946 H 0.22485 0.59302 0.14848 0.0
H947 H 0.23675 0.55027 0.14686 0.0
H948 H 0.68042 0.13984 0.66088 0.0
H949 H 0.62555 0.12694 0.66272 0.0
H950 H 0.64699 0.20787 0.62736 0.0
H951 H 0.70204 0.2214 0.62575 0.0
H952 H 0.59857 0.16264 0.67675 0.0
H953 H 0.57367 0.13439 0.59765 0.0
H954 H 0.60786 0.13741 0.60966 0.0
H955 H 0.60725 0.17227 0.6025 0.0
C956 C 0.67368 0.15525 0.65373 0.0
C957 C 0.69586 0.18166 0.64307 0.0
C958 C 0.64216 0.14765 0.65468 0.0
C959 C 0.63198 0.16608 0.64488 0.0
C960 C 0.65412 0.19288 0.63467 0.0
H961 H 0.46754 0.18316 0.65669 0.0
H962 H 0.51905 0.18749 0.65813 0.0
C963 C 0.68565 0.20057 0.63377 0.0
C964 C 0.59829 0.15745 0.64539 0.0
H965 H 0.53476 0.13854 0.61602 0.0
C966 C 0.58456 0.15716 0.66349 0.0
C967 C 0.5798 0.14977 0.62813 0.0
C968 C 0.59272 0.14814 0.60839 0.0
C969 C 0.55327 0.15059 0.66471 0.0
C970 C 0.53523 0.14435 0.64734 0.0
C971 C 0.54859 0.14348 0.62932 0.0
C972 C 0.50319 0.14054 0.64742 0.0
C973 C 0.53976 0.15047 0.68458 0.0
C974 C 0.47694 0.11271 0.64075 0.0
C975 C 0.44714 0.11007 0.63992 0.0
C976 C 0.44318 0.13542 0.64546 0.0
C977 C 0.46956 0.1631 0.6523 0.0
C978 C 0.49913 0.1656 0.65326 0.0
H979 H 0.55297 0.14681 0.69656 0.0
H980 H 0.54125 0.17346 0.68704 0.0
H981 H 0.51468 0.13185 0.68549 0.0
H982 H 0.47956 0.09312 0.63604 0.0
H983 H 0.42744 0.08851 0.63446 0.0
H984 H 0.55453 0.66579 0.11739 0.0
H985 H 0.51078 0.61187 0.1202 0.0
H986 H 0.46747 0.6416 0.16359 0.0
H987 H 0.51119 0.69582 0.16079 0.0
H988 H 0.48675 0.57238 0.15615 0.0
H989 H 0.39942 0.59566 0.11927 0.0
H990 H 0.44126 0.6214 0.11663 0.0
H991 H 0.42198 0.62187 0.13884 0.0
C992 C 0.53562 0.66095 0.12746 0.0
C993 C 0.53626 0.68526 0.13873 0.0
C994 C 0.51073 0.63004 0.12914 0.0
C995 C 0.48572 0.62272 0.14197 0.0
C996 C 0.48641 0.64676 0.15347 0.0
H997 H 0.30477 0.45556 0.16046 0.0
H998 H 0.35143 0.50756 0.16149 0.0
C999 C 0.51149 0.67771 0.15193 0.0
C1000 C 0.45876 0.58999 0.14306 0.0
H1001 H 0.38092 0.54477 0.13173 0.0
C1002 C 0.46357 0.56626 0.15083 0.0
C1003 C 0.42858 0.58207 0.1361 0.0
C1004 C 0.42232 0.60644 0.12709 0.0
C1005 C 0.43883 0.53493 0.15219 0.0
C1006 C 0.4086 0.52691 0.14508 0.0
C1007 C 0.40397 0.55075 0.13723 0.0
C1008 C 0.3812 0.49419 0.14584 0.0
C1009 C 0.4452 0.51099 0.16174 0.0
C1010 C 0.38223 0.46889 0.13695 0.0
C1011 C 0.35548 0.43877 0.13657 0.0
C1012 C 0.32699 0.43348 0.14476 0.0
C1013 C 0.32625 0.45872 0.15394 0.0
C1014 C 0.35297 0.48859 0.15452 0.0
H1015 H 0.46613 0.5223 0.17148 0.0
H1016 H 0.42474 0.49383 0.1705 0.0
H1017 H 0.44989 0.498 0.15019 0.0
H1018 H 0.4034 0.4726 0.12971 0.0
H1019 H 0.35677 0.41999 0.12916 0.0
H1020 H 0.83441 0.4996 0.65957 0.0
H1021 H 0.84575 0.45641 0.66219 0.0
H1022 H 0.92035 0.50225 0.61997 0.0
H1023 H 0.9093 0.54541 0.61733 0.0
H1024 H 0.84601 0.41788 0.62868 0.0
H1025 H 0.96076 0.48062 0.66755 0.0
H1026 H 0.93266 0.4941 0.66799 0.0
H1027 H 0.95612 0.50011 0.64654 0.0
C1028 C 0.85342 0.50062 0.651 0.0
C1029 C 0.87085 0.52594 0.63818 0.0
C1030 C 0.85981 0.47588 0.65246 0.0
C1031 C 0.88411 0.47623 0.64141 0.0
C1032 C 0.90174 0.50161 0.6288 0.0
H1033 H 0.95637 0.34629 0.6282 0.0
H1034 H 0.94979 0.39268 0.62817 0.0
C1035 C 0.89518 0.52614 0.62718 0.0
C1036 C 0.89018 0.44946 0.64238 0.0
H1037 H 0.94456 0.42919 0.65639 0.0
C1038 C 0.86747 0.42028 0.63484 0.0
C1039 C 0.9184 0.45275 0.65014 0.0
C1040 C 0.94339 0.48349 0.65866 0.0
C1041 C 0.8723 0.3944 0.63464 0.0
C1042 C 0.90026 0.39741 0.64279 0.0
C1043 C 0.9231 0.42674 0.65021 0.0
C1044 C 0.90576 0.3702 0.64403 0.0
C1045 C 0.84767 0.36433 0.62516 0.0
C1046 C 0.88395 0.34249 0.65359 0.0
C1047 C 0.88752 0.31603 0.65347 0.0
C1048 C 0.91336 0.31668 0.64412 0.0
C1049 C 0.93623 0.34498 0.63554 0.0
C1050 C 0.93242 0.37148 0.63546 0.0
H1051 H 0.8333 0.36872 0.6144 0.0
H1052 H 0.85849 0.35216 0.61751 0.0
H1053 H 0.83158 0.34842 0.63663 0.0
H1054 H 0.86375 0.34111 0.66089 0.0
H1055 H 0.86966 0.29481 0.6605 0.0
H1056 H 0.58892 0.85089 0.14456 0.0
H1057 H 0.5378 0.84712 0.14599 0.0
H1058 H 0.5818 0.94784 0.14188 0.0
H1059 H 0.63363 0.95192 0.14002 0.0
H1060 H 0.51349 0.87045 0.17247 0.0
H1061 H 0.51638 0.91923 0.09841 0.0
H1062 H 0.54447 0.90791 0.10604 0.0
H1063 H 0.54838 0.94439 0.11428 0.0
C1064 C 0.588 0.87241 0.14393 0.0
C1065 C 0.61563 0.90178 0.14206 0.0
C1066 C 0.55856 0.87013 0.14479 0.0
C1067 C 0.55577 0.89709 0.14378 0.0
C1068 C 0.58326 0.9266 0.14228 0.0
H1069 H 0.38526 0.91164 0.14323 0.0
H1070 H 0.43972 0.92313 0.14475 0.0
C1071 C 0.61292 0.92893 0.14136 0.0
C1072 C 0.52391 0.89377 0.14444 0.0
H1073 H 0.47151 0.90526 0.11776 0.0
C1074 C 0.50438 0.87817 0.16052 0.0
C1075 C 0.51192 0.90379 0.12886 0.0
C1076 C 0.5312 0.91953 0.11082 0.0
C1077 C 0.47328 0.87218 0.1614 0.0
C1078 C 0.46113 0.88167 0.14566 0.0
C1079 C 0.48082 0.89791 0.12979 0.0
C1080 C 0.42788 0.87448 0.14524 0.0
C1081 C 0.45374 0.8559 0.17924 0.0
C1082 C 0.403 0.84327 0.14489 0.0
C1083 C 0.37176 0.83658 0.1441 0.0
C1084 C 0.36469 0.86099 0.14364 0.0
C1085 C 0.38973 0.89223 0.14395 0.0
C1086 C 0.42094 0.89888 0.14465 0.0
H1087 H 0.46861 0.85753 0.19199 0.0
H1088 H 0.43889 0.86608 0.18345 0.0
H1089 H 0.43801 0.83067 0.17585 0.0
H1090 H 0.40777 0.82403 0.14501 0.0
H1091 H 0.35313 0.81228 0.14392 0.0
H1092 H 0.69919 0.6223 0.63983 0.0
H1093 H 0.65145 0.57046 0.64225 0.0
H1094 H 0.70844 0.52678 0.64661 0.0
H1095 H 0.7557 0.57778 0.6446 0.0
H1096 H 0.63072 0.51852 0.61799 0.0
H1097 H 0.6501 0.48791 0.69279 0.0
H1098 H 0.67176 0.52738 0.68327 0.0
H1099 H 0.6834 0.49903 0.67723 0.0
C1100 C 0.70152 0.60167 0.6415 0.0
C1101 C 0.73143 0.60443 0.64215 0.0
C1102 C 0.67421 0.57204 0.64285 0.0
C1103 C 0.67632 0.5447 0.64502 0.0
C1104 C 0.70611 0.54749 0.6455 0.0
H1105 H 0.55943 0.34307 0.64238 0.0
H1106 H 0.60175 0.39802 0.64333 0.0
C1107 C 0.73323 0.57687 0.6442 0.0
C1108 C 0.64769 0.51298 0.64598 0.0
H1109 H 0.61331 0.44505 0.67276 0.0
C1110 C 0.62663 0.50261 0.6301 0.0
C1111 C 0.64233 0.49213 0.66178 0.0
C1112 C 0.66293 0.50228 0.67982 0.0
C1113 C 0.6012 0.47164 0.6292 0.0
C1114 C 0.59651 0.45054 0.6447 0.0
C1115 C 0.61708 0.46113 0.6608 0.0
C1116 C 0.57068 0.41724 0.64434 0.0
C1117 C 0.58021 0.46135 0.61135 0.0
C1118 C 0.53915 0.40975 0.64488 0.0
C1119 C 0.51493 0.37839 0.64435 0.0
C1120 C 0.52168 0.35377 0.6433 0.0
C1121 C 0.55335 0.36139 0.643 0.0
C1122 C 0.57757 0.39278 0.64363 0.0
H1123 H 0.59071 0.47823 0.59902 0.0
H1124 H 0.57533 0.43786 0.60632 0.0
H1125 H 0.55746 0.45959 0.61518 0.0
H1126 H 0.53326 0.42818 0.64569 0.0
H1127 H 0.49086 0.37348 0.64438 0.0
H1128 H 0.35863 0.94995 0.41219 0.0
H1129 H 0.40554 0.9443 0.41179 0.0
H1130 H 0.35141 0.85263 0.38563 0.0
H1131 H 0.30475 0.85784 0.38621 0.0
H1132 H 0.38361 0.85157 0.41775 0.0
H1133 H 0.46328 0.94763 0.36765 0.0
H1134 H 0.44806 0.95971 0.38769 0.0
H1135 H 0.42174 0.93399 0.36916 0.0
C1136 C 0.35691 0.92887 0.40601 0.0
C1137 C 0.32785 0.90433 0.39932 0.0
C1138 C 0.38377 0.92567 0.40576 0.0
C1139 C 0.3821 0.89805 0.3986 0.0
C1140 C 0.35335 0.8741 0.39129 0.0
H1141 H 0.53066 0.85598 0.37284 0.0
H1142 H 0.48768 0.86758 0.37147 0.0
C1143 C 0.32663 0.87718 0.39162 0.0
C1144 C 0.4094 0.89277 0.39983 0.0
H1145 H 0.48469 0.92001 0.38407 0.0
C1146 C 0.40572 0.86658 0.41038 0.0
C1147 C 0.43816 0.91212 0.39007 0.0
C1148 C 0.44311 0.9398 0.37784 0.0
C1149 C 0.42984 0.8592 0.41145 0.0
C1150 C 0.45884 0.87888 0.40202 0.0
C1151 C 0.46255 0.90504 0.3914 0.0
C1152 C 0.48538 0.87242 0.40288 0.0
C1153 C 0.42372 0.8299 0.42228 0.0
C1154 C 0.49868 0.87158 0.42096 0.0
C1155 C 0.52319 0.86489 0.4218 0.0
C1156 C 0.53521 0.85912 0.40455 0.0
C1157 C 0.52212 0.86042 0.38641 0.0
C1158 C 0.49751 0.86703 0.3856 0.0
H1159 H 0.39817 0.81321 0.42404 0.0
H1160 H 0.43441 0.81772 0.41452 0.0
H1161 H 0.43428 0.83642 0.43715 0.0
H1162 H 0.49026 0.87636 0.43446 0.0
H1163 H 0.53314 0.86487 0.43598 0.0
H1164 H 0.6809 0.55073 0.88527 0.0
H1165 H 0.62587 0.50908 0.88354 0.0
H1166 H 0.64648 0.45018 0.92016 0.0
H1167 H 0.70166 0.4914 0.9217 0.0
H1168 H 0.59846 0.44649 0.87016 0.0
H1169 H 0.57338 0.45133 0.94899 0.0
H1170 H 0.60788 0.48201 0.93702 0.0
H1171 H 0.60668 0.44641 0.94458 0.0
C1172 C 0.67392 0.52877 0.89274 0.0
C1173 C 0.6959 0.52461 0.90371 0.0
C1174 C 0.64232 0.50505 0.89184 0.0
C1175 C 0.63188 0.47672 0.90202 0.0
C1176 C 0.65382 0.47213 0.91256 0.0
H1177 H 0.46814 0.29531 0.89046 0.0
H1178 H 0.5194 0.34275 0.889 0.0
C1179 C 0.68542 0.49577 0.91342 0.0
C1180 C 0.59813 0.45184 0.90149 0.0
H1181 H 0.53452 0.40776 0.93078 0.0
C1182 C 0.58442 0.43819 0.88339 0.0
C1183 C 0.57959 0.44135 0.9187 0.0
C1184 C 0.59247 0.4562 0.93842 0.0
C1185 C 0.55311 0.41352 0.88217 0.0
C1186 C 0.53506 0.40199 0.89951 0.0
C1187 C 0.54838 0.41646 0.9175 0.0
C1188 C 0.50314 0.37363 0.89946 0.0
C1189 C 0.53963 0.3999 0.8623 0.0
C1190 C 0.47675 0.37501 0.90602 0.0
C1191 C 0.44708 0.3477 0.90687 0.0
C1192 C 0.44343 0.31844 0.90147 0.0
C1193 C 0.46994 0.31735 0.89475 0.0
C1194 C 0.49936 0.34455 0.89378 0.0
H1195 H 0.55273 0.4167 0.85031 0.0
H1196 H 0.54134 0.37849 0.85994 0.0
H1197 H 0.51449 0.39322 0.86133 0.0
H1198 H 0.47917 0.39719 0.91061 0.0
H1199 H 0.42726 0.34938 0.91223 0.0
H1200 H 0.23453 0.69335 0.42035 0.0
H1201 H 0.22106 0.63835 0.41869 0.0
H1202 H 0.13858 0.61633 0.38468 0.0
H1203 H 0.15144 0.67115 0.38658 0.0
H1204 H 0.16428 0.58475 0.43226 0.0
H1205 H 0.18325 0.57863 0.35235 0.0
H1206 H 0.19898 0.61541 0.36539 0.0
H1207 H 0.15811 0.59396 0.35892 0.0
C1208 C 0.21346 0.67687 0.41254 0.0
C1209 C 0.19413 0.68689 0.40359 0.0
C1210 C 0.20586 0.64541 0.41155 0.0
C1211 C 0.17893 0.62323 0.40145 0.0
C1212 C 0.15975 0.6331 0.3923 0.0
H1213 H 0.09965 0.41809 0.41248 0.0
H1214 H 0.10454 0.47034 0.41141 0.0
C1215 C 0.16725 0.66456 0.39333 0.0
C1216 C 0.17064 0.58969 0.40096 0.0
H1217 H 0.16356 0.53148 0.37034 0.0
C1218 C 0.16393 0.57302 0.41871 0.0
C1219 C 0.17034 0.57447 0.38329 0.0
C1220 C 0.17827 0.59149 0.36388 0.0
C1221 C 0.15719 0.54166 0.41928 0.0
C1222 C 0.15694 0.52645 0.40161 0.0
C1223 C 0.16342 0.54305 0.38385 0.0
C1224 C 0.15281 0.49433 0.40148 0.0
C1225 C 0.15146 0.52533 0.43885 0.0
C1226 C 0.17799 0.49034 0.39583 0.0
C1227 C 0.17529 0.46071 0.39644 0.0
C1228 C 0.14719 0.43416 0.40257 0.0
C1229 C 0.1216 0.438 0.40772 0.0
C1230 C 0.12443 0.46786 0.40722 0.0
H1231 H 0.15765 0.54193 0.45134 0.0
H1232 H 0.12623 0.50733 0.4401 0.0
H1233 H 0.1653 0.5132 0.4401 0.0
H1234 H 0.20006 0.51036 0.39131 0.0
H1235 H 0.19547 0.45874 0.39224 0.0
H1236 H 0.70191 0.0913 0.91521 0.0
H1237 H 0.6547 0.09653 0.91448 0.0
H1238 H 0.707 0.18575 0.88521 0.0
H1239 H 0.75405 0.18091 0.88598 0.0
H1240 H 0.65314 0.15184 0.93189 0.0
H1241 H 0.6235 0.13497 0.85247 0.0
H1242 H 0.64642 0.12006 0.86418 0.0
H1243 H 0.66411 0.16107 0.85851 0.0
C1244 C 0.7032 0.11177 0.90833 0.0
C1245 C 0.7318 0.13567 0.90067 0.0
C1246 C 0.67625 0.11478 0.908 0.0
C1247 C 0.67727 0.14143 0.89966 0.0
C1248 C 0.70554 0.16483 0.89151 0.0
H1249 H 0.55036 0.21587 0.88572 0.0
H1250 H 0.59339 0.20426 0.8835 0.0
C1251 C 0.73248 0.16204 0.89205 0.0
C1252 C 0.64959 0.14606 0.90056 0.0
H1253 H 0.59644 0.15358 0.87204 0.0
C1254 C 0.6405 0.15191 0.91885 0.0
C1255 C 0.63351 0.14667 0.88349 0.0
C1256 C 0.64212 0.14016 0.86352 0.0
C1257 C 0.61621 0.15904 0.92051 0.0
C1258 C 0.5998 0.15936 0.90344 0.0
C1259 C 0.60887 0.15332 0.88514 0.0
C1260 C 0.5732 0.16587 0.90431 0.0
C1261 C 0.60926 0.16731 0.94049 0.0
C1262 C 0.5471 0.14778 0.91636 0.0
C1263 C 0.52274 0.15459 0.91779 0.0
C1264 C 0.52352 0.17933 0.90694 0.0
C1265 C 0.54906 0.1967 0.89429 0.0
C1266 C 0.57368 0.19009 0.89303 0.0
H1267 H 0.62972 0.17554 0.95053 0.0
H1268 H 0.60279 0.18589 0.93948 0.0
H1269 H 0.58934 0.14612 0.94715 0.0
H1270 H 0.54551 0.1283 0.9247 0.0
H1271 H 0.50307 0.14026 0.92732 0.0
H1272 H 0.35091 0.54812 0.40869 0.0
H1273 H 0.40535 0.59143 0.4076 0.0
H1274 H 0.43778 0.52506 0.40162 0.0
H1275 H 0.38356 0.48178 0.40257 0.0
H1276 H 0.45409 0.60518 0.43207 0.0
H1277 H 0.48479 0.58467 0.3574 0.0
H1278 H 0.44483 0.56561 0.36618 0.0
H1279 H 0.47054 0.55108 0.37318 0.0
C1280 C 0.36961 0.54273 0.4071 0.0
C1281 C 0.36269 0.51137 0.40553 0.0
C1282 C 0.40078 0.56755 0.40642 0.0
C1283 C 0.4258 0.56167 0.40415 0.0
C1284 C 0.41898 0.53039 0.40279 0.0
H1285 H 0.63124 0.68998 0.40576 0.0
H1286 H 0.57883 0.64263 0.40577 0.0
C1287 C 0.38785 0.50559 0.40336 0.0
C1288 C 0.459 0.58818 0.40396 0.0
H1289 H 0.52671 0.62275 0.37684 0.0
C1290 C 0.46988 0.609 0.41995 0.0
C1291 C 0.47985 0.59321 0.38821 0.0
C1292 C 0.46939 0.57266 0.37018 0.0
C1293 C 0.5008 0.6345 0.42065 0.0
C1294 C 0.5215 0.63968 0.40485 0.0
C1295 C 0.5109 0.61866 0.38899 0.0
C1296 C 0.55347 0.66799 0.40406 0.0
C1297 C 0.51118 0.65573 0.43837 0.0
C1298 C 0.55665 0.69786 0.40265 0.0
C1299 C 0.58636 0.72478 0.40253 0.0
C1300 C 0.61386 0.72265 0.40382 0.0
C1301 C 0.61068 0.69259 0.40478 0.0
C1302 C 0.58073 0.6655 0.4048 0.0
H1303 H 0.49558 0.64436 0.45117 0.0
H1304 H 0.53565 0.66267 0.44257 0.0
H1305 H 0.51049 0.67739 0.43481 0.0
H1306 H 0.53602 0.70038 0.40174 0.0
H1307 H 0.5876 0.74736 0.40167 0.0
H1308 H 0.8621 0.57846 0.89923 0.0
H1309 H 0.85851 0.52749 0.89793 0.0
H1310 H 0.95941 0.57185 0.90121 0.0
H1311 H 0.96332 0.62359 0.90301 0.0
H1312 H 0.88079 0.50248 0.87162 0.0
H1313 H 0.93254 0.50764 0.94505 0.0
H1314 H 0.92109 0.53559 0.93738 0.0
H1315 H 0.95717 0.53903 0.92869 0.0
C1316 C 0.88371 0.57767 0.89969 0.0
C1317 C 0.91308 0.60538 0.90134 0.0
C1318 C 0.88154 0.5483 0.89891 0.0
C1319 C 0.90859 0.54563 0.89975 0.0
C1320 C 0.9381 0.5732 0.90096 0.0
H1321 H 0.92153 0.37414 0.9009 0.0
H1322 H 0.93364 0.42873 0.89882 0.0
C1323 C 0.94033 0.60281 0.90183 0.0
C1324 C 0.90529 0.51379 0.89928 0.0
H1325 H 0.91752 0.46209 0.92618 0.0
C1326 C 0.88896 0.49374 0.88353 0.0
C1327 C 0.91588 0.50225 0.91482 0.0
C1328 C 0.93242 0.52208 0.93254 0.0
C1329 C 0.88269 0.46255 0.88296 0.0
C1330 C 0.89272 0.45086 0.89866 0.0
C1331 C 0.90977 0.47107 0.91418 0.0
C1332 C 0.88516 0.41753 0.89945 0.0
C1333 C 0.86546 0.44238 0.8655 0.0
C1334 C 0.85384 0.39299 0.90063 0.0
C1335 C 0.84679 0.36168 0.90177 0.0
C1336 C 0.87094 0.35421 0.90174 0.0
C1337 C 0.90229 0.37892 0.90059 0.0
C1338 C 0.90931 0.4102 0.89956 0.0
H1339 H 0.86649 0.45677 0.85264 0.0
H1340 H 0.87535 0.4273 0.86123 0.0
H1341 H 0.84039 0.42686 0.86939 0.0
H1342 H 0.83481 0.39809 0.90088 0.0
H1343 H 0.82242 0.34331 0.9026 0.0
H1344 H 0.19062 0.33622 0.35784 0.0
H1345 H 0.20776 0.33884 0.32361 0.0
H1346 H 0.15944 0.38838 0.30736 0.0
H1347 H 0.14251 0.38593 0.3413 0.0
H1348 H 0.16564 0.31199 0.29168 0.0
H1349 H 0.24408 0.43975 0.27963 0.0
H1350 H 0.23374 0.42261 0.30384 0.0
H1351 H 0.20648 0.42922 0.28995 0.0
C1352 C 0.18434 0.3483 0.34703 0.0
C1353 C 0.16522 0.36086 0.35224 0.0
C1354 C 0.19398 0.34967 0.32746 0.0
C1355 C 0.18512 0.36406 0.31287 0.0
C1356 C 0.16708 0.37766 0.31831 0.0
H1357 H 0.20491 0.3699 0.18294 0.0
H1358 H 0.18986 0.37685 0.21644 0.0
C1359 C 0.15729 0.3761 0.33774 0.0
C1360 C 0.19221 0.36248 0.29174 0.0
H1361 H 0.22922 0.40718 0.25132 0.0
C1362 C 0.17965 0.33283 0.28291 0.0
C1363 C 0.20998 0.38966 0.28013 0.0
C1364 C 0.22459 0.42214 0.28886 0.0
C1365 C 0.18444 0.32959 0.26291 0.0
C1366 C 0.20286 0.3567 0.25139 0.0
C1367 C 0.21494 0.38642 0.26008 0.0
C1368 C 0.21246 0.35422 0.23101 0.0
C1369 C 0.16961 0.29703 0.25426 0.0
C1370 C 0.23066 0.33997 0.22812 0.0
C1371 C 0.23905 0.33599 0.20929 0.0
C1372 C 0.22978 0.34638 0.19268 0.0
C1373 C 0.21226 0.36154 0.19544 0.0
C1374 C 0.20372 0.36552 0.21454 0.0
H1375 H 0.14894 0.27997 0.26294 0.0
H1376 H 0.16207 0.29679 0.23886 0.0
H1377 H 0.18704 0.28897 0.25435 0.0
H1378 H 0.23827 0.33165 0.24053 0.0
H1379 H 0.25281 0.32447 0.20778 0.0
H1380 H 0.94712 0.25067 0.70886 0.0
H1381 H 0.92462 0.23737 0.7416 0.0
H1382 H 0.83279 0.17809 0.71667 0.0
H1383 H 0.85552 0.19159 0.68334 0.0
H1384 H 0.87567 0.2441 0.75978 0.0
H1385 H 0.84768 0.11984 0.75443 0.0
H1386 H 0.87394 0.14962 0.73747 0.0
H1387 H 0.83233 0.13389 0.73545 0.0
C1388 C 0.92205 0.2349 0.71023 0.0
C1389 C 0.90311 0.22202 0.69346 0.0
C1390 C 0.90921 0.22743 0.72904 0.0
C1391 C 0.87708 0.20657 0.73169 0.0
C1392 C 0.85775 0.19405 0.71499 0.0
H1393 H 0.78166 0.11406 0.83946 0.0
H1394 H 0.79387 0.1347 0.80617 0.0
C1395 C 0.87067 0.20182 0.69596 0.0
C1396 C 0.86478 0.19729 0.75208 0.0
H1397 H 0.83794 0.13631 0.78451 0.0
C1398 C 0.86708 0.22044 0.76517 0.0
C1399 C 0.8539 0.16655 0.75918 0.0
C1400 C 0.85193 0.14097 0.74602 0.0
C1401 C 0.85863 0.21364 0.7851 0.0
C1402 C 0.84836 0.183 0.79232 0.0
C1403 C 0.84578 0.15983 0.7791 0.0
C1404 C 0.83966 0.1739 0.81335 0.0
C1405 C 0.86038 0.23925 0.7981 0.0
C1406 C 0.86081 0.18958 0.82891 0.0
C1407 C 0.85345 0.17806 0.84827 0.0
C1408 C 0.82513 0.15034 0.85223 0.0
C1409 C 0.80367 0.13551 0.83684 0.0
C1410 C 0.81071 0.14723 0.81773 0.0
H1411 H 0.85922 0.25776 0.78939 0.0
H1412 H 0.84105 0.22972 0.80902 0.0
H1413 H 0.88308 0.25049 0.80612 0.0
H1414 H 0.88362 0.2098 0.82598 0.0
H1415 H 0.87062 0.1896 0.85982 0.0
H1416 H 0.7084 0.93409 0.20842 0.0
H1417 H 0.70002 0.91173 0.24119 0.0
H1418 H 0.67983 0.82283 0.21659 0.0
H1419 H 0.68827 0.84545 0.18323 0.0
H1420 H 0.64778 0.859 0.25914 0.0
H1421 H 0.75436 0.84703 0.25522 0.0
H1422 H 0.74706 0.87044 0.2379 0.0
H1423 H 0.72572 0.82842 0.23604 0.0
C1424 C 0.70189 0.90965 0.20987 0.0
C1425 C 0.69918 0.89157 0.1932 0.0
C1426 C 0.69699 0.89687 0.22869 0.0
C1427 C 0.68959 0.86571 0.23147 0.0
C1428 C 0.68584 0.84708 0.21483 0.0
H1429 H 0.6932 0.77306 0.33878 0.0
H1430 H 0.68526 0.78557 0.30549 0.0
C1431 C 0.69048 0.8599 0.19578 0.0
C1432 C 0.68762 0.85392 0.25192 0.0
H1433 H 0.72668 0.83346 0.28491 0.0
C1434 C 0.66483 0.8531 0.26476 0.0
C1435 C 0.7101 0.84665 0.25935 0.0
C1436 C 0.7359 0.84833 0.24654 0.0
C1437 C 0.66373 0.84488 0.28471 0.0
C1438 C 0.68652 0.83803 0.29221 0.0
C1439 C 0.70916 0.8387 0.27928 0.0
C1440 C 0.68712 0.82912 0.31317 0.0
C1441 C 0.63785 0.84313 0.29744 0.0
C1442 C 0.68991 0.84891 0.32898 0.0
C1443 C 0.69394 0.8414 0.34836 0.0
C1444 C 0.69582 0.8143 0.3521 0.0
C1445 C 0.69193 0.79418 0.33638 0.0
C1446 C 0.68748 0.80136 0.31726 0.0
H1447 H 0.61765 0.8403 0.28853 0.0
H1448 H 0.62931 0.82331 0.30798 0.0
H1449 H 0.64701 0.86524 0.30593 0.0
H1450 H 0.69034 0.8708 0.32627 0.0
H1451 H 0.69732 0.85754 0.36016 0.0
H1452 H 0.79091 0.69542 0.70773 0.0
H1453 H 0.8048 0.68702 0.74055 0.0
H1454 H 0.87538 0.66935 0.71623 0.0
H1455 H 0.86129 0.67779 0.68282 0.0
H1456 H 0.80683 0.63553 0.75858 0.0
H1457 H 0.92379 0.74426 0.75487 0.0
H1458 H 0.89289 0.73607 0.73749 0.0
H1459 H 0.91473 0.71589 0.73568 0.0
C1460 C 0.80922 0.68943 0.70925 0.0
C1461 C 0.82516 0.68746 0.69266 0.0
C1462 C 0.81705 0.68451 0.7281 0.0
C1463 C 0.84132 0.67786 0.73097 0.0
C1464 C 0.85672 0.67476 0.71439 0.0
H1465 H 0.9387 0.68359 0.83807 0.0
H1466 H 0.91784 0.67504 0.80488 0.0
C1467 C 0.84859 0.6794 0.69532 0.0
C1468 C 0.85122 0.67617 0.75144 0.0
H1469 H 0.9103 0.71638 0.78452 0.0
C1470 C 0.82958 0.65302 0.76425 0.0
C1471 C 0.88068 0.69924 0.75892 0.0
C1472 C 0.90439 0.72547 0.74615 0.0
C1473 C 0.83676 0.65209 0.78421 0.0
C1474 C 0.86613 0.67541 0.79174 0.0
C1475 C 0.88776 0.69846 0.77885 0.0
C1476 C 0.87578 0.67614 0.81267 0.0
C1477 C 0.81304 0.62587 0.79694 0.0
C1478 C 0.85867 0.67863 0.82851 0.0
C1479 C 0.87047 0.68305 0.84785 0.0
C1480 C 0.89978 0.68558 0.85148 0.0
C1481 C 0.91607 0.68185 0.83574 0.0
C1482 C 0.9042 0.67704 0.81668 0.0
H1483 H 0.79586 0.60559 0.78802 0.0
H1484 H 0.82476 0.61763 0.80736 0.0
H1485 H 0.79982 0.63455 0.80557 0.0
H1486 H 0.83694 0.67859 0.82585 0.0
H1487 H 0.85765 0.68626 0.85967 0.0
H1488 H 0.11915 0.8243 0.20576 0.0
H1489 H 0.14067 0.83523 0.23879 0.0
H1490 H 0.2226 0.83315 0.21832 0.0
H1491 H 0.20118 0.82307 0.18461 0.0
H1492 H 0.15275 0.79924 0.26219 0.0
H1493 H 0.26289 0.91281 0.25023 0.0
H1494 H 0.23243 0.89566 0.23187 0.0
H1495 H 0.2584 0.88035 0.23572 0.0
C1496 C 0.14201 0.82661 0.20817 0.0
C1497 C 0.15855 0.82298 0.19256 0.0
C1498 C 0.15422 0.83267 0.22716 0.0
C1499 C 0.18329 0.83503 0.23125 0.0
C1500 C 0.20033 0.83194 0.21559 0.0
H1501 H 0.22507 0.84702 0.36027 0.0
H1502 H 0.21427 0.82521 0.32665 0.0
C1503 C 0.18815 0.8262 0.19632 0.0
C1504 C 0.19467 0.84025 0.25205 0.0
H1505 H 0.25113 0.89421 0.28253 0.0
C1506 C 0.17449 0.81983 0.26663 0.0
C1507 C 0.22304 0.86705 0.25793 0.0
C1508 C 0.24541 0.89042 0.24319 0.0
C1509 C 0.18087 0.82639 0.28678 0.0
C1510 C 0.20868 0.85379 0.29265 0.0
C1511 C 0.22979 0.87319 0.27808 0.0
C1512 C 0.21433 0.86535 0.3134 0.0
C1513 C 0.15682 0.80497 0.30154 0.0
C1514 C 0.21793 0.89495 0.31726 0.0
C1515 C 0.22431 0.90733 0.33618 0.0
C1516 C 0.2271 0.89047 0.35196 0.0
C1517 C 0.22268 0.86037 0.34842 0.0
C1518 C 0.21653 0.84796 0.32921 0.0
H1519 H 0.13415 0.78812 0.2945 0.0
H1520 H 0.16587 0.79129 0.30933 0.0
H1521 H 0.15234 0.8188 0.31262 0.0
H1522 H 0.21607 0.90878 0.3055 0.0
H1523 H 0.2275 0.93056 0.3384 0.0
H1524 H 0.34879 0.25424 0.83671 0.0
H1525 H 0.35779 0.24036 0.80411 0.0
H1526 H 0.38307 0.17568 0.82944 0.0
H1527 H 0.374 0.18977 0.86265 0.0
H1528 H 0.41156 0.24265 0.78629 0.0
H1529 H 0.30887 0.12161 0.79128 0.0
H1530 H 0.31468 0.15219 0.80826 0.0
H1531 H 0.33795 0.13356 0.81037 0.0
C1532 C 0.35652 0.2372 0.83546 0.0
C1533 C 0.36048 0.22293 0.85229 0.0
C1534 C 0.36178 0.22939 0.81673 0.0
C1535 C 0.37083 0.2068 0.81422 0.0
C1536 C 0.37579 0.19301 0.83101 0.0
H1537 H 0.36855 0.11112 0.70693 0.0
H1538 H 0.37743 0.13193 0.74016 0.0
C1539 C 0.37077 0.20113 0.84996 0.0
C1540 C 0.37322 0.19697 0.79388 0.0
H1541 H 0.33574 0.13656 0.76134 0.0
C1542 C 0.39522 0.21934 0.78085 0.0
C1543 C 0.35167 0.16671 0.7867 0.0
C1544 C 0.32675 0.14208 0.79976 0.0
C1545 C 0.39637 0.2122 0.76093 0.0
C1546 C 0.3744 0.18208 0.75366 0.0
C1547 C 0.35263 0.15968 0.7668 0.0
C1548 C 0.37361 0.17264 0.73269 0.0
C1549 C 0.42139 0.23687 0.74798 0.0
C1550 C 0.3695 0.18905 0.71701 0.0
C1551 C 0.365 0.17735 0.69768 0.0
C1552 C 0.36392 0.14878 0.69388 0.0
C1553 C 0.36921 0.13319 0.70942 0.0
C1554 C 0.37419 0.14503 0.72849 0.0
H1555 H 0.44151 0.25471 0.75672 0.0
H1556 H 0.4303 0.2262 0.73726 0.0
H1557 H 0.41126 0.24916 0.7397 0.0
H1558 H 0.3683 0.21007 0.71981 0.0
H1559 H 0.3605 0.18956 0.68601 0.0
H1560 H 0.31432 0.1934 0.9738 0.0
H1561 H 0.29088 0.2096 0.9999 0.0
H1562 H 0.33867 0.30411 0.97723 0.0
H1563 H 0.36137 0.28787 0.95103 0.0
H1564 H 0.31545 0.25066 0.02927 0.0
H1565 H 0.2513 0.28993 0.98112 0.0
H1566 H 0.26885 0.26787 0.97196 0.0
H1567 H 0.29234 0.3097 0.97534 0.0
C1568 C 0.31969 0.21759 0.97439 0.0
C1569 C 0.33941 0.23925 0.96021 0.0
C1570 C 0.30626 0.22686 0.98931 0.0
C1571 C 0.31228 0.258 0.99038 0.0
C1572 C 0.33271 0.27976 0.97648 0.0
H1573 H 0.29702 0.35452 0.09263 0.0
H1574 H 0.31284 0.33192 0.06614 0.0
C1575 C 0.34594 0.27049 0.96156 0.0
C1576 C 0.29816 0.26812 1.0063 0.0
H1577 H 0.25821 0.3075 1.01458 0.0
C1578 C 0.30271 0.26285 0.026 0.0
C1579 C 0.28085 0.28348 1.00223 0.0
C1580 C 0.27273 0.28777 0.98151 0.0
C1581 C 0.29162 0.27348 0.04161 0.0
C1582 C 0.27616 0.29069 0.03754 0.0
C1583 C 0.27049 0.29486 1.01784 0.0
C1584 C 0.26636 0.30506 0.05347 0.0
C1585 C 0.29631 0.26575 0.06234 0.0
C1586 C 0.23514 0.29879 0.05489 0.0
C1587 C 0.2261 0.31214 0.06998 0.0
C1588 C 0.24808 0.33203 0.084 0.0
C1589 C 0.27941 0.33893 0.08224 0.0
C1590 C 0.28844 0.32577 0.06715 0.0
H1591 H 0.29859 0.2444 0.06281 0.0
H1592 H 0.31832 0.28552 0.06836 0.0
H1593 H 0.27652 0.26195 0.07198 0.0
H1594 H 0.21763 0.28317 0.04447 0.0
H1595 H 0.20183 0.30649 0.07088 0.0
H1596 H 0.09095 0.34932 0.44957 0.0
H1597 H 0.05279 0.3281 0.47636 0.0
H1598 H 0.09955 0.28055 0.49947 0.0
H1599 H 0.13834 0.30255 0.47291 0.0
H1600 H 1.01049 0.27044 0.48677 0.0
H1601 H 0.095 0.32325 0.54816 0.0
H1602 H 0.10622 0.33416 0.52295 0.0
H1603 H 0.10324 0.29875 0.53273 0.0
C1604 C 0.09318 0.33442 0.46041 0.0
C1605 C 0.1178 0.32774 0.45914 0.0
C1606 C 0.07126 0.32222 0.47575 0.0
C1607 C 0.07334 0.30302 0.49029 0.0
C1608 C 0.09772 0.29593 0.48885 0.0
H1609 H 0.91528 0.19106 0.57161 0.0
H1610 H 0.95342 0.20739 0.54463 0.0
C1611 C 0.11984 0.30837 0.47356 0.0
C1612 C 0.04977 0.29032 0.50669 0.0
H1613 H 0.0424 0.28672 0.55675 0.0
C1614 C 1.01754 0.27404 0.50207 0.0
C1615 C 0.05868 0.29519 0.52676 0.0
C1616 C 0.09264 0.31405 0.533 0.0
C1617 C 0.99419 0.26269 0.51676 0.0
C1618 C 1.00311 0.26692 0.53682 0.0
C1619 C 0.03534 0.28311 0.54145 0.0
C1620 C 0.97961 0.25631 0.55325 0.0
C1621 C 0.96021 0.24723 0.51055 0.0
C1622 C 0.98181 0.27794 0.56753 0.0
C1623 C 0.96028 0.26853 0.58305 0.0
C1624 C 0.93594 0.23717 0.58481 0.0
C1625 C 0.93361 0.21543 0.57058 0.0
C1626 C 0.95536 0.22483 0.55507 0.0
H1627 H 0.95771 0.25363 0.49528 0.0
H1628 H 0.94975 0.22137 0.51114 0.0
H1629 H 0.94658 0.25389 0.52045 0.0
H1630 H 1.00016 0.30232 0.56662 0.0
H1631 H 0.96274 0.28591 0.59374 0.0
H1632 H 0.74766 0.90792 0.0719 0.0
H1633 H 0.7704 0.94712 0.04546 0.0
H1634 H 0.72051 0.99223 0.06712 0.0
H1635 H 0.69846 0.95374 0.09363 0.0
H1636 H 0.74507 0.9623 1.01561 0.0
H1637 H 0.80726 0.06669 0.06317 0.0
H1638 H 0.79049 0.02726 0.07259 0.0
H1639 H 0.76621 0.04467 0.06887 0.0
C1640 C 0.74167 0.92629 0.07102 0.0
C1641 C 0.72155 0.92792 0.08502 0.0
C1642 C 0.7547 0.94874 0.0559 0.0
C1643 C 0.74789 0.9733 0.05444 0.0
C1644 C 0.72707 0.9743 0.06816 0.0
H1645 H 0.76261 0.08354 0.95097 0.0
H1646 H 0.74679 0.0451 0.97751 0.0
C1647 C 0.71422 0.95204 0.08326 0.0
C1648 C 0.76167 0.99735 0.03835 0.0
H1649 H 0.80043 0.07655 0.02954 0.0
C1650 C 0.75738 0.98727 1.01871 0.0
C1651 C 0.77841 0.0301 0.0422 0.0
C1652 C 0.78619 0.04283 0.06285 0.0
C1653 C 0.76824 1.00878 1.00295 0.0
C1654 C 0.78321 0.0415 1.00679 0.0
C1655 C 0.78855 0.0516 0.02644 0.0
C1656 C 0.793 0.06548 0.99068 0.0
C1657 C 0.76388 0.99611 0.98233 0.0
C1658 C 0.82404 0.09081 0.98948 0.0
C1659 C 0.83307 0.1132 0.97435 0.0
C1660 C 0.81127 0.11075 0.96008 0.0
C1661 C 0.78011 0.08585 0.96155 0.0
C1662 C 0.77108 0.06365 0.97668 0.0
H1663 H 0.76197 0.97263 0.98209 0.0
H1664 H 0.74178 0.99344 0.97615 0.0
H1665 H 0.78364 1.01215 0.97268 0.0
H1666 H 0.84143 0.09308 1.00013 0.0
H1667 H 0.85719 0.13218 0.97369 0.0
H1668 H 0.85777 0.73557 0.57136 0.0
H1669 H 0.84194 0.75897 0.54494 0.0
H1670 H 0.74696 0.71092 0.5668 0.0
H1671 H 0.76272 0.68796 0.59319 0.0
H1672 H 0.79973 0.73321 0.51513 0.0
H1673 H 0.76306 0.7997 0.56306 0.0
H1674 H 0.78559 0.78246 0.57203 0.0
H1675 H 0.74364 0.7588 0.56926 0.0
C1676 C 0.83354 0.73008 0.57051 0.0
C1677 C 0.81161 0.71022 0.58453 0.0
C1678 C 0.82449 0.74349 0.55541 0.0
C1679 C 0.79333 0.73739 0.55403 0.0
C1680 C 0.77131 0.71686 0.56776 0.0
H1681 H 0.69549 0.75344 0.45257 0.0
H1682 H 0.71807 0.73735 0.47902 0.0
C1683 C 0.78032 0.70351 0.5828 0.0
C1684 C 0.78349 0.75168 0.53803 0.0
H1685 H 0.74572 0.79323 0.52963 0.0
C1686 C 0.78815 0.74654 0.51834 0.0
C1687 C 0.76891 0.76973 0.54204 0.0
C1688 C 0.76529 0.77832 0.56273 0.0
C1689 C 0.77762 0.75776 0.5027 0.0
C1690 C 0.76125 0.77407 0.50673 0.0
C1691 C 0.75773 0.78032 0.52641 0.0
C1692 C 0.74704 0.78411 0.49079 0.0
C1693 C 0.78446 0.75226 0.48196 0.0
C1694 C 0.75462 0.81566 0.48887 0.0
C1695 C 0.74139 0.8249 0.47376 0.0
C1696 C 0.72028 0.80279 0.46025 0.0
C1697 C 0.71205 0.77115 0.46254 0.0
C1698 C 0.72517 0.76194 0.47761 0.0
H1699 H 0.80517 0.74889 0.48137 0.0
H1700 H 0.76397 0.73063 0.47614 0.0
H1701 H 0.78888 0.77215 0.47221 0.0
H1702 H 0.77115 0.83325 0.49892 0.0
H1703 H 0.74807 0.84941 0.47246 0.0
H1704 H 0.96482 0.68699 0.95045 0.0
H1705 H 1.0028 0.70789 0.97737 0.0
H1706 H 0.95752 0.75733 0.99959 0.0
H1707 H 0.91879 0.73556 0.97287 0.0
H1708 H 0.04574 0.76542 0.98707 0.0
H1709 H 0.96192 0.71564 0.04892 0.0
H1710 H 0.95023 0.70412 0.02382 0.0
H1711 H 0.95419 0.74017 0.03311 0.0
C1712 C 0.96283 0.70218 0.96114 0.0
C1713 C 0.93871 0.70954 0.95954 0.0
C1714 C 0.98466 0.71422 0.97655 0.0
C1715 C 0.98301 0.73394 0.99085 0.0
C1716 C 0.95902 0.74157 0.98915 0.0
H1717 H 0.14326 0.84556 0.07074 0.0
H1718 H 0.10439 0.8291 0.04414 0.0
C1719 C 0.93695 0.72927 0.97378 0.0
C1720 C 1.00678 0.74673 1.00716 0.0
H1721 H 1.01497 0.75128 0.05718 0.0
C1722 C 0.03893 0.76229 1.0024 0.0
C1723 C 0.99818 0.74247 0.02726 0.0
C1724 C 0.96428 0.72443 0.03364 0.0
C1725 C 0.06249 0.77347 1.01698 0.0
C1726 C 0.05391 0.76985 0.03707 0.0
C1727 C 1.02176 0.7544 0.04185 0.0
C1728 C 0.07769 0.7805 0.05337 0.0
C1729 C 0.09632 0.78805 1.01062 0.0
C1730 C 0.07542 0.75912 0.06788 0.0
C1731 C 0.09739 0.76862 0.0832 0.0
C1732 C 0.12222 0.79982 0.0845 0.0
C1733 C 0.12457 0.82131 0.07006 0.0
C1734 C 0.10239 0.81183 0.05477 0.0
H1735 H 0.09833 0.78104 0.99544 0.0
H1736 H 0.10731 0.81399 1.01088 0.0
H1737 H 0.10979 0.78127 1.02061 0.0
H1738 H 0.05671 0.73486 0.06728 0.0
H1739 H 0.09493 0.75146 0.09408 0.0
H1740 H 0.29835 0.95626 0.45048 0.0
H1741 H 0.31481 0.99415 0.4774 0.0
H1742 H 0.22058 0.94573 0.50054 0.0
H1743 H 0.2043 0.90714 0.47384 0.0
H1744 H 0.29845 0.03551 0.48782 0.0
H1745 H 0.26859 0.95142 0.5492 0.0
H1746 H 0.26832 0.94026 0.52398 0.0
H1747 H 0.23558 0.94261 0.53379 0.0
C1748 C 0.28116 0.95358 0.46137 0.0
C1749 C 0.25003 0.92858 0.46006 0.0
C1750 C 0.29059 0.97535 0.47677 0.0
C1751 C 0.26919 0.97277 0.49134 0.0
C1752 C 0.23789 0.94797 0.48989 0.0
H1753 H 0.31356 0.13047 0.57246 0.0
H1754 H 0.29198 0.09207 0.54559 0.0
C1755 C 0.2285 0.92596 0.47453 0.0
C1756 C 0.27978 0.99632 0.50775 0.0
H1757 H 0.28403 1.00383 0.5578 0.0
C1758 C 0.29526 0.02851 0.50312 0.0
C1759 C 0.2761 0.98748 0.52782 0.0
C1760 C 0.26154 0.9536 0.53404 0.0
C1761 C 0.30712 0.05188 0.5178 0.0
C1762 C 0.30277 0.04303 0.53787 0.0
C1763 C 0.28721 1.01084 0.5425 0.0
C1764 C 0.31544 0.0666 0.55428 0.0
C1765 C 0.3252 0.08585 0.51157 0.0
C1766 C 0.33517 0.06485 0.56859 0.0
C1767 C 0.34711 0.0865 0.58407 0.0
C1768 C 0.33964 0.11053 0.58575 0.0
C1769 C 0.31993 0.11239 0.5715 0.0
C1770 C 0.30773 0.0905 0.55604 0.0
H1771 H 0.33409 0.08841 0.49631 0.0
H1772 H 0.30945 0.09592 0.51211 0.0
H1773 H 0.34547 0.09976 0.52147 0.0
H1774 H 0.34157 0.04678 0.56772 0.0
H1775 H 0.36231 0.08445 0.59477 0.0
loop_
_geom_bond_atom_site_label_1
_geom_bond_atom_site_label_2
_geom_bond_distance
_geom_bond_site_symmetry_2
_ccdc_geom_bond_type
La0 C2 2.928 . S
La0 O20 2.521 . S
La0 O21 2.628 . S
La0 O22 2.554 . S
La0 O23 2.757 . S
La0 O24 2.470 . S
La0 O29 2.482 . S
La0 O31 2.503 . S
La1 C11 2.928 . S
La1 O23 2.482 . S
La1 O25 2.503 . S
La1 O26 2.521 . S
La1 O27 2.628 . S
La1 O28 2.554 . S
La1 O29 2.757 . S
La1 O30 2.470 . S
C2 La0 2.928 . S
C2 C3 1.503 . S
C2 O20 1.261 . S
C2 O21 1.243 . S
C3 C2 1.503 . S
C3 C4 1.394 . S
C3 C8 1.373 . S
C4 C3 1.394 . S
C4 C5 1.380 . S
C4 H32 0.930 . S
C5 C4 1.380 . S
C5 C6 1.376 . S
C5 H33 0.930 . S
C6 C5 1.376 . S
C6 C7 1.370 . S
C7 C6 1.370 . S
C7 C8 1.396 . S
C7 H34 0.929 . S
C8 C3 1.373 . S
C8 C7 1.396 . S
C8 H35 0.929 . S
C9 O22 1.240 . S
C9 O23 1.289 . S
C10 O24 1.258 . S
C10 O25 1.256 . S
C11 La1 2.928 . S
C11 C12 1.503 . S
C11 O26 1.261 . S
C11 O27 1.243 . S
C12 C11 1.503 . S
C12 C13 1.394 . S
C12 C17 1.373 . S
C13 C12 1.394 . S
C13 C14 1.380 . S
C13 H36 0.930 . S
C14 C13 1.380 . S
C14 C15 1.376 . S
C14 H37 0.930 . S
C15 C14 1.376 . S
C15 C16 1.370 . S
C16 C15 1.370 . S
C16 C17 1.396 . S
C16 H38 0.929 . S
C17 C12 1.373 . S
C17 C16 1.396 . S
C17 H39 0.929 . S
C18 O28 1.240 . S
C18 O29 1.289 . S
C19 O30 1.258 . S
C19 O31 1.256 . S
O20 La0 2.521 . S
O20 C2 1.261 . S
O21 La0 2.628 . S
O21 C2 1.243 . S
O22 La0 2.554 . S
O22 C9 1.240 . S
O23 La0 2.757 . S
O23 La1 2.482 . S
O23 C9 1.289 . S
O24 La0 2.470 . S
O24 C10 1.258 . S
O25 La1 2.503 . S
O25 C10 1.256 . S
O26 La1 2.521 . S
O26 C11 1.261 . S
O27 La1 2.628 . S
O27 C11 1.243 . S
O28 La1 2.554 . S
O28 C18 1.240 . S
O29 La0 2.482 . S
O29 La1 2.757 . S
O29 C18 1.289 . S
O30 La1 2.470 . S
O30 C19 1.258 . S
O31 La0 2.503 . S
O31 C19 1.256 . S
H32 C4 0.930 . S
H33 C5 0.930 . S
H34 C7 0.929 . S
H35 C8 0.929 . S
H36 C13 0.930 . S
H37 C14 0.930 . S
H38 C16 0.929 . S
H39 C17 0.929 . S
La40 C42 2.928 . S
La40 O60 2.521 . S
La40 O61 2.628 . S
La40 O62 2.554 . S
La40 O63 2.757 . S
La40 O64 2.470 . S
La40 O69 2.482 . S
La40 O71 2.503 . S
La41 C51 2.928 . S
La41 O63 2.482 . S
La41 O65 2.503 . S
La41 O66 2.521 . S
La41 O67 2.628 . S
La41 O68 2.554 . S
La41 O69 2.757 . S
La41 O70 2.470 . S
C42 La40 2.928 . S
C42 C43 1.503 . S
C42 O60 1.261 . S
C42 O61 1.243 . S
C43 C42 1.503 . S
C43 C44 1.394 . S
C43 C48 1.373 . S
C44 C43 1.394 . S
C44 C45 1.380 . S
C44 H72 0.930 . S
C45 C44 1.380 . S
C45 C46 1.376 . S
C45 H73 0.930 . S
C46 C45 1.376 . S
C46 C47 1.370 . S
C47 C46 1.370 . S
C47 C48 1.396 . S
C47 H74 0.929 . S
C48 C43 1.373 . S
C48 C47 1.396 . S
C48 H75 0.929 . S
C49 O62 1.240 . S
C49 O63 1.289 . S
C50 O64 1.258 . S
C50 O65 1.256 . S
C51 La41 2.928 . S
C51 C52 1.503 . S
C51 O66 1.261 . S
C51 O67 1.243 . S
C52 C51 1.503 . S
C52 C53 1.394 . S
C52 C57 1.373 . S
C53 C52 1.394 . S
C53 C54 1.380 1_655 S
C53 H76 0.930 . S
C54 C53 1.380 1_455 S
C54 C55 1.376 . S
C54 H77 0.930 . S
C55 C54 1.376 . S
C55 C56 1.370 . S
C56 C55 1.370 . S
C56 C57 1.396 1_455 S
C56 H78 0.929 . S
C57 C52 1.373 . S
C57 C56 1.396 1_655 S
C57 H79 0.929 . S
C58 O68 1.240 . S
C58 O69 1.289 . S
C59 O70 1.258 . S
C59 O71 1.256 . S
O60 La40 2.521 . S
O60 C42 1.261 . S
O61 La40 2.628 . S
O61 C42 1.243 . S
O62 La40 2.554 . S
O62 C49 1.240 . S
O63 La40 2.757 . S
O63 La41 2.482 . S
O63 C49 1.289 . S
O64 La40 2.470 . S
O64 C50 1.258 . S
O65 La41 2.503 . S
O65 C50 1.256 . S
O66 La41 2.521 . S
O66 C51 1.261 . S
O67 La41 2.628 . S
O67 C51 1.243 . S
O68 La41 2.554 . S
O68 C58 1.240 . S
O69 La40 2.482 . S
O69 La41 2.757 . S
O69 C58 1.289 . S
O70 La41 2.470 . S
O70 C59 1.258 . S
O71 La40 2.503 . S
O71 C59 1.256 . S
H72 C44 0.930 . S
H73 C45 0.930 . S
H74 C47 0.929 . S
H75 C48 0.929 . S
H76 C53 0.930 . S
H77 C54 0.930 . S
H78 C56 0.929 . S
H79 C57 0.929 . S
La80 C82 2.928 . S
La80 O100 2.521 . S
La80 O101 2.628 . S
La80 O102 2.554 . S
La80 O103 2.757 . S
La80 O104 2.470 . S
La80 O109 2.482 . S
La80 O111 2.503 . S
La81 C91 2.928 . S
La81 O103 2.482 . S
La81 O105 2.503 . S
La81 O106 2.521 . S
La81 O107 2.628 . S
La81 O108 2.554 . S
La81 O109 2.757 . S
La81 O110 2.470 . S
C82 La80 2.928 . S
C82 C83 1.503 . S
C82 O100 1.261 . S
C82 O101 1.243 . S
C83 C82 1.503 . S
C83 C84 1.394 . S
C83 C88 1.373 . S
C84 C83 1.394 . S
C84 C85 1.380 . S
C84 H112 0.930 . S
C85 C84 1.380 . S
C85 C86 1.376 . S
C85 H113 0.930 . S
C86 C85 1.376 . S
C86 C87 1.370 . S
C87 C86 1.370 . S
C87 C88 1.396 . S
C87 H114 0.929 . S
C88 C83 1.373 . S
C88 C87 1.396 . S
C88 H115 0.929 . S
C89 O102 1.240 . S
C89 O103 1.289 . S
C90 O104 1.258 . S
C90 O105 1.256 . S
C91 La81 2.928 . S
C91 C92 1.503 . S
C91 O106 1.261 . S
C91 O107 1.243 . S
C92 C91 1.503 . S
C92 C93 1.394 . S
C92 C97 1.373 . S
C93 C92 1.394 . S
C93 C94 1.380 1_565 S
C93 H116 0.930 . S
C94 C93 1.380 1_545 S
C94 C95 1.376 . S
C94 H117 0.930 . S
C95 C94 1.376 . S
C95 C96 1.370 . S
C96 C95 1.370 . S
C96 C97 1.396 1_545 S
C96 H118 0.929 . S
C97 C92 1.373 . S
C97 C96 1.396 1_565 S
C97 H119 0.929 . S
C98 O108 1.240 . S
C98 O109 1.289 . S
C99 O110 1.258 . S
C99 O111 1.256 . S
O100 La80 2.521 . S
O100 C82 1.261 . S
O101 La80 2.628 . S
O101 C82 1.243 . S
O102 La80 2.554 . S
O102 C89 1.240 . S
O103 La80 2.757 . S
O103 La81 2.482 . S
O103 C89 1.289 . S
O104 La80 2.470 . S
O104 C90 1.258 . S
O105 La81 2.503 . S
O105 C90 1.256 . S
O106 La81 2.521 . S
O106 C91 1.261 . S
O107 La81 2.628 . S
O107 C91 1.243 . S
O108 La81 2.554 . S
O108 C98 1.240 . S
O109 La80 2.482 . S
O109 La81 2.757 . S
O109 C98 1.289 . S
O110 La81 2.470 . S
O110 C99 1.258 . S
O111 La80 2.503 . S
O111 C99 1.256 . S
H112 C84 0.930 . S
H113 C85 0.930 . S
H114 C87 0.929 . S
H115 C88 0.929 . S
H116 C93 0.930 . S
H117 C94 0.930 . S
H118 C96 0.929 . S
H119 C97 0.929 . S
La120 C122 2.928 . S
La120 O140 2.521 . S
La120 O141 2.628 . S
La120 O142 2.554 . S
La120 O143 2.757 . S
La120 O144 2.470 . S
La120 O149 2.482 . S
La120 O151 2.503 . S
La121 C131 2.928 . S
La121 O143 2.482 . S
La121 O145 2.503 . S
La121 O146 2.521 . S
La121 O147 2.628 . S
La121 O148 2.554 . S
La121 O149 2.757 . S
La121 O150 2.470 . S
C122 La120 2.928 . S
C122 C123 1.503 . S
C122 O140 1.261 . S
C122 O141 1.243 . S
C123 C122 1.503 . S
C123 C124 1.394 . S
C123 C128 1.373 . S
C124 C123 1.394 . S
C124 C125 1.380 . S
C124 H152 0.930 . S
C125 C124 1.380 . S
C125 C126 1.376 . S
C125 H153 0.930 . S
C126 C125 1.376 . S
C126 C127 1.370 . S
C127 C126 1.370 . S
C127 C128 1.396 . S
C127 H154 0.929 . S
C128 C123 1.373 . S
C128 C127 1.396 . S
C128 H155 0.929 . S
C129 O142 1.240 . S
C129 O143 1.289 . S
C130 O144 1.258 . S
C130 O145 1.256 . S
C131 La121 2.928 . S
C131 C132 1.503 . S
C131 O146 1.261 . S
C131 O147 1.243 . S
C132 C131 1.503 . S
C132 C133 1.394 . S
C132 C137 1.373 . S
C133 C132 1.394 . S
C133 C134 1.380 . S
C133 H156 0.930 . S
C134 C133 1.380 . S
C134 C135 1.376 . S
C134 H157 0.930 . S
C135 C134 1.376 . S
C135 C136 1.370 . S
C136 C135 1.370 . S
C136 C137 1.396 . S
C136 H158 0.929 . S
C137 C132 1.373 . S
C137 C136 1.396 . S
C137 H159 0.929 . S
C138 O148 1.240 . S
C138 O149 1.289 . S
C139 O150 1.258 . S
C139 O151 1.256 . S
O140 La120 2.521 . S
O140 C122 1.261 . S
O141 La120 2.628 . S
O141 C122 1.243 . S
O142 La120 2.554 . S
O142 C129 1.240 . S
O143 La120 2.757 . S
O143 La121 2.482 . S
O143 C129 1.289 . S
O144 La120 2.470 . S
O144 C130 1.258 . S
O145 La121 2.503 . S
O145 C130 1.256 . S
O146 La121 2.521 . S
O146 C131 1.261 . S
O147 La121 2.628 . S
O147 C131 1.243 . S
O148 La121 2.554 . S
O148 C138 1.240 . S
O149 La120 2.482 . S
O149 La121 2.757 . S
O149 C138 1.289 . S
O150 La121 2.470 . S
O150 C139 1.258 . S
O151 La120 2.503 . S
O151 C139 1.256 . S
H152 C124 0.930 . S
H153 C125 0.930 . S
H154 C127 0.929 . S
H155 C128 0.929 . S
H156 C133 0.930 . S
H157 C134 0.930 . S
H158 C136 0.929 . S
H159 C137 0.929 . S
La160 C162 2.928 . S
La160 O180 2.521 . S
La160 O181 2.628 . S
La160 O182 2.554 . S
La160 O183 2.757 . S
La160 O184 2.470 . S
La160 O189 2.482 . S
La160 O191 2.503 . S
La161 C171 2.928 . S
La161 O183 2.482 . S
La161 O185 2.503 . S
La161 O186 2.521 . S
La161 O187 2.628 . S
La161 O188 2.554 . S
La161 O189 2.757 . S
La161 O190 2.470 . S
C162 La160 2.928 . S
C162 C163 1.503 . S
C162 O180 1.261 . S
C162 O181 1.243 . S
C163 C162 1.503 . S
C163 C164 1.394 . S
C163 C168 1.373 . S
C164 C163 1.394 . S
C164 C165 1.380 . S
C164 H192 0.930 . S
C165 C164 1.380 . S
C165 C166 1.376 . S
C165 H193 0.930 . S
C166 C165 1.376 . S
C166 C167 1.370 . S
C167 C166 1.370 . S
C167 C168 1.396 . S
C167 H194 0.929 . S
C168 C163 1.373 . S
C168 C167 1.396 . S
C168 H195 0.929 . S
C169 O182 1.240 . S
C169 O183 1.289 . S
C170 O184 1.258 . S
C170 O185 1.256 . S
C171 La161 2.928 . S
C171 C172 1.503 . S
C171 O186 1.261 . S
C171 O187 1.243 . S
C172 C171 1.503 . S
C172 C173 1.394 . S
C172 C177 1.373 . S
C173 C172 1.394 . S
C173 C174 1.380 1_455 S
C173 H196 0.930 . S
C174 C173 1.380 1_655 S
C174 C175 1.376 . S
C174 H197 0.930 . S
C175 C174 1.376 . S
C175 C176 1.370 . S
C176 C175 1.370 . S
C176 C177 1.396 1_655 S
C176 H198 0.929 . S
C177 C172 1.373 . S
C177 C176 1.396 1_455 S
C177 H199 0.929 . S
C178 O188 1.240 . S
C178 O189 1.289 . S
C179 O190 1.258 . S
C179 O191 1.256 . S
O180 La160 2.521 . S
O180 C162 1.261 . S
O181 La160 2.628 . S
O181 C162 1.243 . S
O182 La160 2.554 . S
O182 C169 1.240 . S
O183 La160 2.757 . S
O183 La161 2.482 . S
O183 C169 1.289 . S
O184 La160 2.470 . S
O184 C170 1.258 . S
O185 La161 2.503 . S
O185 C170 1.256 . S
O186 La161 2.521 . S
O186 C171 1.261 . S
O187 La161 2.628 . S
O187 C171 1.243 . S
O188 La161 2.554 . S
O188 C178 1.240 . S
O189 La160 2.482 . S
O189 La161 2.757 . S
O189 C178 1.289 . S
O190 La161 2.470 . S
O190 C179 1.258 . S
O191 La160 2.503 . S
O191 C179 1.256 . S
H192 C164 0.930 . S
H193 C165 0.930 . S
H194 C167 0.929 . S
H195 C168 0.929 . S
H196 C173 0.930 . S
H197 C174 0.930 . S
H198 C176 0.929 . S
H199 C177 0.929 . S
La200 C202 2.928 . S
La200 O220 2.521 . S
La200 O221 2.628 . S
La200 O222 2.554 . S
La200 O223 2.757 . S
La200 O224 2.470 . S
La200 O229 2.482 . S
La200 O231 2.503 . S
La201 C211 2.928 . S
La201 O223 2.482 . S
La201 O225 2.503 . S
La201 O226 2.521 . S
La201 O227 2.628 . S
La201 O228 2.554 . S
La201 O229 2.757 . S
La201 O230 2.470 . S
C202 La200 2.928 . S
C202 C203 1.503 . S
C202 O220 1.261 . S
C202 O221 1.243 . S
C203 C202 1.503 . S
C203 C204 1.394 . S
C203 C208 1.373 . S
C204 C203 1.394 . S
C204 C205 1.380 . S
C204 H232 0.930 . S
C205 C204 1.380 . S
C205 C206 1.376 . S
C205 H233 0.930 . S
C206 C205 1.376 . S
C206 C207 1.370 . S
C207 C206 1.370 . S
C207 C208 1.396 . S
C207 H234 0.929 . S
C208 C203 1.373 . S
C208 C207 1.396 . S
C208 H235 0.929 . S
C209 O222 1.240 . S
C209 O223 1.289 . S
C210 O224 1.258 . S
C210 O225 1.256 . S
C211 La201 2.928 . S
C211 C212 1.503 . S
C211 O226 1.261 . S
C211 O227 1.243 . S
C212 C211 1.503 . S
C212 C213 1.394 . S
C212 C217 1.373 . S
C213 C212 1.394 . S
C213 C214 1.380 1_545 S
C213 H236 0.930 . S
C214 C213 1.380 1_565 S
C214 C215 1.376 . S
C214 H237 0.930 . S
C215 C214 1.376 . S
C215 C216 1.370 . S
C216 C215 1.370 . S
C216 C217 1.396 1_565 S
C216 H238 0.929 . S
C217 C212 1.373 . S
C217 C216 1.396 1_545 S
C217 H239 0.929 . S
C218 O228 1.240 . S
C218 O229 1.289 . S
C219 O230 1.258 . S
C219 O231 1.256 . S
O220 La200 2.521 . S
O220 C202 1.261 . S
O221 La200 2.628 . S
O221 C202 1.243 . S
O222 La200 2.554 . S
O222 C209 1.240 . S
O223 La200 2.757 . S
O223 La201 2.482 . S
O223 C209 1.289 . S
O224 La200 2.470 . S
O224 C210 1.258 . S
O225 La201 2.503 . S
O225 C210 1.256 . S
O226 La201 2.521 . S
O226 C211 1.261 . S
O227 La201 2.628 . S
O227 C211 1.243 . S
O228 La201 2.554 . S
O228 C218 1.240 . S
O229 La200 2.482 . S
O229 La201 2.757 . S
O229 C218 1.289 . S
O230 La201 2.470 . S
O230 C219 1.258 . S
O231 La200 2.503 . S
O231 C219 1.256 . S
H232 C204 0.930 . S
H233 C205 0.930 . S
H234 C207 0.929 . S
H235 C208 0.929 . S
H236 C213 0.930 . S
H237 C214 0.930 . S
H238 C216 0.929 . S
H239 C217 0.929 . S
La240 C242 2.928 . S
La240 O260 2.521 . S
La240 O261 2.628 . S
La240 O262 2.554 . S
La240 O263 2.757 . S
La240 O264 2.470 . S
La240 O269 2.482 . S
La240 O271 2.503 . S
La241 C251 2.928 . S
La241 O263 2.482 . S
La241 O265 2.503 . S
La241 O266 2.521 . S
La241 O267 2.628 . S
La241 O268 2.554 . S
La241 O269 2.757 . S
La241 O270 2.470 . S
C242 La240 2.928 . S
C242 C243 1.503 . S
C242 O260 1.261 . S
C242 O261 1.243 . S
C243 C242 1.503 . S
C243 C244 1.394 . S
C243 C248 1.373 . S
C244 C243 1.394 . S
C244 C245 1.380 . S
C244 H272 0.930 . S
C245 C244 1.380 . S
C245 C246 1.376 . S
C245 H273 0.930 . S
C246 C245 1.376 . S
C246 C247 1.370 . S
C247 C246 1.370 . S
C247 C248 1.396 . S
C247 H274 0.929 . S
C248 C243 1.373 . S
C248 C247 1.396 . S
C248 H275 0.929 . S
C249 O262 1.240 . S
C249 O263 1.289 . S
C250 O264 1.258 . S
C250 O265 1.256 . S
C251 La241 2.928 . S
C251 C252 1.503 . S
C251 O266 1.261 . S
C251 O267 1.243 . S
C252 C251 1.503 . S
C252 C253 1.394 . S
C252 C257 1.373 . S
C253 C252 1.394 . S
C253 C254 1.380 . S
C253 H276 0.930 . S
C254 C253 1.380 . S
C254 C255 1.376 . S
C254 H277 0.930 . S
C255 C254 1.376 . S
C255 C256 1.370 . S
C256 C255 1.370 . S
C256 C257 1.396 . S
C256 H278 0.929 . S
C257 C252 1.373 . S
C257 C256 1.396 . S
C257 H279 0.929 . S
C258 O268 1.240 . S
C258 O269 1.289 . S
C259 O270 1.258 . S
C259 O271 1.256 . S
O260 La240 2.521 . S
O260 C242 1.261 . S
O261 La240 2.628 . S
O261 C242 1.243 . S
O262 La240 2.554 . S
O262 C249 1.240 . S
O263 La240 2.757 . S
O263 La241 2.482 . S
O263 C249 1.289 . S
O264 La240 2.470 . S
O264 C250 1.258 . S
O265 La241 2.503 . S
O265 C250 1.256 . S
O266 La241 2.521 . S
O266 C251 1.261 . S
O267 La241 2.628 . S
O267 C251 1.243 . S
O268 La241 2.554 . S
O268 C258 1.240 . S
O269 La240 2.482 . S
O269 La241 2.757 . S
O269 C258 1.289 . S
O270 La241 2.470 . S
O270 C259 1.258 . S
O271 La240 2.503 . S
O271 C259 1.256 . S
H272 C244 0.930 . S
H273 C245 0.930 . S
H274 C247 0.929 . S
H275 C248 0.929 . S
H276 C253 0.930 . S
H277 C254 0.930 . S
H278 C256 0.929 . S
H279 C257 0.929 . S
La280 C282 2.928 . S
La280 O300 2.521 . S
La280 O301 2.628 . S
La280 O302 2.554 . S
La280 O303 2.757 . S
La280 O304 2.470 . S
La280 O309 2.482 . S
La280 O311 2.503 . S
La281 C291 2.928 . S
La281 O303 2.482 . S
La281 O305 2.503 . S
La281 O306 2.521 . S
La281 O307 2.628 . S
La281 O308 2.554 . S
La281 O309 2.757 . S
La281 O310 2.470 . S
C282 La280 2.928 . S
C282 C283 1.503 . S
C282 O300 1.261 . S
C282 O301 1.243 . S
C283 C282 1.503 . S
C283 C284 1.394 . S
C283 C288 1.373 . S
C284 C283 1.394 . S
C284 C285 1.380 . S
C284 H312 0.930 . S
C285 C284 1.380 . S
C285 C286 1.376 . S
C285 H313 0.930 . S
C286 C285 1.376 . S
C286 C287 1.370 . S
C287 C286 1.370 . S
C287 C288 1.396 . S
C287 H314 0.929 . S
C288 C283 1.373 . S
C288 C287 1.396 . S
C288 H315 0.929 . S
C289 O302 1.240 . S
C289 O303 1.289 . S
C290 O304 1.258 . S
C290 O305 1.256 . S
C291 La281 2.928 . S
C291 C292 1.503 . S
C291 O306 1.261 . S
C291 O307 1.243 . S
C292 C291 1.503 . S
C292 C293 1.394 . S
C292 C297 1.373 . S
C293 C292 1.394 . S
C293 C294 1.380 1_655 S
C293 H316 0.930 . S
C294 C293 1.380 1_455 S
C294 C295 1.376 . S
C294 H317 0.930 . S
C295 C294 1.376 . S
C295 C296 1.370 . S
C296 C295 1.370 . S
C296 C297 1.396 1_455 S
C296 H318 0.929 . S
C297 C292 1.373 . S
C297 C296 1.396 1_655 S
C297 H319 0.929 . S
C298 O308 1.240 . S
C298 O309 1.289 . S
C299 O310 1.258 . S
C299 O311 1.256 . S
O300 La280 2.521 . S
O300 C282 1.261 . S
O301 La280 2.628 . S
O301 C282 1.243 . S
O302 La280 2.554 . S
O302 C289 1.240 . S
O303 La280 2.757 . S
O303 La281 2.482 . S
O303 C289 1.289 . S
O304 La280 2.470 . S
O304 C290 1.258 . S
O305 La281 2.503 . S
O305 C290 1.256 . S
O306 La281 2.521 . S
O306 C291 1.261 . S
O307 La281 2.628 . S
O307 C291 1.243 . S
O308 La281 2.554 . S
O308 C298 1.240 . S
O309 La280 2.482 . S
O309 La281 2.757 . S
O309 C298 1.289 . S
O310 La281 2.470 . S
O310 C299 1.258 . S
O311 La280 2.503 . S
O311 C299 1.256 . S
H312 C284 0.930 . S
H313 C285 0.930 . S
H314 C287 0.929 . S
H315 C288 0.929 . S
H316 C293 0.930 . S
H317 C294 0.930 . S
H318 C296 0.929 . S
H319 C297 0.929 . S
La320 C322 2.928 . S
La320 O340 2.521 . S
La320 O341 2.628 . S
La320 O342 2.554 . S
La320 O343 2.757 . S
La320 O344 2.470 . S
La320 O349 2.482 . S
La320 O351 2.503 . S
La321 C331 2.928 . S
La321 O343 2.482 . S
La321 O345 2.503 . S
La321 O346 2.521 . S
La321 O347 2.628 . S
La321 O348 2.554 . S
La321 O349 2.757 . S
La321 O350 2.470 . S
C322 La320 2.928 . S
C322 C323 1.503 . S
C322 O340 1.261 . S
C322 O341 1.243 . S
C323 C322 1.503 . S
C323 C324 1.394 . S
C323 C328 1.373 . S
C324 C323 1.394 . S
C324 C325 1.380 . S
C324 H352 0.930 . S
C325 C324 1.380 . S
C325 C326 1.376 . S
C325 H353 0.930 . S
C326 C325 1.376 . S
C326 C327 1.370 . S
C327 C326 1.370 . S
C327 C328 1.396 . S
C327 H354 0.929 . S
C328 C323 1.373 . S
C328 C327 1.396 . S
C328 H355 0.929 . S
C329 O342 1.240 . S
C329 O343 1.289 . S
C330 O344 1.258 . S
C330 O345 1.256 . S
C331 La321 2.928 . S
C331 C332 1.503 . S
C331 O346 1.261 . S
C331 O347 1.243 . S
C332 C331 1.503 . S
C332 C333 1.394 . S
C332 C337 1.373 . S
C333 C332 1.394 . S
C333 C334 1.380 1_565 S
C333 H356 0.930 . S
C334 C333 1.380 1_545 S
C334 C335 1.376 . S
C334 H357 0.930 . S
C335 C334 1.376 . S
C335 C336 1.370 . S
C336 C335 1.370 . S
C336 C337 1.396 1_545 S
C336 H358 0.929 . S
C337 C332 1.373 . S
C337 C336 1.396 1_565 S
C337 H359 0.929 . S
C338 O348 1.240 . S
C338 O349 1.289 . S
C339 O350 1.258 . S
C339 O351 1.256 . S
O340 La320 2.521 . S
O340 C322 1.261 . S
O341 La320 2.628 . S
O341 C322 1.243 . S
O342 La320 2.554 . S
O342 C329 1.240 . S
O343 La320 2.757 . S
O343 La321 2.482 . S
O343 C329 1.289 . S
O344 La320 2.470 . S
O344 C330 1.258 . S
O345 La321 2.503 . S
O345 C330 1.256 . S
O346 La321 2.521 . S
O346 C331 1.261 . S
O347 La321 2.628 . S
O347 C331 1.243 . S
O348 La321 2.554 . S
O348 C338 1.240 . S
O349 La320 2.482 . S
O349 La321 2.757 . S
O349 C338 1.289 . S
O350 La321 2.470 . S
O350 C339 1.258 . S
O351 La320 2.503 . S
O351 C339 1.256 . S
H352 C324 0.930 . S
H353 C325 0.930 . S
H354 C327 0.929 . S
H355 C328 0.929 . S
H356 C333 0.930 . S
H357 C334 0.930 . S
H358 C336 0.929 . S
H359 C337 0.929 . S
La360 C362 2.928 . S
La360 O380 2.521 . S
La360 O381 2.628 . S
La360 O382 2.554 . S
La360 O383 2.757 . S
La360 O384 2.470 . S
La360 O389 2.482 . S
La360 O391 2.503 . S
La361 C371 2.928 . S
La361 O383 2.482 . S
La361 O385 2.503 . S
La361 O386 2.521 . S
La361 O387 2.628 . S
La361 O388 2.554 . S
La361 O389 2.757 . S
La361 O390 2.470 . S
C362 La360 2.928 . S
C362 C363 1.503 . S
C362 O380 1.261 . S
C362 O381 1.243 . S
C363 C362 1.503 . S
C363 C364 1.394 . S
C363 C368 1.373 . S
C364 C363 1.394 . S
C364 C365 1.380 . S
C364 H392 0.930 . S
C365 C364 1.380 . S
C365 C366 1.376 . S
C365 H393 0.930 . S
C366 C365 1.376 . S
C366 C367 1.370 . S
C367 C366 1.370 . S
C367 C368 1.396 . S
C367 H394 0.929 . S
C368 C363 1.373 . S
C368 C367 1.396 . S
C368 H395 0.929 . S
C369 O382 1.240 . S
C369 O383 1.289 . S
C370 O384 1.258 . S
C370 O385 1.256 . S
C371 La361 2.928 . S
C371 C372 1.503 . S
C371 O386 1.261 . S
C371 O387 1.243 . S
C372 C371 1.503 . S
C372 C373 1.394 . S
C372 C377 1.373 . S
C373 C372 1.394 . S
C373 C374 1.380 . S
C373 H396 0.930 . S
C374 C373 1.380 . S
C374 C375 1.376 . S
C374 H397 0.930 . S
C375 C374 1.376 . S
C375 C376 1.370 . S
C376 C375 1.370 . S
C376 C377 1.396 . S
C376 H398 0.929 . S
C377 C372 1.373 . S
C377 C376 1.396 . S
C377 H399 0.929 . S
C378 O388 1.240 . S
C378 O389 1.289 . S
C379 O390 1.258 . S
C379 O391 1.256 . S
O380 La360 2.521 . S
O380 C362 1.261 . S
O381 La360 2.628 . S
O381 C362 1.243 . S
O382 La360 2.554 . S
O382 C369 1.240 . S
O383 La360 2.757 . S
O383 La361 2.482 . S
O383 C369 1.289 . S
O384 La360 2.470 . S
O384 C370 1.258 . S
O385 La361 2.503 . S
O385 C370 1.256 . S
O386 La361 2.521 . S
O386 C371 1.261 . S
O387 La361 2.628 . S
O387 C371 1.243 . S
O388 La361 2.554 . S
O388 C378 1.240 . S
O389 La360 2.482 . S
O389 La361 2.757 . S
O389 C378 1.289 . S
O390 La361 2.470 . S
O390 C379 1.258 . S
O391 La360 2.503 . S
O391 C379 1.256 . S
H392 C364 0.930 . S
H393 C365 0.930 . S
H394 C367 0.929 . S
H395 C368 0.929 . S
H396 C373 0.930 . S
H397 C374 0.930 . S
H398 C376 0.929 . S
H399 C377 0.929 . S
La400 C402 2.928 . S
La400 O420 2.521 . S
La400 O421 2.628 . S
La400 O422 2.554 . S
La400 O423 2.757 . S
La400 O424 2.470 . S
La400 O429 2.482 . S
La400 O431 2.503 . S
La401 C411 2.928 . S
La401 O423 2.482 . S
La401 O425 2.503 . S
La401 O426 2.521 . S
La401 O427 2.628 . S
La401 O428 2.554 . S
La401 O429 2.757 . S
La401 O430 2.470 . S
C402 La400 2.928 . S
C402 C403 1.503 . S
C402 O420 1.261 . S
C402 O421 1.243 . S
C403 C402 1.503 . S
C403 C404 1.394 . S
C403 C408 1.373 . S
C404 C403 1.394 . S
C404 C405 1.380 . S
C404 H432 0.930 . S
C405 C404 1.380 . S
C405 C406 1.376 . S
C405 H433 0.930 . S
C406 C405 1.376 . S
C406 C407 1.370 . S
C407 C406 1.370 . S
C407 C408 1.396 . S
C407 H434 0.929 . S
C408 C403 1.373 . S
C408 C407 1.396 . S
C408 H435 0.929 . S
C409 O422 1.240 . S
C409 O423 1.289 . S
C410 O424 1.258 . S
C410 O425 1.256 . S
C411 La401 2.928 . S
C411 C412 1.503 . S
C411 O426 1.261 . S
C411 O427 1.243 . S
C412 C411 1.503 . S
C412 C413 1.394 . S
C412 C417 1.373 . S
C413 C412 1.394 . S
C413 C414 1.380 1_455 S
C413 H436 0.930 . S
C414 C413 1.380 1_655 S
C414 C415 1.376 . S
C414 H437 0.930 . S
C415 C414 1.376 . S
C415 C416 1.370 . S
C416 C415 1.370 . S
C416 C417 1.396 1_655 S
C416 H438 0.929 . S
C417 C412 1.373 . S
C417 C416 1.396 1_455 S
C417 H439 0.929 . S
C418 O428 1.240 . S
C418 O429 1.289 . S
C419 O430 1.258 . S
C419 O431 1.256 . S
O420 La400 2.521 . S
O420 C402 1.261 . S
O421 La400 2.628 . S
O421 C402 1.243 . S
O422 La400 2.554 . S
O422 C409 1.240 . S
O423 La400 2.757 . S
O423 La401 2.482 . S
O423 C409 1.289 . S
O424 La400 2.470 . S
O424 C410 1.258 . S
O425 La401 2.503 . S
O425 C410 1.256 . S
O426 La401 2.521 . S
O426 C411 1.261 . S
O427 La401 2.628 . S
O427 C411 1.243 . S
O428 La401 2.554 . S
O428 C418 1.240 . S
O429 La400 2.482 . S
O429 La401 2.757 . S
O429 C418 1.289 . S
O430 La401 2.470 . S
O430 C419 1.258 . S
O431 La400 2.503 . S
O431 C419 1.256 . S
H432 C404 0.930 . S
H433 C405 0.930 . S
H434 C407 0.929 . S
H435 C408 0.929 . S
H436 C413 0.930 . S
H437 C414 0.930 . S
H438 C416 0.929 . S
H439 C417 0.929 . S
La440 C442 2.928 . S
La440 O460 2.521 . S
La440 O461 2.628 . S
La440 O462 2.554 . S
La440 O463 2.757 . S
La440 O464 2.470 . S
La440 O469 2.482 . S
La440 O471 2.503 . S
La441 C451 2.928 . S
La441 O463 2.482 . S
La441 O465 2.503 . S
La441 O466 2.521 . S
La441 O467 2.628 . S
La441 O468 2.554 . S
La441 O469 2.757 . S
La441 O470 2.470 . S
C442 La440 2.928 . S
C442 C443 1.503 . S
C442 O460 1.261 . S
C442 O461 1.243 . S
C443 C442 1.503 . S
C443 C444 1.394 . S
C443 C448 1.373 . S
C444 C443 1.394 . S
C444 C445 1.380 . S
C444 H472 0.930 . S
C445 C444 1.380 . S
C445 C446 1.376 . S
C445 H473 0.930 . S
C446 C445 1.376 . S
C446 C447 1.370 . S
C447 C446 1.370 . S
C447 C448 1.396 . S
C447 H474 0.929 . S
C448 C443 1.373 . S
C448 C447 1.396 . S
C448 H475 0.929 . S
C449 O462 1.240 . S
C449 O463 1.289 . S
C450 O464 1.258 . S
C450 O465 1.256 . S
C451 La441 2.928 . S
C451 C452 1.503 . S
C451 O466 1.261 . S
C451 O467 1.243 . S
C452 C451 1.503 . S
C452 C453 1.394 . S
C452 C457 1.373 . S
C453 C452 1.394 . S
C453 C454 1.380 1_545 S
C453 H476 0.930 . S
C454 C453 1.380 1_565 S
C454 C455 1.376 . S
C454 H477 0.930 . S
C455 C454 1.376 . S
C455 C456 1.370 . S
C456 C455 1.370 . S
C456 C457 1.396 1_565 S
C456 H478 0.929 . S
C457 C452 1.373 . S
C457 C456 1.396 1_545 S
C457 H479 0.929 . S
C458 O468 1.240 . S
C458 O469 1.289 . S
C459 O470 1.258 . S
C459 O471 1.256 . S
O460 La440 2.521 . S
O460 C442 1.261 . S
O461 La440 2.628 . S
O461 C442 1.243 . S
O462 La440 2.554 . S
O462 C449 1.240 . S
O463 La440 2.757 . S
O463 La441 2.482 . S
O463 C449 1.289 . S
O464 La440 2.470 . S
O464 C450 1.258 . S
O465 La441 2.503 . S
O465 C450 1.256 . S
O466 La441 2.521 . S
O466 C451 1.261 . S
O467 La441 2.628 . S
O467 C451 1.243 . S
O468 La441 2.554 . S
O468 C458 1.240 . S
O469 La440 2.482 . S
O469 La441 2.757 . S
O469 C458 1.289 . S
O470 La441 2.470 . S
O470 C459 1.258 . S
O471 La440 2.503 . S
O471 C459 1.256 . S
H472 C444 0.930 . S
H473 C445 0.930 . S
H474 C447 0.929 . S
H475 C448 0.929 . S
H476 C453 0.930 . S
H477 C454 0.930 . S
H478 C456 0.929 . S
H479 C457 0.929 . S
H480 C488 0.929 . S
H481 C490 0.930 . S
H482 C492 0.930 . S
H483 C495 0.929 . S
H484 C498 0.930 1_565 S
H485 C500 0.960 . S
H486 C500 0.960 . S
H487 C500 0.960 . S
C488 H480 0.929 . S
C488 C489 1.377 . S
C488 C490 1.384 . S
C489 C488 1.377 . S
C489 C495 1.390 . S
C490 H481 0.930 . S
C490 C488 1.384 . S
C490 C491 1.372 . S
C491 C490 1.372 . S
C491 C492 1.400 . S
C491 C496 1.490 . S
C492 H482 0.930 . S
C492 C491 1.400 . S
C492 C495 1.386 . S
H493 C509 0.930 . S
H494 C510 0.931 . S
C495 H483 0.929 . S
C495 C489 1.390 . S
C495 C492 1.386 . S
C496 C491 1.490 . S
C496 C498 1.395 1_565 S
C496 C499 1.403 . S
H497 C503 0.930 . S
C498 H484 0.930 1_545 S
C498 C496 1.395 1_545 S
C498 C501 1.403 . S
C499 C496 1.403 . S
C499 C500 1.524 . S
C499 C503 1.400 1_565 S
C500 H485 0.960 . S
C500 H486 0.960 . S
C500 H487 0.960 . S
C500 C499 1.524 . S
C501 C498 1.403 . S
C501 C502 1.392 . S
C501 C505 1.495 . S
C502 C501 1.392 . S
C502 C503 1.385 . S
C502 C504 1.478 . S
C503 H497 0.930 . S
C503 C499 1.400 1_545 S
C503 C502 1.385 . S
C504 C502 1.478 . S
C504 C506 1.381 . S
C504 C510 1.383 . S
C505 C501 1.495 . S
C505 H511 0.959 . S
C505 H512 0.961 . S
C505 H513 0.960 . S
C506 C504 1.381 . S
C506 C507 1.394 . S
C506 H514 0.930 . S
C507 C506 1.394 . S
C507 C508 1.383 . S
C507 H515 0.929 . S
C508 C507 1.383 . S
C508 C509 1.377 . S
C509 H493 0.930 . S
C509 C508 1.377 . S
C509 C510 1.379 . S
C510 H494 0.931 . S
C510 C504 1.383 . S
C510 C509 1.379 . S
H511 C505 0.959 . S
H512 C505 0.961 . S
H513 C505 0.960 . S
H514 C506 0.930 . S
H515 C507 0.929 . S
H516 C524 0.929 . S
H517 C526 0.930 . S
H518 C528 0.930 . S
H519 C531 0.929 . S
H520 C534 0.930 . S
H521 C536 0.960 . S
H522 C536 0.960 . S
H523 C536 0.960 . S
C524 H516 0.929 . S
C524 C525 1.377 . S
C524 C526 1.384 . S
C525 C524 1.377 . S
C525 C531 1.390 . S
C526 H517 0.930 . S
C526 C524 1.384 . S
C526 C527 1.372 . S
C527 C526 1.372 . S
C527 C528 1.400 . S
C527 C532 1.490 . S
C528 H518 0.930 . S
C528 C527 1.400 . S
C528 C531 1.386 . S
H529 C545 0.930 . S
H530 C546 0.931 . S
C531 H519 0.929 . S
C531 C525 1.390 . S
C531 C528 1.386 . S
C532 C527 1.490 . S
C532 C534 1.395 . S
C532 C535 1.403 . S
H533 C539 0.930 . S
C534 H520 0.930 . S
C534 C532 1.395 . S
C534 C537 1.403 . S
C535 C532 1.403 . S
C535 C536 1.524 . S
C535 C539 1.400 . S
C536 H521 0.960 . S
C536 H522 0.960 . S
C536 H523 0.960 . S
C536 C535 1.524 . S
C537 C534 1.403 . S
C537 C538 1.392 . S
C537 C541 1.495 . S
C538 C537 1.392 . S
C538 C539 1.385 . S
C538 C540 1.478 . S
C539 H533 0.930 . S
C539 C535 1.400 . S
C539 C538 1.385 . S
C540 C538 1.478 . S
C540 C542 1.381 . S
C540 C546 1.383 . S
C541 C537 1.495 . S
C541 H547 0.959 . S
C541 H548 0.961 . S
C541 H549 0.960 . S
C542 C540 1.381 . S
C542 C543 1.394 . S
C542 H550 0.930 . S
C543 C542 1.394 . S
C543 C544 1.383 . S
C543 H551 0.929 . S
C544 C543 1.383 . S
C544 C545 1.377 . S
C545 H529 0.930 . S
C545 C544 1.377 . S
C545 C546 1.379 . S
C546 H530 0.931 . S
C546 C540 1.383 . S
C546 C545 1.379 . S
H547 C541 0.959 . S
H548 C541 0.961 . S
H549 C541 0.960 . S
H550 C542 0.930 . S
H551 C543 0.929 . S
H552 C560 0.929 . S
H553 C562 0.930 . S
H554 C564 0.930 . S
H555 C567 0.929 . S
H556 C570 0.930 . S
H557 C572 0.960 . S
H558 C572 0.960 . S
H559 C572 0.960 . S
C560 H552 0.929 . S
C560 C561 1.377 . S
C560 C562 1.384 . S
C561 C560 1.377 . S
C561 C567 1.390 . S
C562 H553 0.930 . S
C562 C560 1.384 . S
C562 C563 1.372 . S
C563 C562 1.372 . S
C563 C564 1.400 . S
C563 C568 1.490 . S
C564 H554 0.930 . S
C564 C563 1.400 . S
C564 C567 1.386 . S
H565 C581 0.930 . S
H566 C582 0.931 . S
C567 H555 0.929 . S
C567 C561 1.390 . S
C567 C564 1.386 . S
C568 C563 1.490 . S
C568 C570 1.395 . S
C568 C571 1.403 . S
H569 C575 0.930 . S
C570 H556 0.930 . S
C570 C568 1.395 . S
C570 C573 1.403 1_655 S
C571 C568 1.403 . S
C571 C572 1.524 . S
C571 C575 1.400 1_655 S
C572 H557 0.960 . S
C572 H558 0.960 . S
C572 H559 0.960 . S
C572 C571 1.524 . S
C573 C570 1.403 1_455 S
C573 C574 1.392 . S
C573 C577 1.495 . S
C574 C573 1.392 . S
C574 C575 1.385 . S
C574 C576 1.478 . S
C575 H569 0.930 . S
C575 C571 1.400 1_455 S
C575 C574 1.385 . S
C576 C574 1.478 . S
C576 C578 1.381 . S
C576 C582 1.383 . S
C577 C573 1.495 . S
C577 H583 0.959 . S
C577 H584 0.961 . S
C577 H585 0.960 . S
C578 C576 1.381 . S
C578 C579 1.394 . S
C578 H586 0.930 . S
C579 C578 1.394 . S
C579 C580 1.383 . S
C579 H587 0.929 . S
C580 C579 1.383 . S
C580 C581 1.377 . S
C581 H565 0.930 . S
C581 C580 1.377 . S
C581 C582 1.379 . S
C582 H566 0.931 . S
C582 C576 1.383 . S
C582 C581 1.379 . S
H583 C577 0.959 . S
H584 C577 0.961 . S
H585 C577 0.960 . S
H586 C578 0.930 . S
H587 C579 0.929 . S
H588 C596 0.929 . S
H589 C598 0.930 . S
H590 C600 0.930 . S
H591 C603 0.929 . S
H592 C606 0.930 . S
H593 C608 0.960 . S
H594 C608 0.960 . S
H595 C608 0.960 . S
C596 H588 0.929 . S
C596 C597 1.377 . S
C596 C598 1.384 . S
C597 C596 1.377 . S
C597 C603 1.390 . S
C598 H589 0.930 . S
C598 C596 1.384 . S
C598 C599 1.372 . S
C599 C598 1.372 . S
C599 C600 1.400 . S
C599 C604 1.490 . S
C600 H590 0.930 . S
C600 C599 1.400 . S
C600 C603 1.386 . S
H601 C617 0.930 . S
H602 C618 0.931 . S
C603 H591 0.929 . S
C603 C597 1.390 . S
C603 C600 1.386 . S
C604 C599 1.490 . S
C604 C606 1.395 . S
C604 C607 1.403 . S
H605 C611 0.930 . S
C606 H592 0.930 . S
C606 C604 1.395 . S
C606 C609 1.377 1_565 S
C607 C604 1.403 . S
C607 C608 1.524 . S
C607 C611 1.400 1_565 S
C608 H593 0.960 . S
C608 H594 0.960 . S
C608 H595 0.960 . S
C608 C607 1.524 . S
C609 C606 1.377 1_545 S
C609 C610 1.408 . S
C609 C613 1.505 . S
C610 C609 1.408 . S
C610 C611 1.385 . S
C610 C612 1.478 . S
C611 H605 0.930 . S
C611 C607 1.400 1_545 S
C611 C610 1.385 . S
C612 C610 1.478 . S
C612 C614 1.381 . S
C612 C618 1.383 . S
C613 C609 1.505 . S
C613 H619 0.959 1_545 S
C613 H620 0.961 . S
C613 H621 0.960 . S
C614 C612 1.381 . S
C614 C615 1.394 . S
C614 H622 0.930 . S
C615 C614 1.394 . S
C615 C616 1.383 . S
C615 H623 0.929 . S
C616 C615 1.383 . S
C616 C617 1.377 . S
C617 H601 0.930 . S
C617 C616 1.377 . S
C617 C618 1.379 . S
C618 H602 0.931 . S
C618 C612 1.383 . S
C618 C617 1.379 . S
H619 C613 0.959 1_565 S
H620 C613 0.961 . S
H621 C613 0.960 . S
H622 C614 0.930 . S
H623 C615 0.929 . S
H624 C632 0.929 . S
H625 C634 0.930 . S
H626 C636 0.930 . S
H627 C639 0.929 . S
H628 C642 0.930 . S
H629 C644 0.960 . S
H630 C644 0.960 . S
H631 C644 0.960 . S
C632 H624 0.929 . S
C632 C633 1.377 . S
C632 C634 1.384 . S
C633 C632 1.377 . S
C633 C639 1.390 . S
C634 H625 0.930 . S
C634 C632 1.384 . S
C634 C635 1.372 . S
C635 C634 1.372 . S
C635 C636 1.400 . S
C635 C640 1.490 . S
C636 H626 0.930 . S
C636 C635 1.400 . S
C636 C639 1.386 . S
H637 C653 0.930 . S
H638 C654 0.931 . S
C639 H627 0.929 . S
C639 C633 1.390 . S
C639 C636 1.386 . S
C640 C635 1.490 . S
C640 C642 1.395 . S
C640 C643 1.403 . S
H641 C647 0.930 . S
C642 H628 0.930 . S
C642 C640 1.395 . S
C642 C645 1.403 . S
C643 C640 1.403 . S
C643 C644 1.524 . S
C643 C647 1.400 . S
C644 H629 0.960 . S
C644 H630 0.960 . S
C644 H631 0.960 . S
C644 C643 1.524 . S
C645 C642 1.403 . S
C645 C646 1.392 . S
C645 C649 1.495 . S
C646 C645 1.392 . S
C646 C647 1.385 . S
C646 C648 1.478 . S
C647 H641 0.930 . S
C647 C643 1.400 . S
C647 C646 1.385 . S
C648 C646 1.478 . S
C648 C650 1.381 . S
C648 C654 1.383 . S
C649 C645 1.495 . S
C649 H655 0.959 . S
C649 H656 0.961 . S
C649 H657 0.960 . S
C650 C648 1.381 . S
C650 C651 1.394 . S
C650 H658 0.930 . S
C651 C650 1.394 . S
C651 C652 1.383 . S
C651 H659 0.929 . S
C652 C651 1.383 . S
C652 C653 1.377 . S
C653 H637 0.930 . S
C653 C652 1.377 . S
C653 C654 1.379 . S
C654 H638 0.931 . S
C654 C648 1.383 . S
C654 C653 1.379 . S
H655 C649 0.959 . S
H656 C649 0.961 . S
H657 C649 0.960 . S
H658 C650 0.930 . S
H659 C651 0.929 . S
H660 C668 0.929 . S
H661 C670 0.930 . S
H662 C672 0.930 . S
H663 C675 0.929 . S
H664 C678 0.930 . S
H665 C680 0.960 . S
H666 C680 0.960 1_655 S
H667 C680 0.960 1_655 S
C668 H660 0.929 . S
C668 C669 1.377 . S
C668 C670 1.384 . S
C669 C668 1.377 . S
C669 C675 1.390 . S
C670 H661 0.930 . S
C670 C668 1.384 . S
C670 C671 1.372 . S
C671 C670 1.372 . S
C671 C672 1.400 . S
C671 C676 1.490 . S
C672 H662 0.930 . S
C672 C671 1.400 . S
C672 C675 1.386 . S
H673 C689 0.930 . S
H674 C690 0.931 . S
C675 H663 0.929 . S
C675 C669 1.390 . S
C675 C672 1.386 . S
C676 C671 1.490 . S
C676 C678 1.395 . S
C676 C679 1.403 1_655 S
H677 C683 0.930 . S
C678 H664 0.930 . S
C678 C676 1.395 . S
C678 C681 1.403 1_655 S
C679 C676 1.403 1_455 S
C679 C680 1.524 . S
C679 C683 1.400 . S
C680 H665 0.960 . S
C680 H666 0.960 1_455 S
C680 H667 0.960 1_455 S
C680 C679 1.524 . S
C681 C678 1.403 1_455 S
C681 C682 1.392 . S
C681 C685 1.495 . S
C682 C681 1.392 . S
C682 C683 1.385 . S
C682 C684 1.478 . S
C683 H677 0.930 . S
C683 C679 1.400 . S
C683 C682 1.385 . S
C684 C682 1.478 . S
C684 C686 1.381 . S
C684 C690 1.383 . S
C685 C681 1.495 . S
C685 H691 0.959 1_455 S
C685 H692 0.961 . S
C685 H693 0.960 . S
C686 C684 1.381 . S
C686 C687 1.394 . S
C686 H694 0.930 . S
C687 C686 1.394 . S
C687 C688 1.383 . S
C687 H695 0.929 . S
C688 C687 1.383 . S
C688 C689 1.377 . S
C689 H673 0.930 . S
C689 C688 1.377 . S
C689 C690 1.379 . S
C690 H674 0.931 . S
C690 C684 1.383 . S
C690 C689 1.379 . S
H691 C685 0.959 1_655 S
H692 C685 0.961 . S
H693 C685 0.960 . S
H694 C686 0.930 . S
H695 C687 0.929 . S
H696 C704 0.929 . S
H697 C706 0.930 . S
H698 C708 0.930 . S
H699 C711 0.929 . S
H700 C714 0.930 . S
H701 C716 0.960 . S
H702 C716 0.960 1_455 S
H703 C716 0.960 1_455 S
C704 H696 0.929 . S
C704 C705 1.377 . S
C704 C706 1.384 . S
C705 C704 1.377 . S
C705 C711 1.390 . S
C706 H697 0.930 . S
C706 C704 1.384 . S
C706 C707 1.372 . S
C707 C706 1.372 . S
C707 C708 1.400 . S
C707 C712 1.490 . S
C708 H698 0.930 . S
C708 C707 1.400 . S
C708 C711 1.386 . S
H709 C725 0.930 . S
H710 C726 0.931 . S
C711 H699 0.929 . S
C711 C705 1.390 . S
C711 C708 1.386 . S
C712 C707 1.490 . S
C712 C714 1.395 . S
C712 C715 1.403 1_455 S
H713 C719 0.930 . S
C714 H700 0.930 . S
C714 C712 1.395 . S
C714 C717 1.403 1_455 S
C715 C712 1.403 1_655 S
C715 C716 1.524 . S
C715 C719 1.400 . S
C716 H701 0.960 . S
C716 H702 0.960 1_655 S
C716 H703 0.960 1_655 S
C716 C715 1.524 . S
C717 C714 1.403 1_655 S
C717 C718 1.392 . S
C717 C721 1.495 . S
C718 C717 1.392 . S
C718 C719 1.385 . S
C718 C720 1.478 . S
C719 H713 0.930 . S
C719 C715 1.400 . S
C719 C718 1.385 . S
C720 C718 1.478 . S
C720 C722 1.381 . S
C720 C726 1.383 . S
C721 C717 1.495 . S
C721 H727 0.959 1_655 S
C721 H728 0.961 . S
C721 H729 0.960 . S
C722 C720 1.381 . S
C722 C723 1.394 . S
C722 H730 0.930 . S
C723 C722 1.394 . S
C723 C724 1.383 . S
C723 H731 0.929 . S
C724 C723 1.383 . S
C724 C725 1.377 . S
C725 H709 0.930 . S
C725 C724 1.377 . S
C725 C726 1.379 . S
C726 H710 0.931 . S
C726 C720 1.383 . S
C726 C725 1.379 . S
H727 C721 0.959 1_455 S
H728 C721 0.961 . S
H729 C721 0.960 . S
H730 C722 0.930 . S
H731 C723 0.929 . S
H732 C740 0.929 . S
H733 C742 0.930 . S
H734 C744 0.930 . S
H735 C747 0.929 . S
H736 C750 0.930 . S
H737 C752 0.960 . S
H738 C752 0.960 . S
H739 C752 0.960 . S
C740 H732 0.929 . S
C740 C741 1.377 . S
C740 C742 1.384 . S
C741 C740 1.377 . S
C741 C747 1.390 . S
C742 H733 0.930 . S
C742 C740 1.384 . S
C742 C743 1.372 . S
C743 C742 1.372 . S
C743 C744 1.400 . S
C743 C748 1.490 . S
C744 H734 0.930 . S
C744 C743 1.400 . S
C744 C747 1.386 . S
H745 C761 0.930 . S
H746 C762 0.931 . S
C747 H735 0.929 . S
C747 C741 1.390 . S
C747 C744 1.386 . S
C748 C743 1.490 . S
C748 C750 1.395 . S
C748 C751 1.403 . S
H749 C755 0.930 . S
C750 H736 0.930 . S
C750 C748 1.395 . S
C750 C753 1.403 1_565 S
C751 C748 1.403 . S
C751 C752 1.524 . S
C751 C755 1.400 1_565 S
C752 H737 0.960 . S
C752 H738 0.960 . S
C752 H739 0.960 . S
C752 C751 1.524 . S
C753 C750 1.403 1_545 S
C753 C754 1.392 . S
C753 C757 1.495 . S
C754 C753 1.392 . S
C754 C755 1.385 . S
C754 C756 1.478 . S
C755 H749 0.930 . S
C755 C751 1.400 1_545 S
C755 C754 1.385 . S
C756 C754 1.478 . S
C756 C758 1.381 . S
C756 C762 1.383 . S
C757 C753 1.495 . S
C757 H763 0.959 . S
C757 H764 0.961 . S
C757 H765 0.960 . S
C758 C756 1.381 . S
C758 C759 1.394 . S
C758 H766 0.930 . S
C759 C758 1.394 . S
C759 C760 1.383 . S
C759 H767 0.929 . S
C760 C759 1.383 . S
C760 C761 1.377 . S
C761 H745 0.930 . S
C761 C760 1.377 . S
C761 C762 1.379 . S
C762 H746 0.931 . S
C762 C756 1.383 . S
C762 C761 1.379 . S
H763 C757 0.959 . S
H764 C757 0.961 . S
H765 C757 0.960 . S
H766 C758 0.930 . S
H767 C759 0.929 . S
H768 C776 0.929 . S
H769 C778 0.930 . S
H770 C780 0.930 . S
H771 C783 0.929 . S
H772 C786 0.930 . S
H773 C788 0.960 . S
H774 C788 0.960 . S
H775 C788 0.960 . S
C776 H768 0.929 . S
C776 C777 1.377 . S
C776 C778 1.384 . S
C777 C776 1.377 . S
C777 C783 1.390 . S
C778 H769 0.930 . S
C778 C776 1.384 . S
C778 C779 1.372 . S
C779 C778 1.372 . S
C779 C780 1.400 . S
C779 C784 1.490 . S
C780 H770 0.930 . S
C780 C779 1.400 . S
C780 C783 1.386 . S
H781 C797 0.930 . S
H782 C798 0.931 . S
C783 H771 0.929 . S
C783 C777 1.390 . S
C783 C780 1.386 . S
C784 C779 1.490 . S
C784 C786 1.395 . S
C784 C787 1.403 . S
H785 C791 0.930 . S
C786 H772 0.930 . S
C786 C784 1.395 . S
C786 C789 1.403 . S
C787 C784 1.403 . S
C787 C788 1.524 . S
C787 C791 1.400 . S
C788 H773 0.960 . S
C788 H774 0.960 . S
C788 H775 0.960 . S
C788 C787 1.524 . S
C789 C786 1.403 . S
C789 C790 1.392 . S
C789 C793 1.495 . S
C790 C789 1.392 . S
C790 C791 1.385 . S
C790 C792 1.478 . S
C791 H785 0.930 . S
C791 C787 1.400 . S
C791 C790 1.385 . S
C792 C790 1.478 . S
C792 C794 1.381 . S
C792 C798 1.383 . S
C793 C789 1.495 . S
C793 H799 0.959 . S
C793 H800 0.961 . S
C793 H801 0.960 . S
C794 C792 1.381 . S
C794 C795 1.394 . S
C794 H802 0.930 . S
C795 C794 1.394 . S
C795 C796 1.383 . S
C795 H803 0.929 . S
C796 C795 1.383 . S
C796 C797 1.377 . S
C797 H781 0.930 . S
C797 C796 1.377 . S
C797 C798 1.379 . S
C798 H782 0.931 . S
C798 C792 1.383 . S
C798 C797 1.379 . S
H799 C793 0.959 . S
H800 C793 0.961 . S
H801 C793 0.960 . S
H802 C794 0.930 . S
H803 C795 0.929 . S
H804 C812 0.929 . S
H805 C814 0.930 . S
H806 C816 0.930 . S
H807 C819 0.929 . S
H808 C822 0.930 . S
H809 C824 0.987 . S
H810 C824 0.960 . S
H811 C824 0.960 . S
C812 H804 0.929 . S
C812 C813 1.377 . S
C812 C814 1.384 . S
C813 C812 1.377 . S
C813 C819 1.390 . S
C814 H805 0.930 . S
C814 C812 1.384 . S
C814 C815 1.372 . S
C815 C814 1.372 . S
C815 C816 1.400 . S
C815 C820 1.490 . S
C816 H806 0.930 . S
C816 C815 1.400 . S
C816 C819 1.386 . S
H817 C833 0.930 . S
H818 C834 0.931 . S
C819 H807 0.929 . S
C819 C813 1.390 . S
C819 C816 1.386 . S
C820 C815 1.490 . S
C820 C822 1.395 . S
C820 C823 1.403 . S
H821 C827 0.930 . S
C822 H808 0.930 . S
C822 C820 1.395 . S
C822 C825 1.403 . S
C823 C820 1.403 . S
C823 C824 1.524 . S
C823 C827 1.400 1_455 S
C824 H809 0.987 . S
C824 H810 0.960 . S
C824 H811 0.960 . S
C824 C823 1.524 . S
C825 C822 1.403 . S
C825 C826 1.392 1_455 S
C825 C829 1.495 1_455 S
C826 C825 1.392 1_655 S
C826 C827 1.385 . S
C826 C828 1.478 . S
C827 H821 0.930 . S
C827 C823 1.400 1_655 S
C827 C826 1.385 . S
C828 C826 1.478 . S
C828 C830 1.381 . S
C828 C834 1.383 . S
C829 C825 1.495 1_655 S
C829 H835 0.959 1_655 S
C829 H836 0.961 . S
C829 H837 0.960 . S
C830 C828 1.381 . S
C830 C831 1.394 . S
C830 H838 0.930 . S
C831 C830 1.394 . S
C831 C832 1.383 . S
C831 H839 0.929 . S
C832 C831 1.383 . S
C832 C833 1.377 . S
C833 H817 0.930 . S
C833 C832 1.377 . S
C833 C834 1.379 . S
C834 H818 0.931 . S
C834 C828 1.383 . S
C834 C833 1.379 . S
H835 C829 0.959 1_455 S
H836 C829 0.961 . S
H837 C829 0.960 . S
H838 C830 0.930 . S
H839 C831 0.929 . S
H840 C848 0.929 . S
H841 C850 0.930 . S
H842 C852 0.930 . S
H843 C855 0.929 . S
H844 C858 0.930 . S
H845 C860 0.960 . S
H846 C860 0.960 . S
H847 C860 0.960 . S
C848 H840 0.929 . S
C848 C849 1.377 . S
C848 C850 1.384 . S
C849 C848 1.377 . S
C849 C855 1.390 . S
C850 H841 0.930 . S
C850 C848 1.384 . S
C850 C851 1.372 . S
C851 C850 1.372 . S
C851 C852 1.400 . S
C851 C856 1.490 . S
C852 H842 0.930 . S
C852 C851 1.400 . S
C852 C855 1.386 . S
H853 C869 0.930 . S
H854 C870 0.931 . S
C855 H843 0.929 . S
C855 C849 1.390 . S
C855 C852 1.386 . S
C856 C851 1.490 . S
C856 C858 1.395 . S
C856 C859 1.403 . S
H857 C863 0.930 . S
C858 H844 0.930 . S
C858 C856 1.395 . S
C858 C861 1.403 1_545 S
C859 C856 1.403 . S
C859 C860 1.524 . S
C859 C863 1.400 1_545 S
C860 H845 0.960 . S
C860 H846 0.960 . S
C860 H847 0.960 . S
C860 C859 1.524 . S
C861 C858 1.403 1_565 S
C861 C862 1.392 . S
C861 C865 1.495 . S
C862 C861 1.392 . S
C862 C863 1.385 . S
C862 C864 1.478 . S
C863 H857 0.930 . S
C863 C859 1.400 1_565 S
C863 C862 1.385 . S
C864 C862 1.478 . S
C864 C866 1.381 . S
C864 C870 1.383 . S
C865 C861 1.495 . S
C865 H871 0.959 . S
C865 H872 0.961 . S
C865 H873 0.960 . S
C866 C864 1.381 . S
C866 C867 1.394 . S
C866 H874 0.930 . S
C867 C866 1.394 . S
C867 C868 1.383 . S
C867 H875 0.929 . S
C868 C867 1.383 . S
C868 C869 1.377 . S
C869 H853 0.930 . S
C869 C868 1.377 . S
C869 C870 1.379 . S
C870 H854 0.931 . S
C870 C864 1.383 . S
C870 C869 1.379 . S
H871 C865 0.959 . S
H872 C865 0.961 . S
H873 C865 0.960 . S
H874 C866 0.930 . S
H875 C867 0.929 . S
H876 C884 0.929 . S
H877 C886 0.930 . S
H878 C888 0.930 . S
H879 C891 0.929 . S
H880 C894 0.930 . S
H881 C896 0.960 . S
H882 C896 0.960 . S
H883 C896 0.960 . S
C884 H876 0.929 . S
C884 C885 1.377 . S
C884 C886 1.384 . S
C885 C884 1.377 . S
C885 C891 1.390 . S
C886 H877 0.930 . S
C886 C884 1.384 . S
C886 C887 1.372 . S
C887 C886 1.372 . S
C887 C888 1.400 . S
C887 C892 1.490 . S
C888 H878 0.930 . S
C888 C887 1.400 . S
C888 C891 1.386 . S
H889 C905 0.930 . S
H890 C906 0.931 . S
C891 H879 0.929 . S
C891 C885 1.390 . S
C891 C888 1.386 . S
C892 C887 1.490 . S
C892 C894 1.395 . S
C892 C895 1.403 . S
H893 C899 0.930 . S
C894 H880 0.930 . S
C894 C892 1.395 . S
C894 C897 1.403 . S
C895 C892 1.403 . S
C895 C896 1.524 . S
C895 C899 1.400 . S
C896 H881 0.960 . S
C896 H882 0.960 . S
C896 H883 0.960 . S
C896 C895 1.524 . S
C897 C894 1.403 . S
C897 C898 1.392 . S
C897 C901 1.495 . S
C898 C897 1.392 . S
C898 C899 1.385 . S
C898 C900 1.478 . S
C899 H893 0.930 . S
C899 C895 1.400 . S
C899 C898 1.385 . S
C900 C898 1.478 . S
C900 C902 1.381 . S
C900 C906 1.383 . S
C901 C897 1.495 . S
C901 H907 0.959 . S
C901 H908 0.961 . S
C901 H909 0.960 . S
C902 C900 1.381 . S
C902 C903 1.394 . S
C902 H910 0.930 . S
C903 C902 1.394 . S
C903 C904 1.383 . S
C903 H911 0.929 . S
C904 C903 1.383 . S
C904 C905 1.377 . S
C905 H889 0.930 . S
C905 C904 1.377 . S
C905 C906 1.379 . S
C906 H890 0.931 . S
C906 C900 1.383 . S
C906 C905 1.379 . S
H907 C901 0.959 . S
H908 C901 0.961 . S
H909 C901 0.960 . S
H910 C902 0.930 . S
H911 C903 0.929 . S
H912 C920 0.929 . S
H913 C922 0.930 . S
H914 C924 0.930 . S
H915 C927 0.929 . S
H916 C930 0.930 . S
H917 C932 0.960 . S
H918 C932 0.960 . S
H919 C932 0.960 . S
C920 H912 0.929 . S
C920 C921 1.377 . S
C920 C922 1.384 . S
C921 C920 1.377 . S
C921 C927 1.390 . S
C922 H913 0.930 . S
C922 C920 1.384 . S
C922 C923 1.372 . S
C923 C922 1.372 . S
C923 C924 1.400 . S
C923 C928 1.490 . S
C924 H914 0.930 . S
C924 C923 1.400 . S
C924 C927 1.386 . S
H925 C941 0.930 . S
H926 C942 0.931 . S
C927 H915 0.929 . S
C927 C921 1.390 . S
C927 C924 1.386 . S
C928 C923 1.490 . S
C928 C930 1.395 . S
C928 C931 1.403 . S
H929 C935 0.930 . S
C930 H916 0.930 . S
C930 C928 1.395 . S
C930 C933 1.403 . S
C931 C928 1.403 . S
C931 C932 1.524 . S
C931 C935 1.400 . S
C932 H917 0.960 . S
C932 H918 0.960 . S
C932 H919 0.960 . S
C932 C931 1.524 . S
C933 C930 1.403 . S
C933 C934 1.392 . S
C933 C937 1.495 . S
C934 C933 1.392 . S
C934 C935 1.385 . S
C934 C936 1.478 . S
C935 H929 0.930 . S
C935 C931 1.400 . S
C935 C934 1.385 . S
C936 C934 1.478 . S
C936 C938 1.381 . S
C936 C942 1.383 . S
C937 C933 1.495 . S
C937 H943 0.959 . S
C937 H944 0.961 . S
C937 H945 0.960 . S
C938 C936 1.381 . S
C938 C939 1.394 . S
C938 H946 0.930 . S
C939 C938 1.394 . S
C939 C940 1.383 . S
C939 H947 0.929 . S
C940 C939 1.383 . S
C940 C941 1.377 . S
C941 H925 0.930 . S
C941 C940 1.377 . S
C941 C942 1.379 . S
C942 H926 0.931 . S
C942 C936 1.383 . S
C942 C941 1.379 . S
H943 C937 0.959 . S
H944 C937 0.961 . S
H945 C937 0.960 . S
H946 C938 0.930 . S
H947 C939 0.929 . S
H948 C956 0.929 . S
H949 C958 0.930 . S
H950 C960 0.930 . S
H951 C963 0.929 . S
H952 C966 0.930 . S
H953 C968 0.960 . S
H954 C968 0.960 . S
H955 C968 0.960 . S
C956 H948 0.929 . S
C956 C957 1.377 . S
C956 C958 1.384 . S
C957 C956 1.377 . S
C957 C963 1.390 . S
C958 H949 0.930 . S
C958 C956 1.384 . S
C958 C959 1.372 . S
C959 C958 1.372 . S
C959 C960 1.400 . S
C959 C964 1.490 . S
C960 H950 0.930 . S
C960 C959 1.400 . S
C960 C963 1.386 . S
H961 C977 0.930 . S
H962 C978 0.931 . S
C963 H951 0.929 . S
C963 C957 1.390 . S
C963 C960 1.386 . S
C964 C959 1.490 . S
C964 C966 1.395 . S
C964 C967 1.403 . S
H965 C971 0.930 . S
C966 H952 0.930 . S
C966 C964 1.395 . S
C966 C969 1.403 . S
C967 C964 1.403 . S
C967 C968 1.524 . S
C967 C971 1.400 . S
C968 H953 0.960 . S
C968 H954 0.960 . S
C968 H955 0.960 . S
C968 C967 1.524 . S
C969 C966 1.403 . S
C969 C970 1.392 . S
C969 C973 1.495 . S
C970 C969 1.392 . S
C970 C971 1.385 . S
C970 C972 1.478 . S
C971 H965 0.930 . S
C971 C967 1.400 . S
C971 C970 1.385 . S
C972 C970 1.478 . S
C972 C974 1.381 . S
C972 C978 1.383 . S
C973 C969 1.495 . S
C973 H979 0.959 . S
C973 H980 0.961 . S
C973 H981 0.960 . S
C974 C972 1.381 . S
C974 C975 1.394 . S
C974 H982 0.930 . S
C975 C974 1.394 . S
C975 C976 1.383 . S
C975 H983 0.929 . S
C976 C975 1.383 . S
C976 C977 1.377 . S
C977 H961 0.930 . S
C977 C976 1.377 . S
C977 C978 1.379 . S
C978 H962 0.931 . S
C978 C972 1.383 . S
C978 C977 1.379 . S
H979 C973 0.959 . S
H980 C973 0.961 . S
H981 C973 0.960 . S
H982 C974 0.930 . S
H983 C975 0.929 . S
H984 C992 0.929 . S
H985 C994 0.930 . S
H986 C996 0.930 . S
H987 C999 0.929 . S
H988 C1002 0.930 . S
H989 C1004 0.960 . S
H990 C1004 0.960 . S
H991 C1004 0.960 . S
C992 H984 0.929 . S
C992 C993 1.377 . S
C992 C994 1.384 . S
C993 C992 1.377 . S
C993 C999 1.390 . S
C994 H985 0.930 . S
C994 C992 1.384 . S
C994 C995 1.372 . S
C995 C994 1.372 . S
C995 C996 1.400 . S
C995 C1000 1.490 . S
C996 H986 0.930 . S
C996 C995 1.400 . S
C996 C999 1.386 . S
H997 C1013 0.930 . S
H998 C1014 0.931 . S
C999 H987 0.929 . S
C999 C993 1.390 . S
C999 C996 1.386 . S
C1000 C995 1.490 . S
C1000 C1002 1.395 . S
C1000 C1003 1.403 . S
H1001 C1007 0.930 . S
C1002 H988 0.930 . S
C1002 C1000 1.395 . S
C1002 C1005 1.403 . S
C1003 C1000 1.403 . S
C1003 C1004 1.524 . S
C1003 C1007 1.400 . S
C1004 H989 0.960 . S
C1004 H990 0.960 . S
C1004 H991 0.960 . S
C1004 C1003 1.524 . S
C1005 C1002 1.403 . S
C1005 C1006 1.392 . S
C1005 C1009 1.495 . S
C1006 C1005 1.392 . S
C1006 C1007 1.385 . S
C1006 C1008 1.478 . S
C1007 H1001 0.930 . S
C1007 C1003 1.400 . S
C1007 C1006 1.385 . S
C1008 C1006 1.478 . S
C1008 C1010 1.381 . S
C1008 C1014 1.383 . S
C1009 C1005 1.495 . S
C1009 H1015 0.959 . S
C1009 H1016 0.961 . S
C1009 H1017 0.960 . S
C1010 C1008 1.381 . S
C1010 C1011 1.394 . S
C1010 H1018 0.930 . S
C1011 C1010 1.394 . S
C1011 C1012 1.383 . S
C1011 H1019 0.929 . S
C1012 C1011 1.383 . S
C1012 C1013 1.377 . S
C1013 H997 0.930 . S
C1013 C1012 1.377 . S
C1013 C1014 1.379 . S
C1014 H998 0.931 . S
C1014 C1008 1.383 . S
C1014 C1013 1.379 . S
H1015 C1009 0.959 . S
H1016 C1009 0.961 . S
H1017 C1009 0.960 . S
H1018 C1010 0.930 . S
H1019 C1011 0.929 . S
H1020 C1028 0.929 . S
H1021 C1030 0.930 . S
H1022 C1032 0.930 . S
H1023 C1035 0.929 . S
H1024 C1038 0.930 . S
H1025 C1040 0.960 . S
H1026 C1040 0.960 . S
H1027 C1040 0.960 . S
C1028 H1020 0.929 . S
C1028 C1029 1.377 . S
C1028 C1030 1.384 . S
C1029 C1028 1.377 . S
C1029 C1035 1.390 . S
C1030 H1021 0.930 . S
C1030 C1028 1.384 . S
C1030 C1031 1.372 . S
C1031 C1030 1.372 . S
C1031 C1032 1.400 . S
C1031 C1036 1.490 . S
C1032 H1022 0.930 . S
C1032 C1031 1.400 . S
C1032 C1035 1.386 . S
H1033 C1049 0.930 . S
H1034 C1050 0.931 . S
C1035 H1023 0.929 . S
C1035 C1029 1.390 . S
C1035 C1032 1.386 . S
C1036 C1031 1.490 . S
C1036 C1038 1.395 . S
C1036 C1039 1.403 . S
H1037 C1043 0.930 . S
C1038 H1024 0.930 . S
C1038 C1036 1.395 . S
C1038 C1041 1.403 . S
C1039 C1036 1.403 . S
C1039 C1040 1.524 . S
C1039 C1043 1.400 . S
C1040 H1025 0.960 . S
C1040 H1026 0.960 . S
C1040 H1027 0.960 . S
C1040 C1039 1.524 . S
C1041 C1038 1.403 . S
C1041 C1042 1.392 . S
C1041 C1045 1.495 . S
C1042 C1041 1.392 . S
C1042 C1043 1.385 . S
C1042 C1044 1.478 . S
C1043 H1037 0.930 . S
C1043 C1039 1.400 . S
C1043 C1042 1.385 . S
C1044 C1042 1.478 . S
C1044 C1046 1.381 . S
C1044 C1050 1.383 . S
C1045 C1041 1.495 . S
C1045 H1051 0.959 . S
C1045 H1052 0.961 . S
C1045 H1053 0.960 . S
C1046 C1044 1.381 . S
C1046 C1047 1.394 . S
C1046 H1054 0.930 . S
C1047 C1046 1.394 . S
C1047 C1048 1.383 . S
C1047 H1055 0.929 . S
C1048 C1047 1.383 . S
C1048 C1049 1.377 . S
C1049 H1033 0.930 . S
C1049 C1048 1.377 . S
C1049 C1050 1.379 . S
C1050 H1034 0.931 . S
C1050 C1044 1.383 . S
C1050 C1049 1.379 . S
H1051 C1045 0.959 . S
H1052 C1045 0.961 . S
H1053 C1045 0.960 . S
H1054 C1046 0.930 . S
H1055 C1047 0.929 . S
H1056 C1064 0.929 . S
H1057 C1066 0.930 . S
H1058 C1068 0.930 . S
H1059 C1071 0.929 . S
H1060 C1074 0.930 . S
H1061 C1076 0.960 . S
H1062 C1076 0.960 . S
H1063 C1076 0.960 . S
C1064 H1056 0.929 . S
C1064 C1065 1.377 . S
C1064 C1066 1.384 . S
C1065 C1064 1.377 . S
C1065 C1071 1.390 . S
C1066 H1057 0.930 . S
C1066 C1064 1.384 . S
C1066 C1067 1.372 . S
C1067 C1066 1.372 . S
C1067 C1068 1.400 . S
C1067 C1072 1.490 . S
C1068 H1058 0.930 . S
C1068 C1067 1.400 . S
C1068 C1071 1.386 . S
H1069 C1085 0.930 . S
H1070 C1086 0.931 . S
C1071 H1059 0.929 . S
C1071 C1065 1.390 . S
C1071 C1068 1.386 . S
C1072 C1067 1.490 . S
C1072 C1074 1.395 . S
C1072 C1075 1.403 . S
H1073 C1079 0.930 . S
C1074 H1060 0.930 . S
C1074 C1072 1.395 . S
C1074 C1077 1.403 . S
C1075 C1072 1.403 . S
C1075 C1076 1.524 . S
C1075 C1079 1.400 . S
C1076 H1061 0.960 . S
C1076 H1062 0.960 . S
C1076 H1063 0.960 . S
C1076 C1075 1.524 . S
C1077 C1074 1.403 . S
C1077 C1078 1.392 . S
C1077 C1081 1.495 . S
C1078 C1077 1.392 . S
C1078 C1079 1.385 . S
C1078 C1080 1.478 . S
C1079 H1073 0.930 . S
C1079 C1075 1.400 . S
C1079 C1078 1.385 . S
C1080 C1078 1.478 . S
C1080 C1082 1.381 . S
C1080 C1086 1.383 . S
C1081 C1077 1.495 . S
C1081 H1087 0.959 . S
C1081 H1088 0.961 . S
C1081 H1089 0.960 . S
C1082 C1080 1.381 . S
C1082 C1083 1.394 . S
C1082 H1090 0.930 . S
C1083 C1082 1.394 . S
C1083 C1084 1.383 . S
C1083 H1091 0.929 . S
C1084 C1083 1.383 . S
C1084 C1085 1.377 . S
C1085 H1069 0.930 . S
C1085 C1084 1.377 . S
C1085 C1086 1.379 . S
C1086 H1070 0.931 . S
C1086 C1080 1.383 . S
C1086 C1085 1.379 . S
H1087 C1081 0.959 . S
H1088 C1081 0.961 . S
H1089 C1081 0.960 . S
H1090 C1082 0.930 . S
H1091 C1083 0.929 . S
H1092 C1100 0.929 . S
H1093 C1102 0.930 . S
H1094 C1104 0.930 . S
H1095 C1107 0.929 . S
H1096 C1110 0.930 . S
H1097 C1112 0.960 . S
H1098 C1112 0.960 . S
H1099 C1112 0.960 . S
C1100 H1092 0.929 . S
C1100 C1101 1.377 . S
C1100 C1102 1.384 . S
C1101 C1100 1.377 . S
C1101 C1107 1.390 . S
C1102 H1093 0.930 . S
C1102 C1100 1.384 . S
C1102 C1103 1.372 . S
C1103 C1102 1.372 . S
C1103 C1104 1.400 . S
C1103 C1108 1.490 . S
C1104 H1094 0.930 . S
C1104 C1103 1.400 . S
C1104 C1107 1.386 . S
H1105 C1121 0.930 . S
H1106 C1122 0.931 . S
C1107 H1095 0.929 . S
C1107 C1101 1.390 . S
C1107 C1104 1.386 . S
C1108 C1103 1.490 . S
C1108 C1110 1.395 . S
C1108 C1111 1.403 . S
H1109 C1115 0.930 . S
C1110 H1096 0.930 . S
C1110 C1108 1.395 . S
C1110 C1113 1.403 . S
C1111 C1108 1.403 . S
C1111 C1112 1.524 . S
C1111 C1115 1.400 . S
C1112 H1097 0.960 . S
C1112 H1098 0.960 . S
C1112 H1099 0.960 . S
C1112 C1111 1.524 . S
C1113 C1110 1.403 . S
C1113 C1114 1.392 . S
C1113 C1117 1.495 . S
C1114 C1113 1.392 . S
C1114 C1115 1.385 . S
C1114 C1116 1.478 . S
C1115 H1109 0.930 . S
C1115 C1111 1.400 . S
C1115 C1114 1.385 . S
C1116 C1114 1.478 . S
C1116 C1118 1.381 . S
C1116 C1122 1.383 . S
C1117 C1113 1.495 . S
C1117 H1123 0.959 . S
C1117 H1124 0.961 . S
C1117 H1125 0.960 . S
C1118 C1116 1.381 . S
C1118 C1119 1.394 . S
C1118 H1126 0.930 . S
C1119 C1118 1.394 . S
C1119 C1120 1.383 . S
C1119 H1127 0.929 . S
C1120 C1119 1.383 . S
C1120 C1121 1.377 . S
C1121 H1105 0.930 . S
C1121 C1120 1.377 . S
C1121 C1122 1.379 . S
C1122 H1106 0.931 . S
C1122 C1116 1.383 . S
C1122 C1121 1.379 . S
H1123 C1117 0.959 . S
H1124 C1117 0.961 . S
H1125 C1117 0.960 . S
H1126 C1118 0.930 . S
H1127 C1119 0.929 . S
H1128 C1136 0.929 . S
H1129 C1138 0.930 . S
H1130 C1140 0.930 . S
H1131 C1143 0.929 . S
H1132 C1146 0.930 . S
H1133 C1148 0.960 . S
H1134 C1148 0.960 . S
H1135 C1148 0.960 . S
C1136 H1128 0.929 . S
C1136 C1137 1.377 . S
C1136 C1138 1.384 . S
C1137 C1136 1.377 . S
C1137 C1143 1.390 . S
C1138 H1129 0.930 . S
C1138 C1136 1.384 . S
C1138 C1139 1.372 . S
C1139 C1138 1.372 . S
C1139 C1140 1.400 . S
C1139 C1144 1.490 . S
C1140 H1130 0.930 . S
C1140 C1139 1.400 . S
C1140 C1143 1.386 . S
H1141 C1157 0.930 . S
H1142 C1158 0.931 . S
C1143 H1131 0.929 . S
C1143 C1137 1.390 . S
C1143 C1140 1.386 . S
C1144 C1139 1.490 . S
C1144 C1146 1.395 . S
C1144 C1147 1.403 . S
H1145 C1151 0.930 . S
C1146 H1132 0.930 . S
C1146 C1144 1.395 . S
C1146 C1149 1.403 . S
C1147 C1144 1.403 . S
C1147 C1148 1.524 . S
C1147 C1151 1.400 . S
C1148 H1133 0.960 . S
C1148 H1134 0.960 . S
C1148 H1135 0.960 . S
C1148 C1147 1.524 . S
C1149 C1146 1.403 . S
C1149 C1150 1.392 . S
C1149 C1153 1.495 . S
C1150 C1149 1.392 . S
C1150 C1151 1.385 . S
C1150 C1152 1.478 . S
C1151 H1145 0.930 . S
C1151 C1147 1.400 . S
C1151 C1150 1.385 . S
C1152 C1150 1.478 . S
C1152 C1154 1.381 . S
C1152 C1158 1.383 . S
C1153 C1149 1.495 . S
C1153 H1159 0.959 . S
C1153 H1160 0.961 . S
C1153 H1161 0.960 . S
C1154 C1152 1.381 . S
C1154 C1155 1.394 . S
C1154 H1162 0.930 . S
C1155 C1154 1.394 . S
C1155 C1156 1.383 . S
C1155 H1163 0.929 . S
C1156 C1155 1.383 . S
C1156 C1157 1.377 . S
C1157 H1141 0.930 . S
C1157 C1156 1.377 . S
C1157 C1158 1.379 . S
C1158 H1142 0.931 . S
C1158 C1152 1.383 . S
C1158 C1157 1.379 . S
H1159 C1153 0.959 . S
H1160 C1153 0.961 . S
H1161 C1153 0.960 . S
H1162 C1154 0.930 . S
H1163 C1155 0.929 . S
H1164 C1172 0.929 . S
H1165 C1174 0.930 . S
H1166 C1176 0.930 . S
H1167 C1179 0.929 . S
H1168 C1182 0.930 . S
H1169 C1184 0.960 . S
H1170 C1184 0.960 . S
H1171 C1184 0.960 . S
C1172 H1164 0.929 . S
C1172 C1173 1.377 . S
C1172 C1174 1.384 . S
C1173 C1172 1.377 . S
C1173 C1179 1.390 . S
C1174 H1165 0.930 . S
C1174 C1172 1.384 . S
C1174 C1175 1.372 . S
C1175 C1174 1.372 . S
C1175 C1176 1.400 . S
C1175 C1180 1.490 . S
C1176 H1166 0.930 . S
C1176 C1175 1.400 . S
C1176 C1179 1.386 . S
H1177 C1193 0.930 . S
H1178 C1194 0.931 . S
C1179 H1167 0.929 . S
C1179 C1173 1.390 . S
C1179 C1176 1.386 . S
C1180 C1175 1.490 . S
C1180 C1182 1.395 . S
C1180 C1183 1.403 . S
H1181 C1187 0.930 . S
C1182 H1168 0.930 . S
C1182 C1180 1.395 . S
C1182 C1185 1.403 . S
C1183 C1180 1.403 . S
C1183 C1184 1.524 . S
C1183 C1187 1.400 . S
C1184 H1169 0.960 . S
C1184 H1170 0.960 . S
C1184 H1171 0.960 . S
C1184 C1183 1.524 . S
C1185 C1182 1.403 . S
C1185 C1186 1.392 . S
C1185 C1189 1.495 . S
C1186 C1185 1.392 . S
C1186 C1187 1.385 . S
C1186 C1188 1.478 . S
C1187 H1181 0.930 . S
C1187 C1183 1.400 . S
C1187 C1186 1.385 . S
C1188 C1186 1.478 . S
C1188 C1190 1.381 . S
C1188 C1194 1.383 . S
C1189 C1185 1.495 . S
C1189 H1195 0.959 . S
C1189 H1196 0.961 . S
C1189 H1197 0.960 . S
C1190 C1188 1.381 . S
C1190 C1191 1.394 . S
C1190 H1198 0.930 . S
C1191 C1190 1.394 . S
C1191 C1192 1.383 . S
C1191 H1199 0.929 . S
C1192 C1191 1.383 . S
C1192 C1193 1.377 . S
C1193 H1177 0.930 . S
C1193 C1192 1.377 . S
C1193 C1194 1.379 . S
C1194 H1178 0.931 . S
C1194 C1188 1.383 . S
C1194 C1193 1.379 . S
H1195 C1189 0.959 . S
H1196 C1189 0.961 . S
H1197 C1189 0.960 . S
H1198 C1190 0.930 . S
H1199 C1191 0.929 . S
H1200 C1208 0.929 . S
H1201 C1210 0.930 . S
H1202 C1212 0.930 . S
H1203 C1215 0.929 . S
H1204 C1218 0.930 . S
H1205 C1220 0.960 . S
H1206 C1220 0.960 . S
H1207 C1220 0.960 . S
C1208 H1200 0.929 . S
C1208 C1209 1.377 . S
C1208 C1210 1.384 . S
C1209 C1208 1.377 . S
C1209 C1215 1.390 . S
C1210 H1201 0.930 . S
C1210 C1208 1.384 . S
C1210 C1211 1.372 . S
C1211 C1210 1.372 . S
C1211 C1212 1.400 . S
C1211 C1216 1.490 . S
C1212 H1202 0.930 . S
C1212 C1211 1.400 . S
C1212 C1215 1.386 . S
H1213 C1229 0.930 . S
H1214 C1230 0.931 . S
C1215 H1203 0.929 . S
C1215 C1209 1.390 . S
C1215 C1212 1.386 . S
C1216 C1211 1.490 . S
C1216 C1218 1.395 . S
C1216 C1219 1.403 . S
H1217 C1223 0.930 . S
C1218 H1204 0.930 . S
C1218 C1216 1.395 . S
C1218 C1221 1.403 . S
C1219 C1216 1.403 . S
C1219 C1220 1.524 . S
C1219 C1223 1.400 . S
C1220 H1205 0.960 . S
C1220 H1206 0.960 . S
C1220 H1207 0.960 . S
C1220 C1219 1.524 . S
C1221 C1218 1.403 . S
C1221 C1222 1.392 . S
C1221 C1225 1.495 . S
C1222 C1221 1.392 . S
C1222 C1223 1.385 . S
C1222 C1224 1.478 . S
C1223 H1217 0.930 . S
C1223 C1219 1.400 . S
C1223 C1222 1.385 . S
C1224 C1222 1.478 . S
C1224 C1226 1.381 . S
C1224 C1230 1.383 . S
C1225 C1221 1.495 . S
C1225 H1231 0.959 . S
C1225 H1232 0.961 . S
C1225 H1233 0.960 . S
C1226 C1224 1.381 . S
C1226 C1227 1.394 . S
C1226 H1234 0.930 . S
C1227 C1226 1.394 . S
C1227 C1228 1.383 . S
C1227 H1235 0.929 . S
C1228 C1227 1.383 . S
C1228 C1229 1.377 . S
C1229 H1213 0.930 . S
C1229 C1228 1.377 . S
C1229 C1230 1.379 . S
C1230 H1214 0.931 . S
C1230 C1224 1.383 . S
C1230 C1229 1.379 . S
H1231 C1225 0.959 . S
H1232 C1225 0.961 . S
H1233 C1225 0.960 . S
H1234 C1226 0.930 . S
H1235 C1227 0.929 . S
H1236 C1244 0.929 . S
H1237 C1246 0.930 . S
H1238 C1248 0.930 . S
H1239 C1251 0.929 . S
H1240 C1254 0.930 . S
H1241 C1256 0.960 . S
H1242 C1256 0.960 . S
H1243 C1256 0.960 . S
C1244 H1236 0.929 . S
C1244 C1245 1.377 . S
C1244 C1246 1.384 . S
C1245 C1244 1.377 . S
C1245 C1251 1.390 . S
C1246 H1237 0.930 . S
C1246 C1244 1.384 . S
C1246 C1247 1.372 . S
C1247 C1246 1.372 . S
C1247 C1248 1.400 . S
C1247 C1252 1.490 . S
C1248 H1238 0.930 . S
C1248 C1247 1.400 . S
C1248 C1251 1.386 . S
H1249 C1265 0.930 . S
H1250 C1266 0.931 . S
C1251 H1239 0.929 . S
C1251 C1245 1.390 . S
C1251 C1248 1.386 . S
C1252 C1247 1.490 . S
C1252 C1254 1.395 . S
C1252 C1255 1.403 . S
H1253 C1259 0.930 . S
C1254 H1240 0.930 . S
C1254 C1252 1.395 . S
C1254 C1257 1.403 . S
C1255 C1252 1.403 . S
C1255 C1256 1.524 . S
C1255 C1259 1.400 . S
C1256 H1241 0.960 . S
C1256 H1242 0.960 . S
C1256 H1243 0.960 . S
C1256 C1255 1.524 . S
C1257 C1254 1.403 . S
C1257 C1258 1.392 . S
C1257 C1261 1.495 . S
C1258 C1257 1.392 . S
C1258 C1259 1.385 . S
C1258 C1260 1.478 . S
C1259 H1253 0.930 . S
C1259 C1255 1.400 . S
C1259 C1258 1.385 . S
C1260 C1258 1.478 . S
C1260 C1262 1.381 . S
C1260 C1266 1.383 . S
C1261 C1257 1.495 . S
C1261 H1267 0.959 . S
C1261 H1268 0.961 . S
C1261 H1269 0.960 . S
C1262 C1260 1.381 . S
C1262 C1263 1.394 . S
C1262 H1270 0.930 . S
C1263 C1262 1.394 . S
C1263 C1264 1.383 . S
C1263 H1271 0.929 . S
C1264 C1263 1.383 . S
C1264 C1265 1.377 . S
C1265 H1249 0.930 . S
C1265 C1264 1.377 . S
C1265 C1266 1.379 . S
C1266 H1250 0.931 . S
C1266 C1260 1.383 . S
C1266 C1265 1.379 . S
H1267 C1261 0.959 . S
H1268 C1261 0.961 . S
H1269 C1261 0.960 . S
H1270 C1262 0.930 . S
H1271 C1263 0.929 . S
H1272 C1280 0.929 . S
H1273 C1282 0.930 . S
H1274 C1284 0.930 . S
H1275 C1287 0.929 . S
H1276 C1290 0.930 . S
H1277 C1292 0.960 . S
H1278 C1292 0.960 . S
H1279 C1292 0.960 . S
C1280 H1272 0.929 . S
C1280 C1281 1.377 . S
C1280 C1282 1.384 . S
C1281 C1280 1.377 . S
C1281 C1287 1.390 . S
C1282 H1273 0.930 . S
C1282 C1280 1.384 . S
C1282 C1283 1.372 . S
C1283 C1282 1.372 . S
C1283 C1284 1.400 . S
C1283 C1288 1.490 . S
C1284 H1274 0.930 . S
C1284 C1283 1.400 . S
C1284 C1287 1.386 . S
H1285 C1301 0.930 . S
H1286 C1302 0.931 . S
C1287 H1275 0.929 . S
C1287 C1281 1.390 . S
C1287 C1284 1.386 . S
C1288 C1283 1.490 . S
C1288 C1290 1.395 . S
C1288 C1291 1.403 . S
H1289 C1295 0.930 . S
C1290 H1276 0.930 . S
C1290 C1288 1.395 . S
C1290 C1293 1.403 . S
C1291 C1288 1.403 . S
C1291 C1292 1.524 . S
C1291 C1295 1.400 . S
C1292 H1277 0.960 . S
C1292 H1278 0.960 . S
C1292 H1279 0.960 . S
C1292 C1291 1.524 . S
C1293 C1290 1.403 . S
C1293 C1294 1.392 . S
C1293 C1297 1.495 . S
C1294 C1293 1.392 . S
C1294 C1295 1.385 . S
C1294 C1296 1.478 . S
C1295 H1289 0.930 . S
C1295 C1291 1.400 . S
C1295 C1294 1.385 . S
C1296 C1294 1.478 . S
C1296 C1298 1.381 . S
C1296 C1302 1.383 . S
C1297 C1293 1.495 . S
C1297 H1303 0.959 . S
C1297 H1304 0.961 . S
C1297 H1305 0.960 . S
C1298 C1296 1.381 . S
C1298 C1299 1.394 . S
C1298 H1306 0.930 . S
C1299 C1298 1.394 . S
C1299 C1300 1.383 . S
C1299 H1307 0.929 . S
C1300 C1299 1.383 . S
C1300 C1301 1.377 . S
C1301 H1285 0.930 . S
C1301 C1300 1.377 . S
C1301 C1302 1.379 . S
C1302 H1286 0.931 . S
C1302 C1296 1.383 . S
C1302 C1301 1.379 . S
H1303 C1297 0.959 . S
H1304 C1297 0.961 . S
H1305 C1297 0.960 . S
H1306 C1298 0.930 . S
H1307 C1299 0.929 . S
H1308 C1316 0.929 . S
H1309 C1318 0.930 . S
H1310 C1320 0.930 . S
H1311 C1323 0.929 . S
H1312 C1326 0.930 . S
H1313 C1328 0.960 . S
H1314 C1328 0.960 . S
H1315 C1328 0.960 . S
C1316 H1308 0.929 . S
C1316 C1317 1.377 . S
C1316 C1318 1.384 . S
C1317 C1316 1.377 . S
C1317 C1323 1.390 . S
C1318 H1309 0.930 . S
C1318 C1316 1.384 . S
C1318 C1319 1.372 . S
C1319 C1318 1.372 . S
C1319 C1320 1.400 . S
C1319 C1324 1.490 . S
C1320 H1310 0.930 . S
C1320 C1319 1.400 . S
C1320 C1323 1.386 . S
H1321 C1337 0.930 . S
H1322 C1338 0.931 . S
C1323 H1311 0.929 . S
C1323 C1317 1.390 . S
C1323 C1320 1.386 . S
C1324 C1319 1.490 . S
C1324 C1326 1.395 . S
C1324 C1327 1.403 . S
H1325 C1331 0.930 . S
C1326 H1312 0.930 . S
C1326 C1324 1.395 . S
C1326 C1329 1.403 . S
C1327 C1324 1.403 . S
C1327 C1328 1.524 . S
C1327 C1331 1.400 . S
C1328 H1313 0.960 . S
C1328 H1314 0.960 . S
C1328 H1315 0.960 . S
C1328 C1327 1.524 . S
C1329 C1326 1.403 . S
C1329 C1330 1.392 . S
C1329 C1333 1.495 . S
C1330 C1329 1.392 . S
C1330 C1331 1.385 . S
C1330 C1332 1.478 . S
C1331 H1325 0.930 . S
C1331 C1327 1.400 . S
C1331 C1330 1.385 . S
C1332 C1330 1.478 . S
C1332 C1334 1.381 . S
C1332 C1338 1.383 . S
C1333 C1329 1.495 . S
C1333 H1339 0.959 . S
C1333 H1340 0.961 . S
C1333 H1341 0.960 . S
C1334 C1332 1.381 . S
C1334 C1335 1.394 . S
C1334 H1342 0.930 . S
C1335 C1334 1.394 . S
C1335 C1336 1.383 . S
C1335 H1343 0.929 . S
C1336 C1335 1.383 . S
C1336 C1337 1.377 . S
C1337 H1321 0.930 . S
C1337 C1336 1.377 . S
C1337 C1338 1.379 . S
C1338 H1322 0.931 . S
C1338 C1332 1.383 . S
C1338 C1337 1.379 . S
H1339 C1333 0.959 . S
H1340 C1333 0.961 . S
H1341 C1333 0.960 . S
H1342 C1334 0.930 . S
H1343 C1335 0.929 . S
H1344 C1352 0.929 . S
H1345 C1354 0.930 . S
H1346 C1356 0.930 . S
H1347 C1359 0.929 . S
H1348 C1362 0.930 . S
H1349 C1364 0.960 . S
H1350 C1364 0.960 . S
H1351 C1364 0.960 . S
C1352 H1344 0.929 . S
C1352 C1353 1.377 . S
C1352 C1354 1.384 . S
C1353 C1352 1.377 . S
C1353 C1359 1.390 . S
C1354 H1345 0.930 . S
C1354 C1352 1.384 . S
C1354 C1355 1.372 . S
C1355 C1354 1.372 . S
C1355 C1356 1.400 . S
C1355 C1360 1.490 . S
C1356 H1346 0.930 . S
C1356 C1355 1.400 . S
C1356 C1359 1.386 . S
H1357 C1373 0.930 . S
H1358 C1374 0.931 . S
C1359 H1347 0.929 . S
C1359 C1353 1.390 . S
C1359 C1356 1.386 . S
C1360 C1355 1.490 . S
C1360 C1362 1.395 . S
C1360 C1363 1.403 . S
H1361 C1367 0.930 . S
C1362 H1348 0.930 . S
C1362 C1360 1.395 . S
C1362 C1365 1.403 . S
C1363 C1360 1.403 . S
C1363 C1364 1.524 . S
C1363 C1367 1.400 . S
C1364 H1349 0.960 . S
C1364 H1350 0.960 . S
C1364 H1351 0.960 . S
C1364 C1363 1.524 . S
C1365 C1362 1.403 . S
C1365 C1366 1.392 . S
C1365 C1369 1.495 . S
C1366 C1365 1.392 . S
C1366 C1367 1.385 . S
C1366 C1368 1.478 . S
C1367 H1361 0.930 . S
C1367 C1363 1.400 . S
C1367 C1366 1.385 . S
C1368 C1366 1.478 . S
C1368 C1370 1.381 . S
C1368 C1374 1.383 . S
C1369 C1365 1.495 . S
C1369 H1375 0.959 . S
C1369 H1376 0.961 . S
C1369 H1377 0.960 . S
C1370 C1368 1.381 . S
C1370 C1371 1.394 . S
C1370 H1378 0.930 . S
C1371 C1370 1.394 . S
C1371 C1372 1.383 . S
C1371 H1379 0.929 . S
C1372 C1371 1.383 . S
C1372 C1373 1.377 . S
C1373 H1357 0.930 . S
C1373 C1372 1.377 . S
C1373 C1374 1.379 . S
C1374 H1358 0.931 . S
C1374 C1368 1.383 . S
C1374 C1373 1.379 . S
H1375 C1369 0.959 . S
H1376 C1369 0.961 . S
H1377 C1369 0.960 . S
H1378 C1370 0.930 . S
H1379 C1371 0.929 . S
H1380 C1388 0.929 . S
H1381 C1390 0.930 . S
H1382 C1392 0.930 . S
H1383 C1395 0.929 . S
H1384 C1398 0.930 . S
H1385 C1400 0.960 . S
H1386 C1400 0.960 . S
H1387 C1400 0.960 . S
C1388 H1380 0.929 . S
C1388 C1389 1.377 . S
C1388 C1390 1.384 . S
C1389 C1388 1.377 . S
C1389 C1395 1.390 . S
C1390 H1381 0.930 . S
C1390 C1388 1.384 . S
C1390 C1391 1.372 . S
C1391 C1390 1.372 . S
C1391 C1392 1.400 . S
C1391 C1396 1.490 . S
C1392 H1382 0.930 . S
C1392 C1391 1.400 . S
C1392 C1395 1.386 . S
H1393 C1409 0.930 . S
H1394 C1410 0.931 . S
C1395 H1383 0.929 . S
C1395 C1389 1.390 . S
C1395 C1392 1.386 . S
C1396 C1391 1.490 . S
C1396 C1398 1.395 . S
C1396 C1399 1.403 . S
H1397 C1403 0.930 . S
C1398 H1384 0.930 . S
C1398 C1396 1.395 . S
C1398 C1401 1.403 . S
C1399 C1396 1.403 . S
C1399 C1400 1.524 . S
C1399 C1403 1.400 . S
C1400 H1385 0.960 . S
C1400 H1386 0.960 . S
C1400 H1387 0.960 . S
C1400 C1399 1.524 . S
C1401 C1398 1.403 . S
C1401 C1402 1.392 . S
C1401 C1405 1.495 . S
C1402 C1401 1.392 . S
C1402 C1403 1.385 . S
C1402 C1404 1.478 . S
C1403 H1397 0.930 . S
C1403 C1399 1.400 . S
C1403 C1402 1.385 . S
C1404 C1402 1.478 . S
C1404 C1406 1.381 . S
C1404 C1410 1.383 . S
C1405 C1401 1.495 . S
C1405 H1411 0.959 . S
C1405 H1412 0.961 . S
C1405 H1413 0.960 . S
C1406 C1404 1.381 . S
C1406 C1407 1.394 . S
C1406 H1414 0.930 . S
C1407 C1406 1.394 . S
C1407 C1408 1.383 . S
C1407 H1415 0.929 . S
C1408 C1407 1.383 . S
C1408 C1409 1.377 . S
C1409 H1393 0.930 . S
C1409 C1408 1.377 . S
C1409 C1410 1.379 . S
C1410 H1394 0.931 . S
C1410 C1404 1.383 . S
C1410 C1409 1.379 . S
H1411 C1405 0.959 . S
H1412 C1405 0.961 . S
H1413 C1405 0.960 . S
H1414 C1406 0.930 . S
H1415 C1407 0.929 . S
H1416 C1424 0.929 . S
H1417 C1426 0.930 . S
H1418 C1428 0.930 . S
H1419 C1431 0.929 . S
H1420 C1434 0.930 . S
H1421 C1436 0.960 . S
H1422 C1436 0.960 . S
H1423 C1436 0.960 . S
C1424 H1416 0.929 . S
C1424 C1425 1.377 . S
C1424 C1426 1.384 . S
C1425 C1424 1.377 . S
C1425 C1431 1.390 . S
C1426 H1417 0.930 . S
C1426 C1424 1.384 . S
C1426 C1427 1.372 . S
C1427 C1426 1.372 . S
C1427 C1428 1.400 . S
C1427 C1432 1.490 . S
C1428 H1418 0.930 . S
C1428 C1427 1.400 . S
C1428 C1431 1.386 . S
H1429 C1445 0.930 . S
H1430 C1446 0.931 . S
C1431 H1419 0.929 . S
C1431 C1425 1.390 . S
C1431 C1428 1.386 . S
C1432 C1427 1.490 . S
C1432 C1434 1.395 . S
C1432 C1435 1.403 . S
H1433 C1439 0.930 . S
C1434 H1420 0.930 . S
C1434 C1432 1.395 . S
C1434 C1437 1.403 . S
C1435 C1432 1.403 . S
C1435 C1436 1.524 . S
C1435 C1439 1.400 . S
C1436 H1421 0.960 . S
C1436 H1422 0.960 . S
C1436 H1423 0.960 . S
C1436 C1435 1.524 . S
C1437 C1434 1.403 . S
C1437 C1438 1.392 . S
C1437 C1441 1.495 . S
C1438 C1437 1.392 . S
C1438 C1439 1.385 . S
C1438 C1440 1.478 . S
C1439 H1433 0.930 . S
C1439 C1435 1.400 . S
C1439 C1438 1.385 . S
C1440 C1438 1.478 . S
C1440 C1442 1.381 . S
C1440 C1446 1.383 . S
C1441 C1437 1.495 . S
C1441 H1447 0.959 . S
C1441 H1448 0.961 . S
C1441 H1449 0.960 . S
C1442 C1440 1.381 . S
C1442 C1443 1.394 . S
C1442 H1450 0.930 . S
C1443 C1442 1.394 . S
C1443 C1444 1.383 . S
C1443 H1451 0.929 . S
C1444 C1443 1.383 . S
C1444 C1445 1.377 . S
C1445 H1429 0.930 . S
C1445 C1444 1.377 . S
C1445 C1446 1.379 . S
C1446 H1430 0.931 . S
C1446 C1440 1.383 . S
C1446 C1445 1.379 . S
H1447 C1441 0.959 . S
H1448 C1441 0.961 . S
H1449 C1441 0.960 . S
H1450 C1442 0.930 . S
H1451 C1443 0.929 . S
H1452 C1460 0.929 . S
H1453 C1462 0.930 . S
H1454 C1464 0.930 . S
H1455 C1467 0.929 . S
H1456 C1470 0.930 . S
H1457 C1472 0.960 . S
H1458 C1472 0.960 . S
H1459 C1472 0.960 . S
C1460 H1452 0.929 . S
C1460 C1461 1.377 . S
C1460 C1462 1.384 . S
C1461 C1460 1.377 . S
C1461 C1467 1.390 . S
C1462 H1453 0.930 . S
C1462 C1460 1.384 . S
C1462 C1463 1.372 . S
C1463 C1462 1.372 . S
C1463 C1464 1.400 . S
C1463 C1468 1.490 . S
C1464 H1454 0.930 . S
C1464 C1463 1.400 . S
C1464 C1467 1.386 . S
H1465 C1481 0.930 . S
H1466 C1482 0.931 . S
C1467 H1455 0.929 . S
C1467 C1461 1.390 . S
C1467 C1464 1.386 . S
C1468 C1463 1.490 . S
C1468 C1470 1.395 . S
C1468 C1471 1.403 . S
H1469 C1475 0.930 . S
C1470 H1456 0.930 . S
C1470 C1468 1.395 . S
C1470 C1473 1.403 . S
C1471 C1468 1.403 . S
C1471 C1472 1.524 . S
C1471 C1475 1.400 . S
C1472 H1457 0.960 . S
C1472 H1458 0.960 . S
C1472 H1459 0.960 . S
C1472 C1471 1.524 . S
C1473 C1470 1.403 . S
C1473 C1474 1.392 . S
C1473 C1477 1.495 . S
C1474 C1473 1.392 . S
C1474 C1475 1.385 . S
C1474 C1476 1.478 . S
C1475 H1469 0.930 . S
C1475 C1471 1.400 . S
C1475 C1474 1.385 . S
C1476 C1474 1.478 . S
C1476 C1478 1.381 . S
C1476 C1482 1.383 . S
C1477 C1473 1.495 . S
C1477 H1483 0.959 . S
C1477 H1484 0.961 . S
C1477 H1485 0.960 . S
C1478 C1476 1.381 . S
C1478 C1479 1.394 . S
C1478 H1486 0.930 . S
C1479 C1478 1.394 . S
C1479 C1480 1.383 . S
C1479 H1487 0.929 . S
C1480 C1479 1.383 . S
C1480 C1481 1.377 . S
C1481 H1465 0.930 . S
C1481 C1480 1.377 . S
C1481 C1482 1.379 . S
C1482 H1466 0.931 . S
C1482 C1476 1.383 . S
C1482 C1481 1.379 . S
H1483 C1477 0.959 . S
H1484 C1477 0.961 . S
H1485 C1477 0.960 . S
H1486 C1478 0.930 . S
H1487 C1479 0.929 . S
H1488 C1496 0.929 . S
H1489 C1498 0.930 . S
H1490 C1500 0.930 . S
H1491 C1503 0.929 . S
H1492 C1506 0.930 . S
H1493 C1508 0.960 . S
H1494 C1508 0.960 . S
H1495 C1508 0.960 . S
C1496 H1488 0.929 . S
C1496 C1497 1.377 . S
C1496 C1498 1.384 . S
C1497 C1496 1.377 . S
C1497 C1503 1.390 . S
C1498 H1489 0.930 . S
C1498 C1496 1.384 . S
C1498 C1499 1.372 . S
C1499 C1498 1.372 . S
C1499 C1500 1.400 . S
C1499 C1504 1.490 . S
C1500 H1490 0.930 . S
C1500 C1499 1.400 . S
C1500 C1503 1.386 . S
H1501 C1517 0.930 . S
H1502 C1518 0.931 . S
C1503 H1491 0.929 . S
C1503 C1497 1.390 . S
C1503 C1500 1.386 . S
C1504 C1499 1.490 . S
C1504 C1506 1.395 . S
C1504 C1507 1.403 . S
H1505 C1511 0.930 . S
C1506 H1492 0.930 . S
C1506 C1504 1.395 . S
C1506 C1509 1.403 . S
C1507 C1504 1.403 . S
C1507 C1508 1.524 . S
C1507 C1511 1.400 . S
C1508 H1493 0.960 . S
C1508 H1494 0.960 . S
C1508 H1495 0.960 . S
C1508 C1507 1.524 . S
C1509 C1506 1.403 . S
C1509 C1510 1.392 . S
C1509 C1513 1.495 . S
C1510 C1509 1.392 . S
C1510 C1511 1.385 . S
C1510 C1512 1.478 . S
C1511 H1505 0.930 . S
C1511 C1507 1.400 . S
C1511 C1510 1.385 . S
C1512 C1510 1.478 . S
C1512 C1514 1.381 . S
C1512 C1518 1.383 . S
C1513 C1509 1.495 . S
C1513 H1519 0.959 . S
C1513 H1520 0.961 . S
C1513 H1521 0.960 . S
C1514 C1512 1.381 . S
C1514 C1515 1.394 . S
C1514 H1522 0.930 . S
C1515 C1514 1.394 . S
C1515 C1516 1.383 . S
C1515 H1523 0.929 . S
C1516 C1515 1.383 . S
C1516 C1517 1.377 . S
C1517 H1501 0.930 . S
C1517 C1516 1.377 . S
C1517 C1518 1.379 . S
C1518 H1502 0.931 . S
C1518 C1512 1.383 . S
C1518 C1517 1.379 . S
H1519 C1513 0.959 . S
H1520 C1513 0.961 . S
H1521 C1513 0.960 . S
H1522 C1514 0.930 . S
H1523 C1515 0.929 . S
H1524 C1532 0.929 . S
H1525 C1534 0.930 . S
H1526 C1536 0.930 . S
H1527 C1539 0.929 . S
H1528 C1542 0.930 . S
H1529 C1544 0.960 . S
H1530 C1544 0.960 . S
H1531 C1544 0.960 . S
C1532 H1524 0.929 . S
C1532 C1533 1.377 . S
C1532 C1534 1.384 . S
C1533 C1532 1.377 . S
C1533 C1539 1.390 . S
C1534 H1525 0.930 . S
C1534 C1532 1.384 . S
C1534 C1535 1.372 . S
C1535 C1534 1.372 . S
C1535 C1536 1.400 . S
C1535 C1540 1.490 . S
C1536 H1526 0.930 . S
C1536 C1535 1.400 . S
C1536 C1539 1.386 . S
H1537 C1553 0.930 . S
H1538 C1554 0.931 . S
C1539 H1527 0.929 . S
C1539 C1533 1.390 . S
C1539 C1536 1.386 . S
C1540 C1535 1.490 . S
C1540 C1542 1.395 . S
C1540 C1543 1.403 . S
H1541 C1547 0.930 . S
C1542 H1528 0.930 . S
C1542 C1540 1.395 . S
C1542 C1545 1.403 . S
C1543 C1540 1.403 . S
C1543 C1544 1.524 . S
C1543 C1547 1.400 . S
C1544 H1529 0.960 . S
C1544 H1530 0.960 . S
C1544 H1531 0.960 . S
C1544 C1543 1.524 . S
C1545 C1542 1.403 . S
C1545 C1546 1.392 . S
C1545 C1549 1.495 . S
C1546 C1545 1.392 . S
C1546 C1547 1.385 . S
C1546 C1548 1.478 . S
C1547 H1541 0.930 . S
C1547 C1543 1.400 . S
C1547 C1546 1.385 . S
C1548 C1546 1.478 . S
C1548 C1550 1.381 . S
C1548 C1554 1.383 . S
C1549 C1545 1.495 . S
C1549 H1555 0.959 . S
C1549 H1556 0.961 . S
C1549 H1557 0.960 . S
C1550 C1548 1.381 . S
C1550 C1551 1.394 . S
C1550 H1558 0.930 . S
C1551 C1550 1.394 . S
C1551 C1552 1.383 . S
C1551 H1559 0.929 . S
C1552 C1551 1.383 . S
C1552 C1553 1.377 . S
C1553 H1537 0.930 . S
C1553 C1552 1.377 . S
C1553 C1554 1.379 . S
C1554 H1538 0.931 . S
C1554 C1548 1.383 . S
C1554 C1553 1.379 . S
H1555 C1549 0.959 . S
H1556 C1549 0.961 . S
H1557 C1549 0.960 . S
H1558 C1550 0.930 . S
H1559 C1551 0.929 . S
H1560 C1568 0.929 . S
H1561 C1570 0.930 . S
H1562 C1572 0.930 . S
H1563 C1575 0.929 . S
H1564 C1578 0.930 . S
H1565 C1580 0.960 . S
H1566 C1580 0.960 . S
H1567 C1580 0.960 . S
C1568 H1560 0.929 . S
C1568 C1569 1.377 . S
C1568 C1570 1.384 . S
C1569 C1568 1.377 . S
C1569 C1575 1.390 . S
C1570 H1561 0.930 . S
C1570 C1568 1.384 . S
C1570 C1571 1.372 . S
C1571 C1570 1.372 . S
C1571 C1572 1.400 . S
C1571 C1576 1.490 . S
C1572 H1562 0.930 . S
C1572 C1571 1.400 . S
C1572 C1575 1.386 . S
H1573 C1589 0.930 . S
H1574 C1590 0.931 . S
C1575 H1563 0.929 . S
C1575 C1569 1.390 . S
C1575 C1572 1.386 . S
C1576 C1571 1.490 . S
C1576 C1578 1.395 1_556 S
C1576 C1579 1.403 . S
H1577 C1583 0.938 . S
C1578 H1564 0.930 . S
C1578 C1576 1.395 1_554 S
C1578 C1581 1.403 . S
C1579 C1576 1.403 . S
C1579 C1580 1.524 . S
C1579 C1583 1.434 . S
C1580 H1565 0.960 . S
C1580 H1566 0.960 . S
C1580 H1567 0.960 . S
C1580 C1579 1.524 . S
C1581 C1578 1.403 . S
C1581 C1582 1.392 . S
C1581 C1585 1.495 . S
C1582 C1581 1.392 . S
C1582 C1583 1.345 1_554 S
C1582 C1584 1.478 . S
C1583 H1577 0.938 . S
C1583 C1579 1.434 . S
C1583 C1582 1.345 1_556 S
C1584 C1582 1.478 . S
C1584 C1586 1.381 . S
C1584 C1590 1.383 . S
C1585 C1581 1.495 . S
C1585 H1591 0.959 . S
C1585 H1592 0.961 . S
C1585 H1593 0.960 . S
C1586 C1584 1.381 . S
C1586 C1587 1.394 . S
C1586 H1594 0.930 . S
C1587 C1586 1.394 . S
C1587 C1588 1.383 . S
C1587 H1595 0.929 . S
C1588 C1587 1.383 . S
C1588 C1589 1.377 . S
C1589 H1573 0.930 . S
C1589 C1588 1.377 . S
C1589 C1590 1.379 . S
C1590 H1574 0.931 . S
C1590 C1584 1.383 . S
C1590 C1589 1.379 . S
H1591 C1585 0.959 . S
H1592 C1585 0.961 . S
H1593 C1585 0.960 . S
H1594 C1586 0.930 . S
H1595 C1587 0.929 . S
H1596 C1604 0.929 . S
H1597 C1606 0.930 . S
H1598 C1608 0.930 . S
H1599 C1611 0.929 . S
H1600 C1614 0.930 . S
H1601 C1616 0.960 . S
H1602 C1616 0.960 . S
H1603 C1616 0.960 . S
C1604 H1596 0.929 . S
C1604 C1605 1.377 . S
C1604 C1606 1.384 . S
C1605 C1604 1.377 . S
C1605 C1611 1.390 . S
C1606 H1597 0.930 . S
C1606 C1604 1.384 . S
C1606 C1607 1.372 . S
C1607 C1606 1.372 . S
C1607 C1608 1.400 . S
C1607 C1612 1.490 . S
C1608 H1598 0.930 . S
C1608 C1607 1.400 . S
C1608 C1611 1.386 . S
H1609 C1625 0.930 . S
H1610 C1626 0.931 . S
C1611 H1599 0.929 . S
C1611 C1605 1.390 . S
C1611 C1608 1.386 . S
C1612 C1607 1.490 . S
C1612 C1614 1.395 1_455 S
C1612 C1615 1.403 . S
H1613 C1619 0.941 1_455 S
C1614 H1600 0.930 . S
C1614 C1612 1.395 1_655 S
C1614 C1617 1.403 . S
C1615 C1612 1.403 . S
C1615 C1616 1.524 . S
C1615 C1619 1.378 1_455 S
C1616 H1601 0.960 . S
C1616 H1602 0.960 . S
C1616 H1603 0.960 . S
C1616 C1615 1.524 . S
C1617 C1614 1.403 . S
C1617 C1618 1.392 . S
C1617 C1621 1.495 . S
C1618 C1617 1.392 . S
C1618 C1619 1.403 . S
C1618 C1620 1.478 . S
C1619 H1613 0.941 1_655 S
C1619 C1615 1.378 1_655 S
C1619 C1618 1.403 . S
C1620 C1618 1.478 . S
C1620 C1622 1.381 . S
C1620 C1626 1.383 . S
C1621 C1617 1.495 . S
C1621 H1627 0.959 . S
C1621 H1628 0.961 . S
C1621 H1629 0.960 . S
C1622 C1620 1.381 . S
C1622 C1623 1.394 . S
C1622 H1630 0.930 . S
C1623 C1622 1.394 . S
C1623 C1624 1.383 . S
C1623 H1631 0.929 . S
C1624 C1623 1.383 . S
C1624 C1625 1.377 . S
C1625 H1609 0.930 . S
C1625 C1624 1.377 . S
C1625 C1626 1.379 . S
C1626 H1610 0.931 . S
C1626 C1620 1.383 . S
C1626 C1625 1.379 . S
H1627 C1621 0.959 . S
H1628 C1621 0.961 . S
H1629 C1621 0.960 . S
H1630 C1622 0.930 . S
H1631 C1623 0.929 . S
H1632 C1640 0.929 . S
H1633 C1642 0.930 . S
H1634 C1644 0.930 . S
H1635 C1647 0.929 . S
H1636 C1650 0.930 . S
H1637 C1652 0.960 . S
H1638 C1652 0.960 . S
H1639 C1652 0.960 . S
C1640 H1632 0.929 . S
C1640 C1641 1.377 . S
C1640 C1642 1.384 . S
C1641 C1640 1.377 . S
C1641 C1647 1.390 . S
C1642 H1633 0.930 . S
C1642 C1640 1.384 . S
C1642 C1643 1.372 . S
C1643 C1642 1.372 . S
C1643 C1644 1.400 . S
C1643 C1648 1.490 . S
C1644 H1634 0.930 . S
C1644 C1643 1.400 . S
C1644 C1647 1.386 . S
H1645 C1661 0.930 . S
H1646 C1662 0.931 . S
C1647 H1635 0.929 . S
C1647 C1641 1.390 . S
C1647 C1644 1.386 . S
C1648 C1643 1.490 . S
C1648 C1650 1.395 1_554 S
C1648 C1651 1.403 1_565 S
H1649 C1655 0.930 . S
C1650 H1636 0.930 . S
C1650 C1648 1.395 1_556 S
C1650 C1653 1.403 . S
C1651 C1648 1.403 1_545 S
C1651 C1652 1.524 . S
C1651 C1655 1.400 . S
C1652 H1637 0.960 . S
C1652 H1638 0.960 . S
C1652 H1639 0.960 . S
C1652 C1651 1.524 . S
C1653 C1650 1.403 . S
C1653 C1654 1.392 1_565 S
C1653 C1657 1.495 . S
C1654 C1653 1.392 1_545 S
C1654 C1655 1.385 1_556 S
C1654 C1656 1.478 . S
C1655 H1649 0.930 . S
C1655 C1651 1.400 . S
C1655 C1654 1.385 1_554 S
C1656 C1654 1.478 . S
C1656 C1658 1.381 . S
C1656 C1662 1.383 . S
C1657 C1653 1.495 . S
C1657 H1663 0.959 . S
C1657 H1664 0.961 . S
C1657 H1665 0.960 . S
C1658 C1656 1.381 . S
C1658 C1659 1.394 . S
C1658 H1666 0.930 . S
C1659 C1658 1.394 . S
C1659 C1660 1.383 . S
C1659 H1667 0.929 . S
C1660 C1659 1.383 . S
C1660 C1661 1.377 . S
C1661 H1645 0.930 . S
C1661 C1660 1.377 . S
C1661 C1662 1.379 . S
C1662 H1646 0.931 . S
C1662 C1656 1.383 . S
C1662 C1661 1.379 . S
H1663 C1657 0.959 . S
H1664 C1657 0.961 . S
H1665 C1657 0.960 . S
H1666 C1658 0.930 . S
H1667 C1659 0.929 . S
H1668 C1676 0.929 . S
H1669 C1678 0.930 . S
H1670 C1680 0.930 . S
H1671 C1683 0.929 . S
H1672 C1686 0.930 . S
H1673 C1688 0.960 . S
H1674 C1688 0.960 . S
H1675 C1688 0.960 . S
C1676 H1668 0.929 . S
C1676 C1677 1.377 . S
C1676 C1678 1.384 . S
C1677 C1676 1.377 . S
C1677 C1683 1.390 . S
C1678 H1669 0.930 . S
C1678 C1676 1.384 . S
C1678 C1679 1.372 . S
C1679 C1678 1.372 . S
C1679 C1680 1.400 . S
C1679 C1684 1.490 . S
C1680 H1670 0.930 . S
C1680 C1679 1.400 . S
C1680 C1683 1.386 . S
H1681 C1697 0.930 . S
H1682 C1698 0.931 . S
C1683 H1671 0.929 . S
C1683 C1677 1.390 . S
C1683 C1680 1.386 . S
C1684 C1679 1.490 . S
C1684 C1686 1.395 . S
C1684 C1687 1.403 . S
H1685 C1691 0.930 . S
C1686 H1672 0.930 . S
C1686 C1684 1.395 . S
C1686 C1689 1.403 . S
C1687 C1684 1.403 . S
C1687 C1688 1.524 . S
C1687 C1691 1.400 . S
C1688 H1673 0.960 . S
C1688 H1674 0.960 . S
C1688 H1675 0.960 . S
C1688 C1687 1.524 . S
C1689 C1686 1.403 . S
C1689 C1690 1.392 . S
C1689 C1693 1.495 . S
C1690 C1689 1.392 . S
C1690 C1691 1.385 . S
C1690 C1692 1.478 . S
C1691 H1685 0.930 . S
C1691 C1687 1.400 . S
C1691 C1690 1.385 . S
C1692 C1690 1.478 . S
C1692 C1694 1.381 . S
C1692 C1698 1.383 . S
C1693 C1689 1.495 . S
C1693 H1699 0.959 . S
C1693 H1700 0.961 . S
C1693 H1701 0.960 . S
C1694 C1692 1.381 . S
C1694 C1695 1.394 . S
C1694 H1702 0.930 . S
C1695 C1694 1.394 . S
C1695 C1696 1.383 . S
C1695 H1703 0.929 . S
C1696 C1695 1.383 . S
C1696 C1697 1.377 . S
C1697 H1681 0.930 . S
C1697 C1696 1.377 . S
C1697 C1698 1.379 . S
C1698 H1682 0.931 . S
C1698 C1692 1.383 . S
C1698 C1697 1.379 . S
H1699 C1693 0.959 . S
H1700 C1693 0.961 . S
H1701 C1693 0.960 . S
H1702 C1694 0.930 . S
H1703 C1695 0.929 . S
H1704 C1712 0.929 . S
H1705 C1714 0.930 . S
H1706 C1716 0.930 . S
H1707 C1719 0.929 . S
H1708 C1722 0.930 . S
H1709 C1724 0.960 . S
H1710 C1724 0.960 . S
H1711 C1724 0.960 . S
C1712 H1704 0.929 . S
C1712 C1713 1.377 . S
C1712 C1714 1.384 . S
C1713 C1712 1.377 . S
C1713 C1719 1.390 . S
C1714 H1705 0.930 . S
C1714 C1712 1.384 . S
C1714 C1715 1.372 . S
C1715 C1714 1.372 . S
C1715 C1716 1.400 . S
C1715 C1720 1.490 . S
C1716 H1706 0.930 . S
C1716 C1715 1.400 . S
C1716 C1719 1.386 . S
H1717 C1733 0.930 . S
H1718 C1734 0.931 . S
C1719 H1707 0.929 . S
C1719 C1713 1.390 . S
C1719 C1716 1.386 . S
C1720 C1715 1.490 . S
C1720 C1722 1.395 1_655 S
C1720 C1723 1.403 1_556 S
H1721 C1727 0.930 . S
C1722 H1708 0.930 . S
C1722 C1720 1.395 1_455 S
C1722 C1725 1.403 . S
C1723 C1720 1.403 1_554 S
C1723 C1724 1.524 . S
C1723 C1727 1.400 . S
C1724 H1709 0.960 . S
C1724 H1710 0.960 . S
C1724 H1711 0.960 . S
C1724 C1723 1.524 . S
C1725 C1722 1.403 . S
C1725 C1726 1.392 1_556 S
C1725 C1729 1.495 . S
C1726 C1725 1.392 1_554 S
C1726 C1727 1.385 1_455 S
C1726 C1728 1.478 . S
C1727 H1721 0.930 . S
C1727 C1723 1.400 . S
C1727 C1726 1.385 1_655 S
C1728 C1726 1.478 . S
C1728 C1730 1.381 . S
C1728 C1734 1.383 . S
C1729 C1725 1.495 . S
C1729 H1735 0.959 . S
C1729 H1736 0.961 . S
C1729 H1737 0.960 . S
C1730 C1728 1.381 . S
C1730 C1731 1.394 . S
C1730 H1738 0.930 . S
C1731 C1730 1.394 . S
C1731 C1732 1.383 . S
C1731 H1739 0.929 . S
C1732 C1731 1.383 . S
C1732 C1733 1.377 . S
C1733 H1717 0.930 . S
C1733 C1732 1.377 . S
C1733 C1734 1.379 . S
C1734 H1718 0.931 . S
C1734 C1728 1.383 . S
C1734 C1733 1.379 . S
H1735 C1729 0.959 . S
H1736 C1729 0.961 . S
H1737 C1729 0.960 . S
H1738 C1730 0.930 . S
H1739 C1731 0.929 . S
H1740 C1748 0.929 . S
H1741 C1750 0.930 . S
H1742 C1752 0.930 . S
H1743 C1755 0.929 . S
H1744 C1758 0.930 . S
H1745 C1760 0.960 . S
H1746 C1760 0.960 . S
H1747 C1760 0.960 . S
C1748 H1740 0.929 . S
C1748 C1749 1.377 . S
C1748 C1750 1.384 . S
C1749 C1748 1.377 . S
C1749 C1755 1.390 . S
C1750 H1741 0.930 . S
C1750 C1748 1.384 . S
C1750 C1751 1.372 . S
C1751 C1750 1.372 . S
C1751 C1752 1.400 . S
C1751 C1756 1.490 . S
C1752 H1742 0.930 . S
C1752 C1751 1.400 . S
C1752 C1755 1.386 . S
H1753 C1769 0.930 . S
H1754 C1770 0.931 . S
C1755 H1743 0.929 . S
C1755 C1749 1.390 . S
C1755 C1752 1.386 . S
C1756 C1751 1.490 . S
C1756 C1758 1.395 1_565 S
C1756 C1759 1.403 . S
H1757 C1763 0.939 . S
C1758 H1744 0.930 . S
C1758 C1756 1.395 1_545 S
C1758 C1761 1.403 . S
C1759 C1756 1.403 . S
C1759 C1760 1.524 . S
C1759 C1763 1.430 . S
C1760 H1745 0.960 . S
C1760 H1746 0.960 . S
C1760 H1747 0.960 . S
C1760 C1759 1.524 . S
C1761 C1758 1.403 . S
C1761 C1762 1.392 . S
C1761 C1765 1.495 . S
C1762 C1761 1.392 . S
C1762 C1763 1.348 1_545 S
C1762 C1764 1.478 . S
C1763 H1757 0.939 . S
C1763 C1759 1.430 . S
C1763 C1762 1.348 1_565 S
C1764 C1762 1.478 . S
C1764 C1766 1.381 . S
C1764 C1770 1.383 . S
C1765 C1761 1.495 . S
C1765 H1771 0.959 . S
C1765 H1772 0.961 . S
C1765 H1773 0.960 . S
C1766 C1764 1.381 . S
C1766 C1767 1.394 . S
C1766 H1774 0.930 . S
C1767 C1766 1.394 . S
C1767 C1768 1.383 . S
C1767 H1775 0.929 . S
C1768 C1767 1.383 . S
C1768 C1769 1.377 . S
C1769 H1753 0.930 . S
C1769 C1768 1.377 . S
C1769 C1770 1.379 . S
C1770 H1754 0.931 . S
C1770 C1764 1.383 . S
C1770 C1769 1.379 . S
H1771 C1765 0.959 . S
H1772 C1765 0.961 . S
H1773 C1765 0.960 . S
H1774 C1766 0.930 . S
H1775 C1767 0.929 . S
C489 C179 1.172 . S
C508 C15 1.208 . S
C525 C219 1.178 . S
C544 C55 1.207 . S
C561 C95 1.221 . S
C580 C19 1.199 . S
C597 C135 1.218 . S
C616 C59 1.192 . S
C633 C175 1.219 . S
C652 C99 1.163 . S
C669 C139 1.182 . S
C688 C215 1.215 . S
C705 C339 1.183 . S
C724 C255 1.218 . S
C741 C295 1.220 . S
C760 C379 1.209 . S
C777 C419 1.172 . S
C796 C335 1.205 . S
C813 C375 1.216 . S
C832 C459 1.142 . S
C849 C415 1.221 . S
C868 C259 1.205 . S
C885 C299 1.186 . S
C904 C455 1.228 . S
C921 C170 1.727 . S
C940 C6 1.741 . S
C957 C46 1.735 . S
C976 C210 1.736 . S
C993 C86 1.739 . S
C1012 C10 1.739 . S
C1029 C126 1.738 . S
C1048 C50 1.712 . S
C1065 C90 1.727 . S
C1084 C166 1.740 . S
C1101 C130 1.734 . S
C1120 C206 1.720 . S
C1137 C330 1.729 . S
C1156 C246 1.750 . S
C1173 C286 1.735 . S
C1192 C370 1.743 . S
C1209 C326 1.739 . S
C1228 C410 1.710 . S
C1245 C450 1.732 . S
C1264 C366 1.744 . S
C1281 C406 1.739 . S
C1300 C250 1.710 . S
C1317 C290 1.728 . S
C1336 C446 1.749 . S
C1353 C418 1.648 . S
C1372 C18 1.611 . S
C1389 C58 1.641 . S
C1408 C458 1.670 . S
C1425 C98 1.638 . S
C1444 C258 1.645 . S
C1461 C138 1.638 . S
C1480 C298 1.640 . S
C1497 C178 1.647 . S
C1516 C338 1.656 . S
C1533 C378 1.637 . S
C1552 C218 1.661 . S
C1569 C369 2.161 . S
C1588 C9 2.157 . S
C1605 C409 2.162 . S
C1624 C49 2.158 . S
C1641 C89 2.161 . S
C1660 C449 2.156 . S
C1677 C129 2.161 . S
C1696 C249 2.156 . S
C1713 C289 2.162 . S
C1732 C169 2.159 . S
C1749 C329 2.162 . S
C1768 C209 2.159 . S
