# Generated by pormake.
# Topology zfi, (5)-cn, num edge types: 1
# Building blocks:
#     Node 0, Type 0, BuildingBlock: XOMCOT_clean_sbu_0, # of connection points: 5
#     Node 1, Type 0, BuildingBlock: XOMCOT_clean_sbu_0, # of connection points: 5
#     Node 2, Type 0, BuildingBlock: XOMCOT_clean_sbu_0, # of connection points: 5
#     Node 3, Type 0, BuildingBlock: XOMCOT_clean_sbu_0, # of connection points: 5
#     Node 4, Type 0, BuildingBlock: XOMCOT_clean_sbu_0, # of connection points: 5
#     Node 5, Type 0, BuildingBlock: XOMCOT_clean_sbu_0, # of connection points: 5
#     Node 6, Type 0, BuildingBlock: XOMCOT_clean_sbu_0, # of connection points: 5
#     Node 7, Type 0, BuildingBlock: XOMCOT_clean_sbu_0, # of connection points: 5
#     Node 8, Type 0, BuildingBlock: XOMCOT_clean_sbu_0, # of connection points: 5
#     Node 9, Type 0, BuildingBlock: XOMCOT_clean_sbu_0, # of connection points: 5
#     Node 10, Type 0, BuildingBlock: XOMCOT_clean_sbu_0, # of connection points: 5
#     Node 11, Type 0, BuildingBlock: XOMCOT_clean_sbu_0, # of connection points: 5
#     Node 12, Type 0, BuildingBlock: XOMCOT_clean_sbu_0, # of connection points: 5
#     Node 13, Type 0, BuildingBlock: XOMCOT_clean_sbu_0, # of connection points: 5
#     Node 14, Type 0, BuildingBlock: XOMCOT_clean_sbu_0, # of connection points: 5
#     Node 15, Type 0, BuildingBlock: XOMCOT_clean_sbu_0, # of connection points: 5
#     Edge 16, Type (0, 0), BuildingBlock: EZIPEK_clean_linker_0, # of connection points: 2
#     Edge 17, Type (0, 0), BuildingBlock: EZIPEK_clean_linker_0, # of connection points: 2
#     Edge 18, Type (0, 0), BuildingBlock: EZIPEK_clean_linker_0, # of connection points: 2
#     Edge 19, Type (0, 0), BuildingBlock: EZIPEK_clean_linker_0, # of connection points: 2
#     Edge 20, Type (0, 0), BuildingBlock: EZIPEK_clean_linker_0, # of connection points: 2
#     Edge 21, Type (0, 0), BuildingBlock: EZIPEK_clean_linker_0, # of connection points: 2
#     Edge 22, Type (0, 0), BuildingBlock: EZIPEK_clean_linker_0, # of connection points: 2
#     Edge 23, Type (0, 0), BuildingBlock: EZIPEK_clean_linker_0, # of connection points: 2
#     Edge 24, Type (0, 0), BuildingBlock: EZIPEK_clean_linker_0, # of connection points: 2
#     Edge 25, Type (0, 0), BuildingBlock: EZIPEK_clean_linker_0, # of connection points: 2
#     Edge 26, Type (0, 0), BuildingBlock: EZIPEK_clean_linker_0, # of connection points: 2
#     Edge 27, Type (0, 0), BuildingBlock: EZIPEK_clean_linker_0, # of connection points: 2
#     Edge 28, Type (0, 0), BuildingBlock: EZIPEK_clean_linker_0, # of connection points: 2
#     Edge 29, Type (0, 0), BuildingBlock: EZIPEK_clean_linker_0, # of connection points: 2
#     Edge 30, Type (0, 0), BuildingBlock: EZIPEK_clean_linker_0, # of connection points: 2
#     Edge 31, Type (0, 0), BuildingBlock: EZIPEK_clean_linker_0, # of connection points: 2
#     Edge 32, Type (0, 0), BuildingBlock: EZIPEK_clean_linker_0, # of connection points: 2
#     Edge 33, Type (0, 0), BuildingBlock: EZIPEK_clean_linker_0, # of connection points: 2
#     Edge 34, Type (0, 0), BuildingBlock: EZIPEK_clean_linker_0, # of connection points: 2
#     Edge 35, Type (0, 0), BuildingBlock: EZIPEK_clean_linker_0, # of connection points: 2
#     Edge 36, Type (0, 0), BuildingBlock: EZIPEK_clean_linker_0, # of connection points: 2
#     Edge 37, Type (0, 0), BuildingBlock: EZIPEK_clean_linker_0, # of connection points: 2
#     Edge 38, Type (0, 0), BuildingBlock: EZIPEK_clean_linker_0, # of connection points: 2
#     Edge 39, Type (0, 0), BuildingBlock: EZIPEK_clean_linker_0, # of connection points: 2
#     Edge 40, Type (0, 0), BuildingBlock: EZIPEK_clean_linker_0, # of connection points: 2
#     Edge 41, Type (0, 0), BuildingBlock: EZIPEK_clean_linker_0, # of connection points: 2
#     Edge 42, Type (0, 0), BuildingBlock: EZIPEK_clean_linker_0, # of connection points: 2
#     Edge 43, Type (0, 0), BuildingBlock: EZIPEK_clean_linker_0, # of connection points: 2
#     Edge 44, Type (0, 0), BuildingBlock: EZIPEK_clean_linker_0, # of connection points: 2
#     Edge 45, Type (0, 0), BuildingBlock: EZIPEK_clean_linker_0, # of connection points: 2
#     Edge 46, Type (0, 0), BuildingBlock: EZIPEK_clean_linker_0, # of connection points: 2
#     Edge 47, Type (0, 0), BuildingBlock: EZIPEK_clean_linker_0, # of connection points: 2
#     Edge 48, Type (0, 0), BuildingBlock: EZIPEK_clean_linker_0, # of connection points: 2
#     Edge 49, Type (0, 0), BuildingBlock: EZIPEK_clean_linker_0, # of connection points: 2
#     Edge 50, Type (0, 0), BuildingBlock: EZIPEK_clean_linker_0, # of connection points: 2
#     Edge 51, Type (0, 0), BuildingBlock: EZIPEK_clean_linker_0, # of connection points: 2
#     Edge 52, Type (0, 0), BuildingBlock: EZIPEK_clean_linker_0, # of connection points: 2
#     Edge 53, Type (0, 0), BuildingBlock: EZIPEK_clean_linker_0, # of connection points: 2
#     Edge 54, Type (0, 0), BuildingBlock: EZIPEK_clean_linker_0, # of connection points: 2
#     Edge 55, Type (0, 0), BuildingBlock: EZIPEK_clean_linker_0, # of connection points: 2
# Relax obj value: 0.099
# Max RMSD: 0.124
# Mean RMSD: 0.124
data_MOF--net-zfi--node1-XOMCOT_clean_sbu_0--edge1-EZIPEK_clean_linker_0
_symmetry_space_group_name_H-M    P1
_symmetry_Int_Tables_number       1
_symmetry_cell_setting            triclinic
loop_
_symmetry_equiv_pos_as_xyz
'x, y, z'
_cell_length_a     29.778585
_cell_length_b     29.714905
_cell_length_c     35.027679
_cell_angle_alpha  89.931942
_cell_angle_beta   90.077044
_cell_angle_gamma 90.022663
loop_
_atom_site_label
_atom_site_type_symbol
_atom_site_fract_x
_atom_site_fract_y
_atom_site_fract_z
_atom_type_partial_charge
Co0 Co 0.65784 0.07606 0.1201 0.0
C1 C 0.69276 0.17122 0.11716 0.0
C2 C 0.66029 0.1518 0.06509 0.0
C3 C 0.68068 0.19294 0.05951 0.0
N4 N 0.66812 0.13759 0.10116 0.0
N5 N 0.70155 0.20476 0.09205 0.0
H6 H 0.708 0.16925 0.14516 0.0
H7 H 0.64414 0.13225 0.04306 0.0
C8 C 0.60382 0.04827 0.04752 0.0
O9 O 0.63868 0.03116 0.02994 0.0
N10 N 0.64703 1.01495 0.13861 0.0
C11 C 0.67778 0.98854 0.15598 0.0
C12 C 0.66405 0.94442 0.15379 0.0
C13 C 0.61382 0.98644 0.12796 0.0
N14 N 0.62401 0.94314 0.13587 0.0
C15 C 0.74876 0.07721 0.09645 0.0
C16 C 0.753 0.98685 0.07996 0.0
C17 C 0.7921 1.00949 0.09091 0.0
C18 C 0.79041 0.05609 0.09502 0.0
C19 C 0.71226 1.01028 0.0787 0.0
N20 N 0.70963 0.05405 0.09068 0.0
H21 H 0.74854 0.10988 0.10901 0.0
H22 H 0.68256 0.99055 0.07502 0.0
H23 H 0.71036 0.99973 0.16542 0.0
H24 H 0.58447 0.9962 0.11205 0.0
O25 O 0.69054 0.08934 0.16673 0.0
O26 O 0.61744 0.09811 0.15865 0.0
O27 O 0.60936 0.06751 0.07967 0.0
C28 C 0.65195 0.10009 0.18147 0.0
H29 H 0.68326 0.21094 0.0327 0.0
H30 H 0.68309 0.91522 0.16277 0.0
H31 H 0.75303 0.95065 0.07628 0.0
H32 H 0.82011 0.07473 0.10344 0.0
Co33 Co 0.45522 0.6487 0.12648 0.0
C34 C 0.3651 0.693 0.11984 0.0
C35 C 0.37495 0.64529 0.07508 0.0
C36 C 0.33663 0.66961 0.06721 0.0
N37 N 0.39405 0.66082 0.10757 0.0
N38 N 0.33083 0.6999 0.09522 0.0
H39 H 0.36971 0.71297 0.14522 0.0
H40 H 0.38819 0.61933 0.057 0.0
C41 C 0.47358 0.60601 0.0464 0.0
O42 O 0.46454 0.64212 0.02611 0.0
N43 N 0.51622 0.63703 0.14444 0.0
C44 C 0.53681 0.65125 0.17667 0.0
C45 C 0.58129 0.63792 0.17576 0.0
C46 C 0.54888 0.61633 0.12433 0.0
N47 N 0.58858 0.61647 0.14246 0.0
C48 C 0.46144 0.74272 0.11694 0.0
C49 C 0.54165 0.74405 0.07789 0.0
C50 C 0.52648 0.78317 0.09605 0.0
C51 C 0.48463 0.7829 0.11349 0.0
C52 C 0.51616 0.70442 0.08081 0.0
N53 N 0.47759 0.70346 0.10205 0.0
H54 H 0.43346 0.74298 0.13594 0.0
H55 H 0.53007 0.67398 0.06933 0.0
H56 H 0.52116 0.67068 0.19907 0.0
H57 H 0.545 0.60242 0.09614 0.0
O58 O 0.44046 0.6748 0.17562 0.0
O59 O 0.4325 0.60287 0.16112 0.0
O60 O 0.46848 0.60613 0.08259 0.0
C61 C 0.43063 0.63433 0.18691 0.0
H62 H 0.31578 0.66674 0.04198 0.0
H63 H 0.6066 0.64466 0.19722 0.0
H64 H 0.57427 0.74326 0.06426 0.0
H65 H 0.47227 0.8125 0.12818 0.0
Co66 Co 0.8887 0.46772 0.12291 0.0
C67 C 0.84456 0.37695 0.11954 0.0
C68 C 0.88768 0.38749 0.07162 0.0
C69 C 0.86361 0.3486 0.06565 0.0
N70 N 0.8752 0.40633 0.10508 0.0
N71 N 0.83617 0.34227 0.0956 0.0
H72 H 0.82701 0.38146 0.14623 0.0
H73 H 0.91137 0.40113 0.05169 0.0
C74 C 0.9311 0.48533 0.0422 0.0
O75 O 0.89542 0.47794 0.02101 0.0
N76 N 0.90121 0.52907 0.13974 0.0
C77 C 0.88861 0.54988 0.17231 0.0
C78 C 0.90388 0.59379 0.17154 0.0
C79 C 0.9223 0.56135 0.11927 0.0
N80 N 0.92477 0.6007 0.13794 0.0
C81 C 0.79537 0.47458 0.11715 0.0
C82 C 0.79068 0.55072 0.07233 0.0
C83 C 0.75286 0.53725 0.0934 0.0
C84 C 0.75526 0.49762 0.11454 0.0
C85 C 0.83122 0.52686 0.07659 0.0
N86 N 0.83344 0.48984 0.09982 0.0
H87 H 0.79626 0.4471 0.13689 0.0
H88 H 0.8611 0.54046 0.06377 0.0
H89 H 0.86962 0.53454 0.19516 0.0
H90 H 0.93542 0.55721 0.09085 0.0
O91 O 0.86455 0.45363 0.17274 0.0
O92 O 0.93578 0.44521 0.15627 0.0
O93 O 0.92988 0.47997 0.07829 0.0
C94 C 0.90523 0.44333 0.18271 0.0
H95 H 0.86498 0.32733 0.04059 0.0
H96 H 0.89939 0.61889 0.19358 0.0
H97 H 0.78982 0.58113 0.05527 0.0
H98 H 0.72689 0.48594 0.13121 0.0
Co99 Co 0.08427 0.89735 0.1285 0.0
C100 C 0.1743 0.85517 0.12021 0.0
C101 C 0.16228 0.9017 0.07483 0.0
C102 C 0.20037 0.87731 0.06635 0.0
N103 N 0.14502 0.88732 0.10839 0.0
N104 N 0.20752 0.8478 0.09481 0.0
H105 H 0.17022 0.8351 0.14565 0.0
H106 H 0.14749 0.92624 0.05618 0.0
C107 C 0.06172 0.94454 0.0499 0.0
O108 O 0.07004 0.91074 0.02682 0.0
N109 N 0.02382 0.90526 0.14789 0.0
C110 C 1.00148 0.87549 0.17004 0.0
C111 C 0.95636 0.88588 0.16947 0.0
C112 C 0.992 0.93352 0.13444 0.0
N113 N 0.95085 0.92206 0.14685 0.0
C114 C 0.07816 0.80363 0.11976 0.0
C115 C 1.00227 0.80163 0.07466 0.0
C116 C 1.01498 0.76279 0.09482 0.0
C117 C 0.05459 0.76377 0.11601 0.0
C118 C 0.02636 0.84178 0.08033 0.0
N119 N 0.06327 0.84268 0.10357 0.0
H120 H 0.1055 0.80343 0.13961 0.0
H121 H 1.01248 0.87257 0.06941 0.0
H122 H 1.01635 0.84612 0.1832 0.0
H123 H 0.99782 0.96037 0.11423 0.0
O124 O 0.10123 0.87091 0.17713 0.0
O125 O 0.10601 0.94333 0.16331 0.0
O126 O 0.06807 0.94095 0.08584 0.0
C127 C 0.10985 0.91149 0.18862 0.0
H128 H 0.21984 0.87928 0.04031 0.0
H129 H 0.92946 0.86689 0.18259 0.0
H130 H 0.97177 0.80197 0.05778 0.0
H131 H 0.06567 0.73456 0.13202 0.0
Co132 Co 0.15063 0.966 0.41057 0.0
C133 C 0.19764 0.87658 0.41649 0.0
C134 C 0.15454 0.88772 0.46429 0.0
C135 C 0.17871 0.84885 0.47069 0.0
N136 N 0.1668 0.90599 0.4305 0.0
N137 N 0.20604 0.84213 0.44073 0.0
H138 H 0.21574 0.88118 0.3901 0.0
H139 H 0.13093 0.90187 0.48409 0.0
C140 C 0.10917 0.9875 0.49041 0.0
O141 O 0.14634 0.98385 0.51042 0.0
N142 N 0.13481 0.02548 0.39156 0.0
C143 C 0.16042 0.05218 0.36922 0.0
C144 C 0.14352 0.09545 0.37042 0.0
C145 C 0.1023 0.05277 0.40538 0.0
N146 N 0.10734 0.09551 0.39348 0.0
C147 C 0.24406 0.9762 0.42014 0.0
C148 C 0.24219 0.05973 0.45439 0.0
C149 C 0.28204 0.04444 0.43753 0.0
C150 C 0.28318 1.00131 0.42219 0.0
C151 C 0.20336 0.03284 0.45214 0.0
N152 N 0.20422 0.99226 0.43369 0.0
H153 H 0.24543 0.94629 0.40327 0.0
H154 H 0.17188 0.04676 0.46148 0.0
H155 H 0.19137 0.04184 0.3557 0.0
H156 H 0.07687 0.04279 0.42564 0.0
O157 O 0.17661 0.95165 0.36136 0.0
O158 O 0.10562 0.93977 0.37717 0.0
O159 O 0.10872 0.97839 0.45483 0.0
C160 C 0.13666 0.93898 0.35103 0.0
H161 H 0.17757 0.828 0.49605 0.0
H162 H 0.15846 0.12509 0.35769 0.0
H163 H 0.24035 0.09313 0.46661 0.0
H164 H 0.31342 0.98852 0.40884 0.0
Co165 Co 0.5821 0.14959 0.3996 0.0
C166 C 0.66801 0.20293 0.40147 0.0
C167 C 0.66034 0.16085 0.45083 0.0
C168 C 0.6991 0.18551 0.45493 0.0
N169 N 0.64031 0.1719 0.41749 0.0
N170 N 0.70409 0.21186 0.42393 0.0
H171 H 0.66162 0.21945 0.37446 0.0
H172 H 0.64744 0.13735 0.47162 0.0
C173 C 0.54679 0.10287 0.47085 0.0
O174 O 0.51619 0.13397 0.476 0.0
N175 N 0.52338 0.12602 0.38268 0.0
C176 C 0.51577 0.0915 0.35832 0.0
C177 C 0.47119 0.07902 0.36026 0.0
C178 C 0.48257 0.13405 0.39858 0.0
N179 N 0.45062 0.10576 0.38574 0.0
C180 C 0.5282 0.2257 0.39489 0.0
C181 C 0.54706 0.26496 0.46445 0.0
C182 C 0.52229 0.28896 0.43691 0.0
C183 C 0.51223 0.26838 0.40234 0.0
C184 C 0.56238 0.22117 0.45584 0.0
N185 N 0.55286 0.20227 0.42115 0.0
H186 H 0.52156 0.21169 0.36702 0.0
H187 H 0.5829 0.20333 0.47631 0.0
H188 H 0.54116 0.07408 0.34205 0.0
H189 H 0.4762 0.15849 0.42066 0.0
O190 O 0.59264 0.17613 0.35019 0.0
O191 O 0.61251 0.10701 0.36641 0.0
O192 O 0.57754 0.10856 0.44594 0.0
C193 C 0.61021 0.13811 0.34013 0.0
H194 H 0.72185 0.18455 0.47907 0.0
H195 H 0.45584 0.05044 0.34623 0.0
H196 H 0.55548 0.28031 0.49155 0.0
H197 H 0.4933 0.28598 0.38047 0.0
Co198 Co 0.39934 0.58335 0.41108 0.0
C199 C 0.3533 0.67368 0.41568 0.0
C200 C 0.39378 0.66083 0.46493 0.0
C201 C 0.36978 0.69977 0.47106 0.0
N202 N 0.38336 0.64371 0.43027 0.0
N203 N 0.34405 0.70758 0.44023 0.0
H204 H 0.33583 0.66938 0.38889 0.0
H205 H 0.41528 0.64535 0.48576 0.0
C206 C 0.44268 0.56064 0.49003 0.0
O207 O 0.40563 0.56129 0.51032 0.0
N208 N 0.41505 0.52333 0.39317 0.0
C209 C 0.38909 0.49579 0.37187 0.0
C210 C 0.40575 0.45248 0.3745 0.0
C211 C 0.44756 0.49643 0.40769 0.0
N212 N 0.44209 0.45315 0.39749 0.0
C213 C 0.30639 0.57432 0.42238 0.0
C214 C 0.30775 0.49062 0.45648 0.0
C215 C 0.2679 0.50637 0.43983 0.0
C216 C 0.26708 0.54962 0.42458 0.0
C217 C 0.34692 0.51688 0.45364 0.0
N218 N 0.34627 0.55764 0.43539 0.0
H219 H 0.30509 0.60438 0.40562 0.0
H220 H 0.37834 0.50226 0.46229 0.0
H221 H 0.35797 0.50565 0.35829 0.0
H222 H 0.47338 0.50715 0.42732 0.0
O223 O 0.37193 0.59628 0.362 0.0
O224 O 0.44327 0.60888 0.37611 0.0
O225 O 0.44261 0.57264 0.455 0.0
C226 C 0.41141 0.60896 0.35059 0.0
H227 H 0.36943 0.71958 0.49699 0.0
H228 H 0.39041 0.42239 0.36295 0.0
H229 H 0.3093 0.45722 0.46879 0.0
H230 H 0.23684 0.5629 0.41147 0.0
Co231 Co 0.96808 0.40362 0.40086 0.0
C232 C 0.88791 0.34344 0.40654 0.0
C233 C 0.88368 0.39997 0.4445 0.0
C234 C 0.84546 0.37435 0.44865 0.0
N235 N 0.91043 0.38059 0.41822 0.0
N236 N 0.84793 0.33904 0.4246 0.0
H237 H 0.90025 0.32033 0.38512 0.0
H238 H 0.89095 0.43101 0.45932 0.0
C239 C 1.00779 0.44364 0.47297 0.0
O240 O 0.03774 0.41145 0.47534 0.0
N241 N 0.02651 0.42777 0.38401 0.0
C242 C 0.03372 0.46394 0.36137 0.0
C243 C 0.07847 0.47565 0.36265 0.0
C244 C 0.06783 0.41791 0.3982 0.0
N245 N 0.09961 0.44691 0.38625 0.0
C246 C 1.02044 0.32689 0.39084 0.0
C247 C 1.0028 0.28378 0.4591 0.0
C248 C 0.02685 0.26129 0.43034 0.0
C249 C 0.03616 0.28363 0.39636 0.0
C250 C 0.9878 0.32809 0.45246 0.0
N251 N 0.99696 0.34895 0.41853 0.0
H252 H 0.02636 0.34259 0.36348 0.0
H253 H 0.96753 0.34489 0.47371 0.0
H254 H 1.00811 0.48315 0.34716 0.0
H255 H 0.07481 0.39149 0.41847 0.0
O256 O 0.95529 0.38246 0.34993 0.0
O257 O 0.93655 0.44953 0.37165 0.0
O258 O 0.97471 0.43949 0.45004 0.0
C259 C 0.9367 0.42116 0.34332 0.0
H260 H 0.8174 0.38157 0.46729 0.0
H261 H 0.09344 0.50546 0.35023 0.0
H262 H 0.99476 0.26693 0.48565 0.0
H263 H 0.0544 0.26709 0.37357 0.0
Co264 Co 0.38627 0.96805 0.90449 0.0
C265 C 0.33822 0.88094 0.90768 0.0
C266 C 0.39804 0.87992 0.94191 0.0
C267 C 0.37361 0.84152 0.94946 0.0
N268 N 0.37555 0.90504 0.91613 0.0
N269 N 0.33595 0.84228 0.92805 0.0
H270 H 0.31189 0.89254 0.88881 0.0
H271 H 0.42884 0.88975 0.95597 0.0
C272 C 0.43093 1.00751 0.97562 0.0
O273 O 0.40473 0.04298 0.97473 0.0
N274 N 0.39604 0.03141 0.89276 0.0
C275 C 0.3654 0.06161 0.88035 0.0
C276 C 0.3837 0.10409 0.88224 0.0
C277 C 0.43321 0.05595 0.90008 0.0
N278 N 0.42583 0.10039 0.89585 0.0
C279 C 0.29276 0.98363 0.90115 0.0
C280 C 0.27782 1.00994 0.97546 0.0
C281 C 0.2443 1.01683 0.9478 0.0
C282 C 0.25156 1.0013 0.91092 0.0
C283 C 0.3195 0.99179 0.9642 0.0
N284 N 0.32758 0.98226 0.9266 0.0
H285 H 0.29669 0.97373 0.87191 0.0
H286 H 0.34484 0.98612 0.9856 0.0
H287 H 0.33143 0.05404 0.87189 0.0
H288 H 0.464 0.04219 0.91119 0.0
O289 O 0.36714 0.95852 0.85228 0.0
O290 O 0.43713 0.95289 0.872 0.0
O291 O 0.42239 0.97383 0.95405 0.0
C292 C 0.40876 0.95162 0.84374 0.0
H293 H 0.382 0.81571 0.97011 0.0
H294 H 0.3663 0.1355 0.87706 0.0
H295 H 0.27238 1.01975 1.00485 0.0
H296 H 0.22601 1.0047 0.88901 0.0
Co297 Co 0.57431 0.40014 0.90103 0.0
C298 C 0.65528 0.34179 0.90959 0.0
C299 C 0.65569 0.39664 0.94943 0.0
C300 C 0.69257 0.36992 0.95645 0.0
N301 N 0.63199 0.37892 0.92028 0.0
N302 N 0.69231 0.33552 0.93142 0.0
H303 H 0.64489 0.3192 0.88703 0.0
H304 H 0.64654 0.4263 0.96522 0.0
C305 C 0.54917 0.44118 0.97959 0.0
O306 O 0.54558 0.40223 0.99685 0.0
N307 N 0.51685 0.42331 0.88309 0.0
C308 C 0.50689 0.44898 0.85228 0.0
C309 C 0.46335 0.46435 0.85562 0.0
C310 C 0.47946 0.42428 0.90479 0.0
N311 N 0.44662 0.44865 0.88869 0.0
C312 C 0.51424 0.32787 0.89869 0.0
C313 C 0.54507 0.27952 0.96067 0.0
C314 C 0.51439 0.25981 0.93533 0.0
C315 C 0.49823 0.28484 0.90478 0.0
C316 C 0.5601 0.32365 0.95371 0.0
N317 N 0.54434 0.34764 0.92301 0.0
H318 H 0.50472 0.34385 0.87223 0.0
H319 H 0.5864 0.33699 0.97164 0.0
H320 H 0.52991 0.45827 0.82983 0.0
H321 H 0.47684 0.40876 0.93254 0.0
O322 O 0.5864 0.37126 0.85295 0.0
O323 O 0.60491 0.44145 0.86675 0.0
O324 O 0.56469 0.44357 0.94554 0.0
C325 C 0.60352 0.40899 0.84159 0.0
H326 H 0.7177 0.37519 0.97836 0.0
H327 H 0.44613 0.48712 0.83641 0.0
H328 H 0.55879 0.26036 0.98426 0.0
H329 H 0.47522 0.27014 0.88426 0.0
Co330 Co 0.14507 0.58563 0.91016 0.0
C331 C 0.18576 0.67781 0.91544 0.0
C332 C 0.14786 0.66213 0.96546 0.0
C333 C 0.1708 0.70181 0.97171 0.0
N334 N 0.15753 0.64636 0.93022 0.0
N335 N 0.19484 0.71142 0.94029 0.0
H336 H 0.20288 0.67443 0.88846 0.0
H337 H 0.12793 0.64512 0.98658 0.0
C338 C 0.10118 0.56007 0.98802 0.0
O339 O 0.1381 0.56101 1.00857 0.0
N340 N 0.13344 0.52546 0.89083 0.0
C341 C 0.16087 0.5009 0.86877 0.0
C342 C 0.14381 0.45802 0.8662 0.0
C343 C 0.10034 0.49699 0.90134 0.0
N344 N 0.10434 0.45552 0.88548 0.0
C345 C 0.23779 0.58123 0.92263 0.0
C346 C 0.24043 0.4978 0.95708 0.0
C347 C 0.27969 0.51577 0.941 0.0
C348 C 0.27832 0.55886 0.92546 0.0
C349 C 0.19982 0.52135 0.95287 0.0
N350 N 0.19871 0.56234 0.93505 0.0
H351 H 0.23766 0.61116 0.90566 0.0
H352 H 0.16905 0.50428 0.95983 0.0
H353 H 0.19283 0.51235 0.85779 0.0
H354 H 0.07618 0.50569 0.92275 0.0
O355 O 0.17262 0.60071 0.86176 0.0
O356 O 0.10045 0.60931 0.87501 0.0
O357 O 0.1014 0.57209 0.95303 0.0
C358 C 0.13262 0.61105 0.84991 0.0
H359 H 0.17199 0.72064 0.99815 0.0
H360 H 0.16177 0.43024 0.85354 0.0
H361 H 0.24038 0.46423 0.96914 0.0
H362 H 0.30786 0.57372 0.91246 0.0
Co363 Co 0.95811 0.15271 0.91779 0.0
C364 C 0.86427 0.19134 0.91662 0.0
C365 C 0.87955 0.15891 0.96961 0.0
C366 C 0.83864 0.18009 0.97308 0.0
N367 N 0.89629 0.16613 0.93428 0.0
N368 N 0.82927 0.20084 0.93992 0.0
H369 H 0.86806 0.20601 0.88856 0.0
H370 H 0.89675 0.1421 0.99258 0.0
C371 C 0.9831 0.11457 0.99799 0.0
O372 O 0.98534 0.15324 1.01597 0.0
N373 N 1.01928 0.13887 0.90272 0.0
C374 C 0.04707 0.16347 0.88056 0.0
C375 C 0.09006 0.1463 0.88398 0.0
C376 C 0.04559 0.10703 0.9187 0.0
N377 N 0.08883 0.11128 0.90855 0.0
C378 C 0.95955 0.24648 0.92571 0.0
C379 C 0.0435 0.25474 0.95814 0.0
C380 C 0.02427 0.29195 0.93958 0.0
C381 C 0.98084 0.28788 0.92526 0.0
C382 C 1.02087 0.21312 0.95749 0.0
N383 N 0.97971 0.20898 0.94029 0.0
H384 H 0.92963 0.24399 0.90899 0.0
H385 H 0.03893 0.18369 0.96654 0.0
H386 H 0.03739 0.19346 0.86508 0.0
H387 H 0.03425 0.08174 0.93854 0.0
O388 O 0.94657 0.17673 0.86729 0.0
O389 O 0.93676 0.10547 0.88381 0.0
O390 O 0.96806 0.11222 0.96386 0.0
C391 C 0.93652 0.136 0.85708 0.0
H392 H 0.81866 0.18265 0.99876 0.0
H393 H 0.12025 0.16017 0.87142 0.0
H394 H 0.07737 0.25662 0.96933 0.0
H395 H 0.96497 0.31564 0.91033 0.0
Co396 Co 0.90528 0.07995 0.63498 0.0
C397 C 0.84446 0.15935 0.62859 0.0
C398 C 0.90323 0.16621 0.5936 0.0
C399 C 0.87615 0.20312 0.58779 0.0
N400 N 0.88322 0.13847 0.61877 0.0
N401 N 0.83926 0.19885 0.60979 0.0
H402 H 0.8203 0.1457 0.64857 0.0
H403 H 0.93532 0.16025 0.58043 0.0
C404 C 0.94173 0.05999 0.55307 0.0
O405 O 0.9023 0.05651 0.53674 0.0
N406 N 0.92841 1.02129 0.65016 0.0
C407 C 0.93957 1.00411 0.68467 0.0
C408 C 0.9549 0.9606 0.67979 0.0
C409 C 0.93548 0.98744 0.62538 0.0
N410 N 0.95241 0.9508 0.64237 0.0
C411 C 0.83309 1.01928 0.63811 0.0
C412 C 0.78258 0.05224 0.57821 0.0
C413 C 0.76393 1.02034 0.60306 0.0
C414 C 0.79003 1.00315 0.63256 0.0
C415 C 0.82665 0.06749 0.58466 0.0
N416 N 0.85161 0.05083 0.6144 0.0
H417 H 0.85002 1.00858 0.66375 0.0
H418 H 0.83923 0.09469 0.56724 0.0
H419 H 0.93565 1.02093 0.7117 0.0
H420 H 0.92729 0.98889 0.59562 0.0
O421 O 0.88106 0.09014 0.68526 0.0
O422 O 0.94956 0.10949 0.66721 0.0
O423 O 0.94532 0.07307 0.58781 0.0
C424 C 0.91971 0.10739 0.69436 0.0
H425 H 0.88319 0.23135 0.56917 0.0
H426 H 0.96655 0.93787 0.70184 0.0
H427 H 0.76267 0.06664 0.55537 0.0
H428 H 0.77624 0.97901 0.65262 0.0
Co429 Co 0.47045 0.89258 0.62494 0.0
C430 C 0.38261 0.84635 0.62231 0.0
C431 C 0.38512 0.90099 0.5823 0.0
C432 C 0.3468 0.87619 0.57542 0.0
N433 N 0.40798 0.88196 0.61142 0.0
N434 N 0.34533 0.84179 0.60051 0.0
H435 H 0.39259 0.82243 0.64402 0.0
H436 H 0.3965 0.92936 0.56558 0.0
C437 C 0.51418 0.93609 0.55539 0.0
O438 O 0.54935 0.90982 0.55864 0.0
N439 N 0.53324 0.90199 0.63874 0.0
C440 C 0.56248 0.87086 0.65193 0.0
C441 C 0.60507 0.88885 0.65187 0.0
C442 C 0.55842 0.93915 0.63268 0.0
N443 N 0.60248 0.93125 0.6385 0.0
C444 C 0.48447 0.79869 0.62895 0.0
C445 C 0.51364 0.7831 0.55553 0.0
C446 C 0.51897 0.74954 0.58347 0.0
C447 C 0.50193 0.75714 0.61982 0.0
C448 C 0.49586 0.8252 0.56619 0.0
N449 N 0.48495 0.83356 0.60347 0.0
H450 H 0.47328 0.80277 0.65782 0.0
H451 H 0.49161 0.85064 0.54459 0.0
H452 H 0.55421 0.83678 0.65978 0.0
H453 H 0.54557 0.97023 0.6211 0.0
O454 O 0.45866 0.8736 0.67676 0.0
O455 O 0.45411 0.94378 0.65699 0.0
O456 O 0.47901 0.92809 0.5753 0.0
C457 C 0.45146 0.91526 0.68515 0.0
H458 H 0.32272 0.88188 0.55273 0.0
H459 H 0.63595 0.87106 0.65809 0.0
H460 H 0.52457 0.77741 0.52647 0.0
H461 H 0.50404 0.73162 0.6419 0.0
Co462 Co 0.6571 0.46579 0.62007 0.0
C463 C 0.69555 0.37196 0.62268 0.0
C464 C 0.66569 0.38706 0.56854 0.0
C465 C 0.68702 0.34609 0.5659 0.0
N466 N 0.67126 0.40395 0.60402 0.0
N467 N 0.70612 0.33676 0.5998 0.0
H468 H 0.70837 0.37571 0.65141 0.0
H469 H 0.64974 0.40412 0.54506 0.0
C470 C 0.61476 0.48719 0.54066 0.0
O471 O 0.65256 0.48847 0.52144 0.0
N472 N 0.64245 0.52698 0.63504 0.0
C473 C 0.66889 0.55665 0.6536 0.0
C474 C 0.65093 0.5992 0.64941 0.0
C475 C 0.60892 0.55197 0.62006 0.0
N476 N 0.61383 0.59609 0.6274 0.0
C477 C 0.74975 0.46972 0.60803 0.0
C478 C 0.75301 0.55261 0.57269 0.0
C479 C 0.79187 0.53547 0.59009 0.0
C480 C 0.7903 0.4925 0.60604 0.0
C481 C 0.71245 0.52883 0.57619 0.0
N482 N 0.71089 0.48826 0.59467 0.0
H483 H 0.74892 0.4401 0.62548 0.0
H484 H 0.68194 0.54569 0.56841 0.0
H485 H 0.70146 0.54888 0.66552 0.0
H486 H 0.58261 0.53904 0.60196 0.0
O487 O 0.68491 0.45549 0.66937 0.0
O488 O 0.61326 0.4439 0.65657 0.0
O489 O 0.61382 0.47376 0.57538 0.0
C490 C 0.64553 0.4441 0.68182 0.0
H491 H 0.69064 0.32594 0.54034 0.0
H492 H 0.66628 0.6304 0.65862 0.0
H493 H 0.75301 0.58597 0.5602 0.0
H494 H 0.81948 0.47818 0.62004 0.0
Co495 Co 0.08945 0.64956 0.62676 0.0
C496 C 0.17898 0.69446 0.62086 0.0
C497 C 0.17258 0.64225 0.57928 0.0
C498 C 0.21161 0.66586 0.57207 0.0
N499 N 0.15103 0.66111 0.60919 0.0
N500 N 0.21541 0.69882 0.5982 0.0
H501 H 0.17274 0.71635 0.64478 0.0
H502 H 0.16086 0.61384 0.56301 0.0
C503 C 0.07485 0.60692 0.54579 0.0
O504 O 0.08961 0.6407 0.52505 0.0
N505 N 0.02783 0.6386 0.64336 0.0
C506 C 1.00895 0.64351 0.67819 0.0
C507 C 0.96477 0.62938 0.67647 0.0
C508 C 0.99415 0.62332 0.62093 0.0
N509 N 0.95582 0.61685 0.6403 0.0
C510 C 0.08193 0.74367 0.62217 0.0
C511 C 1.01303 0.74886 0.56972 0.0
C512 C 0.02401 0.78668 0.59174 0.0
C513 C 0.06025 0.78422 0.61669 0.0
C514 C 0.03584 0.70817 0.57634 0.0
N515 N 0.06901 0.70557 0.60336 0.0
H516 H 0.10629 0.74279 0.64462 0.0
H517 H 0.0242 0.67863 0.56183 0.0
H518 H 0.02584 0.65586 0.7034 0.0
H519 H 0.997 0.61609 0.59087 0.0
O520 O 0.1042 0.67339 0.67653 0.0
O521 O 0.11094 0.60193 0.6602 0.0
O522 O 0.0756 0.60886 0.58211 0.0
C523 C 0.11374 0.63251 0.68665 0.0
H524 H 0.23487 0.66 0.54886 0.0
H525 H 0.94107 0.62836 0.69987 0.0
H526 H 0.98513 0.7499 0.54987 0.0
H527 H 0.06974 0.81285 0.63411 0.0
C528 C 0.59015 0.86997 0.15271 0.0
C529 C 0.59982 0.90297 0.1247 0.0
C530 C 0.56178 0.8565 0.07632 0.0
C531 C 0.55641 0.82197 0.10372 0.0
N532 N 0.57426 0.79163 0.16585 0.0
N533 N 0.60292 0.92287 0.05771 0.0
C534 C 0.57364 0.82735 0.14122 0.0
C535 C 0.58779 0.89504 0.08584 0.0
N536 N 0.59432 0.8803 0.19053 0.0
N537 N 0.5412 0.85302 0.04156 0.0
H538 H 0.62352 0.95018 0.06309 0.0
H539 H 0.59882 0.91627 0.02871 0.0
H540 H 0.52324 0.8245 0.03322 0.0
H541 H 0.53929 0.87958 0.02217 0.0
H542 H 0.58378 0.85892 0.21235 0.0
H543 H 0.60348 0.91227 0.20001 0.0
H544 H 0.59026 0.79261 0.19231 0.0
H545 H 0.56272 0.75968 0.15829 0.0
C546 C 0.71087 0.60661 0.11587 0.0
C547 C 0.71095 0.56428 0.09687 0.0
C548 C 0.631 0.55576 0.11029 0.0
C549 C 0.63007 0.59924 0.12696 0.0
N550 N 0.66621 0.67161 0.1327 0.0
N551 N 0.66806 0.50644 0.06537 0.0
C552 C 0.66911 0.62653 0.12575 0.0
C553 C 0.66969 0.54192 0.09006 0.0
N554 N 0.75011 0.62667 0.12674 0.0
N555 N 0.59632 0.52645 0.11598 0.0
H556 H 0.69616 0.4961 0.04987 0.0
H557 H 0.63817 0.49065 0.05758 0.0
H558 H 0.5693 0.5337 0.13384 0.0
H559 H 0.59707 0.49311 0.10679 0.0
H560 H 0.75103 0.65508 0.14417 0.0
H561 H 0.78165 0.61314 0.12123 0.0
H562 H 0.69332 0.69343 0.12913 0.0
H563 H 0.6357 0.68784 0.13743 0.0
C564 C 0.94354 0.72328 0.11575 0.0
C565 C 0.98641 0.72171 0.0978 0.0
C566 C 0.98926 0.64042 0.10842 0.0
C567 C 0.94513 0.64148 0.12364 0.0
N568 N 0.87541 0.682 0.12951 0.0
N569 N 0.04339 0.67694 0.06719 0.0
C570 C 0.92065 0.68233 0.12341 0.0
C571 C 1.00671 0.67943 0.09046 0.0
N572 N 0.92576 0.76311 0.12797 0.0
N573 N 1.01569 0.60332 0.11341 0.0
H574 H 0.0562 0.70508 0.05302 0.0
H575 H 0.05809 0.64659 0.05914 0.0
H576 H 1.00567 0.57562 0.12955 0.0
H577 H 0.04938 0.60226 0.10547 0.0
H578 H 0.89684 0.76479 0.14465 0.0
H579 H 0.94172 0.79403 0.1248 0.0
H580 H 0.85547 0.71061 0.12646 0.0
H581 H 0.85727 0.65229 0.13315 0.0
C582 C 0.89278 0.93009 0.097 0.0
C583 C 0.90921 0.94094 0.13381 0.0
C584 C 0.84467 0.98958 0.14461 0.0
C585 C 0.83182 0.98437 0.1056 0.0
N586 N 0.84598 0.9523 0.04349 0.0
N587 N 0.90462 0.98438 0.19126 0.0
C588 C 0.85642 0.95511 0.08141 0.0
C589 C 0.88617 0.97163 0.15724 0.0
N590 N 0.91141 0.89503 0.07758 0.0
N591 N 0.81638 1.00976 0.17008 0.0
H592 H 0.93476 0.97101 0.20145 0.0
H593 H 0.89195 1.01058 0.20779 0.0
H594 H 0.78475 1.02184 0.1627 0.0
H595 H 0.82228 1.01033 0.1994 0.0
H596 H 0.89888 0.88266 0.0519 0.0
H597 H 0.93686 0.87542 0.08939 0.0
H598 H 0.86494 0.93421 0.02386 0.0
H599 H 0.82043 0.97116 0.03089 0.0
C600 C 1.01665 0.18073 0.41347 0.0
C601 C 0.04187 0.2138 0.43322 0.0
C602 C 0.10688 0.16338 0.43442 0.0
C603 C 0.08429 0.13416 0.40878 0.0
N604 N 1.01808 0.11385 0.37361 0.0
N605 N 0.11007 0.23712 0.46415 0.0
C606 C 0.03889 0.14206 0.39881 0.0
C607 C 0.08651 0.20483 0.44489 0.0
N608 N 0.97164 0.18717 0.40822 0.0
N609 N 0.14757 0.15107 0.44901 0.0
H610 H 0.09515 0.26679 0.47376 0.0
H611 H 0.14445 0.2354 0.46936 0.0
H612 H 0.16345 0.1213 0.44126 0.0
H613 H 0.16394 0.1684 0.47077 0.0
H614 H 0.95022 0.16313 0.39659 0.0
H615 H 0.95507 0.21549 0.41876 0.0
H616 H 0.98638 0.11976 0.36212 0.0
H617 H 0.03395 0.08566 0.36214 0.0
C618 C 0.3614 0.06227 0.45268 0.0
C619 C 0.32232 0.0732 0.43177 0.0
C620 C 0.3682 0.11571 0.38586 0.0
C621 C 0.40731 0.09784 0.40298 0.0
N622 N 0.44175 0.05131 0.45081 0.0
N623 N 0.28723 0.11077 0.37846 0.0
C624 C 0.4041 0.07097 0.43634 0.0
C625 C 0.32523 0.10093 0.39872 0.0
N626 N 0.35734 0.04255 0.48775 0.0
N627 N 0.37252 0.14646 0.35712 0.0
H628 H 0.25522 0.10184 0.3878 0.0
H629 H 0.28744 0.12615 0.35175 0.0
H630 H 0.40386 0.1568 0.34705 0.0
H631 H 0.34562 0.16402 0.34534 0.0
H632 H 0.38438 0.03681 0.506 0.0
H633 H 0.32606 0.03593 0.49999 0.0
H634 H 0.44154 0.02766 0.47276 0.0
H635 H 0.47297 0.05602 0.43827 0.0
C636 C 0.53314 0.37019 0.42343 0.0
C637 C 0.50721 0.33631 0.44135 0.0
C638 C 0.44131 0.38555 0.43915 0.0
C639 C 0.4649 0.41509 0.41436 0.0
N640 N 0.5332 0.43625 0.38256 0.0
N641 N 0.43757 0.31163 0.4687 0.0
C642 C 0.51117 0.40814 0.40707 0.0
C643 C 0.46172 0.34445 0.45068 0.0
N644 N 0.57862 0.3651 0.42136 0.0
N645 N 0.3997 0.39721 0.45201 0.0
H646 H 0.45256 0.2823 0.47909 0.0
H647 H 0.40287 0.31263 0.47211 0.0
H648 H 0.38396 0.42694 0.44386 0.0
H649 H 0.38242 0.37949 0.47301 0.0
H650 H 0.6003 0.38984 0.41121 0.0
H651 H 0.59485 0.33739 0.43341 0.0
H652 H 0.56583 0.43075 0.37305 0.0
H653 H 0.51757 0.46358 0.36941 0.0
C654 C 0.14539 0.48502 0.43549 0.0
C655 C 0.14239 0.45456 0.4045 0.0
C656 C 0.22433 0.44734 0.4038 0.0
C657 C 0.227 0.47834 0.43468 0.0
N658 N 0.19061 0.51571 0.48685 0.0
N659 N 0.17688 0.39906 0.36462 0.0
C660 C 0.18748 0.49303 0.45305 0.0
C661 C 0.18131 0.43285 0.3907 0.0
N662 N 0.10839 0.50851 0.4465 0.0
N663 N 0.26256 0.4342 0.3854 0.0
H664 H 0.14561 0.38911 0.35408 0.0
H665 H 0.20346 0.37889 0.35573 0.0
H666 H 0.29459 0.44318 0.39468 0.0
H667 H 0.26254 0.41611 0.35997 0.0
H668 H 0.10974 0.53566 0.46521 0.0
H669 H 0.07708 0.50334 0.43413 0.0
H670 H 0.16284 0.52446 0.5033 0.0
H671 H 0.22147 0.52179 0.50009 0.0
C672 C 0.43533 0.16209 0.94273 0.0
C673 C 0.45261 0.13602 0.91205 0.0
C674 C 0.52138 0.18118 0.91265 0.0
C675 C 0.50016 0.21215 0.93744 0.0
N676 N 0.43847 0.23233 0.97797 0.0
N677 N 0.51171 0.12024 0.86732 0.0
C678 C 0.45793 0.20212 0.95371 0.0
C679 C 0.49608 0.14478 0.89745 0.0
N680 N 0.39765 0.14827 0.96157 0.0
N681 N 0.56531 0.18771 0.90294 0.0
H682 H 0.4933 0.09424 0.8549 0.0
H683 H 0.54129 0.12761 0.8528 0.0
H684 H 0.58401 0.2146 0.91365 0.0
H685 H 0.58417 0.16464 0.8874 0.0
H686 H 0.38601 0.1632 0.98654 0.0
H687 H 0.37984 0.11946 0.95413 0.0
H688 H 0.40522 0.23036 0.98696 0.0
H689 H 0.45552 0.26069 0.98796 0.0
C690 C 0.36556 0.43683 0.89674 0.0
C691 C 0.40488 0.46083 0.90622 0.0
C692 C 0.36216 0.50828 0.94995 0.0
C693 C 0.3217 0.48954 0.93556 0.0
N694 N 0.28476 0.43889 0.8912 0.0
N695 N 0.44132 0.52192 0.93863 0.0
C696 C 0.3232 0.45392 0.90837 0.0
C697 C 0.4035 0.49705 0.93229 0.0
N698 N 0.36894 0.39798 0.87619 0.0
N699 N 0.36055 0.53755 0.97998 0.0
H700 H 0.47224 0.51394 0.92643 0.0
H701 H 0.44142 0.55211 0.95368 0.0
H702 H 0.33058 0.54527 0.99395 0.0
H703 H 0.38888 0.55129 0.99285 0.0
H704 H 0.34196 0.37634 0.87152 0.0
H705 H 0.39973 0.38559 0.86663 0.0
H706 H 0.28474 0.41699 0.86801 0.0
H707 H 0.25285 0.45066 0.89791 0.0
C708 C 0.03198 0.37552 0.94147 0.0
C709 C 0.04955 0.33358 0.92923 0.0
C710 C 0.0898 0.37291 0.87779 0.0
C711 C 0.07812 0.41493 0.89407 0.0
N712 N 1.01323 0.44997 0.92348 0.0
N713 N 0.09737 0.29248 0.88551 0.0
C714 C 0.04271 0.41518 0.92121 0.0
C715 C 0.07955 0.33234 0.8976 0.0
N716 N 1.00225 0.37735 0.97107 0.0
N717 N 0.10357 0.37149 0.84068 0.0
H718 H 0.08932 0.26145 0.89746 0.0
H719 H 0.12306 0.29071 0.86539 0.0
H720 H 0.10263 0.40007 0.82332 0.0
H721 H 0.1088 0.34172 0.82565 0.0
H722 H 0.98734 0.40744 0.97972 0.0
H723 H 0.99418 0.34923 0.98759 0.0
H724 H 1.01209 0.47621 0.90367 0.0
H725 H 1.01209 0.47621 0.90367 0.0
C726 C 0.16151 1.01772 0.94707 0.0
C727 C 0.20167 0.0415 0.95448 0.0
C728 C 0.16138 0.11214 0.94356 0.0
C729 C 0.12597 0.08771 0.92604 0.0
N730 N 0.09428 1.01581 0.90849 0.0
N731 N 0.24028 0.11264 0.96005 0.0
C732 C 0.12599 0.03998 0.92779 0.0
C733 C 0.20157 0.08923 0.95359 0.0
N734 N 0.15876 0.97329 0.95661 0.0
N735 N 0.15606 0.15671 0.95172 0.0
H736 H 0.27003 0.09722 0.96867 0.0
H737 H 0.24321 0.14709 0.955 0.0
H738 H 0.12589 0.17365 0.94705 0.0
H739 H 0.17957 0.17521 0.9672 0.0
H740 H 0.12918 0.95469 0.9544 0.0
H741 H 0.18515 0.95684 0.9705 0.0
H742 H 0.09506 0.98085 0.90634 0.0
H743 H 0.07001 0.03083 0.89121 0.0
C744 C 0.95647 0.82908 0.61475 0.0
C745 C 0.99671 0.82839 0.59292 0.0
C746 C 1.00524 0.90973 0.60095 0.0
C747 C 0.96583 0.9101 0.62355 0.0
N748 N 0.89741 0.87438 0.64308 0.0
N749 N 0.05277 0.86813 0.557 0.0
C750 C 0.93922 0.87104 0.6274 0.0
C751 C 1.01844 0.86913 0.58283 0.0
N752 N 0.9366 0.7897 0.6258 0.0
N753 N 0.03115 0.9476 0.59871 0.0
H754 H 0.06223 0.83848 0.5432 0.0
H755 H 0.06946 0.89659 0.54712 0.0
H756 H 1.02256 0.97763 0.61221 0.0
H757 H 0.06252 0.94868 0.5857 0.0
H758 H 0.91074 0.78804 0.64574 0.0
H759 H 0.94738 0.75821 0.6166 0.0
H760 H 0.87438 0.848 0.64347 0.0
H761 H 0.88436 0.90494 0.65267 0.0
C762 C 0.68524 0.02618 0.626 0.0
C763 C 0.71652 1.00543 0.6012 0.0
C764 C 0.66631 0.94087 0.59381 0.0
C765 C 0.63922 0.95786 0.62397 0.0
N766 N 0.62272 1.01587 0.66957 0.0
N767 N 0.73746 0.94429 0.56016 0.0
C768 C 0.64809 1.00081 0.63975 0.0
C769 C 0.70674 0.96348 0.5841 0.0
N770 N 0.69193 0.0698 0.63691 0.0
N771 N 0.65309 0.90343 0.5742 0.0
H772 H 0.76613 0.96134 0.55095 0.0
H773 H 0.73562 0.91114 0.5507 0.0
H774 H 0.62433 0.88525 0.58092 0.0
H775 H 0.66865 0.89223 0.54937 0.0
H776 H 0.66871 0.08839 0.65251 0.0
H777 H 0.71919 0.0887 0.62725 0.0
H778 H 0.62997 0.04488 0.68502 0.0
H779 H 0.59602 0.99744 0.6808 0.0
C780 C 0.5424 0.63208 0.60675 0.0
C781 C 0.59005 0.63207 0.60827 0.0
C782 C 0.59136 0.70669 0.57857 0.0
C783 C 0.54374 0.70671 0.57777 0.0
N784 N 0.47589 0.66325 0.5766 0.0
N785 N 0.65832 0.66075 0.58011 0.0
C786 C 0.52016 0.66663 0.58618 0.0
C787 C 0.6142 0.6667 0.58927 0.0
N788 N 0.51825 0.60162 0.62748 0.0
N789 N 0.61484 0.74523 0.57141 0.0
H790 H 0.67499 0.63036 0.58458 0.0
H791 H 0.67639 0.68375 0.56371 0.0
H792 H 0.59964 0.77497 0.56241 0.0
H793 H 0.64925 0.74808 0.57639 0.0
H794 H 0.48337 0.60266 0.62959 0.0
H795 H 0.53318 0.57852 0.64594 0.0
H796 H 0.45753 0.63359 0.57966 0.0
H797 H 0.45945 0.68899 0.5618 0.0
C798 C 0.87368 0.62279 0.62996 0.0
C799 C 0.91449 0.59915 0.6248 0.0
C800 C 0.87496 0.54468 0.58455 0.0
C801 C 0.83321 0.56281 0.59636 0.0
N802 N 0.79335 0.61614 0.63641 0.0
N803 N 0.95218 0.53209 0.60259 0.0
C804 C 0.83252 0.60139 0.62046 0.0
C805 C 0.91483 0.55874 0.6032 0.0
N806 N 0.87426 0.66606 0.64295 0.0
N807 N 0.87633 0.51355 0.55592 0.0
H808 H 0.98075 0.53895 0.61879 0.0
H809 H 0.95285 0.50054 0.58964 0.0
H810 H 0.84747 0.50311 0.54146 0.0
H811 H 0.90627 0.50199 0.54406 0.0
H812 H 0.84555 0.68609 0.64409 0.0
H813 H 0.90403 0.68344 0.64833 0.0
H814 H 0.79241 0.64116 0.65723 0.0
H815 H 0.76235 0.60094 0.63175 0.0
C816 C 0.72255 0.28476 0.10099 0.0
C817 C 0.73545 0.23945 0.0954 0.0
C818 C 0.81468 0.262 0.09721 0.0
C819 C 0.8019 0.30783 0.09852 0.0
N820 N 0.74305 0.36323 0.09339 0.0
N821 N 0.79324 0.18698 0.07776 0.0
C822 C 0.75556 0.31946 0.09851 0.0
C823 C 0.78146 0.22851 0.09081 0.0
N824 N 0.67864 0.29447 0.10837 0.0
N825 N 0.85867 0.25056 0.10228 0.0
H826 H 0.76934 0.16382 0.06862 0.0
H827 H 0.82615 0.17788 0.07134 0.0
H828 H 0.88348 0.27451 0.10779 0.0
H829 H 0.86956 0.21737 0.10482 0.0
H830 H 0.66754 0.32637 0.11623 0.0
H831 H 0.65397 0.26953 0.10951 0.0
H832 H 0.70983 0.37332 0.08969 0.0
H833 H 0.7662 0.38892 0.08884 0.0
C834 C 0.31584 0.78202 0.09158 0.0
C835 C 0.29965 0.73724 0.09494 0.0
C836 C 0.22244 0.76565 0.09199 0.0
C837 C 0.23869 0.81048 0.09447 0.0
N838 N 0.30083 0.86139 0.10148 0.0
N839 N 0.23755 0.6865 0.10317 0.0
C840 C 0.28548 0.81867 0.09567 0.0
C841 C 0.25285 0.72908 0.09652 0.0
N842 N 0.3597 0.78942 0.08225 0.0
N843 N 0.17841 0.75813 0.08322 0.0
H844 H 0.25918 0.65926 0.10706 0.0
H845 H 0.20387 0.67905 0.10815 0.0
H846 H 0.15624 0.78428 0.07704 0.0
H847 H 0.16528 0.72626 0.07786 0.0
H848 H 0.37267 0.8212 0.07624 0.0
H849 H 0.38181 0.76321 0.07622 0.0
H850 H 0.33454 0.86893 0.10625 0.0
H851 H 0.27924 0.88874 0.10483 0.0
C852 C 0.26318 0.72867 0.43982 0.0
C853 C 0.30906 0.74132 0.43746 0.0
C854 C 0.28692 0.82094 0.43968 0.0
C855 C 0.24096 0.8083 0.43802 0.0
N856 N 0.18537 0.75046 0.43026 0.0
N857 N 0.36459 0.79908 0.42941 0.0
C858 C 0.22916 0.76215 0.43615 0.0
C859 C 0.32085 0.78745 0.43556 0.0
N860 N 0.2522 0.68508 0.44782 0.0
N861 N 0.2981 0.86452 0.44751 0.0
H862 H 0.38989 0.77508 0.42623 0.0
H863 H 0.37499 0.83198 0.42417 0.0
H864 H 0.27408 0.88926 0.45268 0.0
H865 H 0.33088 0.87514 0.45267 0.0
H866 H 0.21956 0.67447 0.45355 0.0
H867 H 0.27638 0.66036 0.45256 0.0
H868 H 0.17499 0.71755 0.4251 0.0
H869 H 0.16 0.7744 0.4271 0.0
C870 C 0.76897 0.3202 0.40899 0.0
C871 C 0.81299 0.3058 0.41856 0.0
C872 C 0.78568 0.22791 0.42047 0.0
C873 C 0.74065 0.24335 0.41788 0.0
N874 N 0.68937 0.30614 0.41595 0.0
N875 N 0.86211 0.2459 0.43876 0.0
C876 C 0.73217 0.29005 0.41343 0.0
C877 C 0.82123 0.25949 0.42539 0.0
N878 N 0.76252 0.36261 0.39507 0.0
N879 N 0.79439 0.18296 0.41763 0.0
H880 H 0.88834 0.26825 0.44413 0.0
H881 H 0.86857 0.21314 0.44786 0.0
H882 H 0.76908 0.15939 0.41259 0.0
H883 H 0.82679 0.16986 0.41615 0.0
H884 H 0.73171 0.37384 0.3846 0.0
H885 H 0.78916 0.38467 0.39008 0.0
H886 H 0.68193 0.34039 0.41669 0.0
H887 H 0.66175 0.28554 0.42118 0.0
C888 C 0.21968 0.7914 0.93891 0.0
C889 C 0.23008 0.74491 0.9372 0.0
C890 C 0.30873 0.76364 0.92409 0.0
C891 C 0.2995 0.80995 0.92968 0.0
N892 N 0.24755 0.86655 0.95176 0.0
N893 N 0.28702 0.68767 0.94041 0.0
C894 C 0.25523 0.82362 0.93957 0.0
C895 C 0.27538 0.73121 0.93313 0.0
N896 N 0.17585 0.80473 0.9393 0.0
N897 N 0.34904 0.75066 0.9093 0.0
H898 H 0.264 0.66449 0.95112 0.0
H899 H 0.32018 0.67646 0.94075 0.0
H900 H 0.37346 0.77375 0.90079 0.0
H901 H 0.35607 0.71748 0.90174 0.0
H902 H 0.16603 0.83827 0.93698 0.0
H903 H 0.14932 0.7818 0.93858 0.0
H904 H 0.21677 0.87712 0.96263 0.0
H905 H 0.27309 0.89022 0.95494 0.0
C906 C 0.77136 0.31231 0.92353 0.0
C907 C 0.72581 0.3003 0.92908 0.0
C908 C 0.74855 0.22102 0.93515 0.0
C909 C 0.79432 0.23414 0.93443 0.0
N910 N 0.84842 0.29413 0.93857 0.0
N911 N 0.6715 0.24388 0.94662 0.0
C912 C 0.8056 0.28033 0.93125 0.0
C913 C 0.71436 0.25467 0.93636 0.0
N914 N 0.78183 0.35433 0.91055 0.0
N915 N 0.73795 0.17636 0.93448 0.0
H916 H 0.64619 0.26787 0.94907 0.0
H917 H 0.66204 0.21197 0.95595 0.0
H918 H 0.76249 0.15132 0.93355 0.0
H919 H 0.70522 0.16444 0.93157 0.0
H920 H 0.81434 0.36378 0.90298 0.0
H921 H 0.75725 0.37797 0.90352 0.0
H922 H 0.85779 0.32789 0.9398 0.0
H923 H 0.87305 0.27206 0.94829 0.0
C924 C 0.75876 0.22109 0.60241 0.0
C925 C 0.8036 0.23177 0.61299 0.0
C926 C 0.78413 0.31175 0.61361 0.0
C927 C 0.73844 0.30117 0.60665 0.0
N928 N 0.6807 0.24508 0.60119 0.0
N929 N 0.85513 0.28593 0.63909 0.0
C930 C 0.72525 0.25547 0.60334 0.0
C931 C 0.81487 0.27674 0.62219 0.0
N932 N 0.7487 0.17906 0.58929 0.0
N933 N 0.79913 0.35468 0.60862 0.0
H934 H 0.87763 0.26058 0.64685 0.0
H935 H 0.86366 0.31786 0.64907 0.0
H936 H 0.77868 0.3797 0.59727 0.0
H937 H 0.8329 0.36363 0.61051 0.0
H938 H 0.71765 0.17057 0.57761 0.0
H939 H 0.77265 0.1537 0.58699 0.0
H940 H 0.66857 0.2122 0.60202 0.0
H941 H 0.65575 0.26972 0.6021 0.0
C942 C 0.26635 0.8152 0.60324 0.0
C943 C 0.31286 0.80538 0.60081 0.0
C944 C 0.29492 0.72462 0.60088 0.0
C945 C 0.24842 0.73472 0.59891 0.0
N946 N 0.19114 0.79051 0.58753 0.0
N947 N 0.37033 0.75048 0.58721 0.0
C948 C 0.23441 0.78034 0.59712 0.0
C949 C 0.32696 0.75994 0.59686 0.0
N950 N 0.25263 0.8576 0.61253 0.0
N951 N 0.30851 0.68152 0.60774 0.0
H952 H 0.39398 0.77544 0.58146 0.0
H953 H 0.38132 0.71812 0.58063 0.0
H954 H 0.28587 0.65526 0.6122 0.0
H955 H 0.34191 0.6729 0.61284 0.0
H956 H 0.21918 0.86569 0.61791 0.0
H957 H 0.27519 0.8834 0.61887 0.0
H958 H 0.18014 0.8233 0.58258 0.0
H959 H 0.16771 0.76598 0.58004 0.0
C960 C 0.55402 0.03278 0.9909 0.0
C961 C 0.55717 0.04212 0.03054 0.0
C962 C 0.47523 0.02681 0.03496 0.0
C963 C 0.47485 1.01115 0.99668 0.0
N964 N 0.51982 0.98645 0.94283 0.0
N965 N 0.51695 0.04731 0.09133 0.0
C966 C 0.51603 1.00973 0.97623 0.0
C967 C 0.51675 0.03915 0.05294 0.0
N968 N 0.58589 0.04877 0.96636 0.0
N969 N 0.43551 0.03038 0.05428 0.0
H970 H 0.54197 0.06429 0.10598 0.0
H971 H 0.49136 0.03654 0.10942 0.0
H972 H 0.40542 1.0171 0.04393 0.0
H973 H 0.43196 0.04806 0.07976 0.0
H974 H 0.58294 0.04592 0.93678 0.0
H975 H 0.61139 0.07055 0.97511 0.0
H976 H 0.55052 0.98222 0.92898 0.0
H977 H 0.49419 0.96706 0.93126 0.0
C978 C 0.53402 0.56526 1.00851 0.0
C979 C 0.49213 0.56414 0.02811 0.0
C980 C 0.48679 0.48274 1.0148 0.0
C981 C 0.53048 0.48302 0.99811 0.0
N982 N 0.5994 0.52365 0.98734 0.0
N983 N 0.43286 0.51911 0.05598 0.0
C984 C 0.55499 0.52413 0.99707 0.0
C985 C 0.47016 0.52202 0.0334 0.0
N986 N 0.55449 0.60551 1.00115 0.0
N987 N 0.45929 0.44619 1.01063 0.0
H988 H 0.41637 0.54692 0.06726 0.0
H989 H 0.4196 0.48853 0.06525 0.0
H990 H 0.46854 0.41672 0.99681 0.0
H991 H 0.42524 0.44674 0.01745 0.0
H992 H 0.58177 0.6088 0.98277 0.0
H993 H 0.54263 0.63623 1.01109 0.0
H994 H 0.62058 0.55133 0.9903 0.0
H995 H 0.61654 0.49426 0.98052 0.0
C996 C 1.01486 0.47896 0.03184 0.0
C997 C 0.97407 0.50285 0.02552 0.0
C998 C 1.01788 0.56697 1.00058 0.0
C999 C 0.05818 0.54154 1.0039 0.0
N1000 N 0.09317 0.46947 1.01587 0.0
N1001 N 0.93645 0.5684 1.00006 0.0
C1002 C 0.0562 0.49661 0.01788 0.0
C1003 C 0.97551 0.54634 1.00847 0.0
N1004 N 1.01445 0.43919 0.0515 0.0
N1005 N 1.02027 0.61171 0.99164 0.0
H1006 H 0.90482 0.5563 1.00734 0.0
H1007 H 0.93502 0.59738 0.98338 0.0
H1008 H 0.05048 0.62823 0.98636 0.0
H1009 H 0.99308 0.63363 0.99323 0.0
H1010 H 0.04342 0.42379 0.0619 0.0
H1011 H 0.98512 0.42246 0.05918 0.0
H1012 H 0.09194 0.43478 0.02006 0.0
H1013 H 0.12454 0.48062 1.00708 0.0
C1014 C 0.97653 0.03216 1.01483 0.0
C1015 C 1.0025 0.0723 1.01507 0.0
C1016 C 0.06728 0.02869 0.03907 0.0
C1017 C 0.04255 0.98797 0.03516 0.0
N1018 N 0.97492 0.95055 1.01422 0.0
N1019 N 0.07588 0.1067 0.02092 0.0
C1020 C 0.99763 0.98961 0.02133 0.0
C1021 C 0.04869 0.07008 0.02568 0.0
N1022 N 0.93109 0.03494 1.00991 0.0
N1023 N 0.10875 0.02814 0.05584 0.0
H1024 H 0.06428 0.13806 1.01237 0.0
H1025 H 0.11077 0.10515 0.02261 0.0
H1026 H 0.12509 0.99869 0.06389 0.0
H1027 H 0.12574 0.05719 0.06414 0.0
H1028 H 0.90945 1.00773 1.01296 0.0
H1029 H 0.91434 0.06549 1.00656 0.0
H1030 H 0.94431 0.94937 0.99988 0.0
H1031 H 0.98822 0.91881 0.01967 0.0
C1032 C 0.98516 0.99692 0.52013 0.0
C1033 C 0.98307 0.04227 0.53338 0.0
C1034 C 0.06466 0.04979 0.52248 0.0
C1035 C 0.06651 1.00511 0.50782 0.0
N1036 N 0.02634 0.93901 0.48651 0.0
N1037 N 1.01835 0.11488 0.53646 0.0
C1038 C 0.02606 0.97974 0.50466 0.0
C1039 C 1.02225 0.06943 0.53171 0.0
N1040 N 0.94883 0.96908 0.5238 0.0
N1041 N 0.10325 0.07406 0.52722 0.0
H1042 H 0.98746 0.13046 0.54076 0.0
H1043 H 0.04437 0.13756 0.53148 0.0
H1044 H 0.13478 0.06269 0.51896 0.0
H1045 H 0.10452 0.10445 0.54197 0.0
H1046 H 0.95072 0.93426 0.52084 0.0
H1047 H 0.91716 0.97972 0.53229 0.0
H1048 H 0.99727 0.92226 0.47803 0.0
H1049 H 0.05557 0.92267 0.47806 0.0
C1050 C 0.53036 0.06068 0.53143 0.0
C1051 C 0.5429 0.05921 0.49247 0.0
C1052 C 0.53646 0.97619 0.49461 0.0
C1053 C 0.51867 0.97853 0.53224 0.0
N1054 N 0.48963 0.02613 0.58304 0.0
N1055 N 0.55185 1.01432 0.43504 0.0
C1056 C 0.51262 1.02162 0.54953 0.0
C1057 C 0.54508 1.01657 0.47361 0.0
N1058 N 0.5376 0.09911 0.55198 0.0
N1059 N 0.54428 0.93512 0.47834 0.0
H1060 H 0.55732 0.04211 0.41772 0.0
H1061 H 0.5477 0.98501 0.41917 0.0
H1062 H 0.53273 0.90498 0.49003 0.0
H1063 H 0.56376 0.9308 0.45395 0.0
H1064 H 0.53371 0.10083 0.5815 0.0
H1065 H 0.55286 0.1276 0.54031 0.0
H1066 H 0.48016 0.05732 0.59397 0.0
H1067 H 0.47595 0.99957 0.59833 0.0
C1068 C 0.49014 0.49646 0.51581 0.0
C1069 C 0.48602 0.54292 0.50617 0.0
C1070 C 0.56774 0.55229 0.51567 0.0
C1071 C 0.572 0.50547 0.52386 0.0
N1072 N 0.53919 0.43163 0.52354 0.0
N1073 N 0.52128 0.61457 0.49425 0.0
C1074 C 0.53362 0.47727 0.52175 0.0
C1075 C 0.52503 0.57057 0.50532 0.0
N1076 N 0.45254 0.47044 0.51952 0.0
N1077 N 0.60427 0.57983 0.51902 0.0
H1078 H 0.49049 0.63052 0.49041 0.0
H1079 H 0.54841 0.63513 0.48749 0.0
H1080 H 0.63671 0.56792 0.52281 0.0
H1081 H 0.60264 0.61478 0.51908 0.0
H1082 H 0.45285 0.43783 0.53039 0.0
H1083 H 0.42021 0.48236 0.51483 0.0
H1084 H 0.51381 0.40853 0.5177 0.0
H1085 H 0.57058 0.41662 0.52701 0.0
C1086 C 0.06452 0.52236 0.54254 0.0
C1087 C 0.05445 0.56585 0.52781 0.0
C1088 C 1.00779 0.53038 0.47818 0.0
C1089 C 1.01598 0.48686 0.49448 0.0
N1090 N 0.03773 0.44623 0.55117 0.0
N1091 N 1.00343 0.61052 0.48972 0.0
C1092 C 0.03966 0.48448 0.5296 0.0
C1093 C 1.02195 0.56969 0.49825 0.0
N1094 N 0.09938 0.51638 0.56743 0.0
N1095 N 0.99013 0.53511 0.44235 0.0
H1096 H 1.01169 0.64001 0.50411 0.0
H1097 H 0.97617 0.61409 0.47124 0.0
H1098 H 0.98087 0.50871 0.42471 0.0
H1099 H 0.98911 0.56597 0.42819 0.0
H1100 H 0.11028 0.48463 0.5761 0.0
H1101 H 0.12075 0.54233 0.57582 0.0
H1102 H 0.05148 0.44411 0.5785 0.0
H1103 H 1.01751 0.4189 0.54371 0.0
C1104 C 0.59643 0.14718 0.26953 0.0
C1105 C 0.62342 0.13005 0.29976 0.0
C1106 C 0.67093 0.09226 0.25259 0.0
C1107 C 0.64647 0.11338 0.22236 0.0
N1108 N 0.59703 0.17449 0.20472 0.0
N1109 N 0.69446 0.09771 0.31862 0.0
C1110 C 0.61275 0.14516 0.23166 0.0
C1111 C 0.66321 0.10609 0.29091 0.0
N1112 N 0.5541 0.16305 0.2762 0.0
N1113 N 0.69969 0.05747 0.24564 0.0
H1114 H 0.69117 0.10918 0.34659 0.0
H1115 H 0.72592 0.08405 0.31268 0.0
H1116 H 0.70588 0.0445 0.21872 0.0
H1117 H 0.71412 0.03838 0.26741 0.0
H1118 H 0.53234 0.17226 0.25418 0.0
H1119 H 0.53853 0.16166 0.30276 0.0
H1120 H 0.57478 0.20046 0.21124 0.0
H1121 H 0.61063 0.17659 0.17734 0.0
C1122 C 0.44692 0.58684 0.2879 0.0
C1123 C 0.42004 0.61727 0.30925 0.0
C1124 C 0.39381 0.65176 0.24962 0.0
C1125 C 0.42393 0.62463 0.22836 0.0
N1126 N 0.48535 0.57104 0.2287 0.0
N1127 N 0.37728 0.68583 0.31069 0.0
C1128 C 0.45208 0.59328 0.24782 0.0
C1129 C 0.39611 0.65176 0.29014 0.0
N1130 N 0.4666 0.55083 0.30551 0.0
N1131 N 0.36173 0.67633 0.23112 0.0
H1132 H 0.38187 0.68856 0.34007 0.0
H1133 H 0.36249 0.71402 0.29822 0.0
H1134 H 0.35736 0.67478 0.20164 0.0
H1135 H 0.33633 0.69371 0.24524 0.0
H1136 H 0.48095 0.5241 0.29066 0.0
H1137 H 0.46626 0.54601 0.33491 0.0
H1138 H 0.51056 0.55289 0.24245 0.0
H1139 H 0.4903 0.5732 0.1994 0.0
C1140 C 0.93693 0.47111 0.24452 0.0
C1141 C 0.91602 0.43604 0.22355 0.0
C1142 C 0.89809 0.39698 0.28331 0.0
C1143 C 0.91995 0.43166 0.30411 0.0
N1144 N 0.94157 0.51001 0.30483 0.0
N1145 N 0.88244 0.36259 0.22176 0.0
C1146 C 0.934 0.47125 0.28495 0.0
C1147 C 0.89774 0.39826 0.24268 0.0
N1148 N 0.96103 0.5036 0.22601 0.0
N1149 N 0.87521 0.36448 0.30285 0.0
H1150 H 0.88444 0.36186 0.19207 0.0
H1151 H 0.87188 0.33221 0.23346 0.0
H1152 H 0.87167 0.36569 0.33241 0.0
H1153 H 0.85571 0.33962 0.29013 0.0
H1154 H 0.98075 0.52725 0.2402 0.0
H1155 H 0.96551 0.504 0.19655 0.0
H1156 H 0.94799 0.54083 0.29172 0.0
H1157 H 0.9352 0.51309 0.33388 0.0
C1158 C 0.09591 0.95773 0.28976 0.0
C1159 C 0.12654 0.92988 0.31012 0.0
C1160 C 0.15142 0.89664 0.24972 0.0
C1161 C 0.11773 0.92087 0.2298 0.0
N1162 N 0.05137 0.96785 0.23271 0.0
N1163 N 0.17472 0.8649 0.31015 0.0
C1164 C 0.08817 0.94968 0.25027 0.0
C1165 C 0.15186 0.89706 0.29025 0.0
N1166 N 0.07532 0.99307 0.30749 0.0
N1167 N 0.18409 0.87452 0.22992 0.0
H1168 H 0.17247 0.86224 0.33971 0.0
H1169 H 0.19081 0.83779 0.29722 0.0
H1170 H 0.18619 0.87579 0.20027 0.0
H1171 H 0.2118 0.85956 0.24296 0.0
H1172 H 0.05754 1.01782 0.29275 0.0
H1173 H 0.07865 0.99989 0.33645 0.0
H1174 H 0.02585 0.98422 0.24754 0.0
H1175 H 0.04401 0.96341 0.20394 0.0
C1176 C 0.40294 0.97175 0.77395 0.0
C1177 C 0.42264 0.945 0.80331 0.0
C1178 C 0.46898 0.90814 0.75511 0.0
C1179 C 0.44331 0.92865 0.7255 0.0
N1180 N 0.37927 0.97424 0.70798 0.0
N1181 N 0.46832 0.88059 0.81995 0.0
C1182 C 0.40852 0.95905 0.73517 0.0
C1183 C 0.45412 0.91125 0.79346 0.0
N1184 N 0.38043 1.01037 0.78277 0.0
N1185 N 0.50854 0.88709 0.74696 0.0
H1186 H 0.45656 0.87982 0.84794 0.0
H1187 H 0.48798 0.8528 0.81287 0.0
H1188 H 0.52234 0.88686 0.71971 0.0
H1189 H 0.53022 0.87505 0.76802 0.0
H1190 H 0.369 0.03291 0.7621 0.0
H1191 H 0.37816 1.0227 0.81047 0.0
H1192 H 0.35068 0.99288 0.71462 0.0
H1193 H 0.3807 0.96443 0.67946 0.0
C1194 C 0.60589 0.39919 0.73267 0.0
C1195 C 0.63764 0.43282 0.72294 0.0
C1196 C 0.6543 0.44199 0.79134 0.0
C1197 C 0.61629 0.41568 0.8008 0.0
N1198 N 0.54918 0.37737 0.77782 0.0
N1199 N 0.68591 0.49328 0.74562 0.0
C1200 C 0.59018 0.39633 0.77081 0.0
C1201 C 0.66044 0.45609 0.75293 0.0
N1202 N 0.59175 0.36874 0.70605 0.0
N1203 N 0.68544 0.45255 0.81858 0.0
H1204 H 0.6892 0.50736 0.71871 0.0
H1205 H 0.69936 0.51335 0.76718 0.0
H1206 H 0.68354 0.4408 0.84659 0.0
H1207 H 0.7158 0.4683 0.81212 0.0
H1208 H 0.57138 0.34135 0.71294 0.0
H1209 H 0.60495 0.36732 0.67852 0.0
H1210 H 0.52784 0.36679 0.75598 0.0
H1211 H 0.53383 0.3771 0.80445 0.0
C1212 C 0.09401 0.59047 0.7473 0.0
C1213 C 0.12163 0.622 0.72762 0.0
C1214 C 0.14794 0.65185 0.78886 0.0
C1215 C 0.12407 0.6178 0.80848 0.0
N1216 N 0.07889 0.55017 0.80584 0.0
N1217 N 0.18327 0.67445 0.72979 0.0
C1218 C 0.09833 0.58585 0.78758 0.0
C1219 C 0.15116 0.65017 0.74851 0.0
N1220 N 0.06193 0.5664 0.7282 0.0
N1221 N 0.16562 0.68717 0.80867 0.0
H1222 H 0.18814 0.67182 0.70042 0.0
H1223 H 0.20821 0.6927 0.74381 0.0
H1224 H 0.15994 0.69126 0.83778 0.0
H1225 H 0.18038 0.71499 0.79561 0.0
H1226 H 0.03676 0.54827 0.74197 0.0
H1227 H 0.05801 0.56667 0.69872 0.0
H1228 H 0.06591 0.52233 0.79153 0.0
H1229 H 0.07783 0.54693 0.83534 0.0
C1230 C 0.894 0.14176 0.79561 0.0
C1231 C 0.93145 0.12485 0.81588 0.0
C1232 C 0.96588 0.10067 0.7553 0.0
C1233 C 0.92897 0.11976 0.73496 0.0
N1234 N 0.86498 0.16924 0.73539 0.0
N1235 N 1.00459 0.09019 0.81561 0.0
C1236 C 0.89515 0.14351 0.75511 0.0
C1237 C 0.9678 0.10484 0.79585 0.0
N1238 N 0.85633 0.15413 0.81512 0.0
N1239 N 0.99813 0.07671 0.7364 0.0
H1240 H 1.00477 0.08658 0.84513 0.0
H1241 H 0.0353 0.0826 0.80301 0.0
H1242 H 1.00065 0.07507 0.70688 0.0
H1243 H 1.02161 0.05624 0.74995 0.0
H1244 H 0.82632 0.16316 0.80187 0.0
H1245 H 0.85356 0.14988 0.84455 0.0
H1246 H 0.84194 0.19055 0.74851 0.0
H1247 H 0.86666 0.1733 0.70586 0.0
loop_
_geom_bond_atom_site_label_1
_geom_bond_atom_site_label_2
_geom_bond_distance
_geom_bond_site_symmetry_2
_ccdc_geom_bond_type
Co0 N4 2.148 . S
Co0 N10 2.128 1_545 S
Co0 N20 2.194 . S
Co0 O25 2.351 . S
Co0 O26 2.155 . S
Co0 O27 2.096 . S
C1 N4 1.301 . S
C1 N5 1.328 . S
C1 H6 0.930 . S
C2 C3 1.333 . S
C2 N4 1.317 . S
C2 H7 0.930 . S
C3 C2 1.333 . S
C3 N5 1.350 . S
C3 H29 0.931 . S
N4 Co0 2.148 . S
N4 C1 1.301 . S
N4 C2 1.317 . S
N5 C1 1.328 . S
N5 C3 1.350 . S
H6 C1 0.930 . S
H7 C2 0.930 . S
C8 O9 1.224 . S
C8 O27 1.247 . S
O9 C8 1.224 . S
N10 Co0 2.128 1_565 S
N10 C11 1.355 . S
N10 C13 1.311 . S
C11 N10 1.355 . S
C11 C12 1.363 . S
C11 H23 0.929 . S
C12 C11 1.363 . S
C12 N14 1.375 . S
C12 H30 0.931 . S
C13 N10 1.311 . S
C13 N14 1.347 . S
C13 H24 0.929 . S
N14 C12 1.375 . S
N14 C13 1.347 . S
C15 C18 1.365 . S
C15 N20 1.328 . S
C15 H21 0.929 . S
C16 C17 1.362 . S
C16 C19 1.378 1_565 S
C16 H31 0.929 . S
C17 C16 1.362 . S
C17 C18 1.366 1_565 S
C18 C15 1.365 . S
C18 C17 1.366 1_545 S
C18 H32 0.930 . S
C19 C16 1.378 1_545 S
C19 N20 1.315 . S
C19 H22 0.930 . S
N20 Co0 2.194 . S
N20 C15 1.328 . S
N20 C19 1.315 . S
H21 C15 0.929 . S
H22 C19 0.930 . S
H23 C11 0.929 . S
H24 C13 0.929 . S
O25 Co0 2.351 . S
O25 C28 1.244 . S
O26 Co0 2.155 . S
O26 C28 1.240 . S
O27 Co0 2.096 . S
O27 C8 1.247 . S
C28 O25 1.244 . S
C28 O26 1.240 . S
H29 C3 0.931 . S
H30 C12 0.931 . S
H31 C16 0.929 . S
H32 C18 0.930 . S
Co33 N37 2.148 . S
Co33 N43 2.128 . S
Co33 N53 2.194 . S
Co33 O58 2.351 . S
Co33 O59 2.155 . S
Co33 O60 2.096 . S
C34 N37 1.301 . S
C34 N38 1.328 . S
C34 H39 0.930 . S
C35 C36 1.333 . S
C35 N37 1.317 . S
C35 H40 0.930 . S
C36 C35 1.333 . S
C36 N38 1.350 . S
C36 H62 0.931 . S
N37 Co33 2.148 . S
N37 C34 1.301 . S
N37 C35 1.317 . S
N38 C34 1.328 . S
N38 C36 1.350 . S
H39 C34 0.930 . S
H40 C35 0.930 . S
C41 O42 1.224 . S
C41 O60 1.247 . S
O42 C41 1.224 . S
N43 Co33 2.128 . S
N43 C44 1.355 . S
N43 C46 1.311 . S
C44 N43 1.355 . S
C44 C45 1.363 . S
C44 H56 0.929 . S
C45 C44 1.363 . S
C45 N47 1.375 . S
C45 H63 0.931 . S
C46 N43 1.311 . S
C46 N47 1.347 . S
C46 H57 0.929 . S
N47 C45 1.375 . S
N47 C46 1.347 . S
C48 C51 1.365 . S
C48 N53 1.328 . S
C48 H54 0.929 . S
C49 C50 1.362 . S
C49 C52 1.378 . S
C49 H64 0.929 . S
C50 C49 1.362 . S
C50 C51 1.366 . S
C51 C48 1.365 . S
C51 C50 1.366 . S
C51 H65 0.930 . S
C52 C49 1.378 . S
C52 N53 1.315 . S
C52 H55 0.930 . S
N53 Co33 2.194 . S
N53 C48 1.328 . S
N53 C52 1.315 . S
H54 C48 0.929 . S
H55 C52 0.930 . S
H56 C44 0.929 . S
H57 C46 0.929 . S
O58 Co33 2.351 . S
O58 C61 1.244 . S
O59 Co33 2.155 . S
O59 C61 1.240 . S
O60 Co33 2.096 . S
O60 C41 1.247 . S
C61 O58 1.244 . S
C61 O59 1.240 . S
H62 C36 0.931 . S
H63 C45 0.931 . S
H64 C49 0.929 . S
H65 C51 0.930 . S
Co66 N70 2.148 . S
Co66 N76 2.128 . S
Co66 N86 2.194 . S
Co66 O91 2.351 . S
Co66 O92 2.155 . S
Co66 O93 2.096 . S
C67 N70 1.301 . S
C67 N71 1.328 . S
C67 H72 0.930 . S
C68 C69 1.333 . S
C68 N70 1.317 . S
C68 H73 0.930 . S
C69 C68 1.333 . S
C69 N71 1.350 . S
C69 H95 0.931 . S
N70 Co66 2.148 . S
N70 C67 1.301 . S
N70 C68 1.317 . S
N71 C67 1.328 . S
N71 C69 1.350 . S
H72 C67 0.930 . S
H73 C68 0.930 . S
C74 O75 1.224 . S
C74 O93 1.247 . S
O75 C74 1.224 . S
N76 Co66 2.128 . S
N76 C77 1.355 . S
N76 C79 1.311 . S
C77 N76 1.355 . S
C77 C78 1.363 . S
C77 H89 0.929 . S
C78 C77 1.363 . S
C78 N80 1.375 . S
C78 H96 0.931 . S
C79 N76 1.311 . S
C79 N80 1.347 . S
C79 H90 0.929 . S
N80 C78 1.375 . S
N80 C79 1.347 . S
C81 C84 1.365 . S
C81 N86 1.328 . S
C81 H87 0.929 . S
C82 C83 1.362 . S
C82 C85 1.378 . S
C82 H97 0.929 . S
C83 C82 1.362 . S
C83 C84 1.366 . S
C84 C81 1.365 . S
C84 C83 1.366 . S
C84 H98 0.930 . S
C85 C82 1.378 . S
C85 N86 1.315 . S
C85 H88 0.930 . S
N86 Co66 2.194 . S
N86 C81 1.328 . S
N86 C85 1.315 . S
H87 C81 0.929 . S
H88 C85 0.930 . S
H89 C77 0.929 . S
H90 C79 0.929 . S
O91 Co66 2.351 . S
O91 C94 1.244 . S
O92 Co66 2.155 . S
O92 C94 1.240 . S
O93 Co66 2.096 . S
O93 C74 1.247 . S
C94 O91 1.244 . S
C94 O92 1.240 . S
H95 C69 0.931 . S
H96 C78 0.931 . S
H97 C82 0.929 . S
H98 C84 0.930 . S
Co99 N103 2.148 . S
Co99 N109 2.128 1_455 S
Co99 N119 2.194 . S
Co99 O124 2.351 . S
Co99 O125 2.155 . S
Co99 O126 2.096 . S
C100 N103 1.301 . S
C100 N104 1.328 . S
C100 H105 0.930 . S
C101 C102 1.333 . S
C101 N103 1.317 . S
C101 H106 0.930 . S
C102 C101 1.333 . S
C102 N104 1.350 . S
C102 H128 0.931 . S
N103 Co99 2.148 . S
N103 C100 1.301 . S
N103 C101 1.317 . S
N104 C100 1.328 . S
N104 C102 1.350 . S
H105 C100 0.930 . S
H106 C101 0.930 . S
C107 O108 1.224 . S
C107 O126 1.247 . S
O108 C107 1.224 . S
N109 Co99 2.128 1_655 S
N109 C110 1.355 . S
N109 C112 1.311 . S
C110 N109 1.355 . S
C110 C111 1.363 . S
C110 H122 0.929 . S
C111 C110 1.363 . S
C111 N113 1.375 . S
C111 H129 0.931 . S
C112 N109 1.311 . S
C112 N113 1.347 . S
C112 H123 0.929 . S
N113 C111 1.375 . S
N113 C112 1.347 . S
C114 C117 1.365 . S
C114 N119 1.328 . S
C114 H120 0.929 . S
C115 C116 1.362 . S
C115 C118 1.378 1_655 S
C115 H130 0.929 . S
C116 C115 1.362 . S
C116 C117 1.366 1_655 S
C117 C114 1.365 . S
C117 C116 1.366 1_455 S
C117 H131 0.930 . S
C118 C115 1.378 1_455 S
C118 N119 1.315 . S
C118 H121 0.930 . S
N119 Co99 2.194 . S
N119 C114 1.328 . S
N119 C118 1.315 . S
H120 C114 0.929 . S
H121 C118 0.930 . S
H122 C110 0.929 . S
H123 C112 0.929 . S
O124 Co99 2.351 . S
O124 C127 1.244 . S
O125 Co99 2.155 . S
O125 C127 1.240 . S
O126 Co99 2.096 . S
O126 C107 1.247 . S
C127 O124 1.244 . S
C127 O125 1.240 . S
H128 C102 0.931 . S
H129 C111 0.931 . S
H130 C115 0.929 . S
H131 C117 0.930 . S
Co132 N136 2.148 . S
Co132 N142 2.128 1_565 S
Co132 N152 2.194 . S
Co132 O157 2.351 . S
Co132 O158 2.155 . S
Co132 O159 2.096 . S
C133 N136 1.301 . S
C133 N137 1.328 . S
C133 H138 0.930 . S
C134 C135 1.333 . S
C134 N136 1.317 . S
C134 H139 0.930 . S
C135 C134 1.333 . S
C135 N137 1.350 . S
C135 H161 0.931 . S
N136 Co132 2.148 . S
N136 C133 1.301 . S
N136 C134 1.317 . S
N137 C133 1.328 . S
N137 C135 1.350 . S
H138 C133 0.930 . S
H139 C134 0.930 . S
C140 O141 1.224 . S
C140 O159 1.247 . S
O141 C140 1.224 . S
N142 Co132 2.128 1_545 S
N142 C143 1.355 . S
N142 C145 1.311 . S
C143 N142 1.355 . S
C143 C144 1.363 . S
C143 H155 0.929 . S
C144 C143 1.363 . S
C144 N146 1.375 . S
C144 H162 0.931 . S
C145 N142 1.311 . S
C145 N146 1.347 . S
C145 H156 0.929 . S
N146 C144 1.375 . S
N146 C145 1.347 . S
C147 C150 1.365 . S
C147 N152 1.328 . S
C147 H153 0.929 . S
C148 C149 1.362 . S
C148 C151 1.378 1_545 S
C148 H163 0.929 . S
C149 C148 1.362 . S
C149 C150 1.366 1_545 S
C150 C147 1.365 . S
C150 C149 1.366 1_565 S
C150 H164 0.930 . S
C151 C148 1.378 1_565 S
C151 N152 1.315 . S
C151 H154 0.930 . S
N152 Co132 2.194 . S
N152 C147 1.328 . S
N152 C151 1.315 . S
H153 C147 0.929 . S
H154 C151 0.930 . S
H155 C143 0.929 . S
H156 C145 0.929 . S
O157 Co132 2.351 . S
O157 C160 1.244 . S
O158 Co132 2.155 . S
O158 C160 1.240 . S
O159 Co132 2.096 . S
O159 C140 1.247 . S
C160 O157 1.244 . S
C160 O158 1.240 . S
H161 C135 0.931 . S
H162 C144 0.931 . S
H163 C148 0.929 . S
H164 C150 0.930 . S
Co165 N169 2.148 . S
Co165 N175 2.128 . S
Co165 N185 2.194 . S
Co165 O190 2.351 . S
Co165 O191 2.155 . S
Co165 O192 2.096 . S
C166 N169 1.301 . S
C166 N170 1.328 . S
C166 H171 0.930 . S
C167 C168 1.333 . S
C167 N169 1.317 . S
C167 H172 0.930 . S
C168 C167 1.333 . S
C168 N170 1.350 . S
C168 H194 0.931 . S
N169 Co165 2.148 . S
N169 C166 1.301 . S
N169 C167 1.317 . S
N170 C166 1.328 . S
N170 C168 1.350 . S
H171 C166 0.930 . S
H172 C167 0.930 . S
C173 O174 1.224 . S
C173 O192 1.247 . S
O174 C173 1.224 . S
N175 Co165 2.128 . S
N175 C176 1.355 . S
N175 C178 1.311 . S
C176 N175 1.355 . S
C176 C177 1.363 . S
C176 H188 0.929 . S
C177 C176 1.363 . S
C177 N179 1.375 . S
C177 H195 0.931 . S
C178 N175 1.311 . S
C178 N179 1.347 . S
C178 H189 0.929 . S
N179 C177 1.375 . S
N179 C178 1.347 . S
C180 C183 1.365 . S
C180 N185 1.328 . S
C180 H186 0.929 . S
C181 C182 1.362 . S
C181 C184 1.378 . S
C181 H196 0.929 . S
C182 C181 1.362 . S
C182 C183 1.366 . S
C183 C180 1.365 . S
C183 C182 1.366 . S
C183 H197 0.930 . S
C184 C181 1.378 . S
C184 N185 1.315 . S
C184 H187 0.930 . S
N185 Co165 2.194 . S
N185 C180 1.328 . S
N185 C184 1.315 . S
H186 C180 0.929 . S
H187 C184 0.930 . S
H188 C176 0.929 . S
H189 C178 0.929 . S
O190 Co165 2.351 . S
O190 C193 1.244 . S
O191 Co165 2.155 . S
O191 C193 1.240 . S
O192 Co165 2.096 . S
O192 C173 1.247 . S
C193 O190 1.244 . S
C193 O191 1.240 . S
H194 C168 0.931 . S
H195 C177 0.931 . S
H196 C181 0.929 . S
H197 C183 0.930 . S
Co198 N202 2.148 . S
Co198 N208 2.128 . S
Co198 N218 2.194 . S
Co198 O223 2.351 . S
Co198 O224 2.155 . S
Co198 O225 2.096 . S
C199 N202 1.301 . S
C199 N203 1.328 . S
C199 H204 0.930 . S
C200 C201 1.333 . S
C200 N202 1.317 . S
C200 H205 0.930 . S
C201 C200 1.333 . S
C201 N203 1.350 . S
C201 H227 0.931 . S
N202 Co198 2.148 . S
N202 C199 1.301 . S
N202 C200 1.317 . S
N203 C199 1.328 . S
N203 C201 1.350 . S
H204 C199 0.930 . S
H205 C200 0.930 . S
C206 O207 1.224 . S
C206 O225 1.247 . S
O207 C206 1.224 . S
N208 Co198 2.128 . S
N208 C209 1.355 . S
N208 C211 1.311 . S
C209 N208 1.355 . S
C209 C210 1.363 . S
C209 H221 0.929 . S
C210 C209 1.363 . S
C210 N212 1.375 . S
C210 H228 0.931 . S
C211 N208 1.311 . S
C211 N212 1.347 . S
C211 H222 0.929 . S
N212 C210 1.375 . S
N212 C211 1.347 . S
C213 C216 1.365 . S
C213 N218 1.328 . S
C213 H219 0.929 . S
C214 C215 1.362 . S
C214 C217 1.378 . S
C214 H229 0.929 . S
C215 C214 1.362 . S
C215 C216 1.366 . S
C216 C213 1.365 . S
C216 C215 1.366 . S
C216 H230 0.930 . S
C217 C214 1.378 . S
C217 N218 1.315 . S
C217 H220 0.930 . S
N218 Co198 2.194 . S
N218 C213 1.328 . S
N218 C217 1.315 . S
H219 C213 0.929 . S
H220 C217 0.930 . S
H221 C209 0.929 . S
H222 C211 0.929 . S
O223 Co198 2.351 . S
O223 C226 1.244 . S
O224 Co198 2.155 . S
O224 C226 1.240 . S
O225 Co198 2.096 . S
O225 C206 1.247 . S
C226 O223 1.244 . S
C226 O224 1.240 . S
H227 C201 0.931 . S
H228 C210 0.931 . S
H229 C214 0.929 . S
H230 C216 0.930 . S
Co231 N235 2.148 . S
Co231 N241 2.128 1_655 S
Co231 N251 2.194 . S
Co231 O256 2.351 . S
Co231 O257 2.155 . S
Co231 O258 2.096 . S
C232 N235 1.301 . S
C232 N236 1.328 . S
C232 H237 0.930 . S
C233 C234 1.333 . S
C233 N235 1.317 . S
C233 H238 0.930 . S
C234 C233 1.333 . S
C234 N236 1.350 . S
C234 H260 0.931 . S
N235 Co231 2.148 . S
N235 C232 1.301 . S
N235 C233 1.317 . S
N236 C232 1.328 . S
N236 C234 1.350 . S
H237 C232 0.930 . S
H238 C233 0.930 . S
C239 O240 1.224 . S
C239 O258 1.247 . S
O240 C239 1.224 . S
N241 Co231 2.128 1_455 S
N241 C242 1.355 . S
N241 C244 1.311 . S
C242 N241 1.355 . S
C242 C243 1.363 . S
C242 H254 0.929 . S
C243 C242 1.363 . S
C243 N245 1.375 . S
C243 H261 0.931 . S
C244 N241 1.311 . S
C244 N245 1.347 . S
C244 H255 0.929 . S
N245 C243 1.375 . S
N245 C244 1.347 . S
C246 C249 1.365 . S
C246 N251 1.328 . S
C246 H252 0.929 . S
C247 C248 1.362 . S
C247 C250 1.378 1_455 S
C247 H262 0.929 . S
C248 C247 1.362 . S
C248 C249 1.366 1_455 S
C249 C246 1.365 . S
C249 C248 1.366 1_655 S
C249 H263 0.930 . S
C250 C247 1.378 1_655 S
C250 N251 1.315 . S
C250 H253 0.930 . S
N251 Co231 2.194 . S
N251 C246 1.328 . S
N251 C250 1.315 . S
H252 C246 0.929 . S
H253 C250 0.930 . S
H254 C242 0.929 . S
H255 C244 0.929 . S
O256 Co231 2.351 . S
O256 C259 1.244 . S
O257 Co231 2.155 . S
O257 C259 1.240 . S
O258 Co231 2.096 . S
O258 C239 1.247 . S
C259 O256 1.244 . S
C259 O257 1.240 . S
H260 C234 0.931 . S
H261 C243 0.931 . S
H262 C247 0.929 . S
H263 C249 0.930 . S
Co264 N268 2.148 . S
Co264 N274 2.128 1_565 S
Co264 N284 2.194 . S
Co264 O289 2.351 . S
Co264 O290 2.155 . S
Co264 O291 2.096 . S
C265 N268 1.301 . S
C265 N269 1.328 . S
C265 H270 0.930 . S
C266 C267 1.333 . S
C266 N268 1.317 . S
C266 H271 0.930 . S
C267 C266 1.333 . S
C267 N269 1.350 . S
C267 H293 0.931 . S
N268 Co264 2.148 . S
N268 C265 1.301 . S
N268 C266 1.317 . S
N269 C265 1.328 . S
N269 C267 1.350 . S
H270 C265 0.930 . S
H271 C266 0.930 . S
C272 O273 1.224 . S
C272 O291 1.247 . S
O273 C272 1.224 . S
N274 Co264 2.128 1_545 S
N274 C275 1.355 . S
N274 C277 1.311 . S
C275 N274 1.355 . S
C275 C276 1.363 . S
C275 H287 0.929 . S
C276 C275 1.363 . S
C276 N278 1.375 . S
C276 H294 0.931 . S
C277 N274 1.311 . S
C277 N278 1.347 . S
C277 H288 0.929 . S
N278 C276 1.375 . S
N278 C277 1.347 . S
C279 C282 1.365 . S
C279 N284 1.328 . S
C279 H285 0.929 . S
C280 C281 1.362 . S
C280 C283 1.378 1_545 S
C280 H295 0.929 . S
C281 C280 1.362 . S
C281 C282 1.366 1_545 S
C282 C279 1.365 . S
C282 C281 1.366 1_565 S
C282 H296 0.930 . S
C283 C280 1.378 1_565 S
C283 N284 1.315 . S
C283 H286 0.930 . S
N284 Co264 2.194 . S
N284 C279 1.328 . S
N284 C283 1.315 . S
H285 C279 0.929 . S
H286 C283 0.930 . S
H287 C275 0.929 . S
H288 C277 0.929 . S
O289 Co264 2.351 . S
O289 C292 1.244 . S
O290 Co264 2.155 . S
O290 C292 1.240 . S
O291 Co264 2.096 . S
O291 C272 1.247 . S
C292 O289 1.244 . S
C292 O290 1.240 . S
H293 C267 0.931 . S
H294 C276 0.931 . S
H295 C280 0.929 . S
H296 C282 0.930 . S
Co297 N301 2.148 . S
Co297 N307 2.128 . S
Co297 N317 2.194 . S
Co297 O322 2.351 . S
Co297 O323 2.155 . S
Co297 O324 2.096 . S
C298 N301 1.301 . S
C298 N302 1.328 . S
C298 H303 0.930 . S
C299 C300 1.333 . S
C299 N301 1.317 . S
C299 H304 0.930 . S
C300 C299 1.333 . S
C300 N302 1.350 . S
C300 H326 0.931 . S
N301 Co297 2.148 . S
N301 C298 1.301 . S
N301 C299 1.317 . S
N302 C298 1.328 . S
N302 C300 1.350 . S
H303 C298 0.930 . S
H304 C299 0.930 . S
C305 O306 1.224 . S
C305 O324 1.247 . S
O306 C305 1.224 . S
N307 Co297 2.128 . S
N307 C308 1.355 . S
N307 C310 1.311 . S
C308 N307 1.355 . S
C308 C309 1.363 . S
C308 H320 0.929 . S
C309 C308 1.363 . S
C309 N311 1.375 . S
C309 H327 0.931 . S
C310 N307 1.311 . S
C310 N311 1.347 . S
C310 H321 0.929 . S
N311 C309 1.375 . S
N311 C310 1.347 . S
C312 C315 1.365 . S
C312 N317 1.328 . S
C312 H318 0.929 . S
C313 C314 1.362 . S
C313 C316 1.378 . S
C313 H328 0.929 . S
C314 C313 1.362 . S
C314 C315 1.366 . S
C315 C312 1.365 . S
C315 C314 1.366 . S
C315 H329 0.930 . S
C316 C313 1.378 . S
C316 N317 1.315 . S
C316 H319 0.930 . S
N317 Co297 2.194 . S
N317 C312 1.328 . S
N317 C316 1.315 . S
H318 C312 0.929 . S
H319 C316 0.930 . S
H320 C308 0.929 . S
H321 C310 0.929 . S
O322 Co297 2.351 . S
O322 C325 1.244 . S
O323 Co297 2.155 . S
O323 C325 1.240 . S
O324 Co297 2.096 . S
O324 C305 1.247 . S
C325 O322 1.244 . S
C325 O323 1.240 . S
H326 C300 0.931 . S
H327 C309 0.931 . S
H328 C313 0.929 . S
H329 C315 0.930 . S
Co330 N334 2.148 . S
Co330 N340 2.128 . S
Co330 N350 2.194 . S
Co330 O355 2.351 . S
Co330 O356 2.155 . S
Co330 O357 2.096 . S
C331 N334 1.301 . S
C331 N335 1.328 . S
C331 H336 0.930 . S
C332 C333 1.333 . S
C332 N334 1.317 . S
C332 H337 0.930 . S
C333 C332 1.333 . S
C333 N335 1.350 . S
C333 H359 0.931 . S
N334 Co330 2.148 . S
N334 C331 1.301 . S
N334 C332 1.317 . S
N335 C331 1.328 . S
N335 C333 1.350 . S
H336 C331 0.930 . S
H337 C332 0.930 . S
C338 O339 1.224 . S
C338 O357 1.247 . S
O339 C338 1.224 . S
N340 Co330 2.128 . S
N340 C341 1.355 . S
N340 C343 1.311 . S
C341 N340 1.355 . S
C341 C342 1.363 . S
C341 H353 0.929 . S
C342 C341 1.363 . S
C342 N344 1.375 . S
C342 H360 0.931 . S
C343 N340 1.311 . S
C343 N344 1.347 . S
C343 H354 0.929 . S
N344 C342 1.375 . S
N344 C343 1.347 . S
C345 C348 1.365 . S
C345 N350 1.328 . S
C345 H351 0.929 . S
C346 C347 1.362 . S
C346 C349 1.378 . S
C346 H361 0.929 . S
C347 C346 1.362 . S
C347 C348 1.366 . S
C348 C345 1.365 . S
C348 C347 1.366 . S
C348 H362 0.930 . S
C349 C346 1.378 . S
C349 N350 1.315 . S
C349 H352 0.930 . S
N350 Co330 2.194 . S
N350 C345 1.328 . S
N350 C349 1.315 . S
H351 C345 0.929 . S
H352 C349 0.930 . S
H353 C341 0.929 . S
H354 C343 0.929 . S
O355 Co330 2.351 . S
O355 C358 1.244 . S
O356 Co330 2.155 . S
O356 C358 1.240 . S
O357 Co330 2.096 . S
O357 C338 1.247 . S
C358 O355 1.244 . S
C358 O356 1.240 . S
H359 C333 0.931 . S
H360 C342 0.931 . S
H361 C346 0.929 . S
H362 C348 0.930 . S
Co363 N367 2.148 . S
Co363 N373 2.128 1_655 S
Co363 N383 2.194 . S
Co363 O388 2.351 . S
Co363 O389 2.155 . S
Co363 O390 2.096 . S
C364 N367 1.301 . S
C364 N368 1.328 . S
C364 H369 0.930 . S
C365 C366 1.333 . S
C365 N367 1.317 . S
C365 H370 0.930 . S
C366 C365 1.333 . S
C366 N368 1.350 . S
C366 H392 0.931 . S
N367 Co363 2.148 . S
N367 C364 1.301 . S
N367 C365 1.317 . S
N368 C364 1.328 . S
N368 C366 1.350 . S
H369 C364 0.930 . S
H370 C365 0.930 . S
C371 O372 1.224 . S
C371 O390 1.247 . S
O372 C371 1.224 . S
N373 Co363 2.128 1_455 S
N373 C374 1.355 . S
N373 C376 1.311 . S
C374 N373 1.355 . S
C374 C375 1.363 . S
C374 H386 0.929 . S
C375 C374 1.363 . S
C375 N377 1.375 . S
C375 H393 0.931 . S
C376 N373 1.311 . S
C376 N377 1.347 . S
C376 H387 0.929 . S
N377 C375 1.375 . S
N377 C376 1.347 . S
C378 C381 1.365 . S
C378 N383 1.328 . S
C378 H384 0.929 . S
C379 C380 1.362 . S
C379 C382 1.378 1_455 S
C379 H394 0.929 . S
C380 C379 1.362 . S
C380 C381 1.366 1_455 S
C381 C378 1.365 . S
C381 C380 1.366 1_655 S
C381 H395 0.930 . S
C382 C379 1.378 1_655 S
C382 N383 1.315 . S
C382 H385 0.930 . S
N383 Co363 2.194 . S
N383 C378 1.328 . S
N383 C382 1.315 . S
H384 C378 0.929 . S
H385 C382 0.930 . S
H386 C374 0.929 . S
H387 C376 0.929 . S
O388 Co363 2.351 . S
O388 C391 1.244 . S
O389 Co363 2.155 . S
O389 C391 1.240 . S
O390 Co363 2.096 . S
O390 C371 1.247 . S
C391 O388 1.244 . S
C391 O389 1.240 . S
H392 C366 0.931 . S
H393 C375 0.931 . S
H394 C379 0.929 . S
H395 C381 0.930 . S
Co396 N400 2.148 . S
Co396 N406 2.128 1_545 S
Co396 N416 2.194 . S
Co396 O421 2.351 . S
Co396 O422 2.155 . S
Co396 O423 2.096 . S
C397 N400 1.301 . S
C397 N401 1.328 . S
C397 H402 0.930 . S
C398 C399 1.333 . S
C398 N400 1.317 . S
C398 H403 0.930 . S
C399 C398 1.333 . S
C399 N401 1.350 . S
C399 H425 0.931 . S
N400 Co396 2.148 . S
N400 C397 1.301 . S
N400 C398 1.317 . S
N401 C397 1.328 . S
N401 C399 1.350 . S
H402 C397 0.930 . S
H403 C398 0.930 . S
C404 O405 1.224 . S
C404 O423 1.247 . S
O405 C404 1.224 . S
N406 Co396 2.128 1_565 S
N406 C407 1.355 . S
N406 C409 1.311 . S
C407 N406 1.355 . S
C407 C408 1.363 . S
C407 H419 0.929 . S
C408 C407 1.363 . S
C408 N410 1.375 . S
C408 H426 0.931 . S
C409 N406 1.311 . S
C409 N410 1.347 . S
C409 H420 0.929 . S
N410 C408 1.375 . S
N410 C409 1.347 . S
C411 C414 1.365 . S
C411 N416 1.328 . S
C411 H417 0.929 . S
C412 C413 1.362 . S
C412 C415 1.378 1_565 S
C412 H427 0.929 . S
C413 C412 1.362 . S
C413 C414 1.366 1_565 S
C414 C411 1.365 . S
C414 C413 1.366 1_545 S
C414 H428 0.930 . S
C415 C412 1.378 1_545 S
C415 N416 1.315 . S
C415 H418 0.930 . S
N416 Co396 2.194 . S
N416 C411 1.328 . S
N416 C415 1.315 . S
H417 C411 0.929 . S
H418 C415 0.930 . S
H419 C407 0.929 . S
H420 C409 0.929 . S
O421 Co396 2.351 . S
O421 C424 1.244 . S
O422 Co396 2.155 . S
O422 C424 1.240 . S
O423 Co396 2.096 . S
O423 C404 1.247 . S
C424 O421 1.244 . S
C424 O422 1.240 . S
H425 C399 0.931 . S
H426 C408 0.931 . S
H427 C412 0.929 . S
H428 C414 0.930 . S
Co429 N433 2.148 . S
Co429 N439 2.128 . S
Co429 N449 2.194 . S
Co429 O454 2.351 . S
Co429 O455 2.155 . S
Co429 O456 2.096 . S
C430 N433 1.301 . S
C430 N434 1.328 . S
C430 H435 0.930 . S
C431 C432 1.333 . S
C431 N433 1.317 . S
C431 H436 0.930 . S
C432 C431 1.333 . S
C432 N434 1.350 . S
C432 H458 0.931 . S
N433 Co429 2.148 . S
N433 C430 1.301 . S
N433 C431 1.317 . S
N434 C430 1.328 . S
N434 C432 1.350 . S
H435 C430 0.930 . S
H436 C431 0.930 . S
C437 O438 1.224 . S
C437 O456 1.247 . S
O438 C437 1.224 . S
N439 Co429 2.128 . S
N439 C440 1.355 . S
N439 C442 1.311 . S
C440 N439 1.355 . S
C440 C441 1.363 . S
C440 H452 0.929 . S
C441 C440 1.363 . S
C441 N443 1.375 . S
C441 H459 0.931 . S
C442 N439 1.311 . S
C442 N443 1.347 . S
C442 H453 0.929 . S
N443 C441 1.375 . S
N443 C442 1.347 . S
C444 C447 1.365 . S
C444 N449 1.328 . S
C444 H450 0.929 . S
C445 C446 1.362 . S
C445 C448 1.378 . S
C445 H460 0.929 . S
C446 C445 1.362 . S
C446 C447 1.366 . S
C447 C444 1.365 . S
C447 C446 1.366 . S
C447 H461 0.930 . S
C448 C445 1.378 . S
C448 N449 1.315 . S
C448 H451 0.930 . S
N449 Co429 2.194 . S
N449 C444 1.328 . S
N449 C448 1.315 . S
H450 C444 0.929 . S
H451 C448 0.930 . S
H452 C440 0.929 . S
H453 C442 0.929 . S
O454 Co429 2.351 . S
O454 C457 1.244 . S
O455 Co429 2.155 . S
O455 C457 1.240 . S
O456 Co429 2.096 . S
O456 C437 1.247 . S
C457 O454 1.244 . S
C457 O455 1.240 . S
H458 C432 0.931 . S
H459 C441 0.931 . S
H460 C445 0.929 . S
H461 C447 0.930 . S
Co462 N466 2.148 . S
Co462 N472 2.128 . S
Co462 N482 2.194 . S
Co462 O487 2.351 . S
Co462 O488 2.155 . S
Co462 O489 2.096 . S
C463 N466 1.301 . S
C463 N467 1.328 . S
C463 H468 0.930 . S
C464 C465 1.333 . S
C464 N466 1.317 . S
C464 H469 0.930 . S
C465 C464 1.333 . S
C465 N467 1.350 . S
C465 H491 0.931 . S
N466 Co462 2.148 . S
N466 C463 1.301 . S
N466 C464 1.317 . S
N467 C463 1.328 . S
N467 C465 1.350 . S
H468 C463 0.930 . S
H469 C464 0.930 . S
C470 O471 1.224 . S
C470 O489 1.247 . S
O471 C470 1.224 . S
N472 Co462 2.128 . S
N472 C473 1.355 . S
N472 C475 1.311 . S
C473 N472 1.355 . S
C473 C474 1.363 . S
C473 H485 0.929 . S
C474 C473 1.363 . S
C474 N476 1.375 . S
C474 H492 0.931 . S
C475 N472 1.311 . S
C475 N476 1.347 . S
C475 H486 0.929 . S
N476 C474 1.375 . S
N476 C475 1.347 . S
C477 C480 1.365 . S
C477 N482 1.328 . S
C477 H483 0.929 . S
C478 C479 1.362 . S
C478 C481 1.378 . S
C478 H493 0.929 . S
C479 C478 1.362 . S
C479 C480 1.366 . S
C480 C477 1.365 . S
C480 C479 1.366 . S
C480 H494 0.930 . S
C481 C478 1.378 . S
C481 N482 1.315 . S
C481 H484 0.930 . S
N482 Co462 2.194 . S
N482 C477 1.328 . S
N482 C481 1.315 . S
H483 C477 0.929 . S
H484 C481 0.930 . S
H485 C473 0.929 . S
H486 C475 0.929 . S
O487 Co462 2.351 . S
O487 C490 1.244 . S
O488 Co462 2.155 . S
O488 C490 1.240 . S
O489 Co462 2.096 . S
O489 C470 1.247 . S
C490 O487 1.244 . S
C490 O488 1.240 . S
H491 C465 0.931 . S
H492 C474 0.931 . S
H493 C478 0.929 . S
H494 C480 0.930 . S
Co495 N499 2.148 . S
Co495 N505 2.128 1_455 S
Co495 N515 2.194 . S
Co495 O520 2.351 . S
Co495 O521 2.155 . S
Co495 O522 2.096 . S
C496 N499 1.301 . S
C496 N500 1.328 . S
C496 H501 0.930 . S
C497 C498 1.333 . S
C497 N499 1.317 . S
C497 H502 0.930 . S
C498 C497 1.333 . S
C498 N500 1.350 . S
C498 H524 0.931 . S
N499 Co495 2.148 . S
N499 C496 1.301 . S
N499 C497 1.317 . S
N500 C496 1.328 . S
N500 C498 1.350 . S
H501 C496 0.930 . S
H502 C497 0.930 . S
C503 O504 1.224 . S
C503 O522 1.247 . S
O504 C503 1.224 . S
N505 Co495 2.128 1_655 S
N505 C506 1.355 . S
N505 C508 1.311 . S
C506 N505 1.355 . S
C506 C507 1.363 . S
C506 H518 0.929 . S
C507 C506 1.363 . S
C507 N509 1.375 . S
C507 H525 0.931 . S
C508 N505 1.311 . S
C508 N509 1.347 . S
C508 H519 0.929 . S
N509 C507 1.375 . S
N509 C508 1.347 . S
C510 C513 1.365 . S
C510 N515 1.328 . S
C510 H516 0.929 . S
C511 C512 1.362 . S
C511 C514 1.378 1_655 S
C511 H526 0.929 . S
C512 C511 1.362 . S
C512 C513 1.366 1_655 S
C513 C510 1.365 . S
C513 C512 1.366 1_455 S
C513 H527 0.930 . S
C514 C511 1.378 1_455 S
C514 N515 1.315 . S
C514 H517 0.930 . S
N515 Co495 2.194 . S
N515 C510 1.328 . S
N515 C514 1.315 . S
H516 C510 0.929 . S
H517 C514 0.930 . S
H518 C506 0.929 . S
H519 C508 0.929 . S
O520 Co495 2.351 . S
O520 C523 1.244 . S
O521 Co495 2.155 . S
O521 C523 1.240 . S
O522 Co495 2.096 . S
O522 C503 1.247 . S
C523 O520 1.244 . S
C523 O521 1.240 . S
H524 C498 0.931 . S
H525 C507 0.931 . S
H526 C511 0.929 . S
H527 C513 0.930 . S
C528 C529 1.363 . S
C528 C534 1.379 . S
C528 N536 1.356 . S
C529 C528 1.363 . S
C529 C535 1.363 . S
C530 C531 1.363 . S
C530 C535 1.379 . S
C530 N537 1.356 . S
C531 C530 1.363 . S
C531 C534 1.363 . S
N532 C534 1.356 . S
N532 H544 0.984 . S
N532 H545 0.985 . S
N533 C535 1.356 . S
N533 H538 0.984 . S
N533 H539 0.985 . S
C534 C528 1.379 . S
C534 C531 1.363 . S
C534 N532 1.356 . S
C535 C529 1.363 . S
C535 C530 1.379 . S
C535 N533 1.356 . S
N536 C528 1.356 . S
N536 H542 0.984 . S
N536 H543 0.984 . S
N537 C530 1.356 . S
N537 H540 0.984 . S
N537 H541 0.985 . S
H538 N533 0.984 . S
H539 N533 0.985 . S
H540 N537 0.984 . S
H541 N537 0.985 . S
H542 N536 0.984 . S
H543 N536 0.984 . S
H544 N532 0.984 . S
H545 N532 0.985 . S
C546 C547 1.363 . S
C546 C552 1.379 . S
C546 N554 1.356 . S
C547 C546 1.363 . S
C547 C553 1.363 . S
C548 C549 1.363 . S
C548 C553 1.379 . S
C548 N555 1.356 . S
C549 C548 1.363 . S
C549 C552 1.363 . S
N550 C552 1.356 . S
N550 H562 0.984 . S
N550 H563 0.985 . S
N551 C553 1.356 . S
N551 H556 0.984 . S
N551 H557 0.985 . S
C552 C546 1.379 . S
C552 C549 1.363 . S
C552 N550 1.356 . S
C553 C547 1.363 . S
C553 C548 1.379 . S
C553 N551 1.356 . S
N554 C546 1.356 . S
N554 H560 0.984 . S
N554 H561 0.984 . S
N555 C548 1.356 . S
N555 H558 0.984 . S
N555 H559 0.985 . S
H556 N551 0.984 . S
H557 N551 0.985 . S
H558 N555 0.984 . S
H559 N555 0.985 . S
H560 N554 0.984 . S
H561 N554 0.984 . S
H562 N550 0.984 . S
H563 N550 0.985 . S
C564 C565 1.363 . S
C564 C570 1.379 . S
C564 N572 1.356 . S
C565 C564 1.363 . S
C565 C571 1.363 . S
C566 C567 1.363 . S
C566 C571 1.379 . S
C566 N573 1.356 . S
C567 C566 1.363 . S
C567 C570 1.363 . S
N568 C570 1.356 . S
N568 H580 0.984 . S
N568 H581 0.985 . S
N569 C571 1.356 1_455 S
N569 H574 0.984 . S
N569 H575 0.985 . S
C570 C564 1.379 . S
C570 C567 1.363 . S
C570 N568 1.356 . S
C571 C565 1.363 . S
C571 C566 1.379 . S
C571 N569 1.356 1_655 S
N572 C564 1.356 . S
N572 H578 0.984 . S
N572 H579 0.984 . S
N573 C566 1.356 . S
N573 H576 0.984 . S
N573 H577 0.985 . S
H574 N569 0.984 . S
H575 N569 0.985 . S
H576 N573 0.984 . S
H577 N573 0.985 . S
H578 N572 0.984 . S
H579 N572 0.984 . S
H580 N568 0.984 . S
H581 N568 0.985 . S
C582 C583 1.363 . S
C582 C588 1.379 . S
C582 N590 1.356 . S
C583 C582 1.363 . S
C583 C589 1.363 . S
C584 C585 1.363 . S
C584 C589 1.379 . S
C584 N591 1.356 . S
C585 C584 1.363 . S
C585 C588 1.363 . S
N586 C588 1.356 . S
N586 H598 0.984 . S
N586 H599 0.985 1_565 S
N587 C589 1.356 . S
N587 H592 0.984 . S
N587 H593 0.985 . S
C588 C582 1.379 . S
C588 C585 1.363 . S
C588 N586 1.356 . S
C589 C583 1.363 . S
C589 C584 1.379 . S
C589 N587 1.356 . S
N590 C582 1.356 . S
N590 H596 0.984 . S
N590 H597 0.984 . S
N591 C584 1.356 . S
N591 H594 0.984 . S
N591 H595 0.985 . S
H592 N587 0.984 . S
H593 N587 0.985 . S
H594 N591 0.984 . S
H595 N591 0.985 . S
H596 N590 0.984 . S
H597 N590 0.984 . S
H598 N586 0.984 . S
H599 N586 0.985 1_545 S
C600 C601 1.363 . S
C600 C606 1.379 . S
C600 N608 1.356 1_455 S
C601 C600 1.363 . S
C601 C607 1.363 . S
C602 C603 1.363 . S
C602 C607 1.379 . S
C602 N609 1.356 . S
C603 C602 1.363 . S
C603 C606 1.363 . S
N604 C606 1.356 . S
N604 H616 0.984 . S
N604 H617 0.985 . S
N605 C607 1.356 . S
N605 H610 0.984 . S
N605 H611 0.985 . S
C606 C600 1.379 . S
C606 C603 1.363 . S
C606 N604 1.356 . S
C607 C601 1.363 . S
C607 C602 1.379 . S
C607 N605 1.356 . S
N608 C600 1.356 1_655 S
N608 H614 0.984 . S
N608 H615 0.984 . S
N609 C602 1.356 . S
N609 H612 0.984 . S
N609 H613 0.985 . S
H610 N605 0.984 . S
H611 N605 0.985 . S
H612 N609 0.984 . S
H613 N609 0.985 . S
H614 N608 0.984 . S
H615 N608 0.984 . S
H616 N604 0.984 . S
H617 N604 0.985 . S
C618 C619 1.363 . S
C618 C624 1.379 . S
C618 N626 1.356 1_545 S
C619 C618 1.363 . S
C619 C625 1.363 . S
C620 C621 1.363 . S
C620 C625 1.379 . S
C620 N627 1.356 . S
C621 C620 1.363 . S
C621 C624 1.363 . S
N622 C624 1.356 . S
N622 H634 0.984 1_545 S
N622 H635 0.985 . S
N623 C625 1.356 . S
N623 H628 0.984 . S
N623 H629 0.985 . S
C624 C618 1.379 . S
C624 C621 1.363 . S
C624 N622 1.356 . S
C625 C619 1.363 . S
C625 C620 1.379 . S
C625 N623 1.356 . S
N626 C618 1.356 1_565 S
N626 H632 0.984 . S
N626 H633 0.984 . S
N627 C620 1.356 . S
N627 H630 0.984 . S
N627 H631 0.985 . S
H628 N623 0.984 . S
H629 N623 0.985 . S
H630 N627 0.984 . S
H631 N627 0.985 . S
H632 N626 0.984 . S
H633 N626 0.984 . S
H634 N622 0.984 1_565 S
H635 N622 0.985 . S
C636 C637 1.363 . S
C636 C642 1.379 . S
C636 N644 1.356 . S
C637 C636 1.363 . S
C637 C643 1.363 . S
C638 C639 1.363 . S
C638 C643 1.379 . S
C638 N645 1.356 . S
C639 C638 1.363 . S
C639 C642 1.363 . S
N640 C642 1.356 . S
N640 H652 0.984 . S
N640 H653 0.985 . S
N641 C643 1.356 . S
N641 H646 0.984 . S
N641 H647 0.985 . S
C642 C636 1.379 . S
C642 C639 1.363 . S
C642 N640 1.356 . S
C643 C637 1.363 . S
C643 C638 1.379 . S
C643 N641 1.356 . S
N644 C636 1.356 . S
N644 H650 0.984 . S
N644 H651 0.984 . S
N645 C638 1.356 . S
N645 H648 0.984 . S
N645 H649 0.985 . S
H646 N641 0.984 . S
H647 N641 0.985 . S
H648 N645 0.984 . S
H649 N645 0.985 . S
H650 N644 0.984 . S
H651 N644 0.984 . S
H652 N640 0.984 . S
H653 N640 0.985 . S
C654 C655 1.363 . S
C654 C660 1.379 . S
C654 N662 1.356 . S
C655 C654 1.363 . S
C655 C661 1.363 . S
C656 C657 1.363 . S
C656 C661 1.379 . S
C656 N663 1.356 . S
C657 C656 1.363 . S
C657 C660 1.363 . S
N658 C660 1.356 . S
N658 H670 0.984 . S
N658 H671 0.985 . S
N659 C661 1.356 . S
N659 H664 0.984 . S
N659 H665 0.985 . S
C660 C654 1.379 . S
C660 C657 1.363 . S
C660 N658 1.356 . S
C661 C655 1.363 . S
C661 C656 1.379 . S
C661 N659 1.356 . S
N662 C654 1.356 . S
N662 H668 0.984 . S
N662 H669 0.984 . S
N663 C656 1.356 . S
N663 H666 0.984 . S
N663 H667 0.985 . S
H664 N659 0.984 . S
H665 N659 0.985 . S
H666 N663 0.984 . S
H667 N663 0.985 . S
H668 N662 0.984 . S
H669 N662 0.984 . S
H670 N658 0.984 . S
H671 N658 0.985 . S
C672 C673 1.363 . S
C672 C678 1.379 . S
C672 N680 1.356 . S
C673 C672 1.363 . S
C673 C679 1.363 . S
C674 C675 1.363 . S
C674 C679 1.379 . S
C674 N681 1.356 . S
C675 C674 1.363 . S
C675 C678 1.363 . S
N676 C678 1.356 . S
N676 H688 0.984 . S
N676 H689 0.985 . S
N677 C679 1.356 . S
N677 H682 0.984 . S
N677 H683 0.985 . S
C678 C672 1.379 . S
C678 C675 1.363 . S
C678 N676 1.356 . S
C679 C673 1.363 . S
C679 C674 1.379 . S
C679 N677 1.356 . S
N680 C672 1.356 . S
N680 H686 0.984 . S
N680 H687 0.984 . S
N681 C674 1.356 . S
N681 H684 0.984 . S
N681 H685 0.985 . S
H682 N677 0.984 . S
H683 N677 0.985 . S
H684 N681 0.984 . S
H685 N681 0.985 . S
H686 N680 0.984 . S
H687 N680 0.984 . S
H688 N676 0.984 . S
H689 N676 0.985 . S
C690 C691 1.363 . S
C690 C696 1.379 . S
C690 N698 1.356 . S
C691 C690 1.363 . S
C691 C697 1.363 . S
C692 C693 1.363 . S
C692 C697 1.379 . S
C692 N699 1.356 . S
C693 C692 1.363 . S
C693 C696 1.363 . S
N694 C696 1.356 . S
N694 H706 0.984 . S
N694 H707 0.985 . S
N695 C697 1.356 . S
N695 H700 0.984 . S
N695 H701 0.985 . S
C696 C690 1.379 . S
C696 C693 1.363 . S
C696 N694 1.356 . S
C697 C691 1.363 . S
C697 C692 1.379 . S
C697 N695 1.356 . S
N698 C690 1.356 . S
N698 H704 0.984 . S
N698 H705 0.984 . S
N699 C692 1.356 . S
N699 H702 0.984 . S
N699 H703 0.985 . S
H700 N695 0.984 . S
H701 N695 0.985 . S
H702 N699 0.984 . S
H703 N699 0.985 . S
H704 N698 0.984 . S
H705 N698 0.984 . S
H706 N694 0.984 . S
H707 N694 0.985 . S
C708 C709 1.363 . S
C708 C714 1.379 . S
C708 N716 1.356 1_455 S
C709 C708 1.363 . S
C709 C715 1.363 . S
C710 C711 1.363 . S
C710 C715 1.379 . S
C710 N717 1.356 . S
C711 C710 1.363 . S
C711 C714 1.363 . S
N712 C714 1.356 . S
N712 H724 0.984 . S
N712 H725 0.985 . S
N713 C715 1.356 . S
N713 H718 0.984 . S
N713 H719 0.985 . S
C714 C708 1.379 . S
C714 C711 1.363 . S
C714 N712 1.356 . S
C715 C709 1.363 . S
C715 C710 1.379 . S
C715 N713 1.356 . S
N716 C708 1.356 1_655 S
N716 H722 0.984 . S
N716 H723 0.984 . S
N717 C710 1.356 . S
N717 H720 0.984 . S
N717 H721 0.985 . S
H718 N713 0.984 . S
H719 N713 0.985 . S
H720 N717 0.984 . S
H721 N717 0.985 . S
H722 N716 0.984 . S
H723 N716 0.984 . S
H724 N712 0.984 . S
H725 N712 0.985 . S
C726 C727 1.363 . S
C726 C732 1.379 . S
C726 N734 1.356 1_545 S
C727 C726 1.363 . S
C727 C733 1.363 . S
C728 C729 1.363 . S
C728 C733 1.379 . S
C728 N735 1.356 . S
C729 C728 1.363 . S
C729 C732 1.363 . S
N730 C732 1.356 . S
N730 H742 0.984 1_545 S
N730 H743 0.985 . S
N731 C733 1.356 . S
N731 H736 0.984 . S
N731 H737 0.985 . S
C732 C726 1.379 . S
C732 C729 1.363 . S
C732 N730 1.356 . S
C733 C727 1.363 . S
C733 C728 1.379 . S
C733 N731 1.356 . S
N734 C726 1.356 1_565 S
N734 H740 0.984 . S
N734 H741 0.984 . S
N735 C728 1.356 . S
N735 H738 0.984 . S
N735 H739 0.985 . S
H736 N731 0.984 . S
H737 N731 0.985 . S
H738 N735 0.984 . S
H739 N735 0.985 . S
H740 N734 0.984 . S
H741 N734 0.984 . S
H742 N730 0.984 1_565 S
H743 N730 0.985 . S
C744 C745 1.363 . S
C744 C750 1.379 . S
C744 N752 1.356 . S
C745 C744 1.363 . S
C745 C751 1.363 . S
C746 C747 1.363 . S
C746 C751 1.379 . S
C746 N753 1.356 . S
C747 C746 1.363 . S
C747 C750 1.363 . S
N748 C750 1.356 . S
N748 H760 0.984 . S
N748 H761 0.985 . S
N749 C751 1.356 1_455 S
N749 H754 0.984 . S
N749 H755 0.985 . S
C750 C744 1.379 . S
C750 C747 1.363 . S
C750 N748 1.356 . S
C751 C745 1.363 . S
C751 C746 1.379 . S
C751 N749 1.356 1_655 S
N752 C744 1.356 . S
N752 H758 0.984 . S
N752 H759 0.984 . S
N753 C746 1.356 . S
N753 H756 0.984 . S
N753 H757 0.985 1_655 S
H754 N749 0.984 . S
H755 N749 0.985 . S
H756 N753 0.984 . S
H757 N753 0.985 1_455 S
H758 N752 0.984 . S
H759 N752 0.984 . S
H760 N748 0.984 . S
H761 N748 0.985 . S
C762 C763 1.363 . S
C762 C768 1.379 . S
C762 N770 1.356 1_565 S
C763 C762 1.363 . S
C763 C769 1.363 . S
C764 C765 1.363 . S
C764 C769 1.379 . S
C764 N771 1.356 . S
C765 C764 1.363 . S
C765 C768 1.363 . S
N766 C768 1.356 . S
N766 H778 0.984 1_565 S
N766 H779 0.985 . S
N767 C769 1.356 . S
N767 H772 0.984 . S
N767 H773 0.985 . S
C768 C762 1.379 . S
C768 C765 1.363 . S
C768 N766 1.356 . S
C769 C763 1.363 . S
C769 C764 1.379 . S
C769 N767 1.356 . S
N770 C762 1.356 1_545 S
N770 H776 0.984 . S
N770 H777 0.984 . S
N771 C764 1.356 . S
N771 H774 0.984 . S
N771 H775 0.985 . S
H772 N767 0.984 . S
H773 N767 0.985 . S
H774 N771 0.984 . S
H775 N771 0.985 . S
H776 N770 0.984 . S
H777 N770 0.984 . S
H778 N766 0.984 1_545 S
H779 N766 0.985 . S
C780 C781 1.363 . S
C780 C786 1.379 . S
C780 N788 1.356 . S
C781 C780 1.363 . S
C781 C787 1.363 . S
C782 C783 1.363 . S
C782 C787 1.379 . S
C782 N789 1.356 . S
C783 C782 1.363 . S
C783 C786 1.363 . S
N784 C786 1.356 . S
N784 H796 0.984 . S
N784 H797 0.985 . S
N785 C787 1.356 . S
N785 H790 0.984 . S
N785 H791 0.985 . S
C786 C780 1.379 . S
C786 C783 1.363 . S
C786 N784 1.356 . S
C787 C781 1.363 . S
C787 C782 1.379 . S
C787 N785 1.356 . S
N788 C780 1.356 . S
N788 H794 0.984 . S
N788 H795 0.984 . S
N789 C782 1.356 . S
N789 H792 0.984 . S
N789 H793 0.985 . S
H790 N785 0.984 . S
H791 N785 0.985 . S
H792 N789 0.984 . S
H793 N789 0.985 . S
H794 N788 0.984 . S
H795 N788 0.984 . S
H796 N784 0.984 . S
H797 N784 0.985 . S
C798 C799 1.363 . S
C798 C804 1.379 . S
C798 N806 1.356 . S
C799 C798 1.363 . S
C799 C805 1.363 . S
C800 C801 1.363 . S
C800 C805 1.379 . S
C800 N807 1.356 . S
C801 C800 1.363 . S
C801 C804 1.363 . S
N802 C804 1.356 . S
N802 H814 0.984 . S
N802 H815 0.985 . S
N803 C805 1.356 . S
N803 H808 0.984 . S
N803 H809 0.985 . S
C804 C798 1.379 . S
C804 C801 1.363 . S
C804 N802 1.356 . S
C805 C799 1.363 . S
C805 C800 1.379 . S
C805 N803 1.356 . S
N806 C798 1.356 . S
N806 H812 0.984 . S
N806 H813 0.984 . S
N807 C800 1.356 . S
N807 H810 0.984 . S
N807 H811 0.985 . S
H808 N803 0.984 . S
H809 N803 0.985 . S
H810 N807 0.984 . S
H811 N807 0.985 . S
H812 N806 0.984 . S
H813 N806 0.984 . S
H814 N802 0.984 . S
H815 N802 0.985 . S
C816 C817 1.363 . S
C816 C822 1.379 . S
C816 N824 1.356 . S
C817 C816 1.363 . S
C817 C823 1.363 . S
C818 C819 1.363 . S
C818 C823 1.379 . S
C818 N825 1.356 . S
C819 C818 1.363 . S
C819 C822 1.363 . S
N820 C822 1.356 . S
N820 H832 0.984 . S
N820 H833 0.985 . S
N821 C823 1.356 . S
N821 H826 0.984 . S
N821 H827 0.985 . S
C822 C816 1.379 . S
C822 C819 1.363 . S
C822 N820 1.356 . S
C823 C817 1.363 . S
C823 C818 1.379 . S
C823 N821 1.356 . S
N824 C816 1.356 . S
N824 H830 0.984 . S
N824 H831 0.984 . S
N825 C818 1.356 . S
N825 H828 0.984 . S
N825 H829 0.985 . S
H826 N821 0.984 . S
H827 N821 0.985 . S
H828 N825 0.984 . S
H829 N825 0.985 . S
H830 N824 0.984 . S
H831 N824 0.984 . S
H832 N820 0.984 . S
H833 N820 0.985 . S
C834 C835 1.363 . S
C834 C840 1.379 . S
C834 N842 1.356 . S
C835 C834 1.363 . S
C835 C841 1.363 . S
C836 C837 1.363 . S
C836 C841 1.379 . S
C836 N843 1.356 . S
C837 C836 1.363 . S
C837 C840 1.363 . S
N838 C840 1.356 . S
N838 H850 0.984 . S
N838 H851 0.985 . S
N839 C841 1.356 . S
N839 H844 0.984 . S
N839 H845 0.985 . S
C840 C834 1.379 . S
C840 C837 1.363 . S
C840 N838 1.356 . S
C841 C835 1.363 . S
C841 C836 1.379 . S
C841 N839 1.356 . S
N842 C834 1.356 . S
N842 H848 0.984 . S
N842 H849 0.984 . S
N843 C836 1.356 . S
N843 H846 0.984 . S
N843 H847 0.985 . S
H844 N839 0.984 . S
H845 N839 0.985 . S
H846 N843 0.984 . S
H847 N843 0.985 . S
H848 N842 0.984 . S
H849 N842 0.984 . S
H850 N838 0.984 . S
H851 N838 0.985 . S
C852 C853 1.363 . S
C852 C858 1.379 . S
C852 N860 1.356 . S
C853 C852 1.363 . S
C853 C859 1.363 . S
C854 C855 1.363 . S
C854 C859 1.379 . S
C854 N861 1.356 . S
C855 C854 1.363 . S
C855 C858 1.363 . S
N856 C858 1.356 . S
N856 H868 0.984 . S
N856 H869 0.985 . S
N857 C859 1.356 . S
N857 H862 0.984 . S
N857 H863 0.985 . S
C858 C852 1.379 . S
C858 C855 1.363 . S
C858 N856 1.356 . S
C859 C853 1.363 . S
C859 C854 1.379 . S
C859 N857 1.356 . S
N860 C852 1.356 . S
N860 H866 0.984 . S
N860 H867 0.984 . S
N861 C854 1.356 . S
N861 H864 0.984 . S
N861 H865 0.985 . S
H862 N857 0.984 . S
H863 N857 0.985 . S
H864 N861 0.984 . S
H865 N861 0.985 . S
H866 N860 0.984 . S
H867 N860 0.984 . S
H868 N856 0.984 . S
H869 N856 0.985 . S
C870 C871 1.363 . S
C870 C876 1.379 . S
C870 N878 1.356 . S
C871 C870 1.363 . S
C871 C877 1.363 . S
C872 C873 1.363 . S
C872 C877 1.379 . S
C872 N879 1.356 . S
C873 C872 1.363 . S
C873 C876 1.363 . S
N874 C876 1.356 . S
N874 H886 0.984 . S
N874 H887 0.985 . S
N875 C877 1.356 . S
N875 H880 0.984 . S
N875 H881 0.985 . S
C876 C870 1.379 . S
C876 C873 1.363 . S
C876 N874 1.356 . S
C877 C871 1.363 . S
C877 C872 1.379 . S
C877 N875 1.356 . S
N878 C870 1.356 . S
N878 H884 0.984 . S
N878 H885 0.984 . S
N879 C872 1.356 . S
N879 H882 0.984 . S
N879 H883 0.985 . S
H880 N875 0.984 . S
H881 N875 0.985 . S
H882 N879 0.984 . S
H883 N879 0.985 . S
H884 N878 0.984 . S
H885 N878 0.984 . S
H886 N874 0.984 . S
H887 N874 0.985 . S
C888 C889 1.363 . S
C888 C894 1.379 . S
C888 N896 1.356 . S
C889 C888 1.363 . S
C889 C895 1.363 . S
C890 C891 1.363 . S
C890 C895 1.379 . S
C890 N897 1.356 . S
C891 C890 1.363 . S
C891 C894 1.363 . S
N892 C894 1.356 . S
N892 H904 0.984 . S
N892 H905 0.985 . S
N893 C895 1.356 . S
N893 H898 0.984 . S
N893 H899 0.985 . S
C894 C888 1.379 . S
C894 C891 1.363 . S
C894 N892 1.356 . S
C895 C889 1.363 . S
C895 C890 1.379 . S
C895 N893 1.356 . S
N896 C888 1.356 . S
N896 H902 0.984 . S
N896 H903 0.984 . S
N897 C890 1.356 . S
N897 H900 0.984 . S
N897 H901 0.985 . S
H898 N893 0.984 . S
H899 N893 0.985 . S
H900 N897 0.984 . S
H901 N897 0.985 . S
H902 N896 0.984 . S
H903 N896 0.984 . S
H904 N892 0.984 . S
H905 N892 0.985 . S
C906 C907 1.363 . S
C906 C912 1.379 . S
C906 N914 1.356 . S
C907 C906 1.363 . S
C907 C913 1.363 . S
C908 C909 1.363 . S
C908 C913 1.379 . S
C908 N915 1.356 . S
C909 C908 1.363 . S
C909 C912 1.363 . S
N910 C912 1.356 . S
N910 H922 0.984 . S
N910 H923 0.985 . S
N911 C913 1.356 . S
N911 H916 0.984 . S
N911 H917 0.985 . S
C912 C906 1.379 . S
C912 C909 1.363 . S
C912 N910 1.356 . S
C913 C907 1.363 . S
C913 C908 1.379 . S
C913 N911 1.356 . S
N914 C906 1.356 . S
N914 H920 0.984 . S
N914 H921 0.984 . S
N915 C908 1.356 . S
N915 H918 0.984 . S
N915 H919 0.985 . S
H916 N911 0.984 . S
H917 N911 0.985 . S
H918 N915 0.984 . S
H919 N915 0.985 . S
H920 N914 0.984 . S
H921 N914 0.984 . S
H922 N910 0.984 . S
H923 N910 0.985 . S
C924 C925 1.363 . S
C924 C930 1.379 . S
C924 N932 1.356 . S
C925 C924 1.363 . S
C925 C931 1.363 . S
C926 C927 1.363 . S
C926 C931 1.379 . S
C926 N933 1.356 . S
C927 C926 1.363 . S
C927 C930 1.363 . S
N928 C930 1.356 . S
N928 H940 0.984 . S
N928 H941 0.985 . S
N929 C931 1.356 . S
N929 H934 0.984 . S
N929 H935 0.985 . S
C930 C924 1.379 . S
C930 C927 1.363 . S
C930 N928 1.356 . S
C931 C925 1.363 . S
C931 C926 1.379 . S
C931 N929 1.356 . S
N932 C924 1.356 . S
N932 H938 0.984 . S
N932 H939 0.984 . S
N933 C926 1.356 . S
N933 H936 0.984 . S
N933 H937 0.985 . S
H934 N929 0.984 . S
H935 N929 0.985 . S
H936 N933 0.984 . S
H937 N933 0.985 . S
H938 N932 0.984 . S
H939 N932 0.984 . S
H940 N928 0.984 . S
H941 N928 0.985 . S
C942 C943 1.363 . S
C942 C948 1.379 . S
C942 N950 1.356 . S
C943 C942 1.363 . S
C943 C949 1.363 . S
C944 C945 1.363 . S
C944 C949 1.379 . S
C944 N951 1.356 . S
C945 C944 1.363 . S
C945 C948 1.363 . S
N946 C948 1.356 . S
N946 H958 0.984 . S
N946 H959 0.985 . S
N947 C949 1.356 . S
N947 H952 0.984 . S
N947 H953 0.985 . S
C948 C942 1.379 . S
C948 C945 1.363 . S
C948 N946 1.356 . S
C949 C943 1.363 . S
C949 C944 1.379 . S
C949 N947 1.356 . S
N950 C942 1.356 . S
N950 H956 0.984 . S
N950 H957 0.984 . S
N951 C944 1.356 . S
N951 H954 0.984 . S
N951 H955 0.985 . S
H952 N947 0.984 . S
H953 N947 0.985 . S
H954 N951 0.984 . S
H955 N951 0.985 . S
H956 N950 0.984 . S
H957 N950 0.984 . S
H958 N946 0.984 . S
H959 N946 0.985 . S
C960 C961 1.363 1_566 S
C960 C966 1.379 . S
C960 N968 1.356 . S
C961 C960 1.363 1_544 S
C961 C967 1.363 . S
C962 C963 1.363 1_544 S
C962 C967 1.379 . S
C962 N969 1.356 . S
C963 C962 1.363 1_566 S
C963 C966 1.363 . S
N964 C966 1.356 . S
N964 H976 0.984 . S
N964 H977 0.985 . S
N965 C967 1.356 . S
N965 H970 0.984 . S
N965 H971 0.985 . S
C966 C960 1.379 . S
C966 C963 1.363 . S
C966 N964 1.356 . S
C967 C961 1.363 . S
C967 C962 1.379 . S
C967 N965 1.356 . S
N968 C960 1.356 . S
N968 H974 0.984 . S
N968 H975 0.984 1_565 S
N969 C962 1.356 . S
N969 H972 0.984 1_545 S
N969 H973 0.985 . S
H970 N965 0.984 . S
H971 N965 0.985 . S
H972 N969 0.984 1_565 S
H973 N969 0.985 . S
H974 N968 0.984 . S
H975 N968 0.984 1_545 S
H976 N964 0.984 . S
H977 N964 0.985 . S
C978 C979 1.363 . S
C978 C984 1.379 . S
C978 N986 1.356 . S
C979 C978 1.363 . S
C979 C985 1.363 1_554 S
C980 C981 1.363 . S
C980 C985 1.379 . S
C980 N987 1.356 . S
C981 C980 1.363 . S
C981 C984 1.363 1_556 S
N982 C984 1.356 . S
N982 H994 0.984 . S
N982 H995 0.985 1_554 S
N983 C985 1.356 . S
N983 H988 0.984 1_556 S
N983 H989 0.985 . S
C984 C978 1.379 . S
C984 C981 1.363 1_554 S
C984 N982 1.356 . S
C985 C979 1.363 1_556 S
C985 C980 1.379 . S
C985 N983 1.356 . S
N986 C978 1.356 . S
N986 H992 0.984 . S
N986 H993 0.984 . S
N987 C980 1.356 . S
N987 H990 0.984 . S
N987 H991 0.985 . S
H988 N983 0.984 1_554 S
H989 N983 0.985 . S
H990 N987 0.984 . S
H991 N987 0.985 . S
H992 N986 0.984 . S
H993 N986 0.984 . S
H994 N982 0.984 . S
H995 N982 0.985 1_556 S
C996 C997 1.363 1_556 S
C996 C1002 1.379 1_655 S
C996 N1004 1.356 . S
C997 C996 1.363 1_554 S
C997 C1003 1.363 . S
C998 C999 1.363 1_554 S
C998 C1003 1.379 1_455 S
C998 N1005 1.356 . S
C999 C998 1.363 1_556 S
C999 C1002 1.363 . S
N1000 C1002 1.356 . S
N1000 H1012 0.984 . S
N1000 H1013 0.985 . S
N1001 C1003 1.356 . S
N1001 H1006 0.984 . S
N1001 H1007 0.985 . S
C1002 C996 1.379 1_455 S
C1002 C999 1.363 . S
C1002 N1000 1.356 . S
C1003 C997 1.363 . S
C1003 C998 1.379 1_655 S
C1003 N1001 1.356 . S
N1004 C996 1.356 . S
N1004 H1010 0.984 . S
N1004 H1011 0.984 . S
N1005 C998 1.356 . S
N1005 H1008 0.984 . S
N1005 H1009 0.985 . S
H1006 N1001 0.984 . S
H1007 N1001 0.985 . S
H1008 N1005 0.984 . S
H1009 N1005 0.985 . S
H1010 N1004 0.984 . S
H1011 N1004 0.984 . S
H1012 N1000 0.984 . S
H1013 N1000 0.985 . S
C1014 C1015 1.359 1_565 S
C1014 C1020 1.383 . S
C1014 N1022 1.355 1_565 S
C1015 C1014 1.359 1_545 S
C1015 C1021 1.363 1_656 S
C1016 C1017 1.359 1_545 S
C1016 C1021 1.383 . S
C1016 N1023 1.355 1_545 S
C1017 C1016 1.359 1_565 S
C1017 C1020 1.363 1_454 S
N1018 C1020 1.356 . S
N1018 H1030 0.984 . S
N1018 H1031 0.985 1_556 S
N1019 C1021 1.356 . S
N1019 H1024 0.984 1_554 S
N1019 H1025 0.985 . S
C1020 C1014 1.383 . S
C1020 C1017 1.363 1_656 S
C1020 N1018 1.356 . S
C1021 C1015 1.363 1_454 S
C1021 C1016 1.383 . S
C1021 N1019 1.356 . S
N1022 C1014 1.355 1_545 S
N1022 H1028 0.984 1_545 S
N1022 H1029 0.984 . S
N1023 C1016 1.355 1_565 S
N1023 H1026 0.984 . S
N1023 H1027 0.985 1_565 S
H1024 N1019 0.984 1_556 S
H1025 N1019 0.985 . S
H1026 N1023 0.984 . S
H1027 N1023 0.985 1_545 S
H1028 N1022 0.984 1_565 S
H1029 N1022 0.984 . S
H1030 N1018 0.984 . S
H1031 N1018 0.985 1_554 S
C1032 C1033 1.363 1_565 S
C1032 C1038 1.379 1_655 S
C1032 N1040 1.356 . S
C1033 C1032 1.363 1_545 S
C1033 C1039 1.363 . S
C1034 C1035 1.363 1_545 S
C1034 C1039 1.379 1_455 S
C1034 N1041 1.356 . S
C1035 C1034 1.363 1_565 S
C1035 C1038 1.363 . S
N1036 C1038 1.356 . S
N1036 H1048 0.984 1_455 S
N1036 H1049 0.985 . S
N1037 C1039 1.356 . S
N1037 H1042 0.984 . S
N1037 H1043 0.985 1_655 S
C1038 C1032 1.379 1_455 S
C1038 C1035 1.363 . S
C1038 N1036 1.356 . S
C1039 C1033 1.363 . S
C1039 C1034 1.379 1_655 S
C1039 N1037 1.356 . S
N1040 C1032 1.356 . S
N1040 H1046 0.984 . S
N1040 H1047 0.984 . S
N1041 C1034 1.356 . S
N1041 H1044 0.984 . S
N1041 H1045 0.985 . S
H1042 N1037 0.984 . S
H1043 N1037 0.985 1_455 S
H1044 N1041 0.984 . S
H1045 N1041 0.985 . S
H1046 N1040 0.984 . S
H1047 N1040 0.984 . S
H1048 N1036 0.984 1_655 S
H1049 N1036 0.985 . S
C1050 C1051 1.363 . S
C1050 C1056 1.379 1_545 S
C1050 N1058 1.356 . S
C1051 C1050 1.363 . S
C1051 C1057 1.363 . S
C1052 C1053 1.363 . S
C1052 C1057 1.379 1_565 S
C1052 N1059 1.356 . S
C1053 C1052 1.363 . S
C1053 C1056 1.363 . S
N1054 C1056 1.356 . S
N1054 H1066 0.984 . S
N1054 H1067 0.985 . S
N1055 C1057 1.356 . S
N1055 H1060 0.984 . S
N1055 H1061 0.985 . S
C1056 C1050 1.379 1_565 S
C1056 C1053 1.363 . S
C1056 N1054 1.356 . S
C1057 C1051 1.363 . S
C1057 C1052 1.379 1_545 S
C1057 N1055 1.356 . S
N1058 C1050 1.356 . S
N1058 H1064 0.984 . S
N1058 H1065 0.984 . S
N1059 C1052 1.356 . S
N1059 H1062 0.984 . S
N1059 H1063 0.985 . S
H1060 N1055 0.984 . S
H1061 N1055 0.985 . S
H1062 N1059 0.984 . S
H1063 N1059 0.985 . S
H1064 N1058 0.984 . S
H1065 N1058 0.984 . S
H1066 N1054 0.984 . S
H1067 N1054 0.985 . S
C1068 C1069 1.363 . S
C1068 C1074 1.379 . S
C1068 N1076 1.356 . S
C1069 C1068 1.363 . S
C1069 C1075 1.363 . S
C1070 C1071 1.363 . S
C1070 C1075 1.379 . S
C1070 N1077 1.356 . S
C1071 C1070 1.363 . S
C1071 C1074 1.363 . S
N1072 C1074 1.356 . S
N1072 H1084 0.984 . S
N1072 H1085 0.985 . S
N1073 C1075 1.356 . S
N1073 H1078 0.984 . S
N1073 H1079 0.985 . S
C1074 C1068 1.379 . S
C1074 C1071 1.363 . S
C1074 N1072 1.356 . S
C1075 C1069 1.363 . S
C1075 C1070 1.379 . S
C1075 N1073 1.356 . S
N1076 C1068 1.356 . S
N1076 H1082 0.984 . S
N1076 H1083 0.984 . S
N1077 C1070 1.356 . S
N1077 H1080 0.984 . S
N1077 H1081 0.985 . S
H1078 N1073 0.984 . S
H1079 N1073 0.985 . S
H1080 N1077 0.984 . S
H1081 N1077 0.985 . S
H1082 N1076 0.984 . S
H1083 N1076 0.984 . S
H1084 N1072 0.984 . S
H1085 N1072 0.985 . S
C1086 C1087 1.363 . S
C1086 C1092 1.379 . S
C1086 N1094 1.356 . S
C1087 C1086 1.363 . S
C1087 C1093 1.363 1_455 S
C1088 C1089 1.363 . S
C1088 C1093 1.379 . S
C1088 N1095 1.356 . S
C1089 C1088 1.363 . S
C1089 C1092 1.363 1_655 S
N1090 C1092 1.356 . S
N1090 H1102 0.984 . S
N1090 H1103 0.985 1_455 S
N1091 C1093 1.356 . S
N1091 H1096 0.984 1_655 S
N1091 H1097 0.985 . S
C1092 C1086 1.379 . S
C1092 C1089 1.363 1_455 S
C1092 N1090 1.356 . S
C1093 C1087 1.363 1_655 S
C1093 C1088 1.379 . S
C1093 N1091 1.356 . S
N1094 C1086 1.356 . S
N1094 H1100 0.984 . S
N1094 H1101 0.984 . S
N1095 C1088 1.356 . S
N1095 H1098 0.984 . S
N1095 H1099 0.985 . S
H1096 N1091 0.984 1_455 S
H1097 N1091 0.985 . S
H1098 N1095 0.984 . S
H1099 N1095 0.985 . S
H1100 N1094 0.984 . S
H1101 N1094 0.984 . S
H1102 N1090 0.984 . S
H1103 N1090 0.985 1_655 S
C1104 C1105 1.363 . S
C1104 C1110 1.379 . S
C1104 N1112 1.356 . S
C1105 C1104 1.363 . S
C1105 C1111 1.363 . S
C1106 C1107 1.363 . S
C1106 C1111 1.379 . S
C1106 N1113 1.356 . S
C1107 C1106 1.363 . S
C1107 C1110 1.363 . S
N1108 C1110 1.356 . S
N1108 H1120 0.984 . S
N1108 H1121 0.985 . S
N1109 C1111 1.356 . S
N1109 H1114 0.984 . S
N1109 H1115 0.985 . S
C1110 C1104 1.379 . S
C1110 C1107 1.363 . S
C1110 N1108 1.356 . S
C1111 C1105 1.363 . S
C1111 C1106 1.379 . S
C1111 N1109 1.356 . S
N1112 C1104 1.356 . S
N1112 H1118 0.984 . S
N1112 H1119 0.984 . S
N1113 C1106 1.356 . S
N1113 H1116 0.984 . S
N1113 H1117 0.985 . S
H1114 N1109 0.984 . S
H1115 N1109 0.985 . S
H1116 N1113 0.984 . S
H1117 N1113 0.985 . S
H1118 N1112 0.984 . S
H1119 N1112 0.984 . S
H1120 N1108 0.984 . S
H1121 N1108 0.985 . S
C1122 C1123 1.363 . S
C1122 C1128 1.379 . S
C1122 N1130 1.356 . S
C1123 C1122 1.363 . S
C1123 C1129 1.363 . S
C1124 C1125 1.363 . S
C1124 C1129 1.379 . S
C1124 N1131 1.356 . S
C1125 C1124 1.363 . S
C1125 C1128 1.363 . S
N1126 C1128 1.356 . S
N1126 H1138 0.984 . S
N1126 H1139 0.985 . S
N1127 C1129 1.356 . S
N1127 H1132 0.984 . S
N1127 H1133 0.985 . S
C1128 C1122 1.379 . S
C1128 C1125 1.363 . S
C1128 N1126 1.356 . S
C1129 C1123 1.363 . S
C1129 C1124 1.379 . S
C1129 N1127 1.356 . S
N1130 C1122 1.356 . S
N1130 H1136 0.984 . S
N1130 H1137 0.984 . S
N1131 C1124 1.356 . S
N1131 H1134 0.984 . S
N1131 H1135 0.985 . S
H1132 N1127 0.984 . S
H1133 N1127 0.985 . S
H1134 N1131 0.984 . S
H1135 N1131 0.985 . S
H1136 N1130 0.984 . S
H1137 N1130 0.984 . S
H1138 N1126 0.984 . S
H1139 N1126 0.985 . S
C1140 C1141 1.363 . S
C1140 C1146 1.379 . S
C1140 N1148 1.356 . S
C1141 C1140 1.363 . S
C1141 C1147 1.363 . S
C1142 C1143 1.363 . S
C1142 C1147 1.379 . S
C1142 N1149 1.356 . S
C1143 C1142 1.363 . S
C1143 C1146 1.363 . S
N1144 C1146 1.356 . S
N1144 H1156 0.984 . S
N1144 H1157 0.985 . S
N1145 C1147 1.356 . S
N1145 H1150 0.984 . S
N1145 H1151 0.985 . S
C1146 C1140 1.379 . S
C1146 C1143 1.363 . S
C1146 N1144 1.356 . S
C1147 C1141 1.363 . S
C1147 C1142 1.379 . S
C1147 N1145 1.356 . S
N1148 C1140 1.356 . S
N1148 H1154 0.984 . S
N1148 H1155 0.984 . S
N1149 C1142 1.356 . S
N1149 H1152 0.984 . S
N1149 H1153 0.985 . S
H1150 N1145 0.984 . S
H1151 N1145 0.985 . S
H1152 N1149 0.984 . S
H1153 N1149 0.985 . S
H1154 N1148 0.984 . S
H1155 N1148 0.984 . S
H1156 N1144 0.984 . S
H1157 N1144 0.985 . S
C1158 C1159 1.363 . S
C1158 C1164 1.379 . S
C1158 N1166 1.356 . S
C1159 C1158 1.363 . S
C1159 C1165 1.363 . S
C1160 C1161 1.363 . S
C1160 C1165 1.379 . S
C1160 N1167 1.356 . S
C1161 C1160 1.363 . S
C1161 C1164 1.363 . S
N1162 C1164 1.356 . S
N1162 H1174 0.984 . S
N1162 H1175 0.985 . S
N1163 C1165 1.356 . S
N1163 H1168 0.984 . S
N1163 H1169 0.985 . S
C1164 C1158 1.379 . S
C1164 C1161 1.363 . S
C1164 N1162 1.356 . S
C1165 C1159 1.363 . S
C1165 C1160 1.379 . S
C1165 N1163 1.356 . S
N1166 C1158 1.356 . S
N1166 H1172 0.984 . S
N1166 H1173 0.984 . S
N1167 C1160 1.356 . S
N1167 H1170 0.984 . S
N1167 H1171 0.985 . S
H1168 N1163 0.984 . S
H1169 N1163 0.985 . S
H1170 N1167 0.984 . S
H1171 N1167 0.985 . S
H1172 N1166 0.984 . S
H1173 N1166 0.984 . S
H1174 N1162 0.984 . S
H1175 N1162 0.985 . S
C1176 C1177 1.363 . S
C1176 C1182 1.379 . S
C1176 N1184 1.356 . S
C1177 C1176 1.363 . S
C1177 C1183 1.363 . S
C1178 C1179 1.363 . S
C1178 C1183 1.379 . S
C1178 N1185 1.356 . S
C1179 C1178 1.363 . S
C1179 C1182 1.363 . S
N1180 C1182 1.356 . S
N1180 H1192 0.984 . S
N1180 H1193 0.985 . S
N1181 C1183 1.356 . S
N1181 H1186 0.984 . S
N1181 H1187 0.985 . S
C1182 C1176 1.379 . S
C1182 C1179 1.363 . S
C1182 N1180 1.356 . S
C1183 C1177 1.363 . S
C1183 C1178 1.379 . S
C1183 N1181 1.356 . S
N1184 C1176 1.356 . S
N1184 H1190 0.984 . S
N1184 H1191 0.984 . S
N1185 C1178 1.356 . S
N1185 H1188 0.984 . S
N1185 H1189 0.985 . S
H1186 N1181 0.984 . S
H1187 N1181 0.985 . S
H1188 N1185 0.984 . S
H1189 N1185 0.985 . S
H1190 N1184 0.984 . S
H1191 N1184 0.984 . S
H1192 N1180 0.984 . S
H1193 N1180 0.985 . S
C1194 C1195 1.363 . S
C1194 C1200 1.379 . S
C1194 N1202 1.356 . S
C1195 C1194 1.363 . S
C1195 C1201 1.363 . S
C1196 C1197 1.363 . S
C1196 C1201 1.379 . S
C1196 N1203 1.356 . S
C1197 C1196 1.363 . S
C1197 C1200 1.363 . S
N1198 C1200 1.356 . S
N1198 H1210 0.984 . S
N1198 H1211 0.985 . S
N1199 C1201 1.356 . S
N1199 H1204 0.984 . S
N1199 H1205 0.985 . S
C1200 C1194 1.379 . S
C1200 C1197 1.363 . S
C1200 N1198 1.356 . S
C1201 C1195 1.363 . S
C1201 C1196 1.379 . S
C1201 N1199 1.356 . S
N1202 C1194 1.356 . S
N1202 H1208 0.984 . S
N1202 H1209 0.984 . S
N1203 C1196 1.356 . S
N1203 H1206 0.984 . S
N1203 H1207 0.985 . S
H1204 N1199 0.984 . S
H1205 N1199 0.985 . S
H1206 N1203 0.984 . S
H1207 N1203 0.985 . S
H1208 N1202 0.984 . S
H1209 N1202 0.984 . S
H1210 N1198 0.984 . S
H1211 N1198 0.985 . S
C1212 C1213 1.363 . S
C1212 C1218 1.379 . S
C1212 N1220 1.356 . S
C1213 C1212 1.363 . S
C1213 C1219 1.363 . S
C1214 C1215 1.363 . S
C1214 C1219 1.379 . S
C1214 N1221 1.356 . S
C1215 C1214 1.363 . S
C1215 C1218 1.363 . S
N1216 C1218 1.356 . S
N1216 H1228 0.984 . S
N1216 H1229 0.985 . S
N1217 C1219 1.356 . S
N1217 H1222 0.984 . S
N1217 H1223 0.985 . S
C1218 C1212 1.379 . S
C1218 C1215 1.363 . S
C1218 N1216 1.356 . S
C1219 C1213 1.363 . S
C1219 C1214 1.379 . S
C1219 N1217 1.356 . S
N1220 C1212 1.356 . S
N1220 H1226 0.984 . S
N1220 H1227 0.984 . S
N1221 C1214 1.356 . S
N1221 H1224 0.984 . S
N1221 H1225 0.985 . S
H1222 N1217 0.984 . S
H1223 N1217 0.985 . S
H1224 N1221 0.984 . S
H1225 N1221 0.985 . S
H1226 N1220 0.984 . S
H1227 N1220 0.984 . S
H1228 N1216 0.984 . S
H1229 N1216 0.985 . S
C1230 C1231 1.363 . S
C1230 C1236 1.379 . S
C1230 N1238 1.356 . S
C1231 C1230 1.363 . S
C1231 C1237 1.363 . S
C1232 C1233 1.363 . S
C1232 C1237 1.379 . S
C1232 N1239 1.356 . S
C1233 C1232 1.363 . S
C1233 C1236 1.363 . S
N1234 C1236 1.356 . S
N1234 H1246 0.984 . S
N1234 H1247 0.985 . S
N1235 C1237 1.356 . S
N1235 H1240 0.984 . S
N1235 H1241 0.985 . S
C1236 C1230 1.379 . S
C1236 C1233 1.363 . S
C1236 N1234 1.356 . S
C1237 C1231 1.363 . S
C1237 C1232 1.379 . S
C1237 N1235 1.356 . S
N1238 C1230 1.356 . S
N1238 H1244 0.984 . S
N1238 H1245 0.984 . S
N1239 C1232 1.356 . S
N1239 H1242 0.984 . S
N1239 H1243 0.985 1_545 S
H1240 N1235 0.984 . S
H1241 N1235 0.985 . S
H1242 N1239 0.984 . S
H1243 N1239 0.985 1_565 S
H1244 N1238 0.984 . S
H1245 N1238 0.984 . S
H1246 N1234 0.984 . S
H1247 N1234 0.985 . S
C529 N14 1.072 . S
C531 C50 1.058 . S
C547 C83 1.058 . S
C549 N47 1.072 . S
C565 C116 1.058 . S
C567 N80 1.072 . S
C583 N113 1.072 . S
C585 C17 1.058 . S
C601 C248 1.058 . S
C603 N146 1.072 . S
C619 C149 1.058 . S
C621 N179 1.072 . S
C637 C182 1.058 . S
C639 N212 1.072 . S
C655 N245 1.072 . S
C657 C215 1.058 . S
C673 N278 1.072 . S
C675 C314 1.058 . S
C691 N311 1.072 . S
C693 C347 1.058 . S
C709 C380 1.058 . S
C711 N344 1.072 . S
C727 C281 1.058 . S
C729 N377 1.072 . S
C745 C512 1.058 . S
C747 N410 1.072 . S
C763 C413 1.058 . S
C765 N443 1.072 . S
C781 N476 1.072 . S
C783 C446 1.058 . S
C799 N509 1.072 . S
C801 C479 1.058 . S
C817 N5 1.872 . S
C819 N71 1.872 . S
C835 N38 1.872 . S
C837 N104 1.872 . S
C853 N203 1.872 . S
C855 N137 1.872 . S
C871 N236 1.872 . S
C873 N170 1.872 . S
C889 N335 1.872 . S
C891 N269 1.872 . S
C907 N302 1.872 . S
C909 N368 1.872 . S
C925 N401 1.872 . S
C927 N467 1.872 . S
C943 N434 1.872 . S
C945 N500 1.872 . S
C961 C8 1.844 . S
C963 C272 1.844 . S
C979 C41 1.844 . S
C981 C305 1.844 . S
C997 C74 1.844 . S
C999 C338 1.844 . S
C1015 C371 1.844 . S
C1017 C107 1.844 . S
C1033 C404 1.844 . S
C1035 C140 1.844 . S
C1051 C173 1.844 . S
C1053 C437 1.844 . S
C1069 C206 1.844 . S
C1071 C470 1.844 . S
C1087 C503 1.844 . S
C1089 C239 1.844 . S
C1105 C193 1.585 . S
C1107 C28 1.585 . S
C1123 C226 1.585 . S
C1125 C61 1.585 . S
C1141 C94 1.585 . S
C1143 C259 1.585 . S
C1159 C160 1.585 . S
C1161 C127 1.585 . S
C1177 C292 1.585 . S
C1179 C457 1.585 . S
C1195 C490 1.585 . S
C1197 C325 1.585 . S
C1213 C523 1.585 . S
C1215 C358 1.585 . S
C1231 C391 1.585 . S
C1233 C424 1.585 . S
