# Generated by pormake.
# Topology soi, (5)-cn, num edge types: 1
# Building blocks:
#     Node 0, Type 0, BuildingBlock: XOMCOT_clean_sbu_0, # of connection points: 5
#     Node 1, Type 0, BuildingBlock: XOMCOT_clean_sbu_0, # of connection points: 5
#     Node 2, Type 0, BuildingBlock: XOMCOT_clean_sbu_0, # of connection points: 5
#     Node 3, Type 0, BuildingBlock: XOMCOT_clean_sbu_0, # of connection points: 5
#     Node 4, Type 0, BuildingBlock: XOMCOT_clean_sbu_0, # of connection points: 5
#     Node 5, Type 0, BuildingBlock: XOMCOT_clean_sbu_0, # of connection points: 5
#     Node 6, Type 0, BuildingBlock: XOMCOT_clean_sbu_0, # of connection points: 5
#     Node 7, Type 0, BuildingBlock: XOMCOT_clean_sbu_0, # of connection points: 5
#     Node 8, Type 0, BuildingBlock: XOMCOT_clean_sbu_0, # of connection points: 5
#     Node 9, Type 0, BuildingBlock: XOMCOT_clean_sbu_0, # of connection points: 5
#     Node 10, Type 0, BuildingBlock: XOMCOT_clean_sbu_0, # of connection points: 5
#     Node 11, Type 0, BuildingBlock: XOMCOT_clean_sbu_0, # of connection points: 5
#     Node 12, Type 0, BuildingBlock: XOMCOT_clean_sbu_0, # of connection points: 5
#     Node 13, Type 0, BuildingBlock: XOMCOT_clean_sbu_0, # of connection points: 5
#     Node 14, Type 0, BuildingBlock: XOMCOT_clean_sbu_0, # of connection points: 5
#     Node 15, Type 0, BuildingBlock: XOMCOT_clean_sbu_0, # of connection points: 5
#     Edge 16, Type (0, 0), BuildingBlock: XIVTED_clean_linker_0, # of connection points: 2
#     Edge 17, Type (0, 0), BuildingBlock: XIVTED_clean_linker_0, # of connection points: 2
#     Edge 18, Type (0, 0), BuildingBlock: XIVTED_clean_linker_0, # of connection points: 2
#     Edge 19, Type (0, 0), BuildingBlock: XIVTED_clean_linker_0, # of connection points: 2
#     Edge 20, Type (0, 0), BuildingBlock: XIVTED_clean_linker_0, # of connection points: 2
#     Edge 21, Type (0, 0), BuildingBlock: XIVTED_clean_linker_0, # of connection points: 2
#     Edge 22, Type (0, 0), BuildingBlock: XIVTED_clean_linker_0, # of connection points: 2
#     Edge 23, Type (0, 0), BuildingBlock: XIVTED_clean_linker_0, # of connection points: 2
#     Edge 24, Type (0, 0), BuildingBlock: XIVTED_clean_linker_0, # of connection points: 2
#     Edge 25, Type (0, 0), BuildingBlock: XIVTED_clean_linker_0, # of connection points: 2
#     Edge 26, Type (0, 0), BuildingBlock: XIVTED_clean_linker_0, # of connection points: 2
#     Edge 27, Type (0, 0), BuildingBlock: XIVTED_clean_linker_0, # of connection points: 2
#     Edge 28, Type (0, 0), BuildingBlock: XIVTED_clean_linker_0, # of connection points: 2
#     Edge 29, Type (0, 0), BuildingBlock: XIVTED_clean_linker_0, # of connection points: 2
#     Edge 30, Type (0, 0), BuildingBlock: XIVTED_clean_linker_0, # of connection points: 2
#     Edge 31, Type (0, 0), BuildingBlock: XIVTED_clean_linker_0, # of connection points: 2
#     Edge 32, Type (0, 0), BuildingBlock: XIVTED_clean_linker_0, # of connection points: 2
#     Edge 33, Type (0, 0), BuildingBlock: XIVTED_clean_linker_0, # of connection points: 2
#     Edge 34, Type (0, 0), BuildingBlock: XIVTED_clean_linker_0, # of connection points: 2
#     Edge 35, Type (0, 0), BuildingBlock: XIVTED_clean_linker_0, # of connection points: 2
#     Edge 36, Type (0, 0), BuildingBlock: XIVTED_clean_linker_0, # of connection points: 2
#     Edge 37, Type (0, 0), BuildingBlock: XIVTED_clean_linker_0, # of connection points: 2
#     Edge 38, Type (0, 0), BuildingBlock: XIVTED_clean_linker_0, # of connection points: 2
#     Edge 39, Type (0, 0), BuildingBlock: XIVTED_clean_linker_0, # of connection points: 2
#     Edge 40, Type (0, 0), BuildingBlock: XIVTED_clean_linker_0, # of connection points: 2
#     Edge 41, Type (0, 0), BuildingBlock: XIVTED_clean_linker_0, # of connection points: 2
#     Edge 42, Type (0, 0), BuildingBlock: XIVTED_clean_linker_0, # of connection points: 2
#     Edge 43, Type (0, 0), BuildingBlock: XIVTED_clean_linker_0, # of connection points: 2
#     Edge 44, Type (0, 0), BuildingBlock: XIVTED_clean_linker_0, # of connection points: 2
#     Edge 45, Type (0, 0), BuildingBlock: XIVTED_clean_linker_0, # of connection points: 2
#     Edge 46, Type (0, 0), BuildingBlock: XIVTED_clean_linker_0, # of connection points: 2
#     Edge 47, Type (0, 0), BuildingBlock: XIVTED_clean_linker_0, # of connection points: 2
#     Edge 48, Type (0, 0), BuildingBlock: XIVTED_clean_linker_0, # of connection points: 2
#     Edge 49, Type (0, 0), BuildingBlock: XIVTED_clean_linker_0, # of connection points: 2
#     Edge 50, Type (0, 0), BuildingBlock: XIVTED_clean_linker_0, # of connection points: 2
#     Edge 51, Type (0, 0), BuildingBlock: XIVTED_clean_linker_0, # of connection points: 2
#     Edge 52, Type (0, 0), BuildingBlock: XIVTED_clean_linker_0, # of connection points: 2
#     Edge 53, Type (0, 0), BuildingBlock: XIVTED_clean_linker_0, # of connection points: 2
#     Edge 54, Type (0, 0), BuildingBlock: XIVTED_clean_linker_0, # of connection points: 2
#     Edge 55, Type (0, 0), BuildingBlock: XIVTED_clean_linker_0, # of connection points: 2
# Relax obj value: 0.117
# Max RMSD: 0.170
# Mean RMSD: 0.170
data_MOF--net-soi--node1-XOMCOT_clean_sbu_0--edge1-XIVTED_clean_linker_0
_symmetry_space_group_name_H-M    P1
_symmetry_Int_Tables_number       1
_symmetry_cell_setting            triclinic
loop_
_symmetry_equiv_pos_as_xyz
'x, y, z'
_cell_length_a     49.505868
_cell_length_b     25.216765
_cell_length_c     66.631145
_cell_angle_alpha  90.051517
_cell_angle_beta   90.069537
_cell_angle_gamma 90.032928
loop_
_atom_site_label
_atom_site_type_symbol
_atom_site_fract_x
_atom_site_fract_y
_atom_site_fract_z
_atom_type_partial_charge
Co0 Co 0.3237 0.05864 0.13392 0.0
C1 C 0.33157 0.03163 0.17723 0.0
C2 C 0.31459 0.1092 0.17333 0.0
C3 C 0.31724 0.09963 0.19351 0.0
N4 N 0.32362 0.06669 0.16301 0.0
N5 N 0.32783 0.05087 0.19599 0.0
H6 H 0.33989 0.99292 0.174 0.0
H7 H 0.30633 0.14493 0.16687 0.0
C8 C 0.30675 0.16437 0.11795 0.0
O9 O 0.32545 0.16227 0.10399 0.0
N10 N 0.32281 0.05051 0.10482 0.0
C11 C 0.34212 0.03293 0.09218 0.0
C12 C 0.3318 0.03159 0.07299 0.0
C13 C 0.3008 0.05799 0.0931 0.0
N14 N 0.30583 0.04756 0.07355 0.0
C15 C 0.38149 0.05888 0.12983 0.0
C16 C 0.38894 0.16474 0.13899 0.0
C17 C 0.41138 0.1341 0.13365 0.0
C18 C 0.40752 0.08026 0.12933 0.0
C19 C 0.36333 0.14188 0.13912 0.0
N20 N 0.35957 0.09028 0.13346 0.0
H21 H 0.37903 0.01688 0.12732 0.0
H22 H 0.34669 0.16596 0.14412 0.0
H23 H 0.36213 0.02042 0.09628 0.0
H24 H 0.28157 0.07154 0.09884 0.0
O25 O 0.33324 0.98448 0.13629 0.0
O26 O 0.29149 0.01769 0.13561 0.0
O27 O 0.30492 0.12822 0.13119 0.0
C28 C 0.30722 0.97672 0.13668 0.0
H29 H 0.31108 0.12607 0.20546 0.0
H30 H 0.34252 0.01854 0.05973 0.0
H31 H 0.39108 0.20626 0.14286 0.0
H32 H 0.42449 0.05472 0.12592 0.0
Co33 Co 0.6727 0.41275 0.12479 0.0
C34 C 0.66994 0.44265 0.16855 0.0
C35 C 0.66458 0.35944 0.16322 0.0
C36 C 0.66213 0.36859 0.18343 0.0
N37 N 0.6696 0.40569 0.15379 0.0
N38 N 0.66545 0.42089 0.18682 0.0
H39 H 0.67268 0.48462 0.16605 0.0
H40 H 0.66224 0.32152 0.15584 0.0
C41 C 0.7045 0.31367 0.11254 0.0
O42 O 0.70207 0.32174 0.0932 0.0
N43 N 0.67507 0.42001 0.09576 0.0
C44 C 0.65386 0.42436 0.08317 0.0
C45 C 0.66323 0.42991 0.06391 0.0
C46 C 0.69716 0.42614 0.08401 0.0
N47 N 0.69046 0.43032 0.06437 0.0
C48 C 0.61634 0.40171 0.13143 0.0
C49 C 0.61039 0.30356 0.11339 0.0
C50 C 0.58825 0.32608 0.12337 0.0
C51 C 0.59133 0.37635 0.13212 0.0
C52 C 0.63503 0.33038 0.113 0.0
N53 N 0.6379 0.37821 0.12236 0.0
H54 H 0.61872 0.43967 0.13877 0.0
H55 H 0.65176 0.31235 0.1053 0.0
H56 H 0.63286 0.42379 0.08759 0.0
H57 H 0.71768 0.42476 0.08962 0.0
O58 O 0.66137 0.48621 0.12577 0.0
O59 O 0.70375 0.45701 0.12798 0.0
O60 O 0.69263 0.34324 0.12532 0.0
C61 C 0.68705 0.49668 0.12763 0.0
H62 H 0.6584 0.33877 0.19477 0.0
H63 H 0.65087 0.43335 0.05057 0.0
H64 H 0.60898 0.26482 0.10644 0.0
H65 H 0.57466 0.39577 0.13964 0.0
Co66 Co 0.3349 0.89664 0.3938 0.0
C67 C 0.3346 0.91319 0.34959 0.0
C68 C 0.34131 0.83188 0.35756 0.0
C69 C 0.34234 0.83632 0.33695 0.0
N70 N 0.33636 0.88005 0.36545 0.0
N71 N 0.33822 0.88756 0.33196 0.0
H72 H 0.33096 0.95528 0.35085 0.0
H73 H 0.34456 0.79619 0.36621 0.0
C74 C 0.29843 0.82141 0.39848 0.0
O75 O 0.32269 0.80432 0.4032 0.0
N76 N 0.33354 0.91352 0.42228 0.0
C77 C 0.35043 0.94645 0.43214 0.0
C78 C 0.34198 0.95104 0.45177 0.0
C79 C 0.3148 0.89923 0.436 0.0
N80 N 0.31951 0.92146 0.45413 0.0
C81 C 0.38931 0.92562 0.38245 0.0
C82 C 0.41234 0.8476 0.4062 0.0
C83 C 0.42889 0.87644 0.39309 0.0
C84 C 0.41718 0.91648 0.38128 0.0
C85 C 0.38475 0.85746 0.40668 0.0
N86 N 0.37364 0.89543 0.39479 0.0
H87 H 0.38016 0.95517 0.37287 0.0
H88 H 0.37191 0.83334 0.41608 0.0
H89 H 0.3674 0.96679 0.42542 0.0
H90 H 0.2978 0.87372 0.43287 0.0
O91 O 0.33159 0.97315 0.38785 0.0
O92 O 0.2965 0.92513 0.39126 0.0
O93 O 0.29606 0.87098 0.39384 0.0
C94 C 0.30608 0.97211 0.38817 0.0
H95 H 0.34662 0.80449 0.32652 0.0
H96 H 0.35112 0.97576 0.4632 0.0
H97 H 0.42036 0.81562 0.41527 0.0
H98 H 0.42931 0.93954 0.37096 0.0
Co99 Co 0.68028 0.57726 0.38527 0.0
C100 C 0.6748 0.56099 0.34112 0.0
C101 C 0.71199 0.59911 0.34946 0.0
C102 C 0.71154 0.59342 0.32898 0.0
N103 N 0.68894 0.57921 0.35705 0.0
N104 N 0.68819 0.56953 0.32369 0.0
H105 H 0.65523 0.54209 0.34227 0.0
H106 H 0.72826 0.61586 0.35826 0.0
C107 C 0.69259 0.68625 0.39935 0.0
O108 O 0.6697 0.68485 0.40931 0.0
N109 N 0.67367 0.57481 0.41415 0.0
C110 C 0.65447 0.54939 0.42488 0.0
C111 C 0.66199 0.54865 0.44484 0.0
C112 C 0.69299 0.58692 0.42778 0.0
N113 N 0.68636 0.57202 0.44659 0.0
C114 C 0.62258 0.59301 0.38516 0.0
C115 C 0.62385 0.69278 0.368 0.0
C116 C 0.59965 0.67432 0.3763 0.0
C117 C 0.59887 0.62278 0.38414 0.0
C118 C 0.64711 0.66176 0.36954 0.0
N119 N 0.64668 0.61457 0.37964 0.0
H120 H 0.62154 0.55285 0.39049 0.0
H121 H 0.66577 0.67691 0.36339 0.0
H122 H 0.63743 0.5282 0.41881 0.0
H123 H 0.71228 0.60392 0.42373 0.0
O124 O 0.66781 0.5049 0.38265 0.0
O125 O 0.70989 0.5298 0.38977 0.0
O126 O 0.70009 0.64634 0.38894 0.0
C127 C 0.69249 0.49167 0.38718 0.0
H128 H 0.72762 0.60454 0.31882 0.0
H129 H 0.65132 0.52875 0.45684 0.0
H130 H 0.62515 0.73179 0.36128 0.0
H131 H 0.58018 0.60597 0.38969 0.0
Co132 Co 0.66876 0.90656 0.91223 0.0
C133 C 0.67075 0.93156 0.86814 0.0
C134 C 0.65753 0.85223 0.87428 0.0
C135 C 0.6569 0.85997 0.85389 0.0
N136 N 0.66627 0.89696 0.8833 0.0
N137 N 0.66518 0.90985 0.85 0.0
H138 H 0.67725 0.9721 0.87023 0.0
H139 H 0.65147 0.81652 0.88204 0.0
C140 C 0.6931 0.80289 0.92691 0.0
O141 O 0.69364 0.81779 0.94574 0.0
N142 N 0.67081 0.91701 0.94124 0.0
C143 C 0.65006 0.9267 0.95383 0.0
C144 C 0.66009 0.93655 0.97273 0.0
C145 C 0.69326 0.92385 0.9526 0.0
N146 N 0.68729 0.93445 0.97201 0.0
C147 C 0.61223 0.91392 0.90426 0.0
C148 C 0.59768 0.82227 0.92434 0.0
C149 C 0.57785 0.85027 0.91367 0.0
C150 C 0.58534 0.89703 0.90371 0.0
C151 C 0.62427 0.84038 0.92444 0.0
N152 N 0.6313 0.8852 0.91425 0.0
H153 H 0.618 0.94932 0.89619 0.0
H154 H 0.63917 0.81827 0.93275 0.0
H155 H 0.62898 0.92773 0.94966 0.0
H156 H 0.71357 0.9206 0.94676 0.0
O157 O 0.66495 0.98281 0.9096 0.0
O158 O 0.70359 0.93781 0.90943 0.0
O159 O 0.68168 0.83106 0.91348 0.0
C160 C 0.69132 0.98325 0.9089 0.0
H161 H 0.6509 0.8309 0.84278 0.0
H162 H 0.64811 0.94412 0.986 0.0
H163 H 0.59291 0.78576 0.93212 0.0
H164 H 0.57063 0.92018 0.89547 0.0
Co165 Co 0.31775 0.56825 0.90242 0.0
C166 C 0.32936 0.55463 0.859 0.0
C167 C 0.29328 0.59987 0.86424 0.0
C168 C 0.29711 0.59564 0.84389 0.0
N169 N 0.31357 0.57456 0.8737 0.0
N170 N 0.31973 0.56718 0.84061 0.0
H171 H 0.34736 0.53137 0.86171 0.0
H172 H 0.27649 0.61925 0.87155 0.0
C173 C 0.30102 0.67547 0.91715 0.0
O174 O 0.32193 0.67535 0.92933 0.0
N175 N 0.32044 0.56148 0.9315 0.0
C176 C 0.33909 0.53616 0.94276 0.0
C177 C 0.33011 0.53356 0.9623 0.0
C178 C 0.29995 0.57179 0.94433 0.0
N179 N 0.30542 0.55593 0.96327 0.0
C180 C 0.37513 0.58297 0.90589 0.0
C181 C 0.37641 0.68609 0.89194 0.0
C182 C 0.40008 0.66377 0.89978 0.0
C183 C 0.39945 0.61086 0.90615 0.0
C184 C 0.35248 0.65668 0.89206 0.0
N185 N 0.35164 0.60723 0.90046 0.0
H186 H 0.37536 0.5416 0.90978 0.0
H187 H 0.33455 0.67414 0.88562 0.0
H188 H 0.35703 0.51696 0.93729 0.0
H189 H 0.28097 0.58903 0.93966 0.0
O190 O 0.33146 0.49704 0.89911 0.0
O191 O 0.28826 0.5185 0.90323 0.0
O192 O 0.29638 0.63567 0.90579 0.0
C193 C 0.30648 0.48179 0.90083 0.0
H194 H 0.28371 0.61067 0.83238 0.0
H195 H 0.34032 0.51373 0.97454 0.0
H196 H 0.37617 0.7263 0.88625 0.0
H197 H 0.41764 0.59106 0.9112 0.0
Co198 Co 0.68392 0.07512 0.65229 0.0
C199 C 0.68055 0.05309 0.69631 0.0
C200 C 0.70105 0.12613 0.69006 0.0
C201 C 0.70093 0.1185 0.71043 0.0
N202 N 0.68831 0.08518 0.68108 0.0
N203 N 0.68824 0.0724 0.71444 0.0
H204 H 0.67011 0.01583 0.69418 0.0
H205 H 0.71017 0.15948 0.68253 0.0
C206 C 0.69975 0.17864 0.63337 0.0
O207 O 0.68099 0.17215 0.61965 0.0
N208 N 0.68073 0.06475 0.62337 0.0
C209 C 0.65924 0.05208 0.61182 0.0
C210 C 0.66755 0.04817 0.59213 0.0
C211 C 0.70182 0.06685 0.61052 0.0
N212 N 0.69435 0.05762 0.59132 0.0
C213 C 0.62605 0.07914 0.65246 0.0
C214 C 0.62124 0.18672 0.65937 0.0
C215 C 0.59786 0.15676 0.65597 0.0
C216 C 0.6004 0.10202 0.65304 0.0
C217 C 0.64646 0.16208 0.65887 0.0
N218 N 0.64877 0.10954 0.6541 0.0
H219 H 0.62755 0.03686 0.65022 0.0
H220 H 0.66394 0.18557 0.66257 0.0
H221 H 0.63894 0.04539 0.61697 0.0
H222 H 0.72218 0.07648 0.61519 0.0
O223 O 0.67276 0.00246 0.65639 0.0
O224 O 0.71502 0.02918 0.65177 0.0
O225 O 0.70313 0.1446 0.64735 0.0
C226 C 0.69808 0.99022 0.65424 0.0
H227 H 0.70956 0.14522 0.72141 0.0
H228 H 0.65484 0.03832 0.57944 0.0
H229 H 0.62003 0.22876 0.66261 0.0
H230 H 0.5828 0.07723 0.65073 0.0
Co231 Co 0.33233 0.42237 0.64214 0.0
C232 C 0.3403 0.44414 0.68575 0.0
C233 C 0.31866 0.3716 0.68072 0.0
C234 C 0.32167 0.37859 0.70103 0.0
N235 N 0.33038 0.41259 0.67104 0.0
N236 N 0.3352 0.42419 0.70419 0.0
H237 H 0.35101 0.48086 0.68311 0.0
H238 H 0.30837 0.33864 0.67373 0.0
C239 C 0.31343 0.31862 0.62527 0.0
O240 O 0.3333 0.32047 0.61222 0.0
N241 N 0.33342 0.43215 0.61315 0.0
C242 C 0.35403 0.44774 0.60129 0.0
C243 C 0.34509 0.45022 0.58175 0.0
C244 C 0.31206 0.42704 0.60062 0.0
N245 N 0.31871 0.43698 0.58131 0.0
C246 C 0.38991 0.41236 0.63988 0.0
C247 C 0.39286 0.30611 0.64956 0.0
C248 C 0.41684 0.33378 0.64565 0.0
C249 C 0.41511 0.38788 0.64105 0.0
C250 C 0.36809 0.33234 0.64839 0.0
N251 N 0.36662 0.38419 0.64246 0.0
H252 H 0.38932 0.45454 0.63733 0.0
H253 H 0.35028 0.31079 0.6528 0.0
H254 H 0.37409 0.45791 0.60616 0.0
H255 H 0.29213 0.41531 0.60559 0.0
O256 O 0.34594 0.49363 0.64558 0.0
O257 O 0.30259 0.47171 0.64351 0.0
O258 O 0.31049 0.35567 0.63816 0.0
C259 C 0.32083 0.50854 0.64552 0.0
H260 H 0.31373 0.35289 0.71262 0.0
H261 H 0.35703 0.46199 0.56891 0.0
H262 H 0.39312 0.26454 0.6536 0.0
H263 H 0.43309 0.41166 0.63891 0.0
Co264 Co 0.82916 0.59718 0.6257 0.0
C265 C 0.83143 0.57621 0.66961 0.0
C266 C 0.83946 0.65762 0.66248 0.0
C267 C 0.84118 0.65127 0.68301 0.0
N268 N 0.83335 0.61055 0.65413 0.0
N269 N 0.83612 0.59996 0.6875 0.0
H270 H 0.82651 0.53478 0.66787 0.0
H271 H 0.8427 0.6939 0.65418 0.0
C272 C 0.78518 0.66042 0.62527 0.0
O273 O 0.80588 0.68904 0.61936 0.0
N274 N 0.82508 0.58319 0.59717 0.0
C275 C 0.8422 0.55357 0.58616 0.0
C276 C 0.83215 0.54887 0.567 0.0
C277 C 0.80456 0.59547 0.58457 0.0
N278 N 0.80845 0.57511 0.566 0.0
C279 C 0.88629 0.58528 0.63366 0.0
C280 C 0.89963 0.67038 0.60927 0.0
C281 C 0.91951 0.64869 0.62177 0.0
C282 C 0.9128 0.60495 0.63387 0.0
C283 C 0.87351 0.65033 0.60982 0.0
N284 N 0.86713 0.60902 0.62203 0.0
H285 H 0.88074 0.55327 0.64363 0.0
H286 H 0.85781 0.6697 0.60124 0.0
H287 H 0.86049 0.53551 0.59183 0.0
H288 H 0.787 0.61823 0.58878 0.0
O289 O 0.83059 0.51886 0.62975 0.0
O290 O 0.79333 0.56143 0.63064 0.0
O291 O 0.78906 0.61077 0.6288 0.0
C292 C 0.80509 0.51588 0.63147 0.0
H293 H 0.84615 0.6821 0.69369 0.0
H294 H 0.84118 0.5263 0.55493 0.0
H295 H 0.90377 0.70473 0.60001 0.0
H296 H 0.92764 0.58723 0.64374 0.0
Co297 Co 0.18279 0.90159 0.63545 0.0
C298 C 0.17859 0.92632 0.67905 0.0
C299 C 0.17801 0.84269 0.67313 0.0
C300 C 0.17636 0.85047 0.69358 0.0
N301 N 0.17947 0.89021 0.66406 0.0
N302 N 0.17676 0.90315 0.69732 0.0
H303 H 0.17896 0.96867 0.67667 0.0
H304 H 0.17833 0.80497 0.6654 0.0
C305 C 0.2275 0.83716 0.63513 0.0
O306 O 0.20733 0.80694 0.62933 0.0
N307 N 0.186 0.9137 0.60676 0.0
C308 C 0.1685 0.94241 0.59571 0.0
C309 C 0.17776 0.9451 0.5763 0.0
C310 C 0.20599 0.90003 0.59393 0.0
N311 N 0.20136 0.91858 0.5752 0.0
C312 C 0.12544 0.91677 0.64304 0.0
C313 C 0.11165 0.831 0.61901 0.0
C314 C 0.09141 0.85631 0.63009 0.0
C315 C 0.0984 0.8999 0.64222 0.0
C316 C 0.13816 0.84824 0.62058 0.0
N317 N 0.14469 0.89038 0.63236 0.0
H318 H 0.13109 0.94945 0.65269 0.0
H319 H 0.15391 0.82687 0.61279 0.0
H320 H 0.15044 0.96108 0.60149 0.0
H321 H 0.22367 0.87754 0.5981 0.0
O322 O 0.18243 0.98046 0.63912 0.0
O323 O 0.21904 0.93592 0.63927 0.0
O324 O 0.22295 0.88689 0.63812 0.0
C325 C 0.20806 0.98218 0.64013 0.0
H326 H 0.17545 0.81951 0.70478 0.0
H327 H 0.16831 0.96646 0.56409 0.0
H328 H 0.10723 0.79655 0.60984 0.0
H329 H 0.08326 0.92011 0.6511 0.0
Co330 Co 0.81874 0.41392 0.88245 0.0
C331 C 0.82494 0.43823 0.83916 0.0
C332 C 0.79582 0.3765 0.84416 0.0
C333 C 0.79725 0.38627 0.82389 0.0
N334 N 0.81329 0.40883 0.85373 0.0
N335 N 0.81546 0.42519 0.82076 0.0
H336 H 0.83991 0.46865 0.84196 0.0
H337 H 0.78248 0.34843 0.85135 0.0
C338 C 0.80624 0.30758 0.89899 0.0
O339 O 0.82798 0.31152 0.91022 0.0
N340 N 0.82309 0.41994 0.91152 0.0
C341 C 0.84442 0.43602 0.92263 0.0
C342 C 0.83675 0.4394 0.94244 0.0
C343 C 0.80266 0.41496 0.92486 0.0
N344 N 0.81042 0.42627 0.94387 0.0
C345 C 0.87723 0.40806 0.88222 0.0
C346 C 0.8798 0.30369 0.86963 0.0
C347 C 0.9036 0.32892 0.87574 0.0
C348 C 0.9023 0.38246 0.88145 0.0
C349 C 0.85528 0.33055 0.87094 0.0
N350 N 0.85393 0.38055 0.87883 0.0
H351 H 0.87653 0.4498 0.88577 0.0
H352 H 0.8373 0.31047 0.86581 0.0
H353 H 0.86407 0.44665 0.91713 0.0
H354 H 0.78225 0.40486 0.92049 0.0
O355 O 0.82829 0.4883 0.88 0.0
O356 O 0.78686 0.45583 0.88437 0.0
O357 O 0.8004 0.3438 0.88637 0.0
C358 C 0.80246 0.49675 0.88227 0.0
H359 H 0.78512 0.36745 0.81238 0.0
H360 H 0.84965 0.45132 0.95475 0.0
H361 H 0.87992 0.26289 0.86454 0.0
H362 H 0.92045 0.40421 0.88532 0.0
Co363 Co 0.16817 0.08613 0.89388 0.0
C364 C 0.17052 0.05779 0.85038 0.0
C365 C 0.16409 0.14093 0.85535 0.0
C366 C 0.16471 0.13173 0.83497 0.0
N367 N 0.16789 0.0947 0.865 0.0
N368 N 0.16875 0.07943 0.83184 0.0
H369 H 0.17376 0.01607 0.85316 0.0
H370 H 0.1607 0.17867 0.86263 0.0
C371 C 0.2117 0.15305 0.89512 0.0
O372 O 0.19015 0.18317 0.89648 0.0
N373 N 0.16835 0.07708 0.92287 0.0
C374 C 0.14973 0.05058 0.93368 0.0
C375 C 0.15868 0.0462 0.95319 0.0
C376 C 0.1885 0.08786 0.93596 0.0
N377 N 0.18317 0.0694 0.9546 0.0
C378 C 0.11207 0.06545 0.88351 0.0
C379 C 0.09458 0.15542 0.90363 0.0
C380 C 0.07585 0.12613 0.89238 0.0
C381 C 0.08477 0.0803 0.88229 0.0
C382 C 0.12141 0.13966 0.90423 0.0
N383 N 0.12976 0.09556 0.8943 0.0
H384 H 0.1192 0.03119 0.87531 0.0
H385 H 0.13601 0.16373 0.9122 0.0
H386 H 0.13143 0.03345 0.92761 0.0
H387 H 0.20712 0.10707 0.93187 0.0
O388 O 0.16889 0.00718 0.89133 0.0
O389 O 0.20509 0.05295 0.89292 0.0
O390 O 0.20839 0.1024 0.89391 0.0
C391 C 0.19453 0.00626 0.89202 0.0
H392 H 0.1618 0.16122 0.82338 0.0
H393 H 0.14851 0.02506 0.96513 0.0
H394 H 0.08886 0.19173 0.91121 0.0
H395 H 0.07093 0.05679 0.87336 0.0
Co396 Co 0.18067 0.3934 0.40108 0.0
C397 C 0.17654 0.40497 0.35685 0.0
C398 C 0.17179 0.32417 0.36618 0.0
C399 C 0.16841 0.32674 0.34563 0.0
N400 N 0.1769 0.37326 0.37316 0.0
N401 N 0.17127 0.37772 0.33981 0.0
H402 H 0.17979 0.44728 0.35739 0.0
H403 H 0.16995 0.28918 0.37545 0.0
C404 C 0.21952 0.32275 0.40503 0.0
O405 O 0.19661 0.30422 0.41208 0.0
N406 N 0.18424 0.41457 0.42902 0.0
C407 C 0.16799 0.44954 0.43839 0.0
C408 C 0.17725 0.4573 0.45764 0.0
C409 C 0.20347 0.40209 0.44266 0.0
N410 N 0.19959 0.42753 0.46032 0.0
C411 C 0.12404 0.40886 0.3916 0.0
C412 C 0.10775 0.33452 0.41973 0.0
C413 C 0.08874 0.35433 0.4061 0.0
C414 C 0.09694 0.39262 0.39205 0.0
C415 C 0.13445 0.35079 0.41847 0.0
N416 N 0.14231 0.38672 0.40443 0.0
H417 H 0.13063 0.43688 0.38036 0.0
H418 H 0.14931 0.3327 0.42819 0.0
H419 H 0.15081 0.4689 0.43154 0.0
H420 H 0.22008 0.37543 0.4398 0.0
O421 O 0.18125 0.46952 0.39372 0.0
O422 O 0.21778 0.42528 0.39604 0.0
O423 O 0.21997 0.37172 0.3993 0.0
C424 C 0.20679 0.47099 0.39286 0.0
H425 H 0.16343 0.29382 0.33588 0.0
H426 H 0.16866 0.48414 0.46858 0.0
H427 H 0.10241 0.30422 0.43054 0.0
H428 H 0.08276 0.40869 0.38127 0.0
Co429 Co 0.8272 0.09863 0.40878 0.0
C430 C 0.82747 0.08117 0.36472 0.0
C431 C 0.83267 0.16323 0.37227 0.0
C432 C 0.83293 0.15816 0.35161 0.0
N433 N 0.82921 0.1149 0.38042 0.0
N434 N 0.82953 0.10647 0.34692 0.0
H435 H 0.82519 0.03876 0.36617 0.0
H436 H 0.83477 0.19958 0.38075 0.0
C437 C 0.78381 0.1648 0.41271 0.0
O438 O 0.80498 0.19213 0.41864 0.0
N439 N 0.82521 0.08123 0.43719 0.0
C440 C 0.84243 0.04877 0.4469 0.0
C441 C 0.83342 0.04142 0.46623 0.0
C442 C 0.80573 0.09266 0.45075 0.0
N443 N 0.81027 0.06888 0.46864 0.0
C444 C 0.88339 0.08279 0.39826 0.0
C445 C 0.90015 0.16374 0.42357 0.0
C446 C 0.91875 0.14169 0.41013 0.0
C447 C 0.91031 0.10008 0.39752 0.0
C448 C 0.87362 0.14612 0.42354 0.0
N449 N 0.86556 0.10682 0.41091 0.0
H450 H 0.87649 0.05237 0.38801 0.0
H451 H 0.85892 0.16582 0.43294 0.0
H452 H 0.85994 0.0303 0.44018 0.0
H453 H 0.78831 0.11696 0.44763 0.0
O454 O 0.82634 0.02087 0.40302 0.0
O455 O 0.79031 0.06704 0.40501 0.0
O456 O 0.78718 0.11579 0.40782 0.0
C457 C 0.80069 0.02068 0.40246 0.0
H458 H 0.83499 0.19016 0.34091 0.0
H459 H 0.84268 0.01601 0.47736 0.0
H460 H 0.90559 0.19667 0.43322 0.0
H461 H 0.92412 0.08225 0.38689 0.0
Co462 Co 0.17241 0.56208 0.14329 0.0
C463 C 0.16647 0.53133 0.18626 0.0
C464 C 0.19515 0.59431 0.182 0.0
C465 C 0.19377 0.58307 0.20211 0.0
N466 N 0.17784 0.56243 0.17206 0.0
N467 N 0.17584 0.54351 0.20479 0.0
H468 H 0.15172 0.5007 0.18314 0.0
H469 H 0.20837 0.62318 0.17516 0.0
C470 C 0.18209 0.67368 0.1298 0.0
O471 O 0.16392 0.66934 0.11551 0.0
N472 N 0.16844 0.5615 0.11415 0.0
C473 C 0.14782 0.5454 0.10234 0.0
C474 C 0.15631 0.54527 0.08263 0.0
C475 C 0.18919 0.57 0.10137 0.0
N476 N 0.18241 0.56049 0.08206 0.0
C477 C 0.11393 0.55523 0.14376 0.0
C478 C 0.10599 0.65794 0.15701 0.0
C479 C 0.08363 0.62836 0.15076 0.0
C480 C 0.08759 0.57546 0.14491 0.0
C481 C 0.13171 0.63615 0.15574 0.0
N482 N 0.13565 0.58707 0.14756 0.0
H483 H 0.11691 0.51446 0.13929 0.0
H484 H 0.1484 0.65931 0.16133 0.0
H485 H 0.1283 0.53216 0.10732 0.0
H486 H 0.20908 0.58219 0.10629 0.0
O487 O 0.16729 0.48571 0.1435 0.0
O488 O 0.20637 0.52828 0.14003 0.0
O489 O 0.18673 0.63592 0.14197 0.0
C490 C 0.19332 0.48375 0.14037 0.0
H491 H 0.20566 0.6015 0.21385 0.0
H492 H 0.14449 0.53239 0.06986 0.0
H493 H 0.10365 0.6979 0.16275 0.0
H494 H 0.07066 0.55063 0.14065 0.0
Co495 Co 0.82334 0.91683 0.15131 0.0
C496 C 0.8247 0.94581 0.19487 0.0
C497 C 0.81595 0.86341 0.1903 0.0
C498 C 0.81562 0.87365 0.21056 0.0
N499 N 0.82154 0.90862 0.18035 0.0
N500 N 0.82098 0.92554 0.21348 0.0
H501 H 0.82902 0.9871 0.19196 0.0
H502 H 0.8122 0.82531 0.18345 0.0
C503 C 0.79972 0.81849 0.13308 0.0
O504 O 0.81698 0.82155 0.11818 0.0
N505 N 0.8248 0.9261 0.12229 0.0
C506 C 0.84659 0.93231 0.11038 0.0
C507 C 0.83806 0.93843 0.09085 0.0
C508 C 0.8033 0.93018 0.10982 0.0
N509 N 0.81084 0.93685 0.09049 0.0
C510 C 0.88122 0.90615 0.15125 0.0
C511 C 0.88287 0.79691 0.15404 0.0
C512 C 0.90725 0.82473 0.15255 0.0
C513 C 0.90622 0.88027 0.15144 0.0
C514 C 0.85843 0.82427 0.15392 0.0
N515 N 0.8576 0.87814 0.15159 0.0
H516 H 0.88093 0.94888 0.15043 0.0
H517 H 0.84044 0.80125 0.1561 0.0
H518 H 0.86734 0.93276 0.11523 0.0
H519 H 0.78258 0.92645 0.11478 0.0
O520 O 0.83627 0.98922 0.15394 0.0
O521 O 0.79325 0.96414 0.15224 0.0
O522 O 0.80102 0.85063 0.14788 0.0
C523 C 0.81079 0.00223 0.15335 0.0
H524 H 0.81183 0.84478 0.22222 0.0
H525 H 0.85097 0.94409 0.07793 0.0
H526 H 0.88249 0.75408 0.15512 0.0
H527 H 0.92453 0.90371 0.15089 0.0
H528 H 0.30725 0.90227 0.10749 0.0
H529 H 0.20037 0.71954 0.16382 0.0
H530 H 0.27818 0.93619 0.16704 0.0
H531 H 0.20375 0.73183 0.09931 0.0
H532 H 0.23476 0.78866 0.1665 0.0
H533 H 0.27637 0.82592 0.10574 0.0
C534 C 0.29501 0.89225 0.12042 0.0
C535 C 0.29526 0.92428 0.13755 0.0
C536 C 0.22784 0.77651 0.15177 0.0
C537 C 0.25984 0.83931 0.13551 0.0
C538 C 0.2082 0.7374 0.15024 0.0
C539 C 0.19926 0.72062 0.13133 0.0
C540 C 0.23889 0.79816 0.13424 0.0
C541 C 0.20996 0.74454 0.11414 0.0
C542 C 0.27717 0.84955 0.11931 0.0
C543 C 0.2786 0.91147 0.15374 0.0
N544 N 0.22952 0.78202 0.11599 0.0
N545 N 0.26142 0.86982 0.15233 0.0
H546 H 0.67885 0.5819 0.10325 0.0
H547 H 0.776 0.77253 0.16564 0.0
H548 H 0.71924 0.53196 0.15736 0.0
H549 H 0.77696 0.76889 0.10088 0.0
H550 H 0.74331 0.69952 0.1655 0.0
H551 H 0.70308 0.66732 0.10518 0.0
C552 C 0.69227 0.58966 0.11577 0.0
C553 C 0.69727 0.55056 0.13018 0.0
C554 C 0.75056 0.71519 0.15136 0.0
C555 C 0.72442 0.64676 0.13257 0.0
C556 C 0.76916 0.75662 0.15141 0.0
C557 C 0.77942 0.77599 0.13324 0.0
C558 C 0.74175 0.69405 0.13302 0.0
C559 C 0.76982 0.75428 0.1152 0.0
C560 C 0.70615 0.63786 0.11678 0.0
C561 C 0.71504 0.56152 0.14599 0.0
N562 N 0.75142 0.71433 0.11552 0.0
N563 N 0.72802 0.60879 0.1468 0.0
H564 H 0.31299 0.05353 0.36209 0.0
H565 H 0.23916 0.25929 0.43381 0.0
H566 H 0.26634 0.00661 0.41362 0.0
H567 H 0.24654 0.29274 0.37071 0.0
H568 H 0.25916 0.17195 0.42827 0.0
H569 H 0.29587 0.14454 0.3657 0.0
C570 C 0.29854 0.06217 0.37385 0.0
C571 C 0.29057 0.02225 0.38733 0.0
C572 C 0.25699 0.19874 0.41568 0.0
C573 C 0.27218 0.12685 0.3922 0.0
C574 C 0.24617 0.24911 0.41889 0.0
C575 C 0.24161 0.2838 0.40276 0.0
C576 C 0.26359 0.18263 0.39615 0.0
C577 C 0.25034 0.26784 0.38363 0.0
C578 C 0.28903 0.11417 0.376 0.0
C579 C 0.27243 0.03583 0.40261 0.0
N580 N 0.26075 0.21815 0.3808 0.0
N581 N 0.26417 0.08714 0.40482 0.0
H582 H 0.75151 0.17563 0.37975 0.0
H583 H 0.72631 0.45952 0.41629 0.0
H584 H 0.75925 0.21984 0.44193 0.0
H585 H 0.67464 0.39968 0.36929 0.0
H586 H 0.73887 0.36904 0.42482 0.0
H587 H 0.72096 0.25142 0.37456 0.0
C588 C 0.74562 0.19969 0.39249 0.0
C589 C 0.75788 0.19223 0.41124 0.0
C590 C 0.72457 0.37544 0.41275 0.0
C591 C 0.7242 0.27895 0.40535 0.0
C592 C 0.71772 0.42709 0.40771 0.0
C593 C 0.69977 0.43672 0.39192 0.0
C594 C 0.71397 0.33301 0.40158 0.0
C595 C 0.68873 0.39343 0.3815 0.0
C596 C 0.72846 0.24312 0.3895 0.0
C597 C 0.75023 0.22484 0.42723 0.0
N598 N 0.69645 0.34309 0.38625 0.0
N599 N 0.73436 0.26761 0.42383 0.0
H600 H 0.74431 -0.00605 0.91771 0.0
H601 H 0.75585 0.29424 0.88292 0.0
H602 H 0.67474 0.08368 0.89843 0.0
H603 H 0.8159 0.21547 0.91929 0.0
H604 H 0.7266 0.21652 0.88606 0.0
H605 H 0.77163 0.0738 0.91592 0.0
C606 C 0.73477 0.03061 0.91305 0.0
C607 C 0.70726 0.03232 0.9081 0.0
C608 C 0.74613 0.21645 0.8934 0.0
C609 C 0.73852 0.124 0.90603 0.0
C610 C 0.7629 0.26057 0.89154 0.0
C611 C 0.78842 0.26111 0.90078 0.0
C612 C 0.7551 0.17246 0.90439 0.0
C613 C 0.79643 0.21669 0.91189 0.0
C614 C 0.75039 0.07625 0.91215 0.0
C615 C 0.69591 0.08089 0.90237 0.0
N616 N 0.77987 0.174 0.91328 0.0
N617 N 0.71169 0.125 0.90134 0.0
H618 H 0.32829 0.40107 0.87864 0.0
H619 H 0.23213 0.18793 0.93009 0.0
H620 H 0.26852 0.43473 0.9239 0.0
H621 H 0.2484 0.18118 0.86667 0.0
H622 H 0.26315 0.26272 0.93315 0.0
H623 H 0.31399 0.30719 0.87883 0.0
C624 C 0.3124 0.38846 0.88874 0.0
C625 C 0.29922 0.42534 0.9011 0.0
C626 C 0.26074 0.24356 0.9187 0.0
C627 C 0.28377 0.31904 0.90192 0.0
C628 C 0.24339 0.20037 0.91699 0.0
C629 C 0.23801 0.17825 0.89813 0.0
C630 C 0.27254 0.2649 0.90138 0.0
C631 C 0.25243 0.19694 0.88149 0.0
C632 C 0.30437 0.33523 0.88885 0.0
C633 C 0.27884 0.40749 0.91395 0.0
N634 N 0.26877 0.24012 0.8834 0.0
N635 N 0.27179 0.35552 0.91408 0.0
H636 H 0.6765 0.90093 0.67155 0.0
H637 H 0.7576 0.71512 0.5976 0.0
H638 H 0.7379 0.9539 0.63027 0.0
H639 H 0.75682 0.672 0.66012 0.0
H640 H 0.72966 0.79231 0.60531 0.0
H641 H 0.68922 0.80805 0.66417 0.0
C642 C 0.69269 0.89293 0.66105 0.0
C643 C 0.7065 0.93478 0.65167 0.0
C644 C 0.73471 0.76476 0.61721 0.0
C645 C 0.71989 0.83018 0.64257 0.0
C646 C 0.75029 0.72046 0.61279 0.0
C647 C 0.75941 0.68755 0.62828 0.0
C648 C 0.72834 0.77609 0.63723 0.0
C649 C 0.74988 0.69647 0.6478 0.0
C650 C 0.69975 0.8403 0.65683 0.0
C651 C 0.7271 0.92274 0.63806 0.0
N652 N 0.73526 0.74096 0.65189 0.0
N653 N 0.73297 0.87151 0.63375 0.0
H654 H 0.23778 0.79772 0.67171 0.0
H655 H 0.34805 0.59444 0.6311 0.0
H656 H 0.27103 0.81185 0.61228 0.0
H657 H 0.27699 0.54975 0.66442 0.0
H658 H 0.33324 0.68767 0.63235 0.0
H659 H 0.26749 0.7218 0.67798 0.0
C660 C 0.25244 0.78656 0.66041 0.0
C661 C 0.25233 0.811 0.64156 0.0
C662 C 0.32125 0.65738 0.63966 0.0
C663 C 0.28559 0.72405 0.64838 0.0
C664 C 0.32959 0.60448 0.63894 0.0
C665 C 0.31345 0.5647 0.64747 0.0
C666 C 0.29713 0.67032 0.64951 0.0
C667 C 0.28974 0.57936 0.65744 0.0
C668 C 0.26904 0.74292 0.66388 0.0
C669 C 0.27097 0.79423 0.6271 0.0
N670 N 0.28228 0.63111 0.65822 0.0
N671 N 0.2867 0.75106 0.63069 0.0
H672 H 0.82052 0.42059 0.61639 0.0
H673 H 0.70663 0.24618 0.6648 0.0
H674 H 0.75639 0.49684 0.6493 0.0
H675 H 0.72818 0.22282 0.60276 0.0
H676 H 0.73258 0.32942 0.66496 0.0
H677 H 0.79465 0.33742 0.61687 0.0
C678 C 0.80113 0.41955 0.62392 0.0
C679 C 0.79045 0.46531 0.63284 0.0
C680 C 0.73161 0.30585 0.65137 0.0
C681 C 0.76128 0.37085 0.63369 0.0
C682 C 0.71704 0.25847 0.6513 0.0
C683 C 0.71545 0.22799 0.63374 0.0
C684 C 0.74528 0.32163 0.63397 0.0
C685 C 0.72896 0.24561 0.61653 0.0
C686 C 0.7864 0.37241 0.62405 0.0
C687 C 0.76518 0.46225 0.64223 0.0
N688 N 0.74367 0.29113 0.61712 0.0
N689 N 0.75148 0.41549 0.64261 0.0
H690 H 0.26526 0.30726 0.64486 0.0
H691 H 0.26187 0.993 0.63322 0.0
H692 H 0.32371 0.21993 0.61001 0.0
H693 H 0.19001 0.08379 0.64579 0.0
H694 H 0.28721 0.07561 0.62943 0.0
H695 H 0.2393 0.22542 0.64943 0.0
C696 C 0.27256 0.27093 0.63809 0.0
C697 C 0.29666 0.27037 0.627 0.0
C698 C 0.26592 0.07745 0.63308 0.0
C699 C 0.26734 0.17674 0.63246 0.0
C700 C 0.2515 0.03038 0.63541 0.0
C701 C 0.22383 0.03172 0.63982 0.0
C702 C 0.25265 0.12621 0.63543 0.0
C703 C 0.21134 0.08117 0.64236 0.0
C704 C 0.25773 0.22434 0.6407 0.0
C705 C 0.30518 0.22223 0.61857 0.0
N706 N 0.22587 0.1266 0.64017 0.0
N707 N 0.29064 0.17724 0.62161 0.0
H708 H 0.75759 0.53335 0.86417 0.0
H709 H 0.73468 0.75435 0.94677 0.0
H710 H 0.81973 0.57712 0.90638 0.0
H711 H 0.68864 0.74826 0.89173 0.0
H712 H 0.76457 0.68535 0.93353 0.0
H713 H 0.73137 0.61088 0.87432 0.0
C714 C 0.76598 0.56038 0.87519 0.0
C715 C 0.79081 0.54963 0.88436 0.0
C716 C 0.74792 0.69925 0.92439 0.0
C717 C 0.76061 0.63663 0.89668 0.0
C718 C 0.73064 0.738 0.93203 0.0
C719 C 0.70908 0.75682 0.92036 0.0
C720 C 0.74334 0.67885 0.90507 0.0
C721 C 0.705 0.73485 0.90124 0.0
C722 C 0.75098 0.60428 0.88109 0.0
C723 C 0.80079 0.58493 0.89879 0.0
N724 N 0.72193 0.69688 0.89423 0.0
N725 N 0.78537 0.62661 0.90482 0.0
H726 H 0.17719 0.90439 0.88672 0.0
H727 H 0.31277 0.77612 0.93 0.0
H728 H 0.24754 -0.00345 0.90246 0.0
H729 H 0.25242 0.68561 0.89804 0.0
H730 H 0.28705 0.85696 0.92315 0.0
H731 H 0.20282 0.82311 0.89321 0.0
C732 C 0.19811 0.90743 0.89137 0.0
C733 C 0.21034 0.95709 0.894 0.0
C734 C 0.27944 0.81936 0.91767 0.0
C735 C 0.23956 0.86462 0.90179 0.0
C736 C 0.294 0.77317 0.9217 0.0
C737 C 0.28474 0.72406 0.91456 0.0
C738 C 0.25532 0.81634 0.9066 0.0
C739 C 0.26036 0.72266 0.90377 0.0
C740 C 0.21269 0.86112 0.89511 0.0
C741 C 0.23743 0.95895 0.90014 0.0
N742 N 0.24648 0.76811 0.90014 0.0
N743 N 0.2511 0.91335 0.90398 0.0
H744 H 0.25511 0.50053 0.40971 0.0
H745 H 0.2606 0.79688 0.36922 0.0
H746 H 0.19034 0.55903 0.37258 0.0
H747 H 0.2891 0.75117 0.4278 0.0
H748 H 0.23754 0.7101 0.36632 0.0
H749 H 0.2736 0.59097 0.41149 0.0
C750 C 0.24519 0.53213 0.40153 0.0
C751 C 0.22127 0.52228 0.39092 0.0
C752 C 0.24838 0.71978 0.37997 0.0
C753 C 0.24205 0.62584 0.39303 0.0
C754 C 0.26105 0.76964 0.38177 0.0
C755 C 0.27648 0.7815 0.39889 0.0
C756 C 0.25185 0.68152 0.39517 0.0
C757 C 0.27725 0.74379 0.41441 0.0
C758 C 0.25548 0.58384 0.40277 0.0
C759 C 0.2089 0.56503 0.3809 0.0
N760 N 0.26564 0.69538 0.41204 0.0
N761 N 0.21943 0.61491 0.38213 0.0
H762 H 0.74622 0.01125 0.40623 0.0
H763 H 0.74388 0.69954 0.38495 0.0
H764 H 0.81818 0.92054 0.39382 0.0
H765 H 0.67841 0.78419 0.41332 0.0
H766 H 0.77022 0.7816 0.38439 0.0
H767 H 0.71963 0.92967 0.40476 0.0
C768 C 0.75637 0.97414 0.40305 0.0
C769 C 0.78439 0.97237 0.40021 0.0
C770 C 0.75011 0.7821 0.39076 0.0
C771 C 0.75421 0.87914 0.39856 0.0
C772 C 0.73505 0.73536 0.39107 0.0
C773 C 0.70895 0.73507 0.39925 0.0
C774 C 0.73884 0.82889 0.3985 0.0
C775 C 0.69851 0.78257 0.40697 0.0
C776 C 0.74123 0.92762 0.40231 0.0
C777 C 0.79659 0.92339 0.39616 0.0
N778 N 0.71347 0.82764 0.40634 0.0
N779 N 0.7814 0.87856 0.39547 0.0
H780 H 0.26054 0.17001 0.1399 0.0
H781 H 0.24011 0.47641 0.11998 0.0
H782 H 0.30938 0.25982 0.09836 0.0
H783 H 0.1791 0.38035 0.14859 0.0
H784 H 0.26554 0.39698 0.11205 0.0
H785 H 0.2303 0.24559 0.14328 0.0
C786 C 0.26488 0.20565 0.13143 0.0
C787 C 0.28773 0.209 0.11901 0.0
C788 C 0.24655 0.39302 0.11996 0.0
C789 C 0.25313 0.29546 0.12285 0.0
C790 C 0.23209 0.43839 0.12466 0.0
C791 C 0.20769 0.43478 0.13525 0.0
C792 C 0.23676 0.34355 0.12611 0.0
C793 C 0.19795 0.38461 0.14054 0.0
C794 C 0.24748 0.24862 0.1333 0.0
C795 C 0.29211 0.25575 0.10819 0.0
N796 N 0.21275 0.3407 0.1361 0.0
N797 N 0.27508 0.29746 0.11053 0.0
H798 H 0.70477 0.27006 0.14997 0.0
H799 H 0.83072 0.08027 0.1294 0.0
H800 H 0.74476 0.26122 0.0925 0.0
H801 H 0.76873 0.04628 0.17289 0.0
H802 H 0.80692 0.16266 0.12052 0.0
H803 H 0.73516 0.20195 0.16278 0.0
C804 C 0.71991 0.25375 0.14002 0.0
C805 C 0.72203 0.27083 0.12005 0.0
C806 C 0.79892 0.13764 0.13231 0.0
C807 C 0.75717 0.19373 0.13479 0.0
C808 C 0.81264 0.09127 0.13755 0.0
C809 C 0.80154 0.05707 0.15189 0.0
C810 C 0.77432 0.14967 0.14175 0.0
C811 C 0.7778 0.07198 0.16176 0.0
C812 C 0.73729 0.21505 0.14738 0.0
C813 C 0.74219 0.24855 0.1079 0.0
N814 N 0.76486 0.11717 0.15644 0.0
N815 N 0.75907 0.21105 0.11548 0.0
H816 H 0.25075 0.0447 0.07409 0.0
H817 H 0.23811 0.07762 0.9548 0.0
H818 H 0.31892 0.06232 0.03433 0.0
H819 H 0.16926 0.06087 0.99399 0.0
H820 H 0.26777 0.0747 0.98396 0.0
H821 H 0.22044 0.05279 0.04523 0.0
C822 C 0.25939 0.05054 0.05935 0.0
C823 C 0.28754 0.0526 0.05671 0.0
C824 C 0.24616 0.07179 0.98621 0.0
C825 C 0.25285 0.06151 0.0235 0.0
C826 C 0.22912 0.07384 0.96951 0.0
C827 C 0.20099 0.0695 0.97183 0.0
C828 C 0.23514 0.06531 1.00548 0.0
C829 C 0.19076 0.06371 0.99139 0.0
C830 C 0.24205 0.0549 0.04284 0.0
C831 C 0.29746 0.05961 0.03714 0.0
N832 N 0.2078 0.06173 1.00742 0.0
N833 N 0.28019 0.06378 0.02134 0.0
H834 H 0.8203 0.47734 0.97934 0.0
H835 H 0.67935 0.39049 0.02751 0.0
H836 H 0.76231 0.37598 0.94965 0.0
H837 H 0.74214 0.46729 0.06182 0.0
H838 H 0.7089 0.38939 0.99838 0.0
H839 H 0.79176 0.47759 1.00917 0.0
C840 C 0.80171 0.45482 0.97903 0.0
C841 C 0.79382 0.42661 0.96175 0.0
C842 C 0.7163 0.40654 1.01225 0.0
C843 C 0.76076 0.4275 0.99599 0.0
C844 C 0.69931 0.40761 0.0289 0.0
C845 C 0.70814 0.42952 0.04715 0.0
C846 C 0.74243 0.42776 1.01368 0.0
C847 C 0.73453 0.44988 0.04808 0.0
C848 C 0.78534 0.45523 0.99612 0.0
C849 C 0.76918 0.39897 0.96237 0.0
N850 N 0.75072 0.44876 0.03154 0.0
N851 N 0.75357 0.40025 0.97914 0.0
H852 H 0.33589 0.92961 0.49294 0.0
H853 H 0.18551 0.91526 0.53632 0.0
H854 H 0.26538 0.90415 0.45607 0.0
H855 H 0.25621 0.91172 0.57416 0.0
H856 H 0.21461 0.91297 0.50676 0.0
H857 H 0.30731 0.92531 0.52288 0.0
C858 C 0.31441 0.92315 0.49114 0.0
C859 C 0.30305 0.91727 0.47194 0.0
C860 C 0.22381 0.91242 0.52151 0.0
C861 C 0.27019 0.91219 0.50615 0.0
C862 C 0.20719 0.914 0.5384 0.0
C863 C 0.21843 0.91394 0.55775 0.0
C864 C 0.252 0.91129 0.5239 0.0
C865 C 0.24667 0.91144 0.55954 0.0
C866 C 0.29813 0.92037 0.50824 0.0
C867 C 0.27511 0.9083 0.47053 0.0
N868 N 0.2625 0.91063 0.54284 0.0
N869 N 0.25966 0.90636 0.48737 0.0
H870 H 0.82273 0.57136 0.5268 0.0
H871 H 0.67051 0.57554 0.48567 0.0
H872 H 0.75362 0.58582 0.56578 0.0
H873 H 0.74127 0.57345 0.44794 0.0
H874 H 0.69997 0.57866 0.5153 0.0
H875 H 0.79266 0.57195 0.49784 0.0
C876 C 0.8012 0.57454 0.52929 0.0
C877 C 0.79073 0.57822 0.5488 0.0
C878 C 0.709 0.57776 0.50051 0.0
C879 C 0.75595 0.5792 0.51553 0.0
C880 C 0.69219 0.5757 0.4836 0.0
C881 C 0.70335 0.57451 0.46422 0.0
C882 C 0.73719 0.57825 0.49805 0.0
C883 C 0.73163 0.57526 0.46247 0.0
C884 C 0.78399 0.57515 0.5127 0.0
C885 C 0.76261 0.58327 0.55103 0.0
N886 N 0.74748 0.57692 0.47911 0.0
N887 N 0.74618 0.58331 0.5346 0.0
H888 H 0.67822 0.98289 1.00797 0.0
H889 H 0.82351 0.90754 0.05242 0.0
H890 H 0.73888 0.8972 0.9746 0.0
H891 H 0.75878 0.97109 0.08844 0.0
H892 H 0.79407 0.9105 0.02304 0.0
H893 H 0.70862 0.98553 0.03678 0.0
C894 C 0.69788 0.96454 1.00663 0.0
C895 C 0.7058 0.93944 0.98873 0.0
C896 C 0.78629 0.92389 0.03736 0.0
C897 C 0.74096 0.94291 0.0218 0.0
C898 C 0.80317 0.92255 0.05415 0.0
C899 C 0.79365 0.93915 0.07299 0.0
C900 C 0.75965 0.94222 0.0393 0.0
C901 C 0.7669 0.95736 0.0743 0.0
C902 C 0.71529 0.96626 0.02313 0.0
C903 C 0.73186 0.91741 0.98792 0.0
N904 N 0.75087 0.95848 0.05769 0.0
N905 N 0.74842 0.91953 1.00421 0.0
H906 H 0.16786 0.57256 0.04293 0.0
H907 H 0.32005 0.55363 1.00261 0.0
H908 H 0.23727 0.55157 0.08138 0.0
H909 H 0.25043 0.56415 0.96375 0.0
H910 H 0.29011 0.55592 0.03166 0.0
H911 H 0.19781 0.57266 1.0138 0.0
C912 C 0.18935 0.56787 0.04529 0.0
C913 C 0.19995 0.56208 0.06473 0.0
C914 C 0.28138 0.55781 1.01677 0.0
C915 C 0.23449 0.56259 0.03135 0.0
C916 C 0.29849 0.55622 1.00013 0.0
C917 C 0.28787 0.55854 0.98059 0.0
C918 C 0.25332 0.56176 1.01395 0.0
C919 C 0.25969 0.56285 0.97843 0.0
C920 C 0.20648 0.56816 0.02862 0.0
C921 C 0.2281 0.55692 0.06679 0.0
N922 N 0.24345 0.5642 0.99488 0.0
N923 N 0.24432 0.5572 0.05034 0.0
H924 H 0.74867 0.04174 0.58939 0.0
H925 H 0.75603 0.08733 0.47043 0.0
H926 H 0.67903 0.07693 0.55274 0.0
H927 H 0.82537 0.05156 0.50732 0.0
H928 H 0.72762 0.0854 0.50038 0.0
H929 H 0.77708 0.04626 0.55953 0.0
C930 C 0.73932 0.05067 0.57511 0.0
C931 C 0.71133 0.05905 0.57368 0.0
C932 C 0.74906 0.07803 0.50192 0.0
C933 C 0.74386 0.06387 0.53923 0.0
C934 C 0.76538 0.07949 0.48481 0.0
C935 C 0.79324 0.06951 0.48626 0.0
C936 C 0.76062 0.06661 0.5207 0.0
C937 C 0.80401 0.05878 0.50536 0.0
C938 C 0.75557 0.053 0.558 0.0
C939 C 0.7004 0.06958 0.55461 0.0
N940 N 0.78772 0.0576 0.52178 0.0
N941 N 0.71667 0.07178 0.53818 0.0
H942 H 0.33402 0.41808 0.54281 0.0
H943 H 0.18408 0.44516 0.49883 0.0
H944 H 0.26399 0.44764 0.57964 0.0
H945 H 0.25341 0.40593 0.46257 0.0
H946 H 0.21295 0.44606 0.52856 0.0
H947 H 0.30487 0.41368 0.51331 0.0
C948 C 0.31253 0.42394 0.54472 0.0
C949 C 0.30153 0.43354 0.56381 0.0
C950 C 0.22186 0.43708 0.51412 0.0
C951 C 0.26785 0.42798 0.52996 0.0
C952 C 0.20539 0.43683 0.49709 0.0
C953 C 0.2163 0.42569 0.47809 0.0
C954 C 0.24957 0.42635 0.51222 0.0
C955 C 0.24402 0.41426 0.47688 0.0
C956 C 0.29585 0.42105 0.52784 0.0
C957 C 0.2734 0.43974 0.56531 0.0
N958 N 0.25969 0.41515 0.49367 0.0
N959 N 0.25758 0.43707 0.54862 0.0
H960 H 0.32536 0.94508 0.20403 0.0
H961 H 0.34912 0.98992 0.32191 0.0
H962 H 0.34085 0.09719 0.23136 0.0
H963 H 0.3284 0.83789 0.29633 0.0
H964 H 0.34874 0.02834 0.28842 0.0
H965 H 0.32974 0.90326 0.23713 0.0
C966 C 0.32999 0.96958 0.21693 0.0
C967 C 0.33254 0.02479 0.21494 0.0
C968 C 0.3443 0.98652 0.29009 0.0
C969 C 0.33731 0.9774 0.25285 0.0
C970 C 0.34432 0.96455 0.3093 0.0
C971 C 0.33856 0.91052 0.31209 0.0
C972 C 0.33847 0.95442 0.27339 0.0
C973 C 0.33314 0.87959 0.29496 0.0
C974 C 0.3323 0.94577 0.23584 0.0
C975 C 0.33827 0.05466 0.23223 0.0
N976 N 0.33313 0.902 0.27638 0.0
N977 N 0.34037 0.03067 0.25039 0.0
H978 H 0.63886 0.38873 0.22034 0.0
H979 H 0.70282 0.61701 0.28889 0.0
H980 H 0.69036 0.51296 0.19758 0.0
H981 H 0.65636 0.48648 0.31248 0.0
H982 H 0.69426 0.58487 0.25495 0.0
H983 H 0.64104 0.42901 0.25358 0.0
C984 C 0.65066 0.42448 0.2223 0.0
C985 C 0.66477 0.44702 0.20611 0.0
C986 C 0.68578 0.56336 0.26751 0.0
C987 C 0.6671 0.49381 0.24427 0.0
C988 C 0.69075 0.58159 0.28693 0.0
C989 C 0.68063 0.55397 0.30361 0.0
C990 C 0.67058 0.51699 0.26464 0.0
C991 C 0.66454 0.50905 0.3001 0.0
C992 C 0.65176 0.44765 0.24131 0.0
C993 C 0.67912 0.49421 0.20954 0.0
N994 N 0.66022 0.49168 0.28101 0.0
N995 N 0.68008 0.51577 0.22826 0.0
H996 H 0.63669 0.88552 0.8163 0.0
H997 H 0.71813 0.0911 0.74799 0.0
H998 H 0.69873 0.99004 0.83888 0.0
H999 H 0.6509 -0.00134 0.72595 0.0
H1000 H 0.71169 0.05294 0.78108 0.0
H1001 H 0.64206 0.92465 0.78303 0.0
C1002 C 0.65152 0.91658 0.81428 0.0
C1003 C 0.6674 0.93426 0.83047 0.0
C1004 C 0.69827 0.04102 0.76905 0.0
C1005 C 0.67351 0.97959 0.79231 0.0
C1006 C 0.70183 0.0631 0.75007 0.0
C1007 C 0.68487 0.04862 0.73403 0.0
C1008 C 0.67767 0.00378 0.77219 0.0
C1009 C 0.66458 0.01089 0.73774 0.0
C1010 C 0.65446 0.93911 0.79527 0.0
C1011 C 0.68591 0.97539 0.82695 0.0
N1012 N 0.66153 0.98983 0.75643 0.0
N1013 N 0.68853 -0.00356 0.80826 0.0
H1014 H 0.33609 0.52915 0.71325 0.0
H1015 H 0.34423 0.47394 0.8315 0.0
H1016 H 0.346 0.37371 0.73911 0.0
H1017 H 0.31715 0.62128 0.80565 0.0
H1018 H 0.3547 0.44121 0.79773 0.0
H1019 H 0.33887 0.56784 0.74694 0.0
C1020 C 0.33935 0.50329 0.72598 0.0
C1021 C 0.34047 0.44812 0.72344 0.0
C1022 C 0.34676 0.48095 0.79948 0.0
C1023 C 0.34345 0.49189 0.76198 0.0
C1024 C 0.34097 0.49972 0.81875 0.0
C1025 C 0.32949 0.5501 0.82131 0.0
C1026 C 0.34119 0.51298 0.78271 0.0
C1027 C 0.3255 0.58181 0.80426 0.0
C1028 C 0.34074 0.5253 0.74521 0.0
C1029 C 0.34452 0.41636 0.74048 0.0
N1030 N 0.33114 0.56262 0.78568 0.0
N1031 N 0.34566 0.43863 0.75903 0.0
H1032 H 0.81645 0.37774 0.78437 0.0
H1033 H 0.83189 0.64909 0.72395 0.0
H1034 H 0.82842 0.52832 0.81373 0.0
H1035 H 0.83913 0.49447 0.6965 0.0
H1036 H 0.82967 0.60663 0.75681 0.0
H1037 H 0.82352 0.42056 0.75192 0.0
C1038 C 0.82064 0.41986 0.78396 0.0
C1039 C 0.82174 0.44954 0.80176 0.0
C1040 C 0.83185 0.58211 0.74357 0.0
C1041 C 0.82976 0.49909 0.76461 0.0
C1042 C 0.83321 0.60635 0.72472 0.0
C1043 C 0.83552 0.57557 0.70718 0.0
C1044 C 0.83261 0.52658 0.74498 0.0
C1045 C 0.83681 0.52014 0.70937 0.0
C1046 C 0.82479 0.44428 0.76544 0.0
C1047 C 0.8276 0.50392 0.80038 0.0
N1048 N 0.83519 0.49756 0.72784 0.0
N1049 N 0.83114 0.52707 0.78211 0.0
H1050 H 0.15697 0.97608 0.82355 0.0
H1051 H 0.19321 0.00349 0.70672 0.0
H1052 H 0.18433 0.12136 0.7961 0.0
H1053 H 0.15831 0.86242 0.7327 0.0
H1054 H 0.19144 0.04617 0.73954 0.0
H1055 H 0.15925 0.93239 0.79078 0.0
C1056 C 0.16362 -0.00123 0.81069 0.0
C1057 C 0.1704 0.05265 0.81266 0.0
C1058 C 0.18415 0.00586 0.73806 0.0
C1059 C 0.17288 0.00283 0.77496 0.0
C1060 C 0.18501 0.98143 0.71922 0.0
C1061 C 0.17583 0.92905 0.71674 0.0
C1062 C 0.17412 0.97787 0.75469 0.0
C1063 C 0.16591 0.90251 0.73378 0.0
C1064 C 0.16475 0.97385 0.79193 0.0
C1065 C 0.17854 0.08006 0.79533 0.0
N1066 N 0.16532 0.92716 0.75197 0.0
N1067 N 0.17957 0.0549 0.77727 0.0
H1068 H 0.17645 0.32559 0.30407 0.0
H1069 H 0.16959 0.59258 0.24033 0.0
H1070 H 0.1592 0.47943 0.32949 0.0
H1071 H 0.1688 0.43848 0.21242 0.0
H1072 H 0.16521 0.55064 0.27315 0.0
H1073 H 0.17325 0.36437 0.27045 0.0
C1074 C 0.17181 0.36733 0.30266 0.0
C1075 C 0.16846 0.39928 0.31979 0.0
C1076 C 0.16571 0.52578 0.2599 0.0
C1077 C 0.16498 0.44397 0.28129 0.0
C1078 C 0.16824 0.54978 0.24118 0.0
C1079 C 0.16967 0.51889 0.22372 0.0
C1080 C 0.16502 0.47022 0.2613 0.0
C1081 C 0.16761 0.4636 0.22556 0.0
C1082 C 0.17003 0.38945 0.28343 0.0
C1083 C 0.16264 0.45328 0.3169 0.0
N1084 N 0.16574 0.44088 0.24408 0.0
N1085 N 0.16128 0.47383 0.29809 0.0
H1086 H 0.85157 0.1431 0.31208 0.0
H1087 H 0.79584 0.89692 0.24804 0.0
H1088 H 0.80367 0.01554 0.33644 0.0
H1089 H 0.8471 0.01798 0.22267 0.0
H1090 H 0.79771 0.94217 0.28021 0.0
H1091 H 0.84906 0.10081 0.27896 0.0
C1092 C 0.84043 0.10641 0.31048 0.0
C1093 C 0.82796 0.08276 0.32718 0.0
C1094 C 0.80859 0.95897 0.26765 0.0
C1095 C 0.82512 0.03398 0.28931 0.0
C1096 C 0.80767 0.93285 0.2492 0.0
C1097 C 0.82154 0.95322 0.23252 0.0
C1098 C 0.82347 0.00612 0.26961 0.0
C1099 C 0.83597 0.00085 0.23502 0.0
C1100 C 0.83912 0.08214 0.29158 0.0
C1101 C 0.81401 0.03487 0.32418 0.0
N1102 N 0.83662 0.02559 0.25322 0.0
N1103 N 0.81299 0.0122 0.30569 0.0
H1104 H 0.55471 0.32085 0.15597 0.0
H1105 H 0.44975 0.12119 0.10455 0.0
H1106 H 0.56302 0.26347 0.0952 0.0
H1107 H 0.43473 0.20254 0.16043 0.0
H1108 H 0.49353 0.16597 0.10222 0.0
H1109 H 0.51243 0.27197 0.15894 0.0
C1110 C 0.54755 0.29835 0.14317 0.0
C1111 C 0.5624 0.29664 0.12524 0.0
C1112 C 0.48066 0.17392 0.115 0.0
C1113 C 0.51416 0.23963 0.12872 0.0
C1114 C 0.4558 0.14811 0.11641 0.0
C1115 C 0.43857 0.15843 0.13265 0.0
C1116 C 0.4884 0.20999 0.13002 0.0
C1117 C 0.44725 0.19404 0.14751 0.0
C1118 C 0.52348 0.27012 0.14494 0.0
C1119 C 0.5524 0.26561 0.10936 0.0
N1120 N 0.47155 0.21856 0.14583 0.0
N1121 N 0.52889 0.23835 0.11147 0.0
H1122 H 0.4652 0.85197 0.42258 0.0
H1123 H 0.57747 0.73939 0.34753 0.0
H1124 H 0.45755 0.86351 0.35821 0.0
H1125 H 0.56835 0.6905 0.40918 0.0
H1126 H 0.53844 0.79871 0.35153 0.0
H1127 H 0.50884 0.80854 0.41828 0.0
C1128 C 0.47289 0.84596 0.40753 0.0
C1129 C 0.45754 0.8606 0.39072 0.0
C1130 C 0.54507 0.77499 0.36415 0.0
C1131 C 0.50743 0.81071 0.38569 0.0
C1132 C 0.56727 0.74124 0.36188 0.0
C1133 C 0.57588 0.7096 0.37798 0.0
C1134 C 0.53179 0.77761 0.38274 0.0
C1135 C 0.56205 0.71348 0.39628 0.0
C1136 C 0.49776 0.82105 0.40509 0.0
C1137 C 0.46874 0.85286 0.37158 0.0
N1138 N 0.54074 0.74687 0.39816 0.0
N1139 N 0.49292 0.82781 0.36955 0.0
H1140 H 0.54783 0.80449 0.94352 0.0
H1141 H 0.42251 0.73247 0.8724 0.0
H1142 H 0.54412 0.84796 0.88092 0.0
H1143 H 0.43469 0.66731 0.93159 0.0
H1144 H 0.46443 0.78339 0.87619 0.0
H1145 H 0.50362 0.7626 0.94037 0.0
C1146 C 0.5377 0.80529 0.9291 0.0
C1147 C 0.54986 0.82932 0.91241 0.0
C1148 C 0.45788 0.75797 0.88834 0.0
C1149 C 0.49906 0.78166 0.90873 0.0
C1150 C 0.43394 0.72909 0.88622 0.0
C1151 C 0.42524 0.69533 0.90165 0.0
C1152 C 0.47305 0.75335 0.90609 0.0
C1153 C 0.44089 0.69218 0.91918 0.0
C1154 C 0.51241 0.78148 0.92733 0.0
C1155 C 0.53547 0.83019 0.89422 0.0
N1156 N 0.46399 0.72078 0.92092 0.0
N1157 N 0.51088 0.80639 0.89283 0.0
H1158 H 0.46142 0.34982 0.62201 0.0
H1159 H 0.55064 0.12423 0.67357 0.0
H1160 H 0.43334 0.25679 0.67225 0.0
H1161 H 0.5841 0.24769 0.63632 0.0
H1162 H 0.50626 0.16666 0.67102 0.0
H1163 H 0.50549 0.30731 0.62487 0.0
C1164 C 0.46451 0.32069 0.63371 0.0
C1165 C 0.44356 0.3071 0.64695 0.0
C1166 C 0.52335 0.18453 0.66348 0.0
C1167 C 0.49394 0.25757 0.65006 0.0
C1168 C 0.54861 0.16024 0.66485 0.0
C1169 C 0.57104 0.1826 0.65517 0.0
C1170 C 0.52047 0.2311 0.65213 0.0
C1171 C 0.56738 0.2295 0.64419 0.0
C1172 C 0.48967 0.29627 0.63527 0.0
C1173 C 0.44868 0.26809 0.66152 0.0
N1174 N 0.54255 0.25206 0.64288 0.0
N1175 N 0.47334 0.24466 0.66266 0.0
H1176 H 0.95126 0.68295 0.59097 0.0
H1177 H 0.05883 0.82996 0.66181 0.0
H1178 H 0.94784 0.67641 0.6556 0.0
H1179 H 0.06178 0.82986 0.59714 0.0
H1180 H 0.01688 0.77796 0.66028 0.0
H1181 H 0.99164 0.73799 0.59329 0.0
C1182 C 0.95921 0.69277 0.60566 0.0
C1183 C 0.94619 0.67516 0.62311 0.0
C1184 C 0.0266 0.78975 0.64644 0.0
C1185 C 0.99233 0.73881 0.62595 0.0
C1186 C 0.05031 0.81994 0.64731 0.0
C1187 C 0.06375 0.83399 0.62957 0.0
C1188 C 0.01636 0.77377 0.62769 0.0
C1189 C 0.05213 0.81943 0.61117 0.0
C1190 C 0.98221 0.72438 0.607 0.0
C1191 C 0.95744 0.68874 0.64178 0.0
N1192 N 0.02923 0.7899 0.61071 0.0
N1193 N 0.9798 0.72009 0.64272 0.0
H1194 H 0.04363 0.16718 0.92181 0.0
H1195 H 0.92497 0.25928 0.84827 0.0
H1196 H 0.04451 0.13278 0.85836 0.0
H1197 H 0.93995 0.32824 0.90651 0.0
H1198 H 0.96531 0.20383 0.8524 0.0
H1199 H 0.00132 0.21529 0.91742 0.0
C1200 C 0.03477 0.16935 0.90696 0.0
C1201 C 0.04784 0.14654 0.89037 0.0
C1202 C 0.95979 0.23127 0.86422 0.0
C1203 C 0.99931 0.20168 0.88524 0.0
C1204 C 0.93682 0.26287 0.86188 0.0
C1205 C 0.92918 0.29854 0.87705 0.0
C1206 C 0.97497 0.23484 0.88197 0.0
C1207 C 0.9453 0.3018 0.89433 0.0
C1208 C 0.01066 0.19698 0.90446 0.0
C1209 C 0.03511 0.14965 0.87156 0.0
N1210 N 0.96731 0.27014 0.89637 0.0
N1211 N 0.01161 0.17717 0.86946 0.0
H1212 H 0.05561 0.33631 0.43796 0.0
H1213 H 0.9458 0.17062 0.37592 0.0
H1214 H 0.06031 0.31668 0.37375 0.0
H1215 H 0.95271 0.1705 0.44047 0.0
H1216 H 0.9865 0.22606 0.37402 0.0
H1217 H 0.01499 0.28169 0.43838 0.0
C1218 C 0.04781 0.32099 0.4239 0.0
C1219 C 0.06138 0.33069 0.40582 0.0
C1220 C 0.9792 0.21346 0.38857 0.0
C1221 C 0.01509 0.26736 0.40616 0.0
C1222 C 0.9562 0.18133 0.38965 0.0
C1223 C 0.94583 0.16624 0.40839 0.0
C1224 C 0.99171 0.23063 0.40637 0.0
C1225 C 0.95984 0.18182 0.42573 0.0
C1226 C 0.02475 0.28949 0.42414 0.0
C1227 C 0.05031 0.31035 0.38799 0.0
N1228 N 0.98189 0.21347 0.42429 0.0
N1229 N 0.02787 0.27918 0.38862 0.0
H1230 H 0.95252 0.848 0.13048 0.0
H1231 H 0.03507 0.59047 0.16483 0.0
H1232 H 0.92174 0.73488 0.17341 0.0
H1233 H 0.07115 0.72448 0.13489 0.0
H1234 H 0.99155 0.63737 0.16491 0.0
H1235 H 0.99485 0.7986 0.12928 0.0
C1236 C 0.95468 0.81306 0.13979 0.0
C1237 C 0.93343 0.79575 0.15208 0.0
C1238 C 0.00902 0.65639 0.15831 0.0
C1239 C 0.98177 0.73826 0.15043 0.0
C1240 C 0.03374 0.62952 0.15815 0.0
C1241 C 0.05671 0.65389 0.15001 0.0
C1242 C 0.0073 0.70758 0.15004 0.0
C1243 C 0.05399 0.70463 0.14159 0.0
C1244 C 0.97882 0.78462 0.13897 0.0
C1245 C 0.93734 0.7494 0.16346 0.0
N1246 N 0.02978 0.72976 0.14183 0.0
N1247 N 0.96099 0.72224 0.16233 0.0
loop_
_geom_bond_atom_site_label_1
_geom_bond_atom_site_label_2
_geom_bond_distance
_geom_bond_site_symmetry_2
_ccdc_geom_bond_type
Co0 N4 2.148 . S
Co0 N10 2.128 . S
Co0 N20 2.194 . S
Co0 O25 2.351 . S
Co0 O26 2.155 . S
Co0 O27 2.096 . S
C1 N4 1.301 . S
C1 N5 1.328 . S
C1 H6 0.930 . S
C2 C3 1.333 . S
C2 N4 1.317 . S
C2 H7 0.930 . S
C3 C2 1.333 . S
C3 N5 1.350 . S
C3 H29 0.931 . S
N4 Co0 2.148 . S
N4 C1 1.301 . S
N4 C2 1.317 . S
N5 C1 1.328 . S
N5 C3 1.350 . S
H6 C1 0.930 . S
H7 C2 0.930 . S
C8 O9 1.224 . S
C8 O27 1.247 . S
O9 C8 1.224 . S
N10 Co0 2.128 . S
N10 C11 1.355 . S
N10 C13 1.311 . S
C11 N10 1.355 . S
C11 C12 1.363 . S
C11 H23 0.929 . S
C12 C11 1.363 . S
C12 N14 1.375 . S
C12 H30 0.931 . S
C13 N10 1.311 . S
C13 N14 1.347 . S
C13 H24 0.929 . S
N14 C12 1.375 . S
N14 C13 1.347 . S
C15 C18 1.365 . S
C15 N20 1.328 . S
C15 H21 0.929 . S
C16 C17 1.362 . S
C16 C19 1.378 . S
C16 H31 0.929 . S
C17 C16 1.362 . S
C17 C18 1.366 . S
C18 C15 1.365 . S
C18 C17 1.366 . S
C18 H32 0.930 . S
C19 C16 1.378 . S
C19 N20 1.315 . S
C19 H22 0.930 . S
N20 Co0 2.194 . S
N20 C15 1.328 . S
N20 C19 1.315 . S
H21 C15 0.929 . S
H22 C19 0.930 . S
H23 C11 0.929 . S
H24 C13 0.929 . S
O25 Co0 2.351 . S
O25 C28 1.244 . S
O26 Co0 2.155 . S
O26 C28 1.240 . S
O27 Co0 2.096 . S
O27 C8 1.247 . S
C28 O25 1.244 . S
C28 O26 1.240 . S
H29 C3 0.931 . S
H30 C12 0.931 . S
H31 C16 0.929 . S
H32 C18 0.930 . S
Co33 N37 2.148 . S
Co33 N43 2.128 . S
Co33 N53 2.194 . S
Co33 O58 2.351 . S
Co33 O59 2.155 . S
Co33 O60 2.096 . S
C34 N37 1.301 . S
C34 N38 1.328 . S
C34 H39 0.930 . S
C35 C36 1.333 . S
C35 N37 1.317 . S
C35 H40 0.930 . S
C36 C35 1.333 . S
C36 N38 1.350 . S
C36 H62 0.931 . S
N37 Co33 2.148 . S
N37 C34 1.301 . S
N37 C35 1.317 . S
N38 C34 1.328 . S
N38 C36 1.350 . S
H39 C34 0.930 . S
H40 C35 0.930 . S
C41 O42 1.224 . S
C41 O60 1.247 . S
O42 C41 1.224 . S
N43 Co33 2.128 . S
N43 C44 1.355 . S
N43 C46 1.311 . S
C44 N43 1.355 . S
C44 C45 1.363 . S
C44 H56 0.929 . S
C45 C44 1.363 . S
C45 N47 1.375 . S
C45 H63 0.931 . S
C46 N43 1.311 . S
C46 N47 1.347 . S
C46 H57 0.929 . S
N47 C45 1.375 . S
N47 C46 1.347 . S
C48 C51 1.365 . S
C48 N53 1.328 . S
C48 H54 0.929 . S
C49 C50 1.362 . S
C49 C52 1.378 . S
C49 H64 0.929 . S
C50 C49 1.362 . S
C50 C51 1.366 . S
C51 C48 1.365 . S
C51 C50 1.366 . S
C51 H65 0.930 . S
C52 C49 1.378 . S
C52 N53 1.315 . S
C52 H55 0.930 . S
N53 Co33 2.194 . S
N53 C48 1.328 . S
N53 C52 1.315 . S
H54 C48 0.929 . S
H55 C52 0.930 . S
H56 C44 0.929 . S
H57 C46 0.929 . S
O58 Co33 2.351 . S
O58 C61 1.244 . S
O59 Co33 2.155 . S
O59 C61 1.240 . S
O60 Co33 2.096 . S
O60 C41 1.247 . S
C61 O58 1.244 . S
C61 O59 1.240 . S
H62 C36 0.931 . S
H63 C45 0.931 . S
H64 C49 0.929 . S
H65 C51 0.930 . S
Co66 N70 2.148 . S
Co66 N76 2.128 . S
Co66 N86 2.194 . S
Co66 O91 2.351 . S
Co66 O92 2.155 . S
Co66 O93 2.096 . S
C67 N70 1.301 . S
C67 N71 1.328 . S
C67 H72 0.930 . S
C68 C69 1.333 . S
C68 N70 1.317 . S
C68 H73 0.930 . S
C69 C68 1.333 . S
C69 N71 1.350 . S
C69 H95 0.931 . S
N70 Co66 2.148 . S
N70 C67 1.301 . S
N70 C68 1.317 . S
N71 C67 1.328 . S
N71 C69 1.350 . S
H72 C67 0.930 . S
H73 C68 0.930 . S
C74 O75 1.224 . S
C74 O93 1.247 . S
O75 C74 1.224 . S
N76 Co66 2.128 . S
N76 C77 1.355 . S
N76 C79 1.311 . S
C77 N76 1.355 . S
C77 C78 1.363 . S
C77 H89 0.929 . S
C78 C77 1.363 . S
C78 N80 1.375 . S
C78 H96 0.931 . S
C79 N76 1.311 . S
C79 N80 1.347 . S
C79 H90 0.929 . S
N80 C78 1.375 . S
N80 C79 1.347 . S
C81 C84 1.365 . S
C81 N86 1.328 . S
C81 H87 0.929 . S
C82 C83 1.362 . S
C82 C85 1.378 . S
C82 H97 0.929 . S
C83 C82 1.362 . S
C83 C84 1.366 . S
C84 C81 1.365 . S
C84 C83 1.366 . S
C84 H98 0.930 . S
C85 C82 1.378 . S
C85 N86 1.315 . S
C85 H88 0.930 . S
N86 Co66 2.194 . S
N86 C81 1.328 . S
N86 C85 1.315 . S
H87 C81 0.929 . S
H88 C85 0.930 . S
H89 C77 0.929 . S
H90 C79 0.929 . S
O91 Co66 2.351 . S
O91 C94 1.244 . S
O92 Co66 2.155 . S
O92 C94 1.240 . S
O93 Co66 2.096 . S
O93 C74 1.247 . S
C94 O91 1.244 . S
C94 O92 1.240 . S
H95 C69 0.931 . S
H96 C78 0.931 . S
H97 C82 0.929 . S
H98 C84 0.930 . S
Co99 N103 2.148 . S
Co99 N109 2.128 . S
Co99 N119 2.194 . S
Co99 O124 2.351 . S
Co99 O125 2.155 . S
Co99 O126 2.096 . S
C100 N103 1.301 . S
C100 N104 1.328 . S
C100 H105 0.930 . S
C101 C102 1.333 . S
C101 N103 1.317 . S
C101 H106 0.930 . S
C102 C101 1.333 . S
C102 N104 1.350 . S
C102 H128 0.931 . S
N103 Co99 2.148 . S
N103 C100 1.301 . S
N103 C101 1.317 . S
N104 C100 1.328 . S
N104 C102 1.350 . S
H105 C100 0.930 . S
H106 C101 0.930 . S
C107 O108 1.224 . S
C107 O126 1.247 . S
O108 C107 1.224 . S
N109 Co99 2.128 . S
N109 C110 1.355 . S
N109 C112 1.311 . S
C110 N109 1.355 . S
C110 C111 1.363 . S
C110 H122 0.929 . S
C111 C110 1.363 . S
C111 N113 1.375 . S
C111 H129 0.931 . S
C112 N109 1.311 . S
C112 N113 1.347 . S
C112 H123 0.929 . S
N113 C111 1.375 . S
N113 C112 1.347 . S
C114 C117 1.365 . S
C114 N119 1.328 . S
C114 H120 0.929 . S
C115 C116 1.362 . S
C115 C118 1.378 . S
C115 H130 0.929 . S
C116 C115 1.362 . S
C116 C117 1.366 . S
C117 C114 1.365 . S
C117 C116 1.366 . S
C117 H131 0.930 . S
C118 C115 1.378 . S
C118 N119 1.315 . S
C118 H121 0.930 . S
N119 Co99 2.194 . S
N119 C114 1.328 . S
N119 C118 1.315 . S
H120 C114 0.929 . S
H121 C118 0.930 . S
H122 C110 0.929 . S
H123 C112 0.929 . S
O124 Co99 2.351 . S
O124 C127 1.244 . S
O125 Co99 2.155 . S
O125 C127 1.240 . S
O126 Co99 2.096 . S
O126 C107 1.247 . S
C127 O124 1.244 . S
C127 O125 1.240 . S
H128 C102 0.931 . S
H129 C111 0.931 . S
H130 C115 0.929 . S
H131 C117 0.930 . S
Co132 N136 2.148 . S
Co132 N142 2.128 . S
Co132 N152 2.194 . S
Co132 O157 2.351 . S
Co132 O158 2.155 . S
Co132 O159 2.096 . S
C133 N136 1.301 . S
C133 N137 1.328 . S
C133 H138 0.930 . S
C134 C135 1.333 . S
C134 N136 1.317 . S
C134 H139 0.930 . S
C135 C134 1.333 . S
C135 N137 1.350 . S
C135 H161 0.931 . S
N136 Co132 2.148 . S
N136 C133 1.301 . S
N136 C134 1.317 . S
N137 C133 1.328 . S
N137 C135 1.350 . S
H138 C133 0.930 . S
H139 C134 0.930 . S
C140 O141 1.224 . S
C140 O159 1.247 . S
O141 C140 1.224 . S
N142 Co132 2.128 . S
N142 C143 1.355 . S
N142 C145 1.311 . S
C143 N142 1.355 . S
C143 C144 1.363 . S
C143 H155 0.929 . S
C144 C143 1.363 . S
C144 N146 1.375 . S
C144 H162 0.931 . S
C145 N142 1.311 . S
C145 N146 1.347 . S
C145 H156 0.929 . S
N146 C144 1.375 . S
N146 C145 1.347 . S
C147 C150 1.365 . S
C147 N152 1.328 . S
C147 H153 0.929 . S
C148 C149 1.362 . S
C148 C151 1.378 . S
C148 H163 0.929 . S
C149 C148 1.362 . S
C149 C150 1.366 . S
C150 C147 1.365 . S
C150 C149 1.366 . S
C150 H164 0.930 . S
C151 C148 1.378 . S
C151 N152 1.315 . S
C151 H154 0.930 . S
N152 Co132 2.194 . S
N152 C147 1.328 . S
N152 C151 1.315 . S
H153 C147 0.929 . S
H154 C151 0.930 . S
H155 C143 0.929 . S
H156 C145 0.929 . S
O157 Co132 2.351 . S
O157 C160 1.244 . S
O158 Co132 2.155 . S
O158 C160 1.240 . S
O159 Co132 2.096 . S
O159 C140 1.247 . S
C160 O157 1.244 . S
C160 O158 1.240 . S
H161 C135 0.931 . S
H162 C144 0.931 . S
H163 C148 0.929 . S
H164 C150 0.930 . S
Co165 N169 2.148 . S
Co165 N175 2.128 . S
Co165 N185 2.194 . S
Co165 O190 2.351 . S
Co165 O191 2.155 . S
Co165 O192 2.096 . S
C166 N169 1.301 . S
C166 N170 1.328 . S
C166 H171 0.930 . S
C167 C168 1.333 . S
C167 N169 1.317 . S
C167 H172 0.930 . S
C168 C167 1.333 . S
C168 N170 1.350 . S
C168 H194 0.931 . S
N169 Co165 2.148 . S
N169 C166 1.301 . S
N169 C167 1.317 . S
N170 C166 1.328 . S
N170 C168 1.350 . S
H171 C166 0.930 . S
H172 C167 0.930 . S
C173 O174 1.224 . S
C173 O192 1.247 . S
O174 C173 1.224 . S
N175 Co165 2.128 . S
N175 C176 1.355 . S
N175 C178 1.311 . S
C176 N175 1.355 . S
C176 C177 1.363 . S
C176 H188 0.929 . S
C177 C176 1.363 . S
C177 N179 1.375 . S
C177 H195 0.931 . S
C178 N175 1.311 . S
C178 N179 1.347 . S
C178 H189 0.929 . S
N179 C177 1.375 . S
N179 C178 1.347 . S
C180 C183 1.365 . S
C180 N185 1.328 . S
C180 H186 0.929 . S
C181 C182 1.362 . S
C181 C184 1.378 . S
C181 H196 0.929 . S
C182 C181 1.362 . S
C182 C183 1.366 . S
C183 C180 1.365 . S
C183 C182 1.366 . S
C183 H197 0.930 . S
C184 C181 1.378 . S
C184 N185 1.315 . S
C184 H187 0.930 . S
N185 Co165 2.194 . S
N185 C180 1.328 . S
N185 C184 1.315 . S
H186 C180 0.929 . S
H187 C184 0.930 . S
H188 C176 0.929 . S
H189 C178 0.929 . S
O190 Co165 2.351 . S
O190 C193 1.244 . S
O191 Co165 2.155 . S
O191 C193 1.240 . S
O192 Co165 2.096 . S
O192 C173 1.247 . S
C193 O190 1.244 . S
C193 O191 1.240 . S
H194 C168 0.931 . S
H195 C177 0.931 . S
H196 C181 0.929 . S
H197 C183 0.930 . S
Co198 N202 2.148 . S
Co198 N208 2.128 . S
Co198 N218 2.194 . S
Co198 O223 2.351 . S
Co198 O224 2.155 . S
Co198 O225 2.096 . S
C199 N202 1.301 . S
C199 N203 1.328 . S
C199 H204 0.930 . S
C200 C201 1.333 . S
C200 N202 1.317 . S
C200 H205 0.930 . S
C201 C200 1.333 . S
C201 N203 1.350 . S
C201 H227 0.931 . S
N202 Co198 2.148 . S
N202 C199 1.301 . S
N202 C200 1.317 . S
N203 C199 1.328 . S
N203 C201 1.350 . S
H204 C199 0.930 . S
H205 C200 0.930 . S
C206 O207 1.224 . S
C206 O225 1.247 . S
O207 C206 1.224 . S
N208 Co198 2.128 . S
N208 C209 1.355 . S
N208 C211 1.311 . S
C209 N208 1.355 . S
C209 C210 1.363 . S
C209 H221 0.929 . S
C210 C209 1.363 . S
C210 N212 1.375 . S
C210 H228 0.931 . S
C211 N208 1.311 . S
C211 N212 1.347 . S
C211 H222 0.929 . S
N212 C210 1.375 . S
N212 C211 1.347 . S
C213 C216 1.365 . S
C213 N218 1.328 . S
C213 H219 0.929 . S
C214 C215 1.362 . S
C214 C217 1.378 . S
C214 H229 0.929 . S
C215 C214 1.362 . S
C215 C216 1.366 . S
C216 C213 1.365 . S
C216 C215 1.366 . S
C216 H230 0.930 . S
C217 C214 1.378 . S
C217 N218 1.315 . S
C217 H220 0.930 . S
N218 Co198 2.194 . S
N218 C213 1.328 . S
N218 C217 1.315 . S
H219 C213 0.929 . S
H220 C217 0.930 . S
H221 C209 0.929 . S
H222 C211 0.929 . S
O223 Co198 2.351 . S
O223 C226 1.244 . S
O224 Co198 2.155 . S
O224 C226 1.240 . S
O225 Co198 2.096 . S
O225 C206 1.247 . S
C226 O223 1.244 . S
C226 O224 1.240 . S
H227 C201 0.931 . S
H228 C210 0.931 . S
H229 C214 0.929 . S
H230 C216 0.930 . S
Co231 N235 2.148 . S
Co231 N241 2.128 . S
Co231 N251 2.194 . S
Co231 O256 2.351 . S
Co231 O257 2.155 . S
Co231 O258 2.096 . S
C232 N235 1.301 . S
C232 N236 1.328 . S
C232 H237 0.930 . S
C233 C234 1.333 . S
C233 N235 1.317 . S
C233 H238 0.930 . S
C234 C233 1.333 . S
C234 N236 1.350 . S
C234 H260 0.931 . S
N235 Co231 2.148 . S
N235 C232 1.301 . S
N235 C233 1.317 . S
N236 C232 1.328 . S
N236 C234 1.350 . S
H237 C232 0.930 . S
H238 C233 0.930 . S
C239 O240 1.224 . S
C239 O258 1.247 . S
O240 C239 1.224 . S
N241 Co231 2.128 . S
N241 C242 1.355 . S
N241 C244 1.311 . S
C242 N241 1.355 . S
C242 C243 1.363 . S
C242 H254 0.929 . S
C243 C242 1.363 . S
C243 N245 1.375 . S
C243 H261 0.931 . S
C244 N241 1.311 . S
C244 N245 1.347 . S
C244 H255 0.929 . S
N245 C243 1.375 . S
N245 C244 1.347 . S
C246 C249 1.365 . S
C246 N251 1.328 . S
C246 H252 0.929 . S
C247 C248 1.362 . S
C247 C250 1.378 . S
C247 H262 0.929 . S
C248 C247 1.362 . S
C248 C249 1.366 . S
C249 C246 1.365 . S
C249 C248 1.366 . S
C249 H263 0.930 . S
C250 C247 1.378 . S
C250 N251 1.315 . S
C250 H253 0.930 . S
N251 Co231 2.194 . S
N251 C246 1.328 . S
N251 C250 1.315 . S
H252 C246 0.929 . S
H253 C250 0.930 . S
H254 C242 0.929 . S
H255 C244 0.929 . S
O256 Co231 2.351 . S
O256 C259 1.244 . S
O257 Co231 2.155 . S
O257 C259 1.240 . S
O258 Co231 2.096 . S
O258 C239 1.247 . S
C259 O256 1.244 . S
C259 O257 1.240 . S
H260 C234 0.931 . S
H261 C243 0.931 . S
H262 C247 0.929 . S
H263 C249 0.930 . S
Co264 N268 2.148 . S
Co264 N274 2.128 . S
Co264 N284 2.194 . S
Co264 O289 2.351 . S
Co264 O290 2.155 . S
Co264 O291 2.096 . S
C265 N268 1.301 . S
C265 N269 1.328 . S
C265 H270 0.930 . S
C266 C267 1.333 . S
C266 N268 1.317 . S
C266 H271 0.930 . S
C267 C266 1.333 . S
C267 N269 1.350 . S
C267 H293 0.931 . S
N268 Co264 2.148 . S
N268 C265 1.301 . S
N268 C266 1.317 . S
N269 C265 1.328 . S
N269 C267 1.350 . S
H270 C265 0.930 . S
H271 C266 0.930 . S
C272 O273 1.224 . S
C272 O291 1.247 . S
O273 C272 1.224 . S
N274 Co264 2.128 . S
N274 C275 1.355 . S
N274 C277 1.311 . S
C275 N274 1.355 . S
C275 C276 1.363 . S
C275 H287 0.929 . S
C276 C275 1.363 . S
C276 N278 1.375 . S
C276 H294 0.931 . S
C277 N274 1.311 . S
C277 N278 1.347 . S
C277 H288 0.929 . S
N278 C276 1.375 . S
N278 C277 1.347 . S
C279 C282 1.365 . S
C279 N284 1.328 . S
C279 H285 0.929 . S
C280 C281 1.362 . S
C280 C283 1.378 . S
C280 H295 0.929 . S
C281 C280 1.362 . S
C281 C282 1.366 . S
C282 C279 1.365 . S
C282 C281 1.366 . S
C282 H296 0.930 . S
C283 C280 1.378 . S
C283 N284 1.315 . S
C283 H286 0.930 . S
N284 Co264 2.194 . S
N284 C279 1.328 . S
N284 C283 1.315 . S
H285 C279 0.929 . S
H286 C283 0.930 . S
H287 C275 0.929 . S
H288 C277 0.929 . S
O289 Co264 2.351 . S
O289 C292 1.244 . S
O290 Co264 2.155 . S
O290 C292 1.240 . S
O291 Co264 2.096 . S
O291 C272 1.247 . S
C292 O289 1.244 . S
C292 O290 1.240 . S
H293 C267 0.931 . S
H294 C276 0.931 . S
H295 C280 0.929 . S
H296 C282 0.930 . S
Co297 N301 2.148 . S
Co297 N307 2.128 . S
Co297 N317 2.194 . S
Co297 O322 2.351 . S
Co297 O323 2.155 . S
Co297 O324 2.096 . S
C298 N301 1.301 . S
C298 N302 1.328 . S
C298 H303 0.930 . S
C299 C300 1.333 . S
C299 N301 1.317 . S
C299 H304 0.930 . S
C300 C299 1.333 . S
C300 N302 1.350 . S
C300 H326 0.931 . S
N301 Co297 2.148 . S
N301 C298 1.301 . S
N301 C299 1.317 . S
N302 C298 1.328 . S
N302 C300 1.350 . S
H303 C298 0.930 . S
H304 C299 0.930 . S
C305 O306 1.224 . S
C305 O324 1.247 . S
O306 C305 1.224 . S
N307 Co297 2.128 . S
N307 C308 1.355 . S
N307 C310 1.311 . S
C308 N307 1.355 . S
C308 C309 1.363 . S
C308 H320 0.929 . S
C309 C308 1.363 . S
C309 N311 1.375 . S
C309 H327 0.931 . S
C310 N307 1.311 . S
C310 N311 1.347 . S
C310 H321 0.929 . S
N311 C309 1.375 . S
N311 C310 1.347 . S
C312 C315 1.365 . S
C312 N317 1.328 . S
C312 H318 0.929 . S
C313 C314 1.362 . S
C313 C316 1.378 . S
C313 H328 0.929 . S
C314 C313 1.362 . S
C314 C315 1.366 . S
C315 C312 1.365 . S
C315 C314 1.366 . S
C315 H329 0.930 . S
C316 C313 1.378 . S
C316 N317 1.315 . S
C316 H319 0.930 . S
N317 Co297 2.194 . S
N317 C312 1.328 . S
N317 C316 1.315 . S
H318 C312 0.929 . S
H319 C316 0.930 . S
H320 C308 0.929 . S
H321 C310 0.929 . S
O322 Co297 2.351 . S
O322 C325 1.244 . S
O323 Co297 2.155 . S
O323 C325 1.240 . S
O324 Co297 2.096 . S
O324 C305 1.247 . S
C325 O322 1.244 . S
C325 O323 1.240 . S
H326 C300 0.931 . S
H327 C309 0.931 . S
H328 C313 0.929 . S
H329 C315 0.930 . S
Co330 N334 2.148 . S
Co330 N340 2.128 . S
Co330 N350 2.194 . S
Co330 O355 2.351 . S
Co330 O356 2.155 . S
Co330 O357 2.096 . S
C331 N334 1.301 . S
C331 N335 1.328 . S
C331 H336 0.930 . S
C332 C333 1.333 . S
C332 N334 1.317 . S
C332 H337 0.930 . S
C333 C332 1.333 . S
C333 N335 1.350 . S
C333 H359 0.931 . S
N334 Co330 2.148 . S
N334 C331 1.301 . S
N334 C332 1.317 . S
N335 C331 1.328 . S
N335 C333 1.350 . S
H336 C331 0.930 . S
H337 C332 0.930 . S
C338 O339 1.224 . S
C338 O357 1.247 . S
O339 C338 1.224 . S
N340 Co330 2.128 . S
N340 C341 1.355 . S
N340 C343 1.311 . S
C341 N340 1.355 . S
C341 C342 1.363 . S
C341 H353 0.929 . S
C342 C341 1.363 . S
C342 N344 1.375 . S
C342 H360 0.931 . S
C343 N340 1.311 . S
C343 N344 1.347 . S
C343 H354 0.929 . S
N344 C342 1.375 . S
N344 C343 1.347 . S
C345 C348 1.365 . S
C345 N350 1.328 . S
C345 H351 0.929 . S
C346 C347 1.362 . S
C346 C349 1.378 . S
C346 H361 0.929 . S
C347 C346 1.362 . S
C347 C348 1.366 . S
C348 C345 1.365 . S
C348 C347 1.366 . S
C348 H362 0.930 . S
C349 C346 1.378 . S
C349 N350 1.315 . S
C349 H352 0.930 . S
N350 Co330 2.194 . S
N350 C345 1.328 . S
N350 C349 1.315 . S
H351 C345 0.929 . S
H352 C349 0.930 . S
H353 C341 0.929 . S
H354 C343 0.929 . S
O355 Co330 2.351 . S
O355 C358 1.244 . S
O356 Co330 2.155 . S
O356 C358 1.240 . S
O357 Co330 2.096 . S
O357 C338 1.247 . S
C358 O355 1.244 . S
C358 O356 1.240 . S
H359 C333 0.931 . S
H360 C342 0.931 . S
H361 C346 0.929 . S
H362 C348 0.930 . S
Co363 N367 2.148 . S
Co363 N373 2.128 . S
Co363 N383 2.194 . S
Co363 O388 2.351 . S
Co363 O389 2.155 . S
Co363 O390 2.096 . S
C364 N367 1.301 . S
C364 N368 1.328 . S
C364 H369 0.930 . S
C365 C366 1.333 . S
C365 N367 1.317 . S
C365 H370 0.930 . S
C366 C365 1.333 . S
C366 N368 1.350 . S
C366 H392 0.931 . S
N367 Co363 2.148 . S
N367 C364 1.301 . S
N367 C365 1.317 . S
N368 C364 1.328 . S
N368 C366 1.350 . S
H369 C364 0.930 . S
H370 C365 0.930 . S
C371 O372 1.224 . S
C371 O390 1.247 . S
O372 C371 1.224 . S
N373 Co363 2.128 . S
N373 C374 1.355 . S
N373 C376 1.311 . S
C374 N373 1.355 . S
C374 C375 1.363 . S
C374 H386 0.929 . S
C375 C374 1.363 . S
C375 N377 1.375 . S
C375 H393 0.931 . S
C376 N373 1.311 . S
C376 N377 1.347 . S
C376 H387 0.929 . S
N377 C375 1.375 . S
N377 C376 1.347 . S
C378 C381 1.365 . S
C378 N383 1.328 . S
C378 H384 0.929 . S
C379 C380 1.362 . S
C379 C382 1.378 . S
C379 H394 0.929 . S
C380 C379 1.362 . S
C380 C381 1.366 . S
C381 C378 1.365 . S
C381 C380 1.366 . S
C381 H395 0.930 . S
C382 C379 1.378 . S
C382 N383 1.315 . S
C382 H385 0.930 . S
N383 Co363 2.194 . S
N383 C378 1.328 . S
N383 C382 1.315 . S
H384 C378 0.929 . S
H385 C382 0.930 . S
H386 C374 0.929 . S
H387 C376 0.929 . S
O388 Co363 2.351 . S
O388 C391 1.244 . S
O389 Co363 2.155 . S
O389 C391 1.240 . S
O390 Co363 2.096 . S
O390 C371 1.247 . S
C391 O388 1.244 . S
C391 O389 1.240 . S
H392 C366 0.931 . S
H393 C375 0.931 . S
H394 C379 0.929 . S
H395 C381 0.930 . S
Co396 N400 2.148 . S
Co396 N406 2.128 . S
Co396 N416 2.194 . S
Co396 O421 2.351 . S
Co396 O422 2.155 . S
Co396 O423 2.096 . S
C397 N400 1.301 . S
C397 N401 1.328 . S
C397 H402 0.930 . S
C398 C399 1.333 . S
C398 N400 1.317 . S
C398 H403 0.930 . S
C399 C398 1.333 . S
C399 N401 1.350 . S
C399 H425 0.931 . S
N400 Co396 2.148 . S
N400 C397 1.301 . S
N400 C398 1.317 . S
N401 C397 1.328 . S
N401 C399 1.350 . S
H402 C397 0.930 . S
H403 C398 0.930 . S
C404 O405 1.224 . S
C404 O423 1.247 . S
O405 C404 1.224 . S
N406 Co396 2.128 . S
N406 C407 1.355 . S
N406 C409 1.311 . S
C407 N406 1.355 . S
C407 C408 1.363 . S
C407 H419 0.929 . S
C408 C407 1.363 . S
C408 N410 1.375 . S
C408 H426 0.931 . S
C409 N406 1.311 . S
C409 N410 1.347 . S
C409 H420 0.929 . S
N410 C408 1.375 . S
N410 C409 1.347 . S
C411 C414 1.365 . S
C411 N416 1.328 . S
C411 H417 0.929 . S
C412 C413 1.362 . S
C412 C415 1.378 . S
C412 H427 0.929 . S
C413 C412 1.362 . S
C413 C414 1.366 . S
C414 C411 1.365 . S
C414 C413 1.366 . S
C414 H428 0.930 . S
C415 C412 1.378 . S
C415 N416 1.315 . S
C415 H418 0.930 . S
N416 Co396 2.194 . S
N416 C411 1.328 . S
N416 C415 1.315 . S
H417 C411 0.929 . S
H418 C415 0.930 . S
H419 C407 0.929 . S
H420 C409 0.929 . S
O421 Co396 2.351 . S
O421 C424 1.244 . S
O422 Co396 2.155 . S
O422 C424 1.240 . S
O423 Co396 2.096 . S
O423 C404 1.247 . S
C424 O421 1.244 . S
C424 O422 1.240 . S
H425 C399 0.931 . S
H426 C408 0.931 . S
H427 C412 0.929 . S
H428 C414 0.930 . S
Co429 N433 2.148 . S
Co429 N439 2.128 . S
Co429 N449 2.194 . S
Co429 O454 2.351 . S
Co429 O455 2.155 . S
Co429 O456 2.096 . S
C430 N433 1.301 . S
C430 N434 1.328 . S
C430 H435 0.930 . S
C431 C432 1.333 . S
C431 N433 1.317 . S
C431 H436 0.930 . S
C432 C431 1.333 . S
C432 N434 1.350 . S
C432 H458 0.931 . S
N433 Co429 2.148 . S
N433 C430 1.301 . S
N433 C431 1.317 . S
N434 C430 1.328 . S
N434 C432 1.350 . S
H435 C430 0.930 . S
H436 C431 0.930 . S
C437 O438 1.224 . S
C437 O456 1.247 . S
O438 C437 1.224 . S
N439 Co429 2.128 . S
N439 C440 1.355 . S
N439 C442 1.311 . S
C440 N439 1.355 . S
C440 C441 1.363 . S
C440 H452 0.929 . S
C441 C440 1.363 . S
C441 N443 1.375 . S
C441 H459 0.931 . S
C442 N439 1.311 . S
C442 N443 1.347 . S
C442 H453 0.929 . S
N443 C441 1.375 . S
N443 C442 1.347 . S
C444 C447 1.365 . S
C444 N449 1.328 . S
C444 H450 0.929 . S
C445 C446 1.362 . S
C445 C448 1.378 . S
C445 H460 0.929 . S
C446 C445 1.362 . S
C446 C447 1.366 . S
C447 C444 1.365 . S
C447 C446 1.366 . S
C447 H461 0.930 . S
C448 C445 1.378 . S
C448 N449 1.315 . S
C448 H451 0.930 . S
N449 Co429 2.194 . S
N449 C444 1.328 . S
N449 C448 1.315 . S
H450 C444 0.929 . S
H451 C448 0.930 . S
H452 C440 0.929 . S
H453 C442 0.929 . S
O454 Co429 2.351 . S
O454 C457 1.244 . S
O455 Co429 2.155 . S
O455 C457 1.240 . S
O456 Co429 2.096 . S
O456 C437 1.247 . S
C457 O454 1.244 . S
C457 O455 1.240 . S
H458 C432 0.931 . S
H459 C441 0.931 . S
H460 C445 0.929 . S
H461 C447 0.930 . S
Co462 N466 2.148 . S
Co462 N472 2.128 . S
Co462 N482 2.194 . S
Co462 O487 2.351 . S
Co462 O488 2.155 . S
Co462 O489 2.096 . S
C463 N466 1.301 . S
C463 N467 1.328 . S
C463 H468 0.930 . S
C464 C465 1.333 . S
C464 N466 1.317 . S
C464 H469 0.930 . S
C465 C464 1.333 . S
C465 N467 1.350 . S
C465 H491 0.931 . S
N466 Co462 2.148 . S
N466 C463 1.301 . S
N466 C464 1.317 . S
N467 C463 1.328 . S
N467 C465 1.350 . S
H468 C463 0.930 . S
H469 C464 0.930 . S
C470 O471 1.224 . S
C470 O489 1.247 . S
O471 C470 1.224 . S
N472 Co462 2.128 . S
N472 C473 1.355 . S
N472 C475 1.311 . S
C473 N472 1.355 . S
C473 C474 1.363 . S
C473 H485 0.929 . S
C474 C473 1.363 . S
C474 N476 1.375 . S
C474 H492 0.931 . S
C475 N472 1.311 . S
C475 N476 1.347 . S
C475 H486 0.929 . S
N476 C474 1.375 . S
N476 C475 1.347 . S
C477 C480 1.365 . S
C477 N482 1.328 . S
C477 H483 0.929 . S
C478 C479 1.362 . S
C478 C481 1.378 . S
C478 H493 0.929 . S
C479 C478 1.362 . S
C479 C480 1.366 . S
C480 C477 1.365 . S
C480 C479 1.366 . S
C480 H494 0.930 . S
C481 C478 1.378 . S
C481 N482 1.315 . S
C481 H484 0.930 . S
N482 Co462 2.194 . S
N482 C477 1.328 . S
N482 C481 1.315 . S
H483 C477 0.929 . S
H484 C481 0.930 . S
H485 C473 0.929 . S
H486 C475 0.929 . S
O487 Co462 2.351 . S
O487 C490 1.244 . S
O488 Co462 2.155 . S
O488 C490 1.240 . S
O489 Co462 2.096 . S
O489 C470 1.247 . S
C490 O487 1.244 . S
C490 O488 1.240 . S
H491 C465 0.931 . S
H492 C474 0.931 . S
H493 C478 0.929 . S
H494 C480 0.930 . S
Co495 N499 2.148 . S
Co495 N505 2.128 . S
Co495 N515 2.194 . S
Co495 O520 2.351 . S
Co495 O521 2.155 . S
Co495 O522 2.096 . S
C496 N499 1.301 . S
C496 N500 1.328 . S
C496 H501 0.930 . S
C497 C498 1.333 . S
C497 N499 1.317 . S
C497 H502 0.930 . S
C498 C497 1.333 . S
C498 N500 1.350 . S
C498 H524 0.931 . S
N499 Co495 2.148 . S
N499 C496 1.301 . S
N499 C497 1.317 . S
N500 C496 1.328 . S
N500 C498 1.350 . S
H501 C496 0.930 . S
H502 C497 0.930 . S
C503 O504 1.224 . S
C503 O522 1.247 . S
O504 C503 1.224 . S
N505 Co495 2.128 . S
N505 C506 1.355 . S
N505 C508 1.311 . S
C506 N505 1.355 . S
C506 C507 1.363 . S
C506 H518 0.929 . S
C507 C506 1.363 . S
C507 N509 1.375 . S
C507 H525 0.931 . S
C508 N505 1.311 . S
C508 N509 1.347 . S
C508 H519 0.929 . S
N509 C507 1.375 . S
N509 C508 1.347 . S
C510 C513 1.365 . S
C510 N515 1.328 . S
C510 H516 0.929 . S
C511 C512 1.362 . S
C511 C514 1.378 . S
C511 H526 0.929 . S
C512 C511 1.362 . S
C512 C513 1.366 . S
C513 C510 1.365 . S
C513 C512 1.366 . S
C513 H527 0.930 . S
C514 C511 1.378 . S
C514 N515 1.315 . S
C514 H517 0.930 . S
N515 Co495 2.194 . S
N515 C510 1.328 . S
N515 C514 1.315 . S
H516 C510 0.929 . S
H517 C514 0.930 . S
H518 C506 0.929 . S
H519 C508 0.929 . S
O520 Co495 2.351 . S
O520 C523 1.244 . S
O521 Co495 2.155 . S
O521 C523 1.240 . S
O522 Co495 2.096 . S
O522 C503 1.247 . S
C523 O520 1.244 . S
C523 O521 1.240 . S
H524 C498 0.931 . S
H525 C507 0.931 . S
H526 C511 0.929 . S
H527 C513 0.930 . S
H528 C534 0.930 . S
H529 C538 0.930 . S
H530 C543 0.929 . S
H531 C541 0.929 . S
H532 C536 0.929 . S
H533 C542 0.929 . S
C534 H528 0.930 . S
C534 C535 1.367 1_565 S
C534 C542 1.378 . S
C535 C534 1.367 1_545 S
C535 C543 1.433 . S
C536 H532 0.929 . S
C536 C538 1.378 . S
C536 C540 1.350 . S
C537 C540 1.463 . S
C537 C542 1.350 . S
C537 N545 1.427 . S
C538 H529 0.930 . S
C538 C536 1.378 . S
C538 C539 1.367 . S
C539 C538 1.367 . S
C539 C541 1.433 . S
C540 C536 1.350 . S
C540 C537 1.463 . S
C540 N544 1.427 . S
C541 H531 0.929 . S
C541 C539 1.433 . S
C541 N544 1.384 . S
C542 H533 0.929 . S
C542 C534 1.378 . S
C542 C537 1.350 . S
C543 H530 0.929 . S
C543 C535 1.433 . S
C543 N545 1.384 1_545 S
N544 C540 1.427 . S
N544 C541 1.384 . S
N545 C537 1.427 . S
N545 C543 1.384 1_565 S
H546 C552 0.930 . S
H547 C556 0.930 . S
H548 C561 0.929 . S
H549 C559 0.929 . S
H550 C554 0.929 . S
H551 C560 0.929 . S
C552 H546 0.930 . S
C552 C553 1.367 . S
C552 C560 1.378 . S
C553 C552 1.367 . S
C553 C561 1.433 . S
C554 H550 0.929 . S
C554 C556 1.378 . S
C554 C558 1.350 . S
C555 C558 1.463 . S
C555 C560 1.350 . S
C555 N563 1.427 . S
C556 H547 0.930 . S
C556 C554 1.378 . S
C556 C557 1.367 . S
C557 C556 1.367 . S
C557 C559 1.433 . S
C558 C554 1.350 . S
C558 C555 1.463 . S
C558 N562 1.427 . S
C559 H549 0.929 . S
C559 C557 1.433 . S
C559 N562 1.384 . S
C560 H551 0.929 . S
C560 C552 1.378 . S
C560 C555 1.350 . S
C561 H548 0.929 . S
C561 C553 1.433 . S
C561 N563 1.384 . S
N562 C558 1.427 . S
N562 C559 1.384 . S
N563 C555 1.427 . S
N563 C561 1.384 . S
H564 C570 0.930 . S
H565 C574 0.930 . S
H566 C579 0.929 . S
H567 C577 0.929 . S
H568 C572 0.929 . S
H569 C578 0.929 . S
C570 H564 0.930 . S
C570 C571 1.367 1_545 S
C570 C578 1.378 . S
C571 C570 1.367 1_565 S
C571 C579 1.433 . S
C572 H568 0.929 . S
C572 C574 1.378 . S
C572 C576 1.350 . S
C573 C576 1.463 . S
C573 C578 1.350 . S
C573 N581 1.427 . S
C574 H565 0.930 . S
C574 C572 1.378 . S
C574 C575 1.367 . S
C575 C574 1.367 . S
C575 C577 1.433 . S
C576 C572 1.350 . S
C576 C573 1.463 . S
C576 N580 1.427 . S
C577 H567 0.929 . S
C577 C575 1.433 . S
C577 N580 1.384 . S
C578 H569 0.929 . S
C578 C570 1.378 . S
C578 C573 1.350 . S
C579 H566 0.929 . S
C579 C571 1.433 . S
C579 N581 1.384 1_565 S
N580 C576 1.427 . S
N580 C577 1.384 . S
N581 C573 1.427 . S
N581 C579 1.384 1_545 S
H582 C588 0.930 . S
H583 C592 0.930 . S
H584 C597 0.929 . S
H585 C595 0.929 . S
H586 C590 0.929 . S
H587 C596 0.929 . S
C588 H582 0.930 . S
C588 C589 1.367 . S
C588 C596 1.378 . S
C589 C588 1.367 . S
C589 C597 1.433 . S
C590 H586 0.929 . S
C590 C592 1.378 . S
C590 C594 1.350 . S
C591 C594 1.463 . S
C591 C596 1.350 . S
C591 N599 1.427 . S
C592 H583 0.930 . S
C592 C590 1.378 . S
C592 C593 1.367 . S
C593 C592 1.367 . S
C593 C595 1.433 . S
C594 C590 1.350 . S
C594 C591 1.463 . S
C594 N598 1.427 . S
C595 H585 0.929 . S
C595 C593 1.433 . S
C595 N598 1.384 . S
C596 H587 0.929 . S
C596 C588 1.378 . S
C596 C591 1.350 . S
C597 H584 0.929 . S
C597 C589 1.433 . S
C597 N599 1.384 . S
N598 C594 1.427 . S
N598 C595 1.384 . S
N599 C591 1.427 . S
N599 C597 1.384 . S
H600 C606 0.928 1_565 S
H601 C610 0.930 . S
H602 C615 0.920 1_565 S
H603 C613 0.929 . S
H604 C608 0.929 . S
H605 C614 0.929 . S
C606 H600 0.928 1_545 S
C606 C607 1.364 1_545 S
C606 C614 1.384 . S
C607 C606 1.364 1_565 S
C607 C615 1.425 1_565 S
C608 H604 0.929 . S
C608 C610 1.378 . S
C608 C612 1.350 . S
C609 C612 1.463 . S
C609 C614 1.350 . S
C609 N617 1.427 . S
C610 H601 0.930 . S
C610 C608 1.378 . S
C610 C611 1.367 . S
C611 C610 1.367 . S
C611 C613 1.433 . S
C612 C608 1.350 . S
C612 C609 1.463 . S
C612 N616 1.427 . S
C613 H603 0.929 . S
C613 C611 1.433 . S
C613 N616 1.384 . S
C614 H605 0.929 . S
C614 C606 1.384 . S
C614 C609 1.350 . S
C615 H602 0.920 1_545 S
C615 C607 1.425 1_545 S
C615 N617 1.401 . S
N616 C612 1.427 . S
N616 C613 1.384 . S
N617 C609 1.427 . S
N617 C615 1.401 . S
H618 C624 0.930 . S
H619 C628 0.930 . S
H620 C633 0.929 . S
H621 C631 0.929 . S
H622 C626 0.929 . S
H623 C632 0.929 . S
C624 H618 0.930 . S
C624 C625 1.367 . S
C624 C632 1.378 . S
C625 C624 1.367 . S
C625 C633 1.433 . S
C626 H622 0.929 . S
C626 C628 1.378 . S
C626 C630 1.350 . S
C627 C630 1.463 . S
C627 C632 1.350 . S
C627 N635 1.427 . S
C628 H619 0.930 . S
C628 C626 1.378 . S
C628 C629 1.367 . S
C629 C628 1.367 . S
C629 C631 1.433 . S
C630 C626 1.350 . S
C630 C627 1.463 . S
C630 N634 1.427 . S
C631 H621 0.929 . S
C631 C629 1.433 . S
C631 N634 1.384 . S
C632 H623 0.929 . S
C632 C624 1.378 . S
C632 C627 1.350 . S
C633 H620 0.929 . S
C633 C625 1.433 . S
C633 N635 1.384 . S
N634 C630 1.427 . S
N634 C631 1.384 . S
N635 C627 1.427 . S
N635 C633 1.384 . S
H636 C642 0.930 1_545 S
H637 C646 0.930 . S
H638 C651 0.929 . S
H639 C649 0.929 . S
H640 C644 0.929 . S
H641 C650 0.929 . S
C642 H636 0.930 1_565 S
C642 C643 1.367 1_565 S
C642 C650 1.378 . S
C643 C642 1.367 1_545 S
C643 C651 1.433 . S
C644 H640 0.929 . S
C644 C646 1.378 . S
C644 C648 1.350 . S
C645 C648 1.463 . S
C645 C650 1.350 . S
C645 N653 1.427 . S
C646 H637 0.930 . S
C646 C644 1.378 . S
C646 C647 1.367 . S
C647 C646 1.367 . S
C647 C649 1.433 . S
C648 C644 1.350 . S
C648 C645 1.463 . S
C648 N652 1.427 . S
C649 H639 0.929 . S
C649 C647 1.433 . S
C649 N652 1.384 . S
C650 H641 0.929 . S
C650 C642 1.378 . S
C650 C645 1.350 . S
C651 H638 0.929 . S
C651 C643 1.433 . S
C651 N653 1.384 1_545 S
N652 C648 1.427 . S
N652 C649 1.384 . S
N653 C645 1.427 . S
N653 C651 1.384 1_565 S
H654 C660 0.930 . S
H655 C664 0.930 . S
H656 C669 0.929 . S
H657 C667 0.929 . S
H658 C662 0.929 . S
H659 C668 0.929 . S
C660 H654 0.930 . S
C660 C661 1.367 . S
C660 C668 1.378 . S
C661 C660 1.367 . S
C661 C669 1.433 . S
C662 H658 0.929 . S
C662 C664 1.378 . S
C662 C666 1.350 . S
C663 C666 1.463 . S
C663 C668 1.350 . S
C663 N671 1.427 . S
C664 H655 0.930 . S
C664 C662 1.378 . S
C664 C665 1.367 . S
C665 C664 1.367 . S
C665 C667 1.433 . S
C666 C662 1.350 . S
C666 C663 1.463 . S
C666 N670 1.427 . S
C667 H657 0.929 . S
C667 C665 1.433 . S
C667 N670 1.384 . S
C668 H659 0.929 . S
C668 C660 1.378 . S
C668 C663 1.350 . S
C669 H656 0.929 . S
C669 C661 1.433 . S
C669 N671 1.384 . S
N670 C666 1.427 . S
N670 C667 1.384 . S
N671 C663 1.427 . S
N671 C669 1.384 . S
H672 C678 0.930 . S
H673 C682 0.930 . S
H674 C687 0.929 . S
H675 C685 0.929 . S
H676 C680 0.929 . S
H677 C686 0.929 . S
C678 H672 0.930 . S
C678 C679 1.367 . S
C678 C686 1.378 . S
C679 C678 1.367 . S
C679 C687 1.433 . S
C680 H676 0.929 . S
C680 C682 1.378 . S
C680 C684 1.350 . S
C681 C684 1.463 . S
C681 C686 1.350 . S
C681 N689 1.427 . S
C682 H673 0.930 . S
C682 C680 1.378 . S
C682 C683 1.367 . S
C683 C682 1.367 . S
C683 C685 1.433 . S
C684 C680 1.350 . S
C684 C681 1.463 . S
C684 N688 1.427 . S
C685 H675 0.929 . S
C685 C683 1.433 . S
C685 N688 1.384 . S
C686 H677 0.929 . S
C686 C678 1.378 . S
C686 C681 1.350 . S
C687 H674 0.929 . S
C687 C679 1.433 . S
C687 N689 1.384 . S
N688 C684 1.427 . S
N688 C685 1.384 . S
N689 C681 1.427 . S
N689 C687 1.384 . S
H690 C696 0.930 . S
H691 C700 0.930 . S
H692 C705 0.929 . S
H693 C703 0.929 . S
H694 C698 0.929 . S
H695 C704 0.929 . S
C696 H690 0.930 . S
C696 C697 1.367 . S
C696 C704 1.378 . S
C697 C696 1.367 . S
C697 C705 1.433 . S
C698 H694 0.929 . S
C698 C700 1.378 1_545 S
C698 C702 1.350 . S
C699 C702 1.463 . S
C699 C704 1.350 . S
C699 N707 1.427 . S
C700 H691 0.930 . S
C700 C698 1.378 1_565 S
C700 C701 1.367 . S
C701 C700 1.367 . S
C701 C703 1.433 1_565 S
C702 C698 1.350 . S
C702 C699 1.463 . S
C702 N706 1.427 . S
C703 H693 0.929 . S
C703 C701 1.433 1_545 S
C703 N706 1.384 . S
C704 H695 0.929 . S
C704 C696 1.378 . S
C704 C699 1.350 . S
C705 H692 0.929 . S
C705 C697 1.433 . S
C705 N707 1.384 . S
N706 C702 1.427 . S
N706 C703 1.384 . S
N707 C699 1.427 . S
N707 C705 1.384 . S
H708 C714 0.930 . S
H709 C718 0.930 . S
H710 C723 0.929 . S
H711 C721 0.929 . S
H712 C716 0.929 . S
H713 C722 0.929 . S
C714 H708 0.930 . S
C714 C715 1.367 . S
C714 C722 1.378 . S
C715 C714 1.367 . S
C715 C723 1.433 . S
C716 H712 0.929 . S
C716 C718 1.378 . S
C716 C720 1.350 . S
C717 C720 1.463 . S
C717 C722 1.350 . S
C717 N725 1.427 . S
C718 H709 0.930 . S
C718 C716 1.378 . S
C718 C719 1.367 . S
C719 C718 1.367 . S
C719 C721 1.433 . S
C720 C716 1.350 . S
C720 C717 1.463 . S
C720 N724 1.427 . S
C721 H711 0.929 . S
C721 C719 1.433 . S
C721 N724 1.384 . S
C722 H713 0.929 . S
C722 C714 1.378 . S
C722 C717 1.350 . S
C723 H710 0.929 . S
C723 C715 1.433 . S
C723 N725 1.384 . S
N724 C720 1.427 . S
N724 C721 1.384 . S
N725 C717 1.427 . S
N725 C723 1.384 . S
H726 C732 0.930 . S
H727 C736 0.930 . S
H728 C741 0.929 . S
H729 C739 0.929 . S
H730 C734 0.929 . S
H731 C740 0.929 . S
C732 H726 0.930 . S
C732 C733 1.367 1_565 S
C732 C740 1.378 . S
C733 C732 1.367 1_545 S
C733 C741 1.433 . S
C734 H730 0.929 . S
C734 C736 1.378 . S
C734 C738 1.350 . S
C735 C738 1.463 . S
C735 C740 1.350 . S
C735 N743 1.427 . S
C736 H727 0.930 . S
C736 C734 1.378 . S
C736 C737 1.367 . S
C737 C736 1.367 . S
C737 C739 1.433 . S
C738 C734 1.350 . S
C738 C735 1.463 . S
C738 N742 1.427 . S
C739 H729 0.929 . S
C739 C737 1.433 . S
C739 N742 1.384 . S
C740 H731 0.929 . S
C740 C732 1.378 . S
C740 C735 1.350 . S
C741 H728 0.929 . S
C741 C733 1.433 . S
C741 N743 1.384 1_545 S
N742 C738 1.427 . S
N742 C739 1.384 . S
N743 C735 1.427 . S
N743 C741 1.384 1_565 S
H744 C750 0.930 . S
H745 C754 0.930 . S
H746 C759 0.929 . S
H747 C757 0.929 . S
H748 C752 0.929 . S
H749 C758 0.929 . S
C750 H744 0.930 . S
C750 C751 1.367 . S
C750 C758 1.378 . S
C751 C750 1.367 . S
C751 C759 1.433 . S
C752 H748 0.929 . S
C752 C754 1.378 . S
C752 C756 1.350 . S
C753 C756 1.463 . S
C753 C758 1.350 . S
C753 N761 1.427 . S
C754 H745 0.930 . S
C754 C752 1.378 . S
C754 C755 1.367 . S
C755 C754 1.367 . S
C755 C757 1.433 . S
C756 C752 1.350 . S
C756 C753 1.463 . S
C756 N760 1.427 . S
C757 H747 0.929 . S
C757 C755 1.433 . S
C757 N760 1.384 . S
C758 H749 0.929 . S
C758 C750 1.378 . S
C758 C753 1.350 . S
C759 H746 0.929 . S
C759 C751 1.433 . S
C759 N761 1.384 . S
N760 C756 1.427 . S
N760 C757 1.384 . S
N761 C753 1.427 . S
N761 C759 1.384 . S
H762 C768 0.930 . S
H763 C772 0.930 . S
H764 C777 0.929 . S
H765 C775 0.929 . S
H766 C770 0.929 . S
H767 C776 0.929 . S
C768 H762 0.930 . S
C768 C769 1.367 . S
C768 C776 1.378 1_545 S
C769 C768 1.367 . S
C769 C777 1.433 1_545 S
C770 H766 0.929 . S
C770 C772 1.378 . S
C770 C774 1.350 . S
C771 C774 1.463 . S
C771 C776 1.350 . S
C771 N779 1.427 . S
C772 H763 0.930 . S
C772 C770 1.378 . S
C772 C773 1.367 . S
C773 C772 1.367 . S
C773 C775 1.433 . S
C774 C770 1.350 . S
C774 C771 1.463 . S
C774 N778 1.427 . S
C775 H765 0.929 . S
C775 C773 1.433 . S
C775 N778 1.384 . S
C776 H767 0.929 . S
C776 C768 1.378 1_565 S
C776 C771 1.350 . S
C777 H764 0.929 . S
C777 C769 1.433 1_565 S
C777 N779 1.384 . S
N778 C774 1.427 . S
N778 C775 1.384 . S
N779 C771 1.427 . S
N779 C777 1.384 . S
H780 C786 0.930 . S
H781 C790 0.930 . S
H782 C795 0.929 . S
H783 C793 0.929 . S
H784 C788 0.929 . S
H785 C794 0.929 . S
C786 H780 0.930 . S
C786 C787 1.367 . S
C786 C794 1.378 . S
C787 C786 1.367 . S
C787 C795 1.433 . S
C788 H784 0.929 . S
C788 C790 1.378 . S
C788 C792 1.350 . S
C789 C792 1.463 . S
C789 C794 1.350 . S
C789 N797 1.427 . S
C790 H781 0.930 . S
C790 C788 1.378 . S
C790 C791 1.367 . S
C791 C790 1.367 . S
C791 C793 1.433 . S
C792 C788 1.350 . S
C792 C789 1.463 . S
C792 N796 1.427 . S
C793 H783 0.929 . S
C793 C791 1.433 . S
C793 N796 1.384 . S
C794 H785 0.929 . S
C794 C786 1.378 . S
C794 C789 1.350 . S
C795 H782 0.929 . S
C795 C787 1.433 . S
C795 N797 1.384 . S
N796 C792 1.427 . S
N796 C793 1.384 . S
N797 C789 1.427 . S
N797 C795 1.384 . S
H798 C804 0.930 . S
H799 C808 0.930 1_565 S
H800 C813 0.929 . S
H801 C811 0.929 . S
H802 C806 0.929 . S
H803 C812 0.929 . S
C804 H798 0.930 . S
C804 C805 1.367 . S
C804 C812 1.378 . S
C805 C804 1.367 . S
C805 C813 1.433 . S
C806 H802 0.929 . S
C806 C808 1.378 . S
C806 C810 1.350 . S
C807 C810 1.463 . S
C807 C812 1.350 . S
C807 N815 1.427 . S
C808 H799 0.930 1_545 S
C808 C806 1.378 . S
C808 C809 1.367 1_545 S
C809 C808 1.367 1_565 S
C809 C811 1.433 . S
C810 C806 1.350 . S
C810 C807 1.463 . S
C810 N814 1.427 . S
C811 H801 0.929 . S
C811 C809 1.433 . S
C811 N814 1.384 1_565 S
C812 H803 0.929 . S
C812 C804 1.378 . S
C812 C807 1.350 . S
C813 H800 0.929 . S
C813 C805 1.433 . S
C813 N815 1.384 . S
N814 C810 1.427 . S
N814 C811 1.384 1_545 S
N815 C807 1.427 . S
N815 C813 1.384 . S
H816 C822 0.930 . S
H817 C826 0.930 . S
H818 C831 0.929 . S
H819 C829 0.929 . S
H820 C824 0.929 . S
H821 C830 0.929 . S
C822 H816 0.930 . S
C822 C823 1.367 . S
C822 C830 1.378 . S
C823 C822 1.367 . S
C823 C831 1.433 . S
C824 H820 0.929 . S
C824 C826 1.378 . S
C824 C828 1.350 . S
C825 C828 1.463 1_554 S
C825 C830 1.350 . S
C825 N833 1.427 . S
C826 H817 0.930 . S
C826 C824 1.378 . S
C826 C827 1.367 . S
C827 C826 1.367 . S
C827 C829 1.433 . S
C828 C824 1.350 . S
C828 C825 1.463 1_556 S
C828 N832 1.427 . S
C829 H819 0.929 . S
C829 C827 1.433 . S
C829 N832 1.384 . S
C830 H821 0.929 . S
C830 C822 1.378 . S
C830 C825 1.350 . S
C831 H818 0.929 . S
C831 C823 1.433 . S
C831 N833 1.384 . S
N832 C828 1.427 . S
N832 C829 1.384 . S
N833 C825 1.427 . S
N833 C831 1.384 . S
H834 C840 0.930 . S
H835 C844 0.930 . S
H836 C849 0.929 . S
H837 C847 0.929 . S
H838 C842 0.929 . S
H839 C848 0.929 . S
C840 H834 0.930 . S
C840 C841 1.367 . S
C840 C848 1.378 . S
C841 C840 1.367 . S
C841 C849 1.433 . S
C842 H838 0.929 . S
C842 C844 1.378 . S
C842 C846 1.350 . S
C843 C846 1.463 1_556 S
C843 C848 1.350 . S
C843 N851 1.427 . S
C844 H835 0.930 . S
C844 C842 1.378 . S
C844 C845 1.367 . S
C845 C844 1.367 . S
C845 C847 1.433 . S
C846 C842 1.350 . S
C846 C843 1.463 1_554 S
C846 N850 1.427 . S
C847 H837 0.929 . S
C847 C845 1.433 . S
C847 N850 1.384 . S
C848 H839 0.929 . S
C848 C840 1.378 . S
C848 C843 1.350 . S
C849 H836 0.929 . S
C849 C841 1.433 . S
C849 N851 1.384 . S
N850 C846 1.427 . S
N850 C847 1.384 . S
N851 C843 1.427 . S
N851 C849 1.384 . S
H852 C858 0.930 . S
H853 C862 0.930 . S
H854 C867 0.929 . S
H855 C865 0.929 . S
H856 C860 0.929 . S
H857 C866 0.929 . S
C858 H852 0.930 . S
C858 C859 1.367 . S
C858 C866 1.378 . S
C859 C858 1.367 . S
C859 C867 1.433 . S
C860 H856 0.929 . S
C860 C862 1.378 . S
C860 C864 1.350 . S
C861 C864 1.463 . S
C861 C866 1.350 . S
C861 N869 1.427 . S
C862 H853 0.930 . S
C862 C860 1.378 . S
C862 C863 1.367 . S
C863 C862 1.367 . S
C863 C865 1.433 . S
C864 C860 1.350 . S
C864 C861 1.463 . S
C864 N868 1.427 . S
C865 H855 0.929 . S
C865 C863 1.433 . S
C865 N868 1.384 . S
C866 H857 0.929 . S
C866 C858 1.378 . S
C866 C861 1.350 . S
C867 H854 0.929 . S
C867 C859 1.433 . S
C867 N869 1.384 . S
N868 C864 1.427 . S
N868 C865 1.384 . S
N869 C861 1.427 . S
N869 C867 1.384 . S
H870 C876 0.930 . S
H871 C880 0.930 . S
H872 C885 0.929 . S
H873 C883 0.929 . S
H874 C878 0.929 . S
H875 C884 0.929 . S
C876 H870 0.930 . S
C876 C877 1.367 . S
C876 C884 1.378 . S
C877 C876 1.367 . S
C877 C885 1.433 . S
C878 H874 0.929 . S
C878 C880 1.378 . S
C878 C882 1.350 . S
C879 C882 1.463 . S
C879 C884 1.350 . S
C879 N887 1.427 . S
C880 H871 0.930 . S
C880 C878 1.378 . S
C880 C881 1.367 . S
C881 C880 1.367 . S
C881 C883 1.433 . S
C882 C878 1.350 . S
C882 C879 1.463 . S
C882 N886 1.427 . S
C883 H873 0.929 . S
C883 C881 1.433 . S
C883 N886 1.384 . S
C884 H875 0.929 . S
C884 C876 1.378 . S
C884 C879 1.350 . S
C885 H872 0.929 . S
C885 C877 1.433 . S
C885 N887 1.384 . S
N886 C882 1.427 . S
N886 C883 1.384 . S
N887 C879 1.427 . S
N887 C885 1.384 . S
H888 C894 0.930 . S
H889 C898 0.930 . S
H890 C903 0.929 . S
H891 C901 0.929 . S
H892 C896 0.929 . S
H893 C902 0.929 . S
C894 H888 0.930 . S
C894 C895 1.367 . S
C894 C902 1.378 . S
C895 C894 1.367 . S
C895 C903 1.433 . S
C896 H892 0.929 . S
C896 C898 1.378 . S
C896 C900 1.350 . S
C897 C900 1.463 1_556 S
C897 C902 1.350 . S
C897 N905 1.427 . S
C898 H889 0.930 . S
C898 C896 1.378 . S
C898 C899 1.367 . S
C899 C898 1.367 . S
C899 C901 1.433 . S
C900 C896 1.350 . S
C900 C897 1.463 1_554 S
C900 N904 1.427 . S
C901 H891 0.929 . S
C901 C899 1.433 . S
C901 N904 1.384 . S
C902 H893 0.929 . S
C902 C894 1.378 . S
C902 C897 1.350 . S
C903 H890 0.929 . S
C903 C895 1.433 . S
C903 N905 1.384 . S
N904 C900 1.427 . S
N904 C901 1.384 . S
N905 C897 1.427 . S
N905 C903 1.384 . S
H906 C912 0.930 . S
H907 C916 0.930 . S
H908 C921 0.929 . S
H909 C919 0.929 . S
H910 C914 0.929 1_554 S
H911 C920 0.929 1_556 S
C912 H906 0.930 . S
C912 C913 1.367 . S
C912 C920 1.378 . S
C913 C912 1.367 . S
C913 C921 1.433 . S
C914 H910 0.929 1_556 S
C914 C916 1.378 . S
C914 C918 1.350 . S
C915 C918 1.463 1_554 S
C915 C920 1.350 . S
C915 N923 1.427 . S
C916 H907 0.930 . S
C916 C914 1.378 . S
C916 C917 1.367 . S
C917 C916 1.367 . S
C917 C919 1.433 . S
C918 C914 1.350 . S
C918 C915 1.463 1_556 S
C918 N922 1.427 . S
C919 H909 0.929 . S
C919 C917 1.433 . S
C919 N922 1.384 . S
C920 H911 0.929 1_554 S
C920 C912 1.378 . S
C920 C915 1.350 . S
C921 H908 0.929 . S
C921 C913 1.433 . S
C921 N923 1.384 . S
N922 C918 1.427 . S
N922 C919 1.384 . S
N923 C915 1.427 . S
N923 C921 1.384 . S
H924 C930 0.930 . S
H925 C934 0.930 . S
H926 C939 0.929 . S
H927 C937 0.929 . S
H928 C932 0.929 . S
H929 C938 0.929 . S
C930 H924 0.930 . S
C930 C931 1.367 . S
C930 C938 1.378 . S
C931 C930 1.367 . S
C931 C939 1.433 . S
C932 H928 0.929 . S
C932 C934 1.378 . S
C932 C936 1.350 . S
C933 C936 1.463 . S
C933 C938 1.350 . S
C933 N941 1.427 . S
C934 H925 0.930 . S
C934 C932 1.378 . S
C934 C935 1.367 . S
C935 C934 1.367 . S
C935 C937 1.433 . S
C936 C932 1.350 . S
C936 C933 1.463 . S
C936 N940 1.427 . S
C937 H927 0.929 . S
C937 C935 1.433 . S
C937 N940 1.384 . S
C938 H929 0.929 . S
C938 C930 1.378 . S
C938 C933 1.350 . S
C939 H926 0.929 . S
C939 C931 1.433 . S
C939 N941 1.384 . S
N940 C936 1.427 . S
N940 C937 1.384 . S
N941 C933 1.427 . S
N941 C939 1.384 . S
H942 C948 0.930 . S
H943 C952 0.930 . S
H944 C957 0.929 . S
H945 C955 0.929 . S
H946 C950 0.929 . S
H947 C956 0.929 . S
C948 H942 0.930 . S
C948 C949 1.367 . S
C948 C956 1.378 . S
C949 C948 1.367 . S
C949 C957 1.433 . S
C950 H946 0.929 . S
C950 C952 1.378 . S
C950 C954 1.350 . S
C951 C954 1.463 . S
C951 C956 1.350 . S
C951 N959 1.427 . S
C952 H943 0.930 . S
C952 C950 1.378 . S
C952 C953 1.367 . S
C953 C952 1.367 . S
C953 C955 1.433 . S
C954 C950 1.350 . S
C954 C951 1.463 . S
C954 N958 1.427 . S
C955 H945 0.929 . S
C955 C953 1.433 . S
C955 N958 1.384 . S
C956 H947 0.929 . S
C956 C948 1.378 . S
C956 C951 1.350 . S
C957 H944 0.929 . S
C957 C949 1.433 . S
C957 N959 1.384 . S
N958 C954 1.427 . S
N958 C955 1.384 . S
N959 C951 1.427 . S
N959 C957 1.384 . S
H960 C966 0.930 . S
H961 C970 0.930 . S
H962 C975 0.929 . S
H963 C973 0.929 . S
H964 C968 0.929 . S
H965 C974 0.929 . S
C966 H960 0.930 . S
C966 C967 1.367 . S
C966 C974 1.378 . S
C967 C966 1.367 . S
C967 C975 1.433 . S
C968 H964 0.929 . S
C968 C970 1.378 . S
C968 C972 1.350 . S
C969 C972 1.463 1_545 S
C969 C974 1.350 . S
C969 N977 1.427 . S
C970 H961 0.930 . S
C970 C968 1.378 . S
C970 C971 1.367 . S
C971 C970 1.367 . S
C971 C973 1.433 . S
C972 C968 1.350 . S
C972 C969 1.463 1_565 S
C972 N976 1.427 . S
C973 H963 0.929 . S
C973 C971 1.433 . S
C973 N976 1.384 . S
C974 H965 0.929 . S
C974 C966 1.378 . S
C974 C969 1.350 . S
C975 H962 0.929 . S
C975 C967 1.433 . S
C975 N977 1.384 . S
N976 C972 1.427 . S
N976 C973 1.384 . S
N977 C969 1.427 . S
N977 C975 1.384 . S
H978 C984 0.930 . S
H979 C988 0.930 . S
H980 C993 0.929 . S
H981 C991 0.929 . S
H982 C986 0.929 . S
H983 C992 0.929 . S
C984 H978 0.930 . S
C984 C985 1.367 . S
C984 C992 1.378 . S
C985 C984 1.367 . S
C985 C993 1.433 . S
C986 H982 0.929 . S
C986 C988 1.378 . S
C986 C990 1.350 . S
C987 C990 1.463 . S
C987 C992 1.350 . S
C987 N995 1.427 . S
C988 H979 0.930 . S
C988 C986 1.378 . S
C988 C989 1.367 . S
C989 C988 1.367 . S
C989 C991 1.433 . S
C990 C986 1.350 . S
C990 C987 1.463 . S
C990 N994 1.427 . S
C991 H981 0.929 . S
C991 C989 1.433 . S
C991 N994 1.384 . S
C992 H983 0.929 . S
C992 C984 1.378 . S
C992 C987 1.350 . S
C993 H980 0.929 . S
C993 C985 1.433 . S
C993 N995 1.384 . S
N994 C990 1.427 . S
N994 C991 1.384 . S
N995 C987 1.427 . S
N995 C993 1.384 . S
H996 C1002 0.930 . S
H997 C1006 0.930 . S
H998 C1011 0.929 . S
H999 C1009 0.929 . S
H1000 C1004 0.929 . S
H1001 C1010 0.929 . S
C1002 H996 0.930 . S
C1002 C1003 1.367 . S
C1002 C1010 1.378 . S
C1003 C1002 1.367 . S
C1003 C1011 1.433 . S
C1004 H1000 0.929 . S
C1004 C1006 1.378 . S
C1004 C1008 1.350 . S
C1005 C1008 1.463 1_565 S
C1005 C1010 1.350 . S
C1005 N1013 1.427 . S
C1006 H997 0.930 . S
C1006 C1004 1.378 . S
C1006 C1007 1.367 . S
C1007 C1006 1.367 . S
C1007 C1009 1.433 . S
C1008 C1004 1.350 . S
C1008 C1005 1.463 1_545 S
C1008 N1012 1.427 . S
C1009 H999 0.929 . S
C1009 C1007 1.433 . S
C1009 N1012 1.384 . S
C1010 H1001 0.929 . S
C1010 C1002 1.378 . S
C1010 C1005 1.350 . S
C1011 H998 0.929 . S
C1011 C1003 1.433 . S
C1011 N1013 1.384 . S
N1012 C1008 1.427 . S
N1012 C1009 1.384 . S
N1013 C1005 1.427 . S
N1013 C1011 1.384 . S
H1014 C1020 0.930 . S
H1015 C1024 0.930 . S
H1016 C1029 0.929 . S
H1017 C1027 0.929 . S
H1018 C1022 0.929 . S
H1019 C1028 0.929 . S
C1020 H1014 0.930 . S
C1020 C1021 1.367 . S
C1020 C1028 1.378 . S
C1021 C1020 1.367 . S
C1021 C1029 1.433 . S
C1022 H1018 0.929 . S
C1022 C1024 1.378 . S
C1022 C1026 1.350 . S
C1023 C1026 1.463 . S
C1023 C1028 1.350 . S
C1023 N1031 1.427 . S
C1024 H1015 0.930 . S
C1024 C1022 1.378 . S
C1024 C1025 1.367 . S
C1025 C1024 1.367 . S
C1025 C1027 1.433 . S
C1026 C1022 1.350 . S
C1026 C1023 1.463 . S
C1026 N1030 1.427 . S
C1027 H1017 0.929 . S
C1027 C1025 1.433 . S
C1027 N1030 1.384 . S
C1028 H1019 0.929 . S
C1028 C1020 1.378 . S
C1028 C1023 1.350 . S
C1029 H1016 0.929 . S
C1029 C1021 1.433 . S
C1029 N1031 1.384 . S
N1030 C1026 1.427 . S
N1030 C1027 1.384 . S
N1031 C1023 1.427 . S
N1031 C1029 1.384 . S
H1032 C1038 0.930 . S
H1033 C1042 0.930 . S
H1034 C1047 0.929 . S
H1035 C1045 0.929 . S
H1036 C1040 0.929 . S
H1037 C1046 0.929 . S
C1038 H1032 0.930 . S
C1038 C1039 1.367 . S
C1038 C1046 1.378 . S
C1039 C1038 1.367 . S
C1039 C1047 1.433 . S
C1040 H1036 0.929 . S
C1040 C1042 1.378 . S
C1040 C1044 1.350 . S
C1041 C1044 1.463 . S
C1041 C1046 1.350 . S
C1041 N1049 1.427 . S
C1042 H1033 0.930 . S
C1042 C1040 1.378 . S
C1042 C1043 1.367 . S
C1043 C1042 1.367 . S
C1043 C1045 1.433 . S
C1044 C1040 1.350 . S
C1044 C1041 1.463 . S
C1044 N1048 1.427 . S
C1045 H1035 0.929 . S
C1045 C1043 1.433 . S
C1045 N1048 1.384 . S
C1046 H1037 0.929 . S
C1046 C1038 1.378 . S
C1046 C1041 1.350 . S
C1047 H1034 0.929 . S
C1047 C1039 1.433 . S
C1047 N1049 1.384 . S
N1048 C1044 1.427 . S
N1048 C1045 1.384 . S
N1049 C1041 1.427 . S
N1049 C1047 1.384 . S
H1050 C1056 0.930 . S
H1051 C1060 0.930 . S
H1052 C1065 0.929 . S
H1053 C1063 0.929 . S
H1054 C1058 0.929 . S
H1055 C1064 0.929 . S
C1056 H1050 0.930 . S
C1056 C1057 1.367 . S
C1056 C1064 1.378 1_545 S
C1057 C1056 1.367 . S
C1057 C1065 1.433 . S
C1058 H1054 0.929 . S
C1058 C1060 1.378 1_545 S
C1058 C1062 1.350 1_545 S
C1059 C1062 1.463 1_545 S
C1059 C1064 1.350 1_545 S
C1059 N1067 1.427 . S
C1060 H1051 0.930 . S
C1060 C1058 1.378 1_565 S
C1060 C1061 1.367 . S
C1061 C1060 1.367 . S
C1061 C1063 1.433 . S
C1062 C1058 1.350 1_565 S
C1062 C1059 1.463 1_565 S
C1062 N1066 1.427 . S
C1063 H1053 0.929 . S
C1063 C1061 1.433 . S
C1063 N1066 1.384 . S
C1064 H1055 0.929 . S
C1064 C1056 1.378 1_565 S
C1064 C1059 1.350 1_565 S
C1065 H1052 0.929 . S
C1065 C1057 1.433 . S
C1065 N1067 1.384 . S
N1066 C1062 1.427 . S
N1066 C1063 1.384 . S
N1067 C1059 1.427 . S
N1067 C1065 1.384 . S
H1068 C1074 0.930 . S
H1069 C1078 0.930 . S
H1070 C1083 0.929 . S
H1071 C1081 0.929 . S
H1072 C1076 0.929 . S
H1073 C1082 0.929 . S
C1074 H1068 0.930 . S
C1074 C1075 1.367 . S
C1074 C1082 1.378 . S
C1075 C1074 1.367 . S
C1075 C1083 1.433 . S
C1076 H1072 0.929 . S
C1076 C1078 1.378 . S
C1076 C1080 1.350 . S
C1077 C1080 1.463 . S
C1077 C1082 1.350 . S
C1077 N1085 1.427 . S
C1078 H1069 0.930 . S
C1078 C1076 1.378 . S
C1078 C1079 1.367 . S
C1079 C1078 1.367 . S
C1079 C1081 1.433 . S
C1080 C1076 1.350 . S
C1080 C1077 1.463 . S
C1080 N1084 1.427 . S
C1081 H1071 0.929 . S
C1081 C1079 1.433 . S
C1081 N1084 1.384 . S
C1082 H1073 0.929 . S
C1082 C1074 1.378 . S
C1082 C1077 1.350 . S
C1083 H1070 0.929 . S
C1083 C1075 1.433 . S
C1083 N1085 1.384 . S
N1084 C1080 1.427 . S
N1084 C1081 1.384 . S
N1085 C1077 1.427 . S
N1085 C1083 1.384 . S
H1086 C1092 0.930 . S
H1087 C1096 0.930 . S
H1088 C1101 0.929 . S
H1089 C1099 0.929 . S
H1090 C1094 0.929 . S
H1091 C1100 0.929 . S
C1092 H1086 0.930 . S
C1092 C1093 1.367 . S
C1092 C1100 1.378 . S
C1093 C1092 1.367 . S
C1093 C1101 1.433 . S
C1094 H1090 0.929 . S
C1094 C1096 1.378 . S
C1094 C1098 1.350 . S
C1095 C1098 1.463 1_545 S
C1095 C1100 1.350 . S
C1095 N1103 1.427 . S
C1096 H1087 0.930 . S
C1096 C1094 1.378 . S
C1096 C1097 1.367 . S
C1097 C1096 1.367 . S
C1097 C1099 1.433 . S
C1098 C1094 1.350 . S
C1098 C1095 1.463 1_565 S
C1098 N1102 1.427 . S
C1099 H1089 0.929 . S
C1099 C1097 1.433 . S
C1099 N1102 1.384 . S
C1100 H1091 0.929 . S
C1100 C1092 1.378 . S
C1100 C1095 1.350 . S
C1101 H1088 0.929 . S
C1101 C1093 1.433 . S
C1101 N1103 1.384 . S
N1102 C1098 1.427 . S
N1102 C1099 1.384 . S
N1103 C1095 1.427 . S
N1103 C1101 1.384 . S
H1104 C1110 0.930 . S
H1105 C1114 0.930 . S
H1106 C1119 0.929 . S
H1107 C1117 0.929 . S
H1108 C1112 0.929 . S
H1109 C1118 0.929 . S
C1110 H1104 0.930 . S
C1110 C1111 1.367 . S
C1110 C1118 1.378 . S
C1111 C1110 1.367 . S
C1111 C1119 1.433 . S
C1112 H1108 0.929 . S
C1112 C1114 1.378 . S
C1112 C1116 1.350 . S
C1113 C1116 1.463 . S
C1113 C1118 1.350 . S
C1113 N1121 1.427 . S
C1114 H1105 0.930 . S
C1114 C1112 1.378 . S
C1114 C1115 1.367 . S
C1115 C1114 1.367 . S
C1115 C1117 1.433 . S
C1116 C1112 1.350 . S
C1116 C1113 1.463 . S
C1116 N1120 1.427 . S
C1117 H1107 0.929 . S
C1117 C1115 1.433 . S
C1117 N1120 1.384 . S
C1118 H1109 0.929 . S
C1118 C1110 1.378 . S
C1118 C1113 1.350 . S
C1119 H1106 0.929 . S
C1119 C1111 1.433 . S
C1119 N1121 1.384 . S
N1120 C1116 1.427 . S
N1120 C1117 1.384 . S
N1121 C1113 1.427 . S
N1121 C1119 1.384 . S
H1122 C1128 0.930 . S
H1123 C1132 0.930 . S
H1124 C1137 0.929 . S
H1125 C1135 0.929 . S
H1126 C1130 0.929 . S
H1127 C1136 0.929 . S
C1128 H1122 0.930 . S
C1128 C1129 1.367 . S
C1128 C1136 1.378 . S
C1129 C1128 1.367 . S
C1129 C1137 1.433 . S
C1130 H1126 0.929 . S
C1130 C1132 1.378 . S
C1130 C1134 1.350 . S
C1131 C1134 1.463 . S
C1131 C1136 1.350 . S
C1131 N1139 1.427 . S
C1132 H1123 0.930 . S
C1132 C1130 1.378 . S
C1132 C1133 1.367 . S
C1133 C1132 1.367 . S
C1133 C1135 1.433 . S
C1134 C1130 1.350 . S
C1134 C1131 1.463 . S
C1134 N1138 1.427 . S
C1135 H1125 0.929 . S
C1135 C1133 1.433 . S
C1135 N1138 1.384 . S
C1136 H1127 0.929 . S
C1136 C1128 1.378 . S
C1136 C1131 1.350 . S
C1137 H1124 0.929 . S
C1137 C1129 1.433 . S
C1137 N1139 1.384 . S
N1138 C1134 1.427 . S
N1138 C1135 1.384 . S
N1139 C1131 1.427 . S
N1139 C1137 1.384 . S
H1140 C1146 0.930 . S
H1141 C1150 0.930 . S
H1142 C1155 0.929 . S
H1143 C1153 0.929 . S
H1144 C1148 0.929 . S
H1145 C1154 0.929 . S
C1146 H1140 0.930 . S
C1146 C1147 1.367 . S
C1146 C1154 1.378 . S
C1147 C1146 1.367 . S
C1147 C1155 1.433 . S
C1148 H1144 0.929 . S
C1148 C1150 1.378 . S
C1148 C1152 1.350 . S
C1149 C1152 1.463 . S
C1149 C1154 1.350 . S
C1149 N1157 1.427 . S
C1150 H1141 0.930 . S
C1150 C1148 1.378 . S
C1150 C1151 1.367 . S
C1151 C1150 1.367 . S
C1151 C1153 1.433 . S
C1152 C1148 1.350 . S
C1152 C1149 1.463 . S
C1152 N1156 1.427 . S
C1153 H1143 0.929 . S
C1153 C1151 1.433 . S
C1153 N1156 1.384 . S
C1154 H1145 0.929 . S
C1154 C1146 1.378 . S
C1154 C1149 1.350 . S
C1155 H1142 0.929 . S
C1155 C1147 1.433 . S
C1155 N1157 1.384 . S
N1156 C1152 1.427 . S
N1156 C1153 1.384 . S
N1157 C1149 1.427 . S
N1157 C1155 1.384 . S
H1158 C1164 0.930 . S
H1159 C1168 0.930 . S
H1160 C1173 0.929 . S
H1161 C1171 0.929 . S
H1162 C1166 0.929 . S
H1163 C1172 0.929 . S
C1164 H1158 0.930 . S
C1164 C1165 1.367 . S
C1164 C1172 1.378 . S
C1165 C1164 1.367 . S
C1165 C1173 1.433 . S
C1166 H1162 0.929 . S
C1166 C1168 1.378 . S
C1166 C1170 1.350 . S
C1167 C1170 1.463 . S
C1167 C1172 1.350 . S
C1167 N1175 1.427 . S
C1168 H1159 0.930 . S
C1168 C1166 1.378 . S
C1168 C1169 1.367 . S
C1169 C1168 1.367 . S
C1169 C1171 1.433 . S
C1170 C1166 1.350 . S
C1170 C1167 1.463 . S
C1170 N1174 1.427 . S
C1171 H1161 0.929 . S
C1171 C1169 1.433 . S
C1171 N1174 1.384 . S
C1172 H1163 0.929 . S
C1172 C1164 1.378 . S
C1172 C1167 1.350 . S
C1173 H1160 0.929 . S
C1173 C1165 1.433 . S
C1173 N1175 1.384 . S
N1174 C1170 1.427 . S
N1174 C1171 1.384 . S
N1175 C1167 1.427 . S
N1175 C1173 1.384 . S
H1176 C1182 0.930 . S
H1177 C1186 0.930 . S
H1178 C1191 0.929 . S
H1179 C1189 0.929 . S
H1180 C1184 0.929 . S
H1181 C1190 0.929 . S
C1182 H1176 0.930 . S
C1182 C1183 1.367 . S
C1182 C1190 1.378 . S
C1183 C1182 1.367 . S
C1183 C1191 1.433 . S
C1184 H1180 0.929 . S
C1184 C1186 1.378 . S
C1184 C1188 1.350 . S
C1185 C1188 1.463 1_655 S
C1185 C1190 1.350 . S
C1185 N1193 1.427 . S
C1186 H1177 0.930 . S
C1186 C1184 1.378 . S
C1186 C1187 1.367 . S
C1187 C1186 1.367 . S
C1187 C1189 1.433 . S
C1188 C1184 1.350 . S
C1188 C1185 1.463 1_455 S
C1188 N1192 1.427 . S
C1189 H1179 0.929 . S
C1189 C1187 1.433 . S
C1189 N1192 1.384 . S
C1190 H1181 0.929 . S
C1190 C1182 1.378 . S
C1190 C1185 1.350 . S
C1191 H1178 0.929 . S
C1191 C1183 1.433 . S
C1191 N1193 1.384 . S
N1192 C1188 1.427 . S
N1192 C1189 1.384 . S
N1193 C1185 1.427 . S
N1193 C1191 1.384 . S
H1194 C1200 0.930 . S
H1195 C1204 0.930 . S
H1196 C1209 0.929 . S
H1197 C1207 0.929 . S
H1198 C1202 0.929 . S
H1199 C1208 0.929 . S
C1200 H1194 0.930 . S
C1200 C1201 1.367 . S
C1200 C1208 1.378 . S
C1201 C1200 1.367 . S
C1201 C1209 1.433 . S
C1202 H1198 0.929 . S
C1202 C1204 1.378 . S
C1202 C1206 1.350 . S
C1203 C1206 1.463 1_455 S
C1203 C1208 1.350 . S
C1203 N1211 1.427 . S
C1204 H1195 0.930 . S
C1204 C1202 1.378 . S
C1204 C1205 1.367 . S
C1205 C1204 1.367 . S
C1205 C1207 1.433 . S
C1206 C1202 1.350 . S
C1206 C1203 1.463 1_655 S
C1206 N1210 1.427 . S
C1207 H1197 0.929 . S
C1207 C1205 1.433 . S
C1207 N1210 1.384 . S
C1208 H1199 0.929 . S
C1208 C1200 1.378 . S
C1208 C1203 1.350 . S
C1209 H1196 0.929 . S
C1209 C1201 1.433 . S
C1209 N1211 1.384 . S
N1210 C1206 1.427 . S
N1210 C1207 1.384 . S
N1211 C1203 1.427 . S
N1211 C1209 1.384 . S
H1212 C1218 0.930 . S
H1213 C1222 0.930 . S
H1214 C1227 0.929 . S
H1215 C1225 0.929 . S
H1216 C1220 0.929 . S
H1217 C1226 0.929 . S
C1218 H1212 0.930 . S
C1218 C1219 1.367 . S
C1218 C1226 1.378 . S
C1219 C1218 1.367 . S
C1219 C1227 1.433 . S
C1220 H1216 0.929 . S
C1220 C1222 1.378 . S
C1220 C1224 1.350 . S
C1221 C1224 1.463 1_455 S
C1221 C1226 1.350 . S
C1221 N1229 1.427 . S
C1222 H1213 0.930 . S
C1222 C1220 1.378 . S
C1222 C1223 1.367 . S
C1223 C1222 1.367 . S
C1223 C1225 1.433 . S
C1224 C1220 1.350 . S
C1224 C1221 1.463 1_655 S
C1224 N1228 1.427 . S
C1225 H1215 0.929 . S
C1225 C1223 1.433 . S
C1225 N1228 1.384 . S
C1226 H1217 0.929 . S
C1226 C1218 1.378 . S
C1226 C1221 1.350 . S
C1227 H1214 0.929 . S
C1227 C1219 1.433 . S
C1227 N1229 1.384 . S
N1228 C1224 1.427 . S
N1228 C1225 1.384 . S
N1229 C1221 1.427 . S
N1229 C1227 1.384 . S
H1230 C1236 0.930 . S
H1231 C1240 0.930 . S
H1232 C1245 0.929 . S
H1233 C1243 0.929 . S
H1234 C1238 0.929 . S
H1235 C1244 0.929 . S
C1236 H1230 0.930 . S
C1236 C1237 1.367 . S
C1236 C1244 1.378 . S
C1237 C1236 1.367 . S
C1237 C1245 1.433 . S
C1238 H1234 0.929 . S
C1238 C1240 1.378 . S
C1238 C1242 1.350 . S
C1239 C1242 1.463 1_655 S
C1239 C1244 1.350 . S
C1239 N1247 1.427 . S
C1240 H1231 0.930 . S
C1240 C1238 1.378 . S
C1240 C1241 1.367 . S
C1241 C1240 1.367 . S
C1241 C1243 1.433 . S
C1242 C1238 1.350 . S
C1242 C1239 1.463 1_455 S
C1242 N1246 1.427 . S
C1243 H1233 0.929 . S
C1243 C1241 1.433 . S
C1243 N1246 1.384 . S
C1244 H1235 0.929 . S
C1244 C1236 1.378 . S
C1244 C1239 1.350 . S
C1245 H1232 0.929 . S
C1245 C1237 1.433 . S
C1245 N1247 1.384 . S
N1246 C1242 1.427 . S
N1246 C1243 1.384 . S
N1247 C1239 1.427 . S
N1247 C1245 1.384 . S
C535 C28 0.742 . S
C539 C470 0.742 . S
C553 C61 0.741 . S
C557 C503 0.743 . S
C571 C94 0.745 . S
C575 C404 0.736 . S
C589 C437 0.747 . S
C593 C127 0.738 . S
C607 C160 0.740 . S
C611 C338 0.745 . S
C625 C193 0.745 . S
C629 C371 0.737 . S
C643 C226 0.745 . S
C647 C272 0.737 . S
C661 C305 0.745 . S
C665 C259 0.740 . S
C679 C292 0.742 . S
C683 C206 0.742 . S
C697 C239 0.744 . S
C701 C325 0.740 . S
C715 C358 0.741 . S
C719 C140 0.743 . S
C733 C391 0.743 . S
C737 C173 0.739 . S
C751 C424 0.739 . S
C755 C74 0.746 . S
C769 C457 0.740 . S
C773 C107 0.744 . S
C787 C8 0.745 . S
C791 C490 0.740 . S
C805 C41 0.743 . S
C809 C523 0.741 . S
C823 N14 1.843 . S
C827 N377 1.836 . S
C841 N344 1.835 . S
C845 N47 1.846 . S
C859 N80 1.846 . S
C863 N311 1.835 . S
C877 N278 1.844 . S
C881 N113 1.837 . S
C895 N146 1.836 . S
C899 N509 1.845 . S
C913 N476 1.842 . S
C917 N179 1.839 . S
C931 N212 1.834 . S
C935 N443 1.846 . S
C949 N245 1.846 . S
C953 N410 1.834 . S
C967 N5 1.889 . S
C971 N71 1.895 . S
C985 N38 1.891 . S
C989 N104 1.894 . S
C1003 N137 1.895 . S
C1007 N203 1.890 . S
C1021 N236 1.889 . S
C1025 N170 1.895 . S
C1039 N335 1.892 . S
C1043 N269 1.893 . S
C1057 N368 1.892 . S
C1061 N302 1.891 . S
C1075 N401 1.894 . S
C1079 N467 1.892 . S
C1093 N434 1.896 . S
C1097 N500 1.889 . S
C1111 C50 1.555 . S
C1115 C17 1.559 . S
C1129 C83 1.557 . S
C1133 C116 1.552 . S
C1147 C149 1.558 . S
C1151 C182 1.553 . S
C1165 C248 1.559 . S
C1169 C215 1.554 . S
C1183 C281 1.556 . S
C1187 C314 1.551 . S
C1201 C380 1.553 . S
C1205 C347 1.551 . S
C1219 C413 1.558 . S
C1223 C446 1.553 . S
C1237 C512 1.560 . S
C1241 C479 1.557 . S
