# Generated by pormake.
# Topology tsi, (8)-cn, num edge types: 1
# Building blocks:
#     Node 0, Type 0, BuildingBlock: TAGTUT_clean_sbu_1, # of connection points: 8
#     Node 1, Type 0, BuildingBlock: TAGTUT_clean_sbu_1, # of connection points: 8
#     Node 2, Type 0, BuildingBlock: TAGTUT_clean_sbu_1, # of connection points: 8
#     Node 3, Type 0, BuildingBlock: TAGTUT_clean_sbu_1, # of connection points: 8
#     Edge 4, Type (0, 0), BuildingBlock: AJUNOK_clean_linker_0, # of connection points: 2
#     Edge 5, Type (0, 0), BuildingBlock: AJUNOK_clean_linker_0, # of connection points: 2
#     Edge 6, Type (0, 0), BuildingBlock: AJUNOK_clean_linker_0, # of connection points: 2
#     Edge 7, Type (0, 0), BuildingBlock: AJUNOK_clean_linker_0, # of connection points: 2
#     Edge 8, Type (0, 0), BuildingBlock: AJUNOK_clean_linker_0, # of connection points: 2
#     Edge 9, Type (0, 0), BuildingBlock: AJUNOK_clean_linker_0, # of connection points: 2
#     Edge 10, Type (0, 0), BuildingBlock: AJUNOK_clean_linker_0, # of connection points: 2
#     Edge 11, Type (0, 0), BuildingBlock: AJUNOK_clean_linker_0, # of connection points: 2
#     Edge 12, Type (0, 0), BuildingBlock: AJUNOK_clean_linker_0, # of connection points: 2
#     Edge 13, Type (0, 0), BuildingBlock: AJUNOK_clean_linker_0, # of connection points: 2
#     Edge 14, Type (0, 0), BuildingBlock: AJUNOK_clean_linker_0, # of connection points: 2
#     Edge 15, Type (0, 0), BuildingBlock: AJUNOK_clean_linker_0, # of connection points: 2
#     Edge 16, Type (0, 0), BuildingBlock: AJUNOK_clean_linker_0, # of connection points: 2
#     Edge 17, Type (0, 0), BuildingBlock: AJUNOK_clean_linker_0, # of connection points: 2
#     Edge 18, Type (0, 0), BuildingBlock: AJUNOK_clean_linker_0, # of connection points: 2
#     Edge 19, Type (0, 0), BuildingBlock: AJUNOK_clean_linker_0, # of connection points: 2
# Relax obj value: 0.141
# Max RMSD: 0.250
# Mean RMSD: 0.250
data_MOF--net-tsi--node1-TAGTUT_clean_sbu_1--edge1-AJUNOK_clean_linker_0
_symmetry_space_group_name_H-M    P1
_symmetry_Int_Tables_number       1
_symmetry_cell_setting            triclinic
loop_
_symmetry_equiv_pos_as_xyz
'x, y, z'
_cell_length_a     11.35205
_cell_length_b     11.921976
_cell_length_c     55.615441
_cell_angle_alpha  93.664563
_cell_angle_beta   91.466251
_cell_angle_gamma 110.64693
loop_
_atom_site_label
_atom_site_type_symbol
_atom_site_fract_x
_atom_site_fract_y
_atom_site_fract_z
_atom_type_partial_charge
C0 C 0.01966 0.14872 0.4314 0.0
C1 C 0.95984 0.41935 0.40965 0.0
C2 C 0.72519 0.16711 0.32653 0.0
Mg3 Mg 0.16319 0.34351 0.39635 0.0
O4 O 0.04615 0.2315 0.37459 0.0
Mg5 Mg 0.86218 0.15385 0.38038 0.0
Mg6 Mg 0.03007 0.25533 0.33954 0.0
O7 O 0.01995 0.26335 0.30519 0.0
Mg8 Mg 0.8946 0.21117 0.28178 0.0
Mg9 Mg 0.18537 0.37694 0.29606 0.0
C10 C 0.32931 0.34174 0.3503 0.0
C11 C 0.08384 0.5413 0.3321 0.0
O12 O 0.92156 0.11371 0.41704 0.0
O13 O 0.12226 0.23252 0.42677 0.0
O14 O 0.86306 0.33338 0.40006 0.0
O15 O 0.05767 0.45877 0.39749 0.0
O16 O 0.32007 0.35137 0.3733 0.0
O17 O 0.23738 0.32992 0.33547 0.0
C18 C 0.95839 0.97267 0.3466 0.0
O19 O 0.02041 0.06213 0.33492 0.0
O20 O 0.88704 0.98288 0.36346 0.0
O21 O 0.08894 0.40846 0.25931 0.0
O22 O 0.9226 0.39428 0.27863 0.0
O23 O 0.19685 0.21311 0.27557 0.0
C24 C 0.97344 0.40204 0.25877 0.0
O25 O 0.01284 0.1598 0.25414 0.0
O26 O 0.73121 0.14697 0.30368 0.0
C27 C 0.13229 0.17771 0.2555 0.0
O28 O 0.82174 0.1932 0.34118 0.0
O29 O 0.03372 0.45196 0.34473 0.0
O30 O 0.14943 0.53321 0.31434 0.0
C31 C 0.18297 0.62489 0.67799 0.0
C32 C 0.96901 0.80374 0.67211 0.0
C33 C 0.73104 0.60041 0.59156 0.0
Mg34 Mg 0.20725 0.78283 0.64607 0.0
O35 O 0.08431 0.66072 0.62683 0.0
Mg36 Mg 0.92551 0.57755 0.6408 0.0
Mg37 Mg 0.03797 0.6643 0.59339 0.0
O38 O 0.00039 0.68332 0.5597 0.0
Mg39 Mg 0.85729 0.63397 0.53981 0.0
Mg40 Mg 0.17086 0.7693 0.54846 0.0
C41 C 0.33392 0.7751 0.59888 0.0
C42 C 0.11527 0.95203 0.58792 0.0
O43 O 0.06136 0.59603 0.67712 0.0
O44 O 0.23656 0.63188 0.65833 0.0
O45 O 0.91366 0.75396 0.65226 0.0
O46 O 0.08997 0.83733 0.67412 0.0
O47 O 0.31749 0.85087 0.61477 0.0
O48 O 0.24349 0.71292 0.58376 0.0
C49 C -0.00435 0.38759 0.60472 0.0
O50 O 0.02252 0.46675 0.58914 0.0
O51 O 0.95572 0.40748 0.62535 0.0
O52 O 0.09429 0.84052 0.51778 0.0
O53 O 0.88508 0.78617 0.5183 0.0
O54 O 0.1268 0.59282 0.52253 0.0
C55 C 0.99113 0.8493 0.51041 0.0
O56 O 0.91376 0.50943 0.5183 0.0
O57 O 0.72517 0.6069 0.5686 0.0
C58 C 0.02403 0.51448 0.5124 0.0
O59 O 0.83023 0.59723 0.60295 0.0
O60 O 0.05371 0.86208 0.59945 0.0
O61 O 0.18009 0.93979 0.57025 0.0
C62 C 0.46016 0.66769 0.92864 0.0
C63 C 0.43678 0.95522 0.90673 0.0
C64 C 0.21756 0.71518 0.82134 0.0
Mg65 Mg 0.63425 0.86258 0.89661 0.0
O66 O 0.5179 0.76459 0.87291 0.0
Mg67 Mg 0.33136 0.69418 0.87588 0.0
Mg68 Mg 0.51667 0.79663 0.83804 0.0
O69 O 0.51973 0.81073 0.8036 0.0
Mg70 Mg 0.4032 0.76824 0.77843 0.0
Mg71 Mg 0.68611 0.93302 0.79754 0.0
C72 C 0.80809 0.85913 0.85193 0.0
C73 C 0.56109 0.08147 0.83248 0.0
O74 O 0.36946 0.6438 0.91284 0.0
O75 O 0.57004 0.74547 0.92588 0.0
O76 O 0.33907 0.87608 0.89564 0.0
O77 O 0.5413 0.98862 0.89643 0.0
O78 O 0.7924 0.85753 0.87477 0.0
O79 O 0.72913 0.87713 0.83723 0.0
C80 C 0.43096 0.51159 0.84367 0.0
O81 O 0.50403 0.60173 0.83331 0.0
O82 O 0.35216 0.52308 0.85887 0.0
O83 O 0.6045 0.96936 0.75953 0.0
O84 O 0.42885 0.95177 0.77554 0.0
O85 O 0.71833 0.78363 0.77637 0.0
C86 C 0.48908 0.96159 0.75673 0.0
O87 O 0.53805 0.72016 0.75319 0.0
O88 O 0.23006 0.70613 0.79843 0.0
C89 C 0.65716 0.73698 0.7564 0.0
O90 O 0.31017 0.73696 0.83664 0.0
O91 O 0.51179 -0.01125 0.84414 0.0
O92 O 0.63365 0.0803 0.81554 0.0
C93 C 0.64268 0.17124 0.1752 0.0
C94 C 0.41087 0.33917 0.16899 0.0
C95 C 0.17052 0.13569 0.09046 0.0
Mg96 Mg 0.63483 0.33196 0.14003 0.0
O97 O 0.52825 0.18585 0.12395 0.0
Mg98 Mg 0.36994 0.1121 0.13869 0.0
Mg99 Mg 0.47484 0.19008 0.09096 0.0
O100 O 0.43198 0.21064 0.05761 0.0
Mg101 Mg 0.28747 0.15119 0.03793 0.0
Mg102 Mg 0.60076 0.30018 0.04604 0.0
C103 C 0.77358 0.31317 0.0952 0.0
C104 C 0.5435 0.47739 0.08621 0.0
O105 O 0.51948 0.1313 0.17359 0.0
O106 O 0.70675 0.22646 0.15842 0.0
O107 O 0.3591 0.29069 0.14889 0.0
O108 O 0.53129 0.38505 0.17025 0.0
O109 O 0.75683 0.39351 0.10989 0.0
O110 O 0.68259 0.24423 0.08075 0.0
C111 C 0.42421 0.91301 0.10242 0.0
O112 O 0.45459 -0.00975 0.08641 0.0
O113 O 0.38972 0.93872 0.1232 0.0
O114 O 0.516 0.36862 0.01584 0.0
O115 O 0.30548 0.29739 0.01544 0.0
O116 O 0.56149 0.12538 0.0202 0.0
C117 C 0.40921 0.36739 0.00793 0.0
O118 O 0.34981 0.02964 0.01646 0.0
O119 O 0.16025 0.13504 0.06737 0.0
C120 C 0.46169 0.04263 0.01016 0.0
O121 O 0.26798 0.1265 0.10144 0.0
O122 O 0.48817 0.3855 0.09766 0.0
O123 O 0.60632 0.46925 0.06796 0.0
C124 C 0.09574 0.51025 0.44731 0.0
C125 C 0.98181 0.42777 0.43644 0.0
C126 C 0.11838 0.52528 0.47243 0.0
C127 C 0.02758 0.45916 0.48787 0.0
H128 H 0.16645 0.56791 0.43642 0.0
H129 H 0.20258 0.59731 0.47976 0.0
S130 S 0.7252 0.21432 0.46885 0.0
N131 N 0.7846 0.26688 0.44334 0.0
N132 N 0.82918 0.29376 0.49042 0.0
C133 C 0.91939 0.36764 0.47722 0.0
C134 C 0.8952 0.35329 0.45163 0.0
C135 C 0.86436 0.81918 0.7367 0.0
C136 C 0.73692 0.73955 0.73526 0.0
C137 C 0.93869 0.84011 0.71644 0.0
C138 C 0.88959 0.7823 0.69372 0.0
H139 H 0.90683 0.86993 0.75352 0.0
H140 H 0.03469 0.90343 0.71857 0.0
S141 S 0.56737 0.5512 0.68085 0.0
N142 N 0.56953 0.59458 0.70969 0.0
N143 N 0.70739 0.63035 0.67166 0.0
C144 C 0.76392 0.69743 0.69229 0.0
C145 C 0.6883 0.67705 0.71297 0.0
C146 C 0.53243 0.6254 -0.03143 0.0
C147 C 0.43729 0.59821 0.95021 0.0
C148 C 0.51915 0.55297 -0.01222 0.0
C149 C 0.41017 0.45061 -0.01056 0.0
H150 H 0.61959 0.70118 -0.03218 0.0
H151 H 0.5968 0.57586 0.00114 0.0
S152 S 0.12731 0.34651 0.94755 0.0
N153 N 0.22475 0.46665 0.93602 0.0
N154 N 0.20139 0.33059 -0.02772 0.0
C155 C 0.31099 0.42613 -0.02791 0.0
C156 C 0.32424 0.49985 0.95241 0.0
C157 C 0.93356 0.30703 0.21617 0.0
C158 C 0.88594 0.33404 0.23787 0.0
C159 C 0.85269 0.23689 0.19711 0.0
C160 C 0.71948 0.19436 0.19833 0.0
H161 H 0.03403 0.34136 0.21372 0.0
H162 H 0.89527 0.22396 0.18044 0.0
S163 S 0.547 0.21587 0.25288 0.0
N164 N 0.69567 0.29465 0.26081 0.0
N165 N 0.5458 0.16653 0.22444 0.0
C166 C 0.67084 0.21195 0.22048 0.0
C167 C 0.7531 0.28224 0.24017 0.0
C168 C 0.38641 0.34972 0.21404 0.0
C169 C 0.33775 0.29783 0.19088 0.0
C170 C 0.3205 0.30775 0.23468 0.0
C171 C 0.20422 0.20994 0.23326 0.0
H172 H 0.47577 0.42388 0.21628 0.0
H173 H 0.36088 0.3543 0.25197 0.0
S174 S 0.03388 0.04143 0.17702 0.0
N175 N 0.16221 0.14293 0.16782 0.0
N176 N 0.04284 0.06358 0.20671 0.0
C177 C 0.15421 0.15723 0.21028 0.0
C178 C 0.21976 0.20098 0.18915 0.0
C179 C 0.20927 0.73515 0.71924 0.0
C180 C 0.26299 0.71042 0.69808 0.0
C181 C 0.28096 0.82318 0.73708 0.0
C182 C 0.41152 0.88881 0.73508 0.0
H183 H 0.11068 0.68692 0.72202 0.0
H184 H 0.23351 0.8362 0.75309 0.0
S185 S 0.59364 0.87688 0.68152 0.0
N186 N 0.45355 0.7732 0.67482 0.0
N187 N 0.58614 0.93419 0.70893 0.0
C188 C 0.46503 0.86977 0.71361 0.0
C189 C 0.39204 0.78137 0.69515 0.0
C190 C 0.5557 0.04394 0.94604 0.0
C191 C 0.44525 0.96364 0.93365 0.0
C192 C 0.56795 0.05717 -0.02872 0.0
C193 C 0.46965 -0.00848 -0.0146 0.0
H194 H 0.63237 0.10079 0.93618 0.0
H195 H 0.65125 0.12675 -0.02037 0.0
S196 S 0.17113 0.75149 0.96224 0.0
N197 N 0.24233 0.80507 0.93773 0.0
N198 N 0.26667 0.8288 -0.01484 0.0
C199 C 0.36361 0.90278 -0.02667 0.0
C200 C 0.3504 0.89001 0.94754 0.0
C201 C 0.89721 8e-05 0.45937 0.0
C202 C 0.01339 0.08465 0.45346 0.0
C203 C 0.88964 0.92724 0.4784 0.0
C204 C -0.00193 0.93557 0.49213 0.0
H205 H 0.81124 0.98739 0.44885 0.0
H206 H 0.79888 0.86112 0.48176 0.0
S207 S 0.32295 0.15316 0.48609 0.0
N208 N 0.23723 0.18057 0.46443 0.0
N209 N 0.22401 0.0432 0.50005 0.0
C210 C 0.11403 0.0242 0.48725 0.0
C211 C 0.12139 0.09904 0.46799 0.0
C212 C 0.98179 0.7874 0.36146 0.0
C213 C 0.98186 0.85892 0.34225 0.0
C214 C 0.01777 0.68633 0.3583 0.0
C215 C 0.05309 0.65209 0.33577 0.0
H216 H 0.95735 0.81161 0.37925 0.0
H217 H 0.01863 0.63522 0.37365 0.0
S218 S 0.06329 0.8071 0.2794 0.0
N219 N 0.01819 0.88777 0.29988 0.0
N220 N 0.08213 0.69686 0.29364 0.0
C221 C 0.05214 0.7226 0.31634 0.0
C222 C 0.01703 0.8259 0.31965 0.0
C223 C 0.40734 0.59906 0.59807 0.0
C224 C 0.43145 0.72215 0.60423 0.0
C225 C 0.50502 0.55254 0.59802 0.0
C226 C 0.63028 0.62697 0.60421 0.0
H227 H 0.31381 0.53951 0.5917 0.0
H228 H 0.48437 0.46082 0.59068 0.0
S229 S 0.74059 0.95172 0.62416 0.0
N230 N 0.58709 0.91394 0.61914 0.0
N231 N 0.77097 0.82727 0.61852 0.0
C232 C 0.65322 0.747 0.61269 0.0
C233 C 0.55372 0.79447 0.61278 0.0
C234 C 0.52407 0.37803 0.82147 0.0
C235 C 0.44984 0.39499 0.84012 0.0
C236 C 0.56123 0.27816 0.81966 0.0
C237 C 0.5232 0.18846 0.83613 0.0
H238 H 0.55489 0.44333 0.80819 0.0
H239 H 0.61972 0.27138 0.80496 0.0
S240 S 0.31425 0.18224 0.88673 0.0
N241 N 0.33178 0.30968 0.87465 0.0
N242 N 0.3965 0.11842 0.87047 0.0
C243 C 0.44294 0.20085 0.85416 0.0
C244 C 0.40695 0.30442 0.85629 0.0
C245 C 0.10285 0.30304 0.10375 0.0
C246 C 0.08009 0.17859 0.10321 0.0
C247 C 0.00307 0.34726 0.10294 0.0
C248 C 0.87696 0.26836 0.10139 0.0
H249 H 0.19784 0.36565 0.10208 0.0
H250 H 0.0248 0.44259 0.1015 0.0
S251 S 0.76979 0.93907 0.1067 0.0
N252 N 0.92444 0.98071 0.10595 0.0
N253 N 0.73633 0.06253 0.10489 0.0
C254 C 0.85386 0.14548 0.10388 0.0
C255 C 0.95563 0.10098 0.10473 0.0
C256 C 0.05576 0.09845 0.61488 0.0
C257 C 0.09443 0.06769 0.59239 0.0
C258 C 0.02198 0.2006 0.61856 0.0
C259 C 0.02438 0.27579 0.59984 0.0
H260 H 0.05038 0.04252 0.62973 0.0
H261 H -0.00596 0.22063 0.63633 0.0
S262 S 0.1157 0.23307 0.5372 0.0
N263 N 0.13182 0.12026 0.55093 0.0
N264 N 0.06793 0.31085 0.55781 0.0
C265 C 0.06327 0.24602 0.57724 0.0
C266 C 0.09857 0.14266 0.57355 0.0
C267 C 0.03115 0.87548 0.85447 0.0
C268 C 0.91161 0.82526 0.84277 0.0
C269 C 0.12759 0.83441 0.848 0.0
C270 C 0.10753 0.74041 0.82988 0.0
H271 H 0.05039 0.94737 0.86862 0.0
H272 H 0.22008 0.88027 0.85663 0.0
S273 S 0.80803 0.57136 0.79548 0.0
N274 N 0.77433 0.66942 0.8138 0.0
N275 N 0.95914 0.59643 0.80082 0.0
C276 C 0.98813 0.68848 0.81824 0.0
C277 C 0.88911 0.7296 0.82497 0.0
C278 C 0.53645 0.67308 0.07371 0.0
C279 C 0.51661 0.58965 0.09141 0.0
C280 C 0.50018 0.77372 0.07684 0.0
C281 C 0.44425 0.79667 0.098 0.0
H282 H 0.57882 0.66 0.05703 0.0
H283 H 0.51976 0.83576 0.0628 0.0
S284 S 0.36415 0.60205 0.14929 0.0
N285 N 0.4318 0.53421 0.13038 0.0
N286 N 0.3644 0.72307 0.13646 0.0
C287 C 0.42106 0.7124 0.11562 0.0
C288 C 0.45751 0.60953 0.11234 0.0
C289 C 0.50145 0.15321 0.32272 0.0
C290 C 0.62253 0.20783 0.33388 0.0
C291 C 0.40824 0.20304 0.32663 0.0
C292 C 0.43387 0.30915 0.34172 0.0
H293 H 0.47892 0.07188 0.31088 0.0
H294 H 0.31423 0.1554 0.31865 0.0
S295 S 0.73811 0.49684 0.37208 0.0
N296 N 0.76613 0.38337 0.35799 0.0
N297 N 0.58756 0.47149 0.36633 0.0
C298 C 0.5545 0.36655 0.35226 0.0
C299 C 0.64978 0.31726 0.34811 0.0
loop_
_geom_bond_atom_site_label_1
_geom_bond_atom_site_label_2
_geom_bond_distance
_geom_bond_site_symmetry_2
_ccdc_geom_bond_type
C0 O12 1.241 1_455 S
C0 O13 1.280 . S
C1 O14 1.277 . S
C1 O15 1.245 1_655 S
C2 O26 1.247 . S
C2 O28 1.289 . S
Mg3 O4 1.926 . S
Mg3 O13 1.984 . S
Mg3 O15 1.988 . S
Mg3 O16 2.061 . S
O4 Mg3 1.926 . S
O4 Mg5 1.986 1_455 S
O4 Mg6 1.917 . S
Mg5 O4 1.986 1_655 S
Mg5 O12 2.042 . S
Mg5 O14 2.041 . S
Mg5 O20 2.038 1_545 S
Mg5 O28 2.238 . S
Mg6 O4 1.917 . S
Mg6 O7 1.917 1_455 S
Mg6 O17 2.106 . S
Mg6 O19 2.079 . S
Mg6 O28 2.106 1_455 S
Mg6 O29 2.079 . S
O7 Mg6 1.917 1_655 S
O7 Mg8 1.926 . S
O7 Mg9 1.986 1_655 S
Mg8 O7 1.926 . S
Mg8 O22 1.984 . S
Mg8 O25 1.988 . S
Mg8 O26 2.061 . S
Mg9 O7 1.986 1_455 S
Mg9 O17 2.238 . S
Mg9 O21 2.042 . S
Mg9 O23 2.041 . S
Mg9 O30 2.038 . S
C10 O16 1.247 . S
C10 O17 1.289 . S
C11 O29 1.245 . S
C11 O30 1.274 . S
O12 C0 1.241 1_655 S
O12 Mg5 2.042 . S
O13 C0 1.280 . S
O13 Mg3 1.984 . S
O14 C1 1.277 . S
O14 Mg5 2.041 . S
O15 C1 1.245 1_455 S
O15 Mg3 1.988 . S
O16 Mg3 2.061 . S
O16 C10 1.247 . S
O17 Mg6 2.106 . S
O17 Mg9 2.238 . S
O17 C10 1.289 . S
C18 O19 1.245 1_665 S
C18 O20 1.274 . S
O19 Mg6 2.079 . S
O19 C18 1.245 1_445 S
O20 Mg5 2.038 1_565 S
O20 C18 1.274 . S
O21 Mg9 2.042 . S
O21 C24 1.241 1_455 S
O22 Mg8 1.984 . S
O22 C24 1.280 . S
O23 Mg9 2.041 . S
O23 C27 1.277 . S
C24 O21 1.241 1_655 S
C24 O22 1.280 . S
O25 Mg8 1.988 . S
O25 C27 1.245 1_655 S
O26 C2 1.247 . S
O26 Mg8 2.061 . S
C27 O23 1.277 . S
C27 O25 1.245 1_455 S
O28 C2 1.289 . S
O28 Mg5 2.238 . S
O28 Mg6 2.106 1_655 S
O29 Mg6 2.079 . S
O29 C11 1.245 . S
O30 Mg9 2.038 . S
O30 C11 1.274 . S
C31 O43 1.241 1_455 S
C31 O44 1.280 . S
C32 O45 1.277 . S
C32 O46 1.245 1_655 S
C33 O57 1.247 . S
C33 O59 1.289 . S
Mg34 O35 1.926 . S
Mg34 O44 1.984 . S
Mg34 O46 1.988 . S
Mg34 O47 2.061 . S
O35 Mg34 1.926 . S
O35 Mg36 1.986 1_455 S
O35 Mg37 1.917 . S
Mg36 O35 1.986 1_655 S
Mg36 O43 2.042 . S
Mg36 O45 2.041 . S
Mg36 O51 2.038 . S
Mg36 O59 2.238 . S
Mg37 O35 1.917 . S
Mg37 O38 1.917 1_455 S
Mg37 O48 2.106 . S
Mg37 O50 2.079 1_455 S
Mg37 O59 2.106 1_455 S
Mg37 O60 2.079 . S
O38 Mg37 1.917 1_655 S
O38 Mg39 1.926 . S
O38 Mg40 1.986 1_655 S
Mg39 O38 1.926 . S
Mg39 O53 1.984 . S
Mg39 O56 1.988 . S
Mg39 O57 2.061 . S
Mg40 O38 1.986 1_455 S
Mg40 O48 2.238 . S
Mg40 O52 2.042 . S
Mg40 O54 2.041 . S
Mg40 O61 2.038 1_565 S
C41 O47 1.247 . S
C41 O48 1.289 . S
C42 O60 1.245 1_545 S
C42 O61 1.274 . S
O43 C31 1.241 1_655 S
O43 Mg36 2.042 . S
O44 C31 1.280 . S
O44 Mg34 1.984 . S
O45 C32 1.277 . S
O45 Mg36 2.041 . S
O46 C32 1.245 1_455 S
O46 Mg34 1.988 . S
O47 Mg34 2.061 . S
O47 C41 1.247 . S
O48 Mg37 2.106 . S
O48 Mg40 2.238 . S
O48 C41 1.289 . S
C49 O50 1.245 . S
C49 O51 1.274 . S
O50 Mg37 2.079 1_655 S
O50 C49 1.245 . S
O51 Mg36 2.038 . S
O51 C49 1.274 . S
O52 Mg40 2.042 . S
O52 C55 1.241 1_455 S
O53 Mg39 1.984 . S
O53 C55 1.280 . S
O54 Mg40 2.041 . S
O54 C58 1.277 . S
C55 O52 1.241 1_655 S
C55 O53 1.280 . S
O56 Mg39 1.988 . S
O56 C58 1.245 1_655 S
O57 C33 1.247 . S
O57 Mg39 2.061 . S
C58 O54 1.277 . S
C58 O56 1.245 1_455 S
O59 C33 1.289 . S
O59 Mg36 2.238 . S
O59 Mg37 2.106 1_655 S
O60 Mg37 2.079 . S
O60 C42 1.245 1_565 S
O61 Mg40 2.038 1_545 S
O61 C42 1.274 . S
C62 O74 1.241 . S
C62 O75 1.280 . S
C63 O76 1.277 . S
C63 O77 1.245 . S
C64 O88 1.247 . S
C64 O90 1.289 . S
Mg65 O66 1.926 . S
Mg65 O75 1.984 . S
Mg65 O77 1.988 . S
Mg65 O78 2.061 . S
O66 Mg65 1.926 . S
O66 Mg67 1.986 . S
O66 Mg68 1.917 . S
Mg67 O66 1.986 . S
Mg67 O74 2.042 . S
Mg67 O76 2.041 . S
Mg67 O82 2.038 . S
Mg67 O90 2.238 . S
Mg68 O66 1.917 . S
Mg68 O69 1.917 . S
Mg68 O79 2.106 . S
Mg68 O81 2.079 . S
Mg68 O90 2.106 . S
Mg68 O91 2.079 . S
O69 Mg68 1.917 . S
O69 Mg70 1.926 . S
O69 Mg71 1.986 . S
Mg70 O69 1.926 . S
Mg70 O84 1.984 . S
Mg70 O87 1.988 . S
Mg70 O88 2.061 . S
Mg71 O69 1.986 . S
Mg71 O79 2.238 . S
Mg71 O83 2.042 . S
Mg71 O85 2.041 . S
Mg71 O92 2.038 1_565 S
C72 O78 1.247 . S
C72 O79 1.289 . S
C73 O91 1.245 1_545 S
C73 O92 1.274 . S
O74 C62 1.241 . S
O74 Mg67 2.042 . S
O75 C62 1.280 . S
O75 Mg65 1.984 . S
O76 C63 1.277 . S
O76 Mg67 2.041 . S
O77 C63 1.245 . S
O77 Mg65 1.988 . S
O78 Mg65 2.061 . S
O78 C72 1.247 . S
O79 Mg68 2.106 . S
O79 Mg71 2.238 . S
O79 C72 1.289 . S
C80 O81 1.245 . S
C80 O82 1.274 . S
O81 Mg68 2.079 . S
O81 C80 1.245 . S
O82 Mg67 2.038 . S
O82 C80 1.274 . S
O83 Mg71 2.042 . S
O83 C86 1.241 . S
O84 Mg70 1.984 . S
O84 C86 1.280 . S
O85 Mg71 2.041 . S
O85 C89 1.277 . S
C86 O83 1.241 . S
C86 O84 1.280 . S
O87 Mg70 1.988 . S
O87 C89 1.245 . S
O88 C64 1.247 . S
O88 Mg70 2.061 . S
C89 O85 1.277 . S
C89 O87 1.245 . S
O90 C64 1.289 . S
O90 Mg67 2.238 . S
O90 Mg68 2.106 . S
O91 Mg68 2.079 . S
O91 C73 1.245 1_565 S
O92 Mg71 2.038 1_545 S
O92 C73 1.274 . S
C93 O105 1.241 . S
C93 O106 1.280 . S
C94 O107 1.277 . S
C94 O108 1.245 . S
C95 O119 1.247 . S
C95 O121 1.289 . S
Mg96 O97 1.926 . S
Mg96 O106 1.984 . S
Mg96 O108 1.988 . S
Mg96 O109 2.061 . S
O97 Mg96 1.926 . S
O97 Mg98 1.986 . S
O97 Mg99 1.917 . S
Mg98 O97 1.986 . S
Mg98 O105 2.042 . S
Mg98 O107 2.041 . S
Mg98 O113 2.038 1_545 S
Mg98 O121 2.238 . S
Mg99 O97 1.917 . S
Mg99 O100 1.917 . S
Mg99 O110 2.106 . S
Mg99 O112 2.079 . S
Mg99 O121 2.106 . S
Mg99 O122 2.079 . S
O100 Mg99 1.917 . S
O100 Mg101 1.926 . S
O100 Mg102 1.986 . S
Mg101 O100 1.926 . S
Mg101 O115 1.984 . S
Mg101 O118 1.988 . S
Mg101 O119 2.061 . S
Mg102 O100 1.986 . S
Mg102 O110 2.238 . S
Mg102 O114 2.042 . S
Mg102 O116 2.041 . S
Mg102 O123 2.038 . S
C103 O109 1.247 . S
C103 O110 1.289 . S
C104 O122 1.245 . S
C104 O123 1.274 . S
O105 C93 1.241 . S
O105 Mg98 2.042 . S
O106 C93 1.280 . S
O106 Mg96 1.984 . S
O107 C94 1.277 . S
O107 Mg98 2.041 . S
O108 C94 1.245 . S
O108 Mg96 1.988 . S
O109 Mg96 2.061 . S
O109 C103 1.247 . S
O110 Mg99 2.106 . S
O110 Mg102 2.238 . S
O110 C103 1.289 . S
C111 O112 1.245 1_565 S
C111 O113 1.274 . S
O112 Mg99 2.079 . S
O112 C111 1.245 1_545 S
O113 Mg98 2.038 1_565 S
O113 C111 1.274 . S
O114 Mg102 2.042 . S
O114 C117 1.241 . S
O115 Mg101 1.984 . S
O115 C117 1.280 . S
O116 Mg102 2.041 . S
O116 C120 1.277 . S
C117 O114 1.241 . S
C117 O115 1.280 . S
O118 Mg101 1.988 . S
O118 C120 1.245 . S
O119 C95 1.247 . S
O119 Mg101 2.061 . S
C120 O116 1.277 . S
C120 O118 1.245 . S
O121 C95 1.289 . S
O121 Mg98 2.238 . S
O121 Mg99 2.106 . S
O122 Mg99 2.079 . S
O122 C104 1.245 . S
O123 Mg102 2.038 . S
O123 C104 1.274 . S
C124 C125 1.369 . S
C124 C126 1.419 1_655 S
C124 H128 0.930 . S
C125 C124 1.369 . S
C125 C134 1.429 1_655 S
C126 C124 1.419 1_455 S
C126 C127 1.363 . S
C126 H129 0.929 . S
C127 C126 1.363 . S
C127 C133 1.428 . S
H128 C124 0.930 . S
H129 C126 0.929 . S
S130 N131 1.613 . S
S130 N132 1.610 . S
N131 S130 1.613 . S
N131 C134 1.350 . S
N132 S130 1.610 . S
N132 C133 1.351 . S
C133 C127 1.428 . S
C133 N132 1.351 . S
C133 C134 1.434 . S
C134 C125 1.429 1_455 S
C134 N131 1.350 . S
C134 C133 1.434 . S
C135 C136 1.369 . S
C135 C137 1.419 . S
C135 H139 0.930 . S
C136 C135 1.369 . S
C136 C145 1.429 . S
C137 C135 1.419 . S
C137 C138 1.363 . S
C137 H140 0.929 . S
C138 C137 1.363 . S
C138 C144 1.428 . S
H139 C135 0.930 . S
H140 C137 0.929 . S
S141 N142 1.613 . S
S141 N143 1.610 . S
N142 S141 1.613 . S
N142 C145 1.350 . S
N143 S141 1.610 . S
N143 C144 1.351 . S
C144 C138 1.428 . S
C144 N143 1.351 . S
C144 C145 1.434 . S
C145 C136 1.429 . S
C145 N142 1.350 . S
C145 C144 1.434 . S
C146 C147 1.392 . S
C146 C148 1.395 1_556 S
C146 H150 0.931 . S
C147 C146 1.392 . S
C147 C156 1.429 . S
C148 C146 1.395 1_554 S
C148 C149 1.363 . S
C148 H151 0.929 . S
C149 C148 1.363 . S
C149 C155 1.432 1_554 S
H150 C146 0.931 . S
H151 C148 0.929 . S
S152 N153 1.613 . S
S152 N154 1.610 . S
N153 S152 1.613 . S
N153 C156 1.350 . S
N154 S152 1.610 . S
N154 C155 1.351 . S
C155 C149 1.432 1_556 S
C155 N154 1.351 . S
C155 C156 1.430 . S
C156 C147 1.429 . S
C156 N153 1.350 . S
C156 C155 1.430 . S
C157 C158 1.369 . S
C157 C159 1.419 . S
C157 H161 0.930 . S
C158 C157 1.369 . S
C158 C167 1.429 . S
C159 C157 1.419 . S
C159 C160 1.363 . S
C159 H162 0.929 . S
C160 C159 1.363 . S
C160 C166 1.428 . S
H161 C157 0.930 . S
H162 C159 0.929 . S
S163 N164 1.613 . S
S163 N165 1.610 . S
N164 S163 1.613 . S
N164 C167 1.350 . S
N165 S163 1.610 . S
N165 C166 1.351 . S
C166 C160 1.428 . S
C166 N165 1.351 . S
C166 C167 1.434 . S
C167 C158 1.429 . S
C167 N164 1.350 . S
C167 C166 1.434 . S
C168 C169 1.369 . S
C168 C170 1.419 . S
C168 H172 0.930 . S
C169 C168 1.369 . S
C169 C178 1.429 . S
C170 C168 1.419 . S
C170 C171 1.363 . S
C170 H173 0.929 . S
C171 C170 1.363 . S
C171 C177 1.428 . S
H172 C168 0.930 . S
H173 C170 0.929 . S
S174 N175 1.613 1_655 S
S174 N176 1.610 1_655 S
N175 S174 1.613 1_455 S
N175 C178 1.350 . S
N176 S174 1.610 1_455 S
N176 C177 1.351 . S
C177 C171 1.428 . S
C177 N176 1.351 . S
C177 C178 1.434 . S
C178 C169 1.429 . S
C178 N175 1.350 . S
C178 C177 1.434 . S
C179 C180 1.369 . S
C179 C181 1.419 . S
C179 H183 0.930 . S
C180 C179 1.369 . S
C180 C189 1.429 . S
C181 C179 1.419 . S
C181 C182 1.363 . S
C181 H184 0.929 . S
C182 C181 1.363 . S
C182 C188 1.428 . S
H183 C179 0.930 . S
H184 C181 0.929 . S
S185 N186 1.613 . S
S185 N187 1.610 . S
N186 S185 1.613 . S
N186 C189 1.350 . S
N187 S185 1.610 . S
N187 C188 1.351 . S
C188 C182 1.428 . S
C188 N187 1.351 . S
C188 C189 1.434 . S
C189 C180 1.429 . S
C189 N186 1.350 . S
C189 C188 1.434 . S
C190 C191 1.369 . S
C190 C192 1.419 1_556 S
C190 H194 0.930 . S
C191 C190 1.369 . S
C191 C200 1.429 1_565 S
C192 C190 1.419 1_554 S
C192 C193 1.363 1_565 S
C192 H195 0.929 . S
C193 C192 1.363 1_545 S
C193 C199 1.428 . S
H194 C190 0.930 . S
H195 C192 0.929 . S
S196 N197 1.613 1_554 S
S196 N198 1.610 . S
N197 S196 1.613 1_556 S
N197 C200 1.350 . S
N198 S196 1.610 . S
N198 C199 1.351 . S
C199 C193 1.428 . S
C199 N198 1.351 . S
C199 C200 1.434 1_554 S
C200 C191 1.429 1_545 S
C200 N197 1.350 . S
C200 C199 1.434 1_556 S
C201 C202 1.369 1_665 S
C201 C203 1.419 . S
C201 H205 0.930 . S
C202 C201 1.369 1_445 S
C202 C211 1.429 . S
C203 C201 1.419 . S
C203 C204 1.363 . S
C203 H206 0.929 . S
C204 C203 1.363 . S
C204 C210 1.428 1_665 S
H205 C201 0.930 . S
H206 C203 0.929 . S
S207 N208 1.613 . S
S207 N209 1.610 . S
N208 S207 1.613 . S
N208 C211 1.350 . S
N209 S207 1.610 . S
N209 C210 1.351 . S
C210 C204 1.428 1_445 S
C210 N209 1.351 . S
C210 C211 1.434 . S
C211 C202 1.429 . S
C211 N208 1.350 . S
C211 C210 1.434 . S
C212 C213 1.369 . S
C212 C214 1.419 . S
C212 H216 0.930 . S
C213 C212 1.369 . S
C213 C222 1.429 1_655 S
C214 C212 1.419 . S
C214 C215 1.363 1_655 S
C214 H217 0.929 . S
C215 C214 1.363 1_455 S
C215 C221 1.428 . S
H216 C212 0.930 . S
H217 C214 0.929 . S
S218 N219 1.613 . S
S218 N220 1.610 . S
N219 S218 1.613 . S
N219 C222 1.350 . S
N220 S218 1.610 . S
N220 C221 1.351 . S
C221 C215 1.428 . S
C221 N220 1.351 . S
C221 C222 1.434 . S
C222 C213 1.429 1_455 S
C222 N219 1.350 . S
C222 C221 1.434 . S
C223 C224 1.369 . S
C223 C225 1.419 . S
C223 H227 0.930 . S
C224 C223 1.369 . S
C224 C233 1.429 . S
C225 C223 1.419 . S
C225 C226 1.363 . S
C225 H228 0.929 . S
C226 C225 1.363 . S
C226 C232 1.428 . S
H227 C223 0.930 . S
H228 C225 0.929 . S
S229 N230 1.613 1_545 S
S229 N231 1.610 1_545 S
N230 S229 1.613 1_565 S
N230 C233 1.350 . S
N231 S229 1.610 1_565 S
N231 C232 1.351 . S
C232 C226 1.428 . S
C232 N231 1.351 . S
C232 C233 1.434 . S
C233 C224 1.429 . S
C233 N230 1.350 . S
C233 C232 1.434 . S
C234 C235 1.369 . S
C234 C236 1.419 . S
C234 H238 0.930 . S
C235 C234 1.369 . S
C235 C244 1.429 . S
C236 C234 1.419 . S
C236 C237 1.363 . S
C236 H239 0.929 . S
C237 C236 1.363 . S
C237 C243 1.428 . S
H238 C234 0.930 . S
H239 C236 0.929 . S
S240 N241 1.613 . S
S240 N242 1.610 . S
N241 S240 1.613 . S
N241 C244 1.350 . S
N242 S240 1.610 . S
N242 C243 1.351 . S
C243 C237 1.428 . S
C243 N242 1.351 . S
C243 C244 1.434 . S
C244 C235 1.429 . S
C244 N241 1.350 . S
C244 C243 1.434 . S
C245 C246 1.369 . S
C245 C247 1.419 . S
C245 H249 0.930 . S
C246 C245 1.369 . S
C246 C255 1.429 1_455 S
C247 C245 1.419 . S
C247 C248 1.363 1_455 S
C247 H250 0.929 . S
C248 C247 1.363 1_655 S
C248 C254 1.428 . S
H249 C245 0.930 . S
H250 C247 0.929 . S
S251 N252 1.613 . S
S251 N253 1.610 . S
N252 S251 1.613 . S
N252 C255 1.350 . S
N253 S251 1.610 . S
N253 C254 1.351 . S
C254 C248 1.428 . S
C254 N253 1.351 . S
C254 C255 1.434 . S
C255 C246 1.429 1_655 S
C255 N252 1.350 . S
C255 C254 1.434 . S
C256 C257 1.369 1_655 S
C256 C258 1.419 . S
C256 H260 0.930 . S
C257 C256 1.369 1_455 S
C257 C266 1.429 . S
C258 C256 1.419 . S
C258 C259 1.363 . S
C258 H261 0.929 . S
C259 C258 1.363 . S
C259 C265 1.428 1_655 S
H260 C256 0.930 . S
H261 C258 0.929 . S
S262 N263 1.613 . S
S262 N264 1.610 . S
N263 S262 1.613 . S
N263 C266 1.350 . S
N264 S262 1.610 . S
N264 C265 1.351 . S
C265 C259 1.428 1_455 S
C265 N264 1.351 . S
C265 C266 1.434 . S
C266 C257 1.429 . S
C266 N263 1.350 . S
C266 C265 1.434 . S
C267 C268 1.369 . S
C267 C269 1.419 1_655 S
C267 H271 0.930 . S
C268 C267 1.369 . S
C268 C277 1.429 . S
C269 C267 1.419 1_455 S
C269 C270 1.363 . S
C269 H272 0.929 . S
C270 C269 1.363 . S
C270 C276 1.428 . S
H271 C267 0.930 . S
H272 C269 0.929 . S
S273 N274 1.613 . S
S273 N275 1.610 1_655 S
N274 S273 1.613 . S
N274 C277 1.350 . S
N275 S273 1.610 1_455 S
N275 C276 1.351 . S
C276 C270 1.428 . S
C276 N275 1.351 . S
C276 C277 1.434 1_455 S
C277 C268 1.429 . S
C277 N274 1.350 . S
C277 C276 1.434 1_655 S
C278 C279 1.369 . S
C278 C280 1.419 . S
C278 H282 0.930 . S
C279 C278 1.369 . S
C279 C288 1.429 . S
C280 C278 1.419 . S
C280 C281 1.363 . S
C280 H283 0.929 . S
C281 C280 1.363 . S
C281 C287 1.428 . S
H282 C278 0.930 . S
H283 C280 0.929 . S
S284 N285 1.613 . S
S284 N286 1.610 . S
N285 S284 1.613 . S
N285 C288 1.350 . S
N286 S284 1.610 . S
N286 C287 1.351 . S
C287 C281 1.428 . S
C287 N286 1.351 . S
C287 C288 1.434 . S
C288 C279 1.429 . S
C288 N285 1.350 . S
C288 C287 1.434 . S
C289 C290 1.369 . S
C289 C291 1.419 . S
C289 H293 0.930 . S
C290 C289 1.369 . S
C290 C299 1.429 . S
C291 C289 1.419 . S
C291 C292 1.363 . S
C291 H294 0.929 . S
C292 C291 1.363 . S
C292 C298 1.428 . S
H293 C289 0.930 . S
H294 C291 0.929 . S
S295 N296 1.613 . S
S295 N297 1.610 . S
N296 S295 1.613 . S
N296 C299 1.350 . S
N297 S295 1.610 . S
N297 C298 1.351 . S
C298 C292 1.428 . S
C298 N297 1.351 . S
C298 C299 1.434 . S
C299 C290 1.429 . S
C299 N296 1.350 . S
C299 C298 1.434 . S
C125 C1 1.343 . S
C127 C58 1.351 . S
C136 C89 1.952 . S
C138 C32 1.945 . S
C147 C62 1.322 . S
C149 C117 1.336 . S
C158 C24 1.590 . S
C160 C93 1.586 . S
C169 C94 1.953 . S
C171 C27 1.946 . S
C180 C31 1.583 . S
C182 C86 1.593 . S
C191 C63 1.355 . S
C193 C120 1.341 . S
C202 C0 1.335 . S
C204 C55 1.328 . S
C213 C18 1.733 . S
C215 C11 1.729 . S
C224 C41 1.535 . S
C226 C33 1.532 . S
C235 C80 1.728 . S
C237 C73 1.732 . S
C246 C95 1.536 . S
C248 C103 1.531 . S
C257 C42 1.731 . S
C259 C49 1.731 . S
C268 C72 1.535 . S
C270 C64 1.532 . S
C279 C104 1.733 . S
C281 C111 1.729 . S
C290 C2 1.537 . S
C292 C10 1.531 . S
