# Generated by pormake.
# Topology ukb, (4)-cn, num edge types: 1
# Building blocks:
#     Node 0, Type 0, BuildingBlock: QUQFOY_clean_sbu_1, # of connection points: 4
#     Node 1, Type 0, BuildingBlock: QUQFOY_clean_sbu_1, # of connection points: 4
#     Node 2, Type 0, BuildingBlock: QUQFOY_clean_sbu_1, # of connection points: 4
#     Node 3, Type 0, BuildingBlock: QUQFOY_clean_sbu_1, # of connection points: 4
#     Node 4, Type 0, BuildingBlock: QUQFOY_clean_sbu_1, # of connection points: 4
#     Node 5, Type 0, BuildingBlock: QUQFOY_clean_sbu_1, # of connection points: 4
#     Node 6, Type 0, BuildingBlock: QUQFOY_clean_sbu_1, # of connection points: 4
#     Node 7, Type 0, BuildingBlock: QUQFOY_clean_sbu_1, # of connection points: 4
#     Node 8, Type 0, BuildingBlock: QUQFOY_clean_sbu_1, # of connection points: 4
#     Node 9, Type 0, BuildingBlock: QUQFOY_clean_sbu_1, # of connection points: 4
#     Node 10, Type 0, BuildingBlock: QUQFOY_clean_sbu_1, # of connection points: 4
#     Node 11, Type 0, BuildingBlock: QUQFOY_clean_sbu_1, # of connection points: 4
#     Node 12, Type 0, BuildingBlock: QUQFOY_clean_sbu_1, # of connection points: 4
#     Node 13, Type 0, BuildingBlock: QUQFOY_clean_sbu_1, # of connection points: 4
#     Node 14, Type 0, BuildingBlock: QUQFOY_clean_sbu_1, # of connection points: 4
#     Node 15, Type 0, BuildingBlock: QUQFOY_clean_sbu_1, # of connection points: 4
#     Edge 16, Type (0, 0), BuildingBlock: KIFKEQ_clean_linker_1, # of connection points: 2
#     Edge 17, Type (0, 0), BuildingBlock: KIFKEQ_clean_linker_1, # of connection points: 2
#     Edge 18, Type (0, 0), BuildingBlock: KIFKEQ_clean_linker_1, # of connection points: 2
#     Edge 19, Type (0, 0), BuildingBlock: KIFKEQ_clean_linker_1, # of connection points: 2
#     Edge 20, Type (0, 0), BuildingBlock: KIFKEQ_clean_linker_1, # of connection points: 2
#     Edge 21, Type (0, 0), BuildingBlock: KIFKEQ_clean_linker_1, # of connection points: 2
#     Edge 22, Type (0, 0), BuildingBlock: KIFKEQ_clean_linker_1, # of connection points: 2
#     Edge 23, Type (0, 0), BuildingBlock: KIFKEQ_clean_linker_1, # of connection points: 2
#     Edge 24, Type (0, 0), BuildingBlock: KIFKEQ_clean_linker_1, # of connection points: 2
#     Edge 25, Type (0, 0), BuildingBlock: KIFKEQ_clean_linker_1, # of connection points: 2
#     Edge 26, Type (0, 0), BuildingBlock: KIFKEQ_clean_linker_1, # of connection points: 2
#     Edge 27, Type (0, 0), BuildingBlock: KIFKEQ_clean_linker_1, # of connection points: 2
#     Edge 28, Type (0, 0), BuildingBlock: KIFKEQ_clean_linker_1, # of connection points: 2
#     Edge 29, Type (0, 0), BuildingBlock: KIFKEQ_clean_linker_1, # of connection points: 2
#     Edge 30, Type (0, 0), BuildingBlock: KIFKEQ_clean_linker_1, # of connection points: 2
#     Edge 31, Type (0, 0), BuildingBlock: KIFKEQ_clean_linker_1, # of connection points: 2
#     Edge 32, Type (0, 0), BuildingBlock: KIFKEQ_clean_linker_1, # of connection points: 2
#     Edge 33, Type (0, 0), BuildingBlock: KIFKEQ_clean_linker_1, # of connection points: 2
#     Edge 34, Type (0, 0), BuildingBlock: KIFKEQ_clean_linker_1, # of connection points: 2
#     Edge 35, Type (0, 0), BuildingBlock: KIFKEQ_clean_linker_1, # of connection points: 2
#     Edge 36, Type (0, 0), BuildingBlock: KIFKEQ_clean_linker_1, # of connection points: 2
#     Edge 37, Type (0, 0), BuildingBlock: KIFKEQ_clean_linker_1, # of connection points: 2
#     Edge 38, Type (0, 0), BuildingBlock: KIFKEQ_clean_linker_1, # of connection points: 2
#     Edge 39, Type (0, 0), BuildingBlock: KIFKEQ_clean_linker_1, # of connection points: 2
#     Edge 40, Type (0, 0), BuildingBlock: KIFKEQ_clean_linker_1, # of connection points: 2
#     Edge 41, Type (0, 0), BuildingBlock: KIFKEQ_clean_linker_1, # of connection points: 2
#     Edge 42, Type (0, 0), BuildingBlock: KIFKEQ_clean_linker_1, # of connection points: 2
#     Edge 43, Type (0, 0), BuildingBlock: KIFKEQ_clean_linker_1, # of connection points: 2
#     Edge 44, Type (0, 0), BuildingBlock: KIFKEQ_clean_linker_1, # of connection points: 2
#     Edge 45, Type (0, 0), BuildingBlock: KIFKEQ_clean_linker_1, # of connection points: 2
#     Edge 46, Type (0, 0), BuildingBlock: KIFKEQ_clean_linker_1, # of connection points: 2
#     Edge 47, Type (0, 0), BuildingBlock: KIFKEQ_clean_linker_1, # of connection points: 2
# Relax obj value: 0.039
# Max RMSD: 0.067
# Mean RMSD: 0.067
data_MOF--net-ukb--node1-QUQFOY_clean_sbu_1--edge1-KIFKEQ_clean_linker_1
_symmetry_space_group_name_H-M    P1
_symmetry_Int_Tables_number       1
_symmetry_cell_setting            triclinic
loop_
_symmetry_equiv_pos_as_xyz
'x, y, z'
_cell_length_a     46.458187
_cell_length_b     46.39931
_cell_length_c     43.264894
_cell_angle_alpha  90.001616
_cell_angle_beta   90.007975
_cell_angle_gamma 89.904028
loop_
_atom_site_label
_atom_site_type_symbol
_atom_site_fract_x
_atom_site_fract_y
_atom_site_fract_z
_atom_type_partial_charge
O0 O 0.5615 0.24416 0.19808 0.0
Cd1 Cd 0.5579 0.2074 0.17159 0.0
Cd2 Cd 0.52605 0.19251 0.22726 0.0
O3 O 0.53456 0.23492 0.23895 0.0
O4 O 0.57907 0.22023 0.13386 0.0
O5 O 0.53315 0.20865 0.13275 0.0
C6 C 0.55556 0.21812 0.11836 0.0
C7 C 0.48085 0.17193 0.23624 0.0
C8 C 0.55072 0.25189 0.22378 0.0
C9 C 0.57941 0.15776 0.21088 0.0
O10 O 0.5598 0.16381 0.23034 0.0
O11 O 0.5813 0.17151 0.1855 0.0
O12 O 0.49777 0.17867 0.2587 0.0
O13 O 0.48906 0.17802 0.20846 0.0
O14 O 0.33789 0.56587 0.73519 0.0
Cd15 Cd 0.31038 0.53151 0.72985 0.0
Cd16 Cd 0.29774 0.56306 0.67444 0.0
O17 O 0.3344 0.5851 0.68857 0.0
O18 O 0.3241 0.5019 0.76001 0.0
O19 O 0.32606 0.49576 0.70936 0.0
C20 C 0.3317 0.48625 0.73678 0.0
C21 C 0.28747 0.56058 0.62111 0.0
C22 C 0.34592 0.58432 0.71527 0.0
C23 C 0.25179 0.55662 0.72534 0.0
O24 O 0.26069 0.56814 0.70045 0.0
O25 O 0.2677 0.53919 0.74026 0.0
O26 O 0.28603 0.58436 0.63632 0.0
O27 O 0.29603 0.53796 0.63587 0.0
O28 O 0.94431 0.26293 0.19643 0.0
Cd29 Cd 0.94774 0.3 0.17023 0.0
Cd30 Cd 0.9778 0.3164 0.22626 0.0
O31 O 0.96827 0.2745 0.23887 0.0
O32 O 0.92835 0.28832 0.13096 0.0
O33 O 0.9746 0.2987 0.13312 0.0
C34 C 0.95275 0.29026 0.11709 0.0
C35 C 0.0232 0.3365 0.2353 0.0
C36 C 0.9538 0.25649 0.22311 0.0
C37 C 0.92481 0.35037 0.20818 0.0
O38 O 0.94445 0.34545 0.22794 0.0
O39 O 0.92324 0.33556 0.18345 0.0
O40 O 0.00593 0.33055 0.25771 0.0
O41 O 0.01521 0.32987 0.20758 0.0
O42 O 0.16619 0.94239 0.73317 0.0
Cd43 Cd 0.19423 0.97584 0.72405 0.0
Cd44 Cd 0.20209 0.94254 0.67224 0.0
O45 O 0.16306 0.92512 0.68582 0.0
O46 O 0.18318 0.00654 0.75421 0.0
O47 O 0.17782 0.01135 0.70369 0.0
C48 C 0.17414 0.02165 0.73117 0.0
C49 C 0.21257 0.94841 0.61941 0.0
C50 C 0.15448 0.92554 0.71372 0.0
C51 C 0.24939 0.94503 0.72047 0.0
O52 O 0.2374 0.93107 0.6987 0.0
O53 O 0.23734 0.96731 0.73169 0.0
O54 O 0.20998 0.92332 0.63178 0.0
O55 O 0.20821 0.9706 0.63683 0.0
O56 O 0.56252 0.2629 0.81632 0.0
Cd57 Cd 0.55892 0.29926 0.84344 0.0
Cd58 Cd 0.52717 0.3152 0.78819 0.0
O59 O 0.53583 0.27302 0.77547 0.0
O60 O 0.57978 0.2857 0.8811 0.0
O61 O 0.53394 0.29777 0.88208 0.0
C62 C 0.5562 0.28789 0.89648 0.0
C63 C 0.48185 0.33607 0.78014 0.0
C64 C 0.55191 0.2557 0.79037 0.0
C65 C 0.58063 0.34938 0.80517 0.0
O66 O 0.56087 0.3439 0.78571 0.0
O67 O 0.58262 0.33508 0.8302 0.0
O68 O 0.4986 0.32981 0.75737 0.0
O69 O 0.49028 0.3293 0.80768 0.0
O70 O 0.16647 0.5643 0.2861 0.0
Cd71 Cd 0.19445 0.53005 0.29056 0.0
Cd72 Cd 0.20946 0.56308 0.34513 0.0
O73 O 0.17416 0.58691 0.33032 0.0
O74 O 0.18044 0.50112 0.25985 0.0
O75 O 0.17915 0.49378 0.31032 0.0
C76 C 0.17324 0.4849 0.28274 0.0
C77 C 0.21966 0.56086 0.39847 0.0
C78 C 0.16062 0.58459 0.30485 0.0
C79 C 0.25415 0.55381 0.29367 0.0
O80 O 0.24643 0.56555 0.31889 0.0
O81 O 0.23704 0.5374 0.279 0.0
O82 O 0.22238 0.58427 0.38284 0.0
O83 O 0.20983 0.53854 0.38414 0.0
O84 O 0.94103 0.24005 0.81987 0.0
Cd85 Cd 0.9473 0.20324 0.84577 0.0
Cd86 Cd 0.9786 0.18955 0.79042 0.0
O87 O 0.96901 0.23197 0.77948 0.0
O88 O 0.92804 0.21349 0.88559 0.0
O89 O 0.97478 0.2058 0.88226 0.0
C90 C 0.9528 0.21288 0.89887 0.0
C91 C 0.02418 0.16982 0.78082 0.0
C92 C 0.95189 0.24827 0.79439 0.0
C93 C 0.92634 0.15353 0.80666 0.0
O94 O 0.94544 0.1603 0.78693 0.0
O95 O 0.92468 0.1668 0.83234 0.0
O96 O 0.007 0.17661 0.75859 0.0
O97 O 0.01602 0.17546 0.80874 0.0
O98 O 0.34108 0.94276 0.28826 0.0
Cd99 Cd 0.3126 0.97648 0.29353 0.0
Cd100 Cd 0.29904 0.94371 0.34773 0.0
O101 O 0.33502 0.92084 0.33311 0.0
O102 O 0.32552 0.00567 0.26257 0.0
O103 O 0.32764 0.01299 0.31301 0.0
C104 C 0.33291 0.02199 0.28531 0.0
C105 C 0.28996 0.94842 0.40106 0.0
C106 C 0.34787 0.92296 0.30723 0.0
C107 C 0.25359 0.9509 0.29719 0.0
O108 O 0.26192 0.93888 0.32205 0.0
O109 O 0.26997 0.9683 0.28285 0.0
O110 O 0.28874 0.9239 0.38725 0.0
O111 O 0.29743 0.97055 0.38485 0.0
O112 O 0.4439 0.84393 0.78656 0.0
Cd113 Cd 0.47818 0.8159 0.78736 0.0
Cd114 Cd 0.44954 0.79671 0.84338 0.0
O115 O 0.42266 0.83035 0.82992 0.0
O116 O 0.50572 0.83129 0.75602 0.0
O117 O 0.51538 0.82992 0.80606 0.0
C118 C 0.52305 0.83714 0.77841 0.0
C119 C 0.4538 0.78725 0.89673 0.0
C120 C 0.42361 0.8464 0.80607 0.0
C121 C 0.45711 0.75464 0.78964 0.0
O122 O 0.4484 0.75973 0.81695 0.0
O123 O 0.46971 0.77397 0.77382 0.0
O124 O 0.42998 0.78373 0.8821 0.0
O125 O 0.4755 0.79695 0.88133 0.0
O126 O 0.66241 0.44272 0.2851 0.0
Cd127 Cd 0.6914 0.47621 0.2875 0.0
Cd128 Cd 0.7075 0.44373 0.34268 0.0
O129 O 0.67155 0.42037 0.32919 0.0
O130 O 0.67724 0.50474 0.25639 0.0
O131 O 0.67764 0.51344 0.30663 0.0
C132 C 0.67117 0.52179 0.27899 0.0
C133 C 0.71882 0.44582 0.39577 0.0
C134 C 0.65699 0.42276 0.30438 0.0
C135 C 0.75093 0.45141 0.28964 0.0
O136 O 0.74385 0.44059 0.31552 0.0
O137 O 0.7335 0.46744 0.27484 0.0
O138 O 0.721 0.42238 0.38008 0.0
O139 O 0.70901 0.46829 0.38165 0.0
O140 O 0.05826 0.66574 0.78558 0.0
Cd141 Cd 0.02434 0.69399 0.7888 0.0
Cd142 Cd 0.05538 0.70995 0.84438 0.0
O143 O 0.07981 0.67467 0.8301 0.0
O144 O 0.9959 0.67973 0.75775 0.0
O145 O 0.98772 0.67922 0.8081 0.0
C146 C 0.97932 0.67287 0.78045 0.0
C147 C 0.0514 0.71904 0.89776 0.0
C148 C 0.07815 0.66049 0.80495 0.0
C149 C 0.0474 0.7542 0.79245 0.0
O150 O 0.05787 0.74738 0.8186 0.0
O151 O 0.03259 0.73632 0.77689 0.0
O152 O 0.07549 0.72135 0.88334 0.0
O153 O 0.0293 0.71059 0.88213 0.0
O154 O 0.83815 0.06463 0.27837 0.0
Cd155 Cd 0.81154 0.02964 0.28433 0.0
Cd156 Cd 0.79914 0.06119 0.33994 0.0
O157 O 0.83512 0.08388 0.32503 0.0
O158 O 0.82528 1.00034 0.25384 0.0
O159 O 0.82814 0.99409 0.30443 0.0
C160 C 0.83343 0.9847 0.27687 0.0
C161 C 0.78943 0.05935 0.39342 0.0
C162 C 0.84611 0.08332 0.29808 0.0
C163 C 0.75257 0.05355 0.28986 0.0
O164 O 0.76166 0.06538 0.3145 0.0
O165 O 0.76856 0.03635 0.27474 0.0
O166 O 0.78751 0.08286 0.37783 0.0
O167 O 0.79821 0.03664 0.37896 0.0
O168 O 0.44463 0.66309 0.22903 0.0
Cd169 Cd 0.47752 0.6925 0.22448 0.0
Cd170 Cd 0.44576 0.70566 0.17002 0.0
O171 O 0.42362 0.66898 0.18367 0.0
O172 O 0.50702 0.6797 0.25518 0.0
O173 O 0.51419 0.67834 0.20466 0.0
C174 C 0.52332 0.67274 0.23225 0.0
C175 C 0.4518 0.7147 0.11691 0.0
C176 C 0.42553 0.65593 0.20946 0.0
C177 C 0.45047 0.75102 0.22091 0.0
O178 O 0.43916 0.74257 0.19572 0.0
O179 O 0.46806 0.73492 0.23544 0.0
O180 O 0.42687 0.71531 0.12983 0.0
O181 O 0.47365 0.70806 0.13393 0.0
O182 O 0.84184 0.44045 0.72977 0.0
Cd183 Cd 0.81337 0.47437 0.72591 0.0
Cd184 Cd 0.79821 0.44171 0.67117 0.0
O185 O 0.83363 0.4179 0.68562 0.0
O186 O 0.82717 0.5033 0.75669 0.0
O187 O 0.82782 0.51104 0.70627 0.0
C188 C 0.83377 0.51986 0.73388 0.0
C189 C 0.78792 0.44428 0.61789 0.0
C190 C 0.84751 0.42023 0.71087 0.0
C191 C 0.75378 0.45023 0.72297 0.0
O192 O 0.76131 0.4389 0.69747 0.0
O193 O 0.77099 0.46641 0.7378 0.0
O194 O 0.78534 0.42073 0.63332 0.0
O195 O 0.79762 0.46655 0.6324 0.0
O196 O 0.06206 0.84367 0.23002 0.0
Cd197 Cd 0.02898 0.81464 0.22472 0.0
Cd198 Cd 0.06081 0.8022 0.17038 0.0
O199 O 0.08309 0.83863 0.18456 0.0
O200 O 0.99931 0.82738 0.25524 0.0
O201 O 0.99255 0.82919 0.20469 0.0
C202 C 0.98323 0.83463 0.23223 0.0
C203 C 0.05465 0.79341 0.11722 0.0
C204 C 0.08124 0.85113 0.21068 0.0
C205 C 0.056 0.75626 0.22065 0.0
O206 O 0.06742 0.76506 0.19567 0.0
O207 O 0.03823 0.77209 0.23527 0.0
O208 O 0.07962 0.79278 0.13008 0.0
O209 O 0.03286 0.80008 0.13431 0.0
O210 O 0.66452 0.0658 0.72614 0.0
Cd211 Cd 0.69305 0.03184 0.72313 0.0
Cd212 Cd 0.70932 0.06463 0.66862 0.0
O213 O 0.67363 0.08845 0.68225 0.0
O214 O 0.67863 1.00327 0.75399 0.0
O215 O 0.67856 0.99512 0.70363 0.0
C216 C 0.67212 0.98661 0.73122 0.0
C217 C 0.72049 0.06177 0.61557 0.0
C218 C 0.65918 0.08601 0.70711 0.0
C219 C 0.75287 0.05571 0.72125 0.0
O220 O 0.74577 0.0672 0.69569 0.0
O221 O 0.73535 0.03956 0.7357 0.0
O222 O 0.72299 0.08536 0.63095 0.0
O223 O 0.71037 0.03963 0.62999 0.0
H224 H 0.45026 0.16937 0.28997 0.0
H225 H 0.45164 0.13682 0.19656 0.0
H226 H 0.41004 0.13777 0.30215 0.0
H227 H 0.41266 0.10391 0.209 0.0
H228 H 0.33397 0.05401 0.23247 0.0
H229 H 0.36506 0.09471 0.22054 0.0
H230 H 0.40135 0.08978 0.31251 0.0
H231 H 0.36896 0.0503 0.32476 0.0
C232 C 0.44182 0.15551 0.27198 0.0
C233 C 0.45415 0.15551 0.24233 0.0
C234 C 0.4189 0.13713 0.27902 0.0
C235 C 0.40812 0.11778 0.25679 0.0
C236 C 0.41988 0.11866 0.22674 0.0
C237 C 0.44242 0.13749 0.21955 0.0
C238 C 0.34825 0.06204 0.25027 0.0
C239 C 0.34909 0.04892 0.27952 0.0
C240 C 0.36634 0.08523 0.24336 0.0
C241 C 0.38622 0.09552 0.26532 0.0
C242 C 0.38618 0.08295 0.29501 0.0
C243 C 0.36765 0.06013 0.30209 0.0
H244 H 0.36793 0.45941 0.69626 0.0
H245 H 0.33391 0.45306 0.78879 0.0
H246 H 0.40103 0.42003 0.70706 0.0
H247 H 0.36571 0.41245 0.79923 0.0
H248 H 0.45275 0.37009 0.82109 0.0
H249 H 0.41346 0.40319 0.81001 0.0
H250 H 0.4104 0.3719 0.71585 0.0
H251 H 0.45092 0.34012 0.72671 0.0
C252 C 0.367 0.44903 0.71867 0.0
C253 C 0.34847 0.45946 0.74173 0.0
C254 C 0.38594 0.42626 0.72491 0.0
C255 C 0.38644 0.41295 0.75422 0.0
C256 C 0.36665 0.4225 0.77668 0.0
C257 C 0.34815 0.44565 0.77062 0.0
C258 C 0.44338 0.37003 0.79816 0.0
C259 C 0.45506 0.35266 0.77474 0.0
C260 C 0.42067 0.38897 0.79175 0.0
C261 C 0.40867 0.39063 0.76184 0.0
C262 C 0.41943 0.37195 0.73891 0.0
C263 C 0.44252 0.35345 0.7452 0.0
H264 H 0.05306 0.3706 0.19523 0.0
H265 H 0.05352 0.33947 0.28919 0.0
H266 H 0.09242 0.40315 0.20732 0.0
H267 H 0.09415 0.37065 0.30106 0.0
H268 H 0.13678 0.45757 0.32252 0.0
H269 H 0.10378 0.41847 0.31076 0.0
H270 H 0.13996 0.41201 0.21885 0.0
H271 H 0.17162 0.4524 0.23026 0.0
C272 C 0.06217 0.37015 0.21828 0.0
C273 C 0.05008 0.35265 0.2413 0.0
C274 C 0.08493 0.38878 0.22528 0.0
C275 C 0.09657 0.38994 0.25537 0.0
C276 C 0.0854 0.37109 0.27788 0.0
C277 C 0.06225 0.35293 0.27101 0.0
C278 C 0.13792 0.44749 0.29997 0.0
C279 C 0.15662 0.45819 0.27725 0.0
C280 C 0.11904 0.42488 0.29317 0.0
C281 C 0.11879 0.41199 0.26363 0.0
C282 C 0.13881 0.42175 0.24155 0.0
C283 C 0.15723 0.44477 0.24816 0.0
H284 H 0.17424 0.05536 0.78287 0.0
H285 H 0.13631 0.04826 0.69214 0.0
H286 H 0.14253 0.09574 0.79466 0.0
H287 H 0.10345 0.08749 0.70433 0.0
H288 H 0.05354 0.16684 0.7263 0.0
H289 H 0.09419 0.1358 0.71364 0.0
H290 H 0.09478 0.10382 0.80757 0.0
H291 H 0.05525 0.13609 0.82041 0.0
C292 C 0.15921 0.06259 0.76535 0.0
C293 C 0.15771 0.04857 0.73661 0.0
C294 C 0.14078 0.0856 0.7722 0.0
C295 C 0.11995 0.09484 0.7507 0.0
C296 C 0.11935 0.08145 0.72144 0.0
C297 C 0.13816 0.05877 0.71441 0.0
C298 C 0.06276 0.15352 0.74435 0.0
C299 C 0.05113 0.15383 0.77433 0.0
C300 C 0.08593 0.13547 0.73703 0.0
C301 C 0.09774 0.11681 0.75938 0.0
C302 C 0.08672 0.11804 0.78973 0.0
C303 C 0.06387 0.13651 0.79715 0.0
H304 H 0.55229 0.87175 0.81851 0.0
H305 H 0.5535 0.84034 0.72467 0.0
H306 H 0.5914 0.90464 0.80654 0.0
H307 H 0.59394 0.87181 0.71294 0.0
H308 H 0.63628 0.95872 0.69128 0.0
H309 H 0.60343 0.9195 0.70303 0.0
H310 H 0.63883 0.91398 0.79538 0.0
H311 H 0.67027 0.95454 0.78397 0.0
C312 C 0.56151 0.87133 0.79552 0.0
C313 C 0.54971 0.85365 0.77248 0.0
C314 C 0.58413 0.89014 0.78859 0.0
C315 C 0.59594 0.8913 0.75857 0.0
C316 C 0.58505 0.87227 0.73606 0.0
C317 C 0.56201 0.85396 0.74284 0.0
C318 C 0.63727 0.94881 0.71393 0.0
C319 C 0.65568 0.95982 0.73676 0.0
C320 C 0.61849 0.92613 0.72073 0.0
C321 C 0.61806 0.91347 0.75037 0.0
C322 C 0.6378 0.92354 0.77259 0.0
C323 C 0.6561 0.94665 0.76598 0.0
H324 H 0.55127 0.63697 0.19217 0.0
H325 H 0.55563 0.67094 0.28488 0.0
H326 H 0.59036 0.60386 0.20386 0.0
H327 H 0.59601 0.63913 0.29625 0.0
H328 H 0.63684 0.55144 0.31914 0.0
H329 H 0.60464 0.59129 0.30727 0.0
H330 H 0.63803 0.59395 0.21394 0.0
H331 H 0.66885 0.55286 0.22555 0.0
C332 C 0.5612 0.63793 0.2148 0.0
C333 C 0.55025 0.6564 0.23766 0.0
C334 C 0.5838 0.61897 0.22157 0.0
C335 C 0.59642 0.6184 0.25122 0.0
C336 C 0.58647 0.63824 0.27345 0.0
C337 C 0.56347 0.65675 0.26685 0.0
C338 C 0.63755 0.56084 0.29624 0.0
C339 C 0.65518 0.54888 0.27323 0.0
C340 C 0.61914 0.58389 0.28937 0.0
C341 C 0.61832 0.59593 0.25944 0.0
C342 C 0.63732 0.5849 0.23699 0.0
C343 C 0.65526 0.56147 0.2437 0.0
H344 H 0.95129 0.63738 0.82066 0.0
H345 H 0.94815 0.66951 0.72715 0.0
H346 H 0.91291 0.60358 0.80888 0.0
H347 H 0.90848 0.63701 0.71562 0.0
H348 H 0.86884 0.5487 0.69387 0.0
H349 H 0.90062 0.58885 0.70554 0.0
H350 H 0.86547 0.59323 0.79805 0.0
H351 H 0.83508 0.55187 0.7867 0.0
C352 C 0.94178 0.63777 0.7978 0.0
C353 C 0.95286 0.65594 0.77479 0.0
C354 C 0.91959 0.61842 0.79098 0.0
C355 C 0.90752 0.61715 0.76109 0.0
C356 C 0.91761 0.63665 0.73863 0.0
C357 C 0.9402 0.65556 0.7453 0.0
C358 C 0.86768 0.55853 0.71654 0.0
C359 C 0.84966 0.547 0.73942 0.0
C360 C 0.88583 0.58175 0.72329 0.0
C361 C 0.886 0.59438 0.75295 0.0
C362 C 0.86666 0.58373 0.77524 0.0
C363 C 0.84898 0.56014 0.76866 0.0
H364 H 0.83583 0.95234 0.22428 0.0
H365 H 0.86948 0.95717 0.3171 0.0
H366 H 0.86749 0.91173 0.21333 0.0
H367 H 0.90235 0.9177 0.30583 0.0
H368 H 0.9514 0.83749 0.28515 0.0
H369 H 0.91098 0.86935 0.29616 0.0
H370 H 0.91553 0.90264 0.20288 0.0
H371 H 0.95479 0.86956 0.1916 0.0
C372 C 0.84996 0.9446 0.2424 0.0
C373 C 0.85023 0.958 0.27152 0.0
C374 C 0.86835 0.92144 0.23606 0.0
C375 C 0.88794 0.91143 0.25848 0.0
C376 C 0.8874 0.92432 0.288 0.0
C377 C 0.8686 0.94714 0.29451 0.0
C378 C 0.94335 0.85126 0.26686 0.0
C379 C 0.95633 0.85107 0.23753 0.0
C380 C 0.92032 0.8698 0.27324 0.0
C381 C 0.91003 0.88907 0.25063 0.0
C382 C 0.9224 0.88796 0.22088 0.0
C383 C 0.94509 0.86903 0.21436 0.0
H384 H 0.54498 0.27118 0.28359 0.0
H385 H 0.5765 0.29634 0.1936 0.0
H386 H 0.5653 0.31524 0.30581 0.0
H387 H 0.59699 0.33972 0.21569 0.0
H388 H 0.61835 0.42422 0.25679 0.0
H389 H 0.5867 0.38573 0.23948 0.0
H390 H 0.61442 0.33282 0.31608 0.0
H391 H 0.64571 0.37162 0.33387 0.0
C392 C 0.5558 0.28629 0.26848 0.0
C393 C 0.55926 0.28015 0.23686 0.0
C394 C 0.56763 0.3114 0.28124 0.0
C395 C 0.58287 0.33097 0.26257 0.0
C396 C 0.5851 0.32537 0.23073 0.0
C397 C 0.5735 0.30031 0.21807 0.0
C398 C 0.61743 0.40455 0.27025 0.0
C399 C 0.63492 0.40088 0.29649 0.0
C400 C 0.59932 0.38244 0.26024 0.0
C401 C 0.59832 0.35604 0.27612 0.0
C402 C 0.61452 0.35295 0.3034 0.0
C403 C 0.63261 0.37516 0.31351 0.0
H404 H 0.20905 0.58518 0.69501 0.0
H405 H 0.23061 0.54903 0.78412 0.0
H406 H 0.16526 0.60551 0.71653 0.0
H407 H 0.18625 0.56931 0.80572 0.0
H408 H 0.07883 0.62381 0.75559 0.0
H409 H 0.11832 0.59346 0.73806 0.0
H410 H 0.16851 0.61871 0.81758 0.0
H411 H 0.12872 0.64886 0.83551 0.0
C412 C 0.20423 0.58119 0.71913 0.0
C413 C 0.22344 0.56559 0.73786 0.0
C414 C 0.17897 0.59272 0.73145 0.0
C415 C 0.17225 0.58907 0.76288 0.0
C416 C 0.19096 0.57268 0.78148 0.0
C417 C 0.21624 0.5609 0.76904 0.0
C418 C 0.09811 0.62265 0.76962 0.0
C419 C 0.10072 0.63913 0.79677 0.0
C420 C 0.1208 0.60529 0.75948 0.0
C421 C 0.14671 0.60396 0.77618 0.0
C422 C 0.14877 0.61912 0.80426 0.0
C423 C 0.126 0.63653 0.81446 0.0
H424 H 0.88136 0.11631 0.33473 0.0
H425 H 0.85703 0.10173 0.23974 0.0
H426 H 0.91332 0.15516 0.31838 0.0
H427 H 0.887 0.14143 0.22353 0.0
H428 H 0.95156 0.20457 0.1943 0.0
H429 H 0.93129 0.15994 0.21416 0.0
H430 H 0.91393 0.2021 0.3015 0.0
H431 H 0.93652 0.24584 0.28211 0.0
C432 C 0.88283 0.12146 0.31036 0.0
C433 C 0.86674 0.10592 0.28853 0.0
C434 C 0.901 0.1439 0.30094 0.0
C435 C 0.90297 0.15175 0.26951 0.0
C436 C 0.88693 0.13582 0.2478 0.0
C437 C 0.8694 0.11305 0.25713 0.0
C438 C 0.94397 0.20394 0.21798 0.0
C439 C 0.94548 0.22856 0.23667 0.0
C440 C 0.93196 0.17847 0.22933 0.0
C441 C 0.92012 0.17733 0.25932 0.0
C442 C 0.92294 0.20177 0.27845 0.0
C443 C 0.93582 0.227 0.26734 0.0
H444 H 0.26869 0.88981 0.71868 0.0
H445 H 0.29032 0.97414 0.75412 0.0
H446 H 0.31122 0.86963 0.7437 0.0
H447 H 0.33369 0.95372 0.7785 0.0
H448 H 0.42365 0.89371 0.76831 0.0
H449 H 0.38168 0.92105 0.75023 0.0
H450 H 0.32653 0.86961 0.80826 0.0
H451 H 0.36836 0.84271 0.82705 0.0
C452 C 0.28268 0.90411 0.73153 0.0
C453 C 0.27619 0.9336 0.73437 0.0
C454 C 0.30688 0.89248 0.746 0.0
C455 C 0.32544 0.91015 0.76309 0.0
C456 C 0.31951 0.93974 0.76547 0.0
C457 C 0.2948 0.95134 0.75155 0.0
C458 C 0.40265 0.88868 0.77775 0.0
C459 C 0.39928 0.86597 0.799 0.0
C460 C 0.37874 0.90439 0.76749 0.0
C461 C 0.35106 0.89726 0.77786 0.0
C462 C 0.34777 0.87544 0.80004 0.0
C463 C 0.3717 0.86015 0.81081 0.0
H464 H 0.54708 0.23775 0.72998 0.0
H465 H 0.57724 0.21052 0.81985 0.0
H466 H 0.56785 0.19416 0.707 0.0
H467 H 0.59818 0.16763 0.79703 0.0
H468 H 0.62014 0.08393 0.75425 0.0
H469 H 0.58837 0.12222 0.77203 0.0
H470 H 0.61704 0.17651 0.69704 0.0
H471 H 0.64846 0.13789 0.67876 0.0
C472 C 0.55769 0.22228 0.74489 0.0
C473 C 0.56064 0.2277 0.77672 0.0
C474 C 0.56979 0.19745 0.73169 0.0
C475 C 0.58478 0.17744 0.75014 0.0
C476 C 0.5865 0.18233 0.78214 0.0
C477 C 0.57463 0.2071 0.79524 0.0
C478 C 0.61943 0.10387 0.74126 0.0
C479 C 0.63719 0.10796 0.71532 0.0
C480 C 0.60124 0.12587 0.75153 0.0
C481 C 0.60045 0.1526 0.73624 0.0
C482 C 0.61698 0.15614 0.70926 0.0
C483 C 0.63513 0.13403 0.69887 0.0
H484 H 0.42673 0.61957 0.25911 0.0
H485 H 0.37519 0.64249 0.17963 0.0
H486 H 0.38823 0.58856 0.27766 0.0
H487 H 0.33636 0.61193 0.19864 0.0
H488 H 0.29844 0.58081 0.32286 0.0
H489 H 0.34212 0.59987 0.30015 0.0
H490 H 0.3184 0.56371 0.21173 0.0
H491 H 0.27401 0.54488 0.23454 0.0
C492 C 0.4073 0.61777 0.2454 0.0
C493 C 0.40389 0.63387 0.2181 0.0
C494 C 0.38518 0.60005 0.25611 0.0
C495 C 0.35902 0.59809 0.23991 0.0
C496 C 0.35627 0.61278 0.21161 0.0
C497 C 0.37851 0.63045 0.20079 0.0
C498 C 0.30263 0.57652 0.29866 0.0
C499 C 0.28257 0.5615 0.28048 0.0
C500 C 0.32788 0.5873 0.28565 0.0
C501 C 0.33379 0.5834 0.25406 0.0
C502 C 0.31433 0.56733 0.23607 0.0
C503 C 0.28902 0.55637 0.24919 0.0
H504 H 0.85998 0.36936 0.68126 0.0
H505 H 0.88353 0.42051 0.76081 0.0
H506 H 0.89017 0.33002 0.70018 0.0
H507 H 0.91399 0.38145 0.77932 0.0
H508 H 0.92289 0.29133 0.8238 0.0
H509 H 0.90248 0.33475 0.80144 0.0
H510 H 0.93915 0.3126 0.7128 0.0
H511 H 0.95946 0.26859 0.73524 0.0
C512 C 0.872 0.37245 0.70245 0.0
C513 C 0.86896 0.39796 0.71973 0.0
C514 C 0.88944 0.34994 0.71322 0.0
C515 C 0.90421 0.35247 0.74146 0.0
C516 C 0.90246 0.37861 0.75778 0.0
C517 C 0.88504 0.40105 0.74708 0.0
C518 C 0.92695 0.2958 0.79962 0.0
C519 C 0.94269 0.27635 0.78129 0.0
C520 C 0.91538 0.32087 0.78682 0.0
C521 C 0.91914 0.32717 0.7553 0.0
C522 C 0.93566 0.30822 0.7371 0.0
C523 C 0.94746 0.28313 0.75001 0.0
H524 H 0.13121 0.86569 0.18067 0.0
H525 H 0.08104 0.88518 0.26218 0.0
H526 H 0.17051 0.89515 0.2006 0.0
H527 H 0.12006 0.91499 0.28172 0.0
H528 H 0.23263 0.96182 0.23891 0.0
H529 H 0.18824 0.94322 0.21593 0.0
H530 H 0.16686 0.90218 0.30254 0.0
H531 H 0.21065 0.92092 0.32547 0.0
C532 C 0.12829 0.87674 0.2025 0.0
C533 C 0.10313 0.87268 0.22004 0.0
C534 C 0.15079 0.89376 0.21387 0.0
C535 C 0.14857 0.90711 0.24297 0.0
C536 C 0.12268 0.90453 0.25952 0.0
C537 C 0.10026 0.8875 0.24823 0.0
C538 C 0.21818 0.94923 0.25315 0.0
C539 C 0.22529 0.94274 0.28399 0.0
C540 C 0.19286 0.93843 0.23992 0.0
C541 C 0.17402 0.92117 0.25736 0.0
C542 C 0.18065 0.9157 0.28852 0.0
C543 C 0.20593 0.9263 0.30164 0.0
H544 H 0.38013 0.61744 0.67759 0.0
H545 H 0.35998 0.60119 0.77342 0.0
H546 H 0.41355 0.65533 0.69317 0.0
H547 H 0.39151 0.63989 0.78895 0.0
H548 H 0.45752 0.70171 0.81648 0.0
H549 H 0.4367 0.65749 0.79617 0.0
H550 H 0.41508 0.70201 0.71133 0.0
H551 H 0.4381 0.74538 0.73101 0.0
C552 C 0.38284 0.62199 0.70197 0.0
C553 C 0.36744 0.6063 0.72426 0.0
C554 C 0.40187 0.64387 0.71096 0.0
C555 C 0.40545 0.65096 0.74243 0.0
C556 C 0.39017 0.63483 0.76458 0.0
C557 C 0.37173 0.61265 0.75564 0.0
C558 C 0.44896 0.70167 0.79318 0.0
C559 C 0.44929 0.72689 0.77534 0.0
C560 C 0.43663 0.67645 0.7816 0.0
C561 C 0.42334 0.67612 0.75231 0.0
C562 C 0.4252 0.70108 0.73383 0.0
C563 C 0.43834 0.72609 0.74512 0.0
H564 H 0.92509 0.39001 0.25481 0.0
H565 H 0.87321 0.35943 0.17868 0.0
H566 H 0.8854 0.42024 0.27208 0.0
H567 H 0.83321 0.38937 0.19642 0.0
H568 H 0.79641 0.4267 0.31913 0.0
H569 H 0.84018 0.40755 0.29648 0.0
H570 H 0.81348 0.43812 0.20661 0.0
H571 H 0.76906 0.45717 0.22941 0.0
C572 C 0.90532 0.38995 0.24152 0.0
C573 C 0.90221 0.37193 0.2156 0.0
C574 C 0.88252 0.40724 0.25151 0.0
C575 C 0.85598 0.40687 0.23593 0.0
C576 C 0.85342 0.39027 0.20887 0.0
C577 C 0.87632 0.37299 0.19877 0.0
C578 C 0.79994 0.42972 0.29459 0.0
C579 C 0.77912 0.44333 0.27607 0.0
C580 C 0.82521 0.4189 0.28161 0.0
C581 C 0.83037 0.42128 0.2497 0.0
C582 C 0.81002 0.43575 0.23124 0.0
C583 C 0.7847 0.44683 0.24433 0.0
H584 H 0.05202 0.80543 0.82247 0.0
H585 H 0.0607 0.76628 0.73257 0.0
H586 H 0.07139 0.85036 0.80236 0.0
H587 H 0.08232 0.8103 0.71273 0.0
H588 H 0.11483 0.89556 0.67935 0.0
H589 H 0.08245 0.8577 0.69725 0.0
H590 H 0.11537 0.86837 0.79015 0.0
H591 H 0.14586 0.90714 0.77257 0.0
C592 C 0.05799 0.80659 0.79829 0.0
C593 C 0.05502 0.78244 0.77909 0.0
C594 C 0.06945 0.83224 0.78675 0.0
C595 C 0.07925 0.83404 0.75597 0.0
C596 C 0.07487 0.81012 0.73642 0.0
C597 C 0.06256 0.78473 0.74779 0.0
C598 C 0.11467 0.89004 0.70367 0.0
C599 C 0.13291 0.90434 0.72453 0.0
C600 C 0.09627 0.86814 0.71396 0.0
C601 C 0.09617 0.85958 0.74524 0.0
C602 C 0.11406 0.87452 0.76607 0.0
C603 C 0.13188 0.89676 0.75592 0.0
H604 H 0.62929 0.14447 0.17994 0.0
H605 H 0.57974 0.12179 0.2609 0.0
H606 H 0.6686 0.1138 0.19792 0.0
H607 H 0.61877 0.09083 0.27848 0.0
H608 H 0.71004 0.08211 0.32052 0.0
H609 H 0.66598 0.10213 0.29932 0.0
H610 H 0.68585 0.0647 0.21041 0.0
H611 H 0.73051 0.0448 0.23166 0.0
C612 C 0.62652 0.13252 0.20124 0.0
C613 C 0.60152 0.13597 0.21919 0.0
C614 C 0.64902 0.11481 0.21147 0.0
C615 C 0.64695 0.10014 0.23983 0.0
C616 C 0.62125 0.10226 0.25682 0.0
C617 C 0.59883 0.11997 0.24665 0.0
C618 C 0.7049 0.07776 0.29654 0.0
C619 C 0.72393 0.06201 0.27774 0.0
C620 C 0.67947 0.0891 0.28441 0.0
C621 C 0.6724 0.08509 0.25312 0.0
C622 C 0.69085 0.06839 0.23453 0.0
C623 C 0.7163 0.05683 0.24677 0.0
H624 H 0.41966 0.79341 0.19244 0.0
H625 H 0.46 0.77196 0.27948 0.0
H626 H 0.39971 0.83685 0.21525 0.0
H627 H 0.44017 0.81598 0.30233 0.0
H628 H 0.38182 0.92296 0.25566 0.0
H629 H 0.41174 0.88389 0.23618 0.0
H630 H 0.39171 0.83325 0.31711 0.0
H631 H 0.3621 0.87261 0.33697 0.0
C632 C 0.42463 0.79816 0.21636 0.0
C633 C 0.44132 0.77907 0.23416 0.0
C634 C 0.41333 0.82324 0.22941 0.0
C635 C 0.41832 0.82992 0.26065 0.0
C636 C 0.43573 0.81131 0.27827 0.0
C637 C 0.44725 0.7862 0.26512 0.0
C638 C 0.38408 0.90369 0.26957 0.0
C639 C 0.36921 0.90082 0.29772 0.0
C640 C 0.40117 0.88122 0.25831 0.0
C641 C 0.4038 0.85529 0.27486 0.0
C642 C 0.39028 0.85301 0.30385 0.0
C643 C 0.37318 0.87554 0.31518 0.0
H644 H 0.73457 0.45767 0.78257 0.0
H645 H 0.70896 0.42455 0.69337 0.0
H646 H 0.69005 0.43888 0.80517 0.0
H647 H 0.66509 0.40562 0.71585 0.0
H648 H 0.63174 0.36017 0.83483 0.0
H649 H 0.67126 0.39025 0.81657 0.0
H650 H 0.61931 0.41792 0.73924 0.0
H651 H 0.58007 0.38748 0.75704 0.0
C652 C 0.71928 0.44681 0.7677 0.0
C653 C 0.7254 0.44246 0.7362 0.0
C654 C 0.6939 0.43588 0.78069 0.0
C655 C 0.67404 0.42068 0.76235 0.0
C656 C 0.67967 0.41752 0.73061 0.0
C657 C 0.705 0.42822 0.71773 0.0
C658 C 0.62856 0.37304 0.81423 0.0
C659 C 0.60289 0.37102 0.79713 0.0
C660 C 0.65119 0.39043 0.80384 0.0
C661 C 0.64858 0.40619 0.77621 0.0
C662 C 0.62222 0.40559 0.76027 0.0
C663 C 0.59968 0.38819 0.77056 0.0
H664 H 0.14735 0.63526 0.3345 0.0
H665 H 0.12571 0.58451 0.25402 0.0
H666 H 0.11722 0.67451 0.31523 0.0
H667 H 0.09535 0.62348 0.23514 0.0
H668 H 0.04752 0.73521 0.27934 0.0
H669 H 0.06807 0.6913 0.30175 0.0
H670 H 0.10687 0.67061 0.21376 0.0
H671 H 0.08624 0.71395 0.19141 0.0
C672 C 0.13578 0.63224 0.31301 0.0
C673 C 0.13931 0.60686 0.29562 0.0
C674 C 0.11838 0.6547 0.30204 0.0
C675 C 0.10414 0.65225 0.27346 0.0
C676 C 0.10644 0.62626 0.25696 0.0
C677 C 0.1238 0.60387 0.26788 0.0
C678 C 0.06004 0.72101 0.26469 0.0
C679 C 0.06534 0.72817 0.23361 0.0
C680 C 0.07198 0.69598 0.27759 0.0
C681 C 0.08916 0.67748 0.25957 0.0
C682 C 0.09346 0.68415 0.22822 0.0
C683 C 0.08176 0.70917 0.21544 0.0
H684 H 0.87562 0.14149 0.83644 0.0
H685 H 0.92682 0.11677 0.75734 0.0
H686 H 0.83596 0.11208 0.8173 0.0
H687 H 0.88746 0.08692 0.73865 0.0
H688 H 0.79789 0.08207 0.6927 0.0
H689 H 0.84185 0.09999 0.71587 0.0
H690 H 0.8165 0.06437 0.80401 0.0
H691 H 0.77185 0.04665 0.78073 0.0
C692 C 0.87868 0.12926 0.81536 0.0
C693 C 0.90424 0.13189 0.79816 0.0
C694 C 0.85596 0.11227 0.80445 0.0
C695 C 0.85837 0.09747 0.77619 0.0
C696 C 0.88468 0.09854 0.76016 0.0
C697 C 0.90729 0.11559 0.77096 0.0
C698 C 0.80175 0.07768 0.71695 0.0
C699 C 0.7812 0.06309 0.73489 0.0
C700 C 0.82716 0.0878 0.73022 0.0
C701 C 0.83275 0.08365 0.76184 0.0
C702 C 0.81271 0.06813 0.77964 0.0
C703 C 0.78723 0.05782 0.76626 0.0
H704 H 0.51035 0.21483 0.07722 0.0
H705 H 0.59841 0.24354 0.08552 0.0
H706 H 0.5094 0.23173 0.02355 0.0
H707 H 0.5972 0.26109 0.03282 0.0
H708 H 0.59848 0.2611 0.92907 0.0
H709 H 0.59696 0.24332 0.98168 0.0
H710 H 0.50979 0.27472 0.99118 0.0
H711 H 0.51103 0.29185 0.9376 0.0
C712 C 0.52946 0.22473 0.06763 0.0
C713 C 0.55452 0.22758 0.0856 0.0
C714 C 0.52885 0.23464 0.03696 0.0
C715 C 0.55328 0.24765 0.02369 0.0
C716 C 0.57816 0.25066 0.04191 0.0
C717 C 0.57881 0.24066 0.07231 0.0
C718 C 0.57896 0.26437 0.94231 0.0
C719 C 0.55494 0.27812 0.92913 0.0
C720 C 0.57813 0.25424 0.97265 0.0
C721 C 0.55334 0.25777 0.99092 0.0
C722 C 0.52916 0.2714 0.97773 0.0
C723 C 0.52994 0.28144 0.94712 0.0
H724 H 0.21452 0.51613 0.44003 0.0
H725 H 0.24647 0.60309 0.43105 0.0
H726 H 0.23105 0.51503 0.49382 0.0
H727 H 0.2637 0.60169 0.48388 0.0
H728 H 0.26322 0.60386 0.58769 0.0
H729 H 0.24598 0.60266 0.53487 0.0
H730 H 0.2735 0.51398 0.52661 0.0
H731 H 0.29003 0.51494 0.5804 0.0
C732 C 0.22506 0.53496 0.4495 0.0
C733 C 0.2289 0.55978 0.43131 0.0
C734 C 0.23477 0.53426 0.48023 0.0
C735 C 0.2486 0.55833 0.49336 0.0
C736 C 0.25262 0.58295 0.47491 0.0
C737 C 0.2428 0.58372 0.44444 0.0
C738 C 0.26576 0.58407 0.57467 0.0
C739 C 0.27822 0.55954 0.58828 0.0
C740 C 0.25594 0.58342 0.5442 0.0
C741 C 0.25851 0.5583 0.52622 0.0
C742 C 0.27091 0.53363 0.53982 0.0
C743 C 0.28062 0.53424 0.57056 0.0
H744 H 0.91066 0.29064 0.07369 0.0
H745 H 1.00037 0.26972 0.0866 0.0
H746 H 0.91265 0.27206 0.02131 0.0
H747 H 1.00218 0.24941 0.03442 0.0
H748 H 0.99971 0.23609 0.92827 0.0
H749 H 1.00138 0.25639 0.98045 0.0
H750 H 0.91375 0.22844 0.99569 0.0
H751 H 0.91178 0.20986 0.94331 0.0
C752 C 0.93086 0.28198 0.06526 0.0
C753 C 0.95532 0.28153 0.08428 0.0
C754 C 0.93197 0.27096 0.03526 0.0
C755 C 0.95741 0.25848 0.02361 0.0
C756 C 0.98222 0.2589 0.04238 0.0
C757 C 0.98122 0.27051 0.07234 0.0
C758 C 0.98096 0.23413 0.94299 0.0
C759 C 0.95554 0.22162 0.93165 0.0
C760 C 0.98189 0.24573 0.97295 0.0
C761 C 0.95751 0.24466 0.99233 0.0
C762 C 0.93265 0.2307 0.98127 0.0
C763 C 0.93158 0.21968 0.95128 0.0
H764 H 0.27085 0.99629 0.43234 0.0
H765 H 0.28923 0.90574 0.44397 0.0
H766 H 0.25091 0.99808 0.48467 0.0
H767 H 0.27081 0.90766 0.49641 0.0
H768 H 0.20799 0.90814 0.57415 0.0
H769 H 0.22685 0.91007 0.52189 0.0
H770 H 0.25874 0.99615 0.53883 0.0
H771 H 0.23839 0.99456 0.59098 0.0
C772 C 0.27115 0.97692 0.44631 0.0
C773 C 0.28138 0.95082 0.43396 0.0
C774 C 0.25975 0.97791 0.47636 0.0
C775 C 0.25867 0.95288 0.49479 0.0
C776 C 0.2703 0.92719 0.48273 0.0
C777 C 0.2812 0.92612 0.45268 0.0
C778 C 0.21878 0.9276 0.56663 0.0
C779 C 0.2218 0.95114 0.58674 0.0
C780 C 0.22993 0.92863 0.53669 0.0
C781 C 0.24499 0.95304 0.52612 0.0
C782 C 0.24721 0.97702 0.54598 0.0
C783 C 0.23558 0.97613 0.57592 0.0
H784 H 0.5014 0.76908 0.92895 0.0
H785 H 0.41067 0.78666 0.93887 0.0
H786 H 0.50273 0.74993 0.98165 0.0
H787 H 0.41211 0.76936 0.99174 0.0
H788 H 0.41167 0.70952 0.07177 0.0
H789 H 0.4141 0.72681 0.01892 0.0
H790 H 0.50056 0.75777 0.03523 0.0
H791 H 0.49851 0.73866 0.08789 0.0
C792 C 0.48189 0.76939 0.94266 0.0
C793 C 0.45589 0.77912 0.92975 0.0
C794 C 0.48261 0.75845 0.97291 0.0
C795 C 0.4574 0.75747 0.99104 0.0
C796 C 0.43178 0.76867 0.97836 0.0
C797 C 0.43097 0.77897 0.94806 0.0
C798 C 0.43132 0.71973 0.06394 0.0
C799 C 0.45485 0.72283 0.08398 0.0
C800 C 0.43265 0.73002 0.03365 0.0
C801 C 0.45729 0.74444 0.02272 0.0
C802 C 0.48125 0.74672 0.04259 0.0
C803 C 0.4801 0.73581 0.07283 0.0
H804 H 0.76237 0.40173 0.5846 0.0
H805 H 0.79176 0.48972 0.57706 0.0
H806 H 0.74502 0.40341 0.53183 0.0
H807 H 0.77506 0.49115 0.52335 0.0
H808 H 0.71511 0.49069 0.43735 0.0
H809 H 0.73213 0.49135 0.49097 0.0
H810 H 0.76281 0.4039 0.48069 0.0
H811 H 0.74515 0.40297 0.428 0.0
C812 C 0.76545 0.4214 0.57155 0.0
C813 C 0.77865 0.44554 0.58507 0.0
C814 C 0.75556 0.42233 0.54111 0.0
C815 C 0.75879 0.44734 0.5231 0.0
C816 C 0.77196 0.47161 0.5366 0.0
C817 C 0.78177 0.47072 0.56729 0.0
C818 C 0.72535 0.4716 0.4467 0.0
C819 C 0.72851 0.4467 0.42846 0.0
C820 C 0.73532 0.47204 0.47734 0.0
C821 C 0.74872 0.44761 0.49032 0.0
C822 C 0.75208 0.42292 0.47181 0.0
C823 C 0.74202 0.42243 0.44143 0.0
H824 H 0.00745 0.77034 0.08828 0.0
H825 H 0.09499 0.79728 0.0721 0.0
H826 H 0.00506 0.75079 0.03583 0.0
H827 H 0.09228 0.77946 0.01945 0.0
H828 H 0.09435 0.71854 0.94019 0.0
H829 H 0.09322 0.7364 0.99288 0.0
H830 H 0.00327 0.75843 0.9821 0.0
H831 H 0.00424 0.73881 0.92961 0.0
C832 C 0.02595 0.77263 0.07326 0.0
C833 C 0.05148 0.78512 0.08434 0.0
C834 C 0.02461 0.76145 0.04314 0.0
C835 C 0.04866 0.76295 0.02332 0.0
C836 C 0.07362 0.77688 0.03416 0.0
C837 C 0.07511 0.78747 0.06433 0.0
C838 C 0.07425 0.72691 0.9492 0.0
C839 C 0.04942 0.72737 0.93074 0.0
C840 C 0.07363 0.73752 0.97938 0.0
C841 C 0.04831 0.74961 0.9918 0.0
C842 C 0.02315 0.74922 0.97356 0.0
C843 C 0.02367 0.73801 0.94342 0.0
H844 H 0.71561 0.0167 0.5744 0.0
H845 H 0.74813 0.10349 0.58304 0.0
H846 H 0.7327 0.01507 0.52084 0.0
H847 H 0.7659 0.10156 0.53044 0.0
H848 H 0.76555 0.10303 0.42652 0.0
H849 H 0.7483 0.10231 0.47933 0.0
H850 H 0.77545 0.01358 0.48839 0.0
H851 H 0.79202 0.01406 0.4346 0.0
C852 C 0.72641 0.03538 0.56492 0.0
C853 C 0.73022 0.06032 0.58293 0.0
C854 C 0.73643 0.03437 0.53431 0.0
C855 C 0.75056 0.05825 0.52114 0.0
C856 C 0.7546 0.08297 0.53944 0.0
C857 C 0.74447 0.08403 0.56978 0.0
C858 C 0.76802 0.08334 0.43971 0.0
C859 C 0.78036 0.05864 0.42632 0.0
C860 C 0.7582 0.08297 0.47018 0.0
C861 C 0.76063 0.05796 0.48836 0.0
C862 C 0.77297 0.03315 0.475 0.0
C863 C 0.7827 0.03348 0.44427 0.0
loop_
_geom_bond_atom_site_label_1
_geom_bond_atom_site_label_2
_geom_bond_distance
_geom_bond_site_symmetry_2
_ccdc_geom_bond_type
O0 Cd1 2.223 . S
O0 C8 1.315 . S
Cd1 O0 2.223 . S
Cd1 O4 2.297 . S
Cd1 O5 2.439 . S
Cd1 O11 2.240 . S
Cd2 O3 2.240 . S
Cd2 O10 2.223 . S
Cd2 O12 2.297 . S
Cd2 O13 2.439 . S
O3 Cd2 2.240 . S
O3 C8 1.279 . S
O4 Cd1 2.297 . S
O4 C6 1.247 . S
O5 Cd1 2.439 . S
O5 C6 1.208 . S
C6 O4 1.247 . S
C6 O5 1.208 . S
C7 O12 1.247 . S
C7 O13 1.208 . S
C8 O0 1.315 . S
C8 O3 1.279 . S
C9 O10 1.315 . S
C9 O11 1.279 . S
O10 Cd2 2.223 . S
O10 C9 1.315 . S
O11 Cd1 2.240 . S
O11 C9 1.279 . S
O12 Cd2 2.297 . S
O12 C7 1.247 . S
O13 Cd2 2.439 . S
O13 C7 1.208 . S
O14 Cd15 2.223 . S
O14 C22 1.315 . S
Cd15 O14 2.223 . S
Cd15 O18 2.297 . S
Cd15 O19 2.439 . S
Cd15 O25 2.240 . S
Cd16 O17 2.240 . S
Cd16 O24 2.223 . S
Cd16 O26 2.297 . S
Cd16 O27 2.439 . S
O17 Cd16 2.240 . S
O17 C22 1.279 . S
O18 Cd15 2.297 . S
O18 C20 1.247 . S
O19 Cd15 2.439 . S
O19 C20 1.208 . S
C20 O18 1.247 . S
C20 O19 1.208 . S
C21 O26 1.247 . S
C21 O27 1.208 . S
C22 O14 1.315 . S
C22 O17 1.279 . S
C23 O24 1.315 . S
C23 O25 1.279 . S
O24 Cd16 2.223 . S
O24 C23 1.315 . S
O25 Cd15 2.240 . S
O25 C23 1.279 . S
O26 Cd16 2.297 . S
O26 C21 1.247 . S
O27 Cd16 2.439 . S
O27 C21 1.208 . S
O28 Cd29 2.223 . S
O28 C36 1.315 . S
Cd29 O28 2.223 . S
Cd29 O32 2.297 . S
Cd29 O33 2.439 . S
Cd29 O39 2.240 . S
Cd30 O31 2.240 . S
Cd30 O38 2.223 . S
Cd30 O40 2.297 1_655 S
Cd30 O41 2.439 1_655 S
O31 Cd30 2.240 . S
O31 C36 1.279 . S
O32 Cd29 2.297 . S
O32 C34 1.247 . S
O33 Cd29 2.439 . S
O33 C34 1.208 . S
C34 O32 1.247 . S
C34 O33 1.208 . S
C35 O40 1.247 . S
C35 O41 1.208 . S
C36 O28 1.315 . S
C36 O31 1.279 . S
C37 O38 1.315 . S
C37 O39 1.279 . S
O38 Cd30 2.223 . S
O38 C37 1.315 . S
O39 Cd29 2.240 . S
O39 C37 1.279 . S
O40 Cd30 2.297 1_455 S
O40 C35 1.247 . S
O41 Cd30 2.439 1_455 S
O41 C35 1.208 . S
O42 Cd43 2.223 . S
O42 C50 1.315 . S
Cd43 O42 2.223 . S
Cd43 O46 2.297 1_565 S
Cd43 O47 2.439 1_565 S
Cd43 O53 2.240 . S
Cd44 O45 2.240 . S
Cd44 O52 2.223 . S
Cd44 O54 2.297 . S
Cd44 O55 2.439 . S
O45 Cd44 2.240 . S
O45 C50 1.279 . S
O46 Cd43 2.297 1_545 S
O46 C48 1.247 . S
O47 Cd43 2.439 1_545 S
O47 C48 1.208 . S
C48 O46 1.247 . S
C48 O47 1.208 . S
C49 O54 1.247 . S
C49 O55 1.208 . S
C50 O42 1.315 . S
C50 O45 1.279 . S
C51 O52 1.315 . S
C51 O53 1.279 . S
O52 Cd44 2.223 . S
O52 C51 1.315 . S
O53 Cd43 2.240 . S
O53 C51 1.279 . S
O54 Cd44 2.297 . S
O54 C49 1.247 . S
O55 Cd44 2.439 . S
O55 C49 1.208 . S
O56 Cd57 2.223 . S
O56 C64 1.315 . S
Cd57 O56 2.223 . S
Cd57 O60 2.297 . S
Cd57 O61 2.439 . S
Cd57 O67 2.240 . S
Cd58 O59 2.240 . S
Cd58 O66 2.223 . S
Cd58 O68 2.297 . S
Cd58 O69 2.439 . S
O59 Cd58 2.240 . S
O59 C64 1.279 . S
O60 Cd57 2.297 . S
O60 C62 1.247 . S
O61 Cd57 2.439 . S
O61 C62 1.208 . S
C62 O60 1.247 . S
C62 O61 1.208 . S
C63 O68 1.247 . S
C63 O69 1.208 . S
C64 O56 1.315 . S
C64 O59 1.279 . S
C65 O66 1.315 . S
C65 O67 1.279 . S
O66 Cd58 2.223 . S
O66 C65 1.315 . S
O67 Cd57 2.240 . S
O67 C65 1.279 . S
O68 Cd58 2.297 . S
O68 C63 1.247 . S
O69 Cd58 2.439 . S
O69 C63 1.208 . S
O70 Cd71 2.223 . S
O70 C78 1.315 . S
Cd71 O70 2.223 . S
Cd71 O74 2.297 . S
Cd71 O75 2.439 . S
Cd71 O81 2.240 . S
Cd72 O73 2.240 . S
Cd72 O80 2.223 . S
Cd72 O82 2.297 . S
Cd72 O83 2.439 . S
O73 Cd72 2.240 . S
O73 C78 1.279 . S
O74 Cd71 2.297 . S
O74 C76 1.247 . S
O75 Cd71 2.439 . S
O75 C76 1.208 . S
C76 O74 1.247 . S
C76 O75 1.208 . S
C77 O82 1.247 . S
C77 O83 1.208 . S
C78 O70 1.315 . S
C78 O73 1.279 . S
C79 O80 1.315 . S
C79 O81 1.279 . S
O80 Cd72 2.223 . S
O80 C79 1.315 . S
O81 Cd71 2.240 . S
O81 C79 1.279 . S
O82 Cd72 2.297 . S
O82 C77 1.247 . S
O83 Cd72 2.439 . S
O83 C77 1.208 . S
O84 Cd85 2.223 . S
O84 C92 1.315 . S
Cd85 O84 2.223 . S
Cd85 O88 2.297 . S
Cd85 O89 2.439 . S
Cd85 O95 2.240 . S
Cd86 O87 2.240 . S
Cd86 O94 2.223 . S
Cd86 O96 2.297 1_655 S
Cd86 O97 2.439 1_655 S
O87 Cd86 2.240 . S
O87 C92 1.279 . S
O88 Cd85 2.297 . S
O88 C90 1.247 . S
O89 Cd85 2.439 . S
O89 C90 1.208 . S
C90 O88 1.247 . S
C90 O89 1.208 . S
C91 O96 1.247 . S
C91 O97 1.208 . S
C92 O84 1.315 . S
C92 O87 1.279 . S
C93 O94 1.315 . S
C93 O95 1.279 . S
O94 Cd86 2.223 . S
O94 C93 1.315 . S
O95 Cd85 2.240 . S
O95 C93 1.279 . S
O96 Cd86 2.297 1_455 S
O96 C91 1.247 . S
O97 Cd86 2.439 1_455 S
O97 C91 1.208 . S
O98 Cd99 2.223 . S
O98 C106 1.315 . S
Cd99 O98 2.223 . S
Cd99 O102 2.297 1_565 S
Cd99 O103 2.439 1_565 S
Cd99 O109 2.240 . S
Cd100 O101 2.240 . S
Cd100 O108 2.223 . S
Cd100 O110 2.297 . S
Cd100 O111 2.439 . S
O101 Cd100 2.240 . S
O101 C106 1.279 . S
O102 Cd99 2.297 1_545 S
O102 C104 1.247 . S
O103 Cd99 2.439 1_545 S
O103 C104 1.208 . S
C104 O102 1.247 . S
C104 O103 1.208 . S
C105 O110 1.247 . S
C105 O111 1.208 . S
C106 O98 1.315 . S
C106 O101 1.279 . S
C107 O108 1.315 . S
C107 O109 1.279 . S
O108 Cd100 2.223 . S
O108 C107 1.315 . S
O109 Cd99 2.240 . S
O109 C107 1.279 . S
O110 Cd100 2.297 . S
O110 C105 1.247 . S
O111 Cd100 2.439 . S
O111 C105 1.208 . S
O112 Cd113 2.223 . S
O112 C120 1.315 . S
Cd113 O112 2.223 . S
Cd113 O116 2.297 . S
Cd113 O117 2.439 . S
Cd113 O123 2.240 . S
Cd114 O115 2.240 . S
Cd114 O122 2.223 . S
Cd114 O124 2.297 . S
Cd114 O125 2.439 . S
O115 Cd114 2.240 . S
O115 C120 1.279 . S
O116 Cd113 2.297 . S
O116 C118 1.247 . S
O117 Cd113 2.439 . S
O117 C118 1.208 . S
C118 O116 1.247 . S
C118 O117 1.208 . S
C119 O124 1.247 . S
C119 O125 1.208 . S
C120 O112 1.315 . S
C120 O115 1.279 . S
C121 O122 1.315 . S
C121 O123 1.279 . S
O122 Cd114 2.223 . S
O122 C121 1.315 . S
O123 Cd113 2.240 . S
O123 C121 1.279 . S
O124 Cd114 2.297 . S
O124 C119 1.247 . S
O125 Cd114 2.439 . S
O125 C119 1.208 . S
O126 Cd127 2.223 . S
O126 C134 1.315 . S
Cd127 O126 2.223 . S
Cd127 O130 2.297 . S
Cd127 O131 2.439 . S
Cd127 O137 2.240 . S
Cd128 O129 2.240 . S
Cd128 O136 2.223 . S
Cd128 O138 2.297 . S
Cd128 O139 2.439 . S
O129 Cd128 2.240 . S
O129 C134 1.279 . S
O130 Cd127 2.297 . S
O130 C132 1.247 . S
O131 Cd127 2.439 . S
O131 C132 1.208 . S
C132 O130 1.247 . S
C132 O131 1.208 . S
C133 O138 1.247 . S
C133 O139 1.208 . S
C134 O126 1.315 . S
C134 O129 1.279 . S
C135 O136 1.315 . S
C135 O137 1.279 . S
O136 Cd128 2.223 . S
O136 C135 1.315 . S
O137 Cd127 2.240 . S
O137 C135 1.279 . S
O138 Cd128 2.297 . S
O138 C133 1.247 . S
O139 Cd128 2.439 . S
O139 C133 1.208 . S
O140 Cd141 2.223 . S
O140 C148 1.315 . S
Cd141 O140 2.223 . S
Cd141 O144 2.297 1_455 S
Cd141 O145 2.439 1_455 S
Cd141 O151 2.240 . S
Cd142 O143 2.240 . S
Cd142 O150 2.223 . S
Cd142 O152 2.297 . S
Cd142 O153 2.439 . S
O143 Cd142 2.240 . S
O143 C148 1.279 . S
O144 Cd141 2.297 1_655 S
O144 C146 1.247 . S
O145 Cd141 2.439 1_655 S
O145 C146 1.208 . S
C146 O144 1.247 . S
C146 O145 1.208 . S
C147 O152 1.247 . S
C147 O153 1.208 . S
C148 O140 1.315 . S
C148 O143 1.279 . S
C149 O150 1.315 . S
C149 O151 1.279 . S
O150 Cd142 2.223 . S
O150 C149 1.315 . S
O151 Cd141 2.240 . S
O151 C149 1.279 . S
O152 Cd142 2.297 . S
O152 C147 1.247 . S
O153 Cd142 2.439 . S
O153 C147 1.208 . S
O154 Cd155 2.223 . S
O154 C162 1.315 . S
Cd155 O154 2.223 . S
Cd155 O158 2.297 1_545 S
Cd155 O159 2.439 1_545 S
Cd155 O165 2.240 . S
Cd156 O157 2.240 . S
Cd156 O164 2.223 . S
Cd156 O166 2.297 . S
Cd156 O167 2.439 . S
O157 Cd156 2.240 . S
O157 C162 1.279 . S
O158 Cd155 2.297 1_565 S
O158 C160 1.247 . S
O159 Cd155 2.439 1_565 S
O159 C160 1.208 . S
C160 O158 1.247 . S
C160 O159 1.208 . S
C161 O166 1.247 . S
C161 O167 1.208 . S
C162 O154 1.315 . S
C162 O157 1.279 . S
C163 O164 1.315 . S
C163 O165 1.279 . S
O164 Cd156 2.223 . S
O164 C163 1.315 . S
O165 Cd155 2.240 . S
O165 C163 1.279 . S
O166 Cd156 2.297 . S
O166 C161 1.247 . S
O167 Cd156 2.439 . S
O167 C161 1.208 . S
O168 Cd169 2.223 . S
O168 C176 1.315 . S
Cd169 O168 2.223 . S
Cd169 O172 2.297 . S
Cd169 O173 2.439 . S
Cd169 O179 2.240 . S
Cd170 O171 2.240 . S
Cd170 O178 2.223 . S
Cd170 O180 2.297 . S
Cd170 O181 2.439 . S
O171 Cd170 2.240 . S
O171 C176 1.279 . S
O172 Cd169 2.297 . S
O172 C174 1.247 . S
O173 Cd169 2.439 . S
O173 C174 1.208 . S
C174 O172 1.247 . S
C174 O173 1.208 . S
C175 O180 1.247 . S
C175 O181 1.208 . S
C176 O168 1.315 . S
C176 O171 1.279 . S
C177 O178 1.315 . S
C177 O179 1.279 . S
O178 Cd170 2.223 . S
O178 C177 1.315 . S
O179 Cd169 2.240 . S
O179 C177 1.279 . S
O180 Cd170 2.297 . S
O180 C175 1.247 . S
O181 Cd170 2.439 . S
O181 C175 1.208 . S
O182 Cd183 2.223 . S
O182 C190 1.315 . S
Cd183 O182 2.223 . S
Cd183 O186 2.297 . S
Cd183 O187 2.439 . S
Cd183 O193 2.240 . S
Cd184 O185 2.240 . S
Cd184 O192 2.223 . S
Cd184 O194 2.297 . S
Cd184 O195 2.439 . S
O185 Cd184 2.240 . S
O185 C190 1.279 . S
O186 Cd183 2.297 . S
O186 C188 1.247 . S
O187 Cd183 2.439 . S
O187 C188 1.208 . S
C188 O186 1.247 . S
C188 O187 1.208 . S
C189 O194 1.247 . S
C189 O195 1.208 . S
C190 O182 1.315 . S
C190 O185 1.279 . S
C191 O192 1.315 . S
C191 O193 1.279 . S
O192 Cd184 2.223 . S
O192 C191 1.315 . S
O193 Cd183 2.240 . S
O193 C191 1.279 . S
O194 Cd184 2.297 . S
O194 C189 1.247 . S
O195 Cd184 2.439 . S
O195 C189 1.208 . S
O196 Cd197 2.223 . S
O196 C204 1.315 . S
Cd197 O196 2.223 . S
Cd197 O200 2.297 1_455 S
Cd197 O201 2.439 1_455 S
Cd197 O207 2.240 . S
Cd198 O199 2.240 . S
Cd198 O206 2.223 . S
Cd198 O208 2.297 . S
Cd198 O209 2.439 . S
O199 Cd198 2.240 . S
O199 C204 1.279 . S
O200 Cd197 2.297 1_655 S
O200 C202 1.247 . S
O201 Cd197 2.439 1_655 S
O201 C202 1.208 . S
C202 O200 1.247 . S
C202 O201 1.208 . S
C203 O208 1.247 . S
C203 O209 1.208 . S
C204 O196 1.315 . S
C204 O199 1.279 . S
C205 O206 1.315 . S
C205 O207 1.279 . S
O206 Cd198 2.223 . S
O206 C205 1.315 . S
O207 Cd197 2.240 . S
O207 C205 1.279 . S
O208 Cd198 2.297 . S
O208 C203 1.247 . S
O209 Cd198 2.439 . S
O209 C203 1.208 . S
O210 Cd211 2.223 . S
O210 C218 1.315 . S
Cd211 O210 2.223 . S
Cd211 O214 2.297 1_545 S
Cd211 O215 2.439 1_545 S
Cd211 O221 2.240 . S
Cd212 O213 2.240 . S
Cd212 O220 2.223 . S
Cd212 O222 2.297 . S
Cd212 O223 2.439 . S
O213 Cd212 2.240 . S
O213 C218 1.279 . S
O214 Cd211 2.297 1_565 S
O214 C216 1.247 . S
O215 Cd211 2.439 1_565 S
O215 C216 1.208 . S
C216 O214 1.247 . S
C216 O215 1.208 . S
C217 O222 1.247 . S
C217 O223 1.208 . S
C218 O210 1.315 . S
C218 O213 1.279 . S
C219 O220 1.315 . S
C219 O221 1.279 . S
O220 Cd212 2.223 . S
O220 C219 1.315 . S
O221 Cd211 2.240 . S
O221 C219 1.279 . S
O222 Cd212 2.297 . S
O222 C217 1.247 . S
O223 Cd212 2.439 . S
O223 C217 1.208 . S
H224 C232 0.950 . S
H225 C237 0.950 . S
H226 C234 0.950 . S
H227 C236 0.950 . S
H228 C238 0.950 . S
H229 C240 0.950 . S
H230 C242 0.950 . S
H231 C243 0.950 . S
C232 H224 0.950 . S
C232 C233 1.386 . S
C232 C234 1.391 . S
C233 C232 1.386 . S
C233 C237 1.393 . S
C234 H226 0.950 . S
C234 C232 1.391 . S
C234 C235 1.400 . S
C235 C234 1.400 . S
C235 C236 1.398 . S
C235 C241 1.491 . S
C236 H227 0.950 . S
C236 C235 1.398 . S
C236 C237 1.391 . S
C237 H225 0.950 . S
C237 C233 1.393 . S
C237 C236 1.391 . S
C238 H228 0.950 . S
C238 C239 1.386 . S
C238 C240 1.391 . S
C239 C238 1.386 . S
C239 C243 1.393 . S
C240 H229 0.950 . S
C240 C238 1.391 . S
C240 C241 1.400 . S
C241 C235 1.491 . S
C241 C240 1.400 . S
C241 C242 1.398 . S
C242 H230 0.950 . S
C242 C241 1.398 . S
C242 C243 1.391 . S
C243 H231 0.950 . S
C243 C239 1.393 . S
C243 C242 1.391 . S
H244 C252 0.950 . S
H245 C257 0.950 . S
H246 C254 0.950 . S
H247 C256 0.950 . S
H248 C258 0.950 . S
H249 C260 0.950 . S
H250 C262 0.950 . S
H251 C263 0.950 . S
C252 H244 0.950 . S
C252 C253 1.386 . S
C252 C254 1.391 . S
C253 C252 1.386 . S
C253 C257 1.393 . S
C254 H246 0.950 . S
C254 C252 1.391 . S
C254 C255 1.400 . S
C255 C254 1.400 . S
C255 C256 1.398 . S
C255 C261 1.491 . S
C256 H247 0.950 . S
C256 C255 1.398 . S
C256 C257 1.391 . S
C257 H245 0.950 . S
C257 C253 1.393 . S
C257 C256 1.391 . S
C258 H248 0.950 . S
C258 C259 1.386 . S
C258 C260 1.391 . S
C259 C258 1.386 . S
C259 C263 1.393 . S
C260 H249 0.950 . S
C260 C258 1.391 . S
C260 C261 1.400 . S
C261 C255 1.491 . S
C261 C260 1.400 . S
C261 C262 1.398 . S
C262 H250 0.950 . S
C262 C261 1.398 . S
C262 C263 1.391 . S
C263 H251 0.950 . S
C263 C259 1.393 . S
C263 C262 1.391 . S
H264 C272 0.950 . S
H265 C277 0.950 . S
H266 C274 0.950 . S
H267 C276 0.950 . S
H268 C278 0.950 . S
H269 C280 0.950 . S
H270 C282 0.950 . S
H271 C283 0.950 . S
C272 H264 0.950 . S
C272 C273 1.386 . S
C272 C274 1.391 . S
C273 C272 1.386 . S
C273 C277 1.393 . S
C274 H266 0.950 . S
C274 C272 1.391 . S
C274 C275 1.400 . S
C275 C274 1.400 . S
C275 C276 1.398 . S
C275 C281 1.491 . S
C276 H267 0.950 . S
C276 C275 1.398 . S
C276 C277 1.391 . S
C277 H265 0.950 . S
C277 C273 1.393 . S
C277 C276 1.391 . S
C278 H268 0.950 . S
C278 C279 1.386 . S
C278 C280 1.391 . S
C279 C278 1.386 . S
C279 C283 1.393 . S
C280 H269 0.950 . S
C280 C278 1.391 . S
C280 C281 1.400 . S
C281 C275 1.491 . S
C281 C280 1.400 . S
C281 C282 1.398 . S
C282 H270 0.950 . S
C282 C281 1.398 . S
C282 C283 1.391 . S
C283 H271 0.950 . S
C283 C279 1.393 . S
C283 C282 1.391 . S
H284 C292 0.950 . S
H285 C297 0.950 . S
H286 C294 0.950 . S
H287 C296 0.950 . S
H288 C298 0.950 . S
H289 C300 0.950 . S
H290 C302 0.950 . S
H291 C303 0.950 . S
C292 H284 0.950 . S
C292 C293 1.386 . S
C292 C294 1.391 . S
C293 C292 1.386 . S
C293 C297 1.393 . S
C294 H286 0.950 . S
C294 C292 1.391 . S
C294 C295 1.400 . S
C295 C294 1.400 . S
C295 C296 1.398 . S
C295 C301 1.491 . S
C296 H287 0.950 . S
C296 C295 1.398 . S
C296 C297 1.391 . S
C297 H285 0.950 . S
C297 C293 1.393 . S
C297 C296 1.391 . S
C298 H288 0.950 . S
C298 C299 1.386 . S
C298 C300 1.391 . S
C299 C298 1.386 . S
C299 C303 1.393 . S
C300 H289 0.950 . S
C300 C298 1.391 . S
C300 C301 1.400 . S
C301 C295 1.491 . S
C301 C300 1.400 . S
C301 C302 1.398 . S
C302 H290 0.950 . S
C302 C301 1.398 . S
C302 C303 1.391 . S
C303 H291 0.950 . S
C303 C299 1.393 . S
C303 C302 1.391 . S
H304 C312 0.950 . S
H305 C317 0.950 . S
H306 C314 0.950 . S
H307 C316 0.950 . S
H308 C318 0.950 . S
H309 C320 0.950 . S
H310 C322 0.950 . S
H311 C323 0.950 . S
C312 H304 0.950 . S
C312 C313 1.386 . S
C312 C314 1.391 . S
C313 C312 1.386 . S
C313 C317 1.393 . S
C314 H306 0.950 . S
C314 C312 1.391 . S
C314 C315 1.400 . S
C315 C314 1.400 . S
C315 C316 1.398 . S
C315 C321 1.491 . S
C316 H307 0.950 . S
C316 C315 1.398 . S
C316 C317 1.391 . S
C317 H305 0.950 . S
C317 C313 1.393 . S
C317 C316 1.391 . S
C318 H308 0.950 . S
C318 C319 1.386 . S
C318 C320 1.391 . S
C319 C318 1.386 . S
C319 C323 1.393 . S
C320 H309 0.950 . S
C320 C318 1.391 . S
C320 C321 1.400 . S
C321 C315 1.491 . S
C321 C320 1.400 . S
C321 C322 1.398 . S
C322 H310 0.950 . S
C322 C321 1.398 . S
C322 C323 1.391 . S
C323 H311 0.950 . S
C323 C319 1.393 . S
C323 C322 1.391 . S
H324 C332 0.950 . S
H325 C337 0.950 . S
H326 C334 0.950 . S
H327 C336 0.950 . S
H328 C338 0.950 . S
H329 C340 0.950 . S
H330 C342 0.950 . S
H331 C343 0.950 . S
C332 H324 0.950 . S
C332 C333 1.386 . S
C332 C334 1.391 . S
C333 C332 1.386 . S
C333 C337 1.393 . S
C334 H326 0.950 . S
C334 C332 1.391 . S
C334 C335 1.400 . S
C335 C334 1.400 . S
C335 C336 1.398 . S
C335 C341 1.491 . S
C336 H327 0.950 . S
C336 C335 1.398 . S
C336 C337 1.391 . S
C337 H325 0.950 . S
C337 C333 1.393 . S
C337 C336 1.391 . S
C338 H328 0.950 . S
C338 C339 1.386 . S
C338 C340 1.391 . S
C339 C338 1.386 . S
C339 C343 1.393 . S
C340 H329 0.950 . S
C340 C338 1.391 . S
C340 C341 1.400 . S
C341 C335 1.491 . S
C341 C340 1.400 . S
C341 C342 1.398 . S
C342 H330 0.950 . S
C342 C341 1.398 . S
C342 C343 1.391 . S
C343 H331 0.950 . S
C343 C339 1.393 . S
C343 C342 1.391 . S
H344 C352 0.950 . S
H345 C357 0.950 . S
H346 C354 0.950 . S
H347 C356 0.950 . S
H348 C358 0.950 . S
H349 C360 0.950 . S
H350 C362 0.950 . S
H351 C363 0.950 . S
C352 H344 0.950 . S
C352 C353 1.386 . S
C352 C354 1.391 . S
C353 C352 1.386 . S
C353 C357 1.393 . S
C354 H346 0.950 . S
C354 C352 1.391 . S
C354 C355 1.400 . S
C355 C354 1.400 . S
C355 C356 1.398 . S
C355 C361 1.491 . S
C356 H347 0.950 . S
C356 C355 1.398 . S
C356 C357 1.391 . S
C357 H345 0.950 . S
C357 C353 1.393 . S
C357 C356 1.391 . S
C358 H348 0.950 . S
C358 C359 1.386 . S
C358 C360 1.391 . S
C359 C358 1.386 . S
C359 C363 1.393 . S
C360 H349 0.950 . S
C360 C358 1.391 . S
C360 C361 1.400 . S
C361 C355 1.491 . S
C361 C360 1.400 . S
C361 C362 1.398 . S
C362 H350 0.950 . S
C362 C361 1.398 . S
C362 C363 1.391 . S
C363 H351 0.950 . S
C363 C359 1.393 . S
C363 C362 1.391 . S
H364 C372 0.950 . S
H365 C377 0.950 . S
H366 C374 0.950 . S
H367 C376 0.950 . S
H368 C378 0.950 . S
H369 C380 0.950 . S
H370 C382 0.950 . S
H371 C383 0.950 . S
C372 H364 0.950 . S
C372 C373 1.386 . S
C372 C374 1.391 . S
C373 C372 1.386 . S
C373 C377 1.393 . S
C374 H366 0.950 . S
C374 C372 1.391 . S
C374 C375 1.400 . S
C375 C374 1.400 . S
C375 C376 1.398 . S
C375 C381 1.491 . S
C376 H367 0.950 . S
C376 C375 1.398 . S
C376 C377 1.391 . S
C377 H365 0.950 . S
C377 C373 1.393 . S
C377 C376 1.391 . S
C378 H368 0.950 . S
C378 C379 1.386 . S
C378 C380 1.391 . S
C379 C378 1.386 . S
C379 C383 1.393 . S
C380 H369 0.950 . S
C380 C378 1.391 . S
C380 C381 1.400 . S
C381 C375 1.491 . S
C381 C380 1.400 . S
C381 C382 1.398 . S
C382 H370 0.950 . S
C382 C381 1.398 . S
C382 C383 1.391 . S
C383 H371 0.950 . S
C383 C379 1.393 . S
C383 C382 1.391 . S
H384 C392 0.950 . S
H385 C397 0.950 . S
H386 C394 0.950 . S
H387 C396 0.950 . S
H388 C398 0.950 . S
H389 C400 0.950 . S
H390 C402 0.950 . S
H391 C403 0.950 . S
C392 H384 0.950 . S
C392 C393 1.386 . S
C392 C394 1.391 . S
C393 C392 1.386 . S
C393 C397 1.393 . S
C394 H386 0.950 . S
C394 C392 1.391 . S
C394 C395 1.400 . S
C395 C394 1.400 . S
C395 C396 1.398 . S
C395 C401 1.491 . S
C396 H387 0.950 . S
C396 C395 1.398 . S
C396 C397 1.391 . S
C397 H385 0.950 . S
C397 C393 1.393 . S
C397 C396 1.391 . S
C398 H388 0.950 . S
C398 C399 1.386 . S
C398 C400 1.391 . S
C399 C398 1.386 . S
C399 C403 1.393 . S
C400 H389 0.950 . S
C400 C398 1.391 . S
C400 C401 1.400 . S
C401 C395 1.491 . S
C401 C400 1.400 . S
C401 C402 1.398 . S
C402 H390 0.950 . S
C402 C401 1.398 . S
C402 C403 1.391 . S
C403 H391 0.950 . S
C403 C399 1.393 . S
C403 C402 1.391 . S
H404 C412 0.950 . S
H405 C417 0.950 . S
H406 C414 0.950 . S
H407 C416 0.950 . S
H408 C418 0.950 . S
H409 C420 0.950 . S
H410 C422 0.950 . S
H411 C423 0.950 . S
C412 H404 0.950 . S
C412 C413 1.386 . S
C412 C414 1.391 . S
C413 C412 1.386 . S
C413 C417 1.393 . S
C414 H406 0.950 . S
C414 C412 1.391 . S
C414 C415 1.400 . S
C415 C414 1.400 . S
C415 C416 1.398 . S
C415 C421 1.491 . S
C416 H407 0.950 . S
C416 C415 1.398 . S
C416 C417 1.391 . S
C417 H405 0.950 . S
C417 C413 1.393 . S
C417 C416 1.391 . S
C418 H408 0.950 . S
C418 C419 1.386 . S
C418 C420 1.391 . S
C419 C418 1.386 . S
C419 C423 1.393 . S
C420 H409 0.950 . S
C420 C418 1.391 . S
C420 C421 1.400 . S
C421 C415 1.491 . S
C421 C420 1.400 . S
C421 C422 1.398 . S
C422 H410 0.950 . S
C422 C421 1.398 . S
C422 C423 1.391 . S
C423 H411 0.950 . S
C423 C419 1.393 . S
C423 C422 1.391 . S
H424 C432 0.950 . S
H425 C437 0.950 . S
H426 C434 0.950 . S
H427 C436 0.950 . S
H428 C438 0.950 . S
H429 C440 0.950 . S
H430 C442 0.950 . S
H431 C443 0.950 . S
C432 H424 0.950 . S
C432 C433 1.386 . S
C432 C434 1.391 . S
C433 C432 1.386 . S
C433 C437 1.393 . S
C434 H426 0.950 . S
C434 C432 1.391 . S
C434 C435 1.400 . S
C435 C434 1.400 . S
C435 C436 1.398 . S
C435 C441 1.491 . S
C436 H427 0.950 . S
C436 C435 1.398 . S
C436 C437 1.391 . S
C437 H425 0.950 . S
C437 C433 1.393 . S
C437 C436 1.391 . S
C438 H428 0.950 . S
C438 C439 1.386 . S
C438 C440 1.391 . S
C439 C438 1.386 . S
C439 C443 1.393 . S
C440 H429 0.950 . S
C440 C438 1.391 . S
C440 C441 1.400 . S
C441 C435 1.491 . S
C441 C440 1.400 . S
C441 C442 1.398 . S
C442 H430 0.950 . S
C442 C441 1.398 . S
C442 C443 1.391 . S
C443 H431 0.950 . S
C443 C439 1.393 . S
C443 C442 1.391 . S
H444 C452 0.950 . S
H445 C457 0.950 . S
H446 C454 0.950 . S
H447 C456 0.950 . S
H448 C458 0.950 . S
H449 C460 0.950 . S
H450 C462 0.950 . S
H451 C463 0.950 . S
C452 H444 0.950 . S
C452 C453 1.386 . S
C452 C454 1.391 . S
C453 C452 1.386 . S
C453 C457 1.393 . S
C454 H446 0.950 . S
C454 C452 1.391 . S
C454 C455 1.400 . S
C455 C454 1.400 . S
C455 C456 1.398 . S
C455 C461 1.491 . S
C456 H447 0.950 . S
C456 C455 1.398 . S
C456 C457 1.391 . S
C457 H445 0.950 . S
C457 C453 1.393 . S
C457 C456 1.391 . S
C458 H448 0.950 . S
C458 C459 1.386 . S
C458 C460 1.391 . S
C459 C458 1.386 . S
C459 C463 1.393 . S
C460 H449 0.950 . S
C460 C458 1.391 . S
C460 C461 1.400 . S
C461 C455 1.491 . S
C461 C460 1.400 . S
C461 C462 1.398 . S
C462 H450 0.950 . S
C462 C461 1.398 . S
C462 C463 1.391 . S
C463 H451 0.950 . S
C463 C459 1.393 . S
C463 C462 1.391 . S
H464 C472 0.950 . S
H465 C477 0.950 . S
H466 C474 0.950 . S
H467 C476 0.950 . S
H468 C478 0.950 . S
H469 C480 0.950 . S
H470 C482 0.950 . S
H471 C483 0.950 . S
C472 H464 0.950 . S
C472 C473 1.386 . S
C472 C474 1.391 . S
C473 C472 1.386 . S
C473 C477 1.393 . S
C474 H466 0.950 . S
C474 C472 1.391 . S
C474 C475 1.400 . S
C475 C474 1.400 . S
C475 C476 1.398 . S
C475 C481 1.491 . S
C476 H467 0.950 . S
C476 C475 1.398 . S
C476 C477 1.391 . S
C477 H465 0.950 . S
C477 C473 1.393 . S
C477 C476 1.391 . S
C478 H468 0.950 . S
C478 C479 1.386 . S
C478 C480 1.391 . S
C479 C478 1.386 . S
C479 C483 1.393 . S
C480 H469 0.950 . S
C480 C478 1.391 . S
C480 C481 1.400 . S
C481 C475 1.491 . S
C481 C480 1.400 . S
C481 C482 1.398 . S
C482 H470 0.950 . S
C482 C481 1.398 . S
C482 C483 1.391 . S
C483 H471 0.950 . S
C483 C479 1.393 . S
C483 C482 1.391 . S
H484 C492 0.950 . S
H485 C497 0.950 . S
H486 C494 0.950 . S
H487 C496 0.950 . S
H488 C498 0.950 . S
H489 C500 0.950 . S
H490 C502 0.950 . S
H491 C503 0.950 . S
C492 H484 0.950 . S
C492 C493 1.386 . S
C492 C494 1.391 . S
C493 C492 1.386 . S
C493 C497 1.393 . S
C494 H486 0.950 . S
C494 C492 1.391 . S
C494 C495 1.400 . S
C495 C494 1.400 . S
C495 C496 1.398 . S
C495 C501 1.491 . S
C496 H487 0.950 . S
C496 C495 1.398 . S
C496 C497 1.391 . S
C497 H485 0.950 . S
C497 C493 1.393 . S
C497 C496 1.391 . S
C498 H488 0.950 . S
C498 C499 1.386 . S
C498 C500 1.391 . S
C499 C498 1.386 . S
C499 C503 1.393 . S
C500 H489 0.950 . S
C500 C498 1.391 . S
C500 C501 1.400 . S
C501 C495 1.491 . S
C501 C500 1.400 . S
C501 C502 1.398 . S
C502 H490 0.950 . S
C502 C501 1.398 . S
C502 C503 1.391 . S
C503 H491 0.950 . S
C503 C499 1.393 . S
C503 C502 1.391 . S
H504 C512 0.950 . S
H505 C517 0.950 . S
H506 C514 0.950 . S
H507 C516 0.950 . S
H508 C518 0.950 . S
H509 C520 0.950 . S
H510 C522 0.950 . S
H511 C523 0.950 . S
C512 H504 0.950 . S
C512 C513 1.386 . S
C512 C514 1.391 . S
C513 C512 1.386 . S
C513 C517 1.393 . S
C514 H506 0.950 . S
C514 C512 1.391 . S
C514 C515 1.400 . S
C515 C514 1.400 . S
C515 C516 1.398 . S
C515 C521 1.491 . S
C516 H507 0.950 . S
C516 C515 1.398 . S
C516 C517 1.391 . S
C517 H505 0.950 . S
C517 C513 1.393 . S
C517 C516 1.391 . S
C518 H508 0.950 . S
C518 C519 1.386 . S
C518 C520 1.391 . S
C519 C518 1.386 . S
C519 C523 1.393 . S
C520 H509 0.950 . S
C520 C518 1.391 . S
C520 C521 1.400 . S
C521 C515 1.491 . S
C521 C520 1.400 . S
C521 C522 1.398 . S
C522 H510 0.950 . S
C522 C521 1.398 . S
C522 C523 1.391 . S
C523 H511 0.950 . S
C523 C519 1.393 . S
C523 C522 1.391 . S
H524 C532 0.950 . S
H525 C537 0.950 . S
H526 C534 0.950 . S
H527 C536 0.950 . S
H528 C538 0.950 . S
H529 C540 0.950 . S
H530 C542 0.950 . S
H531 C543 0.950 . S
C532 H524 0.950 . S
C532 C533 1.386 . S
C532 C534 1.391 . S
C533 C532 1.386 . S
C533 C537 1.393 . S
C534 H526 0.950 . S
C534 C532 1.391 . S
C534 C535 1.400 . S
C535 C534 1.400 . S
C535 C536 1.398 . S
C535 C541 1.491 . S
C536 H527 0.950 . S
C536 C535 1.398 . S
C536 C537 1.391 . S
C537 H525 0.950 . S
C537 C533 1.393 . S
C537 C536 1.391 . S
C538 H528 0.950 . S
C538 C539 1.386 . S
C538 C540 1.391 . S
C539 C538 1.386 . S
C539 C543 1.393 . S
C540 H529 0.950 . S
C540 C538 1.391 . S
C540 C541 1.400 . S
C541 C535 1.491 . S
C541 C540 1.400 . S
C541 C542 1.398 . S
C542 H530 0.950 . S
C542 C541 1.398 . S
C542 C543 1.391 . S
C543 H531 0.950 . S
C543 C539 1.393 . S
C543 C542 1.391 . S
H544 C552 0.950 . S
H545 C557 0.950 . S
H546 C554 0.950 . S
H547 C556 0.950 . S
H548 C558 0.950 . S
H549 C560 0.950 . S
H550 C562 0.950 . S
H551 C563 0.950 . S
C552 H544 0.950 . S
C552 C553 1.386 . S
C552 C554 1.391 . S
C553 C552 1.386 . S
C553 C557 1.393 . S
C554 H546 0.950 . S
C554 C552 1.391 . S
C554 C555 1.400 . S
C555 C554 1.400 . S
C555 C556 1.398 . S
C555 C561 1.491 . S
C556 H547 0.950 . S
C556 C555 1.398 . S
C556 C557 1.391 . S
C557 H545 0.950 . S
C557 C553 1.393 . S
C557 C556 1.391 . S
C558 H548 0.950 . S
C558 C559 1.386 . S
C558 C560 1.391 . S
C559 C558 1.386 . S
C559 C563 1.393 . S
C560 H549 0.950 . S
C560 C558 1.391 . S
C560 C561 1.400 . S
C561 C555 1.491 . S
C561 C560 1.400 . S
C561 C562 1.398 . S
C562 H550 0.950 . S
C562 C561 1.398 . S
C562 C563 1.391 . S
C563 H551 0.950 . S
C563 C559 1.393 . S
C563 C562 1.391 . S
H564 C572 0.950 . S
H565 C577 0.950 . S
H566 C574 0.950 . S
H567 C576 0.950 . S
H568 C578 0.950 . S
H569 C580 0.950 . S
H570 C582 0.950 . S
H571 C583 0.950 . S
C572 H564 0.950 . S
C572 C573 1.386 . S
C572 C574 1.391 . S
C573 C572 1.386 . S
C573 C577 1.393 . S
C574 H566 0.950 . S
C574 C572 1.391 . S
C574 C575 1.400 . S
C575 C574 1.400 . S
C575 C576 1.398 . S
C575 C581 1.491 . S
C576 H567 0.950 . S
C576 C575 1.398 . S
C576 C577 1.391 . S
C577 H565 0.950 . S
C577 C573 1.393 . S
C577 C576 1.391 . S
C578 H568 0.950 . S
C578 C579 1.386 . S
C578 C580 1.391 . S
C579 C578 1.386 . S
C579 C583 1.393 . S
C580 H569 0.950 . S
C580 C578 1.391 . S
C580 C581 1.400 . S
C581 C575 1.491 . S
C581 C580 1.400 . S
C581 C582 1.398 . S
C582 H570 0.950 . S
C582 C581 1.398 . S
C582 C583 1.391 . S
C583 H571 0.950 . S
C583 C579 1.393 . S
C583 C582 1.391 . S
H584 C592 0.950 . S
H585 C597 0.950 . S
H586 C594 0.950 . S
H587 C596 0.950 . S
H588 C598 0.950 . S
H589 C600 0.950 . S
H590 C602 0.950 . S
H591 C603 0.950 . S
C592 H584 0.950 . S
C592 C593 1.386 . S
C592 C594 1.391 . S
C593 C592 1.386 . S
C593 C597 1.393 . S
C594 H586 0.950 . S
C594 C592 1.391 . S
C594 C595 1.400 . S
C595 C594 1.400 . S
C595 C596 1.398 . S
C595 C601 1.491 . S
C596 H587 0.950 . S
C596 C595 1.398 . S
C596 C597 1.391 . S
C597 H585 0.950 . S
C597 C593 1.393 . S
C597 C596 1.391 . S
C598 H588 0.950 . S
C598 C599 1.386 . S
C598 C600 1.391 . S
C599 C598 1.386 . S
C599 C603 1.393 . S
C600 H589 0.950 . S
C600 C598 1.391 . S
C600 C601 1.400 . S
C601 C595 1.491 . S
C601 C600 1.400 . S
C601 C602 1.398 . S
C602 H590 0.950 . S
C602 C601 1.398 . S
C602 C603 1.391 . S
C603 H591 0.950 . S
C603 C599 1.393 . S
C603 C602 1.391 . S
H604 C612 0.950 . S
H605 C617 0.950 . S
H606 C614 0.950 . S
H607 C616 0.950 . S
H608 C618 0.950 . S
H609 C620 0.950 . S
H610 C622 0.950 . S
H611 C623 0.950 . S
C612 H604 0.950 . S
C612 C613 1.386 . S
C612 C614 1.391 . S
C613 C612 1.386 . S
C613 C617 1.393 . S
C614 H606 0.950 . S
C614 C612 1.391 . S
C614 C615 1.400 . S
C615 C614 1.400 . S
C615 C616 1.398 . S
C615 C621 1.491 . S
C616 H607 0.950 . S
C616 C615 1.398 . S
C616 C617 1.391 . S
C617 H605 0.950 . S
C617 C613 1.393 . S
C617 C616 1.391 . S
C618 H608 0.950 . S
C618 C619 1.386 . S
C618 C620 1.391 . S
C619 C618 1.386 . S
C619 C623 1.393 . S
C620 H609 0.950 . S
C620 C618 1.391 . S
C620 C621 1.400 . S
C621 C615 1.491 . S
C621 C620 1.400 . S
C621 C622 1.398 . S
C622 H610 0.950 . S
C622 C621 1.398 . S
C622 C623 1.391 . S
C623 H611 0.950 . S
C623 C619 1.393 . S
C623 C622 1.391 . S
H624 C632 0.950 . S
H625 C637 0.950 . S
H626 C634 0.950 . S
H627 C636 0.950 . S
H628 C638 0.950 . S
H629 C640 0.950 . S
H630 C642 0.950 . S
H631 C643 0.950 . S
C632 H624 0.950 . S
C632 C633 1.386 . S
C632 C634 1.391 . S
C633 C632 1.386 . S
C633 C637 1.393 . S
C634 H626 0.950 . S
C634 C632 1.391 . S
C634 C635 1.400 . S
C635 C634 1.400 . S
C635 C636 1.398 . S
C635 C641 1.491 . S
C636 H627 0.950 . S
C636 C635 1.398 . S
C636 C637 1.391 . S
C637 H625 0.950 . S
C637 C633 1.393 . S
C637 C636 1.391 . S
C638 H628 0.950 . S
C638 C639 1.386 . S
C638 C640 1.391 . S
C639 C638 1.386 . S
C639 C643 1.393 . S
C640 H629 0.950 . S
C640 C638 1.391 . S
C640 C641 1.400 . S
C641 C635 1.491 . S
C641 C640 1.400 . S
C641 C642 1.398 . S
C642 H630 0.950 . S
C642 C641 1.398 . S
C642 C643 1.391 . S
C643 H631 0.950 . S
C643 C639 1.393 . S
C643 C642 1.391 . S
H644 C652 0.950 . S
H645 C657 0.950 . S
H646 C654 0.950 . S
H647 C656 0.950 . S
H648 C658 0.950 . S
H649 C660 0.950 . S
H650 C662 0.950 . S
H651 C663 0.950 . S
C652 H644 0.950 . S
C652 C653 1.386 . S
C652 C654 1.391 . S
C653 C652 1.386 . S
C653 C657 1.393 . S
C654 H646 0.950 . S
C654 C652 1.391 . S
C654 C655 1.400 . S
C655 C654 1.400 . S
C655 C656 1.398 . S
C655 C661 1.491 . S
C656 H647 0.950 . S
C656 C655 1.398 . S
C656 C657 1.391 . S
C657 H645 0.950 . S
C657 C653 1.393 . S
C657 C656 1.391 . S
C658 H648 0.950 . S
C658 C659 1.386 . S
C658 C660 1.391 . S
C659 C658 1.386 . S
C659 C663 1.393 . S
C660 H649 0.950 . S
C660 C658 1.391 . S
C660 C661 1.400 . S
C661 C655 1.491 . S
C661 C660 1.400 . S
C661 C662 1.398 . S
C662 H650 0.950 . S
C662 C661 1.398 . S
C662 C663 1.391 . S
C663 H651 0.950 . S
C663 C659 1.393 . S
C663 C662 1.391 . S
H664 C672 0.950 . S
H665 C677 0.950 . S
H666 C674 0.950 . S
H667 C676 0.950 . S
H668 C678 0.950 . S
H669 C680 0.950 . S
H670 C682 0.950 . S
H671 C683 0.950 . S
C672 H664 0.950 . S
C672 C673 1.386 . S
C672 C674 1.391 . S
C673 C672 1.386 . S
C673 C677 1.393 . S
C674 H666 0.950 . S
C674 C672 1.391 . S
C674 C675 1.400 . S
C675 C674 1.400 . S
C675 C676 1.398 . S
C675 C681 1.491 . S
C676 H667 0.950 . S
C676 C675 1.398 . S
C676 C677 1.391 . S
C677 H665 0.950 . S
C677 C673 1.393 . S
C677 C676 1.391 . S
C678 H668 0.950 . S
C678 C679 1.386 . S
C678 C680 1.391 . S
C679 C678 1.386 . S
C679 C683 1.393 . S
C680 H669 0.950 . S
C680 C678 1.391 . S
C680 C681 1.400 . S
C681 C675 1.491 . S
C681 C680 1.400 . S
C681 C682 1.398 . S
C682 H670 0.950 . S
C682 C681 1.398 . S
C682 C683 1.391 . S
C683 H671 0.950 . S
C683 C679 1.393 . S
C683 C682 1.391 . S
H684 C692 0.950 . S
H685 C697 0.950 . S
H686 C694 0.950 . S
H687 C696 0.950 . S
H688 C698 0.950 . S
H689 C700 0.950 . S
H690 C702 0.950 . S
H691 C703 0.950 . S
C692 H684 0.950 . S
C692 C693 1.386 . S
C692 C694 1.391 . S
C693 C692 1.386 . S
C693 C697 1.393 . S
C694 H686 0.950 . S
C694 C692 1.391 . S
C694 C695 1.400 . S
C695 C694 1.400 . S
C695 C696 1.398 . S
C695 C701 1.491 . S
C696 H687 0.950 . S
C696 C695 1.398 . S
C696 C697 1.391 . S
C697 H685 0.950 . S
C697 C693 1.393 . S
C697 C696 1.391 . S
C698 H688 0.950 . S
C698 C699 1.386 . S
C698 C700 1.391 . S
C699 C698 1.386 . S
C699 C703 1.393 . S
C700 H689 0.950 . S
C700 C698 1.391 . S
C700 C701 1.400 . S
C701 C695 1.491 . S
C701 C700 1.400 . S
C701 C702 1.398 . S
C702 H690 0.950 . S
C702 C701 1.398 . S
C702 C703 1.391 . S
C703 H691 0.950 . S
C703 C699 1.393 . S
C703 C702 1.391 . S
H704 C712 0.950 . S
H705 C717 0.950 . S
H706 C714 0.950 . S
H707 C716 0.950 . S
H708 C718 0.950 . S
H709 C720 0.950 . S
H710 C722 0.950 . S
H711 C723 0.950 . S
C712 H704 0.950 . S
C712 C713 1.386 . S
C712 C714 1.391 . S
C713 C712 1.386 . S
C713 C717 1.393 . S
C714 H706 0.950 . S
C714 C712 1.391 . S
C714 C715 1.400 . S
C715 C714 1.400 . S
C715 C716 1.398 . S
C715 C721 1.491 1_554 S
C716 H707 0.950 . S
C716 C715 1.398 . S
C716 C717 1.391 . S
C717 H705 0.950 . S
C717 C713 1.393 . S
C717 C716 1.391 . S
C718 H708 0.950 . S
C718 C719 1.386 . S
C718 C720 1.391 . S
C719 C718 1.386 . S
C719 C723 1.393 . S
C720 H709 0.950 . S
C720 C718 1.391 . S
C720 C721 1.400 . S
C721 C715 1.491 1_556 S
C721 C720 1.400 . S
C721 C722 1.398 . S
C722 H710 0.950 . S
C722 C721 1.398 . S
C722 C723 1.391 . S
C723 H711 0.950 . S
C723 C719 1.393 . S
C723 C722 1.391 . S
H724 C732 0.950 . S
H725 C737 0.950 . S
H726 C734 0.950 . S
H727 C736 0.950 . S
H728 C738 0.950 . S
H729 C740 0.950 . S
H730 C742 0.950 . S
H731 C743 0.950 . S
C732 H724 0.950 . S
C732 C733 1.386 . S
C732 C734 1.391 . S
C733 C732 1.386 . S
C733 C737 1.393 . S
C734 H726 0.950 . S
C734 C732 1.391 . S
C734 C735 1.400 . S
C735 C734 1.400 . S
C735 C736 1.398 . S
C735 C741 1.491 . S
C736 H727 0.950 . S
C736 C735 1.398 . S
C736 C737 1.391 . S
C737 H725 0.950 . S
C737 C733 1.393 . S
C737 C736 1.391 . S
C738 H728 0.950 . S
C738 C739 1.386 . S
C738 C740 1.391 . S
C739 C738 1.386 . S
C739 C743 1.393 . S
C740 H729 0.950 . S
C740 C738 1.391 . S
C740 C741 1.400 . S
C741 C735 1.491 . S
C741 C740 1.400 . S
C741 C742 1.398 . S
C742 H730 0.950 . S
C742 C741 1.398 . S
C742 C743 1.391 . S
C743 H731 0.950 . S
C743 C739 1.393 . S
C743 C742 1.391 . S
H744 C752 0.950 . S
H745 C757 0.950 . S
H746 C754 0.950 . S
H747 C756 0.950 . S
H748 C758 0.933 1_455 S
H749 C760 0.946 1_455 S
H750 C762 0.950 . S
H751 C763 0.950 . S
C752 H744 0.950 . S
C752 C753 1.386 . S
C752 C754 1.391 . S
C753 C752 1.386 . S
C753 C757 1.393 . S
C754 H746 0.950 . S
C754 C752 1.391 . S
C754 C755 1.400 . S
C755 C754 1.400 . S
C755 C756 1.398 . S
C755 C761 1.491 1_554 S
C756 H747 0.950 . S
C756 C755 1.398 . S
C756 C757 1.391 . S
C757 H745 0.950 . S
C757 C753 1.393 . S
C757 C756 1.391 . S
C758 H748 0.933 1_655 S
C758 C759 1.386 . S
C758 C760 1.391 . S
C759 C758 1.386 . S
C759 C763 1.393 . S
C760 H749 0.946 1_655 S
C760 C758 1.391 . S
C760 C761 1.400 . S
C761 C755 1.491 1_556 S
C761 C760 1.400 . S
C761 C762 1.398 . S
C762 H750 0.950 . S
C762 C761 1.398 . S
C762 C763 1.391 . S
C763 H751 0.950 . S
C763 C759 1.393 . S
C763 C762 1.391 . S
H764 C772 0.950 . S
H765 C777 0.950 . S
H766 C774 0.950 . S
H767 C776 0.950 . S
H768 C778 0.950 . S
H769 C780 0.950 . S
H770 C782 0.950 . S
H771 C783 0.950 . S
C772 H764 0.950 . S
C772 C773 1.386 . S
C772 C774 1.391 . S
C773 C772 1.386 . S
C773 C777 1.393 . S
C774 H766 0.950 . S
C774 C772 1.391 . S
C774 C775 1.400 . S
C775 C774 1.400 . S
C775 C776 1.398 . S
C775 C781 1.491 . S
C776 H767 0.950 . S
C776 C775 1.398 . S
C776 C777 1.391 . S
C777 H765 0.950 . S
C777 C773 1.393 . S
C777 C776 1.391 . S
C778 H768 0.950 . S
C778 C779 1.386 . S
C778 C780 1.391 . S
C779 C778 1.386 . S
C779 C783 1.393 . S
C780 H769 0.950 . S
C780 C778 1.391 . S
C780 C781 1.400 . S
C781 C775 1.491 . S
C781 C780 1.400 . S
C781 C782 1.398 . S
C782 H770 0.950 . S
C782 C781 1.398 . S
C782 C783 1.391 . S
C783 H771 0.950 . S
C783 C779 1.393 . S
C783 C782 1.391 . S
H784 C792 0.950 . S
H785 C797 0.950 . S
H786 C794 0.950 . S
H787 C796 0.950 . S
H788 C798 0.950 . S
H789 C800 0.950 . S
H790 C802 0.950 . S
H791 C803 0.950 . S
C792 H784 0.950 . S
C792 C793 1.386 . S
C792 C794 1.391 . S
C793 C792 1.386 . S
C793 C797 1.393 . S
C794 H786 0.950 . S
C794 C792 1.391 . S
C794 C795 1.400 . S
C795 C794 1.400 . S
C795 C796 1.398 . S
C795 C801 1.491 1_556 S
C796 H787 0.950 . S
C796 C795 1.398 . S
C796 C797 1.391 . S
C797 H785 0.950 . S
C797 C793 1.393 . S
C797 C796 1.391 . S
C798 H788 0.950 . S
C798 C799 1.386 . S
C798 C800 1.391 . S
C799 C798 1.386 . S
C799 C803 1.393 . S
C800 H789 0.950 . S
C800 C798 1.391 . S
C800 C801 1.400 . S
C801 C795 1.491 1_554 S
C801 C800 1.400 . S
C801 C802 1.398 . S
C802 H790 0.950 . S
C802 C801 1.398 . S
C802 C803 1.391 . S
C803 H791 0.950 . S
C803 C799 1.393 . S
C803 C802 1.391 . S
H804 C812 0.950 . S
H805 C817 0.950 . S
H806 C814 0.950 . S
H807 C816 0.950 . S
H808 C818 0.950 . S
H809 C820 0.950 . S
H810 C822 0.950 . S
H811 C823 0.950 . S
C812 H804 0.950 . S
C812 C813 1.386 . S
C812 C814 1.391 . S
C813 C812 1.386 . S
C813 C817 1.393 . S
C814 H806 0.950 . S
C814 C812 1.391 . S
C814 C815 1.400 . S
C815 C814 1.400 . S
C815 C816 1.398 . S
C815 C821 1.491 . S
C816 H807 0.950 . S
C816 C815 1.398 . S
C816 C817 1.391 . S
C817 H805 0.950 . S
C817 C813 1.393 . S
C817 C816 1.391 . S
C818 H808 0.950 . S
C818 C819 1.386 . S
C818 C820 1.391 . S
C819 C818 1.386 . S
C819 C823 1.393 . S
C820 H809 0.950 . S
C820 C818 1.391 . S
C820 C821 1.400 . S
C821 C815 1.491 . S
C821 C820 1.400 . S
C821 C822 1.398 . S
C822 H810 0.950 . S
C822 C821 1.398 . S
C822 C823 1.391 . S
C823 H811 0.950 . S
C823 C819 1.393 . S
C823 C822 1.391 . S
H824 C832 0.950 1_655 S
H825 C837 0.950 . S
H826 C834 0.958 . S
H827 C836 0.950 . S
H828 C838 0.950 . S
H829 C840 0.950 . S
H830 C842 0.950 . S
H831 C843 0.950 . S
C832 H824 0.950 1_455 S
C832 C833 1.386 . S
C832 C834 1.391 . S
C833 C832 1.386 . S
C833 C837 1.393 . S
C834 H826 0.958 . S
C834 C832 1.391 . S
C834 C835 1.400 . S
C835 C834 1.400 . S
C835 C836 1.398 . S
C835 C841 1.491 1_554 S
C836 H827 0.950 . S
C836 C835 1.398 . S
C836 C837 1.391 . S
C837 H825 0.950 . S
C837 C833 1.393 . S
C837 C836 1.391 . S
C838 H828 0.950 . S
C838 C839 1.386 . S
C838 C840 1.391 . S
C839 C838 1.386 . S
C839 C843 1.393 . S
C840 H829 0.950 . S
C840 C838 1.391 . S
C840 C841 1.400 . S
C841 C835 1.491 1_556 S
C841 C840 1.400 . S
C841 C842 1.398 . S
C842 H830 0.950 . S
C842 C841 1.398 . S
C842 C843 1.391 . S
C843 H831 0.950 . S
C843 C839 1.393 . S
C843 C842 1.391 . S
H844 C852 0.950 1_565 S
H845 C857 0.950 . S
H846 C854 0.950 1_565 S
H847 C856 0.950 . S
H848 C858 0.950 . S
H849 C860 0.950 . S
H850 C862 0.950 1_565 S
H851 C863 0.950 1_565 S
C852 H844 0.950 1_545 S
C852 C853 1.386 . S
C852 C854 1.391 . S
C853 C852 1.386 . S
C853 C857 1.393 . S
C854 H846 0.950 1_545 S
C854 C852 1.391 . S
C854 C855 1.400 . S
C855 C854 1.400 . S
C855 C856 1.398 . S
C855 C861 1.491 . S
C856 H847 0.950 . S
C856 C855 1.398 . S
C856 C857 1.391 . S
C857 H845 0.950 . S
C857 C853 1.393 . S
C857 C856 1.391 . S
C858 H848 0.950 . S
C858 C859 1.386 . S
C858 C860 1.391 . S
C859 C858 1.386 . S
C859 C863 1.393 . S
C860 H849 0.950 . S
C860 C858 1.391 . S
C860 C861 1.400 . S
C861 C855 1.491 . S
C861 C860 1.400 . S
C861 C862 1.398 . S
C862 H850 0.950 1_545 S
C862 C861 1.398 . S
C862 C863 1.391 . S
C863 H851 0.950 1_545 S
C863 C859 1.393 . S
C863 C862 1.391 . S
C233 C7 1.420 . S
C239 C104 1.421 . S
C253 C20 1.403 . S
C259 C63 1.403 . S
C273 C35 1.413 . S
C279 C76 1.412 . S
C293 C48 1.422 . S
C299 C91 1.423 . S
C313 C118 1.421 . S
C319 C216 1.422 . S
C333 C174 1.403 . S
C339 C132 1.403 . S
C353 C146 1.404 . S
C359 C188 1.404 . S
C373 C160 1.412 . S
C379 C202 1.410 . S
C393 C8 1.560 . S
C399 C134 1.584 . S
C413 C23 1.553 . S
C419 C148 1.592 . S
C433 C162 1.590 . S
C439 C36 1.551 . S
C453 C51 1.551 . S
C459 C120 1.591 . S
C473 C64 1.553 . S
C479 C218 1.587 . S
C493 C176 1.584 . S
C499 C79 1.568 . S
C513 C190 1.588 . S
C519 C92 1.551 . S
C533 C204 1.593 . S
C539 C107 1.553 . S
C553 C22 1.586 . S
C559 C121 1.570 . S
C573 C37 1.592 . S
C579 C135 1.553 . S
C593 C149 1.551 . S
C599 C50 1.590 . S
C613 C9 1.593 . S
C619 C163 1.556 . S
C633 C177 1.570 . S
C639 C106 1.585 . S
C653 C191 1.551 . S
C659 C65 1.590 . S
C673 C78 1.584 . S
C679 C205 1.565 . S
C693 C93 1.587 . S
C699 C219 1.570 . S
C713 C6 1.544 . S
C719 C62 1.551 . S
C733 C77 1.551 . S
C739 C21 1.544 . S
C753 C34 1.532 . S
C759 C90 1.549 . S
C773 C105 1.556 . S
C779 C49 1.534 . S
C793 C119 1.549 . S
C799 C175 1.532 . S
C813 C189 1.556 . S
C819 C133 1.534 . S
C833 C203 1.549 . S
C839 C147 1.532 . S
C853 C217 1.537 . S
C859 C161 1.542 . S
