# Generated by pormake.
# Topology whw, (6)-cn, num edge types: 1
# Building blocks:
#     Node 0, Type 0, BuildingBlock: PAMTUU_clean_sbu_0, # of connection points: 6
#     Node 1, Type 0, BuildingBlock: PAMTUU_clean_sbu_0, # of connection points: 6
#     Node 2, Type 0, BuildingBlock: PAMTUU_clean_sbu_0, # of connection points: 6
#     Node 3, Type 0, BuildingBlock: PAMTUU_clean_sbu_0, # of connection points: 6
#     Node 4, Type 0, BuildingBlock: PAMTUU_clean_sbu_0, # of connection points: 6
#     Node 5, Type 0, BuildingBlock: PAMTUU_clean_sbu_0, # of connection points: 6
#     Node 6, Type 0, BuildingBlock: PAMTUU_clean_sbu_0, # of connection points: 6
#     Node 7, Type 0, BuildingBlock: PAMTUU_clean_sbu_0, # of connection points: 6
#     Node 8, Type 0, BuildingBlock: PAMTUU_clean_sbu_0, # of connection points: 6
#     Node 9, Type 0, BuildingBlock: PAMTUU_clean_sbu_0, # of connection points: 6
#     Node 10, Type 0, BuildingBlock: PAMTUU_clean_sbu_0, # of connection points: 6
#     Node 11, Type 0, BuildingBlock: PAMTUU_clean_sbu_0, # of connection points: 6
#     Node 12, Type 0, BuildingBlock: PAMTUU_clean_sbu_0, # of connection points: 6
#     Node 13, Type 0, BuildingBlock: PAMTUU_clean_sbu_0, # of connection points: 6
#     Node 14, Type 0, BuildingBlock: PAMTUU_clean_sbu_0, # of connection points: 6
#     Node 15, Type 0, BuildingBlock: PAMTUU_clean_sbu_0, # of connection points: 6
#     Edge 16, Type (0, 0), BuildingBlock: OJICUG_clean_linker_0, # of connection points: 2
#     Edge 17, Type (0, 0), BuildingBlock: OJICUG_clean_linker_0, # of connection points: 2
#     Edge 18, Type (0, 0), BuildingBlock: OJICUG_clean_linker_0, # of connection points: 2
#     Edge 19, Type (0, 0), BuildingBlock: OJICUG_clean_linker_0, # of connection points: 2
#     Edge 20, Type (0, 0), BuildingBlock: OJICUG_clean_linker_0, # of connection points: 2
#     Edge 21, Type (0, 0), BuildingBlock: OJICUG_clean_linker_0, # of connection points: 2
#     Edge 22, Type (0, 0), BuildingBlock: OJICUG_clean_linker_0, # of connection points: 2
#     Edge 23, Type (0, 0), BuildingBlock: OJICUG_clean_linker_0, # of connection points: 2
#     Edge 24, Type (0, 0), BuildingBlock: OJICUG_clean_linker_0, # of connection points: 2
#     Edge 25, Type (0, 0), BuildingBlock: OJICUG_clean_linker_0, # of connection points: 2
#     Edge 26, Type (0, 0), BuildingBlock: OJICUG_clean_linker_0, # of connection points: 2
#     Edge 27, Type (0, 0), BuildingBlock: OJICUG_clean_linker_0, # of connection points: 2
#     Edge 28, Type (0, 0), BuildingBlock: OJICUG_clean_linker_0, # of connection points: 2
#     Edge 29, Type (0, 0), BuildingBlock: OJICUG_clean_linker_0, # of connection points: 2
#     Edge 30, Type (0, 0), BuildingBlock: OJICUG_clean_linker_0, # of connection points: 2
#     Edge 31, Type (0, 0), BuildingBlock: OJICUG_clean_linker_0, # of connection points: 2
#     Edge 32, Type (0, 0), BuildingBlock: OJICUG_clean_linker_0, # of connection points: 2
#     Edge 33, Type (0, 0), BuildingBlock: OJICUG_clean_linker_0, # of connection points: 2
#     Edge 34, Type (0, 0), BuildingBlock: OJICUG_clean_linker_0, # of connection points: 2
#     Edge 35, Type (0, 0), BuildingBlock: OJICUG_clean_linker_0, # of connection points: 2
#     Edge 36, Type (0, 0), BuildingBlock: OJICUG_clean_linker_0, # of connection points: 2
#     Edge 37, Type (0, 0), BuildingBlock: OJICUG_clean_linker_0, # of connection points: 2
#     Edge 38, Type (0, 0), BuildingBlock: OJICUG_clean_linker_0, # of connection points: 2
#     Edge 39, Type (0, 0), BuildingBlock: OJICUG_clean_linker_0, # of connection points: 2
#     Edge 40, Type (0, 0), BuildingBlock: OJICUG_clean_linker_0, # of connection points: 2
#     Edge 41, Type (0, 0), BuildingBlock: OJICUG_clean_linker_0, # of connection points: 2
#     Edge 42, Type (0, 0), BuildingBlock: OJICUG_clean_linker_0, # of connection points: 2
#     Edge 43, Type (0, 0), BuildingBlock: OJICUG_clean_linker_0, # of connection points: 2
#     Edge 44, Type (0, 0), BuildingBlock: OJICUG_clean_linker_0, # of connection points: 2
#     Edge 45, Type (0, 0), BuildingBlock: OJICUG_clean_linker_0, # of connection points: 2
#     Edge 46, Type (0, 0), BuildingBlock: OJICUG_clean_linker_0, # of connection points: 2
#     Edge 47, Type (0, 0), BuildingBlock: OJICUG_clean_linker_0, # of connection points: 2
#     Edge 48, Type (0, 0), BuildingBlock: OJICUG_clean_linker_0, # of connection points: 2
#     Edge 49, Type (0, 0), BuildingBlock: OJICUG_clean_linker_0, # of connection points: 2
#     Edge 50, Type (0, 0), BuildingBlock: OJICUG_clean_linker_0, # of connection points: 2
#     Edge 51, Type (0, 0), BuildingBlock: OJICUG_clean_linker_0, # of connection points: 2
#     Edge 52, Type (0, 0), BuildingBlock: OJICUG_clean_linker_0, # of connection points: 2
#     Edge 53, Type (0, 0), BuildingBlock: OJICUG_clean_linker_0, # of connection points: 2
#     Edge 54, Type (0, 0), BuildingBlock: OJICUG_clean_linker_0, # of connection points: 2
#     Edge 55, Type (0, 0), BuildingBlock: OJICUG_clean_linker_0, # of connection points: 2
#     Edge 56, Type (0, 0), BuildingBlock: OJICUG_clean_linker_0, # of connection points: 2
#     Edge 57, Type (0, 0), BuildingBlock: OJICUG_clean_linker_0, # of connection points: 2
#     Edge 58, Type (0, 0), BuildingBlock: OJICUG_clean_linker_0, # of connection points: 2
#     Edge 59, Type (0, 0), BuildingBlock: OJICUG_clean_linker_0, # of connection points: 2
#     Edge 60, Type (0, 0), BuildingBlock: OJICUG_clean_linker_0, # of connection points: 2
#     Edge 61, Type (0, 0), BuildingBlock: OJICUG_clean_linker_0, # of connection points: 2
#     Edge 62, Type (0, 0), BuildingBlock: OJICUG_clean_linker_0, # of connection points: 2
#     Edge 63, Type (0, 0), BuildingBlock: OJICUG_clean_linker_0, # of connection points: 2
# Relax obj value: 0.592
# Max RMSD: 0.263
# Mean RMSD: 0.239
data_MOF--net-whw--node1-PAMTUU_clean_sbu_0--edge1-OJICUG_clean_linker_0
_symmetry_space_group_name_H-M    P1
_symmetry_Int_Tables_number       1
_symmetry_cell_setting            triclinic
loop_
_symmetry_equiv_pos_as_xyz
'x, y, z'
_cell_length_a     35.029603
_cell_length_b     34.972827
_cell_length_c     25.514811
_cell_angle_alpha  81.183227
_cell_angle_beta   83.153838
_cell_angle_gamma 88.453301
loop_
_atom_site_label
_atom_site_type_symbol
_atom_site_fract_x
_atom_site_fract_y
_atom_site_fract_z
_atom_type_partial_charge
Tb0 Tb 0.92459 0.12036 0.20535 0.0
Tb1 Tb 0.00701 0.0808 0.23176 0.0
C2 C -0.01116 0.16716 0.24386 0.0
C3 C 0.83454 0.13517 0.14394 0.0
C4 C 0.8069 0.11001 1.05638 0.0
C5 C 0.8272 0.14489 1.04954 0.0
C6 C 0.84098 0.15738 0.09302 0.0
C7 C 0.80997 0.10312 0.15168 0.0
C8 C 0.79655 0.09041 0.10809 0.0
C9 C 0.85752 0.14145 0.18667 0.0
O10 O 0.96455 0.14691 0.13808 0.0
O11 O 0.01443 0.10253 0.14398 0.0
O12 O 0.9674 0.03657 0.22433 0.0
O13 O 0.93516 0.07118 0.16164 0.0
O14 O 0.06722 0.07536 0.21836 0.0
O15 O 0.03358 0.03355 0.27479 0.0
O16 O 0.98026 0.09594 0.30919 0.0
O17 O 0.91771 0.09945 0.29127 0.0
O18 O 0.95205 0.16385 0.23946 0.0
O19 O 0.01457 0.14004 0.23746 0.0
C20 C -0.00238 0.13318 0.11792 0.0
O21 O 0.86544 0.11019 0.21866 0.0
O22 O 0.88759 0.16359 0.17278 0.0
C23 C 0.94972 0.03824 0.18208 0.0
C24 C 0.0902 0.05356 0.3012 0.0
C25 C 0.11682 0.0641 0.39789 0.0
C26 C 0.11745 0.02711 0.38247 0.0
C27 C 0.10418 0.0219 0.33444 0.0
C28 C 0.09166 0.09076 0.31506 0.0
C29 C 0.10491 0.09598 0.36278 0.0
C30 C 0.06786 0.04713 0.25814 0.0
C31 C 0.94327 0.10037 0.32482 0.0
H32 H 0.83566 0.16054 1.00999 0.0
H33 H 0.85914 0.18267 0.08593 0.0
H34 H 0.8037 0.086 0.19079 0.0
H35 H 0.78054 0.06369 0.1143 0.0
H36 H 0.12678 0.00204 0.40846 0.0
H37 H 0.10286 -0.00709 0.32469 0.0
H38 H 0.08039 0.11561 0.29063 0.0
H39 H 0.10337 0.12477 0.37368 0.0
Tb40 Tb 0.11107 0.6615 0.41658 0.0
Tb41 Tb 0.15931 0.73915 0.41963 0.0
C42 C 0.07345 0.73259 0.46568 0.0
C43 C 0.08015 0.58089 0.35974 0.0
C44 C 0.1011 0.57244 0.25263 0.0
C45 C 0.06767 0.59337 0.26732 0.0
C46 C 0.05716 0.59742 0.32054 0.0
C47 C 0.10932 0.55448 0.34626 0.0
C48 C 0.11989 0.55043 0.29289 0.0
C49 C 0.08078 0.59859 0.40859 0.0
O50 O 0.08842 0.70402 0.3556 0.0
O51 O 0.13688 0.74922 0.33985 0.0
O52 O 0.1991 0.69559 0.39405 0.0
O53 O 0.15872 0.66482 0.35215 0.0
O54 O 0.17069 0.79884 0.40125 0.0
O55 O 0.20859 0.76012 0.44495 0.0
O56 O 0.1439 0.71365 0.50461 0.0
O57 O 0.13537 0.65121 0.49265 0.0
O58 O 0.07391 0.69481 0.46717 0.0
O59 O 0.1014 0.75518 0.44239 0.0
C60 C 0.10464 0.73534 0.3271 0.0
O61 O 0.11492 0.60107 0.42349 0.0
O62 O 0.06141 0.63089 0.41049 0.0
C63 C 0.19348 0.67589 0.35627 0.0
C64 C 0.19117 0.81699 0.47893 0.0
C65 C 0.17691 0.83511 0.58328 0.0
C66 C 0.21486 0.83262 0.55892 0.0
C67 C 0.22194 0.82337 0.50707 0.0
C68 C 0.15335 0.82279 0.50186 0.0
C69 C 0.14633 0.83172 0.55349 0.0
C70 C 0.19767 0.79594 0.43279 0.0
C71 C 0.13794 0.67689 0.52466 0.0
H72 H 0.05216 0.61045 0.23751 0.0
H73 H 0.03378 0.61713 0.32974 0.0
H74 H 0.12683 0.54043 0.37601 0.0
H75 H 0.14499 0.53306 0.28281 0.0
H76 H 0.23889 0.83511 0.58123 0.0
H77 H 0.25129 0.81851 0.49047 0.0
H78 H 0.12897 0.81776 0.48148 0.0
H79 H 0.11682 0.83402 0.57121 0.0
Tb80 Tb 0.53608 0.90212 0.7197 0.0
Tb81 Tb 0.50023 0.87321 0.6052 0.0
C82 C 0.52809 0.95611 0.61039 0.0
C83 C 0.56001 0.88738 0.86755 0.0
C84 C 0.5689 0.85132 0.97626 0.0
C85 C 0.57978 0.89012 0.95667 0.0
C86 C 0.57538 0.90763 0.9038 0.0
C87 C 0.54837 0.84893 0.88684 0.0
C88 C 0.55247 0.8314 0.94001 0.0
C89 C 0.56254 0.90467 0.80873 0.0
O90 O 0.47578 0.91855 0.72025 0.0
O91 O 0.4542 0.87476 0.67051 0.0
O92 O 0.52825 0.82564 0.65028 0.0
O93 O 0.51124 0.84607 0.73064 0.0
O94 O 0.49338 0.88157 0.52195 0.0
O95 O 0.46391 0.83554 0.5767 0.0
O96 O 0.5623 0.87639 0.58731 0.0
O97 O 0.58604 0.89245 0.66377 0.0
O98 O 0.54757 0.94956 0.65258 0.0
O99 O 0.49795 0.93519 0.60684 0.0
C100 C 0.44835 0.89775 0.70738 0.0
O101 O 0.57476 0.88163 0.77456 0.0
O102 O 0.53613 0.92866 0.79009 0.0
C103 C 0.52435 0.81952 0.70263 0.0
C104 C 0.46373 0.83091 0.48125 0.0
C105 C 0.44253 0.79399 0.39382 0.0
C106 C 0.43652 0.77587 0.44773 0.0
C107 C 0.44668 0.79393 0.4903 0.0
C108 C 0.46977 0.84907 0.42759 0.0
C109 C 0.45964 0.83105 0.38498 0.0
C110 C 0.4693 0.85283 0.52724 0.0
C111 C 0.59034 0.88338 0.61508 0.0
H112 H 0.59315 0.90702 0.98146 0.0
H113 H 0.58554 0.9369 0.89053 0.0
H114 H 0.53687 0.83194 0.86034 0.0
H115 H 0.54282 0.80194 0.95234 0.0
H116 H 0.42295 0.74785 0.45767 0.0
H117 H 0.44034 0.77901 0.53074 0.0
H118 H 0.48189 0.87782 0.41835 0.0
H119 H 0.46556 0.84645 0.34479 0.0
Tb120 Tb 0.33873 0.26478 1.03624 0.0
Tb121 Tb 0.37422 0.23667 0.91148 0.0
C122 C 0.28656 0.24035 0.95385 0.0
C123 C 0.34864 0.28893 0.17723 0.0
C124 C 0.38433 0.30236 0.26962 0.0
C125 C 0.34398 0.3047 0.26858 0.0
C126 C 0.32664 0.29806 0.22357 0.0
C127 C 0.38887 0.28593 0.17791 0.0
C128 C 0.40633 0.29232 0.22325 0.0
C129 C 0.32952 0.28844 0.12712 0.0
O130 O 0.3355 0.20239 1.04376 0.0
O131 O 0.3826 0.1896 0.97623 0.0
O132 O 0.41232 0.2762 0.93666 0.0
O133 O 0.39874 0.25324 1.02477 0.0
O134 O 0.36723 0.22808 0.83207 0.0
O135 O 0.42144 0.21417 0.86459 0.0
O136 O 0.35222 0.29531 0.89468 0.0
O137 O 0.33404 0.31616 0.97745 0.0
O138 O 0.28942 0.26212 0.99158 0.0
O139 O 0.31514 0.21863 0.9359 0.0
C140 C 0.36044 0.17894 1.02161 0.0
O141 O 0.34677 0.30754 0.08319 0.0
O142 O 0.31433 0.25658 0.11798 0.0
C143 C 0.42156 0.27136 0.98551 0.0
C144 C 0.41956 0.20211 0.77096 0.0
C145 C 0.45344 0.18001 0.67016 0.0
C146 C 0.47393 0.17631 0.7153 0.0
C147 C 0.45729 0.18686 0.76457 0.0
C148 C 0.39881 0.20528 0.72628 0.0
C149 C 0.41532 0.19446 0.67706 0.0
C150 C 0.40243 0.21508 0.8233 0.0
C151 C 0.33928 0.32154 0.92489 0.0
H152 H 0.32539 0.31302 0.302 0.0
H153 H 0.29576 0.30145 0.22439 0.0
H154 H 0.407 0.27944 0.14286 0.0
H155 H 0.43726 0.28944 0.2216 0.0
H156 H 0.50301 0.1649 0.7129 0.0
H157 H 0.47436 0.18342 0.79771 0.0
H158 H 0.3697 0.21661 0.72907 0.0
H159 H 0.39826 0.19833 0.64391 0.0
Tb160 Tb 0.94268 0.81397 0.08849 0.0
Tb161 Tb 0.02759 0.84347 1.0223 0.0
C162 C -0.00454 0.76298 1.02318 0.0
C163 C 0.84982 0.82016 0.1684 0.0
C164 C 0.81192 0.86351 0.24293 0.0
C165 C 0.80446 0.82363 0.24647 0.0
C166 C 0.82374 0.80205 0.20977 0.0
C167 C 0.85274 0.8607 0.15997 0.0
C168 C 0.83377 0.88233 0.19697 0.0
C169 C 0.8774 0.79672 0.13888 0.0
O170 O -0.01183 0.7917 0.13974 0.0
O171 O 0.03904 0.83243 0.10631 0.0
O172 O 0.0039 0.89493 1.05262 0.0
O173 O 0.94614 0.87372 0.10063 0.0
O174 O 0.08556 0.82941 1.00078 0.0
O175 O 0.0617 0.88451 0.96992 0.0
O176 O -0.00916 0.83742 0.959 0.0
O177 O 0.93043 0.83323 1.00595 0.0
O178 O 0.95989 0.76871 1.0421 0.0
O179 O 0.02282 0.7813 1.03909 0.0
C180 C 0.02232 0.80596 0.14411 0.0
O181 O 0.88332 0.80824 0.08785 0.0
O182 O 0.90964 0.78883 0.15912 0.0
C183 C 0.97191 0.90059 0.08312 0.0
C184 C 0.10618 0.85542 0.91179 0.0
C185 C 0.13427 0.84603 0.80629 0.0
C186 C 0.15928 0.85627 0.84107 0.0
C187 C 0.14529 0.86086 0.89355 0.0
C188 C 0.0813 0.84511 0.87728 0.0
C189 C 0.09512 0.8405 0.82514 0.0
C190 C 0.09101 0.8609 0.96636 0.0
C191 C 0.95314 0.83472 0.96053 0.0
H192 H 0.78784 0.80795 0.2813 0.0
H193 H 0.82073 0.77087 0.21633 0.0
H194 H 0.87207 0.8753 0.12724 0.0
H195 H 0.83986 0.91293 0.19299 0.0
H196 H 0.18964 0.86041 0.82788 0.0
H197 H 0.16493 0.86876 0.91977 0.0
H198 H 0.05104 0.8409 0.8905 0.0
H199 H 0.07489 0.83324 0.79931 0.0
Tb200 Tb 0.39863 0.642 0.15639 0.0
Tb201 Tb 0.37008 0.72624 0.09505 0.0
C202 C 0.45563 0.70485 0.09538 0.0
C203 C 0.39644 0.55984 0.25928 0.0
C204 C 0.36302 0.55968 0.36417 0.0
C205 C 0.40247 0.55144 0.35367 0.0
C206 C 0.41916 0.55158 0.30127 0.0
C207 C 0.35615 0.56164 0.27086 0.0
C208 C 0.33952 0.56158 0.32317 0.0
C209 C 0.41457 0.57736 0.20657 0.0
O210 O 0.40372 0.6818 0.21503 0.0
O211 O 0.38775 0.74169 0.16996 0.0
O212 O 0.32921 0.70838 0.16441 0.0
O213 O 0.33596 0.64318 0.17154 0.0
O214 O 0.37173 0.78546 1.06507 0.0
O215 O 0.3218 0.7513 1.06138 0.0
O216 O 0.3758 0.68655 1.03361 0.0
O217 O 0.40723 0.63323 1.07361 0.0
O218 O 0.44544 0.66862 0.1003 0.0
O219 O 0.43154 0.73226 0.07952 0.0
C220 C 0.3994 0.71983 0.21261 0.0
O221 O 0.3923 0.58178 0.1685 0.0
O222 O 0.43408 0.60868 0.20691 0.0
C223 C 0.31688 0.67372 0.18421 0.0
C224 C 0.33721 0.80289 0.99209 0.0
C225 C 0.34667 0.84197 0.88682 0.0
C226 C 0.32885 0.86063 0.92845 0.0
C227 C 0.3242 0.84116 0.98083 0.0
C228 C 0.35252 0.78331 0.95032 0.0
C229 C 0.35711 0.80265 0.89804 0.0
C230 C 0.33827 0.78499 1.04756 0.0
C231 C 0.39465 0.65331 1.03127 0.0
H232 H 0.42096 0.5492 0.38518 0.0
H233 H 0.45019 0.54985 0.29321 0.0
H234 H 0.33774 0.56766 0.2393 0.0
H235 H 0.30903 0.56778 0.33038 0.0
H236 H 0.32041 0.89081 0.9209 0.0
H237 H 0.31219 0.85655 1.01284 0.0
H238 H 0.36282 0.75375 0.95848 0.0
H239 H 0.37155 0.78759 0.86713 0.0
Tb240 Tb 0.5991 0.15119 0.3699 0.0
Tb241 Tb 0.52082 0.10755 0.34919 0.0
C242 C 0.52776 0.19707 0.33616 0.0
C243 C 0.675 0.17195 0.44168 0.0
C244 C 0.67092 0.13744 0.54839 0.0
C245 C 0.65457 0.17417 0.53524 0.0
C246 C 0.65698 0.19163 0.48215 0.0
C247 C 0.69706 0.13852 0.45622 0.0
C248 C 0.69461 0.12102 0.50949 0.0
C249 C 0.66062 0.17805 0.38883 0.0
O250 O 0.55788 0.15927 0.43998 0.0
O251 O 0.50844 0.1177 0.43393 0.0
O252 O 0.56312 0.06572 0.37854 0.0
O253 O 0.59291 0.09957 0.42966 0.0
O254 O 0.46169 0.10041 0.34616 0.0
O255 O 0.50245 0.05575 0.32874 0.0
O256 O 0.55026 0.12933 0.26928 0.0
O257 O 0.6115 0.13203 0.29136 0.0
O258 O 0.56453 0.19174 0.32206 0.0
O259 O 0.5043 0.16768 0.34327 0.0
C260 C 0.52501 0.14179 0.46006 0.0
O261 O 0.65897 0.14653 0.36743 0.0
O262 O 0.62906 0.19876 0.38523 0.0
C263 C 0.57801 0.06723 0.42272 0.0
C264 C 0.4514 0.06635 0.27705 0.0
C265 C 0.41764 0.07384 0.1813 0.0
C266 C 0.39831 0.05423 0.22907 0.0
C267 C 0.41506 0.05069 0.27676 0.0
C268 C 0.47186 0.08319 0.22893 0.0
C269 C 0.45525 0.0869 0.18157 0.0
C270 C 0.4671 0.06786 0.32739 0.0
C271 C 0.58755 0.1334 0.25495 0.0
H272 H 0.63661 0.18742 0.56525 0.0
H273 H 0.64052 0.21793 0.47255 0.0
H274 H 0.71198 0.12313 0.42597 0.0
H275 H 0.70768 0.09279 0.51927 0.0
H276 H 0.36949 0.04346 0.23012 0.0
H277 H 0.39903 0.03725 0.31362 0.0
H278 H 0.50001 0.09526 0.22832 0.0
H279 H 0.47093 0.10277 0.14611 0.0
Tb280 Tb 0.0731 0.2924 0.81746 0.0
Tb281 Tb 0.0975 0.20528 0.78749 0.0
C282 C 0.01856 0.24161 0.77625 0.0
C283 C 0.09352 0.38277 0.85915 0.0
C284 C 0.14237 0.40817 0.92588 0.0
C285 C 0.10435 0.42262 0.92513 0.0
C286 C 0.07996 0.40961 0.89235 0.0
C287 C 0.13285 0.37268 0.8543 0.0
C288 C 0.15718 0.38544 0.88734 0.0
C289 C 0.06636 0.36119 0.83557 0.0
O290 O 0.04945 0.24983 0.88755 0.0
O291 O 0.08803 0.19633 0.87539 0.0
O292 O 0.15041 0.23073 0.80212 0.0
O293 O 0.1255 0.27644 0.85234 0.0
O294 O 0.07887 0.14949 0.78222 0.0
O295 O 0.13831 0.16511 0.76163 0.0
O296 O 0.09086 0.24059 0.7095 0.0
O297 O 0.099 0.30007 0.73299 0.0
O298 O 0.02606 0.2777 0.77762 0.0
O299 O 0.03659 0.2149 0.80552 0.0
C300 C 0.06305 0.21492 0.90592 0.0
O301 O 0.07946 0.35167 0.78957 0.0
O302 O 0.0496 0.33205 0.86716 0.0
C303 C 0.15359 0.25369 0.83748 0.0
C304 C 0.11311 0.12462 0.70989 0.0
C305 C 0.12023 0.09936 0.60978 0.0
C306 C 0.13022 0.07452 0.6549 0.0
C307 C 0.12693 0.08724 0.70469 0.0
C308 C 0.10191 0.1489 0.66525 0.0
C309 C 0.10558 0.13645 0.61557 0.0
C310 C 0.11244 0.13925 0.76083 0.0
C311 C 0.09439 0.27837 0.69613 0.0
H312 H 0.09183 0.43991 0.95466 0.0
H313 H 0.04985 0.41796 0.89626 0.0
H314 H 0.14413 0.35234 0.82821 0.0
H315 H 0.18618 0.37383 0.88718 0.0
H316 H 0.14144 0.04575 0.65136 0.0
H317 H 0.13572 0.06819 0.73886 0.0
H318 H 0.09083 0.17768 0.66863 0.0
H319 H 0.09694 0.15586 0.58161 0.0
Tb320 Tb 0.89694 0.14225 0.65733 0.0
Tb321 Tb 0.87137 0.22646 0.59517 0.0
C322 C 0.95678 0.20256 0.5971 0.0
C323 C 0.88546 0.06048 0.76052 0.0
C324 C 0.84273 0.05294 0.86172 0.0
C325 C 0.88268 0.04597 0.85677 0.0
C326 C 0.90393 0.04982 0.80639 0.0
C327 C 0.84501 0.06297 0.76548 0.0
C328 C 0.82385 0.05927 0.81571 0.0
C329 C 0.90798 0.07734 0.71033 0.0
O330 O 0.90331 0.18233 0.7154 0.0
O331 O 0.88965 0.24246 0.66922 0.0
O332 O 0.83043 0.21016 0.66498 0.0
O333 O 0.83429 0.14543 0.66784 0.0
O334 O 0.8748 0.28536 0.56366 0.0
O335 O 0.82361 0.25266 0.56136 0.0
O336 O 0.87554 0.18601 0.5348 0.0
O337 O 0.90901 0.13409 0.57418 0.0
O338 O 0.94628 0.16628 0.6042 0.0
O339 O 0.93309 0.23011 0.58009 0.0
C340 C 0.90049 0.22053 0.71228 0.0
O341 O 0.88946 0.08222 0.6683 0.0
O342 O 0.92767 0.10799 0.71349 0.0
C343 C 0.81646 0.17587 0.6828 0.0
C344 C 0.83988 0.30343 0.49121 0.0
C345 C 0.84893 0.34231 0.38586 0.0
C346 C 0.83078 0.36086 0.42739 0.0
C347 C 0.82634 0.34149 0.47982 0.0
C348 C 0.85549 0.28389 0.44956 0.0
C349 C 0.85989 0.30315 0.39722 0.0
C350 C 0.84107 0.28577 0.54674 0.0
C351 C 0.8957 0.15358 0.53189 0.0
H352 H 0.89803 0.04134 0.89167 0.0
H353 H 0.93502 0.04794 0.80348 0.0
H354 H 0.82979 0.07106 0.73085 0.0
H355 H 0.79308 0.06444 0.81855 0.0
H356 H 0.82193 0.39092 0.41973 0.0
H357 H 0.81407 0.35683 0.51175 0.0
H358 H 0.86616 0.25448 0.45786 0.0
H359 H 0.87456 0.28818 0.36636 0.0
Tb360 Tb 0.57186 0.79061 0.3192 0.0
Tb361 Tb 0.59586 0.70354 0.28887 0.0
C362 C 0.51704 0.74036 0.27718 0.0
C363 C 0.59258 0.88092 0.36096 0.0
C364 C 0.64161 0.90626 0.42747 0.0
C365 C 0.60365 0.92088 0.4267 0.0
C366 C 0.57916 0.90788 0.39404 0.0
C367 C 0.63187 0.87072 0.35603 0.0
C368 C 0.6563 0.88346 0.38895 0.0
C369 C 0.5653 0.85936 0.33755 0.0
O370 O 0.54755 0.74801 0.38878 0.0
O371 O 0.5861 0.6945 0.37678 0.0
O372 O 0.64885 0.72866 0.30385 0.0
O373 O 0.6242 0.7744 0.35417 0.0
O374 O 0.5773 0.64771 0.28356 0.0
O375 O 0.63667 0.66349 0.26271 0.0
O376 O 0.58943 0.73898 0.21091 0.0
O377 O 0.59744 0.79845 0.23455 0.0
O378 O 0.5247 0.77629 0.27938 0.0
O379 O 0.53485 0.71315 0.30598 0.0
C380 C 0.56102 0.71306 0.40719 0.0
O381 O 0.57823 0.84989 0.29145 0.0
O382 O 0.54863 0.83019 0.36919 0.0
C383 C 0.65216 0.7515 0.33933 0.0
C384 C 0.61148 0.62293 0.21107 0.0
C385 C 0.61873 0.59765 0.11094 0.0
C386 C 0.62859 0.5728 0.15612 0.0
C387 C 0.62523 0.58552 0.20592 0.0
C388 C 0.60041 0.64723 0.16637 0.0
C389 C 0.60415 0.63479 0.11668 0.0
C390 C 0.61085 0.63756 0.26201 0.0
C391 C 0.59289 0.77677 0.19762 0.0
H392 H 0.59123 0.93826 0.45618 0.0
H393 H 0.54908 0.91633 0.39798 0.0
H394 H 0.64304 0.85029 0.32999 0.0
H395 H 0.68527 0.87175 0.38877 0.0
H396 H 0.63977 0.544 0.15263 0.0
H397 H 0.63394 0.56644 0.24012 0.0
H398 H 0.58943 0.67605 0.1697 0.0
H399 H 0.59561 0.65422 0.08268 0.0
Tb400 Tb 0.61171 0.1621 0.91655 0.0
Tb401 Tb 0.66008 0.23958 0.92051 0.0
C402 C 0.57391 0.23325 0.96501 0.0
C403 C 0.58141 0.08089 0.86002 0.0
C404 C 0.60304 0.07027 0.75385 0.0
C405 C 0.56986 0.09198 0.76721 0.0
C406 C 0.55902 0.09712 0.81994 0.0
C407 C 0.61039 0.0539 0.84796 0.0
C408 C 0.6213 0.04878 0.79506 0.0
C409 C 0.58155 0.09912 0.90849 0.0
O410 O 0.58956 0.20479 0.85528 0.0
O411 O 0.63807 0.24994 0.8404 0.0
O412 O 0.70002 0.19625 0.8945 0.0
O413 O 0.6596 0.16547 0.85252 0.0
O414 O 0.67183 0.29914 0.9015 0.0
O415 O 0.70833 0.26078 0.94817 0.0
O416 O 0.64408 0.21384 1.00523 0.0
O417 O 0.63589 0.15152 0.99265 0.0
O418 O 0.57431 0.19544 0.96685 0.0
O419 O 0.60206 0.25566 0.94201 0.0
C420 C 0.60594 0.23616 0.82714 0.0
O421 O 0.61547 0.10166 0.924 0.0
O422 O 0.56223 0.13153 0.90947 0.0
C423 C 0.69436 0.1765 0.85675 0.0
C424 C 0.69098 0.31899 0.97886 0.0
C425 C 0.67672 0.34528 0.07873 0.0
C426 C 0.71462 0.34205 1.05413 0.0
C427 C 0.72167 0.32891 1.00464 0.0
C428 C 0.65314 0.32425 1.00198 0.0
C429 C 0.64609 0.33726 1.05123 0.0
C430 C 0.69805 0.29659 0.93415 0.0
C431 C 0.63825 0.17702 1.02493 0.0
H432 H 0.5548 0.10875 0.73662 0.0
H433 H 0.53584 0.1173 0.82805 0.0
H434 H 0.62744 0.04011 0.87843 0.0
H435 H 0.64622 0.03089 0.78603 0.0
H436 H 0.73886 0.34843 1.07393 0.0
H437 H 0.75108 0.3246 0.98784 0.0
H438 H 0.62886 0.3162 0.98354 0.0
H439 H 0.61657 0.33873 1.06914 0.0
Tb440 Tb 0.83809 0.75945 0.53788 0.0
Tb441 Tb 0.87113 0.72752 0.41437 0.0
C442 C 0.78431 0.73554 0.4576 0.0
C443 C 0.84914 0.78626 0.67761 0.0
C444 C 0.88423 0.80045 0.77015 0.0
C445 C 0.84406 0.80406 0.76792 0.0
C446 C 0.82701 0.79703 0.72285 0.0
C447 C 0.88917 0.78196 0.67953 0.0
C448 C 0.90633 0.7887 0.72495 0.0
C449 C 0.83054 0.78548 0.62713 0.0
O450 O 0.8332 0.69709 0.54862 0.0
O451 O 0.87936 0.68217 0.48139 0.0
O452 O 0.91182 0.76618 0.4357 0.0
O453 O 0.89785 0.74644 0.52484 0.0
O454 O 0.86258 0.71696 0.33638 0.0
O455 O 0.91534 0.6994 0.36975 0.0
O456 O 0.85188 0.78701 0.39509 0.0
O457 O 0.83449 0.80971 0.47695 0.0
O458 O 0.78821 0.75813 0.49398 0.0
O459 O 0.81179 0.71179 0.442 0.0
C460 C 0.85745 0.67271 0.52727 0.0
O461 O 0.84912 0.80259 0.58278 0.0
O462 O 0.81346 0.75423 0.61941 0.0
C463 C 0.92046 0.7639 0.48469 0.0
C464 C 0.91639 0.69689 0.27339 0.0
C465 C 0.95221 0.6799 0.17054 0.0
C466 C 0.97248 0.6758 0.21589 0.0
C467 C 0.95489 0.68374 0.26614 0.0
C468 C 0.89621 0.70145 0.22803 0.0
C469 C 0.91369 0.6932 0.17781 0.0
C470 C 0.89593 0.69959 0.32899 0.0
C471 C 0.83989 0.81413 0.4244 0.0
H472 H 0.82542 0.81368 0.80036 0.0
H473 H 0.79629 0.80145 0.72269 0.0
H474 H 0.90742 0.77418 0.64535 0.0
H475 H 0.93711 0.78477 0.72426 0.0
H476 H 0.00189 0.6653 0.21313 0.0
H477 H 0.97144 0.67869 0.29982 0.0
H478 H 0.86635 0.71059 0.23154 0.0
H479 H 0.89678 0.69733 0.1445 0.0
Tb480 Tb 0.42396 0.61989 0.70946 0.0
Tb481 Tb 0.50669 0.57935 0.73327 0.0
C482 C 0.48985 0.66554 0.74632 0.0
C483 C 0.33281 0.63932 0.65217 0.0
C484 C 0.31313 0.62362 0.55481 0.0
C485 C 0.32152 0.66171 0.56075 0.0
C486 C 0.33156 0.6695 0.60927 0.0
C487 C 0.31718 0.60325 0.64891 0.0
C488 C 0.30752 0.59539 0.60033 0.0
C489 C 0.35667 0.6431 0.69487 0.0
O490 O 0.46328 0.64558 0.64064 0.0
O491 O 0.51331 0.60119 0.6456 0.0
O492 O 0.46603 0.53616 0.7255 0.0
O493 O 0.43318 0.57147 0.66398 0.0
O494 O 0.56677 0.57297 0.71925 0.0
O495 O 0.53281 0.5317 0.77611 0.0
O496 O 0.48067 0.5948 0.81076 0.0
O497 O 0.41828 0.5949 0.79378 0.0
O498 O 0.45274 0.66211 0.74437 0.0
O499 O 0.51535 0.63863 0.7376 0.0
C500 C 0.49616 0.63174 0.61984 0.0
O501 O 0.36466 0.61083 0.72471 0.0
O502 O 0.38711 0.66469 0.68083 0.0
C503 C 0.44828 0.53841 0.6832 0.0
C504 C 0.5897 0.55132 0.80216 0.0
C505 C 0.61608 0.56206 0.89896 0.0
C506 C 0.61663 0.525 0.88375 0.0
C507 C 0.60347 0.51969 0.83568 0.0
C508 C 0.59131 0.58858 0.81579 0.0
C509 C 0.60443 0.5939 0.86356 0.0
C510 C 0.56721 0.54488 0.75924 0.0
C511 C 0.44363 0.59765 0.82691 0.0
H512 H 0.32484 0.68431 0.52641 0.0
H513 H 0.34219 0.69797 0.61138 0.0
H514 H 0.31636 0.57973 0.68201 0.0
H515 H 0.30054 0.5659 0.59722 0.0
H516 H 0.62578 0.49996 0.90993 0.0
H517 H 0.60202 0.49066 0.82614 0.0
H518 H 0.58021 0.61342 0.79115 0.0
H519 H 0.60294 0.62275 0.87425 0.0
Tb520 Tb 0.03746 0.40369 0.21846 0.0
Tb521 Tb 0.00179 0.37498 0.10378 0.0
C522 C 0.02947 0.45797 0.10934 0.0
C523 C 0.06135 0.38902 0.36626 0.0
C524 C 0.07029 0.35291 0.4749 0.0
C525 C 0.08111 0.39174 0.45537 0.0
C526 C 0.07669 0.40927 0.40252 0.0
C527 C 0.04976 0.35054 0.38549 0.0
C528 C 0.05389 0.333 0.43863 0.0
C529 C 0.06386 0.40633 0.30748 0.0
O530 O 0.97712 0.42003 0.21896 0.0
O531 O 0.9557 0.37632 0.169 0.0
O532 O 0.02975 0.32743 0.14899 0.0
O533 O 0.01263 0.34763 0.22956 0.0
O534 O -0.00499 0.38323 1.02049 0.0
O535 O 0.96553 0.33726 1.0753 0.0
O536 O 0.06383 0.37825 0.08591 0.0
O537 O 0.08747 0.39419 0.16249 0.0
O538 O 0.04885 0.45129 0.15161 0.0
O539 O -0.00054 0.43699 0.10532 0.0
C540 C 0.94977 0.39916 0.20603 0.0
O541 O 0.0762 0.38334 0.27329 0.0
O542 O 0.03736 0.43021 0.28887 0.0
C543 C 0.02532 0.32105 0.20134 0.0
C544 C 0.9654 0.33247 0.97992 0.0
C545 C 0.94429 0.29526 0.89268 0.0
C546 C 0.93859 0.27712 0.94662 0.0
C547 C 0.94871 0.29532 0.98909 0.0
C548 C 0.97112 0.35066 0.92625 0.0
C549 C 0.96102 0.3325 0.88374 0.0
C550 C 0.97094 0.35448 1.02582 0.0
C551 C 0.09182 0.38525 0.11373 0.0
H552 H 0.09446 0.40864 0.48017 0.0
H553 H 0.0868 0.43856 0.38929 0.0
H554 H 0.03829 0.33356 0.35896 0.0
H555 H 0.04428 0.30351 0.45094 0.0
H556 H 0.92529 0.24898 0.95667 0.0
H557 H 0.94262 0.28036 1.02954 0.0
H558 H -0.01706 0.37952 0.91694 0.0
H559 H 0.96671 0.34794 0.84355 0.0
Tb560 Tb 0.44399 0.31483 0.58885 0.0
Tb561 Tb 0.5286 0.34474 0.52154 0.0
C562 C 0.49714 0.26395 0.52371 0.0
C563 C 0.35157 0.32096 0.67021 0.0
C564 C 0.31271 0.36499 0.74337 0.0
C565 C 0.30609 0.32486 0.74813 0.0
C566 C 0.32575 0.30299 0.71205 0.0
C567 C 0.35399 0.36154 0.66089 0.0
C568 C 0.33458 0.38349 0.69719 0.0
C569 C 0.3792 0.29744 0.64081 0.0
O570 O 0.48972 0.2934 0.64009 0.0
O571 O 0.54127 0.33296 0.6051 0.0
O572 O 0.50549 0.39568 0.55392 0.0
O573 O 0.44634 0.37526 0.59807 0.0
O574 O 0.58602 0.33048 0.49678 0.0
O575 O 0.56253 0.38676 0.47073 0.0
O576 O 0.4913 0.33916 0.45857 0.0
O577 O 0.43113 0.33166 0.50621 0.0
O578 O 0.46154 0.26934 0.54289 0.0
O579 O 0.52434 0.28261 0.53936 0.0
C580 C 0.52424 0.30715 0.64362 0.0
O581 O 0.38457 0.3083 0.58961 0.0
O582 O 0.41174 0.29029 0.66047 0.0
C583 C 0.4727 0.40177 0.58239 0.0
C584 C 0.60628 0.36013 0.40903 0.0
C585 C 0.63344 0.35874 0.30088 0.0
C586 C 0.65857 0.36701 0.33666 0.0
C587 C 0.64499 0.36788 0.39037 0.0
C588 C 0.58145 0.35079 0.37373 0.0
C589 C 0.59484 0.35024 0.32012 0.0
C590 C 0.59151 0.36306 0.46467 0.0
C591 C 0.4537 0.33487 0.46053 0.0
H592 H 0.28957 0.30939 0.78321 0.0
H593 H 0.32305 0.27179 0.71931 0.0
H594 H 0.37308 0.37603 0.62781 0.0
H595 H 0.34007 0.41425 0.69228 0.0
H596 H 0.68844 0.37363 0.32284 0.0
H597 H 0.66456 0.37509 0.41714 0.0
H598 H 0.5516 0.34436 0.38748 0.0
H599 H 0.57501 0.34303 0.2937 0.0
Tb600 Tb 0.09867 0.65387 0.86958 0.0
Tb601 Tb 0.02157 0.60752 0.84999 0.0
C602 C 0.02623 0.69719 0.8348 0.0
C603 C 0.17281 0.67824 0.94138 0.0
C604 C 0.16767 0.64376 1.04818 0.0
C605 C 0.14982 0.67964 1.03442 0.0
C606 C 0.15277 0.69714 0.98132 0.0
C607 C 0.19624 0.64605 0.9568 0.0
C608 C 0.1933 0.62855 1.01011 0.0
C609 C 0.15913 0.68299 0.88813 0.0
O610 O 0.05722 0.66144 0.93967 0.0
O611 O 0.00919 0.61805 0.93458 0.0
O612 O 0.06593 0.56778 0.87802 0.0
O613 O 0.09378 0.60245 0.92983 0.0
O614 O 0.96263 0.59798 0.84895 0.0
O615 O 0.00484 0.5548 0.8305 0.0
O616 O 0.05039 0.62909 0.76956 0.0
O617 O 0.11152 0.63424 0.79134 0.0
O618 O 0.06309 0.69252 0.82071 0.0
O619 O 0.00341 0.66729 0.84181 0.0
C620 C 0.02497 0.64298 0.96023 0.0
O621 O 0.15859 0.65087 0.86778 0.0
O622 O 0.12718 0.70286 0.88324 0.0
C623 C 0.08006 0.56964 0.92263 0.0
C624 C 0.95236 0.56272 0.78112 0.0
C625 C 0.91634 0.56905 0.6874 0.0
C626 C 0.89764 0.55055 0.7363 0.0
C627 C 0.91553 0.54759 0.78298 0.0
C628 C 0.9722 0.5783 0.73188 0.0
C629 C 0.95445 0.58139 0.68548 0.0
C630 C 0.96897 0.56543 0.83043 0.0
C631 C 0.08758 0.63433 0.75509 0.0
H632 H 0.13045 0.69208 1.06382 0.0
H633 H 0.13522 0.72256 0.97111 0.0
H634 H 0.21269 0.63134 0.927 0.0
H635 H 0.20764 0.60104 1.02038 0.0
H636 H 0.86845 0.54036 0.73901 0.0
H637 H 0.89997 0.53517 0.82075 0.0
H638 H 0.00072 0.58999 0.72964 0.0
H639 H 0.96967 0.59637 0.649 0.0
C640 C 0.00234 0.19098 1.04322 0.0
C641 C 0.01573 0.15385 1.0641 0.0
H642 H 0.00697 0.23916 0.97939 0.0
C643 C 0.04606 0.13765 1.03281 0.0
H644 H 0.97942 0.20509 1.06572 0.0
C645 C 0.0616 0.15741 0.98225 0.0
C646 C 0.04781 0.1944 0.96125 0.0
H647 H 0.05749 0.10937 1.04696 0.0
H648 H 0.08441 0.14343 0.95941 0.0
C649 C 0.01821 0.21084 0.99324 0.0
C650 C 0.10126 0.78418 0.24037 0.0
C651 C 0.08436 0.75494 0.28013 0.0
H652 H 0.09579 0.82288 0.16694 0.0
C653 C 0.04652 0.74403 0.27494 0.0
H654 H 0.13009 0.79377 0.24243 0.0
C655 C 0.02665 0.76107 0.23208 0.0
C656 C 0.04361 0.78959 0.19163 0.0
H657 H 0.03178 0.72214 0.30448 0.0
H658 H -0.00231 0.75171 0.2306 0.0
C659 C 0.08135 0.80102 0.19683 0.0
C660 C 0.41909 0.71658 0.30732 0.0
C661 C 0.40892 0.7388 0.25975 0.0
H662 H 0.4379 0.71536 0.38482 0.0
C663 C 0.40935 0.77942 0.25744 0.0
H664 H 0.41949 0.68529 0.31141 0.0
C665 C 0.42002 0.79697 0.30013 0.0
C666 C 0.43063 0.77485 0.34764 0.0
H667 H 0.40188 0.79797 0.22205 0.0
H668 H 0.41947 0.82823 0.29576 0.0
C669 C 0.42961 0.73411 0.35013 0.0
C670 C 0.51128 0.17525 0.59894 0.0
C671 C 0.47176 0.16924 0.61656 0.0
H672 H 0.55844 0.17202 0.53742 0.0
C673 C 0.45017 0.15302 0.58198 0.0
H674 H 0.52926 0.18807 0.62315 0.0
C675 C 0.46726 0.14328 0.53236 0.0
C676 C 0.5066 0.14991 0.51459 0.0
H677 H 0.41986 0.14737 0.59345 0.0
H678 H 0.44934 0.13116 0.50738 0.0
C679 C 0.52817 0.1661 0.54908 0.0
C680 C 0.85452 0.87234 0.3595 0.0
C681 C 0.82706 0.85023 0.39478 0.0
H682 H 0.86895 0.89947 0.2796 0.0
C683 C 0.7885 0.85251 0.38473 0.0
H684 H 0.88432 0.87157 0.3672 0.0
C685 C 0.77963 0.86791 0.33375 0.0
C686 C 0.80978 0.87978 0.2935 0.0
H687 H 0.76667 0.83632 0.41228 0.0
H688 H 0.75135 0.86262 0.32331 0.0
C689 C 0.84542 0.88846 0.30907 0.0
C690 C 0.82994 0.03907 0.96115 0.0
C691 C 0.82293 0.06172 0.91292 0.0
H692 H 0.82936 0.0367 1.04533 0.0
C693 C 0.80289 0.09707 0.91401 0.0
H694 H 0.84519 0.01169 0.96126 0.0
C695 C 0.79388 0.11147 0.96203 0.0
C696 C 0.80445 0.09053 1.00959 0.0
H697 H 0.79737 0.11532 0.87731 0.0
H698 H 0.78139 0.1402 0.96143 0.0
C699 C 0.82057 0.05329 1.00923 0.0
C700 C 0.66233 0.08555 0.68978 0.0
C701 C 0.62262 0.07744 0.69858 0.0
H702 H 0.70905 0.11133 0.63446 0.0
C703 C 0.60083 0.08428 0.65529 0.0
H704 H 0.67993 0.08097 0.72233 0.0
C705 C 0.61734 0.10264 0.6059 0.0
C706 C 0.65609 0.11347 0.59854 0.0
H707 H 0.57043 0.07778 0.66049 0.0
H708 H 0.5994 0.10994 0.57395 0.0
C709 C 0.67901 0.10335 0.63984 0.0
C710 C 0.64349 0.85747 0.5595 0.0
C711 C 0.62826 0.88831 0.58455 0.0
H712 H 0.66528 0.84024 0.4854 0.0
C713 C 0.63845 0.92626 0.56164 0.0
H714 H 0.63666 0.8279 0.57718 0.0
C715 C 0.6536 0.93359 0.50797 0.0
C716 C 0.65841 0.90265 0.47849 0.0
H717 H 0.62784 0.95043 0.58127 0.0
H718 H 0.65366 0.96316 0.48761 0.0
C719 C 0.65996 0.8648 0.50655 0.0
C720 C 0.51584 0.70889 0.49429 0.0
C721 C 0.54569 0.69258 0.46253 0.0
H722 H 0.47703 0.70315 0.56677 0.0
C723 C 0.55974 0.65578 0.48381 0.0
H724 H 0.50437 0.73706 0.48018 0.0
C725 C 0.54432 0.63614 0.53449 0.0
C726 C 0.51383 0.65223 0.56566 0.0
H727 H 0.58272 0.6419 0.46116 0.0
H728 H 0.55602 0.60804 0.5489 0.0
C729 C 0.50009 0.68913 0.54442 0.0
C730 C 0.60339 0.28443 0.73957 0.0
C731 C 0.58589 0.25602 0.78007 0.0
H732 H 0.59854 0.32248 0.66535 0.0
C733 C 0.54765 0.24609 0.77548 0.0
H734 H 0.63257 0.29325 0.74115 0.0
C735 C 0.52797 0.2632 0.73247 0.0
C736 C 0.54551 0.29082 0.69123 0.0
H737 H 0.53246 0.22494 0.80565 0.0
H738 H 0.49869 0.25461 0.7315 0.0
C739 C 0.58366 0.30133 0.69584 0.0
C740 C 0.93137 0.23519 0.84931 0.0
C741 C 0.93241 0.27595 0.84661 0.0
H742 H 0.92103 0.18623 0.81096 0.0
C743 C 0.92181 0.29794 0.799 0.0
H744 H 0.93972 0.21653 0.88402 0.0
C745 C 0.91108 0.28024 0.75647 0.0
C746 C 0.91047 0.2396 0.75909 0.0
H747 H 0.92128 0.3292 0.79442 0.0
H748 H 0.90357 0.29871 0.72104 0.0
C749 C 0.9207 0.21751 0.8067 0.0
C750 C 0.01023 0.67673 0.09902 0.0
C751 C 0.97086 0.66981 0.11671 0.0
H752 H 0.05747 0.67462 1.03725 0.0
C753 C 0.94975 0.65289 0.08225 0.0
H754 H 0.02784 0.69003 0.1232 0.0
C755 C 0.96716 0.64333 1.03268 0.0
C756 C 0.00633 0.65091 1.01477 0.0
H757 H 0.9196 0.64647 0.09384 0.0
H758 H 0.9496 0.63061 1.00783 0.0
C759 C 0.02741 0.66785 1.04911 0.0
C760 C 0.2786 0.37063 0.83295 0.0
C761 C 0.30894 0.3826 0.79303 0.0
H762 H 0.2654 0.34115 0.9126 0.0
C763 C 0.3436 0.39374 0.80899 0.0
H764 H 0.25097 0.3635 0.82207 0.0
C765 C 0.35214 0.38012 0.86057 0.0
C766 C 0.32522 0.35743 0.89607 0.0
H767 H 0.36715 0.40491 0.77966 0.0
H768 H 0.38167 0.38111 0.86903 0.0
C769 C 0.28694 0.35766 0.88493 0.0
C770 C 0.3559 0.62326 0.47055 0.0
C771 C 0.32155 0.6109 0.5021 0.0
H772 H 0.39587 0.61619 0.40301 0.0
C773 C 0.30007 0.58169 0.48735 0.0
H774 H 0.37365 0.64506 0.48131 0.0
C775 C 0.31343 0.56444 0.44258 0.0
C776 C 0.34868 0.57582 0.41279 0.0
H777 H 0.27359 0.57156 0.5112 0.0
H778 H 0.29673 0.54182 0.43184 0.0
C779 C 0.36926 0.60593 0.42648 0.0
C780 C 0.15995 0.58959 0.18841 0.0
C781 C 0.12034 0.58102 0.19728 0.0
H782 H 0.20623 0.6167 0.13354 0.0
C783 C 0.0983 0.58854 0.15431 0.0
H784 H 0.17776 0.58442 0.22068 0.0
C785 C 0.11445 0.60787 0.10531 0.0
C786 C 0.15307 0.6192 0.09802 0.0
H787 H 0.06799 0.58166 0.1595 0.0
H788 H 0.0964 0.61528 1.07353 0.0
C789 C 0.17626 0.60847 0.13889 0.0
C790 C 0.15432 0.43575 1.00621 0.0
C791 C 0.15924 0.40478 0.97683 0.0
H792 H 0.12875 0.45258 0.07959 0.0
C793 C 0.16118 0.36697 1.00495 0.0
H794 H 0.15407 0.46528 0.98574 0.0
C795 C 0.14508 0.35964 1.05808 0.0
C796 C 0.12971 0.39041 0.08315 0.0
H797 H 0.1666 0.34242 0.98381 0.0
H798 H 0.13856 0.33003 0.07588 0.0
C799 C 0.13951 0.42841 1.06002 0.0
C800 C -0.01193 0.27023 0.26032 0.0
C801 C 0.02173 0.28159 0.22664 0.0
H802 H 0.95069 0.22301 0.29254 0.0
C803 C 0.04848 0.25434 0.21033 0.0
H804 H 0.96736 0.29139 0.27349 0.0
C805 C 0.03946 0.21556 0.22235 0.0
C806 C 0.00312 0.2045 0.24901 0.0
H807 H 0.07477 0.26317 0.18491 0.0
H808 H 0.05907 0.19494 0.20553 0.0
C809 C 0.97849 0.23145 0.27104 0.0
C810 C -0.01502 0.78964 0.45253 0.0
C811 C 0.96047 0.76728 0.49204 0.0
H812 H 0.04231 0.79616 0.41422 0.0
C813 C 0.97559 0.74165 0.53261 0.0
H814 H 0.97364 0.81019 0.4218 0.0
C815 C 0.01446 0.73286 0.52748 0.0
C816 C 0.03796 0.75089 0.48312 0.0
H817 H 0.95711 0.72474 0.56437 0.0
H818 H 0.02538 0.70954 0.555 0.0
C819 C 0.02405 0.78171 0.44843 0.0
C820 C 0.54013 0.71426 0.72321 0.0
C821 C 0.5044 0.70277 0.7515 0.0
H822 H 0.57422 0.76231 0.68413 0.0
C823 C 0.4802 0.72939 0.77502 0.0
H824 H 0.55946 0.69388 0.70534 0.0
C825 C 0.48925 0.76828 0.7639 0.0
C826 C 0.52195 0.78008 0.72841 0.0
H827 H 0.45292 0.72061 0.79785 0.0
H828 H 0.46866 0.78915 0.77815 0.0
C829 C 0.5486 0.75316 0.71086 0.0
C830 C 0.51448 0.23405 1.02605 0.0
C831 C 0.53855 0.25191 0.9822 0.0
H832 H 0.45709 0.22826 1.06337 0.0
C833 C 0.52582 0.28403 0.94855 0.0
H834 H 0.52452 0.20977 1.05285 0.0
C835 C 0.4872 0.29398 0.95336 0.0
C836 C 0.46191 0.27224 0.99248 0.0
H837 H 0.54455 0.29838 0.91478 0.0
H838 H 0.47665 0.31581 0.92346 0.0
C839 C 0.47612 0.24481 1.03192 0.0
C840 C 0.0376 0.75692 0.93904 0.0
C841 C 0.00213 0.75008 0.97072 0.0
H842 H 0.07163 0.75009 0.86603 0.0
C843 C 0.97168 0.73525 0.94908 0.0
H844 H 0.06114 0.76999 0.95355 0.0
C845 C 0.9778 0.72371 0.89897 0.0
C846 C 0.01476 0.72597 0.87032 0.0
H847 H 0.94345 0.73127 0.97154 0.0
H848 H 0.9546 0.70948 0.88524 0.0
C849 C 0.04345 0.7461 0.88845 0.0
C850 C 0.49536 0.76169 0.1878 0.0
C851 C 0.50397 0.73162 0.22793 0.0
H852 H 0.47542 0.77683 0.11156 0.0
C853 C 0.50439 0.69325 0.21804 0.0
H854 H 0.49618 0.79171 0.19346 0.0
C855 C 0.49415 0.68486 0.17023 0.0
C856 C 0.4813 0.71453 0.13272 0.0
H857 H 0.51185 0.6695 0.2476 0.0
H858 H 0.49324 0.65481 0.16482 0.0
C859 C 0.48435 0.75322 0.14034 0.0
C860 C 0.47963 0.22491 0.39927 0.0
C861 C 0.51679 0.22622 0.37128 0.0
H862 H 0.44498 0.23323 0.47126 0.0
C863 C 0.5458 0.24562 0.38989 0.0
H864 H 0.45623 0.21123 0.38517 0.0
C865 C 0.53973 0.25693 0.4402 0.0
C866 C 0.50394 0.25089 0.47134 0.0
H867 H 0.57428 0.24868 0.36814 0.0
H868 H 0.56339 0.26956 0.455 0.0
C869 C 0.47341 0.2366 0.44927 0.0
C870 C 0.00545 0.19322 0.71939 0.0
C871 C 0.00565 0.23198 0.72739 0.0
H872 H -0.00646 0.15344 0.66854 0.0
C873 C -0.00229 0.26135 0.68596 0.0
H874 H 0.0122 0.16997 0.75011 0.0
C875 C -0.0132 0.25187 0.63897 0.0
C876 C -0.0169 0.21287 0.6332 0.0
H877 H -0.00103 0.29162 0.69025 0.0
H878 H 0.97831 0.275 0.60916 0.0
C879 C -0.00473 0.18379 0.67214 0.0
C880 C -0.00831 -0.01053 0.14233 0.0
C881 C 0.9547 0.00531 0.15197 0.0
H882 H 0.02615 0.94462 0.11155 0.0
C883 C 0.92342 -0.01178 0.13518 0.0
H884 H 0.0163 0.00234 0.15473 0.0
C885 C 0.92896 0.95443 0.11158 0.0
C886 C 0.96601 0.9382 0.10286 0.0
H887 H 0.89468 0.0 0.14222 0.0
H888 H 0.90429 0.94081 0.10061 0.0
C889 C -0.00262 0.95662 0.11733 0.0
C890 C 0.25762 0.6963 0.30891 0.0
C891 C 0.22599 0.67156 0.31436 0.0
H892 H 0.31035 0.71624 0.26362 0.0
C893 C 0.22533 0.6452 0.27783 0.0
H894 H 0.25924 0.71708 0.33597 0.0
C895 C 0.25556 0.64426 0.2362 0.0
C896 C 0.28612 0.67047 0.22982 0.0
H897 H 0.20138 0.62571 0.28118 0.0
H898 H 0.25434 0.62419 0.20808 0.0
C899 C 0.28694 0.69601 0.26706 0.0
C900 C 0.58448 0.03692 0.51774 0.0
C901 C 0.56882 0.0365 0.46946 0.0
H902 H 0.58381 0.01236 0.60052 0.0
C903 C 0.54027 0.00934 0.46829 0.0
H904 H 0.60669 0.05736 0.51984 0.0
C905 C 0.52684 -0.01583 0.51431 0.0
C906 C 0.54176 -0.01502 0.56302 0.0
H907 H 0.52729 0.00819 0.4321 0.0
H908 H 0.50468 0.96387 0.51136 0.0
C909 C 0.57119 0.01135 0.56404 0.0
C910 C 0.24885 0.22016 0.88545 0.0
C911 C 0.25124 0.2422 0.92679 0.0
H912 H 0.21678 0.20692 0.82434 0.0
C913 C 0.22155 0.26862 0.93763 0.0
H914 H 0.2713 0.19969 0.87552 0.0
C915 C 0.19043 0.2731 0.90756 0.0
C916 C 0.18817 0.25113 0.86612 0.0
H917 H 0.22261 0.28633 0.96871 0.0
H918 H 0.16797 0.29363 0.91719 0.0
C919 C 0.21773 0.22457 0.85553 0.0
C920 C 0.7255 0.14674 0.77717 0.0
C921 C 0.72677 0.17225 0.81469 0.0
H922 H 0.75363 0.12689 0.70608 0.0
C923 C 0.75876 0.19647 0.80977 0.0
H924 H 0.70128 0.12762 0.78007 0.0
C925 C 0.78769 0.19673 0.7673 0.0
C926 C 0.78611 0.17221 0.72892 0.0
H927 H 0.76092 0.21652 0.83769 0.0
H928 H 0.81137 0.21658 0.76427 0.0
C929 C 0.75533 0.1463 0.73494 0.0
C930 C 0.74658 0.71629 0.3886 0.0
C931 C 0.74932 0.73846 0.42969 0.0
H932 H 0.71445 0.70343 0.32735 0.0
C933 C 0.72029 0.76575 0.43968 0.0
H934 H 0.76856 0.6952 0.37925 0.0
C935 C 0.68936 0.77078 0.40921 0.0
C936 C 0.68669 0.74855 0.36815 0.0
H937 H 0.72164 0.7836 0.47053 0.0
H938 H 0.66735 0.79188 0.41828 0.0
C939 C 0.7157 0.72128 0.35824 0.0
C940 C 0.49108 0.49088 0.64207 0.0
C941 C 0.45384 0.50617 0.65185 0.0
H942 H 0.52626 0.4466 0.6111 0.0
C943 C 0.42292 0.4888 0.63464 0.0
H944 H 0.51543 0.50394 0.65483 0.0
C945 C 0.42903 0.45524 0.61062 0.0
C946 C 0.4663 0.43943 0.60201 0.0
H947 H 0.39398 0.50011 0.64184 0.0
H948 H 0.4046 0.44138 0.59941 0.0
C949 C 0.49733 0.45822 0.61676 0.0
C950 C 0.08536 0.53982 1.01819 0.0
C951 C 0.07062 0.53897 0.96935 0.0
H952 H 0.08388 0.51531 0.1011 0.0
C953 C 0.04277 0.51127 0.96738 0.0
H954 H 0.10698 0.56073 1.02092 0.0
C955 C 0.02914 0.48594 1.01312 0.0
C956 C 0.04321 0.48708 1.06232 0.0
H957 H 0.03051 0.50977 0.93074 0.0
H958 H 0.00758 0.46518 1.00954 0.0
C959 C 0.07193 0.51403 1.06418 0.0
C960 C 0.10852 0.04344 0.49719 0.0
C961 C 0.12409 0.06937 0.45249 0.0
H962 H 0.09513 0.0327 0.58239 0.0
C963 C 0.14233 0.1029 0.46073 0.0
H964 H 0.09388 0.01756 0.49228 0.0
C965 C 0.14244 0.11177 0.51216 0.0
C966 C 0.12475 0.08707 0.55647 0.0
H967 H 0.15526 0.12307 0.42724 0.0
H968 H 0.15541 0.13854 0.51724 0.0
C969 C 0.109 0.05216 0.54879 0.0
C970 C 0.18478 0.86549 0.66449 0.0
C971 C 0.16866 0.83692 0.64106 0.0
H972 H 0.18609 0.89124 0.73532 0.0
C973 C 0.14366 0.80977 0.67305 0.0
H974 H 0.20425 0.88662 0.64056 0.0
C975 C 0.13374 0.81196 0.72702 0.0
C976 C 0.14829 0.84161 0.75024 0.0
H977 H 0.13159 0.78685 0.65616 0.0
H978 H 0.11429 0.7906 0.75047 0.0
C979 C 0.17453 0.86795 0.71867 0.0
C980 C 0.38185 0.89859 0.83346 0.0
C981 C 0.36128 0.86446 0.83463 0.0
H982 H 0.42534 0.9368 0.791 0.0
C983 C 0.36224 0.84803 0.7876 0.0
H984 H 0.3816 0.91211 0.86895 0.0
C985 C 0.38762 0.86208 0.74281 0.0
C986 C 0.41252 0.89263 0.74463 0.0
H987 H 0.34594 0.82223 0.78703 0.0
H988 H 0.39027 0.8465 0.70896 0.0
C989 C 0.40723 0.91262 0.78873 0.0
C990 C 0.41667 0.09433 0.08275 0.0
C991 C 0.39681 0.08802 0.1346 0.0
H992 H 0.42059 0.12854 1.00532 0.0
C993 C 0.35975 0.10395 0.14318 0.0
H994 H 0.44474 0.08137 1.07435 0.0
C995 C 0.34567 0.13049 0.10343 0.0
C996 C 0.36853 0.14178 1.05466 0.0
H997 H 0.34332 0.09954 0.1823 0.0
H998 H 0.31853 0.14489 0.11304 0.0
C999 C 0.40275 0.12127 1.04307 0.0
C1000 C 0.88133 0.80597 0.87006 0.0
C1001 C 0.90248 0.80951 0.81874 0.0
H1002 H 0.87974 0.81139 0.953 0.0
C1003 C 0.94091 0.82238 0.81485 0.0
H1004 H 0.85223 0.79522 0.8765 0.0
C1005 C 0.95714 0.83127 0.85991 0.0
C1006 C 0.93557 0.82821 0.91081 0.0
H1007 H 0.95866 0.82611 0.77676 0.0
H1008 H -0.01323 0.84051 0.85473 0.0
C1009 C 0.89736 0.81529 0.91473 0.0
C1010 C 0.93997 0.11583 0.47152 0.0
C1011 C 0.90671 0.13919 0.47903 0.0
H1012 H 0.97788 0.0859 0.41805 0.0
C1013 C 0.88529 0.14865 0.43545 0.0
H1014 H 0.95765 0.1081 0.50366 0.0
C1015 C 0.89646 0.13484 0.38654 0.0
C1016 C 0.93004 0.11195 0.37888 0.0
H1017 H 0.85972 0.1666 0.43918 0.0
H1018 H 0.87922 0.14309 0.35403 0.0
C1019 C 0.95173 0.10296 0.4222 0.0
C1020 C 0.64393 0.18129 0.12312 0.0
C1021 C 0.62755 0.16457 0.08422 0.0
H1022 H 0.64535 0.18364 0.2069 0.0
C1023 C 0.59862 0.1367 0.10247 0.0
H1024 H 0.66596 0.20304 0.1109 0.0
C1025 C 0.58588 0.12652 0.15736 0.0
C1026 C 0.60252 0.14278 0.19636 0.0
H1027 H 0.58478 0.12352 1.07401 0.0
H1028 H 0.56295 0.10572 0.16929 0.0
C1029 C 0.63213 0.17001 0.17831 0.0
C1030 C 0.57977 0.79128 1.04669 0.0
C1031 C 0.5754 0.83192 1.03318 0.0
H1032 H 0.58871 0.74245 0.1069 0.0
C1033 C 0.57786 0.85381 1.07507 0.0
H1034 H 0.57876 0.77266 1.01675 0.0
C1035 C 0.58453 0.83621 0.12712 0.0
C1036 C 0.58882 0.79573 0.14038 0.0
H1037 H 0.57391 0.88487 1.06832 0.0
H1038 H 0.58553 0.85456 0.15746 0.0
C1039 C 0.5861 0.77366 0.09897 0.0
C1040 C 0.60746 0.54158 0.99833 0.0
C1041 C 0.62311 0.56747 0.95363 0.0
H1042 H 0.59384 0.53092 0.08349 0.0
C1043 C 0.64121 0.60107 0.96191 0.0
H1044 H 0.59292 0.51564 0.99341 0.0
C1045 C 0.6411 0.61004 1.01334 0.0
C1046 C 0.62336 0.58535 1.05762 0.0
H1047 H 0.65421 0.62122 0.92845 0.0
H1048 H 0.65399 0.63685 1.01842 0.0
C1049 C 0.60775 0.55038 1.04992 0.0
C1050 C 0.62532 0.37756 0.20417 0.0
C1051 C 0.64707 0.35888 0.24356 0.0
H1052 H 0.61842 0.38931 0.12109 0.0
C1053 C 0.68082 0.33894 0.22789 0.0
H1054 H 0.59955 0.39375 0.2151 0.0
C1055 C 0.69147 0.336 0.17401 0.0
C1056 C 0.66875 0.35326 0.13469 0.0
H1057 H 0.69803 0.32414 0.25749 0.0
H1058 H 0.71647 0.31862 0.16359 0.0
C1059 C 0.63615 0.37499 0.15035 0.0
C1060 C 0.88954 0.36275 0.24174 0.0
C1061 C 0.91405 0.39365 0.24343 0.0
H1062 H 0.84845 0.32236 0.28617 0.0
C1063 C 0.90859 0.41361 0.28755 0.0
H1064 H 0.89234 0.34717 0.2079 0.0
C1065 C 0.88343 0.39929 0.33238 0.0
C1066 C 0.86328 0.36488 0.33363 0.0
H1067 H 0.92641 0.43803 0.28972 0.0
H1068 H 0.88305 0.41285 0.36785 0.0
C1069 C 0.8644 0.34839 0.28664 0.0
C1070 C 0.85818 0.60025 0.65141 0.0
C1071 C 0.89453 0.58303 0.64166 0.0
H1072 H 0.81729 0.64183 0.62191 0.0
C1073 C 0.91309 0.58781 0.58906 0.0
H1074 H 0.84277 0.59705 0.6912 0.0
C1075 C 0.89877 0.61435 0.5493 0.0
C1076 C 0.86547 0.63608 0.56159 0.0
H1077 H 0.94056 0.57389 0.57989 0.0
H1078 H 0.91571 0.62032 0.51063 0.0
C1079 C 0.84371 0.62645 0.61162 0.0
C1080 C 0.39845 0.31417 0.41491 0.0
C1081 C 0.43612 0.32862 0.41069 0.0
H1082 H 0.35372 0.29334 0.37671 0.0
C1083 C 0.45707 0.33366 0.3593 0.0
H1084 H 0.38134 0.30872 0.45349 0.0
C1085 C 0.44072 0.32523 0.31406 0.0
C1086 C 0.40281 0.31089 0.31828 0.0
H1087 H 0.48628 0.34417 0.35384 0.0
H1088 H 0.45791 0.33051 0.27559 0.0
C1089 C 0.38233 0.30532 0.37008 0.0
C1090 C 0.43952 0.61558 0.97221 0.0
C1091 C 0.40601 0.63872 0.97879 0.0
H1092 H 0.47792 0.58514 0.92008 0.0
C1093 C 0.38473 0.64742 0.935 0.0
H1094 H 0.4571 0.60848 1.00458 0.0
C1095 C 0.39627 0.63288 0.88674 0.0
C1096 C 0.43004 0.61011 0.88012 0.0
H1097 H 0.359 0.66519 0.93812 0.0
H1098 H 0.37916 0.64041 0.85392 0.0
C1099 C 0.45163 0.60205 0.92357 0.0
C1100 C 0.14263 0.68292 0.62261 0.0
C1101 C 0.1274 0.66475 0.5841 0.0
H1102 H 0.1432 0.68675 0.70614 0.0
C1103 C 0.09958 0.6358 0.60287 0.0
H1104 H 0.16369 0.70558 0.61005 0.0
C1105 C 0.08684 0.62592 0.65783 0.0
C1106 C 0.10243 0.64359 0.69642 0.0
H1107 H 0.08656 0.6215 0.57475 0.0
H1108 H 0.06477 0.60423 0.67013 0.0
C1109 C 0.13088 0.67198 0.67789 0.0
C1110 C 0.07918 0.35538 0.57369 0.0
C1111 C 0.07682 0.33351 0.53177 0.0
H1112 H 0.0868 0.35612 0.65609 0.0
C1113 C 0.08132 0.29288 0.54521 0.0
H1114 H 0.07512 0.38643 0.56698 0.0
C1115 C 0.08768 0.27526 0.59747 0.0
C1116 C 0.0903 0.29732 0.63891 0.0
H1117 H 0.08039 0.27428 0.51523 0.0
H1118 H 0.09039 0.24405 0.60536 0.0
C1119 C 0.08589 0.33779 0.62571 0.0
loop_
_geom_bond_atom_site_label_1
_geom_bond_atom_site_label_2
_geom_bond_distance
_geom_bond_site_symmetry_2
_ccdc_geom_bond_type
Tb0 C9 2.764 . S
Tb0 O10 2.325 1_655 S
Tb0 O13 2.303 1_655 S
Tb0 O17 2.322 . S
Tb0 O18 2.349 . S
Tb0 O21 2.415 . S
Tb0 O22 2.399 . S
Tb1 O11 2.322 . S
Tb1 O12 2.349 . S
Tb1 O14 2.415 . S
Tb1 O15 2.399 . S
Tb1 O16 2.325 . S
Tb1 O19 2.303 . S
Tb1 C30 2.764 . S
C2 O18 1.261 1_455 S
C2 O19 1.257 . S
C3 C6 1.358 . S
C3 C7 1.332 . S
C3 C9 1.504 1_556 S
C4 C5 1.373 . S
C4 C8 1.308 . S
C5 C4 1.373 . S
C5 C6 1.429 . S
C5 H32 0.932 . S
C6 C3 1.358 . S
C6 C5 1.429 . S
C6 H33 0.930 . S
C7 C3 1.332 . S
C7 C8 1.394 . S
C7 H34 0.932 . S
C8 C4 1.308 . S
C8 C7 1.394 . S
C8 H35 0.929 . S
C9 Tb0 2.764 . S
C9 C3 1.504 1_554 S
C9 O21 1.239 . S
C9 O22 1.263 . S
O10 Tb0 2.325 1_455 S
O10 C20 1.236 . S
O11 Tb1 2.322 . S
O11 C20 1.257 . S
O12 Tb1 2.349 . S
O12 C23 1.261 . S
O13 Tb0 2.303 1_455 S
O13 C23 1.257 . S
O14 Tb1 2.415 . S
O14 C30 1.239 . S
O15 Tb1 2.399 . S
O15 C30 1.263 . S
O16 Tb1 2.325 . S
O16 C31 1.236 1_455 S
O17 Tb0 2.322 . S
O17 C31 1.257 . S
O18 Tb0 2.349 . S
O18 C2 1.261 1_655 S
O19 Tb1 2.303 . S
O19 C2 1.257 . S
C20 O10 1.236 . S
C20 O11 1.257 . S
O21 Tb0 2.415 . S
O21 C9 1.239 . S
O22 Tb0 2.399 . S
O22 C9 1.263 . S
C23 O12 1.261 . S
C23 O13 1.257 . S
C24 C27 1.358 . S
C24 C28 1.332 . S
C24 C30 1.504 . S
C25 C26 1.373 . S
C25 C29 1.308 . S
C26 C25 1.373 . S
C26 C27 1.429 . S
C26 H36 0.932 . S
C27 C24 1.358 . S
C27 C26 1.429 . S
C27 H37 0.930 . S
C28 C24 1.332 . S
C28 C29 1.394 . S
C28 H38 0.932 . S
C29 C25 1.308 . S
C29 C28 1.394 . S
C29 H39 0.929 . S
C30 Tb1 2.764 . S
C30 O14 1.239 . S
C30 O15 1.263 . S
C30 C24 1.504 . S
C31 O16 1.236 1_655 S
C31 O17 1.257 . S
H32 C5 0.932 . S
H33 C6 0.930 . S
H34 C7 0.932 . S
H35 C8 0.929 . S
H36 C26 0.932 . S
H37 C27 0.930 . S
H38 C28 0.932 . S
H39 C29 0.929 . S
Tb40 C49 2.764 . S
Tb40 O50 2.325 . S
Tb40 O53 2.303 . S
Tb40 O57 2.322 . S
Tb40 O58 2.349 . S
Tb40 O61 2.415 . S
Tb40 O62 2.399 . S
Tb41 O51 2.322 . S
Tb41 O52 2.349 . S
Tb41 O54 2.415 . S
Tb41 O55 2.399 . S
Tb41 O56 2.325 . S
Tb41 O59 2.303 . S
Tb41 C70 2.764 . S
C42 O58 1.261 . S
C42 O59 1.257 . S
C43 C46 1.358 . S
C43 C47 1.332 . S
C43 C49 1.504 . S
C44 C45 1.373 . S
C44 C48 1.308 . S
C45 C44 1.373 . S
C45 C46 1.429 . S
C45 H72 0.932 . S
C46 C43 1.358 . S
C46 C45 1.429 . S
C46 H73 0.930 . S
C47 C43 1.332 . S
C47 C48 1.394 . S
C47 H74 0.932 . S
C48 C44 1.308 . S
C48 C47 1.394 . S
C48 H75 0.929 . S
C49 Tb40 2.764 . S
C49 C43 1.504 . S
C49 O61 1.239 . S
C49 O62 1.263 . S
O50 Tb40 2.325 . S
O50 C60 1.236 . S
O51 Tb41 2.322 . S
O51 C60 1.257 . S
O52 Tb41 2.349 . S
O52 C63 1.261 . S
O53 Tb40 2.303 . S
O53 C63 1.257 . S
O54 Tb41 2.415 . S
O54 C70 1.239 . S
O55 Tb41 2.399 . S
O55 C70 1.263 . S
O56 Tb41 2.325 . S
O56 C71 1.236 . S
O57 Tb40 2.322 . S
O57 C71 1.257 . S
O58 Tb40 2.349 . S
O58 C42 1.261 . S
O59 Tb41 2.303 . S
O59 C42 1.257 . S
C60 O50 1.236 . S
C60 O51 1.257 . S
O61 Tb40 2.415 . S
O61 C49 1.239 . S
O62 Tb40 2.399 . S
O62 C49 1.263 . S
C63 O52 1.261 . S
C63 O53 1.257 . S
C64 C67 1.358 . S
C64 C68 1.332 . S
C64 C70 1.504 . S
C65 C66 1.373 . S
C65 C69 1.308 . S
C66 C65 1.373 . S
C66 C67 1.429 . S
C66 H76 0.932 . S
C67 C64 1.358 . S
C67 C66 1.429 . S
C67 H77 0.930 . S
C68 C64 1.332 . S
C68 C69 1.394 . S
C68 H78 0.932 . S
C69 C65 1.308 . S
C69 C68 1.394 . S
C69 H79 0.929 . S
C70 Tb41 2.764 . S
C70 O54 1.239 . S
C70 O55 1.263 . S
C70 C64 1.504 . S
C71 O56 1.236 . S
C71 O57 1.257 . S
H72 C45 0.932 . S
H73 C46 0.930 . S
H74 C47 0.932 . S
H75 C48 0.929 . S
H76 C66 0.932 . S
H77 C67 0.930 . S
H78 C68 0.932 . S
H79 C69 0.929 . S
Tb80 C89 2.764 . S
Tb80 O90 2.325 . S
Tb80 O93 2.303 . S
Tb80 O97 2.322 . S
Tb80 O98 2.349 . S
Tb80 O101 2.415 . S
Tb80 O102 2.399 . S
Tb81 O91 2.322 . S
Tb81 O92 2.349 . S
Tb81 O94 2.415 . S
Tb81 O95 2.399 . S
Tb81 O96 2.325 . S
Tb81 O99 2.303 . S
Tb81 C110 2.764 . S
C82 O98 1.261 . S
C82 O99 1.257 . S
C83 C86 1.358 . S
C83 C87 1.332 . S
C83 C89 1.504 . S
C84 C85 1.373 . S
C84 C88 1.308 . S
C85 C84 1.373 . S
C85 C86 1.429 . S
C85 H112 0.932 . S
C86 C83 1.358 . S
C86 C85 1.429 . S
C86 H113 0.930 . S
C87 C83 1.332 . S
C87 C88 1.394 . S
C87 H114 0.932 . S
C88 C84 1.308 . S
C88 C87 1.394 . S
C88 H115 0.929 . S
C89 Tb80 2.764 . S
C89 C83 1.504 . S
C89 O101 1.239 . S
C89 O102 1.263 . S
O90 Tb80 2.325 . S
O90 C100 1.236 . S
O91 Tb81 2.322 . S
O91 C100 1.257 . S
O92 Tb81 2.349 . S
O92 C103 1.261 . S
O93 Tb80 2.303 . S
O93 C103 1.257 . S
O94 Tb81 2.415 . S
O94 C110 1.239 . S
O95 Tb81 2.399 . S
O95 C110 1.263 . S
O96 Tb81 2.325 . S
O96 C111 1.236 . S
O97 Tb80 2.322 . S
O97 C111 1.257 . S
O98 Tb80 2.349 . S
O98 C82 1.261 . S
O99 Tb81 2.303 . S
O99 C82 1.257 . S
C100 O90 1.236 . S
C100 O91 1.257 . S
O101 Tb80 2.415 . S
O101 C89 1.239 . S
O102 Tb80 2.399 . S
O102 C89 1.263 . S
C103 O92 1.261 . S
C103 O93 1.257 . S
C104 C107 1.358 . S
C104 C108 1.332 . S
C104 C110 1.504 . S
C105 C106 1.373 . S
C105 C109 1.308 . S
C106 C105 1.373 . S
C106 C107 1.429 . S
C106 H116 0.932 . S
C107 C104 1.358 . S
C107 C106 1.429 . S
C107 H117 0.930 . S
C108 C104 1.332 . S
C108 C109 1.394 . S
C108 H118 0.932 . S
C109 C105 1.308 . S
C109 C108 1.394 . S
C109 H119 0.929 . S
C110 Tb81 2.764 . S
C110 O94 1.239 . S
C110 O95 1.263 . S
C110 C104 1.504 . S
C111 O96 1.236 . S
C111 O97 1.257 . S
H112 C85 0.932 . S
H113 C86 0.930 . S
H114 C87 0.932 . S
H115 C88 0.929 . S
H116 C106 0.932 . S
H117 C107 0.930 . S
H118 C108 0.932 . S
H119 C109 0.929 . S
Tb120 C129 2.764 1_556 S
Tb120 O130 2.325 . S
Tb120 O133 2.303 . S
Tb120 O137 2.322 . S
Tb120 O138 2.349 . S
Tb120 O141 2.415 . S
Tb120 O142 2.399 . S
Tb121 O131 2.322 . S
Tb121 O132 2.349 . S
Tb121 O134 2.415 . S
Tb121 O135 2.399 . S
Tb121 O136 2.325 . S
Tb121 O139 2.303 . S
Tb121 C150 2.764 . S
C122 O138 1.261 . S
C122 O139 1.257 . S
C123 C126 1.358 . S
C123 C127 1.332 . S
C123 C129 1.504 . S
C124 C125 1.373 . S
C124 C128 1.308 . S
C125 C124 1.373 . S
C125 C126 1.429 . S
C125 H152 0.932 . S
C126 C123 1.358 . S
C126 C125 1.429 . S
C126 H153 0.930 . S
C127 C123 1.332 . S
C127 C128 1.394 . S
C127 H154 0.932 . S
C128 C124 1.308 . S
C128 C127 1.394 . S
C128 H155 0.929 . S
C129 Tb120 2.764 1_554 S
C129 C123 1.504 . S
C129 O141 1.239 1_554 S
C129 O142 1.263 1_554 S
O130 Tb120 2.325 . S
O130 C140 1.236 . S
O131 Tb121 2.322 . S
O131 C140 1.257 . S
O132 Tb121 2.349 . S
O132 C143 1.261 . S
O133 Tb120 2.303 . S
O133 C143 1.257 . S
O134 Tb121 2.415 . S
O134 C150 1.239 . S
O135 Tb121 2.399 . S
O135 C150 1.263 . S
O136 Tb121 2.325 . S
O136 C151 1.236 . S
O137 Tb120 2.322 . S
O137 C151 1.257 . S
O138 Tb120 2.349 . S
O138 C122 1.261 . S
O139 Tb121 2.303 . S
O139 C122 1.257 . S
C140 O130 1.236 . S
C140 O131 1.257 . S
O141 Tb120 2.415 . S
O141 C129 1.239 1_556 S
O142 Tb120 2.399 . S
O142 C129 1.263 1_556 S
C143 O132 1.261 . S
C143 O133 1.257 . S
C144 C147 1.358 . S
C144 C148 1.332 . S
C144 C150 1.504 . S
C145 C146 1.373 . S
C145 C149 1.308 . S
C146 C145 1.373 . S
C146 C147 1.429 . S
C146 H156 0.932 . S
C147 C144 1.358 . S
C147 C146 1.429 . S
C147 H157 0.930 . S
C148 C144 1.332 . S
C148 C149 1.394 . S
C148 H158 0.932 . S
C149 C145 1.308 . S
C149 C148 1.394 . S
C149 H159 0.929 . S
C150 Tb121 2.764 . S
C150 O134 1.239 . S
C150 O135 1.263 . S
C150 C144 1.504 . S
C151 O136 1.236 . S
C151 O137 1.257 . S
H152 C125 0.932 . S
H153 C126 0.930 . S
H154 C127 0.932 . S
H155 C128 0.929 . S
H156 C146 0.932 . S
H157 C147 0.930 . S
H158 C148 0.932 . S
H159 C149 0.929 . S
Tb160 C169 2.764 1_556 S
Tb160 O170 2.325 1_656 S
Tb160 O173 2.303 . S
Tb160 O177 2.322 . S
Tb160 O178 2.349 . S
Tb160 O181 2.415 1_556 S
Tb160 O182 2.399 1_556 S
Tb161 O171 2.322 . S
Tb161 O172 2.349 . S
Tb161 O174 2.415 . S
Tb161 O175 2.399 . S
Tb161 O176 2.325 1_455 S
Tb161 O179 2.303 . S
Tb161 C190 2.764 . S
C162 O178 1.261 . S
C162 O179 1.257 1_655 S
C163 C166 1.358 . S
C163 C167 1.332 . S
C163 C169 1.504 . S
C164 C165 1.373 . S
C164 C168 1.308 . S
C165 C164 1.373 . S
C165 C166 1.429 . S
C165 H192 0.932 . S
C166 C163 1.358 . S
C166 C165 1.429 . S
C166 H193 0.930 . S
C167 C163 1.332 . S
C167 C168 1.394 . S
C167 H194 0.932 . S
C168 C164 1.308 . S
C168 C167 1.394 . S
C168 H195 0.929 . S
C169 Tb160 2.764 1_554 S
C169 C163 1.504 . S
C169 O181 1.239 . S
C169 O182 1.263 . S
O170 Tb160 2.325 1_454 S
O170 C180 1.236 . S
O171 Tb161 2.322 . S
O171 C180 1.257 1_556 S
O172 Tb161 2.349 . S
O172 C183 1.261 . S
O173 Tb160 2.303 . S
O173 C183 1.257 1_655 S
O174 Tb161 2.415 . S
O174 C190 1.239 . S
O175 Tb161 2.399 . S
O175 C190 1.263 . S
O176 Tb161 2.325 1_655 S
O176 C191 1.236 . S
O177 Tb160 2.322 . S
O177 C191 1.257 . S
O178 Tb160 2.349 . S
O178 C162 1.261 . S
O179 Tb161 2.303 . S
O179 C162 1.257 1_455 S
C180 O170 1.236 . S
C180 O171 1.257 1_554 S
O181 Tb160 2.415 1_554 S
O181 C169 1.239 . S
O182 Tb160 2.399 1_554 S
O182 C169 1.263 . S
C183 O172 1.261 . S
C183 O173 1.257 1_455 S
C184 C187 1.358 . S
C184 C188 1.332 . S
C184 C190 1.504 . S
C185 C186 1.373 . S
C185 C189 1.308 . S
C186 C185 1.373 . S
C186 C187 1.429 . S
C186 H196 0.932 . S
C187 C184 1.358 . S
C187 C186 1.429 . S
C187 H197 0.930 . S
C188 C184 1.332 . S
C188 C189 1.394 . S
C188 H198 0.932 . S
C189 C185 1.308 . S
C189 C188 1.394 . S
C189 H199 0.929 . S
C190 Tb161 2.764 . S
C190 O174 1.239 . S
C190 O175 1.263 . S
C190 C184 1.504 . S
C191 O176 1.236 . S
C191 O177 1.257 . S
H192 C165 0.932 . S
H193 C166 0.930 . S
H194 C167 0.932 . S
H195 C168 0.929 . S
H196 C186 0.932 . S
H197 C187 0.930 . S
H198 C188 0.932 . S
H199 C189 0.929 . S
Tb200 C209 2.764 . S
Tb200 O210 2.325 . S
Tb200 O213 2.303 . S
Tb200 O217 2.322 . S
Tb200 O218 2.349 . S
Tb200 O221 2.415 . S
Tb200 O222 2.399 . S
Tb201 O211 2.322 . S
Tb201 O212 2.349 . S
Tb201 O214 2.415 1_554 S
Tb201 O215 2.399 1_554 S
Tb201 O216 2.320 1_554 S
Tb201 O219 2.303 . S
Tb201 C230 2.764 1_554 S
C202 O218 1.261 . S
C202 O219 1.257 . S
C203 C206 1.358 . S
C203 C207 1.332 . S
C203 C209 1.504 . S
C204 C205 1.373 . S
C204 C208 1.308 . S
C205 C204 1.373 . S
C205 C206 1.429 . S
C205 H232 0.932 . S
C206 C203 1.358 . S
C206 C205 1.429 . S
C206 H233 0.930 . S
C207 C203 1.332 . S
C207 C208 1.394 . S
C207 H234 0.932 . S
C208 C204 1.308 . S
C208 C207 1.394 . S
C208 H235 0.929 . S
C209 Tb200 2.764 . S
C209 C203 1.504 . S
C209 O221 1.239 . S
C209 O222 1.263 . S
O210 Tb200 2.325 . S
O210 C220 1.236 . S
O211 Tb201 2.322 . S
O211 C220 1.257 . S
O212 Tb201 2.349 . S
O212 C223 1.261 . S
O213 Tb200 2.303 . S
O213 C223 1.257 . S
O214 Tb201 2.415 1_556 S
O214 C230 1.239 . S
O215 Tb201 2.399 1_556 S
O215 C230 1.263 . S
O216 Tb201 2.320 1_556 S
O216 C231 1.236 1_556 S
O217 Tb200 2.322 . S
O217 C231 1.257 . S
O218 Tb200 2.349 . S
O218 C202 1.261 . S
O219 Tb201 2.303 . S
O219 C202 1.257 . S
C220 O210 1.236 . S
C220 O211 1.257 . S
O221 Tb200 2.415 . S
O221 C209 1.239 . S
O222 Tb200 2.399 . S
O222 C209 1.263 . S
C223 O212 1.261 . S
C223 O213 1.257 . S
C224 C227 1.358 . S
C224 C228 1.332 . S
C224 C230 1.504 . S
C225 C226 1.373 . S
C225 C229 1.308 . S
C226 C225 1.373 . S
C226 C227 1.429 . S
C226 H236 0.932 . S
C227 C224 1.358 . S
C227 C226 1.429 . S
C227 H237 0.930 . S
C228 C224 1.332 . S
C228 C229 1.394 . S
C228 H238 0.932 . S
C229 C225 1.308 . S
C229 C228 1.394 . S
C229 H239 0.929 . S
C230 Tb201 2.764 1_556 S
C230 O214 1.239 . S
C230 O215 1.263 . S
C230 C224 1.504 . S
C231 O216 1.236 1_554 S
C231 O217 1.257 . S
H232 C205 0.932 . S
H233 C206 0.930 . S
H234 C207 0.932 . S
H235 C208 0.929 . S
H236 C226 0.932 . S
H237 C227 0.930 . S
H238 C228 0.932 . S
H239 C229 0.929 . S
Tb240 C249 2.764 . S
Tb240 O250 2.325 . S
Tb240 O253 2.303 . S
Tb240 O257 2.322 . S
Tb240 O258 2.349 . S
Tb240 O261 2.415 . S
Tb240 O262 2.399 . S
Tb241 O251 2.322 . S
Tb241 O252 2.349 . S
Tb241 O254 2.415 . S
Tb241 O255 2.399 . S
Tb241 O256 2.325 . S
Tb241 O259 2.303 . S
Tb241 C270 2.764 . S
C242 O258 1.261 . S
C242 O259 1.257 . S
C243 C246 1.358 . S
C243 C247 1.332 . S
C243 C249 1.504 . S
C244 C245 1.373 . S
C244 C248 1.308 . S
C245 C244 1.373 . S
C245 C246 1.429 . S
C245 H272 0.932 . S
C246 C243 1.358 . S
C246 C245 1.429 . S
C246 H273 0.930 . S
C247 C243 1.332 . S
C247 C248 1.394 . S
C247 H274 0.932 . S
C248 C244 1.308 . S
C248 C247 1.394 . S
C248 H275 0.929 . S
C249 Tb240 2.764 . S
C249 C243 1.504 . S
C249 O261 1.239 . S
C249 O262 1.263 . S
O250 Tb240 2.325 . S
O250 C260 1.236 . S
O251 Tb241 2.322 . S
O251 C260 1.257 . S
O252 Tb241 2.349 . S
O252 C263 1.261 . S
O253 Tb240 2.303 . S
O253 C263 1.257 . S
O254 Tb241 2.415 . S
O254 C270 1.239 . S
O255 Tb241 2.399 . S
O255 C270 1.263 . S
O256 Tb241 2.325 . S
O256 C271 1.236 . S
O257 Tb240 2.322 . S
O257 C271 1.257 . S
O258 Tb240 2.349 . S
O258 C242 1.261 . S
O259 Tb241 2.303 . S
O259 C242 1.257 . S
C260 O250 1.236 . S
C260 O251 1.257 . S
O261 Tb240 2.415 . S
O261 C249 1.239 . S
O262 Tb240 2.399 . S
O262 C249 1.263 . S
C263 O252 1.261 . S
C263 O253 1.257 . S
C264 C267 1.358 . S
C264 C268 1.332 . S
C264 C270 1.504 . S
C265 C266 1.373 . S
C265 C269 1.308 . S
C266 C265 1.373 . S
C266 C267 1.429 . S
C266 H276 0.932 . S
C267 C264 1.358 . S
C267 C266 1.429 . S
C267 H277 0.930 . S
C268 C264 1.332 . S
C268 C269 1.394 . S
C268 H278 0.932 . S
C269 C265 1.308 . S
C269 C268 1.394 . S
C269 H279 0.929 . S
C270 Tb241 2.764 . S
C270 O254 1.239 . S
C270 O255 1.263 . S
C270 C264 1.504 . S
C271 O256 1.236 . S
C271 O257 1.257 . S
H272 C245 0.932 . S
H273 C246 0.930 . S
H274 C247 0.932 . S
H275 C248 0.929 . S
H276 C266 0.932 . S
H277 C267 0.930 . S
H278 C268 0.932 . S
H279 C269 0.929 . S
Tb280 C289 2.764 . S
Tb280 O290 2.325 . S
Tb280 O293 2.303 . S
Tb280 O297 2.322 . S
Tb280 O298 2.349 . S
Tb280 O301 2.415 . S
Tb280 O302 2.399 . S
Tb281 O291 2.322 . S
Tb281 O292 2.349 . S
Tb281 O294 2.415 . S
Tb281 O295 2.399 . S
Tb281 O296 2.325 . S
Tb281 O299 2.303 . S
Tb281 C310 2.764 . S
C282 O298 1.261 . S
C282 O299 1.257 . S
C283 C286 1.358 . S
C283 C287 1.332 . S
C283 C289 1.504 . S
C284 C285 1.373 . S
C284 C288 1.308 . S
C285 C284 1.373 . S
C285 C286 1.429 . S
C285 H312 0.932 . S
C286 C283 1.358 . S
C286 C285 1.429 . S
C286 H313 0.930 . S
C287 C283 1.332 . S
C287 C288 1.394 . S
C287 H314 0.932 . S
C288 C284 1.308 . S
C288 C287 1.394 . S
C288 H315 0.929 . S
C289 Tb280 2.764 . S
C289 C283 1.504 . S
C289 O301 1.239 . S
C289 O302 1.263 . S
O290 Tb280 2.325 . S
O290 C300 1.236 . S
O291 Tb281 2.322 . S
O291 C300 1.257 . S
O292 Tb281 2.349 . S
O292 C303 1.261 . S
O293 Tb280 2.303 . S
O293 C303 1.257 . S
O294 Tb281 2.415 . S
O294 C310 1.239 . S
O295 Tb281 2.399 . S
O295 C310 1.263 . S
O296 Tb281 2.325 . S
O296 C311 1.236 . S
O297 Tb280 2.322 . S
O297 C311 1.257 . S
O298 Tb280 2.349 . S
O298 C282 1.261 . S
O299 Tb281 2.303 . S
O299 C282 1.257 . S
C300 O290 1.236 . S
C300 O291 1.257 . S
O301 Tb280 2.415 . S
O301 C289 1.239 . S
O302 Tb280 2.399 . S
O302 C289 1.263 . S
C303 O292 1.261 . S
C303 O293 1.257 . S
C304 C307 1.358 . S
C304 C308 1.332 . S
C304 C310 1.504 . S
C305 C306 1.373 . S
C305 C309 1.308 . S
C306 C305 1.373 . S
C306 C307 1.429 . S
C306 H316 0.932 . S
C307 C304 1.358 . S
C307 C306 1.429 . S
C307 H317 0.930 . S
C308 C304 1.332 . S
C308 C309 1.394 . S
C308 H318 0.932 . S
C309 C305 1.308 . S
C309 C308 1.394 . S
C309 H319 0.929 . S
C310 Tb281 2.764 . S
C310 O294 1.239 . S
C310 O295 1.263 . S
C310 C304 1.504 . S
C311 O296 1.236 . S
C311 O297 1.257 . S
H312 C285 0.932 . S
H313 C286 0.930 . S
H314 C287 0.932 . S
H315 C288 0.929 . S
H316 C306 0.932 . S
H317 C307 0.930 . S
H318 C308 0.932 . S
H319 C309 0.929 . S
Tb320 C329 2.764 . S
Tb320 O330 2.325 . S
Tb320 O333 2.303 . S
Tb320 O337 2.322 . S
Tb320 O338 2.349 . S
Tb320 O341 2.415 . S
Tb320 O342 2.399 . S
Tb321 O331 2.322 . S
Tb321 O332 2.349 . S
Tb321 O334 2.415 . S
Tb321 O335 2.399 . S
Tb321 O336 2.325 . S
Tb321 O339 2.303 . S
Tb321 C350 2.764 . S
C322 O338 1.261 . S
C322 O339 1.257 . S
C323 C326 1.358 . S
C323 C327 1.332 . S
C323 C329 1.504 . S
C324 C325 1.373 . S
C324 C328 1.308 . S
C325 C324 1.373 . S
C325 C326 1.429 . S
C325 H352 0.932 . S
C326 C323 1.358 . S
C326 C325 1.429 . S
C326 H353 0.930 . S
C327 C323 1.332 . S
C327 C328 1.394 . S
C327 H354 0.932 . S
C328 C324 1.308 . S
C328 C327 1.394 . S
C328 H355 0.929 . S
C329 Tb320 2.764 . S
C329 C323 1.504 . S
C329 O341 1.239 . S
C329 O342 1.263 . S
O330 Tb320 2.325 . S
O330 C340 1.236 . S
O331 Tb321 2.322 . S
O331 C340 1.257 . S
O332 Tb321 2.349 . S
O332 C343 1.261 . S
O333 Tb320 2.303 . S
O333 C343 1.257 . S
O334 Tb321 2.415 . S
O334 C350 1.239 . S
O335 Tb321 2.399 . S
O335 C350 1.263 . S
O336 Tb321 2.325 . S
O336 C351 1.236 . S
O337 Tb320 2.322 . S
O337 C351 1.257 . S
O338 Tb320 2.349 . S
O338 C322 1.261 . S
O339 Tb321 2.303 . S
O339 C322 1.257 . S
C340 O330 1.236 . S
C340 O331 1.257 . S
O341 Tb320 2.415 . S
O341 C329 1.239 . S
O342 Tb320 2.399 . S
O342 C329 1.263 . S
C343 O332 1.261 . S
C343 O333 1.257 . S
C344 C347 1.358 . S
C344 C348 1.332 . S
C344 C350 1.504 . S
C345 C346 1.373 . S
C345 C349 1.308 . S
C346 C345 1.373 . S
C346 C347 1.429 . S
C346 H356 0.932 . S
C347 C344 1.358 . S
C347 C346 1.429 . S
C347 H357 0.930 . S
C348 C344 1.332 . S
C348 C349 1.394 . S
C348 H358 0.932 . S
C349 C345 1.308 . S
C349 C348 1.394 . S
C349 H359 0.929 . S
C350 Tb321 2.764 . S
C350 O334 1.239 . S
C350 O335 1.263 . S
C350 C344 1.504 . S
C351 O336 1.236 . S
C351 O337 1.257 . S
H352 C325 0.932 . S
H353 C326 0.930 . S
H354 C327 0.932 . S
H355 C328 0.929 . S
H356 C346 0.932 . S
H357 C347 0.930 . S
H358 C348 0.932 . S
H359 C349 0.929 . S
Tb360 C369 2.764 . S
Tb360 O370 2.325 . S
Tb360 O373 2.303 . S
Tb360 O377 2.322 . S
Tb360 O378 2.349 . S
Tb360 O381 2.415 . S
Tb360 O382 2.399 . S
Tb361 O371 2.322 . S
Tb361 O372 2.349 . S
Tb361 O374 2.415 . S
Tb361 O375 2.399 . S
Tb361 O376 2.325 . S
Tb361 O379 2.303 . S
Tb361 C390 2.764 . S
C362 O378 1.261 . S
C362 O379 1.257 . S
C363 C366 1.358 . S
C363 C367 1.332 . S
C363 C369 1.504 . S
C364 C365 1.373 . S
C364 C368 1.308 . S
C365 C364 1.373 . S
C365 C366 1.429 . S
C365 H392 0.932 . S
C366 C363 1.358 . S
C366 C365 1.429 . S
C366 H393 0.930 . S
C367 C363 1.332 . S
C367 C368 1.394 . S
C367 H394 0.932 . S
C368 C364 1.308 . S
C368 C367 1.394 . S
C368 H395 0.929 . S
C369 Tb360 2.764 . S
C369 C363 1.504 . S
C369 O381 1.239 . S
C369 O382 1.263 . S
O370 Tb360 2.325 . S
O370 C380 1.236 . S
O371 Tb361 2.322 . S
O371 C380 1.257 . S
O372 Tb361 2.349 . S
O372 C383 1.261 . S
O373 Tb360 2.303 . S
O373 C383 1.257 . S
O374 Tb361 2.415 . S
O374 C390 1.239 . S
O375 Tb361 2.399 . S
O375 C390 1.263 . S
O376 Tb361 2.325 . S
O376 C391 1.236 . S
O377 Tb360 2.322 . S
O377 C391 1.257 . S
O378 Tb360 2.349 . S
O378 C362 1.261 . S
O379 Tb361 2.303 . S
O379 C362 1.257 . S
C380 O370 1.236 . S
C380 O371 1.257 . S
O381 Tb360 2.415 . S
O381 C369 1.239 . S
O382 Tb360 2.399 . S
O382 C369 1.263 . S
C383 O372 1.261 . S
C383 O373 1.257 . S
C384 C387 1.358 . S
C384 C388 1.332 . S
C384 C390 1.504 . S
C385 C386 1.373 . S
C385 C389 1.308 . S
C386 C385 1.373 . S
C386 C387 1.429 1_556 S
C386 H396 0.932 . S
C387 C384 1.358 . S
C387 C386 1.429 1_554 S
C387 H397 0.930 . S
C388 C384 1.332 . S
C388 C389 1.394 1_554 S
C388 H398 0.932 . S
C389 C385 1.308 . S
C389 C388 1.394 1_556 S
C389 H399 0.929 . S
C390 Tb361 2.764 . S
C390 O374 1.239 . S
C390 O375 1.263 . S
C390 C384 1.504 . S
C391 O376 1.236 . S
C391 O377 1.257 . S
H392 C365 0.932 . S
H393 C366 0.930 . S
H394 C367 0.932 . S
H395 C368 0.929 . S
H396 C386 0.932 . S
H397 C387 0.930 . S
H398 C388 0.932 . S
H399 C389 0.929 . S
Tb400 C409 2.764 . S
Tb400 O410 2.325 . S
Tb400 O413 2.303 . S
Tb400 O417 2.322 . S
Tb400 O418 2.349 . S
Tb400 O421 2.415 . S
Tb400 O422 2.399 . S
Tb401 O411 2.322 . S
Tb401 O412 2.349 . S
Tb401 O414 2.415 . S
Tb401 O415 2.399 . S
Tb401 O416 2.325 . S
Tb401 O419 2.303 . S
Tb401 C430 2.764 . S
C402 O418 1.261 . S
C402 O419 1.257 . S
C403 C406 1.358 . S
C403 C407 1.332 . S
C403 C409 1.504 . S
C404 C405 1.373 . S
C404 C408 1.308 . S
C405 C404 1.373 . S
C405 C406 1.429 . S
C405 H432 0.932 . S
C406 C403 1.358 . S
C406 C405 1.429 . S
C406 H433 0.930 . S
C407 C403 1.332 . S
C407 C408 1.394 . S
C407 H434 0.932 . S
C408 C404 1.308 . S
C408 C407 1.394 . S
C408 H435 0.929 . S
C409 Tb400 2.764 . S
C409 C403 1.504 . S
C409 O421 1.239 . S
C409 O422 1.263 . S
O410 Tb400 2.325 . S
O410 C420 1.236 . S
O411 Tb401 2.322 . S
O411 C420 1.257 . S
O412 Tb401 2.349 . S
O412 C423 1.261 . S
O413 Tb400 2.303 . S
O413 C423 1.257 . S
O414 Tb401 2.415 . S
O414 C430 1.239 . S
O415 Tb401 2.399 . S
O415 C430 1.263 . S
O416 Tb401 2.325 . S
O416 C431 1.236 . S
O417 Tb400 2.322 . S
O417 C431 1.257 . S
O418 Tb400 2.349 . S
O418 C402 1.261 . S
O419 Tb401 2.303 . S
O419 C402 1.257 . S
C420 O410 1.236 . S
C420 O411 1.257 . S
O421 Tb400 2.415 . S
O421 C409 1.239 . S
O422 Tb400 2.399 . S
O422 C409 1.263 . S
C423 O412 1.261 . S
C423 O413 1.257 . S
C424 C427 1.358 . S
C424 C428 1.332 . S
C424 C430 1.504 1_554 S
C425 C426 1.373 . S
C425 C429 1.308 . S
C426 C425 1.373 . S
C426 C427 1.429 . S
C426 H436 0.932 . S
C427 C424 1.358 . S
C427 C426 1.429 . S
C427 H437 0.930 1_554 S
C428 C424 1.332 . S
C428 C429 1.394 . S
C428 H438 0.932 . S
C429 C425 1.308 . S
C429 C428 1.394 . S
C429 H439 0.929 . S
C430 Tb401 2.764 . S
C430 O414 1.239 . S
C430 O415 1.263 . S
C430 C424 1.504 1_556 S
C431 O416 1.236 . S
C431 O417 1.257 . S
H432 C405 0.932 . S
H433 C406 0.930 . S
H434 C407 0.932 . S
H435 C408 0.929 . S
H436 C426 0.932 . S
H437 C427 0.930 1_556 S
H438 C428 0.932 . S
H439 C429 0.929 . S
Tb440 C449 2.764 . S
Tb440 O450 2.325 . S
Tb440 O453 2.303 . S
Tb440 O457 2.322 . S
Tb440 O458 2.349 . S
Tb440 O461 2.415 . S
Tb440 O462 2.399 . S
Tb441 O451 2.322 . S
Tb441 O452 2.349 . S
Tb441 O454 2.415 . S
Tb441 O455 2.399 . S
Tb441 O456 2.325 . S
Tb441 O459 2.303 . S
Tb441 C470 2.764 . S
C442 O458 1.261 . S
C442 O459 1.257 . S
C443 C446 1.358 . S
C443 C447 1.332 . S
C443 C449 1.504 . S
C444 C445 1.373 . S
C444 C448 1.308 . S
C445 C444 1.373 . S
C445 C446 1.429 . S
C445 H472 0.932 . S
C446 C443 1.358 . S
C446 C445 1.429 . S
C446 H473 0.930 . S
C447 C443 1.332 . S
C447 C448 1.394 . S
C447 H474 0.932 . S
C448 C444 1.308 . S
C448 C447 1.394 . S
C448 H475 0.929 . S
C449 Tb440 2.764 . S
C449 C443 1.504 . S
C449 O461 1.239 . S
C449 O462 1.263 . S
O450 Tb440 2.325 . S
O450 C460 1.236 . S
O451 Tb441 2.322 . S
O451 C460 1.257 . S
O452 Tb441 2.349 . S
O452 C463 1.261 . S
O453 Tb440 2.303 . S
O453 C463 1.257 . S
O454 Tb441 2.415 . S
O454 C470 1.239 . S
O455 Tb441 2.399 . S
O455 C470 1.263 . S
O456 Tb441 2.325 . S
O456 C471 1.236 . S
O457 Tb440 2.322 . S
O457 C471 1.257 . S
O458 Tb440 2.349 . S
O458 C442 1.261 . S
O459 Tb441 2.303 . S
O459 C442 1.257 . S
C460 O450 1.236 . S
C460 O451 1.257 . S
O461 Tb440 2.415 . S
O461 C449 1.239 . S
O462 Tb440 2.399 . S
O462 C449 1.263 . S
C463 O452 1.261 . S
C463 O453 1.257 . S
C464 C467 1.358 . S
C464 C468 1.332 . S
C464 C470 1.504 . S
C465 C466 1.373 . S
C465 C469 1.308 . S
C466 C465 1.373 . S
C466 C467 1.429 . S
C466 H476 0.932 . S
C467 C464 1.358 . S
C467 C466 1.429 . S
C467 H477 0.930 . S
C468 C464 1.332 . S
C468 C469 1.394 . S
C468 H478 0.932 . S
C469 C465 1.308 . S
C469 C468 1.394 . S
C469 H479 0.929 . S
C470 Tb441 2.764 . S
C470 O454 1.239 . S
C470 O455 1.263 . S
C470 C464 1.504 . S
C471 O456 1.236 . S
C471 O457 1.257 . S
H472 C445 0.932 . S
H473 C446 0.930 . S
H474 C447 0.932 . S
H475 C448 0.929 . S
H476 C466 0.932 . S
H477 C467 0.930 . S
H478 C468 0.932 . S
H479 C469 0.929 . S
Tb480 C489 2.764 . S
Tb480 O490 2.325 . S
Tb480 O493 2.303 . S
Tb480 O497 2.322 . S
Tb480 O498 2.349 . S
Tb480 O501 2.415 . S
Tb480 O502 2.399 . S
Tb481 O491 2.322 . S
Tb481 O492 2.349 . S
Tb481 O494 2.415 . S
Tb481 O495 2.399 . S
Tb481 O496 2.325 . S
Tb481 O499 2.303 . S
Tb481 C510 2.764 . S
C482 O498 1.261 . S
C482 O499 1.257 . S
C483 C486 1.358 . S
C483 C487 1.332 . S
C483 C489 1.504 . S
C484 C485 1.373 . S
C484 C488 1.308 . S
C485 C484 1.373 . S
C485 C486 1.429 . S
C485 H512 0.932 . S
C486 C483 1.358 . S
C486 C485 1.429 . S
C486 H513 0.930 . S
C487 C483 1.332 . S
C487 C488 1.394 . S
C487 H514 0.932 . S
C488 C484 1.308 . S
C488 C487 1.394 . S
C488 H515 0.929 . S
C489 Tb480 2.764 . S
C489 C483 1.504 . S
C489 O501 1.239 . S
C489 O502 1.263 . S
O490 Tb480 2.325 . S
O490 C500 1.236 . S
O491 Tb481 2.322 . S
O491 C500 1.257 . S
O492 Tb481 2.349 . S
O492 C503 1.261 . S
O493 Tb480 2.303 . S
O493 C503 1.257 . S
O494 Tb481 2.415 . S
O494 C510 1.239 . S
O495 Tb481 2.399 . S
O495 C510 1.263 . S
O496 Tb481 2.325 . S
O496 C511 1.236 . S
O497 Tb480 2.322 . S
O497 C511 1.257 . S
O498 Tb480 2.349 . S
O498 C482 1.261 . S
O499 Tb481 2.303 . S
O499 C482 1.257 . S
C500 O490 1.236 . S
C500 O491 1.257 . S
O501 Tb480 2.415 . S
O501 C489 1.239 . S
O502 Tb480 2.399 . S
O502 C489 1.263 . S
C503 O492 1.261 . S
C503 O493 1.257 . S
C504 C507 1.358 . S
C504 C508 1.332 . S
C504 C510 1.504 . S
C505 C506 1.373 . S
C505 C509 1.308 . S
C506 C505 1.373 . S
C506 C507 1.429 . S
C506 H516 0.932 . S
C507 C504 1.358 . S
C507 C506 1.429 . S
C507 H517 0.930 . S
C508 C504 1.332 . S
C508 C509 1.394 . S
C508 H518 0.932 . S
C509 C505 1.308 . S
C509 C508 1.394 . S
C509 H519 0.929 . S
C510 Tb481 2.764 . S
C510 O494 1.239 . S
C510 O495 1.263 . S
C510 C504 1.504 . S
C511 O496 1.236 . S
C511 O497 1.257 . S
H512 C485 0.932 . S
H513 C486 0.930 . S
H514 C487 0.932 . S
H515 C488 0.929 . S
H516 C506 0.932 . S
H517 C507 0.930 . S
H518 C508 0.932 . S
H519 C509 0.929 . S
Tb520 C529 2.764 . S
Tb520 O530 2.325 . S
Tb520 O533 2.303 . S
Tb520 O537 2.322 . S
Tb520 O538 2.349 . S
Tb520 O541 2.415 . S
Tb520 O542 2.399 . S
Tb521 O531 2.322 . S
Tb521 O532 2.349 1_655 S
Tb521 O534 2.415 1_554 S
Tb521 O535 2.399 . S
Tb521 O536 2.325 1_655 S
Tb521 O539 2.303 1_655 S
Tb521 C550 2.764 1_554 S
C522 O538 1.261 . S
C522 O539 1.257 . S
C523 C526 1.358 . S
C523 C527 1.332 . S
C523 C529 1.504 . S
C524 C525 1.373 . S
C524 C528 1.308 . S
C525 C524 1.373 . S
C525 C526 1.429 . S
C525 H552 0.932 . S
C526 C523 1.358 . S
C526 C525 1.429 . S
C526 H553 0.930 . S
C527 C523 1.332 . S
C527 C528 1.394 . S
C527 H554 0.932 . S
C528 C524 1.308 . S
C528 C527 1.394 . S
C528 H555 0.929 . S
C529 Tb520 2.764 . S
C529 C523 1.504 . S
C529 O541 1.239 . S
C529 O542 1.263 . S
O530 Tb520 2.325 . S
O530 C540 1.236 1_455 S
O531 Tb521 2.322 . S
O531 C540 1.257 . S
O532 Tb521 2.349 1_455 S
O532 C543 1.261 . S
O533 Tb520 2.303 . S
O533 C543 1.257 . S
O534 Tb521 2.415 1_556 S
O534 C550 1.239 . S
O535 Tb521 2.399 . S
O535 C550 1.263 1_554 S
O536 Tb521 2.325 1_455 S
O536 C551 1.236 . S
O537 Tb520 2.322 . S
O537 C551 1.257 . S
O538 Tb520 2.349 . S
O538 C522 1.261 . S
O539 Tb521 2.303 1_455 S
O539 C522 1.257 . S
C540 O530 1.236 1_655 S
C540 O531 1.257 . S
O541 Tb520 2.415 . S
O541 C529 1.239 . S
O542 Tb520 2.399 . S
O542 C529 1.263 . S
C543 O532 1.261 . S
C543 O533 1.257 . S
C544 C547 1.358 . S
C544 C548 1.332 . S
C544 C550 1.504 . S
C545 C546 1.373 . S
C545 C549 1.308 . S
C546 C545 1.373 . S
C546 C547 1.429 . S
C546 H556 0.932 . S
C547 C544 1.358 . S
C547 C546 1.429 . S
C547 H557 0.930 . S
C548 C544 1.332 . S
C548 C549 1.394 . S
C548 H558 0.932 . S
C549 C545 1.308 . S
C549 C548 1.394 . S
C549 H559 0.929 . S
C550 Tb521 2.764 1_556 S
C550 O534 1.239 . S
C550 O535 1.263 1_556 S
C550 C544 1.504 . S
C551 O536 1.236 . S
C551 O537 1.257 . S
H552 C525 0.932 . S
H553 C526 0.930 . S
H554 C527 0.932 . S
H555 C528 0.929 . S
H556 C546 0.932 . S
H557 C547 0.930 . S
H558 C548 0.932 . S
H559 C549 0.929 . S
Tb560 C569 2.764 . S
Tb560 O570 2.325 . S
Tb560 O573 2.303 . S
Tb560 O577 2.322 . S
Tb560 O578 2.349 . S
Tb560 O581 2.415 . S
Tb560 O582 2.399 . S
Tb561 O571 2.322 . S
Tb561 O572 2.349 . S
Tb561 O574 2.415 . S
Tb561 O575 2.399 . S
Tb561 O576 2.325 . S
Tb561 O579 2.303 . S
Tb561 C590 2.764 . S
C562 O578 1.261 . S
C562 O579 1.257 . S
C563 C566 1.358 . S
C563 C567 1.332 . S
C563 C569 1.504 . S
C564 C565 1.373 . S
C564 C568 1.308 . S
C565 C564 1.373 . S
C565 C566 1.429 . S
C565 H592 0.932 . S
C566 C563 1.358 . S
C566 C565 1.429 . S
C566 H593 0.930 . S
C567 C563 1.332 . S
C567 C568 1.394 . S
C567 H594 0.932 . S
C568 C564 1.308 . S
C568 C567 1.394 . S
C568 H595 0.929 . S
C569 Tb560 2.764 . S
C569 C563 1.504 . S
C569 O581 1.239 . S
C569 O582 1.263 . S
O570 Tb560 2.325 . S
O570 C580 1.236 . S
O571 Tb561 2.322 . S
O571 C580 1.257 . S
O572 Tb561 2.349 . S
O572 C583 1.261 . S
O573 Tb560 2.303 . S
O573 C583 1.257 . S
O574 Tb561 2.415 . S
O574 C590 1.239 . S
O575 Tb561 2.399 . S
O575 C590 1.263 . S
O576 Tb561 2.325 . S
O576 C591 1.236 . S
O577 Tb560 2.322 . S
O577 C591 1.257 . S
O578 Tb560 2.349 . S
O578 C562 1.261 . S
O579 Tb561 2.303 . S
O579 C562 1.257 . S
C580 O570 1.236 . S
C580 O571 1.257 . S
O581 Tb560 2.415 . S
O581 C569 1.239 . S
O582 Tb560 2.399 . S
O582 C569 1.263 . S
C583 O572 1.261 . S
C583 O573 1.257 . S
C584 C587 1.358 . S
C584 C588 1.332 . S
C584 C590 1.504 . S
C585 C586 1.373 . S
C585 C589 1.308 . S
C586 C585 1.373 . S
C586 C587 1.429 . S
C586 H596 0.932 . S
C587 C584 1.358 . S
C587 C586 1.429 . S
C587 H597 0.930 . S
C588 C584 1.332 . S
C588 C589 1.394 . S
C588 H598 0.932 . S
C589 C585 1.308 . S
C589 C588 1.394 . S
C589 H599 0.929 . S
C590 Tb561 2.764 . S
C590 O574 1.239 . S
C590 O575 1.263 . S
C590 C584 1.504 . S
C591 O576 1.236 . S
C591 O577 1.257 . S
H592 C565 0.932 . S
H593 C566 0.930 . S
H594 C567 0.932 . S
H595 C568 0.929 . S
H596 C586 0.932 . S
H597 C587 0.930 . S
H598 C588 0.932 . S
H599 C589 0.929 . S
Tb600 C609 2.764 . S
Tb600 O610 2.325 . S
Tb600 O613 2.303 . S
Tb600 O617 2.322 . S
Tb600 O618 2.349 . S
Tb600 O621 2.415 . S
Tb600 O622 2.399 . S
Tb601 O611 2.322 . S
Tb601 O612 2.349 . S
Tb601 O614 2.415 . S
Tb601 O615 2.399 . S
Tb601 O616 2.325 1_655 S
Tb601 O619 2.303 . S
Tb601 C630 2.764 . S
C602 O618 1.261 . S
C602 O619 1.257 1_455 S
C603 C606 1.358 . S
C603 C607 1.332 1_556 S
C603 C609 1.504 . S
C604 C605 1.373 . S
C604 C608 1.308 . S
C605 C604 1.373 . S
C605 C606 1.429 1_554 S
C605 H632 0.932 . S
C606 C603 1.358 . S
C606 C605 1.429 1_556 S
C606 H633 0.930 . S
C607 C603 1.332 1_554 S
C607 C608 1.394 . S
C607 H634 0.932 . S
C608 C604 1.308 . S
C608 C607 1.394 . S
C608 H635 0.929 . S
C609 Tb600 2.764 . S
C609 C603 1.504 . S
C609 O621 1.239 . S
C609 O622 1.263 . S
O610 Tb600 2.325 . S
O610 C620 1.236 1_455 S
O611 Tb601 2.322 . S
O611 C620 1.257 . S
O612 Tb601 2.349 . S
O612 C623 1.261 1_655 S
O613 Tb600 2.303 . S
O613 C623 1.257 . S
O614 Tb601 2.415 . S
O614 C630 1.239 . S
O615 Tb601 2.399 . S
O615 C630 1.263 . S
O616 Tb601 2.325 1_455 S
O616 C631 1.236 . S
O617 Tb600 2.322 . S
O617 C631 1.257 . S
O618 Tb600 2.349 . S
O618 C602 1.261 . S
O619 Tb601 2.303 . S
O619 C602 1.257 1_655 S
C620 O610 1.236 1_655 S
C620 O611 1.257 . S
O621 Tb600 2.415 . S
O621 C609 1.239 . S
O622 Tb600 2.399 . S
O622 C609 1.263 . S
C623 O612 1.261 1_455 S
C623 O613 1.257 . S
C624 C627 1.358 . S
C624 C628 1.332 . S
C624 C630 1.504 . S
C625 C626 1.373 . S
C625 C629 1.308 . S
C626 C625 1.373 . S
C626 C627 1.429 . S
C626 H636 0.932 . S
C627 C624 1.358 . S
C627 C626 1.429 . S
C627 H637 0.930 . S
C628 C624 1.332 . S
C628 C629 1.394 . S
C628 H638 0.932 . S
C629 C625 1.308 . S
C629 C628 1.394 . S
C629 H639 0.929 . S
C630 Tb601 2.764 . S
C630 O614 1.239 . S
C630 O615 1.263 . S
C630 C624 1.504 . S
C631 O616 1.236 . S
C631 O617 1.257 . S
H632 C605 0.932 . S
H633 C606 0.930 . S
H634 C607 0.932 . S
H635 C608 0.929 . S
H636 C626 0.932 . S
H637 C627 0.930 . S
H638 C628 0.932 . S
H639 C629 0.929 . S
C640 C641 1.387 . S
C640 H644 0.950 . S
C640 C649 1.390 . S
C641 C640 1.387 . S
C641 C643 1.387 . S
H642 C649 0.950 . S
C643 C641 1.387 . S
C643 C645 1.390 . S
C643 H647 0.950 . S
H644 C640 0.950 . S
C645 C643 1.390 . S
C645 C646 1.387 . S
C645 H648 0.950 . S
C646 C645 1.387 . S
C646 C649 1.387 . S
H647 C643 0.950 . S
H648 C645 0.950 . S
C649 C640 1.390 . S
C649 H642 0.950 . S
C649 C646 1.387 . S
C650 C651 1.387 . S
C650 H654 0.950 . S
C650 C659 1.390 . S
C651 C650 1.387 . S
C651 C653 1.387 . S
H652 C659 0.950 . S
C653 C651 1.387 . S
C653 C655 1.390 . S
C653 H657 0.950 . S
H654 C650 0.950 . S
C655 C653 1.390 . S
C655 C656 1.387 . S
C655 H658 0.950 . S
C656 C655 1.387 . S
C656 C659 1.387 . S
H657 C653 0.950 . S
H658 C655 0.950 . S
C659 C650 1.390 . S
C659 H652 0.950 . S
C659 C656 1.387 . S
C660 C661 1.387 . S
C660 H664 0.950 . S
C660 C669 1.390 . S
C661 C660 1.387 . S
C661 C663 1.387 . S
H662 C669 0.950 . S
C663 C661 1.387 . S
C663 C665 1.390 . S
C663 H667 0.950 . S
H664 C660 0.950 . S
C665 C663 1.390 . S
C665 C666 1.387 . S
C665 H668 0.950 . S
C666 C665 1.387 . S
C666 C669 1.387 . S
H667 C663 0.950 . S
H668 C665 0.950 . S
C669 C660 1.390 . S
C669 H662 0.950 . S
C669 C666 1.387 . S
C670 C671 1.387 . S
C670 H674 0.950 . S
C670 C679 1.390 . S
C671 C670 1.387 . S
C671 C673 1.387 . S
H672 C679 0.950 . S
C673 C671 1.387 . S
C673 C675 1.390 . S
C673 H677 0.950 . S
H674 C670 0.950 . S
C675 C673 1.390 . S
C675 C676 1.387 . S
C675 H678 0.950 . S
C676 C675 1.387 . S
C676 C679 1.387 . S
H677 C673 0.950 . S
H678 C675 0.950 . S
C679 C670 1.390 . S
C679 H672 0.950 . S
C679 C676 1.387 . S
C680 C681 1.387 . S
C680 H684 0.950 . S
C680 C689 1.390 . S
C681 C680 1.387 . S
C681 C683 1.387 . S
H682 C689 0.950 . S
C683 C681 1.387 . S
C683 C685 1.390 . S
C683 H687 0.950 . S
H684 C680 0.950 . S
C685 C683 1.390 . S
C685 C686 1.387 . S
C685 H688 0.950 . S
C686 C685 1.387 . S
C686 C689 1.387 . S
H687 C683 0.950 . S
H688 C685 0.950 . S
C689 C680 1.390 . S
C689 H682 0.950 . S
C689 C686 1.387 . S
C690 C691 1.387 . S
C690 H694 0.950 . S
C690 C699 1.390 . S
C691 C690 1.387 . S
C691 C693 1.387 . S
H692 C699 0.950 . S
C693 C691 1.387 . S
C693 C695 1.390 . S
C693 H697 0.950 . S
H694 C690 0.950 . S
C695 C693 1.390 . S
C695 C696 1.387 . S
C695 H698 0.950 . S
C696 C695 1.387 . S
C696 C699 1.387 . S
H697 C693 0.950 . S
H698 C695 0.950 . S
C699 C690 1.390 . S
C699 H692 0.950 . S
C699 C696 1.387 . S
C700 C701 1.387 . S
C700 H704 0.950 . S
C700 C709 1.390 . S
C701 C700 1.387 . S
C701 C703 1.387 . S
H702 C709 0.950 . S
C703 C701 1.387 . S
C703 C705 1.390 . S
C703 H707 0.950 . S
H704 C700 0.950 . S
C705 C703 1.390 . S
C705 C706 1.387 . S
C705 H708 0.950 . S
C706 C705 1.387 . S
C706 C709 1.387 . S
H707 C703 0.950 . S
H708 C705 0.950 . S
C709 C700 1.390 . S
C709 H702 0.950 . S
C709 C706 1.387 . S
C710 C711 1.387 . S
C710 H714 0.950 . S
C710 C719 1.390 . S
C711 C710 1.387 . S
C711 C713 1.387 . S
H712 C719 0.950 . S
C713 C711 1.387 . S
C713 C715 1.390 . S
C713 H717 0.950 . S
H714 C710 0.950 . S
C715 C713 1.390 . S
C715 C716 1.387 . S
C715 H718 0.950 . S
C716 C715 1.387 . S
C716 C719 1.387 . S
H717 C713 0.950 . S
H718 C715 0.950 . S
C719 C710 1.390 . S
C719 H712 0.950 . S
C719 C716 1.387 . S
C720 C721 1.387 . S
C720 H724 0.950 . S
C720 C729 1.390 . S
C721 C720 1.387 . S
C721 C723 1.387 . S
H722 C729 0.950 . S
C723 C721 1.387 . S
C723 C725 1.390 . S
C723 H727 0.950 . S
H724 C720 0.950 . S
C725 C723 1.390 . S
C725 C726 1.387 . S
C725 H728 0.950 . S
C726 C725 1.387 . S
C726 C729 1.387 . S
H727 C723 0.950 . S
H728 C725 0.950 . S
C729 C720 1.390 . S
C729 H722 0.950 . S
C729 C726 1.387 . S
C730 C731 1.387 . S
C730 H734 0.950 . S
C730 C739 1.390 . S
C731 C730 1.387 . S
C731 C733 1.387 . S
H732 C739 0.950 . S
C733 C731 1.387 . S
C733 C735 1.390 . S
C733 H737 0.950 . S
H734 C730 0.950 . S
C735 C733 1.390 . S
C735 C736 1.387 . S
C735 H738 0.950 . S
C736 C735 1.387 . S
C736 C739 1.387 . S
H737 C733 0.950 . S
H738 C735 0.950 . S
C739 C730 1.390 . S
C739 H732 0.950 . S
C739 C736 1.387 . S
C740 C741 1.387 . S
C740 H744 0.950 . S
C740 C749 1.390 . S
C741 C740 1.387 . S
C741 C743 1.387 . S
H742 C749 0.950 . S
C743 C741 1.387 . S
C743 C745 1.390 . S
C743 H747 0.950 . S
H744 C740 0.950 . S
C745 C743 1.390 . S
C745 C746 1.387 . S
C745 H748 0.950 . S
C746 C745 1.387 . S
C746 C749 1.387 . S
H747 C743 0.950 . S
H748 C745 0.950 . S
C749 C740 1.390 . S
C749 H742 0.950 . S
C749 C746 1.387 . S
C750 C751 1.387 . S
C750 H754 0.950 . S
C750 C759 1.379 1_554 S
C751 C750 1.387 . S
C751 C753 1.387 . S
H752 C759 0.956 . S
C753 C751 1.387 . S
C753 C755 1.390 . S
C753 H757 0.950 . S
H754 C750 0.950 . S
C755 C753 1.390 . S
C755 C756 1.387 1_554 S
C755 H758 0.950 . S
C756 C755 1.387 1_556 S
C756 C759 1.392 . S
H757 C753 0.950 . S
H758 C755 0.950 . S
C759 C750 1.379 1_556 S
C759 H752 0.956 . S
C759 C756 1.392 . S
C760 C761 1.387 . S
C760 H764 0.950 . S
C760 C769 1.390 . S
C761 C760 1.387 . S
C761 C763 1.387 . S
H762 C769 0.950 . S
C763 C761 1.387 . S
C763 C765 1.390 . S
C763 H767 0.950 . S
H764 C760 0.950 . S
C765 C763 1.390 . S
C765 C766 1.387 . S
C765 H768 0.950 . S
C766 C765 1.387 . S
C766 C769 1.387 . S
H767 C763 0.950 . S
H768 C765 0.950 . S
C769 C760 1.390 . S
C769 H762 0.950 . S
C769 C766 1.387 . S
C770 C771 1.387 . S
C770 H774 0.950 . S
C770 C779 1.390 . S
C771 C770 1.387 . S
C771 C773 1.387 . S
H772 C779 0.950 . S
C773 C771 1.387 . S
C773 C775 1.390 . S
C773 H777 0.950 . S
H774 C770 0.950 . S
C775 C773 1.390 . S
C775 C776 1.387 . S
C775 H778 0.950 . S
C776 C775 1.387 . S
C776 C779 1.387 . S
H777 C773 0.950 . S
H778 C775 0.950 . S
C779 C770 1.390 . S
C779 H772 0.950 . S
C779 C776 1.387 . S
C780 C781 1.387 . S
C780 H784 0.950 . S
C780 C789 1.390 . S
C781 C780 1.387 . S
C781 C783 1.387 . S
H782 C789 0.950 . S
C783 C781 1.387 . S
C783 C785 1.390 . S
C783 H787 0.950 . S
H784 C780 0.950 . S
C785 C783 1.390 . S
C785 C786 1.387 . S
C785 H788 0.950 . S
C786 C785 1.387 . S
C786 C789 1.387 . S
H787 C783 0.950 . S
H788 C785 0.950 . S
C789 C780 1.390 . S
C789 H782 0.950 . S
C789 C786 1.387 . S
C790 C791 1.387 . S
C790 H794 0.950 . S
C790 C799 1.390 1_556 S
C791 C790 1.387 . S
C791 C793 1.387 . S
H792 C799 0.950 . S
C793 C791 1.387 . S
C793 C795 1.390 . S
C793 H797 0.950 . S
H794 C790 0.950 . S
C795 C793 1.390 . S
C795 C796 1.393 . S
C795 H798 0.950 . S
C796 C795 1.393 . S
C796 C799 1.386 1_556 S
H797 C793 0.950 . S
H798 C795 0.950 . S
C799 C790 1.390 1_554 S
C799 H792 0.950 . S
C799 C796 1.386 1_554 S
C800 C801 1.387 . S
C800 H804 0.950 . S
C800 C809 1.390 . S
C801 C800 1.387 . S
C801 C803 1.387 . S
H802 C809 0.950 . S
C803 C801 1.387 . S
C803 C805 1.390 . S
C803 H807 0.950 . S
H804 C800 0.950 . S
C805 C803 1.390 . S
C805 C806 1.387 . S
C805 H808 0.950 . S
C806 C805 1.387 . S
C806 C809 1.387 . S
H807 C803 0.950 . S
H808 C805 0.950 . S
C809 C800 1.390 . S
C809 H802 0.950 . S
C809 C806 1.387 . S
C810 C811 1.378 1_455 S
C810 H814 0.939 1_455 S
C810 C819 1.412 . S
C811 C810 1.378 1_655 S
C811 C813 1.387 . S
H812 C819 0.950 . S
C813 C811 1.387 . S
C813 C815 1.390 1_655 S
C813 H817 0.950 . S
H814 C810 0.939 1_655 S
C815 C813 1.390 1_455 S
C815 C816 1.387 . S
C815 H818 0.950 . S
C816 C815 1.387 . S
C816 C819 1.387 . S
H817 C813 0.950 . S
H818 C815 0.950 . S
C819 C810 1.412 . S
C819 H812 0.950 . S
C819 C816 1.387 . S
C820 C821 1.387 . S
C820 H824 0.950 . S
C820 C829 1.390 . S
C821 C820 1.387 . S
C821 C823 1.387 . S
H822 C829 0.950 . S
C823 C821 1.387 . S
C823 C825 1.390 . S
C823 H827 0.950 . S
H824 C820 0.950 . S
C825 C823 1.390 . S
C825 C826 1.387 . S
C825 H828 0.950 . S
C826 C825 1.387 . S
C826 C829 1.387 . S
H827 C823 0.950 . S
H828 C825 0.950 . S
C829 C820 1.390 . S
C829 H822 0.950 . S
C829 C826 1.387 . S
C830 C831 1.387 . S
C830 H834 0.950 . S
C830 C839 1.390 . S
C831 C830 1.387 . S
C831 C833 1.387 . S
H832 C839 0.950 . S
C833 C831 1.387 . S
C833 C835 1.390 . S
C833 H837 0.950 . S
H834 C830 0.950 . S
C835 C833 1.390 . S
C835 C836 1.387 . S
C835 H838 0.950 . S
C836 C835 1.387 . S
C836 C839 1.387 . S
H837 C833 0.950 . S
H838 C835 0.950 . S
C839 C830 1.390 . S
C839 H832 0.950 . S
C839 C836 1.387 . S
C840 C841 1.388 1_455 S
C840 H844 0.950 . S
C840 C849 1.390 . S
C841 C840 1.388 1_655 S
C841 C843 1.387 . S
H842 C849 0.950 . S
C843 C841 1.387 . S
C843 C845 1.390 . S
C843 H847 0.950 . S
H844 C840 0.950 . S
C845 C843 1.390 . S
C845 C846 1.387 1_655 S
C845 H848 0.950 . S
C846 C845 1.387 1_455 S
C846 C849 1.387 . S
H847 C843 0.950 . S
H848 C845 0.950 . S
C849 C840 1.390 . S
C849 H842 0.950 . S
C849 C846 1.387 . S
C850 C851 1.387 . S
C850 H854 0.950 . S
C850 C859 1.390 . S
C851 C850 1.387 . S
C851 C853 1.387 . S
H852 C859 0.950 . S
C853 C851 1.387 . S
C853 C855 1.390 . S
C853 H857 0.950 . S
H854 C850 0.950 . S
C855 C853 1.390 . S
C855 C856 1.387 . S
C855 H858 0.950 . S
C856 C855 1.387 . S
C856 C859 1.387 . S
H857 C853 0.950 . S
H858 C855 0.950 . S
C859 C850 1.390 . S
C859 H852 0.950 . S
C859 C856 1.387 . S
C860 C861 1.387 . S
C860 H864 0.950 . S
C860 C869 1.390 . S
C861 C860 1.387 . S
C861 C863 1.387 . S
H862 C869 0.950 . S
C863 C861 1.387 . S
C863 C865 1.390 . S
C863 H867 0.950 . S
H864 C860 0.950 . S
C865 C863 1.390 . S
C865 C866 1.387 . S
C865 H868 0.950 . S
C866 C865 1.387 . S
C866 C869 1.387 . S
H867 C863 0.950 . S
H868 C865 0.950 . S
C869 C860 1.390 . S
C869 H862 0.950 . S
C869 C866 1.387 . S
C870 C871 1.387 . S
C870 H874 0.950 . S
C870 C879 1.390 . S
C871 C870 1.387 . S
C871 C873 1.387 . S
H872 C879 0.950 . S
C873 C871 1.387 . S
C873 C875 1.390 . S
C873 H877 0.950 . S
H874 C870 0.950 . S
C875 C873 1.390 . S
C875 C876 1.387 . S
C875 H878 0.950 . S
C876 C875 1.387 . S
C876 C879 1.387 . S
H877 C873 0.950 . S
H878 C875 0.950 . S
C879 C870 1.390 . S
C879 H872 0.950 . S
C879 C876 1.387 . S
C880 C881 1.387 1_545 S
C880 H884 0.950 . S
C880 C889 1.390 . S
C881 C880 1.387 1_565 S
C881 C883 1.387 . S
H882 C889 0.947 1_556 S
C883 C881 1.387 . S
C883 C885 1.390 . S
C883 H887 0.950 . S
H884 C880 0.950 . S
C885 C883 1.390 . S
C885 C886 1.387 . S
C885 H888 0.950 . S
C886 C885 1.387 . S
C886 C889 1.387 1_565 S
H887 C883 0.950 . S
H888 C885 0.950 . S
C889 C880 1.390 . S
C889 H882 0.947 1_554 S
C889 C886 1.387 1_545 S
C890 C891 1.387 . S
C890 H894 0.950 . S
C890 C899 1.390 . S
C891 C890 1.387 . S
C891 C893 1.387 . S
H892 C899 0.950 . S
C893 C891 1.387 . S
C893 C895 1.390 . S
C893 H897 0.950 . S
H894 C890 0.950 . S
C895 C893 1.390 . S
C895 C896 1.387 . S
C895 H898 0.950 . S
C896 C895 1.387 . S
C896 C899 1.387 . S
H897 C893 0.950 . S
H898 C895 0.950 . S
C899 C890 1.390 . S
C899 H892 0.950 . S
C899 C896 1.387 . S
C900 C901 1.387 1_565 S
C900 H904 0.950 . S
C900 C909 1.390 . S
C901 C900 1.387 1_545 S
C901 C903 1.387 . S
H902 C909 0.950 . S
C903 C901 1.387 . S
C903 C905 1.390 . S
C903 H907 0.950 . S
H904 C900 0.950 . S
C905 C903 1.390 . S
C905 C906 1.387 1_545 S
C905 H908 0.950 . S
C906 C905 1.387 1_565 S
C906 C909 1.387 . S
H907 C903 0.950 . S
H908 C905 0.950 . S
C909 C900 1.390 . S
C909 H902 0.950 . S
C909 C906 1.387 . S
C910 C911 1.387 . S
C910 H914 0.950 . S
C910 C919 1.390 . S
C911 C910 1.387 . S
C911 C913 1.387 . S
H912 C919 0.950 . S
C913 C911 1.387 . S
C913 C915 1.390 . S
C913 H917 0.950 . S
H914 C910 0.950 . S
C915 C913 1.390 . S
C915 C916 1.387 . S
C915 H918 0.950 . S
C916 C915 1.387 . S
C916 C919 1.387 . S
H917 C913 0.950 . S
H918 C915 0.950 . S
C919 C910 1.390 . S
C919 H912 0.950 . S
C919 C916 1.387 . S
C920 C921 1.387 . S
C920 H924 0.950 . S
C920 C929 1.390 . S
C921 C920 1.387 . S
C921 C923 1.387 . S
H922 C929 0.950 . S
C923 C921 1.387 . S
C923 C925 1.390 . S
C923 H927 0.950 . S
H924 C920 0.950 . S
C925 C923 1.390 . S
C925 C926 1.387 . S
C925 H928 0.950 . S
C926 C925 1.387 . S
C926 C929 1.387 . S
H927 C923 0.950 . S
H928 C925 0.950 . S
C929 C920 1.390 . S
C929 H922 0.950 . S
C929 C926 1.387 . S
C930 C931 1.387 . S
C930 H934 0.950 . S
C930 C939 1.390 . S
C931 C930 1.387 . S
C931 C933 1.387 . S
H932 C939 0.950 . S
C933 C931 1.387 . S
C933 C935 1.390 . S
C933 H937 0.950 . S
H934 C930 0.950 . S
C935 C933 1.390 . S
C935 C936 1.387 . S
C935 H938 0.950 . S
C936 C935 1.387 . S
C936 C939 1.387 . S
H937 C933 0.950 . S
H938 C935 0.950 . S
C939 C930 1.390 . S
C939 H932 0.950 . S
C939 C936 1.387 . S
C940 C941 1.387 . S
C940 H944 0.950 . S
C940 C949 1.390 . S
C941 C940 1.387 . S
C941 C943 1.387 . S
H942 C949 0.950 . S
C943 C941 1.387 . S
C943 C945 1.390 . S
C943 H947 0.950 . S
H944 C940 0.950 . S
C945 C943 1.390 . S
C945 C946 1.387 . S
C945 H948 0.950 . S
C946 C945 1.387 . S
C946 C949 1.387 . S
H947 C943 0.950 . S
H948 C945 0.950 . S
C949 C940 1.390 . S
C949 H942 0.950 . S
C949 C946 1.387 . S
C950 C951 1.387 . S
C950 H954 0.950 . S
C950 C959 1.390 . S
C951 C950 1.387 . S
C951 C953 1.387 . S
H952 C959 0.950 . S
C953 C951 1.387 . S
C953 C955 1.390 . S
C953 H957 0.950 . S
H954 C950 0.950 . S
C955 C953 1.390 . S
C955 C956 1.375 1_556 S
C955 H958 0.950 . S
C956 C955 1.375 1_554 S
C956 C959 1.382 1_554 S
H957 C953 0.950 . S
H958 C955 0.950 . S
C959 C950 1.390 . S
C959 H952 0.950 . S
C959 C956 1.382 1_556 S
C960 C961 1.387 . S
C960 H964 0.950 . S
C960 C969 1.390 . S
C961 C960 1.387 . S
C961 C963 1.387 . S
H962 C969 0.950 . S
C963 C961 1.387 . S
C963 C965 1.390 . S
C963 H967 0.950 . S
H964 C960 0.950 . S
C965 C963 1.390 . S
C965 C966 1.387 . S
C965 H968 0.950 . S
C966 C965 1.387 . S
C966 C969 1.387 . S
H967 C963 0.950 . S
H968 C965 0.950 . S
C969 C960 1.390 . S
C969 H962 0.950 . S
C969 C966 1.387 . S
C970 C971 1.387 . S
C970 H974 0.950 . S
C970 C979 1.390 . S
C971 C970 1.387 . S
C971 C973 1.387 . S
H972 C979 0.950 . S
C973 C971 1.387 . S
C973 C975 1.390 . S
C973 H977 0.950 . S
H974 C970 0.950 . S
C975 C973 1.390 . S
C975 C976 1.387 . S
C975 H978 0.950 . S
C976 C975 1.387 . S
C976 C979 1.387 . S
H977 C973 0.950 . S
H978 C975 0.950 . S
C979 C970 1.390 . S
C979 H972 0.950 . S
C979 C976 1.387 . S
C980 C981 1.387 . S
C980 H984 0.950 . S
C980 C989 1.390 . S
C981 C980 1.387 . S
C981 C983 1.387 . S
H982 C989 0.950 . S
C983 C981 1.387 . S
C983 C985 1.390 . S
C983 H987 0.950 . S
H984 C980 0.950 . S
C985 C983 1.390 . S
C985 C986 1.387 . S
C985 H988 0.950 . S
C986 C985 1.387 . S
C986 C989 1.387 . S
H987 C983 0.950 . S
H988 C985 0.950 . S
C989 C980 1.390 . S
C989 H982 0.950 . S
C989 C986 1.387 . S
C990 C991 1.387 . S
C990 H994 0.950 . S
C990 C999 1.390 . S
C991 C990 1.387 . S
C991 C993 1.387 . S
H992 C999 0.950 1_556 S
C993 C991 1.387 . S
C993 C995 1.390 . S
C993 H997 0.950 . S
H994 C990 0.950 . S
C995 C993 1.390 . S
C995 C996 1.387 . S
C995 H998 0.950 . S
C996 C995 1.387 . S
C996 C999 1.387 . S
H997 C993 0.950 . S
H998 C995 0.950 . S
C999 C990 1.390 . S
C999 H992 0.950 1_554 S
C999 C996 1.387 . S
C1000 C1001 1.387 . S
C1000 H1004 0.950 . S
C1000 C1009 1.390 . S
C1001 C1000 1.387 . S
C1001 C1003 1.387 . S
H1002 C1009 0.950 . S
C1003 C1001 1.387 . S
C1003 C1005 1.390 . S
C1003 H1007 0.950 . S
H1004 C1000 0.950 . S
C1005 C1003 1.390 . S
C1005 C1006 1.387 . S
C1005 H1008 0.950 . S
C1006 C1005 1.387 . S
C1006 C1009 1.387 . S
H1007 C1003 0.950 . S
H1008 C1005 0.950 . S
C1009 C1000 1.390 . S
C1009 H1002 0.950 . S
C1009 C1006 1.387 . S
C1010 C1011 1.387 . S
C1010 H1014 0.950 . S
C1010 C1019 1.390 . S
C1011 C1010 1.387 . S
C1011 C1013 1.387 . S
H1012 C1019 0.950 . S
C1013 C1011 1.387 . S
C1013 C1015 1.390 . S
C1013 H1017 0.950 . S
H1014 C1010 0.950 . S
C1015 C1013 1.390 . S
C1015 C1016 1.387 . S
C1015 H1018 0.950 . S
C1016 C1015 1.387 . S
C1016 C1019 1.387 . S
H1017 C1013 0.950 . S
H1018 C1015 0.950 . S
C1019 C1010 1.390 . S
C1019 H1012 0.950 . S
C1019 C1016 1.387 . S
C1020 C1021 1.387 . S
C1020 H1024 0.950 . S
C1020 C1029 1.390 . S
C1021 C1020 1.387 . S
C1021 C1023 1.387 . S
H1022 C1029 0.950 . S
C1023 C1021 1.387 . S
C1023 C1025 1.390 . S
C1023 H1027 0.950 . S
H1024 C1020 0.950 . S
C1025 C1023 1.390 . S
C1025 C1026 1.387 . S
C1025 H1028 0.950 . S
C1026 C1025 1.387 . S
C1026 C1029 1.387 . S
H1027 C1023 0.950 . S
H1028 C1025 0.950 . S
C1029 C1020 1.390 . S
C1029 H1022 0.950 . S
C1029 C1026 1.387 . S
C1030 C1031 1.387 . S
C1030 H1034 0.950 . S
C1030 C1039 1.390 . S
C1031 C1030 1.387 . S
C1031 C1033 1.387 . S
H1032 C1039 0.950 . S
C1033 C1031 1.387 . S
C1033 C1035 1.375 1_556 S
C1033 H1037 0.950 . S
H1034 C1030 0.950 . S
C1035 C1033 1.375 1_554 S
C1035 C1036 1.389 . S
C1035 H1038 0.963 . S
C1036 C1035 1.389 . S
C1036 C1039 1.387 1_554 S
H1037 C1033 0.950 . S
H1038 C1035 0.963 . S
C1039 C1030 1.390 . S
C1039 H1032 0.950 . S
C1039 C1036 1.387 1_556 S
C1040 C1041 1.387 . S
C1040 H1044 0.950 . S
C1040 C1049 1.390 . S
C1041 C1040 1.387 . S
C1041 C1043 1.387 . S
H1042 C1049 0.950 . S
C1043 C1041 1.387 . S
C1043 C1045 1.390 . S
C1043 H1047 0.950 . S
H1044 C1040 0.950 . S
C1045 C1043 1.390 . S
C1045 C1046 1.387 . S
C1045 H1048 0.950 . S
C1046 C1045 1.387 . S
C1046 C1049 1.387 . S
H1047 C1043 0.950 . S
H1048 C1045 0.950 . S
C1049 C1040 1.390 . S
C1049 H1042 0.950 . S
C1049 C1046 1.387 . S
C1050 C1051 1.387 . S
C1050 H1054 0.950 . S
C1050 C1059 1.390 . S
C1051 C1050 1.387 . S
C1051 C1053 1.387 . S
H1052 C1059 0.950 . S
C1053 C1051 1.387 . S
C1053 C1055 1.390 . S
C1053 H1057 0.950 . S
H1054 C1050 0.950 . S
C1055 C1053 1.390 . S
C1055 C1056 1.387 . S
C1055 H1058 0.950 . S
C1056 C1055 1.387 . S
C1056 C1059 1.387 . S
H1057 C1053 0.950 . S
H1058 C1055 0.950 . S
C1059 C1050 1.390 . S
C1059 H1052 0.950 . S
C1059 C1056 1.387 . S
C1060 C1061 1.387 . S
C1060 H1064 0.950 . S
C1060 C1069 1.390 . S
C1061 C1060 1.387 . S
C1061 C1063 1.387 . S
H1062 C1069 0.950 . S
C1063 C1061 1.387 . S
C1063 C1065 1.390 . S
C1063 H1067 0.950 . S
H1064 C1060 0.950 . S
C1065 C1063 1.390 . S
C1065 C1066 1.387 . S
C1065 H1068 0.950 . S
C1066 C1065 1.387 . S
C1066 C1069 1.387 . S
H1067 C1063 0.950 . S
H1068 C1065 0.950 . S
C1069 C1060 1.390 . S
C1069 H1062 0.950 . S
C1069 C1066 1.387 . S
C1070 C1071 1.387 . S
C1070 H1074 0.950 . S
C1070 C1079 1.390 . S
C1071 C1070 1.387 . S
C1071 C1073 1.387 . S
H1072 C1079 0.950 . S
C1073 C1071 1.387 . S
C1073 C1075 1.390 . S
C1073 H1077 0.950 . S
H1074 C1070 0.950 . S
C1075 C1073 1.390 . S
C1075 C1076 1.387 . S
C1075 H1078 0.950 . S
C1076 C1075 1.387 . S
C1076 C1079 1.387 . S
H1077 C1073 0.950 . S
H1078 C1075 0.950 . S
C1079 C1070 1.390 . S
C1079 H1072 0.950 . S
C1079 C1076 1.387 . S
C1080 C1081 1.387 . S
C1080 H1084 0.950 . S
C1080 C1089 1.390 . S
C1081 C1080 1.387 . S
C1081 C1083 1.387 . S
H1082 C1089 0.950 . S
C1083 C1081 1.387 . S
C1083 C1085 1.390 . S
C1083 H1087 0.950 . S
H1084 C1080 0.950 . S
C1085 C1083 1.390 . S
C1085 C1086 1.387 . S
C1085 H1088 0.950 . S
C1086 C1085 1.387 . S
C1086 C1089 1.387 . S
H1087 C1083 0.950 . S
H1088 C1085 0.950 . S
C1089 C1080 1.390 . S
C1089 H1082 0.950 . S
C1089 C1086 1.387 . S
C1090 C1091 1.387 . S
C1090 H1094 0.950 . S
C1090 C1099 1.390 . S
C1091 C1090 1.387 . S
C1091 C1093 1.387 . S
H1092 C1099 0.950 . S
C1093 C1091 1.387 . S
C1093 C1095 1.390 . S
C1093 H1097 0.950 . S
H1094 C1090 0.950 . S
C1095 C1093 1.390 . S
C1095 C1096 1.387 . S
C1095 H1098 0.950 . S
C1096 C1095 1.387 . S
C1096 C1099 1.387 . S
H1097 C1093 0.950 . S
H1098 C1095 0.950 . S
C1099 C1090 1.390 . S
C1099 H1092 0.950 . S
C1099 C1096 1.387 . S
C1100 C1101 1.387 . S
C1100 H1104 0.950 . S
C1100 C1109 1.390 . S
C1101 C1100 1.387 . S
C1101 C1103 1.387 . S
H1102 C1109 0.950 . S
C1103 C1101 1.387 . S
C1103 C1105 1.390 . S
C1103 H1107 0.950 . S
H1104 C1100 0.950 . S
C1105 C1103 1.390 . S
C1105 C1106 1.387 . S
C1105 H1108 0.950 . S
C1106 C1105 1.387 . S
C1106 C1109 1.387 . S
H1107 C1103 0.950 . S
H1108 C1105 0.950 . S
C1109 C1100 1.390 . S
C1109 H1102 0.950 . S
C1109 C1106 1.387 . S
C1110 C1111 1.387 . S
C1110 H1114 0.950 . S
C1110 C1119 1.390 . S
C1111 C1110 1.387 . S
C1111 C1113 1.387 . S
H1112 C1119 0.950 . S
C1113 C1111 1.387 . S
C1113 C1115 1.390 . S
C1113 H1117 0.950 . S
H1114 C1110 0.950 . S
C1115 C1113 1.390 . S
C1115 C1116 1.387 . S
C1115 H1118 0.950 . S
C1116 C1115 1.387 . S
C1116 C1119 1.387 . S
H1117 C1113 0.950 . S
H1118 C1115 0.950 . S
C1119 C1110 1.390 . S
C1119 H1112 0.950 . S
C1119 C1116 1.387 . S
C641 C20 3.009 1_556 S
C646 C300 3.103 . S
C651 C60 2.991 . S
C656 C180 3.075 . S
C661 C220 2.187 . S
C666 C105 2.165 . S
C671 C145 2.216 . S
C676 C260 2.254 . S
C681 C471 0.429 . S
C686 C164 0.746 . S
C691 C324 1.211 . S
C696 C4 0.920 . S
C701 C404 1.005 . S
C706 C244 1.278 . S
C711 C111 0.363 . S
C716 C364 0.786 . S
C721 C380 3.103 . S
C726 C500 3.010 . S
C731 C420 2.991 . S
C736 C580 3.075 . S
C741 C545 2.166 . S
C746 C340 2.188 . S
C751 C465 2.216 . S
C756 C620 2.253 . S
C761 C564 0.747 . S
C766 C151 0.431 . S
C771 C484 0.917 . S
C776 C204 1.207 . S
C781 C44 1.005 . S
C786 C604 1.279 . S
C791 C284 0.789 . S
C796 C551 0.364 1_556 S
C801 C543 1.200 . S
C806 C2 1.213 . S
C811 C463 1.192 . S
C816 C42 1.215 . S
C821 C482 1.216 . S
C826 C103 1.196 . S
C831 C402 1.211 . S
C836 C143 1.196 . S
C841 C162 1.920 . S
C846 C602 1.552 . S
C851 C362 1.901 . S
C856 C202 1.537 . S
C861 C242 1.557 . S
C866 C562 1.921 . S
C871 C282 1.899 . S
C876 C322 1.532 1_455 S
C881 C23 1.678 1_565 S
C886 C183 1.682 1_554 S
C891 C63 2.040 . S
C896 C223 1.997 . S
C901 C263 2.038 . S
C906 C82 2.084 . S
C911 C122 1.671 . S
C916 C303 1.699 . S
C921 C423 2.044 . S
C926 C343 2.000 . S
C931 C442 1.673 . S
C936 C383 1.701 . S
C941 C503 1.677 . S
C946 C583 1.683 . S
C951 C623 2.039 . S
C956 C522 2.100 . S
C961 C25 0.702 . S
C966 C305 0.705 . S
C971 C65 0.625 . S
C976 C185 0.642 . S
C981 C225 0.984 . S
C986 C100 1.107 . S
C991 C265 0.964 . S
C996 C140 1.075 1_554 S
C1001 C444 2.810 . S
C1006 C191 2.925 . S
C1011 C351 3.660 . S
C1016 C31 3.611 . S
C1021 C431 3.535 1_554 S
C1026 C271 3.589 . S
C1031 C84 2.769 . S
C1036 C391 2.900 . S
C1041 C505 0.705 . S
C1046 C385 0.707 . S
C1051 C585 0.639 . S
C1056 C425 0.623 . S
C1061 C540 1.105 . S
C1066 C345 0.979 . S
C1071 C625 0.970 . S
C1076 C460 1.077 . S
C1081 C591 2.924 . S
C1086 C124 2.808 . S
C1091 C231 3.659 1_556 S
C1096 C511 3.611 . S
C1101 C71 3.535 . S
C1106 C631 3.589 . S
C1111 C524 2.770 . S
C1116 C311 2.899 . S
