# Generated by pormake.
# Topology wgi, (5)-cn, num edge types: 1
# Building blocks:
#     Node 0, Type 0, BuildingBlock: BEQFEK_clean_sbu_0, # of connection points: 5
#     Node 1, Type 0, BuildingBlock: BEQFEK_clean_sbu_0, # of connection points: 5
#     Node 2, Type 0, BuildingBlock: BEQFEK_clean_sbu_0, # of connection points: 5
#     Node 3, Type 0, BuildingBlock: BEQFEK_clean_sbu_0, # of connection points: 5
#     Node 4, Type 0, BuildingBlock: BEQFEK_clean_sbu_0, # of connection points: 5
#     Node 5, Type 0, BuildingBlock: BEQFEK_clean_sbu_0, # of connection points: 5
#     Node 6, Type 0, BuildingBlock: BEQFEK_clean_sbu_0, # of connection points: 5
#     Node 7, Type 0, BuildingBlock: BEQFEK_clean_sbu_0, # of connection points: 5
#     Node 8, Type 0, BuildingBlock: BEQFEK_clean_sbu_0, # of connection points: 5
#     Node 9, Type 0, BuildingBlock: BEQFEK_clean_sbu_0, # of connection points: 5
#     Node 10, Type 0, BuildingBlock: BEQFEK_clean_sbu_0, # of connection points: 5
#     Node 11, Type 0, BuildingBlock: BEQFEK_clean_sbu_0, # of connection points: 5
#     Node 12, Type 0, BuildingBlock: BEQFEK_clean_sbu_0, # of connection points: 5
#     Node 13, Type 0, BuildingBlock: BEQFEK_clean_sbu_0, # of connection points: 5
#     Node 14, Type 0, BuildingBlock: BEQFEK_clean_sbu_0, # of connection points: 5
#     Node 15, Type 0, BuildingBlock: BEQFEK_clean_sbu_0, # of connection points: 5
#     Node 16, Type 0, BuildingBlock: BEQFEK_clean_sbu_0, # of connection points: 5
#     Node 17, Type 0, BuildingBlock: BEQFEK_clean_sbu_0, # of connection points: 5
#     Node 18, Type 0, BuildingBlock: BEQFEK_clean_sbu_0, # of connection points: 5
#     Node 19, Type 0, BuildingBlock: BEQFEK_clean_sbu_0, # of connection points: 5
#     Node 20, Type 0, BuildingBlock: BEQFEK_clean_sbu_0, # of connection points: 5
#     Node 21, Type 0, BuildingBlock: BEQFEK_clean_sbu_0, # of connection points: 5
#     Node 22, Type 0, BuildingBlock: BEQFEK_clean_sbu_0, # of connection points: 5
#     Node 23, Type 0, BuildingBlock: BEQFEK_clean_sbu_0, # of connection points: 5
#     Node 24, Type 0, BuildingBlock: BEQFEK_clean_sbu_0, # of connection points: 5
#     Node 25, Type 0, BuildingBlock: BEQFEK_clean_sbu_0, # of connection points: 5
#     Node 26, Type 0, BuildingBlock: BEQFEK_clean_sbu_0, # of connection points: 5
#     Node 27, Type 0, BuildingBlock: BEQFEK_clean_sbu_0, # of connection points: 5
#     Node 28, Type 0, BuildingBlock: BEQFEK_clean_sbu_0, # of connection points: 5
#     Node 29, Type 0, BuildingBlock: BEQFEK_clean_sbu_0, # of connection points: 5
#     Node 30, Type 0, BuildingBlock: BEQFEK_clean_sbu_0, # of connection points: 5
#     Node 31, Type 0, BuildingBlock: BEQFEK_clean_sbu_0, # of connection points: 5
#     Edge 32, Type (0, 0), BuildingBlock: UVAHIK_clean_linker_0, # of connection points: 2
#     Edge 33, Type (0, 0), BuildingBlock: UVAHIK_clean_linker_0, # of connection points: 2
#     Edge 34, Type (0, 0), BuildingBlock: UVAHIK_clean_linker_0, # of connection points: 2
#     Edge 35, Type (0, 0), BuildingBlock: UVAHIK_clean_linker_0, # of connection points: 2
#     Edge 36, Type (0, 0), BuildingBlock: UVAHIK_clean_linker_0, # of connection points: 2
#     Edge 37, Type (0, 0), BuildingBlock: UVAHIK_clean_linker_0, # of connection points: 2
#     Edge 38, Type (0, 0), BuildingBlock: UVAHIK_clean_linker_0, # of connection points: 2
#     Edge 39, Type (0, 0), BuildingBlock: UVAHIK_clean_linker_0, # of connection points: 2
#     Edge 40, Type (0, 0), BuildingBlock: UVAHIK_clean_linker_0, # of connection points: 2
#     Edge 41, Type (0, 0), BuildingBlock: UVAHIK_clean_linker_0, # of connection points: 2
#     Edge 42, Type (0, 0), BuildingBlock: UVAHIK_clean_linker_0, # of connection points: 2
#     Edge 43, Type (0, 0), BuildingBlock: UVAHIK_clean_linker_0, # of connection points: 2
#     Edge 44, Type (0, 0), BuildingBlock: UVAHIK_clean_linker_0, # of connection points: 2
#     Edge 45, Type (0, 0), BuildingBlock: UVAHIK_clean_linker_0, # of connection points: 2
#     Edge 46, Type (0, 0), BuildingBlock: UVAHIK_clean_linker_0, # of connection points: 2
#     Edge 47, Type (0, 0), BuildingBlock: UVAHIK_clean_linker_0, # of connection points: 2
#     Edge 48, Type (0, 0), BuildingBlock: UVAHIK_clean_linker_0, # of connection points: 2
#     Edge 49, Type (0, 0), BuildingBlock: UVAHIK_clean_linker_0, # of connection points: 2
#     Edge 50, Type (0, 0), BuildingBlock: UVAHIK_clean_linker_0, # of connection points: 2
#     Edge 51, Type (0, 0), BuildingBlock: UVAHIK_clean_linker_0, # of connection points: 2
#     Edge 52, Type (0, 0), BuildingBlock: UVAHIK_clean_linker_0, # of connection points: 2
#     Edge 53, Type (0, 0), BuildingBlock: UVAHIK_clean_linker_0, # of connection points: 2
#     Edge 54, Type (0, 0), BuildingBlock: UVAHIK_clean_linker_0, # of connection points: 2
#     Edge 55, Type (0, 0), BuildingBlock: UVAHIK_clean_linker_0, # of connection points: 2
#     Edge 56, Type (0, 0), BuildingBlock: UVAHIK_clean_linker_0, # of connection points: 2
#     Edge 57, Type (0, 0), BuildingBlock: UVAHIK_clean_linker_0, # of connection points: 2
#     Edge 58, Type (0, 0), BuildingBlock: UVAHIK_clean_linker_0, # of connection points: 2
#     Edge 59, Type (0, 0), BuildingBlock: UVAHIK_clean_linker_0, # of connection points: 2
#     Edge 60, Type (0, 0), BuildingBlock: UVAHIK_clean_linker_0, # of connection points: 2
#     Edge 61, Type (0, 0), BuildingBlock: UVAHIK_clean_linker_0, # of connection points: 2
#     Edge 62, Type (0, 0), BuildingBlock: UVAHIK_clean_linker_0, # of connection points: 2
#     Edge 63, Type (0, 0), BuildingBlock: UVAHIK_clean_linker_0, # of connection points: 2
#     Edge 64, Type (0, 0), BuildingBlock: UVAHIK_clean_linker_0, # of connection points: 2
#     Edge 65, Type (0, 0), BuildingBlock: UVAHIK_clean_linker_0, # of connection points: 2
#     Edge 66, Type (0, 0), BuildingBlock: UVAHIK_clean_linker_0, # of connection points: 2
#     Edge 67, Type (0, 0), BuildingBlock: UVAHIK_clean_linker_0, # of connection points: 2
#     Edge 68, Type (0, 0), BuildingBlock: UVAHIK_clean_linker_0, # of connection points: 2
#     Edge 69, Type (0, 0), BuildingBlock: UVAHIK_clean_linker_0, # of connection points: 2
#     Edge 70, Type (0, 0), BuildingBlock: UVAHIK_clean_linker_0, # of connection points: 2
#     Edge 71, Type (0, 0), BuildingBlock: UVAHIK_clean_linker_0, # of connection points: 2
#     Edge 72, Type (0, 0), BuildingBlock: UVAHIK_clean_linker_0, # of connection points: 2
#     Edge 73, Type (0, 0), BuildingBlock: UVAHIK_clean_linker_0, # of connection points: 2
#     Edge 74, Type (0, 0), BuildingBlock: UVAHIK_clean_linker_0, # of connection points: 2
#     Edge 75, Type (0, 0), BuildingBlock: UVAHIK_clean_linker_0, # of connection points: 2
#     Edge 76, Type (0, 0), BuildingBlock: UVAHIK_clean_linker_0, # of connection points: 2
#     Edge 77, Type (0, 0), BuildingBlock: UVAHIK_clean_linker_0, # of connection points: 2
#     Edge 78, Type (0, 0), BuildingBlock: UVAHIK_clean_linker_0, # of connection points: 2
#     Edge 79, Type (0, 0), BuildingBlock: UVAHIK_clean_linker_0, # of connection points: 2
#     Edge 80, Type (0, 0), BuildingBlock: UVAHIK_clean_linker_0, # of connection points: 2
#     Edge 81, Type (0, 0), BuildingBlock: UVAHIK_clean_linker_0, # of connection points: 2
#     Edge 82, Type (0, 0), BuildingBlock: UVAHIK_clean_linker_0, # of connection points: 2
#     Edge 83, Type (0, 0), BuildingBlock: UVAHIK_clean_linker_0, # of connection points: 2
#     Edge 84, Type (0, 0), BuildingBlock: UVAHIK_clean_linker_0, # of connection points: 2
#     Edge 85, Type (0, 0), BuildingBlock: UVAHIK_clean_linker_0, # of connection points: 2
#     Edge 86, Type (0, 0), BuildingBlock: UVAHIK_clean_linker_0, # of connection points: 2
#     Edge 87, Type (0, 0), BuildingBlock: UVAHIK_clean_linker_0, # of connection points: 2
#     Edge 88, Type (0, 0), BuildingBlock: UVAHIK_clean_linker_0, # of connection points: 2
#     Edge 89, Type (0, 0), BuildingBlock: UVAHIK_clean_linker_0, # of connection points: 2
#     Edge 90, Type (0, 0), BuildingBlock: UVAHIK_clean_linker_0, # of connection points: 2
#     Edge 91, Type (0, 0), BuildingBlock: UVAHIK_clean_linker_0, # of connection points: 2
#     Edge 92, Type (0, 0), BuildingBlock: UVAHIK_clean_linker_0, # of connection points: 2
#     Edge 93, Type (0, 0), BuildingBlock: UVAHIK_clean_linker_0, # of connection points: 2
#     Edge 94, Type (0, 0), BuildingBlock: UVAHIK_clean_linker_0, # of connection points: 2
#     Edge 95, Type (0, 0), BuildingBlock: UVAHIK_clean_linker_0, # of connection points: 2
#     Edge 96, Type (0, 0), BuildingBlock: UVAHIK_clean_linker_0, # of connection points: 2
#     Edge 97, Type (0, 0), BuildingBlock: UVAHIK_clean_linker_0, # of connection points: 2
#     Edge 98, Type (0, 0), BuildingBlock: UVAHIK_clean_linker_0, # of connection points: 2
#     Edge 99, Type (0, 0), BuildingBlock: UVAHIK_clean_linker_0, # of connection points: 2
#     Edge 100, Type (0, 0), BuildingBlock: UVAHIK_clean_linker_0, # of connection points: 2
#     Edge 101, Type (0, 0), BuildingBlock: UVAHIK_clean_linker_0, # of connection points: 2
#     Edge 102, Type (0, 0), BuildingBlock: UVAHIK_clean_linker_0, # of connection points: 2
#     Edge 103, Type (0, 0), BuildingBlock: UVAHIK_clean_linker_0, # of connection points: 2
#     Edge 104, Type (0, 0), BuildingBlock: UVAHIK_clean_linker_0, # of connection points: 2
#     Edge 105, Type (0, 0), BuildingBlock: UVAHIK_clean_linker_0, # of connection points: 2
#     Edge 106, Type (0, 0), BuildingBlock: UVAHIK_clean_linker_0, # of connection points: 2
#     Edge 107, Type (0, 0), BuildingBlock: UVAHIK_clean_linker_0, # of connection points: 2
#     Edge 108, Type (0, 0), BuildingBlock: UVAHIK_clean_linker_0, # of connection points: 2
#     Edge 109, Type (0, 0), BuildingBlock: UVAHIK_clean_linker_0, # of connection points: 2
#     Edge 110, Type (0, 0), BuildingBlock: UVAHIK_clean_linker_0, # of connection points: 2
#     Edge 111, Type (0, 0), BuildingBlock: UVAHIK_clean_linker_0, # of connection points: 2
# Relax obj value: 0.193
# Max RMSD: 0.125
# Mean RMSD: 0.125
data_MOF--net-wgi--node1-BEQFEK_clean_sbu_0--edge1-UVAHIK_clean_linker_0
_symmetry_space_group_name_H-M    P1
_symmetry_Int_Tables_number       1
_symmetry_cell_setting            triclinic
loop_
_symmetry_equiv_pos_as_xyz
'x, y, z'
_cell_length_a     94.874537
_cell_length_b     94.90579
_cell_length_c     37.122058
_cell_angle_alpha  89.997151
_cell_angle_beta   90.009617
_cell_angle_gamma 89.995732
loop_
_atom_site_label
_atom_site_type_symbol
_atom_site_fract_x
_atom_site_fract_y
_atom_site_fract_z
_atom_type_partial_charge
Co0 Co 0.11896 0.16827 0.34964 0.0
Co1 Co 0.15183 0.17294 0.35144 0.0
C2 C 0.13813 0.15614 0.29302 0.0
O3 O 0.12606 0.15825 0.30697 0.0
O4 O 0.1493 0.16131 0.30687 0.0
C5 C 0.09368 0.15147 0.34982 0.0
O6 O 0.10221 0.14136 0.33939 0.0
C7 C 0.18204 0.16659 0.36525 0.0
C8 C 0.18981 0.18781 0.37938 0.0
C9 C 0.19386 0.17382 0.37753 0.0
N10 N 0.17146 0.1759 0.36091 0.0
N11 N 0.1763 0.18859 0.36875 0.0
C12 C 0.1809 0.15127 0.3561 0.0
H13 H 0.16968 0.14793 0.35574 0.0
H14 H 0.187 0.14466 0.37513 0.0
H15 H 0.18536 0.14958 0.32882 0.0
C16 C 0.12464 0.15686 0.42199 0.0
N17 N 0.12913 0.16246 0.39075 0.0
N18 N 0.1429 0.16427 0.39211 0.0
C19 C 0.14755 0.15993 0.42471 0.0
C20 C 0.13615 0.15491 0.44428 0.0
C21 C 0.10947 0.15466 0.43162 0.0
H22 H 0.10309 0.16372 0.42217 0.0
H23 H 0.1056 0.14495 0.41826 0.0
H24 H 0.108 0.15353 0.46112 0.0
O25 O 0.12051 0.18891 0.34411 0.0
O26 O 0.14366 0.19213 0.34511 0.0
H27 H 0.16703 0.17113 0.43099 0.0
H28 H 0.16358 0.15856 0.46638 0.0
C29 C 0.16254 0.16062 0.43715 0.0
H30 H 0.1687 0.15245 0.42293 0.0
H31 H 0.1702 0.19774 0.36834 0.0
O32 O 0.09864 0.16373 0.35525 0.0
C33 C 0.13118 0.19703 0.34311 0.0
Co34 Co 0.08405 0.86769 0.59791 0.0
Co35 Co 0.0792 0.9005 0.60145 0.0
C36 C 0.09645 0.88743 0.54281 0.0
O37 O 0.09398 0.87533 0.55609 0.0
O38 O 0.09147 0.8986 0.55724 0.0
C39 C 0.10097 0.84257 0.59571 0.0
O40 O 0.11101 0.85129 0.58586 0.0
C41 C 0.08452 0.93068 0.61983 0.0
C42 C 0.06306 0.93672 0.63688 0.0
C43 C 0.07687 0.94145 0.63618 0.0
N44 N 0.07565 0.91994 0.61258 0.0
N45 N 0.06278 0.92389 0.62173 0.0
C46 C 0.10013 0.93001 0.61445 0.0
H47 H 0.10362 0.91894 0.61076 0.0
H48 H 0.10575 0.93492 0.63747 0.0
H49 H 0.10289 0.93606 0.58986 0.0
C50 C 0.09569 0.87269 0.67023 0.0
N51 N 0.08967 0.87744 0.63975 0.0
N52 N 0.08752 0.89113 0.64237 0.0
C53 C 0.09186 0.89539 0.67539 0.0
C54 C 0.09744 0.8839 0.69352 0.0
C55 C 0.09893 0.85755 0.67793 0.0
H56 H 0.09003 0.85082 0.66913 0.0
H57 H 0.10853 0.85444 0.66287 0.0
H58 H 0.10081 0.85573 0.70707 0.0
O59 O 0.06353 0.86909 0.59177 0.0
O60 O 0.06009 0.89218 0.59289 0.0
H61 H 0.08038 0.91471 0.68169 0.0
H62 H 0.0913 0.91028 0.71961 0.0
C63 C 0.09058 0.91004 0.68985 0.0
H64 H 0.09936 0.9165 0.6793 0.0
H65 H 0.05392 0.9174 0.6201 0.0
O66 O 0.0887 0.84738 0.60186 0.0
C67 C 0.05533 0.87967 0.59028 0.0
Co68 Co 0.38413 0.83518 0.84912 0.0
Co69 Co 0.35127 0.83045 0.85447 0.0
C70 C 0.36383 0.84689 0.79405 0.0
O71 O 0.3761 0.84495 0.80704 0.0
O72 O 0.35286 0.84174 0.80904 0.0
C73 C 0.40915 0.85234 0.84647 0.0
O74 O 0.40029 0.86229 0.83679 0.0
C75 C 0.32078 0.83571 0.87018 0.0
C76 C 0.31466 0.81462 0.88994 0.0
C77 C 0.30963 0.82817 0.88512 0.0
N78 N 0.33194 0.82699 0.86707 0.0
N79 N 0.32807 0.81437 0.87841 0.0
C80 C 0.32065 0.85066 0.8574 0.0
H81 H 0.33152 0.8543 0.85133 0.0
H82 H 0.31573 0.85769 0.87764 0.0
H83 H 0.31421 0.85134 0.83251 0.0
C84 C 0.37951 0.84721 0.92127 0.0
N85 N 0.37463 0.84105 0.89114 0.0
N86 N 0.36084 0.83959 0.89352 0.0
C87 C 0.35656 0.84492 0.92548 0.0
C88 C 0.36824 0.85006 0.94374 0.0
C89 C 0.3948 0.84945 0.92953 0.0
H90 H 0.40109 0.84041 0.91961 0.0
H91 H 0.39846 0.85919 0.91594 0.0
H92 H 0.39661 0.85059 0.95892 0.0
O93 O 0.3827 0.81457 0.84387 0.0
O94 O 0.3596 0.81132 0.84738 0.0
H95 H 0.3367 0.83501 0.93601 0.0
H96 H 0.34053 0.84963 0.96556 0.0
C97 C 0.34155 0.84561 0.93768 0.0
H98 H 0.33571 0.85289 0.91984 0.0
H99 H 0.33477 0.80567 0.87957 0.0
O100 O 0.40448 0.84 0.85243 0.0
C101 C 0.37204 0.80645 0.84392 0.0
Co102 Co 0.41641 0.13333 0.10372 0.0
Co103 Co 0.42252 0.10072 0.10331 0.0
C104 C 0.4047 0.11458 0.04645 0.0
O105 O 0.40634 0.12658 0.06106 0.0
O106 O 0.41045 0.1035 0.05927 0.0
C107 C 0.39964 0.15866 0.10376 0.0
O108 O 0.38975 0.15033 0.09108 0.0
C109 C 0.41632 0.07068 0.11849 0.0
C110 C 0.43789 0.06251 0.12658 0.0
C111 C 0.42381 0.05876 0.1292 0.0
N112 N 0.42561 0.08102 0.11108 0.0
N113 N 0.43847 0.07594 0.11521 0.0
C114 C 0.40071 0.07214 0.11386 0.0
H115 H 0.39847 0.07807 0.08874 0.0
H116 H 0.39619 0.0783 0.13638 0.0
H117 H 0.39552 0.06167 0.11272 0.0
C118 C 0.40463 0.12632 0.17496 0.0
N119 N 0.41086 0.1225 0.1439 0.0
N120 N 0.41424 0.10904 0.14539 0.0
C121 C 0.41095 0.10412 0.17855 0.0
C122 C 0.4044 0.1148 0.19762 0.0
C123 C 0.39981 0.14094 0.1837 0.0
H124 H 0.40852 0.14848 0.17877 0.0
H125 H 0.39086 0.14375 0.16588 0.0
H126 H 0.39636 0.14188 0.21216 0.0
O127 O 0.4372 0.13221 0.09756 0.0
O128 O 0.44137 0.10922 0.0963 0.0
H129 H 0.42477 0.08611 0.17976 0.0
H130 H 0.41754 0.09098 0.22277 0.0
C131 C 0.41525 0.09012 0.19355 0.0
H132 H 0.40649 0.0825 0.19061 0.0
H133 H 0.44766 0.08184 0.11198 0.0
O134 O 0.4117 0.15354 0.11096 0.0
C135 C 0.44574 0.12189 0.09519 0.0
Co136 Co 0.11708 0.83537 0.14163 0.0
Co137 Co 0.14995 0.83075 0.14326 0.0
C138 C 0.13524 0.84794 0.19967 0.0
O139 O 0.12346 0.8453 0.18484 0.0
O140 O 0.14673 0.84315 0.18659 0.0
C141 C 0.09204 0.85222 0.14178 0.0
O142 O 0.10063 0.86183 0.1547 0.0
C143 C 0.17999 0.83735 0.12779 0.0
C144 C 0.18863 0.81583 0.12293 0.0
C145 C 0.19213 0.8299 0.11862 0.0
N146 N 0.16977 0.82803 0.13605 0.0
N147 N 0.17514 0.81521 0.13378 0.0
C148 C 0.17826 0.853 0.13033 0.0
H149 H 0.17038 0.85564 0.15137 0.0
H150 H 0.17437 0.85729 0.10447 0.0
H151 H 0.1885 0.85811 0.13661 0.0
C152 C 0.12373 0.846 0.06918 0.0
N153 N 0.12786 0.841 0.10139 0.0
N154 N 0.14153 0.83846 0.10066 0.0
C155 C 0.14637 0.84133 0.06717 0.0
C156 C 0.13532 0.84648 0.04672 0.0
C157 C 0.10886 0.84979 0.05979 0.0
H158 H 0.1019 0.8406 0.06464 0.0
H159 H 0.10534 0.85854 0.07737 0.0
H160 H 0.10782 0.8532 0.03134 0.0
O161 O 0.11864 0.81471 0.14794 0.0
O162 O 0.14181 0.8116 0.15082 0.0
H163 H 0.16464 0.82782 0.06765 0.0
H164 H 0.15943 0.83388 0.02371 0.0
C165 C 0.16039 0.83691 0.05249 0.0
H166 H 0.16785 0.84585 0.05378 0.0
H167 H 0.16941 0.80598 0.13807 0.0
O168 O 0.09686 0.84007 0.13423 0.0
C169 C 0.12931 0.80666 0.15126 0.0
Co170 Co 0.41639 0.86889 0.39386 0.0
Co171 Co 0.42132 0.90172 0.39468 0.0
C172 C 0.40353 0.88778 0.45033 0.0
O173 O 0.40564 0.87587 0.43555 0.0
O174 O 0.40912 0.89905 0.4382 0.0
C175 C 0.39895 0.84423 0.3905 0.0
O176 O 0.38891 0.85317 0.39903 0.0
C177 C 0.41583 0.93225 0.38268 0.0
C178 C 0.43717 0.93933 0.36721 0.0
C179 C 0.42335 0.94386 0.37014 0.0
N180 N 0.42481 0.92133 0.38606 0.0
N181 N 0.43758 0.92576 0.37748 0.0
C182 C 0.40057 0.93163 0.39281 0.0
H183 H 0.39687 0.92054 0.39355 0.0
H184 H 0.39399 0.9379 0.37411 0.0
H185 H 0.3993 0.93621 0.42011 0.0
C186 C 0.40645 0.87527 0.32051 0.0
N187 N 0.41152 0.87941 0.35263 0.0
N188 N 0.41309 0.89321 0.35271 0.0
C189 C 0.40894 0.89826 0.32033 0.0
C190 C 0.40447 0.88705 0.29916 0.0
C191 C 0.40462 0.8602 0.30945 0.0
H192 H 0.41332 0.85372 0.32045 0.0
H193 H 0.39448 0.8562 0.32028 0.0
H194 H 0.4045 0.85907 0.27971 0.0
O195 O 0.43691 0.87008 0.40202 0.0
O196 O 0.4403 0.8932 0.40256 0.0
H197 H 0.41938 0.91816 0.31494 0.0
H198 H 0.40582 0.91522 0.28169 0.0
C199 C 0.40883 0.91351 0.31015 0.0
H200 H 0.40099 0.91906 0.32696 0.0
H201 H 0.4465 0.91934 0.377 0.0
O202 O 0.4115 0.84872 0.3871 0.0
C203 C 0.44507 0.88067 0.40452 0.0
Co204 Co 0.38379 0.1657 0.64293 0.0
Co205 Co 0.35119 0.17182 0.64248 0.0
C206 C 0.365 0.15475 0.70109 0.0
O207 O 0.37706 0.15628 0.6866 0.0
O208 O 0.35395 0.16022 0.68731 0.0
C209 C 0.40938 0.14912 0.64409 0.0
O210 O 0.40133 0.13931 0.65826 0.0
C211 C 0.32106 0.16567 0.6274 0.0
C212 C 0.31301 0.18726 0.61906 0.0
C213 C 0.30917 0.1732 0.61677 0.0
N214 N 0.33149 0.1749 0.63451 0.0
N215 N 0.32647 0.18778 0.6302 0.0
C216 C 0.32241 0.15006 0.63229 0.0
H217 H 0.32961 0.14776 0.6551 0.0
H218 H 0.32701 0.14521 0.60788 0.0
H219 H 0.31194 0.14523 0.63731 0.0
C220 C 0.37687 0.15317 0.57247 0.0
N221 N 0.37298 0.15966 0.60311 0.0
N222 N 0.35954 0.1631 0.60112 0.0
C223 C 0.35472 0.15958 0.56802 0.0
C224 C 0.36542 0.15282 0.54954 0.0
C225 C 0.39153 0.14833 0.5642 0.0
H226 H 0.39901 0.15718 0.56822 0.0
H227 H 0.39443 0.13971 0.58291 0.0
H228 H 0.39252 0.14446 0.53611 0.0
O229 O 0.38271 0.18655 0.64748 0.0
O230 O 0.35971 0.19071 0.64832 0.0
H231 H 0.3367 0.1734 0.5662 0.0
H232 H 0.3419 0.16632 0.52332 0.0
C233 C 0.34082 0.16392 0.55243 0.0
H234 H 0.3332 0.15514 0.55474 0.0
H235 H 0.33243 0.19694 0.63323 0.0
O236 O 0.404 0.16096 0.63583 0.0
C237 C 0.37238 0.1951 0.64923 0.0
Co238 Co 0.08592 0.1337 0.9005 0.0
Co239 Co 0.08087 0.10095 0.89394 0.0
C240 C 0.09878 0.11347 0.95259 0.0
O241 O 0.09678 0.12585 0.94055 0.0
O242 O 0.09309 0.1027 0.93804 0.0
C243 C 0.10168 0.15964 0.90601 0.0
O244 O 0.11161 0.15147 0.91911 0.0
C245 C 0.08846 0.07191 0.87238 0.0
C246 C 0.06739 0.06238 0.86553 0.0
C247 C 0.08164 0.05969 0.86124 0.0
N248 N 0.07863 0.08143 0.88205 0.0
N249 N 0.06608 0.07557 0.87836 0.0
C250 C 0.104 0.07436 0.87559 0.0
H251 H 0.1062 0.08555 0.88225 0.0
H252 H 0.10953 0.07146 0.85042 0.0
H253 H 0.10824 0.06754 0.89731 0.0
C254 C 0.09616 0.12979 0.82658 0.0
N255 N 0.09109 0.12452 0.85758 0.0
N256 N 0.08866 0.11093 0.85372 0.0
C257 C 0.0918 0.10726 0.81944 0.0
C258 C 0.09679 0.11904 0.80155 0.0
C259 C 0.10039 0.14485 0.82123 0.0
H260 H 0.09116 0.15178 0.82598 0.0
H261 H 0.10868 0.14759 0.84105 0.0
H262 H 0.10461 0.14681 0.79385 0.0
O263 O 0.06535 0.13162 0.90809 0.0
O264 O 0.0617 0.10859 0.90326 0.0
H265 H 0.0787 0.08888 0.81417 0.0
H266 H 0.08694 0.09454 0.77286 0.0
C267 C 0.08843 0.09338 0.80237 0.0
H268 H 0.09734 0.08605 0.80671 0.0
H269 H 0.05658 0.08074 0.88343 0.0
O270 O 0.08996 0.15422 0.8968 0.0
C271 C 0.05706 0.12105 0.90801 0.0
Co272 Co 0.88316 0.83286 0.64324 0.0
Co273 Co 0.85018 0.82892 0.64292 0.0
C274 C 0.86421 0.84586 0.69994 0.0
O275 O 0.87608 0.8431 0.68557 0.0
O276 O 0.85275 0.84111 0.68664 0.0
C277 C 0.90797 0.8501 0.6416 0.0
O278 O 0.89907 0.86015 0.65025 0.0
C279 C 0.81951 0.83438 0.63023 0.0
C280 C 0.8129 0.81321 0.61215 0.0
C281 C 0.80809 0.82687 0.61659 0.0
N282 N 0.83061 0.82555 0.63289 0.0
N283 N 0.82644 0.81288 0.62265 0.0
C284 C 0.81975 0.84944 0.64214 0.0
H285 H 0.83076 0.85307 0.64633 0.0
H286 H 0.81438 0.85634 0.62236 0.0
H287 H 0.81394 0.85035 0.66798 0.0
C288 C 0.87736 0.84351 0.57023 0.0
N289 N 0.87295 0.83828 0.60194 0.0
N290 N 0.8591 0.8372 0.60168 0.0
C291 C 0.85428 0.84192 0.5696 0.0
C292 C 0.8657 0.84616 0.54885 0.0
C293 C 0.89252 0.84489 0.55953 0.0
H294 H 0.89871 0.83598 0.57063 0.0
H295 H 0.89679 0.85489 0.57048 0.0
H296 H 0.89374 0.84499 0.52981 0.0
O297 O 0.88162 0.8124 0.65029 0.0
O298 O 0.85841 0.8097 0.65098 0.0
H299 H 0.83404 0.8324 0.56189 0.0
H300 H 0.83746 0.84701 0.53194 0.0
C301 C 0.83904 0.84292 0.55956 0.0
H302 H 0.83376 0.85027 0.57826 0.0
H303 H 0.83302 0.80409 0.62135 0.0
O304 O 0.90341 0.8376 0.63754 0.0
C305 C 0.8708 0.80455 0.6528 0.0
Co306 Co 0.91784 0.1331 0.40264 0.0
Co307 Co 0.92387 0.10062 0.39314 0.0
C308 C 0.90555 0.1117 0.45275 0.0
O309 O 0.9073 0.12428 0.44194 0.0
O310 O 0.91145 0.10125 0.43716 0.0
C311 C 0.90118 0.15843 0.41022 0.0
O312 O 0.89148 0.14982 0.42261 0.0
C313 C 0.91817 0.07153 0.36732 0.0
C314 C 0.9399 0.06452 0.35577 0.0
C315 C 0.9259 0.06068 0.35158 0.0
N316 N 0.92724 0.08145 0.37912 0.0
N317 N 0.9402 0.07695 0.37306 0.0
C318 C 0.90249 0.07321 0.36779 0.0
H319 H 0.89957 0.08439 0.37255 0.0
H320 H 0.89779 0.06941 0.34219 0.0
H321 H 0.8981 0.06673 0.38999 0.0
C322 C 0.90768 0.12996 0.32838 0.0
N323 N 0.91295 0.12438 0.35883 0.0
N324 N 0.91587 0.11095 0.3536 0.0
C325 C 0.91293 0.10776 0.31888 0.0
C326 C 0.90746 0.11961 0.30223 0.0
C327 C 0.90288 0.14491 0.32456 0.0
H328 H 0.91182 0.15212 0.33013 0.0
H329 H 0.89446 0.14701 0.34451 0.0
H330 H 0.89862 0.14715 0.29734 0.0
O331 O 0.93849 0.13171 0.40997 0.0
O332 O 0.9427 0.10885 0.40369 0.0
H333 H 0.92682 0.09006 0.31196 0.0
H334 H 0.91885 0.09634 0.27096 0.0
C335 C 0.91706 0.09443 0.3001 0.0
H336 H 0.90841 0.08666 0.30245 0.0
H337 H 0.94926 0.0828 0.37855 0.0
O338 O 0.91308 0.15348 0.40078 0.0
C339 C 0.94703 0.12136 0.40927 0.0
Co340 Co 0.61795 0.16804 0.14758 0.0
Co341 Co 0.65069 0.17297 0.14023 0.0
C342 C 0.63882 0.15679 0.2019 0.0
O343 O 0.62644 0.15854 0.18943 0.0
O344 O 0.64963 0.16198 0.18629 0.0
C345 C 0.59301 0.15079 0.15128 0.0
O346 O 0.60195 0.14068 0.15926 0.0
C347 C 0.68119 0.1682 0.12312 0.0
C348 C 0.6865 0.18913 0.10088 0.0
C349 C 0.69197 0.17581 0.10675 0.0
N350 N 0.66981 0.17663 0.12606 0.0
N351 N 0.6732 0.18917 0.1132 0.0
C352 C 0.68188 0.15346 0.13736 0.0
H353 H 0.67125 0.14976 0.14552 0.0
H354 H 0.68638 0.1462 0.11703 0.0
H355 H 0.68896 0.15325 0.16115 0.0
C356 C 0.62201 0.15576 0.07545 0.0
N357 N 0.6271 0.16201 0.10523 0.0
N358 N 0.64087 0.16344 0.10223 0.0
C359 C 0.64495 0.15793 0.07032 0.0
C360 C 0.63314 0.15277 0.05262 0.0
C361 C 0.60666 0.15364 0.06773 0.0
H362 H 0.60047 0.16263 0.07833 0.0
H363 H 0.60304 0.14381 0.081 0.0
H364 H 0.60467 0.15271 0.03837 0.0
O365 O 0.61921 0.18864 0.1519 0.0
O366 O 0.64223 0.19208 0.14672 0.0
H367 H 0.66464 0.16773 0.05741 0.0
H368 H 0.66083 0.1523 0.03059 0.0
C369 C 0.6599 0.15705 0.05773 0.0
H370 H 0.6659 0.15035 0.07663 0.0
H371 H 0.66624 0.19766 0.11158 0.0
O372 O 0.59763 0.16317 0.14581 0.0
C373 C 0.62978 0.19686 0.15069 0.0
Co374 Co 0.58462 0.86981 0.90463 0.0
Co375 Co 0.57946 0.90234 0.8936 0.0
C376 C 0.59709 0.89154 0.9543 0.0
O377 O 0.59502 0.87895 0.94388 0.0
O378 O 0.59162 0.90207 0.93807 0.0
C379 C 0.60174 0.84479 0.9112 0.0
O380 O 0.61185 0.8537 0.91931 0.0
C381 C 0.58442 0.9319 0.86866 0.0
C382 C 0.56288 0.93707 0.85038 0.0
C383 C 0.57661 0.94203 0.85019 0.0
N384 N 0.5757 0.92127 0.87797 0.0
N385 N 0.56279 0.92471 0.86793 0.0
C386 C 0.60003 0.93163 0.87441 0.0
H387 H 0.60363 0.92079 0.88093 0.0
H388 H 0.60563 0.93566 0.85028 0.0
H389 H 0.60266 0.93865 0.89735 0.0
C390 C 0.59523 0.87218 0.83046 0.0
N391 N 0.58986 0.87805 0.86044 0.0
N392 N 0.58775 0.89162 0.85496 0.0
C393 C 0.59154 0.89468 0.82068 0.0
C394 C 0.59663 0.88252 0.80451 0.0
C395 C 0.59781 0.85673 0.82562 0.0
H396 H 0.58889 0.85064 0.83696 0.0
H397 H 0.6076 0.85375 0.84008 0.0
H398 H 0.59901 0.85388 0.79679 0.0
O399 O 0.56398 0.87128 0.91092 0.0
O400 O 0.56052 0.89422 0.90397 0.0
H401 H 0.5797 0.91344 0.80972 0.0
H402 H 0.59132 0.90829 0.77367 0.0
C403 C 0.59012 0.90883 0.80329 0.0
H404 H 0.59854 0.91581 0.81354 0.0
H405 H 0.55403 0.91817 0.87085 0.0
O406 O 0.58944 0.84947 0.90469 0.0
C407 C 0.55576 0.88186 0.90961 0.0
Co408 Co 0.88502 0.1669 0.84779 0.0
Co409 Co 0.85217 0.17164 0.84946 0.0
C410 C 0.86573 0.15411 0.79225 0.0
O411 O 0.8778 0.15641 0.80601 0.0
O412 O 0.85455 0.15941 0.80578 0.0
C413 C 0.91014 0.1499 0.84896 0.0
O414 O 0.9015 0.13975 0.8394 0.0
C415 C 0.82186 0.16588 0.86431 0.0
C416 C 0.81446 0.18742 0.87662 0.0
C417 C 0.81018 0.17348 0.87605 0.0
N418 N 0.83258 0.17496 0.85902 0.0
N419 N 0.82796 0.18782 0.86581 0.0
C420 C 0.8227 0.15043 0.85651 0.0
H421 H 0.83387 0.14697 0.8551 0.0
H422 H 0.81693 0.14419 0.87695 0.0
H423 H 0.81767 0.14838 0.83004 0.0
C424 C 0.87946 0.15654 0.92119 0.0
N425 N 0.87492 0.1617 0.88952 0.0
N426 N 0.86115 0.16351 0.89084 0.0
C427 C 0.85656 0.15959 0.92385 0.0
C428 C 0.868 0.15486 0.94376 0.0
C429 C 0.89466 0.15446 0.93082 0.0
H430 H 0.90102 0.16336 0.92041 0.0
H431 H 0.89849 0.14455 0.91838 0.0
H432 H 0.89618 0.15377 0.96039 0.0
O433 O 0.88359 0.18746 0.84048 0.0
O434 O 0.86044 0.19069 0.84116 0.0
H435 H 0.83705 0.17078 0.92949 0.0
H436 H 0.84055 0.15855 0.96562 0.0
C437 C 0.84157 0.16035 0.93627 0.0
H438 H 0.83543 0.15204 0.92253 0.0
H439 H 0.8342 0.19686 0.86451 0.0
O440 O 0.9053 0.16226 0.85352 0.0
C441 C 0.87292 0.19556 0.83867 0.0
Co442 Co 0.58553 0.13476 0.60134 0.0
Co443 Co 0.581 0.10188 0.59998 0.0
C444 C 0.59891 0.11628 0.54505 0.0
O445 O 0.59664 0.12813 0.55997 0.0
O446 O 0.59333 0.10495 0.55682 0.0
C447 C 0.60244 0.15979 0.6053 0.0
O448 O 0.61265 0.15112 0.59635 0.0
C449 C 0.5877 0.07169 0.61139 0.0
C450 C 0.56669 0.06345 0.62598 0.0
C451 C 0.58075 0.05967 0.62342 0.0
N452 N 0.57818 0.08214 0.60794 0.0
N453 N 0.56562 0.07702 0.61599 0.0
C454 C 0.60297 0.07321 0.60204 0.0
H455 H 0.60622 0.08443 0.60357 0.0
H456 H 0.60973 0.06665 0.61969 0.0
H457 H 0.60455 0.06956 0.57393 0.0
C458 C 0.59522 0.12837 0.67489 0.0
N459 N 0.59035 0.12422 0.64257 0.0
N460 N 0.58886 0.11042 0.64236 0.0
C461 C 0.59281 0.10537 0.67491 0.0
C462 C 0.5971 0.11658 0.69628 0.0
C463 C 0.59697 0.14343 0.68606 0.0
H464 H 0.58817 0.14985 0.67527 0.0
H465 H 0.60703 0.14753 0.67506 0.0
H466 H 0.59715 0.14453 0.71582 0.0
O467 O 0.56508 0.13315 0.59233 0.0
O468 O 0.56184 0.10999 0.59193 0.0
H469 H 0.58242 0.08538 0.67906 0.0
H470 H 0.59528 0.08845 0.71398 0.0
C471 C 0.59282 0.09012 0.68516 0.0
H472 H 0.60104 0.08462 0.66945 0.0
H473 H 0.55637 0.08299 0.6163 0.0
O474 O 0.58998 0.15501 0.6087 0.0
C475 C 0.557 0.12249 0.58974 0.0
Co476 Co 0.61732 0.83529 0.34752 0.0
Co477 Co 0.65004 0.82968 0.34947 0.0
C478 C 0.6367 0.84832 0.29335 0.0
O479 O 0.62454 0.84616 0.30667 0.0
O480 O 0.64769 0.84258 0.30675 0.0
C481 C 0.59215 0.85211 0.34758 0.0
O482 O 0.60076 0.86206 0.33658 0.0
C483 C 0.67968 0.83596 0.36931 0.0
C484 C 0.68836 0.81441 0.37265 0.0
C485 C 0.69169 0.82841 0.37904 0.0
N486 N 0.66969 0.82675 0.35873 0.0
N487 N 0.67508 0.81393 0.36015 0.0
C488 C 0.67784 0.85163 0.36849 0.0
H489 H 0.6734 0.85537 0.39434 0.0
H490 H 0.68813 0.85694 0.36415 0.0
H491 H 0.67035 0.8546 0.34682 0.0
C492 C 0.62278 0.84411 0.42209 0.0
N493 N 0.62745 0.83983 0.38969 0.0
N494 N 0.641 0.83686 0.39181 0.0
C495 C 0.64521 0.83867 0.42634 0.0
C496 C 0.63387 0.84358 0.44615 0.0
C497 C 0.60784 0.84806 0.43016 0.0
H498 H 0.6008 0.83907 0.42373 0.0
H499 H 0.60479 0.85712 0.41303 0.0
H500 H 0.60636 0.8511 0.45875 0.0
O501 O 0.61875 0.81473 0.33863 0.0
O502 O 0.64183 0.81081 0.33933 0.0
H503 H 0.66288 0.82442 0.42619 0.0
H504 H 0.65727 0.83 0.47028 0.0
C505 C 0.65879 0.83343 0.44194 0.0
H506 H 0.66665 0.84204 0.4422 0.0
H507 H 0.66948 0.80477 0.35409 0.0
O508 O 0.59702 0.83986 0.35371 0.0
C509 C 0.62921 0.80635 0.33633 0.0
Co510 Co 0.91638 0.86715 0.09896 0.0
Co511 Co 0.91973 0.90016 0.10102 0.0
C512 C 0.90344 0.88611 0.04249 0.0
O513 O 0.90631 0.8742 0.05647 0.0
O514 O 0.90791 0.89756 0.05652 0.0
C515 C 0.90004 0.84169 0.09768 0.0
O516 O 0.88984 0.85021 0.08769 0.0
C517 C 0.91319 0.93048 0.11454 0.0
C518 C 0.93416 0.93796 0.13202 0.0
C519 C 0.9203 0.9422 0.12789 0.0
N520 N 0.92244 0.91976 0.11166 0.0
N521 N 0.93498 0.92442 0.12164 0.0
C522 C 0.8981 0.92963 0.103 0.0
H523 H 0.8949 0.91849 0.09898 0.0
H524 H 0.89108 0.93473 0.12295 0.0
H525 H 0.89685 0.93537 0.07716 0.0
C526 C 0.90448 0.87226 0.17099 0.0
N527 N 0.91029 0.87698 0.14025 0.0
N528 N 0.91134 0.89082 0.14152 0.0
C529 C 0.90617 0.8953 0.17348 0.0
C530 C 0.9015 0.88368 0.19281 0.0
C531 C 0.90265 0.85701 0.18031 0.0
H532 H 0.91186 0.85087 0.17079 0.0
H533 H 0.89302 0.85295 0.16691 0.0
H534 H 0.90154 0.85548 0.20981 0.0
O535 O 0.93684 0.86924 0.09305 0.0
O536 O 0.9392 0.89249 0.09363 0.0
H537 H 0.91566 0.91554 0.18137 0.0
H538 H 0.9019 0.91152 0.21331 0.0
C539 C 0.90527 0.91039 0.18491 0.0
H540 H 0.89741 0.91583 0.16791 0.0
H541 H 0.94404 0.9182 0.12264 0.0
O542 O 0.91223 0.84673 0.10364 0.0
C543 C 0.94454 0.88019 0.09146 0.0
Co544 Co 0.61526 0.66893 0.85358 0.0
Co545 Co 0.64826 0.67258 0.85657 0.0
C546 C 0.63465 0.65725 0.79598 0.0
O547 O 0.62269 0.65982 0.81008 0.0
O548 O 0.64605 0.6615 0.81071 0.0
C549 C 0.59022 0.65197 0.8508 0.0
O550 O 0.59904 0.64206 0.84068 0.0
C551 C 0.67894 0.66705 0.87031 0.0
C552 C 0.68513 0.68792 0.89138 0.0
C553 C 0.69017 0.67446 0.88522 0.0
N554 N 0.66771 0.67575 0.86845 0.0
N555 N 0.67163 0.68824 0.88059 0.0
C556 C 0.67904 0.65225 0.85641 0.0
H557 H 0.66819 0.64871 0.84989 0.0
H558 H 0.68389 0.645 0.87626 0.0
H559 H 0.68557 0.65183 0.83162 0.0
C560 C 0.62033 0.65587 0.92424 0.0
N561 N 0.62506 0.66224 0.89426 0.0
N562 N 0.63891 0.66322 0.89564 0.0
C563 C 0.6434 0.65731 0.92675 0.0
C564 C 0.63176 0.65233 0.94551 0.0
C565 C 0.60507 0.65412 0.9336 0.0
H566 H 0.59897 0.66339 0.9243 0.0
H567 H 0.60093 0.64455 0.92014 0.0
H568 H 0.60358 0.65295 0.9631 0.0
O569 O 0.61696 0.68947 0.85052 0.0
O570 O 0.64017 0.69202 0.85147 0.0
H571 H 0.66366 0.66638 0.93702 0.0
H572 H 0.65974 0.65124 0.96475 0.0
C573 C 0.65851 0.6559 0.93759 0.0
H574 H 0.6639 0.64888 0.91823 0.0
H575 H 0.66492 0.6969 0.8828 0.0
O576 O 0.59492 0.66426 0.85728 0.0
C577 C 0.62783 0.69729 0.85002 0.0
Co578 Co 0.58537 0.36954 0.0953 0.0
Co579 Co 0.58046 0.40224 0.10249 0.0
C580 C 0.59867 0.38987 0.04418 0.0
O581 O 0.5965 0.37748 0.05589 0.0
O582 O 0.59297 0.40063 0.05876 0.0
C583 C 0.60114 0.34374 0.08922 0.0
O584 O 0.61102 0.352 0.07623 0.0
C585 C 0.58818 0.43105 0.12533 0.0
C586 C 0.56719 0.4408 0.13172 0.0
C587 C 0.58145 0.44327 0.13674 0.0
N588 N 0.5783 0.42172 0.11482 0.0
N589 N 0.5658 0.42772 0.11821 0.0
C590 C 0.6037 0.42838 0.12276 0.0
H591 H 0.60581 0.41701 0.11818 0.0
H592 H 0.60928 0.43198 0.14728 0.0
H593 H 0.60799 0.43447 0.09972 0.0
C594 C 0.5952 0.37304 0.16977 0.0
N595 N 0.59033 0.37848 0.13872 0.0
N596 N 0.58796 0.39207 0.14285 0.0
C597 C 0.59093 0.39557 0.17735 0.0
C598 C 0.59575 0.38368 0.19513 0.0
C599 C 0.59937 0.35795 0.17477 0.0
H600 H 0.59014 0.35106 0.16958 0.0
H601 H 0.60772 0.35527 0.15509 0.0
H602 H 0.60348 0.35585 0.2022 0.0
O603 O 0.56487 0.37171 0.08693 0.0
O604 O 0.56126 0.39474 0.09232 0.0
H605 H 0.578 0.41406 0.18262 0.0
H606 H 0.58595 0.40816 0.22407 0.0
C607 C 0.58761 0.40941 0.19464 0.0
H608 H 0.59663 0.41666 0.19079 0.0
H609 H 0.55627 0.4227 0.11254 0.0
O610 O 0.5894 0.34905 0.09858 0.0
C611 C 0.55662 0.3823 0.08702 0.0
Co612 Co 0.88496 0.33385 0.35565 0.0
Co613 Co 0.85207 0.32944 0.35365 0.0
C614 C 0.867 0.34612 0.29672 0.0
O615 O 0.87874 0.34359 0.31192 0.0
O616 O 0.85546 0.34142 0.30974 0.0
C617 C 0.91025 0.35036 0.35583 0.0
O618 O 0.90188 0.36007 0.34246 0.0
C619 C 0.82205 0.33634 0.36775 0.0
C620 C 0.81331 0.31496 0.37508 0.0
C621 C 0.80987 0.32911 0.37767 0.0
N622 N 0.83223 0.32683 0.36071 0.0
N623 N 0.82681 0.31409 0.36442 0.0
C624 C 0.82398 0.35189 0.36317 0.0
H625 H 0.83419 0.35526 0.37489 0.0
H626 H 0.81516 0.358 0.37495 0.0
H627 H 0.82449 0.35426 0.33392 0.0
C628 C 0.87816 0.34512 0.42745 0.0
N629 N 0.87412 0.3398 0.39548 0.0
N630 N 0.86039 0.33763 0.39577 0.0
C631 C 0.85537 0.34123 0.42861 0.0
C632 C 0.86641 0.34629 0.44921 0.0
C633 C 0.89303 0.3488 0.43707 0.0
H634 H 0.89992 0.3395 0.43271 0.0
H635 H 0.8967 0.35742 0.41928 0.0
H636 H 0.89402 0.35236 0.4654 0.0
O637 O 0.8833 0.31322 0.35015 0.0
O638 O 0.86012 0.31016 0.34753 0.0
H639 H 0.83681 0.32823 0.43018 0.0
H640 H 0.84085 0.33694 0.47203 0.0
C641 C 0.84086 0.33809 0.44227 0.0
H642 H 0.83376 0.34695 0.43548 0.0
H643 H 0.83251 0.30477 0.36132 0.0
O644 O 0.9052 0.33831 0.36341 0.0
C645 C 0.87261 0.30519 0.34733 0.0
Co646 Co 0.91594 0.63198 0.60209 0.0
Co647 Co 0.92152 0.59923 0.60046 0.0
C648 C 0.90317 0.61356 0.54547 0.0
O649 O 0.9051 0.62546 0.56035 0.0
O650 O 0.909 0.60239 0.55746 0.0
C651 C 0.89905 0.65703 0.60363 0.0
O652 O 0.88928 0.64846 0.59143 0.0
C653 C 0.91395 0.56977 0.61677 0.0
C654 C 0.935 0.5601 0.62251 0.0
C655 C 0.92075 0.5574 0.62704 0.0
N656 N 0.9238 0.57938 0.60782 0.0
N657 N 0.93633 0.57341 0.61054 0.0
C658 C 0.89842 0.57243 0.61447 0.0
H659 H 0.89477 0.57814 0.63874 0.0
H660 H 0.8925 0.56238 0.61219 0.0
H661 H 0.8961 0.57922 0.59086 0.0
C662 C 0.90637 0.62515 0.67546 0.0
N663 N 0.91112 0.62117 0.64287 0.0
N664 N 0.91407 0.6076 0.64339 0.0
C665 C 0.91179 0.60268 0.67708 0.0
C666 C 0.90656 0.61356 0.69797 0.0
C667 C 0.90202 0.63985 0.68495 0.0
H668 H 0.91097 0.64715 0.68025 0.0
H669 H 0.89318 0.64307 0.66729 0.0
H670 H 0.89853 0.64073 0.71335 0.0
O671 O 0.9366 0.63049 0.59356 0.0
O672 O 0.94049 0.6074 0.5921 0.0
H673 H 0.92611 0.58507 0.67595 0.0
H674 H 0.91981 0.5897 0.72012 0.0
C675 C 0.91683 0.58879 0.69129 0.0
H676 H 0.90825 0.58093 0.68958 0.0
H677 H 0.94584 0.57865 0.60605 0.0
O678 O 0.9113 0.6522 0.61013 0.0
C679 C 0.94498 0.62005 0.59051 0.0
Co680 Co 0.61941 0.33596 0.65027 0.0
Co681 Co 0.65216 0.33077 0.64606 0.0
C682 C 0.63947 0.34832 0.70461 0.0
O683 O 0.62723 0.3463 0.69153 0.0
O684 O 0.65042 0.34282 0.69038 0.0
C685 C 0.59413 0.35289 0.65077 0.0
O686 O 0.60269 0.3632 0.65968 0.0
C687 C 0.68244 0.33613 0.62949 0.0
C688 C 0.68907 0.31471 0.61349 0.0
C689 C 0.69375 0.3285 0.61559 0.0
N690 N 0.67155 0.32723 0.63448 0.0
N691 N 0.67571 0.31442 0.62546 0.0
C692 C 0.68211 0.35139 0.63964 0.0
H693 H 0.67106 0.35508 0.64259 0.0
H694 H 0.68774 0.35798 0.61966 0.0
H695 H 0.68756 0.35271 0.66588 0.0
C696 C 0.62425 0.34655 0.57677 0.0
N697 N 0.62907 0.34116 0.60793 0.0
N698 N 0.6428 0.33928 0.60569 0.0
C699 C 0.64712 0.34345 0.57263 0.0
C700 C 0.63552 0.34835 0.55361 0.0
C701 C 0.60898 0.34877 0.56817 0.0
H702 H 0.60265 0.33989 0.57884 0.0
H703 H 0.60535 0.35867 0.581 0.0
H704 H 0.60717 0.34953 0.53871 0.0
O705 O 0.62073 0.31543 0.65733 0.0
O706 O 0.64377 0.31175 0.65451 0.0
H707 H 0.66644 0.33223 0.56418 0.0
H708 H 0.66288 0.34548 0.53048 0.0
C709 C 0.66201 0.34288 0.55948 0.0
H710 H 0.66834 0.3507 0.5745 0.0
H711 H 0.66924 0.30554 0.62602 0.0
O712 O 0.5991 0.34059 0.64604 0.0
C713 C 0.63124 0.30712 0.65808 0.0
Co714 Co 0.91738 0.36811 0.89349 0.0
Co715 Co 0.92109 0.40111 0.89265 0.0
C716 C 0.90511 0.38665 0.95144 0.0
O717 O 0.90777 0.3748 0.93692 0.0
O718 O 0.90954 0.39814 0.93755 0.0
C719 C 0.90091 0.3428 0.89469 0.0
O720 O 0.89097 0.3514 0.90584 0.0
C721 C 0.91375 0.43106 0.87898 0.0
C722 C 0.93461 0.43953 0.86391 0.0
C723 C 0.92048 0.44307 0.86596 0.0
N724 N 0.92347 0.42085 0.8834 0.0
N725 N 0.93594 0.42612 0.87508 0.0
C726 C 0.89852 0.42934 0.88856 0.0
H727 H 0.89536 0.41811 0.88638 0.0
H728 H 0.89163 0.43605 0.87164 0.0
H729 H 0.89704 0.43263 0.91699 0.0
C730 C 0.90459 0.37384 0.82271 0.0
N731 N 0.91089 0.37829 0.85312 0.0
N732 N 0.91249 0.39208 0.85182 0.0
C733 C 0.90744 0.39674 0.81985 0.0
C734 C 0.90204 0.38537 0.80097 0.0
C735 C 0.90182 0.35873 0.81353 0.0
H736 H 0.911 0.35217 0.82125 0.0
H737 H 0.89243 0.35504 0.82861 0.0
H738 H 0.89981 0.35733 0.7843 0.0
O739 O 0.93796 0.37017 0.89819 0.0
O740 O 0.94058 0.3934 0.8988 0.0
H741 H 0.91798 0.41661 0.81419 0.0
H742 H 0.90611 0.41253 0.77781 0.0
C743 C 0.90775 0.41171 0.80728 0.0
H744 H 0.89911 0.41758 0.8205 0.0
H745 H 0.9453 0.42035 0.87533 0.0
O746 O 0.91311 0.34772 0.88807 0.0
C747 C 0.94579 0.38103 0.9 0.0
Co748 Co 0.88474 0.66488 0.14586 0.0
Co749 Co 0.85201 0.67 0.1394 0.0
C750 C 0.86425 0.65365 0.20074 0.0
O751 O 0.8766 0.6554 0.18807 0.0
O752 O 0.85341 0.65886 0.18527 0.0
C753 C 0.91009 0.64807 0.1507 0.0
O754 O 0.90152 0.63802 0.16128 0.0
C755 C 0.82164 0.66474 0.12247 0.0
C756 C 0.81528 0.68613 0.10549 0.0
C757 C 0.81041 0.67245 0.10853 0.0
N758 N 0.8327 0.67351 0.12677 0.0
N759 N 0.82869 0.6863 0.11706 0.0
C760 C 0.82168 0.64956 0.13329 0.0
H761 H 0.83261 0.64588 0.13848 0.0
H762 H 0.81666 0.64292 0.11236 0.0
H763 H 0.81541 0.64835 0.15833 0.0
C764 C 0.88027 0.65221 0.07438 0.0
N765 N 0.87533 0.65875 0.10393 0.0
N766 N 0.86162 0.66065 0.10068 0.0
C767 C 0.85748 0.65542 0.06848 0.0
C768 C 0.86913 0.64971 0.05124 0.0
C769 C 0.89552 0.6492 0.06734 0.0
H770 H 0.90204 0.65827 0.076 0.0
H771 H 0.89873 0.63976 0.08291 0.0
H772 H 0.89752 0.64719 0.03835 0.0
O773 O 0.88344 0.68554 0.15015 0.0
O774 O 0.86041 0.6891 0.14595 0.0
H775 H 0.83801 0.66621 0.05849 0.0
H776 H 0.84206 0.65274 0.0258 0.0
C777 C 0.84266 0.6556 0.05467 0.0
H778 H 0.83638 0.6478 0.06986 0.0
H779 H 0.83528 0.69509 0.11712 0.0
O780 O 0.90509 0.66016 0.14329 0.0
C781 C 0.8729 0.69382 0.14948 0.0
Co782 Co 0.58446 0.63394 0.39517 0.0
Co783 Co 0.57954 0.6011 0.39733 0.0
C784 C 0.59734 0.61553 0.45261 0.0
O785 O 0.59484 0.62732 0.43758 0.0
O786 O 0.59216 0.60408 0.44025 0.0
C787 C 0.60147 0.65908 0.39167 0.0
O788 O 0.61171 0.65063 0.4017 0.0
C789 C 0.5848 0.57059 0.38347 0.0
C790 C 0.56328 0.56415 0.36805 0.0
C791 C 0.57712 0.5595 0.36869 0.0
N792 N 0.57592 0.58141 0.38974 0.0
N793 N 0.56301 0.57723 0.38175 0.0
C794 C 0.60044 0.57139 0.38825 0.0
H795 H 0.60393 0.58253 0.39001 0.0
H796 H 0.60597 0.56589 0.36596 0.0
H797 H 0.60331 0.56598 0.41372 0.0
C798 C 0.59443 0.62719 0.32217 0.0
N799 N 0.58944 0.62315 0.35446 0.0
N800 N 0.58739 0.6094 0.35445 0.0
C801 C 0.59088 0.60435 0.32153 0.0
C802 C 0.59566 0.61543 0.30043 0.0
C803 C 0.59677 0.64221 0.31127 0.0
H804 H 0.58795 0.64884 0.32102 0.0
H805 H 0.60671 0.64605 0.32357 0.0
H806 H 0.59753 0.64334 0.28159 0.0
O807 O 0.56399 0.63276 0.40284 0.0
O808 O 0.56053 0.60967 0.40538 0.0
H809 H 0.57931 0.58498 0.31888 0.0
H810 H 0.59061 0.58789 0.28073 0.0
C811 C 0.5896 0.58927 0.31019 0.0
H812 H 0.59822 0.58316 0.32265 0.0
H813 H 0.55414 0.58371 0.38287 0.0
O814 O 0.58913 0.65412 0.38758 0.0
C815 C 0.5558 0.62223 0.40626 0.0
Co816 Co 0.38444 0.3356 0.14371 0.0
Co817 Co 0.3517 0.33006 0.14412 0.0
C818 C 0.36574 0.34785 0.20071 0.0
O819 O 0.37775 0.34589 0.18628 0.0
O820 O 0.3546 0.34233 0.18759 0.0
C821 C 0.40983 0.35228 0.14348 0.0
O822 O 0.4016 0.36206 0.15709 0.0
C823 C 0.32173 0.3364 0.12783 0.0
C824 C 0.31326 0.31483 0.12248 0.0
C825 C 0.3097 0.32889 0.11812 0.0
N826 N 0.33195 0.32713 0.1364 0.0
N827 N 0.32669 0.31428 0.13384 0.0
C828 C 0.32339 0.35206 0.1305 0.0
H829 H 0.3308 0.3547 0.15262 0.0
H830 H 0.32789 0.3563 0.10523 0.0
H831 H 0.31305 0.35719 0.13532 0.0
C832 C 0.37788 0.34578 0.07072 0.0
N833 N 0.37373 0.34079 0.10294 0.0
N834 N 0.36014 0.33789 0.10181 0.0
C835 C 0.35539 0.34048 0.06809 0.0
C836 C 0.36639 0.34583 0.04787 0.0
C837 C 0.39269 0.34989 0.06164 0.0
H838 H 0.39981 0.3408 0.0662 0.0
H839 H 0.39602 0.3586 0.07961 0.0
H840 H 0.3937 0.35347 0.03332 0.0
O841 O 0.38315 0.31489 0.15092 0.0
O842 O 0.36006 0.31115 0.15204 0.0
H843 H 0.33761 0.32635 0.06814 0.0
H844 H 0.34264 0.33271 0.02433 0.0
C845 C 0.34155 0.33562 0.05316 0.0
H846 H 0.33376 0.34428 0.05462 0.0
H847 H 0.33246 0.30508 0.13825 0.0
O848 O 0.40466 0.34027 0.13599 0.0
C849 C 0.37266 0.30656 0.15356 0.0
Co850 Co 0.41436 0.63283 0.89186 0.0
Co851 Co 0.41958 0.60009 0.89222 0.0
C852 C 0.40162 0.61394 0.94801 0.0
O853 O 0.40351 0.62589 0.9333 0.0
O854 O 0.40744 0.60279 0.93585 0.0
C855 C 0.39743 0.65799 0.88929 0.0
O856 O 0.38715 0.64944 0.89848 0.0
C857 C 0.41322 0.56989 0.88051 0.0
C858 C 0.43427 0.56189 0.8654 0.0
C859 C 0.42026 0.55796 0.86825 0.0
N860 N 0.42263 0.58043 0.88383 0.0
N861 N 0.43522 0.57547 0.87545 0.0
C862 C 0.39796 0.57124 0.89023 0.0
H863 H 0.39455 0.5824 0.88841 0.0
H864 H 0.39122 0.5645 0.873 0.0
H865 H 0.39655 0.56772 0.91851 0.0
C866 C 0.40448 0.62658 0.81843 0.0
N867 N 0.40955 0.62239 0.85051 0.0
N868 N 0.41135 0.60862 0.85027 0.0
C869 C 0.40742 0.60364 0.81765 0.0
C870 C 0.40281 0.61485 0.7967 0.0
C871 C 0.40242 0.64166 0.80779 0.0
H872 H 0.4112 0.64817 0.81836 0.0
H873 H 0.39239 0.64556 0.81945 0.0
H874 H 0.402 0.64291 0.77809 0.0
O875 O 0.43484 0.6315 0.90032 0.0
O876 O 0.43866 0.60844 0.89989 0.0
H877 H 0.41827 0.58392 0.81274 0.0
H878 H 0.40525 0.58685 0.77809 0.0
C879 C 0.40774 0.58844 0.80693 0.0
H880 H 0.3997 0.58267 0.8226 0.0
H881 H 0.4444 0.58153 0.875 0.0
O882 O 0.40979 0.65306 0.88518 0.0
C883 C 0.4432 0.62104 0.90235 0.0
Co884 Co 0.11767 0.66616 0.6414 0.0
Co885 Co 0.15038 0.672 0.64166 0.0
C886 C 0.13652 0.65423 0.69846 0.0
O887 O 0.12447 0.65602 0.68411 0.0
O888 O 0.14758 0.65984 0.68521 0.0
C889 C 0.09242 0.64932 0.64135 0.0
O890 O 0.10086 0.63953 0.65405 0.0
C891 C 0.18038 0.66572 0.62593 0.0
C892 C 0.18882 0.68729 0.62028 0.0
C893 C 0.19242 0.67323 0.61636 0.0
N894 N 0.17011 0.675 0.63404 0.0
N895 N 0.17535 0.68785 0.63131 0.0
C896 C 0.17876 0.65007 0.62889 0.0
H897 H 0.17131 0.64746 0.65094 0.0
H898 H 0.17435 0.64572 0.60363 0.0
H899 H 0.18912 0.64499 0.63398 0.0
C900 C 0.12439 0.65561 0.56874 0.0
N901 N 0.12842 0.66092 0.60072 0.0
N902 N 0.14198 0.66397 0.59958 0.0
C903 C 0.14682 0.66116 0.5661 0.0
C904 C 0.13593 0.6555 0.54603 0.0
C905 C 0.1097 0.65098 0.56001 0.0
H906 H 0.10232 0.65991 0.56401 0.0
H907 H 0.10663 0.64237 0.57859 0.0
H908 H 0.10876 0.64706 0.53198 0.0
O909 O 0.11886 0.68689 0.64825 0.0
O910 O 0.14191 0.69085 0.64928 0.0
H911 H 0.16456 0.67535 0.5659 0.0
H912 H 0.15952 0.66888 0.52222 0.0
C913 C 0.16065 0.66603 0.55109 0.0
H914 H 0.16846 0.65739 0.55259 0.0
H915 H 0.16953 0.69704 0.6354 0.0
O916 O 0.09743 0.66142 0.63407 0.0
C917 C 0.12927 0.69531 0.65075 0.0
Co918 Co 0.08573 0.36869 0.40633 0.0
Co919 Co 0.07998 0.40128 0.39853 0.0
C920 C 0.09864 0.38968 0.45665 0.0
O921 O 0.09664 0.37717 0.44549 0.0
O922 O 0.09276 0.40028 0.44174 0.0
C923 C 0.1023 0.34327 0.41219 0.0
O924 O 0.11207 0.35178 0.4247 0.0
C925 C 0.08564 0.43044 0.37333 0.0
C926 C 0.06385 0.43764 0.3634 0.0
C927 C 0.07783 0.44138 0.35831 0.0
N928 N 0.07662 0.42055 0.38554 0.0
N929 N 0.06364 0.42517 0.38049 0.0
C930 C 0.10131 0.42864 0.3727 0.0
H931 H 0.10419 0.41742 0.37694 0.0
H932 H 0.10577 0.43253 0.34692 0.0
H933 H 0.10597 0.43499 0.39479 0.0
C934 C 0.0954 0.37225 0.33175 0.0
N935 N 0.09038 0.37766 0.36266 0.0
N936 N 0.08753 0.39114 0.35813 0.0
C937 C 0.09023 0.39454 0.32341 0.0
C938 C 0.0955 0.38277 0.30605 0.0
C939 C 0.10013 0.35731 0.32713 0.0
H940 H 0.0912 0.35009 0.33273 0.0
H941 H 0.10866 0.35506 0.34668 0.0
H942 H 0.10422 0.35523 0.29968 0.0
O943 O 0.06513 0.37017 0.41467 0.0
O944 O 0.06122 0.39314 0.40981 0.0
H945 H 0.07643 0.41239 0.31799 0.0
H946 H 0.08388 0.40622 0.27628 0.0
C947 C 0.08602 0.40799 0.30533 0.0
H948 H 0.09477 0.41567 0.30723 0.0
H949 H 0.05459 0.41937 0.38645 0.0
O950 O 0.09037 0.3483 0.40335 0.0
C951 C 0.05675 0.38065 0.41496 0.0
Co952 Co 0.38388 0.66792 0.34569 0.0
Co953 Co 0.35104 0.67237 0.35136 0.0
C954 C 0.36355 0.65586 0.29115 0.0
O955 O 0.37584 0.65796 0.30387 0.0
O956 O 0.35258 0.66096 0.30622 0.0
C957 C 0.40899 0.65089 0.34336 0.0
O958 O 0.4002 0.64076 0.33457 0.0
C959 C 0.3206 0.66698 0.36708 0.0
C960 C 0.31438 0.68803 0.38685 0.0
C961 C 0.30941 0.67447 0.38192 0.0
N962 N 0.33173 0.67573 0.36407 0.0
N963 N 0.32781 0.68834 0.37542 0.0
C964 C 0.32054 0.65202 0.3543 0.0
H965 H 0.33142 0.64843 0.34824 0.0
H966 H 0.31565 0.64499 0.37457 0.0
H967 H 0.3141 0.65131 0.32942 0.0
C968 C 0.3795 0.65601 0.41813 0.0
N969 N 0.37452 0.66208 0.38797 0.0
N970 N 0.36073 0.66338 0.39041 0.0
C971 C 0.35652 0.65802 0.42239 0.0
C972 C 0.36828 0.65304 0.44066 0.0
C973 C 0.39482 0.65394 0.42635 0.0
H974 H 0.40103 0.66297 0.41602 0.0
H975 H 0.39854 0.64415 0.41312 0.0
H976 H 0.39666 0.65299 0.45577 0.0
O977 O 0.38233 0.68852 0.34025 0.0
O978 O 0.3592 0.69153 0.34385 0.0
H979 H 0.33652 0.66762 0.43308 0.0
H980 H 0.34051 0.65293 0.46225 0.0
C981 C 0.34151 0.65707 0.4345 0.0
H982 H 0.33579 0.64981 0.41642 0.0
H983 H 0.33447 0.69707 0.37663 0.0
O984 O 0.40424 0.66324 0.3487 0.0
C985 C 0.37158 0.69654 0.34028 0.0
Co986 Co 0.08675 0.63331 0.10016 0.0
Co987 Co 0.08186 0.60047 0.10338 0.0
C988 C 0.09838 0.61375 0.04388 0.0
O989 O 0.09662 0.62589 0.05769 0.0
O990 O 0.09304 0.60269 0.05787 0.0
C991 C 0.10345 0.65868 0.09812 0.0
O992 O 0.11353 0.65012 0.08758 0.0
C993 C 0.08832 0.5703 0.11685 0.0
C994 C 0.06741 0.56266 0.13432 0.0
C995 C 0.08132 0.55853 0.13028 0.0
N996 N 0.07898 0.58092 0.11391 0.0
N997 N 0.06647 0.57618 0.12382 0.0
C998 C 0.1034 0.57134 0.10535 0.0
H999 H 0.10673 0.58254 0.10385 0.0
H1000 H 0.11043 0.56543 0.12376 0.0
H1001 H 0.10447 0.5666 0.07816 0.0
C1002 C 0.09936 0.62786 0.1713 0.0
N1003 N 0.09287 0.62335 0.14124 0.0
N1004 N 0.09104 0.60959 0.14312 0.0
C1005 C 0.09624 0.60499 0.17496 0.0
C1006 C 0.10188 0.6164 0.19333 0.0
C1007 C 0.10234 0.64299 0.17984 0.0
H1008 H 0.09329 0.64964 0.17161 0.0
H1009 H 0.11184 0.64642 0.16482 0.0
H1010 H 0.10426 0.64456 0.20905 0.0
O1011 O 0.06607 0.63172 0.09529 0.0
O1012 O 0.06264 0.60863 0.09771 0.0
H1013 H 0.08546 0.58538 0.18287 0.0
H1014 H 0.09867 0.58908 0.21649 0.0
C1015 C 0.09602 0.59002 0.18753 0.0
H1016 H 0.10397 0.58394 0.17226 0.0
H1017 H 0.05736 0.58233 0.12477 0.0
O1018 O 0.09128 0.65369 0.10462 0.0
C1019 C 0.05785 0.62112 0.09514 0.0
Co1020 Co 0.11826 0.33575 0.85196 0.0
Co1021 Co 0.15102 0.33038 0.85479 0.0
C1022 C 0.13803 0.34758 0.79615 0.0
O1023 O 0.12587 0.34568 0.80978 0.0
O1024 O 0.14905 0.34215 0.8102 0.0
C1025 C 0.09363 0.35341 0.85173 0.0
O1026 O 0.10267 0.3633 0.84291 0.0
C1027 C 0.18138 0.33588 0.86927 0.0
C1028 C 0.1884 0.31451 0.88457 0.0
C1029 C 0.19292 0.32834 0.88212 0.0
N1030 N 0.1705 0.32689 0.86515 0.0
N1031 N 0.17489 0.31411 0.87373 0.0
C1032 C 0.18079 0.35116 0.85936 0.0
H1033 H 0.16968 0.35479 0.85773 0.0
H1034 H 0.18675 0.35772 0.87876 0.0
H1035 H 0.18575 0.35255 0.83252 0.0
C1036 C 0.12377 0.34669 0.92486 0.0
N1037 N 0.12832 0.34118 0.89357 0.0
N1038 N 0.14206 0.33921 0.89521 0.0
C1039 C 0.14664 0.34341 0.92799 0.0
C1040 C 0.13522 0.34845 0.94747 0.0
C1041 C 0.10858 0.34892 0.93423 0.0
H1042 H 0.10213 0.34012 0.92363 0.0
H1043 H 0.10489 0.3589 0.92183 0.0
H1044 H 0.10699 0.34959 0.96378 0.0
O1045 O 0.11933 0.31511 0.84609 0.0
O1046 O 0.1424 0.31138 0.84791 0.0
H1047 H 0.16591 0.33197 0.93544 0.0
H1048 H 0.1627 0.34515 0.96954 0.0
C1049 C 0.16161 0.34265 0.94055 0.0
H1050 H 0.16793 0.35046 0.92547 0.0
H1051 H 0.1685 0.30517 0.8736 0.0
O1052 O 0.09804 0.3409 0.85657 0.0
C1053 C 0.12982 0.30677 0.84535 0.0
Co1054 Co 0.41792 0.36752 0.5962 0.0
Co1055 Co 0.42332 0.40017 0.60348 0.0
C1056 C 0.40562 0.38835 0.544 0.0
O1057 O 0.40755 0.37592 0.55583 0.0
O1058 O 0.41121 0.39908 0.55907 0.0
C1059 C 0.40101 0.34235 0.59183 0.0
O1060 O 0.39093 0.35111 0.58242 0.0
C1061 C 0.4181 0.42999 0.62501 0.0
C1062 C 0.43967 0.43591 0.64142 0.0
C1063 C 0.42583 0.44057 0.64193 0.0
N1064 N 0.42696 0.41941 0.61636 0.0
N1065 N 0.43988 0.42328 0.62516 0.0
C1066 C 0.40245 0.42929 0.62025 0.0
H1067 H 0.39902 0.41827 0.61546 0.0
H1068 H 0.39696 0.43373 0.64407 0.0
H1069 H 0.39947 0.43575 0.59651 0.0
C1070 C 0.40665 0.37142 0.66939 0.0
N1071 N 0.4126 0.3766 0.63929 0.0
N1072 N 0.41497 0.3902 0.6434 0.0
C1073 C 0.41088 0.39394 0.67701 0.0
C1074 C 0.4052 0.38223 0.694 0.0
C1075 C 0.40316 0.35621 0.67541 0.0
H1076 H 0.41199 0.34951 0.66602 0.0
H1077 H 0.39357 0.35349 0.65986 0.0
H1078 H 0.4012 0.35393 0.70429 0.0
O1079 O 0.43855 0.3689 0.58964 0.0
O1080 O 0.44223 0.3919 0.59411 0.0
H1081 H 0.42264 0.41301 0.68471 0.0
H1082 H 0.41212 0.40803 0.72286 0.0
C1083 C 0.41249 0.40831 0.69307 0.0
H1084 H 0.40366 0.41503 0.68399 0.0
H1085 H 0.44875 0.41687 0.62244 0.0
O1086 O 0.41324 0.34716 0.59842 0.0
C1087 C 0.44686 0.37942 0.58973 0.0
C1088 C 0.10287 0.10502 0.01544 0.0
C1089 C 0.10776 0.11202 0.98465 0.0
C1090 C 0.11001 0.10652 0.04825 0.0
C1091 C 0.1336 0.13248 0.09194 0.0
H1092 H 0.13086 0.10668 0.17255 0.0
C1093 C 0.14992 0.14932 0.23493 0.0
C1094 C 0.13885 0.14763 0.2597 0.0
C1095 C 0.1495 0.1424 0.2016 0.0
C1096 C 0.13181 0.11394 0.15015 0.0
H1097 H 0.1245 0.12488 0.96266 0.0
H1098 H 0.13746 0.12678 0.01905 0.0
H1099 H 0.12426 0.09869 0.11226 0.0
H1100 H 0.11921 0.13664 0.27012 0.0
H1101 H 0.11857 0.12456 0.2124 0.0
H1102 H 0.14088 0.14777 0.12991 0.0
C1103 C 0.12781 0.1207 0.0187 0.0
C1104 C 0.12794 0.1094 0.11565 0.0
C1105 C 0.12049 0.1195 0.98627 0.0
C1106 C 0.12783 0.13827 0.25144 0.0
C1107 C 0.12752 0.13123 0.2185 0.0
C1108 C 0.13762 0.13693 0.12625 0.0
C1109 C 0.12231 0.11483 0.05054 0.0
C1110 C 0.1284 0.11875 0.08623 0.0
C1111 C 0.13814 0.1335 0.19284 0.0
C1112 C 0.13638 0.12785 0.15588 0.0
H1113 H 0.09299 0.0993 0.01478 0.0
H1114 H 0.10536 0.10191 0.07212 0.0
H1115 H 0.13385 0.14014 0.07033 0.0
H1116 H 0.15856 0.15644 0.24062 0.0
H1117 H 0.15784 0.1443 0.18229 0.0
C1118 C 0.10622 0.90034 0.48862 0.0
C1119 C 0.10514 0.88806 0.50961 0.0
C1120 C 0.11347 0.90009 0.45562 0.0
C1121 C 0.1372 0.87727 0.39913 0.0
H1122 H 0.1164 0.89349 0.31955 0.0
C1123 C 0.12229 0.86183 0.24612 0.0
C1124 C 0.13517 0.85662 0.23296 0.0
C1125 C 0.12169 0.86934 0.27829 0.0
C1126 C 0.12237 0.88889 0.34146 0.0
H1127 H 0.11155 0.86611 0.51321 0.0
H1128 H 0.12365 0.8656 0.45627 0.0
H1129 H 0.11006 0.89973 0.38091 0.0
H1130 H 0.15768 0.85575 0.24287 0.0
H1131 H 0.15665 0.86907 0.29939 0.0
H1132 H 0.14865 0.86546 0.35982 0.0
C1133 C 0.11918 0.87552 0.46506 0.0
C1134 C 0.11887 0.89266 0.37675 0.0
C1135 C 0.11201 0.87577 0.49773 0.0
C1136 C 0.14757 0.85953 0.25236 0.0
C1137 C 0.14696 0.86714 0.28478 0.0
C1138 C 0.14056 0.87335 0.36387 0.0
C1139 C 0.11982 0.88757 0.44315 0.0
C1140 C 0.12578 0.88637 0.40611 0.0
C1141 C 0.13396 0.87199 0.29835 0.0
C1142 C 0.13273 0.87859 0.33467 0.0
H1143 H 0.10113 0.91 0.49711 0.0
H1144 H 0.11385 0.90961 0.43958 0.0
H1145 H 0.14304 0.87253 0.42107 0.0
H1146 H 0.11249 0.85986 0.23201 0.0
H1147 H 0.11143 0.87256 0.28808 0.0
C1148 C 0.37306 0.86504 0.75177 0.0
C1149 C 0.36267 0.85501 0.76022 0.0
C1150 C 0.3733 0.87148 0.71803 0.0
C1151 C 0.36545 0.86298 0.62601 0.0
H1152 H 0.37553 0.9019 0.60733 0.0
C1153 C 0.38282 0.87918 0.4848 0.0
C1154 C 0.39456 0.88812 0.48274 0.0
C1155 C 0.37545 0.87763 0.51707 0.0
C1156 C 0.3728 0.89098 0.61205 0.0
H1157 H 0.34397 0.84437 0.74068 0.0
H1158 H 0.34462 0.85544 0.68091 0.0
H1159 H 0.36859 0.89473 0.66804 0.0
H1160 H 0.40747 0.903 0.51205 0.0
H1161 H 0.39509 0.89982 0.56917 0.0
H1162 H 0.37056 0.85884 0.57119 0.0
C1163 C 0.35249 0.85835 0.70071 0.0
C1164 C 0.36872 0.88692 0.64676 0.0
C1165 C 0.35209 0.85206 0.73485 0.0
C1166 C 0.3984 0.89608 0.51301 0.0
C1167 C 0.39123 0.89428 0.54568 0.0
C1168 C 0.36972 0.86697 0.59153 0.0
C1169 C 0.36329 0.86789 0.69176 0.0
C1170 C 0.36528 0.87281 0.6542 0.0
C1171 C 0.37991 0.88468 0.5484 0.0
C1172 C 0.37374 0.88097 0.58416 0.0
H1173 H 0.38129 0.8676 0.77093 0.0
H1174 H 0.38182 0.87868 0.71182 0.0
H1175 H 0.3631 0.85198 0.63108 0.0
H1176 H 0.37954 0.87307 0.4616 0.0
H1177 H 0.36653 0.87052 0.51766 0.0
C1178 C 0.35368 0.14952 0.76082 0.0
C1179 C 0.3642 0.14673 0.73517 0.0
C1180 C 0.3543 0.14323 0.79494 0.0
C1181 C 0.37129 0.11488 0.84836 0.0
H1182 H 0.37184 0.14269 0.92471 0.0
C1183 C 0.40043 0.10626 0.98335 0.0
C1184 C 0.396 0.11391 0.01361 0.0
C1185 C 0.39347 0.10792 0.95031 0.0
C1186 C 0.37138 0.13463 0.90411 0.0
H1187 H 0.38298 0.13441 0.72409 0.0
H1188 H 0.38394 0.1234 0.78319 0.0
H1189 H 0.36447 0.14955 0.86474 0.0
H1190 H 0.38017 0.1282 0.03432 0.0
H1191 H 0.36756 0.13048 0.97759 0.0
H1192 H 0.37841 0.09997 0.88765 0.0
C1193 C 0.37528 0.13046 0.77719 0.0
C1194 C 0.36716 0.13862 0.86959 0.0
C1195 C 0.37479 0.13688 0.74343 0.0
C1196 C 0.3839 0.12234 0.01114 0.0
C1197 C 0.37675 0.12374 0.97851 0.0
C1198 C 0.37535 0.11081 0.8831 0.0
C1199 C 0.36529 0.13387 0.80366 0.0
C1200 C 0.36741 0.1289 0.84115 0.0
C1201 C 0.38179 0.11706 0.94724 0.0
C1202 C 0.37579 0.12073 0.91128 0.0
H1203 H 0.3454 0.15705 0.75517 0.0
H1204 H 0.34643 0.14599 0.81486 0.0
H1205 H 0.37149 0.10714 0.82692 0.0
H1206 H 0.40979 0.09975 0.98462 0.0
H1207 H 0.39775 0.10267 0.92687 0.0
C1208 C 0.87688 0.86044 0.74552 0.0
C1209 C 0.86415 0.85464 0.73303 0.0
C1210 C 0.8774 0.86791 0.77776 0.0
C1211 C 0.85922 0.8704 0.86445 0.0
H1212 H 0.88838 0.89831 0.88095 0.0
C1213 C 0.89278 0.89855 0.98876 0.0
C1214 C 0.89484 0.88622 0.00912 0.0
C1215 C 0.88542 0.89802 0.95596 0.0
C1216 C 0.87995 0.89079 0.87694 0.0
H1217 H 0.84179 0.85275 0.74405 0.0
H1218 H 0.84267 0.86598 0.80072 0.0
H1219 H 0.88178 0.89217 0.81964 0.0
H1220 H 0.89017 0.86382 0.01164 0.0
H1221 H 0.87783 0.86288 0.95499 0.0
H1222 H 0.85744 0.86896 0.92174 0.0
C1223 C 0.85231 0.86454 0.78553 0.0
C1224 C 0.87629 0.8871 0.84169 0.0
C1225 C 0.85178 0.85699 0.75303 0.0
C1226 C 0.88891 0.87354 0.99669 0.0
C1227 C 0.88161 0.87302 0.96421 0.0
C1228 C 0.86275 0.87421 0.89968 0.0
C1229 C 0.86519 0.86991 0.79853 0.0
C1230 C 0.86643 0.87632 0.83505 0.0
C1231 C 0.87992 0.88518 0.94307 0.0
C1232 C 0.8737 0.88388 0.90637 0.0
H1233 H 0.88664 0.85894 0.73085 0.0
H1234 H 0.88757 0.87159 0.78708 0.0
H1235 H 0.85154 0.8621 0.86049 0.0
H1236 H 0.89713 0.90851 0.99768 0.0
H1237 H 0.88422 0.90761 0.94046 0.0
C1238 C 0.85397 0.1467 0.73452 0.0
C1239 C 0.86505 0.14532 0.75937 0.0
C1240 C 0.85451 0.13963 0.7014 0.0
C1241 C 0.87298 0.11135 0.65065 0.0
H1242 H 0.8697 0.13701 0.56997 0.0
C1243 C 0.90193 0.10304 0.51558 0.0
C1244 C 0.89661 0.10964 0.48468 0.0
C1245 C 0.8948 0.10433 0.54849 0.0
C1246 C 0.87032 0.1295 0.59185 0.0
H1247 H 0.88485 0.13466 0.77016 0.0
H1248 H 0.88572 0.12234 0.71284 0.0
H1249 H 0.8626 0.14471 0.62944 0.0
H1250 H 0.87921 0.1216 0.46266 0.0
H1251 H 0.86633 0.12312 0.51925 0.0
H1252 H 0.88102 0.0962 0.61311 0.0
C1253 C 0.87665 0.12889 0.71869 0.0
C1254 C 0.86624 0.13398 0.6261 0.0
C1255 C 0.87621 0.13607 0.75143 0.0
C1256 C 0.88353 0.11648 0.48632 0.0
C1257 C 0.87625 0.11748 0.51886 0.0
C1258 C 0.87693 0.10678 0.61622 0.0
C1259 C 0.86602 0.13088 0.69289 0.0
C1260 C 0.86791 0.12511 0.65603 0.0
C1261 C 0.88213 0.11207 0.55079 0.0
C1262 C 0.87602 0.11594 0.58649 0.0
H1263 H 0.84522 0.15373 0.73994 0.0
H1264 H 0.84613 0.1413 0.68204 0.0
H1265 H 0.87426 0.10424 0.67324 0.0
H1266 H 0.9121 0.09785 0.51493 0.0
H1267 H 0.89974 0.10008 0.57242 0.0
C1268 C 0.63022 0.13842 0.24432 0.0
C1269 C 0.64027 0.14877 0.23579 0.0
C1270 C 0.63013 0.13208 0.27819 0.0
C1271 C 0.6374 0.14127 0.37003 0.0
H1272 H 0.62826 0.10218 0.38966 0.0
C1273 C 0.61958 0.1253 0.51107 0.0
C1274 C 0.60804 0.11608 0.51293 0.0
C1275 C 0.6271 0.12689 0.47906 0.0
C1276 C 0.63072 0.11315 0.38468 0.0
H1277 H 0.65857 0.16009 0.25527 0.0
H1278 H 0.65818 0.14921 0.3153 0.0
H1279 H 0.63536 0.10923 0.32899 0.0
H1280 H 0.59569 0.10076 0.48352 0.0
H1281 H 0.60835 0.104 0.42683 0.0
H1282 H 0.63186 0.14554 0.42452 0.0
C1283 C 0.65046 0.14596 0.29547 0.0
C1284 C 0.6349 0.11715 0.34999 0.0
C1285 C 0.65071 0.15214 0.26118 0.0
C1286 C 0.60459 0.1079 0.48273 0.0
C1287 C 0.61192 0.10974 0.45031 0.0
C1288 C 0.63304 0.13734 0.40449 0.0
C1289 C 0.63995 0.1361 0.30451 0.0
C1290 C 0.63799 0.13131 0.34218 0.0
C1291 C 0.62302 0.11959 0.44777 0.0
C1292 C 0.62934 0.12327 0.41217 0.0
H1293 H 0.62211 0.13553 0.22514 0.0
H1294 H 0.62183 0.12463 0.28446 0.0
H1295 H 0.63947 0.1523 0.36467 0.0
H1296 H 0.62257 0.13158 0.53422 0.0
H1297 H 0.63585 0.13421 0.47862 0.0
C1298 C 0.62675 0.86693 0.25334 0.0
C1299 C 0.63764 0.85731 0.26085 0.0
C1300 C 0.62635 0.87414 0.22064 0.0
C1301 C 0.6362 0.86868 0.12761 0.0
H1302 H 0.62192 0.90664 0.11471 0.0
C1303 C 0.61904 0.88649 0.9879 0.0
C1304 C 0.60604 0.89349 0.98627 0.0
C1305 C 0.62629 0.88535 0.02046 0.0
C1306 C 0.62587 0.89601 0.11781 0.0
H1307 H 0.65709 0.8483 0.24072 0.0
H1308 H 0.65628 0.86082 0.18293 0.0
H1309 H 0.6288 0.89857 0.17474 0.0
H1310 H 0.59068 0.9054 0.0166 0.0
H1311 H 0.60301 0.90295 0.07413 0.0
H1312 H 0.63253 0.86566 0.07155 0.0
C1313 C 0.64806 0.86274 0.20258 0.0
C1314 C 0.62988 0.89142 0.15217 0.0
C1315 C 0.64856 0.85562 0.23566 0.0
C1316 C 0.60079 0.9001 0.01724 0.0
C1317 C 0.6079 0.89868 0.05016 0.0
C1318 C 0.63208 0.87319 0.09342 0.0
C1319 C 0.63676 0.87182 0.19443 0.0
C1320 C 0.63479 0.87759 0.15755 0.0
C1321 C 0.62048 0.89079 0.05242 0.0
C1322 C 0.62657 0.88682 0.0881 0.0
H1323 H 0.61824 0.86856 0.27234 0.0
H1324 H 0.61744 0.88094 0.21512 0.0
H1325 H 0.6397 0.85789 0.13091 0.0
H1326 H 0.6233 0.88135 0.96421 0.0
H1327 H 0.63614 0.87959 0.02083 0.0
C1328 C 0.60775 0.6035 0.50723 0.0
C1329 C 0.60615 0.61557 0.48565 0.0
C1330 C 0.61505 0.60428 0.54006 0.0
C1331 C 0.6378 0.62839 0.59565 0.0
H1332 H 0.61756 0.61174 0.67558 0.0
C1333 C 0.62212 0.64383 0.74796 0.0
C1334 C 0.63488 0.64902 0.76199 0.0
C1335 C 0.62182 0.63643 0.71564 0.0
C1336 C 0.62339 0.61644 0.65356 0.0
H1337 H 0.6117 0.63771 0.4808 0.0
H1338 H 0.6239 0.63912 0.53761 0.0
H1339 H 0.61154 0.60497 0.61441 0.0
H1340 H 0.65745 0.65009 0.75323 0.0
H1341 H 0.65692 0.63702 0.69618 0.0
H1342 H 0.64879 0.64077 0.63481 0.0
C1343 C 0.6198 0.62897 0.52935 0.0
C1344 C 0.62007 0.61239 0.61839 0.0
C1345 C 0.61258 0.6282 0.49677 0.0
C1346 C 0.64743 0.64631 0.74308 0.0
C1347 C 0.64712 0.63884 0.71041 0.0
C1348 C 0.641 0.63257 0.63085 0.0
C1349 C 0.62091 0.61712 0.55187 0.0
C1350 C 0.62677 0.61881 0.58889 0.0
C1351 C 0.63426 0.63389 0.69624 0.0
C1352 C 0.63335 0.62713 0.6601 0.0
H1353 H 0.60303 0.59358 0.49932 0.0
H1354 H 0.61584 0.59489 0.55654 0.0
H1355 H 0.64347 0.63327 0.57361 0.0
H1356 H 0.6122 0.64565 0.76166 0.0
H1357 H 0.61167 0.63312 0.70528 0.0
C1358 C 0.65131 0.35464 0.76303 0.0
C1359 C 0.64057 0.35694 0.73766 0.0
C1360 C 0.65087 0.36141 0.79658 0.0
C1361 C 0.63355 0.39013 0.84843 0.0
H1362 H 0.63396 0.36317 0.92674 0.0
C1363 C 0.60344 0.39865 0.98185 0.0
C1364 C 0.60792 0.39133 0.01258 0.0
C1365 C 0.61082 0.39721 0.94934 0.0
C1366 C 0.63415 0.37102 0.90559 0.0
H1367 H 0.62161 0.36894 0.72629 0.0
H1368 H 0.62095 0.38078 0.78432 0.0
H1369 H 0.64146 0.35588 0.86726 0.0
H1370 H 0.62418 0.37791 0.03479 0.0
H1371 H 0.63752 0.37606 0.97899 0.0
H1372 H 0.62594 0.40522 0.88667 0.0
C1373 C 0.62966 0.37374 0.7786 0.0
C1374 C 0.63846 0.36678 0.87132 0.0
C1375 C 0.62997 0.36684 0.74545 0.0
C1376 C 0.62047 0.38355 0.01123 0.0
C1377 C 0.62801 0.38238 0.97913 0.0
C1378 C 0.62939 0.39445 0.88289 0.0
C1379 C 0.63984 0.37078 0.80496 0.0
C1380 C 0.63783 0.37615 0.84216 0.0
C1381 C 0.62293 0.38861 0.94729 0.0
C1382 C 0.62925 0.38483 0.91175 0.0
H1383 H 0.6596 0.34708 0.75772 0.0
H1384 H 0.6589 0.35899 0.81638 0.0
H1385 H 0.63307 0.39762 0.82644 0.0
H1386 H 0.5937 0.40462 0.98226 0.0
H1387 H 0.60649 0.4021 0.92544 0.0
C1388 C 0.89079 0.37396 0.99745 0.0
C1389 C 0.89681 0.38664 0.98533 0.0
C1390 C 0.88381 0.37329 0.03037 0.0
C1391 C 0.86556 0.37431 0.09612 0.0
H1392 H 0.88556 0.39138 0.17591 0.0
C1393 C 0.8548 0.35721 0.2432 0.0
C1394 C 0.86714 0.35458 0.26308 0.0
C1395 C 0.85545 0.36462 0.2105 0.0
C1396 C 0.87981 0.38656 0.15394 0.0
H1397 H 0.89962 0.40878 -0.00219 0.0
H1398 H 0.88728 0.40762 0.0558 0.0
H1399 H 0.89186 0.39773 0.11453 0.0
H1400 H 0.88977 0.35813 0.26459 0.0
H1401 H 0.89091 0.37053 0.20802 0.0
H1402 H 0.85434 0.36226 0.13541 0.0
C1403 C 0.88814 0.39815 0.03971 0.0
C1404 C 0.88329 0.39036 0.11866 0.0
C1405 C 0.89518 0.39883 0.00647 0.0
C1406 C 0.88002 0.35988 0.25009 0.0
C1407 C 0.88066 0.3672 0.21765 0.0
C1408 C 0.86219 0.37039 0.13138 0.0
C1409 C 0.88255 0.38529 0.05227 0.0
C1410 C 0.87666 0.3838 0.08927 0.0
C1411 C 0.86844 0.36956 0.19714 0.0
C1412 C 0.86972 0.37599 0.16066 0.0
H1413 H 0.89173 0.36435 0.98189 0.0
H1414 H 0.87993 0.36314 0.03928 0.0
H1415 H 0.85997 0.36932 0.07412 0.0
H1416 H 0.84469 0.35336 0.25254 0.0
H1417 H 0.84581 0.36633 0.1955 0.0
C1418 C 0.87308 0.63546 0.24341 0.0
C1419 C 0.86288 0.64565 0.23469 0.0
C1420 C 0.8732 0.62912 0.27728 0.0
C1421 C 0.86533 0.63803 0.36915 0.0
H1422 H 0.8752 0.5991 0.38855 0.0
C1423 C 0.88246 0.62205 0.51077 0.0
C1424 C 0.89421 0.61313 0.51303 0.0
C1425 C 0.87513 0.62354 0.47842 0.0
C1426 C 0.87252 0.61002 0.38363 0.0
H1427 H 0.84436 0.65667 0.25389 0.0
H1428 H 0.84477 0.64577 0.3139 0.0
H1429 H 0.86832 0.60615 0.3277 0.0
H1430 H 0.90716 0.59821 0.48396 0.0
H1431 H 0.89482 0.60127 0.42673 0.0
H1432 H 0.87041 0.64227 0.42396 0.0
C1433 C 0.8526 0.64266 0.29421 0.0
C1434 C 0.86848 0.61402 0.34883 0.0
C1435 C 0.85233 0.64885 0.25993 0.0
C1436 C 0.89808 0.60512 0.48287 0.0
C1437 C 0.89094 0.60686 0.45013 0.0
C1438 C 0.86955 0.6341 0.40374 0.0
C1439 C 0.86324 0.63297 0.30343 0.0
C1440 C 0.86513 0.62813 0.34111 0.0
C1441 C 0.87963 0.61644 0.44721 0.0
C1442 C 0.87349 0.6201 0.41136 0.0
H1443 H 0.88128 0.63269 0.22436 0.0
H1444 H 0.8816 0.6218 0.28367 0.0
H1445 H 0.86305 0.64903 0.3639 0.0
H1446 H 0.87914 0.6282 0.53387 0.0
H1447 H 0.86621 0.63066 0.47766 0.0
C1448 C 0.38417 0.38229 0.50929 0.0
C1449 C 0.3968 0.3899 0.51163 0.0
C1450 C 0.37702 0.38119 0.47658 0.0
C1451 C 0.377 0.39321 0.38023 0.0
H1452 H 0.36414 0.35494 0.36397 0.0
C1453 C 0.37609 0.36574 0.24223 0.0
C1454 C 0.36511 0.35629 0.23417 0.0
C1455 C 0.37666 0.37249 0.27557 0.0
C1456 C 0.36738 0.36576 0.36819 0.0
H1457 H 0.4116 0.40292 0.48241 0.0
H1458 H 0.39951 0.40051 0.42457 0.0
H1459 H 0.37133 0.36206 0.42384 0.0
H1460 H 0.34572 0.34709 0.25406 0.0
H1461 H 0.34686 0.35875 0.31294 0.0
H1462 H 0.37385 0.39645 0.32359 0.0
C1463 C 0.3948 0.39572 0.44813 0.0
C1464 C 0.3715 0.3699 0.40267 0.0
C1465 C 0.40178 0.3971 0.48122 0.0
C1466 C 0.35431 0.35429 0.25954 0.0
C1467 C 0.35499 0.36092 0.29322 0.0
C1468 C 0.37303 0.38898 0.34554 0.0
C1469 C 0.38259 0.3873 0.44513 0.0
C1470 C 0.37663 0.38361 0.40913 0.0
C1471 C 0.36635 0.36985 0.30182 0.0
C1472 C 0.36844 0.37512 0.33908 0.0
H1473 H 0.38008 0.37674 0.53257 0.0
H1474 H 0.36743 0.37502 0.47571 0.0
H1475 H 0.38064 0.40391 0.3842 0.0
H1476 H 0.38452 0.36761 0.22312 0.0
H1477 H 0.3856 0.3792 0.28148 0.0
C1478 C 0.39689 0.60569 0.01087 0.0
C1479 C 0.39273 0.61341 0.9805 0.0
C1480 C 0.38981 0.60744 0.04367 0.0
C1481 C 0.36791 0.63448 0.08918 0.0
H1482 H 0.36819 0.60728 0.16707 0.0
C1483 C 0.35141 0.65005 0.23288 0.0
C1484 C 0.36234 0.64757 0.25762 0.0
C1485 C 0.3516 0.64351 0.19904 0.0
C1486 C 0.36791 0.61493 0.14541 0.0
H1487 H 0.3772 0.62793 0.95928 0.0
H1488 H 0.36433 0.63034 0.0156 0.0
H1489 H 0.37472 0.59982 0.1063 0.0
H1490 H 0.38139 0.63553 0.26758 0.0
H1491 H 0.38157 0.62403 0.20899 0.0
H1492 H 0.36131 0.6496 0.12841 0.0
C1493 C 0.37344 0.62348 0.01498 0.0
C1494 C 0.37176 0.6107 0.11065 0.0
C1495 C 0.38073 0.62201 0.98257 0.0
C1496 C 0.37289 0.63775 0.2489 0.0
C1497 C 0.37294 0.63106 0.21547 0.0
C1498 C 0.36387 0.63863 0.12372 0.0
C1499 C 0.37825 0.61673 0.04641 0.0
C1500 C 0.37221 0.62052 0.08225 0.0
C1501 C 0.36254 0.63418 0.1898 0.0
C1502 C 0.36423 0.62901 0.15238 0.0
H1503 H 0.40617 0.59904 0.0099 0.0
H1504 H 0.39394 0.60213 0.06722 0.0
H1505 H 0.36836 0.64247 0.06842 0.0
H1506 H 0.34314 0.65756 0.23894 0.0
H1507 H 0.34344 0.64606 0.1797 0.0
C1508 C 0.10203 0.60535 0.98068 0.0
C1509 C 0.10685 0.61286 0.01077 0.0
C1510 C 0.10882 0.60686 0.94738 0.0
C1511 C 0.13128 0.63308 0.90062 0.0
H1512 H 0.12965 0.60592 0.82278 0.0
C1513 C 0.14819 0.64809 0.75711 0.0
C1514 C 0.13732 0.64589 0.73203 0.0
C1515 C 0.14769 0.64157 0.79092 0.0
C1516 C 0.13028 0.61355 0.84441 0.0
H1517 H 0.12316 0.62671 0.03096 0.0
H1518 H 0.13551 0.62867 0.97377 0.0
H1519 H 0.12309 0.5987 0.88375 0.0
H1520 H 0.11802 0.63432 0.72155 0.0
H1521 H 0.11725 0.62289 0.78019 0.0
H1522 H 0.13827 0.64795 0.86124 0.0
C1523 C 0.12614 0.62218 0.97501 0.0
C1524 C 0.12643 0.60947 0.87928 0.0
C1525 C 0.11915 0.62097 0.00789 0.0
C1526 C 0.12648 0.63634 0.74046 0.0
C1527 C 0.1261 0.62968 0.77394 0.0
C1528 C 0.1353 0.63708 0.86598 0.0
C1529 C 0.12072 0.61568 0.94389 0.0
C1530 C 0.12653 0.61928 0.90771 0.0
C1531 C 0.13646 0.63255 0.79991 0.0
C1532 C 0.1345 0.62748 0.83734 0.0
H1533 H 0.0925 0.59909 0.98232 0.0
H1534 H 0.10424 0.60175 0.92409 0.0
H1535 H 0.13123 0.64108 0.92141 0.0
H1536 H 0.15669 0.65537 0.75133 0.0
H1537 H 0.15585 0.6439 0.81046 0.0
C1538 C 0.12821 0.36576 0.75472 0.0
C1539 C 0.13902 0.35614 0.76295 0.0
C1540 C 0.12804 0.3728 0.72178 0.0
C1541 C 0.13806 0.36684 0.62945 0.0
H1542 H 0.1248 0.40511 0.61533 0.0
C1543 C 0.12063 0.3841 0.48963 0.0
C1544 C 0.10783 0.39146 0.48824 0.0
C1545 C 0.12809 0.38302 0.5219 0.0
C1546 C 0.12847 0.39439 0.61876 0.0
H1547 H 0.15852 0.34691 0.74384 0.0
H1548 H 0.15806 0.35908 0.68552 0.0
H1549 H 0.13148 0.39716 0.6756 0.0
H1550 H 0.09306 0.40411 0.51858 0.0
H1551 H 0.10569 0.40173 0.57563 0.0
H1552 H 0.13421 0.3636 0.57357 0.0
C1553 C 0.14976 0.36115 0.70484 0.0
C1554 C 0.13238 0.38987 0.65325 0.0
C1555 C 0.15005 0.35423 0.73818 0.0
C1556 C 0.103 0.39849 0.51905 0.0
C1557 C 0.1103 0.39713 0.55169 0.0
C1558 C 0.13402 0.37127 0.59514 0.0
C1559 C 0.13859 0.3703 0.69607 0.0
C1560 C 0.13688 0.37594 0.65905 0.0
C1561 C 0.12266 0.3889 0.5538 0.0
C1562 C 0.12884 0.38501 0.58941 0.0
H1563 H 0.11963 0.36757 0.77341 0.0
H1564 H 0.11922 0.37965 0.71571 0.0
H1565 H 0.14127 0.35597 0.63314 0.0
H1566 H 0.12458 0.37867 0.46602 0.0
H1567 H 0.13778 0.377 0.52212 0.0
C1568 C 0.12957 0.13623 0.48796 0.0
C1569 C 0.13588 0.14932 0.48123 0.0
C1570 C 0.12745 0.13168 0.52325 0.0
C1571 C 0.12254 0.14668 0.61325 0.0
H1572 H 0.12249 0.10749 0.64291 0.0
C1573 C 0.09402 0.12966 0.74094 0.0
C1574 C 0.10104 0.12021 0.76366 0.0
C1575 C 0.099 0.13208 0.70623 0.0
C1576 C 0.12258 0.11849 0.63512 0.0
H1577 H 0.1453 0.16779 0.50544 0.0
H1578 H 0.14218 0.15961 0.5673 0.0
H1579 H 0.13169 0.1139 0.58368 0.0
H1580 H 0.11818 0.1053 0.76815 0.0
H1581 H 0.12717 0.10968 0.70725 0.0
H1582 H 0.11369 0.15135 0.66468 0.0
C1583 C 0.13864 0.15294 0.54544 0.0
C1584 C 0.12774 0.12214 0.60112 0.0
C1585 C 0.14061 0.15755 0.51011 0.0
C1586 C 0.11268 0.11266 0.75081 0.0
C1587 C 0.11777 0.11515 0.71607 0.0
C1588 C 0.11748 0.14304 0.64718 0.0
C1589 C 0.13167 0.14014 0.55241 0.0
C1590 C 0.12758 0.13627 0.58965 0.0
C1591 C 0.11117 0.12515 0.69377 0.0
C1592 C 0.1172 0.12889 0.65826 0.0
H1593 H 0.12579 0.12978 0.4659 0.0
H1594 H 0.12189 0.12186 0.52761 0.0
H1595 H 0.12207 0.15763 0.60515 0.0
H1596 H 0.08488 0.13542 0.75041 0.0
H1597 H 0.09346 0.13956 0.68935 0.0
C1598 C 0.09714 0.88684 0.76036 0.0
C1599 C 0.10449 0.88346 0.7288 0.0
C1600 C 0.10341 0.88469 0.79396 0.0
C1601 C 0.12842 0.86117 0.83634 0.0
H1602 H 0.12479 0.88618 0.91844 0.0
C1603 C 0.12793 0.84261 0.98334 0.0
C1604 C 0.13553 0.85051 0.00857 0.0
C1605 C 0.12695 0.84719 0.94776 0.0
C1606 C 0.12606 0.87919 0.89561 0.0
H1607 H 0.12413 0.87564 0.70693 0.0
H1608 H 0.13511 0.87173 0.76576 0.0
H1609 H 0.11772 0.89438 0.85855 0.0
H1610 H 0.14848 0.86896 0.01707 0.0
H1611 H 0.14656 0.87724 0.9545 0.0
H1612 H 0.13622 0.8458 0.87356 0.0
C1613 C 0.12455 0.87607 0.76462 0.0
C1614 C 0.12192 0.88383 0.86151 0.0
C1615 C 0.11832 0.87832 0.7311 0.0
C1616 C 0.14256 0.86278 -0.00225 0.0
C1617 C 0.14142 0.8675 0.96222 0.0
C1618 C 0.13239 0.85648 0.87045 0.0
C1619 C 0.11705 0.87897 0.79635 0.0
C1620 C 0.12285 0.87477 0.8317 0.0
C1621 C 0.13344 0.85983 0.93708 0.0
C1622 C 0.131 0.86536 0.90046 0.0
H1623 H 0.08634 0.89054 0.7591 0.0
H1624 H 0.09733 0.88682 0.81805 0.0
H1625 H 0.12912 0.85393 0.81385 0.0
H1626 H 0.12247 0.83309 0.99142 0.0
H1627 H 0.12064 0.84116 0.92895 0.0
C1628 C 0.37613 0.87017 0.98161 0.0
C1629 C 0.36886 0.85734 0.97874 0.0
C1630 C 0.37828 0.87635 0.01522 0.0
C1631 C 0.39107 0.87734 0.09091 0.0
H1632 H 0.36217 0.88342 0.16308 0.0
C1633 C 0.40628 0.89383 0.23426 0.0
C1634 C 0.3988 0.8873 0.2622 0.0
C1635 C 0.40135 0.89306 0.19888 0.0
C1636 C 0.37039 0.88167 0.14335 0.0
H1637 H 0.35783 0.84104 0.00822 0.0
H1638 H 0.36118 0.85214 0.06721 0.0
H1639 H 0.35543 0.87634 0.10217 0.0
H1640 H 0.38031 0.87505 0.27566 0.0
H1641 H 0.37208 0.87294 0.21385 0.0
H1642 H 0.40612 0.88164 0.13203 0.0
C1643 C 0.36517 0.85739 0.04339 0.0
C1644 C 0.36649 0.87772 0.1085 0.0
C1645 C 0.36323 0.85108 0.00977 0.0
C1646 C 0.38623 0.88017 0.25441 0.0
C1647 C 0.38144 0.87914 0.21902 0.0
C1648 C 0.39499 0.88101 0.12584 0.0
C1649 C 0.37299 0.86989 0.04639 0.0
C1650 C 0.37683 0.87537 0.0822 0.0
C1651 C 0.38904 0.88541 0.19069 0.0
C1652 C 0.38472 0.88301 0.15269 0.0
H1653 H 0.3805 0.8752 0.95791 0.0
H1654 H 0.38432 0.88601 0.01699 0.0
H1655 H 0.39922 0.8754 0.07108 0.0
H1656 H 0.41613 0.8992 0.23959 0.0
H1657 H 0.40736 0.89822 0.1779 0.0
C1658 C 0.38383 0.11504 0.23859 0.0
C1659 C 0.39846 0.11429 0.23404 0.0
C1660 C 0.37809 0.11645 0.27298 0.0
C1661 C 0.38673 0.1146 0.3705 0.0
H1662 H 0.35772 0.14323 0.37844 0.0
C1663 C 0.36607 0.13226 0.50852 0.0
C1664 C 0.36512 0.14687 0.5131 0.0
C1665 C 0.36766 0.12656 0.47414 0.0
C1666 C 0.36581 0.13521 0.37667 0.0
H1667 H 0.41867 0.1142 0.26088 0.0
H1668 H 0.40874 0.11692 0.32126 0.0
H1669 H 0.3658 0.13587 0.31918 0.0
H1670 H 0.36487 0.16708 0.48629 0.0
H1671 H 0.36786 0.15721 0.42595 0.0
H1672 H 0.38734 0.11456 0.428 0.0
C1673 C 0.40161 0.11606 0.29857 0.0
C1674 C 0.37032 0.13084 0.34269 0.0
C1675 C 0.40733 0.11455 0.26414 0.0
C1676 C 0.36536 0.15575 0.48302 0.0
C1677 C 0.36703 0.15007 0.44861 0.0
C1678 C 0.38227 0.11902 0.40447 0.0
C1679 C 0.38694 0.11732 0.30329 0.0
C1680 C 0.38104 0.12069 0.33924 0.0
C1681 C 0.36848 0.13542 0.44387 0.0
C1682 C 0.37197 0.12959 0.40792 0.0
H1683 H 0.37688 0.11491 0.21543 0.0
H1684 H 0.36675 0.11719 0.27575 0.0
H1685 H 0.39487 0.10662 0.36872 0.0
H1686 H 0.36597 0.1253 0.53166 0.0
H1687 H 0.36855 0.11523 0.47134 0.0
C1688 C 0.88173 0.87593 0.2319 0.0
C1689 C 0.89449 0.88324 0.22819 0.0
C1690 C 0.87587 0.87381 0.26589 0.0
C1691 C 0.8752 0.86093 0.341 0.0
H1692 H 0.87091 0.8894 0.41507 0.0
C1693 C 0.8587 0.84529 0.484 0.0
C1694 C 0.86573 0.85214 0.5122 0.0
C1695 C 0.85963 0.85048 0.44889 0.0
C1696 C 0.87216 0.8813 0.39478 0.0
H1697 H 0.91101 0.89442 0.25648 0.0
H1698 H 0.90055 0.89102 0.31623 0.0
H1699 H 0.87757 0.8964 0.35403 0.0
H1700 H 0.87901 0.86983 0.52639 0.0
H1701 H 0.88134 0.87848 0.46497 0.0
H1702 H 0.8707 0.84572 0.38158 0.0
C1703 C 0.89507 0.88701 0.29279 0.0
C1704 C 0.87589 0.88535 0.35986 0.0
C1705 C 0.90102 0.88897 0.25874 0.0
C1706 C 0.87353 0.86436 0.50494 0.0
C1707 C 0.87469 0.86941 0.46979 0.0
C1708 C 0.87172 0.85686 0.37593 0.0
C1709 C 0.88264 0.8791 0.29666 0.0
C1710 C 0.87756 0.87516 0.33283 0.0
C1711 C 0.8679 0.86242 0.44121 0.0
C1712 C 0.87032 0.86697 0.40341 0.0
H1713 H 0.87651 0.87148 0.20855 0.0
H1714 H 0.86625 0.86774 0.26827 0.0
H1715 H 0.87663 0.85286 0.32067 0.0
H1716 H 0.85279 0.83572 0.48892 0.0
H1717 H 0.85407 0.84495 0.4277 0.0
C1718 C 0.90964 0.13118 0.24253 0.0
C1719 C 0.90305 0.12118 0.26454 0.0
C1720 C 0.90456 0.13375 0.20794 0.0
C1721 C 0.88165 0.11953 0.13596 0.0
H1722 H 0.88148 0.15864 0.1057 0.0
C1723 C 0.87476 0.13658 0.98837 0.0
C1724 C 0.86833 0.14956 0.98102 0.0
C1725 C 0.87688 0.13227 0.02386 0.0
C1726 C 0.88119 0.14769 0.11387 0.0
H1727 H 0.88651 0.10557 0.26795 0.0
H1728 H 0.87733 0.11022 0.20742 0.0
H1729 H 0.88967 0.15261 0.16559 0.0
H1730 H 0.85872 0.1681 0.0044 0.0
H1731 H 0.86183 0.16033 0.06663 0.0
H1732 H 0.87285 0.11469 0.08434 0.0
C1733 C 0.88649 0.11599 0.2166 0.0
C1734 C 0.88614 0.1442 0.14803 0.0
C1735 C 0.89169 0.11334 0.25116 0.0
C1736 C 0.86351 0.15794 0.00954 0.0
C1737 C 0.86548 0.15356 0.04508 0.0
C1738 C 0.87656 0.12305 0.10179 0.0
C1739 C 0.89271 0.12644 0.1949 0.0
C1740 C 0.8867 0.13007 0.15923 0.0
C1741 C 0.87254 0.14086 0.05266 0.0
C1742 C 0.87649 0.13715 0.09015 0.0
H1743 H 0.91855 0.13718 0.2524 0.0
H1744 H 0.90984 0.14158 0.19157 0.0
H1745 H 0.88195 0.10854 0.14374 0.0
H1746 H 0.8786 0.13001 0.96662 0.0
H1747 H 0.88253 0.12253 0.02863 0.0
C1748 C 0.59488 0.10988 0.76114 0.0
C1749 C 0.60256 0.11631 0.73342 0.0
C1750 C 0.59967 0.11058 0.79665 0.0
C1751 C 0.63061 0.12137 0.85291 0.0
H1752 H 0.60168 0.1281 0.92465 0.0
C1753 C 0.62473 0.1329 0.01459 0.0
C1754 C 0.63229 0.14556 0.01754 0.0
C1755 C 0.62248 0.12679 0.98093 0.0
C1756 C 0.60985 0.12603 0.90497 0.0
H1757 H 0.62125 0.12836 0.72049 0.0
H1758 H 0.62926 0.13032 0.78252 0.0
H1759 H 0.59485 0.12203 0.86351 0.0
H1760 H 0.64368 0.16164 0.98818 0.0
H1761 H 0.64015 0.15066 0.92915 0.0
H1762 H 0.64554 0.12638 0.89441 0.0
C1763 C 0.61983 0.12425 0.77708 0.0
C1764 C 0.60597 0.12247 0.86993 0.0
C1765 C 0.61517 0.1233 0.74156 0.0
C1766 C 0.63806 0.15173 0.98656 0.0
C1767 C 0.63601 0.14548 0.95292 0.0
C1768 C 0.63447 0.12521 0.88786 0.0
C1769 C 0.61205 0.11804 0.80518 0.0
C1770 C 0.61629 0.12031 0.84327 0.0
C1771 C 0.62794 0.13315 0.94982 0.0
C1772 C 0.6241 0.12773 0.91396 0.0
H1773 H 0.58498 0.10464 0.75551 0.0
H1774 H 0.59351 0.10549 0.81746 0.0
H1775 H 0.63885 0.1195 0.83332 0.0
H1776 H 0.62025 0.12793 0.03825 0.0
H1777 H 0.61624 0.11725 0.97908 0.0
C1778 C 0.61546 0.8747 0.76257 0.0
C1779 C 0.60206 0.88058 0.76772 0.0
C1780 C 0.62015 0.87137 0.72799 0.0
C1781 C 0.60602 0.86286 0.63836 0.0
H1782 H 0.64505 0.86632 0.60857 0.0
C1783 C 0.62462 0.83793 0.50694 0.0
C1784 C 0.63321 0.8463 0.48502 0.0
C1785 C 0.62226 0.84171 0.5427 0.0
C1786 C 0.6341 0.86536 0.61643 0.0
H1787 H 0.58303 0.88774 0.74134 0.0
H1788 H 0.59137 0.88246 0.68057 0.0
H1789 H 0.63781 0.87522 0.66743 0.0
H1790 H 0.64671 0.86462 0.48282 0.0
H1791 H 0.64236 0.87154 0.54539 0.0
H1792 H 0.60215 0.85345 0.58715 0.0
C1793 C 0.59823 0.88021 0.70319 0.0
C1794 C 0.62998 0.87034 0.65025 0.0
C1795 C 0.59351 0.88343 0.73783 0.0
C1796 C 0.64005 0.85806 0.49959 0.0
C1797 C 0.63758 0.86196 0.53533 0.0
C1798 C 0.61011 0.85798 0.60457 0.0
C1799 C 0.61148 0.87388 0.69794 0.0
C1800 C 0.61589 0.86912 0.6616 0.0
C1801 C 0.62833 0.85404 0.55695 0.0
C1802 C 0.62421 0.85909 0.59326 0.0
H1803 H 0.62216 0.87234 0.78544 0.0
H1804 H 0.63032 0.86633 0.72498 0.0
H1805 H 0.59513 0.86153 0.64643 0.0
H1806 H 0.61936 0.82874 0.49602 0.0
H1807 H 0.61537 0.83518 0.55891 0.0
C1808 C 0.62341 0.63221 0.98264 0.0
C1809 C 0.63128 0.64468 0.98002 0.0
C1810 C 0.62122 0.62589 0.01606 0.0
C1811 C 0.60869 0.62567 0.09211 0.0
H1812 H 0.63734 0.61671 0.16295 0.0
C1813 C 0.5928 0.6096 0.23518 0.0
C1814 C 0.60103 0.61509 0.2632 0.0
C1815 C 0.5976 0.61024 0.19968 0.0
C1816 C 0.6292 0.61928 0.1436 0.0
H1817 H 0.64341 0.66015 0.00965 0.0
H1818 H 0.63997 0.64877 0.06827 0.0
H1819 H 0.64434 0.6236 0.10207 0.0
H1820 H 0.62061 0.6255 0.27667 0.0
H1821 H 0.62867 0.62744 0.21467 0.0
H1822 H 0.59354 0.62244 0.13358 0.0
C1823 C 0.63554 0.64391 0.04441 0.0
C1824 C 0.63323 0.62311 0.10877 0.0
C1825 C 0.63754 0.65038 0.01101 0.0
C1826 C 0.61414 0.62114 0.25535 0.0
C1827 C 0.61881 0.62207 0.21984 0.0
C1828 C 0.60465 0.62215 0.12703 0.0
C1829 C 0.62705 0.63184 0.04723 0.0
C1830 C 0.62299 0.62647 0.08295 0.0
C1831 C 0.61053 0.61678 0.19145 0.0
C1832 C 0.61485 0.61909 0.15342 0.0
H1833 H 0.61857 0.62761 0.95897 0.0
H1834 H 0.61465 0.61657 0.01772 0.0
H1835 H 0.60062 0.62842 0.07265 0.0
H1836 H 0.58249 0.60517 0.24057 0.0
H1837 H 0.59102 0.60585 0.17867 0.0
C1838 C 0.6283 0.36676 0.50972 0.0
C1839 C 0.63486 0.35379 0.5165 0.0
C1840 C 0.62591 0.37118 0.47442 0.0
C1841 C 0.621 0.35603 0.38441 0.0
H1842 H 0.62065 0.39519 0.35451 0.0
C1843 C 0.59292 0.37275 0.25545 0.0
C1844 C 0.5999 0.38236 0.23311 0.0
C1845 C 0.59777 0.37031 0.29031 0.0
C1846 C 0.62082 0.3842 0.36235 0.0
H1847 H 0.64445 0.33541 0.49228 0.0
H1848 H 0.64082 0.34334 0.43036 0.0
H1849 H 0.62977 0.38892 0.41389 0.0
H1850 H 0.61686 0.39751 0.22947 0.0
H1851 H 0.62561 0.3931 0.29056 0.0
H1852 H 0.61233 0.35123 0.33282 0.0
C1853 C 0.63728 0.35001 0.45223 0.0
C1854 C 0.62593 0.38062 0.39646 0.0
C1855 C 0.63954 0.34555 0.48758 0.0
C1856 C 0.61139 0.39003 0.24649 0.0
C1857 C 0.61633 0.38752 0.28136 0.0
C1858 C 0.61599 0.35959 0.35034 0.0
C1859 C 0.6301 0.3627 0.44526 0.0
C1860 C 0.62591 0.3665 0.40802 0.0
C1861 C 0.60976 0.37738 0.30333 0.0
C1862 C 0.61563 0.37372 0.33912 0.0
H1863 H 0.62458 0.37324 0.53179 0.0
H1864 H 0.6202 0.38091 0.47008 0.0
H1865 H 0.62063 0.34508 0.39256 0.0
H1866 H 0.58389 0.36691 0.24561 0.0
H1867 H 0.59224 0.36272 0.30689 0.0
C1868 C 0.90165 0.38932 0.73456 0.0
C1869 C 0.89467 0.38525 0.76613 0.0
C1870 C 0.89526 0.38727 0.70108 0.0
C1871 C 0.87099 0.36288 0.65885 0.0
H1872 H 0.87454 0.38771 0.57635 0.0
C1873 C 0.87341 0.34341 0.5132 0.0
C1874 C 0.86597 0.35092 0.48691 0.0
C1875 C 0.87391 0.34836 0.54851 0.0
C1876 C 0.87327 0.38076 0.59928 0.0
H1877 H 0.8755 0.37643 0.78825 0.0
H1878 H 0.86427 0.37279 0.72964 0.0
H1879 H 0.88086 0.39632 0.63638 0.0
H1880 H 0.8528 0.36906 0.47626 0.0
H1881 H 0.85385 0.37796 0.5384 0.0
H1882 H 0.86393 0.34717 0.62165 0.0
C1883 C 0.87465 0.37753 0.73064 0.0
C1884 C 0.87699 0.38564 0.63349 0.0
C1885 C 0.88103 0.37964 0.76404 0.0
C1886 C 0.85863 0.36319 0.49639 0.0
C1887 C 0.85927 0.36827 0.53168 0.0
C1888 C 0.86741 0.35798 0.62468 0.0
C1889 C 0.88185 0.381 0.69881 0.0
C1890 C 0.87616 0.37664 0.66344 0.0
C1891 C 0.86704 0.36095 0.55792 0.0
C1892 C 0.86883 0.36677 0.59451 0.0
H1893 H 0.91229 0.39344 0.73567 0.0
H1894 H 0.90113 0.38985 0.67694 0.0
H1895 H 0.87038 0.35566 0.6814 0.0
H1896 H 0.87907 0.33388 0.50621 0.0
H1897 H 0.88008 0.3426 0.56816 0.0
C1898 C 0.91016 0.6215 0.76107 0.0
C1899 C 0.90285 0.6131 0.73633 0.0
C1900 C 0.90586 0.62199 0.79695 0.0
C1901 C 0.87447 0.61965 0.85084 0.0
H1902 H 0.90062 0.6195 0.93118 0.0
C1903 C 0.86565 0.64903 0.98463 0.0
C1904 C 0.86984 0.64229 0.01648 0.0
C1905 C 0.868 0.64258 0.95136 0.0
C1906 C 0.89315 0.61936 0.90911 0.0
H1907 H 0.88584 0.59819 0.72906 0.0
H1908 H 0.87804 0.59925 0.79213 0.0
H1909 H 0.90889 0.61292 0.87118 0.0
H1910 H 0.87928 0.62352 0.03917 0.0
H1911 H 0.88362 0.6123 0.98082 0.0
H1912 H 0.85887 0.62671 0.88853 0.0
C1913 C 0.88708 0.60541 0.78378 0.0
C1914 C 0.8979 0.61568 0.87483 0.0
C1915 C 0.89153 0.60477 0.74796 0.0
C1916 C 0.87599 0.62887 0.01478 0.0
C1917 C 0.87847 0.62249 0.98156 0.0
C1918 C 0.86975 0.6235 0.88508 0.0
C1919 C 0.89411 0.61417 0.80842 0.0
C1920 C 0.88867 0.61608 0.84532 0.0
C1921 C 0.87474 0.62941 0.94954 0.0
C1922 C 0.87912 0.62364 0.91434 0.0
H1923 H 0.91898 0.62792 0.75243 0.0
H1924 H 0.91137 0.62891 0.81539 0.0
H1925 H 0.86718 0.62014 0.8284 0.0
H1926 H 0.86115 0.65951 0.98538 0.0
H1927 H 0.86522 0.64823 0.92701 0.0
C1928 C 0.35924 0.36169 -0.00211 0.0
C1929 C 0.3663 0.34955 0.00953 0.0
C1930 C 0.36051 0.36614 0.96216 0.0
C1931 C 0.36997 0.35459 0.8712 0.0
H1932 H 0.38495 0.39232 0.85846 0.0
C1933 C 0.38439 0.37635 0.7316 0.0
C1934 C 0.39828 0.38133 0.7294 0.0
C1935 C 0.37817 0.37397 0.76507 0.0
C1936 C 0.38066 0.38181 0.86166 0.0
H1937 H 0.37957 0.3321 0.99368 0.0
H1938 H 0.3816 0.33969 0.93084 0.0
H1939 H 0.37755 0.38449 0.9184 0.0
H1940 H 0.4166 0.38785 0.75988 0.0
H1941 H 0.40559 0.38401 0.81874 0.0
H1942 H 0.37345 0.35174 0.81474 0.0
C1943 C 0.37517 0.34581 0.94916 0.0
C1944 C 0.37634 0.37739 0.89578 0.0
C1945 C 0.37407 0.34151 0.98494 0.0
C1946 C 0.40575 0.38432 0.76105 0.0
C1947 C 0.39947 0.38209 0.79459 0.0
C1948 C 0.37411 0.35908 0.83704 0.0
C1949 C 0.36865 0.35832 0.93767 0.0
C1950 C 0.37128 0.36362 0.90093 0.0
C1951 C 0.38573 0.37663 0.79684 0.0
C1952 C 0.37979 0.37261 0.83214 0.0
H1953 H 0.3532 0.36798 0.01672 0.0
H1954 H 0.35536 0.37579 0.9538 0.0
H1955 H 0.36606 0.34395 0.87458 0.0
H1956 H 0.37849 0.37396 0.70737 0.0
H1957 H 0.36754 0.36981 0.76615 0.0
C1958 C 0.40529 0.60855 0.73165 0.0
C1959 C 0.39741 0.61467 0.75948 0.0
C1960 C 0.40063 0.60946 0.69606 0.0
C1961 C 0.36986 0.62052 0.63935 0.0
H1962 H 0.39915 0.62798 0.56903 0.0
C1963 C 0.37647 0.63301 0.47843 0.0
C1964 C 0.36898 0.64571 0.47561 0.0
C1965 C 0.37857 0.62675 0.51198 0.0
C1966 C 0.39088 0.62572 0.58831 0.0
H1967 H 0.37849 0.62632 0.77252 0.0
H1968 H 0.37071 0.62868 0.71039 0.0
H1969 H 0.40567 0.62147 0.63007 0.0
H1970 H 0.35756 0.66175 0.5051 0.0
H1971 H 0.36081 0.6505 0.56395 0.0
H1972 H 0.35514 0.62579 0.59758 0.0
C1973 C 0.38019 0.62269 0.71577 0.0
C1974 C 0.39459 0.62189 0.62329 0.0
C1975 C 0.38472 0.62152 0.75136 0.0
C1976 C 0.36312 0.6518 0.50661 0.0
C1977 C 0.36501 0.6454 0.54014 0.0
C1978 C 0.36617 0.62463 0.60448 0.0
C1979 C 0.38819 0.61685 0.68756 0.0
C1980 C 0.38414 0.61944 0.64945 0.0
C1981 C 0.37301 0.63301 0.54311 0.0
C1982 C 0.37667 0.62741 0.57889 0.0
H1983 H 0.41525 0.60343 0.73725 0.0
H1984 H 0.40695 0.60462 0.67517 0.0
H1985 H 0.36153 0.61842 0.65852 0.0
H1986 H 0.38101 0.62812 0.45476 0.0
H1987 H 0.38475 0.61718 0.51373 0.0
C1988 C 0.14472 0.63969 0.49768 0.0
C1989 C 0.13633 0.65113 0.50815 0.0
C1990 C 0.14421 0.63477 0.46225 0.0
C1991 C 0.13476 0.64475 0.37027 0.0
H1992 H 0.12383 0.60566 0.35751 0.0
C1993 C 0.12271 0.62261 0.23046 0.0
C1994 C 0.10923 0.61663 0.2282 0.0
C1995 C 0.12895 0.62489 0.26394 0.0
C1996 C 0.12703 0.61655 0.36071 0.0
H1997 H 0.12144 0.66694 0.49044 0.0
H1998 H 0.12069 0.65852 0.42812 0.0
H1999 H 0.12973 0.61439 0.41776 0.0
H2000 H 0.0918 0.6079 0.25845 0.0
H2001 H 0.1028 0.6117 0.3173 0.0
H2002 H 0.1316 0.64709 0.31359 0.0
C2003 C 0.12756 0.65327 0.44719 0.0
C2004 C 0.13048 0.6215 0.39502 0.0
C2005 C 0.12791 0.65803 0.48268 0.0
C2006 C 0.10233 0.6123 0.25967 0.0
C2007 C 0.10861 0.61448 0.29322 0.0
C2008 C 0.13149 0.63977 0.33597 0.0
C2009 C 0.13552 0.64146 0.43684 0.0
C2010 C 0.134 0.63574 0.40014 0.0
C2011 C 0.1218 0.62117 0.29564 0.0
C2012 C 0.12725 0.62572 0.33104 0.0
H2013 H 0.15131 0.63431 0.51716 0.0
H2014 H 0.15047 0.62568 0.45475 0.0
H2015 H 0.1375 0.65576 0.37363 0.0
H2016 H 0.12818 0.626 0.20634 0.0
H2017 H 0.13916 0.62998 0.26513 0.0
C2018 C 0.09315 0.37161 0.24588 0.0
C2019 C 0.09979 0.38147 0.2682 0.0
C2020 C 0.09817 0.36924 0.21116 0.0
C2021 C 0.12109 0.3837 0.13952 0.0
H2022 H 0.1215 0.34464 0.10886 0.0
C2023 C 0.12835 0.36677 0.99189 0.0
C2024 C 0.13485 0.35382 0.98465 0.0
C2025 C 0.12616 0.37109 0.02734 0.0
C2026 C 0.12172 0.35558 0.11714 0.0
H2027 H 0.11633 0.39707 0.27202 0.0
H2028 H 0.12541 0.39277 0.21123 0.0
H2029 H 0.11316 0.35053 0.16868 0.0
H2030 H 0.14455 0.33535 0.00821 0.0
H2031 H 0.14134 0.34314 0.07036 0.0
H2032 H 0.12996 0.38867 0.08806 0.0
C2033 C 0.11625 0.38695 0.22028 0.0
C2034 C 0.11667 0.35899 0.15126 0.0
C2035 C 0.11111 0.38941 0.25499 0.0
C2036 C 0.1397 0.34549 0.01325 0.0
C2037 C 0.13767 0.34988 0.04875 0.0
C2038 C 0.12625 0.38027 0.10538 0.0
C2039 C 0.11001 0.37661 0.1983 0.0
C2040 C 0.11605 0.3731 0.1626 0.0
C2041 C 0.13051 0.36254 0.0562 0.0
C2042 C 0.12642 0.36618 0.09362 0.0
H2043 H 0.08426 0.36554 0.25563 0.0
H2044 H 0.09288 0.36149 0.19455 0.0
H2045 H 0.12072 0.39467 0.14745 0.0
H2046 H 0.1245 0.37331 0.97007 0.0
H2047 H 0.12045 0.3808 0.03203 0.0
C2048 C 0.29654 0.15734 0.57307 0.0
C2049 C 0.29616 0.16832 0.59853 0.0
C2050 C 0.28515 0.15515 0.54966 0.0
C2051 C 0.25775 0.1762 0.50664 0.0
H2052 H 0.24202 0.14073 0.4739 0.0
C2053 C 0.21968 0.17541 0.38794 0.0
C2054 C 0.2069 0.16841 0.39437 0.0
C2055 C 0.23134 0.17303 0.41012 0.0
C2056 C 0.24635 0.1507 0.48279 0.0
H2057 H 0.28322 0.18493 0.62103 0.0
H2058 H 0.26335 0.18102 0.58062 0.0
H2059 H 0.26 0.14084 0.5216 0.0
H2060 H 0.19636 0.1533 0.42886 0.0
H2061 H 0.2168 0.14894 0.46719 0.0
H2062 H 0.24419 0.18613 0.46841 0.0
C2063 C 0.27249 0.17423 0.57836 0.0
C2064 C 0.25665 0.15075 0.50996 0.0
C2065 C 0.28383 0.17641 0.60167 0.0
C2066 C 0.20622 0.15842 0.42227 0.0
C2067 C 0.21791 0.15603 0.44451 0.0
C2068 C 0.24764 0.17613 0.4794 0.0
C2069 C 0.27325 0.16396 0.55116 0.0
C2070 C 0.26234 0.16355 0.52241 0.0
C2071 C 0.23042 0.16373 0.43952 0.0
C2072 C 0.24177 0.16341 0.46717 0.0
H2073 H 0.30599 0.15114 0.5693 0.0
H2074 H 0.28606 0.1472 0.52885 0.0
H2075 H 0.26209 0.18622 0.51518 0.0
H2076 H 0.22043 0.18328 0.36689 0.0
H2077 H 0.2409 0.17899 0.40527 0.0
C2078 C 0.09217 0.96286 0.64664 0.0
C2079 C 0.08214 0.95311 0.65898 0.0
C2080 C 0.0963 0.97418 0.66868 0.0
C2081 C 0.09643 0.98612 0.76388 0.0
H2082 H 0.09258 0.02382 0.72506 0.0
C2083 C 0.08213 0.03376 0.85143 0.0
C2084 C 0.08732 0.04716 0.84258 0.0
C2085 C 0.08534 0.02209 0.83002 0.0
C2086 C 0.09403 0.01339 0.73626 0.0
H2087 H 0.06896 0.94721 0.70424 0.0
H2088 H 0.07615 0.96668 0.74237 0.0
H2089 H 0.09148 0.00356 0.68463 0.0
H2090 H 0.09978 0.05887 0.80388 0.0
H2091 H 0.10577 0.03843 0.76706 0.0
H2092 H 0.09851 0.99584 0.81562 0.0
C2093 C 0.08087 0.96571 0.71591 0.0
C2094 C 0.09339 0.00177 0.71303 0.0
C2095 C 0.07663 0.95463 0.69388 0.0
C2096 C 0.0961 0.04861 0.81231 0.0
C2097 C 0.09929 0.03692 0.79076 0.0
C2098 C 0.09711 0.9977 0.78705 0.0
C2099 C 0.09065 0.9757 0.70357 0.0
C2100 C 0.09409 0.988 0.72678 0.0
C2101 C 0.09371 0.02356 0.79893 0.0
C2102 C 0.09543 0.01146 0.77372 0.0
H2103 H 0.09653 0.96194 0.61978 0.0
H2104 H 0.10385 0.98175 0.65847 0.0
H2105 H 0.09724 0.97562 0.77518 0.0
H2106 H 0.07512 0.03242 0.87423 0.0
H2107 H 0.08064 0.01204 0.83684 0.0
C2108 C 0.20469 0.84501 0.07309 0.0
C2109 C 0.20515 0.83471 0.10032 0.0
C2110 C 0.21625 0.84699 0.05007 0.0
C2111 C 0.24509 0.82595 0.01293 0.0
H2112 H 0.25923 0.86112 0.97389 0.0
C2113 C 0.28397 0.82516 0.89592 0.0
C2114 C 0.29622 0.83321 0.90079 0.0
C2115 C 0.27211 0.82749 0.9174 0.0
C2116 C 0.25537 0.85123 0.98458 0.0
H2117 H 0.21837 0.81912 0.12629 0.0
H2118 H 0.23854 0.82272 0.0867 0.0
H2119 H 0.24085 0.86149 0.02048 0.0
H2120 H 0.30562 0.85014 0.93172 0.0
H2121 H 0.28481 0.85437 0.96893 0.0
H2122 H 0.25955 0.81563 0.97766 0.0
C2123 C 0.22921 0.82911 0.08267 0.0
C2124 C 0.24483 0.85144 0.01112 0.0
C2125 C 0.2177 0.82712 0.10553 0.0
C2126 C 0.29615 0.84414 0.92634 0.0
C2127 C 0.28426 0.84646 0.94795 0.0
C2128 C 0.25548 0.82574 0.98637 0.0
C2129 C 0.22843 0.83866 0.05378 0.0
C2130 C 0.23967 0.83878 0.0258 0.0
C2131 C 0.2723 0.8378 0.94462 0.0
C2132 C 0.26077 0.83835 0.97183 0.0
H2133 H 0.1951 0.8508 0.06773 0.0
H2134 H 0.21529 0.85437 0.02796 0.0
H2135 H 0.2412 0.816 0.02318 0.0
H2136 H 0.28382 0.81657 0.87669 0.0
H2137 H 0.26298 0.82077 0.91376 0.0
C2138 C 0.40799 0.95662 0.32608 0.0
C2139 C 0.4182 0.95704 0.35349 0.0
C2140 C 0.4058 0.96832 0.30379 0.0
C2141 C 0.4265 0.99746 0.26771 0.0
H2142 H 0.39125 0.01055 0.22667 0.0
C2143 C 0.42684 0.03346 0.14494 0.0
C2144 C 0.4189 0.04589 0.148 0.0
C2145 C 0.42463 0.02224 0.16859 0.0
C2146 C 0.40116 0.007 0.23798 0.0
H2147 H 0.4337 0.97014 0.38006 0.0
H2148 H 0.42974 0.99066 0.34165 0.0
H2149 H 0.39099 0.9927 0.2746 0.0
H2150 H 0.402 0.05605 0.17758 0.0
H2151 H 0.39801 0.03634 0.21862 0.0
H2152 H 0.43671 0.01161 0.23138 0.0
C2153 C 0.42346 0.98129 0.3372 0.0
C2154 C 0.40101 0.99677 0.26529 0.0
C2155 C 0.42564 0.9696 0.35941 0.0
C2156 C 0.40807 0.04651 0.17385 0.0
C2157 C 0.40585 0.03524 0.19759 0.0
C2158 C 0.42664 0.00752 0.24034 0.0
C2159 C 0.41391 0.9806 0.30825 0.0
C2160 C 0.41371 0.99192 0.28049 0.0
C2161 C 0.41449 0.02322 0.19607 0.0
C2162 C 0.414 0.01237 0.22498 0.0
H2163 H 0.40251 0.94691 0.31985 0.0
H2164 H 0.39851 0.96739 0.28147 0.0
H2165 H 0.43648 0.9938 0.27835 0.0
H2166 H 0.43526 0.03268 0.12531 0.0
H2167 H 0.43128 0.01301 0.1663 0.0
C2168 C 0.71704 0.8254 0.39456 0.0
C2169 C 0.70445 0.833 0.39893 0.0
C2170 C 0.7283 0.82733 0.41826 0.0
C2171 C 0.74342 0.84982 0.48992 0.0
H2172 H 0.75792 0.81415 0.525 0.0
C2173 C 0.79469 0.84268 0.57484 0.0
C2174 C 0.79469 0.83197 0.60099 0.0
C2175 C 0.78278 0.84497 0.55326 0.0
C2176 C 0.7539 0.82422 0.51584 0.0
H2177 H 0.69404 0.84897 0.43116 0.0
H2178 H 0.71383 0.85251 0.47226 0.0
H2179 H 0.73973 0.81433 0.47898 0.0
H2180 H 0.78215 0.81568 0.62612 0.0
H2181 H 0.76129 0.81979 0.58899 0.0
H2182 H 0.75776 0.85965 0.52704 0.0
C2183 C 0.715 0.84515 0.45016 0.0
C2184 C 0.74361 0.82432 0.48903 0.0
C2185 C 0.70368 0.8432 0.42637 0.0
C2186 C 0.78235 0.82411 0.60644 0.0
C2187 C 0.77048 0.82638 0.58495 0.0
C2188 C 0.75388 0.84972 0.51667 0.0
C2189 C 0.72723 0.83687 0.4471 0.0
C2190 C 0.73828 0.83709 0.47557 0.0
C2191 C 0.77074 0.83646 0.55718 0.0
C2192 C 0.75921 0.83689 0.52996 0.0
H2193 H 0.71796 0.81748 0.37367 0.0
H2194 H 0.73768 0.82097 0.41478 0.0
H2195 H 0.73951 0.85982 0.48008 0.0
H2196 H 0.80422 0.84851 0.56894 0.0
H2197 H 0.78339 0.85269 0.53183 0.0
C2198 C 0.922 0.96815 0.13548 0.0
C2199 C 0.91474 0.95557 0.14246 0.0
C2200 C 0.919 0.98035 0.1551 0.0
C2201 C 0.90622 0.99065 0.24458 0.0
H2202 H 0.91081 0.02829 0.2058 0.0
C2203 C 0.90931 0.04087 0.335 0.0
C2204 C 0.92101 0.04939 0.32698 0.0
C2205 C 0.9053 0.03 0.31142 0.0
C2206 C 0.90944 0.01785 0.21704 0.0
H2207 H 0.89863 0.94587 0.17557 0.0
H2208 H 0.89306 0.96729 0.2092 0.0
H2209 H 0.90902 0.00827 0.16485 0.0
H2210 H 0.93746 0.05344 0.28779 0.0
H2211 H 0.9305 0.03471 0.24697 0.0
H2212 H 0.90708 1.00025 0.29684 0.0
C2213 C 0.90104 0.96775 0.18839 0.0
C2214 C 0.90844 0.00637 0.19358 0.0
C2215 C 0.90403 0.95554 0.16859 0.0
C2216 C 0.92844 0.04701 0.29483 0.0
C2217 C 0.92435 0.03636 0.2712 0.0
C2218 C 0.90716 0.00216 0.26807 0.0
C2219 C 0.90876 0.98021 0.18254 0.0
C2220 C 0.90729 0.99257 0.20706 0.0
C2221 C 0.9128 0.02767 0.27921 0.0
C2222 C 0.90926 0.01583 0.25456 0.0
H2223 H 0.93049 0.96837 0.11597 0.0
H2224 H 0.92533 0.98965 0.15019 0.0
H2225 H 0.90548 0.98017 0.25598 0.0
H2226 H 0.90348 0.04238 0.35976 0.0
H2227 H 0.89637 0.02344 0.31832 0.0
C2228 C 0.79749 0.15894 0.92204 0.0
C2229 C 0.79702 0.16853 0.89321 0.0
C2230 C 0.7857 0.15701 0.94421 0.0
C2231 C 0.75569 0.1777 0.97593 0.0
H2232 H 0.74302 0.14298 0.02052 0.0
C2233 C 0.71739 0.17954 0.09411 0.0
C2234 C 0.70541 0.17096 0.09094 0.0
C2235 C 0.72915 0.17724 0.07229 0.0
C2236 C 0.74645 0.15274 0.00823 0.0
H2237 H 0.78378 0.18317 0.86405 0.0
H2238 H 0.76312 0.17964 0.90222 0.0
H2239 H 0.76149 0.14226 0.97421 0.0
H2240 H 0.69641 0.15313 0.06265 0.0
H2241 H 0.71709 0.14892 0.02495 0.0
H2242 H 0.74076 0.18822 0.0095 0.0
C2243 C 0.77259 0.17367 0.90792 0.0
C2244 C 0.75704 0.15234 0.98184 0.0
C2245 C 0.78436 0.1756 0.88585 0.0
C2246 C 0.70569 0.15956 0.06678 0.0
C2247 C 0.71749 0.15725 0.04485 0.0
C2248 C 0.74526 0.17811 0.00235 0.0
C2249 C 0.77328 0.16477 0.93817 0.0
C2250 C 0.76173 0.16483 0.96531 0.0
C2251 C 0.72914 0.1664 0.04646 0.0
C2252 C 0.74053 0.16567 0.01895 0.0
H2253 H 0.80726 0.15379 0.92931 0.0
H2254 H 0.78664 0.15022 0.96752 0.0
H2255 H 0.75921 0.18755 0.96422 0.0
H2256 H 0.71737 0.18849 0.11225 0.0
H2257 H 0.73805 0.18434 0.07458 0.0
C2258 C 0.59663 0.04747 0.66728 0.0
C2259 C 0.58657 0.04668 0.63957 0.0
C2260 C 0.59982 0.03558 0.68808 0.0
C2261 C 0.59496 0.99669 0.69373 0.0
H2262 H 0.59288 0.00332 0.79672 0.0
C2263 C 0.57535 0.95494 0.79208 0.0
C2264 C 0.58162 0.95345 0.82615 0.0
C2265 C 0.57941 0.96573 0.76891 0.0
C2266 C 0.59379 0.00128 0.76811 0.0
H2267 H 0.57214 0.03289 0.61147 0.0
H2268 H 0.57773 0.01211 0.64742 0.0
H2269 H 0.5941 0.02329 0.75543 0.0
H2270 H 0.59711 0.96218 0.86273 0.0
H2271 H 0.60422 0.98135 0.82195 0.0
H2272 H 0.59406 0.97471 0.70636 0.0
C2273 C 0.58338 0.0218 0.6528 0.0
C2274 C 0.5945 0.01274 0.74438 0.0
C2275 C 0.58015 0.03369 0.63219 0.0
C2276 C 0.5922 0.963 0.83649 0.0
C2277 C 0.59619 0.97399 0.81327 0.0
C2278 C 0.59425 0.98527 0.71741 0.0
C2279 C 0.59297 0.02268 0.68166 0.0
C2280 C 0.59463 0.01058 0.70685 0.0
C2281 C 0.58981 0.97546 0.77919 0.0
C2282 C 0.59318 0.98744 0.75481 0.0
H2283 H 0.60136 0.05746 0.67453 0.0
H2284 H 0.60727 0.03662 0.71003 0.0
H2285 H 0.59532 0.99466 0.66504 0.0
H2286 H 0.56722 0.94771 0.7832 0.0
H2287 H 0.57409 0.96668 0.74319 0.0
C2288 C 0.70406 0.65824 0.92483 0.0
C2289 C 0.70373 0.66934 0.89978 0.0
C2290 C 0.71611 0.6559 0.94588 0.0
C2291 C 0.74498 0.67671 0.98376 0.0
H2292 H 0.76019 0.64094 0.01599 0.0
C2293 C 0.78468 0.67535 0.09889 0.0
C2294 C 0.79701 0.6676 0.09247 0.0
C2295 C 0.77275 0.67336 0.07742 0.0
C2296 C 0.75605 0.65099 0.00717 0.0
H2297 H 0.71584 0.68621 0.8758 0.0
H2298 H 0.73695 0.68196 0.91178 0.0
H2299 H 0.74137 0.64136 0.97057 0.0
H2300 H 0.8065 0.65154 0.05884 0.0
H2301 H 0.78559 0.64792 0.02149 0.0
H2302 H 0.75958 0.68642 0.01978 0.0
C2303 C 0.72791 0.67515 0.91555 0.0
C2304 C 0.74525 0.65123 0.9813 0.0
C2305 C 0.71589 0.6775 0.89467 0.0
C2306 C 0.79698 0.65729 0.0653 0.0
C2307 C 0.78503 0.65532 0.04365 0.0
C2308 C 0.75564 0.67647 0.00963 0.0
C2309 C 0.72797 0.6647 0.94243 0.0
C2310 C 0.73966 0.66412 0.96916 0.0
C2311 C 0.77297 0.66373 0.04862 0.0
C2312 C 0.7613 0.66363 0.02178 0.0
H2313 H 0.69467 0.65213 0.93034 0.0
H2314 H 0.71576 0.64786 0.96658 0.0
H2315 H 0.74077 0.68682 0.97554 0.0
H2316 H 0.7845 0.68346 0.11943 0.0
H2317 H 0.76355 0.67984 0.08237 0.0
C2318 C 0.57734 0.54705 0.31002 0.0
C2319 C 0.58238 0.54798 0.3455 0.0
C2320 C 0.58154 0.53608 0.28756 0.0
C2321 C 0.59288 0.4996 0.28916 0.0
H2322 H 0.59928 0.50628 0.18735 0.0
C2323 C 0.59554 0.4536 0.18739 0.0
C2324 C 0.58716 0.45552 0.15655 0.0
C2325 C 0.59874 0.46502 0.20985 0.0
C2326 C 0.59752 0.50422 0.2157 0.0
H2327 H 0.59599 0.53834 0.38525 0.0
H2328 H 0.60323 0.51871 0.3458 0.0
H2329 H 0.59818 0.52617 0.2289 0.0
H2330 H 0.57564 0.4708 0.12491 0.0
H2331 H 0.58119 0.49073 0.1639 0.0
H2332 H 0.59156 0.47769 0.27576 0.0
C2333 C 0.59605 0.52662 0.3355 0.0
C2334 C 0.59693 0.5156 0.23951 0.0
C2335 C 0.59197 0.53782 0.35798 0.0
C2336 C 0.58235 0.4691 0.14813 0.0
C2337 C 0.58558 0.48051 0.17046 0.0
C2338 C 0.59343 0.48818 0.26529 0.0
C2339 C 0.59082 0.52564 0.30004 0.0
C2340 C 0.59414 0.51346 0.27631 0.0
C2341 C 0.59356 0.47857 0.20205 0.0
C2342 C 0.5953 0.4904 0.22808 0.0
H2343 H 0.57004 0.55482 0.29957 0.0
H2344 H 0.57715 0.53555 0.26066 0.0
H2345 H 0.59061 0.49761 0.3173 0.0
H2346 H 0.5989 0.44318 0.19546 0.0
H2347 H 0.60492 0.46315 0.23392 0.0
C2348 C 0.71929 0.32555 0.6029 0.0
C2349 C 0.7069 0.33342 0.5983 0.0
C2350 C 0.73089 0.32772 0.58038 0.0
C2351 C 0.74718 0.35107 0.51237 0.0
H2352 H 0.76044 0.3158 0.47188 0.0
C2353 C 0.79782 0.34392 0.42453 0.0
C2354 C 0.79697 0.33421 0.39598 0.0
C2355 C 0.78627 0.34605 0.44744 0.0
C2356 C 0.7568 0.32575 0.48269 0.0
H2357 H 0.69698 0.34979 0.56641 0.0
H2358 H 0.71741 0.3539 0.52781 0.0
H2359 H 0.7423 0.31553 0.51816 0.0
H2360 H 0.78323 0.31962 0.36814 0.0
H2361 H 0.76308 0.32339 0.40788 0.0
H2362 H 0.76184 0.36123 0.47665 0.0
C2363 C 0.71823 0.34623 0.54932 0.0
C2364 C 0.74654 0.32559 0.50959 0.0
C2365 C 0.70657 0.344 0.57179 0.0
C2366 C 0.78415 0.32724 0.38974 0.0
C2367 C 0.77266 0.32933 0.41265 0.0
C2368 C 0.75764 0.35122 0.48563 0.0
C2369 C 0.73032 0.33776 0.55256 0.0
C2370 C 0.7416 0.33822 0.52479 0.0
C2371 C 0.77375 0.33837 0.44251 0.0
C2372 C 0.76248 0.33855 0.47035 0.0
H2373 H 0.71976 0.31721 0.62279 0.0
H2374 H 0.74012 0.32113 0.58378 0.0
H2375 H 0.74357 0.36096 0.52359 0.0
H2376 H 0.80767 0.34907 0.43093 0.0
H2377 H 0.78748 0.35297 0.47044 0.0
C2378 C 0.90425 0.45415 0.82096 0.0
C2379 C 0.91447 0.45565 0.84809 0.0
C2380 C 0.901 0.46545 0.79818 0.0
C2381 C 0.90592 0.50402 0.78433 0.0
H2382 H 0.90664 0.49393 0.68309 0.0
C2383 C 0.90462 0.54651 0.67307 0.0
C2384 C 0.91514 0.54499 0.64668 0.0
C2385 C 0.90138 0.53536 0.69636 0.0
C2386 C 0.90635 0.49692 0.71124 0.0
H2387 H 0.92905 0.47016 0.87318 0.0
H2388 H 0.92336 0.48992 0.83366 0.0
H2389 H 0.9066 0.47544 0.72869 0.0
H2390 H 0.93014 0.53044 0.62323 0.0
H2391 H 0.92446 0.51099 0.66358 0.0
H2392 H 0.90633 0.52551 0.76683 0.0
C2393 C 0.91765 0.48012 0.83028 0.0
C2394 C 0.90617 0.48632 0.73742 0.0
C2395 C 0.92094 0.46881 0.85293 0.0
C2396 C 0.92189 0.53189 0.64307 0.0
C2397 C 0.91859 0.52073 0.66616 0.0
C2398 C 0.90604 0.51462 0.75812 0.0
C2399 C 0.90796 0.47845 0.8019 0.0
C2400 C 0.90627 0.48974 0.77431 0.0
C2401 C 0.90857 0.52244 0.69372 0.0
C2402 C 0.90658 0.5112 0.72127 0.0
H2403 H 0.89948 0.44401 0.81558 0.0
H2404 H 0.89343 0.46382 0.77673 0.0
H2405 H 0.90587 0.50701 0.81249 0.0
H2406 H 0.89945 0.55653 0.67728 0.0
H2407 H 0.89354 0.537 0.71715 0.0
C2408 C 0.2187 0.32595 0.89221 0.0
C2409 C 0.20618 0.33342 0.89848 0.0
C2410 C 0.23054 0.32818 0.91387 0.0
C2411 C 0.24664 0.35094 0.98411 0.0
H2412 H 0.26172 0.31542 0.01849 0.0
C2413 C 0.29722 0.34425 0.0729 0.0
C2414 C 0.29674 0.33365 0.09938 0.0
C2415 C 0.28577 0.34634 0.04961 0.0
C2416 C 0.25758 0.32544 0.00938 0.0
H2417 H 0.19628 0.3492 0.93223 0.0
H2418 H 0.21703 0.35333 0.96963 0.0
H2419 H 0.24348 0.31542 0.9726 0.0
H2420 H 0.28359 0.31758 0.12363 0.0
H2421 H 0.26364 0.32132 0.08338 0.0
H2422 H 0.26082 0.36089 0.02146 0.0
C2423 C 0.21781 0.34596 0.94745 0.0
C2424 C 0.24725 0.32545 0.98265 0.0
C2425 C 0.20594 0.3437 0.92573 0.0
C2426 C 0.28429 0.32582 0.10347 0.0
C2427 C 0.2729 0.32789 0.08026 0.0
C2428 C 0.25714 0.35093 0.01077 0.0
C2429 C 0.23006 0.33783 0.9426 0.0
C2430 C 0.24161 0.33817 0.96972 0.0
C2431 C 0.2737 0.3378 0.05222 0.0
C2432 C 0.2626 0.33815 0.02393 0.0
H2433 H 0.21911 0.31785 0.87167 0.0
H2434 H 0.23988 0.32189 0.90913 0.0
H2435 H 0.24249 0.36091 0.97466 0.0
H2436 H 0.30676 0.35023 0.06835 0.0
H2437 H 0.28674 0.354 0.02812 0.0
C2438 C 0.40432 0.5456 0.82485 0.0
C2439 C 0.41452 0.54492 0.85227 0.0
C2440 C 0.40118 0.53368 0.80413 0.0
C2441 C 0.40657 0.49487 0.79819 0.0
H2442 H 0.40835 0.50161 0.6952 0.0
C2443 C 0.42711 0.45374 0.6996 0.0
C2444 C 0.42072 0.45201 0.66575 0.0
C2445 C 0.42282 0.46445 0.72276 0.0
C2446 C 0.40752 0.49954 0.72382 0.0
H2447 H 0.42922 0.53129 0.87996 0.0
H2448 H 0.42373 0.51046 0.84413 0.0
H2449 H 0.40683 0.52153 0.73662 0.0
H2450 H 0.40483 0.46019 0.62949 0.0
H2451 H 0.39735 0.47926 0.67021 0.0
H2452 H 0.40788 0.47291 0.78543 0.0
C2453 C 0.41794 0.52008 0.83893 0.0
C2454 C 0.40664 0.51096 0.74761 0.0
C2455 C 0.42112 0.532 0.85946 0.0
C2456 C 0.40985 0.46123 0.65555 0.0
C2457 C 0.40563 0.47215 0.67874 0.0
C2458 C 0.40746 0.48348 0.77444 0.0
C2459 C 0.40822 0.52086 0.81034 0.0
C2460 C 0.40663 0.50876 0.78513 0.0
C2461 C 0.41209 0.47384 0.71265 0.0
C2462 C 0.40844 0.48571 0.73706 0.0
H2463 H 0.39945 0.55553 0.81775 0.0
H2464 H 0.39363 0.53463 0.78239 0.0
H2465 H 0.4063 0.4928 0.82688 0.0
H2466 H 0.43546 0.44675 0.70838 0.0
H2467 H 0.4282 0.46559 0.74834 0.0
C2468 C 0.28373 0.67729 0.39238 0.0
C2469 C 0.29604 0.66936 0.39751 0.0
C2470 C 0.27188 0.67496 0.41389 0.0
C2471 C 0.25538 0.65148 0.48203 0.0
H2472 H 0.24116 0.68685 0.51965 0.0
C2473 C 0.20494 0.65797 0.57113 0.0
C2474 C 0.20542 0.66841 0.59798 0.0
C2475 C 0.21644 0.6559 0.54802 0.0
C2476 C 0.24507 0.67686 0.50968 0.0
H2477 H 0.30555 0.6526 0.42881 0.0
H2478 H 0.28477 0.64837 0.46614 0.0
H2479 H 0.25938 0.68706 0.47381 0.0
H2480 H 0.21862 0.6842 0.6232 0.0
H2481 H 0.23871 0.68046 0.58344 0.0
H2482 H 0.24101 0.64135 0.51857 0.0
C2483 C 0.28416 0.65619 0.44494 0.0
C2484 C 0.25538 0.67698 0.48293 0.0
C2485 C 0.29603 0.65851 0.42328 0.0
C2486 C 0.21793 0.67609 0.60273 0.0
C2487 C 0.2294 0.67402 0.57978 0.0
C2488 C 0.24492 0.65137 0.50877 0.0
C2489 C 0.27215 0.66478 0.4414 0.0
C2490 C 0.26068 0.66432 0.46874 0.0
C2491 C 0.22859 0.66431 0.55126 0.0
C2492 C 0.23975 0.66408 0.5231 0.0
H2493 H 0.28353 0.68581 0.37295 0.0
H2494 H 0.26271 0.6816 0.41008 0.0
H2495 H 0.25926 0.64155 0.47162 0.0
H2496 H 0.19536 0.6521 0.56613 0.0
H2497 H 0.21546 0.6484 0.52618 0.0
C2498 C 0.09783 0.5456 0.1712 0.0
C2499 C 0.08704 0.5453 0.14528 0.0
C2500 C 0.10106 0.53352 0.19125 0.0
C2501 C 0.09418 0.49484 0.19781 0.0
H2502 H 0.09599 0.50151 0.30081 0.0
C2503 C 0.07493 0.45471 0.3012 0.0
C2504 C 0.08255 0.45253 0.33315 0.0
C2505 C 0.07886 0.46522 0.27702 0.0
C2506 C 0.0958 0.49945 0.27211 0.0
H2507 H 0.07137 0.53218 0.1195 0.0
H2508 H 0.07694 0.51113 0.15427 0.0
H2509 H 0.09715 0.52139 0.25925 0.0
H2510 H 0.10028 0.45971 0.36497 0.0
H2511 H 0.1071 0.47845 0.32258 0.0
H2512 H 0.09212 0.47296 0.21086 0.0
C2513 C 0.08316 0.52053 0.15876 0.0
C2514 C 0.09648 0.51085 0.24821 0.0
C2515 C 0.07992 0.5326 0.13884 0.0
C2516 C 0.09429 0.4611 0.34039 0.0
C2517 C 0.09814 0.47184 0.31627 0.0
C2518 C 0.09344 0.48348 0.22168 0.0
C2519 C 0.0935 0.52093 0.18594 0.0
C2520 C 0.09523 0.50872 0.2108 0.0
C2521 C 0.09044 0.47397 0.28428 0.0
C2522 C 0.09378 0.4857 0.25912 0.0
H2523 H 0.10311 0.55537 0.1778 0.0
H2524 H 0.10912 0.53419 0.21185 0.0
H2525 H 0.09349 0.49278 0.16917 0.0
H2526 H 0.06587 0.44823 0.29475 0.0
H2527 H 0.07257 0.46673 0.25296 0.0
C2528 C 0.14033 0.22171 0.34963 0.0
C2529 C 0.12899 0.2125 0.34312 0.0
C2530 C 0.138 0.23614 0.35417 0.0
C2531 C 0.11224 0.26472 0.33877 0.0
H2532 H 0.12993 0.28184 0.42217 0.0
C2533 C 0.09506 0.31912 0.39217 0.0
C2534 C 0.10559 0.32829 0.40482 0.0
C2535 C 0.09828 0.30515 0.38357 0.0
C2536 C 0.12506 0.27731 0.39846 0.0
H2537 H 0.10638 0.2114 0.33458 0.0
H2538 H 0.10236 0.23658 0.3423 0.0
H2539 H 0.13519 0.25743 0.40694 0.0
H2540 H 0.12776 0.32995 0.41846 0.0
H2541 H 0.13341 0.30566 0.40294 0.0
H2542 H 0.10212 0.28458 0.33019 0.0
C2543 C 0.11305 0.23262 0.34392 0.0
C2544 C 0.12808 0.26331 0.38974 0.0
C2545 C 0.11536 0.21817 0.33963 0.0
C2546 C 0.11938 0.32314 0.40898 0.0
C2547 C 0.12261 0.30918 0.4002 0.0
C2548 C 0.10928 0.27875 0.34735 0.0
C2549 C 0.1243 0.24172 0.352 0.0
C2550 C 0.12163 0.25682 0.35996 0.0
C2551 C 0.11211 0.30002 0.38721 0.0
C2552 C 0.11556 0.28519 0.37749 0.0
H2553 H 0.15097 0.21772 0.35243 0.0
H2554 H 0.1469 0.24293 0.35988 0.0
H2555 H 0.10723 0.26006 0.31541 0.0
H2556 H 0.08431 0.32273 0.38875 0.0
H2557 H 0.08987 0.29834 0.37428 0.0
C2558 C 0.93244 0.84266 0.62476 0.0
C2559 C 0.92299 0.85338 0.63472 0.0
C2560 C 0.94658 0.84575 0.61781 0.0
C2561 C 0.97067 0.87489 0.59402 0.0
H2562 H 0.99936 0.84972 0.63132 0.0
C2563 C 0.03035 0.88834 0.59464 0.0
C2564 C 0.0399 0.87725 0.58866 0.0
C2565 C 0.01589 0.88568 0.59745 0.0
C2566 C 0.99148 0.85676 0.62023 0.0
H2567 H 0.92101 0.87579 0.64507 0.0
H2568 H 0.94573 0.88116 0.63322 0.0
H2569 H 0.97461 0.84461 0.64245 0.0
H2570 H 0.04161 0.85475 0.57896 0.0
H2571 H 0.01644 0.85018 0.5832 0.0
H2572 H 0.9876 0.88707 0.5719 0.0
C2573 C 0.94215 0.87038 0.63044 0.0
C2574 C 0.97729 0.85383 0.62668 0.0
C2575 C 0.92801 0.86728 0.63747 0.0
C2576 C 0.03459 0.86354 0.58393 0.0
C2577 C 0.02015 0.86089 0.58662 0.0
C2578 C 0.9849 0.87781 0.5875 0.0
C2579 C 0.95161 0.85964 0.6206 0.0
C2580 C 0.9667 0.86284 0.61364 0.0
C2581 C 0.01065 0.87186 0.59424 0.0
C2582 C 0.99548 0.86876 0.60049 0.0
H2583 H 0.92892 0.83185 0.62218 0.0
H2584 H 0.95354 0.83726 0.60984 0.0
H2585 H 0.96275 0.88195 0.58324 0.0
H2586 H 0.03408 0.89903 0.59847 0.0
H2587 H 0.00888 0.89436 0.60354 0.0
C2588 C 0.38092 0.6786 0.8856 0.0
C2589 C 0.39462 0.67311 0.88245 0.0
C2590 C 0.37831 0.69287 0.87903 0.0
C2591 C 0.39612 0.72737 0.87651 0.0
H2592 H 0.36308 0.73927 0.82304 0.0
C2593 C 0.38785 0.78541 0.83762 0.0
C2594 C 0.37425 0.79098 0.84251 0.0
C2595 C 0.39019 0.7709 0.83966 0.0
C2596 C 0.37229 0.73612 0.83829 0.0
H2597 H 0.41632 0.6783 0.86954 0.0
H2598 H 0.41176 0.70314 0.85801 0.0
H2599 H 0.3674 0.71418 0.8328 0.0
H2600 H 0.35235 0.78555 0.85222 0.0
H2601 H 0.35647 0.76026 0.85621 0.0
H2602 H 0.40096 0.74924 0.88243 0.0
C2603 C 0.40305 0.69645 0.86595 0.0
C2604 C 0.37476 0.72175 0.84389 0.0
C2605 C 0.40565 0.68219 0.87242 0.0
C2606 C 0.36296 0.78164 0.84827 0.0
C2607 C 0.36532 0.76711 0.85042 0.0
C2608 C 0.39364 0.74171 0.87099 0.0
C2609 C 0.38937 0.70198 0.86927 0.0
C2610 C 0.38671 0.71722 0.86307 0.0
C2611 C 0.379 0.76159 0.84676 0.0
C2612 C 0.3817 0.74628 0.85181 0.0
H2613 H 0.37219 0.67188 0.89326 0.0
H2614 H 0.36768 0.69684 0.88219 0.0
H2615 H 0.4053 0.72424 0.89193 0.0
H2616 H 0.39678 0.79228 0.83286 0.0
H2617 H 0.40081 0.76699 0.83598 0.0
C2618 C 0.47076 0.11339 0.09674 0.0
C2619 C 0.46113 0.12463 0.09443 0.0
C2620 C 0.4852 0.11597 0.10022 0.0
C2621 C 0.51277 0.14307 0.08861 0.0
H2622 H 0.53222 0.12194 0.16298 0.0
C2623 C 0.56831 0.15851 0.13787 0.0
C2624 C 0.5779 0.14761 0.14535 0.0
C2625 C 0.55417 0.15551 0.13072 0.0
C2626 C 0.52702 0.1278 0.14176 0.0
H2627 H 0.45925 0.14741 0.09244 0.0
H2628 H 0.48446 0.15188 0.09844 0.0
H2629 H 0.50753 0.11696 0.15027 0.0
H2630 H 0.58014 0.12498 0.15125 0.0
H2631 H 0.55551 0.11972 0.13829 0.0
H2632 H 0.53226 0.1539 0.08002 0.0
C2633 C 0.48081 0.14107 0.0975 0.0
C2634 C 0.51286 0.12494 0.13448 0.0
C2635 C 0.46636 0.1385 0.09418 0.0
C2636 C 0.57301 0.13364 0.14581 0.0
C2637 C 0.55886 0.13063 0.13849 0.0
C2638 C 0.52696 0.14588 0.09576 0.0
C2639 C 0.49036 0.12984 0.10128 0.0
C2640 C 0.50555 0.13258 0.10794 0.0
C2641 C 0.54928 0.14152 0.1307 0.0
C2642 C 0.53425 0.13834 0.12258 0.0
H2643 H 0.46714 0.10257 0.09689 0.0
H2644 H 0.49231 0.10709 0.10251 0.0
H2645 H 0.50747 0.14902 0.06771 0.0
H2646 H 0.57172 0.1694 0.13742 0.0
H2647 H 0.54704 0.16419 0.12547 0.0
C2648 C 0.13871 0.78195 0.14922 0.0
C2649 C 0.12718 0.79118 0.15251 0.0
C2650 C 0.13659 0.76741 0.14635 0.0
C2651 C 0.11066 0.73898 0.16182 0.0
H2652 H 0.13086 0.71993 0.08517 0.0
C2653 C 0.09554 0.68306 0.11444 0.0
C2654 C 0.10646 0.67377 0.1049 0.0
C2655 C 0.0984 0.69723 0.12169 0.0
C2656 C 0.12528 0.72501 0.10706 0.0
H2657 H 0.10439 0.79224 0.15688 0.0
H2658 H 0.10073 0.76689 0.15204 0.0
H2659 H 0.13544 0.74476 0.09699 0.0
H2660 H 0.12897 0.67208 0.09572 0.0
H2661 H 0.13399 0.69672 0.10893 0.0
H2662 H 0.10051 0.71925 0.17197 0.0
C2663 C 0.11141 0.77091 0.1517 0.0
C2664 C 0.1279 0.73926 0.11381 0.0
C2665 C 0.11352 0.78546 0.15432 0.0
C2666 C 0.1203 0.67897 0.10275 0.0
C2667 C 0.12317 0.69313 0.11019 0.0
C2668 C 0.10808 0.7247 0.15521 0.0
C2669 C 0.1229 0.76175 0.14698 0.0
C2670 C 0.12056 0.74643 0.1411 0.0
C2671 C 0.11226 0.70245 0.11979 0.0
C2672 C 0.11528 0.71755 0.12755 0.0
H2673 H 0.14939 0.78596 0.14778 0.0
H2674 H 0.14567 0.7606 0.14324 0.0
H2675 H 0.10495 0.74418 0.18331 0.0
H2676 H 0.08475 0.67941 0.11625 0.0
H2677 H 0.0897 0.70413 0.12839 0.0
C2678 C 0.46604 0.86464 0.40906 0.0
C2679 C 0.46052 0.87836 0.40637 0.0
C2680 C 0.48055 0.8623 0.40653 0.0
C2681 C 0.51222 0.87799 0.36684 0.0
H2682 H 0.53215 0.85063 0.42535 0.0
C2683 C 0.57221 0.86929 0.3532 0.0
C2684 C 0.57719 0.85538 0.35539 0.0
C2685 C 0.55818 0.87244 0.36143 0.0
C2686 C 0.52671 0.85819 0.40851 0.0
H2687 H 0.46605 0.90043 0.40046 0.0
H2688 H 0.49136 0.89631 0.39613 0.0
H2689 H 0.50737 0.85561 0.43761 0.0
H2690 H 0.57131 0.83383 0.36778 0.0
H2691 H 0.54678 0.83926 0.38132 0.0
H2692 H 0.53139 0.88038 0.3372 0.0
C2693 C 0.48442 0.88737 0.39979 0.0
C2694 C 0.51253 0.86108 0.41564 0.0
C2695 C 0.46991 0.88972 0.40252 0.0
C2696 C 0.56782 0.84467 0.36588 0.0
C2697 C 0.55377 0.84781 0.37394 0.0
C2698 C 0.52637 0.87505 0.35958 0.0
C2699 C 0.48987 0.87361 0.40108 0.0
C2700 C 0.50511 0.87097 0.3948 0.0
C2701 C 0.54877 0.86174 0.37188 0.0
C2702 C 0.53379 0.86507 0.3802 0.0
H2703 H 0.45913 0.85563 0.41208 0.0
H2704 H 0.48442 0.85156 0.40741 0.0
H2705 H 0.50674 0.88549 0.34989 0.0
H2706 H 0.57917 0.87781 0.34545 0.0
H2707 H 0.55477 0.88332 0.36005 0.0
C2708 C 0.38897 0.21574 0.65015 0.0
C2709 C 0.3751 0.21049 0.6493 0.0
C2710 C 0.39154 0.23018 0.64657 0.0
C2711 C 0.37573 0.26205 0.60787 0.0
H2712 H 0.40384 0.28177 0.66445 0.0
C2713 C 0.38401 0.32219 0.59629 0.0
C2714 C 0.39792 0.32724 0.59793 0.0
C2715 C 0.38105 0.30805 0.60362 0.0
C2716 C 0.39607 0.27638 0.64811 0.0
H2717 H 0.35305 0.21644 0.64534 0.0
H2718 H 0.35758 0.24158 0.63918 0.0
H2719 H 0.399 0.25697 0.67664 0.0
H2720 H 0.41966 0.32134 0.60806 0.0
H2721 H 0.41454 0.29665 0.62001 0.0
H2722 H 0.37294 0.28131 0.57888 0.0
C2723 C 0.36645 0.2345 0.64221 0.0
C2724 C 0.39328 0.26218 0.6552 0.0
C2725 C 0.36387 0.22008 0.64599 0.0
C2726 C 0.40881 0.31781 0.60667 0.0
C2727 C 0.40587 0.30366 0.61382 0.0
C2728 C 0.37857 0.27621 0.60064 0.0
C2729 C 0.38032 0.23968 0.64187 0.0
C2730 C 0.38308 0.25486 0.63513 0.0
C2731 C 0.39194 0.29861 0.61259 0.0
C2732 C 0.3888 0.28356 0.6206 0.0
H2733 H 0.39787 0.20867 0.65268 0.0
H2734 H 0.40235 0.23385 0.64621 0.0
H2735 H 0.36798 0.25663 0.59153 0.0
H2736 H 0.37536 0.3292 0.58988 0.0
H2737 H 0.37018 0.30457 0.60288 0.0
C2738 C 0.93044 0.13305 0.8538 0.0
C2739 C 0.92513 0.14683 0.85685 0.0
C2740 C 0.94452 0.13013 0.86212 0.0
C2741 C 0.97928 0.1472 0.87065 0.0
H2742 H 0.98923 0.11349 0.92397 0.0
C2743 C 0.03632 0.13715 0.91567 0.0
C2744 C 0.04164 0.1235 0.90991 0.0
C2745 C 0.02189 0.13985 0.91283 0.0
C2746 C 0.98663 0.12289 0.90883 0.0
H2747 H 0.93047 0.16835 0.87121 0.0
H2748 H 0.95498 0.16325 0.88576 0.0
H2749 H 0.9645 0.11847 0.91079 0.0
H2750 H 0.03581 0.10186 0.89825 0.0
H2751 H 0.01067 0.10662 0.89293 0.0
H2752 H 0.00135 0.15157 0.86821 0.0
C2753 C 0.9483 0.15472 0.87658 0.0
C2754 C 0.97247 0.12574 0.90124 0.0
C2755 C 0.93423 0.15763 0.86835 0.0
C2756 C 0.03209 0.1125 0.90289 0.0
C2757 C 0.01765 0.11522 0.89995 0.0
C2758 C 0.99342 0.14435 0.87816 0.0
C2759 C 0.95361 0.14094 0.87358 0.0
C2760 C 0.96864 0.13792 0.882 0.0
C2761 C 0.01241 0.12899 0.90407 0.0
C2762 C 0.99728 0.13216 0.89731 0.0
H2763 H 0.92371 0.12449 0.84504 0.0
H2764 H 0.94833 0.11944 0.85911 0.0
H2765 H 0.97672 0.15655 0.85526 0.0
H2766 H 0.04334 0.14586 0.92143 0.0
H2767 H 0.01818 0.15052 0.91694 0.0
C2768 C 0.88172 0.6769 0.60781 0.0
C2769 C 0.89561 0.67195 0.61148 0.0
C2770 C 0.87841 0.69093 0.61546 0.0
C2771 C 0.89186 0.72268 0.66291 0.0
H2772 H 0.86577 0.74236 0.6002 0.0
C2773 C 0.8863 0.7833 0.6595 0.0
C2774 C 0.87275 0.78907 0.65503 0.0
C2775 C 0.8884 0.76875 0.65789 0.0
C2776 C 0.87291 0.73696 0.61829 0.0
H2777 H 0.91693 0.6779 0.6261 0.0
H2778 H 0.91123 0.70244 0.63869 0.0
H2779 H 0.87091 0.71758 0.58938 0.0
H2780 H 0.8507 0.78393 0.64667 0.0
H2781 H 0.8544 0.7585 0.64388 0.0
H2782 H 0.89408 0.74222 0.69128 0.0
C2783 C 0.90282 0.69542 0.63054 0.0
C2784 C 0.87587 0.72274 0.6121 0.0
C2785 C 0.90612 0.68136 0.62304 0.0
C2786 C 0.86128 0.77987 0.65015 0.0
C2787 C 0.86341 0.7653 0.64831 0.0
C2788 C 0.88895 0.73693 0.66898 0.0
C2789 C 0.88892 0.70039 0.62681 0.0
C2790 C 0.88546 0.71543 0.63417 0.0
C2791 C 0.87703 0.75959 0.65159 0.0
C2792 C 0.87951 0.74425 0.6466 0.0
H2793 H 0.87334 0.66991 0.59921 0.0
H2794 H 0.86756 0.69433 0.6128 0.0
H2795 H 0.8991 0.71733 0.68085 0.0
H2796 H 0.89538 0.79006 0.66337 0.0
H2797 H 0.89904 0.7647 0.66024 0.0
C2798 C 0.97216 0.11329 0.40436 0.0
C2799 C 0.9624 0.12412 0.4113 0.0
C2800 C 0.98655 0.11625 0.40152 0.0
C2801 C 0.01041 0.14577 0.38014 0.0
H2802 H 0.03956 0.12002 0.41217 0.0
C2803 C 0.06963 0.1592 0.3696 0.0
C2804 C 0.07868 0.14842 0.35776 0.0
C2805 C 0.05557 0.15629 0.37798 0.0
C2806 C 0.03153 0.12725 0.4028 0.0
H2807 H 0.96029 0.14646 0.42268 0.0
H2808 H 0.9854 0.15155 0.4184 0.0
H2809 H 0.0149 0.11486 0.42557 0.0
H2810 H 0.08002 0.12612 0.34544 0.0
H2811 H 0.05544 0.12107 0.35982 0.0
H2812 H 0.027 0.15812 0.35722 0.0
C2813 C 0.98187 0.14081 0.41431 0.0
C2814 C 0.0174 0.1243 0.4105 0.0
C2815 C 0.96748 0.13786 0.41703 0.0
C2816 C 0.07334 0.13467 0.35447 0.0
C2817 C 0.05928 0.13175 0.36297 0.0
C2818 C 0.02452 0.14872 0.37253 0.0
C2819 C 0.99155 0.13011 0.40568 0.0
C2820 C 0.00666 0.1335 0.39912 0.0
C2821 C 0.05023 0.14253 0.37484 0.0
C2822 C 0.03525 0.13947 0.38359 0.0
H2823 H 0.96864 0.10258 0.39973 0.0
H2824 H 0.99368 0.10776 0.39457 0.0
H2825 H 0.00241 0.15294 0.37031 0.0
H2826 H 0.07341 0.16991 0.37261 0.0
H2827 H 0.04892 0.1648 0.38743 0.0
C2828 C 0.61386 0.21777 0.15741 0.0
C2829 C 0.62738 0.21229 0.1508 0.0
C2830 C 0.61119 0.23216 0.15361 0.0
C2831 C 0.62844 0.26715 0.14522 0.0
H2832 H 0.59361 0.27711 0.09678 0.0
C2833 C 0.61755 0.32303 0.08964 0.0
C2834 C 0.60406 0.32865 0.096 0.0
C2835 C 0.62045 0.30891 0.09746 0.0
C2836 C 0.60331 0.27452 0.11067 0.0
H2837 H 0.64884 0.2178 0.13624 0.0
H2838 H 0.64413 0.24286 0.12906 0.0
H2839 H 0.59866 0.25249 0.10992 0.0
H2840 H 0.58303 0.32381 0.11536 0.0
H2841 H 0.5881 0.29919 0.12887 0.0
H2842 H 0.63315 0.28923 0.14539 0.0
C2843 C 0.63561 0.23605 0.13762 0.0
C2844 C 0.6062 0.2604 0.11833 0.0
C2845 C 0.6383 0.22165 0.14162 0.0
C2846 C 0.59351 0.31981 0.11 0.0
C2847 C 0.5964 0.30568 0.11765 0.0
C2848 C 0.62558 0.28128 0.13741 0.0
C2849 C 0.62195 0.24144 0.1429 0.0
C2850 C 0.6188 0.25654 0.1357 0.0
C2851 C 0.60991 0.3001 0.11162 0.0
C2852 C 0.61298 0.28511 0.12002 0.0
H2853 H 0.60522 0.21089 0.16483 0.0
H2854 H 0.60062 0.236 0.15866 0.0
H2855 H 0.63816 0.26457 0.15903 0.0
H2856 H 0.62591 0.32955 0.07889 0.0
H2857 H 0.63092 0.30486 0.09212 0.0
C2858 C 0.43355 0.84512 0.86473 0.0
C2859 C 0.42414 0.85571 0.85369 0.0
C2860 C 0.44755 0.84838 0.87302 0.0
C2861 C 0.47499 0.87555 0.8589 0.0
H2862 H 0.49307 0.85713 0.93993 0.0
C2863 C 0.53095 0.89086 0.90458 0.0
C2864 C 0.54029 0.8796 0.9108 0.0
C2865 C 0.51649 0.88844 0.90086 0.0
C2866 C 0.48819 0.8623 0.9171 0.0
H2867 H 0.42209 0.87806 0.84261 0.0
H2868 H 0.44646 0.88377 0.8574 0.0
H2869 H 0.46848 0.8519 0.92603 0.0
H2870 H 0.54157 0.85703 0.91971 0.0
H2871 H 0.51637 0.85284 0.91323 0.0
H2872 H 0.49471 0.8859 0.84989 0.0
C2873 C 0.44308 0.8729 0.85921 0.0
C2874 C 0.47411 0.85927 0.90905 0.0
C2875 C 0.42908 0.86963 0.85085 0.0
C2876 C 0.53471 0.86595 0.91491 0.0
C2877 C 0.52024 0.86355 0.91131 0.0
C2878 C 0.48904 0.8786 0.86701 0.0
C2879 C 0.45247 0.86232 0.87055 0.0
C2880 C 0.46736 0.86579 0.87969 0.0
C2881 C 0.511 0.87472 0.90344 0.0
C2882 C 0.49584 0.87195 0.89608 0.0
H2883 H 0.4301 0.83428 0.86715 0.0
H2884 H 0.45454 0.83993 0.88107 0.0
H2885 H 0.4702 0.8806 0.83577 0.0
H2886 H 0.53484 0.90151 0.90142 0.0
H2887 H 0.50962 0.8973 0.89541 0.0
C2888 C 0.90838 0.31848 0.87648 0.0
C2889 C 0.89768 0.32781 0.88723 0.0
C2890 C 0.90527 0.30441 0.86862 0.0
C2891 C 0.87823 0.27688 0.8839 0.0
H2892 H 0.89735 0.25801 0.80515 0.0
C2893 C 0.8637 0.22033 0.84139 0.0
C2894 C 0.87512 0.21102 0.83696 0.0
C2895 C 0.86597 0.23484 0.84416 0.0
C2896 C 0.89198 0.26313 0.82732 0.0
H2897 H 0.87528 0.3297 0.89792 0.0
H2898 H 0.86982 0.30525 0.8837 0.0
H2899 H 0.90226 0.28281 0.81726 0.0
H2900 H 0.89782 0.2098 0.8303 0.0
H2901 H 0.90173 0.23511 0.83504 0.0
H2902 H 0.86797 0.25719 0.89395 0.0
C2903 C 0.88067 0.30872 0.88193 0.0
C2904 C 0.89482 0.27732 0.83437 0.0
C2905 C 0.8838 0.32277 0.88995 0.0
C2906 C 0.88878 0.21664 0.83377 0.0
C2907 C 0.89103 0.23117 0.83633 0.0
C2908 C 0.87534 0.26272 0.87673 0.0
C2909 C 0.89136 0.29936 0.87115 0.0
C2910 C 0.88806 0.28436 0.86293 0.0
C2911 C 0.87969 0.2404 0.84232 0.0
C2912 C 0.88225 0.25565 0.84853 0.0
H2913 H 0.9192 0.32201 0.87417 0.0
H2914 H 0.91381 0.29745 0.86098 0.0
H2915 H 0.873 0.28187 0.90646 0.0
H2916 H 0.85303 0.21639 0.84385 0.0
H2917 H 0.857 0.24171 0.84824 0.0
C2918 C 0.53214 0.11359 0.594 0.0
C2919 C 0.54156 0.12475 0.58749 0.0
C2920 C 0.51764 0.11609 0.59645 0.0
C2921 C 0.49272 0.14502 0.61637 0.0
H2922 H 0.46453 0.11816 0.58469 0.0
C2923 C 0.43316 0.15698 0.6227 0.0
C2924 C 0.42439 0.14623 0.63602 0.0
C2925 C 0.4473 0.15428 0.61485 0.0
C2926 C 0.4723 0.1257 0.59391 0.0
H2927 H 0.54301 0.14715 0.57636 0.0
H2928 H 0.51776 0.15142 0.5797 0.0
H2929 H 0.48942 0.11362 0.57249 0.0
H2930 H 0.42361 0.12417 0.65123 0.0
H2931 H 0.44835 0.11948 0.63753 0.0
H2932 H 0.47561 0.15711 0.63771 0.0
C2933 C 0.52159 0.1408 0.58396 0.0
C2934 C 0.48656 0.12311 0.58694 0.0
C2935 C 0.53608 0.13833 0.58177 0.0
C2936 C 0.43008 0.1327 0.64108 0.0
C2937 C 0.44422 0.12998 0.63299 0.0
C2938 C 0.47848 0.14764 0.62313 0.0
C2939 C 0.51221 0.12979 0.59221 0.0
C2940 C 0.49696 0.13272 0.59821 0.0
C2941 C 0.453 0.14076 0.61992 0.0
C2942 C 0.46811 0.138 0.61212 0.0
H2943 H 0.53599 0.103 0.59865 0.0
H2944 H 0.51076 0.10737 0.60313 0.0
H2945 H 0.50043 0.15251 0.62616 0.0
H2946 H 0.42911 0.16752 0.61836 0.0
H2947 H 0.45376 0.16277 0.60445 0.0
C2948 C 0.63767 0.7813 0.33846 0.0
C2949 C 0.62659 0.79097 0.33372 0.0
C2950 C 0.63494 0.76685 0.34075 0.0
C2951 C 0.60613 0.74243 0.3644 0.0
H2952 H 0.63156 0.7139 0.3275 0.0
C2953 C 0.59335 0.6831 0.3728 0.0
C2954 C 0.60436 0.67407 0.38334 0.0
C2955 C 0.59604 0.69722 0.36461 0.0
C2956 C 0.62442 0.72176 0.3382 0.0
H2957 H 0.60402 0.79291 0.32559 0.0
H2958 H 0.59932 0.76772 0.32882 0.0
H2959 H 0.63622 0.73874 0.31507 0.0
H2960 H 0.62685 0.67281 0.39331 0.0
H2961 H 0.63153 0.69749 0.37921 0.0
H2962 H 0.59436 0.72549 0.38763 0.0
C2963 C 0.61009 0.77134 0.33169 0.0
C2964 C 0.62708 0.73599 0.33107 0.0
C2965 C 0.6128 0.78579 0.32957 0.0
C2966 C 0.61813 0.67948 0.38532 0.0
C2967 C 0.62083 0.6936 0.37699 0.0
C2968 C 0.60345 0.72823 0.3714 0.0
C2969 C 0.62108 0.76171 0.33818 0.0
C2970 C 0.61799 0.74651 0.34421 0.0
C2971 C 0.60981 0.70264 0.36665 0.0
C2972 C 0.61259 0.71772 0.35854 0.0
H2973 H 0.64842 0.78491 0.34185 0.0
H2974 H 0.64365 0.75977 0.34605 0.0
H2975 H 0.59906 0.75025 0.37561 0.0
H2976 H 0.58262 0.67927 0.37081 0.0
H2977 H 0.58734 0.70386 0.35632 0.0
C2978 C 0.06776 0.84542 0.12147 0.0
C2979 C 0.07712 0.85576 0.1342 0.0
C2980 C 0.05372 0.8488 0.11402 0.0
C2981 C 0.02625 0.87536 0.13426 0.0
H2982 H 0.00726 0.85833 0.05264 0.0
C2983 C 0.96908 0.88997 0.09599 0.0
C2984 C 0.96006 0.87848 0.08971 0.0
C2985 C 0.98368 0.888 0.09811 0.0
C2986 C 0.01241 0.86313 0.07561 0.0
H2987 H 0.0791 0.87781 0.14873 0.0
H2988 H 0.05469 0.88376 0.13523 0.0
H2989 H 0.03213 0.8533 0.0633 0.0
H2990 H 0.95939 0.85598 0.0792 0.0
H2991 H 0.98477 0.85258 0.08279 0.0
H2992 H 0.0065 0.88513 0.14661 0.0
C2993 C 0.05812 0.87297 0.13158 0.0
C2994 C 0.02665 0.86021 0.08181 0.0
C2995 C 0.07214 0.86957 0.13917 0.0
C2996 C 0.96601 0.86507 0.08417 0.0
C2997 C 0.98058 0.86312 0.08603 0.0
C2998 C 0.01203 0.87833 0.12795 0.0
C2999 C 0.04872 0.86262 0.11896 0.0
C3000 C 0.03371 0.86618 0.11145 0.0
C3001 C 0.98956 0.87451 0.09367 0.0
C3002 C 0.00491 0.87213 0.09877 0.0
H3003 H 0.07125 0.83466 0.11741 0.0
H3004 H 0.04673 0.84052 0.10489 0.0
H3005 H 0.03128 0.87998 0.15763 0.0
H3006 H 0.96487 0.90044 0.10035 0.0
H3007 H 0.99035 0.897 0.1036 0.0
C3008 C 0.61868 0.82448 0.90947 0.0
C3009 C 0.60485 0.82963 0.90616 0.0
C3010 C 0.62165 0.81026 0.90294 0.0
C3011 C 0.60475 0.77525 0.89823 0.0
H3012 H 0.63747 0.76497 0.84139 0.0
C3013 C 0.61242 0.71869 0.84763 0.0
C3014 C 0.62595 0.7128 0.85097 0.0
C3015 C 0.6103 0.73311 0.85267 0.0
C3016 C 0.62837 0.76766 0.8576 0.0
H3017 H 0.58326 0.82384 0.89362 0.0
H3018 H 0.58844 0.79914 0.88222 0.0
H3019 H 0.63297 0.78975 0.85511 0.0
H3020 H 0.64798 0.71761 0.86084 0.0
H3021 H 0.64424 0.7428 0.86998 0.0
H3022 H 0.60014 0.75324 0.9009 0.0
C3023 C 0.59698 0.80603 0.89018 0.0
C3024 C 0.6258 0.78185 0.8655 0.0
C3025 C 0.59403 0.82023 0.89659 0.0
C3026 C 0.63742 0.72179 0.85803 0.0
C3027 C 0.63528 0.73625 0.86319 0.0
C3028 C 0.60732 0.7611 0.89039 0.0
C3029 C 0.61083 0.80089 0.89312 0.0
C3030 C 0.6139 0.78581 0.8857 0.0
C3031 C 0.62164 0.74202 0.86132 0.0
C3032 C 0.6191 0.75713 0.86975 0.0
H3033 H 0.62726 0.83144 0.91677 0.0
H3034 H 0.6324 0.80658 0.90581 0.0
H3035 H 0.59563 0.77792 0.91441 0.0
H3036 H 0.60336 0.71212 0.84189 0.0
H3037 H 0.59971 0.73726 0.85022 0.0
C3038 C 0.43027 0.36903 0.14069 0.0
C3039 C 0.42475 0.35546 0.13492 0.0
C3040 C 0.4443 0.37207 0.13214 0.0
C3041 C 0.47877 0.35507 0.11865 0.0
H3042 H 0.48876 0.3903 0.07227 0.0
C3043 C 0.53592 0.36639 0.07647 0.0
C3044 C 0.5412 0.37988 0.08446 0.0
C3045 C 0.52149 0.36361 0.07861 0.0
C3046 C 0.48616 0.38047 0.08548 0.0
H3047 H 0.42966 0.33447 0.11541 0.0
H3048 H 0.45412 0.33979 0.10056 0.0
H3049 H 0.46404 0.38504 0.08478 0.0
H3050 H 0.53531 0.40118 0.09949 0.0
H3051 H 0.51016 0.39626 0.10373 0.0
H3052 H 0.50083 0.35056 0.12005 0.0
C3053 C 0.44762 0.34804 0.11197 0.0
C3054 C 0.472 0.37746 0.09265 0.0
C3055 C 0.43359 0.34502 0.12038 0.0
C3056 C 0.53161 0.39068 0.09307 0.0
C3057 C 0.51717 0.38786 0.0954 0.0
C3058 C 0.49291 0.3581 0.11162 0.0
C3059 C 0.45315 0.3616 0.11777 0.0
C3060 C 0.46815 0.36474 0.10942 0.0
C3061 C 0.51196 0.37421 0.08899 0.0
C3062 C 0.49681 0.37084 0.09503 0.0
H3063 H 0.42375 0.37732 0.15183 0.0
H3064 H 0.44828 0.38257 0.13733 0.0
H3065 H 0.47618 0.34528 0.13211 0.0
H3066 H 0.54298 0.35786 0.06942 0.0
H3067 H 0.51781 0.35305 0.07269 0.0
C3068 C 0.86332 0.28052 0.35288 0.0
C3069 C 0.87473 0.28971 0.3471 0.0
C3070 C 0.86557 0.26605 0.35696 0.0
C3071 C 0.89125 0.23751 0.34076 0.0
H3072 H 0.87336 0.21977 0.423 0.0
C3073 C 0.90839 0.18275 0.39158 0.0
C3074 C 0.89787 0.17346 0.40368 0.0
C3075 C 0.90515 0.19678 0.3837 0.0
C3076 C 0.87828 0.22447 0.39961 0.0
H3077 H 0.89739 0.29077 0.33947 0.0
H3078 H 0.90126 0.26553 0.34633 0.0
H3079 H 0.86814 0.2443 0.40888 0.0
H3080 H 0.8757 0.17166 0.41714 0.0
H3081 H 0.87 0.19606 0.40284 0.0
H3082 H 0.90137 0.21771 0.33134 0.0
C3083 C 0.89058 0.26953 0.34775 0.0
C3084 C 0.87529 0.23855 0.39153 0.0
C3085 C 0.88836 0.28401 0.34397 0.0
C3086 C 0.88407 0.17856 0.40807 0.0
C3087 C 0.88081 0.19258 0.39999 0.0
C3088 C 0.89418 0.22341 0.34868 0.0
C3089 C 0.87925 0.26043 0.355 0.0
C3090 C 0.88183 0.24525 0.3622 0.0
C3091 C 0.8913 0.20185 0.3875 0.0
C3092 C 0.88784 0.21674 0.37842 0.0
H3093 H 0.85268 0.28454 0.35544 0.0
H3094 H 0.85661 0.25926 0.36208 0.0
H3095 H 0.89633 0.24234 0.31773 0.0
H3096 H 0.91914 0.17919 0.38803 0.0
H3097 H 0.91356 0.20368 0.37482 0.0
C3098 C 0.96998 0.61142 0.59174 0.0
C3099 C 0.96039 0.62265 0.58837 0.0
C3100 C 0.98446 0.61399 0.59407 0.0
C3101 C 0.01216 0.64052 0.5772 0.0
H3102 H 0.03171 0.62136 0.65478 0.0
C3103 C 0.06808 0.6568 0.62311 0.0
C3104 C 0.07744 0.64609 0.63376 0.0
C3105 C 0.05395 0.65372 0.6158 0.0
C3106 C 0.0265 0.62665 0.63262 0.0
H3107 H 0.95861 0.64536 0.58315 0.0
H3108 H 0.98389 0.6498 0.58703 0.0
H3109 H 0.00698 0.6162 0.64347 0.0
H3110 H 0.07932 0.62371 0.64458 0.0
H3111 H 0.0548 0.61829 0.63116 0.0
H3112 H 0.0317 0.65094 0.56622 0.0
C3113 C 0.98018 0.63901 0.58788 0.0
C3114 C 0.0123 0.62369 0.62617 0.0
C3115 C 0.96568 0.63646 0.5858 0.0
C3116 C 0.07237 0.63223 0.63671 0.0
C3117 C 0.05827 0.62913 0.62917 0.0
C3118 C 0.02641 0.64342 0.58349 0.0
C3119 C 0.9897 0.62783 0.59282 0.0
C3120 C 0.00495 0.63063 0.59851 0.0
C3121 C 0.04885 0.63984 0.61873 0.0
C3122 C 0.03375 0.63657 0.61141 0.0
H3123 H 0.9663 0.60064 0.59372 0.0
H3124 H 0.99155 0.60514 0.59734 0.0
H3125 H 0.00681 0.64594 0.55546 0.0
H3126 H 0.07163 0.6676 0.62065 0.0
H3127 H 0.04698 0.66227 0.60839 0.0
C3128 C 0.59461 0.18398 0.62358 0.0
C3129 C 0.60548 0.17479 0.61311 0.0
C3130 C 0.59749 0.19811 0.63122 0.0
C3131 C 0.62634 0.22251 0.65563 0.0
H3132 H 0.60085 0.25105 0.61907 0.0
C3133 C 0.63975 0.2821 0.65399 0.0
C3134 C 0.62871 0.29171 0.66 0.0
C3135 C 0.63701 0.26764 0.65158 0.0
C3136 C 0.60797 0.24322 0.62999 0.0
H3137 H 0.62793 0.17324 0.60265 0.0
H3138 H 0.63291 0.19793 0.61569 0.0
H3139 H 0.59587 0.22629 0.60785 0.0
H3140 H 0.60625 0.29355 0.6701 0.0
H3141 H 0.60156 0.26839 0.66653 0.0
H3142 H 0.63848 0.23949 0.6776 0.0
C3143 C 0.62218 0.19417 0.61835 0.0
C3144 C 0.60512 0.22901 0.62348 0.0
C3145 C 0.61931 0.18003 0.61063 0.0
C3146 C 0.615 0.28648 0.66512 0.0
C3147 C 0.61228 0.27204 0.66282 0.0
C3148 C 0.62919 0.23675 0.66221 0.0
C3149 C 0.6113 0.20338 0.62864 0.0
C3150 C 0.61429 0.21848 0.63613 0.0
C3151 C 0.62319 0.26247 0.65523 0.0
C3152 C 0.62004 0.24728 0.64939 0.0
H3153 H 0.58386 0.18028 0.62598 0.0
H3154 H 0.58889 0.20489 0.63952 0.0
H3155 H 0.63351 0.21464 0.66616 0.0
H3156 H 0.65044 0.28576 0.64986 0.0
H3157 H 0.64566 0.26058 0.64545 0.0
C3158 C 0.97041 0.39074 0.89666 0.0
C3159 C 0.96131 0.37917 0.90112 0.0
C3160 C 0.985 0.38874 0.89444 0.0
C3161 C 0.01347 0.36315 0.91391 0.0
H3162 H 0.03314 0.38226 0.83646 0.0
C3163 C 0.06897 0.34631 0.86781 0.0
C3164 C 0.07863 0.35691 0.8583 0.0
C3165 C 0.05489 0.34963 0.87481 0.0
C3166 C 0.02787 0.37699 0.85856 0.0
H3167 H 0.96052 0.35646 0.90799 0.0
H3168 H 0.98588 0.35302 0.90411 0.0
H3169 H 0.00826 0.3872 0.84698 0.0
H3170 H 0.08104 0.37933 0.8488 0.0
H3171 H 0.05649 0.38514 0.86138 0.0
H3172 H 0.03304 0.35287 0.92538 0.0
C3173 C 0.98175 0.36365 0.90248 0.0
C3174 C 0.0136 0.37984 0.8646 0.0
C3175 C 0.96719 0.36562 0.9045 0.0
C3176 C 0.07387 0.3709 0.85588 0.0
C3177 C 0.05977 0.37423 0.86295 0.0
C3178 C 0.02774 0.36034 0.90795 0.0
C3179 C 0.99082 0.37515 0.89688 0.0
C3180 C 0.0062 0.37283 0.8921 0.0
C3181 C 0.05011 0.36363 0.87257 0.0
C3182 C 0.03508 0.36711 0.87993 0.0
H3183 H 0.96626 0.40132 0.89399 0.0
H3184 H 0.99172 0.39784 0.89056 0.0
H3185 H 0.00812 0.35774 0.93565 0.0
H3186 H 0.07228 0.33542 0.86986 0.0
H3187 H 0.0477 0.34117 0.88155 0.0
C3188 C 0.88351 0.82109 0.10022 0.0
C3189 C 0.89719 0.82656 0.10417 0.0
C3190 C 0.88079 0.80686 0.10714 0.0
C3191 C 0.89826 0.77225 0.11281 0.0
H3192 H 0.86474 0.76126 0.16558 0.0
C3193 C 0.88899 0.71468 0.15502 0.0
C3194 C 0.87533 0.70926 0.15006 0.0
C3195 C 0.89155 0.72913 0.15211 0.0
C3196 C 0.87408 0.76414 0.15053 0.0
H3197 H 0.91874 0.82136 0.11854 0.0
H3198 H 0.91398 0.79657 0.1306 0.0
H3199 H 0.86939 0.78618 0.15429 0.0
H3200 H 0.85357 0.7149 0.13928 0.0
H3201 H 0.85808 0.74007 0.13373 0.0
H3202 H 0.90291 0.75028 0.10859 0.0
C3203 C 0.90538 0.80325 0.12186 0.0
C3204 C 0.87674 0.77842 0.14405 0.0
C3205 C 0.90809 0.81748 0.11507 0.0
C3206 C 0.86422 0.7187 0.14332 0.0
C3207 C 0.86679 0.73316 0.14028 0.0
C3208 C 0.89559 0.75799 0.11919 0.0
C3209 C 0.8917 0.79778 0.11801 0.0
C3210 C 0.88886 0.78263 0.12509 0.0
C3211 C 0.88053 0.73852 0.14403 0.0
C3212 C 0.88347 0.75375 0.13811 0.0
H3213 H 0.87486 0.82779 0.09188 0.0
H3214 H 0.87016 0.80293 0.10352 0.0
H3215 H 0.90758 0.77513 0.09764 0.0
H3216 H 0.89779 0.70773 0.16052 0.0
H3217 H 0.90221 0.73293 0.15588 0.0
C3218 C 0.43339 0.65862 0.35996 0.0
C3219 C 0.42405 0.64776 0.35026 0.0
C3220 C 0.44748 0.65565 0.36783 0.0
C3221 C 0.47122 0.62692 0.39603 0.0
H3222 H 0.50043 0.65161 0.35927 0.0
C3223 C 0.53084 0.61352 0.40227 0.0
C3224 C 0.54037 0.62469 0.40745 0.0
C3225 C 0.51642 0.61615 0.39825 0.0
C3226 C 0.4924 0.64472 0.37026 0.0
H3227 H 0.42223 0.62526 0.34111 0.0
H3228 H 0.44689 0.6201 0.35464 0.0
H3229 H 0.47586 0.6565 0.34523 0.0
H3230 H 0.54204 0.64732 0.41471 0.0
H3231 H 0.51692 0.65186 0.40849 0.0
H3232 H 0.48781 0.61513 0.42106 0.0
C3233 C 0.44325 0.63089 0.35647 0.0
C3234 C 0.47831 0.64751 0.36209 0.0
C3235 C 0.42915 0.63387 0.34845 0.0
C3236 C 0.53504 0.63847 0.41039 0.0
C3237 C 0.52063 0.64109 0.40654 0.0
C3238 C 0.48534 0.62414 0.40431 0.0
C3239 C 0.45256 0.64175 0.3663 0.0
C3240 C 0.46755 0.63866 0.37488 0.0
C3241 C 0.51119 0.63001 0.39947 0.0
C3242 C 0.49611 0.63303 0.39154 0.0
H3243 H 0.4298 0.66943 0.36178 0.0
H3244 H 0.45434 0.66424 0.37571 0.0
H3245 H 0.46316 0.62 0.40667 0.0
H3246 H 0.53458 0.60277 0.39979 0.0
H3247 H 0.50946 0.60738 0.39264 0.0
C3248 C 0.38283 0.17896 0.10833 0.0
C3249 C 0.39662 0.17369 0.11116 0.0
C3250 C 0.37997 0.19312 0.11565 0.0
C3251 C 0.39489 0.22485 0.1605 0.0
H3252 H 0.3679 0.24459 0.10046 0.0
C3253 C 0.38887 0.28567 0.1575 0.0
C3254 C 0.37512 0.29113 0.15531 0.0
C3255 C 0.39123 0.27114 0.15535 0.0
C3256 C 0.37534 0.23918 0.11776 0.0
H3257 H 0.41826 0.1792 0.12382 0.0
H3258 H 0.41334 0.20395 0.13569 0.0
H3259 H 0.37259 0.21974 0.08958 0.0
H3260 H 0.35301 0.2855 0.15049 0.0
H3261 H 0.35717 0.26021 0.14673 0.0
H3262 H 0.39782 0.24448 0.18809 0.0
C3263 C 0.40465 0.1971 0.12856 0.0
C3264 C 0.37802 0.22492 0.11157 0.0
C3265 C 0.4075 0.18291 0.12148 0.0
C3266 C 0.36375 0.28169 0.15216 0.0
C3267 C 0.36613 0.26719 0.14976 0.0
C3268 C 0.39227 0.23917 0.16652 0.0
C3269 C 0.39085 0.2024 0.12574 0.0
C3270 C 0.38785 0.21756 0.13281 0.0
C3271 C 0.3799 0.26177 0.15072 0.0
C3272 C 0.38247 0.24649 0.14519 0.0
H3273 H 0.37419 0.17212 0.10071 0.0
H3274 H 0.36917 0.19676 0.11375 0.0
H3275 H 0.40235 0.21948 0.17779 0.0
H3276 H 0.39787 0.29263 0.15996 0.0
H3277 H 0.40198 0.26729 0.15597 0.0
C3278 C 0.46829 0.61275 0.89816 0.0
C3279 C 0.45858 0.62369 0.90428 0.0
C3280 C 0.48271 0.61562 0.89542 0.0
C3281 C 0.50673 0.64498 0.87331 0.0
H3282 H 0.53577 0.61971 0.90835 0.0
C3283 C 0.56577 0.65928 0.86813 0.0
C3284 C 0.57518 0.64866 0.85724 0.0
C3285 C 0.55165 0.65613 0.87513 0.0
C3286 C 0.52777 0.6268 0.89813 0.0
H3287 H 0.45655 0.64613 0.91438 0.0
H3288 H 0.48166 0.65106 0.91037 0.0
H3289 H 0.51101 0.61438 0.92026 0.0
H3290 H 0.5771 0.62638 0.84518 0.0
H3291 H 0.55241 0.6209 0.85721 0.0
H3292 H 0.52344 0.65738 0.85117 0.0
C3293 C 0.4781 0.64031 0.90673 0.0
C3294 C 0.51359 0.62376 0.90497 0.0
C3295 C 0.4637 0.63746 0.90929 0.0
C3296 C 0.57014 0.63481 0.85349 0.0
C3297 C 0.55601 0.63165 0.86063 0.0
C3298 C 0.52088 0.64803 0.86659 0.0
C3299 C 0.48776 0.6295 0.89889 0.0
C3300 C 0.50289 0.63281 0.89262 0.0
C3301 C 0.54661 0.64228 0.87153 0.0
C3302 C 0.53157 0.63898 0.87887 0.0
H3303 H 0.46471 0.60203 0.89407 0.0
H3304 H 0.48983 0.60705 0.88913 0.0
H3305 H 0.49877 0.65203 0.8627 0.0
H3306 H 0.56931 0.67006 0.87145 0.0
H3307 H 0.54472 0.66453 0.88387 0.0
C3308 C 0.11804 0.82253 0.60115 0.0
C3309 C 0.10412 0.82753 0.60251 0.0
C3310 C 0.12104 0.80842 0.60883 0.0
C3311 C 0.10606 0.77673 0.65331 0.0
H3312 H 0.13412 0.75703 0.59652 0.0
C3313 C 0.11285 0.71605 0.65334 0.0
C3314 C 0.12667 0.71071 0.65214 0.0
C3315 C 0.11038 0.73054 0.65059 0.0
C3316 C 0.12639 0.76243 0.61294 0.0
H3317 H 0.08239 0.8216 0.61264 0.0
H3318 H 0.08757 0.79696 0.62518 0.0
H3319 H 0.1292 0.78174 0.58415 0.0
H3320 H 0.14877 0.71654 0.64862 0.0
H3321 H 0.14442 0.74176 0.6439 0.0
H3322 H 0.10308 0.75726 0.68157 0.0
C3323 C 0.09623 0.80398 0.61893 0.0
C3324 C 0.12357 0.77661 0.60587 0.0
C3325 C 0.09324 0.8181 0.61145 0.0
C3326 C 0.13798 0.72025 0.6495 0.0
C3327 C 0.1355 0.73471 0.64655 0.0
C3328 C 0.10883 0.76251 0.66024 0.0
C3329 C 0.11017 0.79897 0.61786 0.0
C3330 C 0.11334 0.78394 0.62588 0.0
C3331 C 0.12167 0.73999 0.64639 0.0
C3332 C 0.119 0.75521 0.64007 0.0
H3333 H 0.12668 0.82954 0.59461 0.0
H3334 H 0.13192 0.80498 0.60822 0.0
H3335 H 0.09829 0.7821 0.66967 0.0
H3336 H 0.10389 0.70903 0.65539 0.0
H3337 H 0.09959 0.73429 0.65036 0.0
C3338 C 0.93023 0.36752 0.36041 0.0
C3339 C 0.92514 0.3537 0.36423 0.0
C3340 C 0.9442 0.37075 0.36896 0.0
C3341 C 0.97529 0.35736 0.41935 0.0
H3342 H 0.99565 0.38347 0.35816 0.0
C3343 C 0.03601 0.36442 0.42183 0.0
C3344 C 0.04134 0.37815 0.41741 0.0
C3345 C 0.02153 0.36183 0.41921 0.0
C3346 C 0.99005 0.37631 0.37582 0.0
H3347 H 0.93076 0.33241 0.37994 0.0
H3348 H 0.95522 0.33798 0.39405 0.0
H3349 H 0.97113 0.37803 0.3449 0.0
H3350 H 0.0355 0.4 0.40864 0.0
H3351 H 0.0103 0.39544 0.40418 0.0
H3352 H 0.99441 0.35545 0.44974 0.0
C3353 C 0.94835 0.3464 0.38512 0.0
C3354 C 0.97598 0.37318 0.36823 0.0
C3355 C 0.93434 0.34317 0.37675 0.0
C3356 C 0.0318 0.38929 0.412 0.0
C3357 C 0.01735 0.38668 0.4092 0.0
C3358 C 0.98941 0.36043 0.42681 0.0
C3359 C 0.95346 0.36023 0.38135 0.0
C3360 C 0.96841 0.36366 0.38984 0.0
C3361 C 0.01209 0.37288 0.41195 0.0
C3362 C 0.99695 0.36993 0.4051 0.0
H3363 H 0.92339 0.3759 0.35109 0.0
H3364 H 0.94769 0.38156 0.36626 0.0
H3365 H 0.96972 0.35015 0.43691 0.0
H3366 H 0.04304 0.35559 0.42608 0.0
H3367 H 0.0178 0.35107 0.4213 0.0
C3368 C 0.40631 0.81973 0.37369 0.0
C3369 C 0.39559 0.82927 0.38308 0.0
C3370 C 0.40314 0.80565 0.36629 0.0
C3371 C 0.37596 0.77845 0.38184 0.0
H3372 H 0.39545 0.75883 0.30491 0.0
C3373 C 0.3621 0.72121 0.34339 0.0
C3374 C 0.3736 0.71203 0.33884 0.0
C3375 C 0.36421 0.73577 0.34558 0.0
C3376 C 0.38998 0.76414 0.32661 0.0
H3377 H 0.37309 0.83149 0.39179 0.0
H3378 H 0.36754 0.80695 0.37853 0.0
H3379 H 0.40023 0.78375 0.31545 0.0
H3380 H 0.39629 0.71105 0.33166 0.0
H3381 H 0.39993 0.73639 0.33556 0.0
H3382 H 0.36579 0.75882 0.39317 0.0
C3383 C 0.37844 0.81031 0.37737 0.0
C3384 C 0.39273 0.77842 0.33271 0.0
C3385 C 0.38161 0.8244 0.38482 0.0
C3386 C 0.38719 0.71779 0.33521 0.0
C3387 C 0.38928 0.73235 0.33727 0.0
C3388 C 0.37318 0.76419 0.37569 0.0
C3389 C 0.38917 0.80076 0.36803 0.0
C3390 C 0.38585 0.78571 0.36061 0.0
C3391 C 0.37784 0.74149 0.34309 0.0
C3392 C 0.38024 0.75684 0.34819 0.0
H3393 H 0.4172 0.82313 0.37213 0.0
H3394 H 0.41169 0.79854 0.35972 0.0
H3395 H 0.37062 0.78368 0.40388 0.0
H3396 H 0.35149 0.71716 0.34617 0.0
H3397 H 0.35516 0.74255 0.34955 0.0
C3398 C 0.03304 0.61227 0.10156 0.0
C3399 C 0.0424 0.62347 0.09497 0.0
C3400 C 0.01858 0.61475 0.10531 0.0
C3401 C 0.9938 0.64334 0.12876 0.0
H3402 H 0.96541 0.61729 0.09398 0.0
C3403 C 0.93439 0.656 0.13389 0.0
C3404 C 0.92525 0.64514 0.14472 0.0
C3405 C 0.94861 0.65323 0.12716 0.0
C3406 C 0.97323 0.62459 0.10415 0.0
H3407 H 0.04375 0.64599 0.08542 0.0
H3408 H 0.01856 0.65026 0.09122 0.0
H3409 H 0.99027 0.61272 0.08151 0.0
H3410 H 0.92389 0.62284 0.15701 0.0
H3411 H 0.94877 0.61801 0.14538 0.0
H3412 H 0.97679 0.65521 0.15131 0.0
C3413 C 0.02243 0.63959 0.09438 0.0
C3414 C 0.98747 0.62198 0.09699 0.0
C3415 C 0.03688 0.63712 0.09078 0.0
C3416 C 0.93066 0.63144 0.14875 0.0
C3417 C 0.94488 0.62865 0.14184 0.0
C3418 C 0.97958 0.64596 0.13578 0.0
C3419 C 0.01314 0.62849 0.10241 0.0
C3420 C 0.99794 0.63133 0.10921 0.0
C3421 C 0.95401 0.63952 0.13095 0.0
C3422 C 0.96913 0.63662 0.12358 0.0
H3423 H 0.03691 0.60162 0.10503 0.0
H3424 H 0.01176 0.60596 0.11177 0.0
H3425 H 0.00158 0.65061 0.13925 0.0
H3426 H 0.93057 0.66667 0.13037 0.0
H3427 H 0.95533 0.6618 0.11841 0.0
C3428 C 0.13827 0.28184 0.85225 0.0
C3429 C 0.12727 0.29135 0.84484 0.0
C3430 C 0.13553 0.26744 0.85606 0.0
C3431 C 0.10626 0.2431 0.87772 0.0
H3432 H 0.13276 0.21434 0.8475 0.0
C3433 C 0.09374 0.18359 0.88598 0.0
C3434 C 0.10448 0.17475 0.89907 0.0
C3435 C 0.09649 0.19774 0.8783 0.0
C3436 C 0.12532 0.22227 0.85635 0.0
H3437 H 0.10487 0.29302 0.83375 0.0
H3438 H 0.10018 0.2679 0.8395 0.0
H3439 H 0.1376 0.23903 0.83393 0.0
H3440 H 0.12653 0.17389 0.91441 0.0
H3441 H 0.1313 0.19861 0.90101 0.0
H3442 H 0.09397 0.22632 0.9 0.0
C3443 C 0.11086 0.27161 0.84335 0.0
C3444 C 0.12809 0.23642 0.84859 0.0
C3445 C 0.11358 0.28602 0.83977 0.0
C3446 C 0.11801 0.18041 0.9044 0.0
C3447 C 0.12078 0.19454 0.89648 0.0
C3448 C 0.10346 0.22896 0.88528 0.0
C3449 C 0.12174 0.26217 0.85232 0.0
C3450 C 0.11862 0.24703 0.8593 0.0
C3451 C 0.11005 0.20336 0.88329 0.0
C3452 C 0.11298 0.21838 0.87483 0.0
H3453 H 0.14893 0.28557 0.85646 0.0
H3454 H 0.14415 0.26052 0.8633 0.0
H3455 H 0.09887 0.25099 0.88706 0.0
H3456 H 0.0832 0.17957 0.88145 0.0
H3457 H 0.08803 0.20424 0.86786 0.0
C3458 C 0.47176 0.38818 0.594 0.0
C3459 C 0.46229 0.37699 0.58837 0.0
C3460 C 0.48621 0.38562 0.59744 0.0
C3461 C 0.51066 0.35718 0.62315 0.0
H3462 H 0.53934 0.38266 0.58719 0.0
C3463 C 0.57 0.34464 0.63343 0.0
C3464 C 0.57904 0.3557 0.64344 0.0
C3465 C 0.55586 0.34727 0.6254 0.0
C3466 C 0.53144 0.37552 0.59769 0.0
H3467 H 0.46073 0.35441 0.57993 0.0
H3468 H 0.48593 0.35001 0.58527 0.0
H3469 H 0.51458 0.38711 0.57331 0.0
H3470 H 0.5803 0.37821 0.65293 0.0
H3471 H 0.55555 0.3828 0.63914 0.0
H3472 H 0.52749 0.34562 0.64762 0.0
C3473 C 0.48214 0.36073 0.58788 0.0
C3474 C 0.51725 0.37805 0.58969 0.0
C3475 C 0.46769 0.36327 0.58454 0.0
C3476 C 0.57361 0.36946 0.64534 0.0
C3477 C 0.55946 0.3721 0.63718 0.0
C3478 C 0.52483 0.35463 0.63105 0.0
C3479 C 0.49154 0.37182 0.59521 0.0
C3480 C 0.50669 0.36892 0.6024 0.0
C3481 C 0.55043 0.36104 0.62709 0.0
C3482 C 0.53538 0.36378 0.6185 0.0
H3483 H 0.46799 0.39888 0.59711 0.0
H3484 H 0.49313 0.3944 0.60333 0.0
H3485 H 0.50279 0.35009 0.63402 0.0
H3486 H 0.57384 0.33392 0.63153 0.0
H3487 H 0.54923 0.33854 0.61731 0.0
loop_
_geom_bond_atom_site_label_1
_geom_bond_atom_site_label_2
_geom_bond_distance
_geom_bond_site_symmetry_2
_ccdc_geom_bond_type
Co0 O3 1.970 . S
Co0 N17 1.989 . S
Co0 O25 1.967 . S
Co0 O32 1.920 . S
Co1 O4 1.966 . S
Co1 N10 2.022 . S
Co1 N18 1.993 . S
Co1 O26 1.941 . S
C2 O3 1.258 . S
C2 O4 1.263 . S
O3 Co0 1.970 . S
O3 C2 1.258 . S
O4 Co1 1.966 . S
O4 C2 1.263 . S
C5 O6 1.235 . S
C5 O32 1.289 . S
O6 C5 1.235 . S
C7 C9 1.400 . S
C7 N10 1.351 . S
C7 C12 1.501 . S
C8 C9 1.387 . S
C8 N11 1.341 . S
C9 C7 1.400 . S
C9 C8 1.387 . S
N10 Co1 2.022 . S
N10 C7 1.351 . S
N10 N11 1.365 . S
N11 C8 1.341 . S
N11 N10 1.365 . S
N11 H31 0.862 . S
C12 C7 1.501 . S
C12 H13 0.961 . S
C12 H14 0.961 . S
C12 H15 0.960 . S
H13 C12 0.961 . S
H14 C12 0.961 . S
H15 C12 0.960 . S
C16 N17 1.342 . S
C16 C20 1.401 . S
C16 C21 1.499 . S
N17 Co0 1.989 . S
N17 C16 1.342 . S
N17 N18 1.388 . S
N18 Co1 1.993 . S
N18 N17 1.388 . S
N18 C19 1.346 . S
C19 N18 1.346 . S
C19 C20 1.396 . S
C19 C29 1.510 . S
C20 C16 1.401 . S
C20 C19 1.396 . S
C21 C16 1.499 . S
C21 H22 0.959 . S
C21 H23 0.960 . S
C21 H24 0.961 . S
H22 C21 0.959 . S
H23 C21 0.960 . S
H24 C21 0.961 . S
O25 Co0 1.967 . S
O25 C33 1.258 . S
O26 Co1 1.941 . S
O26 C33 1.266 . S
H27 C29 0.959 . S
H28 C29 0.961 . S
C29 C19 1.510 . S
C29 H27 0.959 . S
C29 H28 0.961 . S
C29 H30 0.960 . S
H30 C29 0.960 . S
H31 N11 0.862 . S
O32 Co0 1.920 . S
O32 C5 1.289 . S
C33 O25 1.258 . S
C33 O26 1.266 . S
Co34 O37 1.970 . S
Co34 N51 1.989 . S
Co34 O59 1.967 . S
Co34 O66 1.920 . S
Co35 O38 1.966 . S
Co35 N44 2.022 . S
Co35 N52 1.993 . S
Co35 O60 1.941 . S
C36 O37 1.258 . S
C36 O38 1.263 . S
O37 Co34 1.970 . S
O37 C36 1.258 . S
O38 Co35 1.966 . S
O38 C36 1.263 . S
C39 O40 1.235 . S
C39 O66 1.289 . S
O40 C39 1.235 . S
C41 C43 1.400 . S
C41 N44 1.351 . S
C41 C46 1.501 . S
C42 C43 1.387 . S
C42 N45 1.341 . S
C43 C41 1.400 . S
C43 C42 1.387 . S
N44 Co35 2.022 . S
N44 C41 1.351 . S
N44 N45 1.365 . S
N45 C42 1.341 . S
N45 N44 1.365 . S
N45 H65 0.862 . S
C46 C41 1.501 . S
C46 H47 0.961 . S
C46 H48 0.961 . S
C46 H49 0.960 . S
H47 C46 0.961 . S
H48 C46 0.961 . S
H49 C46 0.960 . S
C50 N51 1.342 . S
C50 C54 1.401 . S
C50 C55 1.499 . S
N51 Co34 1.989 . S
N51 C50 1.342 . S
N51 N52 1.388 . S
N52 Co35 1.993 . S
N52 N51 1.388 . S
N52 C53 1.346 . S
C53 N52 1.346 . S
C53 C54 1.396 . S
C53 C63 1.510 . S
C54 C50 1.401 . S
C54 C53 1.396 . S
C55 C50 1.499 . S
C55 H56 0.959 . S
C55 H57 0.960 . S
C55 H58 0.961 . S
H56 C55 0.959 . S
H57 C55 0.960 . S
H58 C55 0.961 . S
O59 Co34 1.967 . S
O59 C67 1.258 . S
O60 Co35 1.941 . S
O60 C67 1.266 . S
H61 C63 0.959 . S
H62 C63 0.961 . S
C63 C53 1.510 . S
C63 H61 0.959 . S
C63 H62 0.961 . S
C63 H64 0.960 . S
H64 C63 0.960 . S
H65 N45 0.862 . S
O66 Co34 1.920 . S
O66 C39 1.289 . S
C67 O59 1.258 . S
C67 O60 1.266 . S
Co68 O71 1.970 . S
Co68 N85 1.989 . S
Co68 O93 1.967 . S
Co68 O100 1.920 . S
Co69 O72 1.966 . S
Co69 N78 2.022 . S
Co69 N86 1.993 . S
Co69 O94 1.941 . S
C70 O71 1.258 . S
C70 O72 1.263 . S
O71 Co68 1.970 . S
O71 C70 1.258 . S
O72 Co69 1.966 . S
O72 C70 1.263 . S
C73 O74 1.235 . S
C73 O100 1.289 . S
O74 C73 1.235 . S
C75 C77 1.400 . S
C75 N78 1.351 . S
C75 C80 1.501 . S
C76 C77 1.387 . S
C76 N79 1.341 . S
C77 C75 1.400 . S
C77 C76 1.387 . S
N78 Co69 2.022 . S
N78 C75 1.351 . S
N78 N79 1.365 . S
N79 C76 1.341 . S
N79 N78 1.365 . S
N79 H99 0.862 . S
C80 C75 1.501 . S
C80 H81 0.961 . S
C80 H82 0.961 . S
C80 H83 0.960 . S
H81 C80 0.961 . S
H82 C80 0.961 . S
H83 C80 0.960 . S
C84 N85 1.342 . S
C84 C88 1.401 . S
C84 C89 1.499 . S
N85 Co68 1.989 . S
N85 C84 1.342 . S
N85 N86 1.388 . S
N86 Co69 1.993 . S
N86 N85 1.388 . S
N86 C87 1.346 . S
C87 N86 1.346 . S
C87 C88 1.396 . S
C87 C97 1.510 . S
C88 C84 1.401 . S
C88 C87 1.396 . S
C89 C84 1.499 . S
C89 H90 0.959 . S
C89 H91 0.960 . S
C89 H92 0.961 . S
H90 C89 0.959 . S
H91 C89 0.960 . S
H92 C89 0.961 . S
O93 Co68 1.967 . S
O93 C101 1.258 . S
O94 Co69 1.941 . S
O94 C101 1.266 . S
H95 C97 0.959 . S
H96 C97 0.961 . S
C97 C87 1.510 . S
C97 H95 0.959 . S
C97 H96 0.961 . S
C97 H98 0.960 . S
H98 C97 0.960 . S
H99 N79 0.862 . S
O100 Co68 1.920 . S
O100 C73 1.289 . S
C101 O93 1.258 . S
C101 O94 1.266 . S
Co102 O105 1.970 . S
Co102 N119 1.989 . S
Co102 O127 1.967 . S
Co102 O134 1.920 . S
Co103 O106 1.966 . S
Co103 N112 2.022 . S
Co103 N120 1.993 . S
Co103 O128 1.941 . S
C104 O105 1.258 . S
C104 O106 1.263 . S
O105 Co102 1.970 . S
O105 C104 1.258 . S
O106 Co103 1.966 . S
O106 C104 1.263 . S
C107 O108 1.235 . S
C107 O134 1.289 . S
O108 C107 1.235 . S
C109 C111 1.400 . S
C109 N112 1.351 . S
C109 C114 1.501 . S
C110 C111 1.387 . S
C110 N113 1.341 . S
C111 C109 1.400 . S
C111 C110 1.387 . S
N112 Co103 2.022 . S
N112 C109 1.351 . S
N112 N113 1.365 . S
N113 C110 1.341 . S
N113 N112 1.365 . S
N113 H133 0.862 . S
C114 C109 1.501 . S
C114 H115 0.961 . S
C114 H116 0.961 . S
C114 H117 0.960 . S
H115 C114 0.961 . S
H116 C114 0.961 . S
H117 C114 0.960 . S
C118 N119 1.342 . S
C118 C122 1.401 . S
C118 C123 1.499 . S
N119 Co102 1.989 . S
N119 C118 1.342 . S
N119 N120 1.388 . S
N120 Co103 1.993 . S
N120 N119 1.388 . S
N120 C121 1.346 . S
C121 N120 1.346 . S
C121 C122 1.396 . S
C121 C131 1.510 . S
C122 C118 1.401 . S
C122 C121 1.396 . S
C123 C118 1.499 . S
C123 H124 0.959 . S
C123 H125 0.960 . S
C123 H126 0.961 . S
H124 C123 0.959 . S
H125 C123 0.960 . S
H126 C123 0.961 . S
O127 Co102 1.967 . S
O127 C135 1.258 . S
O128 Co103 1.941 . S
O128 C135 1.266 . S
H129 C131 0.959 . S
H130 C131 0.961 . S
C131 C121 1.510 . S
C131 H129 0.959 . S
C131 H130 0.961 . S
C131 H132 0.960 . S
H132 C131 0.960 . S
H133 N113 0.862 . S
O134 Co102 1.920 . S
O134 C107 1.289 . S
C135 O127 1.258 . S
C135 O128 1.266 . S
Co136 O139 1.970 . S
Co136 N153 1.989 . S
Co136 O161 1.967 . S
Co136 O168 1.920 . S
Co137 O140 1.966 . S
Co137 N146 2.022 . S
Co137 N154 1.993 . S
Co137 O162 1.941 . S
C138 O139 1.258 . S
C138 O140 1.263 . S
O139 Co136 1.970 . S
O139 C138 1.258 . S
O140 Co137 1.966 . S
O140 C138 1.263 . S
C141 O142 1.235 . S
C141 O168 1.289 . S
O142 C141 1.235 . S
C143 C145 1.400 . S
C143 N146 1.351 . S
C143 C148 1.501 . S
C144 C145 1.387 . S
C144 N147 1.341 . S
C145 C143 1.400 . S
C145 C144 1.387 . S
N146 Co137 2.022 . S
N146 C143 1.351 . S
N146 N147 1.365 . S
N147 C144 1.341 . S
N147 N146 1.365 . S
N147 H167 0.862 . S
C148 C143 1.501 . S
C148 H149 0.961 . S
C148 H150 0.961 . S
C148 H151 0.960 . S
H149 C148 0.961 . S
H150 C148 0.961 . S
H151 C148 0.960 . S
C152 N153 1.342 . S
C152 C156 1.401 . S
C152 C157 1.499 . S
N153 Co136 1.989 . S
N153 C152 1.342 . S
N153 N154 1.388 . S
N154 Co137 1.993 . S
N154 N153 1.388 . S
N154 C155 1.346 . S
C155 N154 1.346 . S
C155 C156 1.396 . S
C155 C165 1.510 . S
C156 C152 1.401 . S
C156 C155 1.396 . S
C157 C152 1.499 . S
C157 H158 0.959 . S
C157 H159 0.960 . S
C157 H160 0.961 . S
H158 C157 0.959 . S
H159 C157 0.960 . S
H160 C157 0.961 . S
O161 Co136 1.967 . S
O161 C169 1.258 . S
O162 Co137 1.941 . S
O162 C169 1.266 . S
H163 C165 0.959 . S
H164 C165 0.961 . S
C165 C155 1.510 . S
C165 H163 0.959 . S
C165 H164 0.961 . S
C165 H166 0.960 . S
H166 C165 0.960 . S
H167 N147 0.862 . S
O168 Co136 1.920 . S
O168 C141 1.289 . S
C169 O161 1.258 . S
C169 O162 1.266 . S
Co170 O173 1.970 . S
Co170 N187 1.989 . S
Co170 O195 1.967 . S
Co170 O202 1.920 . S
Co171 O174 1.966 . S
Co171 N180 2.022 . S
Co171 N188 1.993 . S
Co171 O196 1.941 . S
C172 O173 1.258 . S
C172 O174 1.263 . S
O173 Co170 1.970 . S
O173 C172 1.258 . S
O174 Co171 1.966 . S
O174 C172 1.263 . S
C175 O176 1.235 . S
C175 O202 1.289 . S
O176 C175 1.235 . S
C177 C179 1.400 . S
C177 N180 1.351 . S
C177 C182 1.501 . S
C178 C179 1.387 . S
C178 N181 1.341 . S
C179 C177 1.400 . S
C179 C178 1.387 . S
N180 Co171 2.022 . S
N180 C177 1.351 . S
N180 N181 1.365 . S
N181 C178 1.341 . S
N181 N180 1.365 . S
N181 H201 0.862 . S
C182 C177 1.501 . S
C182 H183 0.961 . S
C182 H184 0.961 . S
C182 H185 0.960 . S
H183 C182 0.961 . S
H184 C182 0.961 . S
H185 C182 0.960 . S
C186 N187 1.342 . S
C186 C190 1.401 . S
C186 C191 1.499 . S
N187 Co170 1.989 . S
N187 C186 1.342 . S
N187 N188 1.388 . S
N188 Co171 1.993 . S
N188 N187 1.388 . S
N188 C189 1.346 . S
C189 N188 1.346 . S
C189 C190 1.396 . S
C189 C199 1.510 . S
C190 C186 1.401 . S
C190 C189 1.396 . S
C191 C186 1.499 . S
C191 H192 0.959 . S
C191 H193 0.960 . S
C191 H194 0.961 . S
H192 C191 0.959 . S
H193 C191 0.960 . S
H194 C191 0.961 . S
O195 Co170 1.967 . S
O195 C203 1.258 . S
O196 Co171 1.941 . S
O196 C203 1.266 . S
H197 C199 0.959 . S
H198 C199 0.961 . S
C199 C189 1.510 . S
C199 H197 0.959 . S
C199 H198 0.961 . S
C199 H200 0.960 . S
H200 C199 0.960 . S
H201 N181 0.862 . S
O202 Co170 1.920 . S
O202 C175 1.289 . S
C203 O195 1.258 . S
C203 O196 1.266 . S
Co204 O207 1.970 . S
Co204 N221 1.989 . S
Co204 O229 1.967 . S
Co204 O236 1.920 . S
Co205 O208 1.966 . S
Co205 N214 2.022 . S
Co205 N222 1.993 . S
Co205 O230 1.941 . S
C206 O207 1.258 . S
C206 O208 1.263 . S
O207 Co204 1.970 . S
O207 C206 1.258 . S
O208 Co205 1.966 . S
O208 C206 1.263 . S
C209 O210 1.235 . S
C209 O236 1.289 . S
O210 C209 1.235 . S
C211 C213 1.400 . S
C211 N214 1.351 . S
C211 C216 1.501 . S
C212 C213 1.387 . S
C212 N215 1.341 . S
C213 C211 1.400 . S
C213 C212 1.387 . S
N214 Co205 2.022 . S
N214 C211 1.351 . S
N214 N215 1.365 . S
N215 C212 1.341 . S
N215 N214 1.365 . S
N215 H235 0.862 . S
C216 C211 1.501 . S
C216 H217 0.961 . S
C216 H218 0.961 . S
C216 H219 0.960 . S
H217 C216 0.961 . S
H218 C216 0.961 . S
H219 C216 0.960 . S
C220 N221 1.342 . S
C220 C224 1.401 . S
C220 C225 1.499 . S
N221 Co204 1.989 . S
N221 C220 1.342 . S
N221 N222 1.388 . S
N222 Co205 1.993 . S
N222 N221 1.388 . S
N222 C223 1.346 . S
C223 N222 1.346 . S
C223 C224 1.396 . S
C223 C233 1.510 . S
C224 C220 1.401 . S
C224 C223 1.396 . S
C225 C220 1.499 . S
C225 H226 0.959 . S
C225 H227 0.960 . S
C225 H228 0.961 . S
H226 C225 0.959 . S
H227 C225 0.960 . S
H228 C225 0.961 . S
O229 Co204 1.967 . S
O229 C237 1.258 . S
O230 Co205 1.941 . S
O230 C237 1.266 . S
H231 C233 0.959 . S
H232 C233 0.961 . S
C233 C223 1.510 . S
C233 H231 0.959 . S
C233 H232 0.961 . S
C233 H234 0.960 . S
H234 C233 0.960 . S
H235 N215 0.862 . S
O236 Co204 1.920 . S
O236 C209 1.289 . S
C237 O229 1.258 . S
C237 O230 1.266 . S
Co238 O241 1.970 . S
Co238 N255 1.989 . S
Co238 O263 1.967 . S
Co238 O270 1.920 . S
Co239 O242 1.966 . S
Co239 N248 2.022 . S
Co239 N256 1.993 . S
Co239 O264 1.941 . S
C240 O241 1.258 . S
C240 O242 1.263 . S
O241 Co238 1.970 . S
O241 C240 1.258 . S
O242 Co239 1.966 . S
O242 C240 1.263 . S
C243 O244 1.235 . S
C243 O270 1.289 . S
O244 C243 1.235 . S
C245 C247 1.400 . S
C245 N248 1.351 . S
C245 C250 1.501 . S
C246 C247 1.387 . S
C246 N249 1.341 . S
C247 C245 1.400 . S
C247 C246 1.387 . S
N248 Co239 2.022 . S
N248 C245 1.351 . S
N248 N249 1.365 . S
N249 C246 1.341 . S
N249 N248 1.365 . S
N249 H269 0.862 . S
C250 C245 1.501 . S
C250 H251 0.961 . S
C250 H252 0.961 . S
C250 H253 0.960 . S
H251 C250 0.961 . S
H252 C250 0.961 . S
H253 C250 0.960 . S
C254 N255 1.342 . S
C254 C258 1.401 . S
C254 C259 1.499 . S
N255 Co238 1.989 . S
N255 C254 1.342 . S
N255 N256 1.388 . S
N256 Co239 1.993 . S
N256 N255 1.388 . S
N256 C257 1.346 . S
C257 N256 1.346 . S
C257 C258 1.396 . S
C257 C267 1.510 . S
C258 C254 1.401 . S
C258 C257 1.396 . S
C259 C254 1.499 . S
C259 H260 0.959 . S
C259 H261 0.960 . S
C259 H262 0.961 . S
H260 C259 0.959 . S
H261 C259 0.960 . S
H262 C259 0.961 . S
O263 Co238 1.967 . S
O263 C271 1.258 . S
O264 Co239 1.941 . S
O264 C271 1.266 . S
H265 C267 0.959 . S
H266 C267 0.961 . S
C267 C257 1.510 . S
C267 H265 0.959 . S
C267 H266 0.961 . S
C267 H268 0.960 . S
H268 C267 0.960 . S
H269 N249 0.862 . S
O270 Co238 1.920 . S
O270 C243 1.289 . S
C271 O263 1.258 . S
C271 O264 1.266 . S
Co272 O275 1.970 . S
Co272 N289 1.989 . S
Co272 O297 1.967 . S
Co272 O304 1.920 . S
Co273 O276 1.966 . S
Co273 N282 2.022 . S
Co273 N290 1.993 . S
Co273 O298 1.941 . S
C274 O275 1.258 . S
C274 O276 1.263 . S
O275 Co272 1.970 . S
O275 C274 1.258 . S
O276 Co273 1.966 . S
O276 C274 1.263 . S
C277 O278 1.235 . S
C277 O304 1.289 . S
O278 C277 1.235 . S
C279 C281 1.400 . S
C279 N282 1.351 . S
C279 C284 1.501 . S
C280 C281 1.387 . S
C280 N283 1.341 . S
C281 C279 1.400 . S
C281 C280 1.387 . S
N282 Co273 2.022 . S
N282 C279 1.351 . S
N282 N283 1.365 . S
N283 C280 1.341 . S
N283 N282 1.365 . S
N283 H303 0.862 . S
C284 C279 1.501 . S
C284 H285 0.961 . S
C284 H286 0.961 . S
C284 H287 0.960 . S
H285 C284 0.961 . S
H286 C284 0.961 . S
H287 C284 0.960 . S
C288 N289 1.342 . S
C288 C292 1.401 . S
C288 C293 1.499 . S
N289 Co272 1.989 . S
N289 C288 1.342 . S
N289 N290 1.388 . S
N290 Co273 1.993 . S
N290 N289 1.388 . S
N290 C291 1.346 . S
C291 N290 1.346 . S
C291 C292 1.396 . S
C291 C301 1.510 . S
C292 C288 1.401 . S
C292 C291 1.396 . S
C293 C288 1.499 . S
C293 H294 0.959 . S
C293 H295 0.960 . S
C293 H296 0.961 . S
H294 C293 0.959 . S
H295 C293 0.960 . S
H296 C293 0.961 . S
O297 Co272 1.967 . S
O297 C305 1.258 . S
O298 Co273 1.941 . S
O298 C305 1.266 . S
H299 C301 0.959 . S
H300 C301 0.961 . S
C301 C291 1.510 . S
C301 H299 0.959 . S
C301 H300 0.961 . S
C301 H302 0.960 . S
H302 C301 0.960 . S
H303 N283 0.862 . S
O304 Co272 1.920 . S
O304 C277 1.289 . S
C305 O297 1.258 . S
C305 O298 1.266 . S
Co306 O309 1.970 . S
Co306 N323 1.989 . S
Co306 O331 1.967 . S
Co306 O338 1.920 . S
Co307 O310 1.966 . S
Co307 N316 2.022 . S
Co307 N324 1.993 . S
Co307 O332 1.941 . S
C308 O309 1.258 . S
C308 O310 1.263 . S
O309 Co306 1.970 . S
O309 C308 1.258 . S
O310 Co307 1.966 . S
O310 C308 1.263 . S
C311 O312 1.235 . S
C311 O338 1.289 . S
O312 C311 1.235 . S
C313 C315 1.400 . S
C313 N316 1.351 . S
C313 C318 1.501 . S
C314 C315 1.387 . S
C314 N317 1.341 . S
C315 C313 1.400 . S
C315 C314 1.387 . S
N316 Co307 2.022 . S
N316 C313 1.351 . S
N316 N317 1.365 . S
N317 C314 1.341 . S
N317 N316 1.365 . S
N317 H337 0.862 . S
C318 C313 1.501 . S
C318 H319 0.961 . S
C318 H320 0.961 . S
C318 H321 0.960 . S
H319 C318 0.961 . S
H320 C318 0.961 . S
H321 C318 0.960 . S
C322 N323 1.342 . S
C322 C326 1.401 . S
C322 C327 1.499 . S
N323 Co306 1.989 . S
N323 C322 1.342 . S
N323 N324 1.388 . S
N324 Co307 1.993 . S
N324 N323 1.388 . S
N324 C325 1.346 . S
C325 N324 1.346 . S
C325 C326 1.396 . S
C325 C335 1.510 . S
C326 C322 1.401 . S
C326 C325 1.396 . S
C327 C322 1.499 . S
C327 H328 0.959 . S
C327 H329 0.960 . S
C327 H330 0.961 . S
H328 C327 0.959 . S
H329 C327 0.960 . S
H330 C327 0.961 . S
O331 Co306 1.967 . S
O331 C339 1.258 . S
O332 Co307 1.941 . S
O332 C339 1.266 . S
H333 C335 0.959 . S
H334 C335 0.961 . S
C335 C325 1.510 . S
C335 H333 0.959 . S
C335 H334 0.961 . S
C335 H336 0.960 . S
H336 C335 0.960 . S
H337 N317 0.862 . S
O338 Co306 1.920 . S
O338 C311 1.289 . S
C339 O331 1.258 . S
C339 O332 1.266 . S
Co340 O343 1.970 . S
Co340 N357 1.989 . S
Co340 O365 1.967 . S
Co340 O372 1.920 . S
Co341 O344 1.966 . S
Co341 N350 2.022 . S
Co341 N358 1.993 . S
Co341 O366 1.941 . S
C342 O343 1.258 . S
C342 O344 1.263 . S
O343 Co340 1.970 . S
O343 C342 1.258 . S
O344 Co341 1.966 . S
O344 C342 1.263 . S
C345 O346 1.235 . S
C345 O372 1.289 . S
O346 C345 1.235 . S
C347 C349 1.400 . S
C347 N350 1.351 . S
C347 C352 1.501 . S
C348 C349 1.387 . S
C348 N351 1.341 . S
C349 C347 1.400 . S
C349 C348 1.387 . S
N350 Co341 2.022 . S
N350 C347 1.351 . S
N350 N351 1.365 . S
N351 C348 1.341 . S
N351 N350 1.365 . S
N351 H371 0.862 . S
C352 C347 1.501 . S
C352 H353 0.961 . S
C352 H354 0.961 . S
C352 H355 0.960 . S
H353 C352 0.961 . S
H354 C352 0.961 . S
H355 C352 0.960 . S
C356 N357 1.342 . S
C356 C360 1.401 . S
C356 C361 1.499 . S
N357 Co340 1.989 . S
N357 C356 1.342 . S
N357 N358 1.388 . S
N358 Co341 1.993 . S
N358 N357 1.388 . S
N358 C359 1.346 . S
C359 N358 1.346 . S
C359 C360 1.396 . S
C359 C369 1.510 . S
C360 C356 1.401 . S
C360 C359 1.396 . S
C361 C356 1.499 . S
C361 H362 0.959 . S
C361 H363 0.960 . S
C361 H364 0.961 . S
H362 C361 0.959 . S
H363 C361 0.960 . S
H364 C361 0.961 . S
O365 Co340 1.967 . S
O365 C373 1.258 . S
O366 Co341 1.941 . S
O366 C373 1.266 . S
H367 C369 0.959 . S
H368 C369 0.961 . S
C369 C359 1.510 . S
C369 H367 0.959 . S
C369 H368 0.961 . S
C369 H370 0.960 . S
H370 C369 0.960 . S
H371 N351 0.862 . S
O372 Co340 1.920 . S
O372 C345 1.289 . S
C373 O365 1.258 . S
C373 O366 1.266 . S
Co374 O377 1.970 . S
Co374 N391 1.989 . S
Co374 O399 1.967 . S
Co374 O406 1.920 . S
Co375 O378 1.966 . S
Co375 N384 2.022 . S
Co375 N392 1.993 . S
Co375 O400 1.941 . S
C376 O377 1.258 . S
C376 O378 1.263 . S
O377 Co374 1.970 . S
O377 C376 1.258 . S
O378 Co375 1.966 . S
O378 C376 1.263 . S
C379 O380 1.235 . S
C379 O406 1.289 . S
O380 C379 1.235 . S
C381 C383 1.400 . S
C381 N384 1.351 . S
C381 C386 1.501 . S
C382 C383 1.387 . S
C382 N385 1.341 . S
C383 C381 1.400 . S
C383 C382 1.387 . S
N384 Co375 2.022 . S
N384 C381 1.351 . S
N384 N385 1.365 . S
N385 C382 1.341 . S
N385 N384 1.365 . S
N385 H405 0.862 . S
C386 C381 1.501 . S
C386 H387 0.961 . S
C386 H388 0.961 . S
C386 H389 0.960 . S
H387 C386 0.961 . S
H388 C386 0.961 . S
H389 C386 0.960 . S
C390 N391 1.342 . S
C390 C394 1.401 . S
C390 C395 1.499 . S
N391 Co374 1.989 . S
N391 C390 1.342 . S
N391 N392 1.388 . S
N392 Co375 1.993 . S
N392 N391 1.388 . S
N392 C393 1.346 . S
C393 N392 1.346 . S
C393 C394 1.396 . S
C393 C403 1.510 . S
C394 C390 1.401 . S
C394 C393 1.396 . S
C395 C390 1.499 . S
C395 H396 0.959 . S
C395 H397 0.960 . S
C395 H398 0.961 . S
H396 C395 0.959 . S
H397 C395 0.960 . S
H398 C395 0.961 . S
O399 Co374 1.967 . S
O399 C407 1.258 . S
O400 Co375 1.941 . S
O400 C407 1.266 . S
H401 C403 0.959 . S
H402 C403 0.961 . S
C403 C393 1.510 . S
C403 H401 0.959 . S
C403 H402 0.961 . S
C403 H404 0.960 . S
H404 C403 0.960 . S
H405 N385 0.862 . S
O406 Co374 1.920 . S
O406 C379 1.289 . S
C407 O399 1.258 . S
C407 O400 1.266 . S
Co408 O411 1.970 . S
Co408 N425 1.989 . S
Co408 O433 1.967 . S
Co408 O440 1.920 . S
Co409 O412 1.966 . S
Co409 N418 2.022 . S
Co409 N426 1.993 . S
Co409 O434 1.941 . S
C410 O411 1.258 . S
C410 O412 1.263 . S
O411 Co408 1.970 . S
O411 C410 1.258 . S
O412 Co409 1.966 . S
O412 C410 1.263 . S
C413 O414 1.235 . S
C413 O440 1.289 . S
O414 C413 1.235 . S
C415 C417 1.400 . S
C415 N418 1.351 . S
C415 C420 1.501 . S
C416 C417 1.387 . S
C416 N419 1.341 . S
C417 C415 1.400 . S
C417 C416 1.387 . S
N418 Co409 2.022 . S
N418 C415 1.351 . S
N418 N419 1.365 . S
N419 C416 1.341 . S
N419 N418 1.365 . S
N419 H439 0.862 . S
C420 C415 1.501 . S
C420 H421 0.961 . S
C420 H422 0.961 . S
C420 H423 0.960 . S
H421 C420 0.961 . S
H422 C420 0.961 . S
H423 C420 0.960 . S
C424 N425 1.342 . S
C424 C428 1.401 . S
C424 C429 1.499 . S
N425 Co408 1.989 . S
N425 C424 1.342 . S
N425 N426 1.388 . S
N426 Co409 1.993 . S
N426 N425 1.388 . S
N426 C427 1.346 . S
C427 N426 1.346 . S
C427 C428 1.396 . S
C427 C437 1.510 . S
C428 C424 1.401 . S
C428 C427 1.396 . S
C429 C424 1.499 . S
C429 H430 0.959 . S
C429 H431 0.960 . S
C429 H432 0.961 . S
H430 C429 0.959 . S
H431 C429 0.960 . S
H432 C429 0.961 . S
O433 Co408 1.967 . S
O433 C441 1.258 . S
O434 Co409 1.941 . S
O434 C441 1.266 . S
H435 C437 0.959 . S
H436 C437 0.961 . S
C437 C427 1.510 . S
C437 H435 0.959 . S
C437 H436 0.961 . S
C437 H438 0.960 . S
H438 C437 0.960 . S
H439 N419 0.862 . S
O440 Co408 1.920 . S
O440 C413 1.289 . S
C441 O433 1.258 . S
C441 O434 1.266 . S
Co442 O445 1.970 . S
Co442 N459 1.989 . S
Co442 O467 1.967 . S
Co442 O474 1.920 . S
Co443 O446 1.966 . S
Co443 N452 2.022 . S
Co443 N460 1.993 . S
Co443 O468 1.941 . S
C444 O445 1.258 . S
C444 O446 1.263 . S
O445 Co442 1.970 . S
O445 C444 1.258 . S
O446 Co443 1.966 . S
O446 C444 1.263 . S
C447 O448 1.235 . S
C447 O474 1.289 . S
O448 C447 1.235 . S
C449 C451 1.400 . S
C449 N452 1.351 . S
C449 C454 1.501 . S
C450 C451 1.387 . S
C450 N453 1.341 . S
C451 C449 1.400 . S
C451 C450 1.387 . S
N452 Co443 2.022 . S
N452 C449 1.351 . S
N452 N453 1.365 . S
N453 C450 1.341 . S
N453 N452 1.365 . S
N453 H473 0.862 . S
C454 C449 1.501 . S
C454 H455 0.961 . S
C454 H456 0.961 . S
C454 H457 0.960 . S
H455 C454 0.961 . S
H456 C454 0.961 . S
H457 C454 0.960 . S
C458 N459 1.342 . S
C458 C462 1.401 . S
C458 C463 1.499 . S
N459 Co442 1.989 . S
N459 C458 1.342 . S
N459 N460 1.388 . S
N460 Co443 1.993 . S
N460 N459 1.388 . S
N460 C461 1.346 . S
C461 N460 1.346 . S
C461 C462 1.396 . S
C461 C471 1.510 . S
C462 C458 1.401 . S
C462 C461 1.396 . S
C463 C458 1.499 . S
C463 H464 0.959 . S
C463 H465 0.960 . S
C463 H466 0.961 . S
H464 C463 0.959 . S
H465 C463 0.960 . S
H466 C463 0.961 . S
O467 Co442 1.967 . S
O467 C475 1.258 . S
O468 Co443 1.941 . S
O468 C475 1.266 . S
H469 C471 0.959 . S
H470 C471 0.961 . S
C471 C461 1.510 . S
C471 H469 0.959 . S
C471 H470 0.961 . S
C471 H472 0.960 . S
H472 C471 0.960 . S
H473 N453 0.862 . S
O474 Co442 1.920 . S
O474 C447 1.289 . S
C475 O467 1.258 . S
C475 O468 1.266 . S
Co476 O479 1.970 . S
Co476 N493 1.989 . S
Co476 O501 1.967 . S
Co476 O508 1.920 . S
Co477 O480 1.966 . S
Co477 N486 2.022 . S
Co477 N494 1.993 . S
Co477 O502 1.941 . S
C478 O479 1.258 . S
C478 O480 1.263 . S
O479 Co476 1.970 . S
O479 C478 1.258 . S
O480 Co477 1.966 . S
O480 C478 1.263 . S
C481 O482 1.235 . S
C481 O508 1.289 . S
O482 C481 1.235 . S
C483 C485 1.400 . S
C483 N486 1.351 . S
C483 C488 1.501 . S
C484 C485 1.387 . S
C484 N487 1.341 . S
C485 C483 1.400 . S
C485 C484 1.387 . S
N486 Co477 2.022 . S
N486 C483 1.351 . S
N486 N487 1.365 . S
N487 C484 1.341 . S
N487 N486 1.365 . S
N487 H507 0.862 . S
C488 C483 1.501 . S
C488 H489 0.961 . S
C488 H490 0.961 . S
C488 H491 0.960 . S
H489 C488 0.961 . S
H490 C488 0.961 . S
H491 C488 0.960 . S
C492 N493 1.342 . S
C492 C496 1.401 . S
C492 C497 1.499 . S
N493 Co476 1.989 . S
N493 C492 1.342 . S
N493 N494 1.388 . S
N494 Co477 1.993 . S
N494 N493 1.388 . S
N494 C495 1.346 . S
C495 N494 1.346 . S
C495 C496 1.396 . S
C495 C505 1.510 . S
C496 C492 1.401 . S
C496 C495 1.396 . S
C497 C492 1.499 . S
C497 H498 0.959 . S
C497 H499 0.960 . S
C497 H500 0.961 . S
H498 C497 0.959 . S
H499 C497 0.960 . S
H500 C497 0.961 . S
O501 Co476 1.967 . S
O501 C509 1.258 . S
O502 Co477 1.941 . S
O502 C509 1.266 . S
H503 C505 0.959 . S
H504 C505 0.961 . S
C505 C495 1.510 . S
C505 H503 0.959 . S
C505 H504 0.961 . S
C505 H506 0.960 . S
H506 C505 0.960 . S
H507 N487 0.862 . S
O508 Co476 1.920 . S
O508 C481 1.289 . S
C509 O501 1.258 . S
C509 O502 1.266 . S
Co510 O513 1.970 . S
Co510 N527 1.989 . S
Co510 O535 1.967 . S
Co510 O542 1.920 . S
Co511 O514 1.966 . S
Co511 N520 2.022 . S
Co511 N528 1.993 . S
Co511 O536 1.941 . S
C512 O513 1.258 . S
C512 O514 1.263 . S
O513 Co510 1.970 . S
O513 C512 1.258 . S
O514 Co511 1.966 . S
O514 C512 1.263 . S
C515 O516 1.235 . S
C515 O542 1.289 . S
O516 C515 1.235 . S
C517 C519 1.400 . S
C517 N520 1.351 . S
C517 C522 1.501 . S
C518 C519 1.387 . S
C518 N521 1.341 . S
C519 C517 1.400 . S
C519 C518 1.387 . S
N520 Co511 2.022 . S
N520 C517 1.351 . S
N520 N521 1.365 . S
N521 C518 1.341 . S
N521 N520 1.365 . S
N521 H541 0.862 . S
C522 C517 1.501 . S
C522 H523 0.961 . S
C522 H524 0.961 . S
C522 H525 0.960 . S
H523 C522 0.961 . S
H524 C522 0.961 . S
H525 C522 0.960 . S
C526 N527 1.342 . S
C526 C530 1.401 . S
C526 C531 1.499 . S
N527 Co510 1.989 . S
N527 C526 1.342 . S
N527 N528 1.388 . S
N528 Co511 1.993 . S
N528 N527 1.388 . S
N528 C529 1.346 . S
C529 N528 1.346 . S
C529 C530 1.396 . S
C529 C539 1.510 . S
C530 C526 1.401 . S
C530 C529 1.396 . S
C531 C526 1.499 . S
C531 H532 0.959 . S
C531 H533 0.960 . S
C531 H534 0.961 . S
H532 C531 0.959 . S
H533 C531 0.960 . S
H534 C531 0.961 . S
O535 Co510 1.967 . S
O535 C543 1.258 . S
O536 Co511 1.941 . S
O536 C543 1.266 . S
H537 C539 0.959 . S
H538 C539 0.961 . S
C539 C529 1.510 . S
C539 H537 0.959 . S
C539 H538 0.961 . S
C539 H540 0.960 . S
H540 C539 0.960 . S
H541 N521 0.862 . S
O542 Co510 1.920 . S
O542 C515 1.289 . S
C543 O535 1.258 . S
C543 O536 1.266 . S
Co544 O547 1.970 . S
Co544 N561 1.989 . S
Co544 O569 1.967 . S
Co544 O576 1.920 . S
Co545 O548 1.966 . S
Co545 N554 2.022 . S
Co545 N562 1.993 . S
Co545 O570 1.941 . S
C546 O547 1.258 . S
C546 O548 1.263 . S
O547 Co544 1.970 . S
O547 C546 1.258 . S
O548 Co545 1.966 . S
O548 C546 1.263 . S
C549 O550 1.235 . S
C549 O576 1.289 . S
O550 C549 1.235 . S
C551 C553 1.400 . S
C551 N554 1.351 . S
C551 C556 1.501 . S
C552 C553 1.387 . S
C552 N555 1.341 . S
C553 C551 1.400 . S
C553 C552 1.387 . S
N554 Co545 2.022 . S
N554 C551 1.351 . S
N554 N555 1.365 . S
N555 C552 1.341 . S
N555 N554 1.365 . S
N555 H575 0.862 . S
C556 C551 1.501 . S
C556 H557 0.961 . S
C556 H558 0.961 . S
C556 H559 0.960 . S
H557 C556 0.961 . S
H558 C556 0.961 . S
H559 C556 0.960 . S
C560 N561 1.342 . S
C560 C564 1.401 . S
C560 C565 1.499 . S
N561 Co544 1.989 . S
N561 C560 1.342 . S
N561 N562 1.388 . S
N562 Co545 1.993 . S
N562 N561 1.388 . S
N562 C563 1.346 . S
C563 N562 1.346 . S
C563 C564 1.396 . S
C563 C573 1.510 . S
C564 C560 1.401 . S
C564 C563 1.396 . S
C565 C560 1.499 . S
C565 H566 0.959 . S
C565 H567 0.960 . S
C565 H568 0.961 . S
H566 C565 0.959 . S
H567 C565 0.960 . S
H568 C565 0.961 . S
O569 Co544 1.967 . S
O569 C577 1.258 . S
O570 Co545 1.941 . S
O570 C577 1.266 . S
H571 C573 0.959 . S
H572 C573 0.961 . S
C573 C563 1.510 . S
C573 H571 0.959 . S
C573 H572 0.961 . S
C573 H574 0.960 . S
H574 C573 0.960 . S
H575 N555 0.862 . S
O576 Co544 1.920 . S
O576 C549 1.289 . S
C577 O569 1.258 . S
C577 O570 1.266 . S
Co578 O581 1.970 . S
Co578 N595 1.989 . S
Co578 O603 1.967 . S
Co578 O610 1.920 . S
Co579 O582 1.966 . S
Co579 N588 2.022 . S
Co579 N596 1.993 . S
Co579 O604 1.941 . S
C580 O581 1.258 . S
C580 O582 1.263 . S
O581 Co578 1.970 . S
O581 C580 1.258 . S
O582 Co579 1.966 . S
O582 C580 1.263 . S
C583 O584 1.235 . S
C583 O610 1.289 . S
O584 C583 1.235 . S
C585 C587 1.400 . S
C585 N588 1.351 . S
C585 C590 1.501 . S
C586 C587 1.387 . S
C586 N589 1.341 . S
C587 C585 1.400 . S
C587 C586 1.387 . S
N588 Co579 2.022 . S
N588 C585 1.351 . S
N588 N589 1.365 . S
N589 C586 1.341 . S
N589 N588 1.365 . S
N589 H609 0.862 . S
C590 C585 1.501 . S
C590 H591 0.961 . S
C590 H592 0.961 . S
C590 H593 0.960 . S
H591 C590 0.961 . S
H592 C590 0.961 . S
H593 C590 0.960 . S
C594 N595 1.342 . S
C594 C598 1.401 . S
C594 C599 1.499 . S
N595 Co578 1.989 . S
N595 C594 1.342 . S
N595 N596 1.388 . S
N596 Co579 1.993 . S
N596 N595 1.388 . S
N596 C597 1.346 . S
C597 N596 1.346 . S
C597 C598 1.396 . S
C597 C607 1.510 . S
C598 C594 1.401 . S
C598 C597 1.396 . S
C599 C594 1.499 . S
C599 H600 0.959 . S
C599 H601 0.960 . S
C599 H602 0.961 . S
H600 C599 0.959 . S
H601 C599 0.960 . S
H602 C599 0.961 . S
O603 Co578 1.967 . S
O603 C611 1.258 . S
O604 Co579 1.941 . S
O604 C611 1.266 . S
H605 C607 0.959 . S
H606 C607 0.961 . S
C607 C597 1.510 . S
C607 H605 0.959 . S
C607 H606 0.961 . S
C607 H608 0.960 . S
H608 C607 0.960 . S
H609 N589 0.862 . S
O610 Co578 1.920 . S
O610 C583 1.289 . S
C611 O603 1.258 . S
C611 O604 1.266 . S
Co612 O615 1.970 . S
Co612 N629 1.989 . S
Co612 O637 1.967 . S
Co612 O644 1.920 . S
Co613 O616 1.966 . S
Co613 N622 2.022 . S
Co613 N630 1.993 . S
Co613 O638 1.941 . S
C614 O615 1.258 . S
C614 O616 1.263 . S
O615 Co612 1.970 . S
O615 C614 1.258 . S
O616 Co613 1.966 . S
O616 C614 1.263 . S
C617 O618 1.235 . S
C617 O644 1.289 . S
O618 C617 1.235 . S
C619 C621 1.400 . S
C619 N622 1.351 . S
C619 C624 1.501 . S
C620 C621 1.387 . S
C620 N623 1.341 . S
C621 C619 1.400 . S
C621 C620 1.387 . S
N622 Co613 2.022 . S
N622 C619 1.351 . S
N622 N623 1.365 . S
N623 C620 1.341 . S
N623 N622 1.365 . S
N623 H643 0.862 . S
C624 C619 1.501 . S
C624 H625 0.961 . S
C624 H626 0.961 . S
C624 H627 0.960 . S
H625 C624 0.961 . S
H626 C624 0.961 . S
H627 C624 0.960 . S
C628 N629 1.342 . S
C628 C632 1.401 . S
C628 C633 1.499 . S
N629 Co612 1.989 . S
N629 C628 1.342 . S
N629 N630 1.388 . S
N630 Co613 1.993 . S
N630 N629 1.388 . S
N630 C631 1.346 . S
C631 N630 1.346 . S
C631 C632 1.396 . S
C631 C641 1.510 . S
C632 C628 1.401 . S
C632 C631 1.396 . S
C633 C628 1.499 . S
C633 H634 0.959 . S
C633 H635 0.960 . S
C633 H636 0.961 . S
H634 C633 0.959 . S
H635 C633 0.960 . S
H636 C633 0.961 . S
O637 Co612 1.967 . S
O637 C645 1.258 . S
O638 Co613 1.941 . S
O638 C645 1.266 . S
H639 C641 0.959 . S
H640 C641 0.961 . S
C641 C631 1.510 . S
C641 H639 0.959 . S
C641 H640 0.961 . S
C641 H642 0.960 . S
H642 C641 0.960 . S
H643 N623 0.862 . S
O644 Co612 1.920 . S
O644 C617 1.289 . S
C645 O637 1.258 . S
C645 O638 1.266 . S
Co646 O649 1.970 . S
Co646 N663 1.989 . S
Co646 O671 1.967 . S
Co646 O678 1.920 . S
Co647 O650 1.966 . S
Co647 N656 2.022 . S
Co647 N664 1.993 . S
Co647 O672 1.941 . S
C648 O649 1.258 . S
C648 O650 1.263 . S
O649 Co646 1.970 . S
O649 C648 1.258 . S
O650 Co647 1.966 . S
O650 C648 1.263 . S
C651 O652 1.235 . S
C651 O678 1.289 . S
O652 C651 1.235 . S
C653 C655 1.400 . S
C653 N656 1.351 . S
C653 C658 1.501 . S
C654 C655 1.387 . S
C654 N657 1.341 . S
C655 C653 1.400 . S
C655 C654 1.387 . S
N656 Co647 2.022 . S
N656 C653 1.351 . S
N656 N657 1.365 . S
N657 C654 1.341 . S
N657 N656 1.365 . S
N657 H677 0.862 . S
C658 C653 1.501 . S
C658 H659 0.961 . S
C658 H660 0.961 . S
C658 H661 0.960 . S
H659 C658 0.961 . S
H660 C658 0.961 . S
H661 C658 0.960 . S
C662 N663 1.342 . S
C662 C666 1.401 . S
C662 C667 1.499 . S
N663 Co646 1.989 . S
N663 C662 1.342 . S
N663 N664 1.388 . S
N664 Co647 1.993 . S
N664 N663 1.388 . S
N664 C665 1.346 . S
C665 N664 1.346 . S
C665 C666 1.396 . S
C665 C675 1.510 . S
C666 C662 1.401 . S
C666 C665 1.396 . S
C667 C662 1.499 . S
C667 H668 0.959 . S
C667 H669 0.960 . S
C667 H670 0.961 . S
H668 C667 0.959 . S
H669 C667 0.960 . S
H670 C667 0.961 . S
O671 Co646 1.967 . S
O671 C679 1.258 . S
O672 Co647 1.941 . S
O672 C679 1.266 . S
H673 C675 0.959 . S
H674 C675 0.961 . S
C675 C665 1.510 . S
C675 H673 0.959 . S
C675 H674 0.961 . S
C675 H676 0.960 . S
H676 C675 0.960 . S
H677 N657 0.862 . S
O678 Co646 1.920 . S
O678 C651 1.289 . S
C679 O671 1.258 . S
C679 O672 1.266 . S
Co680 O683 1.970 . S
Co680 N697 1.989 . S
Co680 O705 1.967 . S
Co680 O712 1.920 . S
Co681 O684 1.966 . S
Co681 N690 2.022 . S
Co681 N698 1.993 . S
Co681 O706 1.941 . S
C682 O683 1.258 . S
C682 O684 1.263 . S
O683 Co680 1.970 . S
O683 C682 1.258 . S
O684 Co681 1.966 . S
O684 C682 1.263 . S
C685 O686 1.235 . S
C685 O712 1.289 . S
O686 C685 1.235 . S
C687 C689 1.400 . S
C687 N690 1.351 . S
C687 C692 1.501 . S
C688 C689 1.387 . S
C688 N691 1.341 . S
C689 C687 1.400 . S
C689 C688 1.387 . S
N690 Co681 2.022 . S
N690 C687 1.351 . S
N690 N691 1.365 . S
N691 C688 1.341 . S
N691 N690 1.365 . S
N691 H711 0.862 . S
C692 C687 1.501 . S
C692 H693 0.961 . S
C692 H694 0.961 . S
C692 H695 0.960 . S
H693 C692 0.961 . S
H694 C692 0.961 . S
H695 C692 0.960 . S
C696 N697 1.342 . S
C696 C700 1.401 . S
C696 C701 1.499 . S
N697 Co680 1.989 . S
N697 C696 1.342 . S
N697 N698 1.388 . S
N698 Co681 1.993 . S
N698 N697 1.388 . S
N698 C699 1.346 . S
C699 N698 1.346 . S
C699 C700 1.396 . S
C699 C709 1.510 . S
C700 C696 1.401 . S
C700 C699 1.396 . S
C701 C696 1.499 . S
C701 H702 0.959 . S
C701 H703 0.960 . S
C701 H704 0.961 . S
H702 C701 0.959 . S
H703 C701 0.960 . S
H704 C701 0.961 . S
O705 Co680 1.967 . S
O705 C713 1.258 . S
O706 Co681 1.941 . S
O706 C713 1.266 . S
H707 C709 0.959 . S
H708 C709 0.961 . S
C709 C699 1.510 . S
C709 H707 0.959 . S
C709 H708 0.961 . S
C709 H710 0.960 . S
H710 C709 0.960 . S
H711 N691 0.862 . S
O712 Co680 1.920 . S
O712 C685 1.289 . S
C713 O705 1.258 . S
C713 O706 1.266 . S
Co714 O717 1.970 . S
Co714 N731 1.989 . S
Co714 O739 1.967 . S
Co714 O746 1.920 . S
Co715 O718 1.966 . S
Co715 N724 2.022 . S
Co715 N732 1.993 . S
Co715 O740 1.941 . S
C716 O717 1.258 . S
C716 O718 1.263 . S
O717 Co714 1.970 . S
O717 C716 1.258 . S
O718 Co715 1.966 . S
O718 C716 1.263 . S
C719 O720 1.235 . S
C719 O746 1.289 . S
O720 C719 1.235 . S
C721 C723 1.400 . S
C721 N724 1.351 . S
C721 C726 1.501 . S
C722 C723 1.387 . S
C722 N725 1.341 . S
C723 C721 1.400 . S
C723 C722 1.387 . S
N724 Co715 2.022 . S
N724 C721 1.351 . S
N724 N725 1.365 . S
N725 C722 1.341 . S
N725 N724 1.365 . S
N725 H745 0.862 . S
C726 C721 1.501 . S
C726 H727 0.961 . S
C726 H728 0.961 . S
C726 H729 0.960 . S
H727 C726 0.961 . S
H728 C726 0.961 . S
H729 C726 0.960 . S
C730 N731 1.342 . S
C730 C734 1.401 . S
C730 C735 1.499 . S
N731 Co714 1.989 . S
N731 C730 1.342 . S
N731 N732 1.388 . S
N732 Co715 1.993 . S
N732 N731 1.388 . S
N732 C733 1.346 . S
C733 N732 1.346 . S
C733 C734 1.396 . S
C733 C743 1.510 . S
C734 C730 1.401 . S
C734 C733 1.396 . S
C735 C730 1.499 . S
C735 H736 0.959 . S
C735 H737 0.960 . S
C735 H738 0.961 . S
H736 C735 0.959 . S
H737 C735 0.960 . S
H738 C735 0.961 . S
O739 Co714 1.967 . S
O739 C747 1.258 . S
O740 Co715 1.941 . S
O740 C747 1.266 . S
H741 C743 0.959 . S
H742 C743 0.961 . S
C743 C733 1.510 . S
C743 H741 0.959 . S
C743 H742 0.961 . S
C743 H744 0.960 . S
H744 C743 0.960 . S
H745 N725 0.862 . S
O746 Co714 1.920 . S
O746 C719 1.289 . S
C747 O739 1.258 . S
C747 O740 1.266 . S
Co748 O751 1.970 . S
Co748 N765 1.989 . S
Co748 O773 1.967 . S
Co748 O780 1.920 . S
Co749 O752 1.966 . S
Co749 N758 2.022 . S
Co749 N766 1.993 . S
Co749 O774 1.941 . S
C750 O751 1.258 . S
C750 O752 1.263 . S
O751 Co748 1.970 . S
O751 C750 1.258 . S
O752 Co749 1.966 . S
O752 C750 1.263 . S
C753 O754 1.235 . S
C753 O780 1.289 . S
O754 C753 1.235 . S
C755 C757 1.400 . S
C755 N758 1.351 . S
C755 C760 1.501 . S
C756 C757 1.387 . S
C756 N759 1.341 . S
C757 C755 1.400 . S
C757 C756 1.387 . S
N758 Co749 2.022 . S
N758 C755 1.351 . S
N758 N759 1.365 . S
N759 C756 1.341 . S
N759 N758 1.365 . S
N759 H779 0.862 . S
C760 C755 1.501 . S
C760 H761 0.961 . S
C760 H762 0.961 . S
C760 H763 0.960 . S
H761 C760 0.961 . S
H762 C760 0.961 . S
H763 C760 0.960 . S
C764 N765 1.342 . S
C764 C768 1.401 . S
C764 C769 1.499 . S
N765 Co748 1.989 . S
N765 C764 1.342 . S
N765 N766 1.388 . S
N766 Co749 1.993 . S
N766 N765 1.388 . S
N766 C767 1.346 . S
C767 N766 1.346 . S
C767 C768 1.396 . S
C767 C777 1.510 . S
C768 C764 1.401 . S
C768 C767 1.396 . S
C769 C764 1.499 . S
C769 H770 0.959 . S
C769 H771 0.960 . S
C769 H772 0.961 . S
H770 C769 0.959 . S
H771 C769 0.960 . S
H772 C769 0.961 . S
O773 Co748 1.967 . S
O773 C781 1.258 . S
O774 Co749 1.941 . S
O774 C781 1.266 . S
H775 C777 0.959 . S
H776 C777 0.961 . S
C777 C767 1.510 . S
C777 H775 0.959 . S
C777 H776 0.961 . S
C777 H778 0.960 . S
H778 C777 0.960 . S
H779 N759 0.862 . S
O780 Co748 1.920 . S
O780 C753 1.289 . S
C781 O773 1.258 . S
C781 O774 1.266 . S
Co782 O785 1.970 . S
Co782 N799 1.989 . S
Co782 O807 1.967 . S
Co782 O814 1.920 . S
Co783 O786 1.966 . S
Co783 N792 2.022 . S
Co783 N800 1.993 . S
Co783 O808 1.941 . S
C784 O785 1.258 . S
C784 O786 1.263 . S
O785 Co782 1.970 . S
O785 C784 1.258 . S
O786 Co783 1.966 . S
O786 C784 1.263 . S
C787 O788 1.235 . S
C787 O814 1.289 . S
O788 C787 1.235 . S
C789 C791 1.400 . S
C789 N792 1.351 . S
C789 C794 1.501 . S
C790 C791 1.387 . S
C790 N793 1.341 . S
C791 C789 1.400 . S
C791 C790 1.387 . S
N792 Co783 2.022 . S
N792 C789 1.351 . S
N792 N793 1.365 . S
N793 C790 1.341 . S
N793 N792 1.365 . S
N793 H813 0.862 . S
C794 C789 1.501 . S
C794 H795 0.961 . S
C794 H796 0.961 . S
C794 H797 0.960 . S
H795 C794 0.961 . S
H796 C794 0.961 . S
H797 C794 0.960 . S
C798 N799 1.342 . S
C798 C802 1.401 . S
C798 C803 1.499 . S
N799 Co782 1.989 . S
N799 C798 1.342 . S
N799 N800 1.388 . S
N800 Co783 1.993 . S
N800 N799 1.388 . S
N800 C801 1.346 . S
C801 N800 1.346 . S
C801 C802 1.396 . S
C801 C811 1.510 . S
C802 C798 1.401 . S
C802 C801 1.396 . S
C803 C798 1.499 . S
C803 H804 0.959 . S
C803 H805 0.960 . S
C803 H806 0.961 . S
H804 C803 0.959 . S
H805 C803 0.960 . S
H806 C803 0.961 . S
O807 Co782 1.967 . S
O807 C815 1.258 . S
O808 Co783 1.941 . S
O808 C815 1.266 . S
H809 C811 0.959 . S
H810 C811 0.961 . S
C811 C801 1.510 . S
C811 H809 0.959 . S
C811 H810 0.961 . S
C811 H812 0.960 . S
H812 C811 0.960 . S
H813 N793 0.862 . S
O814 Co782 1.920 . S
O814 C787 1.289 . S
C815 O807 1.258 . S
C815 O808 1.266 . S
Co816 O819 1.970 . S
Co816 N833 1.989 . S
Co816 O841 1.967 . S
Co816 O848 1.920 . S
Co817 O820 1.966 . S
Co817 N826 2.022 . S
Co817 N834 1.993 . S
Co817 O842 1.941 . S
C818 O819 1.258 . S
C818 O820 1.263 . S
O819 Co816 1.970 . S
O819 C818 1.258 . S
O820 Co817 1.966 . S
O820 C818 1.263 . S
C821 O822 1.235 . S
C821 O848 1.289 . S
O822 C821 1.235 . S
C823 C825 1.400 . S
C823 N826 1.351 . S
C823 C828 1.501 . S
C824 C825 1.387 . S
C824 N827 1.341 . S
C825 C823 1.400 . S
C825 C824 1.387 . S
N826 Co817 2.022 . S
N826 C823 1.351 . S
N826 N827 1.365 . S
N827 C824 1.341 . S
N827 N826 1.365 . S
N827 H847 0.862 . S
C828 C823 1.501 . S
C828 H829 0.961 . S
C828 H830 0.961 . S
C828 H831 0.960 . S
H829 C828 0.961 . S
H830 C828 0.961 . S
H831 C828 0.960 . S
C832 N833 1.342 . S
C832 C836 1.401 . S
C832 C837 1.499 . S
N833 Co816 1.989 . S
N833 C832 1.342 . S
N833 N834 1.388 . S
N834 Co817 1.993 . S
N834 N833 1.388 . S
N834 C835 1.346 . S
C835 N834 1.346 . S
C835 C836 1.396 . S
C835 C845 1.510 . S
C836 C832 1.401 . S
C836 C835 1.396 . S
C837 C832 1.499 . S
C837 H838 0.959 . S
C837 H839 0.960 . S
C837 H840 0.961 . S
H838 C837 0.959 . S
H839 C837 0.960 . S
H840 C837 0.961 . S
O841 Co816 1.967 . S
O841 C849 1.258 . S
O842 Co817 1.941 . S
O842 C849 1.266 . S
H843 C845 0.959 . S
H844 C845 0.961 . S
C845 C835 1.510 . S
C845 H843 0.959 . S
C845 H844 0.961 . S
C845 H846 0.960 . S
H846 C845 0.960 . S
H847 N827 0.862 . S
O848 Co816 1.920 . S
O848 C821 1.289 . S
C849 O841 1.258 . S
C849 O842 1.266 . S
Co850 O853 1.970 . S
Co850 N867 1.989 . S
Co850 O875 1.967 . S
Co850 O882 1.920 . S
Co851 O854 1.966 . S
Co851 N860 2.022 . S
Co851 N868 1.993 . S
Co851 O876 1.941 . S
C852 O853 1.258 . S
C852 O854 1.263 . S
O853 Co850 1.970 . S
O853 C852 1.258 . S
O854 Co851 1.966 . S
O854 C852 1.263 . S
C855 O856 1.235 . S
C855 O882 1.289 . S
O856 C855 1.235 . S
C857 C859 1.400 . S
C857 N860 1.351 . S
C857 C862 1.501 . S
C858 C859 1.387 . S
C858 N861 1.341 . S
C859 C857 1.400 . S
C859 C858 1.387 . S
N860 Co851 2.022 . S
N860 C857 1.351 . S
N860 N861 1.365 . S
N861 C858 1.341 . S
N861 N860 1.365 . S
N861 H881 0.862 . S
C862 C857 1.501 . S
C862 H863 0.961 . S
C862 H864 0.961 . S
C862 H865 0.960 . S
H863 C862 0.961 . S
H864 C862 0.961 . S
H865 C862 0.960 . S
C866 N867 1.342 . S
C866 C870 1.401 . S
C866 C871 1.499 . S
N867 Co850 1.989 . S
N867 C866 1.342 . S
N867 N868 1.388 . S
N868 Co851 1.993 . S
N868 N867 1.388 . S
N868 C869 1.346 . S
C869 N868 1.346 . S
C869 C870 1.396 . S
C869 C879 1.510 . S
C870 C866 1.401 . S
C870 C869 1.396 . S
C871 C866 1.499 . S
C871 H872 0.959 . S
C871 H873 0.960 . S
C871 H874 0.961 . S
H872 C871 0.959 . S
H873 C871 0.960 . S
H874 C871 0.961 . S
O875 Co850 1.967 . S
O875 C883 1.258 . S
O876 Co851 1.941 . S
O876 C883 1.266 . S
H877 C879 0.959 . S
H878 C879 0.961 . S
C879 C869 1.510 . S
C879 H877 0.959 . S
C879 H878 0.961 . S
C879 H880 0.960 . S
H880 C879 0.960 . S
H881 N861 0.862 . S
O882 Co850 1.920 . S
O882 C855 1.289 . S
C883 O875 1.258 . S
C883 O876 1.266 . S
Co884 O887 1.970 . S
Co884 N901 1.989 . S
Co884 O909 1.967 . S
Co884 O916 1.920 . S
Co885 O888 1.966 . S
Co885 N894 2.022 . S
Co885 N902 1.993 . S
Co885 O910 1.941 . S
C886 O887 1.258 . S
C886 O888 1.263 . S
O887 Co884 1.970 . S
O887 C886 1.258 . S
O888 Co885 1.966 . S
O888 C886 1.263 . S
C889 O890 1.235 . S
C889 O916 1.289 . S
O890 C889 1.235 . S
C891 C893 1.400 . S
C891 N894 1.351 . S
C891 C896 1.501 . S
C892 C893 1.387 . S
C892 N895 1.341 . S
C893 C891 1.400 . S
C893 C892 1.387 . S
N894 Co885 2.022 . S
N894 C891 1.351 . S
N894 N895 1.365 . S
N895 C892 1.341 . S
N895 N894 1.365 . S
N895 H915 0.862 . S
C896 C891 1.501 . S
C896 H897 0.961 . S
C896 H898 0.961 . S
C896 H899 0.960 . S
H897 C896 0.961 . S
H898 C896 0.961 . S
H899 C896 0.960 . S
C900 N901 1.342 . S
C900 C904 1.401 . S
C900 C905 1.499 . S
N901 Co884 1.989 . S
N901 C900 1.342 . S
N901 N902 1.388 . S
N902 Co885 1.993 . S
N902 N901 1.388 . S
N902 C903 1.346 . S
C903 N902 1.346 . S
C903 C904 1.396 . S
C903 C913 1.510 . S
C904 C900 1.401 . S
C904 C903 1.396 . S
C905 C900 1.499 . S
C905 H906 0.959 . S
C905 H907 0.960 . S
C905 H908 0.961 . S
H906 C905 0.959 . S
H907 C905 0.960 . S
H908 C905 0.961 . S
O909 Co884 1.967 . S
O909 C917 1.258 . S
O910 Co885 1.941 . S
O910 C917 1.266 . S
H911 C913 0.959 . S
H912 C913 0.961 . S
C913 C903 1.510 . S
C913 H911 0.959 . S
C913 H912 0.961 . S
C913 H914 0.960 . S
H914 C913 0.960 . S
H915 N895 0.862 . S
O916 Co884 1.920 . S
O916 C889 1.289 . S
C917 O909 1.258 . S
C917 O910 1.266 . S
Co918 O921 1.970 . S
Co918 N935 1.989 . S
Co918 O943 1.967 . S
Co918 O950 1.920 . S
Co919 O922 1.966 . S
Co919 N928 2.022 . S
Co919 N936 1.993 . S
Co919 O944 1.941 . S
C920 O921 1.258 . S
C920 O922 1.263 . S
O921 Co918 1.970 . S
O921 C920 1.258 . S
O922 Co919 1.966 . S
O922 C920 1.263 . S
C923 O924 1.235 . S
C923 O950 1.289 . S
O924 C923 1.235 . S
C925 C927 1.400 . S
C925 N928 1.351 . S
C925 C930 1.501 . S
C926 C927 1.387 . S
C926 N929 1.341 . S
C927 C925 1.400 . S
C927 C926 1.387 . S
N928 Co919 2.022 . S
N928 C925 1.351 . S
N928 N929 1.365 . S
N929 C926 1.341 . S
N929 N928 1.365 . S
N929 H949 0.862 . S
C930 C925 1.501 . S
C930 H931 0.961 . S
C930 H932 0.961 . S
C930 H933 0.960 . S
H931 C930 0.961 . S
H932 C930 0.961 . S
H933 C930 0.960 . S
C934 N935 1.342 . S
C934 C938 1.401 . S
C934 C939 1.499 . S
N935 Co918 1.989 . S
N935 C934 1.342 . S
N935 N936 1.388 . S
N936 Co919 1.993 . S
N936 N935 1.388 . S
N936 C937 1.346 . S
C937 N936 1.346 . S
C937 C938 1.396 . S
C937 C947 1.510 . S
C938 C934 1.401 . S
C938 C937 1.396 . S
C939 C934 1.499 . S
C939 H940 0.959 . S
C939 H941 0.960 . S
C939 H942 0.961 . S
H940 C939 0.959 . S
H941 C939 0.960 . S
H942 C939 0.961 . S
O943 Co918 1.967 . S
O943 C951 1.258 . S
O944 Co919 1.941 . S
O944 C951 1.266 . S
H945 C947 0.959 . S
H946 C947 0.961 . S
C947 C937 1.510 . S
C947 H945 0.959 . S
C947 H946 0.961 . S
C947 H948 0.960 . S
H948 C947 0.960 . S
H949 N929 0.862 . S
O950 Co918 1.920 . S
O950 C923 1.289 . S
C951 O943 1.258 . S
C951 O944 1.266 . S
Co952 O955 1.970 . S
Co952 N969 1.989 . S
Co952 O977 1.967 . S
Co952 O984 1.920 . S
Co953 O956 1.966 . S
Co953 N962 2.022 . S
Co953 N970 1.993 . S
Co953 O978 1.941 . S
C954 O955 1.258 . S
C954 O956 1.263 . S
O955 Co952 1.970 . S
O955 C954 1.258 . S
O956 Co953 1.966 . S
O956 C954 1.263 . S
C957 O958 1.235 . S
C957 O984 1.289 . S
O958 C957 1.235 . S
C959 C961 1.400 . S
C959 N962 1.351 . S
C959 C964 1.501 . S
C960 C961 1.387 . S
C960 N963 1.341 . S
C961 C959 1.400 . S
C961 C960 1.387 . S
N962 Co953 2.022 . S
N962 C959 1.351 . S
N962 N963 1.365 . S
N963 C960 1.341 . S
N963 N962 1.365 . S
N963 H983 0.862 . S
C964 C959 1.501 . S
C964 H965 0.961 . S
C964 H966 0.961 . S
C964 H967 0.960 . S
H965 C964 0.961 . S
H966 C964 0.961 . S
H967 C964 0.960 . S
C968 N969 1.342 . S
C968 C972 1.401 . S
C968 C973 1.499 . S
N969 Co952 1.989 . S
N969 C968 1.342 . S
N969 N970 1.388 . S
N970 Co953 1.993 . S
N970 N969 1.388 . S
N970 C971 1.346 . S
C971 N970 1.346 . S
C971 C972 1.396 . S
C971 C981 1.510 . S
C972 C968 1.401 . S
C972 C971 1.396 . S
C973 C968 1.499 . S
C973 H974 0.959 . S
C973 H975 0.960 . S
C973 H976 0.961 . S
H974 C973 0.959 . S
H975 C973 0.960 . S
H976 C973 0.961 . S
O977 Co952 1.967 . S
O977 C985 1.258 . S
O978 Co953 1.941 . S
O978 C985 1.266 . S
H979 C981 0.959 . S
H980 C981 0.961 . S
C981 C971 1.510 . S
C981 H979 0.959 . S
C981 H980 0.961 . S
C981 H982 0.960 . S
H982 C981 0.960 . S
H983 N963 0.862 . S
O984 Co952 1.920 . S
O984 C957 1.289 . S
C985 O977 1.258 . S
C985 O978 1.266 . S
Co986 O989 1.970 . S
Co986 N1003 1.989 . S
Co986 O1011 1.967 . S
Co986 O1018 1.920 . S
Co987 O990 1.966 . S
Co987 N996 2.022 . S
Co987 N1004 1.993 . S
Co987 O1012 1.941 . S
C988 O989 1.258 . S
C988 O990 1.263 . S
O989 Co986 1.970 . S
O989 C988 1.258 . S
O990 Co987 1.966 . S
O990 C988 1.263 . S
C991 O992 1.235 . S
C991 O1018 1.289 . S
O992 C991 1.235 . S
C993 C995 1.400 . S
C993 N996 1.351 . S
C993 C998 1.501 . S
C994 C995 1.387 . S
C994 N997 1.341 . S
C995 C993 1.400 . S
C995 C994 1.387 . S
N996 Co987 2.022 . S
N996 C993 1.351 . S
N996 N997 1.365 . S
N997 C994 1.341 . S
N997 N996 1.365 . S
N997 H1017 0.862 . S
C998 C993 1.501 . S
C998 H999 0.961 . S
C998 H1000 0.961 . S
C998 H1001 0.960 . S
H999 C998 0.961 . S
H1000 C998 0.961 . S
H1001 C998 0.960 . S
C1002 N1003 1.342 . S
C1002 C1006 1.401 . S
C1002 C1007 1.499 . S
N1003 Co986 1.989 . S
N1003 C1002 1.342 . S
N1003 N1004 1.388 . S
N1004 Co987 1.993 . S
N1004 N1003 1.388 . S
N1004 C1005 1.346 . S
C1005 N1004 1.346 . S
C1005 C1006 1.396 . S
C1005 C1015 1.510 . S
C1006 C1002 1.401 . S
C1006 C1005 1.396 . S
C1007 C1002 1.499 . S
C1007 H1008 0.959 . S
C1007 H1009 0.960 . S
C1007 H1010 0.961 . S
H1008 C1007 0.959 . S
H1009 C1007 0.960 . S
H1010 C1007 0.961 . S
O1011 Co986 1.967 . S
O1011 C1019 1.258 . S
O1012 Co987 1.941 . S
O1012 C1019 1.266 . S
H1013 C1015 0.959 . S
H1014 C1015 0.961 . S
C1015 C1005 1.510 . S
C1015 H1013 0.959 . S
C1015 H1014 0.961 . S
C1015 H1016 0.960 . S
H1016 C1015 0.960 . S
H1017 N997 0.862 . S
O1018 Co986 1.920 . S
O1018 C991 1.289 . S
C1019 O1011 1.258 . S
C1019 O1012 1.266 . S
Co1020 O1023 1.970 . S
Co1020 N1037 1.989 . S
Co1020 O1045 1.967 . S
Co1020 O1052 1.920 . S
Co1021 O1024 1.966 . S
Co1021 N1030 2.022 . S
Co1021 N1038 1.993 . S
Co1021 O1046 1.941 . S
C1022 O1023 1.258 . S
C1022 O1024 1.263 . S
O1023 Co1020 1.970 . S
O1023 C1022 1.258 . S
O1024 Co1021 1.966 . S
O1024 C1022 1.263 . S
C1025 O1026 1.235 . S
C1025 O1052 1.289 . S
O1026 C1025 1.235 . S
C1027 C1029 1.400 . S
C1027 N1030 1.351 . S
C1027 C1032 1.501 . S
C1028 C1029 1.387 . S
C1028 N1031 1.341 . S
C1029 C1027 1.400 . S
C1029 C1028 1.387 . S
N1030 Co1021 2.022 . S
N1030 C1027 1.351 . S
N1030 N1031 1.365 . S
N1031 C1028 1.341 . S
N1031 N1030 1.365 . S
N1031 H1051 0.862 . S
C1032 C1027 1.501 . S
C1032 H1033 0.961 . S
C1032 H1034 0.961 . S
C1032 H1035 0.960 . S
H1033 C1032 0.961 . S
H1034 C1032 0.961 . S
H1035 C1032 0.960 . S
C1036 N1037 1.342 . S
C1036 C1040 1.401 . S
C1036 C1041 1.499 . S
N1037 Co1020 1.989 . S
N1037 C1036 1.342 . S
N1037 N1038 1.388 . S
N1038 Co1021 1.993 . S
N1038 N1037 1.388 . S
N1038 C1039 1.346 . S
C1039 N1038 1.346 . S
C1039 C1040 1.396 . S
C1039 C1049 1.510 . S
C1040 C1036 1.401 . S
C1040 C1039 1.396 . S
C1041 C1036 1.499 . S
C1041 H1042 0.959 . S
C1041 H1043 0.960 . S
C1041 H1044 0.961 . S
H1042 C1041 0.959 . S
H1043 C1041 0.960 . S
H1044 C1041 0.961 . S
O1045 Co1020 1.967 . S
O1045 C1053 1.258 . S
O1046 Co1021 1.941 . S
O1046 C1053 1.266 . S
H1047 C1049 0.959 . S
H1048 C1049 0.961 . S
C1049 C1039 1.510 . S
C1049 H1047 0.959 . S
C1049 H1048 0.961 . S
C1049 H1050 0.960 . S
H1050 C1049 0.960 . S
H1051 N1031 0.862 . S
O1052 Co1020 1.920 . S
O1052 C1025 1.289 . S
C1053 O1045 1.258 . S
C1053 O1046 1.266 . S
Co1054 O1057 1.970 . S
Co1054 N1071 1.989 . S
Co1054 O1079 1.967 . S
Co1054 O1086 1.920 . S
Co1055 O1058 1.966 . S
Co1055 N1064 2.022 . S
Co1055 N1072 1.993 . S
Co1055 O1080 1.941 . S
C1056 O1057 1.258 . S
C1056 O1058 1.263 . S
O1057 Co1054 1.970 . S
O1057 C1056 1.258 . S
O1058 Co1055 1.966 . S
O1058 C1056 1.263 . S
C1059 O1060 1.235 . S
C1059 O1086 1.289 . S
O1060 C1059 1.235 . S
C1061 C1063 1.400 . S
C1061 N1064 1.351 . S
C1061 C1066 1.501 . S
C1062 C1063 1.387 . S
C1062 N1065 1.341 . S
C1063 C1061 1.400 . S
C1063 C1062 1.387 . S
N1064 Co1055 2.022 . S
N1064 C1061 1.351 . S
N1064 N1065 1.365 . S
N1065 C1062 1.341 . S
N1065 N1064 1.365 . S
N1065 H1085 0.862 . S
C1066 C1061 1.501 . S
C1066 H1067 0.961 . S
C1066 H1068 0.961 . S
C1066 H1069 0.960 . S
H1067 C1066 0.961 . S
H1068 C1066 0.961 . S
H1069 C1066 0.960 . S
C1070 N1071 1.342 . S
C1070 C1074 1.401 . S
C1070 C1075 1.499 . S
N1071 Co1054 1.989 . S
N1071 C1070 1.342 . S
N1071 N1072 1.388 . S
N1072 Co1055 1.993 . S
N1072 N1071 1.388 . S
N1072 C1073 1.346 . S
C1073 N1072 1.346 . S
C1073 C1074 1.396 . S
C1073 C1083 1.510 . S
C1074 C1070 1.401 . S
C1074 C1073 1.396 . S
C1075 C1070 1.499 . S
C1075 H1076 0.959 . S
C1075 H1077 0.960 . S
C1075 H1078 0.961 . S
H1076 C1075 0.959 . S
H1077 C1075 0.960 . S
H1078 C1075 0.961 . S
O1079 Co1054 1.967 . S
O1079 C1087 1.258 . S
O1080 Co1055 1.941 . S
O1080 C1087 1.266 . S
H1081 C1083 0.959 . S
H1082 C1083 0.961 . S
C1083 C1073 1.510 . S
C1083 H1081 0.959 . S
C1083 H1082 0.961 . S
C1083 H1084 0.960 . S
H1084 C1083 0.960 . S
H1085 N1065 0.862 . S
O1086 Co1054 1.920 . S
O1086 C1059 1.289 . S
C1087 O1079 1.258 . S
C1087 O1080 1.266 . S
C1088 C1089 1.349 . S
C1088 C1090 1.327 1_556 S
C1088 H1113 0.950 . S
C1089 C1088 1.349 . S
C1089 C1105 1.349 . S
C1090 C1088 1.327 1_554 S
C1090 C1109 1.429 . S
C1090 H1114 0.950 . S
C1091 C1108 1.574 . S
C1091 C1110 1.368 . S
C1091 H1115 0.949 . S
H1092 C1096 0.949 . S
C1093 C1094 1.349 . S
C1093 C1095 1.327 . S
C1093 H1116 0.950 . S
C1094 C1093 1.349 . S
C1094 C1106 1.349 . S
C1095 C1093 1.327 . S
C1095 C1111 1.429 . S
C1095 H1117 0.950 . S
C1096 H1092 0.949 . S
C1096 C1104 1.574 . S
C1096 C1112 1.368 . S
H1097 C1105 0.950 . S
H1098 C1103 0.950 . S
H1099 C1104 0.949 . S
H1100 C1106 0.950 . S
H1101 C1107 0.950 . S
H1102 C1108 0.949 . S
C1103 H1098 0.950 . S
C1103 C1105 1.327 1_554 S
C1103 C1109 1.429 . S
C1104 C1096 1.574 . S
C1104 H1099 0.949 . S
C1104 C1110 1.368 . S
C1105 C1089 1.349 . S
C1105 H1097 0.950 . S
C1105 C1103 1.327 1_556 S
C1106 C1094 1.349 . S
C1106 H1100 0.950 . S
C1106 C1107 1.327 . S
C1107 H1101 0.950 . S
C1107 C1106 1.327 . S
C1107 C1111 1.429 . S
C1108 C1091 1.574 . S
C1108 H1102 0.949 . S
C1108 C1112 1.368 . S
C1109 C1090 1.429 . S
C1109 C1103 1.429 . S
C1109 C1110 1.523 . S
C1110 C1091 1.368 . S
C1110 C1104 1.368 . S
C1110 C1109 1.523 . S
C1111 C1095 1.429 . S
C1111 C1107 1.429 . S
C1111 C1112 1.523 . S
C1112 C1096 1.368 . S
C1112 C1108 1.368 . S
C1112 C1111 1.523 . S
H1113 C1088 0.950 . S
H1114 C1090 0.950 . S
H1115 C1091 0.949 . S
H1116 C1093 0.950 . S
H1117 C1095 0.950 . S
C1118 C1119 1.349 . S
C1118 C1120 1.327 . S
C1118 H1143 0.950 . S
C1119 C1118 1.349 . S
C1119 C1135 1.349 . S
C1120 C1118 1.327 . S
C1120 C1139 1.429 . S
C1120 H1144 0.950 . S
C1121 C1138 1.574 . S
C1121 C1140 1.368 . S
C1121 H1145 0.949 . S
H1122 C1126 0.949 . S
C1123 C1124 1.349 . S
C1123 C1125 1.327 . S
C1123 H1146 0.950 . S
C1124 C1123 1.349 . S
C1124 C1136 1.349 . S
C1125 C1123 1.327 . S
C1125 C1141 1.429 . S
C1125 H1147 0.950 . S
C1126 H1122 0.949 . S
C1126 C1134 1.574 . S
C1126 C1142 1.368 . S
H1127 C1135 0.950 . S
H1128 C1133 0.950 . S
H1129 C1134 0.949 . S
H1130 C1136 0.950 . S
H1131 C1137 0.950 . S
H1132 C1138 0.949 . S
C1133 H1128 0.950 . S
C1133 C1135 1.327 . S
C1133 C1139 1.429 . S
C1134 C1126 1.574 . S
C1134 H1129 0.949 . S
C1134 C1140 1.368 . S
C1135 C1119 1.349 . S
C1135 H1127 0.950 . S
C1135 C1133 1.327 . S
C1136 C1124 1.349 . S
C1136 H1130 0.950 . S
C1136 C1137 1.327 . S
C1137 H1131 0.950 . S
C1137 C1136 1.327 . S
C1137 C1141 1.429 . S
C1138 C1121 1.574 . S
C1138 H1132 0.949 . S
C1138 C1142 1.368 . S
C1139 C1120 1.429 . S
C1139 C1133 1.429 . S
C1139 C1140 1.523 . S
C1140 C1121 1.368 . S
C1140 C1134 1.368 . S
C1140 C1139 1.523 . S
C1141 C1125 1.429 . S
C1141 C1137 1.429 . S
C1141 C1142 1.523 . S
C1142 C1126 1.368 . S
C1142 C1138 1.368 . S
C1142 C1141 1.523 . S
H1143 C1118 0.950 . S
H1144 C1120 0.950 . S
H1145 C1121 0.949 . S
H1146 C1123 0.950 . S
H1147 C1125 0.950 . S
C1148 C1149 1.349 . S
C1148 C1150 1.327 . S
C1148 H1173 0.950 . S
C1149 C1148 1.349 . S
C1149 C1165 1.349 . S
C1150 C1148 1.327 . S
C1150 C1169 1.429 . S
C1150 H1174 0.950 . S
C1151 C1168 1.574 . S
C1151 C1170 1.368 . S
C1151 H1175 0.949 . S
H1152 C1156 0.949 . S
C1153 C1154 1.349 . S
C1153 C1155 1.327 . S
C1153 H1176 0.950 . S
C1154 C1153 1.349 . S
C1154 C1166 1.349 . S
C1155 C1153 1.327 . S
C1155 C1171 1.429 . S
C1155 H1177 0.950 . S
C1156 H1152 0.949 . S
C1156 C1164 1.574 . S
C1156 C1172 1.368 . S
H1157 C1165 0.950 . S
H1158 C1163 0.950 . S
H1159 C1164 0.949 . S
H1160 C1166 0.950 . S
H1161 C1167 0.950 . S
H1162 C1168 0.949 . S
C1163 H1158 0.950 . S
C1163 C1165 1.327 . S
C1163 C1169 1.429 . S
C1164 C1156 1.574 . S
C1164 H1159 0.949 . S
C1164 C1170 1.368 . S
C1165 C1149 1.349 . S
C1165 H1157 0.950 . S
C1165 C1163 1.327 . S
C1166 C1154 1.349 . S
C1166 H1160 0.950 . S
C1166 C1167 1.327 . S
C1167 H1161 0.950 . S
C1167 C1166 1.327 . S
C1167 C1171 1.429 . S
C1168 C1151 1.574 . S
C1168 H1162 0.949 . S
C1168 C1172 1.368 . S
C1169 C1150 1.429 . S
C1169 C1163 1.429 . S
C1169 C1170 1.523 . S
C1170 C1151 1.368 . S
C1170 C1164 1.368 . S
C1170 C1169 1.523 . S
C1171 C1155 1.429 . S
C1171 C1167 1.429 . S
C1171 C1172 1.523 . S
C1172 C1156 1.368 . S
C1172 C1168 1.368 . S
C1172 C1171 1.523 . S
H1173 C1148 0.950 . S
H1174 C1150 0.950 . S
H1175 C1151 0.949 . S
H1176 C1153 0.950 . S
H1177 C1155 0.950 . S
C1178 C1179 1.349 . S
C1178 C1180 1.327 . S
C1178 H1203 0.950 . S
C1179 C1178 1.349 . S
C1179 C1195 1.349 . S
C1180 C1178 1.327 . S
C1180 C1199 1.429 . S
C1180 H1204 0.950 . S
C1181 C1198 1.574 . S
C1181 C1200 1.368 . S
C1181 H1205 0.949 . S
H1182 C1186 0.949 . S
C1183 C1184 1.347 1_556 S
C1183 C1185 1.330 . S
C1183 H1206 0.949 1_556 S
C1184 C1183 1.347 1_554 S
C1184 C1196 1.349 . S
C1185 C1183 1.330 . S
C1185 C1201 1.429 . S
C1185 H1207 0.950 . S
C1186 H1182 0.949 . S
C1186 C1194 1.574 . S
C1186 C1202 1.368 . S
H1187 C1195 0.950 . S
H1188 C1193 0.950 . S
H1189 C1194 0.949 . S
H1190 C1196 0.950 . S
H1191 C1197 0.950 . S
H1192 C1198 0.949 . S
C1193 H1188 0.950 . S
C1193 C1195 1.327 . S
C1193 C1199 1.429 . S
C1194 C1186 1.574 . S
C1194 H1189 0.949 . S
C1194 C1200 1.368 . S
C1195 C1179 1.349 . S
C1195 H1187 0.950 . S
C1195 C1193 1.327 . S
C1196 C1184 1.349 . S
C1196 H1190 0.950 . S
C1196 C1197 1.327 1_554 S
C1197 H1191 0.950 . S
C1197 C1196 1.327 1_556 S
C1197 C1201 1.429 . S
C1198 C1181 1.574 . S
C1198 H1192 0.949 . S
C1198 C1202 1.368 . S
C1199 C1180 1.429 . S
C1199 C1193 1.429 . S
C1199 C1200 1.523 . S
C1200 C1181 1.368 . S
C1200 C1194 1.368 . S
C1200 C1199 1.523 . S
C1201 C1185 1.429 . S
C1201 C1197 1.429 . S
C1201 C1202 1.523 . S
C1202 C1186 1.368 . S
C1202 C1198 1.368 . S
C1202 C1201 1.523 . S
H1203 C1178 0.950 . S
H1204 C1180 0.950 . S
H1205 C1181 0.949 . S
H1206 C1183 0.949 1_554 S
H1207 C1185 0.950 . S
C1208 C1209 1.349 . S
C1208 C1210 1.327 . S
C1208 H1233 0.950 . S
C1209 C1208 1.349 . S
C1209 C1225 1.349 . S
C1210 C1208 1.327 . S
C1210 C1229 1.429 . S
C1210 H1234 0.950 . S
C1211 C1228 1.574 . S
C1211 C1230 1.368 . S
C1211 H1235 0.949 . S
H1212 C1216 0.949 . S
C1213 C1214 1.349 . S
C1213 C1215 1.327 1_554 S
C1213 H1236 0.950 . S
C1214 C1213 1.349 . S
C1214 C1226 1.349 . S
C1215 C1213 1.327 1_556 S
C1215 C1231 1.429 . S
C1215 H1237 0.950 . S
C1216 H1212 0.949 . S
C1216 C1224 1.574 . S
C1216 C1232 1.368 . S
H1217 C1225 0.950 . S
H1218 C1223 0.950 . S
H1219 C1224 0.949 . S
H1220 C1226 0.950 . S
H1221 C1227 0.950 . S
H1222 C1228 0.949 . S
C1223 H1218 0.950 . S
C1223 C1225 1.327 . S
C1223 C1229 1.429 . S
C1224 C1216 1.574 . S
C1224 H1219 0.949 . S
C1224 C1230 1.368 . S
C1225 C1209 1.349 . S
C1225 H1217 0.950 . S
C1225 C1223 1.327 . S
C1226 C1214 1.349 . S
C1226 H1220 0.950 . S
C1226 C1227 1.327 1_554 S
C1227 H1221 0.950 . S
C1227 C1226 1.327 1_556 S
C1227 C1231 1.429 . S
C1228 C1211 1.574 . S
C1228 H1222 0.949 . S
C1228 C1232 1.368 . S
C1229 C1210 1.429 . S
C1229 C1223 1.429 . S
C1229 C1230 1.523 . S
C1230 C1211 1.368 . S
C1230 C1224 1.368 . S
C1230 C1229 1.523 . S
C1231 C1215 1.429 . S
C1231 C1227 1.429 . S
C1231 C1232 1.523 . S
C1232 C1216 1.368 . S
C1232 C1228 1.368 . S
C1232 C1231 1.523 . S
H1233 C1208 0.950 . S
H1234 C1210 0.950 . S
H1235 C1211 0.949 . S
H1236 C1213 0.950 . S
H1237 C1215 0.950 . S
C1238 C1239 1.349 . S
C1238 C1240 1.327 . S
C1238 H1263 0.950 . S
C1239 C1238 1.349 . S
C1239 C1255 1.349 . S
C1240 C1238 1.327 . S
C1240 C1259 1.429 . S
C1240 H1264 0.950 . S
C1241 C1258 1.574 . S
C1241 C1260 1.368 . S
C1241 H1265 0.949 . S
H1242 C1246 0.949 . S
C1243 C1244 1.349 . S
C1243 C1245 1.327 . S
C1243 H1266 0.950 . S
C1244 C1243 1.349 . S
C1244 C1256 1.349 . S
C1245 C1243 1.327 . S
C1245 C1261 1.429 . S
C1245 H1267 0.950 . S
C1246 H1242 0.949 . S
C1246 C1254 1.574 . S
C1246 C1262 1.368 . S
H1247 C1255 0.950 . S
H1248 C1253 0.950 . S
H1249 C1254 0.949 . S
H1250 C1256 0.950 . S
H1251 C1257 0.950 . S
H1252 C1258 0.949 . S
C1253 H1248 0.950 . S
C1253 C1255 1.327 . S
C1253 C1259 1.429 . S
C1254 C1246 1.574 . S
C1254 H1249 0.949 . S
C1254 C1260 1.368 . S
C1255 C1239 1.349 . S
C1255 H1247 0.950 . S
C1255 C1253 1.327 . S
C1256 C1244 1.349 . S
C1256 H1250 0.950 . S
C1256 C1257 1.327 . S
C1257 H1251 0.950 . S
C1257 C1256 1.327 . S
C1257 C1261 1.429 . S
C1258 C1241 1.574 . S
C1258 H1252 0.949 . S
C1258 C1262 1.368 . S
C1259 C1240 1.429 . S
C1259 C1253 1.429 . S
C1259 C1260 1.523 . S
C1260 C1241 1.368 . S
C1260 C1254 1.368 . S
C1260 C1259 1.523 . S
C1261 C1245 1.429 . S
C1261 C1257 1.429 . S
C1261 C1262 1.523 . S
C1262 C1246 1.368 . S
C1262 C1258 1.368 . S
C1262 C1261 1.523 . S
H1263 C1238 0.950 . S
H1264 C1240 0.950 . S
H1265 C1241 0.949 . S
H1266 C1243 0.950 . S
H1267 C1245 0.950 . S
C1268 C1269 1.349 . S
C1268 C1270 1.327 . S
C1268 H1293 0.950 . S
C1269 C1268 1.349 . S
C1269 C1285 1.349 . S
C1270 C1268 1.327 . S
C1270 C1289 1.429 . S
C1270 H1294 0.950 . S
C1271 C1288 1.574 . S
C1271 C1290 1.368 . S
C1271 H1295 0.949 . S
H1272 C1276 0.949 . S
C1273 C1274 1.349 . S
C1273 C1275 1.327 . S
C1273 H1296 0.950 . S
C1274 C1273 1.349 . S
C1274 C1286 1.349 . S
C1275 C1273 1.327 . S
C1275 C1291 1.429 . S
C1275 H1297 0.950 . S
C1276 H1272 0.949 . S
C1276 C1284 1.574 . S
C1276 C1292 1.368 . S
H1277 C1285 0.950 . S
H1278 C1283 0.950 . S
H1279 C1284 0.949 . S
H1280 C1286 0.950 . S
H1281 C1287 0.950 . S
H1282 C1288 0.949 . S
C1283 H1278 0.950 . S
C1283 C1285 1.327 . S
C1283 C1289 1.429 . S
C1284 C1276 1.574 . S
C1284 H1279 0.949 . S
C1284 C1290 1.368 . S
C1285 C1269 1.349 . S
C1285 H1277 0.950 . S
C1285 C1283 1.327 . S
C1286 C1274 1.349 . S
C1286 H1280 0.950 . S
C1286 C1287 1.327 . S
C1287 H1281 0.950 . S
C1287 C1286 1.327 . S
C1287 C1291 1.429 . S
C1288 C1271 1.574 . S
C1288 H1282 0.949 . S
C1288 C1292 1.368 . S
C1289 C1270 1.429 . S
C1289 C1283 1.429 . S
C1289 C1290 1.523 . S
C1290 C1271 1.368 . S
C1290 C1284 1.368 . S
C1290 C1289 1.523 . S
C1291 C1275 1.429 . S
C1291 C1287 1.429 . S
C1291 C1292 1.523 . S
C1292 C1276 1.368 . S
C1292 C1288 1.368 . S
C1292 C1291 1.523 . S
H1293 C1268 0.950 . S
H1294 C1270 0.950 . S
H1295 C1271 0.949 . S
H1296 C1273 0.950 . S
H1297 C1275 0.950 . S
C1298 C1299 1.349 . S
C1298 C1300 1.327 . S
C1298 H1323 0.950 . S
C1299 C1298 1.349 . S
C1299 C1315 1.349 . S
C1300 C1298 1.327 . S
C1300 C1319 1.429 . S
C1300 H1324 0.950 . S
C1301 C1318 1.574 . S
C1301 C1320 1.368 . S
C1301 H1325 0.949 . S
H1302 C1306 0.949 . S
C1303 C1304 1.349 . S
C1303 C1305 1.327 1_556 S
C1303 H1326 0.950 . S
C1304 C1303 1.349 . S
C1304 C1316 1.349 . S
C1305 C1303 1.327 1_554 S
C1305 C1321 1.429 . S
C1305 H1327 0.950 . S
C1306 H1302 0.949 . S
C1306 C1314 1.574 . S
C1306 C1322 1.368 . S
H1307 C1315 0.950 . S
H1308 C1313 0.950 . S
H1309 C1314 0.949 . S
H1310 C1316 0.950 . S
H1311 C1317 0.950 . S
H1312 C1318 0.949 . S
C1313 H1308 0.950 . S
C1313 C1315 1.327 . S
C1313 C1319 1.429 . S
C1314 C1306 1.574 . S
C1314 H1309 0.949 . S
C1314 C1320 1.368 . S
C1315 C1299 1.349 . S
C1315 H1307 0.950 . S
C1315 C1313 1.327 . S
C1316 C1304 1.349 . S
C1316 H1310 0.950 . S
C1316 C1317 1.327 1_556 S
C1317 H1311 0.950 . S
C1317 C1316 1.327 1_554 S
C1317 C1321 1.429 . S
C1318 C1301 1.574 . S
C1318 H1312 0.949 . S
C1318 C1322 1.368 . S
C1319 C1300 1.429 . S
C1319 C1313 1.429 . S
C1319 C1320 1.523 . S
C1320 C1301 1.368 . S
C1320 C1314 1.368 . S
C1320 C1319 1.523 . S
C1321 C1305 1.429 . S
C1321 C1317 1.429 . S
C1321 C1322 1.523 . S
C1322 C1306 1.368 . S
C1322 C1318 1.368 . S
C1322 C1321 1.523 . S
H1323 C1298 0.950 . S
H1324 C1300 0.950 . S
H1325 C1301 0.949 . S
H1326 C1303 0.950 . S
H1327 C1305 0.950 . S
C1328 C1329 1.349 . S
C1328 C1330 1.327 . S
C1328 H1353 0.950 . S
C1329 C1328 1.349 . S
C1329 C1345 1.349 . S
C1330 C1328 1.327 . S
C1330 C1349 1.429 . S
C1330 H1354 0.950 . S
C1331 C1348 1.574 . S
C1331 C1350 1.368 . S
C1331 H1355 0.949 . S
H1332 C1336 0.949 . S
C1333 C1334 1.349 . S
C1333 C1335 1.327 . S
C1333 H1356 0.950 . S
C1334 C1333 1.349 . S
C1334 C1346 1.349 . S
C1335 C1333 1.327 . S
C1335 C1351 1.429 . S
C1335 H1357 0.950 . S
C1336 H1332 0.949 . S
C1336 C1344 1.574 . S
C1336 C1352 1.368 . S
H1337 C1345 0.950 . S
H1338 C1343 0.950 . S
H1339 C1344 0.949 . S
H1340 C1346 0.950 . S
H1341 C1347 0.950 . S
H1342 C1348 0.949 . S
C1343 H1338 0.950 . S
C1343 C1345 1.327 . S
C1343 C1349 1.429 . S
C1344 C1336 1.574 . S
C1344 H1339 0.949 . S
C1344 C1350 1.368 . S
C1345 C1329 1.349 . S
C1345 H1337 0.950 . S
C1345 C1343 1.327 . S
C1346 C1334 1.349 . S
C1346 H1340 0.950 . S
C1346 C1347 1.327 . S
C1347 H1341 0.950 . S
C1347 C1346 1.327 . S
C1347 C1351 1.429 . S
C1348 C1331 1.574 . S
C1348 H1342 0.949 . S
C1348 C1352 1.368 . S
C1349 C1330 1.429 . S
C1349 C1343 1.429 . S
C1349 C1350 1.523 . S
C1350 C1331 1.368 . S
C1350 C1344 1.368 . S
C1350 C1349 1.523 . S
C1351 C1335 1.429 . S
C1351 C1347 1.429 . S
C1351 C1352 1.523 . S
C1352 C1336 1.368 . S
C1352 C1348 1.368 . S
C1352 C1351 1.523 . S
H1353 C1328 0.950 . S
H1354 C1330 0.950 . S
H1355 C1331 0.949 . S
H1356 C1333 0.950 . S
H1357 C1335 0.950 . S
C1358 C1359 1.349 . S
C1358 C1360 1.327 . S
C1358 H1383 0.950 . S
C1359 C1358 1.349 . S
C1359 C1375 1.349 . S
C1360 C1358 1.327 . S
C1360 C1379 1.429 . S
C1360 H1384 0.950 . S
C1361 C1378 1.574 . S
C1361 C1380 1.368 . S
C1361 H1385 0.949 . S
H1362 C1366 0.949 . S
C1363 C1364 1.369 . S
C1363 C1365 1.296 1_554 S
C1363 H1386 0.962 . S
C1364 C1363 1.369 . S
C1364 C1376 1.349 . S
C1365 C1363 1.296 1_556 S
C1365 C1381 1.429 . S
C1365 H1387 0.950 . S
C1366 H1362 0.949 . S
C1366 C1374 1.574 . S
C1366 C1382 1.368 . S
H1367 C1375 0.950 . S
H1368 C1373 0.950 . S
H1369 C1374 0.949 . S
H1370 C1376 0.950 . S
H1371 C1377 0.950 . S
H1372 C1378 0.949 . S
C1373 H1368 0.950 . S
C1373 C1375 1.327 . S
C1373 C1379 1.429 . S
C1374 C1366 1.574 . S
C1374 H1369 0.949 . S
C1374 C1380 1.368 . S
C1375 C1359 1.349 . S
C1375 H1367 0.950 . S
C1375 C1373 1.327 . S
C1376 C1364 1.349 . S
C1376 H1370 0.950 . S
C1376 C1377 1.327 1_554 S
C1377 H1371 0.950 . S
C1377 C1376 1.327 1_556 S
C1377 C1381 1.429 . S
C1378 C1361 1.574 . S
C1378 H1372 0.949 . S
C1378 C1382 1.368 . S
C1379 C1360 1.429 . S
C1379 C1373 1.429 . S
C1379 C1380 1.523 . S
C1380 C1361 1.368 . S
C1380 C1374 1.368 . S
C1380 C1379 1.523 . S
C1381 C1365 1.429 . S
C1381 C1377 1.429 . S
C1381 C1382 1.523 . S
C1382 C1366 1.368 . S
C1382 C1378 1.368 . S
C1382 C1381 1.523 . S
H1383 C1358 0.950 . S
H1384 C1360 0.950 . S
H1385 C1361 0.949 . S
H1386 C1363 0.962 . S
H1387 C1365 0.950 . S
C1388 C1389 1.349 . S
C1388 C1390 1.327 1_556 S
C1388 H1413 0.950 . S
C1389 C1388 1.349 . S
C1389 C1405 1.349 . S
C1390 C1388 1.327 1_554 S
C1390 C1409 1.429 . S
C1390 H1414 0.950 . S
C1391 C1408 1.574 . S
C1391 C1410 1.368 . S
C1391 H1415 0.949 . S
H1392 C1396 0.949 . S
C1393 C1394 1.349 . S
C1393 C1395 1.327 . S
C1393 H1416 0.950 . S
C1394 C1393 1.349 . S
C1394 C1406 1.349 . S
C1395 C1393 1.327 . S
C1395 C1411 1.429 . S
C1395 H1417 0.950 . S
C1396 H1392 0.949 . S
C1396 C1404 1.574 . S
C1396 C1412 1.368 . S
H1397 C1405 0.950 . S
H1398 C1403 0.950 . S
H1399 C1404 0.949 . S
H1400 C1406 0.950 . S
H1401 C1407 0.950 . S
H1402 C1408 0.949 . S
C1403 H1398 0.950 . S
C1403 C1405 1.327 1_554 S
C1403 C1409 1.429 . S
C1404 C1396 1.574 . S
C1404 H1399 0.949 . S
C1404 C1410 1.368 . S
C1405 C1389 1.349 . S
C1405 H1397 0.950 . S
C1405 C1403 1.327 1_556 S
C1406 C1394 1.349 . S
C1406 H1400 0.950 . S
C1406 C1407 1.327 . S
C1407 H1401 0.950 . S
C1407 C1406 1.327 . S
C1407 C1411 1.429 . S
C1408 C1391 1.574 . S
C1408 H1402 0.949 . S
C1408 C1412 1.368 . S
C1409 C1390 1.429 . S
C1409 C1403 1.429 . S
C1409 C1410 1.523 . S
C1410 C1391 1.368 . S
C1410 C1404 1.368 . S
C1410 C1409 1.523 . S
C1411 C1395 1.429 . S
C1411 C1407 1.429 . S
C1411 C1412 1.523 . S
C1412 C1396 1.368 . S
C1412 C1408 1.368 . S
C1412 C1411 1.523 . S
H1413 C1388 0.950 . S
H1414 C1390 0.950 . S
H1415 C1391 0.949 . S
H1416 C1393 0.950 . S
H1417 C1395 0.950 . S
C1418 C1419 1.349 . S
C1418 C1420 1.327 . S
C1418 H1443 0.950 . S
C1419 C1418 1.349 . S
C1419 C1435 1.349 . S
C1420 C1418 1.327 . S
C1420 C1439 1.429 . S
C1420 H1444 0.950 . S
C1421 C1438 1.574 . S
C1421 C1440 1.368 . S
C1421 H1445 0.949 . S
H1422 C1426 0.949 . S
C1423 C1424 1.349 . S
C1423 C1425 1.327 . S
C1423 H1446 0.950 . S
C1424 C1423 1.349 . S
C1424 C1436 1.349 . S
C1425 C1423 1.327 . S
C1425 C1441 1.429 . S
C1425 H1447 0.950 . S
C1426 H1422 0.949 . S
C1426 C1434 1.574 . S
C1426 C1442 1.368 . S
H1427 C1435 0.950 . S
H1428 C1433 0.950 . S
H1429 C1434 0.949 . S
H1430 C1436 0.950 . S
H1431 C1437 0.950 . S
H1432 C1438 0.949 . S
C1433 H1428 0.950 . S
C1433 C1435 1.327 . S
C1433 C1439 1.429 . S
C1434 C1426 1.574 . S
C1434 H1429 0.949 . S
C1434 C1440 1.368 . S
C1435 C1419 1.349 . S
C1435 H1427 0.950 . S
C1435 C1433 1.327 . S
C1436 C1424 1.349 . S
C1436 H1430 0.950 . S
C1436 C1437 1.327 . S
C1437 H1431 0.950 . S
C1437 C1436 1.327 . S
C1437 C1441 1.429 . S
C1438 C1421 1.574 . S
C1438 H1432 0.949 . S
C1438 C1442 1.368 . S
C1439 C1420 1.429 . S
C1439 C1433 1.429 . S
C1439 C1440 1.523 . S
C1440 C1421 1.368 . S
C1440 C1434 1.368 . S
C1440 C1439 1.523 . S
C1441 C1425 1.429 . S
C1441 C1437 1.429 . S
C1441 C1442 1.523 . S
C1442 C1426 1.368 . S
C1442 C1438 1.368 . S
C1442 C1441 1.523 . S
H1443 C1418 0.950 . S
H1444 C1420 0.950 . S
H1445 C1421 0.949 . S
H1446 C1423 0.950 . S
H1447 C1425 0.950 . S
C1448 C1449 1.349 . S
C1448 C1450 1.327 . S
C1448 H1473 0.950 . S
C1449 C1448 1.349 . S
C1449 C1465 1.349 . S
C1450 C1448 1.327 . S
C1450 C1469 1.429 . S
C1450 H1474 0.950 . S
C1451 C1468 1.574 . S
C1451 C1470 1.368 . S
C1451 H1475 0.949 . S
H1452 C1456 0.949 . S
C1453 C1454 1.349 . S
C1453 C1455 1.327 . S
C1453 H1476 0.950 . S
C1454 C1453 1.349 . S
C1454 C1466 1.349 . S
C1455 C1453 1.327 . S
C1455 C1471 1.429 . S
C1455 H1477 0.950 . S
C1456 H1452 0.949 . S
C1456 C1464 1.574 . S
C1456 C1472 1.368 . S
H1457 C1465 0.950 . S
H1458 C1463 0.950 . S
H1459 C1464 0.949 . S
H1460 C1466 0.950 . S
H1461 C1467 0.950 . S
H1462 C1468 0.949 . S
C1463 H1458 0.950 . S
C1463 C1465 1.327 . S
C1463 C1469 1.429 . S
C1464 C1456 1.574 . S
C1464 H1459 0.949 . S
C1464 C1470 1.368 . S
C1465 C1449 1.349 . S
C1465 H1457 0.950 . S
C1465 C1463 1.327 . S
C1466 C1454 1.349 . S
C1466 H1460 0.950 . S
C1466 C1467 1.327 . S
C1467 H1461 0.950 . S
C1467 C1466 1.327 . S
C1467 C1471 1.429 . S
C1468 C1451 1.574 . S
C1468 H1462 0.949 . S
C1468 C1472 1.368 . S
C1469 C1450 1.429 . S
C1469 C1463 1.429 . S
C1469 C1470 1.523 . S
C1470 C1451 1.368 . S
C1470 C1464 1.368 . S
C1470 C1469 1.523 . S
C1471 C1455 1.429 . S
C1471 C1467 1.429 . S
C1471 C1472 1.523 . S
C1472 C1456 1.368 . S
C1472 C1468 1.368 . S
C1472 C1471 1.523 . S
H1473 C1448 0.950 . S
H1474 C1450 0.950 . S
H1475 C1451 0.949 . S
H1476 C1453 0.950 . S
H1477 C1455 0.950 . S
C1478 C1479 1.340 1_554 S
C1478 C1480 1.341 . S
C1478 H1503 0.945 1_554 S
C1479 C1478 1.340 1_556 S
C1479 C1495 1.349 . S
C1480 C1478 1.341 . S
C1480 C1499 1.429 . S
C1480 H1504 0.950 . S
C1481 C1498 1.574 . S
C1481 C1500 1.368 . S
C1481 H1505 0.949 . S
H1482 C1486 0.949 . S
C1483 C1484 1.349 . S
C1483 C1485 1.327 . S
C1483 H1506 0.950 . S
C1484 C1483 1.349 . S
C1484 C1496 1.349 . S
C1485 C1483 1.327 . S
C1485 C1501 1.429 . S
C1485 H1507 0.950 . S
C1486 H1482 0.949 . S
C1486 C1494 1.574 . S
C1486 C1502 1.368 . S
H1487 C1495 0.950 . S
H1488 C1493 0.950 . S
H1489 C1494 0.949 . S
H1490 C1496 0.950 . S
H1491 C1497 0.950 . S
H1492 C1498 0.949 . S
C1493 H1488 0.950 . S
C1493 C1495 1.327 1_554 S
C1493 C1499 1.429 . S
C1494 C1486 1.574 . S
C1494 H1489 0.949 . S
C1494 C1500 1.368 . S
C1495 C1479 1.349 . S
C1495 H1487 0.950 . S
C1495 C1493 1.327 1_556 S
C1496 C1484 1.349 . S
C1496 H1490 0.950 . S
C1496 C1497 1.327 . S
C1497 H1491 0.950 . S
C1497 C1496 1.327 . S
C1497 C1501 1.429 . S
C1498 C1481 1.574 . S
C1498 H1492 0.949 . S
C1498 C1502 1.368 . S
C1499 C1480 1.429 . S
C1499 C1493 1.429 . S
C1499 C1500 1.523 . S
C1500 C1481 1.368 . S
C1500 C1494 1.368 . S
C1500 C1499 1.523 . S
C1501 C1485 1.429 . S
C1501 C1497 1.429 . S
C1501 C1502 1.523 . S
C1502 C1486 1.368 . S
C1502 C1498 1.368 . S
C1502 C1501 1.523 . S
H1503 C1478 0.945 1_556 S
H1504 C1480 0.950 . S
H1505 C1481 0.949 . S
H1506 C1483 0.950 . S
H1507 C1485 0.950 . S
C1508 C1509 1.340 1_556 S
C1508 C1510 1.341 . S
C1508 H1533 0.945 1_556 S
C1509 C1508 1.340 1_554 S
C1509 C1525 1.349 . S
C1510 C1508 1.341 . S
C1510 C1529 1.429 . S
C1510 H1534 0.950 . S
C1511 C1528 1.574 . S
C1511 C1530 1.368 . S
C1511 H1535 0.949 . S
H1512 C1516 0.949 . S
C1513 C1514 1.349 . S
C1513 C1515 1.327 . S
C1513 H1536 0.950 . S
C1514 C1513 1.349 . S
C1514 C1526 1.349 . S
C1515 C1513 1.327 . S
C1515 C1531 1.429 . S
C1515 H1537 0.950 . S
C1516 H1512 0.949 . S
C1516 C1524 1.574 . S
C1516 C1532 1.368 . S
H1517 C1525 0.950 . S
H1518 C1523 0.950 . S
H1519 C1524 0.949 . S
H1520 C1526 0.950 . S
H1521 C1527 0.950 . S
H1522 C1528 0.949 . S
C1523 H1518 0.950 . S
C1523 C1525 1.327 1_556 S
C1523 C1529 1.429 . S
C1524 C1516 1.574 . S
C1524 H1519 0.949 . S
C1524 C1530 1.368 . S
C1525 C1509 1.349 . S
C1525 H1517 0.950 . S
C1525 C1523 1.327 1_554 S
C1526 C1514 1.349 . S
C1526 H1520 0.950 . S
C1526 C1527 1.327 . S
C1527 H1521 0.950 . S
C1527 C1526 1.327 . S
C1527 C1531 1.429 . S
C1528 C1511 1.574 . S
C1528 H1522 0.949 . S
C1528 C1532 1.368 . S
C1529 C1510 1.429 . S
C1529 C1523 1.429 . S
C1529 C1530 1.523 . S
C1530 C1511 1.368 . S
C1530 C1524 1.368 . S
C1530 C1529 1.523 . S
C1531 C1515 1.429 . S
C1531 C1527 1.429 . S
C1531 C1532 1.523 . S
C1532 C1516 1.368 . S
C1532 C1528 1.368 . S
C1532 C1531 1.523 . S
H1533 C1508 0.945 1_554 S
H1534 C1510 0.950 . S
H1535 C1511 0.949 . S
H1536 C1513 0.950 . S
H1537 C1515 0.950 . S
C1538 C1539 1.349 . S
C1538 C1540 1.327 . S
C1538 H1563 0.950 . S
C1539 C1538 1.349 . S
C1539 C1555 1.349 . S
C1540 C1538 1.327 . S
C1540 C1559 1.429 . S
C1540 H1564 0.950 . S
C1541 C1558 1.574 . S
C1541 C1560 1.368 . S
C1541 H1565 0.949 . S
H1542 C1546 0.949 . S
C1543 C1544 1.349 . S
C1543 C1545 1.327 . S
C1543 H1566 0.950 . S
C1544 C1543 1.349 . S
C1544 C1556 1.349 . S
C1545 C1543 1.327 . S
C1545 C1561 1.429 . S
C1545 H1567 0.950 . S
C1546 H1542 0.949 . S
C1546 C1554 1.574 . S
C1546 C1562 1.368 . S
H1547 C1555 0.950 . S
H1548 C1553 0.950 . S
H1549 C1554 0.949 . S
H1550 C1556 0.950 . S
H1551 C1557 0.950 . S
H1552 C1558 0.949 . S
C1553 H1548 0.950 . S
C1553 C1555 1.327 . S
C1553 C1559 1.429 . S
C1554 C1546 1.574 . S
C1554 H1549 0.949 . S
C1554 C1560 1.368 . S
C1555 C1539 1.349 . S
C1555 H1547 0.950 . S
C1555 C1553 1.327 . S
C1556 C1544 1.349 . S
C1556 H1550 0.950 . S
C1556 C1557 1.327 . S
C1557 H1551 0.950 . S
C1557 C1556 1.327 . S
C1557 C1561 1.429 . S
C1558 C1541 1.574 . S
C1558 H1552 0.949 . S
C1558 C1562 1.368 . S
C1559 C1540 1.429 . S
C1559 C1553 1.429 . S
C1559 C1560 1.523 . S
C1560 C1541 1.368 . S
C1560 C1554 1.368 . S
C1560 C1559 1.523 . S
C1561 C1545 1.429 . S
C1561 C1557 1.429 . S
C1561 C1562 1.523 . S
C1562 C1546 1.368 . S
C1562 C1558 1.368 . S
C1562 C1561 1.523 . S
H1563 C1538 0.950 . S
H1564 C1540 0.950 . S
H1565 C1541 0.949 . S
H1566 C1543 0.950 . S
H1567 C1545 0.950 . S
C1568 C1569 1.349 . S
C1568 C1570 1.327 . S
C1568 H1593 0.950 . S
C1569 C1568 1.349 . S
C1569 C1585 1.349 . S
C1570 C1568 1.327 . S
C1570 C1589 1.429 . S
C1570 H1594 0.950 . S
C1571 C1588 1.574 . S
C1571 C1590 1.368 . S
C1571 H1595 0.949 . S
H1572 C1576 0.949 . S
C1573 C1574 1.349 . S
C1573 C1575 1.327 . S
C1573 H1596 0.950 . S
C1574 C1573 1.349 . S
C1574 C1586 1.349 . S
C1575 C1573 1.327 . S
C1575 C1591 1.429 . S
C1575 H1597 0.950 . S
C1576 H1572 0.949 . S
C1576 C1584 1.574 . S
C1576 C1592 1.368 . S
H1577 C1585 0.950 . S
H1578 C1583 0.950 . S
H1579 C1584 0.949 . S
H1580 C1586 0.950 . S
H1581 C1587 0.950 . S
H1582 C1588 0.949 . S
C1583 H1578 0.950 . S
C1583 C1585 1.327 . S
C1583 C1589 1.429 . S
C1584 C1576 1.574 . S
C1584 H1579 0.949 . S
C1584 C1590 1.368 . S
C1585 C1569 1.349 . S
C1585 H1577 0.950 . S
C1585 C1583 1.327 . S
C1586 C1574 1.349 . S
C1586 H1580 0.950 . S
C1586 C1587 1.327 . S
C1587 H1581 0.950 . S
C1587 C1586 1.327 . S
C1587 C1591 1.429 . S
C1588 C1571 1.574 . S
C1588 H1582 0.949 . S
C1588 C1592 1.368 . S
C1589 C1570 1.429 . S
C1589 C1583 1.429 . S
C1589 C1590 1.523 . S
C1590 C1571 1.368 . S
C1590 C1584 1.368 . S
C1590 C1589 1.523 . S
C1591 C1575 1.429 . S
C1591 C1587 1.429 . S
C1591 C1592 1.523 . S
C1592 C1576 1.368 . S
C1592 C1588 1.368 . S
C1592 C1591 1.523 . S
H1593 C1568 0.950 . S
H1594 C1570 0.950 . S
H1595 C1571 0.949 . S
H1596 C1573 0.950 . S
H1597 C1575 0.950 . S
C1598 C1599 1.349 . S
C1598 C1600 1.327 . S
C1598 H1623 0.950 . S
C1599 C1598 1.349 . S
C1599 C1615 1.349 . S
C1600 C1598 1.327 . S
C1600 C1619 1.429 . S
C1600 H1624 0.950 . S
C1601 C1618 1.574 . S
C1601 C1620 1.368 . S
C1601 H1625 0.949 . S
H1602 C1606 0.949 . S
C1603 C1604 1.349 . S
C1603 C1605 1.327 1_554 S
C1603 H1626 0.950 . S
C1604 C1603 1.349 . S
C1604 C1616 1.349 . S
C1605 C1603 1.327 1_556 S
C1605 C1621 1.429 . S
C1605 H1627 0.950 . S
C1606 H1602 0.949 . S
C1606 C1614 1.574 . S
C1606 C1622 1.368 . S
H1607 C1615 0.950 . S
H1608 C1613 0.950 . S
H1609 C1614 0.949 . S
H1610 C1616 0.950 . S
H1611 C1617 0.950 . S
H1612 C1618 0.949 . S
C1613 H1608 0.950 . S
C1613 C1615 1.327 . S
C1613 C1619 1.429 . S
C1614 C1606 1.574 . S
C1614 H1609 0.949 . S
C1614 C1620 1.368 . S
C1615 C1599 1.349 . S
C1615 H1607 0.950 . S
C1615 C1613 1.327 . S
C1616 C1604 1.349 . S
C1616 H1610 0.950 . S
C1616 C1617 1.327 1_554 S
C1617 H1611 0.950 . S
C1617 C1616 1.327 1_556 S
C1617 C1621 1.429 . S
C1618 C1601 1.574 . S
C1618 H1612 0.949 . S
C1618 C1622 1.368 . S
C1619 C1600 1.429 . S
C1619 C1613 1.429 . S
C1619 C1620 1.523 . S
C1620 C1601 1.368 . S
C1620 C1614 1.368 . S
C1620 C1619 1.523 . S
C1621 C1605 1.429 . S
C1621 C1617 1.429 . S
C1621 C1622 1.523 . S
C1622 C1606 1.368 . S
C1622 C1618 1.368 . S
C1622 C1621 1.523 . S
H1623 C1598 0.950 . S
H1624 C1600 0.950 . S
H1625 C1601 0.949 . S
H1626 C1603 0.950 . S
H1627 C1605 0.950 . S
C1628 C1629 1.349 . S
C1628 C1630 1.327 1_556 S
C1628 H1653 0.950 . S
C1629 C1628 1.349 . S
C1629 C1645 1.349 . S
C1630 C1628 1.327 1_554 S
C1630 C1649 1.429 . S
C1630 H1654 0.950 . S
C1631 C1648 1.574 . S
C1631 C1650 1.368 . S
C1631 H1655 0.949 . S
H1632 C1636 0.949 . S
C1633 C1634 1.349 . S
C1633 C1635 1.327 . S
C1633 H1656 0.950 . S
C1634 C1633 1.349 . S
C1634 C1646 1.349 . S
C1635 C1633 1.327 . S
C1635 C1651 1.429 . S
C1635 H1657 0.950 . S
C1636 H1632 0.949 . S
C1636 C1644 1.574 . S
C1636 C1652 1.368 . S
H1637 C1645 0.950 . S
H1638 C1643 0.950 . S
H1639 C1644 0.949 . S
H1640 C1646 0.950 . S
H1641 C1647 0.950 . S
H1642 C1648 0.949 . S
C1643 H1638 0.950 . S
C1643 C1645 1.327 1_554 S
C1643 C1649 1.429 . S
C1644 C1636 1.574 . S
C1644 H1639 0.949 . S
C1644 C1650 1.368 . S
C1645 C1629 1.349 . S
C1645 H1637 0.950 . S
C1645 C1643 1.327 1_556 S
C1646 C1634 1.349 . S
C1646 H1640 0.950 . S
C1646 C1647 1.327 . S
C1647 H1641 0.950 . S
C1647 C1646 1.327 . S
C1647 C1651 1.429 . S
C1648 C1631 1.574 . S
C1648 H1642 0.949 . S
C1648 C1652 1.368 . S
C1649 C1630 1.429 . S
C1649 C1643 1.429 . S
C1649 C1650 1.523 . S
C1650 C1631 1.368 . S
C1650 C1644 1.368 . S
C1650 C1649 1.523 . S
C1651 C1635 1.429 . S
C1651 C1647 1.429 . S
C1651 C1652 1.523 . S
C1652 C1636 1.368 . S
C1652 C1648 1.368 . S
C1652 C1651 1.523 . S
H1653 C1628 0.950 . S
H1654 C1630 0.950 . S
H1655 C1631 0.949 . S
H1656 C1633 0.950 . S
H1657 C1635 0.950 . S
C1658 C1659 1.349 . S
C1658 C1660 1.327 . S
C1658 H1683 0.950 . S
C1659 C1658 1.349 . S
C1659 C1675 1.349 . S
C1660 C1658 1.327 . S
C1660 C1679 1.429 . S
C1660 H1684 0.950 . S
C1661 C1678 1.574 . S
C1661 C1680 1.368 . S
C1661 H1685 0.949 . S
H1662 C1666 0.949 . S
C1663 C1664 1.349 . S
C1663 C1665 1.327 . S
C1663 H1686 0.950 . S
C1664 C1663 1.349 . S
C1664 C1676 1.349 . S
C1665 C1663 1.327 . S
C1665 C1681 1.429 . S
C1665 H1687 0.950 . S
C1666 H1662 0.949 . S
C1666 C1674 1.574 . S
C1666 C1682 1.368 . S
H1667 C1675 0.950 . S
H1668 C1673 0.950 . S
H1669 C1674 0.949 . S
H1670 C1676 0.950 . S
H1671 C1677 0.950 . S
H1672 C1678 0.949 . S
C1673 H1668 0.950 . S
C1673 C1675 1.327 . S
C1673 C1679 1.429 . S
C1674 C1666 1.574 . S
C1674 H1669 0.949 . S
C1674 C1680 1.368 . S
C1675 C1659 1.349 . S
C1675 H1667 0.950 . S
C1675 C1673 1.327 . S
C1676 C1664 1.349 . S
C1676 H1670 0.950 . S
C1676 C1677 1.327 . S
C1677 H1671 0.950 . S
C1677 C1676 1.327 . S
C1677 C1681 1.429 . S
C1678 C1661 1.574 . S
C1678 H1672 0.949 . S
C1678 C1682 1.368 . S
C1679 C1660 1.429 . S
C1679 C1673 1.429 . S
C1679 C1680 1.523 . S
C1680 C1661 1.368 . S
C1680 C1674 1.368 . S
C1680 C1679 1.523 . S
C1681 C1665 1.429 . S
C1681 C1677 1.429 . S
C1681 C1682 1.523 . S
C1682 C1666 1.368 . S
C1682 C1678 1.368 . S
C1682 C1681 1.523 . S
H1683 C1658 0.950 . S
H1684 C1660 0.950 . S
H1685 C1661 0.949 . S
H1686 C1663 0.950 . S
H1687 C1665 0.950 . S
C1688 C1689 1.349 . S
C1688 C1690 1.327 . S
C1688 H1713 0.950 . S
C1689 C1688 1.349 . S
C1689 C1705 1.349 . S
C1690 C1688 1.327 . S
C1690 C1709 1.429 . S
C1690 H1714 0.950 . S
C1691 C1708 1.574 . S
C1691 C1710 1.368 . S
C1691 H1715 0.949 . S
H1692 C1696 0.949 . S
C1693 C1694 1.349 . S
C1693 C1695 1.327 . S
C1693 H1716 0.950 . S
C1694 C1693 1.349 . S
C1694 C1706 1.349 . S
C1695 C1693 1.327 . S
C1695 C1711 1.429 . S
C1695 H1717 0.950 . S
C1696 H1692 0.949 . S
C1696 C1704 1.574 . S
C1696 C1712 1.368 . S
H1697 C1705 0.950 . S
H1698 C1703 0.950 . S
H1699 C1704 0.949 . S
H1700 C1706 0.950 . S
H1701 C1707 0.950 . S
H1702 C1708 0.949 . S
C1703 H1698 0.950 . S
C1703 C1705 1.327 . S
C1703 C1709 1.429 . S
C1704 C1696 1.574 . S
C1704 H1699 0.949 . S
C1704 C1710 1.368 . S
C1705 C1689 1.349 . S
C1705 H1697 0.950 . S
C1705 C1703 1.327 . S
C1706 C1694 1.349 . S
C1706 H1700 0.950 . S
C1706 C1707 1.327 . S
C1707 H1701 0.950 . S
C1707 C1706 1.327 . S
C1707 C1711 1.429 . S
C1708 C1691 1.574 . S
C1708 H1702 0.949 . S
C1708 C1712 1.368 . S
C1709 C1690 1.429 . S
C1709 C1703 1.429 . S
C1709 C1710 1.523 . S
C1710 C1691 1.368 . S
C1710 C1704 1.368 . S
C1710 C1709 1.523 . S
C1711 C1695 1.429 . S
C1711 C1707 1.429 . S
C1711 C1712 1.523 . S
C1712 C1696 1.368 . S
C1712 C1708 1.368 . S
C1712 C1711 1.523 . S
H1713 C1688 0.950 . S
H1714 C1690 0.950 . S
H1715 C1691 0.949 . S
H1716 C1693 0.950 . S
H1717 C1695 0.950 . S
C1718 C1719 1.349 . S
C1718 C1720 1.327 . S
C1718 H1743 0.950 . S
C1719 C1718 1.349 . S
C1719 C1735 1.349 . S
C1720 C1718 1.327 . S
C1720 C1739 1.429 . S
C1720 H1744 0.950 . S
C1721 C1738 1.574 . S
C1721 C1740 1.368 . S
C1721 H1745 0.949 . S
H1722 C1726 0.949 . S
C1723 C1724 1.349 . S
C1723 C1725 1.327 1_556 S
C1723 H1746 0.950 . S
C1724 C1723 1.349 . S
C1724 C1736 1.349 . S
C1725 C1723 1.327 1_554 S
C1725 C1741 1.429 . S
C1725 H1747 0.950 . S
C1726 H1722 0.949 . S
C1726 C1734 1.574 . S
C1726 C1742 1.368 . S
H1727 C1735 0.950 . S
H1728 C1733 0.950 . S
H1729 C1734 0.949 . S
H1730 C1736 0.950 . S
H1731 C1737 0.950 . S
H1732 C1738 0.949 . S
C1733 H1728 0.950 . S
C1733 C1735 1.327 . S
C1733 C1739 1.429 . S
C1734 C1726 1.574 . S
C1734 H1729 0.949 . S
C1734 C1740 1.368 . S
C1735 C1719 1.349 . S
C1735 H1727 0.950 . S
C1735 C1733 1.327 . S
C1736 C1724 1.349 . S
C1736 H1730 0.950 . S
C1736 C1737 1.327 1_556 S
C1737 H1731 0.950 . S
C1737 C1736 1.327 1_554 S
C1737 C1741 1.429 . S
C1738 C1721 1.574 . S
C1738 H1732 0.949 . S
C1738 C1742 1.368 . S
C1739 C1720 1.429 . S
C1739 C1733 1.429 . S
C1739 C1740 1.523 . S
C1740 C1721 1.368 . S
C1740 C1734 1.368 . S
C1740 C1739 1.523 . S
C1741 C1725 1.429 . S
C1741 C1737 1.429 . S
C1741 C1742 1.523 . S
C1742 C1726 1.368 . S
C1742 C1738 1.368 . S
C1742 C1741 1.523 . S
H1743 C1718 0.950 . S
H1744 C1720 0.950 . S
H1745 C1721 0.949 . S
H1746 C1723 0.950 . S
H1747 C1725 0.950 . S
C1748 C1749 1.349 . S
C1748 C1750 1.327 . S
C1748 H1773 0.950 . S
C1749 C1748 1.349 . S
C1749 C1765 1.349 . S
C1750 C1748 1.327 . S
C1750 C1769 1.429 . S
C1750 H1774 0.950 . S
C1751 C1768 1.574 . S
C1751 C1770 1.368 . S
C1751 H1775 0.949 . S
H1752 C1756 0.949 . S
C1753 C1754 1.349 . S
C1753 C1755 1.327 1_554 S
C1753 H1776 0.950 . S
C1754 C1753 1.349 . S
C1754 C1766 1.349 . S
C1755 C1753 1.327 1_556 S
C1755 C1771 1.429 . S
C1755 H1777 0.950 . S
C1756 H1752 0.949 . S
C1756 C1764 1.574 . S
C1756 C1772 1.368 . S
H1757 C1765 0.950 . S
H1758 C1763 0.950 . S
H1759 C1764 0.949 . S
H1760 C1766 0.950 . S
H1761 C1767 0.950 . S
H1762 C1768 0.949 . S
C1763 H1758 0.950 . S
C1763 C1765 1.327 . S
C1763 C1769 1.429 . S
C1764 C1756 1.574 . S
C1764 H1759 0.949 . S
C1764 C1770 1.368 . S
C1765 C1749 1.349 . S
C1765 H1757 0.950 . S
C1765 C1763 1.327 . S
C1766 C1754 1.349 . S
C1766 H1760 0.950 . S
C1766 C1767 1.327 1_554 S
C1767 H1761 0.950 . S
C1767 C1766 1.327 1_556 S
C1767 C1771 1.429 . S
C1768 C1751 1.574 . S
C1768 H1762 0.949 . S
C1768 C1772 1.368 . S
C1769 C1750 1.429 . S
C1769 C1763 1.429 . S
C1769 C1770 1.523 . S
C1770 C1751 1.368 . S
C1770 C1764 1.368 . S
C1770 C1769 1.523 . S
C1771 C1755 1.429 . S
C1771 C1767 1.429 . S
C1771 C1772 1.523 . S
C1772 C1756 1.368 . S
C1772 C1768 1.368 . S
C1772 C1771 1.523 . S
H1773 C1748 0.950 . S
H1774 C1750 0.950 . S
H1775 C1751 0.949 . S
H1776 C1753 0.950 . S
H1777 C1755 0.950 . S
C1778 C1779 1.349 . S
C1778 C1780 1.327 . S
C1778 H1803 0.950 . S
C1779 C1778 1.349 . S
C1779 C1795 1.349 . S
C1780 C1778 1.327 . S
C1780 C1799 1.429 . S
C1780 H1804 0.950 . S
C1781 C1798 1.574 . S
C1781 C1800 1.368 . S
C1781 H1805 0.949 . S
H1782 C1786 0.949 . S
C1783 C1784 1.349 . S
C1783 C1785 1.327 . S
C1783 H1806 0.950 . S
C1784 C1783 1.349 . S
C1784 C1796 1.349 . S
C1785 C1783 1.327 . S
C1785 C1801 1.429 . S
C1785 H1807 0.950 . S
C1786 H1782 0.949 . S
C1786 C1794 1.574 . S
C1786 C1802 1.368 . S
H1787 C1795 0.950 . S
H1788 C1793 0.950 . S
H1789 C1794 0.949 . S
H1790 C1796 0.950 . S
H1791 C1797 0.950 . S
H1792 C1798 0.949 . S
C1793 H1788 0.950 . S
C1793 C1795 1.327 . S
C1793 C1799 1.429 . S
C1794 C1786 1.574 . S
C1794 H1789 0.949 . S
C1794 C1800 1.368 . S
C1795 C1779 1.349 . S
C1795 H1787 0.950 . S
C1795 C1793 1.327 . S
C1796 C1784 1.349 . S
C1796 H1790 0.950 . S
C1796 C1797 1.327 . S
C1797 H1791 0.950 . S
C1797 C1796 1.327 . S
C1797 C1801 1.429 . S
C1798 C1781 1.574 . S
C1798 H1792 0.949 . S
C1798 C1802 1.368 . S
C1799 C1780 1.429 . S
C1799 C1793 1.429 . S
C1799 C1800 1.523 . S
C1800 C1781 1.368 . S
C1800 C1794 1.368 . S
C1800 C1799 1.523 . S
C1801 C1785 1.429 . S
C1801 C1797 1.429 . S
C1801 C1802 1.523 . S
C1802 C1786 1.368 . S
C1802 C1798 1.368 . S
C1802 C1801 1.523 . S
H1803 C1778 0.950 . S
H1804 C1780 0.950 . S
H1805 C1781 0.949 . S
H1806 C1783 0.950 . S
H1807 C1785 0.950 . S
C1808 C1809 1.349 . S
C1808 C1810 1.327 1_556 S
C1808 H1833 0.950 . S
C1809 C1808 1.349 . S
C1809 C1825 1.349 . S
C1810 C1808 1.327 1_554 S
C1810 C1829 1.429 . S
C1810 H1834 0.950 . S
C1811 C1828 1.574 . S
C1811 C1830 1.368 . S
C1811 H1835 0.949 . S
H1812 C1816 0.949 . S
C1813 C1814 1.349 . S
C1813 C1815 1.327 . S
C1813 H1836 0.950 . S
C1814 C1813 1.349 . S
C1814 C1826 1.349 . S
C1815 C1813 1.327 . S
C1815 C1831 1.429 . S
C1815 H1837 0.950 . S
C1816 H1812 0.949 . S
C1816 C1824 1.574 . S
C1816 C1832 1.368 . S
H1817 C1825 0.950 . S
H1818 C1823 0.950 . S
H1819 C1824 0.949 . S
H1820 C1826 0.950 . S
H1821 C1827 0.950 . S
H1822 C1828 0.949 . S
C1823 H1818 0.950 . S
C1823 C1825 1.327 1_554 S
C1823 C1829 1.429 . S
C1824 C1816 1.574 . S
C1824 H1819 0.949 . S
C1824 C1830 1.368 . S
C1825 C1809 1.349 . S
C1825 H1817 0.950 . S
C1825 C1823 1.327 1_556 S
C1826 C1814 1.349 . S
C1826 H1820 0.950 . S
C1826 C1827 1.327 . S
C1827 H1821 0.950 . S
C1827 C1826 1.327 . S
C1827 C1831 1.429 . S
C1828 C1811 1.574 . S
C1828 H1822 0.949 . S
C1828 C1832 1.368 . S
C1829 C1810 1.429 . S
C1829 C1823 1.429 . S
C1829 C1830 1.523 . S
C1830 C1811 1.368 . S
C1830 C1824 1.368 . S
C1830 C1829 1.523 . S
C1831 C1815 1.429 . S
C1831 C1827 1.429 . S
C1831 C1832 1.523 . S
C1832 C1816 1.368 . S
C1832 C1828 1.368 . S
C1832 C1831 1.523 . S
H1833 C1808 0.950 . S
H1834 C1810 0.950 . S
H1835 C1811 0.949 . S
H1836 C1813 0.950 . S
H1837 C1815 0.950 . S
C1838 C1839 1.349 . S
C1838 C1840 1.327 . S
C1838 H1863 0.950 . S
C1839 C1838 1.349 . S
C1839 C1855 1.349 . S
C1840 C1838 1.327 . S
C1840 C1859 1.429 . S
C1840 H1864 0.950 . S
C1841 C1858 1.574 . S
C1841 C1860 1.368 . S
C1841 H1865 0.949 . S
H1842 C1846 0.949 . S
C1843 C1844 1.349 . S
C1843 C1845 1.327 . S
C1843 H1866 0.950 . S
C1844 C1843 1.349 . S
C1844 C1856 1.349 . S
C1845 C1843 1.327 . S
C1845 C1861 1.429 . S
C1845 H1867 0.950 . S
C1846 H1842 0.949 . S
C1846 C1854 1.574 . S
C1846 C1862 1.368 . S
H1847 C1855 0.950 . S
H1848 C1853 0.950 . S
H1849 C1854 0.949 . S
H1850 C1856 0.950 . S
H1851 C1857 0.950 . S
H1852 C1858 0.949 . S
C1853 H1848 0.950 . S
C1853 C1855 1.327 . S
C1853 C1859 1.429 . S
C1854 C1846 1.574 . S
C1854 H1849 0.949 . S
C1854 C1860 1.368 . S
C1855 C1839 1.349 . S
C1855 H1847 0.950 . S
C1855 C1853 1.327 . S
C1856 C1844 1.349 . S
C1856 H1850 0.950 . S
C1856 C1857 1.327 . S
C1857 H1851 0.950 . S
C1857 C1856 1.327 . S
C1857 C1861 1.429 . S
C1858 C1841 1.574 . S
C1858 H1852 0.949 . S
C1858 C1862 1.368 . S
C1859 C1840 1.429 . S
C1859 C1853 1.429 . S
C1859 C1860 1.523 . S
C1860 C1841 1.368 . S
C1860 C1854 1.368 . S
C1860 C1859 1.523 . S
C1861 C1845 1.429 . S
C1861 C1857 1.429 . S
C1861 C1862 1.523 . S
C1862 C1846 1.368 . S
C1862 C1858 1.368 . S
C1862 C1861 1.523 . S
H1863 C1838 0.950 . S
H1864 C1840 0.950 . S
H1865 C1841 0.949 . S
H1866 C1843 0.950 . S
H1867 C1845 0.950 . S
C1868 C1869 1.349 . S
C1868 C1870 1.327 . S
C1868 H1893 0.950 . S
C1869 C1868 1.349 . S
C1869 C1885 1.349 . S
C1870 C1868 1.327 . S
C1870 C1889 1.429 . S
C1870 H1894 0.950 . S
C1871 C1888 1.574 . S
C1871 C1890 1.368 . S
C1871 H1895 0.949 . S
H1872 C1876 0.949 . S
C1873 C1874 1.349 . S
C1873 C1875 1.327 . S
C1873 H1896 0.950 . S
C1874 C1873 1.349 . S
C1874 C1886 1.349 . S
C1875 C1873 1.327 . S
C1875 C1891 1.429 . S
C1875 H1897 0.950 . S
C1876 H1872 0.949 . S
C1876 C1884 1.574 . S
C1876 C1892 1.368 . S
H1877 C1885 0.950 . S
H1878 C1883 0.950 . S
H1879 C1884 0.949 . S
H1880 C1886 0.950 . S
H1881 C1887 0.950 . S
H1882 C1888 0.949 . S
C1883 H1878 0.950 . S
C1883 C1885 1.327 . S
C1883 C1889 1.429 . S
C1884 C1876 1.574 . S
C1884 H1879 0.949 . S
C1884 C1890 1.368 . S
C1885 C1869 1.349 . S
C1885 H1877 0.950 . S
C1885 C1883 1.327 . S
C1886 C1874 1.349 . S
C1886 H1880 0.950 . S
C1886 C1887 1.327 . S
C1887 H1881 0.950 . S
C1887 C1886 1.327 . S
C1887 C1891 1.429 . S
C1888 C1871 1.574 . S
C1888 H1882 0.949 . S
C1888 C1892 1.368 . S
C1889 C1870 1.429 . S
C1889 C1883 1.429 . S
C1889 C1890 1.523 . S
C1890 C1871 1.368 . S
C1890 C1884 1.368 . S
C1890 C1889 1.523 . S
C1891 C1875 1.429 . S
C1891 C1887 1.429 . S
C1891 C1892 1.523 . S
C1892 C1876 1.368 . S
C1892 C1888 1.368 . S
C1892 C1891 1.523 . S
H1893 C1868 0.950 . S
H1894 C1870 0.950 . S
H1895 C1871 0.949 . S
H1896 C1873 0.950 . S
H1897 C1875 0.950 . S
C1898 C1899 1.349 . S
C1898 C1900 1.327 . S
C1898 H1923 0.950 . S
C1899 C1898 1.349 . S
C1899 C1915 1.349 . S
C1900 C1898 1.327 . S
C1900 C1919 1.429 . S
C1900 H1924 0.950 . S
C1901 C1918 1.574 . S
C1901 C1920 1.368 . S
C1901 H1925 0.949 . S
H1902 C1906 0.949 . S
C1903 C1904 1.349 . S
C1903 C1905 1.327 1_554 S
C1903 H1926 0.950 . S
C1904 C1903 1.349 . S
C1904 C1916 1.349 . S
C1905 C1903 1.327 1_556 S
C1905 C1921 1.429 . S
C1905 H1927 0.950 . S
C1906 H1902 0.949 . S
C1906 C1914 1.574 . S
C1906 C1922 1.368 . S
H1907 C1915 0.950 . S
H1908 C1913 0.950 . S
H1909 C1914 0.949 . S
H1910 C1916 0.950 . S
H1911 C1917 0.950 . S
H1912 C1918 0.949 . S
C1913 H1908 0.950 . S
C1913 C1915 1.327 . S
C1913 C1919 1.429 . S
C1914 C1906 1.574 . S
C1914 H1909 0.949 . S
C1914 C1920 1.368 . S
C1915 C1899 1.349 . S
C1915 H1907 0.950 . S
C1915 C1913 1.327 . S
C1916 C1904 1.349 . S
C1916 H1910 0.950 . S
C1916 C1917 1.327 1_554 S
C1917 H1911 0.950 . S
C1917 C1916 1.327 1_556 S
C1917 C1921 1.429 . S
C1918 C1901 1.574 . S
C1918 H1912 0.949 . S
C1918 C1922 1.368 . S
C1919 C1900 1.429 . S
C1919 C1913 1.429 . S
C1919 C1920 1.523 . S
C1920 C1901 1.368 . S
C1920 C1914 1.368 . S
C1920 C1919 1.523 . S
C1921 C1905 1.429 . S
C1921 C1917 1.429 . S
C1921 C1922 1.523 . S
C1922 C1906 1.368 . S
C1922 C1918 1.368 . S
C1922 C1921 1.523 . S
H1923 C1898 0.950 . S
H1924 C1900 0.950 . S
H1925 C1901 0.949 . S
H1926 C1903 0.950 . S
H1927 C1905 0.950 . S
C1928 C1929 1.349 . S
C1928 C1930 1.327 1_554 S
C1928 H1953 0.950 . S
C1929 C1928 1.349 . S
C1929 C1945 1.349 . S
C1930 C1928 1.327 1_556 S
C1930 C1949 1.429 . S
C1930 H1954 0.950 . S
C1931 C1948 1.574 . S
C1931 C1950 1.368 . S
C1931 H1955 0.949 . S
H1932 C1936 0.949 . S
C1933 C1934 1.349 . S
C1933 C1935 1.327 . S
C1933 H1956 0.950 . S
C1934 C1933 1.349 . S
C1934 C1946 1.349 . S
C1935 C1933 1.327 . S
C1935 C1951 1.429 . S
C1935 H1957 0.950 . S
C1936 H1932 0.949 . S
C1936 C1944 1.574 . S
C1936 C1952 1.368 . S
H1937 C1945 0.950 . S
H1938 C1943 0.950 . S
H1939 C1944 0.949 . S
H1940 C1946 0.950 . S
H1941 C1947 0.950 . S
H1942 C1948 0.949 . S
C1943 H1938 0.950 . S
C1943 C1945 1.327 1_556 S
C1943 C1949 1.429 . S
C1944 C1936 1.574 . S
C1944 H1939 0.949 . S
C1944 C1950 1.368 . S
C1945 C1929 1.349 . S
C1945 H1937 0.950 . S
C1945 C1943 1.327 1_554 S
C1946 C1934 1.349 . S
C1946 H1940 0.950 . S
C1946 C1947 1.327 . S
C1947 H1941 0.950 . S
C1947 C1946 1.327 . S
C1947 C1951 1.429 . S
C1948 C1931 1.574 . S
C1948 H1942 0.949 . S
C1948 C1952 1.368 . S
C1949 C1930 1.429 . S
C1949 C1943 1.429 . S
C1949 C1950 1.523 . S
C1950 C1931 1.368 . S
C1950 C1944 1.368 . S
C1950 C1949 1.523 . S
C1951 C1935 1.429 . S
C1951 C1947 1.429 . S
C1951 C1952 1.523 . S
C1952 C1936 1.368 . S
C1952 C1948 1.368 . S
C1952 C1951 1.523 . S
H1953 C1928 0.950 . S
H1954 C1930 0.950 . S
H1955 C1931 0.949 . S
H1956 C1933 0.950 . S
H1957 C1935 0.950 . S
C1958 C1959 1.349 . S
C1958 C1960 1.327 . S
C1958 H1983 0.950 . S
C1959 C1958 1.349 . S
C1959 C1975 1.349 . S
C1960 C1958 1.327 . S
C1960 C1979 1.429 . S
C1960 H1984 0.950 . S
C1961 C1978 1.574 . S
C1961 C1980 1.368 . S
C1961 H1985 0.949 . S
H1962 C1966 0.949 . S
C1963 C1964 1.349 . S
C1963 C1965 1.327 . S
C1963 H1986 0.950 . S
C1964 C1963 1.349 . S
C1964 C1976 1.349 . S
C1965 C1963 1.327 . S
C1965 C1981 1.429 . S
C1965 H1987 0.950 . S
C1966 H1962 0.949 . S
C1966 C1974 1.574 . S
C1966 C1982 1.368 . S
H1967 C1975 0.950 . S
H1968 C1973 0.950 . S
H1969 C1974 0.949 . S
H1970 C1976 0.950 . S
H1971 C1977 0.950 . S
H1972 C1978 0.949 . S
C1973 H1968 0.950 . S
C1973 C1975 1.327 . S
C1973 C1979 1.429 . S
C1974 C1966 1.574 . S
C1974 H1969 0.949 . S
C1974 C1980 1.368 . S
C1975 C1959 1.349 . S
C1975 H1967 0.950 . S
C1975 C1973 1.327 . S
C1976 C1964 1.349 . S
C1976 H1970 0.950 . S
C1976 C1977 1.327 . S
C1977 H1971 0.950 . S
C1977 C1976 1.327 . S
C1977 C1981 1.429 . S
C1978 C1961 1.574 . S
C1978 H1972 0.949 . S
C1978 C1982 1.368 . S
C1979 C1960 1.429 . S
C1979 C1973 1.429 . S
C1979 C1980 1.523 . S
C1980 C1961 1.368 . S
C1980 C1974 1.368 . S
C1980 C1979 1.523 . S
C1981 C1965 1.429 . S
C1981 C1977 1.429 . S
C1981 C1982 1.523 . S
C1982 C1966 1.368 . S
C1982 C1978 1.368 . S
C1982 C1981 1.523 . S
H1983 C1958 0.950 . S
H1984 C1960 0.950 . S
H1985 C1961 0.949 . S
H1986 C1963 0.950 . S
H1987 C1965 0.950 . S
C1988 C1989 1.349 . S
C1988 C1990 1.327 . S
C1988 H2013 0.950 . S
C1989 C1988 1.349 . S
C1989 C2005 1.349 . S
C1990 C1988 1.327 . S
C1990 C2009 1.429 . S
C1990 H2014 0.950 . S
C1991 C2008 1.574 . S
C1991 C2010 1.368 . S
C1991 H2015 0.949 . S
H1992 C1996 0.949 . S
C1993 C1994 1.349 . S
C1993 C1995 1.327 . S
C1993 H2016 0.950 . S
C1994 C1993 1.349 . S
C1994 C2006 1.349 . S
C1995 C1993 1.327 . S
C1995 C2011 1.429 . S
C1995 H2017 0.950 . S
C1996 H1992 0.949 . S
C1996 C2004 1.574 . S
C1996 C2012 1.368 . S
H1997 C2005 0.950 . S
H1998 C2003 0.950 . S
H1999 C2004 0.949 . S
H2000 C2006 0.950 . S
H2001 C2007 0.950 . S
H2002 C2008 0.949 . S
C2003 H1998 0.950 . S
C2003 C2005 1.327 . S
C2003 C2009 1.429 . S
C2004 C1996 1.574 . S
C2004 H1999 0.949 . S
C2004 C2010 1.368 . S
C2005 C1989 1.349 . S
C2005 H1997 0.950 . S
C2005 C2003 1.327 . S
C2006 C1994 1.349 . S
C2006 H2000 0.950 . S
C2006 C2007 1.327 . S
C2007 H2001 0.950 . S
C2007 C2006 1.327 . S
C2007 C2011 1.429 . S
C2008 C1991 1.574 . S
C2008 H2002 0.949 . S
C2008 C2012 1.368 . S
C2009 C1990 1.429 . S
C2009 C2003 1.429 . S
C2009 C2010 1.523 . S
C2010 C1991 1.368 . S
C2010 C2004 1.368 . S
C2010 C2009 1.523 . S
C2011 C1995 1.429 . S
C2011 C2007 1.429 . S
C2011 C2012 1.523 . S
C2012 C1996 1.368 . S
C2012 C2008 1.368 . S
C2012 C2011 1.523 . S
H2013 C1988 0.950 . S
H2014 C1990 0.950 . S
H2015 C1991 0.949 . S
H2016 C1993 0.950 . S
H2017 C1995 0.950 . S
C2018 C2019 1.349 . S
C2018 C2020 1.327 . S
C2018 H2043 0.950 . S
C2019 C2018 1.349 . S
C2019 C2035 1.349 . S
C2020 C2018 1.327 . S
C2020 C2039 1.429 . S
C2020 H2044 0.950 . S
C2021 C2038 1.574 . S
C2021 C2040 1.368 . S
C2021 H2045 0.949 . S
H2022 C2026 0.949 . S
C2023 C2024 1.349 . S
C2023 C2025 1.327 1_556 S
C2023 H2046 0.950 . S
C2024 C2023 1.349 . S
C2024 C2036 1.349 . S
C2025 C2023 1.327 1_554 S
C2025 C2041 1.429 . S
C2025 H2047 0.950 . S
C2026 H2022 0.949 . S
C2026 C2034 1.574 . S
C2026 C2042 1.368 . S
H2027 C2035 0.950 . S
H2028 C2033 0.950 . S
H2029 C2034 0.949 . S
H2030 C2036 0.950 . S
H2031 C2037 0.950 . S
H2032 C2038 0.949 . S
C2033 H2028 0.950 . S
C2033 C2035 1.327 . S
C2033 C2039 1.429 . S
C2034 C2026 1.574 . S
C2034 H2029 0.949 . S
C2034 C2040 1.368 . S
C2035 C2019 1.349 . S
C2035 H2027 0.950 . S
C2035 C2033 1.327 . S
C2036 C2024 1.349 . S
C2036 H2030 0.950 . S
C2036 C2037 1.327 1_556 S
C2037 H2031 0.950 . S
C2037 C2036 1.327 1_554 S
C2037 C2041 1.429 . S
C2038 C2021 1.574 . S
C2038 H2032 0.949 . S
C2038 C2042 1.368 . S
C2039 C2020 1.429 . S
C2039 C2033 1.429 . S
C2039 C2040 1.523 . S
C2040 C2021 1.368 . S
C2040 C2034 1.368 . S
C2040 C2039 1.523 . S
C2041 C2025 1.429 . S
C2041 C2037 1.429 . S
C2041 C2042 1.523 . S
C2042 C2026 1.368 . S
C2042 C2038 1.368 . S
C2042 C2041 1.523 . S
H2043 C2018 0.950 . S
H2044 C2020 0.950 . S
H2045 C2021 0.949 . S
H2046 C2023 0.950 . S
H2047 C2025 0.950 . S
C2048 C2049 1.349 . S
C2048 C2050 1.327 . S
C2048 H2073 0.950 . S
C2049 C2048 1.349 . S
C2049 C2065 1.349 . S
C2050 C2048 1.327 . S
C2050 C2069 1.429 . S
C2050 H2074 0.950 . S
C2051 C2068 1.574 . S
C2051 C2070 1.368 . S
C2051 H2075 0.949 . S
H2052 C2056 0.949 . S
C2053 C2054 1.349 . S
C2053 C2055 1.327 . S
C2053 H2076 0.950 . S
C2054 C2053 1.349 . S
C2054 C2066 1.349 . S
C2055 C2053 1.327 . S
C2055 C2071 1.429 . S
C2055 H2077 0.950 . S
C2056 H2052 0.949 . S
C2056 C2064 1.574 . S
C2056 C2072 1.368 . S
H2057 C2065 0.950 . S
H2058 C2063 0.950 . S
H2059 C2064 0.949 . S
H2060 C2066 0.950 . S
H2061 C2067 0.950 . S
H2062 C2068 0.949 . S
C2063 H2058 0.950 . S
C2063 C2065 1.327 . S
C2063 C2069 1.429 . S
C2064 C2056 1.574 . S
C2064 H2059 0.949 . S
C2064 C2070 1.368 . S
C2065 C2049 1.349 . S
C2065 H2057 0.950 . S
C2065 C2063 1.327 . S
C2066 C2054 1.349 . S
C2066 H2060 0.950 . S
C2066 C2067 1.327 . S
C2067 H2061 0.950 . S
C2067 C2066 1.327 . S
C2067 C2071 1.429 . S
C2068 C2051 1.574 . S
C2068 H2062 0.949 . S
C2068 C2072 1.368 . S
C2069 C2050 1.429 . S
C2069 C2063 1.429 . S
C2069 C2070 1.523 . S
C2070 C2051 1.368 . S
C2070 C2064 1.368 . S
C2070 C2069 1.523 . S
C2071 C2055 1.429 . S
C2071 C2067 1.429 . S
C2071 C2072 1.523 . S
C2072 C2056 1.368 . S
C2072 C2068 1.368 . S
C2072 C2071 1.523 . S
H2073 C2048 0.950 . S
H2074 C2050 0.950 . S
H2075 C2051 0.949 . S
H2076 C2053 0.950 . S
H2077 C2055 0.950 . S
C2078 C2079 1.349 . S
C2078 C2080 1.327 . S
C2078 H2103 0.950 . S
C2079 C2078 1.349 . S
C2079 C2095 1.349 . S
C2080 C2078 1.327 . S
C2080 C2099 1.429 . S
C2080 H2104 0.950 . S
C2081 C2098 1.574 1_565 S
C2081 C2100 1.368 . S
C2081 H2105 0.949 . S
H2082 C2086 0.949 . S
C2083 C2084 1.349 . S
C2083 C2085 1.327 . S
C2083 H2106 0.950 . S
C2084 C2083 1.349 . S
C2084 C2096 1.349 . S
C2085 C2083 1.327 . S
C2085 C2101 1.429 . S
C2085 H2107 0.950 . S
C2086 H2082 0.949 . S
C2086 C2094 1.574 1_545 S
C2086 C2102 1.368 . S
H2087 C2095 0.950 . S
H2088 C2093 0.950 . S
H2089 C2094 0.949 . S
H2090 C2096 0.950 . S
H2091 C2097 0.950 . S
H2092 C2098 0.949 . S
C2093 H2088 0.950 . S
C2093 C2095 1.327 . S
C2093 C2099 1.429 . S
C2094 C2086 1.574 1_565 S
C2094 H2089 0.949 . S
C2094 C2100 1.368 . S
C2095 C2079 1.349 . S
C2095 H2087 0.950 . S
C2095 C2093 1.327 . S
C2096 C2084 1.349 . S
C2096 H2090 0.950 . S
C2096 C2097 1.327 . S
C2097 H2091 0.950 . S
C2097 C2096 1.327 . S
C2097 C2101 1.429 . S
C2098 C2081 1.574 1_545 S
C2098 H2092 0.949 . S
C2098 C2102 1.368 . S
C2099 C2080 1.429 . S
C2099 C2093 1.429 . S
C2099 C2100 1.523 . S
C2100 C2081 1.368 . S
C2100 C2094 1.368 . S
C2100 C2099 1.523 . S
C2101 C2085 1.429 . S
C2101 C2097 1.429 . S
C2101 C2102 1.523 . S
C2102 C2086 1.368 . S
C2102 C2098 1.368 . S
C2102 C2101 1.523 . S
H2103 C2078 0.950 . S
H2104 C2080 0.950 . S
H2105 C2081 0.949 . S
H2106 C2083 0.950 . S
H2107 C2085 0.950 . S
C2108 C2109 1.349 . S
C2108 C2110 1.327 . S
C2108 H2133 0.950 . S
C2109 C2108 1.349 . S
C2109 C2125 1.349 . S
C2110 C2108 1.327 . S
C2110 C2129 1.429 . S
C2110 H2134 0.950 . S
C2111 C2128 1.574 . S
C2111 C2130 1.368 1_556 S
C2111 H2135 0.949 . S
H2112 C2116 0.949 . S
C2113 C2114 1.349 . S
C2113 C2115 1.327 . S
C2113 H2136 0.950 . S
C2114 C2113 1.349 . S
C2114 C2126 1.349 . S
C2115 C2113 1.327 . S
C2115 C2131 1.429 . S
C2115 H2137 0.950 . S
C2116 H2112 0.949 . S
C2116 C2124 1.574 . S
C2116 C2132 1.368 1_554 S
H2117 C2125 0.950 . S
H2118 C2123 0.950 . S
H2119 C2124 0.949 . S
H2120 C2126 0.950 . S
H2121 C2127 0.950 . S
H2122 C2128 0.949 . S
C2123 H2118 0.950 . S
C2123 C2125 1.327 . S
C2123 C2129 1.429 . S
C2124 C2116 1.574 . S
C2124 H2119 0.949 . S
C2124 C2130 1.368 . S
C2125 C2109 1.349 . S
C2125 H2117 0.950 . S
C2125 C2123 1.327 . S
C2126 C2114 1.349 . S
C2126 H2120 0.950 . S
C2126 C2127 1.327 . S
C2127 H2121 0.950 . S
C2127 C2126 1.327 . S
C2127 C2131 1.429 . S
C2128 C2111 1.574 . S
C2128 H2122 0.949 . S
C2128 C2132 1.368 . S
C2129 C2110 1.429 . S
C2129 C2123 1.429 . S
C2129 C2130 1.523 . S
C2130 C2111 1.368 1_554 S
C2130 C2124 1.368 . S
C2130 C2129 1.523 . S
C2131 C2115 1.429 . S
C2131 C2127 1.429 . S
C2131 C2132 1.523 . S
C2132 C2116 1.368 1_556 S
C2132 C2128 1.368 . S
C2132 C2131 1.523 . S
H2133 C2108 0.950 . S
H2134 C2110 0.950 . S
H2135 C2111 0.949 . S
H2136 C2113 0.950 . S
H2137 C2115 0.950 . S
C2138 C2139 1.349 . S
C2138 C2140 1.327 . S
C2138 H2163 0.950 . S
C2139 C2138 1.349 . S
C2139 C2155 1.349 . S
C2140 C2138 1.327 . S
C2140 C2159 1.429 . S
C2140 H2164 0.950 . S
C2141 C2158 1.574 1_565 S
C2141 C2160 1.368 . S
C2141 H2165 0.949 . S
H2142 C2146 0.949 . S
C2143 C2144 1.349 . S
C2143 C2145 1.327 . S
C2143 H2166 0.950 . S
C2144 C2143 1.349 . S
C2144 C2156 1.349 . S
C2145 C2143 1.327 . S
C2145 C2161 1.429 . S
C2145 H2167 0.950 . S
C2146 H2142 0.949 . S
C2146 C2154 1.574 1_545 S
C2146 C2162 1.368 . S
H2147 C2155 0.950 . S
H2148 C2153 0.950 . S
H2149 C2154 0.949 . S
H2150 C2156 0.950 . S
H2151 C2157 0.950 . S
H2152 C2158 0.949 . S
C2153 H2148 0.950 . S
C2153 C2155 1.327 . S
C2153 C2159 1.429 . S
C2154 C2146 1.574 1_565 S
C2154 H2149 0.949 . S
C2154 C2160 1.368 . S
C2155 C2139 1.349 . S
C2155 H2147 0.950 . S
C2155 C2153 1.327 . S
C2156 C2144 1.349 . S
C2156 H2150 0.950 . S
C2156 C2157 1.327 . S
C2157 H2151 0.950 . S
C2157 C2156 1.327 . S
C2157 C2161 1.429 . S
C2158 C2141 1.574 1_545 S
C2158 H2152 0.949 . S
C2158 C2162 1.368 . S
C2159 C2140 1.429 . S
C2159 C2153 1.429 . S
C2159 C2160 1.523 . S
C2160 C2141 1.368 . S
C2160 C2154 1.368 . S
C2160 C2159 1.523 . S
C2161 C2145 1.429 . S
C2161 C2157 1.429 . S
C2161 C2162 1.523 . S
C2162 C2146 1.368 . S
C2162 C2158 1.368 . S
C2162 C2161 1.523 . S
H2163 C2138 0.950 . S
H2164 C2140 0.950 . S
H2165 C2141 0.949 . S
H2166 C2143 0.950 . S
H2167 C2145 0.950 . S
C2168 C2169 1.349 . S
C2168 C2170 1.327 . S
C2168 H2193 0.950 . S
C2169 C2168 1.349 . S
C2169 C2185 1.349 . S
C2170 C2168 1.327 . S
C2170 C2189 1.429 . S
C2170 H2194 0.950 . S
C2171 C2188 1.574 . S
C2171 C2190 1.368 . S
C2171 H2195 0.949 . S
H2172 C2176 0.949 . S
C2173 C2174 1.349 . S
C2173 C2175 1.327 . S
C2173 H2196 0.950 . S
C2174 C2173 1.349 . S
C2174 C2186 1.349 . S
C2175 C2173 1.327 . S
C2175 C2191 1.429 . S
C2175 H2197 0.950 . S
C2176 H2172 0.949 . S
C2176 C2184 1.574 . S
C2176 C2192 1.368 . S
H2177 C2185 0.950 . S
H2178 C2183 0.950 . S
H2179 C2184 0.949 . S
H2180 C2186 0.950 . S
H2181 C2187 0.950 . S
H2182 C2188 0.949 . S
C2183 H2178 0.950 . S
C2183 C2185 1.327 . S
C2183 C2189 1.429 . S
C2184 C2176 1.574 . S
C2184 H2179 0.949 . S
C2184 C2190 1.368 . S
C2185 C2169 1.349 . S
C2185 H2177 0.950 . S
C2185 C2183 1.327 . S
C2186 C2174 1.349 . S
C2186 H2180 0.950 . S
C2186 C2187 1.327 . S
C2187 H2181 0.950 . S
C2187 C2186 1.327 . S
C2187 C2191 1.429 . S
C2188 C2171 1.574 . S
C2188 H2182 0.949 . S
C2188 C2192 1.368 . S
C2189 C2170 1.429 . S
C2189 C2183 1.429 . S
C2189 C2190 1.523 . S
C2190 C2171 1.368 . S
C2190 C2184 1.368 . S
C2190 C2189 1.523 . S
C2191 C2175 1.429 . S
C2191 C2187 1.429 . S
C2191 C2192 1.523 . S
C2192 C2176 1.368 . S
C2192 C2188 1.368 . S
C2192 C2191 1.523 . S
H2193 C2168 0.950 . S
H2194 C2170 0.950 . S
H2195 C2171 0.949 . S
H2196 C2173 0.950 . S
H2197 C2175 0.950 . S
C2198 C2199 1.349 . S
C2198 C2200 1.327 . S
C2198 H2223 0.950 . S
C2199 C2198 1.349 . S
C2199 C2215 1.349 . S
C2200 C2198 1.327 . S
C2200 C2219 1.429 . S
C2200 H2224 0.950 . S
C2201 C2218 1.574 1_565 S
C2201 C2220 1.368 . S
C2201 H2225 0.949 . S
H2202 C2206 0.949 . S
C2203 C2204 1.349 . S
C2203 C2205 1.327 . S
C2203 H2226 0.950 . S
C2204 C2203 1.349 . S
C2204 C2216 1.349 . S
C2205 C2203 1.327 . S
C2205 C2221 1.429 . S
C2205 H2227 0.950 . S
C2206 H2202 0.949 . S
C2206 C2214 1.574 1_545 S
C2206 C2222 1.368 . S
H2207 C2215 0.950 . S
H2208 C2213 0.950 . S
H2209 C2214 0.949 . S
H2210 C2216 0.950 . S
H2211 C2217 0.950 . S
H2212 C2218 0.949 . S
C2213 H2208 0.950 . S
C2213 C2215 1.327 . S
C2213 C2219 1.429 . S
C2214 C2206 1.574 1_565 S
C2214 H2209 0.949 . S
C2214 C2220 1.368 . S
C2215 C2199 1.349 . S
C2215 H2207 0.950 . S
C2215 C2213 1.327 . S
C2216 C2204 1.349 . S
C2216 H2210 0.950 . S
C2216 C2217 1.327 . S
C2217 H2211 0.950 . S
C2217 C2216 1.327 . S
C2217 C2221 1.429 . S
C2218 C2201 1.574 1_545 S
C2218 H2212 0.949 . S
C2218 C2222 1.368 . S
C2219 C2200 1.429 . S
C2219 C2213 1.429 . S
C2219 C2220 1.523 . S
C2220 C2201 1.368 . S
C2220 C2214 1.368 . S
C2220 C2219 1.523 . S
C2221 C2205 1.429 . S
C2221 C2217 1.429 . S
C2221 C2222 1.523 . S
C2222 C2206 1.368 . S
C2222 C2218 1.368 . S
C2222 C2221 1.523 . S
H2223 C2198 0.950 . S
H2224 C2200 0.950 . S
H2225 C2201 0.949 . S
H2226 C2203 0.950 . S
H2227 C2205 0.950 . S
C2228 C2229 1.349 . S
C2228 C2230 1.327 . S
C2228 H2253 0.950 . S
C2229 C2228 1.349 . S
C2229 C2245 1.349 . S
C2230 C2228 1.327 . S
C2230 C2249 1.429 . S
C2230 H2254 0.950 . S
C2231 C2248 1.574 . S
C2231 C2250 1.368 . S
C2231 H2255 0.949 . S
H2232 C2236 0.949 . S
C2233 C2234 1.349 . S
C2233 C2235 1.327 . S
C2233 H2256 0.950 . S
C2234 C2233 1.349 . S
C2234 C2246 1.349 . S
C2235 C2233 1.327 . S
C2235 C2251 1.429 . S
C2235 H2257 0.950 . S
C2236 H2232 0.949 . S
C2236 C2244 1.574 . S
C2236 C2252 1.368 . S
H2237 C2245 0.950 . S
H2238 C2243 0.950 . S
H2239 C2244 0.949 . S
H2240 C2246 0.950 . S
H2241 C2247 0.950 . S
H2242 C2248 0.949 . S
C2243 H2238 0.950 . S
C2243 C2245 1.327 . S
C2243 C2249 1.429 . S
C2244 C2236 1.574 . S
C2244 H2239 0.949 . S
C2244 C2250 1.368 1_554 S
C2245 C2229 1.349 . S
C2245 H2237 0.950 . S
C2245 C2243 1.327 . S
C2246 C2234 1.349 . S
C2246 H2240 0.950 . S
C2246 C2247 1.327 . S
C2247 H2241 0.950 . S
C2247 C2246 1.327 . S
C2247 C2251 1.429 . S
C2248 C2231 1.574 . S
C2248 H2242 0.949 . S
C2248 C2252 1.368 1_556 S
C2249 C2230 1.429 . S
C2249 C2243 1.429 . S
C2249 C2250 1.523 . S
C2250 C2231 1.368 . S
C2250 C2244 1.368 1_556 S
C2250 C2249 1.523 . S
C2251 C2235 1.429 . S
C2251 C2247 1.429 . S
C2251 C2252 1.523 . S
C2252 C2236 1.368 . S
C2252 C2248 1.368 1_554 S
C2252 C2251 1.523 . S
H2253 C2228 0.950 . S
H2254 C2230 0.950 . S
H2255 C2231 0.949 . S
H2256 C2233 0.950 . S
H2257 C2235 0.950 . S
C2258 C2259 1.349 . S
C2258 C2260 1.327 . S
C2258 H2283 0.950 . S
C2259 C2258 1.349 . S
C2259 C2275 1.349 . S
C2260 C2258 1.327 . S
C2260 C2279 1.429 . S
C2260 H2284 0.950 . S
C2261 C2278 1.574 1_545 S
C2261 C2280 1.368 . S
C2261 H2285 0.949 . S
H2262 C2266 0.949 . S
C2263 C2264 1.349 . S
C2263 C2265 1.327 . S
C2263 H2286 0.950 . S
C2264 C2263 1.349 . S
C2264 C2276 1.349 . S
C2265 C2263 1.327 . S
C2265 C2281 1.429 . S
C2265 H2287 0.950 . S
C2266 H2262 0.949 . S
C2266 C2274 1.574 1_565 S
C2266 C2282 1.368 . S
H2267 C2275 0.950 . S
H2268 C2273 0.950 . S
H2269 C2274 0.949 . S
H2270 C2276 0.950 . S
H2271 C2277 0.950 . S
H2272 C2278 0.949 . S
C2273 H2268 0.950 . S
C2273 C2275 1.327 . S
C2273 C2279 1.429 . S
C2274 C2266 1.574 1_545 S
C2274 H2269 0.949 . S
C2274 C2280 1.368 . S
C2275 C2259 1.349 . S
C2275 H2267 0.950 . S
C2275 C2273 1.327 . S
C2276 C2264 1.349 . S
C2276 H2270 0.950 . S
C2276 C2277 1.327 . S
C2277 H2271 0.950 . S
C2277 C2276 1.327 . S
C2277 C2281 1.429 . S
C2278 C2261 1.574 1_565 S
C2278 H2272 0.949 . S
C2278 C2282 1.368 . S
C2279 C2260 1.429 . S
C2279 C2273 1.429 . S
C2279 C2280 1.523 . S
C2280 C2261 1.368 . S
C2280 C2274 1.368 . S
C2280 C2279 1.523 . S
C2281 C2265 1.429 . S
C2281 C2277 1.429 . S
C2281 C2282 1.523 . S
C2282 C2266 1.368 . S
C2282 C2278 1.368 . S
C2282 C2281 1.523 . S
H2283 C2258 0.950 . S
H2284 C2260 0.950 . S
H2285 C2261 0.949 . S
H2286 C2263 0.950 . S
H2287 C2265 0.950 . S
C2288 C2289 1.349 . S
C2288 C2290 1.327 . S
C2288 H2313 0.950 . S
C2289 C2288 1.349 . S
C2289 C2305 1.349 . S
C2290 C2288 1.327 . S
C2290 C2309 1.429 . S
C2290 H2314 0.950 . S
C2291 C2308 1.574 . S
C2291 C2310 1.368 1_554 S
C2291 H2315 0.949 . S
H2292 C2296 0.949 . S
C2293 C2294 1.349 . S
C2293 C2295 1.327 . S
C2293 H2316 0.950 . S
C2294 C2293 1.349 . S
C2294 C2306 1.349 . S
C2295 C2293 1.327 . S
C2295 C2311 1.429 . S
C2295 H2317 0.950 . S
C2296 H2292 0.949 . S
C2296 C2304 1.574 . S
C2296 C2312 1.368 1_556 S
H2297 C2305 0.950 . S
H2298 C2303 0.950 . S
H2299 C2304 0.949 . S
H2300 C2306 0.950 . S
H2301 C2307 0.950 . S
H2302 C2308 0.949 . S
C2303 H2298 0.950 . S
C2303 C2305 1.327 . S
C2303 C2309 1.429 . S
C2304 C2296 1.574 . S
C2304 H2299 0.949 . S
C2304 C2310 1.368 . S
C2305 C2289 1.349 . S
C2305 H2297 0.950 . S
C2305 C2303 1.327 . S
C2306 C2294 1.349 . S
C2306 H2300 0.950 . S
C2306 C2307 1.327 . S
C2307 H2301 0.950 . S
C2307 C2306 1.327 . S
C2307 C2311 1.429 . S
C2308 C2291 1.574 . S
C2308 H2302 0.949 . S
C2308 C2312 1.368 . S
C2309 C2290 1.429 . S
C2309 C2303 1.429 . S
C2309 C2310 1.523 . S
C2310 C2291 1.368 1_556 S
C2310 C2304 1.368 . S
C2310 C2309 1.523 . S
C2311 C2295 1.429 . S
C2311 C2307 1.429 . S
C2311 C2312 1.523 . S
C2312 C2296 1.368 1_554 S
C2312 C2308 1.368 . S
C2312 C2311 1.523 . S
H2313 C2288 0.950 . S
H2314 C2290 0.950 . S
H2315 C2291 0.949 . S
H2316 C2293 0.950 . S
H2317 C2295 0.950 . S
C2318 C2319 1.349 . S
C2318 C2320 1.327 . S
C2318 H2343 0.950 . S
C2319 C2318 1.349 . S
C2319 C2335 1.349 . S
C2320 C2318 1.327 . S
C2320 C2339 1.429 . S
C2320 H2344 0.950 . S
C2321 C2338 1.574 . S
C2321 C2340 1.368 . S
C2321 H2345 0.949 . S
H2322 C2326 0.949 . S
C2323 C2324 1.349 . S
C2323 C2325 1.327 . S
C2323 H2346 0.950 . S
C2324 C2323 1.349 . S
C2324 C2336 1.349 . S
C2325 C2323 1.327 . S
C2325 C2341 1.429 . S
C2325 H2347 0.950 . S
C2326 H2322 0.949 . S
C2326 C2334 1.574 . S
C2326 C2342 1.368 . S
H2327 C2335 0.950 . S
H2328 C2333 0.950 . S
H2329 C2334 0.949 . S
H2330 C2336 0.950 . S
H2331 C2337 0.950 . S
H2332 C2338 0.949 . S
C2333 H2328 0.950 . S
C2333 C2335 1.327 . S
C2333 C2339 1.429 . S
C2334 C2326 1.574 . S
C2334 H2329 0.949 . S
C2334 C2340 1.368 . S
C2335 C2319 1.349 . S
C2335 H2327 0.950 . S
C2335 C2333 1.327 . S
C2336 C2324 1.349 . S
C2336 H2330 0.950 . S
C2336 C2337 1.327 . S
C2337 H2331 0.950 . S
C2337 C2336 1.327 . S
C2337 C2341 1.429 . S
C2338 C2321 1.574 . S
C2338 H2332 0.949 . S
C2338 C2342 1.368 . S
C2339 C2320 1.429 . S
C2339 C2333 1.429 . S
C2339 C2340 1.523 . S
C2340 C2321 1.368 . S
C2340 C2334 1.368 . S
C2340 C2339 1.523 . S
C2341 C2325 1.429 . S
C2341 C2337 1.429 . S
C2341 C2342 1.523 . S
C2342 C2326 1.368 . S
C2342 C2338 1.368 . S
C2342 C2341 1.523 . S
H2343 C2318 0.950 . S
H2344 C2320 0.950 . S
H2345 C2321 0.949 . S
H2346 C2323 0.950 . S
H2347 C2325 0.950 . S
C2348 C2349 1.349 . S
C2348 C2350 1.327 . S
C2348 H2373 0.950 . S
C2349 C2348 1.349 . S
C2349 C2365 1.349 . S
C2350 C2348 1.327 . S
C2350 C2369 1.429 . S
C2350 H2374 0.950 . S
C2351 C2368 1.574 . S
C2351 C2370 1.368 . S
C2351 H2375 0.949 . S
H2352 C2356 0.949 . S
C2353 C2354 1.349 . S
C2353 C2355 1.327 . S
C2353 H2376 0.950 . S
C2354 C2353 1.349 . S
C2354 C2366 1.349 . S
C2355 C2353 1.327 . S
C2355 C2371 1.429 . S
C2355 H2377 0.950 . S
C2356 H2352 0.949 . S
C2356 C2364 1.574 . S
C2356 C2372 1.368 . S
H2357 C2365 0.950 . S
H2358 C2363 0.950 . S
H2359 C2364 0.949 . S
H2360 C2366 0.950 . S
H2361 C2367 0.950 . S
H2362 C2368 0.949 . S
C2363 H2358 0.950 . S
C2363 C2365 1.327 . S
C2363 C2369 1.429 . S
C2364 C2356 1.574 . S
C2364 H2359 0.949 . S
C2364 C2370 1.368 . S
C2365 C2349 1.349 . S
C2365 H2357 0.950 . S
C2365 C2363 1.327 . S
C2366 C2354 1.349 . S
C2366 H2360 0.950 . S
C2366 C2367 1.327 . S
C2367 H2361 0.950 . S
C2367 C2366 1.327 . S
C2367 C2371 1.429 . S
C2368 C2351 1.574 . S
C2368 H2362 0.949 . S
C2368 C2372 1.368 . S
C2369 C2350 1.429 . S
C2369 C2363 1.429 . S
C2369 C2370 1.523 . S
C2370 C2351 1.368 . S
C2370 C2364 1.368 . S
C2370 C2369 1.523 . S
C2371 C2355 1.429 . S
C2371 C2367 1.429 . S
C2371 C2372 1.523 . S
C2372 C2356 1.368 . S
C2372 C2368 1.368 . S
C2372 C2371 1.523 . S
H2373 C2348 0.950 . S
H2374 C2350 0.950 . S
H2375 C2351 0.949 . S
H2376 C2353 0.950 . S
H2377 C2355 0.950 . S
C2378 C2379 1.349 . S
C2378 C2380 1.327 . S
C2378 H2403 0.950 . S
C2379 C2378 1.349 . S
C2379 C2395 1.349 . S
C2380 C2378 1.327 . S
C2380 C2399 1.429 . S
C2380 H2404 0.950 . S
C2381 C2398 1.574 . S
C2381 C2400 1.368 . S
C2381 H2405 0.949 . S
H2382 C2386 0.949 . S
C2383 C2384 1.349 . S
C2383 C2385 1.327 . S
C2383 H2406 0.950 . S
C2384 C2383 1.349 . S
C2384 C2396 1.349 . S
C2385 C2383 1.327 . S
C2385 C2401 1.429 . S
C2385 H2407 0.950 . S
C2386 H2382 0.949 . S
C2386 C2394 1.574 . S
C2386 C2402 1.368 . S
H2387 C2395 0.950 . S
H2388 C2393 0.950 . S
H2389 C2394 0.949 . S
H2390 C2396 0.950 . S
H2391 C2397 0.950 . S
H2392 C2398 0.949 . S
C2393 H2388 0.950 . S
C2393 C2395 1.327 . S
C2393 C2399 1.429 . S
C2394 C2386 1.574 . S
C2394 H2389 0.949 . S
C2394 C2400 1.368 . S
C2395 C2379 1.349 . S
C2395 H2387 0.950 . S
C2395 C2393 1.327 . S
C2396 C2384 1.349 . S
C2396 H2390 0.950 . S
C2396 C2397 1.327 . S
C2397 H2391 0.950 . S
C2397 C2396 1.327 . S
C2397 C2401 1.429 . S
C2398 C2381 1.574 . S
C2398 H2392 0.949 . S
C2398 C2402 1.368 . S
C2399 C2380 1.429 . S
C2399 C2393 1.429 . S
C2399 C2400 1.523 . S
C2400 C2381 1.368 . S
C2400 C2394 1.368 . S
C2400 C2399 1.523 . S
C2401 C2385 1.429 . S
C2401 C2397 1.429 . S
C2401 C2402 1.523 . S
C2402 C2386 1.368 . S
C2402 C2398 1.368 . S
C2402 C2401 1.523 . S
H2403 C2378 0.950 . S
H2404 C2380 0.950 . S
H2405 C2381 0.949 . S
H2406 C2383 0.950 . S
H2407 C2385 0.950 . S
C2408 C2409 1.349 . S
C2408 C2410 1.327 . S
C2408 H2433 0.950 . S
C2409 C2408 1.349 . S
C2409 C2425 1.349 . S
C2410 C2408 1.327 . S
C2410 C2429 1.429 . S
C2410 H2434 0.950 . S
C2411 C2428 1.574 . S
C2411 C2430 1.368 1_554 S
C2411 H2435 0.949 . S
H2412 C2416 0.949 . S
C2413 C2414 1.349 . S
C2413 C2415 1.327 . S
C2413 H2436 0.950 . S
C2414 C2413 1.349 . S
C2414 C2426 1.349 . S
C2415 C2413 1.327 . S
C2415 C2431 1.429 . S
C2415 H2437 0.950 . S
C2416 H2412 0.949 . S
C2416 C2424 1.574 . S
C2416 C2432 1.368 1_556 S
H2417 C2425 0.950 . S
H2418 C2423 0.950 . S
H2419 C2424 0.949 . S
H2420 C2426 0.950 . S
H2421 C2427 0.950 . S
H2422 C2428 0.949 . S
C2423 H2418 0.950 . S
C2423 C2425 1.327 . S
C2423 C2429 1.429 . S
C2424 C2416 1.574 . S
C2424 H2419 0.949 . S
C2424 C2430 1.368 . S
C2425 C2409 1.349 . S
C2425 H2417 0.950 . S
C2425 C2423 1.327 . S
C2426 C2414 1.349 . S
C2426 H2420 0.950 . S
C2426 C2427 1.327 . S
C2427 H2421 0.950 . S
C2427 C2426 1.327 . S
C2427 C2431 1.429 . S
C2428 C2411 1.574 . S
C2428 H2422 0.949 . S
C2428 C2432 1.368 . S
C2429 C2410 1.429 . S
C2429 C2423 1.429 . S
C2429 C2430 1.523 . S
C2430 C2411 1.368 1_556 S
C2430 C2424 1.368 . S
C2430 C2429 1.523 . S
C2431 C2415 1.429 . S
C2431 C2427 1.429 . S
C2431 C2432 1.523 . S
C2432 C2416 1.368 1_554 S
C2432 C2428 1.368 . S
C2432 C2431 1.523 . S
H2433 C2408 0.950 . S
H2434 C2410 0.950 . S
H2435 C2411 0.949 . S
H2436 C2413 0.950 . S
H2437 C2415 0.950 . S
C2438 C2439 1.349 . S
C2438 C2440 1.327 . S
C2438 H2463 0.950 . S
C2439 C2438 1.349 . S
C2439 C2455 1.349 . S
C2440 C2438 1.327 . S
C2440 C2459 1.429 . S
C2440 H2464 0.950 . S
C2441 C2458 1.574 . S
C2441 C2460 1.368 . S
C2441 H2465 0.949 . S
H2442 C2446 0.949 . S
C2443 C2444 1.349 . S
C2443 C2445 1.327 . S
C2443 H2466 0.950 . S
C2444 C2443 1.349 . S
C2444 C2456 1.349 . S
C2445 C2443 1.327 . S
C2445 C2461 1.429 . S
C2445 H2467 0.950 . S
C2446 H2442 0.949 . S
C2446 C2454 1.574 . S
C2446 C2462 1.368 . S
H2447 C2455 0.950 . S
H2448 C2453 0.950 . S
H2449 C2454 0.949 . S
H2450 C2456 0.950 . S
H2451 C2457 0.950 . S
H2452 C2458 0.949 . S
C2453 H2448 0.950 . S
C2453 C2455 1.327 . S
C2453 C2459 1.429 . S
C2454 C2446 1.574 . S
C2454 H2449 0.949 . S
C2454 C2460 1.368 . S
C2455 C2439 1.349 . S
C2455 H2447 0.950 . S
C2455 C2453 1.327 . S
C2456 C2444 1.349 . S
C2456 H2450 0.950 . S
C2456 C2457 1.327 . S
C2457 H2451 0.950 . S
C2457 C2456 1.327 . S
C2457 C2461 1.429 . S
C2458 C2441 1.574 . S
C2458 H2452 0.949 . S
C2458 C2462 1.368 . S
C2459 C2440 1.429 . S
C2459 C2453 1.429 . S
C2459 C2460 1.523 . S
C2460 C2441 1.368 . S
C2460 C2454 1.368 . S
C2460 C2459 1.523 . S
C2461 C2445 1.429 . S
C2461 C2457 1.429 . S
C2461 C2462 1.523 . S
C2462 C2446 1.368 . S
C2462 C2458 1.368 . S
C2462 C2461 1.523 . S
H2463 C2438 0.950 . S
H2464 C2440 0.950 . S
H2465 C2441 0.949 . S
H2466 C2443 0.950 . S
H2467 C2445 0.950 . S
C2468 C2469 1.349 . S
C2468 C2470 1.327 . S
C2468 H2493 0.950 . S
C2469 C2468 1.349 . S
C2469 C2485 1.349 . S
C2470 C2468 1.327 . S
C2470 C2489 1.429 . S
C2470 H2494 0.950 . S
C2471 C2488 1.574 . S
C2471 C2490 1.368 . S
C2471 H2495 0.949 . S
H2472 C2476 0.949 . S
C2473 C2474 1.349 . S
C2473 C2475 1.327 . S
C2473 H2496 0.950 . S
C2474 C2473 1.349 . S
C2474 C2486 1.349 . S
C2475 C2473 1.327 . S
C2475 C2491 1.429 . S
C2475 H2497 0.950 . S
C2476 H2472 0.949 . S
C2476 C2484 1.574 . S
C2476 C2492 1.368 . S
H2477 C2485 0.950 . S
H2478 C2483 0.950 . S
H2479 C2484 0.949 . S
H2480 C2486 0.950 . S
H2481 C2487 0.950 . S
H2482 C2488 0.949 . S
C2483 H2478 0.950 . S
C2483 C2485 1.327 . S
C2483 C2489 1.429 . S
C2484 C2476 1.574 . S
C2484 H2479 0.949 . S
C2484 C2490 1.368 . S
C2485 C2469 1.349 . S
C2485 H2477 0.950 . S
C2485 C2483 1.327 . S
C2486 C2474 1.349 . S
C2486 H2480 0.950 . S
C2486 C2487 1.327 . S
C2487 H2481 0.950 . S
C2487 C2486 1.327 . S
C2487 C2491 1.429 . S
C2488 C2471 1.574 . S
C2488 H2482 0.949 . S
C2488 C2492 1.368 . S
C2489 C2470 1.429 . S
C2489 C2483 1.429 . S
C2489 C2490 1.523 . S
C2490 C2471 1.368 . S
C2490 C2484 1.368 . S
C2490 C2489 1.523 . S
C2491 C2475 1.429 . S
C2491 C2487 1.429 . S
C2491 C2492 1.523 . S
C2492 C2476 1.368 . S
C2492 C2488 1.368 . S
C2492 C2491 1.523 . S
H2493 C2468 0.950 . S
H2494 C2470 0.950 . S
H2495 C2471 0.949 . S
H2496 C2473 0.950 . S
H2497 C2475 0.950 . S
C2498 C2499 1.349 . S
C2498 C2500 1.327 . S
C2498 H2523 0.950 . S
C2499 C2498 1.349 . S
C2499 C2515 1.349 . S
C2500 C2498 1.327 . S
C2500 C2519 1.429 . S
C2500 H2524 0.950 . S
C2501 C2518 1.574 . S
C2501 C2520 1.368 . S
C2501 H2525 0.949 . S
H2502 C2506 0.949 . S
C2503 C2504 1.349 . S
C2503 C2505 1.327 . S
C2503 H2526 0.950 . S
C2504 C2503 1.349 . S
C2504 C2516 1.349 . S
C2505 C2503 1.327 . S
C2505 C2521 1.429 . S
C2505 H2527 0.950 . S
C2506 H2502 0.949 . S
C2506 C2514 1.574 . S
C2506 C2522 1.368 . S
H2507 C2515 0.950 . S
H2508 C2513 0.950 . S
H2509 C2514 0.949 . S
H2510 C2516 0.950 . S
H2511 C2517 0.950 . S
H2512 C2518 0.949 . S
C2513 H2508 0.950 . S
C2513 C2515 1.327 . S
C2513 C2519 1.429 . S
C2514 C2506 1.574 . S
C2514 H2509 0.949 . S
C2514 C2520 1.368 . S
C2515 C2499 1.349 . S
C2515 H2507 0.950 . S
C2515 C2513 1.327 . S
C2516 C2504 1.349 . S
C2516 H2510 0.950 . S
C2516 C2517 1.327 . S
C2517 H2511 0.950 . S
C2517 C2516 1.327 . S
C2517 C2521 1.429 . S
C2518 C2501 1.574 . S
C2518 H2512 0.949 . S
C2518 C2522 1.368 . S
C2519 C2500 1.429 . S
C2519 C2513 1.429 . S
C2519 C2520 1.523 . S
C2520 C2501 1.368 . S
C2520 C2514 1.368 . S
C2520 C2519 1.523 . S
C2521 C2505 1.429 . S
C2521 C2517 1.429 . S
C2521 C2522 1.523 . S
C2522 C2506 1.368 . S
C2522 C2518 1.368 . S
C2522 C2521 1.523 . S
H2523 C2498 0.950 . S
H2524 C2500 0.950 . S
H2525 C2501 0.949 . S
H2526 C2503 0.950 . S
H2527 C2505 0.950 . S
C2528 C2529 1.349 . S
C2528 C2530 1.327 . S
C2528 H2553 0.950 . S
C2529 C2528 1.349 . S
C2529 C2545 1.349 . S
C2530 C2528 1.327 . S
C2530 C2549 1.429 . S
C2530 H2554 0.950 . S
C2531 C2548 1.574 . S
C2531 C2550 1.368 . S
C2531 H2555 0.949 . S
H2532 C2536 0.949 . S
C2533 C2534 1.349 . S
C2533 C2535 1.327 . S
C2533 H2556 0.950 . S
C2534 C2533 1.349 . S
C2534 C2546 1.349 . S
C2535 C2533 1.327 . S
C2535 C2551 1.429 . S
C2535 H2557 0.950 . S
C2536 H2532 0.949 . S
C2536 C2544 1.574 . S
C2536 C2552 1.368 . S
H2537 C2545 0.950 . S
H2538 C2543 0.950 . S
H2539 C2544 0.949 . S
H2540 C2546 0.950 . S
H2541 C2547 0.950 . S
H2542 C2548 0.949 . S
C2543 H2538 0.950 . S
C2543 C2545 1.327 . S
C2543 C2549 1.429 . S
C2544 C2536 1.574 . S
C2544 H2539 0.949 . S
C2544 C2550 1.368 . S
C2545 C2529 1.349 . S
C2545 H2537 0.950 . S
C2545 C2543 1.327 . S
C2546 C2534 1.349 . S
C2546 H2540 0.950 . S
C2546 C2547 1.327 . S
C2547 H2541 0.950 . S
C2547 C2546 1.327 . S
C2547 C2551 1.429 . S
C2548 C2531 1.574 . S
C2548 H2542 0.949 . S
C2548 C2552 1.368 . S
C2549 C2530 1.429 . S
C2549 C2543 1.429 . S
C2549 C2550 1.523 . S
C2550 C2531 1.368 . S
C2550 C2544 1.368 . S
C2550 C2549 1.523 . S
C2551 C2535 1.429 . S
C2551 C2547 1.429 . S
C2551 C2552 1.523 . S
C2552 C2536 1.368 . S
C2552 C2548 1.368 . S
C2552 C2551 1.523 . S
H2553 C2528 0.950 . S
H2554 C2530 0.950 . S
H2555 C2531 0.949 . S
H2556 C2533 0.950 . S
H2557 C2535 0.950 . S
C2558 C2559 1.349 . S
C2558 C2560 1.327 . S
C2558 H2583 0.950 . S
C2559 C2558 1.349 . S
C2559 C2575 1.349 . S
C2560 C2558 1.327 . S
C2560 C2579 1.429 . S
C2560 H2584 0.950 . S
C2561 C2578 1.574 1_655 S
C2561 C2580 1.368 . S
C2561 H2585 0.949 . S
H2562 C2566 0.949 . S
C2563 C2564 1.349 . S
C2563 C2565 1.327 . S
C2563 H2586 0.950 . S
C2564 C2563 1.349 . S
C2564 C2576 1.349 . S
C2565 C2563 1.327 . S
C2565 C2581 1.429 . S
C2565 H2587 0.950 . S
C2566 H2562 0.949 . S
C2566 C2574 1.574 1_455 S
C2566 C2582 1.368 . S
H2567 C2575 0.950 . S
H2568 C2573 0.950 . S
H2569 C2574 0.949 . S
H2570 C2576 0.950 . S
H2571 C2577 0.950 . S
H2572 C2578 0.949 . S
C2573 H2568 0.950 . S
C2573 C2575 1.327 . S
C2573 C2579 1.429 . S
C2574 C2566 1.574 1_655 S
C2574 H2569 0.949 . S
C2574 C2580 1.368 . S
C2575 C2559 1.349 . S
C2575 H2567 0.950 . S
C2575 C2573 1.327 . S
C2576 C2564 1.349 . S
C2576 H2570 0.950 . S
C2576 C2577 1.327 . S
C2577 H2571 0.950 . S
C2577 C2576 1.327 . S
C2577 C2581 1.429 . S
C2578 C2561 1.574 1_455 S
C2578 H2572 0.949 . S
C2578 C2582 1.368 . S
C2579 C2560 1.429 . S
C2579 C2573 1.429 . S
C2579 C2580 1.523 . S
C2580 C2561 1.368 . S
C2580 C2574 1.368 . S
C2580 C2579 1.523 . S
C2581 C2565 1.429 . S
C2581 C2577 1.429 . S
C2581 C2582 1.523 . S
C2582 C2566 1.368 . S
C2582 C2578 1.368 . S
C2582 C2581 1.523 . S
H2583 C2558 0.950 . S
H2584 C2560 0.950 . S
H2585 C2561 0.949 . S
H2586 C2563 0.950 . S
H2587 C2565 0.950 . S
C2588 C2589 1.349 . S
C2588 C2590 1.327 . S
C2588 H2613 0.950 . S
C2589 C2588 1.349 . S
C2589 C2605 1.349 . S
C2590 C2588 1.327 . S
C2590 C2609 1.429 . S
C2590 H2614 0.950 . S
C2591 C2608 1.574 . S
C2591 C2610 1.368 . S
C2591 H2615 0.949 . S
H2592 C2596 0.949 . S
C2593 C2594 1.349 . S
C2593 C2595 1.327 . S
C2593 H2616 0.950 . S
C2594 C2593 1.349 . S
C2594 C2606 1.349 . S
C2595 C2593 1.327 . S
C2595 C2611 1.429 . S
C2595 H2617 0.950 . S
C2596 H2592 0.949 . S
C2596 C2604 1.574 . S
C2596 C2612 1.368 . S
H2597 C2605 0.950 . S
H2598 C2603 0.950 . S
H2599 C2604 0.949 . S
H2600 C2606 0.950 . S
H2601 C2607 0.950 . S
H2602 C2608 0.949 . S
C2603 H2598 0.950 . S
C2603 C2605 1.327 . S
C2603 C2609 1.429 . S
C2604 C2596 1.574 . S
C2604 H2599 0.949 . S
C2604 C2610 1.368 . S
C2605 C2589 1.349 . S
C2605 H2597 0.950 . S
C2605 C2603 1.327 . S
C2606 C2594 1.349 . S
C2606 H2600 0.950 . S
C2606 C2607 1.327 . S
C2607 H2601 0.950 . S
C2607 C2606 1.327 . S
C2607 C2611 1.429 . S
C2608 C2591 1.574 . S
C2608 H2602 0.949 . S
C2608 C2612 1.368 . S
C2609 C2590 1.429 . S
C2609 C2603 1.429 . S
C2609 C2610 1.523 . S
C2610 C2591 1.368 . S
C2610 C2604 1.368 . S
C2610 C2609 1.523 . S
C2611 C2595 1.429 . S
C2611 C2607 1.429 . S
C2611 C2612 1.523 . S
C2612 C2596 1.368 . S
C2612 C2608 1.368 . S
C2612 C2611 1.523 . S
H2613 C2588 0.950 . S
H2614 C2590 0.950 . S
H2615 C2591 0.949 . S
H2616 C2593 0.950 . S
H2617 C2595 0.950 . S
C2618 C2619 1.349 . S
C2618 C2620 1.327 . S
C2618 H2643 0.950 . S
C2619 C2618 1.349 . S
C2619 C2635 1.349 . S
C2620 C2618 1.327 . S
C2620 C2639 1.429 . S
C2620 H2644 0.950 . S
C2621 C2638 1.574 . S
C2621 C2640 1.368 . S
C2621 H2645 0.949 . S
H2622 C2626 0.949 . S
C2623 C2624 1.349 . S
C2623 C2625 1.327 . S
C2623 H2646 0.950 . S
C2624 C2623 1.349 . S
C2624 C2636 1.349 . S
C2625 C2623 1.327 . S
C2625 C2641 1.429 . S
C2625 H2647 0.950 . S
C2626 H2622 0.949 . S
C2626 C2634 1.574 . S
C2626 C2642 1.368 . S
H2627 C2635 0.950 . S
H2628 C2633 0.950 . S
H2629 C2634 0.949 . S
H2630 C2636 0.950 . S
H2631 C2637 0.950 . S
H2632 C2638 0.949 . S
C2633 H2628 0.950 . S
C2633 C2635 1.327 . S
C2633 C2639 1.429 . S
C2634 C2626 1.574 . S
C2634 H2629 0.949 . S
C2634 C2640 1.368 . S
C2635 C2619 1.349 . S
C2635 H2627 0.950 . S
C2635 C2633 1.327 . S
C2636 C2624 1.349 . S
C2636 H2630 0.950 . S
C2636 C2637 1.327 . S
C2637 H2631 0.950 . S
C2637 C2636 1.327 . S
C2637 C2641 1.429 . S
C2638 C2621 1.574 . S
C2638 H2632 0.949 . S
C2638 C2642 1.368 . S
C2639 C2620 1.429 . S
C2639 C2633 1.429 . S
C2639 C2640 1.523 . S
C2640 C2621 1.368 . S
C2640 C2634 1.368 . S
C2640 C2639 1.523 . S
C2641 C2625 1.429 . S
C2641 C2637 1.429 . S
C2641 C2642 1.523 . S
C2642 C2626 1.368 . S
C2642 C2638 1.368 . S
C2642 C2641 1.523 . S
H2643 C2618 0.950 . S
H2644 C2620 0.950 . S
H2645 C2621 0.949 . S
H2646 C2623 0.950 . S
H2647 C2625 0.950 . S
C2648 C2649 1.349 . S
C2648 C2650 1.327 . S
C2648 H2673 0.950 . S
C2649 C2648 1.349 . S
C2649 C2665 1.349 . S
C2650 C2648 1.327 . S
C2650 C2669 1.429 . S
C2650 H2674 0.950 . S
C2651 C2668 1.574 . S
C2651 C2670 1.368 . S
C2651 H2675 0.949 . S
H2652 C2656 0.949 . S
C2653 C2654 1.349 . S
C2653 C2655 1.327 . S
C2653 H2676 0.950 . S
C2654 C2653 1.349 . S
C2654 C2666 1.349 . S
C2655 C2653 1.327 . S
C2655 C2671 1.429 . S
C2655 H2677 0.950 . S
C2656 H2652 0.949 . S
C2656 C2664 1.574 . S
C2656 C2672 1.368 . S
H2657 C2665 0.950 . S
H2658 C2663 0.950 . S
H2659 C2664 0.949 . S
H2660 C2666 0.950 . S
H2661 C2667 0.950 . S
H2662 C2668 0.949 . S
C2663 H2658 0.950 . S
C2663 C2665 1.327 . S
C2663 C2669 1.429 . S
C2664 C2656 1.574 . S
C2664 H2659 0.949 . S
C2664 C2670 1.368 . S
C2665 C2649 1.349 . S
C2665 H2657 0.950 . S
C2665 C2663 1.327 . S
C2666 C2654 1.349 . S
C2666 H2660 0.950 . S
C2666 C2667 1.327 . S
C2667 H2661 0.950 . S
C2667 C2666 1.327 . S
C2667 C2671 1.429 . S
C2668 C2651 1.574 . S
C2668 H2662 0.949 . S
C2668 C2672 1.368 . S
C2669 C2650 1.429 . S
C2669 C2663 1.429 . S
C2669 C2670 1.523 . S
C2670 C2651 1.368 . S
C2670 C2664 1.368 . S
C2670 C2669 1.523 . S
C2671 C2655 1.429 . S
C2671 C2667 1.429 . S
C2671 C2672 1.523 . S
C2672 C2656 1.368 . S
C2672 C2668 1.368 . S
C2672 C2671 1.523 . S
H2673 C2648 0.950 . S
H2674 C2650 0.950 . S
H2675 C2651 0.949 . S
H2676 C2653 0.950 . S
H2677 C2655 0.950 . S
C2678 C2679 1.349 . S
C2678 C2680 1.327 . S
C2678 H2703 0.950 . S
C2679 C2678 1.349 . S
C2679 C2695 1.349 . S
C2680 C2678 1.327 . S
C2680 C2699 1.429 . S
C2680 H2704 0.950 . S
C2681 C2698 1.574 . S
C2681 C2700 1.368 . S
C2681 H2705 0.949 . S
H2682 C2686 0.949 . S
C2683 C2684 1.349 . S
C2683 C2685 1.327 . S
C2683 H2706 0.950 . S
C2684 C2683 1.349 . S
C2684 C2696 1.349 . S
C2685 C2683 1.327 . S
C2685 C2701 1.429 . S
C2685 H2707 0.950 . S
C2686 H2682 0.949 . S
C2686 C2694 1.574 . S
C2686 C2702 1.368 . S
H2687 C2695 0.950 . S
H2688 C2693 0.950 . S
H2689 C2694 0.949 . S
H2690 C2696 0.950 . S
H2691 C2697 0.950 . S
H2692 C2698 0.949 . S
C2693 H2688 0.950 . S
C2693 C2695 1.327 . S
C2693 C2699 1.429 . S
C2694 C2686 1.574 . S
C2694 H2689 0.949 . S
C2694 C2700 1.368 . S
C2695 C2679 1.349 . S
C2695 H2687 0.950 . S
C2695 C2693 1.327 . S
C2696 C2684 1.349 . S
C2696 H2690 0.950 . S
C2696 C2697 1.327 . S
C2697 H2691 0.950 . S
C2697 C2696 1.327 . S
C2697 C2701 1.429 . S
C2698 C2681 1.574 . S
C2698 H2692 0.949 . S
C2698 C2702 1.368 . S
C2699 C2680 1.429 . S
C2699 C2693 1.429 . S
C2699 C2700 1.523 . S
C2700 C2681 1.368 . S
C2700 C2694 1.368 . S
C2700 C2699 1.523 . S
C2701 C2685 1.429 . S
C2701 C2697 1.429 . S
C2701 C2702 1.523 . S
C2702 C2686 1.368 . S
C2702 C2698 1.368 . S
C2702 C2701 1.523 . S
H2703 C2678 0.950 . S
H2704 C2680 0.950 . S
H2705 C2681 0.949 . S
H2706 C2683 0.950 . S
H2707 C2685 0.950 . S
C2708 C2709 1.349 . S
C2708 C2710 1.327 . S
C2708 H2733 0.950 . S
C2709 C2708 1.349 . S
C2709 C2725 1.349 . S
C2710 C2708 1.327 . S
C2710 C2729 1.429 . S
C2710 H2734 0.950 . S
C2711 C2728 1.574 . S
C2711 C2730 1.368 . S
C2711 H2735 0.949 . S
H2712 C2716 0.949 . S
C2713 C2714 1.349 . S
C2713 C2715 1.327 . S
C2713 H2736 0.950 . S
C2714 C2713 1.349 . S
C2714 C2726 1.349 . S
C2715 C2713 1.327 . S
C2715 C2731 1.429 . S
C2715 H2737 0.950 . S
C2716 H2712 0.949 . S
C2716 C2724 1.574 . S
C2716 C2732 1.368 . S
H2717 C2725 0.950 . S
H2718 C2723 0.950 . S
H2719 C2724 0.949 . S
H2720 C2726 0.950 . S
H2721 C2727 0.950 . S
H2722 C2728 0.949 . S
C2723 H2718 0.950 . S
C2723 C2725 1.327 . S
C2723 C2729 1.429 . S
C2724 C2716 1.574 . S
C2724 H2719 0.949 . S
C2724 C2730 1.368 . S
C2725 C2709 1.349 . S
C2725 H2717 0.950 . S
C2725 C2723 1.327 . S
C2726 C2714 1.349 . S
C2726 H2720 0.950 . S
C2726 C2727 1.327 . S
C2727 H2721 0.950 . S
C2727 C2726 1.327 . S
C2727 C2731 1.429 . S
C2728 C2711 1.574 . S
C2728 H2722 0.949 . S
C2728 C2732 1.368 . S
C2729 C2710 1.429 . S
C2729 C2723 1.429 . S
C2729 C2730 1.523 . S
C2730 C2711 1.368 . S
C2730 C2724 1.368 . S
C2730 C2729 1.523 . S
C2731 C2715 1.429 . S
C2731 C2727 1.429 . S
C2731 C2732 1.523 . S
C2732 C2716 1.368 . S
C2732 C2728 1.368 . S
C2732 C2731 1.523 . S
H2733 C2708 0.950 . S
H2734 C2710 0.950 . S
H2735 C2711 0.949 . S
H2736 C2713 0.950 . S
H2737 C2715 0.950 . S
C2738 C2739 1.349 . S
C2738 C2740 1.327 . S
C2738 H2763 0.950 . S
C2739 C2738 1.349 . S
C2739 C2755 1.349 . S
C2740 C2738 1.327 . S
C2740 C2759 1.429 . S
C2740 H2764 0.950 . S
C2741 C2758 1.574 1_655 S
C2741 C2760 1.368 . S
C2741 H2765 0.949 . S
H2742 C2746 0.949 . S
C2743 C2744 1.349 . S
C2743 C2745 1.327 . S
C2743 H2766 0.950 . S
C2744 C2743 1.349 . S
C2744 C2756 1.349 . S
C2745 C2743 1.327 . S
C2745 C2761 1.429 . S
C2745 H2767 0.950 . S
C2746 H2742 0.949 . S
C2746 C2754 1.574 1_455 S
C2746 C2762 1.368 . S
H2747 C2755 0.950 . S
H2748 C2753 0.950 . S
H2749 C2754 0.949 . S
H2750 C2756 0.950 . S
H2751 C2757 0.950 . S
H2752 C2758 0.949 . S
C2753 H2748 0.950 . S
C2753 C2755 1.327 . S
C2753 C2759 1.429 . S
C2754 C2746 1.574 1_655 S
C2754 H2749 0.949 . S
C2754 C2760 1.368 . S
C2755 C2739 1.349 . S
C2755 H2747 0.950 . S
C2755 C2753 1.327 . S
C2756 C2744 1.349 . S
C2756 H2750 0.950 . S
C2756 C2757 1.327 . S
C2757 H2751 0.950 . S
C2757 C2756 1.327 . S
C2757 C2761 1.429 . S
C2758 C2741 1.574 1_455 S
C2758 H2752 0.949 . S
C2758 C2762 1.368 . S
C2759 C2740 1.429 . S
C2759 C2753 1.429 . S
C2759 C2760 1.523 . S
C2760 C2741 1.368 . S
C2760 C2754 1.368 . S
C2760 C2759 1.523 . S
C2761 C2745 1.429 . S
C2761 C2757 1.429 . S
C2761 C2762 1.523 . S
C2762 C2746 1.368 . S
C2762 C2758 1.368 . S
C2762 C2761 1.523 . S
H2763 C2738 0.950 . S
H2764 C2740 0.950 . S
H2765 C2741 0.949 . S
H2766 C2743 0.950 . S
H2767 C2745 0.950 . S
C2768 C2769 1.349 . S
C2768 C2770 1.327 . S
C2768 H2793 0.950 . S
C2769 C2768 1.349 . S
C2769 C2785 1.349 . S
C2770 C2768 1.327 . S
C2770 C2789 1.429 . S
C2770 H2794 0.950 . S
C2771 C2788 1.574 . S
C2771 C2790 1.368 . S
C2771 H2795 0.949 . S
H2772 C2776 0.949 . S
C2773 C2774 1.349 . S
C2773 C2775 1.327 . S
C2773 H2796 0.950 . S
C2774 C2773 1.349 . S
C2774 C2786 1.349 . S
C2775 C2773 1.327 . S
C2775 C2791 1.429 . S
C2775 H2797 0.950 . S
C2776 H2772 0.949 . S
C2776 C2784 1.574 . S
C2776 C2792 1.368 . S
H2777 C2785 0.950 . S
H2778 C2783 0.950 . S
H2779 C2784 0.949 . S
H2780 C2786 0.950 . S
H2781 C2787 0.950 . S
H2782 C2788 0.949 . S
C2783 H2778 0.950 . S
C2783 C2785 1.327 . S
C2783 C2789 1.429 . S
C2784 C2776 1.574 . S
C2784 H2779 0.949 . S
C2784 C2790 1.368 . S
C2785 C2769 1.349 . S
C2785 H2777 0.950 . S
C2785 C2783 1.327 . S
C2786 C2774 1.349 . S
C2786 H2780 0.950 . S
C2786 C2787 1.327 . S
C2787 H2781 0.950 . S
C2787 C2786 1.327 . S
C2787 C2791 1.429 . S
C2788 C2771 1.574 . S
C2788 H2782 0.949 . S
C2788 C2792 1.368 . S
C2789 C2770 1.429 . S
C2789 C2783 1.429 . S
C2789 C2790 1.523 . S
C2790 C2771 1.368 . S
C2790 C2784 1.368 . S
C2790 C2789 1.523 . S
C2791 C2775 1.429 . S
C2791 C2787 1.429 . S
C2791 C2792 1.523 . S
C2792 C2776 1.368 . S
C2792 C2788 1.368 . S
C2792 C2791 1.523 . S
H2793 C2768 0.950 . S
H2794 C2770 0.950 . S
H2795 C2771 0.949 . S
H2796 C2773 0.950 . S
H2797 C2775 0.950 . S
C2798 C2799 1.349 . S
C2798 C2800 1.327 . S
C2798 H2823 0.950 . S
C2799 C2798 1.349 . S
C2799 C2815 1.349 . S
C2800 C2798 1.327 . S
C2800 C2819 1.429 . S
C2800 H2824 0.950 . S
C2801 C2818 1.574 1_655 S
C2801 C2820 1.368 . S
C2801 H2825 0.949 . S
H2802 C2806 0.949 . S
C2803 C2804 1.349 . S
C2803 C2805 1.327 . S
C2803 H2826 0.950 . S
C2804 C2803 1.349 . S
C2804 C2816 1.349 . S
C2805 C2803 1.327 . S
C2805 C2821 1.429 . S
C2805 H2827 0.950 . S
C2806 H2802 0.949 . S
C2806 C2814 1.574 1_455 S
C2806 C2822 1.368 . S
H2807 C2815 0.950 . S
H2808 C2813 0.950 . S
H2809 C2814 0.949 . S
H2810 C2816 0.950 . S
H2811 C2817 0.950 . S
H2812 C2818 0.949 . S
C2813 H2808 0.950 . S
C2813 C2815 1.327 . S
C2813 C2819 1.429 . S
C2814 C2806 1.574 1_655 S
C2814 H2809 0.949 . S
C2814 C2820 1.368 . S
C2815 C2799 1.349 . S
C2815 H2807 0.950 . S
C2815 C2813 1.327 . S
C2816 C2804 1.349 . S
C2816 H2810 0.950 . S
C2816 C2817 1.327 . S
C2817 H2811 0.950 . S
C2817 C2816 1.327 . S
C2817 C2821 1.429 . S
C2818 C2801 1.574 1_455 S
C2818 H2812 0.949 . S
C2818 C2822 1.368 . S
C2819 C2800 1.429 . S
C2819 C2813 1.429 . S
C2819 C2820 1.523 . S
C2820 C2801 1.368 . S
C2820 C2814 1.368 . S
C2820 C2819 1.523 . S
C2821 C2805 1.429 . S
C2821 C2817 1.429 . S
C2821 C2822 1.523 . S
C2822 C2806 1.368 . S
C2822 C2818 1.368 . S
C2822 C2821 1.523 . S
H2823 C2798 0.950 . S
H2824 C2800 0.950 . S
H2825 C2801 0.949 . S
H2826 C2803 0.950 . S
H2827 C2805 0.950 . S
C2828 C2829 1.349 . S
C2828 C2830 1.327 . S
C2828 H2853 0.950 . S
C2829 C2828 1.349 . S
C2829 C2845 1.349 . S
C2830 C2828 1.327 . S
C2830 C2849 1.429 . S
C2830 H2854 0.950 . S
C2831 C2848 1.574 . S
C2831 C2850 1.368 . S
C2831 H2855 0.949 . S
H2832 C2836 0.949 . S
C2833 C2834 1.349 . S
C2833 C2835 1.327 . S
C2833 H2856 0.950 . S
C2834 C2833 1.349 . S
C2834 C2846 1.349 . S
C2835 C2833 1.327 . S
C2835 C2851 1.429 . S
C2835 H2857 0.950 . S
C2836 H2832 0.949 . S
C2836 C2844 1.574 . S
C2836 C2852 1.368 . S
H2837 C2845 0.950 . S
H2838 C2843 0.950 . S
H2839 C2844 0.949 . S
H2840 C2846 0.950 . S
H2841 C2847 0.950 . S
H2842 C2848 0.949 . S
C2843 H2838 0.950 . S
C2843 C2845 1.327 . S
C2843 C2849 1.429 . S
C2844 C2836 1.574 . S
C2844 H2839 0.949 . S
C2844 C2850 1.368 . S
C2845 C2829 1.349 . S
C2845 H2837 0.950 . S
C2845 C2843 1.327 . S
C2846 C2834 1.349 . S
C2846 H2840 0.950 . S
C2846 C2847 1.327 . S
C2847 H2841 0.950 . S
C2847 C2846 1.327 . S
C2847 C2851 1.429 . S
C2848 C2831 1.574 . S
C2848 H2842 0.949 . S
C2848 C2852 1.368 . S
C2849 C2830 1.429 . S
C2849 C2843 1.429 . S
C2849 C2850 1.523 . S
C2850 C2831 1.368 . S
C2850 C2844 1.368 . S
C2850 C2849 1.523 . S
C2851 C2835 1.429 . S
C2851 C2847 1.429 . S
C2851 C2852 1.523 . S
C2852 C2836 1.368 . S
C2852 C2848 1.368 . S
C2852 C2851 1.523 . S
H2853 C2828 0.950 . S
H2854 C2830 0.950 . S
H2855 C2831 0.949 . S
H2856 C2833 0.950 . S
H2857 C2835 0.950 . S
C2858 C2859 1.349 . S
C2858 C2860 1.327 . S
C2858 H2883 0.950 . S
C2859 C2858 1.349 . S
C2859 C2875 1.349 . S
C2860 C2858 1.327 . S
C2860 C2879 1.429 . S
C2860 H2884 0.950 . S
C2861 C2878 1.574 . S
C2861 C2880 1.368 . S
C2861 H2885 0.949 . S
H2862 C2866 0.949 . S
C2863 C2864 1.349 . S
C2863 C2865 1.327 . S
C2863 H2886 0.950 . S
C2864 C2863 1.349 . S
C2864 C2876 1.349 . S
C2865 C2863 1.327 . S
C2865 C2881 1.429 . S
C2865 H2887 0.950 . S
C2866 H2862 0.949 . S
C2866 C2874 1.574 . S
C2866 C2882 1.368 . S
H2867 C2875 0.950 . S
H2868 C2873 0.950 . S
H2869 C2874 0.949 . S
H2870 C2876 0.950 . S
H2871 C2877 0.950 . S
H2872 C2878 0.949 . S
C2873 H2868 0.950 . S
C2873 C2875 1.327 . S
C2873 C2879 1.429 . S
C2874 C2866 1.574 . S
C2874 H2869 0.949 . S
C2874 C2880 1.368 . S
C2875 C2859 1.349 . S
C2875 H2867 0.950 . S
C2875 C2873 1.327 . S
C2876 C2864 1.349 . S
C2876 H2870 0.950 . S
C2876 C2877 1.327 . S
C2877 H2871 0.950 . S
C2877 C2876 1.327 . S
C2877 C2881 1.429 . S
C2878 C2861 1.574 . S
C2878 H2872 0.949 . S
C2878 C2882 1.368 . S
C2879 C2860 1.429 . S
C2879 C2873 1.429 . S
C2879 C2880 1.523 . S
C2880 C2861 1.368 . S
C2880 C2874 1.368 . S
C2880 C2879 1.523 . S
C2881 C2865 1.429 . S
C2881 C2877 1.429 . S
C2881 C2882 1.523 . S
C2882 C2866 1.368 . S
C2882 C2878 1.368 . S
C2882 C2881 1.523 . S
H2883 C2858 0.950 . S
H2884 C2860 0.950 . S
H2885 C2861 0.949 . S
H2886 C2863 0.950 . S
H2887 C2865 0.950 . S
C2888 C2889 1.349 . S
C2888 C2890 1.327 . S
C2888 H2913 0.950 . S
C2889 C2888 1.349 . S
C2889 C2905 1.349 . S
C2890 C2888 1.327 . S
C2890 C2909 1.429 . S
C2890 H2914 0.950 . S
C2891 C2908 1.574 . S
C2891 C2910 1.368 . S
C2891 H2915 0.949 . S
H2892 C2896 0.949 . S
C2893 C2894 1.349 . S
C2893 C2895 1.327 . S
C2893 H2916 0.950 . S
C2894 C2893 1.349 . S
C2894 C2906 1.349 . S
C2895 C2893 1.327 . S
C2895 C2911 1.429 . S
C2895 H2917 0.950 . S
C2896 H2892 0.949 . S
C2896 C2904 1.574 . S
C2896 C2912 1.368 . S
H2897 C2905 0.950 . S
H2898 C2903 0.950 . S
H2899 C2904 0.949 . S
H2900 C2906 0.950 . S
H2901 C2907 0.950 . S
H2902 C2908 0.949 . S
C2903 H2898 0.950 . S
C2903 C2905 1.327 . S
C2903 C2909 1.429 . S
C2904 C2896 1.574 . S
C2904 H2899 0.949 . S
C2904 C2910 1.368 . S
C2905 C2889 1.349 . S
C2905 H2897 0.950 . S
C2905 C2903 1.327 . S
C2906 C2894 1.349 . S
C2906 H2900 0.950 . S
C2906 C2907 1.327 . S
C2907 H2901 0.950 . S
C2907 C2906 1.327 . S
C2907 C2911 1.429 . S
C2908 C2891 1.574 . S
C2908 H2902 0.949 . S
C2908 C2912 1.368 . S
C2909 C2890 1.429 . S
C2909 C2903 1.429 . S
C2909 C2910 1.523 . S
C2910 C2891 1.368 . S
C2910 C2904 1.368 . S
C2910 C2909 1.523 . S
C2911 C2895 1.429 . S
C2911 C2907 1.429 . S
C2911 C2912 1.523 . S
C2912 C2896 1.368 . S
C2912 C2908 1.368 . S
C2912 C2911 1.523 . S
H2913 C2888 0.950 . S
H2914 C2890 0.950 . S
H2915 C2891 0.949 . S
H2916 C2893 0.950 . S
H2917 C2895 0.950 . S
C2918 C2919 1.349 . S
C2918 C2920 1.327 . S
C2918 H2943 0.950 . S
C2919 C2918 1.349 . S
C2919 C2935 1.349 . S
C2920 C2918 1.327 . S
C2920 C2939 1.429 . S
C2920 H2944 0.950 . S
C2921 C2938 1.574 . S
C2921 C2940 1.368 . S
C2921 H2945 0.949 . S
H2922 C2926 0.949 . S
C2923 C2924 1.349 . S
C2923 C2925 1.327 . S
C2923 H2946 0.950 . S
C2924 C2923 1.349 . S
C2924 C2936 1.349 . S
C2925 C2923 1.327 . S
C2925 C2941 1.429 . S
C2925 H2947 0.950 . S
C2926 H2922 0.949 . S
C2926 C2934 1.574 . S
C2926 C2942 1.368 . S
H2927 C2935 0.950 . S
H2928 C2933 0.950 . S
H2929 C2934 0.949 . S
H2930 C2936 0.950 . S
H2931 C2937 0.950 . S
H2932 C2938 0.949 . S
C2933 H2928 0.950 . S
C2933 C2935 1.327 . S
C2933 C2939 1.429 . S
C2934 C2926 1.574 . S
C2934 H2929 0.949 . S
C2934 C2940 1.368 . S
C2935 C2919 1.349 . S
C2935 H2927 0.950 . S
C2935 C2933 1.327 . S
C2936 C2924 1.349 . S
C2936 H2930 0.950 . S
C2936 C2937 1.327 . S
C2937 H2931 0.950 . S
C2937 C2936 1.327 . S
C2937 C2941 1.429 . S
C2938 C2921 1.574 . S
C2938 H2932 0.949 . S
C2938 C2942 1.368 . S
C2939 C2920 1.429 . S
C2939 C2933 1.429 . S
C2939 C2940 1.523 . S
C2940 C2921 1.368 . S
C2940 C2934 1.368 . S
C2940 C2939 1.523 . S
C2941 C2925 1.429 . S
C2941 C2937 1.429 . S
C2941 C2942 1.523 . S
C2942 C2926 1.368 . S
C2942 C2938 1.368 . S
C2942 C2941 1.523 . S
H2943 C2918 0.950 . S
H2944 C2920 0.950 . S
H2945 C2921 0.949 . S
H2946 C2923 0.950 . S
H2947 C2925 0.950 . S
C2948 C2949 1.349 . S
C2948 C2950 1.327 . S
C2948 H2973 0.950 . S
C2949 C2948 1.349 . S
C2949 C2965 1.349 . S
C2950 C2948 1.327 . S
C2950 C2969 1.429 . S
C2950 H2974 0.950 . S
C2951 C2968 1.574 . S
C2951 C2970 1.368 . S
C2951 H2975 0.949 . S
H2952 C2956 0.949 . S
C2953 C2954 1.349 . S
C2953 C2955 1.327 . S
C2953 H2976 0.950 . S
C2954 C2953 1.349 . S
C2954 C2966 1.349 . S
C2955 C2953 1.327 . S
C2955 C2971 1.429 . S
C2955 H2977 0.950 . S
C2956 H2952 0.949 . S
C2956 C2964 1.574 . S
C2956 C2972 1.368 . S
H2957 C2965 0.950 . S
H2958 C2963 0.950 . S
H2959 C2964 0.949 . S
H2960 C2966 0.950 . S
H2961 C2967 0.950 . S
H2962 C2968 0.949 . S
C2963 H2958 0.950 . S
C2963 C2965 1.327 . S
C2963 C2969 1.429 . S
C2964 C2956 1.574 . S
C2964 H2959 0.949 . S
C2964 C2970 1.368 . S
C2965 C2949 1.349 . S
C2965 H2957 0.950 . S
C2965 C2963 1.327 . S
C2966 C2954 1.349 . S
C2966 H2960 0.950 . S
C2966 C2967 1.327 . S
C2967 H2961 0.950 . S
C2967 C2966 1.327 . S
C2967 C2971 1.429 . S
C2968 C2951 1.574 . S
C2968 H2962 0.949 . S
C2968 C2972 1.368 . S
C2969 C2950 1.429 . S
C2969 C2963 1.429 . S
C2969 C2970 1.523 . S
C2970 C2951 1.368 . S
C2970 C2964 1.368 . S
C2970 C2969 1.523 . S
C2971 C2955 1.429 . S
C2971 C2967 1.429 . S
C2971 C2972 1.523 . S
C2972 C2956 1.368 . S
C2972 C2968 1.368 . S
C2972 C2971 1.523 . S
H2973 C2948 0.950 . S
H2974 C2950 0.950 . S
H2975 C2951 0.949 . S
H2976 C2953 0.950 . S
H2977 C2955 0.950 . S
C2978 C2979 1.349 . S
C2978 C2980 1.327 . S
C2978 H3003 0.950 . S
C2979 C2978 1.349 . S
C2979 C2995 1.349 . S
C2980 C2978 1.327 . S
C2980 C2999 1.429 . S
C2980 H3004 0.950 . S
C2981 C2998 1.574 1_455 S
C2981 C3000 1.368 . S
C2981 H3005 0.949 . S
H2982 C2986 0.949 . S
C2983 C2984 1.349 . S
C2983 C2985 1.327 . S
C2983 H3006 0.950 . S
C2984 C2983 1.349 . S
C2984 C2996 1.349 . S
C2985 C2983 1.327 . S
C2985 C3001 1.429 . S
C2985 H3007 0.950 . S
C2986 H2982 0.949 . S
C2986 C2994 1.574 1_655 S
C2986 C3002 1.368 . S
H2987 C2995 0.950 . S
H2988 C2993 0.950 . S
H2989 C2994 0.949 . S
H2990 C2996 0.950 . S
H2991 C2997 0.950 . S
H2992 C2998 0.949 . S
C2993 H2988 0.950 . S
C2993 C2995 1.327 . S
C2993 C2999 1.429 . S
C2994 C2986 1.574 1_455 S
C2994 H2989 0.949 . S
C2994 C3000 1.368 . S
C2995 C2979 1.349 . S
C2995 H2987 0.950 . S
C2995 C2993 1.327 . S
C2996 C2984 1.349 . S
C2996 H2990 0.950 . S
C2996 C2997 1.327 . S
C2997 H2991 0.950 . S
C2997 C2996 1.327 . S
C2997 C3001 1.429 . S
C2998 C2981 1.574 1_655 S
C2998 H2992 0.949 . S
C2998 C3002 1.368 . S
C2999 C2980 1.429 . S
C2999 C2993 1.429 . S
C2999 C3000 1.523 . S
C3000 C2981 1.368 . S
C3000 C2994 1.368 . S
C3000 C2999 1.523 . S
C3001 C2985 1.429 . S
C3001 C2997 1.429 . S
C3001 C3002 1.523 . S
C3002 C2986 1.368 . S
C3002 C2998 1.368 . S
C3002 C3001 1.523 . S
H3003 C2978 0.950 . S
H3004 C2980 0.950 . S
H3005 C2981 0.949 . S
H3006 C2983 0.950 . S
H3007 C2985 0.950 . S
C3008 C3009 1.349 . S
C3008 C3010 1.327 . S
C3008 H3033 0.950 . S
C3009 C3008 1.349 . S
C3009 C3025 1.349 . S
C3010 C3008 1.327 . S
C3010 C3029 1.429 . S
C3010 H3034 0.950 . S
C3011 C3028 1.574 . S
C3011 C3030 1.368 . S
C3011 H3035 0.949 . S
H3012 C3016 0.949 . S
C3013 C3014 1.349 . S
C3013 C3015 1.327 . S
C3013 H3036 0.950 . S
C3014 C3013 1.349 . S
C3014 C3026 1.349 . S
C3015 C3013 1.327 . S
C3015 C3031 1.429 . S
C3015 H3037 0.950 . S
C3016 H3012 0.949 . S
C3016 C3024 1.574 . S
C3016 C3032 1.368 . S
H3017 C3025 0.950 . S
H3018 C3023 0.950 . S
H3019 C3024 0.949 . S
H3020 C3026 0.950 . S
H3021 C3027 0.950 . S
H3022 C3028 0.949 . S
C3023 H3018 0.950 . S
C3023 C3025 1.327 . S
C3023 C3029 1.429 . S
C3024 C3016 1.574 . S
C3024 H3019 0.949 . S
C3024 C3030 1.368 . S
C3025 C3009 1.349 . S
C3025 H3017 0.950 . S
C3025 C3023 1.327 . S
C3026 C3014 1.349 . S
C3026 H3020 0.950 . S
C3026 C3027 1.327 . S
C3027 H3021 0.950 . S
C3027 C3026 1.327 . S
C3027 C3031 1.429 . S
C3028 C3011 1.574 . S
C3028 H3022 0.949 . S
C3028 C3032 1.368 . S
C3029 C3010 1.429 . S
C3029 C3023 1.429 . S
C3029 C3030 1.523 . S
C3030 C3011 1.368 . S
C3030 C3024 1.368 . S
C3030 C3029 1.523 . S
C3031 C3015 1.429 . S
C3031 C3027 1.429 . S
C3031 C3032 1.523 . S
C3032 C3016 1.368 . S
C3032 C3028 1.368 . S
C3032 C3031 1.523 . S
H3033 C3008 0.950 . S
H3034 C3010 0.950 . S
H3035 C3011 0.949 . S
H3036 C3013 0.950 . S
H3037 C3015 0.950 . S
C3038 C3039 1.349 . S
C3038 C3040 1.327 . S
C3038 H3063 0.950 . S
C3039 C3038 1.349 . S
C3039 C3055 1.349 . S
C3040 C3038 1.327 . S
C3040 C3059 1.429 . S
C3040 H3064 0.950 . S
C3041 C3058 1.574 . S
C3041 C3060 1.368 . S
C3041 H3065 0.949 . S
H3042 C3046 0.949 . S
C3043 C3044 1.349 . S
C3043 C3045 1.327 . S
C3043 H3066 0.950 . S
C3044 C3043 1.349 . S
C3044 C3056 1.349 . S
C3045 C3043 1.327 . S
C3045 C3061 1.429 . S
C3045 H3067 0.950 . S
C3046 H3042 0.949 . S
C3046 C3054 1.574 . S
C3046 C3062 1.368 . S
H3047 C3055 0.950 . S
H3048 C3053 0.950 . S
H3049 C3054 0.949 . S
H3050 C3056 0.950 . S
H3051 C3057 0.950 . S
H3052 C3058 0.949 . S
C3053 H3048 0.950 . S
C3053 C3055 1.327 . S
C3053 C3059 1.429 . S
C3054 C3046 1.574 . S
C3054 H3049 0.949 . S
C3054 C3060 1.368 . S
C3055 C3039 1.349 . S
C3055 H3047 0.950 . S
C3055 C3053 1.327 . S
C3056 C3044 1.349 . S
C3056 H3050 0.950 . S
C3056 C3057 1.327 . S
C3057 H3051 0.950 . S
C3057 C3056 1.327 . S
C3057 C3061 1.429 . S
C3058 C3041 1.574 . S
C3058 H3052 0.949 . S
C3058 C3062 1.368 . S
C3059 C3040 1.429 . S
C3059 C3053 1.429 . S
C3059 C3060 1.523 . S
C3060 C3041 1.368 . S
C3060 C3054 1.368 . S
C3060 C3059 1.523 . S
C3061 C3045 1.429 . S
C3061 C3057 1.429 . S
C3061 C3062 1.523 . S
C3062 C3046 1.368 . S
C3062 C3058 1.368 . S
C3062 C3061 1.523 . S
H3063 C3038 0.950 . S
H3064 C3040 0.950 . S
H3065 C3041 0.949 . S
H3066 C3043 0.950 . S
H3067 C3045 0.950 . S
C3068 C3069 1.349 . S
C3068 C3070 1.327 . S
C3068 H3093 0.950 . S
C3069 C3068 1.349 . S
C3069 C3085 1.349 . S
C3070 C3068 1.327 . S
C3070 C3089 1.429 . S
C3070 H3094 0.950 . S
C3071 C3088 1.574 . S
C3071 C3090 1.368 . S
C3071 H3095 0.949 . S
H3072 C3076 0.949 . S
C3073 C3074 1.349 . S
C3073 C3075 1.327 . S
C3073 H3096 0.950 . S
C3074 C3073 1.349 . S
C3074 C3086 1.349 . S
C3075 C3073 1.327 . S
C3075 C3091 1.429 . S
C3075 H3097 0.950 . S
C3076 H3072 0.949 . S
C3076 C3084 1.574 . S
C3076 C3092 1.368 . S
H3077 C3085 0.950 . S
H3078 C3083 0.950 . S
H3079 C3084 0.949 . S
H3080 C3086 0.950 . S
H3081 C3087 0.950 . S
H3082 C3088 0.949 . S
C3083 H3078 0.950 . S
C3083 C3085 1.327 . S
C3083 C3089 1.429 . S
C3084 C3076 1.574 . S
C3084 H3079 0.949 . S
C3084 C3090 1.368 . S
C3085 C3069 1.349 . S
C3085 H3077 0.950 . S
C3085 C3083 1.327 . S
C3086 C3074 1.349 . S
C3086 H3080 0.950 . S
C3086 C3087 1.327 . S
C3087 H3081 0.950 . S
C3087 C3086 1.327 . S
C3087 C3091 1.429 . S
C3088 C3071 1.574 . S
C3088 H3082 0.949 . S
C3088 C3092 1.368 . S
C3089 C3070 1.429 . S
C3089 C3083 1.429 . S
C3089 C3090 1.523 . S
C3090 C3071 1.368 . S
C3090 C3084 1.368 . S
C3090 C3089 1.523 . S
C3091 C3075 1.429 . S
C3091 C3087 1.429 . S
C3091 C3092 1.523 . S
C3092 C3076 1.368 . S
C3092 C3088 1.368 . S
C3092 C3091 1.523 . S
H3093 C3068 0.950 . S
H3094 C3070 0.950 . S
H3095 C3071 0.949 . S
H3096 C3073 0.950 . S
H3097 C3075 0.950 . S
C3098 C3099 1.349 . S
C3098 C3100 1.327 . S
C3098 H3123 0.950 . S
C3099 C3098 1.349 . S
C3099 C3115 1.349 . S
C3100 C3098 1.327 . S
C3100 C3119 1.429 . S
C3100 H3124 0.950 . S
C3101 C3118 1.574 1_655 S
C3101 C3120 1.368 . S
C3101 H3125 0.949 . S
H3102 C3106 0.949 . S
C3103 C3104 1.349 . S
C3103 C3105 1.327 . S
C3103 H3126 0.950 . S
C3104 C3103 1.349 . S
C3104 C3116 1.349 . S
C3105 C3103 1.327 . S
C3105 C3121 1.429 . S
C3105 H3127 0.950 . S
C3106 H3102 0.949 . S
C3106 C3114 1.574 1_455 S
C3106 C3122 1.368 . S
H3107 C3115 0.950 . S
H3108 C3113 0.950 . S
H3109 C3114 0.949 . S
H3110 C3116 0.950 . S
H3111 C3117 0.950 . S
H3112 C3118 0.949 . S
C3113 H3108 0.950 . S
C3113 C3115 1.327 . S
C3113 C3119 1.429 . S
C3114 C3106 1.574 1_655 S
C3114 H3109 0.949 . S
C3114 C3120 1.368 . S
C3115 C3099 1.349 . S
C3115 H3107 0.950 . S
C3115 C3113 1.327 . S
C3116 C3104 1.349 . S
C3116 H3110 0.950 . S
C3116 C3117 1.327 . S
C3117 H3111 0.950 . S
C3117 C3116 1.327 . S
C3117 C3121 1.429 . S
C3118 C3101 1.574 1_455 S
C3118 H3112 0.949 . S
C3118 C3122 1.368 . S
C3119 C3100 1.429 . S
C3119 C3113 1.429 . S
C3119 C3120 1.523 . S
C3120 C3101 1.368 . S
C3120 C3114 1.368 . S
C3120 C3119 1.523 . S
C3121 C3105 1.429 . S
C3121 C3117 1.429 . S
C3121 C3122 1.523 . S
C3122 C3106 1.368 . S
C3122 C3118 1.368 . S
C3122 C3121 1.523 . S
H3123 C3098 0.950 . S
H3124 C3100 0.950 . S
H3125 C3101 0.949 . S
H3126 C3103 0.950 . S
H3127 C3105 0.950 . S
C3128 C3129 1.349 . S
C3128 C3130 1.327 . S
C3128 H3153 0.950 . S
C3129 C3128 1.349 . S
C3129 C3145 1.349 . S
C3130 C3128 1.327 . S
C3130 C3149 1.429 . S
C3130 H3154 0.950 . S
C3131 C3148 1.574 . S
C3131 C3150 1.368 . S
C3131 H3155 0.949 . S
H3132 C3136 0.949 . S
C3133 C3134 1.349 . S
C3133 C3135 1.327 . S
C3133 H3156 0.950 . S
C3134 C3133 1.349 . S
C3134 C3146 1.349 . S
C3135 C3133 1.327 . S
C3135 C3151 1.429 . S
C3135 H3157 0.950 . S
C3136 H3132 0.949 . S
C3136 C3144 1.574 . S
C3136 C3152 1.368 . S
H3137 C3145 0.950 . S
H3138 C3143 0.950 . S
H3139 C3144 0.949 . S
H3140 C3146 0.950 . S
H3141 C3147 0.950 . S
H3142 C3148 0.949 . S
C3143 H3138 0.950 . S
C3143 C3145 1.327 . S
C3143 C3149 1.429 . S
C3144 C3136 1.574 . S
C3144 H3139 0.949 . S
C3144 C3150 1.368 . S
C3145 C3129 1.349 . S
C3145 H3137 0.950 . S
C3145 C3143 1.327 . S
C3146 C3134 1.349 . S
C3146 H3140 0.950 . S
C3146 C3147 1.327 . S
C3147 H3141 0.950 . S
C3147 C3146 1.327 . S
C3147 C3151 1.429 . S
C3148 C3131 1.574 . S
C3148 H3142 0.949 . S
C3148 C3152 1.368 . S
C3149 C3130 1.429 . S
C3149 C3143 1.429 . S
C3149 C3150 1.523 . S
C3150 C3131 1.368 . S
C3150 C3144 1.368 . S
C3150 C3149 1.523 . S
C3151 C3135 1.429 . S
C3151 C3147 1.429 . S
C3151 C3152 1.523 . S
C3152 C3136 1.368 . S
C3152 C3148 1.368 . S
C3152 C3151 1.523 . S
H3153 C3128 0.950 . S
H3154 C3130 0.950 . S
H3155 C3131 0.949 . S
H3156 C3133 0.950 . S
H3157 C3135 0.950 . S
C3158 C3159 1.349 . S
C3158 C3160 1.327 . S
C3158 H3183 0.950 . S
C3159 C3158 1.349 . S
C3159 C3175 1.349 . S
C3160 C3158 1.327 . S
C3160 C3179 1.429 . S
C3160 H3184 0.950 . S
C3161 C3178 1.574 1_655 S
C3161 C3180 1.368 . S
C3161 H3185 0.949 . S
H3162 C3166 0.949 . S
C3163 C3164 1.349 . S
C3163 C3165 1.327 . S
C3163 H3186 0.950 . S
C3164 C3163 1.349 . S
C3164 C3176 1.349 . S
C3165 C3163 1.327 . S
C3165 C3181 1.429 . S
C3165 H3187 0.950 . S
C3166 H3162 0.949 . S
C3166 C3174 1.574 1_455 S
C3166 C3182 1.368 . S
H3167 C3175 0.950 . S
H3168 C3173 0.950 . S
H3169 C3174 0.949 . S
H3170 C3176 0.950 . S
H3171 C3177 0.950 . S
H3172 C3178 0.949 . S
C3173 H3168 0.950 . S
C3173 C3175 1.327 . S
C3173 C3179 1.429 . S
C3174 C3166 1.574 1_655 S
C3174 H3169 0.949 . S
C3174 C3180 1.368 . S
C3175 C3159 1.349 . S
C3175 H3167 0.950 . S
C3175 C3173 1.327 . S
C3176 C3164 1.349 . S
C3176 H3170 0.950 . S
C3176 C3177 1.327 . S
C3177 H3171 0.950 . S
C3177 C3176 1.327 . S
C3177 C3181 1.429 . S
C3178 C3161 1.574 1_455 S
C3178 H3172 0.949 . S
C3178 C3182 1.368 . S
C3179 C3160 1.429 . S
C3179 C3173 1.429 . S
C3179 C3180 1.523 . S
C3180 C3161 1.368 . S
C3180 C3174 1.368 . S
C3180 C3179 1.523 . S
C3181 C3165 1.429 . S
C3181 C3177 1.429 . S
C3181 C3182 1.523 . S
C3182 C3166 1.368 . S
C3182 C3178 1.368 . S
C3182 C3181 1.523 . S
H3183 C3158 0.950 . S
H3184 C3160 0.950 . S
H3185 C3161 0.949 . S
H3186 C3163 0.950 . S
H3187 C3165 0.950 . S
C3188 C3189 1.349 . S
C3188 C3190 1.327 . S
C3188 H3213 0.950 . S
C3189 C3188 1.349 . S
C3189 C3205 1.349 . S
C3190 C3188 1.327 . S
C3190 C3209 1.429 . S
C3190 H3214 0.950 . S
C3191 C3208 1.574 . S
C3191 C3210 1.368 . S
C3191 H3215 0.949 . S
H3192 C3196 0.949 . S
C3193 C3194 1.349 . S
C3193 C3195 1.327 . S
C3193 H3216 0.950 . S
C3194 C3193 1.349 . S
C3194 C3206 1.349 . S
C3195 C3193 1.327 . S
C3195 C3211 1.429 . S
C3195 H3217 0.950 . S
C3196 H3192 0.949 . S
C3196 C3204 1.574 . S
C3196 C3212 1.368 . S
H3197 C3205 0.950 . S
H3198 C3203 0.950 . S
H3199 C3204 0.949 . S
H3200 C3206 0.950 . S
H3201 C3207 0.950 . S
H3202 C3208 0.949 . S
C3203 H3198 0.950 . S
C3203 C3205 1.327 . S
C3203 C3209 1.429 . S
C3204 C3196 1.574 . S
C3204 H3199 0.949 . S
C3204 C3210 1.368 . S
C3205 C3189 1.349 . S
C3205 H3197 0.950 . S
C3205 C3203 1.327 . S
C3206 C3194 1.349 . S
C3206 H3200 0.950 . S
C3206 C3207 1.327 . S
C3207 H3201 0.950 . S
C3207 C3206 1.327 . S
C3207 C3211 1.429 . S
C3208 C3191 1.574 . S
C3208 H3202 0.949 . S
C3208 C3212 1.368 . S
C3209 C3190 1.429 . S
C3209 C3203 1.429 . S
C3209 C3210 1.523 . S
C3210 C3191 1.368 . S
C3210 C3204 1.368 . S
C3210 C3209 1.523 . S
C3211 C3195 1.429 . S
C3211 C3207 1.429 . S
C3211 C3212 1.523 . S
C3212 C3196 1.368 . S
C3212 C3208 1.368 . S
C3212 C3211 1.523 . S
H3213 C3188 0.950 . S
H3214 C3190 0.950 . S
H3215 C3191 0.949 . S
H3216 C3193 0.950 . S
H3217 C3195 0.950 . S
C3218 C3219 1.349 . S
C3218 C3220 1.327 . S
C3218 H3243 0.950 . S
C3219 C3218 1.349 . S
C3219 C3235 1.349 . S
C3220 C3218 1.327 . S
C3220 C3239 1.429 . S
C3220 H3244 0.950 . S
C3221 C3238 1.574 . S
C3221 C3240 1.368 . S
C3221 H3245 0.949 . S
H3222 C3226 0.949 . S
C3223 C3224 1.349 . S
C3223 C3225 1.327 . S
C3223 H3246 0.950 . S
C3224 C3223 1.349 . S
C3224 C3236 1.349 . S
C3225 C3223 1.327 . S
C3225 C3241 1.429 . S
C3225 H3247 0.950 . S
C3226 H3222 0.949 . S
C3226 C3234 1.574 . S
C3226 C3242 1.368 . S
H3227 C3235 0.950 . S
H3228 C3233 0.950 . S
H3229 C3234 0.949 . S
H3230 C3236 0.950 . S
H3231 C3237 0.950 . S
H3232 C3238 0.949 . S
C3233 H3228 0.950 . S
C3233 C3235 1.327 . S
C3233 C3239 1.429 . S
C3234 C3226 1.574 . S
C3234 H3229 0.949 . S
C3234 C3240 1.368 . S
C3235 C3219 1.349 . S
C3235 H3227 0.950 . S
C3235 C3233 1.327 . S
C3236 C3224 1.349 . S
C3236 H3230 0.950 . S
C3236 C3237 1.327 . S
C3237 H3231 0.950 . S
C3237 C3236 1.327 . S
C3237 C3241 1.429 . S
C3238 C3221 1.574 . S
C3238 H3232 0.949 . S
C3238 C3242 1.368 . S
C3239 C3220 1.429 . S
C3239 C3233 1.429 . S
C3239 C3240 1.523 . S
C3240 C3221 1.368 . S
C3240 C3234 1.368 . S
C3240 C3239 1.523 . S
C3241 C3225 1.429 . S
C3241 C3237 1.429 . S
C3241 C3242 1.523 . S
C3242 C3226 1.368 . S
C3242 C3238 1.368 . S
C3242 C3241 1.523 . S
H3243 C3218 0.950 . S
H3244 C3220 0.950 . S
H3245 C3221 0.949 . S
H3246 C3223 0.950 . S
H3247 C3225 0.950 . S
C3248 C3249 1.349 . S
C3248 C3250 1.327 . S
C3248 H3273 0.950 . S
C3249 C3248 1.349 . S
C3249 C3265 1.349 . S
C3250 C3248 1.327 . S
C3250 C3269 1.429 . S
C3250 H3274 0.950 . S
C3251 C3268 1.574 . S
C3251 C3270 1.368 . S
C3251 H3275 0.949 . S
H3252 C3256 0.949 . S
C3253 C3254 1.349 . S
C3253 C3255 1.327 . S
C3253 H3276 0.950 . S
C3254 C3253 1.349 . S
C3254 C3266 1.349 . S
C3255 C3253 1.327 . S
C3255 C3271 1.429 . S
C3255 H3277 0.950 . S
C3256 H3252 0.949 . S
C3256 C3264 1.574 . S
C3256 C3272 1.368 . S
H3257 C3265 0.950 . S
H3258 C3263 0.950 . S
H3259 C3264 0.949 . S
H3260 C3266 0.950 . S
H3261 C3267 0.950 . S
H3262 C3268 0.949 . S
C3263 H3258 0.950 . S
C3263 C3265 1.327 . S
C3263 C3269 1.429 . S
C3264 C3256 1.574 . S
C3264 H3259 0.949 . S
C3264 C3270 1.368 . S
C3265 C3249 1.349 . S
C3265 H3257 0.950 . S
C3265 C3263 1.327 . S
C3266 C3254 1.349 . S
C3266 H3260 0.950 . S
C3266 C3267 1.327 . S
C3267 H3261 0.950 . S
C3267 C3266 1.327 . S
C3267 C3271 1.429 . S
C3268 C3251 1.574 . S
C3268 H3262 0.949 . S
C3268 C3272 1.368 . S
C3269 C3250 1.429 . S
C3269 C3263 1.429 . S
C3269 C3270 1.523 . S
C3270 C3251 1.368 . S
C3270 C3264 1.368 . S
C3270 C3269 1.523 . S
C3271 C3255 1.429 . S
C3271 C3267 1.429 . S
C3271 C3272 1.523 . S
C3272 C3256 1.368 . S
C3272 C3268 1.368 . S
C3272 C3271 1.523 . S
H3273 C3248 0.950 . S
H3274 C3250 0.950 . S
H3275 C3251 0.949 . S
H3276 C3253 0.950 . S
H3277 C3255 0.950 . S
C3278 C3279 1.349 . S
C3278 C3280 1.327 . S
C3278 H3303 0.950 . S
C3279 C3278 1.349 . S
C3279 C3295 1.349 . S
C3280 C3278 1.327 . S
C3280 C3299 1.429 . S
C3280 H3304 0.950 . S
C3281 C3298 1.574 . S
C3281 C3300 1.368 . S
C3281 H3305 0.949 . S
H3282 C3286 0.949 . S
C3283 C3284 1.349 . S
C3283 C3285 1.327 . S
C3283 H3306 0.950 . S
C3284 C3283 1.349 . S
C3284 C3296 1.349 . S
C3285 C3283 1.327 . S
C3285 C3301 1.429 . S
C3285 H3307 0.950 . S
C3286 H3282 0.949 . S
C3286 C3294 1.574 . S
C3286 C3302 1.368 . S
H3287 C3295 0.950 . S
H3288 C3293 0.950 . S
H3289 C3294 0.949 . S
H3290 C3296 0.950 . S
H3291 C3297 0.950 . S
H3292 C3298 0.949 . S
C3293 H3288 0.950 . S
C3293 C3295 1.327 . S
C3293 C3299 1.429 . S
C3294 C3286 1.574 . S
C3294 H3289 0.949 . S
C3294 C3300 1.368 . S
C3295 C3279 1.349 . S
C3295 H3287 0.950 . S
C3295 C3293 1.327 . S
C3296 C3284 1.349 . S
C3296 H3290 0.950 . S
C3296 C3297 1.327 . S
C3297 H3291 0.950 . S
C3297 C3296 1.327 . S
C3297 C3301 1.429 . S
C3298 C3281 1.574 . S
C3298 H3292 0.949 . S
C3298 C3302 1.368 . S
C3299 C3280 1.429 . S
C3299 C3293 1.429 . S
C3299 C3300 1.523 . S
C3300 C3281 1.368 . S
C3300 C3294 1.368 . S
C3300 C3299 1.523 . S
C3301 C3285 1.429 . S
C3301 C3297 1.429 . S
C3301 C3302 1.523 . S
C3302 C3286 1.368 . S
C3302 C3298 1.368 . S
C3302 C3301 1.523 . S
H3303 C3278 0.950 . S
H3304 C3280 0.950 . S
H3305 C3281 0.949 . S
H3306 C3283 0.950 . S
H3307 C3285 0.950 . S
C3308 C3309 1.349 . S
C3308 C3310 1.327 . S
C3308 H3333 0.950 . S
C3309 C3308 1.349 . S
C3309 C3325 1.349 . S
C3310 C3308 1.327 . S
C3310 C3329 1.429 . S
C3310 H3334 0.950 . S
C3311 C3328 1.574 . S
C3311 C3330 1.368 . S
C3311 H3335 0.949 . S
H3312 C3316 0.949 . S
C3313 C3314 1.349 . S
C3313 C3315 1.327 . S
C3313 H3336 0.950 . S
C3314 C3313 1.349 . S
C3314 C3326 1.349 . S
C3315 C3313 1.327 . S
C3315 C3331 1.429 . S
C3315 H3337 0.950 . S
C3316 H3312 0.949 . S
C3316 C3324 1.574 . S
C3316 C3332 1.368 . S
H3317 C3325 0.950 . S
H3318 C3323 0.950 . S
H3319 C3324 0.949 . S
H3320 C3326 0.950 . S
H3321 C3327 0.950 . S
H3322 C3328 0.949 . S
C3323 H3318 0.950 . S
C3323 C3325 1.327 . S
C3323 C3329 1.429 . S
C3324 C3316 1.574 . S
C3324 H3319 0.949 . S
C3324 C3330 1.368 . S
C3325 C3309 1.349 . S
C3325 H3317 0.950 . S
C3325 C3323 1.327 . S
C3326 C3314 1.349 . S
C3326 H3320 0.950 . S
C3326 C3327 1.327 . S
C3327 H3321 0.950 . S
C3327 C3326 1.327 . S
C3327 C3331 1.429 . S
C3328 C3311 1.574 . S
C3328 H3322 0.949 . S
C3328 C3332 1.368 . S
C3329 C3310 1.429 . S
C3329 C3323 1.429 . S
C3329 C3330 1.523 . S
C3330 C3311 1.368 . S
C3330 C3324 1.368 . S
C3330 C3329 1.523 . S
C3331 C3315 1.429 . S
C3331 C3327 1.429 . S
C3331 C3332 1.523 . S
C3332 C3316 1.368 . S
C3332 C3328 1.368 . S
C3332 C3331 1.523 . S
H3333 C3308 0.950 . S
H3334 C3310 0.950 . S
H3335 C3311 0.949 . S
H3336 C3313 0.950 . S
H3337 C3315 0.950 . S
C3338 C3339 1.349 . S
C3338 C3340 1.327 . S
C3338 H3363 0.950 . S
C3339 C3338 1.349 . S
C3339 C3355 1.349 . S
C3340 C3338 1.327 . S
C3340 C3359 1.429 . S
C3340 H3364 0.950 . S
C3341 C3358 1.574 1_655 S
C3341 C3360 1.368 . S
C3341 H3365 0.949 . S
H3342 C3346 0.949 . S
C3343 C3344 1.349 . S
C3343 C3345 1.327 . S
C3343 H3366 0.950 . S
C3344 C3343 1.349 . S
C3344 C3356 1.349 . S
C3345 C3343 1.327 . S
C3345 C3361 1.429 . S
C3345 H3367 0.950 . S
C3346 H3342 0.949 . S
C3346 C3354 1.574 1_455 S
C3346 C3362 1.368 . S
H3347 C3355 0.950 . S
H3348 C3353 0.950 . S
H3349 C3354 0.949 . S
H3350 C3356 0.950 . S
H3351 C3357 0.950 . S
H3352 C3358 0.949 . S
C3353 H3348 0.950 . S
C3353 C3355 1.327 . S
C3353 C3359 1.429 . S
C3354 C3346 1.574 1_655 S
C3354 H3349 0.949 . S
C3354 C3360 1.368 . S
C3355 C3339 1.349 . S
C3355 H3347 0.950 . S
C3355 C3353 1.327 . S
C3356 C3344 1.349 . S
C3356 H3350 0.950 . S
C3356 C3357 1.327 . S
C3357 H3351 0.950 . S
C3357 C3356 1.327 . S
C3357 C3361 1.429 . S
C3358 C3341 1.574 1_455 S
C3358 H3352 0.949 . S
C3358 C3362 1.368 . S
C3359 C3340 1.429 . S
C3359 C3353 1.429 . S
C3359 C3360 1.523 . S
C3360 C3341 1.368 . S
C3360 C3354 1.368 . S
C3360 C3359 1.523 . S
C3361 C3345 1.429 . S
C3361 C3357 1.429 . S
C3361 C3362 1.523 . S
C3362 C3346 1.368 . S
C3362 C3358 1.368 . S
C3362 C3361 1.523 . S
H3363 C3338 0.950 . S
H3364 C3340 0.950 . S
H3365 C3341 0.949 . S
H3366 C3343 0.950 . S
H3367 C3345 0.950 . S
C3368 C3369 1.349 . S
C3368 C3370 1.327 . S
C3368 H3393 0.950 . S
C3369 C3368 1.349 . S
C3369 C3385 1.349 . S
C3370 C3368 1.327 . S
C3370 C3389 1.429 . S
C3370 H3394 0.950 . S
C3371 C3388 1.574 . S
C3371 C3390 1.368 . S
C3371 H3395 0.949 . S
H3372 C3376 0.949 . S
C3373 C3374 1.349 . S
C3373 C3375 1.327 . S
C3373 H3396 0.950 . S
C3374 C3373 1.349 . S
C3374 C3386 1.349 . S
C3375 C3373 1.327 . S
C3375 C3391 1.429 . S
C3375 H3397 0.950 . S
C3376 H3372 0.949 . S
C3376 C3384 1.574 . S
C3376 C3392 1.368 . S
H3377 C3385 0.950 . S
H3378 C3383 0.950 . S
H3379 C3384 0.949 . S
H3380 C3386 0.950 . S
H3381 C3387 0.950 . S
H3382 C3388 0.949 . S
C3383 H3378 0.950 . S
C3383 C3385 1.327 . S
C3383 C3389 1.429 . S
C3384 C3376 1.574 . S
C3384 H3379 0.949 . S
C3384 C3390 1.368 . S
C3385 C3369 1.349 . S
C3385 H3377 0.950 . S
C3385 C3383 1.327 . S
C3386 C3374 1.349 . S
C3386 H3380 0.950 . S
C3386 C3387 1.327 . S
C3387 H3381 0.950 . S
C3387 C3386 1.327 . S
C3387 C3391 1.429 . S
C3388 C3371 1.574 . S
C3388 H3382 0.949 . S
C3388 C3392 1.368 . S
C3389 C3370 1.429 . S
C3389 C3383 1.429 . S
C3389 C3390 1.523 . S
C3390 C3371 1.368 . S
C3390 C3384 1.368 . S
C3390 C3389 1.523 . S
C3391 C3375 1.429 . S
C3391 C3387 1.429 . S
C3391 C3392 1.523 . S
C3392 C3376 1.368 . S
C3392 C3388 1.368 . S
C3392 C3391 1.523 . S
H3393 C3368 0.950 . S
H3394 C3370 0.950 . S
H3395 C3371 0.949 . S
H3396 C3373 0.950 . S
H3397 C3375 0.950 . S
C3398 C3399 1.349 . S
C3398 C3400 1.327 . S
C3398 H3423 0.950 . S
C3399 C3398 1.349 . S
C3399 C3415 1.349 . S
C3400 C3398 1.327 . S
C3400 C3419 1.429 . S
C3400 H3424 0.950 . S
C3401 C3418 1.574 1_455 S
C3401 C3420 1.368 . S
C3401 H3425 0.949 . S
H3402 C3406 0.949 . S
C3403 C3404 1.349 . S
C3403 C3405 1.327 . S
C3403 H3426 0.950 . S
C3404 C3403 1.349 . S
C3404 C3416 1.349 . S
C3405 C3403 1.327 . S
C3405 C3421 1.429 . S
C3405 H3427 0.950 . S
C3406 H3402 0.949 . S
C3406 C3414 1.574 1_655 S
C3406 C3422 1.368 . S
H3407 C3415 0.950 . S
H3408 C3413 0.950 . S
H3409 C3414 0.949 . S
H3410 C3416 0.950 . S
H3411 C3417 0.950 . S
H3412 C3418 0.949 . S
C3413 H3408 0.950 . S
C3413 C3415 1.327 . S
C3413 C3419 1.429 . S
C3414 C3406 1.574 1_455 S
C3414 H3409 0.949 . S
C3414 C3420 1.368 . S
C3415 C3399 1.349 . S
C3415 H3407 0.950 . S
C3415 C3413 1.327 . S
C3416 C3404 1.349 . S
C3416 H3410 0.950 . S
C3416 C3417 1.327 . S
C3417 H3411 0.950 . S
C3417 C3416 1.327 . S
C3417 C3421 1.429 . S
C3418 C3401 1.574 1_655 S
C3418 H3412 0.949 . S
C3418 C3422 1.368 . S
C3419 C3400 1.429 . S
C3419 C3413 1.429 . S
C3419 C3420 1.523 . S
C3420 C3401 1.368 . S
C3420 C3414 1.368 . S
C3420 C3419 1.523 . S
C3421 C3405 1.429 . S
C3421 C3417 1.429 . S
C3421 C3422 1.523 . S
C3422 C3406 1.368 . S
C3422 C3418 1.368 . S
C3422 C3421 1.523 . S
H3423 C3398 0.950 . S
H3424 C3400 0.950 . S
H3425 C3401 0.949 . S
H3426 C3403 0.950 . S
H3427 C3405 0.950 . S
C3428 C3429 1.349 . S
C3428 C3430 1.327 . S
C3428 H3453 0.950 . S
C3429 C3428 1.349 . S
C3429 C3445 1.349 . S
C3430 C3428 1.327 . S
C3430 C3449 1.429 . S
C3430 H3454 0.950 . S
C3431 C3448 1.574 . S
C3431 C3450 1.368 . S
C3431 H3455 0.949 . S
H3432 C3436 0.949 . S
C3433 C3434 1.349 . S
C3433 C3435 1.327 . S
C3433 H3456 0.950 . S
C3434 C3433 1.349 . S
C3434 C3446 1.349 . S
C3435 C3433 1.327 . S
C3435 C3451 1.429 . S
C3435 H3457 0.950 . S
C3436 H3432 0.949 . S
C3436 C3444 1.574 . S
C3436 C3452 1.368 . S
H3437 C3445 0.950 . S
H3438 C3443 0.950 . S
H3439 C3444 0.949 . S
H3440 C3446 0.950 . S
H3441 C3447 0.950 . S
H3442 C3448 0.949 . S
C3443 H3438 0.950 . S
C3443 C3445 1.327 . S
C3443 C3449 1.429 . S
C3444 C3436 1.574 . S
C3444 H3439 0.949 . S
C3444 C3450 1.368 . S
C3445 C3429 1.349 . S
C3445 H3437 0.950 . S
C3445 C3443 1.327 . S
C3446 C3434 1.349 . S
C3446 H3440 0.950 . S
C3446 C3447 1.327 . S
C3447 H3441 0.950 . S
C3447 C3446 1.327 . S
C3447 C3451 1.429 . S
C3448 C3431 1.574 . S
C3448 H3442 0.949 . S
C3448 C3452 1.368 . S
C3449 C3430 1.429 . S
C3449 C3443 1.429 . S
C3449 C3450 1.523 . S
C3450 C3431 1.368 . S
C3450 C3444 1.368 . S
C3450 C3449 1.523 . S
C3451 C3435 1.429 . S
C3451 C3447 1.429 . S
C3451 C3452 1.523 . S
C3452 C3436 1.368 . S
C3452 C3448 1.368 . S
C3452 C3451 1.523 . S
H3453 C3428 0.950 . S
H3454 C3430 0.950 . S
H3455 C3431 0.949 . S
H3456 C3433 0.950 . S
H3457 C3435 0.950 . S
C3458 C3459 1.349 . S
C3458 C3460 1.327 . S
C3458 H3483 0.950 . S
C3459 C3458 1.349 . S
C3459 C3475 1.349 . S
C3460 C3458 1.327 . S
C3460 C3479 1.429 . S
C3460 H3484 0.950 . S
C3461 C3478 1.574 . S
C3461 C3480 1.368 . S
C3461 H3485 0.949 . S
H3462 C3466 0.949 . S
C3463 C3464 1.349 . S
C3463 C3465 1.327 . S
C3463 H3486 0.950 . S
C3464 C3463 1.349 . S
C3464 C3476 1.349 . S
C3465 C3463 1.327 . S
C3465 C3481 1.429 . S
C3465 H3487 0.950 . S
C3466 H3462 0.949 . S
C3466 C3474 1.574 . S
C3466 C3482 1.368 . S
H3467 C3475 0.950 . S
H3468 C3473 0.950 . S
H3469 C3474 0.949 . S
H3470 C3476 0.950 . S
H3471 C3477 0.950 . S
H3472 C3478 0.949 . S
C3473 H3468 0.950 . S
C3473 C3475 1.327 . S
C3473 C3479 1.429 . S
C3474 C3466 1.574 . S
C3474 H3469 0.949 . S
C3474 C3480 1.368 . S
C3475 C3459 1.349 . S
C3475 H3467 0.950 . S
C3475 C3473 1.327 . S
C3476 C3464 1.349 . S
C3476 H3470 0.950 . S
C3476 C3477 1.327 . S
C3477 H3471 0.950 . S
C3477 C3476 1.327 . S
C3477 C3481 1.429 . S
C3478 C3461 1.574 . S
C3478 H3472 0.949 . S
C3478 C3482 1.368 . S
C3479 C3460 1.429 . S
C3479 C3473 1.429 . S
C3479 C3480 1.523 . S
C3480 C3461 1.368 . S
C3480 C3474 1.368 . S
C3480 C3479 1.523 . S
C3481 C3465 1.429 . S
C3481 C3477 1.429 . S
C3481 C3482 1.523 . S
C3482 C3466 1.368 . S
C3482 C3478 1.368 . S
C3482 C3481 1.523 . S
H3483 C3458 0.950 . S
H3484 C3460 0.950 . S
H3485 C3461 0.949 . S
H3486 C3463 0.950 . S
H3487 C3465 0.950 . S
C1089 C240 1.936 . S
C1094 C2 1.936 . S
C1119 C36 1.936 . S
C1124 C138 1.936 . S
C1149 C70 1.936 . S
C1154 C172 1.936 . S
C1179 C206 1.936 . S
C1184 C104 1.936 . S
C1209 C274 1.936 . S
C1214 C512 1.936 . S
C1239 C410 1.936 . S
C1244 C308 1.936 . S
C1269 C342 1.936 . S
C1274 C444 1.936 . S
C1299 C478 1.936 . S
C1304 C376 1.936 . S
C1329 C784 1.936 . S
C1334 C546 1.936 . S
C1359 C682 1.936 . S
C1364 C580 1.936 . S
C1389 C716 1.936 . S
C1394 C614 1.936 . S
C1419 C750 1.936 . S
C1424 C648 1.936 . S
C1449 C1056 1.936 . S
C1454 C818 1.936 . S
C1479 C852 1.936 . S
C1484 C954 1.936 . S
C1509 C988 1.936 . S
C1514 C886 1.936 . S
C1539 C1022 1.936 . S
C1544 C920 1.936 . S
C1569 C20 0.318 . S
C1574 C258 0.318 . S
C1599 C54 0.318 . S
C1604 C156 0.318 . S
C1629 C88 0.318 . S
C1634 C190 0.318 . S
C1659 C122 0.318 . S
C1664 C224 0.318 . S
C1689 C530 0.318 . S
C1694 C292 0.318 . S
C1719 C326 0.318 . S
C1724 C428 0.318 . S
C1749 C462 0.318 . S
C1754 C360 0.318 . S
C1779 C394 0.318 . S
C1784 C496 0.318 . S
C1809 C564 0.318 . S
C1814 C802 0.318 . S
C1839 C700 0.318 . S
C1844 C598 0.318 . S
C1869 C734 0.318 . S
C1874 C632 0.318 . S
C1899 C666 0.318 . S
C1904 C768 0.318 . S
C1929 C836 0.318 . S
C1934 C1074 0.318 . S
C1959 C870 0.318 . S
C1964 C972 0.318 . S
C1989 C904 0.318 . S
C1994 C1006 0.318 . S
C2019 C938 0.318 . S
C2024 C1040 0.318 . S
C2049 C213 1.625 . S
C2054 C9 1.625 . S
C2079 C43 1.625 . S
C2084 C247 1.625 . S
C2109 C145 1.625 . S
C2114 C77 1.625 . S
C2139 C179 1.625 . S
C2144 C111 1.625 . S
C2169 C485 1.625 . S
C2174 C281 1.625 . S
C2199 C519 1.625 . S
C2204 C315 1.625 . S
C2229 C417 1.625 . S
C2234 C349 1.625 . S
C2259 C451 1.625 . S
C2264 C383 1.625 . S
C2289 C553 1.625 . S
C2294 C757 1.625 . S
C2319 C791 1.625 . S
C2324 C587 1.625 . S
C2349 C689 1.625 . S
C2354 C621 1.625 . S
C2379 C723 1.625 . S
C2384 C655 1.625 . S
C2409 C1029 1.625 . S
C2414 C825 1.625 . S
C2439 C859 1.625 . S
C2444 C1063 1.625 . S
C2469 C961 1.625 . S
C2474 C893 1.625 . S
C2499 C995 1.625 . S
C2504 C927 1.625 . S
C2529 C33 1.569 . S
C2534 C923 1.565 . S
C2559 C277 1.565 . S
C2564 C67 1.569 . S
C2589 C855 1.565 . S
C2594 C101 1.569 . S
C2619 C135 1.569 . S
C2624 C345 1.565 . S
C2649 C169 1.569 . S
C2654 C991 1.565 . S
C2679 C203 1.569 . S
C2684 C481 1.565 . S
C2709 C237 1.569 . S
C2714 C1059 1.565 . S
C2739 C413 1.565 . S
C2744 C271 1.569 . S
C2769 C651 1.565 . S
C2774 C305 1.569 . S
C2799 C339 1.569 . S
C2804 C5 1.565 . S
C2829 C373 1.569 . S
C2834 C583 1.565 . S
C2859 C73 1.565 . S
C2864 C407 1.569 . S
C2889 C719 1.565 . S
C2894 C441 1.569 . S
C2919 C475 1.569 . S
C2924 C209 1.565 . S
C2949 C509 1.569 . S
C2954 C787 1.565 . S
C2979 C141 1.565 . S
C2984 C543 1.569 . S
C3009 C379 1.565 . S
C3014 C577 1.569 . S
C3039 C821 1.565 . S
C3044 C611 1.569 . S
C3069 C645 1.569 . S
C3074 C311 1.565 . S
C3099 C679 1.569 . S
C3104 C889 1.565 . S
C3129 C447 1.565 . S
C3134 C713 1.569 . S
C3159 C747 1.569 . S
C3164 C1025 1.565 . S
C3189 C515 1.565 . S
C3194 C781 1.569 . S
C3219 C957 1.565 . S
C3224 C815 1.569 . S
C3249 C107 1.565 . S
C3254 C849 1.569 . S
C3279 C883 1.569 . S
C3284 C549 1.565 . S
C3309 C39 1.565 . S
C3314 C917 1.569 . S
C3339 C617 1.565 . S
C3344 C951 1.569 . S
C3369 C175 1.565 . S
C3374 C985 1.569 . S
C3399 C1019 1.569 . S
C3404 C753 1.565 . S
C3429 C1053 1.569 . S
C3434 C243 1.565 . S
C3459 C1087 1.569 . S
C3464 C685 1.565 . S
