# Generated by pormake.
# Topology qtz, (4)-cn, num edge types: 1
# Building blocks:
#     Node 0, Type 0, BuildingBlock: UXUYUI_clean_sbu_0, # of connection points: 4
#     Node 1, Type 0, BuildingBlock: UXUYUI_clean_sbu_0, # of connection points: 4
#     Node 2, Type 0, BuildingBlock: UXUYUI_clean_sbu_0, # of connection points: 4
#     Edge 3, Type (0, 0), BuildingBlock: TEMPAE_clean_linker_10, # of connection points: 2
#     Edge 4, Type (0, 0), BuildingBlock: TEMPAE_clean_linker_10, # of connection points: 2
#     Edge 5, Type (0, 0), BuildingBlock: TEMPAE_clean_linker_10, # of connection points: 2
#     Edge 6, Type (0, 0), BuildingBlock: TEMPAE_clean_linker_10, # of connection points: 2
#     Edge 7, Type (0, 0), BuildingBlock: TEMPAE_clean_linker_10, # of connection points: 2
#     Edge 8, Type (0, 0), BuildingBlock: TEMPAE_clean_linker_10, # of connection points: 2
# Relax obj value: 0.181
# Max RMSD: 0.212
# Mean RMSD: 0.212
data_MOF--net-qtz--node1-UXUYUI_clean_sbu_0--edge1-TEMPAE_clean_linker_10
_symmetry_space_group_name_H-M    P1
_symmetry_Int_Tables_number       1
_symmetry_cell_setting            triclinic
loop_
_symmetry_equiv_pos_as_xyz
'x, y, z'
_cell_length_a     34.571112
_cell_length_b     34.604675
_cell_length_c     41.353245
_cell_angle_alpha  90.060702
_cell_angle_beta   90.011445
_cell_angle_gamma 119.98594
loop_
_atom_site_label
_atom_site_type_symbol
_atom_site_fract_x
_atom_site_fract_y
_atom_site_fract_z
_atom_type_partial_charge
Li0 Li 0.0213 0.48555 0.13933 0.0
Li1 Li 0.02311 0.53613 0.18071 0.0
Li2 Li 0.96392 0.45708 0.18337 0.0
Li3 Li 0.96447 0.50747 0.14334 0.0
C4 C 0.03998 0.45103 0.19505 0.0
N5 N 0.05923 0.38541 0.21244 0.0
C6 C 0.06861 0.45789 0.22099 0.0
C7 C 0.02113 0.41081 0.17792 0.0
C8 C 0.07794 0.4243 0.22941 0.0
C9 C 0.03128 0.37804 0.18709 0.0
C10 C 0.06095 0.5888 0.1325 0.0
C11 C 0.08441 0.6669 0.13764 0.0
N12 N 0.12763 0.67725 0.13391 0.0
C13 C 0.10554 0.60021 0.12842 0.0
C14 C 0.05021 0.62238 0.13688 0.0
C15 C 0.13879 0.64512 0.12931 0.0
C16 C 0.04347 0.45097 0.08433 0.0
N17 N 0.05827 0.47243 0.11307 0.0
C18 C 0.13009 0.48003 0.10471 0.0
C19 C 0.10041 0.48638 0.12372 0.0
C20 C 0.11635 0.45941 0.0743 0.0
C21 C 0.07215 0.44425 0.06437 0.0
H22 H 0.00967 0.43969 0.07661 0.0
H23 H 0.11118 0.50312 0.14683 0.0
C24 C 0.05049 0.6108 0.22235 0.0
N25 N 0.06359 0.58473 0.20671 0.0
C26 C 0.08036 0.64546 0.24233 0.0
C27 C 0.13659 0.62571 0.22961 0.0
C28 C 0.10562 0.59145 0.20991 0.0
C29 C 0.12399 0.65306 0.24632 0.0
H30 H 0.01675 0.60442 0.21964 0.0
H31 H 0.11487 0.56982 0.19736 0.0
C32 C 0.91862 0.42819 0.11659 0.0
N33 N 0.84467 0.39548 0.07667 0.0
C34 C 0.87584 0.40091 0.12918 0.0
C35 C 0.92372 0.43894 0.08369 0.0
C36 C 0.8389 0.3846 0.10859 0.0
C37 C 0.88594 0.42212 0.06393 0.0
C38 C 0.9243 0.51803 0.19582 0.0
C39 C 0.88349 0.48345 0.20717 0.0
C40 C 0.92894 0.55984 0.18956 0.0
C41 C 0.84795 0.49125 0.21189 0.0
C42 C 0.89257 0.56626 0.19452 0.0
N43 N 0.85318 0.53213 0.20549 0.0
C44 C 0.92927 0.41958 0.24341 0.0
C45 C 0.91114 0.36609 0.20172 0.0
C46 C 0.9038 0.38605 0.26557 0.0
N47 N 0.93153 0.40912 0.21208 0.0
C48 C 0.88531 0.33143 0.22308 0.0
C49 C 0.88082 0.34132 0.25537 0.0
H50 H 0.94629 0.45417 0.25091 0.0
H51 H 0.91434 0.35877 0.17676 0.0
C52 C 0.94578 0.54797 0.09108 0.0
N53 N 0.92688 0.52086 0.11706 0.0
C54 C 0.91939 0.55571 0.06943 0.0
C55 C 0.85476 0.50838 0.10204 0.0
C56 C 0.88221 0.50098 0.12271 0.0
C57 C 0.87329 0.53565 0.07485 0.0
H58 H 0.98116 0.56255 0.08664 0.0
H59 H 0.86748 0.47809 0.14259 0.0
O60 O 0.03051 0.48364 0.18666 0.0
O61 O 0.02801 0.54496 0.13264 0.0
O62 O 0.95516 0.44503 0.13649 0.0
O63 O 0.95962 0.51111 0.19135 0.0
H64 H 0.08344 0.48887 0.23448 0.0
H65 H -0.00109 0.40489 0.15776 0.0
H66 H 0.10005 0.42914 0.24945 0.0
H67 H 0.01692 0.34676 0.17407 0.0
H68 H 0.07659 0.69322 0.14122 0.0
H69 H 0.11445 0.57469 0.12492 0.0
H70 H 0.01585 0.61414 0.13982 0.0
H71 H 0.17348 0.65441 0.12643 0.0
H72 H 0.16355 0.4915 0.11365 0.0
H73 H 0.06017 0.42855 0.04102 0.0
H74 H 0.06942 0.66599 0.25458 0.0
H75 H 0.16965 0.62997 0.23239 0.0
H76 H 0.87103 0.39307 0.15466 0.0
H77 H 0.95636 0.46108 0.07367 0.0
H78 H 0.80562 0.3636 0.11804 0.0
H79 H 0.88939 0.43053 0.0385 0.0
H80 H 0.87898 0.45074 0.21185 0.0
H81 H 0.96007 0.58692 0.18061 0.0
H82 H 0.81615 0.46473 0.2205 0.0
H83 H 0.89565 0.59838 0.18958 0.0
H84 H 0.90092 0.39522 0.29013 0.0
H85 H 0.86872 0.29734 0.21439 0.0
H86 H 0.93472 0.57676 0.04854 0.0
H87 H 0.81915 0.49155 0.10656 0.0
Li88 Li 0.53673 0.02791 0.48007 0.0
Li89 Li 0.48441 0.01991 0.52173 0.0
Li90 Li 0.51205 0.96696 0.51678 0.0
Li91 Li 0.45913 0.96519 0.47718 0.0
C92 C 0.58893 0.06322 0.53339 0.0
N93 N 0.67642 0.12882 0.54434 0.0
C94 C 0.59836 0.10316 0.54853 0.0
C95 C 0.62401 0.05643 0.52429 0.0
C96 C 0.64281 0.13597 0.55373 0.0
C97 C 0.66801 0.09006 0.52989 0.0
C98 C 0.49005 0.07223 0.4656 0.0
C99 C 0.48464 0.12141 0.42688 0.0
N100 N 0.51011 0.15676 0.44648 0.0
C101 C 0.51606 0.10903 0.48536 0.0
C102 C 0.47411 0.07841 0.43613 0.0
C103 C 0.52588 0.15149 0.47529 0.0
C104 C 0.59232 0.05199 0.42596 0.0
N105 N 0.58503 0.06874 0.45357 0.0
C106 C 0.64504 0.1416 0.44097 0.0
C107 C 0.61047 0.11267 0.4613 0.0
C108 C 0.65332 0.12524 0.41227 0.0
C109 C 0.62652 0.07974 0.4049 0.0
H110 H 0.57119 0.0171 0.42009 0.0
H111 H 0.60397 0.12548 0.48315 0.0
C112 C 0.48383 0.05369 0.58244 0.0
N113 N 0.46698 0.0492 0.55213 0.0
C114 C 0.47591 0.07806 0.60571 0.0
C115 C 0.43153 0.09087 0.56655 0.0
C116 C 0.44044 0.06628 0.54397 0.0
C117 C 0.45018 0.09775 0.59767 0.0
H118 H 0.50445 0.03926 0.58823 0.0
H119 H 0.42721 0.06188 0.5197 0.0
C120 C 0.52715 0.93383 0.46221 0.0
N121 N 0.55126 0.87038 0.44909 0.0
C122 C 0.49461 0.89033 0.45397 0.0
C123 C 0.57204 0.94525 0.46318 0.0
C124 C 0.50744 0.85867 0.44758 0.0
C125 C 0.58354 0.91265 0.45664 0.0
C126 C 0.40654 0.94007 0.53308 0.0
C127 C 0.38618 0.90961 0.55827 0.0
C128 C 0.38288 0.95729 0.517 0.0
C129 C 0.34233 0.89681 0.56695 0.0
C130 C 0.33911 0.94368 0.52642 0.0
N131 N 0.31991 0.91397 0.55099 0.0
C132 C 0.55991 0.94811 0.56364 0.0
C133 C 0.50262 0.88505 0.53644 0.0
C134 C 0.56916 0.92072 0.58302 0.0
N135 N 0.52718 0.92991 0.54089 0.0
C136 C 0.51118 0.85647 0.55492 0.0
C137 C 0.54451 0.87431 0.57876 0.0
H138 H 0.57804 0.98376 0.56737 0.0
H139 H 0.47561 0.8714 0.5191 0.0
C140 C 0.41178 0.94228 0.41867 0.0
N141 N 0.41181 0.92768 0.44914 0.0
C142 C 0.37895 0.91468 0.3966 0.0
C143 C 0.34695 0.85754 0.43775 0.0
C144 C 0.38033 0.88627 0.45902 0.0
C145 C 0.3462 0.87154 0.40599 0.0
H146 H 0.43789 0.97499 0.41133 0.0
H147 H 0.38169 0.87521 0.48321 0.0
O148 O 0.5456 0.03076 0.52793 0.0
O149 O 0.48012 0.03032 0.47495 0.0
O150 O 0.51521 0.96525 0.4687 0.0
O151 O 0.44953 0.95299 0.52449 0.0
H152 H 0.57172 0.10895 0.55603 0.0
H153 H 0.61732 0.02552 0.51304 0.0
H154 H 0.65057 0.16713 0.56523 0.0
H155 H 0.69546 0.0853 0.52279 0.0
H156 H 0.47254 0.12667 0.40412 0.0
H157 H 0.52878 0.10491 0.50816 0.0
H158 H 0.45376 0.05033 0.42056 0.0
H159 H 0.5461 0.18025 0.49035 0.0
H160 H 0.66515 0.17639 0.44772 0.0
H161 H 0.63128 0.0659 0.38275 0.0
H162 H 0.49033 0.08205 0.62959 0.0
H163 H 0.41175 0.10573 0.55935 0.0
H164 H 0.45977 0.88095 0.45284 0.0
H165 H 0.59777 0.97897 0.46871 0.0
H166 H 0.48255 0.82479 0.44146 0.0
H167 H 0.61814 0.921 0.45746 0.0
H168 H 0.40411 0.89602 0.57095 0.0
H169 H 0.39804 0.98085 0.49743 0.0
H170 H 0.32614 0.87325 0.5864 0.0
H171 H 0.32041 0.95674 0.51419 0.0
H172 H 0.59489 0.93556 0.60138 0.0
H173 H 0.49083 0.82075 0.55148 0.0
H174 H 0.37999 0.92647 0.37218 0.0
H175 H 0.32216 0.82464 0.446 0.0
Li176 Li 0.48149 0.45297 0.80638 0.0
Li177 Li 0.53315 0.50478 0.84687 0.0
Li178 Li 0.45597 0.48643 0.84666 0.0
Li179 Li 0.50845 0.53179 0.80429 0.0
C180 C 0.44517 0.40449 0.86268 0.0
N181 N 0.37613 0.32142 0.8802 0.0
C182 C 0.4505 0.38153 0.88848 0.0
C183 C 0.4047 0.38524 0.84579 0.0
C184 C 0.4152 0.33955 0.89696 0.0
C185 C 0.37022 0.3432 0.85502 0.0
C186 C 0.56693 0.52035 0.77242 0.0
C187 C 0.62758 0.58157 0.74405 0.0
N188 N 0.611 0.5599 0.71554 0.0
C189 C 0.5507 0.49859 0.74283 0.0
C190 C 0.6059 0.56208 0.77305 0.0
C191 C 0.57339 0.51914 0.71435 0.0
C192 C 0.43837 0.39071 0.75623 0.0
N193 N 0.46512 0.40041 0.78259 0.0
C194 C 0.47264 0.33637 0.77357 0.0
C195 C 0.48189 0.37401 0.79176 0.0
C196 C 0.44617 0.32618 0.74562 0.0
C197 C 0.42847 0.35357 0.73722 0.0
H198 H 0.42579 0.41255 0.7495 0.0
H199 H 0.50318 0.38278 0.81285 0.0
C200 C 0.56883 0.50272 0.90682 0.0
N201 N 0.57992 0.5144 0.87539 0.0
C202 C 0.60149 0.50814 0.92907 0.0
C203 C 0.65646 0.53838 0.88628 0.0
C204 C 0.6226 0.53178 0.86474 0.0
C205 C 0.64589 0.52612 0.91881 0.0
H206 H 0.53452 0.48901 0.91448 0.0
H207 H 0.63029 0.54036 0.83954 0.0
C208 C 0.41825 0.49843 0.79036 0.0
N209 N 0.36382 0.53233 0.77291 0.0
C210 C 0.42379 0.53746 0.80483 0.0
C211 C 0.385 0.47673 0.767 0.0
C212 C 0.39595 0.55403 0.79567 0.0
C213 C 0.35781 0.49436 0.75852 0.0
C214 C 0.53838 0.57753 0.87227 0.0
C215 C 0.52263 0.58377 0.90183 0.0
C216 C 0.5838 0.60336 0.86498 0.0
C217 C 0.55277 0.61472 0.92396 0.0
C218 C 0.61292 0.63389 0.88775 0.0
N219 N 0.59694 0.63886 0.91656 0.0
C220 C 0.41551 0.47835 0.90648 0.0
C221 C 0.36517 0.46022 0.86268 0.0
C222 C 0.38208 0.47134 0.92851 0.0
N223 N 0.40695 0.47416 0.87422 0.0
C224 C 0.33063 0.45257 0.88384 0.0
C225 C 0.33905 0.4589 0.91723 0.0
H226 H 0.44856 0.48748 0.91506 0.0
H227 H 0.35834 0.45474 0.83713 0.0
C228 C 0.50537 0.56686 0.74428 0.0
N229 N 0.52293 0.57886 0.77448 0.0
C230 C 0.51228 0.59935 0.72154 0.0
C231 C 0.55653 0.65609 0.76102 0.0
C232 C 0.54829 0.62241 0.78318 0.0
C233 C 0.53782 0.64456 0.72995 0.0
H234 H 0.48538 0.53193 0.73804 0.0
H235 H 0.56143 0.63105 0.80742 0.0
O236 O 0.47942 0.44575 0.85432 0.0
O237 O 0.5445 0.50114 0.8005 0.0
O238 O 0.4455 0.48172 0.79845 0.0
O239 O 0.5094 0.54697 0.8504 0.0
H240 H 0.48161 0.39607 0.90183 0.0
H241 H 0.39985 0.40252 0.82583 0.0
H242 H 0.41886 0.32139 0.91689 0.0
H243 H 0.33873 0.32792 0.84218 0.0
H244 H 0.65755 0.61399 0.7442 0.0
H245 H 0.52069 0.46639 0.74173 0.0
H246 H 0.61914 0.57952 0.79558 0.0
H247 H 0.561 0.50274 0.6913 0.0
H248 H 0.48736 0.31641 0.78063 0.0
H249 H 0.4077 0.34664 0.71596 0.0
H250 H 0.59222 0.49855 0.95404 0.0
H251 H 0.69031 0.55192 0.8775 0.0
H252 H 0.44922 0.55492 0.82291 0.0
H253 H 0.38015 0.44652 0.75552 0.0
H254 H 0.39992 0.58419 0.80667 0.0
H255 H 0.33195 0.47786 0.74048 0.0
H256 H 0.48746 0.56543 0.90751 0.0
H257 H 0.59653 0.59941 0.84214 0.0
H258 H 0.54099 0.6197 0.94696 0.0
H259 H 0.64823 0.65362 0.88251 0.0
H260 H 0.39018 0.47661 0.95401 0.0
H261 H 0.29765 0.44169 0.87415 0.0
H262 H 0.49756 0.58928 0.6977 0.0
H263 H 0.57603 0.69069 0.7684 0.0
C264 C 0.27497 0.4701 0.93163 0.0
C265 C 0.30364 0.45396 0.94003 0.0
C266 C 0.24298 0.46801 0.95346 0.0
C267 C 0.23983 0.44972 0.98459 0.0
C268 C 0.26797 0.43251 0.99304 0.0
C269 C 0.29944 0.43468 0.9706 0.0
C270 C 0.21339 0.48653 0.94352 0.0
C271 C 0.26561 0.41286 0.02606 0.0
C272 C 0.19267 0.49086 0.05019 0.0
C273 C 0.14847 0.4556 0.05248 0.0
C274 C 0.22299 0.48883 0.02875 0.0
C275 C 0.20867 0.45083 0.0088 0.0
C276 C 0.16433 0.41485 0.01121 0.0
C277 C 0.13479 0.41758 0.03313 0.0
C278 C 0.27011 0.52781 0.02697 0.0
C279 C 0.14788 0.37389 0.99019 0.0
H280 H 0.27837 0.48562 0.90825 0.0
H281 H 0.32096 0.42147 0.97709 0.0
H282 H 0.17777 0.46121 0.94735 0.0
H283 H 0.22077 0.51581 0.9588 0.0
H284 H 0.21811 0.49702 0.91777 0.0
H285 H 0.28843 0.39909 0.02832 0.0
H286 H 0.27461 0.43892 0.04485 0.0
H287 H 0.23103 0.38589 0.03117 0.0
H288 H 0.20338 0.5207 0.06459 0.0
H289 H 0.1009 0.38992 0.03507 0.0
H290 H 0.27636 0.54318 0.00261 0.0
H291 H 0.29445 0.51619 0.03065 0.0
H292 H 0.27656 0.55386 0.04529 0.0
H293 H 0.14995 0.38336 0.96435 0.0
H294 H 0.11283 0.34823 -0.00428 0.0
H295 H 0.16944 0.35887 0.99343 0.0
C296 C 0.80792 0.27278 0.26741 0.0
C297 C 0.85037 0.3057 0.27788 0.0
C298 C 0.77708 0.24137 0.28908 0.0
C299 C 0.78897 0.24304 0.32201 0.0
C300 C 0.8323 0.27515 0.33252 0.0
C301 C 0.86253 0.30611 0.3103 0.0
C302 C 0.73116 0.20755 0.27698 0.0
C303 C 0.84621 0.27779 0.36744 0.0
C304 C 0.69452 0.19788 0.3829 0.0
C305 C 0.6889 0.1557 0.38973 0.0
C306 C 0.72731 0.22677 0.36115 0.0
C307 C 0.75508 0.21308 0.34579 0.0
C308 C 0.74984 0.17069 0.35271 0.0
C309 C 0.71677 0.14246 0.37463 0.0
C310 C 0.73186 0.27173 0.35431 0.0
C311 C 0.77894 0.15508 0.3368 0.0
H312 H 0.79811 0.2726 0.24249 0.0
H313 H 0.89554 0.33108 0.31841 0.0
H314 H 0.723 0.17339 0.28409 0.0
H315 H 0.7058 0.21401 0.28822 0.0
H316 H 0.72831 0.2086 0.25027 0.0
H317 H 0.88204 0.30268 0.37124 0.0
H318 H 0.82584 0.28713 0.3828 0.0
H319 H 0.84002 0.24474 0.37584 0.0
H320 H 0.67265 0.20802 0.39411 0.0
H321 H 0.7129 0.1101 0.38013 0.0
H322 H 0.72558 0.27424 0.32829 0.0
H323 H 0.7664 0.29868 0.35967 0.0
H324 H 0.70826 0.27766 0.36881 0.0
H325 H 0.77455 0.15401 0.31017 0.0
H326 H 0.77106 0.12144 0.34521 0.0
H327 H 0.81463 0.17898 0.34192 0.0
C328 C 0.55028 0.84927 0.63412 0.0
C329 C 0.55112 0.84428 0.60055 0.0
C330 C 0.55177 0.81836 0.65521 0.0
C331 C 0.55481 0.78205 0.64233 0.0
C332 C 0.55777 0.77805 0.60846 0.0
C333 C 0.55544 0.80905 0.58792 0.0
C334 C 0.54786 0.82335 0.69116 0.0
C335 C 0.56183 0.74021 0.59391 0.0
C336 C 0.58494 0.71623 0.70044 0.0
C337 C 0.54281 0.6794 0.70694 0.0
C338 C 0.5896 0.74964 0.67891 0.0
C339 C 0.5511 0.74632 0.66414 0.0
C340 C 0.5085 0.70916 0.67072 0.0
C341 C 0.50494 0.67598 0.69188 0.0
C342 C 0.63558 0.78845 0.67202 0.0
C343 C 0.46658 0.7048 0.65583 0.0
H344 H 0.54649 0.8763 0.64385 0.0
H345 H 0.55646 0.80549 0.56193 0.0
H346 H 0.51605 0.79501 0.70012 0.0
H347 H 0.57541 0.8224 0.7042 0.0
H348 H 0.54859 0.85495 0.69735 0.0
H349 H 0.56827 0.74441 0.56746 0.0
H350 H 0.58927 0.73767 0.60576 0.0
H351 H 0.53052 0.7082 0.59809 0.0
H352 H 0.61423 0.71862 0.71197 0.0
H353 H 0.47231 0.64772 0.69725 0.0
H354 H 0.63753 0.82006 0.67982 0.0
H355 H 0.64216 0.79106 0.64562 0.0
H356 H 0.66223 0.78521 0.68457 0.0
H357 H 0.46305 0.73387 0.66275 0.0
H358 H 0.43605 0.67382 0.66353 0.0
H359 H 0.46879 0.70471 0.62908 0.0
C360 C 0.72125 0.57102 0.94421 0.0
C361 C 0.68075 0.53072 0.94176 0.0
C362 C 0.75457 0.5755 0.96581 0.0
C363 C 0.74735 0.53852 0.98487 0.0
C364 C 0.70654 0.4977 0.98233 0.0
C365 C 0.67357 0.49441 0.96096 0.0
C366 C 0.79738 0.61973 0.96831 0.0
C367 C 0.69788 0.45732 0.00191 0.0
C368 C 0.8456 0.53138 0.01856 0.0
C369 C 0.84394 0.54069 0.05133 0.0
C370 C 0.81499 0.53163 -0.00357 0.0
C371 C 0.78249 0.5421 0.00736 0.0
C372 C 0.78187 0.55329 0.04023 0.0
C373 C 0.8124 0.55203 0.06192 0.0
C374 C 0.81624 0.51887 0.96168 0.0
C375 C 0.74819 0.56535 0.05264 0.0
H376 H 0.72658 0.59918 0.92949 0.0
H377 H 0.6424 0.46311 0.95877 0.0
H378 H 0.80261 0.63197 0.99364 0.0
H379 H 0.8262 0.61558 0.96172 0.0
H380 H 0.79733 0.64549 0.95234 0.0
H381 H 0.66456 0.42794 -0.0032 0.0
H382 H 0.72383 0.44827 -0.00342 0.0
H383 H 0.69998 0.46506 0.0281 0.0
H384 H 0.86972 0.52212 0.0105 0.0
H385 H 0.81141 0.55951 0.08728 0.0
H386 H 0.81824 0.54504 0.94517 0.0
H387 H 0.78494 0.48753 0.95583 0.0
H388 H 0.84499 0.51381 0.95675 0.0
H389 H 0.74871 0.5921 0.03755 0.0
H390 H 0.75457 0.57678 0.07821 0.0
H391 H 0.7141 0.53593 0.05093 0.0
C392 C 0.30229 0.79614 0.3806 0.0
C393 C 0.31248 0.84071 0.38245 0.0
C394 C 0.27117 0.76668 0.3581 0.0
C395 C 0.2497 0.78219 0.33694 0.0
C396 C 0.25968 0.82709 0.33873 0.0
C397 C 0.29104 0.85588 0.36146 0.0
C398 C 0.26153 0.71905 0.35679 0.0
C399 C 0.23723 0.84469 0.31665 0.0
C400 C 0.20073 0.71503 0.26019 0.0
C401 C 0.1557 0.68814 0.26873 0.0
C402 C 0.23155 0.74654 0.28191 0.0
C403 C 0.21693 0.75125 0.31288 0.0
C404 C 0.17134 0.72497 0.32137 0.0
C405 C 0.14127 0.69368 0.29919 0.0
C406 C 0.27991 0.77412 0.27199 0.0
C407 C 0.15455 0.72903 0.35419 0.0
H408 H 0.31928 0.78444 0.39642 0.0
H409 H 0.29851 0.89021 0.36304 0.0
H410 H 0.22542 0.69576 0.36083 0.0
H411 H 0.26984 0.71171 0.33247 0.0
H412 H 0.28081 0.7122 0.37514 0.0
H413 H 0.24864 0.88045 0.32118 0.0
H414 H 0.24418 0.84071 0.29104 0.0
H415 H 0.2005 0.82512 0.31996 0.0
H416 H 0.21192 0.71132 0.23651 0.0
H417 H 0.10663 0.67261 0.30609 0.0
H418 H 0.30098 0.76657 0.28805 0.0
H419 H 0.29138 0.81016 0.27471 0.0
H420 H 0.2855 0.76767 0.24657 0.0
H421 H 0.17032 0.71893 0.37325 0.0
H422 H 0.1177 0.70795 0.35634 0.0
H423 H 0.16407 0.76424 0.35899 0.0
C424 C 0.44553 0.29558 0.69079 0.0
C425 C 0.43957 0.28895 0.72427 0.0
C426 C 0.44343 0.26217 0.67044 0.0
C427 C 0.43498 0.2211 0.68392 0.0
C428 C 0.42724 0.21354 0.71754 0.0
C429 C 0.42982 0.24769 0.73737 0.0
C430 C 0.4522 0.2716 0.63473 0.0
C431 C 0.41775 0.16999 0.73269 0.0
C432 C 0.40393 0.12526 0.62539 0.0
C433 C 0.44525 0.12757 0.62098 0.0
C434 C 0.39972 0.15483 0.64643 0.0
C435 C 0.43784 0.18759 0.66315 0.0
C436 C 0.47947 0.18966 0.65908 0.0
C437 C 0.48265 0.15959 0.63808 0.0
C438 C 0.35474 0.15148 0.65041 0.0
C439 C 0.52097 0.22436 0.67629 0.0
H440 H 0.45361 0.32761 0.68062 0.0
H441 H 0.4247 0.24231 0.7632 0.0
H442 H 0.4836 0.27222 0.62808 0.0
H443 H 0.42491 0.24471 0.62036 0.0
H444 H 0.45526 0.30402 0.62779 0.0
H445 H 0.40868 0.168 0.75865 0.0
H446 H 0.39013 0.14151 0.71968 0.0
H447 H 0.44768 0.1662 0.73064 0.0
H448 H 0.37489 0.10027 0.6124 0.0
H449 H 0.5148 0.16196 0.63436 0.0
H450 H 0.35638 0.18254 0.64162 0.0
H451 H 0.34551 0.14799 0.67637 0.0
H452 H 0.32798 0.12275 0.63693 0.0
H453 H 0.52877 0.25823 0.66866 0.0
H454 H 0.55047 0.22058 0.67123 0.0
H455 H 0.51529 0.22211 0.70279 0.0
loop_
_geom_bond_atom_site_label_1
_geom_bond_atom_site_label_2
_geom_bond_distance
_geom_bond_site_symmetry_2
_ccdc_geom_bond_type
Li0 N17 1.990 . S
Li0 O60 1.956 . S
Li0 O61 1.970 . S
Li0 O62 1.961 1_455 S
Li1 N25 1.990 . S
Li1 O60 1.970 . S
Li1 O61 1.956 . S
Li1 O63 1.961 1_455 S
Li2 N47 1.990 . S
Li2 O60 1.961 1_655 S
Li2 O62 1.956 . S
Li2 O63 1.970 . S
Li3 N53 1.990 . S
Li3 O61 1.961 1_655 S
Li3 O62 1.970 . S
Li3 O63 1.956 . S
C4 C6 1.348 . S
C4 C7 1.356 . S
C4 O60 1.325 . S
N5 C8 1.314 . S
N5 C9 1.279 . S
C6 C4 1.348 . S
C6 C8 1.353 . S
C6 H64 0.929 . S
C7 C4 1.356 . S
C7 C9 1.358 . S
C7 H65 0.930 . S
C8 N5 1.314 . S
C8 C6 1.353 . S
C8 H66 0.930 . S
C9 N5 1.279 . S
C9 C7 1.358 . S
C9 H67 0.930 . S
C10 C13 1.348 . S
C10 C14 1.356 . S
C10 O61 1.325 . S
C11 N12 1.279 . S
C11 C14 1.358 . S
C11 H68 0.930 . S
N12 C11 1.279 . S
N12 C15 1.314 . S
C13 C10 1.348 . S
C13 C15 1.353 . S
C13 H69 0.929 . S
C14 C10 1.356 . S
C14 C11 1.358 . S
C14 H70 0.930 . S
C15 N12 1.314 . S
C15 C13 1.353 . S
C15 H71 0.930 . S
C16 N17 1.314 . S
C16 C21 1.353 . S
C16 H22 0.930 . S
N17 Li0 1.990 . S
N17 C16 1.314 . S
N17 C19 1.279 . S
C18 C19 1.358 . S
C18 C20 1.356 . S
C18 H72 0.930 . S
C19 N17 1.279 . S
C19 C18 1.358 . S
C19 H23 0.930 . S
C20 C18 1.356 . S
C20 C21 1.348 . S
C21 C16 1.353 . S
C21 C20 1.348 . S
C21 H73 0.929 . S
H22 C16 0.930 . S
H23 C19 0.930 . S
C24 N25 1.314 . S
C24 C26 1.353 . S
C24 H30 0.930 . S
N25 Li1 1.990 . S
N25 C24 1.314 . S
N25 C28 1.279 . S
C26 C24 1.353 . S
C26 C29 1.348 . S
C26 H74 0.929 . S
C27 C28 1.358 . S
C27 C29 1.356 . S
C27 H75 0.930 . S
C28 N25 1.279 . S
C28 C27 1.358 . S
C28 H31 0.930 . S
C29 C26 1.348 . S
C29 C27 1.356 . S
H30 C24 0.930 . S
H31 C28 0.930 . S
C32 C34 1.348 . S
C32 C35 1.356 . S
C32 O62 1.325 . S
N33 C36 1.314 . S
N33 C37 1.279 . S
C34 C32 1.348 . S
C34 C36 1.353 . S
C34 H76 0.929 . S
C35 C32 1.356 . S
C35 C37 1.358 . S
C35 H77 0.930 . S
C36 N33 1.314 . S
C36 C34 1.353 . S
C36 H78 0.930 . S
C37 N33 1.279 . S
C37 C35 1.358 . S
C37 H79 0.930 . S
C38 C39 1.348 . S
C38 C40 1.356 . S
C38 O63 1.325 . S
C39 C38 1.348 . S
C39 C41 1.353 . S
C39 H80 0.929 . S
C40 C38 1.356 . S
C40 C42 1.358 . S
C40 H81 0.930 . S
C41 C39 1.353 . S
C41 N43 1.314 . S
C41 H82 0.930 . S
C42 C40 1.358 . S
C42 N43 1.279 . S
C42 H83 0.930 . S
N43 C41 1.314 . S
N43 C42 1.279 . S
C44 C46 1.353 . S
C44 N47 1.314 . S
C44 H50 0.930 . S
C45 N47 1.279 . S
C45 C48 1.358 . S
C45 H51 0.930 . S
C46 C44 1.353 . S
C46 C49 1.348 . S
C46 H84 0.929 . S
N47 Li2 1.990 . S
N47 C44 1.314 . S
N47 C45 1.279 . S
C48 C45 1.358 . S
C48 C49 1.356 . S
C48 H85 0.930 . S
C49 C46 1.348 . S
C49 C48 1.356 . S
H50 C44 0.930 . S
H51 C45 0.930 . S
C52 N53 1.314 . S
C52 C54 1.353 . S
C52 H58 0.930 . S
N53 Li3 1.990 . S
N53 C52 1.314 . S
N53 C56 1.279 . S
C54 C52 1.353 . S
C54 C57 1.348 . S
C54 H86 0.929 . S
C55 C56 1.358 . S
C55 C57 1.356 . S
C55 H87 0.930 . S
C56 N53 1.279 . S
C56 C55 1.358 . S
C56 H59 0.930 . S
C57 C54 1.348 . S
C57 C55 1.356 . S
H58 C52 0.930 . S
H59 C56 0.930 . S
O60 Li0 1.956 . S
O60 Li1 1.970 . S
O60 Li2 1.961 1_455 S
O60 C4 1.325 . S
O61 Li0 1.970 . S
O61 Li1 1.956 . S
O61 Li3 1.961 1_455 S
O61 C10 1.325 . S
O62 Li0 1.961 1_655 S
O62 Li2 1.956 . S
O62 Li3 1.970 . S
O62 C32 1.325 . S
O63 Li1 1.961 1_655 S
O63 Li2 1.970 . S
O63 Li3 1.956 . S
O63 C38 1.325 . S
H64 C6 0.929 . S
H65 C7 0.930 . S
H66 C8 0.930 . S
H67 C9 0.930 . S
H68 C11 0.930 . S
H69 C13 0.929 . S
H70 C14 0.930 . S
H71 C15 0.930 . S
H72 C18 0.930 . S
H73 C21 0.929 . S
H74 C26 0.929 . S
H75 C27 0.930 . S
H76 C34 0.929 . S
H77 C35 0.930 . S
H78 C36 0.930 . S
H79 C37 0.930 . S
H80 C39 0.929 . S
H81 C40 0.930 . S
H82 C41 0.930 . S
H83 C42 0.930 . S
H84 C46 0.929 . S
H85 C48 0.930 . S
H86 C54 0.929 . S
H87 C55 0.930 . S
Li88 N105 1.990 . S
Li88 O148 1.956 . S
Li88 O149 1.970 . S
Li88 O150 1.961 1_545 S
Li89 N113 1.990 . S
Li89 O148 1.970 . S
Li89 O149 1.956 . S
Li89 O151 1.961 1_545 S
Li90 N135 1.990 . S
Li90 O148 1.961 1_565 S
Li90 O150 1.956 . S
Li90 O151 1.970 . S
Li91 N141 1.990 . S
Li91 O149 1.961 1_565 S
Li91 O150 1.970 . S
Li91 O151 1.956 . S
C92 C94 1.348 . S
C92 C95 1.356 . S
C92 O148 1.325 . S
N93 C96 1.314 . S
N93 C97 1.279 . S
C94 C92 1.348 . S
C94 C96 1.353 . S
C94 H152 0.929 . S
C95 C92 1.356 . S
C95 C97 1.358 . S
C95 H153 0.930 . S
C96 N93 1.314 . S
C96 C94 1.353 . S
C96 H154 0.930 . S
C97 N93 1.279 . S
C97 C95 1.358 . S
C97 H155 0.930 . S
C98 C101 1.348 . S
C98 C102 1.356 . S
C98 O149 1.325 . S
C99 N100 1.279 . S
C99 C102 1.358 . S
C99 H156 0.930 . S
N100 C99 1.279 . S
N100 C103 1.314 . S
C101 C98 1.348 . S
C101 C103 1.353 . S
C101 H157 0.929 . S
C102 C98 1.356 . S
C102 C99 1.358 . S
C102 H158 0.930 . S
C103 N100 1.314 . S
C103 C101 1.353 . S
C103 H159 0.930 . S
C104 N105 1.314 . S
C104 C109 1.353 . S
C104 H110 0.930 . S
N105 Li88 1.990 . S
N105 C104 1.314 . S
N105 C107 1.279 . S
C106 C107 1.358 . S
C106 C108 1.356 . S
C106 H160 0.930 . S
C107 N105 1.279 . S
C107 C106 1.358 . S
C107 H111 0.930 . S
C108 C106 1.356 . S
C108 C109 1.348 . S
C109 C104 1.353 . S
C109 C108 1.348 . S
C109 H161 0.929 . S
H110 C104 0.930 . S
H111 C107 0.930 . S
C112 N113 1.314 . S
C112 C114 1.353 . S
C112 H118 0.930 . S
N113 Li89 1.990 . S
N113 C112 1.314 . S
N113 C116 1.279 . S
C114 C112 1.353 . S
C114 C117 1.348 . S
C114 H162 0.929 . S
C115 C116 1.358 . S
C115 C117 1.356 . S
C115 H163 0.930 . S
C116 N113 1.279 . S
C116 C115 1.358 . S
C116 H119 0.930 . S
C117 C114 1.348 . S
C117 C115 1.356 . S
H118 C112 0.930 . S
H119 C116 0.930 . S
C120 C122 1.348 . S
C120 C123 1.356 . S
C120 O150 1.325 . S
N121 C124 1.314 . S
N121 C125 1.279 . S
C122 C120 1.348 . S
C122 C124 1.353 . S
C122 H164 0.929 . S
C123 C120 1.356 . S
C123 C125 1.358 . S
C123 H165 0.930 . S
C124 N121 1.314 . S
C124 C122 1.353 . S
C124 H166 0.930 . S
C125 N121 1.279 . S
C125 C123 1.358 . S
C125 H167 0.930 . S
C126 C127 1.348 . S
C126 C128 1.356 . S
C126 O151 1.325 . S
C127 C126 1.348 . S
C127 C129 1.353 . S
C127 H168 0.929 . S
C128 C126 1.356 . S
C128 C130 1.358 . S
C128 H169 0.930 . S
C129 C127 1.353 . S
C129 N131 1.314 . S
C129 H170 0.930 . S
C130 C128 1.358 . S
C130 N131 1.279 . S
C130 H171 0.930 . S
N131 C129 1.314 . S
N131 C130 1.279 . S
C132 C134 1.353 . S
C132 N135 1.314 . S
C132 H138 0.930 . S
C133 N135 1.279 . S
C133 C136 1.358 . S
C133 H139 0.930 . S
C134 C132 1.353 . S
C134 C137 1.348 . S
C134 H172 0.929 . S
N135 Li90 1.990 . S
N135 C132 1.314 . S
N135 C133 1.279 . S
C136 C133 1.358 . S
C136 C137 1.356 . S
C136 H173 0.930 . S
C137 C134 1.348 . S
C137 C136 1.356 . S
H138 C132 0.930 . S
H139 C133 0.930 . S
C140 N141 1.314 . S
C140 C142 1.353 . S
C140 H146 0.930 . S
N141 Li91 1.990 . S
N141 C140 1.314 . S
N141 C144 1.279 . S
C142 C140 1.353 . S
C142 C145 1.348 . S
C142 H174 0.929 . S
C143 C144 1.358 . S
C143 C145 1.356 . S
C143 H175 0.930 . S
C144 N141 1.279 . S
C144 C143 1.358 . S
C144 H147 0.930 . S
C145 C142 1.348 . S
C145 C143 1.356 . S
H146 C140 0.930 . S
H147 C144 0.930 . S
O148 Li88 1.956 . S
O148 Li89 1.970 . S
O148 Li90 1.961 1_545 S
O148 C92 1.325 . S
O149 Li88 1.970 . S
O149 Li89 1.956 . S
O149 Li91 1.961 1_545 S
O149 C98 1.325 . S
O150 Li88 1.961 1_565 S
O150 Li90 1.956 . S
O150 Li91 1.970 . S
O150 C120 1.325 . S
O151 Li89 1.961 1_565 S
O151 Li90 1.970 . S
O151 Li91 1.956 . S
O151 C126 1.325 . S
H152 C94 0.929 . S
H153 C95 0.930 . S
H154 C96 0.930 . S
H155 C97 0.930 . S
H156 C99 0.930 . S
H157 C101 0.929 . S
H158 C102 0.930 . S
H159 C103 0.930 . S
H160 C106 0.930 . S
H161 C109 0.929 . S
H162 C114 0.929 . S
H163 C115 0.930 . S
H164 C122 0.929 . S
H165 C123 0.930 . S
H166 C124 0.930 . S
H167 C125 0.930 . S
H168 C127 0.929 . S
H169 C128 0.930 . S
H170 C129 0.930 . S
H171 C130 0.930 . S
H172 C134 0.929 . S
H173 C136 0.930 . S
H174 C142 0.929 . S
H175 C143 0.930 . S
Li176 N193 1.990 . S
Li176 O236 1.956 . S
Li176 O237 1.970 . S
Li176 O238 1.961 . S
Li177 N201 1.990 . S
Li177 O236 1.970 . S
Li177 O237 1.956 . S
Li177 O239 1.961 . S
Li178 N223 1.990 . S
Li178 O236 1.961 . S
Li178 O238 1.956 . S
Li178 O239 1.970 . S
Li179 N229 1.990 . S
Li179 O237 1.961 . S
Li179 O238 1.970 . S
Li179 O239 1.956 . S
C180 C182 1.348 . S
C180 C183 1.356 . S
C180 O236 1.325 . S
N181 C184 1.314 . S
N181 C185 1.279 . S
C182 C180 1.348 . S
C182 C184 1.353 . S
C182 H240 0.929 . S
C183 C180 1.356 . S
C183 C185 1.358 . S
C183 H241 0.930 . S
C184 N181 1.314 . S
C184 C182 1.353 . S
C184 H242 0.930 . S
C185 N181 1.279 . S
C185 C183 1.358 . S
C185 H243 0.930 . S
C186 C189 1.348 . S
C186 C190 1.356 . S
C186 O237 1.325 . S
C187 N188 1.279 . S
C187 C190 1.358 . S
C187 H244 0.930 . S
N188 C187 1.279 . S
N188 C191 1.314 . S
C189 C186 1.348 . S
C189 C191 1.353 . S
C189 H245 0.929 . S
C190 C186 1.356 . S
C190 C187 1.358 . S
C190 H246 0.930 . S
C191 N188 1.314 . S
C191 C189 1.353 . S
C191 H247 0.930 . S
C192 N193 1.314 . S
C192 C197 1.353 . S
C192 H198 0.930 . S
N193 Li176 1.990 . S
N193 C192 1.314 . S
N193 C195 1.279 . S
C194 C195 1.358 . S
C194 C196 1.356 . S
C194 H248 0.930 . S
C195 N193 1.279 . S
C195 C194 1.358 . S
C195 H199 0.930 . S
C196 C194 1.356 . S
C196 C197 1.348 . S
C197 C192 1.353 . S
C197 C196 1.348 . S
C197 H249 0.929 . S
H198 C192 0.930 . S
H199 C195 0.930 . S
C200 N201 1.314 . S
C200 C202 1.353 . S
C200 H206 0.930 . S
N201 Li177 1.990 . S
N201 C200 1.314 . S
N201 C204 1.279 . S
C202 C200 1.353 . S
C202 C205 1.348 . S
C202 H250 0.929 . S
C203 C204 1.358 . S
C203 C205 1.356 . S
C203 H251 0.930 . S
C204 N201 1.279 . S
C204 C203 1.358 . S
C204 H207 0.930 . S
C205 C202 1.348 . S
C205 C203 1.356 . S
H206 C200 0.930 . S
H207 C204 0.930 . S
C208 C210 1.348 . S
C208 C211 1.356 . S
C208 O238 1.325 . S
N209 C212 1.314 . S
N209 C213 1.279 . S
C210 C208 1.348 . S
C210 C212 1.353 . S
C210 H252 0.929 . S
C211 C208 1.356 . S
C211 C213 1.358 . S
C211 H253 0.930 . S
C212 N209 1.314 . S
C212 C210 1.353 . S
C212 H254 0.930 . S
C213 N209 1.279 . S
C213 C211 1.358 . S
C213 H255 0.930 . S
C214 C215 1.348 . S
C214 C216 1.356 . S
C214 O239 1.325 . S
C215 C214 1.348 . S
C215 C217 1.353 . S
C215 H256 0.929 . S
C216 C214 1.356 . S
C216 C218 1.358 . S
C216 H257 0.930 . S
C217 C215 1.353 . S
C217 N219 1.314 . S
C217 H258 0.930 . S
C218 C216 1.358 . S
C218 N219 1.279 . S
C218 H259 0.930 . S
N219 C217 1.314 . S
N219 C218 1.279 . S
C220 C222 1.353 . S
C220 N223 1.314 . S
C220 H226 0.930 . S
C221 N223 1.279 . S
C221 C224 1.358 . S
C221 H227 0.930 . S
C222 C220 1.353 . S
C222 C225 1.348 . S
C222 H260 0.929 . S
N223 Li178 1.990 . S
N223 C220 1.314 . S
N223 C221 1.279 . S
C224 C221 1.358 . S
C224 C225 1.356 . S
C224 H261 0.930 . S
C225 C222 1.348 . S
C225 C224 1.356 . S
H226 C220 0.930 . S
H227 C221 0.930 . S
C228 N229 1.314 . S
C228 C230 1.353 . S
C228 H234 0.930 . S
N229 Li179 1.990 . S
N229 C228 1.314 . S
N229 C232 1.279 . S
C230 C228 1.353 . S
C230 C233 1.348 . S
C230 H262 0.929 . S
C231 C232 1.358 . S
C231 C233 1.356 . S
C231 H263 0.930 . S
C232 N229 1.279 . S
C232 C231 1.358 . S
C232 H235 0.930 . S
C233 C230 1.348 . S
C233 C231 1.356 . S
H234 C228 0.930 . S
H235 C232 0.930 . S
O236 Li176 1.956 . S
O236 Li177 1.970 . S
O236 Li178 1.961 . S
O236 C180 1.325 . S
O237 Li176 1.970 . S
O237 Li177 1.956 . S
O237 Li179 1.961 . S
O237 C186 1.325 . S
O238 Li176 1.961 . S
O238 Li178 1.956 . S
O238 Li179 1.970 . S
O238 C208 1.325 . S
O239 Li177 1.961 . S
O239 Li178 1.970 . S
O239 Li179 1.956 . S
O239 C214 1.325 . S
H240 C182 0.929 . S
H241 C183 0.930 . S
H242 C184 0.930 . S
H243 C185 0.930 . S
H244 C187 0.930 . S
H245 C189 0.929 . S
H246 C190 0.930 . S
H247 C191 0.930 . S
H248 C194 0.930 . S
H249 C197 0.929 . S
H250 C202 0.929 . S
H251 C203 0.930 . S
H252 C210 0.929 . S
H253 C211 0.930 . S
H254 C212 0.930 . S
H255 C213 0.930 . S
H256 C215 0.929 . S
H257 C216 0.930 . S
H258 C217 0.930 . S
H259 C218 0.930 . S
H260 C222 0.929 . S
H261 C224 0.930 . S
H262 C230 0.929 . S
H263 C231 0.930 . S
C264 C265 1.391 . S
C264 C266 1.394 . S
C264 H280 0.931 . S
C265 C264 1.391 . S
C265 C269 1.376 . S
C266 C264 1.394 . S
C266 C267 1.369 . S
C266 C270 1.531 . S
C267 C266 1.369 . S
C267 C268 1.410 . S
C267 C275 1.503 1_556 S
C268 C267 1.410 . S
C268 C269 1.392 . S
C268 C271 1.511 1_556 S
C269 C265 1.376 . S
C269 C268 1.392 . S
C269 H281 0.929 . S
C270 C266 1.531 . S
C270 H282 0.960 . S
C270 H283 0.962 . S
C270 H284 0.960 . S
C271 C268 1.511 1_554 S
C271 H285 0.961 . S
C271 H286 0.961 . S
C271 H287 0.961 . S
C272 C273 1.370 . S
C272 C274 1.363 . S
C272 H288 0.931 . S
C273 C272 1.370 . S
C273 C277 1.408 . S
C274 C272 1.363 . S
C274 C275 1.370 . S
C274 C278 1.524 . S
C275 C267 1.503 1_554 S
C275 C274 1.370 . S
C275 C276 1.403 . S
C276 C275 1.403 . S
C276 C277 1.404 . S
C276 C279 1.539 1_554 S
C277 C273 1.408 . S
C277 C276 1.404 . S
C277 H289 0.930 . S
C278 C274 1.524 . S
C278 H290 0.956 . S
C278 H291 0.961 . S
C278 H292 0.961 . S
C279 C276 1.539 1_556 S
C279 H293 0.958 . S
C279 H294 0.961 . S
C279 H295 0.960 . S
H280 C264 0.931 . S
H281 C269 0.929 . S
H282 C270 0.960 . S
H283 C270 0.962 . S
H284 C270 0.960 . S
H285 C271 0.961 . S
H286 C271 0.961 . S
H287 C271 0.961 . S
H288 C272 0.931 . S
H289 C277 0.930 . S
H290 C278 0.956 . S
H291 C278 0.961 . S
H292 C278 0.961 . S
H293 C279 0.958 . S
H294 C279 0.961 . S
H295 C279 0.960 . S
C296 C297 1.391 . S
C296 C298 1.394 . S
C296 H312 0.931 . S
C297 C296 1.391 . S
C297 C301 1.376 . S
C298 C296 1.394 . S
C298 C299 1.369 . S
C298 C302 1.531 . S
C299 C298 1.369 . S
C299 C300 1.410 . S
C299 C307 1.503 . S
C300 C299 1.410 . S
C300 C301 1.392 . S
C300 C303 1.511 . S
C301 C297 1.376 . S
C301 C300 1.392 . S
C301 H313 0.929 . S
C302 C298 1.531 . S
C302 H314 0.960 . S
C302 H315 0.962 . S
C302 H316 0.960 . S
C303 C300 1.511 . S
C303 H317 0.961 . S
C303 H318 0.961 . S
C303 H319 0.961 . S
C304 C305 1.370 . S
C304 C306 1.363 . S
C304 H320 0.931 . S
C305 C304 1.370 . S
C305 C309 1.408 . S
C306 C304 1.363 . S
C306 C307 1.370 . S
C306 C310 1.524 . S
C307 C299 1.503 . S
C307 C306 1.370 . S
C307 C308 1.403 . S
C308 C307 1.403 . S
C308 C309 1.404 . S
C308 C311 1.539 . S
C309 C305 1.408 . S
C309 C308 1.404 . S
C309 H321 0.930 . S
C310 C306 1.524 . S
C310 H322 0.956 . S
C310 H323 0.961 . S
C310 H324 0.961 . S
C311 C308 1.539 . S
C311 H325 0.958 . S
C311 H326 0.961 . S
C311 H327 0.960 . S
H312 C296 0.931 . S
H313 C301 0.929 . S
H314 C302 0.960 . S
H315 C302 0.962 . S
H316 C302 0.960 . S
H317 C303 0.961 . S
H318 C303 0.961 . S
H319 C303 0.961 . S
H320 C304 0.931 . S
H321 C309 0.930 . S
H322 C310 0.956 . S
H323 C310 0.961 . S
H324 C310 0.961 . S
H325 C311 0.958 . S
H326 C311 0.961 . S
H327 C311 0.960 . S
C328 C329 1.391 . S
C328 C330 1.394 . S
C328 H344 0.931 . S
C329 C328 1.391 . S
C329 C333 1.376 . S
C330 C328 1.394 . S
C330 C331 1.369 . S
C330 C334 1.531 . S
C331 C330 1.369 . S
C331 C332 1.410 . S
C331 C339 1.503 . S
C332 C331 1.410 . S
C332 C333 1.392 . S
C332 C335 1.511 . S
C333 C329 1.376 . S
C333 C332 1.392 . S
C333 H345 0.929 . S
C334 C330 1.531 . S
C334 H346 0.960 . S
C334 H347 0.962 . S
C334 H348 0.960 . S
C335 C332 1.511 . S
C335 H349 0.961 . S
C335 H350 0.961 . S
C335 H351 0.961 . S
C336 C337 1.370 . S
C336 C338 1.363 . S
C336 H352 0.931 . S
C337 C336 1.370 . S
C337 C341 1.408 . S
C338 C336 1.363 . S
C338 C339 1.370 . S
C338 C342 1.524 . S
C339 C331 1.503 . S
C339 C338 1.370 . S
C339 C340 1.403 . S
C340 C339 1.403 . S
C340 C341 1.404 . S
C340 C343 1.539 . S
C341 C337 1.408 . S
C341 C340 1.404 . S
C341 H353 0.930 . S
C342 C338 1.524 . S
C342 H354 0.956 . S
C342 H355 0.961 . S
C342 H356 0.961 . S
C343 C340 1.539 . S
C343 H357 0.958 . S
C343 H358 0.961 . S
C343 H359 0.960 . S
H344 C328 0.931 . S
H345 C333 0.929 . S
H346 C334 0.960 . S
H347 C334 0.962 . S
H348 C334 0.960 . S
H349 C335 0.961 . S
H350 C335 0.961 . S
H351 C335 0.961 . S
H352 C336 0.931 . S
H353 C341 0.930 . S
H354 C342 0.956 . S
H355 C342 0.961 . S
H356 C342 0.961 . S
H357 C343 0.958 . S
H358 C343 0.961 . S
H359 C343 0.960 . S
C360 C361 1.391 . S
C360 C362 1.394 . S
C360 H376 0.931 . S
C361 C360 1.391 . S
C361 C365 1.376 . S
C362 C360 1.394 . S
C362 C363 1.369 . S
C362 C366 1.531 . S
C363 C362 1.369 . S
C363 C364 1.410 . S
C363 C371 1.503 1_556 S
C364 C363 1.410 . S
C364 C365 1.392 . S
C364 C367 1.511 1_556 S
C365 C361 1.376 . S
C365 C364 1.392 . S
C365 H377 0.929 . S
C366 C362 1.531 . S
C366 H378 0.960 . S
C366 H379 0.962 . S
C366 H380 0.960 . S
C367 C364 1.511 1_554 S
C367 H381 0.961 . S
C367 H382 0.961 . S
C367 H383 0.961 . S
C368 C369 1.370 . S
C368 C370 1.363 . S
C368 H384 0.931 . S
C369 C368 1.370 . S
C369 C373 1.408 . S
C370 C368 1.363 . S
C370 C371 1.370 . S
C370 C374 1.524 1_554 S
C371 C363 1.503 1_554 S
C371 C370 1.370 . S
C371 C372 1.403 . S
C372 C371 1.403 . S
C372 C373 1.404 . S
C372 C375 1.539 . S
C373 C369 1.408 . S
C373 C372 1.404 . S
C373 H385 0.930 . S
C374 C370 1.524 1_556 S
C374 H386 0.956 . S
C374 H387 0.961 . S
C374 H388 0.961 . S
C375 C372 1.539 . S
C375 H389 0.958 . S
C375 H390 0.961 . S
C375 H391 0.960 . S
H376 C360 0.931 . S
H377 C365 0.929 . S
H378 C366 0.960 . S
H379 C366 0.962 . S
H380 C366 0.960 . S
H381 C367 0.961 . S
H382 C367 0.961 . S
H383 C367 0.961 . S
H384 C368 0.931 . S
H385 C373 0.930 . S
H386 C374 0.956 . S
H387 C374 0.961 . S
H388 C374 0.961 . S
H389 C375 0.958 . S
H390 C375 0.961 . S
H391 C375 0.960 . S
C392 C393 1.391 . S
C392 C394 1.394 . S
C392 H408 0.931 . S
C393 C392 1.391 . S
C393 C397 1.376 . S
C394 C392 1.394 . S
C394 C395 1.369 . S
C394 C398 1.531 . S
C395 C394 1.369 . S
C395 C396 1.410 . S
C395 C403 1.503 . S
C396 C395 1.410 . S
C396 C397 1.392 . S
C396 C399 1.511 . S
C397 C393 1.376 . S
C397 C396 1.392 . S
C397 H409 0.929 . S
C398 C394 1.531 . S
C398 H410 0.960 . S
C398 H411 0.962 . S
C398 H412 0.960 . S
C399 C396 1.511 . S
C399 H413 0.961 . S
C399 H414 0.961 . S
C399 H415 0.961 . S
C400 C401 1.370 . S
C400 C402 1.363 . S
C400 H416 0.931 . S
C401 C400 1.370 . S
C401 C405 1.408 . S
C402 C400 1.363 . S
C402 C403 1.370 . S
C402 C406 1.524 . S
C403 C395 1.503 . S
C403 C402 1.370 . S
C403 C404 1.403 . S
C404 C403 1.403 . S
C404 C405 1.404 . S
C404 C407 1.539 . S
C405 C401 1.408 . S
C405 C404 1.404 . S
C405 H417 0.930 . S
C406 C402 1.524 . S
C406 H418 0.956 . S
C406 H419 0.961 . S
C406 H420 0.961 . S
C407 C404 1.539 . S
C407 H421 0.958 . S
C407 H422 0.961 . S
C407 H423 0.960 . S
H408 C392 0.931 . S
H409 C397 0.929 . S
H410 C398 0.960 . S
H411 C398 0.962 . S
H412 C398 0.960 . S
H413 C399 0.961 . S
H414 C399 0.961 . S
H415 C399 0.961 . S
H416 C400 0.931 . S
H417 C405 0.930 . S
H418 C406 0.956 . S
H419 C406 0.961 . S
H420 C406 0.961 . S
H421 C407 0.958 . S
H422 C407 0.961 . S
H423 C407 0.960 . S
C424 C425 1.391 . S
C424 C426 1.394 . S
C424 H440 0.931 . S
C425 C424 1.391 . S
C425 C429 1.376 . S
C426 C424 1.394 . S
C426 C427 1.369 . S
C426 C430 1.531 . S
C427 C426 1.369 . S
C427 C428 1.410 . S
C427 C435 1.503 . S
C428 C427 1.410 . S
C428 C429 1.392 . S
C428 C431 1.511 . S
C429 C425 1.376 . S
C429 C428 1.392 . S
C429 H441 0.929 . S
C430 C426 1.531 . S
C430 H442 0.960 . S
C430 H443 0.962 . S
C430 H444 0.960 . S
C431 C428 1.511 . S
C431 H445 0.961 . S
C431 H446 0.961 . S
C431 H447 0.961 . S
C432 C433 1.370 . S
C432 C434 1.363 . S
C432 H448 0.931 . S
C433 C432 1.370 . S
C433 C437 1.408 . S
C434 C432 1.363 . S
C434 C435 1.370 . S
C434 C438 1.524 . S
C435 C427 1.503 . S
C435 C434 1.370 . S
C435 C436 1.403 . S
C436 C435 1.403 . S
C436 C437 1.404 . S
C436 C439 1.539 . S
C437 C433 1.408 . S
C437 C436 1.404 . S
C437 H449 0.930 . S
C438 C434 1.524 . S
C438 H450 0.956 . S
C438 H451 0.961 . S
C438 H452 0.961 . S
C439 C436 1.539 . S
C439 H453 0.958 . S
C439 H454 0.961 . S
C439 H455 0.960 . S
H440 C424 0.931 . S
H441 C429 0.929 . S
H442 C430 0.960 . S
H443 C430 0.962 . S
H444 C430 0.960 . S
H445 C431 0.961 . S
H446 C431 0.961 . S
H447 C431 0.961 . S
H448 C432 0.931 . S
H449 C437 0.930 . S
H450 C438 0.956 . S
H451 C438 0.961 . S
H452 C438 0.961 . S
H453 C439 0.958 . S
H454 C439 0.961 . S
H455 C439 0.960 . S
C265 C225 1.213 . S
C273 C20 1.205 . S
C297 C49 1.213 . S
C305 C108 1.206 . S
C329 C137 1.187 . S
C337 C233 1.196 . S
C361 C205 1.208 . S
C369 C57 1.207 . S
C393 C145 1.204 . S
C401 C29 1.201 . S
C425 C196 1.188 . S
C433 C117 1.194 . S
