# Generated by pormake.
# Topology uov, (4)-cn, num edge types: 1
# Building blocks:
#     Node 0, Type 0, BuildingBlock: ICAMEG_clean_sbu_1, # of connection points: 4
#     Node 1, Type 0, BuildingBlock: ICAMEG_clean_sbu_1, # of connection points: 4
#     Node 2, Type 0, BuildingBlock: ICAMEG_clean_sbu_1, # of connection points: 4
#     Node 3, Type 0, BuildingBlock: ICAMEG_clean_sbu_1, # of connection points: 4
#     Node 4, Type 0, BuildingBlock: ICAMEG_clean_sbu_1, # of connection points: 4
#     Node 5, Type 0, BuildingBlock: ICAMEG_clean_sbu_1, # of connection points: 4
#     Node 6, Type 0, BuildingBlock: ICAMEG_clean_sbu_1, # of connection points: 4
#     Node 7, Type 0, BuildingBlock: ICAMEG_clean_sbu_1, # of connection points: 4
#     Edge 8, Type (0, 0), BuildingBlock: OJICUG_clean_linker_0, # of connection points: 2
#     Edge 9, Type (0, 0), BuildingBlock: OJICUG_clean_linker_0, # of connection points: 2
#     Edge 10, Type (0, 0), BuildingBlock: OJICUG_clean_linker_0, # of connection points: 2
#     Edge 11, Type (0, 0), BuildingBlock: OJICUG_clean_linker_0, # of connection points: 2
#     Edge 12, Type (0, 0), BuildingBlock: OJICUG_clean_linker_0, # of connection points: 2
#     Edge 13, Type (0, 0), BuildingBlock: OJICUG_clean_linker_0, # of connection points: 2
#     Edge 14, Type (0, 0), BuildingBlock: OJICUG_clean_linker_0, # of connection points: 2
#     Edge 15, Type (0, 0), BuildingBlock: OJICUG_clean_linker_0, # of connection points: 2
#     Edge 16, Type (0, 0), BuildingBlock: OJICUG_clean_linker_0, # of connection points: 2
#     Edge 17, Type (0, 0), BuildingBlock: OJICUG_clean_linker_0, # of connection points: 2
#     Edge 18, Type (0, 0), BuildingBlock: OJICUG_clean_linker_0, # of connection points: 2
#     Edge 19, Type (0, 0), BuildingBlock: OJICUG_clean_linker_0, # of connection points: 2
#     Edge 20, Type (0, 0), BuildingBlock: OJICUG_clean_linker_0, # of connection points: 2
#     Edge 21, Type (0, 0), BuildingBlock: OJICUG_clean_linker_0, # of connection points: 2
#     Edge 22, Type (0, 0), BuildingBlock: OJICUG_clean_linker_0, # of connection points: 2
#     Edge 23, Type (0, 0), BuildingBlock: OJICUG_clean_linker_0, # of connection points: 2
# Relax obj value: 0.046
# Max RMSD: 0.048
# Mean RMSD: 0.048
data_MOF--net-uov--node1-ICAMEG_clean_sbu_1--edge1-OJICUG_clean_linker_0
_symmetry_space_group_name_H-M    P1
_symmetry_Int_Tables_number       1
_symmetry_cell_setting            triclinic
loop_
_symmetry_equiv_pos_as_xyz
'x, y, z'
_cell_length_a     23.824218
_cell_length_b     23.891628
_cell_length_c     35.341287
_cell_angle_alpha  90.004638
_cell_angle_beta   90.000788
_cell_angle_gamma 89.999235
loop_
_atom_site_label
_atom_site_type_symbol
_atom_site_fract_x
_atom_site_fract_y
_atom_site_fract_z
_atom_type_partial_charge
Co0 Co 0.08168 0.19231 0.61549 0.0
Co1 Co 0.10777 0.29708 0.5518 0.0
O2 O 0.09931 0.27078 0.60436 0.0
C3 C 0.16184 0.22963 0.67806 0.0
O4 O 0.16719 0.28024 0.66414 0.0
C5 C 0.0403 0.38513 0.58991 0.0
O6 O 0.01528 0.34635 0.61 0.0
O7 O 0.03042 0.27245 0.54071 0.0
O8 O 0.02941 0.18886 0.57011 0.0
H9 H 0.08886 0.283 0.41037 0.0
H10 H 0.06084 0.28197 0.6731 0.0
O11 O 0.13175 0.19296 0.66138 0.0
H12 H 0.88264 0.17873 0.66208 0.0
H13 H 0.06167 0.02315 0.6992 0.0
H14 H 0.07149 0.09098 0.56764 0.0
H15 H 0.96452 0.15164 0.62372 0.0
H16 H 0.06175 0.12436 0.68552 0.0
O17 O 0.07868 0.37254 0.56639 0.0
H18 H 0.0813 0.24956 0.47612 0.0
H19 H 0.14849 0.40302 0.51655 0.0
H20 H 0.0711 0.98947 0.58006 0.0
H21 H 0.98053 0.30984 0.71248 0.0
H22 H 0.06813 0.95496 0.64629 0.0
H23 H 0.89038 0.25824 0.70708 0.0
O24 O 0.14692 0.16827 0.58474 0.0
H25 H 0.25638 0.39503 0.62785 0.0
H26 H 0.21921 0.27945 0.515 0.0
H27 H 0.31631 0.30786 0.5296 0.0
H28 H 0.3354 0.36617 0.58635 0.0
H29 H 0.15995 0.36519 0.61237 0.0
H30 H 0.15641 0.43827 0.4512 0.0
H31 H 0.12663 0.37804 0.39754 0.0
O32 O 0.13563 0.22246 0.53405 0.0
C33 C 0.0089 0.22437 0.54656 0.0
C34 C 0.10214 0.30959 0.4335 0.0
C35 C 0.13998 0.39675 0.45642 0.0
N36 N 0.11478 0.32409 0.50019 0.0
C37 C 0.09811 0.29081 0.47082 0.0
C38 C 0.1353 0.37657 0.49338 0.0
C39 C 0.12328 0.36293 0.42633 0.0
C40 C 0.02232 0.25865 0.67088 0.0
N41 N 0.01784 0.21484 0.64623 0.0
C42 C 0.97668 0.27495 0.69312 0.0
C43 C 0.92608 0.24608 0.69002 0.0
C44 C 0.92169 0.20154 0.66475 0.0
C45 C 0.9682 0.18652 0.64296 0.0
C46 C 0.06378 0.03771 0.67023 0.0
C47 C 0.06855 0.07637 0.59649 0.0
C48 C 0.06346 0.09499 0.66228 0.0
N49 N 0.06717 0.11369 0.6258 0.0
C50 C 0.069 0.0188 0.60336 0.0
C51 C 0.06751 -0.00054 0.64055 0.0
C52 C 0.1543 0.17848 0.5499 0.0
C53 C 0.24862 0.3696 0.60305 0.0
C54 C 0.2272 0.30438 0.53994 0.0
C55 C 0.28226 0.32057 0.54796 0.0
C56 C 0.29294 0.35335 0.57978 0.0
N57 N 0.18398 0.32039 0.56297 0.0
C58 C 0.19409 0.35267 0.59412 0.0
Co59 Co 0.1906 0.92124 0.38869 0.0
Co60 Co 0.29745 0.89397 0.45012 0.0
O61 O 0.26948 0.90393 0.39833 0.0
C62 C 0.20888 0.82678 0.33287 0.0
O63 O 0.22541 0.79188 0.35933 0.0
C64 C 0.38289 0.96602 0.41336 0.0
O65 O 0.34188 0.99355 0.39701 0.0
O66 O 0.27208 0.97045 0.4628 0.0
O67 O 0.18677 0.97019 0.43537 0.0
H68 H 0.2885 0.90871 0.59192 0.0
H69 H 0.27718 0.9431 0.33023 0.0
O70 O 0.19383 0.87633 0.34115 0.0
H71 H 0.17737 0.12224 0.3469 0.0
H72 H 0.02008 0.94106 0.30597 0.0
H73 H 0.08927 0.92815 0.43711 0.0
H74 H 0.14984 0.03888 0.38359 0.0
H75 H 0.12158 0.94312 0.31933 0.0
O76 O 0.37243 0.92417 0.43453 0.0
H77 H 0.25252 0.91801 0.52685 0.0
H78 H 0.40514 0.85293 0.48298 0.0
H79 H 0.98739 0.92727 0.42505 0.0
H80 H 0.30584 0.02517 0.29253 0.0
H81 H 0.95227 0.93157 0.35896 0.0
H82 H 0.25593 0.11564 0.30087 0.0
O83 O 0.16769 0.85429 0.41826 0.0
H84 H 0.38932 0.74922 0.36782 0.0
H85 H 0.28426 0.78165 0.48604 0.0
H86 H 0.31206 0.68552 0.46877 0.0
H87 H 0.36508 0.66886 0.40931 0.0
H88 H 0.36029 0.84465 0.38607 0.0
H89 H 0.44295 0.8433 0.54762 0.0
H90 H 0.3844 0.8711 0.60266 0.0
O91 O 0.22338 0.86463 0.4685 0.0
C92 C 0.22313 0.99101 0.45818 0.0
C93 C 0.31434 0.89623 0.56819 0.0
C94 C 0.40105 0.85959 0.54332 0.0
N95 N 0.32644 0.88554 0.50113 0.0
C96 C 0.29411 0.90123 0.53125 0.0
C97 C 0.37943 0.86522 0.50678 0.0
C98 C 0.36817 0.87519 0.57418 0.0
C99 C 0.25526 0.98233 0.334 0.0
N100 N 0.21239 0.98648 0.35952 0.0
C101 C 0.27169 0.02866 0.31258 0.0
C102 C 0.2437 0.07941 0.3173 0.0
C103 C 0.19971 0.08318 0.34317 0.0
C104 C 0.18453 0.03598 0.3641 0.0
C105 C 0.03494 0.93834 0.33485 0.0
C106 C 0.07435 0.93198 0.40837 0.0
C107 C 0.0924 0.93982 0.34263 0.0
N108 N 0.11152 0.93514 0.37897 0.0
C109 C 0.01658 0.93073 0.40169 0.0
C110 C 0.99689 0.93298 0.3646 0.0
C111 C 0.17883 0.84619 0.453 0.0
C112 C 0.36639 0.75597 0.39386 0.0
C113 C 0.30722 0.7747 0.46008 0.0
C114 C 0.32294 0.7202 0.45049 0.0
C115 C 0.35271 0.71089 0.41713 0.0
N116 N 0.32097 0.81869 0.43717 0.0
C117 C 0.35003 0.8099 0.40439 0.0
Co118 Co 0.92068 0.8054 0.61551 0.0
Co119 Co 0.89494 0.70087 0.55163 0.0
O120 O 0.90326 0.72694 0.60426 0.0
C121 C 0.84071 0.7676 0.67807 0.0
O122 O 0.83573 0.71693 0.66419 0.0
C123 C 0.96224 0.61267 0.58972 0.0
O124 O 0.98721 0.6514 0.60989 0.0
O125 O 0.9723 0.72557 0.54071 0.0
O126 O 0.97291 0.80916 0.57013 0.0
H127 H 0.91407 0.71557 0.41025 0.0
H128 H 0.9419 0.71563 0.673 0.0
O129 O 0.87061 0.80445 0.6614 0.0
H130 H 0.11972 0.81951 0.66203 0.0
H131 H 0.94005 0.97434 0.69952 0.0
H132 H 0.93073 0.90693 0.56784 0.0
H133 H 0.03772 0.8464 0.62373 0.0
H134 H 0.94032 0.87318 0.68567 0.0
O135 O 0.92395 0.62534 0.56614 0.0
H136 H 0.92139 0.74879 0.47606 0.0
H137 H 0.85448 0.59501 0.51613 0.0
H138 H 0.93071 0.0084 0.58042 0.0
H139 H 0.02234 0.68794 0.71232 0.0
H140 H 0.93345 0.04269 0.64672 0.0
H141 H 0.1123 0.73987 0.70694 0.0
O142 O 0.85537 0.82933 0.58482 0.0
H143 H 0.74602 0.60273 0.62729 0.0
H144 H 0.78365 0.71863 0.51467 0.0
H145 H 0.68648 0.69019 0.52905 0.0
H146 H 0.66716 0.63171 0.58569 0.0
H147 H 0.84251 0.63259 0.61202 0.0
H148 H 0.8468 0.55999 0.45071 0.0
H149 H 0.87656 0.6205 0.3972 0.0
O150 O 0.86718 0.77558 0.53397 0.0
C151 C 0.99358 0.77375 0.54656 0.0
C152 C 0.90081 0.68886 0.43331 0.0
C153 C 0.86313 0.60152 0.45602 0.0
N154 N 0.88807 0.67406 0.49996 0.0
C155 C 0.90471 0.70751 0.47067 0.0
C156 C 0.86768 0.62156 0.49303 0.0
C157 C 0.87982 0.6355 0.42601 0.0
C158 C 0.98032 0.73909 0.6708 0.0
N159 N 0.98462 0.78299 0.64621 0.0
C160 C 0.02604 0.7229 0.693 0.0
C161 C 0.07653 0.75195 0.68991 0.0
C162 C 0.08075 0.79656 0.66469 0.0
C163 C 0.03417 0.81147 0.64294 0.0
C164 C 0.93803 0.95988 0.67053 0.0
C165 C 0.93353 0.92146 0.59672 0.0
C166 C 0.93855 0.90263 0.66248 0.0
N167 N 0.93496 0.88403 0.62596 0.0
C168 C 0.93286 0.979 0.60369 0.0
C169 C 0.93422 0.99821 0.6409 0.0
C170 C 0.84831 0.81939 0.54991 0.0
C171 C 0.75388 0.62823 0.60254 0.0
C172 C 0.77555 0.69362 0.53956 0.0
C173 C 0.72046 0.67741 0.54746 0.0
C174 C 0.70966 0.64455 0.57921 0.0
N175 N 0.81868 0.67754 0.56264 0.0
C176 C 0.80845 0.64518 0.59373 0.0
Co177 Co 0.81219 0.0776 0.38927 0.0
Co178 Co 0.70472 0.10337 0.45063 0.0
O179 O 0.73292 0.09404 0.39879 0.0
C180 C 0.79275 0.17127 0.33301 0.0
O181 O 0.77577 0.20621 0.35931 0.0
C182 C 0.60925 0.05113 0.40567 0.0
O183 O 0.63821 0.05119 0.37413 0.0
O184 O 0.73083 0.02701 0.46261 0.0
O185 O 0.81672 0.0292 0.43621 0.0
H186 H 0.71598 0.08678 0.59228 0.0
H187 H 0.72778 0.05411 0.32964 0.0
O188 O 0.80844 0.12199 0.34151 0.0
H189 H 0.82811 0.87599 0.3493 0.0
H190 H 0.98316 0.05924 0.30678 0.0
H191 H 0.91355 0.07231 0.43782 0.0
H192 H 0.85408 0.96028 0.38551 0.0
H193 H 0.88166 0.05617 0.32005 0.0
O194 O 0.62956 0.07119 0.43619 0.0
H195 H 0.75108 0.07889 0.52691 0.0
H196 H 0.5969 0.14244 0.48452 0.0
H197 H 0.01543 0.07402 0.42587 0.0
H198 H 0.70043 0.97102 0.29251 0.0
H199 H 0.05076 0.06957 0.35983 0.0
H200 H 0.75066 0.88106 0.30233 0.0
O201 O 0.834 0.14515 0.41851 0.0
H202 H 0.615 0.25181 0.36938 0.0
H203 H 0.71495 0.21392 0.48878 0.0
H204 H 0.68662 0.3105 0.47351 0.0
H205 H 0.63601 0.32996 0.4135 0.0
H206 H 0.64458 0.15618 0.38555 0.0
H207 H 0.55994 0.15059 0.54947 0.0
H208 H 0.61973 0.12287 0.60392 0.0
O209 O 0.77867 0.13364 0.46876 0.0
C210 C 0.78024 0.00742 0.4585 0.0
C211 C 0.6896 0.09924 0.56881 0.0
C212 C 0.602 0.13496 0.54478 0.0
N213 N 0.67635 0.11074 0.50191 0.0
C214 C 0.70934 0.09505 0.53171 0.0
C215 C 0.62314 0.13015 0.50806 0.0
C216 C 0.63558 0.11942 0.57531 0.0
C217 C 0.74943 0.01498 0.33431 0.0
N218 N 0.79155 0.01165 0.36042 0.0
C219 C 0.73393 0.96813 0.3131 0.0
C220 C 0.76215 0.91768 0.31861 0.0
C221 C 0.8055 0.91477 0.345 0.0
C222 C 0.81976 0.96249 0.36569 0.0
C223 C 0.9682 0.062 0.33564 0.0
C224 C 0.92856 0.06844 0.4091 0.0
C225 C 0.91074 0.05998 0.34337 0.0
N226 N 0.89148 0.06469 0.37968 0.0
C227 C 0.98634 0.07015 0.40248 0.0
C228 C 0.00613 0.06783 0.36542 0.0
C229 C 0.82289 0.1529 0.45327 0.0
C230 C 0.63657 0.2438 0.39578 0.0
C231 C 0.69278 0.22192 0.46265 0.0
C232 C 0.67687 0.27676 0.45416 0.0
C233 C 0.64849 0.28765 0.42049 0.0
N234 N 0.68038 0.17894 0.43848 0.0
C235 C 0.65308 0.18948 0.40525 0.0
Co236 Co 0.91987 0.19243 0.11545 0.0
Co237 Co 0.89371 0.29702 0.05165 0.0
O238 O 0.90217 0.27085 0.10423 0.0
C239 C 0.83967 0.22982 0.17799 0.0
O240 O 0.83434 0.28042 0.16406 0.0
C241 C 0.96127 0.38508 0.08961 0.0
O242 O 0.98645 0.34625 0.10958 0.0
O243 O 0.97107 0.2724 0.04058 0.0
O244 O 0.97218 0.18891 0.0701 0.0
H245 H 0.9126 0.28266 0.91024 0.0
H246 H 0.94062 0.28231 0.17292 0.0
O247 O 0.86977 0.19313 0.16133 0.0
H248 H 0.11889 0.17915 0.16214 0.0
H249 H 0.93992 0.0235 0.19937 0.0
H250 H 0.93016 0.09098 0.06773 0.0
H251 H 0.03705 0.15184 0.12381 0.0
H252 H 0.93984 0.12467 0.18557 0.0
O253 O 0.92275 0.37252 0.06619 0.0
H254 H 0.92019 0.24936 0.97601 0.0
H255 H 0.85294 0.40287 0.0163 0.0
H256 H 0.93053 0.9895 0.08027 0.0
H257 H 0.02089 0.3104 0.21227 0.0
H258 H 0.93346 0.95517 0.14655 0.0
H259 H 0.11107 0.25884 0.20698 0.0
O260 O 0.85468 0.16824 0.08471 0.0
H261 H 0.74503 0.39504 0.1276 0.0
H262 H 0.78228 0.27926 0.01485 0.0
H263 H 0.68516 0.30765 0.02942 0.0
H264 H 0.66603 0.36607 0.08612 0.0
H265 H 0.84148 0.36522 0.11216 0.0
H266 H 0.84499 0.43799 0.95092 0.0
H267 H 0.87477 0.37765 0.89732 0.0
O268 O 0.86588 0.22235 0.03397 0.0
C269 C 0.99265 0.22437 0.0465 0.0
C270 C 0.89931 0.30929 0.93334 0.0
C271 C 0.86144 0.39648 0.95618 0.0
N272 N 0.88668 0.32393 1.00002 0.0
C273 C 0.90336 0.29059 0.97068 0.0
C274 C 0.86614 0.37639 0.99315 0.0
C275 C 0.87814 0.36261 0.92611 0.0
C276 C 0.97915 0.25901 0.17075 0.0
N277 N 0.98367 0.21509 0.14619 0.0
C278 C 0.02476 0.27543 0.19298 0.0
C279 C 0.07538 0.24658 0.18994 0.0
C280 C 0.07982 0.20195 0.16476 0.0
C281 C 0.03334 0.1868 0.14298 0.0
C282 C 0.93782 0.03798 0.17039 0.0
C283 C 0.93309 0.07644 0.0966 0.0
C284 C 0.93815 0.09524 0.16237 0.0
N285 N 0.93444 0.11385 0.12586 0.0
C286 C 0.93263 0.01889 0.10354 0.0
C287 C 0.93409 -0.00034 0.14074 0.0
C288 C 0.84727 0.17839 0.04986 0.0
C289 C 0.75281 0.36957 0.10283 0.0
C290 C 0.77427 0.30424 0.03977 0.0
C291 C 0.7192 0.32042 0.04777 0.0
C292 C 0.7085 0.35325 0.07956 0.0
N293 N 0.81748 0.32031 0.06279 0.0
C294 C 0.80735 0.35264 0.09391 0.0
Co295 Co 0.18948 0.0775 0.88939 0.0
Co296 Co 0.29696 0.10329 0.95074 0.0
O297 O 0.26876 0.09393 0.8989 0.0
C298 C 0.2089 0.17111 0.83308 0.0
O299 O 0.22588 0.20608 0.85937 0.0
C300 C 0.39243 0.05101 0.90579 0.0
O301 O 0.36346 0.05107 0.87425 0.0
O302 O 0.27084 0.02694 0.96274 0.0
O303 O 0.18495 0.02915 0.93635 0.0
H304 H 0.28571 0.08679 0.0924 0.0
H305 H 0.27389 0.05391 0.82978 0.0
O306 O 0.19324 0.12184 0.8416 0.0
H307 H 0.17347 0.87585 0.84952 0.0
H308 H 0.01847 0.05916 0.80694 0.0
H309 H 0.08814 0.07227 0.93796 0.0
H310 H 0.14753 0.9602 0.88568 0.0
H311 H 0.11998 0.05606 0.82019 0.0
O312 O 0.37212 0.07108 0.93631 0.0
H313 H 0.25061 0.07887 0.02702 0.0
H314 H 0.40479 0.14236 0.98462 0.0
H315 H 0.98625 0.07399 0.92603 0.0
H316 H 0.30121 0.97076 0.7927 0.0
H317 H 0.9509 0.06952 0.86 0.0
H318 H 0.25093 0.88083 0.80256 0.0
O319 O 0.1677 0.1451 0.9186 0.0
H320 H 0.38672 0.25165 0.86945 0.0
H321 H 0.28677 0.21386 0.98886 0.0
H322 H 0.31513 0.31043 0.97357 0.0
H323 H 0.36575 0.32983 0.91355 0.0
H324 H 0.3571 0.15605 0.88564 0.0
H325 H 0.44176 0.15055 0.04957 0.0
H326 H 0.38197 0.12287 0.10402 0.0
O327 O 0.22302 0.1336 0.96886 0.0
C328 C 0.22143 0.00737 0.95865 0.0
C329 C 0.31209 0.09923 0.06892 0.0
C330 C 0.39969 0.13492 0.04488 0.0
N331 N 0.32534 0.11069 0.00202 0.0
C332 C 0.29234 0.09503 0.03182 0.0
C333 C 0.37855 0.13009 0.00816 0.0
C334 C 0.36612 0.1194 0.07542 0.0
C335 C 0.25222 0.0148 0.83447 0.0
N336 N 0.21009 0.01151 0.86058 0.0
C337 C 0.2677 0.96791 0.81329 0.0
C338 C 0.23946 0.91748 0.81882 0.0
C339 C 0.1961 0.91462 0.84521 0.0
C340 C 0.18186 0.96237 0.86587 0.0
C341 C 0.03344 0.06193 0.8358 0.0
C342 C 0.07312 0.06839 0.90925 0.0
C343 C 0.09091 0.05989 0.84352 0.0
N344 N 0.11018 0.06462 0.87982 0.0
C345 C 0.01534 0.07011 0.90264 0.0
C346 C 0.99552 0.06778 0.86558 0.0
C347 C 0.17881 0.15287 0.95336 0.0
C348 C 0.36515 0.24367 0.89585 0.0
C349 C 0.30894 0.22184 0.96273 0.0
C350 C 0.32487 0.27667 0.95422 0.0
C351 C 0.35325 0.28753 0.92056 0.0
N352 N 0.32132 0.17885 0.93857 0.0
C353 C 0.34862 0.18936 0.90533 0.0
Co354 Co 0.08093 0.80521 0.11558 0.0
Co355 Co 0.10683 0.70074 0.05166 0.0
O356 O 0.09842 0.72677 0.10429 0.0
C357 C 0.1609 0.76744 0.17815 0.0
O358 O 0.16592 0.71677 0.16429 0.0
C359 C 0.03944 0.61256 0.08966 0.0
O360 O 0.01443 0.65131 0.1098 0.0
O361 O 0.02948 0.72544 0.04068 0.0
O362 O 0.02872 0.80897 0.07018 0.0
H363 H 0.08797 0.71557 0.91026 0.0
H364 H 0.05977 0.71536 0.17302 0.0
O365 O 0.13098 0.80426 0.16147 0.0
H366 H 0.88185 0.81907 0.16204 0.0
H367 H 0.06141 0.97403 0.19967 0.0
H368 H 0.07085 0.90679 0.06795 0.0
H369 H 0.96385 0.84609 0.12379 0.0
H370 H 0.06117 0.87289 0.18577 0.0
O371 O 0.07778 0.62521 0.06612 0.0
H372 H 0.08051 0.74873 0.97608 0.0
H373 H 0.14735 0.59491 0.01616 0.0
H374 H 0.07084 0.00824 0.08059 0.0
H375 H 0.97934 0.68754 0.21229 0.0
H376 H 0.06806 0.04245 0.14691 0.0
H377 H 0.88933 0.73938 0.20691 0.0
O378 O 0.14623 0.82923 0.08491 0.0
H379 H 0.25562 0.60256 0.12741 0.0
H380 H 0.21818 0.71854 0.0148 0.0
H381 H 0.31533 0.69011 0.02926 0.0
H382 H 0.33455 0.63159 0.08589 0.0
H383 H 0.15915 0.63242 0.11207 0.0
H384 H 0.15518 0.55996 0.95073 0.0
H385 H 0.12552 0.62052 0.89721 0.0
O386 O 0.1346 0.77547 0.03405 0.0
C387 C 0.00813 0.77359 0.04656 0.0
C388 C 0.10119 0.68884 0.93333 0.0
C389 C 0.13883 0.60149 0.95604 0.0
N390 N 0.11378 0.67398 0.99999 0.0
C391 C 0.0972 0.70745 0.97069 0.0
C392 C 0.1342 0.62149 0.99305 0.0
C393 C 0.1222 0.63549 0.92603 0.0
C394 C 0.02133 0.73878 0.17081 0.0
N395 N 0.01699 0.7827 0.14624 0.0
C396 C 0.97561 0.72252 0.19299 0.0
C397 C 0.92509 0.75152 0.1899 0.0
C398 C 0.92084 0.79616 0.16471 0.0
C399 C 0.96742 0.81114 0.14298 0.0
C400 C 0.06345 0.9596 0.17067 0.0
C401 C 0.06802 0.92127 0.09684 0.0
C402 C 0.06295 0.90236 0.16259 0.0
N403 N 0.06658 0.88382 0.12606 0.0
C404 C 0.06868 0.97881 0.10384 0.0
C405 C 0.06729 0.99797 0.14106 0.0
C406 C 0.15338 0.81929 0.05002 0.0
C407 C 0.24779 0.62808 0.10266 0.0
C408 C 0.22623 0.69351 0.03969 0.0
C409 C 0.28132 0.67731 0.04762 0.0
C410 C 0.29206 0.64442 0.07937 0.0
N411 N 0.18306 0.67741 0.06272 0.0
C412 C 0.19325 0.64502 0.09381 0.0
Co413 Co 0.81105 0.92109 0.88872 0.0
Co414 Co 0.70421 0.89371 0.95014 0.0
O415 O 0.73218 0.90375 0.89836 0.0
C416 C 0.79277 0.8267 0.83283 0.0
O417 O 0.77623 0.79177 0.85927 0.0
C418 C 0.61877 0.96583 0.91344 0.0
O419 O 0.65979 0.9934 0.89713 0.0
O420 O 0.72958 0.97019 0.96287 0.0
O421 O 0.81487 0.96999 0.93541 0.0
H422 H 0.71318 0.90821 0.09196 0.0
H423 H 0.72442 0.94298 0.8303 0.0
O424 O 0.80783 0.87624 0.84115 0.0
H425 H 0.82421 0.12213 0.84698 0.0
H426 H 0.98156 0.94105 0.80599 0.0
H427 H 0.91238 0.92799 0.93714 0.0
H428 H 0.85179 0.03874 0.88362 0.0
H429 H 0.88005 0.94307 0.81935 0.0
O430 O 0.62922 0.92393 0.93457 0.0
H431 H 0.74913 0.91767 0.02689 0.0
H432 H 0.59655 0.85258 0.98297 0.0
H433 H 0.01426 0.92716 0.92507 0.0
H434 H 0.6957 0.02508 0.79263 0.0
H435 H 0.04937 0.93152 0.85898 0.0
H436 H 0.74559 0.11555 0.80099 0.0
O437 O 0.83399 0.85412 0.91826 0.0
H438 H 0.61236 0.74909 0.86773 0.0
H439 H 0.71744 0.78134 0.98597 0.0
H440 H 0.68968 0.68523 0.96862 0.0
H441 H 0.63664 0.66866 0.90915 0.0
H442 H 0.64136 0.84449 0.88606 0.0
H443 H 0.55876 0.8428 0.0476 0.0
H444 H 0.61731 0.87052 0.10266 0.0
O445 O 0.7783 0.86436 0.96849 0.0
C446 C 0.77851 0.99077 0.95825 0.0
C447 C 0.68734 0.89577 0.06821 0.0
C448 C 0.60065 0.85913 0.04331 0.0
N449 N 0.67523 0.8852 1.00115 0.0
C450 C 0.70756 0.90086 0.03128 0.0
C451 C 0.62226 0.86484 0.00678 0.0
C452 C 0.63352 0.87468 0.07419 0.0
C453 C 0.74633 0.98221 0.83407 0.0
N454 N 0.78923 0.98635 0.85957 0.0
C455 C 0.72987 0.02855 0.81268 0.0
C456 C 0.75785 0.07931 0.8174 0.0
C457 C 0.80187 0.08307 0.84325 0.0
C458 C 0.81708 0.03585 0.86416 0.0
C459 C 0.9667 0.9383 0.83487 0.0
C460 C 0.9273 0.93186 0.90839 0.0
C461 C 0.90923 0.93974 0.84266 0.0
N462 N 0.89012 0.93503 0.879 0.0
C463 C 0.98507 0.93063 0.90171 0.0
C464 C 0.00475 0.93292 0.86462 0.0
C465 C 0.82286 0.84597 0.95299 0.0
C466 C 0.6353 0.75579 0.89377 0.0
C467 C 0.69448 0.77443 0.96001 0.0
C468 C 0.67878 0.71994 0.95037 0.0
C469 C 0.649 0.71068 0.917 0.0
N470 N 0.6807 0.81846 0.93713 0.0
C471 C 0.65164 0.80972 0.90435 0.0
C472 C 0.99104 0.52613 0.55652 0.0
C473 C 0.98244 0.55462 0.59073 0.0
H474 H 0.01759 0.4503 0.52975 0.0
C475 C 0.99272 0.52705 0.62513 0.0
H476 H 0.98349 0.54673 0.52967 0.0
C477 C 0.01036 0.47105 0.62518 0.0
C478 C 0.01993 0.44311 0.59083 0.0
H479 H 0.98608 0.54841 0.6518 0.0
H480 H 0.01759 0.44999 0.65189 0.0
C481 C 0.01058 0.4712 0.55656 0.0
C482 C 0.53263 0.00066 0.4392 0.0
C483 C 0.55193 0.02778 0.40645 0.0
H484 H 0.46447 0.95876 0.46657 0.0
C485 C 0.51562 0.03345 0.37535 0.0
H486 H 0.55986 0.99561 0.46353 0.0
C487 C 0.4603 0.01364 0.37747 0.0
C488 C 0.44123 0.98628 0.41024 0.0
H489 H 0.52952 0.05446 0.34986 0.0
H490 H 0.4326 0.01936 0.35347 0.0
C491 C 0.47816 0.97939 0.44086 0.0
C492 C 0.99028 0.47148 0.05635 0.0
C493 C 0.98158 0.44308 0.09058 0.0
H494 H 0.01692 0.54723 0.02953 0.0
C495 C 0.99181 0.47072 0.12496 0.0
H496 H 0.98276 0.45082 0.02951 0.0
C497 C 0.00949 0.5267 0.12498 0.0
C498 C 0.01913 0.55456 0.09061 0.0
H499 H 0.9851 0.44942 0.15164 0.0
H500 H 0.01666 0.54782 0.15167 0.0
C501 C 0.00986 0.5264 0.05636 0.0
C502 C 0.46902 0.00046 0.9393 0.0
C503 C 0.44974 0.02764 0.90657 0.0
H504 H 0.53717 0.95848 0.96664 0.0
C505 C 0.48606 0.03336 0.87548 0.0
H506 H 0.44179 0.99538 0.96362 0.0
C507 C 0.54137 0.01353 0.87758 0.0
C508 C 0.56043 0.9861 0.91033 0.0
H509 H 0.47217 0.05442 0.85 0.0
H510 H 0.56909 0.01929 0.85359 0.0
C511 C 0.52349 0.97916 0.94095 0.0
C512 C 0.23638 0.05337 0.51473 0.0
C513 C 0.20703 0.04016 0.48129 0.0
H514 H 0.24205 0.10739 0.56322 0.0
C515 C 0.16171 0.07411 0.47037 0.0
H516 H 0.27127 0.02786 0.52412 0.0
C517 C 0.1466 0.12058 0.49194 0.0
C518 C 0.17521 0.13306 0.52561 0.0
H519 H 0.13754 0.06481 0.44527 0.0
H520 H 0.11098 0.14552 0.48302 0.0
C521 C 0.21992 0.09888 0.53707 0.0
C522 C 0.09849 0.78109 0.46569 0.0
C523 C 0.13412 0.82422 0.47777 0.0
H524 H 0.02725 0.73001 0.47854 0.0
C525 C 0.12398 0.85001 0.51287 0.0
H526 H 0.10518 0.76096 0.43859 0.0
C527 C 0.07831 0.83387 0.53513 0.0
C528 C 0.04271 0.79038 0.52334 0.0
H529 H 0.15016 0.88425 0.5225 0.0
H530 H 0.07087 0.8557 0.56146 0.0
C531 C 0.05383 0.76362 0.48858 0.0
C532 C 0.76578 0.94376 0.51422 0.0
C533 C 0.79656 0.95836 0.48163 0.0
H534 H 0.75864 0.88845 0.56195 0.0
C535 C 0.84327 0.92573 0.47153 0.0
H536 H 0.72982 0.96826 0.52301 0.0
C537 C 0.85816 0.87903 0.49296 0.0
C538 C 0.82794 0.8651 0.52572 0.0
H539 H 0.86863 0.9362 0.44719 0.0
H540 H 0.89475 0.85501 0.48469 0.0
C541 C 0.78199 0.89808 0.53646 0.0
C542 C 0.90345 0.21778 0.46595 0.0
C543 C 0.86762 0.17485 0.47808 0.0
H544 H 0.97515 0.26836 0.47863 0.0
C545 C 0.87779 0.14899 0.51315 0.0
H546 H 0.89679 0.23794 0.43886 0.0
C547 C 0.9237 0.16482 0.5353 0.0
C548 C 0.95954 0.20806 0.52343 0.0
H549 H 0.85152 0.11486 0.52282 0.0
H550 H 0.93115 0.1429 0.56159 0.0
C551 C 0.94838 0.23494 0.48872 0.0
C552 C 0.83989 0.07391 0.97039 0.0
C553 C 0.7946 0.03993 0.98134 0.0
H554 H 0.89055 0.14538 0.98299 0.0
C555 C 0.76528 0.05314 0.0148 0.0
H556 H 0.86404 0.06461 0.94529 0.0
C557 C 0.78173 0.09869 0.03711 0.0
C558 C 0.82639 0.1329 0.02561 0.0
H559 H 0.73043 0.0276 0.02421 0.0
H560 H 0.75962 0.1072 0.06327 0.0
C561 C 0.85497 0.12042 0.99194 0.0
C562 C 0.09814 0.21767 0.96593 0.0
C563 C 0.13407 0.17486 0.97814 0.0
H564 H 0.02634 0.26815 0.97849 0.0
C565 C 0.12394 0.14913 0.01327 0.0
H566 H 0.10476 0.23773 0.9388 0.0
C567 C 0.07799 0.16496 0.03538 0.0
C568 C 0.04206 0.20807 0.02342 0.0
H569 H 0.15028 0.1151 0.02301 0.0
H570 H 0.07059 0.14314 0.06171 0.0
C571 C 0.05318 0.23483 0.98866 0.0
C572 C 0.14347 0.87901 0.99311 0.0
C573 C 0.17374 0.86503 0.02584 0.0
H574 H 0.13297 0.93622 0.94737 0.0
C575 C 0.21971 0.89799 0.03658 0.0
H576 H 0.10687 0.85501 0.98485 0.0
C577 C 0.23591 0.94368 0.01435 0.0
C578 C 0.2051 0.95832 0.98178 0.0
H579 H 0.24308 0.88832 0.06205 0.0
H580 H 0.27189 0.96816 0.02313 0.0
C581 C 0.15836 0.92572 0.9717 0.0
C582 C 0.87763 0.8497 0.0129 0.0
C583 C 0.86759 0.82401 0.97776 0.0
H584 H 0.93066 0.85534 0.06153 0.0
C585 C 0.90332 0.78099 0.96564 0.0
H586 H 0.85137 0.88385 0.02256 0.0
C587 C 0.94799 0.76353 0.98852 0.0
C588 C 0.95901 0.79021 0.02333 0.0
H589 H 0.89671 0.76094 0.9385 0.0
H590 H 0.97466 0.73001 0.97845 0.0
C591 C 0.92331 0.83358 0.03516 0.0
C592 C 0.18587 0.15989 0.72772 0.0
C593 C 0.18312 0.21611 0.7164 0.0
H594 H 0.19694 0.102 0.77283 0.0
C595 C 0.19488 0.25817 0.7432 0.0
H596 H 0.17774 0.1264 0.70778 0.0
C597 C 0.20577 0.24407 0.78114 0.0
C598 C 0.20505 0.18775 0.7927 0.0
H599 H 0.19297 0.30193 0.73531 0.0
H600 H 0.2123 0.2772 0.80158 0.0
C601 C 0.19675 0.14593 0.76523 0.0
C602 C 0.1936 0.73904 0.24338 0.0
C603 C 0.18244 0.781 0.21641 0.0
H604 H 0.21074 0.72033 0.30185 0.0
C605 C 0.18605 0.83728 0.22747 0.0
H606 H 0.19101 0.69523 0.23569 0.0
C607 C 0.19717 0.85145 0.26491 0.0
C608 C 0.20484 0.80978 0.29257 0.0
H609 H 0.1784 0.87069 0.20738 0.0
H610 H 0.19803 0.89545 0.27232 0.0
C611 C 0.20471 0.75335 0.28126 0.0
C612 C 0.81559 0.83737 0.72744 0.0
C613 C 0.81919 0.7811 0.71634 0.0
H614 H 0.80363 0.89547 0.77233 0.0
C615 C 0.80802 0.7391 0.74328 0.0
H616 H 0.82324 0.87081 0.70738 0.0
C617 C 0.79692 0.75335 0.78117 0.0
C618 C 0.79681 0.80977 0.79252 0.0
H619 H 0.8106 0.69531 0.73556 0.0
H620 H 0.79089 0.7203 0.80174 0.0
C621 C 0.80448 0.85148 0.76489 0.0
C622 C 0.80473 0.14612 0.26514 0.0
C623 C 0.79654 0.18793 0.29264 0.0
H624 H 0.82363 0.1266 0.20767 0.0
C625 C 0.79588 0.24426 0.28109 0.0
H626 H 0.80449 0.10218 0.27273 0.0
C627 C 0.80673 0.25836 0.24314 0.0
C628 C 0.8184 0.21631 0.21633 0.0
H629 H 0.78942 0.27738 0.30155 0.0
H630 H 0.8087 0.30213 0.23527 0.0
C631 C 0.81557 0.16009 0.22763 0.0
loop_
_geom_bond_atom_site_label_1
_geom_bond_atom_site_label_2
_geom_bond_distance
_geom_bond_site_symmetry_2
_ccdc_geom_bond_type
Co0 O2 2.143 . S
Co0 O8 2.074 . S
Co0 O11 2.093 . S
Co0 O24 2.097 . S
Co0 N41 2.151 . S
Co0 N49 2.214 . S
Co1 O2 2.160 . S
Co1 O7 2.058 . S
Co1 O17 2.057 . S
Co1 O32 2.037 . S
Co1 N36 2.145 . S
Co1 N57 2.257 . S
O2 Co0 2.143 . S
O2 Co1 2.160 . S
C3 O4 1.278 . S
C3 O11 1.224 . S
O4 C3 1.278 . S
C5 O6 1.245 . S
C5 O17 1.232 . S
O6 C5 1.245 . S
O7 Co1 2.058 . S
O7 C33 1.269 . S
O8 Co0 2.074 . S
O8 C33 1.257 . S
H9 C34 0.930 . S
H10 C40 0.930 . S
O11 Co0 2.093 . S
O11 C3 1.224 . S
H12 C44 0.929 . S
H13 C46 0.930 1_565 S
H14 C47 0.930 . S
H15 C45 0.929 . S
H16 C48 0.928 . S
O17 Co1 2.057 . S
O17 C5 1.232 . S
H18 C37 0.929 . S
H19 C38 0.929 . S
H20 C50 0.931 1_565 S
H21 C42 0.929 . S
H22 C51 0.930 . S
H23 C43 0.931 . S
O24 Co0 2.097 . S
O24 C52 1.214 . S
H25 C53 0.929 . S
H26 C54 0.929 . S
H27 C55 0.930 . S
H28 C56 0.929 . S
H29 C58 0.930 . S
H30 C35 0.930 . S
H31 C39 0.930 . S
O32 Co1 2.037 . S
O32 C52 1.234 . S
C33 O7 1.269 . S
C33 O8 1.257 . S
C34 H9 0.930 . S
C34 C37 1.388 . S
C34 C39 1.418 . S
C35 H30 0.930 . S
C35 C38 1.404 . S
C35 C39 1.353 . S
N36 Co1 2.145 . S
N36 C37 1.397 . S
N36 C38 1.334 . S
C37 H18 0.929 . S
C37 C34 1.388 . S
C37 N36 1.397 . S
C38 H19 0.929 . S
C38 C35 1.404 . S
C38 N36 1.334 . S
C39 H31 0.930 . S
C39 C34 1.418 . S
C39 C35 1.353 . S
C40 H10 0.930 . S
C40 N41 1.330 . S
C40 C42 1.446 1_455 S
N41 Co0 2.151 . S
N41 C40 1.330 . S
N41 C45 1.418 1_455 S
C42 H21 0.929 . S
C42 C40 1.446 1_655 S
C42 C43 1.332 . S
C43 H23 0.931 . S
C43 C42 1.332 . S
C43 C44 1.267 . S
C44 H12 0.929 . S
C44 C43 1.267 . S
C44 C45 1.251 . S
C45 H15 0.929 . S
C45 N41 1.418 1_655 S
C45 C44 1.251 . S
C46 H13 0.930 1_545 S
C46 C48 1.406 . S
C46 C51 1.261 1_545 S
C47 H14 0.930 . S
C47 N49 1.325 . S
C47 C50 1.357 . S
C48 H16 0.928 . S
C48 C46 1.406 . S
C48 N49 1.261 . S
N49 Co0 2.214 . S
N49 C47 1.325 . S
N49 C48 1.261 . S
C50 H20 0.931 1_545 S
C50 C47 1.357 . S
C50 C51 1.312 1_545 S
C51 H22 0.930 . S
C51 C46 1.261 1_565 S
C51 C50 1.312 1_565 S
C52 O24 1.214 . S
C52 O32 1.234 . S
C53 H25 0.929 . S
C53 C56 1.391 . S
C53 C58 1.391 . S
C54 H26 0.929 . S
C54 C55 1.390 . S
C54 N57 1.391 . S
C55 H27 0.930 . S
C55 C54 1.390 . S
C55 C56 1.392 . S
C56 H28 0.929 . S
C56 C53 1.391 . S
C56 C55 1.392 . S
N57 Co1 2.257 . S
N57 C54 1.391 . S
N57 C58 1.388 . S
C58 H29 0.930 . S
C58 C53 1.391 . S
C58 N57 1.388 . S
Co59 O61 2.143 . S
Co59 O67 2.074 . S
Co59 O70 2.093 . S
Co59 O83 2.097 . S
Co59 N100 2.151 . S
Co59 N108 2.214 . S
Co60 O61 2.160 . S
Co60 O66 2.058 . S
Co60 O76 2.057 . S
Co60 O91 2.037 . S
Co60 N95 2.145 . S
Co60 N116 2.257 . S
O61 Co59 2.143 . S
O61 Co60 2.160 . S
C62 O63 1.278 . S
C62 O70 1.224 . S
O63 C62 1.278 . S
C64 O65 1.245 . S
C64 O76 1.232 . S
O65 C64 1.245 . S
O66 Co60 2.058 . S
O66 C92 1.269 . S
O67 Co59 2.074 . S
O67 C92 1.257 . S
H68 C93 0.930 . S
H69 C99 0.930 . S
O70 Co59 2.093 . S
O70 C62 1.224 . S
H71 C103 0.929 . S
H72 C105 0.930 1_655 S
H73 C106 0.930 . S
H74 C104 0.929 . S
H75 C107 0.928 . S
O76 Co60 2.057 . S
O76 C64 1.232 . S
H77 C96 0.929 . S
H78 C97 0.929 . S
H79 C109 0.931 1_655 S
H80 C101 0.929 . S
H81 C110 0.930 . S
H82 C102 0.931 . S
O83 Co59 2.097 . S
O83 C111 1.214 . S
H84 C112 0.929 . S
H85 C113 0.929 . S
H86 C114 0.930 . S
H87 C115 0.929 . S
H88 C117 0.930 . S
H89 C94 0.930 . S
H90 C98 0.930 . S
O91 Co60 2.037 . S
O91 C111 1.234 . S
C92 O66 1.269 . S
C92 O67 1.257 . S
C93 H68 0.930 . S
C93 C96 1.388 . S
C93 C98 1.418 . S
C94 H89 0.930 . S
C94 C97 1.404 . S
C94 C98 1.353 . S
N95 Co60 2.145 . S
N95 C96 1.397 . S
N95 C97 1.334 . S
C96 H77 0.929 . S
C96 C93 1.388 . S
C96 N95 1.397 . S
C97 H78 0.929 . S
C97 C94 1.404 . S
C97 N95 1.334 . S
C98 H90 0.930 . S
C98 C93 1.418 . S
C98 C94 1.353 . S
C99 H69 0.930 . S
C99 N100 1.330 . S
C99 C101 1.446 1_565 S
N100 Co59 2.151 . S
N100 C99 1.330 . S
N100 C104 1.418 1_565 S
C101 H80 0.929 . S
C101 C99 1.446 1_545 S
C101 C102 1.332 . S
C102 H82 0.931 . S
C102 C101 1.332 . S
C102 C103 1.267 . S
C103 H71 0.929 . S
C103 C102 1.267 . S
C103 C104 1.251 . S
C104 H74 0.929 . S
C104 N100 1.418 1_545 S
C104 C103 1.251 . S
C105 H72 0.930 1_455 S
C105 C107 1.406 . S
C105 C110 1.261 1_455 S
C106 H73 0.930 . S
C106 N108 1.325 . S
C106 C109 1.357 . S
C107 H75 0.928 . S
C107 C105 1.406 . S
C107 N108 1.261 . S
N108 Co59 2.214 . S
N108 C106 1.325 . S
N108 C107 1.261 . S
C109 H79 0.931 1_455 S
C109 C106 1.357 . S
C109 C110 1.312 1_455 S
C110 H81 0.930 . S
C110 C105 1.261 1_655 S
C110 C109 1.312 1_655 S
C111 O83 1.214 . S
C111 O91 1.234 . S
C112 H84 0.929 . S
C112 C115 1.391 . S
C112 C117 1.391 . S
C113 H85 0.929 . S
C113 C114 1.390 . S
C113 N116 1.391 . S
C114 H86 0.930 . S
C114 C113 1.390 . S
C114 C115 1.392 . S
C115 H87 0.929 . S
C115 C112 1.391 . S
C115 C114 1.392 . S
N116 Co60 2.257 . S
N116 C113 1.391 . S
N116 C117 1.388 . S
C117 H88 0.930 . S
C117 C112 1.391 . S
C117 N116 1.388 . S
Co118 O120 2.143 . S
Co118 O126 2.074 . S
Co118 O129 2.093 . S
Co118 O142 2.097 . S
Co118 N159 2.151 . S
Co118 N167 2.214 . S
Co119 O120 2.160 . S
Co119 O125 2.058 . S
Co119 O135 2.057 . S
Co119 O150 2.037 . S
Co119 N154 2.145 . S
Co119 N175 2.257 . S
O120 Co118 2.143 . S
O120 Co119 2.160 . S
C121 O122 1.278 . S
C121 O129 1.224 . S
O122 C121 1.278 . S
C123 O124 1.245 . S
C123 O135 1.232 . S
O124 C123 1.245 . S
O125 Co119 2.058 . S
O125 C151 1.269 . S
O126 Co118 2.074 . S
O126 C151 1.257 . S
H127 C152 0.930 . S
H128 C158 0.930 . S
O129 Co118 2.093 . S
O129 C121 1.224 . S
H130 C162 0.929 . S
H131 C164 0.930 1_545 S
H132 C165 0.930 . S
H133 C163 0.929 . S
H134 C166 0.928 . S
O135 Co119 2.057 . S
O135 C123 1.232 . S
H136 C155 0.929 . S
H137 C156 0.929 . S
H138 C168 0.931 1_545 S
H139 C160 0.929 . S
H140 C169 0.930 . S
H141 C161 0.931 . S
O142 Co118 2.097 . S
O142 C170 1.214 . S
H143 C171 0.929 . S
H144 C172 0.929 . S
H145 C173 0.930 . S
H146 C174 0.929 . S
H147 C176 0.930 . S
H148 C153 0.930 . S
H149 C157 0.930 . S
O150 Co119 2.037 . S
O150 C170 1.234 . S
C151 O125 1.269 . S
C151 O126 1.257 . S
C152 H127 0.930 . S
C152 C155 1.388 . S
C152 C157 1.418 . S
C153 H148 0.930 . S
C153 C156 1.404 . S
C153 C157 1.353 . S
N154 Co119 2.145 . S
N154 C155 1.397 . S
N154 C156 1.334 . S
C155 H136 0.929 . S
C155 C152 1.388 . S
C155 N154 1.397 . S
C156 H137 0.929 . S
C156 C153 1.404 . S
C156 N154 1.334 . S
C157 H149 0.930 . S
C157 C152 1.418 . S
C157 C153 1.353 . S
C158 H128 0.930 . S
C158 N159 1.330 . S
C158 C160 1.446 1_655 S
N159 Co118 2.151 . S
N159 C158 1.330 . S
N159 C163 1.418 1_655 S
C160 H139 0.929 . S
C160 C158 1.446 1_455 S
C160 C161 1.332 . S
C161 H141 0.931 . S
C161 C160 1.332 . S
C161 C162 1.267 . S
C162 H130 0.929 . S
C162 C161 1.267 . S
C162 C163 1.251 . S
C163 H133 0.929 . S
C163 N159 1.418 1_455 S
C163 C162 1.251 . S
C164 H131 0.930 1_565 S
C164 C166 1.406 . S
C164 C169 1.261 1_565 S
C165 H132 0.930 . S
C165 N167 1.325 . S
C165 C168 1.357 . S
C166 H134 0.928 . S
C166 C164 1.406 . S
C166 N167 1.261 . S
N167 Co118 2.214 . S
N167 C165 1.325 . S
N167 C166 1.261 . S
C168 H138 0.931 1_565 S
C168 C165 1.357 . S
C168 C169 1.312 1_565 S
C169 H140 0.930 . S
C169 C164 1.261 1_545 S
C169 C168 1.312 1_545 S
C170 O142 1.214 . S
C170 O150 1.234 . S
C171 H143 0.929 . S
C171 C174 1.391 . S
C171 C176 1.391 . S
C172 H144 0.929 . S
C172 C173 1.390 . S
C172 N175 1.391 . S
C173 H145 0.930 . S
C173 C172 1.390 . S
C173 C174 1.392 . S
C174 H146 0.929 . S
C174 C171 1.391 . S
C174 C173 1.392 . S
N175 Co119 2.257 . S
N175 C172 1.391 . S
N175 C176 1.388 . S
C176 H147 0.930 . S
C176 C171 1.391 . S
C176 N175 1.388 . S
Co177 O179 2.143 . S
Co177 O185 2.074 . S
Co177 O188 2.093 . S
Co177 O201 2.097 . S
Co177 N218 2.151 . S
Co177 N226 2.214 . S
Co178 O179 2.160 . S
Co178 O184 2.058 . S
Co178 O194 2.057 . S
Co178 O209 2.037 . S
Co178 N213 2.145 . S
Co178 N234 2.257 . S
O179 Co177 2.143 . S
O179 Co178 2.160 . S
C180 O181 1.278 . S
C180 O188 1.224 . S
O181 C180 1.278 . S
C182 O183 1.245 . S
C182 O194 1.232 . S
O183 C182 1.245 . S
O184 Co178 2.058 . S
O184 C210 1.269 . S
O185 Co177 2.074 . S
O185 C210 1.257 . S
H186 C211 0.930 . S
H187 C217 0.930 . S
O188 Co177 2.093 . S
O188 C180 1.224 . S
H189 C221 0.929 . S
H190 C223 0.930 1_455 S
H191 C224 0.930 . S
H192 C222 0.929 . S
H193 C225 0.928 . S
O194 Co178 2.057 . S
O194 C182 1.232 . S
H195 C214 0.929 . S
H196 C215 0.929 . S
H197 C227 0.931 1_455 S
H198 C219 0.929 . S
H199 C228 0.930 . S
H200 C220 0.931 . S
O201 Co177 2.097 . S
O201 C229 1.214 . S
H202 C230 0.929 . S
H203 C231 0.929 . S
H204 C232 0.930 . S
H205 C233 0.929 . S
H206 C235 0.930 . S
H207 C212 0.930 . S
H208 C216 0.930 . S
O209 Co178 2.037 . S
O209 C229 1.234 . S
C210 O184 1.269 . S
C210 O185 1.257 . S
C211 H186 0.930 . S
C211 C214 1.388 . S
C211 C216 1.418 . S
C212 H207 0.930 . S
C212 C215 1.404 . S
C212 C216 1.353 . S
N213 Co178 2.145 . S
N213 C214 1.397 . S
N213 C215 1.334 . S
C214 H195 0.929 . S
C214 C211 1.388 . S
C214 N213 1.397 . S
C215 H196 0.929 . S
C215 C212 1.404 . S
C215 N213 1.334 . S
C216 H208 0.930 . S
C216 C211 1.418 . S
C216 C212 1.353 . S
C217 H187 0.930 . S
C217 N218 1.330 . S
C217 C219 1.446 1_545 S
N218 Co177 2.151 . S
N218 C217 1.330 . S
N218 C222 1.418 1_545 S
C219 H198 0.929 . S
C219 C217 1.446 1_565 S
C219 C220 1.332 . S
C220 H200 0.931 . S
C220 C219 1.332 . S
C220 C221 1.267 . S
C221 H189 0.929 . S
C221 C220 1.267 . S
C221 C222 1.251 . S
C222 H192 0.929 . S
C222 N218 1.418 1_565 S
C222 C221 1.251 . S
C223 H190 0.930 1_655 S
C223 C225 1.406 . S
C223 C228 1.261 1_655 S
C224 H191 0.930 . S
C224 N226 1.325 . S
C224 C227 1.357 . S
C225 H193 0.928 . S
C225 C223 1.406 . S
C225 N226 1.261 . S
N226 Co177 2.214 . S
N226 C224 1.325 . S
N226 C225 1.261 . S
C227 H197 0.931 1_655 S
C227 C224 1.357 . S
C227 C228 1.312 1_655 S
C228 H199 0.930 . S
C228 C223 1.261 1_455 S
C228 C227 1.312 1_455 S
C229 O201 1.214 . S
C229 O209 1.234 . S
C230 H202 0.929 . S
C230 C233 1.391 . S
C230 C235 1.391 . S
C231 H203 0.929 . S
C231 C232 1.390 . S
C231 N234 1.391 . S
C232 H204 0.930 . S
C232 C231 1.390 . S
C232 C233 1.392 . S
C233 H205 0.929 . S
C233 C230 1.391 . S
C233 C232 1.392 . S
N234 Co178 2.257 . S
N234 C231 1.391 . S
N234 C235 1.388 . S
C235 H206 0.930 . S
C235 C230 1.391 . S
C235 N234 1.388 . S
Co236 O238 2.143 . S
Co236 O244 2.074 . S
Co236 O247 2.093 . S
Co236 O260 2.097 . S
Co236 N277 2.151 . S
Co236 N285 2.214 . S
Co237 O238 2.160 . S
Co237 O243 2.058 . S
Co237 O253 2.057 . S
Co237 O268 2.037 . S
Co237 N272 2.145 1_554 S
Co237 N293 2.257 . S
O238 Co236 2.143 . S
O238 Co237 2.160 . S
C239 O240 1.278 . S
C239 O247 1.224 . S
O240 C239 1.278 . S
C241 O242 1.245 . S
C241 O253 1.232 . S
O242 C241 1.245 . S
O243 Co237 2.058 . S
O243 C269 1.269 . S
O244 Co236 2.074 . S
O244 C269 1.257 . S
H245 C270 0.930 . S
H246 C276 0.930 . S
O247 Co236 2.093 . S
O247 C239 1.224 . S
H248 C280 0.929 . S
H249 C282 0.930 1_565 S
H250 C283 0.930 . S
H251 C281 0.929 . S
H252 C284 0.928 . S
O253 Co237 2.057 . S
O253 C241 1.232 . S
H254 C273 0.929 . S
H255 C274 0.929 1_554 S
H256 C286 0.931 1_565 S
H257 C278 0.929 . S
H258 C287 0.930 . S
H259 C279 0.931 . S
O260 Co236 2.097 . S
O260 C288 1.214 . S
H261 C289 0.929 . S
H262 C290 0.929 . S
H263 C291 0.930 . S
H264 C292 0.929 . S
H265 C294 0.930 . S
H266 C271 0.930 . S
H267 C275 0.930 . S
O268 Co237 2.037 . S
O268 C288 1.234 . S
C269 O243 1.269 . S
C269 O244 1.257 . S
C270 H245 0.930 . S
C270 C273 1.388 . S
C270 C275 1.418 . S
C271 H266 0.930 . S
C271 C274 1.404 . S
C271 C275 1.353 . S
N272 Co237 2.145 1_556 S
N272 C273 1.397 . S
N272 C274 1.334 . S
C273 H254 0.929 . S
C273 C270 1.388 . S
C273 N272 1.397 . S
C274 H255 0.929 1_556 S
C274 C271 1.404 . S
C274 N272 1.334 . S
C275 H267 0.930 . S
C275 C270 1.418 . S
C275 C271 1.353 . S
C276 H246 0.930 . S
C276 N277 1.330 . S
C276 C278 1.446 1_655 S
N277 Co236 2.151 . S
N277 C276 1.330 . S
N277 C281 1.418 1_655 S
C278 H257 0.929 . S
C278 C276 1.446 1_455 S
C278 C279 1.332 . S
C279 H259 0.931 . S
C279 C278 1.332 . S
C279 C280 1.267 . S
C280 H248 0.929 . S
C280 C279 1.267 . S
C280 C281 1.251 . S
C281 H251 0.929 . S
C281 N277 1.418 1_455 S
C281 C280 1.251 . S
C282 H249 0.930 1_545 S
C282 C284 1.406 . S
C282 C287 1.261 1_545 S
C283 H250 0.930 . S
C283 N285 1.325 . S
C283 C286 1.357 . S
C284 H252 0.928 . S
C284 C282 1.406 . S
C284 N285 1.261 . S
N285 Co236 2.214 . S
N285 C283 1.325 . S
N285 C284 1.261 . S
C286 H256 0.931 1_545 S
C286 C283 1.357 . S
C286 C287 1.312 1_545 S
C287 H258 0.930 . S
C287 C282 1.261 1_565 S
C287 C286 1.312 1_565 S
C288 O260 1.214 . S
C288 O268 1.234 . S
C289 H261 0.929 . S
C289 C292 1.391 . S
C289 C294 1.391 . S
C290 H262 0.929 . S
C290 C291 1.390 . S
C290 N293 1.391 . S
C291 H263 0.930 . S
C291 C290 1.390 . S
C291 C292 1.392 . S
C292 H264 0.929 . S
C292 C289 1.391 . S
C292 C291 1.392 . S
N293 Co237 2.257 . S
N293 C290 1.391 . S
N293 C294 1.388 . S
C294 H265 0.930 . S
C294 C289 1.391 . S
C294 N293 1.388 . S
Co295 O297 2.143 . S
Co295 O303 2.074 . S
Co295 O306 2.093 . S
Co295 O319 2.097 . S
Co295 N336 2.151 . S
Co295 N344 2.214 . S
Co296 O297 2.160 . S
Co296 O302 2.058 . S
Co296 O312 2.057 . S
Co296 O327 2.037 . S
Co296 N331 2.145 1_556 S
Co296 N352 2.257 . S
O297 Co295 2.143 . S
O297 Co296 2.160 . S
C298 O299 1.278 . S
C298 O306 1.224 . S
O299 C298 1.278 . S
C300 O301 1.245 . S
C300 O312 1.232 . S
O301 C300 1.245 . S
O302 Co296 2.058 . S
O302 C328 1.269 . S
O303 Co295 2.074 . S
O303 C328 1.257 . S
H304 C329 0.930 . S
H305 C335 0.930 . S
O306 Co295 2.093 . S
O306 C298 1.224 . S
H307 C339 0.929 . S
H308 C341 0.930 1_655 S
H309 C342 0.930 . S
H310 C340 0.929 . S
H311 C343 0.928 . S
O312 Co296 2.057 . S
O312 C300 1.232 . S
H313 C332 0.929 . S
H314 C333 0.929 1_556 S
H315 C345 0.931 1_655 S
H316 C337 0.929 . S
H317 C346 0.930 . S
H318 C338 0.931 . S
O319 Co295 2.097 . S
O319 C347 1.214 . S
H320 C348 0.929 . S
H321 C349 0.929 . S
H322 C350 0.930 . S
H323 C351 0.929 . S
H324 C353 0.930 . S
H325 C330 0.930 . S
H326 C334 0.930 . S
O327 Co296 2.037 . S
O327 C347 1.234 . S
C328 O302 1.269 . S
C328 O303 1.257 . S
C329 H304 0.930 . S
C329 C332 1.388 . S
C329 C334 1.418 . S
C330 H325 0.930 . S
C330 C333 1.404 . S
C330 C334 1.353 . S
N331 Co296 2.145 1_554 S
N331 C332 1.397 . S
N331 C333 1.334 . S
C332 H313 0.929 . S
C332 C329 1.388 . S
C332 N331 1.397 . S
C333 H314 0.929 1_554 S
C333 C330 1.404 . S
C333 N331 1.334 . S
C334 H326 0.930 . S
C334 C329 1.418 . S
C334 C330 1.353 . S
C335 H305 0.930 . S
C335 N336 1.330 . S
C335 C337 1.446 1_545 S
N336 Co295 2.151 . S
N336 C335 1.330 . S
N336 C340 1.418 1_545 S
C337 H316 0.929 . S
C337 C335 1.446 1_565 S
C337 C338 1.332 . S
C338 H318 0.931 . S
C338 C337 1.332 . S
C338 C339 1.267 . S
C339 H307 0.929 . S
C339 C338 1.267 . S
C339 C340 1.251 . S
C340 H310 0.929 . S
C340 N336 1.418 1_565 S
C340 C339 1.251 . S
C341 H308 0.930 1_455 S
C341 C343 1.406 . S
C341 C346 1.261 1_455 S
C342 H309 0.930 . S
C342 N344 1.325 . S
C342 C345 1.357 . S
C343 H311 0.928 . S
C343 C341 1.406 . S
C343 N344 1.261 . S
N344 Co295 2.214 . S
N344 C342 1.325 . S
N344 C343 1.261 . S
C345 H315 0.931 1_455 S
C345 C342 1.357 . S
C345 C346 1.312 1_455 S
C346 H317 0.930 . S
C346 C341 1.261 1_655 S
C346 C345 1.312 1_655 S
C347 O319 1.214 . S
C347 O327 1.234 . S
C348 H320 0.929 . S
C348 C351 1.391 . S
C348 C353 1.391 . S
C349 H321 0.929 . S
C349 C350 1.390 . S
C349 N352 1.391 . S
C350 H322 0.930 . S
C350 C349 1.390 . S
C350 C351 1.392 . S
C351 H323 0.929 . S
C351 C348 1.391 . S
C351 C350 1.392 . S
N352 Co296 2.257 . S
N352 C349 1.391 . S
N352 C353 1.388 . S
C353 H324 0.930 . S
C353 C348 1.391 . S
C353 N352 1.388 . S
Co354 O356 2.143 . S
Co354 O362 2.074 . S
Co354 O365 2.093 . S
Co354 O378 2.097 . S
Co354 N395 2.151 . S
Co354 N403 2.214 . S
Co355 O356 2.160 . S
Co355 O361 2.058 . S
Co355 O371 2.057 . S
Co355 O386 2.037 . S
Co355 N390 2.145 1_554 S
Co355 N411 2.257 . S
O356 Co354 2.143 . S
O356 Co355 2.160 . S
C357 O358 1.278 . S
C357 O365 1.224 . S
O358 C357 1.278 . S
C359 O360 1.245 . S
C359 O371 1.232 . S
O360 C359 1.245 . S
O361 Co355 2.058 . S
O361 C387 1.269 . S
O362 Co354 2.074 . S
O362 C387 1.257 . S
H363 C388 0.930 . S
H364 C394 0.930 . S
O365 Co354 2.093 . S
O365 C357 1.224 . S
H366 C398 0.929 . S
H367 C400 0.930 1_545 S
H368 C401 0.930 . S
H369 C399 0.929 . S
H370 C402 0.928 . S
O371 Co355 2.057 . S
O371 C359 1.232 . S
H372 C391 0.929 . S
H373 C392 0.929 1_554 S
H374 C404 0.931 1_545 S
H375 C396 0.929 . S
H376 C405 0.930 . S
H377 C397 0.931 . S
O378 Co354 2.097 . S
O378 C406 1.214 . S
H379 C407 0.929 . S
H380 C408 0.929 . S
H381 C409 0.930 . S
H382 C410 0.929 . S
H383 C412 0.930 . S
H384 C389 0.930 . S
H385 C393 0.930 . S
O386 Co355 2.037 . S
O386 C406 1.234 . S
C387 O361 1.269 . S
C387 O362 1.257 . S
C388 H363 0.930 . S
C388 C391 1.388 . S
C388 C393 1.418 . S
C389 H384 0.930 . S
C389 C392 1.404 . S
C389 C393 1.353 . S
N390 Co355 2.145 1_556 S
N390 C391 1.397 . S
N390 C392 1.334 . S
C391 H372 0.929 . S
C391 C388 1.388 . S
C391 N390 1.397 . S
C392 H373 0.929 1_556 S
C392 C389 1.404 . S
C392 N390 1.334 . S
C393 H385 0.930 . S
C393 C388 1.418 . S
C393 C389 1.353 . S
C394 H364 0.930 . S
C394 N395 1.330 . S
C394 C396 1.446 1_455 S
N395 Co354 2.151 . S
N395 C394 1.330 . S
N395 C399 1.418 1_455 S
C396 H375 0.929 . S
C396 C394 1.446 1_655 S
C396 C397 1.332 . S
C397 H377 0.931 . S
C397 C396 1.332 . S
C397 C398 1.267 . S
C398 H366 0.929 . S
C398 C397 1.267 . S
C398 C399 1.251 . S
C399 H369 0.929 . S
C399 N395 1.418 1_655 S
C399 C398 1.251 . S
C400 H367 0.930 1_565 S
C400 C402 1.406 . S
C400 C405 1.261 1_565 S
C401 H368 0.930 . S
C401 N403 1.325 . S
C401 C404 1.357 . S
C402 H370 0.928 . S
C402 C400 1.406 . S
C402 N403 1.261 . S
N403 Co354 2.214 . S
N403 C401 1.325 . S
N403 C402 1.261 . S
C404 H374 0.931 1_565 S
C404 C401 1.357 . S
C404 C405 1.312 1_565 S
C405 H376 0.930 . S
C405 C400 1.261 1_545 S
C405 C404 1.312 1_545 S
C406 O378 1.214 . S
C406 O386 1.234 . S
C407 H379 0.929 . S
C407 C410 1.391 . S
C407 C412 1.391 . S
C408 H380 0.929 . S
C408 C409 1.390 . S
C408 N411 1.391 . S
C409 H381 0.930 . S
C409 C408 1.390 . S
C409 C410 1.392 . S
C410 H382 0.929 . S
C410 C407 1.391 . S
C410 C409 1.392 . S
N411 Co355 2.257 . S
N411 C408 1.391 . S
N411 C412 1.388 . S
C412 H383 0.930 . S
C412 C407 1.391 . S
C412 N411 1.388 . S
Co413 O415 2.143 . S
Co413 O421 2.074 . S
Co413 O424 2.093 . S
Co413 O437 2.097 . S
Co413 N454 2.151 . S
Co413 N462 2.214 . S
Co414 O415 2.160 . S
Co414 O420 2.058 . S
Co414 O430 2.057 . S
Co414 O445 2.037 . S
Co414 N449 2.145 1_556 S
Co414 N470 2.257 . S
O415 Co413 2.143 . S
O415 Co414 2.160 . S
C416 O417 1.278 . S
C416 O424 1.224 . S
O417 C416 1.278 . S
C418 O419 1.245 . S
C418 O430 1.232 . S
O419 C418 1.245 . S
O420 Co414 2.058 . S
O420 C446 1.269 . S
O421 Co413 2.074 . S
O421 C446 1.257 . S
H422 C447 0.930 . S
H423 C453 0.930 . S
O424 Co413 2.093 . S
O424 C416 1.224 . S
H425 C457 0.929 . S
H426 C459 0.930 1_455 S
H427 C460 0.930 . S
H428 C458 0.929 . S
H429 C461 0.928 . S
O430 Co414 2.057 . S
O430 C418 1.232 . S
H431 C450 0.929 . S
H432 C451 0.929 1_556 S
H433 C463 0.931 1_455 S
H434 C455 0.929 . S
H435 C464 0.930 . S
H436 C456 0.931 . S
O437 Co413 2.097 . S
O437 C465 1.214 . S
H438 C466 0.929 . S
H439 C467 0.929 . S
H440 C468 0.930 . S
H441 C469 0.929 . S
H442 C471 0.930 . S
H443 C448 0.930 . S
H444 C452 0.930 . S
O445 Co414 2.037 . S
O445 C465 1.234 . S
C446 O420 1.269 . S
C446 O421 1.257 . S
C447 H422 0.930 . S
C447 C450 1.388 . S
C447 C452 1.418 . S
C448 H443 0.930 . S
C448 C451 1.404 . S
C448 C452 1.353 . S
N449 Co414 2.145 1_554 S
N449 C450 1.397 . S
N449 C451 1.334 . S
C450 H431 0.929 . S
C450 C447 1.388 . S
C450 N449 1.397 . S
C451 H432 0.929 1_554 S
C451 C448 1.404 . S
C451 N449 1.334 . S
C452 H444 0.930 . S
C452 C447 1.418 . S
C452 C448 1.353 . S
C453 H423 0.930 . S
C453 N454 1.330 . S
C453 C455 1.446 1_565 S
N454 Co413 2.151 . S
N454 C453 1.330 . S
N454 C458 1.418 1_565 S
C455 H434 0.929 . S
C455 C453 1.446 1_545 S
C455 C456 1.332 . S
C456 H436 0.931 . S
C456 C455 1.332 . S
C456 C457 1.267 . S
C457 H425 0.929 . S
C457 C456 1.267 . S
C457 C458 1.251 . S
C458 H428 0.929 . S
C458 N454 1.418 1_545 S
C458 C457 1.251 . S
C459 H426 0.930 1_655 S
C459 C461 1.406 . S
C459 C464 1.261 1_655 S
C460 H427 0.930 . S
C460 N462 1.325 . S
C460 C463 1.357 . S
C461 H429 0.928 . S
C461 C459 1.406 . S
C461 N462 1.261 . S
N462 Co413 2.214 . S
N462 C460 1.325 . S
N462 C461 1.261 . S
C463 H433 0.931 1_655 S
C463 C460 1.357 . S
C463 C464 1.312 1_655 S
C464 H435 0.930 . S
C464 C459 1.261 1_455 S
C464 C463 1.312 1_455 S
C465 O437 1.214 . S
C465 O445 1.234 . S
C466 H438 0.929 . S
C466 C469 1.391 . S
C466 C471 1.391 . S
C467 H439 0.929 . S
C467 C468 1.390 . S
C467 N470 1.391 . S
C468 H440 0.930 . S
C468 C467 1.390 . S
C468 C469 1.392 . S
C469 H441 0.929 . S
C469 C466 1.391 . S
C469 C468 1.392 . S
N470 Co414 2.257 . S
N470 C467 1.391 . S
N470 C471 1.388 . S
C471 H442 0.930 . S
C471 C466 1.391 . S
C471 N470 1.388 . S
C472 C473 1.387 . S
C472 H476 0.950 . S
C472 C481 1.390 1_655 S
C473 C472 1.387 . S
C473 C475 1.387 . S
H474 C481 0.950 . S
C475 C473 1.387 . S
C475 C477 1.390 1_655 S
C475 H479 0.950 . S
H476 C472 0.950 . S
C477 C475 1.390 1_455 S
C477 C478 1.387 . S
C477 H480 0.950 . S
C478 C477 1.387 . S
C478 C481 1.387 . S
H479 C475 0.950 . S
H480 C477 0.950 . S
C481 C472 1.390 1_455 S
C481 H474 0.950 . S
C481 C478 1.387 . S
C482 C483 1.387 . S
C482 H486 0.950 . S
C482 C491 1.390 1_545 S
C483 C482 1.387 . S
C483 C485 1.387 . S
H484 C491 0.950 . S
C485 C483 1.387 . S
C485 C487 1.390 1_545 S
C485 H489 0.950 . S
H486 C482 0.950 . S
C487 C485 1.390 1_565 S
C487 C488 1.387 . S
C487 H490 0.950 . S
C488 C487 1.387 . S
C488 C491 1.387 . S
H489 C485 0.950 . S
H490 C487 0.950 . S
C491 C482 1.390 1_565 S
C491 H484 0.950 . S
C491 C488 1.387 . S
C492 C493 1.387 . S
C492 H496 0.950 . S
C492 C501 1.390 1_655 S
C493 C492 1.387 . S
C493 C495 1.387 . S
H494 C501 0.950 . S
C495 C493 1.387 . S
C495 C497 1.390 1_655 S
C495 H499 0.950 . S
H496 C492 0.950 . S
C497 C495 1.390 1_455 S
C497 C498 1.387 . S
C497 H500 0.950 . S
C498 C497 1.387 . S
C498 C501 1.387 . S
H499 C495 0.950 . S
H500 C497 0.950 . S
C501 C492 1.390 1_455 S
C501 H494 0.950 . S
C501 C498 1.387 . S
C502 C503 1.387 . S
C502 H506 0.950 . S
C502 C511 1.390 1_545 S
C503 C502 1.387 . S
C503 C505 1.387 . S
H504 C511 0.950 . S
C505 C503 1.387 . S
C505 C507 1.390 1_545 S
C505 H509 0.950 . S
H506 C502 0.950 . S
C507 C505 1.390 1_565 S
C507 C508 1.387 . S
C507 H510 0.950 . S
C508 C507 1.387 . S
C508 C511 1.387 . S
H509 C505 0.950 . S
H510 C507 0.950 . S
C511 C502 1.390 1_565 S
C511 H504 0.950 . S
C511 C508 1.387 . S
C512 C513 1.387 . S
C512 H516 0.950 1_545 S
C512 C521 1.390 . S
C513 C512 1.387 . S
C513 C515 1.387 . S
H514 C521 0.950 . S
C515 C513 1.387 . S
C515 C517 1.390 . S
C515 H519 0.950 . S
H516 C512 0.950 1_565 S
C517 C515 1.390 . S
C517 C518 1.387 . S
C517 H520 0.950 . S
C518 C517 1.387 . S
C518 C521 1.387 . S
H519 C515 0.950 . S
H520 C517 0.950 . S
C521 C512 1.390 . S
C521 H514 0.950 . S
C521 C518 1.387 . S
C522 C523 1.387 . S
C522 H526 0.950 . S
C522 C531 1.390 . S
C523 C522 1.387 . S
C523 C525 1.387 . S
H524 C531 0.950 . S
C525 C523 1.387 . S
C525 C527 1.390 . S
C525 H529 0.950 . S
H526 C522 0.950 . S
C527 C525 1.390 . S
C527 C528 1.387 . S
C527 H530 0.950 . S
C528 C527 1.387 . S
C528 C531 1.387 . S
H529 C525 0.950 . S
H530 C527 0.950 . S
C531 C522 1.390 . S
C531 H524 0.950 . S
C531 C528 1.387 . S
C532 C533 1.387 . S
C532 H536 0.950 . S
C532 C541 1.390 . S
C533 C532 1.387 . S
C533 C535 1.387 . S
H534 C541 0.950 . S
C535 C533 1.387 . S
C535 C537 1.390 . S
C535 H539 0.950 . S
H536 C532 0.950 . S
C537 C535 1.390 . S
C537 C538 1.387 . S
C537 H540 0.950 . S
C538 C537 1.387 . S
C538 C541 1.387 . S
H539 C535 0.950 . S
H540 C537 0.950 . S
C541 C532 1.390 . S
C541 H534 0.950 . S
C541 C538 1.387 . S
C542 C543 1.387 . S
C542 H546 0.950 . S
C542 C551 1.390 . S
C543 C542 1.387 . S
C543 C545 1.387 . S
H544 C551 0.950 . S
C545 C543 1.387 . S
C545 C547 1.390 . S
C545 H549 0.950 . S
H546 C542 0.950 . S
C547 C545 1.390 . S
C547 C548 1.387 . S
C547 H550 0.950 . S
C548 C547 1.387 . S
C548 C551 1.387 . S
H549 C545 0.950 . S
H550 C547 0.950 . S
C551 C542 1.390 . S
C551 H544 0.950 . S
C551 C548 1.387 . S
C552 C553 1.387 . S
C552 H556 0.950 . S
C552 C561 1.390 . S
C553 C552 1.387 . S
C553 C555 1.387 1_556 S
H554 C561 0.950 . S
C555 C553 1.387 1_554 S
C555 C557 1.390 . S
C555 H559 0.950 . S
H556 C552 0.950 . S
C557 C555 1.390 . S
C557 C558 1.387 . S
C557 H560 0.950 . S
C558 C557 1.387 . S
C558 C561 1.387 1_554 S
H559 C555 0.950 . S
H560 C557 0.950 . S
C561 C552 1.390 . S
C561 H554 0.950 . S
C561 C558 1.387 1_556 S
C562 C563 1.387 . S
C562 H566 0.950 . S
C562 C571 1.390 . S
C563 C562 1.387 . S
C563 C565 1.387 1_556 S
H564 C571 0.950 . S
C565 C563 1.387 1_554 S
C565 C567 1.390 . S
C565 H569 0.950 . S
H566 C562 0.950 . S
C567 C565 1.390 . S
C567 C568 1.387 . S
C567 H570 0.950 . S
C568 C567 1.387 . S
C568 C571 1.387 1_554 S
H569 C565 0.950 . S
H570 C567 0.950 . S
C571 C562 1.390 . S
C571 H564 0.950 . S
C571 C568 1.387 1_556 S
C572 C573 1.387 . S
C572 H576 0.950 . S
C572 C581 1.390 1_554 S
C573 C572 1.387 . S
C573 C575 1.387 . S
H574 C581 0.950 . S
C575 C573 1.387 . S
C575 C577 1.390 1_554 S
C575 H579 0.950 . S
H576 C572 0.950 . S
C577 C575 1.390 1_556 S
C577 C578 1.387 . S
C577 H580 0.950 . S
C578 C577 1.387 . S
C578 C581 1.387 . S
H579 C575 0.950 . S
H580 C577 0.950 . S
C581 C572 1.390 1_556 S
C581 H574 0.950 . S
C581 C578 1.387 . S
C582 C583 1.387 1_554 S
C582 H586 0.950 . S
C582 C591 1.390 . S
C583 C582 1.387 1_556 S
C583 C585 1.387 . S
H584 C591 0.950 . S
C585 C583 1.387 . S
C585 C587 1.390 . S
C585 H589 0.950 . S
H586 C582 0.950 . S
C587 C585 1.390 . S
C587 C588 1.387 1_556 S
C587 H590 0.950 . S
C588 C587 1.387 1_554 S
C588 C591 1.387 . S
H589 C585 0.950 . S
H590 C587 0.950 . S
C591 C582 1.390 . S
C591 H584 0.950 . S
C591 C588 1.387 . S
C592 C593 1.387 . S
C592 H596 0.950 . S
C592 C601 1.390 . S
C593 C592 1.387 . S
C593 C595 1.387 . S
H594 C601 0.950 . S
C595 C593 1.387 . S
C595 C597 1.390 . S
C595 H599 0.950 . S
H596 C592 0.950 . S
C597 C595 1.390 . S
C597 C598 1.387 . S
C597 H600 0.950 . S
C598 C597 1.387 . S
C598 C601 1.387 . S
H599 C595 0.950 . S
H600 C597 0.950 . S
C601 C592 1.390 . S
C601 H594 0.950 . S
C601 C598 1.387 . S
C602 C603 1.387 . S
C602 H606 0.950 . S
C602 C611 1.390 . S
C603 C602 1.387 . S
C603 C605 1.387 . S
H604 C611 0.950 . S
C605 C603 1.387 . S
C605 C607 1.390 . S
C605 H609 0.950 . S
H606 C602 0.950 . S
C607 C605 1.390 . S
C607 C608 1.387 . S
C607 H610 0.950 . S
C608 C607 1.387 . S
C608 C611 1.387 . S
H609 C605 0.950 . S
H610 C607 0.950 . S
C611 C602 1.390 . S
C611 H604 0.950 . S
C611 C608 1.387 . S
C612 C613 1.387 . S
C612 H616 0.950 . S
C612 C621 1.390 . S
C613 C612 1.387 . S
C613 C615 1.387 . S
H614 C621 0.950 . S
C615 C613 1.387 . S
C615 C617 1.390 . S
C615 H619 0.950 . S
H616 C612 0.950 . S
C617 C615 1.390 . S
C617 C618 1.387 . S
C617 H620 0.950 . S
C618 C617 1.387 . S
C618 C621 1.387 . S
H619 C615 0.950 . S
H620 C617 0.950 . S
C621 C612 1.390 . S
C621 H614 0.950 . S
C621 C618 1.387 . S
C622 C623 1.387 . S
C622 H626 0.950 . S
C622 C631 1.390 . S
C623 C622 1.387 . S
C623 C625 1.387 . S
H624 C631 0.950 . S
C625 C623 1.387 . S
C625 C627 1.390 . S
C625 H629 0.950 . S
H626 C622 0.950 . S
C627 C625 1.390 . S
C627 C628 1.387 . S
C627 H630 0.950 . S
C628 C627 1.387 . S
C628 C631 1.387 . S
H629 C625 0.950 . S
H630 C627 0.950 . S
C631 C622 1.390 . S
C631 H624 0.950 . S
C631 C628 1.387 . S
C473 C123 1.527 . S
C478 C5 1.527 . S
C483 C182 1.524 . S
C488 C64 1.524 . S
C493 C241 1.524 . S
C498 C359 1.524 . S
C503 C300 1.527 . S
C508 C418 1.527 . S
C513 C92 1.434 1_545 S
C518 C52 1.417 . S
C523 C111 1.417 . S
C528 C151 1.434 1_455 S
C533 C210 1.434 1_565 S
C538 C170 1.417 . S
C543 C229 1.416 . S
C548 C33 1.434 1_655 S
C553 C446 1.434 1_545 S
C558 C288 1.417 . S
C563 C347 1.417 . S
C568 C269 1.434 1_455 S
C573 C406 1.417 . S
C578 C328 1.434 1_565 S
C583 C465 1.416 . S
C588 C387 1.434 1_655 S
C593 C3 1.606 . S
C598 C298 1.606 . S
C603 C357 1.605 . S
C608 C62 1.606 . S
C613 C121 1.605 . S
C618 C416 1.606 . S
C623 C180 1.604 . S
C628 C239 1.605 . S
