# Generated by pormake.
# Topology uob, (4)-cn, num edge types: 1
# Building blocks:
#     Node 0, Type 0, BuildingBlock: CEKHIL_clean_sbu_0, # of connection points: 4
#     Node 1, Type 0, BuildingBlock: CEKHIL_clean_sbu_0, # of connection points: 4
#     Node 2, Type 0, BuildingBlock: CEKHIL_clean_sbu_0, # of connection points: 4
#     Node 3, Type 0, BuildingBlock: CEKHIL_clean_sbu_0, # of connection points: 4
#     Node 4, Type 0, BuildingBlock: CEKHIL_clean_sbu_0, # of connection points: 4
#     Node 5, Type 0, BuildingBlock: CEKHIL_clean_sbu_0, # of connection points: 4
#     Node 6, Type 0, BuildingBlock: CEKHIL_clean_sbu_0, # of connection points: 4
#     Node 7, Type 0, BuildingBlock: CEKHIL_clean_sbu_0, # of connection points: 4
#     Node 8, Type 0, BuildingBlock: CEKHIL_clean_sbu_0, # of connection points: 4
#     Node 9, Type 0, BuildingBlock: CEKHIL_clean_sbu_0, # of connection points: 4
#     Node 10, Type 0, BuildingBlock: CEKHIL_clean_sbu_0, # of connection points: 4
#     Node 11, Type 0, BuildingBlock: CEKHIL_clean_sbu_0, # of connection points: 4
#     Node 12, Type 0, BuildingBlock: CEKHIL_clean_sbu_0, # of connection points: 4
#     Node 13, Type 0, BuildingBlock: CEKHIL_clean_sbu_0, # of connection points: 4
#     Node 14, Type 0, BuildingBlock: CEKHIL_clean_sbu_0, # of connection points: 4
#     Node 15, Type 0, BuildingBlock: CEKHIL_clean_sbu_0, # of connection points: 4
#     Edge 16, Type (0, 0), BuildingBlock: MIFKUJ_clean_linker_0, # of connection points: 2
#     Edge 17, Type (0, 0), BuildingBlock: MIFKUJ_clean_linker_0, # of connection points: 2
#     Edge 18, Type (0, 0), BuildingBlock: MIFKUJ_clean_linker_0, # of connection points: 2
#     Edge 19, Type (0, 0), BuildingBlock: MIFKUJ_clean_linker_0, # of connection points: 2
#     Edge 20, Type (0, 0), BuildingBlock: MIFKUJ_clean_linker_0, # of connection points: 2
#     Edge 21, Type (0, 0), BuildingBlock: MIFKUJ_clean_linker_0, # of connection points: 2
#     Edge 22, Type (0, 0), BuildingBlock: MIFKUJ_clean_linker_0, # of connection points: 2
#     Edge 23, Type (0, 0), BuildingBlock: MIFKUJ_clean_linker_0, # of connection points: 2
#     Edge 24, Type (0, 0), BuildingBlock: MIFKUJ_clean_linker_0, # of connection points: 2
#     Edge 25, Type (0, 0), BuildingBlock: MIFKUJ_clean_linker_0, # of connection points: 2
#     Edge 26, Type (0, 0), BuildingBlock: MIFKUJ_clean_linker_0, # of connection points: 2
#     Edge 27, Type (0, 0), BuildingBlock: MIFKUJ_clean_linker_0, # of connection points: 2
#     Edge 28, Type (0, 0), BuildingBlock: MIFKUJ_clean_linker_0, # of connection points: 2
#     Edge 29, Type (0, 0), BuildingBlock: MIFKUJ_clean_linker_0, # of connection points: 2
#     Edge 30, Type (0, 0), BuildingBlock: MIFKUJ_clean_linker_0, # of connection points: 2
#     Edge 31, Type (0, 0), BuildingBlock: MIFKUJ_clean_linker_0, # of connection points: 2
#     Edge 32, Type (0, 0), BuildingBlock: MIFKUJ_clean_linker_0, # of connection points: 2
#     Edge 33, Type (0, 0), BuildingBlock: MIFKUJ_clean_linker_0, # of connection points: 2
#     Edge 34, Type (0, 0), BuildingBlock: MIFKUJ_clean_linker_0, # of connection points: 2
#     Edge 35, Type (0, 0), BuildingBlock: MIFKUJ_clean_linker_0, # of connection points: 2
#     Edge 36, Type (0, 0), BuildingBlock: MIFKUJ_clean_linker_0, # of connection points: 2
#     Edge 37, Type (0, 0), BuildingBlock: MIFKUJ_clean_linker_0, # of connection points: 2
#     Edge 38, Type (0, 0), BuildingBlock: MIFKUJ_clean_linker_0, # of connection points: 2
#     Edge 39, Type (0, 0), BuildingBlock: MIFKUJ_clean_linker_0, # of connection points: 2
#     Edge 40, Type (0, 0), BuildingBlock: MIFKUJ_clean_linker_0, # of connection points: 2
#     Edge 41, Type (0, 0), BuildingBlock: MIFKUJ_clean_linker_0, # of connection points: 2
#     Edge 42, Type (0, 0), BuildingBlock: MIFKUJ_clean_linker_0, # of connection points: 2
#     Edge 43, Type (0, 0), BuildingBlock: MIFKUJ_clean_linker_0, # of connection points: 2
#     Edge 44, Type (0, 0), BuildingBlock: MIFKUJ_clean_linker_0, # of connection points: 2
#     Edge 45, Type (0, 0), BuildingBlock: MIFKUJ_clean_linker_0, # of connection points: 2
#     Edge 46, Type (0, 0), BuildingBlock: MIFKUJ_clean_linker_0, # of connection points: 2
#     Edge 47, Type (0, 0), BuildingBlock: MIFKUJ_clean_linker_0, # of connection points: 2
# Relax obj value: 0.175
# Max RMSD: 0.201
# Mean RMSD: 0.201
data_MOF--net-uob--node1-CEKHIL_clean_sbu_0--edge1-MIFKUJ_clean_linker_0
_symmetry_space_group_name_H-M    P1
_symmetry_Int_Tables_number       1
_symmetry_cell_setting            triclinic
loop_
_symmetry_equiv_pos_as_xyz
'x, y, z'
_cell_length_a     69.397864
_cell_length_b     69.366389
_cell_length_c     34.134488
_cell_angle_alpha  90.005746
_cell_angle_beta   89.950051
_cell_angle_gamma 89.983707
loop_
_atom_site_label
_atom_site_type_symbol
_atom_site_fract_x
_atom_site_fract_y
_atom_site_fract_z
_atom_type_partial_charge
Co0 Co 0.12999 0.06819 0.28803 0.0
O1 O 0.15687 0.07388 0.29586 0.0
O2 O 0.14205 0.04833 0.32016 0.0
C3 C 0.12854 0.07449 0.22353 0.0
O4 O 0.10239 0.05776 0.28515 0.0
Co5 Co 0.1027 0.1017 0.26157 0.0
O6 O 0.08372 0.08039 0.25675 0.0
C7 C 0.11832 0.10125 0.34076 0.0
C8 C 0.15779 0.05848 0.31731 0.0
C9 C 0.08615 0.0635 0.27077 0.0
O10 O 0.12352 0.0836 0.33602 0.0
O11 O 0.11183 0.1119 0.31322 0.0
O12 O 0.13491 0.05781 0.23535 0.0
O13 O 0.12572 0.08702 0.25067 0.0
Co14 Co 0.94706 0.62782 0.5329 0.0
O15 O 0.943 0.65533 0.52913 0.0
O16 O 0.96546 0.64141 0.56549 0.0
C17 C 0.94457 0.62066 0.46894 0.0
O18 O 0.95615 0.60006 0.54252 0.0
Co19 Co 0.91393 0.59957 0.50997 0.0
O20 O 0.93355 0.57943 0.52026 0.0
C21 C 0.91107 0.62149 0.58277 0.0
C22 C 0.95694 0.65717 0.5542 0.0
C23 C 0.95002 0.58285 0.53518 0.0
O24 O 0.92872 0.62679 0.57862 0.0
O25 O 0.90187 0.61184 0.55695 0.0
O26 O 0.96068 0.62759 0.48245 0.0
O27 O 0.93027 0.62065 0.49305 0.0
Co28 Co 0.37331 0.45077 0.784 0.0
O29 O 0.34582 0.4465 0.78158 0.0
O30 O 0.3601 0.46811 0.81943 0.0
C31 C 0.37952 0.45031 0.71931 0.0
O32 O 0.40098 0.45982 0.79333 0.0
Co33 Co 0.40153 0.41874 0.75497 0.0
O34 O 0.42172 0.43758 0.76985 0.0
C35 C 0.38102 0.41351 0.82903 0.0
C36 C 0.34424 0.45977 0.80826 0.0
C37 C 0.4182 0.45369 0.78637 0.0
O38 O 0.37539 0.43117 0.82741 0.0
O39 O 0.39003 0.40517 0.80107 0.0
O40 O 0.37262 0.46589 0.73529 0.0
O41 O 0.38007 0.43532 0.74154 0.0
Co42 Co 0.56174 0.86748 0.02278 0.0
O43 O 0.5648 0.83992 0.02101 0.0
O44 O 0.54232 0.855 0.05521 0.0
C45 C 0.5652 0.87304 0.95832 0.0
O46 O 0.55391 0.89582 0.03 0.0
Co47 Co 0.59611 0.89374 -0.00226 0.0
O48 O 0.57649 0.91445 0.00139 0.0
C49 C 0.59716 0.87433 0.07405 0.0
C50 C 0.55044 0.83878 0.04523 0.0
C51 C 0.56024 0.91238 0.01836 0.0
O52 O 0.57967 0.86865 0.06911 0.0
O53 O 0.6068 0.88339 0.04794 0.0
O54 O 0.54855 0.8676 0.97197 0.0
O55 O 0.57923 0.87279 0.98298 0.0
Co56 Co 0.13391 0.45007 0.03471 0.0
O57 O 0.16141 0.44602 0.03697 0.0
O58 O 0.14699 0.46815 0.00057 0.0
C59 C 0.12776 0.44813 0.09933 0.0
O60 O 0.10605 0.45898 0.02612 0.0
Co61 Co 0.1062 0.41706 0.06092 0.0
O62 O 0.0858 0.43617 0.04876 0.0
C63 C 0.12758 0.41332 0.98761 0.0
C64 C 0.1629 0.4597 0.01118 0.0
C65 C 0.08892 0.45267 0.0336 0.0
O66 O 0.13219 0.43125 0.98987 0.0
O67 O 0.11889 0.40432 0.01514 0.0
O68 O 0.13438 0.46417 0.08479 0.0
O69 O 0.12738 0.43368 0.07567 0.0
Co70 Co 0.55908 0.63289 0.27958 0.0
O71 O 0.56155 0.66048 0.27849 0.0
O72 O 0.53902 0.64412 0.24692 0.0
C73 C 0.56352 0.62895 0.34434 0.0
O74 O 0.55191 0.60426 0.27586 0.0
Co75 Co 0.5946 0.60831 0.30463 0.0
O76 O 0.57533 0.58718 0.30562 0.0
C77 C 0.59407 0.6262 0.22682 0.0
C78 C 0.54692 0.66071 0.25491 0.0
C79 C 0.55879 0.58828 0.28947 0.0
O80 O 0.57633 0.63092 0.23224 0.0
O81 O 0.60448 0.61847 0.25345 0.0
O82 O 0.5466 0.6338 0.33119 0.0
O83 O 0.57718 0.62894 0.31876 0.0
Co84 Co 0.36732 0.06374 0.53896 0.0
O85 O 0.3398 0.06704 0.54025 0.0
O86 O 0.35488 0.04465 0.5058 0.0
C87 C 0.3725 0.06674 0.60362 0.0
O88 O 0.39551 0.05559 0.5319 0.0
Co89 Co 0.39402 0.09741 0.56511 0.0
O90 O 0.41443 0.07745 0.56182 0.0
C91 C 0.37533 0.09913 0.48809 0.0
C92 C 0.33869 0.05286 0.51558 0.0
C93 C 0.41212 0.06142 0.54414 0.0
O94 O 0.36892 0.0819 0.49303 0.0
O95 O 0.38469 0.1084 0.51429 0.0
O96 O 0.36713 0.05019 0.58938 0.0
O97 O 0.37258 0.08099 0.57941 0.0
Co98 Co 0.94074 0.86479 0.78578 0.0
O99 O 0.93906 0.83709 0.78341 0.0
O100 O 0.9593 0.85473 0.74836 0.0
C101 C 0.93954 0.86783 0.85122 0.0
O102 O 0.94716 0.89356 0.78187 0.0
Co103 Co 0.90665 0.88878 0.81927 0.0
O104 O 0.92549 0.91025 0.81737 0.0
C105 C 0.90396 0.87335 0.73947 0.0
C106 C 0.95238 0.83777 0.75673 0.0
C107 C 0.94101 0.90937 0.79743 0.0
O108 O 0.92126 0.86691 0.74241 0.0
O109 O 0.89503 0.88182 0.76739 0.0
O110 O 0.95582 0.86376 0.83417 0.0
O111 O 0.92452 0.86781 0.82902 0.0
Co112 Co 0.63731 0.56291 0.77616 0.0
O113 O 0.66501 0.56462 0.77755 0.0
O114 O 0.64775 0.54316 0.81034 0.0
C115 C 0.63361 0.56631 0.71112 0.0
O116 O 0.60866 0.55622 0.78059 0.0
Co117 Co 0.61264 0.59773 0.74818 0.0
O118 O 0.59153 0.57843 0.74758 0.0
C119 C 0.62957 0.59839 0.82698 0.0
C120 C 0.6646 0.55039 0.80223 0.0
C121 C 0.59271 0.56245 0.76587 0.0
O122 O 0.63561 0.58103 0.82208 0.0
O123 O 0.62093 0.60808 0.80036 0.0
O124 O 0.63797 0.54951 0.72562 0.0
O125 O 0.63373 0.58048 0.73556 0.0
Co126 Co 0.44701 0.13238 0.0381 0.0
O127 O 0.44335 0.15987 0.03869 0.0
O128 O 0.46673 0.14467 0.06999 0.0
C129 C 0.44238 0.12777 0.97357 0.0
O130 O 0.45542 0.10412 0.04259 0.0
Co131 Co 0.41227 0.10633 0.01482 0.0
O132 O 0.43188 0.08553 0.01719 0.0
C133 C 0.4123 0.12562 0.09108 0.0
C134 C 0.45799 0.16085 0.06219 0.0
C135 C 0.44868 0.0876 0.03179 0.0
O136 O 0.43009 0.13011 0.08578 0.0
O137 O 0.40196 0.11765 0.06463 0.0
O138 O 0.45918 0.13337 0.98619 0.0
O139 O 0.42886 0.12742 -0.00058 0.0
Co140 Co 0.8691 0.94493 0.27997 0.0
O141 O 0.84153 0.94139 0.28151 0.0
O142 O 0.85711 0.96546 0.31007 0.0
C143 C 0.87341 0.93864 0.21583 0.0
O144 O 0.89726 0.95361 0.2829 0.0
Co145 Co 0.89553 0.91004 0.25974 0.0
O146 O 0.91637 0.92963 0.26088 0.0
C147 C 0.87767 0.91218 0.33745 0.0
C148 C 0.84086 0.95674 0.30312 0.0
C149 C 0.91392 0.94679 0.27335 0.0
O150 O 0.87188 0.92938 0.32961 0.0
O151 O 0.88586 0.9013 0.31215 0.0
O152 O 0.86785 0.95573 0.22686 0.0
O153 O 0.87397 0.92575 0.243 0.0
Co154 Co 0.06992 0.36646 0.53471 0.0
O155 O 0.07459 0.33911 0.5345 0.0
O156 O 0.04951 0.35305 0.56273 0.0
C157 C 0.07646 0.37224 0.47133 0.0
O158 O 0.06032 0.3944 0.53936 0.0
Co159 Co 0.10426 0.39424 0.51755 0.0
O160 O 0.08341 0.41373 0.5146 0.0
C161 C 0.10215 0.37446 0.59324 0.0
C162 C 0.05904 0.33728 0.55528 0.0
C163 C 0.06644 0.4111 0.52794 0.0
O164 O 0.08503 0.3687 0.58478 0.0
O165 O 0.11292 0.38358 0.56911 0.0
O166 O 0.05963 0.36557 0.48133 0.0
O167 O 0.08912 0.37273 0.49891 0.0
Co168 Co 0.63016 0.94608 0.5207 0.0
O169 O 0.65767 0.94285 0.52228 0.0
O170 O 0.64273 0.96603 0.48981 0.0
C171 C 0.6244 0.94124 0.5848 0.0
O172 O 0.60194 0.95418 0.51412 0.0
Co173 Co 0.60389 0.91114 0.54225 0.0
O174 O 0.58297 0.93053 0.53803 0.0
C175 C 0.62511 0.91108 0.46804 0.0
C176 C 0.65888 0.95758 0.49902 0.0
C177 C 0.58526 0.94736 0.52367 0.0
O178 O 0.62904 0.92905 0.47293 0.0
O179 O 0.61683 0.9008 0.49421 0.0
O180 O 0.63002 0.95815 0.57281 0.0
O181 O 0.62466 0.92783 0.55877 0.0
Co182 Co 0.06021 0.12676 0.77751 0.0
O183 O 0.06573 0.15403 0.7773 0.0
O184 O 0.04253 0.14019 0.74299 0.0
C185 C 0.06212 0.12181 0.84232 0.0
O186 O 0.04979 0.09923 0.77152 0.0
Co187 Co 0.09173 0.09766 0.80577 0.0
O188 O 0.07123 0.07826 0.79707 0.0
C189 C 0.09655 0.11776 0.73149 0.0
C190 C 0.05186 0.15584 0.75203 0.0
C191 C 0.05503 0.082 0.7812 0.0
O192 O 0.07887 0.12329 0.73291 0.0
O193 O 0.10507 0.10869 0.75903 0.0
O194 O 0.04639 0.12899 0.82754 0.0
O195 O 0.07644 0.12017 0.81857 0.0
Co196 Co 0.86945 0.5626 0.02928 0.0
O197 O 0.8417 0.56347 0.02885 0.0
O198 O 0.85938 0.54155 -0.00195 0.0
C199 C 0.87365 0.5683 0.09351 0.0
O200 O 0.89831 0.5566 0.02492 0.0
Co201 Co 0.893 0.59926 0.05126 0.0
O202 O 0.91537 0.58146 0.04948 0.0
C203 C 0.87331 0.59738 0.97552 0.0
C204 C 0.84241 0.5485 0.0061 0.0
C205 C 0.91437 0.56446 0.03539 0.0
O206 O 0.87019 0.5793 0.98106 0.0
O207 O 0.88059 0.60838 0.0017 0.0
O208 O 0.86943 0.55095 0.08167 0.0
O209 O 0.87293 0.58151 0.06707 0.0
Co210 Co 0.44036 0.36992 0.28592 0.0
O211 O 0.43495 0.34271 0.28658 0.0
O212 O 0.46099 0.35573 0.26019 0.0
C213 C 0.43256 0.37645 0.34853 0.0
O214 O 0.45083 0.39749 0.28093 0.0
Co215 Co 0.40644 0.39878 0.29931 0.0
O216 O 0.42738 0.41823 0.29893 0.0
C217 C 0.40927 0.37777 0.22505 0.0
C218 C 0.45082 0.3403 0.26708 0.0
C219 C 0.44466 0.4147 0.28835 0.0
O220 O 0.42628 0.37208 0.23452 0.0
O221 O 0.39825 0.38712 0.24835 0.0
O222 O 0.44947 0.36936 0.34032 0.0
O223 O 0.42059 0.377 0.31976 0.0
H224 H 0.33185 0.02884 0.45285 0.0
H225 H 0.30103 0.02365 0.41908 0.0
H226 H 0.27264 0.06067 0.5027 0.0
H227 H 0.30311 0.06569 0.53656 0.0
H228 H 0.25031 0.03076 0.48664 0.0
H229 H 0.28656 0.07765 0.41271 0.0
H230 H 0.31459 0.08956 0.37568 0.0
H231 H 0.30793 0.04367 0.29232 0.0
H232 H 0.27983 0.0314 0.32917 0.0
H233 H 0.18683 0.0829 0.33642 0.0
H234 H 0.2166 0.0758 0.37138 0.0
H235 H 0.19985 0.01613 0.38076 0.0
H236 H 0.16933 0.02344 0.34754 0.0
H237 H 0.24519 0.0512 0.34787 0.0
H238 H 0.21039 1.00214 0.44039 0.0
H239 H 0.18353 0.99427 0.48509 0.0
H240 H 0.18887 0.04982 0.53953 0.0
H241 H 0.2151 0.05831 0.49377 0.0
C242 C 0.31896 0.03561 0.46434 0.0
C243 C 0.31996 0.04773 0.49733 0.0
C244 C 0.30137 0.03273 0.44488 0.0
C245 C 0.28449 0.04192 0.45808 0.0
C246 C 0.2854 0.05338 0.49192 0.0
C247 C 0.3029 0.05629 0.51122 0.0
C248 C 0.266 0.04057 0.43599 0.0
C249 C 0.24925 0.035 0.45611 0.0
C250 C 0.26448 0.04616 0.39622 0.0
C251 C 0.28128 0.05348 0.37394 0.0
C252 C 0.29117 0.07002 0.38665 0.0
C253 C 0.30706 0.07685 0.36566 0.0
C254 C 0.31313 0.06733 0.33174 0.0
C255 C 0.30325 0.051 0.31866 0.0
C256 C 0.28732 0.04411 0.33956 0.0
C257 C 0.18936 0.06827 0.34621 0.0
C258 C 0.17571 0.05371 0.33909 0.0
C259 C 0.20642 0.06423 0.36633 0.0
C260 C 0.21045 0.04549 0.37956 0.0
C261 C 0.19686 0.03085 0.37235 0.0
C262 C 0.17951 0.03498 0.35282 0.0
C263 C 0.22941 0.04154 0.39863 0.0
C264 C 0.24631 0.04631 0.37798 0.0
C265 C 0.23105 0.03549 0.4381 0.0
C266 C 0.21414 0.0311 0.46276 0.0
C267 C 0.20538 0.01288 0.46105 0.0
C268 C 0.19034 0.00828 0.48668 0.0
C269 C 0.18434 0.02162 0.51486 0.0
C270 C 0.19338 0.03958 0.51743 0.0
C271 C 0.20817 0.04437 0.49137 0.0
H272 H 0.1728 0.018 0.53488 0.0
H273 H 0.32546 0.07265 0.31554 0.0
H274 H 0.96601 0.835 0.6815 0.0
H275 H 0.97088 0.80536 0.64318 0.0
H276 H 0.95574 0.77125 0.74422 0.0
H277 H 0.95044 0.8007 0.78221 0.0
H278 H 0.98896 0.7575 0.70052 0.0
H279 H 0.9232 0.7804 0.68021 0.0
H280 H 0.89863 0.80367 0.65809 0.0
H281 H 0.92193 0.80193 0.54161 0.0
H282 H 0.94701 0.77912 0.56327 0.0
H283 H 0.96557 0.66475 0.63032 0.0
H284 H 0.96841 0.69624 0.66167 0.0
H285 H 0.96171 0.72394 0.54912 0.0
H286 H 0.95716 0.69235 0.51849 0.0
H287 H 0.94255 0.74311 0.59414 0.0
H288 H 0.00709 0.72127 0.60756 0.0
H289 H 0.03365 0.69917 0.62446 0.0
H290 H 0.01668 0.70067 0.74541 0.0
H291 H 0.98985 0.72259 0.72919 0.0
C292 C 0.96407 0.82116 0.69567 0.0
C293 C 0.9579 0.82015 0.73489 0.0
C294 C 0.96675 0.80426 0.67371 0.0
C295 C 0.9636 0.78609 0.69083 0.0
C296 C 0.95827 0.78509 0.73044 0.0
C297 C 0.95523 0.80193 0.7521 0.0
C298 C 0.96484 0.76805 0.66737 0.0
C299 C 0.9788 0.75426 0.67729 0.0
C300 C 0.95204 0.76416 0.63612 0.0
C301 C 0.93715 0.77821 0.6235 0.0
C302 C 0.92328 0.7852 0.65003 0.0
C303 C 0.90924 0.79829 0.63755 0.0
C304 C 0.90874 0.80427 0.59847 0.0
C305 C 0.92235 0.79729 0.57187 0.0
C306 C 0.93652 0.78433 0.58426 0.0
C307 C 0.96502 0.67758 0.61226 0.0
C308 C 0.96135 0.67613 0.57194 0.0
C309 C 0.96677 0.69567 0.63016 0.0
C310 C 0.96573 0.71275 0.60789 0.0
C311 C 0.96257 0.71116 0.56726 0.0
C312 C 0.96012 0.69308 0.54961 0.0
C313 C 0.9667 0.73217 0.62721 0.0
C314 C 0.95305 0.74628 0.61675 0.0
C315 C 0.98021 0.7366 0.65713 0.0
C316 C 0.99637 0.72347 0.66708 0.0
C317 C 0.00895 0.7168 0.63773 0.0
C318 C 0.02406 0.70431 0.6472 0.0
C319 C 0.02683 0.69849 0.68597 0.0
C320 C 0.01451 0.70518 0.71539 0.0
C321 C 0.99937 0.71766 0.70608 0.0
H322 H 0.03853 0.68882 0.69323 0.0
H323 H 0.89774 0.81421 0.58869 0.0
H324 H 0.30816 0.45199 0.78039 0.0
H325 H 0.27736 0.45569 0.81502 0.0
H326 H 0.30719 0.47914 0.91489 0.0
H327 H 0.33799 0.47605 0.88005 0.0
H328 H 0.27773 0.44095 0.91694 0.0
H329 H 0.28667 0.50983 0.88789 0.0
H330 H 0.29243 0.53659 0.84176 0.0
H331 H 0.24256 0.52003 0.77543 0.0
H332 H 0.23669 0.49298 0.82088 0.0
H333 H 0.19886 0.45603 0.04233 0.0
H334 H 0.22978 0.4595 0.00864 0.0
H335 H 0.19993 0.47435 0.90187 0.0
H336 H 0.16908 0.47217 0.93641 0.0
H337 H 0.23011 0.49377 0.90193 0.0
H338 H 0.21904 0.42701 0.92495 0.0
H339 H 0.21227 0.39728 0.96208 0.0
H340 H 0.26413 0.40521 0.02869 0.0
H341 H 0.27103 0.43519 0.99245 0.0
C342 C 0.30812 0.45824 0.80947 0.0
C343 C 0.32549 0.4638 0.82745 0.0
C344 C 0.29053 0.46034 0.82917 0.0
C345 C 0.29004 0.46775 0.86739 0.0
C346 C 0.30729 0.47353 0.88527 0.0
C347 C 0.32485 0.47181 0.86528 0.0
C348 C 0.27166 0.46816 0.8896 0.0
C349 C 0.2674 0.45262 0.91432 0.0
C350 C 0.25792 0.48295 0.88458 0.0
C351 C 0.26139 0.49926 0.85748 0.0
C352 C 0.27707 0.51177 0.86322 0.0
C353 C 0.28032 0.52702 0.83726 0.0
C354 C 0.26791 0.52997 0.80561 0.0
C355 C 0.25218 0.51771 0.79992 0.0
C356 C 0.24888 0.50243 0.82578 0.0
C357 C 0.19896 0.46033 0.01183 0.0
C358 C 0.18159 0.46383 0.99198 0.0
C359 C 0.21664 0.46211 0.9924 0.0
C360 C 0.21733 0.46664 0.95221 0.0
C361 C 0.19993 0.47078 0.93276 0.0
C362 C 0.18227 0.46955 0.95253 0.0
C363 C 0.23604 0.4666 0.93034 0.0
C364 C 0.24038 0.4821 0.9052 0.0
C365 C 0.24966 0.4514 0.93409 0.0
C366 C 0.24542 0.43349 0.9563 0.0
C367 C 0.2289 0.42252 0.94778 0.0
C368 C 0.22505 0.40561 0.96864 0.0
C369 C 0.23773 0.3994 -0.00218 0.0
C370 C 0.2543 0.41007 0.00617 0.0
C371 C 0.25818 0.42703 0.98549 0.0
H372 H 0.23474 0.38628 0.01388 0.0
H373 H 0.27045 0.54178 0.78555 0.0
H374 H 0.56341 0.80322 0.02418 0.0
H375 H 0.55824 0.77263 0.05789 0.0
H376 H 0.52078 0.80087 0.14076 0.0
H377 H 0.52581 0.83171 0.10688 0.0
H378 H 0.56852 0.76641 0.1361 0.0
H379 H 0.49152 0.77689 0.16177 0.0
H380 H 0.46159 0.78749 0.12892 0.0
H381 H 0.47955 0.75933 0.0229 0.0
H382 H 0.50966 0.74885 0.05511 0.0
H383 H 0.55366 0.69715 0.28038 0.0
H384 H 0.54951 0.72715 0.24405 0.0
H385 H 0.52413 0.69567 0.14814 0.0
H386 H 0.52779 0.66548 0.18509 0.0
H387 H 0.50714 0.731 0.15599 0.0
H388 H 0.57146 0.70629 0.14721 0.0
H389 H 0.60212 0.69367 0.17309 0.0
H390 H 0.61205 0.74703 0.23357 0.0
H391 H 0.58116 0.75978 0.20894 0.0
C392 C 0.5538 0.80293 0.0492 0.0
C393 C 0.54506 0.81996 0.06289 0.0
C394 C 0.55087 0.78539 0.06845 0.0
C395 C 0.53906 0.7844 0.10174 0.0
C396 C 0.52971 0.80121 0.11474 0.0
C397 C 0.53264 0.81885 0.09542 0.0
C398 C 0.53803 0.76616 0.12461 0.0
C399 C 0.55508 0.75875 0.14073 0.0
C400 C 0.52067 0.75588 0.12986 0.0
C401 C 0.50271 0.76218 0.11069 0.0
C402 C 0.48901 0.773 0.13147 0.0
C403 C 0.47208 0.77902 0.11295 0.0
C404 C 0.46867 0.7741 0.07384 0.0
C405 C 0.48222 0.76319 0.05313 0.0
C406 C 0.49924 0.75727 0.07144 0.0
C407 C 0.54683 0.69663 0.25187 0.0
C408 C 0.54118 0.67893 0.23546 0.0
C409 C 0.54453 0.71381 0.23106 0.0
C410 C 0.5369 0.71366 0.19297 0.0
C411 C 0.53011 0.69616 0.17742 0.0
C412 C 0.53219 0.67891 0.19855 0.0
C413 C 0.5376 0.73146 0.16853 0.0
C414 C 0.52057 0.73873 0.15185 0.0
C415 C 0.55516 0.74146 0.16214 0.0
C416 C 0.5739 0.73393 0.17651 0.0
C417 C 0.5801 0.71528 0.16628 0.0
C418 C 0.59752 0.7081 0.18073 0.0
C419 C 0.60903 0.71954 0.20493 0.0
C420 C 0.60312 0.73818 0.2148 0.0
C421 C 0.58564 0.74538 0.20066 0.0
H422 H 0.62254 0.71398 0.216 0.0
H423 H 0.45553 0.77872 0.05959 0.0
H424 H 0.66777 0.5316 0.87259 0.0
H425 H 0.69744 0.52524 0.90962 0.0
H426 H 0.73115 0.54892 0.815 0.0
H427 H 0.70164 0.55558 0.77824 0.0
H428 H 0.74693 0.5144 0.84866 0.0
H429 H 0.71996 0.57652 0.8892 0.0
H430 H 0.69586 0.59831 0.9187 0.0
H431 H 0.69715 0.56541 0.0252 0.0
H432 H 0.72097 0.54322 -0.0039 0.0
H433 H 0.83672 0.54227 0.92855 0.0
H434 H 0.80599 0.53677 0.89559 0.0
H435 H 0.77763 0.53259 0.00806 0.0
H436 H 0.80818 0.53991 0.0406 0.0
H437 H 0.75715 0.55306 0.96897 0.0
H438 H 0.78459 0.49251 0.93641 0.0
H439 H 0.80887 0.46945 0.91214 0.0
H440 H 0.80573 0.49478 0.79755 0.0
H441 H 0.78161 0.51816 0.82124 0.0
C442 C 0.68153 0.53513 0.85943 0.0
C443 C 0.68239 0.54411 0.82252 0.0
C444 C 0.69845 0.53157 0.88068 0.0
C445 C 0.71649 0.5367 0.86513 0.0
C446 C 0.71739 0.54482 0.82753 0.0
C447 C 0.70051 0.54866 0.8066 0.0
C448 C 0.73441 0.53483 0.88866 0.0
C449 C 0.74927 0.52284 0.87499 0.0
C450 C 0.73715 0.54528 0.92377 0.0
C451 C 0.7221 0.5581 0.94032 0.0
C452 C 0.71488 0.57376 0.91868 0.0
C453 C 0.70132 0.58622 0.93539 0.0
C454 C 0.69504 0.58326 0.97383 0.0
C455 C 0.70206 0.56769 0.99545 0.0
C456 C 0.71556 0.55516 0.97886 0.0
C457 C 0.82396 0.53974 0.94611 0.0
C458 C 0.82476 0.54134 0.98703 0.0
C459 C 0.80634 0.53646 0.92728 0.0
C460 C 0.78927 0.53393 0.9491 0.0
C461 C 0.79042 0.53457 0.99028 0.0
C462 C 0.8079 0.53859 0.00898 0.0
C463 C 0.77008 0.5326 0.92918 0.0
C464 C 0.75491 0.54414 0.94329 0.0
C465 C 0.7669 0.52125 0.89517 0.0
C466 C 0.78138 0.50719 0.88071 0.0
C467 C 0.78917 0.49325 0.9061 0.0
C468 C 0.80289 0.4801 0.89243 0.0
C469 C 0.80886 0.48067 0.85335 0.0
C470 C 0.80109 0.49436 0.82782 0.0
C471 C 0.78737 0.50755 0.84135 0.0
H472 H 0.81949 0.47048 0.84282 0.0
H473 H 0.68485 0.5931 0.98707 0.0
H474 H 0.48532 0.32815 0.23542 0.0
H475 H 0.49216 0.29693 0.20445 0.0
H476 H 0.43382 0.27866 0.22795 0.0
H477 H 0.42734 0.30917 0.26045 0.0
H478 H 0.45492 0.24964 0.23823 0.0
H479 H 0.45093 0.29728 0.13461 0.0
H480 H 0.46033 0.327 0.09975 0.0
H481 H 0.51796 0.30534 0.08651 0.0
H482 H 0.50892 0.27558 0.12166 0.0
H483 H 0.44333 0.19641 0.04644 0.0
H484 H 0.44768 0.2261 0.08372 0.0
H485 H 0.48752 0.19708 0.16054 0.0
H486 H 0.48308 0.16706 0.12339 0.0
H487 H 0.48034 0.24861 0.10238 0.0
H488 H 0.47903 0.20613 0.23626 0.0
H489 H 0.46432 0.17742 0.26708 0.0
H490 H 0.41015 0.19069 0.21263 0.0
H491 H 0.42467 0.21935 0.1812 0.0
C492 C 0.47407 0.31734 0.23433 0.0
C493 C 0.4558 0.32116 0.2504 0.0
C494 C 0.47793 0.29953 0.21637 0.0
C495 C 0.46343 0.2854 0.21316 0.0
C496 C 0.44534 0.28915 0.23004 0.0
C497 C 0.44162 0.30671 0.2486 0.0
C498 C 0.46656 0.26696 0.19127 0.0
C499 C 0.46073 0.24952 0.20872 0.0
C500 C 0.47393 0.26652 0.15246 0.0
C501 C 0.47931 0.28432 0.1311 0.0
C502 C 0.46562 0.29891 0.12443 0.0
C503 C 0.47088 0.31576 0.10461 0.0
C504 C 0.48974 0.31808 0.09102 0.0
C505 C 0.50336 0.30354 0.09711 0.0
C506 C 0.49818 0.28668 0.11695 0.0
C507 C 0.45322 0.19634 0.07097 0.0
C508 C 0.46282 0.1793 0.08199 0.0
C509 C 0.4557 0.21337 0.09224 0.0
C510 C 0.46774 0.21379 0.1252 0.0
C511 C 0.47794 0.19702 0.13552 0.0
C512 C 0.47551 0.17991 0.11408 0.0
C513 C 0.46871 0.23159 0.14949 0.0
C514 C 0.47513 0.24883 0.13235 0.0
C515 C 0.46149 0.23201 0.18816 0.0
C516 C 0.45291 0.21472 0.20643 0.0
C517 C 0.464 0.20286 0.23089 0.0
C518 C 0.45571 0.1866 0.24836 0.0
C519 C 0.43631 0.18226 0.24184 0.0
C520 C 0.42518 0.19407 0.2176 0.0
C521 C 0.43344 0.21026 0.19986 0.0
H522 H 0.42989 0.16978 0.25567 0.0
H523 H 0.49379 0.33113 0.07571 0.0
H524 H 0.83267 0.95439 0.38047 0.0
H525 H 0.80093 0.95793 0.4117 0.0
H526 H 0.77638 0.97473 0.30085 0.0
H527 H 0.80798 0.9702 0.26916 0.0
H528 H 0.76534 0.99777 0.37721 0.0
H529 H 0.76835 0.93601 0.31544 0.0
H530 H 0.78096 0.90382 0.29927 0.0
H531 H 0.77457 0.88642 0.41924 0.0
H532 H 0.76298 0.91888 0.43661 0.0
H533 H 0.66575 0.9807 0.43489 0.0
H534 H 0.69648 0.98479 0.40009 0.0
H535 H 0.72497 0.95014 0.48756 0.0
H536 H 0.69447 0.94579 0.52184 0.0
H537 H 0.73276 0.93716 0.4165 0.0
H538 H 0.7322 0.99965 0.47908 0.0
H539 H 0.71856 0.03153 0.49509 0.0
H540 H 0.71785 0.04641 0.37299 0.0
H541 H 0.73127 0.01451 0.35621 0.0
C542 C 0.82056 0.95922 0.36302 0.0
C543 C 0.82271 0.96229 0.32261 0.0
C544 C 0.80246 0.96115 0.38079 0.0
C545 C 0.78632 0.96658 0.35856 0.0
C546 C 0.78867 0.97061 0.31851 0.0
C547 C 0.80667 0.96807 0.30049 0.0
C548 C 0.76686 0.96678 0.37678 0.0
C549 C 0.75808 0.98453 0.38546 0.0
C550 C 0.75748 0.94948 0.38774 0.0
C551 C 0.76534 0.93017 0.37758 0.0
C552 C 0.77023 0.92557 0.33867 0.0
C553 C 0.77715 0.90722 0.32924 0.0
C554 C 0.77884 0.89315 0.35832 0.0
C555 C 0.77358 0.89742 0.39685 0.0
C556 C 0.76695 0.91583 0.40654 0.0
C557 C 0.67866 0.97429 0.44707 0.0
C558 C 0.67765 0.96285 0.48104 0.0
C559 C 0.69623 0.97664 0.42715 0.0
C560 C 0.7131 0.96773 0.4411 0.0
C561 C 0.71218 0.95705 0.476 0.0
C562 C 0.6947 0.95463 0.49568 0.0
C563 C 0.73146 0.96814 0.41831 0.0
C564 C 0.74 0.95044 0.40843 0.0
C565 C 0.74055 0.98544 0.40629 0.0
C566 C 0.73254 0.00462 0.41637 0.0
C567 C 0.72898 0.00966 0.45562 0.0
C568 C 0.72133 0.02775 0.46484 0.0
C569 C 0.71729 0.04097 0.43506 0.0
C570 C 0.72096 0.03615 0.39602 0.0
C571 C 0.7286 0.01807 0.38664 0.0
H572 H 0.71136 0.05496 0.44226 0.0
H573 H 0.78405 0.8789 0.35092 0.0
H574 H 0.07897 0.30361 0.5496 0.0
H575 H 0.07205 0.27295 0.58115 0.0
H576 H 0.01998 0.29678 0.63051 0.0
H577 H 0.02723 0.32796 0.59973 0.0
H578 H 0.03789 0.27748 0.6843 0.0
H579 H 0.01956 0.2628 0.55347 0.0
H580 H 0.02282 0.26085 0.48164 0.0
H581 H 0.07184 0.22358 0.49423 0.0
H582 H 0.06905 0.22555 0.56612 0.0
H583 H 0.02526 0.16399 0.69475 0.0
H584 H 0.02035 0.19474 0.66067 0.0
H585 H 0.06538 0.22054 0.73015 0.0
H586 H 0.07004 0.19014 0.76466 0.0
H587 H 0.04277 0.21481 0.61508 0.0
H588 H 0.05783 0.26754 0.74501 0.0
H589 H 0.05178 0.26927 0.81614 0.0
H590 H 0.00429 0.23005 0.80413 0.0
H591 H 0.00987 0.2283 0.73289 0.0
C592 C 0.06591 0.30234 0.56679 0.0
C593 C 0.05361 0.31826 0.57199 0.0
C594 C 0.0619 0.28468 0.58471 0.0
C595 C 0.04531 0.28233 0.60781 0.0
C596 C 0.03284 0.29816 0.61273 0.0
C597 C 0.03694 0.31596 0.59499 0.0
C598 C 0.04171 0.26366 0.62833 0.0
C599 C 0.03891 0.26379 0.6691 0.0
C600 C 0.0425 0.24569 0.60854 0.0
C601 C 0.04416 0.24442 0.56524 0.0
C602 C 0.03111 0.25429 0.54094 0.0
C603 C 0.03287 0.25317 0.50019 0.0
C604 C 0.04754 0.24212 0.48338 0.0
C605 C 0.06048 0.23214 0.50728 0.0
C606 C 0.0588 0.23323 0.54803 0.0
C607 C 0.03391 0.17631 0.70312 0.0
C608 C 0.04793 0.17463 0.73269 0.0
C609 C 0.03115 0.19387 0.6835 0.0
C610 C 0.04228 0.21013 0.69315 0.0
C611 C 0.05627 0.20841 0.72269 0.0
C612 C 0.05899 0.19094 0.74233 0.0
C613 C 0.0401 0.22865 0.67129 0.0
C614 C 0.04171 0.22848 0.63029 0.0
C615 C 0.03793 0.24656 0.69077 0.0
C616 C 0.03438 0.24768 0.7336 0.0
C617 C 0.04604 0.25936 0.75751 0.0
C618 C 0.0427 0.26033 0.79786 0.0
C619 C 0.02769 0.24974 0.81465 0.0
C620 C 0.01595 0.2382 0.79111 0.0
C621 C 0.01921 0.23719 0.75075 0.0
H622 H 0.02514 0.2505 0.8459 0.0
H623 H 0.04888 0.24127 0.45183 0.0
H624 H 0.08319 0.02678 0.30155 0.0
H625 H 0.05432 0.0064 0.30452 0.0
H626 H 0.02174 0.05033 0.24453 0.0
H627 H 0.0502 0.07069 0.24159 0.0
H628 H 0.00236 0.03683 0.3075 0.0
H629 H 0.03689 0.00979 0.19704 0.0
H630 H 0.06496 0.99495 0.16448 0.0
H631 H 0.06283 0.94743 0.245 0.0
H632 H 0.03489 0.96213 0.27834 0.0
H633 H 0.91725 0.98537 0.25789 0.0
H634 H 0.94671 0.0048 0.2589 0.0
H635 H 0.97886 0.95544 0.29982 0.0
H636 H 0.94974 0.93579 0.29617 0.0
H637 H 0.99923 0.9714 0.24945 0.0
H638 H 0.96485 0.99713 0.35992 0.0
H639 H 0.93731 0.01168 0.39483 0.0
H640 H 0.93973 0.06104 0.31907 0.0
H641 H 0.96713 0.04668 0.2834 0.0
C642 C 0.06991 0.03206 0.2888 0.0
C643 C 0.06911 0.05044 0.27139 0.0
C644 C 0.05341 0.02038 0.29048 0.0
C645 C 0.03584 0.02683 0.27467 0.0
C646 C 0.03508 0.04507 0.2571 0.0
C647 C 0.05147 0.05669 0.25535 0.0
C648 C 0.01808 0.01483 0.27656 0.0
C649 C 1.0016 0.02257 0.29455 0.0
C650 C 0.01722 0.99603 0.26063 0.0
C651 C 0.03393 0.98715 0.24042 0.0
C652 C 0.0425 0.99625 0.20797 0.0
C653 C 0.05837 0.98785 0.18934 0.0
C654 C 0.06571 0.97029 0.20273 0.0
C655 C 0.05715 0.96105 0.2347 0.0
C656 C 0.04129 0.9694 0.25345 0.0
C657 C 0.93061 0.97878 0.26741 0.0
C658 C 0.93122 0.95911 0.27706 0.0
C659 C 0.94746 0.98991 0.26821 0.0
C660 C 0.96512 0.98176 0.2801 0.0
C661 C 0.96555 0.96215 0.29041 0.0
C662 C 0.94886 0.95092 0.2885 0.0
C663 C 0.9833 0.99335 0.28051 0.0
C664 C 0.99991 0.98557 0.26282 0.0
C665 C 0.98434 0.01204 0.29722 0.0
C666 C 0.96794 0.02075 0.3188 0.0
C667 C 0.95943 0.01104 0.35057 0.0
C668 C 0.94386 0.01926 0.37051 0.0
C669 C 0.93675 0.03725 0.35912 0.0
C670 C 0.94524 0.04709 0.32784 0.0
C671 C 0.9608 0.03893 0.30778 0.0
H672 H 0.92468 0.04359 0.37458 0.0
H673 H 0.078 0.96381 0.18828 0.0
H674 H 0.98947 0.58077 0.53091 0.0
H675 H 0.00934 0.55145 0.53386 0.0
H676 H 0.95872 0.51761 0.55904 0.0
H677 H 0.93883 0.54665 0.55548 0.0
H678 H 0.99205 0.50696 0.60405 0.0
H679 H 0.97231 0.51822 0.4707 0.0
H680 H 0.96877 0.53762 0.41062 0.0
H681 H 0.03025 0.54328 0.40237 0.0
H682 H 0.03414 0.52418 0.46286 0.0
H683 H 0.02895 0.41352 0.55512 0.0
H684 H 0.0088 0.44251 0.5598 0.0
H685 H 0.05522 0.47668 0.51235 0.0
H686 H 0.0751 0.44806 0.50681 0.0
H687 H 0.02328 0.48718 0.47954 0.0
H688 H 0.04356 0.47617 0.61226 0.0
H689 H 0.04757 0.45764 0.67336 0.0
H690 H 0.98616 0.45211 0.68394 0.0
H691 H 0.98179 0.47041 0.62258 0.0
C692 C 0.98267 0.56714 0.53782 0.0
C693 C 0.9626 0.56599 0.54276 0.0
C694 C 0.99399 0.5504 0.53932 0.0
C695 C 0.98546 0.53234 0.54639 0.0
C696 C 0.96559 0.53137 0.55354 0.0
C697 C 0.95425 0.54798 0.55135 0.0
C698 C 0.99688 0.51428 0.54358 0.0
C699 C 0.99877 0.50251 0.57679 0.0
C700 C 0.00579 0.50863 0.50812 0.0
C701 C 0.0035 0.51997 0.47157 0.0
C702 C 0.98507 0.52375 0.45629 0.0
C703 C 0.983 0.53467 0.42213 0.0
C704 C 0.99927 0.54173 0.40276 0.0
C705 C 0.01766 0.53784 0.41746 0.0
C706 C 0.0198 0.52697 0.45167 0.0
C707 C 0.03484 0.4272 0.54565 0.0
C708 C 0.05372 0.42836 0.53077 0.0
C709 C 0.02334 0.44381 0.54853 0.0
C710 C 0.03055 0.4619 0.53689 0.0
C711 C 0.04927 0.46297 0.52159 0.0
C712 C 0.06069 0.44648 0.51858 0.0
C713 C 0.01876 0.47981 0.54024 0.0
C714 C 0.01668 0.49157 0.50696 0.0
C715 C 0.00978 0.48548 0.57575 0.0
C716 C 0.01236 0.47447 0.6126 0.0
C717 C 0.03092 0.47086 0.62745 0.0
C718 C 0.03325 0.46043 0.66216 0.0
C719 C 0.01713 0.45365 0.68246 0.0
C720 C 0.99863 0.45734 0.66814 0.0
C721 C 0.99622 0.46775 0.63341 0.0
H722 H 0.01897 0.44558 0.70934 0.0
H723 H 0.99764 0.55017 0.3763 0.0
H724 H 0.42071 0.49303 0.78383 0.0
H725 H 0.45021 0.51243 0.78912 0.0
H726 H 0.48281 0.46132 0.81668 0.0
H727 H 0.45358 0.44181 0.81048 0.0
H728 H 0.49297 0.49996 0.85993 0.0
H729 H 0.48769 0.46794 0.73253 0.0
H730 H 0.46578 0.45801 0.67935 0.0
H731 H 0.45199 0.51728 0.6564 0.0
H732 H 0.47364 0.52754 0.70999 0.0
H733 H 0.58799 0.52777 0.80403 0.0
H734 H 0.55805 0.50965 0.81318 0.0
H735 H 0.52683 0.55319 0.74912 0.0
H736 H 0.55656 0.57115 0.73928 0.0
H737 H 0.51531 0.51847 0.72683 0.0
H738 H 0.52529 0.55073 0.84982 0.0
H739 H 0.54342 0.55997 0.90901 0.0
H740 H 0.54671 0.50059 0.94392 0.0
H741 H 0.52884 0.49096 0.8846 0.0
C742 C 0.43407 0.48603 0.79202 0.0
C743 C 0.43492 0.46592 0.79639 0.0
C744 C 0.45087 0.49711 0.79512 0.0
C745 C 0.46862 0.48827 0.8034 0.0
C746 C 0.46922 0.4684 0.81062 0.0
C747 C 0.45255 0.45728 0.80673 0.0
C748 C 0.48686 0.49905 0.79822 0.0
C749 C 0.49801 0.50393 0.83094 0.0
C750 C 0.49324 0.50427 0.76039 0.0
C751 C 0.48218 0.49848 0.72524 0.0
C752 C 0.4801 0.47885 0.7159 0.0
C753 C 0.46767 0.47316 0.68586 0.0
C754 C 0.4574 0.487 0.66477 0.0
C755 C 0.45991 0.50659 0.67294 0.0
C756 C 0.47229 0.51236 0.70308 0.0
C757 C 0.57477 0.53348 0.79181 0.0
C758 C 0.57475 0.55101 0.77106 0.0
C759 C 0.55763 0.52313 0.79721 0.0
C760 C 0.54011 0.53016 0.78225 0.0
C761 C 0.54013 0.54746 0.76099 0.0
C762 C 0.5572 0.55777 0.75551 0.0
C763 C 0.5217 0.51963 0.78873 0.0
C764 C 0.51043 0.51466 0.75602 0.0
C765 C 0.51528 0.51434 0.82673 0.0
C766 C 0.5259 0.52011 0.86256 0.0
C767 C 0.53 0.53963 0.86997 0.0
C768 C 0.54022 0.54494 0.90356 0.0
C769 C 0.54626 0.53087 0.93015 0.0
C770 C 0.54205 0.51147 0.92326 0.0
C771 C 0.53187 0.50608 0.88967 0.0
H772 H 0.55417 0.53502 0.95614 0.0
H773 H 0.44739 0.48249 0.64234 0.0
H774 H 0.57241 0.94973 0.01494 0.0
H775 H 0.55336 0.97901 0.02189 0.0
H776 H 0.50241 0.94494 0.04256 0.0
H777 H 0.52151 0.91527 0.03567 0.0
H778 H 0.49737 0.97439 0.98646 0.0
H779 H 0.5226 0.968 0.11726 0.0
H780 H 0.54826 0.96375 0.16642 0.0
H781 H 0.57553 0.01584 0.1271 0.0
H782 H 0.55017 0.02026 0.07732 0.0
H783 H 0.43611 0.05055 0.03729 0.0
H784 H 0.4552 0.02114 0.03925 0.0
H785 H 0.50744 0.05481 0.03645 0.0
H786 H 0.48823 0.08458 0.03576 0.0
H787 H 0.51203 0.02535 0.08406 0.0
H788 H 0.48932 0.03215 0.95323 0.0
H789 H 0.46556 0.03713 0.90053 0.0
H790 H 0.43601 0.98539 0.93455 0.0
H791 H 0.45944 0.98024 0.98787 0.0
C792 C 0.55716 0.94835 0.02115 0.0
C793 C 0.5485 0.93006 0.02469 0.0
C794 C 0.54631 0.96518 0.0253 0.0
C795 C 0.52649 0.9642 0.03302 0.0
C796 C 0.51772 0.94601 0.03672 0.0
C797 C 0.52865 0.92908 0.03294 0.0
C798 C 0.51496 0.98223 0.03581 0.0
C799 C 0.50031 0.98539 0.00826 0.0
C800 C 0.51937 0.99693 0.06319 0.0
C801 C 0.53455 0.99437 0.09334 0.0
C802 C 0.53414 0.97847 0.1189 0.0
C803 C 0.54862 0.97605 0.14691 0.0
C804 C 0.56354 0.9895 0.14983 0.0
C805 C 0.56398 0.00543 0.12479 0.0
C806 C 0.54954 0.00791 0.09671 0.0
C807 C 0.45167 0.05177 0.03724 0.0
C808 C 0.46065 0.06995 0.03594 0.0
C809 C 0.46259 0.03488 0.03819 0.0
C810 C 0.48279 0.03566 0.03698 0.0
C811 C 0.49186 0.05381 0.03714 0.0
C812 C 0.48089 0.07082 0.03674 0.0
C813 C 0.49425 0.01748 0.03489 0.0
C814 C 0.50896 0.01433 0.06239 0.0
C815 C 0.49015 0.00291 0.00694 0.0
C816 C 0.47604 0.00591 0.97481 0.0
C817 C 0.47768 0.02191 0.94968 0.0
C818 C 0.46428 0.02475 0.91966 0.0
C819 C 0.44926 0.01161 0.91425 0.0
C820 C 0.44764 0.99557 0.9388 0.0
C821 C 0.46098 0.99268 0.96891 0.0
H822 H 0.4389 0.01383 0.89098 0.0
H823 H 0.57474 0.98759 0.17153 0.0
H824 H 0.05108 0.44206 0.03535 0.0
H825 H 0.02281 0.46241 0.0288 0.0
H826 H 0.05915 0.51176 0.00768 0.0
H827 H 0.08786 0.49136 0.01489 0.0
H828 H 0.03205 0.51965 0.06143 0.0
H829 H 0.03213 0.49213 0.93384 0.0
H830 H 0.03381 0.46611 0.88475 0.0
H831 H 0.98229 0.44084 0.93187 0.0
H832 H 0.98046 0.46654 0.98167 0.0
H833 H 0.95061 0.57906 0.02688 0.0
H834 H 0.98088 0.5615 0.0209 0.0
H835 H 0.95012 0.5076 0.02992 0.0
H836 H 0.91957 0.52522 0.03395 0.0
H837 H 0.97603 0.50395 0.97715 0.0
H838 H 0.97954 0.52896 0.11122 0.0
H839 H 0.97995 0.55398 0.16288 0.0
H840 H 0.02513 0.58395 0.10255 0.0
H841 H 0.02528 0.55902 0.05097 0.0
C842 C 0.05319 0.4572 0.02897 0.0
C843 C 0.07185 0.46505 0.02579 0.0
C844 C 0.03691 0.46883 0.02494 0.0
C845 C 0.03879 0.4886 0.01733 0.0
C846 C 0.05735 0.49651 0.01342 0.0
C847 C 0.07375 0.48482 0.01739 0.0
C848 C 0.0213 0.50103 0.01602 0.0
C849 C 0.01992 0.51644 0.04245 0.0
C850 C 0.00531 0.49661 0.99188 0.0
C851 C 0.00624 0.48121 0.9617 0.0
C852 C 0.02123 0.48095 0.93392 0.0
C853 C 0.0222 0.46627 0.90594 0.0
C854 C 0.00819 0.45181 0.90524 0.0
C855 C 0.99315 0.45205 0.93246 0.0
C856 C 0.99212 0.46669 0.96055 0.0
C857 C 0.95027 0.56346 0.02761 0.0
C858 C 0.93266 0.55354 0.03101 0.0
C859 C 0.96766 0.5534 0.02454 0.0
C860 C 0.96797 0.53316 0.02592 0.0
C861 C 0.95035 0.52321 0.02891 0.0
C862 C 0.93287 0.53328 0.03119 0.0
C863 C 0.98656 0.52236 0.02328 0.0
C864 C 0.98816 0.50725 0.99599 0.0
C865 C 0.0028 0.52705 0.04664 0.0
C866 C 1.00225 0.54227 0.07706 0.0
C867 C 0.98943 0.54098 0.10884 0.0
C868 C 0.9896 0.55509 0.13813 0.0
C869 C 0.00238 0.5706 0.13577 0.0
C870 C 0.01517 0.57197 0.10428 0.0
C871 C 0.01521 0.55782 0.07512 0.0
H872 H 0.00245 0.58149 0.15847 0.0
H873 H 0.00898 0.44045 0.88356 0.0
H874 H 0.43465 0.45186 0.27346 0.0
H875 H 0.45545 0.48013 0.27042 0.0
H876 H 0.50514 0.44435 0.29182 0.0
H877 H 0.48426 0.41566 0.29445 0.0
H878 H 0.50214 0.47853 0.34068 0.0
H879 H 0.50033 0.46081 0.20492 0.0
H880 H 0.48464 0.45174 0.14282 0.0
H881 H 0.4544 0.50574 0.14111 0.0
H882 H 0.46966 0.51501 0.20358 0.0
H883 H 0.57059 0.5517 0.30689 0.0
H884 H 0.55209 0.522 0.30411 0.0
H885 H 0.50251 0.55358 0.26307 0.0
H886 H 0.52115 0.58362 0.26518 0.0
H887 H 0.5063 0.52062 0.22339 0.0
H888 H 0.50618 0.53835 0.35846 0.0
H889 H 0.52034 0.54809 0.42165 0.0
H890 H 0.5522 0.49509 0.42662 0.0
H891 H 0.53848 0.48515 0.36307 0.0
C892 C 0.45002 0.44991 0.27734 0.0
C893 C 0.4578 0.43148 0.28427 0.0
C894 C 0.46189 0.46612 0.27545 0.0
C895 C 0.48184 0.46436 0.2808 0.0
C896 C 0.48976 0.446 0.28759 0.0
C897 C 0.47786 0.42963 0.28886 0.0
C898 C 0.49413 0.4819 0.28019 0.0
C899 C 0.50339 0.48756 0.31485 0.0
C900 C 0.49513 0.49401 0.24687 0.0
C901 C 0.48601 0.48853 0.20915 0.0
C902 C 0.4902 0.47069 0.19149 0.0
C903 C 0.48141 0.46552 0.15619 0.0
C904 C 0.4685 0.47814 0.13808 0.0
C905 C 0.46439 0.49597 0.15519 0.0
C906 C 0.47312 0.5012 0.19054 0.0
C907 C 0.55574 0.55246 0.29726 0.0
C908 C 0.54735 0.57019 0.28652 0.0
C909 C 0.54514 0.53538 0.29581 0.0
C910 C 0.52579 0.53553 0.284 0.0
C911 C 0.51742 0.5531 0.27243 0.0
C912 C 0.52808 0.57028 0.27372 0.0
C913 C 0.51439 0.51731 0.28392 0.0
C914 C 0.50521 0.51156 0.2492 0.0
C915 C 0.51326 0.50522 0.31737 0.0
C916 C 0.52143 0.51108 0.35578 0.0
C917 C 0.51632 0.52882 0.37287 0.0
C918 C 0.52424 0.53437 0.40878 0.0
C919 C 0.53716 0.52222 0.42813 0.0
C920 C 0.54218 0.50449 0.41159 0.0
C921 C 0.53433 0.49888 0.37563 0.0
H922 H 0.54329 0.52655 0.45591 0.0
H923 H 0.46171 0.47411 0.11074 0.0
H924 H 0.41409 0.02353 0.52003 0.0
H925 H 0.44316 0.00384 0.51122 0.0
H926 H 0.4785 0.05233 0.54399 0.0
H927 H 0.44977 0.07202 0.55278 0.0
H928 H 0.49312 0.03314 0.47997 0.0
H929 H 0.4692 0.01789 0.60928 0.0
H930 H 0.44465 0.00705 0.65667 0.0
H931 H 0.44097 0.95241 0.59801 0.0
H932 H 0.46531 0.96305 0.54989 0.0
H933 H 0.58229 0.98685 0.52492 0.0
H934 H 0.55266 0.00608 0.52362 0.0
H935 H 0.51914 0.95417 0.50911 0.0
H936 H 0.54852 0.93496 0.51206 0.0
H937 H 0.50274 0.97462 0.56108 0.0
H938 H 0.52724 0.98877 0.43291 0.0
H939 H 0.55126 0.99941 0.3842 0.0
H940 H 0.55333 0.05534 0.43794 0.0
H941 H 0.5295 0.04496 0.48729 0.0
C942 C 0.42805 0.03002 0.52516 0.0
C943 C 0.42952 0.04935 0.53732 0.0
C944 C 0.44465 0.01874 0.52021 0.0
C945 C 0.46302 0.02659 0.52716 0.0
C946 C 0.46452 0.04596 0.5384 0.0
C947 C 0.448 0.05717 0.54363 0.0
C948 C 0.48074 0.01463 0.52389 0.0
C949 C 0.49532 0.0204 0.49786 0.0
C950 C 0.48343 0.99781 0.54664 0.0
C951 C 0.46892 0.99135 0.57575 0.0
C952 C 0.46305 0.00362 0.60631 0.0
C953 C 0.44919 0.9975 0.63333 0.0
C954 C 0.44122 0.97907 0.63029 0.0
C955 C 0.44714 0.96669 0.60029 0.0
C956 C 0.46097 0.97276 0.57315 0.0
C957 C 0.56861 0.9796 0.52095 0.0
C958 C 0.56776 0.95939 0.51867 0.0
C959 C 0.55165 0.9906 0.52009 0.0
C960 C 0.53355 0.98164 0.51594 0.0
C961 C 0.53282 0.96148 0.51256 0.0
C962 C 0.54968 0.9505 0.51413 0.0
C963 C 0.51529 0.99303 0.51694 0.0
C964 C 0.50058 0.98722 0.54276 0.0
C965 C 0.51243 0.00973 0.49372 0.0
C966 C 0.52671 0.01603 0.464 0.0
C967 C 0.53292 0.0033 0.4345 0.0
C968 C 0.54648 0.00929 0.40675 0.0
C969 C 0.55385 0.02802 0.40803 0.0
C970 C 0.54762 0.04083 0.43701 0.0
C971 C 0.53407 0.0349 0.46485 0.0
H972 H 0.56435 0.03263 0.38653 0.0
H973 H 0.43049 0.97435 0.65124 0.0
H974 H 0.0649 0.04482 0.76643 0.0
H975 H 0.04378 0.01672 0.76347 0.0
H976 H 0.99425 0.05334 0.78031 0.0
H977 H 0.01543 0.08179 0.78271 0.0
H978 H 0.99733 0.02072 0.83326 0.0
H979 H 0.99919 0.03426 0.69517 0.0
H980 H 0.01508 0.0411 0.63206 0.0
H981 H 0.04477 0.98686 0.63782 0.0
H982 H 0.02927 0.97981 0.70128 0.0
H983 H 0.92916 0.94616 0.81278 0.0
H984 H 0.94727 0.97597 0.80536 0.0
H985 H 0.99629 0.94382 0.76309 0.0
H986 H 0.97797 0.91378 0.76947 0.0
H987 H 0.99248 0.97527 0.72144 0.0
H988 H 0.99348 0.9615 0.85798 0.0
H989 H 0.9804 0.9538 0.92331 0.0
H990 H 0.94889 0.00707 0.92398 0.0
H991 H 0.96146 0.01493 0.85826 0.0
C992 C 0.04948 0.04696 0.76897 0.0
C993 C 0.04181 0.06552 0.77483 0.0
C994 C 0.03743 0.03088 0.76717 0.0
C995 C 0.01746 0.03294 0.77162 0.0
C996 C 0.00965 0.05147 0.77673 0.0
C997 C 0.02172 0.06769 0.77785 0.0
C998 C 0.00505 0.01552 0.77314 0.0
C999 C 0.99589 0.01096 0.80859 0.0
C1000 C 0.00392 1.00242 0.74144 0.0
C1001 C 0.01318 0.00658 0.70316 0.0
C1002 C 0.00923 0.02386 0.68315 0.0
C1003 C 0.01814 0.02776 0.64727 0.0
C1004 C 0.03096 0.01445 0.63098 0.0
C1005 C 0.03485 0.99717 0.65049 0.0
C1006 C 0.02599 0.9932 0.68639 0.0
C1007 C 0.9438 0.94535 0.80191 0.0
C1008 C 0.95214 0.92749 0.79198 0.0
C1009 C 0.95418 0.96247 0.79779 0.0
C1010 C 0.9733 0.96219 0.78431 0.0
C1011 C 0.98158 0.94443 0.77365 0.0
C1012 C 0.9711 0.92725 0.77739 0.0
C1013 C 0.9846 0.98042 0.78162 0.0
C1014 C 0.99368 0.98508 0.74606 0.0
C1015 C 0.98599 0.99345 0.81353 0.0
C1016 C 0.97827 0.98872 0.85298 0.0
C1017 C 0.98362 0.9715 0.87188 0.0
C1018 C 0.97632 0.96712 0.90901 0.0
C1019 C 0.96385 0.97995 0.92779 0.0
C1020 C 0.95858 0.99716 0.90941 0.0
C1021 C 0.96577 1.00158 0.87219 0.0
H1022 H 0.95825 0.97656 0.95657 0.0
H1023 H 0.03785 0.01749 0.6032 0.0
H1024 H 0.11221 0.1511 0.70492 0.0
H1025 H 0.12702 0.15645 0.64035 0.0
H1026 H 0.11786 0.09642 0.61193 0.0
H1027 H 0.10427 0.091 0.67701 0.0
H1028 H 0.14938 0.10818 0.57774 0.0
H1029 H 0.08269 0.1341 0.59313 0.0
H1030 H 0.06043 0.15631 0.62718 0.0
H1031 H 0.09597 0.2044 0.59472 0.0
H1032 H 0.11848 0.18244 0.56074 0.0
H1033 H 0.10914 0.08296 0.4077 0.0
H1034 H 0.11259 0.09504 0.47433 0.0
H1035 H 0.13377 0.14932 0.43001 0.0
H1036 H 0.12932 0.13752 0.36248 0.0
H1037 H 0.10764 0.15128 0.49837 0.0
H1038 H 0.16893 0.12171 0.46376 0.0
H1039 H 0.18523 0.09625 0.42549 0.0
H1040 H 0.15528 0.05285 0.49132 0.0
H1041 H 0.13933 0.07799 0.53072 0.0
C1042 C 0.11385 0.13908 0.68494 0.0
C1043 C 0.10707 0.12072 0.6951 0.0
C1044 C 0.12227 0.1421 0.64827 0.0
C1045 C 0.12324 0.12691 0.62109 0.0
C1046 C 0.11736 0.10834 0.63243 0.0
C1047 C 0.10943 0.10525 0.66933 0.0
C1048 C 0.12763 0.13041 0.5793 0.0
C1049 C 0.14065 0.11799 0.56049 0.0
C1050 C 0.11646 0.14342 0.55667 0.0
C1051 C 0.10229 0.15667 0.57474 0.0
C1052 C 0.08566 0.14943 0.59311 0.0
C1053 C 0.07304 0.16195 0.61245 0.0
C1054 C 0.07682 0.18173 0.61318 0.0
C1055 C 0.09307 0.18907 0.59413 0.0
C1056 C 0.10576 0.17661 0.57482 0.0
C1057 C 0.11436 0.09752 0.41215 0.0
C1058 C 0.11927 0.10925 0.38033 0.0
C1059 C 0.11632 0.10441 0.45007 0.0
C1060 C 0.12392 0.12285 0.45682 0.0
C1061 C 0.12804 0.135 0.42514 0.0
C1062 C 0.12556 0.12825 0.38685 0.0
C1063 C 0.12856 0.12838 0.49734 0.0
C1064 C 0.1173 0.14245 0.51574 0.0
C1065 C 0.14121 0.11679 0.51964 0.0
C1066 C 0.15314 0.10172 0.50048 0.0
C1067 C 0.1662 0.10671 0.47065 0.0
C1068 C 0.17534 0.09234 0.4487 0.0
C1069 C 0.17136 0.07294 0.45607 0.0
C1070 C 0.15854 0.06787 0.48593 0.0
C1071 C 0.14964 0.08216 0.50843 0.0
H1072 H 0.17814 0.06184 0.43856 0.0
H1073 H 0.06721 0.19134 0.62864 0.0
H1074 H 0.88197 0.60122 0.61678 0.0
H1075 H 0.8692 0.60524 0.68266 0.0
H1076 H 0.90493 0.65559 0.69886 0.0
H1077 H 0.91855 0.65097 0.63343 0.0
H1078 H 0.9104 0.63311 0.75535 0.0
H1079 H 0.85313 0.65709 0.69764 0.0
H1080 H 0.82564 0.6584 0.65203 0.0
H1081 H 0.80446 0.60469 0.69734 0.0
H1082 H 0.83196 0.6029 0.74285 0.0
H1083 H 0.88015 0.63426 0.95062 0.0
H1084 H 0.87957 0.64605 0.88334 0.0
H1085 H 0.85823 0.59101 0.84385 0.0
H1086 H 0.85858 0.57903 0.91109 0.0
H1087 H 0.84325 0.62312 0.80107 0.0
H1088 H 0.90466 0.59693 0.84669 0.0
H1089 H 0.93231 0.59554 0.89198 0.0
H1090 H 0.94528 0.65489 0.86768 0.0
H1091 H 0.91751 0.65668 0.82266 0.0
C1092 C 0.88683 0.61337 0.6341 0.0
C1093 C 0.90139 0.62566 0.62023 0.0
C1094 C 0.87936 0.61579 0.67169 0.0
C1095 C 0.88591 0.63087 0.6957 0.0
C1096 C 0.89966 0.64384 0.68091 0.0
C1097 C 0.90746 0.64117 0.64361 0.0
C1098 C 0.88057 0.63128 0.73776 0.0
C1099 C 0.89561 0.63154 0.76522 0.0
C1100 C 0.86134 0.62881 0.75086 0.0
C1101 C 0.8447 0.62983 0.72359 0.0
C1102 C 0.84269 0.64549 0.69772 0.0
C1103 C 0.82708 0.64633 0.6719 0.0
C1104 C 0.81333 0.63163 0.67176 0.0
C1105 C 0.81512 0.61607 0.6975 0.0
C1106 C 0.8307 0.61516 0.72337 0.0
C1107 C 0.87495 0.62474 0.92782 0.0
C1108 C 0.86985 0.60553 0.93613 0.0
C1109 C 0.87455 0.63157 0.88942 0.0
C1110 C 0.86911 0.6193 0.85875 0.0
C1111 C 0.86248 0.60067 0.86724 0.0
C1112 C 0.86286 0.59381 0.90566 0.0
C1113 C 0.87308 0.62471 0.81776 0.0
C1114 C 0.85788 0.62536 0.7908 0.0
C1115 C 0.89214 0.62814 0.80492 0.0
C1116 C 0.90889 0.62701 0.83175 0.0
C1117 C 0.91332 0.60972 0.85127 0.0
C1118 C 0.92902 0.60885 0.87684 0.0
C1119 C 0.94051 0.62514 0.88281 0.0
C1120 C 0.93634 0.6423 0.86311 0.0
C1121 C 0.92063 0.64325 0.83758 0.0
H1122 H 0.95266 0.62444 0.9026 0.0
H1123 H 0.80126 0.6323 0.65174 0.0
H1124 H 0.42506 0.35393 0.16968 0.0
H1125 H 0.4162 0.3517 0.10056 0.0
H1126 H 0.36989 0.39218 0.1195 0.0
H1127 H 0.37825 0.39411 0.18866 0.0
H1128 H 0.35952 0.36621 0.06595 0.0
H1129 H 0.41383 0.40805 0.08892 0.0
H1130 H 0.44607 0.41634 0.11422 0.0
H1131 H 0.47129 0.37175 0.04349 0.0
H1132 H 0.43914 0.36312 0.01799 0.0
H1133 H 0.35885 0.42355 0.89224 0.0
H1134 H 0.35943 0.40889 0.95731 0.0
H1135 H 0.39862 0.36519 0.91561 0.0
H1136 H 0.39811 0.37962 0.85045 0.0
H1137 H 0.41253 0.38708 0.978 0.0
H1138 H 0.356 0.35112 0.94519 0.0
H1139 H 0.32303 0.34654 0.92009 0.0
H1140 H 0.30095 0.38422 0.00928 0.0
H1141 H 0.33384 0.38922 0.03466 0.0
C1142 C 0.41281 0.36214 0.15926 0.0
C1143 C 0.40259 0.37449 0.18451 0.0
C1144 C 0.40775 0.36081 0.11979 0.0
C1145 C 0.39262 0.37205 0.10482 0.0
C1146 C 0.38162 0.3834 0.13045 0.0
C1147 C 0.38652 0.38457 0.16997 0.0
C1148 C 0.38958 0.37378 0.06209 0.0
C1149 C 0.37108 0.37076 0.04663 0.0
C1150 C 0.40473 0.37956 0.03693 0.0
C1151 C 0.42409 0.3848 0.05191 0.0
C1152 C 0.42625 0.39995 0.07895 0.0
C1153 C 0.44449 0.40472 0.09328 0.0
C1154 C 0.46071 0.39454 0.08055 0.0
C1155 C 0.45871 0.37961 0.05336 0.0
C1156 C 0.44049 0.37478 0.03892 0.0
C1157 C 0.36728 0.41058 0.89666 0.0
C1158 C 0.37866 0.40292 0.8663 0.0
C1159 C 0.36748 0.40215 0.93378 0.0
C1160 C 0.37907 0.38598 0.94111 0.0
C1161 C 0.38955 0.37764 0.91037 0.0
C1162 C 0.38923 0.38594 0.87318 0.0
C1163 C 0.38244 0.37963 0.98179 0.0
C1164 C 0.40105 0.38199 -0.00301 0.0
C1165 C 0.36727 0.37371 0.00668 0.0
C1166 C 0.34743 0.37064 0.99168 0.0
C1167 C 0.34414 0.35855 0.95929 0.0
C1168 C 0.32546 0.35584 0.94505 0.0
C1169 C 0.30991 0.3651 0.96304 0.0
C1170 C 0.31301 0.37705 0.99539 0.0
C1171 C 0.33167 0.37979 0.00976 0.0
H1172 H 0.29545 0.363 0.95196 0.0
H1173 H 0.47483 0.39825 0.09169 0.0
H1174 H 0.64047 0.9282 0.40275 0.0
H1175 H 0.64223 0.91469 0.33678 0.0
H1176 H 0.62076 0.86035 0.37993 0.0
H1177 H 0.61874 0.87369 0.4459 0.0
H1178 H 0.65884 0.88217 0.29913 0.0
H1179 H 0.58513 0.84674 0.31664 0.0
H1180 H 0.55619 0.8488 0.35857 0.0
H1181 H 0.56678 0.90908 0.37762 0.0
H1182 H 0.5956 0.90741 0.33539 0.0
H1183 H 0.58919 0.84631 0.12786 0.0
H1184 H 0.60106 0.84439 0.19521 0.0
H1185 H 0.63578 0.89516 0.1756 0.0
H1186 H 0.62483 0.89644 0.10802 0.0
H1187 H 0.59341 0.86845 0.24773 0.0
H1188 H 0.67099 0.90104 0.23961 0.0
H1189 H 0.69978 0.89886 0.1975 0.0
H1190 H 0.68179 0.84305 0.15731 0.0
H1191 H 0.65302 0.84475 0.1996 0.0
C1192 C 0.63641 0.91328 0.39841 0.0
C1193 C 0.62903 0.90218 0.42947 0.0
C1194 C 0.63759 0.90554 0.36073 0.0
C1195 C 0.63138 0.88664 0.35356 0.0
C1196 C 0.62543 0.87505 0.38494 0.0
C1197 C 0.62421 0.88276 0.42259 0.0
C1198 C 0.62866 0.88005 0.31283 0.0
C1199 C 0.64459 0.87913 0.28763 0.0
C1200 C 0.6101 0.87557 0.29843 0.0
C1201 C 0.59262 0.87687 0.32331 0.0
C1202 C 0.58123 0.86043 0.32972 0.0
C1203 C 0.56486 0.86153 0.35352 0.0
C1204 C 0.55969 0.87904 0.37087 0.0
C1205 C 0.57083 0.89551 0.36429 0.0
C1206 C 0.58719 0.89449 0.34045 0.0
C1207 C 0.59972 0.85675 0.13777 0.0
C1208 C 0.60603 0.87158 0.11286 0.0
C1209 C 0.60652 0.85564 0.17619 0.0
C1210 C 0.61945 0.86954 0.19055 0.0
C1211 C 0.62626 0.88392 0.16512 0.0
C1212 C 0.61983 0.88476 0.12648 0.0
C1213 C 0.6236 0.87076 0.23311 0.0
C1214 C 0.60784 0.87084 0.25893 0.0
C1215 C 0.64235 0.87434 0.2479 0.0
C1216 C 0.65976 0.87308 0.22267 0.0
C1217 C 0.67322 0.88824 0.222 0.0
C1218 C 0.68953 0.8871 0.19803 0.0
C1219 C 0.69259 0.87084 0.17469 0.0
C1220 C 0.67937 0.85566 0.17533 0.0
C1221 C 0.66304 0.85672 0.19925 0.0
H1222 H 0.70522 0.87 0.15614 0.0
H1223 H 0.54703 0.87986 0.38933 0.0
H1224 H 0.13246 0.39226 0.62912 0.0
H1225 H 0.14134 0.39048 0.69796 0.0
H1226 H 0.09712 0.34778 0.71746 0.0
H1227 H 0.08773 0.3499 0.64864 0.0
H1228 H 0.09324 0.37565 0.76675 0.0
H1229 H 0.14618 0.33704 0.72738 0.0
H1230 H 0.17447 0.32743 0.68825 0.0
H1231 H 0.20467 0.37818 0.72575 0.0
H1232 H 0.17647 0.38827 0.76467 0.0
H1233 H 0.1147 0.3775 0.96677 0.0
H1234 H 0.11558 0.36303 0.90169 0.0
H1235 H 0.14874 0.41117 0.85877 0.0
H1236 H 0.14801 0.42585 0.92383 0.0
H1237 H 0.15882 0.3742 0.82452 0.0
H1238 H 0.10325 0.41508 0.85148 0.0
H1239 H 0.07486 0.42505 0.89001 0.0
H1240 H 0.04973 0.36901 0.87448 0.0
H1241 H 0.07814 0.35862 0.83631 0.0
C1242 C 0.12484 0.38221 0.64784 0.0
C1243 C 0.10923 0.37141 0.63354 0.0
C1244 C 0.13006 0.38108 0.6872 0.0
C1245 C 0.12 0.36887 0.71284 0.0
C1246 C 0.10507 0.3573 0.69816 0.0
C1247 C 0.09969 0.35858 0.65887 0.0
C1248 C 0.12336 0.3702 0.75557 0.0
C1249 C 0.10754 0.37476 0.77945 0.0
C1250 C 0.14207 0.36949 0.77209 0.0
C1251 C 0.15913 0.36347 0.74881 0.0
C1252 C 0.1588 0.34623 0.72709 0.0
C1253 C 0.17483 0.34069 0.70497 0.0
C1254 C 0.19134 0.3522 0.70448 0.0
C1255 C 0.19187 0.36928 0.72617 0.0
C1256 C 0.17587 0.3749 0.74832 0.0
C1257 C 0.12255 0.38486 0.94379 0.0
C1258 C 0.13092 0.40306 0.95028 0.0
C1259 C 0.12308 0.3765 0.90667 0.0
C1260 C 0.13203 0.38617 0.87555 0.0
C1261 C 0.14177 0.40353 0.88257 0.0
C1262 C 0.14118 0.41196 0.91967 0.0
C1263 C 0.12876 0.37979 0.83492 0.0
C1264 C 0.14454 0.37448 0.81165 0.0
C1265 C 0.11002 0.37974 0.81877 0.0
C1266 C 0.0929 0.386 0.84151 0.0
C1267 C 0.09174 0.40484 0.85659 0.0
C1268 C 0.07564 0.41057 0.8783 0.0
C1269 C 0.06052 0.39765 0.8848 0.0
C1270 C 0.06147 0.37898 0.8695 0.0
C1271 C 0.07756 0.37317 0.84783 0.0
H1272 H 0.04806 0.40213 0.90159 0.0
H1273 H 0.20374 0.34788 0.68733 0.0
H1274 H 0.62991 0.61537 0.20123 0.0
H1275 H 0.64215 0.61621 0.13419 0.0
H1276 H 0.58936 0.64298 0.09558 0.0
H1277 H 0.57711 0.64254 0.16248 0.0
H1278 H 0.62648 0.59703 0.07468 0.0
H1279 H 0.5968 0.66943 0.01493 0.0
H1280 H 0.59114 0.70258 0.03842 0.0
H1281 H 0.63608 0.69597 0.12372 0.0
H1282 H 0.64214 0.66284 0.10054 0.0
H1283 H 0.60535 0.62404 0.862 0.0
H1284 H 0.60533 0.6337 0.93084 0.0
H1285 H 0.65831 0.60244 0.94892 0.0
H1286 H 0.65787 0.59185 0.88065 0.0
H1287 H 0.62643 0.65218 0.98214 0.0
H1288 H 0.65774 0.58014 0.03607 0.0
H1289 H 0.66191 0.54673 0.01267 0.0
H1290 H 0.61136 0.55225 0.94108 0.0
H1291 H 0.60681 0.58563 0.96432 0.0
C1292 C 0.62101 0.62175 0.17864 0.0
C1293 C 0.60242 0.6287 0.18722 0.0
C1294 C 0.62805 0.62221 0.14033 0.0
C1295 C 0.61672 0.62973 0.10995 0.0
C1296 C 0.59849 0.63738 0.11866 0.0
C1297 C 0.59144 0.63696 0.15694 0.0
C1298 C 0.62301 0.62776 0.06869 0.0
C1299 C 0.62694 0.60916 0.05464 0.0
C1300 C 0.62311 0.64353 0.04242 0.0
C1301 C 0.61985 0.6636 0.05607 0.0
C1302 C 0.60556 0.67508 0.03852 0.0
C1303 C 0.60226 0.69386 0.05184 0.0
C1304 C 0.61325 0.70137 0.08253 0.0
C1305 C 0.62757 0.69012 0.09996 0.0
C1306 C 0.63091 0.67133 0.08681 0.0
C1307 C 0.61716 0.61948 0.88055 0.0
C1308 C 0.63143 0.60694 0.86628 0.0
C1309 C 0.61718 0.62507 0.91985 0.0
C1310 C 0.63161 0.61841 0.94529 0.0
C1311 C 0.6468 0.60731 0.93009 0.0
C1312 C 0.64654 0.60131 0.89109 0.0
C1313 C 0.6296 0.62142 0.98812 0.0
C1314 C 0.62639 0.64014 0.0024 0.0
C1315 C 0.62993 0.60573 0.01471 0.0
C1316 C 0.63211 0.58545 0.00153 0.0
C1317 C 0.64749 0.57419 0.01546 0.0
C1318 C 0.64993 0.55527 0.00218 0.0
C1319 C 0.63697 0.54741 0.97526 0.0
C1320 C 0.62145 0.55839 0.96178 0.0
C1321 C 0.61894 0.57731 0.97498 0.0
H1322 H 0.63892 0.53278 0.96492 0.0
H1323 H 0.61065 0.71591 0.09282 0.0
H1324 H 0.39928 0.12499 0.45328 0.0
H1325 H 0.39877 0.13545 0.38527 0.0
H1326 H 0.34568 0.10433 0.36694 0.0
H1327 H 0.34675 0.09284 0.43468 0.0
H1328 H 0.36842 0.09464 0.31458 0.0
H1329 H 0.35024 0.15637 0.36162 0.0
H1330 H 0.35125 0.18562 0.40261 0.0
H1331 H 0.4079 0.19868 0.3595 0.0
H1332 H 0.40739 0.16937 0.31873 0.0
H1333 H 0.37509 0.1189 0.11441 0.0
H1334 H 0.36223 0.12053 0.18094 0.0
H1335 H 0.41728 0.14048 0.22313 0.0
H1336 H 0.43018 0.13941 0.15677 0.0
H1337 H 0.38707 0.15835 0.26065 0.0
H1338 H 0.40626 0.09322 0.22383 0.0
H1339 H 0.40498 0.06379 0.18333 0.0
H1340 H 0.34465 0.0577 0.20859 0.0
H1341 H 0.34553 0.08727 0.24876 0.0
C1342 C 0.38726 0.12072 0.435 0.0
C1343 C 0.37313 0.10799 0.44912 0.0
C1344 C 0.38688 0.12686 0.3961 0.0
C1345 C 0.37203 0.12089 0.37093 0.0
C1346 C 0.35726 0.10911 0.3858 0.0
C1347 C 0.3579 0.10255 0.42444 0.0
C1348 C 0.37341 0.12462 0.32818 0.0
C1349 C 0.37192 0.10875 0.30283 0.0
C1350 C 0.3784 0.14291 0.31265 0.0
C1351 C 0.3788 0.16057 0.33724 0.0
C1352 C 0.36298 0.1654 0.36109 0.0
C1353 C 0.36346 0.18201 0.38427 0.0
C1354 C 0.37964 0.19398 0.38371 0.0
C1355 C 0.39537 0.18939 0.35991 0.0
C1356 C 0.39499 0.17279 0.33671 0.0
C1357 C 0.38441 0.12392 0.13771 0.0
C1358 C 0.40378 0.1287 0.13032 0.0
C1359 C 0.377 0.12486 0.17569 0.0
C1360 C 0.38889 0.1304 0.20692 0.0
C1361 C 0.40787 0.13624 0.19935 0.0
C1362 C 0.41526 0.13544 0.16139 0.0
C1363 C 0.38232 0.12836 0.24789 0.0
C1364 C 0.38296 0.14447 0.27268 0.0
C1365 C 0.37641 0.11033 0.26304 0.0
C1366 C 0.3759 0.0926 0.23878 0.0
C1367 C 0.39269 0.0857 0.22042 0.0
C1368 C 0.39204 0.06899 0.19758 0.0
C1369 C 0.37472 0.05893 0.19325 0.0
C1370 C 0.35803 0.06554 0.21185 0.0
C1371 C 0.3586 0.08228 0.23463 0.0
H1372 H 0.37425 0.04598 0.17559 0.0
H1373 H 0.37997 0.20684 0.40167 0.0
H1374 H 0.90597 0.84439 0.68573 0.0
H1375 H 0.89563 0.84585 0.6173 0.0
H1376 H 0.87291 0.90301 0.63657 0.0
H1377 H 0.88197 0.901 0.70553 0.0
H1378 H 0.85209 0.88669 0.58478 0.0
H1379 H 0.92122 0.8929 0.60271 0.0
H1380 H 0.95284 0.88152 0.62631 0.0
H1381 H 0.94833 0.83127 0.55349 0.0
H1382 H 0.91648 0.84217 0.53001 0.0
H1383 H 0.8672 0.93267 0.40262 0.0
H1384 H 0.86744 0.92176 0.47048 0.0
H1385 H 0.88433 0.86482 0.43292 0.0
H1386 H 0.88465 0.87572 0.3649 0.0
H1387 H 0.9062 0.87662 0.49185 0.0
H1388 H 0.8383 0.87476 0.46648 0.0
H1389 H 0.80765 0.88828 0.44308 0.0
H1390 H 0.8107 0.93288 0.53012 0.0
H1391 H 0.84169 0.91984 0.55354 0.0
C1392 C 0.8983 0.85702 0.67547 0.0
C1393 C 0.89488 0.87266 0.70062 0.0
C1394 C 0.89251 0.8579 0.63637 0.0
C1395 C 0.88407 0.87478 0.62141 0.0
C1396 C 0.8795 0.88987 0.64727 0.0
C1397 C 0.8847 0.88873 0.68668 0.0
C1398 C 0.88163 0.8776 0.57857 0.0
C1399 C 0.86395 0.88456 0.56449 0.0
C1400 C 0.89699 0.8745 0.55186 0.0
C1401 C 0.91641 0.86826 0.56488 0.0
C1402 C 0.92696 0.8794 0.59181 0.0
C1403 C 0.94489 0.87301 0.60523 0.0
C1404 C 0.95254 0.85563 0.59154 0.0
C1405 C 0.94233 0.84468 0.56418 0.0
C1406 C 0.92435 0.85096 0.55079 0.0
C1407 C 0.87076 0.91776 0.40865 0.0
C1408 C 0.87596 0.90509 0.37824 0.0
C1409 C 0.87082 0.91152 0.44753 0.0
C1410 C 0.87572 0.89241 0.45677 0.0
C1411 C 0.88051 0.87962 0.42645 0.0
C1412 C 0.88063 0.88589 0.38756 0.0
C1413 C 0.87678 0.88608 0.49822 0.0
C1414 C 0.89423 0.87846 0.51201 0.0
C1415 C 0.86132 0.88888 0.52471 0.0
C1416 C 0.84237 0.89637 0.51161 0.0
C1417 C 0.83247 0.88749 0.48056 0.0
C1418 C 0.81503 0.89509 0.46727 0.0
C1419 C 0.80719 0.91146 0.48509 0.0
C1420 C 0.81678 0.92021 0.51635 0.0
C1421 C 0.83429 0.91271 0.52966 0.0
H1422 H 0.79371 0.91736 0.47475 0.0
H1423 H 0.96639 0.85068 0.60205 0.0
H1424 H 0.08137 0.0902 0.86702 0.0
H1425 H 0.08792 0.08053 0.93422 0.0
H1426 H 0.05402 0.12828 0.97662 0.0
H1427 H 0.04665 0.13766 0.90858 0.0
H1428 H 0.09765 0.124 -0.00245 0.0
H1429 H 0.03626 0.09189 0.00082 0.0
H1430 H 0.01118 0.07002 0.97558 0.0
H1431 H 0.05049 0.02235 0.98272 0.0
H1432 H 0.07593 0.044 0.00743 0.0
H1433 H 0.11354 0.10783 0.19617 0.0
H1434 H 0.09949 0.11404 0.1325 0.0
H1435 H 0.11401 0.05636 0.09536 0.0
H1436 H 0.12754 0.04966 0.16057 0.0
H1437 H 0.07855 0.06555 0.07188 0.0
H1438 H 0.14004 0.09539 0.06353 0.0
H1439 H 0.16732 0.11581 0.08388 0.0
H1440 H 0.13098 0.16588 0.08025 0.0
H1441 H 0.10339 0.14571 0.0604 0.0
C1442 C 0.07489 0.09839 0.89052 0.0
C1443 C 0.06356 0.11471 0.88274 0.0
C1444 C 0.07859 0.09278 0.92889 0.0
C1445 C 0.07139 0.10366 0.96011 0.0
C1446 C 0.05952 0.11964 0.95264 0.0
C1447 C 0.05533 0.12496 0.914 0.0
C1448 C 0.07855 0.09962 -0.00015 0.0
C1449 C 0.09319 0.1115 0.01439 0.0
C1450 C 0.07336 0.0827 0.02031 0.0
C1451 C 0.05807 0.06962 0.00562 0.0
C1452 C 0.03963 0.07678 -0.00337 0.0
C1453 C 0.02533 0.06441 0.98251 0.0
C1454 C 0.02925 0.04481 0.97744 0.0
C1455 C 0.04748 0.03754 0.98661 0.0
C1456 C 0.06183 0.04985 0.00073 0.0
C1457 C 0.11383 0.0964 0.17458 0.0
C1458 C 0.12168 0.07823 0.18338 0.0
C1459 C 0.10585 0.10004 0.13802 0.0
C1460 C 0.10594 0.08578 0.10897 0.0
C1461 C 0.11385 0.06758 0.11742 0.0
C1462 C 0.1217 0.06382 0.15446 0.0
C1463 C 0.09757 0.09011 0.07006 0.0
C1464 C 0.08289 0.0782 0.0554 0.0
C1465 C 0.10303 0.10679 0.04885 0.0
C1466 C 0.11959 0.119 0.06083 0.0
C1467 C 0.13782 0.11073 0.06738 0.0
C1468 C 0.15335 0.12226 0.07877 0.0
C1469 C 0.15087 0.14212 0.08346 0.0
C1470 C 0.13287 0.15049 0.07666 0.0
C1471 C 0.11728 0.13902 0.0653 0.0
H1472 H 0.16292 0.15103 0.09226 0.0
H1473 H 0.01816 0.03526 0.9665 0.0
H1474 H 0.96077 0.63334 0.4007 0.0
H1475 H 0.95277 0.62225 0.33411 0.0
H1476 H 0.91649 0.57782 0.38264 0.0
H1477 H 0.9236 0.58933 0.44852 0.0
H1478 H 0.94282 0.56905 0.30753 0.0
H1479 H 0.89151 0.60974 0.36645 0.0
H1480 H 0.88125 0.63946 0.40029 0.0
H1481 H 0.90654 0.67369 0.3089 0.0
H1482 H 0.91721 0.64412 0.27487 0.0
H1483 H 0.87637 0.54414 0.15706 0.0
H1484 H 0.89104 0.55153 0.22074 0.0
H1485 H 0.90425 0.60904 0.18049 0.0
H1486 H 0.88881 0.60215 0.11837 0.0
H1487 H 0.89237 0.61131 0.25051 0.0
H1488 H 0.93677 0.57089 0.18277 0.0
H1489 H 0.94642 0.54157 0.14713 0.0
H1490 H 0.93785 0.50776 0.25101 0.0
H1491 H 0.92702 0.5367 0.28675 0.0
C1492 C 0.95144 0.62096 0.39701 0.0
C1493 C 0.94266 0.61228 0.42957 0.0
C1494 C 0.94697 0.61461 0.35914 0.0
C1495 C 0.93414 0.59918 0.35374 0.0
C1496 C 0.92655 0.58962 0.38636 0.0
C1497 C 0.93052 0.59632 0.42396 0.0
C1498 C 0.9261 0.59493 0.31474 0.0
C1499 C 0.93178 0.57819 0.29483 0.0
C1500 C 0.91194 0.60707 0.2983 0.0
C1501 C 0.90534 0.62479 0.31844 0.0
C1502 C 0.89503 0.62362 0.3538 0.0
C1503 C 0.88911 0.64042 0.37296 0.0
C1504 C 0.8933 0.65846 0.35682 0.0
C1505 C 0.90335 0.65972 0.32141 0.0
C1506 C 0.90933 0.64295 0.30218 0.0
C1507 C 0.88228 0.55837 0.16206 0.0
C1508 C 0.88158 0.57249 0.13264 0.0
C1509 C 0.89076 0.56255 0.19829 0.0
C1510 C 0.89907 0.58075 0.20515 0.0
C1511 C 0.89799 0.5949 0.17594 0.0
C1512 C 0.88923 0.59087 0.14025 0.0
C1513 C 0.90897 0.58527 0.24254 0.0
C1514 C 0.90357 0.60213 0.26249 0.0
C1515 C 0.92362 0.57332 0.25843 0.0
C1516 C 0.93085 0.55599 0.23739 0.0
C1517 C 0.93674 0.55719 0.19798 0.0
C1518 C 0.94236 0.54061 0.17769 0.0
C1519 C 0.94283 0.52283 0.19682 0.0
C1520 C 0.9375 0.52156 0.23622 0.0
C1521 C 0.93149 0.53803 0.25646 0.0
H1522 H 0.94731 0.51003 0.18111 0.0
H1523 H 0.8887 0.67146 0.37169 0.0
H1524 H 0.41286 0.43378 0.69561 0.0
H1525 H 0.42339 0.42782 0.62843 0.0
H1526 H 0.37343 0.45792 0.58498 0.0
H1527 H 0.36327 0.4648 0.65275 0.0
H1528 H 0.38105 0.41335 0.56909 0.0
H1529 H 0.40514 0.47726 0.55355 0.0
H1530 H 0.42389 0.50674 0.5665 0.0
H1531 H 0.47652 0.47437 0.55957 0.0
H1532 H 0.45806 0.44461 0.54717 0.0
H1533 H 0.39828 0.39188 0.37034 0.0
H1534 H 0.39045 0.40851 0.43113 0.0
H1535 H 0.44824 0.39877 0.47323 0.0
H1536 H 0.45634 0.38225 0.4117 0.0
H1537 H 0.43583 0.43578 0.48754 0.0
H1538 H 0.41196 0.37168 0.5072 0.0
H1539 H 0.39364 0.34231 0.4909 0.0
H1540 H 0.34098 0.37483 0.49071 0.0
H1541 H 0.35903 0.40447 0.50648 0.0
C1542 C 0.40443 0.43965 0.6718 0.0
C1543 C 0.38724 0.44969 0.67919 0.0
C1544 C 0.41052 0.43633 0.63347 0.0
C1545 C 0.39925 0.44254 0.60191 0.0
C1546 C 0.38244 0.45327 0.6091 0.0
C1547 C 0.37665 0.45715 0.64765 0.0
C1548 C 0.40332 0.4347 0.56259 0.0
C1549 C 0.39276 0.4185 0.55076 0.0
C1550 C 0.41907 0.44105 0.53974 0.0
C1551 C 0.43017 0.45863 0.54986 0.0
C1552 C 0.42068 0.47634 0.55546 0.0
C1553 C 0.43127 0.49315 0.56238 0.0
C1554 C 0.45139 0.49246 0.56359 0.0
C1555 C 0.46094 0.47491 0.55838 0.0
C1556 C 0.45042 0.45806 0.55145 0.0
C1557 C 0.40935 0.39321 0.39251 0.0
C1558 C 0.42792 0.38568 0.38634 0.0
C1559 C 0.40483 0.4027 0.42729 0.0
C1560 C 0.4187 0.40472 0.45682 0.0
C1561 C 0.43732 0.39734 0.45075 0.0
C1562 C 0.44189 0.38781 0.41578 0.0
C1563 C 0.41357 0.41441 0.49408 0.0
C1564 C 0.42402 0.43076 0.5057 0.0
C1565 C 0.39778 0.40814 0.51704 0.0
C1566 C 0.38688 0.39033 0.50762 0.0
C1567 C 0.39649 0.3726 0.50335 0.0
C1568 C 0.38615 0.3559 0.49427 0.0
C1569 C 0.36617 0.35671 0.48967 0.0
C1570 C 0.35647 0.37423 0.49423 0.0
C1571 C 0.36674 0.39098 0.50327 0.0
H1572 H 0.35819 0.34376 0.48265 0.0
H1573 H 0.45955 0.50548 0.56891 0.0
H1574 H 0.61342 0.96751 0.64107 0.0
H1575 H 0.59853 0.96034 0.70486 0.0
H1576 H 0.60243 0.89944 0.68005 0.0
H1577 H 0.61671 0.90647 0.61668 0.0
H1578 H 0.56881 0.90686 0.71091 0.0
H1579 H 0.63548 0.9236 0.7394 0.0
H1580 H 0.66375 0.94517 0.74018 0.0
H1581 H 0.63168 0.98709 0.806 0.0
H1582 H 0.60316 0.96583 0.8052 0.0
H1583 H 0.59878 0.87666 0.91921 0.0
H1584 H 0.60441 0.89221 0.85639 0.0
H1585 H 0.5437 0.90495 0.84662 0.0
H1586 H 0.53789 0.88862 0.90945 0.0
H1587 H 0.60044 0.92757 0.83409 0.0
H1588 H 0.53241 0.90766 0.74835 0.0
H1589 H 0.50707 0.88269 0.74696 0.0
H1590 H 0.54669 0.84136 0.79474 0.0
H1591 H 0.57229 0.86603 0.79601 0.0
C1592 C 0.61112 0.95263 0.64944 0.0
C1593 C 0.61627 0.93755 0.62403 0.0
C1594 C 0.60258 0.94855 0.68576 0.0
C1595 C 0.59935 0.92933 0.69722 0.0
C1596 C 0.60456 0.91437 0.67173 0.0
C1597 C 0.61287 0.91842 0.63557 0.0
C1598 C 0.59126 0.92436 0.73618 0.0
C1599 C 0.57558 0.91157 0.73791 0.0
C1600 C 0.60005 0.93048 0.7714 0.0
C1601 C 0.61714 0.94327 0.77178 0.0
C1602 C 0.63443 0.93749 0.75375 0.0
C1603 C 0.6505 0.94964 0.75425 0.0
C1604 C 0.64949 0.96752 0.773 0.0
C1605 C 0.63243 0.97326 0.79139 0.0
C1606 C 0.61631 0.96117 0.79093 0.0
C1607 C 0.58658 0.88262 0.90355 0.0
C1608 C 0.56789 0.88136 0.91901 0.0
C1609 C 0.58984 0.89165 0.86776 0.0
C1610 C 0.57451 0.89983 0.84677 0.0
C1611 C 0.55573 0.89857 0.86209 0.0
C1612 C 0.55241 0.88922 0.89786 0.0
C1613 C 0.57859 0.90935 0.80871 0.0
C1614 C 0.59336 0.92319 0.8072 0.0
C1615 C 0.56934 0.90374 0.7736 0.0
C1616 C 0.55414 0.88875 0.77275 0.0
C1617 C 0.53569 0.89323 0.75851 0.0
C1618 C 0.5213 0.87914 0.75774 0.0
C1619 C 0.52524 0.86048 0.7709 0.0
C1620 C 0.54362 0.85585 0.78471 0.0
C1621 C 0.55807 0.86988 0.78551 0.0
H1622 H 0.51408 0.84959 0.77031 0.0
H1623 H 0.66194 0.9769 0.77338 0.0
H1624 H 0.10836 0.39231 0.44944 0.0
H1625 H 0.11412 0.40894 0.38767 0.0
H1626 H 0.05899 0.38969 0.34459 0.0
H1627 H 0.05286 0.37321 0.40707 0.0
H1628 H 0.0911 0.38335 0.29332 0.0
H1629 H 0.06204 0.43404 0.36784 0.0
H1630 H 0.05799 0.4548 0.42589 0.0
H1631 H 0.11528 0.4769 0.41044 0.0
H1632 H 0.1198 0.45602 0.35263 0.0
H1633 H 0.09361 0.43236 0.11922 0.0
H1634 H 0.08216 0.4242 0.18428 0.0
H1635 H 0.13295 0.45009 0.2347 0.0
H1636 H 0.14389 0.45954 0.16872 0.0
H1637 H 0.10195 0.45396 0.28338 0.0
H1638 H 0.13211 0.40208 0.21283 0.0
H1639 H 0.13723 0.38059 0.15619 0.0
H1640 H 0.07913 0.35988 0.16622 0.0
H1641 H 0.07358 0.38146 0.22259 0.0
C1642 C 0.09738 0.39163 0.42698 0.0
C1643 C 0.0801 0.38149 0.43314 0.0
C1644 C 0.10069 0.40124 0.39177 0.0
C1645 C 0.08688 0.40071 0.36191 0.0
C1646 C 0.06974 0.39033 0.36755 0.0
C1647 C 0.06629 0.38091 0.40311 0.0
C1648 C 0.09086 0.41037 0.32422 0.0
C1649 C 0.09312 0.39882 0.29094 0.0
C1650 C 0.09411 0.43047 0.3217 0.0
C1651 C 0.09132 0.44332 0.35606 0.0
C1652 C 0.07384 0.44321 0.37698 0.0
C1653 C 0.07144 0.45502 0.40982 0.0
C1654 C 0.08638 0.46713 0.4219 0.0
C1655 C 0.10372 0.4675 0.40106 0.0
C1656 C 0.1062 0.45569 0.36822 0.0
C1657 C 0.10208 0.43684 0.14407 0.0
C1658 C 0.11967 0.44646 0.13899 0.0
C1659 C 0.09557 0.43207 0.18135 0.0
C1660 C 0.10699 0.43598 0.21425 0.0
C1661 C 0.12398 0.4468 0.20962 0.0
C1662 C 0.13023 0.45216 0.17206 0.0
C1663 C 0.10207 0.42692 0.2523 0.0
C1664 C 0.09978 0.43851 0.28569 0.0
C1665 C 0.09896 0.40675 0.25518 0.0
C1666 C 0.10239 0.39349 0.22173 0.0
C1667 C 0.1204 0.39301 0.20284 0.0
C1668 C 0.12338 0.38082 0.17079 0.0
C1669 C 0.1085 0.36891 0.15757 0.0
C1670 C 0.09064 0.36913 0.17647 0.0
C1671 C 0.08757 0.38132 0.2085 0.0
H1672 H 0.11083 0.3595 0.13272 0.0
H1673 H 0.08451 0.47624 0.44737 0.0
H1674 H 0.6339 0.59912 0.66876 0.0
H1675 H 0.61746 0.60545 0.60707 0.0
H1676 H 0.59816 0.54634 0.60289 0.0
H1677 H 0.61535 0.53975 0.66448 0.0
H1678 H 0.60711 0.55845 0.53127 0.0
H1679 H 0.56741 0.58191 0.6334 0.0
H1680 H 0.55968 0.59923 0.69451 0.0
H1681 H 0.57594 0.65284 0.64115 0.0
H1682 H 0.58403 0.63585 0.57985 0.0
H1683 H 0.53668 0.61905 0.40029 0.0
H1684 H 0.54312 0.60393 0.46427 0.0
H1685 H 0.60418 0.60672 0.44125 0.0
H1686 H 0.59795 0.62155 0.378 0.0
H1687 H 0.56501 0.61639 0.52898 0.0
H1688 H 0.62429 0.56691 0.46367 0.0
H1689 H 0.62991 0.5494 0.40174 0.0
H1690 H 0.56887 0.54475 0.38358 0.0
H1691 H 0.56289 0.56219 0.44536 0.0
C1692 C 0.62637 0.5874 0.65444 0.0
C1693 C 0.62579 0.56899 0.67139 0.0
C1694 C 0.61685 0.59106 0.61935 0.0
C1695 C 0.60608 0.57652 0.60096 0.0
C1696 C 0.60622 0.55782 0.61681 0.0
C1697 C 0.61608 0.55405 0.65183 0.0
C1698 C 0.5945 0.58128 0.56571 0.0
C1699 C 0.59771 0.57094 0.53095 0.0
C1700 C 0.58164 0.59718 0.56544 0.0
C1701 C 0.57637 0.60757 0.60199 0.0
C1702 C 0.56939 0.59738 0.63471 0.0
C1703 C 0.56496 0.60714 0.6694 0.0
C1704 C 0.56734 0.6271 0.67172 0.0
C1705 C 0.57409 0.63737 0.63929 0.0
C1706 C 0.57856 0.62769 0.60452 0.0
C1707 C 0.55145 0.61655 0.40917 0.0
C1708 C 0.56682 0.62136 0.38413 0.0
C1709 C 0.55509 0.60789 0.44556 0.0
C1710 C 0.5741 0.6039 0.45705 0.0
C1711 C 0.58939 0.6093 0.43255 0.0
C1712 C 0.5858 0.61787 0.39646 0.0
C1713 C 0.5785 0.59418 0.49458 0.0
C1714 C 0.57396 0.60357 0.5297 0.0
C1715 C 0.5896 0.57709 0.49543 0.0
C1716 C 0.59317 0.56582 0.45917 0.0
C1717 C 0.61208 0.56197 0.44666 0.0
C1718 C 0.61532 0.55214 0.41148 0.0
C1719 C 0.59975 0.54597 0.38873 0.0
C1720 C 0.58091 0.54957 0.40116 0.0
C1721 C 0.57759 0.55946 0.4362 0.0
H1722 H 0.60229 0.53842 0.36147 0.0
H1723 H 0.56393 0.63462 0.69864 0.0
H1724 H 0.39824 0.04368 0.64204 0.0
H1725 H 0.41494 0.05123 0.70362 0.0
H1726 H 0.3805 0.10281 0.71557 0.0
H1727 H 0.36489 0.09587 0.65317 0.0
H1728 H 0.41474 0.11203 0.72855 0.0
H1729 H 0.3751 0.05861 0.77232 0.0
H1730 H 0.36315 0.02512 0.77269 0.0
H1731 H 0.42034 0.00439 0.79574 0.0
H1732 H 0.43268 0.03775 0.79496 0.0
H1733 H 0.40796 0.12364 0.9376 0.0
H1734 H 0.40151 0.1103 0.87275 0.0
H1735 H 0.46232 0.10112 0.85484 0.0
H1736 H 0.46902 0.11502 0.91987 0.0
H1737 H 0.42228 0.06835 0.8425 0.0
H1738 H 0.46063 0.12473 0.79806 0.0
H1739 H 0.46912 0.15919 0.80293 0.0
H1740 H 0.40979 0.1747 0.78606 0.0
H1741 H 0.40095 0.14029 0.78169 0.0
C1742 C 0.39408 0.0564 0.65841 0.0
C1743 C 0.38025 0.06916 0.64333 0.0
C1744 C 0.40361 0.06074 0.69352 0.0
C1745 C 0.39899 0.07761 0.71448 0.0
C1746 C 0.38452 0.08984 0.6999 0.0
C1747 C 0.37547 0.0858 0.66445 0.0
C1748 C 0.40958 0.08329 0.7506 0.0
C1749 C 0.4164 0.10234 0.75327 0.0
C1750 C 0.41226 0.07068 0.78284 0.0
C1751 C 0.40485 0.05064 0.78299 0.0
C1752 C 0.38516 0.04689 0.77708 0.0
C1753 C 0.37831 0.02794 0.77743 0.0
C1754 C 0.39099 0.01263 0.78406 0.0
C1755 C 0.41054 0.01625 0.79047 0.0
C1756 C 0.41747 0.03517 0.79006 0.0
C1757 C 0.42 0.1189 0.91982 0.0
C1758 C 0.439 0.12046 0.9336 0.0
C1759 C 0.41628 0.11123 0.8829 0.0
C1760 C 0.43144 0.10477 0.85923 0.0
C1761 C 0.45047 0.10615 0.8728 0.0
C1762 C 0.45427 0.11415 0.90972 0.0
C1763 C 0.42689 0.09696 0.82012 0.0
C1764 C 0.42108 0.07767 0.81708 0.0
C1765 C 0.42482 0.10934 0.78769 0.0
C1766 C 0.43013 0.12998 0.78999 0.0
C1767 C 0.44939 0.13549 0.79579 0.0
C1768 C 0.45427 0.15501 0.79836 0.0
C1769 C 0.44 0.16913 0.79492 0.0
C1770 C 0.42083 0.16375 0.78878 0.0
C1771 C 0.41588 0.14426 0.78623 0.0
H1772 H 0.4438 0.18423 0.79691 0.0
H1773 H 0.38566 0.99797 0.78436 0.0
H1774 H 0.87295 0.90427 0.17896 0.0
H1775 H 0.88846 0.89567 0.11737 0.0
H1776 H 0.90773 0.95442 0.10307 0.0
H1777 H 0.89125 0.9633 0.16437 0.0
H1778 H 0.89891 0.94035 0.03413 0.0
H1779 H 0.93868 0.9192 0.13658 0.0
H1780 H 0.94733 0.90407 0.19948 0.0
H1781 H 0.92984 0.84882 0.15534 0.0
H1782 H 0.92072 0.86366 0.09239 0.0
H1783 H 0.96144 0.89566 0.8859 0.0
H1784 H 0.95521 0.91115 0.94971 0.0
H1785 H 0.90838 0.87157 0.97035 0.0
H1786 H 0.91398 0.85674 0.90618 0.0
H1787 H 0.93886 0.88095 0.03744 0.0
H1788 H 0.89391 0.90754 0.9378 0.0
H1789 H 0.88872 0.92435 0.87504 0.0
H1790 H 0.92183 0.97251 0.91617 0.0
H1791 H 0.92772 0.95571 0.97886 0.0
C1792 C 0.88029 0.91541 0.16244 0.0
C1793 C 0.88101 0.93441 0.17642 0.0
C1794 C 0.8893 0.91046 0.12739 0.0
C1795 C 0.89982 0.92425 0.10613 0.0
C1796 C 0.89986 0.94349 0.11913 0.0
C1797 C 0.89043 0.94856 0.15403 0.0
C1798 C 0.91097 0.91813 0.07099 0.0
C1799 C 0.90796 0.9276 0.03512 0.0
C1800 C 0.92318 0.90173 0.07213 0.0
C1801 C 0.92894 0.89259 0.10974 0.0
C1802 C 0.93658 0.90383 0.14032 0.0
C1803 C 0.94156 0.89531 0.17601 0.0
C1804 C 0.93912 0.8755 0.1814 0.0
C1805 C 0.93173 0.86416 0.1511 0.0
C1806 C 0.92667 0.87263 0.11537 0.0
C1807 C 0.95013 0.89006 0.9046 0.0
C1808 C 0.93826 0.87495 0.89164 0.0
C1809 C 0.94654 0.89893 0.94077 0.0
C1810 C 0.93137 0.89242 0.96456 0.0
C1811 C 0.9202 0.87669 0.95238 0.0
C1812 C 0.9234 0.86825 0.91588 0.0
C1813 C 0.92598 0.90263 0.00092 0.0
C1814 C 0.93016 0.89394 0.03692 0.0
C1815 C 0.9154 0.92004 4e-05 0.0
C1816 C 0.91148 0.93026 0.96276 0.0
C1817 C 0.90029 0.92161 0.93329 0.0
C1818 C 0.89722 0.93114 0.89775 0.0
C1819 C 0.90504 0.94944 0.89156 0.0
C1820 C 0.91591 0.95828 0.92095 0.0
C1821 C 0.91913 0.94876 0.95647 0.0
H1822 H 0.90261 0.95682 0.86407 0.0
H1823 H 0.94298 0.86892 0.20906 0.0
loop_
_geom_bond_atom_site_label_1
_geom_bond_atom_site_label_2
_geom_bond_distance
_geom_bond_site_symmetry_2
_ccdc_geom_bond_type
Co0 O1 2.216 . S
Co0 O2 2.091 . S
Co0 O4 2.004 . S
Co0 O10 2.021 . S
Co0 O12 2.137 . S
Co0 O13 2.244 . S
O1 Co0 2.216 . S
O1 C8 1.247 . S
O2 Co0 2.091 . S
O2 C8 1.261 . S
C3 O12 1.247 . S
C3 O13 1.272 . S
O4 Co0 2.004 . S
O4 C9 1.259 . S
Co5 O6 2.061 . S
Co5 O11 2.052 . S
Co5 O13 2.135 . S
O6 Co5 2.061 . S
O6 C9 1.235 . S
C7 O10 1.238 . S
C7 O11 1.241 . S
C8 O1 1.247 . S
C8 O2 1.261 . S
C9 O4 1.259 . S
C9 O6 1.235 . S
O10 Co0 2.021 . S
O10 C7 1.238 . S
O11 Co5 2.052 . S
O11 C7 1.241 . S
O12 Co0 2.137 . S
O12 C3 1.247 . S
O13 Co0 2.244 . S
O13 C3 1.272 . S
O13 Co5 2.135 . S
Co14 O15 2.216 . S
Co14 O16 2.091 . S
Co14 O18 2.004 . S
Co14 O24 2.021 . S
Co14 O26 2.137 . S
Co14 O27 2.244 . S
O15 Co14 2.216 . S
O15 C22 1.247 . S
O16 Co14 2.091 . S
O16 C22 1.261 . S
C17 O26 1.247 . S
C17 O27 1.272 . S
O18 Co14 2.004 . S
O18 C23 1.259 . S
Co19 O20 2.061 . S
Co19 O25 2.052 . S
Co19 O27 2.135 . S
O20 Co19 2.061 . S
O20 C23 1.235 . S
C21 O24 1.238 . S
C21 O25 1.241 . S
C22 O15 1.247 . S
C22 O16 1.261 . S
C23 O18 1.259 . S
C23 O20 1.235 . S
O24 Co14 2.021 . S
O24 C21 1.238 . S
O25 Co19 2.052 . S
O25 C21 1.241 . S
O26 Co14 2.137 . S
O26 C17 1.247 . S
O27 Co14 2.244 . S
O27 C17 1.272 . S
O27 Co19 2.135 . S
Co28 O29 2.216 . S
Co28 O30 2.091 . S
Co28 O32 2.004 . S
Co28 O38 2.021 . S
Co28 O40 2.137 . S
Co28 O41 2.244 . S
O29 Co28 2.216 . S
O29 C36 1.247 . S
O30 Co28 2.091 . S
O30 C36 1.261 . S
C31 O40 1.247 . S
C31 O41 1.272 . S
O32 Co28 2.004 . S
O32 C37 1.259 . S
Co33 O34 2.061 . S
Co33 O39 2.052 . S
Co33 O41 2.135 . S
O34 Co33 2.061 . S
O34 C37 1.235 . S
C35 O38 1.238 . S
C35 O39 1.241 . S
C36 O29 1.247 . S
C36 O30 1.261 . S
C37 O32 1.259 . S
C37 O34 1.235 . S
O38 Co28 2.021 . S
O38 C35 1.238 . S
O39 Co33 2.052 . S
O39 C35 1.241 . S
O40 Co28 2.137 . S
O40 C31 1.247 . S
O41 Co28 2.244 . S
O41 C31 1.272 . S
O41 Co33 2.135 . S
Co42 O43 2.216 . S
Co42 O44 2.091 . S
Co42 O46 2.004 . S
Co42 O52 2.021 . S
Co42 O54 2.137 1_554 S
Co42 O55 2.244 . S
O43 Co42 2.216 . S
O43 C50 1.247 . S
O44 Co42 2.091 . S
O44 C50 1.261 . S
C45 O54 1.247 . S
C45 O55 1.272 1_556 S
O46 Co42 2.004 . S
O46 C51 1.259 . S
Co47 O48 2.061 . S
Co47 O53 2.052 . S
Co47 O55 2.135 . S
O48 Co47 2.061 . S
O48 C51 1.235 . S
C49 O52 1.238 . S
C49 O53 1.241 . S
C50 O43 1.247 . S
C50 O44 1.261 . S
C51 O46 1.259 . S
C51 O48 1.235 . S
O52 Co42 2.021 . S
O52 C49 1.238 . S
O53 Co47 2.052 . S
O53 C49 1.241 . S
O54 Co42 2.137 1_556 S
O54 C45 1.247 . S
O55 Co42 2.244 . S
O55 C45 1.272 1_554 S
O55 Co47 2.135 . S
Co56 O57 2.216 . S
Co56 O58 2.091 . S
Co56 O60 2.004 . S
Co56 O66 2.021 1_554 S
Co56 O68 2.137 . S
Co56 O69 2.244 . S
O57 Co56 2.216 . S
O57 C64 1.247 1_554 S
O58 Co56 2.091 . S
O58 C64 1.261 1_554 S
C59 O68 1.247 . S
C59 O69 1.272 . S
O60 Co56 2.004 . S
O60 C65 1.259 . S
Co61 O62 2.061 . S
Co61 O67 2.052 1_554 S
Co61 O69 2.135 . S
O62 Co61 2.061 . S
O62 C65 1.235 . S
C63 O66 1.238 . S
C63 O67 1.241 . S
C64 O57 1.247 1_556 S
C64 O58 1.261 1_556 S
C65 O60 1.259 . S
C65 O62 1.235 . S
O66 Co56 2.021 1_556 S
O66 C63 1.238 . S
O67 Co61 2.052 1_556 S
O67 C63 1.241 . S
O68 Co56 2.137 . S
O68 C59 1.247 . S
O69 Co56 2.244 . S
O69 C59 1.272 . S
O69 Co61 2.135 . S
Co70 O71 2.216 . S
Co70 O72 2.091 . S
Co70 O74 2.004 . S
Co70 O80 2.021 . S
Co70 O82 2.137 . S
Co70 O83 2.244 . S
O71 Co70 2.216 . S
O71 C78 1.247 . S
O72 Co70 2.091 . S
O72 C78 1.261 . S
C73 O82 1.247 . S
C73 O83 1.272 . S
O74 Co70 2.004 . S
O74 C79 1.259 . S
Co75 O76 2.061 . S
Co75 O81 2.052 . S
Co75 O83 2.135 . S
O76 Co75 2.061 . S
O76 C79 1.235 . S
C77 O80 1.238 . S
C77 O81 1.241 . S
C78 O71 1.247 . S
C78 O72 1.261 . S
C79 O74 1.259 . S
C79 O76 1.235 . S
O80 Co70 2.021 . S
O80 C77 1.238 . S
O81 Co75 2.052 . S
O81 C77 1.241 . S
O82 Co70 2.137 . S
O82 C73 1.247 . S
O83 Co70 2.244 . S
O83 C73 1.272 . S
O83 Co75 2.135 . S
Co84 O85 2.216 . S
Co84 O86 2.091 . S
Co84 O88 2.004 . S
Co84 O94 2.021 . S
Co84 O96 2.137 . S
Co84 O97 2.244 . S
O85 Co84 2.216 . S
O85 C92 1.247 . S
O86 Co84 2.091 . S
O86 C92 1.261 . S
C87 O96 1.247 . S
C87 O97 1.272 . S
O88 Co84 2.004 . S
O88 C93 1.259 . S
Co89 O90 2.061 . S
Co89 O95 2.052 . S
Co89 O97 2.135 . S
O90 Co89 2.061 . S
O90 C93 1.235 . S
C91 O94 1.238 . S
C91 O95 1.241 . S
C92 O85 1.247 . S
C92 O86 1.261 . S
C93 O88 1.259 . S
C93 O90 1.235 . S
O94 Co84 2.021 . S
O94 C91 1.238 . S
O95 Co89 2.052 . S
O95 C91 1.241 . S
O96 Co84 2.137 . S
O96 C87 1.247 . S
O97 Co84 2.244 . S
O97 C87 1.272 . S
O97 Co89 2.135 . S
Co98 O99 2.216 . S
Co98 O100 2.091 . S
Co98 O102 2.004 . S
Co98 O108 2.021 . S
Co98 O110 2.137 . S
Co98 O111 2.244 . S
O99 Co98 2.216 . S
O99 C106 1.247 . S
O100 Co98 2.091 . S
O100 C106 1.261 . S
C101 O110 1.247 . S
C101 O111 1.272 . S
O102 Co98 2.004 . S
O102 C107 1.259 . S
Co103 O104 2.061 . S
Co103 O109 2.052 . S
Co103 O111 2.135 . S
O104 Co103 2.061 . S
O104 C107 1.235 . S
C105 O108 1.238 . S
C105 O109 1.241 . S
C106 O99 1.247 . S
C106 O100 1.261 . S
C107 O102 1.259 . S
C107 O104 1.235 . S
O108 Co98 2.021 . S
O108 C105 1.238 . S
O109 Co103 2.052 . S
O109 C105 1.241 . S
O110 Co98 2.137 . S
O110 C101 1.247 . S
O111 Co98 2.244 . S
O111 C101 1.272 . S
O111 Co103 2.135 . S
Co112 O113 2.216 . S
Co112 O114 2.091 . S
Co112 O116 2.004 . S
Co112 O122 2.021 . S
Co112 O124 2.137 . S
Co112 O125 2.244 . S
O113 Co112 2.216 . S
O113 C120 1.247 . S
O114 Co112 2.091 . S
O114 C120 1.261 . S
C115 O124 1.247 . S
C115 O125 1.272 . S
O116 Co112 2.004 . S
O116 C121 1.259 . S
Co117 O118 2.061 . S
Co117 O123 2.052 . S
Co117 O125 2.135 . S
O118 Co117 2.061 . S
O118 C121 1.235 . S
C119 O122 1.238 . S
C119 O123 1.241 . S
C120 O113 1.247 . S
C120 O114 1.261 . S
C121 O116 1.259 . S
C121 O118 1.235 . S
O122 Co112 2.021 . S
O122 C119 1.238 . S
O123 Co117 2.052 . S
O123 C119 1.241 . S
O124 Co112 2.137 . S
O124 C115 1.247 . S
O125 Co112 2.244 . S
O125 C115 1.272 . S
O125 Co117 2.135 . S
Co126 O127 2.216 . S
Co126 O128 2.091 . S
Co126 O130 2.004 . S
Co126 O136 2.021 . S
Co126 O138 2.137 1_554 S
Co126 O139 2.244 . S
O127 Co126 2.216 . S
O127 C134 1.247 . S
O128 Co126 2.091 . S
O128 C134 1.261 . S
C129 O138 1.247 . S
C129 O139 1.272 1_556 S
O130 Co126 2.004 . S
O130 C135 1.259 . S
Co131 O132 2.061 . S
Co131 O137 2.052 . S
Co131 O139 2.135 . S
O132 Co131 2.061 . S
O132 C135 1.235 . S
C133 O136 1.238 . S
C133 O137 1.241 . S
C134 O127 1.247 . S
C134 O128 1.261 . S
C135 O130 1.259 . S
C135 O132 1.235 . S
O136 Co126 2.021 . S
O136 C133 1.238 . S
O137 Co131 2.052 . S
O137 C133 1.241 . S
O138 Co126 2.137 1_556 S
O138 C129 1.247 . S
O139 Co126 2.244 . S
O139 C129 1.272 1_554 S
O139 Co131 2.135 . S
Co140 O141 2.216 . S
Co140 O142 2.091 . S
Co140 O144 2.004 . S
Co140 O150 2.021 . S
Co140 O152 2.137 . S
Co140 O153 2.244 . S
O141 Co140 2.216 . S
O141 C148 1.247 . S
O142 Co140 2.091 . S
O142 C148 1.261 . S
C143 O152 1.247 . S
C143 O153 1.272 . S
O144 Co140 2.004 . S
O144 C149 1.259 . S
Co145 O146 2.061 . S
Co145 O151 2.052 . S
Co145 O153 2.135 . S
O146 Co145 2.061 . S
O146 C149 1.235 . S
C147 O150 1.238 . S
C147 O151 1.241 . S
C148 O141 1.247 . S
C148 O142 1.261 . S
C149 O144 1.259 . S
C149 O146 1.235 . S
O150 Co140 2.021 . S
O150 C147 1.238 . S
O151 Co145 2.052 . S
O151 C147 1.241 . S
O152 Co140 2.137 . S
O152 C143 1.247 . S
O153 Co140 2.244 . S
O153 C143 1.272 . S
O153 Co145 2.135 . S
Co154 O155 2.216 . S
Co154 O156 2.091 . S
Co154 O158 2.004 . S
Co154 O164 2.021 . S
Co154 O166 2.137 . S
Co154 O167 2.244 . S
O155 Co154 2.216 . S
O155 C162 1.247 . S
O156 Co154 2.091 . S
O156 C162 1.261 . S
C157 O166 1.247 . S
C157 O167 1.272 . S
O158 Co154 2.004 . S
O158 C163 1.259 . S
Co159 O160 2.061 . S
Co159 O165 2.052 . S
Co159 O167 2.135 . S
O160 Co159 2.061 . S
O160 C163 1.235 . S
C161 O164 1.238 . S
C161 O165 1.241 . S
C162 O155 1.247 . S
C162 O156 1.261 . S
C163 O158 1.259 . S
C163 O160 1.235 . S
O164 Co154 2.021 . S
O164 C161 1.238 . S
O165 Co159 2.052 . S
O165 C161 1.241 . S
O166 Co154 2.137 . S
O166 C157 1.247 . S
O167 Co154 2.244 . S
O167 C157 1.272 . S
O167 Co159 2.135 . S
Co168 O169 2.216 . S
Co168 O170 2.091 . S
Co168 O172 2.004 . S
Co168 O178 2.021 . S
Co168 O180 2.137 . S
Co168 O181 2.244 . S
O169 Co168 2.216 . S
O169 C176 1.247 . S
O170 Co168 2.091 . S
O170 C176 1.261 . S
C171 O180 1.247 . S
C171 O181 1.272 . S
O172 Co168 2.004 . S
O172 C177 1.259 . S
Co173 O174 2.061 . S
Co173 O179 2.052 . S
Co173 O181 2.135 . S
O174 Co173 2.061 . S
O174 C177 1.235 . S
C175 O178 1.238 . S
C175 O179 1.241 . S
C176 O169 1.247 . S
C176 O170 1.261 . S
C177 O172 1.259 . S
C177 O174 1.235 . S
O178 Co168 2.021 . S
O178 C175 1.238 . S
O179 Co173 2.052 . S
O179 C175 1.241 . S
O180 Co168 2.137 . S
O180 C171 1.247 . S
O181 Co168 2.244 . S
O181 C171 1.272 . S
O181 Co173 2.135 . S
Co182 O183 2.216 . S
Co182 O184 2.091 . S
Co182 O186 2.004 . S
Co182 O192 2.021 . S
Co182 O194 2.137 . S
Co182 O195 2.244 . S
O183 Co182 2.216 . S
O183 C190 1.247 . S
O184 Co182 2.091 . S
O184 C190 1.261 . S
C185 O194 1.247 . S
C185 O195 1.272 . S
O186 Co182 2.004 . S
O186 C191 1.259 . S
Co187 O188 2.061 . S
Co187 O193 2.052 . S
Co187 O195 2.135 . S
O188 Co187 2.061 . S
O188 C191 1.235 . S
C189 O192 1.238 . S
C189 O193 1.241 . S
C190 O183 1.247 . S
C190 O184 1.261 . S
C191 O186 1.259 . S
C191 O188 1.235 . S
O192 Co182 2.021 . S
O192 C189 1.238 . S
O193 Co187 2.052 . S
O193 C189 1.241 . S
O194 Co182 2.137 . S
O194 C185 1.247 . S
O195 Co182 2.244 . S
O195 C185 1.272 . S
O195 Co187 2.135 . S
Co196 O197 2.216 . S
Co196 O198 2.091 . S
Co196 O200 2.004 . S
Co196 O206 2.021 1_554 S
Co196 O208 2.137 . S
Co196 O209 2.244 . S
O197 Co196 2.216 . S
O197 C204 1.247 1_554 S
O198 Co196 2.091 . S
O198 C204 1.261 1_554 S
C199 O208 1.247 . S
C199 O209 1.272 . S
O200 Co196 2.004 . S
O200 C205 1.259 . S
Co201 O202 2.061 . S
Co201 O207 2.052 1_554 S
Co201 O209 2.135 . S
O202 Co201 2.061 . S
O202 C205 1.235 . S
C203 O206 1.238 . S
C203 O207 1.241 . S
C204 O197 1.247 1_556 S
C204 O198 1.261 1_556 S
C205 O200 1.259 . S
C205 O202 1.235 . S
O206 Co196 2.021 1_556 S
O206 C203 1.238 . S
O207 Co201 2.052 1_556 S
O207 C203 1.241 . S
O208 Co196 2.137 . S
O208 C199 1.247 . S
O209 Co196 2.244 . S
O209 C199 1.272 . S
O209 Co201 2.135 . S
Co210 O211 2.216 . S
Co210 O212 2.091 . S
Co210 O214 2.004 . S
Co210 O220 2.021 . S
Co210 O222 2.137 . S
Co210 O223 2.244 . S
O211 Co210 2.216 . S
O211 C218 1.247 . S
O212 Co210 2.091 . S
O212 C218 1.261 . S
C213 O222 1.247 . S
C213 O223 1.272 . S
O214 Co210 2.004 . S
O214 C219 1.259 . S
Co215 O216 2.061 . S
Co215 O221 2.052 . S
Co215 O223 2.135 . S
O216 Co215 2.061 . S
O216 C219 1.235 . S
C217 O220 1.238 . S
C217 O221 1.241 . S
C218 O211 1.247 . S
C218 O212 1.261 . S
C219 O214 1.259 . S
C219 O216 1.235 . S
O220 Co210 2.021 . S
O220 C217 1.238 . S
O221 Co215 2.052 . S
O221 C217 1.241 . S
O222 Co210 2.137 . S
O222 C213 1.247 . S
O223 Co210 2.244 . S
O223 C213 1.272 . S
O223 Co215 2.135 . S
H224 C242 0.951 . S
H225 C244 0.951 . S
H226 C246 0.950 . S
H227 C247 0.950 . S
H228 C249 0.950 . S
H229 C252 0.950 . S
H230 C253 0.950 . S
H231 C255 0.950 . S
H232 C256 0.950 . S
H233 C257 0.951 . S
H234 C259 0.951 . S
H235 C261 0.950 . S
H236 C262 0.950 . S
H237 C264 0.950 . S
H238 C267 0.950 . S
H239 C268 0.950 . S
H240 C270 0.950 . S
H241 C271 0.950 . S
C242 H224 0.951 . S
C242 C243 1.366 . S
C242 C244 1.388 . S
C243 C242 1.366 . S
C243 C247 1.385 . S
C244 H225 0.951 . S
C244 C242 1.388 . S
C244 C245 1.366 . S
C245 C244 1.366 . S
C245 C246 1.414 . S
C245 C248 1.499 . S
C246 H226 0.950 . S
C246 C245 1.414 . S
C246 C247 1.374 . S
C247 H227 0.950 . S
C247 C243 1.385 . S
C247 C246 1.374 . S
C248 C245 1.499 . S
C248 C249 1.373 . S
C248 C250 1.389 . S
C249 H228 0.950 . S
C249 C248 1.373 . S
C249 C265 1.377 . S
C250 C248 1.389 . S
C250 C251 1.524 . S
C250 C264 1.377 . S
C251 C250 1.524 . S
C251 C252 1.397 . S
C251 C256 1.363 . S
C252 H229 0.950 . S
C252 C251 1.397 . S
C252 C253 1.334 . S
C253 H230 0.950 . S
C253 C252 1.334 . S
C253 C254 1.287 . S
C254 C253 1.287 . S
C254 C255 1.524 . S
C254 H273 0.913 . S
C255 H231 0.950 . S
C255 C254 1.524 . S
C255 C256 1.415 . S
C256 H232 0.950 . S
C256 C251 1.363 . S
C256 C255 1.415 . S
C257 H233 0.951 . S
C257 C258 1.366 . S
C257 C259 1.388 . S
C258 C257 1.366 . S
C258 C262 1.385 . S
C259 H234 0.951 . S
C259 C257 1.388 . S
C259 C260 1.366 . S
C260 C259 1.366 . S
C260 C261 1.414 . S
C260 C263 1.499 . S
C261 H235 0.950 . S
C261 C260 1.414 . S
C261 C262 1.374 . S
C262 H236 0.950 . S
C262 C258 1.385 . S
C262 C261 1.374 . S
C263 C260 1.499 . S
C263 C264 1.373 . S
C263 C265 1.389 . S
C264 H237 0.950 . S
C264 C250 1.377 . S
C264 C263 1.373 . S
C265 C249 1.377 . S
C265 C263 1.389 . S
C265 C266 1.524 . S
C266 C265 1.524 . S
C266 C267 1.397 . S
C266 C271 1.363 . S
C267 H238 0.950 . S
C267 C266 1.397 . S
C267 C268 1.334 . S
C268 H239 0.950 . S
C268 C267 1.334 . S
C268 C269 1.287 . S
C269 C268 1.287 . S
C269 C270 1.524 . S
C269 H272 0.999 . S
C270 H240 0.950 . S
C270 C269 1.524 . S
C270 C271 1.415 . S
C271 H241 0.950 . S
C271 C266 1.363 . S
C271 C270 1.415 . S
H272 C269 0.999 . S
H273 C254 0.913 . S
H274 C292 0.951 . S
H275 C294 0.951 . S
H276 C296 0.950 . S
H277 C297 0.950 . S
H278 C299 0.950 . S
H279 C302 0.950 . S
H280 C303 0.950 . S
H281 C305 0.950 . S
H282 C306 0.950 . S
H283 C307 0.951 . S
H284 C309 0.951 . S
H285 C311 0.950 . S
H286 C312 0.950 . S
H287 C314 0.950 . S
H288 C317 0.950 . S
H289 C318 0.950 . S
H290 C320 0.950 . S
H291 C321 0.950 . S
C292 H274 0.951 . S
C292 C293 1.366 . S
C292 C294 1.388 . S
C293 C292 1.366 . S
C293 C297 1.385 . S
C294 H275 0.951 . S
C294 C292 1.388 . S
C294 C295 1.366 . S
C295 C294 1.366 . S
C295 C296 1.414 . S
C295 C298 1.499 . S
C296 H276 0.950 . S
C296 C295 1.414 . S
C296 C297 1.374 . S
C297 H277 0.950 . S
C297 C293 1.385 . S
C297 C296 1.374 . S
C298 C295 1.499 . S
C298 C299 1.373 . S
C298 C300 1.389 . S
C299 H278 0.950 . S
C299 C298 1.373 . S
C299 C315 1.377 . S
C300 C298 1.389 . S
C300 C301 1.524 . S
C300 C314 1.377 . S
C301 C300 1.524 . S
C301 C302 1.397 . S
C301 C306 1.363 . S
C302 H279 0.950 . S
C302 C301 1.397 . S
C302 C303 1.334 . S
C303 H280 0.950 . S
C303 C302 1.334 . S
C303 C304 1.287 . S
C304 C303 1.287 . S
C304 C305 1.524 . S
C304 H323 0.913 . S
C305 H281 0.950 . S
C305 C304 1.524 . S
C305 C306 1.415 . S
C306 H282 0.950 . S
C306 C301 1.363 . S
C306 C305 1.415 . S
C307 H283 0.951 . S
C307 C308 1.366 . S
C307 C309 1.388 . S
C308 C307 1.366 . S
C308 C312 1.385 . S
C309 H284 0.951 . S
C309 C307 1.388 . S
C309 C310 1.366 . S
C310 C309 1.366 . S
C310 C311 1.414 . S
C310 C313 1.499 . S
C311 H285 0.950 . S
C311 C310 1.414 . S
C311 C312 1.374 . S
C312 H286 0.950 . S
C312 C308 1.385 . S
C312 C311 1.374 . S
C313 C310 1.499 . S
C313 C314 1.373 . S
C313 C315 1.389 . S
C314 H287 0.950 . S
C314 C300 1.377 . S
C314 C313 1.373 . S
C315 C299 1.377 . S
C315 C313 1.389 . S
C315 C316 1.524 . S
C316 C315 1.524 . S
C316 C317 1.397 . S
C316 C321 1.363 . S
C317 H288 0.950 . S
C317 C316 1.397 . S
C317 C318 1.334 . S
C318 H289 0.950 . S
C318 C317 1.334 . S
C318 C319 1.287 . S
C319 C318 1.287 . S
C319 C320 1.524 . S
C319 H322 0.999 . S
C320 H290 0.950 . S
C320 C319 1.524 . S
C320 C321 1.415 . S
C321 H291 0.950 . S
C321 C316 1.363 . S
C321 C320 1.415 . S
H322 C319 0.999 . S
H323 C304 0.913 . S
H324 C342 0.951 . S
H325 C344 0.951 . S
H326 C346 0.950 . S
H327 C347 0.950 . S
H328 C349 0.950 . S
H329 C352 0.950 . S
H330 C353 0.950 . S
H331 C355 0.950 . S
H332 C356 0.950 . S
H333 C357 0.951 . S
H334 C359 0.951 1_554 S
H335 C361 0.950 . S
H336 C362 0.950 . S
H337 C364 0.950 . S
H338 C367 0.950 . S
H339 C368 0.950 . S
H340 C370 0.950 . S
H341 C371 0.950 . S
C342 H324 0.951 . S
C342 C343 1.366 . S
C342 C344 1.388 . S
C343 C342 1.366 . S
C343 C347 1.385 . S
C344 H325 0.951 . S
C344 C342 1.388 . S
C344 C345 1.366 . S
C345 C344 1.366 . S
C345 C346 1.414 . S
C345 C348 1.499 . S
C346 H326 0.950 . S
C346 C345 1.414 . S
C346 C347 1.374 . S
C347 H327 0.950 . S
C347 C343 1.385 . S
C347 C346 1.374 . S
C348 C345 1.499 . S
C348 C349 1.373 . S
C348 C350 1.389 . S
C349 H328 0.950 . S
C349 C348 1.373 . S
C349 C365 1.377 . S
C350 C348 1.389 . S
C350 C351 1.524 . S
C350 C364 1.377 . S
C351 C350 1.524 . S
C351 C352 1.397 . S
C351 C356 1.363 . S
C352 H329 0.950 . S
C352 C351 1.397 . S
C352 C353 1.334 . S
C353 H330 0.950 . S
C353 C352 1.334 . S
C353 C354 1.287 . S
C354 C353 1.287 . S
C354 C355 1.524 . S
C354 H373 0.913 . S
C355 H331 0.950 . S
C355 C354 1.524 . S
C355 C356 1.415 . S
C356 H332 0.950 . S
C356 C351 1.363 . S
C356 C355 1.415 . S
C357 H333 0.951 . S
C357 C358 1.366 1_554 S
C357 C359 1.388 1_554 S
C358 C357 1.366 1_556 S
C358 C362 1.385 . S
C359 H334 0.951 1_556 S
C359 C357 1.388 1_556 S
C359 C360 1.366 . S
C360 C359 1.366 . S
C360 C361 1.414 . S
C360 C363 1.499 . S
C361 H335 0.950 . S
C361 C360 1.414 . S
C361 C362 1.374 . S
C362 H336 0.950 . S
C362 C358 1.385 . S
C362 C361 1.374 . S
C363 C360 1.499 . S
C363 C364 1.373 . S
C363 C365 1.389 . S
C364 H337 0.950 . S
C364 C350 1.377 . S
C364 C363 1.373 . S
C365 C349 1.377 . S
C365 C363 1.389 . S
C365 C366 1.524 . S
C366 C365 1.524 . S
C366 C367 1.397 . S
C366 C371 1.363 1_556 S
C367 H338 0.950 . S
C367 C366 1.397 . S
C367 C368 1.334 . S
C368 H339 0.950 . S
C368 C367 1.334 . S
C368 C369 1.287 1_556 S
C369 C368 1.287 1_554 S
C369 C370 1.524 . S
C369 H372 0.999 . S
C370 H340 0.950 . S
C370 C369 1.524 . S
C370 C371 1.415 . S
C371 H341 0.950 . S
C371 C366 1.363 1_554 S
C371 C370 1.415 . S
H372 C369 0.999 . S
H373 C354 0.913 . S
H374 C392 0.951 . S
H375 C394 0.951 . S
H376 C396 0.950 . S
H377 C397 0.950 . S
H378 C399 0.950 . S
H379 C402 0.950 . S
H380 C403 0.950 . S
H381 C405 0.950 . S
H382 C406 0.950 . S
H383 C407 0.951 . S
H384 C409 0.951 . S
H385 C411 0.950 . S
H386 C412 0.950 . S
H387 C414 0.950 . S
H388 C417 0.950 . S
H389 C418 0.950 . S
H390 C420 0.950 . S
H391 C421 0.950 . S
C392 H374 0.951 . S
C392 C393 1.366 . S
C392 C394 1.388 . S
C393 C392 1.366 . S
C393 C397 1.385 . S
C394 H375 0.951 . S
C394 C392 1.388 . S
C394 C395 1.366 . S
C395 C394 1.366 . S
C395 C396 1.414 . S
C395 C398 1.499 . S
C396 H376 0.950 . S
C396 C395 1.414 . S
C396 C397 1.374 . S
C397 H377 0.950 . S
C397 C393 1.385 . S
C397 C396 1.374 . S
C398 C395 1.499 . S
C398 C399 1.373 . S
C398 C400 1.389 . S
C399 H378 0.950 . S
C399 C398 1.373 . S
C399 C415 1.377 . S
C400 C398 1.389 . S
C400 C401 1.524 . S
C400 C414 1.377 . S
C401 C400 1.524 . S
C401 C402 1.397 . S
C401 C406 1.363 . S
C402 H379 0.950 . S
C402 C401 1.397 . S
C402 C403 1.334 . S
C403 H380 0.950 . S
C403 C402 1.334 . S
C403 C404 1.287 . S
C404 C403 1.287 . S
C404 C405 1.524 . S
C404 H423 0.913 . S
C405 H381 0.950 . S
C405 C404 1.524 . S
C405 C406 1.415 . S
C406 H382 0.950 . S
C406 C401 1.363 . S
C406 C405 1.415 . S
C407 H383 0.951 . S
C407 C408 1.366 . S
C407 C409 1.388 . S
C408 C407 1.366 . S
C408 C412 1.385 . S
C409 H384 0.951 . S
C409 C407 1.388 . S
C409 C410 1.366 . S
C410 C409 1.366 . S
C410 C411 1.414 . S
C410 C413 1.499 . S
C411 H385 0.950 . S
C411 C410 1.414 . S
C411 C412 1.374 . S
C412 H386 0.950 . S
C412 C408 1.385 . S
C412 C411 1.374 . S
C413 C410 1.499 . S
C413 C414 1.373 . S
C413 C415 1.389 . S
C414 H387 0.950 . S
C414 C400 1.377 . S
C414 C413 1.373 . S
C415 C399 1.377 . S
C415 C413 1.389 . S
C415 C416 1.524 . S
C416 C415 1.524 . S
C416 C417 1.397 . S
C416 C421 1.363 . S
C417 H388 0.950 . S
C417 C416 1.397 . S
C417 C418 1.334 . S
C418 H389 0.950 . S
C418 C417 1.334 . S
C418 C419 1.287 . S
C419 C418 1.287 . S
C419 C420 1.524 . S
C419 H422 0.999 . S
C420 H390 0.950 . S
C420 C419 1.524 . S
C420 C421 1.415 . S
C421 H391 0.950 . S
C421 C416 1.363 . S
C421 C420 1.415 . S
H422 C419 0.999 . S
H423 C404 0.913 . S
H424 C442 0.951 . S
H425 C444 0.951 . S
H426 C446 0.950 . S
H427 C447 0.950 . S
H428 C449 0.950 . S
H429 C452 0.950 . S
H430 C453 0.950 . S
H431 C455 0.950 . S
H432 C456 0.950 1_554 S
H433 C457 0.951 . S
H434 C459 0.951 . S
H435 C461 0.950 1_554 S
H436 C462 0.950 . S
H437 C464 0.950 . S
H438 C467 0.950 . S
H439 C468 0.950 . S
H440 C470 0.950 . S
H441 C471 0.950 . S
C442 H424 0.951 . S
C442 C443 1.366 . S
C442 C444 1.388 . S
C443 C442 1.366 . S
C443 C447 1.385 . S
C444 H425 0.951 . S
C444 C442 1.388 . S
C444 C445 1.366 . S
C445 C444 1.366 . S
C445 C446 1.414 . S
C445 C448 1.499 . S
C446 H426 0.950 . S
C446 C445 1.414 . S
C446 C447 1.374 . S
C447 H427 0.950 . S
C447 C443 1.385 . S
C447 C446 1.374 . S
C448 C445 1.499 . S
C448 C449 1.373 . S
C448 C450 1.389 . S
C449 H428 0.950 . S
C449 C448 1.373 . S
C449 C465 1.377 . S
C450 C448 1.389 . S
C450 C451 1.524 . S
C450 C464 1.377 . S
C451 C450 1.524 . S
C451 C452 1.397 . S
C451 C456 1.363 . S
C452 H429 0.950 . S
C452 C451 1.397 . S
C452 C453 1.334 . S
C453 H430 0.950 . S
C453 C452 1.334 . S
C453 C454 1.287 . S
C454 C453 1.287 . S
C454 C455 1.524 1_556 S
C454 H473 0.913 . S
C455 H431 0.950 . S
C455 C454 1.524 1_554 S
C455 C456 1.415 1_554 S
C456 H432 0.950 1_556 S
C456 C451 1.363 . S
C456 C455 1.415 1_556 S
C457 H433 0.951 . S
C457 C458 1.366 . S
C457 C459 1.388 . S
C458 C457 1.366 . S
C458 C462 1.385 1_556 S
C459 H434 0.951 . S
C459 C457 1.388 . S
C459 C460 1.366 . S
C460 C459 1.366 . S
C460 C461 1.414 . S
C460 C463 1.499 . S
C461 H435 0.950 1_556 S
C461 C460 1.414 . S
C461 C462 1.374 1_556 S
C462 H436 0.950 . S
C462 C458 1.385 1_554 S
C462 C461 1.374 1_554 S
C463 C460 1.499 . S
C463 C464 1.373 . S
C463 C465 1.389 . S
C464 H437 0.950 . S
C464 C450 1.377 . S
C464 C463 1.373 . S
C465 C449 1.377 . S
C465 C463 1.389 . S
C465 C466 1.524 . S
C466 C465 1.524 . S
C466 C467 1.397 . S
C466 C471 1.363 . S
C467 H438 0.950 . S
C467 C466 1.397 . S
C467 C468 1.334 . S
C468 H439 0.950 . S
C468 C467 1.334 . S
C468 C469 1.287 . S
C469 C468 1.287 . S
C469 C470 1.524 . S
C469 H472 0.999 . S
C470 H440 0.950 . S
C470 C469 1.524 . S
C470 C471 1.415 . S
C471 H441 0.950 . S
C471 C466 1.363 . S
C471 C470 1.415 . S
H472 C469 0.999 . S
H473 C454 0.913 . S
H474 C492 0.951 . S
H475 C494 0.951 . S
H476 C496 0.950 . S
H477 C497 0.950 . S
H478 C499 0.950 . S
H479 C502 0.950 . S
H480 C503 0.950 . S
H481 C505 0.950 . S
H482 C506 0.950 . S
H483 C507 0.951 . S
H484 C509 0.951 . S
H485 C511 0.950 . S
H486 C512 0.950 . S
H487 C514 0.950 . S
H488 C517 0.950 . S
H489 C518 0.950 . S
H490 C520 0.950 . S
H491 C521 0.950 . S
C492 H474 0.951 . S
C492 C493 1.366 . S
C492 C494 1.388 . S
C493 C492 1.366 . S
C493 C497 1.385 . S
C494 H475 0.951 . S
C494 C492 1.388 . S
C494 C495 1.366 . S
C495 C494 1.366 . S
C495 C496 1.414 . S
C495 C498 1.499 . S
C496 H476 0.950 . S
C496 C495 1.414 . S
C496 C497 1.374 . S
C497 H477 0.950 . S
C497 C493 1.385 . S
C497 C496 1.374 . S
C498 C495 1.499 . S
C498 C499 1.373 . S
C498 C500 1.389 . S
C499 H478 0.950 . S
C499 C498 1.373 . S
C499 C515 1.377 . S
C500 C498 1.389 . S
C500 C501 1.524 . S
C500 C514 1.377 . S
C501 C500 1.524 . S
C501 C502 1.397 . S
C501 C506 1.363 . S
C502 H479 0.950 . S
C502 C501 1.397 . S
C502 C503 1.334 . S
C503 H480 0.950 . S
C503 C502 1.334 . S
C503 C504 1.287 . S
C504 C503 1.287 . S
C504 C505 1.524 . S
C504 H523 0.913 . S
C505 H481 0.950 . S
C505 C504 1.524 . S
C505 C506 1.415 . S
C506 H482 0.950 . S
C506 C501 1.363 . S
C506 C505 1.415 . S
C507 H483 0.951 . S
C507 C508 1.366 . S
C507 C509 1.388 . S
C508 C507 1.366 . S
C508 C512 1.385 . S
C509 H484 0.951 . S
C509 C507 1.388 . S
C509 C510 1.366 . S
C510 C509 1.366 . S
C510 C511 1.414 . S
C510 C513 1.499 . S
C511 H485 0.950 . S
C511 C510 1.414 . S
C511 C512 1.374 . S
C512 H486 0.950 . S
C512 C508 1.385 . S
C512 C511 1.374 . S
C513 C510 1.499 . S
C513 C514 1.373 . S
C513 C515 1.389 . S
C514 H487 0.950 . S
C514 C500 1.377 . S
C514 C513 1.373 . S
C515 C499 1.377 . S
C515 C513 1.389 . S
C515 C516 1.524 . S
C516 C515 1.524 . S
C516 C517 1.397 . S
C516 C521 1.363 . S
C517 H488 0.950 . S
C517 C516 1.397 . S
C517 C518 1.334 . S
C518 H489 0.950 . S
C518 C517 1.334 . S
C518 C519 1.287 . S
C519 C518 1.287 . S
C519 C520 1.524 . S
C519 H522 0.999 . S
C520 H490 0.950 . S
C520 C519 1.524 . S
C520 C521 1.415 . S
C521 H491 0.950 . S
C521 C516 1.363 . S
C521 C520 1.415 . S
H522 C519 0.999 . S
H523 C504 0.913 . S
H524 C542 0.951 . S
H525 C544 0.951 . S
H526 C546 0.950 . S
H527 C547 0.950 . S
H528 C549 0.950 . S
H529 C552 0.950 . S
H530 C553 0.950 . S
H531 C555 0.950 . S
H532 C556 0.950 . S
H533 C557 0.951 . S
H534 C559 0.951 . S
H535 C561 0.950 . S
H536 C562 0.950 . S
H537 C564 0.950 . S
H538 C567 0.950 . S
H539 C568 0.950 . S
H540 C570 0.950 . S
H541 C571 0.950 . S
C542 H524 0.951 . S
C542 C543 1.366 . S
C542 C544 1.388 . S
C543 C542 1.366 . S
C543 C547 1.385 . S
C544 H525 0.951 . S
C544 C542 1.388 . S
C544 C545 1.366 . S
C545 C544 1.366 . S
C545 C546 1.414 . S
C545 C548 1.499 . S
C546 H526 0.950 . S
C546 C545 1.414 . S
C546 C547 1.374 . S
C547 H527 0.950 . S
C547 C543 1.385 . S
C547 C546 1.374 . S
C548 C545 1.499 . S
C548 C549 1.373 . S
C548 C550 1.389 . S
C549 H528 0.950 . S
C549 C548 1.373 . S
C549 C565 1.377 . S
C550 C548 1.389 . S
C550 C551 1.524 . S
C550 C564 1.377 . S
C551 C550 1.524 . S
C551 C552 1.397 . S
C551 C556 1.363 . S
C552 H529 0.950 . S
C552 C551 1.397 . S
C552 C553 1.334 . S
C553 H530 0.950 . S
C553 C552 1.334 . S
C553 C554 1.287 . S
C554 C553 1.287 . S
C554 C555 1.524 . S
C554 H573 0.913 . S
C555 H531 0.950 . S
C555 C554 1.524 . S
C555 C556 1.415 . S
C556 H532 0.950 . S
C556 C551 1.363 . S
C556 C555 1.415 . S
C557 H533 0.951 . S
C557 C558 1.366 . S
C557 C559 1.388 . S
C558 C557 1.366 . S
C558 C562 1.385 . S
C559 H534 0.951 . S
C559 C557 1.388 . S
C559 C560 1.366 . S
C560 C559 1.366 . S
C560 C561 1.414 . S
C560 C563 1.499 . S
C561 H535 0.950 . S
C561 C560 1.414 . S
C561 C562 1.374 . S
C562 H536 0.950 . S
C562 C558 1.385 . S
C562 C561 1.374 . S
C563 C560 1.499 . S
C563 C564 1.373 . S
C563 C565 1.389 . S
C564 H537 0.950 . S
C564 C550 1.377 . S
C564 C563 1.373 . S
C565 C549 1.377 . S
C565 C563 1.389 . S
C565 C566 1.524 . S
C566 C565 1.524 . S
C566 C567 1.397 . S
C566 C571 1.363 . S
C567 H538 0.950 . S
C567 C566 1.397 . S
C567 C568 1.334 . S
C568 H539 0.950 . S
C568 C567 1.334 . S
C568 C569 1.287 . S
C569 C568 1.287 . S
C569 C570 1.524 . S
C569 H572 0.999 1_565 S
C570 H540 0.950 . S
C570 C569 1.524 . S
C570 C571 1.415 . S
C571 H541 0.950 . S
C571 C566 1.363 . S
C571 C570 1.415 . S
H572 C569 0.999 1_545 S
H573 C554 0.913 . S
H574 C592 0.951 . S
H575 C594 0.951 . S
H576 C596 0.950 . S
H577 C597 0.950 . S
H578 C599 0.950 . S
H579 C602 0.950 . S
H580 C603 0.950 . S
H581 C605 0.950 . S
H582 C606 0.950 . S
H583 C607 0.951 . S
H584 C609 0.951 . S
H585 C611 0.950 . S
H586 C612 0.950 . S
H587 C614 0.950 . S
H588 C617 0.950 . S
H589 C618 0.950 . S
H590 C620 0.950 . S
H591 C621 0.950 . S
C592 H574 0.951 . S
C592 C593 1.366 . S
C592 C594 1.388 . S
C593 C592 1.366 . S
C593 C597 1.385 . S
C594 H575 0.951 . S
C594 C592 1.388 . S
C594 C595 1.366 . S
C595 C594 1.366 . S
C595 C596 1.414 . S
C595 C598 1.499 . S
C596 H576 0.950 . S
C596 C595 1.414 . S
C596 C597 1.374 . S
C597 H577 0.950 . S
C597 C593 1.385 . S
C597 C596 1.374 . S
C598 C595 1.499 . S
C598 C599 1.373 . S
C598 C600 1.389 . S
C599 H578 0.950 . S
C599 C598 1.373 . S
C599 C615 1.377 . S
C600 C598 1.389 . S
C600 C601 1.524 . S
C600 C614 1.377 . S
C601 C600 1.524 . S
C601 C602 1.397 . S
C601 C606 1.363 . S
C602 H579 0.950 . S
C602 C601 1.397 . S
C602 C603 1.334 . S
C603 H580 0.950 . S
C603 C602 1.334 . S
C603 C604 1.287 . S
C604 C603 1.287 . S
C604 C605 1.524 . S
C604 H623 0.913 . S
C605 H581 0.950 . S
C605 C604 1.524 . S
C605 C606 1.415 . S
C606 H582 0.950 . S
C606 C601 1.363 . S
C606 C605 1.415 . S
C607 H583 0.951 . S
C607 C608 1.366 . S
C607 C609 1.388 . S
C608 C607 1.366 . S
C608 C612 1.385 . S
C609 H584 0.951 . S
C609 C607 1.388 . S
C609 C610 1.366 . S
C610 C609 1.366 . S
C610 C611 1.414 . S
C610 C613 1.499 . S
C611 H585 0.950 . S
C611 C610 1.414 . S
C611 C612 1.374 . S
C612 H586 0.950 . S
C612 C608 1.385 . S
C612 C611 1.374 . S
C613 C610 1.499 . S
C613 C614 1.373 . S
C613 C615 1.389 . S
C614 H587 0.950 . S
C614 C600 1.377 . S
C614 C613 1.373 . S
C615 C599 1.377 . S
C615 C613 1.389 . S
C615 C616 1.524 . S
C616 C615 1.524 . S
C616 C617 1.397 . S
C616 C621 1.363 . S
C617 H588 0.950 . S
C617 C616 1.397 . S
C617 C618 1.334 . S
C618 H589 0.950 . S
C618 C617 1.334 . S
C618 C619 1.287 . S
C619 C618 1.287 . S
C619 C620 1.524 . S
C619 H622 0.999 . S
C620 H590 0.950 . S
C620 C619 1.524 . S
C620 C621 1.415 . S
C621 H591 0.950 . S
C621 C616 1.363 . S
C621 C620 1.415 . S
H622 C619 0.999 . S
H623 C604 0.913 . S
H624 C642 0.951 . S
H625 C644 0.951 . S
H626 C646 0.950 . S
H627 C647 0.950 . S
H628 C649 0.950 . S
H629 C652 0.950 . S
H630 C653 0.950 . S
H631 C655 0.950 . S
H632 C656 0.950 . S
H633 C657 0.951 . S
H634 C659 0.951 . S
H635 C661 0.950 . S
H636 C662 0.950 . S
H637 C664 0.950 . S
H638 C667 0.950 . S
H639 C668 0.950 . S
H640 C670 0.950 . S
H641 C671 0.950 . S
C642 H624 0.951 . S
C642 C643 1.366 . S
C642 C644 1.388 . S
C643 C642 1.366 . S
C643 C647 1.385 . S
C644 H625 0.951 . S
C644 C642 1.388 . S
C644 C645 1.366 . S
C645 C644 1.366 . S
C645 C646 1.414 . S
C645 C648 1.499 . S
C646 H626 0.950 . S
C646 C645 1.414 . S
C646 C647 1.374 . S
C647 H627 0.950 . S
C647 C643 1.385 . S
C647 C646 1.374 . S
C648 C645 1.499 . S
C648 C649 1.373 . S
C648 C650 1.389 1_545 S
C649 H628 0.950 . S
C649 C648 1.373 . S
C649 C665 1.377 1_455 S
C650 C648 1.389 1_565 S
C650 C651 1.524 . S
C650 C664 1.377 1_455 S
C651 C650 1.524 . S
C651 C652 1.397 . S
C651 C656 1.363 . S
C652 H629 0.950 . S
C652 C651 1.397 . S
C652 C653 1.334 . S
C653 H630 0.950 . S
C653 C652 1.334 . S
C653 C654 1.287 . S
C654 C653 1.287 . S
C654 C655 1.524 . S
C654 H673 0.913 . S
C655 H631 0.950 . S
C655 C654 1.524 . S
C655 C656 1.415 . S
C656 H632 0.950 . S
C656 C651 1.363 . S
C656 C655 1.415 . S
C657 H633 0.951 . S
C657 C658 1.366 . S
C657 C659 1.388 . S
C658 C657 1.366 . S
C658 C662 1.385 . S
C659 H634 0.951 . S
C659 C657 1.388 . S
C659 C660 1.366 . S
C660 C659 1.366 . S
C660 C661 1.414 . S
C660 C663 1.499 . S
C661 H635 0.950 . S
C661 C660 1.414 . S
C661 C662 1.374 . S
C662 H636 0.950 . S
C662 C658 1.385 . S
C662 C661 1.374 . S
C663 C660 1.499 . S
C663 C664 1.373 . S
C663 C665 1.389 1_565 S
C664 H637 0.950 . S
C664 C650 1.377 1_655 S
C664 C663 1.373 . S
C665 C649 1.377 1_655 S
C665 C663 1.389 1_545 S
C665 C666 1.524 . S
C666 C665 1.524 . S
C666 C667 1.397 . S
C666 C671 1.363 . S
C667 H638 0.950 . S
C667 C666 1.397 . S
C667 C668 1.334 . S
C668 H639 0.950 . S
C668 C667 1.334 . S
C668 C669 1.287 . S
C669 C668 1.287 . S
C669 C670 1.524 . S
C669 H672 0.999 . S
C670 H640 0.950 . S
C670 C669 1.524 . S
C670 C671 1.415 . S
C671 H641 0.950 . S
C671 C666 1.363 . S
C671 C670 1.415 . S
H672 C669 0.999 . S
H673 C654 0.913 . S
H674 C692 0.951 . S
H675 C694 0.951 . S
H676 C696 0.950 . S
H677 C697 0.950 . S
H678 C699 0.950 . S
H679 C702 0.950 . S
H680 C703 0.950 . S
H681 C705 0.950 . S
H682 C706 0.950 . S
H683 C707 0.951 . S
H684 C709 0.951 . S
H685 C711 0.950 . S
H686 C712 0.950 . S
H687 C714 0.950 . S
H688 C717 0.950 . S
H689 C718 0.950 . S
H690 C720 0.950 . S
H691 C721 0.950 . S
C692 H674 0.951 . S
C692 C693 1.366 . S
C692 C694 1.388 . S
C693 C692 1.366 . S
C693 C697 1.385 . S
C694 H675 0.951 . S
C694 C692 1.388 . S
C694 C695 1.366 . S
C695 C694 1.366 . S
C695 C696 1.414 . S
C695 C698 1.499 . S
C696 H676 0.950 . S
C696 C695 1.414 . S
C696 C697 1.374 . S
C697 H677 0.950 . S
C697 C693 1.385 . S
C697 C696 1.374 . S
C698 C695 1.499 . S
C698 C699 1.373 . S
C698 C700 1.389 . S
C699 H678 0.950 . S
C699 C698 1.373 . S
C699 C715 1.377 1_655 S
C700 C698 1.389 . S
C700 C701 1.524 . S
C700 C714 1.377 1_655 S
C701 C700 1.524 . S
C701 C702 1.397 . S
C701 C706 1.363 1_655 S
C702 H679 0.950 . S
C702 C701 1.397 . S
C702 C703 1.334 . S
C703 H680 0.950 . S
C703 C702 1.334 . S
C703 C704 1.287 . S
C704 C703 1.287 . S
C704 C705 1.524 1_655 S
C704 H723 0.913 . S
C705 H681 0.950 . S
C705 C704 1.524 1_455 S
C705 C706 1.415 . S
C706 H682 0.950 . S
C706 C701 1.363 1_455 S
C706 C705 1.415 . S
C707 H683 0.951 . S
C707 C708 1.366 . S
C707 C709 1.388 . S
C708 C707 1.366 . S
C708 C712 1.385 . S
C709 H684 0.951 . S
C709 C707 1.388 . S
C709 C710 1.366 . S
C710 C709 1.366 . S
C710 C711 1.414 . S
C710 C713 1.499 . S
C711 H685 0.950 . S
C711 C710 1.414 . S
C711 C712 1.374 . S
C712 H686 0.950 . S
C712 C708 1.385 . S
C712 C711 1.374 . S
C713 C710 1.499 . S
C713 C714 1.373 . S
C713 C715 1.389 . S
C714 H687 0.950 . S
C714 C700 1.377 1_455 S
C714 C713 1.373 . S
C715 C699 1.377 1_455 S
C715 C713 1.389 . S
C715 C716 1.524 . S
C716 C715 1.524 . S
C716 C717 1.397 . S
C716 C721 1.363 1_455 S
C717 H688 0.950 . S
C717 C716 1.397 . S
C717 C718 1.334 . S
C718 H689 0.950 . S
C718 C717 1.334 . S
C718 C719 1.287 . S
C719 C718 1.287 . S
C719 C720 1.524 1_455 S
C719 H722 0.999 . S
C720 H690 0.950 . S
C720 C719 1.524 1_655 S
C720 C721 1.415 . S
C721 H691 0.950 . S
C721 C716 1.363 1_655 S
C721 C720 1.415 . S
H722 C719 0.999 . S
H723 C704 0.913 . S
H724 C742 0.951 . S
H725 C744 0.951 . S
H726 C746 0.950 . S
H727 C747 0.950 . S
H728 C749 0.950 . S
H729 C752 0.950 . S
H730 C753 0.950 . S
H731 C755 0.950 . S
H732 C756 0.950 . S
H733 C757 0.951 . S
H734 C759 0.951 . S
H735 C761 0.950 . S
H736 C762 0.950 . S
H737 C764 0.950 . S
H738 C767 0.950 . S
H739 C768 0.950 . S
H740 C770 0.950 . S
H741 C771 0.950 . S
C742 H724 0.951 . S
C742 C743 1.366 . S
C742 C744 1.388 . S
C743 C742 1.366 . S
C743 C747 1.385 . S
C744 H725 0.951 . S
C744 C742 1.388 . S
C744 C745 1.366 . S
C745 C744 1.366 . S
C745 C746 1.414 . S
C745 C748 1.499 . S
C746 H726 0.950 . S
C746 C745 1.414 . S
C746 C747 1.374 . S
C747 H727 0.950 . S
C747 C743 1.385 . S
C747 C746 1.374 . S
C748 C745 1.499 . S
C748 C749 1.373 . S
C748 C750 1.389 . S
C749 H728 0.950 . S
C749 C748 1.373 . S
C749 C765 1.377 . S
C750 C748 1.389 . S
C750 C751 1.524 . S
C750 C764 1.377 . S
C751 C750 1.524 . S
C751 C752 1.397 . S
C751 C756 1.363 . S
C752 H729 0.950 . S
C752 C751 1.397 . S
C752 C753 1.334 . S
C753 H730 0.950 . S
C753 C752 1.334 . S
C753 C754 1.287 . S
C754 C753 1.287 . S
C754 C755 1.524 . S
C754 H773 0.913 . S
C755 H731 0.950 . S
C755 C754 1.524 . S
C755 C756 1.415 . S
C756 H732 0.950 . S
C756 C751 1.363 . S
C756 C755 1.415 . S
C757 H733 0.951 . S
C757 C758 1.366 . S
C757 C759 1.388 . S
C758 C757 1.366 . S
C758 C762 1.385 . S
C759 H734 0.951 . S
C759 C757 1.388 . S
C759 C760 1.366 . S
C760 C759 1.366 . S
C760 C761 1.414 . S
C760 C763 1.499 . S
C761 H735 0.950 . S
C761 C760 1.414 . S
C761 C762 1.374 . S
C762 H736 0.950 . S
C762 C758 1.385 . S
C762 C761 1.374 . S
C763 C760 1.499 . S
C763 C764 1.373 . S
C763 C765 1.389 . S
C764 H737 0.950 . S
C764 C750 1.377 . S
C764 C763 1.373 . S
C765 C749 1.377 . S
C765 C763 1.389 . S
C765 C766 1.524 . S
C766 C765 1.524 . S
C766 C767 1.397 . S
C766 C771 1.363 . S
C767 H738 0.950 . S
C767 C766 1.397 . S
C767 C768 1.334 . S
C768 H739 0.950 . S
C768 C767 1.334 . S
C768 C769 1.287 . S
C769 C768 1.287 . S
C769 C770 1.524 . S
C769 H772 0.999 . S
C770 H740 0.950 . S
C770 C769 1.524 . S
C770 C771 1.415 . S
C771 H741 0.950 . S
C771 C766 1.363 . S
C771 C770 1.415 . S
H772 C769 0.999 . S
H773 C754 0.913 . S
H774 C792 0.951 . S
H775 C794 0.951 . S
H776 C796 0.950 . S
H777 C797 0.950 . S
H778 C799 0.950 . S
H779 C802 0.950 . S
H780 C803 0.950 . S
H781 C805 0.950 . S
H782 C806 0.950 . S
H783 C807 0.951 . S
H784 C809 0.951 . S
H785 C811 0.950 . S
H786 C812 0.950 . S
H787 C814 0.950 . S
H788 C817 0.950 . S
H789 C818 0.950 . S
H790 C820 0.950 . S
H791 C821 0.950 . S
C792 H774 0.951 . S
C792 C793 1.366 . S
C792 C794 1.388 . S
C793 C792 1.366 . S
C793 C797 1.385 . S
C794 H775 0.951 . S
C794 C792 1.388 . S
C794 C795 1.366 . S
C795 C794 1.366 . S
C795 C796 1.414 . S
C795 C798 1.499 . S
C796 H776 0.950 . S
C796 C795 1.414 . S
C796 C797 1.374 . S
C797 H777 0.950 . S
C797 C793 1.385 . S
C797 C796 1.374 . S
C798 C795 1.499 . S
C798 C799 1.373 . S
C798 C800 1.389 . S
C799 H778 0.950 . S
C799 C798 1.373 . S
C799 C815 1.377 1_565 S
C800 C798 1.389 . S
C800 C801 1.524 . S
C800 C814 1.377 1_565 S
C801 C800 1.524 . S
C801 C802 1.397 . S
C801 C806 1.363 1_565 S
C802 H779 0.950 . S
C802 C801 1.397 . S
C802 C803 1.334 . S
C803 H780 0.950 . S
C803 C802 1.334 . S
C803 C804 1.287 . S
C804 C803 1.287 . S
C804 C805 1.524 1_565 S
C804 H823 0.913 . S
C805 H781 0.950 . S
C805 C804 1.524 1_545 S
C805 C806 1.415 . S
C806 H782 0.950 . S
C806 C801 1.363 1_545 S
C806 C805 1.415 . S
C807 H783 0.951 . S
C807 C808 1.366 . S
C807 C809 1.388 . S
C808 C807 1.366 . S
C808 C812 1.385 . S
C809 H784 0.951 . S
C809 C807 1.388 . S
C809 C810 1.366 . S
C810 C809 1.366 . S
C810 C811 1.414 . S
C810 C813 1.499 . S
C811 H785 0.950 . S
C811 C810 1.414 . S
C811 C812 1.374 . S
C812 H786 0.950 . S
C812 C808 1.385 . S
C812 C811 1.374 . S
C813 C810 1.499 . S
C813 C814 1.373 . S
C813 C815 1.389 . S
C814 H787 0.950 . S
C814 C800 1.377 1_545 S
C814 C813 1.373 . S
C815 C799 1.377 1_545 S
C815 C813 1.389 . S
C815 C816 1.524 . S
C816 C815 1.524 . S
C816 C817 1.397 1_554 S
C816 C821 1.363 1_545 S
C817 H788 0.950 . S
C817 C816 1.397 1_556 S
C817 C818 1.334 . S
C818 H789 0.950 . S
C818 C817 1.334 . S
C818 C819 1.287 . S
C819 C818 1.287 . S
C819 C820 1.524 1_545 S
C819 H822 0.999 . S
C820 H790 0.950 . S
C820 C819 1.524 1_565 S
C820 C821 1.415 1_556 S
C821 H791 0.950 . S
C821 C816 1.363 1_565 S
C821 C820 1.415 1_554 S
H822 C819 0.999 . S
H823 C804 0.913 . S
H824 C842 0.951 . S
H825 C844 0.951 . S
H826 C846 0.950 . S
H827 C847 0.950 . S
H828 C849 0.950 . S
H829 C852 0.950 . S
H830 C853 0.950 . S
H831 C855 0.950 . S
H832 C856 0.950 . S
H833 C857 0.951 . S
H834 C859 0.951 . S
H835 C861 0.950 . S
H836 C862 0.950 . S
H837 C864 0.950 . S
H838 C867 0.950 . S
H839 C868 0.950 . S
H840 C870 0.950 . S
H841 C871 0.950 . S
C842 H824 0.951 . S
C842 C843 1.366 . S
C842 C844 1.388 . S
C843 C842 1.366 . S
C843 C847 1.385 . S
C844 H825 0.951 . S
C844 C842 1.388 . S
C844 C845 1.366 . S
C845 C844 1.366 . S
C845 C846 1.414 . S
C845 C848 1.499 . S
C846 H826 0.950 . S
C846 C845 1.414 . S
C846 C847 1.374 . S
C847 H827 0.950 . S
C847 C843 1.385 . S
C847 C846 1.374 . S
C848 C845 1.499 . S
C848 C849 1.373 . S
C848 C850 1.389 1_554 S
C849 H828 0.950 . S
C849 C848 1.373 . S
C849 C865 1.377 1_455 S
C850 C848 1.389 1_556 S
C850 C851 1.524 . S
C850 C864 1.377 1_455 S
C851 C850 1.524 . S
C851 C852 1.397 . S
C851 C856 1.363 1_455 S
C852 H829 0.950 . S
C852 C851 1.397 . S
C852 C853 1.334 . S
C853 H830 0.950 . S
C853 C852 1.334 . S
C853 C854 1.287 . S
C854 C853 1.287 . S
C854 C855 1.524 1_455 S
C854 H873 0.913 . S
C855 H831 0.950 . S
C855 C854 1.524 1_655 S
C855 C856 1.415 . S
C856 H832 0.950 . S
C856 C851 1.363 1_655 S
C856 C855 1.415 . S
C857 H833 0.951 . S
C857 C858 1.366 . S
C857 C859 1.388 . S
C858 C857 1.366 . S
C858 C862 1.385 . S
C859 H834 0.951 . S
C859 C857 1.388 . S
C859 C860 1.366 . S
C860 C859 1.366 . S
C860 C861 1.414 . S
C860 C863 1.499 . S
C861 H835 0.950 . S
C861 C860 1.414 . S
C861 C862 1.374 . S
C862 H836 0.950 . S
C862 C858 1.385 . S
C862 C861 1.374 . S
C863 C860 1.499 . S
C863 C864 1.373 1_554 S
C863 C865 1.389 . S
C864 H837 0.950 . S
C864 C850 1.377 1_655 S
C864 C863 1.373 1_556 S
C865 C849 1.377 1_655 S
C865 C863 1.389 . S
C865 C866 1.524 . S
C866 C865 1.524 . S
C866 C867 1.397 . S
C866 C871 1.363 1_655 S
C867 H838 0.950 . S
C867 C866 1.397 . S
C867 C868 1.334 . S
C868 H839 0.950 . S
C868 C867 1.334 . S
C868 C869 1.287 . S
C869 C868 1.287 . S
C869 C870 1.524 1_655 S
C869 H872 0.999 . S
C870 H840 0.950 . S
C870 C869 1.524 1_455 S
C870 C871 1.415 . S
C871 H841 0.950 . S
C871 C866 1.363 1_455 S
C871 C870 1.415 . S
H872 C869 0.999 . S
H873 C854 0.913 . S
H874 C892 0.951 . S
H875 C894 0.951 . S
H876 C896 0.950 . S
H877 C897 0.950 . S
H878 C899 0.950 . S
H879 C902 0.950 . S
H880 C903 0.950 . S
H881 C905 0.950 . S
H882 C906 0.950 . S
H883 C907 0.951 . S
H884 C909 0.951 . S
H885 C911 0.950 . S
H886 C912 0.950 . S
H887 C914 0.950 . S
H888 C917 0.950 . S
H889 C918 0.950 . S
H890 C920 0.950 . S
H891 C921 0.950 . S
C892 H874 0.951 . S
C892 C893 1.366 . S
C892 C894 1.388 . S
C893 C892 1.366 . S
C893 C897 1.385 . S
C894 H875 0.951 . S
C894 C892 1.388 . S
C894 C895 1.366 . S
C895 C894 1.366 . S
C895 C896 1.414 . S
C895 C898 1.499 . S
C896 H876 0.950 . S
C896 C895 1.414 . S
C896 C897 1.374 . S
C897 H877 0.950 . S
C897 C893 1.385 . S
C897 C896 1.374 . S
C898 C895 1.499 . S
C898 C899 1.373 . S
C898 C900 1.389 . S
C899 H878 0.950 . S
C899 C898 1.373 . S
C899 C915 1.377 . S
C900 C898 1.389 . S
C900 C901 1.524 . S
C900 C914 1.377 . S
C901 C900 1.524 . S
C901 C902 1.397 . S
C901 C906 1.363 . S
C902 H879 0.950 . S
C902 C901 1.397 . S
C902 C903 1.334 . S
C903 H880 0.950 . S
C903 C902 1.334 . S
C903 C904 1.287 . S
C904 C903 1.287 . S
C904 C905 1.524 . S
C904 H923 0.913 . S
C905 H881 0.950 . S
C905 C904 1.524 . S
C905 C906 1.415 . S
C906 H882 0.950 . S
C906 C901 1.363 . S
C906 C905 1.415 . S
C907 H883 0.951 . S
C907 C908 1.366 . S
C907 C909 1.388 . S
C908 C907 1.366 . S
C908 C912 1.385 . S
C909 H884 0.951 . S
C909 C907 1.388 . S
C909 C910 1.366 . S
C910 C909 1.366 . S
C910 C911 1.414 . S
C910 C913 1.499 . S
C911 H885 0.950 . S
C911 C910 1.414 . S
C911 C912 1.374 . S
C912 H886 0.950 . S
C912 C908 1.385 . S
C912 C911 1.374 . S
C913 C910 1.499 . S
C913 C914 1.373 . S
C913 C915 1.389 . S
C914 H887 0.950 . S
C914 C900 1.377 . S
C914 C913 1.373 . S
C915 C899 1.377 . S
C915 C913 1.389 . S
C915 C916 1.524 . S
C916 C915 1.524 . S
C916 C917 1.397 . S
C916 C921 1.363 . S
C917 H888 0.950 . S
C917 C916 1.397 . S
C917 C918 1.334 . S
C918 H889 0.950 . S
C918 C917 1.334 . S
C918 C919 1.287 . S
C919 C918 1.287 . S
C919 C920 1.524 . S
C919 H922 0.999 . S
C920 H890 0.950 . S
C920 C919 1.524 . S
C920 C921 1.415 . S
C921 H891 0.950 . S
C921 C916 1.363 . S
C921 C920 1.415 . S
H922 C919 0.999 . S
H923 C904 0.913 . S
H924 C942 0.951 . S
H925 C944 0.951 1_565 S
H926 C946 0.950 . S
H927 C947 0.950 . S
H928 C949 0.950 . S
H929 C952 0.950 1_545 S
H930 C953 0.950 . S
H931 C955 0.950 . S
H932 C956 0.950 . S
H933 C957 0.951 . S
H934 C959 0.951 1_545 S
H935 C961 0.950 . S
H936 C962 0.950 . S
H937 C964 0.950 . S
H938 C967 0.950 1_565 S
H939 C968 0.950 . S
H940 C970 0.950 . S
H941 C971 0.950 . S
C942 H924 0.951 . S
C942 C943 1.366 . S
C942 C944 1.388 . S
C943 C942 1.366 . S
C943 C947 1.385 . S
C944 H925 0.951 1_545 S
C944 C942 1.388 . S
C944 C945 1.366 . S
C945 C944 1.366 . S
C945 C946 1.414 . S
C945 C948 1.499 . S
C946 H926 0.950 . S
C946 C945 1.414 . S
C946 C947 1.374 . S
C947 H927 0.950 . S
C947 C943 1.385 . S
C947 C946 1.374 . S
C948 C945 1.499 . S
C948 C949 1.373 . S
C948 C950 1.389 1_545 S
C949 H928 0.950 . S
C949 C948 1.373 . S
C949 C965 1.377 . S
C950 C948 1.389 1_565 S
C950 C951 1.524 . S
C950 C964 1.377 . S
C951 C950 1.524 . S
C951 C952 1.397 . S
C951 C956 1.363 . S
C952 H929 0.950 1_565 S
C952 C951 1.397 . S
C952 C953 1.334 . S
C953 H930 0.950 . S
C953 C952 1.334 . S
C953 C954 1.287 . S
C954 C953 1.287 . S
C954 C955 1.524 . S
C954 H973 0.913 . S
C955 H931 0.950 . S
C955 C954 1.524 . S
C955 C956 1.415 . S
C956 H932 0.950 . S
C956 C951 1.363 . S
C956 C955 1.415 . S
C957 H933 0.951 . S
C957 C958 1.366 . S
C957 C959 1.388 . S
C958 C957 1.366 . S
C958 C962 1.385 . S
C959 H934 0.951 1_565 S
C959 C957 1.388 . S
C959 C960 1.366 . S
C960 C959 1.366 . S
C960 C961 1.414 . S
C960 C963 1.499 . S
C961 H935 0.950 . S
C961 C960 1.414 . S
C961 C962 1.374 . S
C962 H936 0.950 . S
C962 C958 1.385 . S
C962 C961 1.374 . S
C963 C960 1.499 . S
C963 C964 1.373 . S
C963 C965 1.389 1_565 S
C964 H937 0.950 . S
C964 C950 1.377 . S
C964 C963 1.373 . S
C965 C949 1.377 . S
C965 C963 1.389 1_545 S
C965 C966 1.524 . S
C966 C965 1.524 . S
C966 C967 1.397 . S
C966 C971 1.363 . S
C967 H938 0.950 1_545 S
C967 C966 1.397 . S
C967 C968 1.334 . S
C968 H939 0.950 . S
C968 C967 1.334 . S
C968 C969 1.287 . S
C969 C968 1.287 . S
C969 C970 1.524 . S
C969 H972 0.999 . S
C970 H940 0.950 . S
C970 C969 1.524 . S
C970 C971 1.415 . S
C971 H941 0.950 . S
C971 C966 1.363 . S
C971 C970 1.415 . S
H972 C969 0.999 . S
H973 C954 0.913 . S
H974 C992 0.951 . S
H975 C994 0.951 . S
H976 C996 0.950 1_655 S
H977 C997 0.950 . S
H978 C999 0.950 . S
H979 C1002 0.950 . S
H980 C1003 0.950 . S
H981 C1005 0.950 . S
H982 C1006 0.950 . S
H983 C1007 0.951 . S
H984 C1009 0.951 . S
H985 C1011 0.950 1_455 S
H986 C1012 0.950 . S
H987 C1014 0.950 . S
H988 C1017 0.950 . S
H989 C1018 0.950 . S
H990 C1020 0.950 . S
H991 C1021 0.950 . S
C992 H974 0.951 . S
C992 C993 1.366 . S
C992 C994 1.388 . S
C993 C992 1.366 . S
C993 C997 1.385 . S
C994 H975 0.951 . S
C994 C992 1.388 . S
C994 C995 1.366 . S
C995 C994 1.366 . S
C995 C996 1.414 . S
C995 C998 1.499 . S
C996 H976 0.950 1_455 S
C996 C995 1.414 . S
C996 C997 1.374 . S
C997 H977 0.950 . S
C997 C993 1.385 . S
C997 C996 1.374 . S
C998 C995 1.499 . S
C998 C999 1.373 1_455 S
C998 C1000 1.389 . S
C999 H978 0.950 . S
C999 C998 1.373 1_655 S
C999 C1015 1.377 1_545 S
C1000 C998 1.389 . S
C1000 C1001 1.524 . S
C1000 C1014 1.377 1_545 S
C1001 C1000 1.524 . S
C1001 C1002 1.397 . S
C1001 C1006 1.363 1_545 S
C1002 H979 0.950 . S
C1002 C1001 1.397 . S
C1002 C1003 1.334 . S
C1003 H980 0.950 . S
C1003 C1002 1.334 . S
C1003 C1004 1.287 . S
C1004 C1003 1.287 . S
C1004 C1005 1.524 1_545 S
C1004 H1023 0.913 . S
C1005 H981 0.950 . S
C1005 C1004 1.524 1_565 S
C1005 C1006 1.415 . S
C1006 H982 0.950 . S
C1006 C1001 1.363 1_565 S
C1006 C1005 1.415 . S
C1007 H983 0.951 . S
C1007 C1008 1.366 . S
C1007 C1009 1.388 . S
C1008 C1007 1.366 . S
C1008 C1012 1.385 . S
C1009 H984 0.951 . S
C1009 C1007 1.388 . S
C1009 C1010 1.366 . S
C1010 C1009 1.366 . S
C1010 C1011 1.414 . S
C1010 C1013 1.499 . S
C1011 H985 0.950 1_655 S
C1011 C1010 1.414 . S
C1011 C1012 1.374 . S
C1012 H986 0.950 . S
C1012 C1008 1.385 . S
C1012 C1011 1.374 . S
C1013 C1010 1.499 . S
C1013 C1014 1.373 1_655 S
C1013 C1015 1.389 . S
C1014 H987 0.950 . S
C1014 C1000 1.377 1_565 S
C1014 C1013 1.373 1_455 S
C1015 C999 1.377 1_565 S
C1015 C1013 1.389 . S
C1015 C1016 1.524 . S
C1016 C1015 1.524 . S
C1016 C1017 1.397 . S
C1016 C1021 1.363 1_565 S
C1017 H988 0.950 . S
C1017 C1016 1.397 . S
C1017 C1018 1.334 . S
C1018 H989 0.950 . S
C1018 C1017 1.334 . S
C1018 C1019 1.287 . S
C1019 C1018 1.287 . S
C1019 C1020 1.524 1_565 S
C1019 H1022 0.999 . S
C1020 H990 0.950 . S
C1020 C1019 1.524 1_545 S
C1020 C1021 1.415 . S
C1021 H991 0.950 . S
C1021 C1016 1.363 1_545 S
C1021 C1020 1.415 . S
H1022 C1019 0.999 . S
H1023 C1004 0.913 . S
H1024 C1042 0.951 . S
H1025 C1044 0.951 . S
H1026 C1046 0.950 . S
H1027 C1047 0.950 . S
H1028 C1049 0.950 . S
H1029 C1052 0.950 . S
H1030 C1053 0.950 . S
H1031 C1055 0.950 . S
H1032 C1056 0.950 . S
H1033 C1057 0.951 . S
H1034 C1059 0.951 . S
H1035 C1061 0.950 . S
H1036 C1062 0.950 . S
H1037 C1064 0.950 . S
H1038 C1067 0.950 . S
H1039 C1068 0.950 . S
H1040 C1070 0.950 . S
H1041 C1071 0.950 . S
C1042 H1024 0.951 . S
C1042 C1043 1.366 . S
C1042 C1044 1.388 . S
C1043 C1042 1.366 . S
C1043 C1047 1.385 . S
C1044 H1025 0.951 . S
C1044 C1042 1.388 . S
C1044 C1045 1.366 . S
C1045 C1044 1.366 . S
C1045 C1046 1.414 . S
C1045 C1048 1.499 . S
C1046 H1026 0.950 . S
C1046 C1045 1.414 . S
C1046 C1047 1.374 . S
C1047 H1027 0.950 . S
C1047 C1043 1.385 . S
C1047 C1046 1.374 . S
C1048 C1045 1.499 . S
C1048 C1049 1.373 . S
C1048 C1050 1.389 . S
C1049 H1028 0.950 . S
C1049 C1048 1.373 . S
C1049 C1065 1.377 . S
C1050 C1048 1.389 . S
C1050 C1051 1.524 . S
C1050 C1064 1.377 . S
C1051 C1050 1.524 . S
C1051 C1052 1.397 . S
C1051 C1056 1.363 . S
C1052 H1029 0.950 . S
C1052 C1051 1.397 . S
C1052 C1053 1.334 . S
C1053 H1030 0.950 . S
C1053 C1052 1.334 . S
C1053 C1054 1.287 . S
C1054 C1053 1.287 . S
C1054 C1055 1.524 . S
C1054 H1073 0.913 . S
C1055 H1031 0.950 . S
C1055 C1054 1.524 . S
C1055 C1056 1.415 . S
C1056 H1032 0.950 . S
C1056 C1051 1.363 . S
C1056 C1055 1.415 . S
C1057 H1033 0.951 . S
C1057 C1058 1.366 . S
C1057 C1059 1.388 . S
C1058 C1057 1.366 . S
C1058 C1062 1.385 . S
C1059 H1034 0.951 . S
C1059 C1057 1.388 . S
C1059 C1060 1.366 . S
C1060 C1059 1.366 . S
C1060 C1061 1.414 . S
C1060 C1063 1.499 . S
C1061 H1035 0.950 . S
C1061 C1060 1.414 . S
C1061 C1062 1.374 . S
C1062 H1036 0.950 . S
C1062 C1058 1.385 . S
C1062 C1061 1.374 . S
C1063 C1060 1.499 . S
C1063 C1064 1.373 . S
C1063 C1065 1.389 . S
C1064 H1037 0.950 . S
C1064 C1050 1.377 . S
C1064 C1063 1.373 . S
C1065 C1049 1.377 . S
C1065 C1063 1.389 . S
C1065 C1066 1.524 . S
C1066 C1065 1.524 . S
C1066 C1067 1.397 . S
C1066 C1071 1.363 . S
C1067 H1038 0.950 . S
C1067 C1066 1.397 . S
C1067 C1068 1.334 . S
C1068 H1039 0.950 . S
C1068 C1067 1.334 . S
C1068 C1069 1.287 . S
C1069 C1068 1.287 . S
C1069 C1070 1.524 . S
C1069 H1072 0.999 . S
C1070 H1040 0.950 . S
C1070 C1069 1.524 . S
C1070 C1071 1.415 . S
C1071 H1041 0.950 . S
C1071 C1066 1.363 . S
C1071 C1070 1.415 . S
H1072 C1069 0.999 . S
H1073 C1054 0.913 . S
H1074 C1092 0.951 . S
H1075 C1094 0.951 . S
H1076 C1096 0.950 . S
H1077 C1097 0.950 . S
H1078 C1099 0.950 . S
H1079 C1102 0.950 . S
H1080 C1103 0.950 . S
H1081 C1105 0.950 . S
H1082 C1106 0.950 . S
H1083 C1107 0.951 . S
H1084 C1109 0.951 . S
H1085 C1111 0.950 . S
H1086 C1112 0.950 . S
H1087 C1114 0.950 . S
H1088 C1117 0.950 . S
H1089 C1118 0.950 . S
H1090 C1120 0.950 . S
H1091 C1121 0.950 . S
C1092 H1074 0.951 . S
C1092 C1093 1.366 . S
C1092 C1094 1.388 . S
C1093 C1092 1.366 . S
C1093 C1097 1.385 . S
C1094 H1075 0.951 . S
C1094 C1092 1.388 . S
C1094 C1095 1.366 . S
C1095 C1094 1.366 . S
C1095 C1096 1.414 . S
C1095 C1098 1.499 . S
C1096 H1076 0.950 . S
C1096 C1095 1.414 . S
C1096 C1097 1.374 . S
C1097 H1077 0.950 . S
C1097 C1093 1.385 . S
C1097 C1096 1.374 . S
C1098 C1095 1.499 . S
C1098 C1099 1.373 . S
C1098 C1100 1.389 . S
C1099 H1078 0.950 . S
C1099 C1098 1.373 . S
C1099 C1115 1.377 . S
C1100 C1098 1.389 . S
C1100 C1101 1.524 . S
C1100 C1114 1.377 . S
C1101 C1100 1.524 . S
C1101 C1102 1.397 . S
C1101 C1106 1.363 . S
C1102 H1079 0.950 . S
C1102 C1101 1.397 . S
C1102 C1103 1.334 . S
C1103 H1080 0.950 . S
C1103 C1102 1.334 . S
C1103 C1104 1.287 . S
C1104 C1103 1.287 . S
C1104 C1105 1.524 . S
C1104 H1123 0.913 . S
C1105 H1081 0.950 . S
C1105 C1104 1.524 . S
C1105 C1106 1.415 . S
C1106 H1082 0.950 . S
C1106 C1101 1.363 . S
C1106 C1105 1.415 . S
C1107 H1083 0.951 . S
C1107 C1108 1.366 . S
C1107 C1109 1.388 . S
C1108 C1107 1.366 . S
C1108 C1112 1.385 . S
C1109 H1084 0.951 . S
C1109 C1107 1.388 . S
C1109 C1110 1.366 . S
C1110 C1109 1.366 . S
C1110 C1111 1.414 . S
C1110 C1113 1.499 . S
C1111 H1085 0.950 . S
C1111 C1110 1.414 . S
C1111 C1112 1.374 . S
C1112 H1086 0.950 . S
C1112 C1108 1.385 . S
C1112 C1111 1.374 . S
C1113 C1110 1.499 . S
C1113 C1114 1.373 . S
C1113 C1115 1.389 . S
C1114 H1087 0.950 . S
C1114 C1100 1.377 . S
C1114 C1113 1.373 . S
C1115 C1099 1.377 . S
C1115 C1113 1.389 . S
C1115 C1116 1.524 . S
C1116 C1115 1.524 . S
C1116 C1117 1.397 . S
C1116 C1121 1.363 . S
C1117 H1088 0.950 . S
C1117 C1116 1.397 . S
C1117 C1118 1.334 . S
C1118 H1089 0.950 . S
C1118 C1117 1.334 . S
C1118 C1119 1.287 . S
C1119 C1118 1.287 . S
C1119 C1120 1.524 . S
C1119 H1122 0.999 . S
C1120 H1090 0.950 . S
C1120 C1119 1.524 . S
C1120 C1121 1.415 . S
C1121 H1091 0.950 . S
C1121 C1116 1.363 . S
C1121 C1120 1.415 . S
H1122 C1119 0.999 . S
H1123 C1104 0.913 . S
H1124 C1142 0.951 . S
H1125 C1144 0.951 . S
H1126 C1146 0.950 . S
H1127 C1147 0.950 . S
H1128 C1149 0.950 . S
H1129 C1152 0.950 . S
H1130 C1153 0.950 . S
H1131 C1155 0.950 . S
H1132 C1156 0.950 . S
H1133 C1157 0.951 . S
H1134 C1159 0.951 . S
H1135 C1161 0.950 . S
H1136 C1162 0.950 . S
H1137 C1164 0.950 1_556 S
H1138 C1167 0.950 . S
H1139 C1168 0.950 . S
H1140 C1170 0.950 1_554 S
H1141 C1171 0.950 . S
C1142 H1124 0.951 . S
C1142 C1143 1.366 . S
C1142 C1144 1.388 . S
C1143 C1142 1.366 . S
C1143 C1147 1.385 . S
C1144 H1125 0.951 . S
C1144 C1142 1.388 . S
C1144 C1145 1.366 . S
C1145 C1144 1.366 . S
C1145 C1146 1.414 . S
C1145 C1148 1.499 . S
C1146 H1126 0.950 . S
C1146 C1145 1.414 . S
C1146 C1147 1.374 . S
C1147 H1127 0.950 . S
C1147 C1143 1.385 . S
C1147 C1146 1.374 . S
C1148 C1145 1.499 . S
C1148 C1149 1.373 . S
C1148 C1150 1.389 . S
C1149 H1128 0.950 . S
C1149 C1148 1.373 . S
C1149 C1165 1.377 . S
C1150 C1148 1.389 . S
C1150 C1151 1.524 . S
C1150 C1164 1.377 . S
C1151 C1150 1.524 . S
C1151 C1152 1.397 . S
C1151 C1156 1.363 . S
C1152 H1129 0.950 . S
C1152 C1151 1.397 . S
C1152 C1153 1.334 . S
C1153 H1130 0.950 . S
C1153 C1152 1.334 . S
C1153 C1154 1.287 . S
C1154 C1153 1.287 . S
C1154 C1155 1.524 . S
C1154 H1173 0.913 . S
C1155 H1131 0.950 . S
C1155 C1154 1.524 . S
C1155 C1156 1.415 . S
C1156 H1132 0.950 . S
C1156 C1151 1.363 . S
C1156 C1155 1.415 . S
C1157 H1133 0.951 . S
C1157 C1158 1.366 . S
C1157 C1159 1.388 . S
C1158 C1157 1.366 . S
C1158 C1162 1.385 . S
C1159 H1134 0.951 . S
C1159 C1157 1.388 . S
C1159 C1160 1.366 . S
C1160 C1159 1.366 . S
C1160 C1161 1.414 . S
C1160 C1163 1.499 . S
C1161 H1135 0.950 . S
C1161 C1160 1.414 . S
C1161 C1162 1.374 . S
C1162 H1136 0.950 . S
C1162 C1158 1.385 . S
C1162 C1161 1.374 . S
C1163 C1160 1.499 . S
C1163 C1164 1.373 1_556 S
C1163 C1165 1.389 1_556 S
C1164 H1137 0.950 1_554 S
C1164 C1150 1.377 . S
C1164 C1163 1.373 1_554 S
C1165 C1149 1.377 . S
C1165 C1163 1.389 1_554 S
C1165 C1166 1.513 1_554 S
C1166 C1165 1.513 1_556 S
C1166 C1167 1.415 . S
C1166 C1171 1.354 1_556 S
C1167 H1138 0.950 . S
C1167 C1166 1.415 . S
C1167 C1168 1.334 . S
C1168 H1139 0.950 . S
C1168 C1167 1.334 . S
C1168 C1169 1.287 . S
C1169 C1168 1.287 . S
C1169 C1170 1.524 . S
C1169 H1172 0.999 . S
C1170 H1140 0.950 1_556 S
C1170 C1169 1.524 . S
C1170 C1171 1.415 1_556 S
C1171 H1141 0.950 . S
C1171 C1166 1.354 1_554 S
C1171 C1170 1.415 1_554 S
H1172 C1169 0.999 . S
H1173 C1154 0.913 . S
H1174 C1192 0.951 . S
H1175 C1194 0.951 . S
H1176 C1196 0.950 . S
H1177 C1197 0.950 . S
H1178 C1199 0.950 . S
H1179 C1202 0.950 . S
H1180 C1203 0.950 . S
H1181 C1205 0.950 . S
H1182 C1206 0.950 . S
H1183 C1207 0.951 . S
H1184 C1209 0.951 . S
H1185 C1211 0.950 . S
H1186 C1212 0.950 . S
H1187 C1214 0.950 . S
H1188 C1217 0.950 . S
H1189 C1218 0.950 . S
H1190 C1220 0.950 . S
H1191 C1221 0.950 . S
C1192 H1174 0.951 . S
C1192 C1193 1.366 . S
C1192 C1194 1.388 . S
C1193 C1192 1.366 . S
C1193 C1197 1.385 . S
C1194 H1175 0.951 . S
C1194 C1192 1.388 . S
C1194 C1195 1.366 . S
C1195 C1194 1.366 . S
C1195 C1196 1.414 . S
C1195 C1198 1.499 . S
C1196 H1176 0.950 . S
C1196 C1195 1.414 . S
C1196 C1197 1.374 . S
C1197 H1177 0.950 . S
C1197 C1193 1.385 . S
C1197 C1196 1.374 . S
C1198 C1195 1.499 . S
C1198 C1199 1.373 . S
C1198 C1200 1.389 . S
C1199 H1178 0.950 . S
C1199 C1198 1.373 . S
C1199 C1215 1.377 . S
C1200 C1198 1.389 . S
C1200 C1201 1.524 . S
C1200 C1214 1.377 . S
C1201 C1200 1.524 . S
C1201 C1202 1.397 . S
C1201 C1206 1.363 . S
C1202 H1179 0.950 . S
C1202 C1201 1.397 . S
C1202 C1203 1.334 . S
C1203 H1180 0.950 . S
C1203 C1202 1.334 . S
C1203 C1204 1.287 . S
C1204 C1203 1.287 . S
C1204 C1205 1.524 . S
C1204 H1223 0.913 . S
C1205 H1181 0.950 . S
C1205 C1204 1.524 . S
C1205 C1206 1.415 . S
C1206 H1182 0.950 . S
C1206 C1201 1.363 . S
C1206 C1205 1.415 . S
C1207 H1183 0.951 . S
C1207 C1208 1.366 . S
C1207 C1209 1.388 . S
C1208 C1207 1.366 . S
C1208 C1212 1.385 . S
C1209 H1184 0.951 . S
C1209 C1207 1.388 . S
C1209 C1210 1.366 . S
C1210 C1209 1.366 . S
C1210 C1211 1.414 . S
C1210 C1213 1.499 . S
C1211 H1185 0.950 . S
C1211 C1210 1.414 . S
C1211 C1212 1.374 . S
C1212 H1186 0.950 . S
C1212 C1208 1.385 . S
C1212 C1211 1.374 . S
C1213 C1210 1.499 . S
C1213 C1214 1.373 . S
C1213 C1215 1.389 . S
C1214 H1187 0.950 . S
C1214 C1200 1.377 . S
C1214 C1213 1.373 . S
C1215 C1199 1.377 . S
C1215 C1213 1.389 . S
C1215 C1216 1.524 . S
C1216 C1215 1.524 . S
C1216 C1217 1.397 . S
C1216 C1221 1.363 . S
C1217 H1188 0.950 . S
C1217 C1216 1.397 . S
C1217 C1218 1.334 . S
C1218 H1189 0.950 . S
C1218 C1217 1.334 . S
C1218 C1219 1.287 . S
C1219 C1218 1.287 . S
C1219 C1220 1.524 . S
C1219 H1222 0.999 . S
C1220 H1190 0.950 . S
C1220 C1219 1.524 . S
C1220 C1221 1.415 . S
C1221 H1191 0.950 . S
C1221 C1216 1.363 . S
C1221 C1220 1.415 . S
H1222 C1219 0.999 . S
H1223 C1204 0.913 . S
H1224 C1242 0.951 . S
H1225 C1244 0.951 . S
H1226 C1246 0.950 . S
H1227 C1247 0.950 . S
H1228 C1249 0.950 . S
H1229 C1252 0.950 . S
H1230 C1253 0.950 . S
H1231 C1255 0.950 . S
H1232 C1256 0.950 . S
H1233 C1257 0.951 . S
H1234 C1259 0.951 . S
H1235 C1261 0.950 . S
H1236 C1262 0.950 . S
H1237 C1264 0.950 . S
H1238 C1267 0.950 . S
H1239 C1268 0.950 . S
H1240 C1270 0.950 . S
H1241 C1271 0.950 . S
C1242 H1224 0.951 . S
C1242 C1243 1.366 . S
C1242 C1244 1.388 . S
C1243 C1242 1.366 . S
C1243 C1247 1.385 . S
C1244 H1225 0.951 . S
C1244 C1242 1.388 . S
C1244 C1245 1.366 . S
C1245 C1244 1.366 . S
C1245 C1246 1.414 . S
C1245 C1248 1.499 . S
C1246 H1226 0.950 . S
C1246 C1245 1.414 . S
C1246 C1247 1.374 . S
C1247 H1227 0.950 . S
C1247 C1243 1.385 . S
C1247 C1246 1.374 . S
C1248 C1245 1.499 . S
C1248 C1249 1.373 . S
C1248 C1250 1.389 . S
C1249 H1228 0.950 . S
C1249 C1248 1.373 . S
C1249 C1265 1.377 . S
C1250 C1248 1.389 . S
C1250 C1251 1.524 . S
C1250 C1264 1.377 . S
C1251 C1250 1.524 . S
C1251 C1252 1.397 . S
C1251 C1256 1.363 . S
C1252 H1229 0.950 . S
C1252 C1251 1.397 . S
C1252 C1253 1.334 . S
C1253 H1230 0.950 . S
C1253 C1252 1.334 . S
C1253 C1254 1.287 . S
C1254 C1253 1.287 . S
C1254 C1255 1.524 . S
C1254 H1273 0.913 . S
C1255 H1231 0.950 . S
C1255 C1254 1.524 . S
C1255 C1256 1.415 . S
C1256 H1232 0.950 . S
C1256 C1251 1.363 . S
C1256 C1255 1.415 . S
C1257 H1233 0.951 . S
C1257 C1258 1.366 . S
C1257 C1259 1.388 . S
C1258 C1257 1.366 . S
C1258 C1262 1.385 . S
C1259 H1234 0.951 . S
C1259 C1257 1.388 . S
C1259 C1260 1.366 . S
C1260 C1259 1.366 . S
C1260 C1261 1.414 . S
C1260 C1263 1.499 . S
C1261 H1235 0.950 . S
C1261 C1260 1.414 . S
C1261 C1262 1.374 . S
C1262 H1236 0.950 . S
C1262 C1258 1.385 . S
C1262 C1261 1.374 . S
C1263 C1260 1.499 . S
C1263 C1264 1.373 . S
C1263 C1265 1.389 . S
C1264 H1237 0.950 . S
C1264 C1250 1.377 . S
C1264 C1263 1.373 . S
C1265 C1249 1.377 . S
C1265 C1263 1.389 . S
C1265 C1266 1.524 . S
C1266 C1265 1.524 . S
C1266 C1267 1.397 . S
C1266 C1271 1.363 . S
C1267 H1238 0.950 . S
C1267 C1266 1.397 . S
C1267 C1268 1.334 . S
C1268 H1239 0.950 . S
C1268 C1267 1.334 . S
C1268 C1269 1.287 . S
C1269 C1268 1.287 . S
C1269 C1270 1.524 . S
C1269 H1272 0.999 . S
C1270 H1240 0.950 . S
C1270 C1269 1.524 . S
C1270 C1271 1.415 . S
C1271 H1241 0.950 . S
C1271 C1266 1.363 . S
C1271 C1270 1.415 . S
H1272 C1269 0.999 . S
H1273 C1254 0.913 . S
H1274 C1292 0.951 . S
H1275 C1294 0.951 . S
H1276 C1296 0.950 . S
H1277 C1297 0.950 . S
H1278 C1299 0.950 . S
H1279 C1302 0.950 . S
H1280 C1303 0.950 . S
H1281 C1305 0.950 . S
H1282 C1306 0.950 . S
H1283 C1307 0.951 . S
H1284 C1309 0.951 . S
H1285 C1311 0.950 . S
H1286 C1312 0.950 . S
H1287 C1314 0.950 1_556 S
H1288 C1317 0.950 . S
H1289 C1318 0.950 . S
H1290 C1320 0.946 1_554 S
H1291 C1321 0.950 . S
C1292 H1274 0.951 . S
C1292 C1293 1.366 . S
C1292 C1294 1.388 . S
C1293 C1292 1.366 . S
C1293 C1297 1.385 . S
C1294 H1275 0.951 . S
C1294 C1292 1.388 . S
C1294 C1295 1.366 . S
C1295 C1294 1.366 . S
C1295 C1296 1.414 . S
C1295 C1298 1.499 . S
C1296 H1276 0.950 . S
C1296 C1295 1.414 . S
C1296 C1297 1.374 . S
C1297 H1277 0.950 . S
C1297 C1293 1.385 . S
C1297 C1296 1.374 . S
C1298 C1295 1.499 . S
C1298 C1299 1.373 . S
C1298 C1300 1.389 . S
C1299 H1278 0.950 . S
C1299 C1298 1.373 . S
C1299 C1315 1.377 . S
C1300 C1298 1.389 . S
C1300 C1301 1.524 . S
C1300 C1314 1.377 . S
C1301 C1300 1.524 . S
C1301 C1302 1.397 . S
C1301 C1306 1.363 . S
C1302 H1279 0.950 . S
C1302 C1301 1.397 . S
C1302 C1303 1.334 . S
C1303 H1280 0.950 . S
C1303 C1302 1.334 . S
C1303 C1304 1.287 . S
C1304 C1303 1.287 . S
C1304 C1305 1.524 . S
C1304 H1323 0.913 . S
C1305 H1281 0.950 . S
C1305 C1304 1.524 . S
C1305 C1306 1.415 . S
C1306 H1282 0.950 . S
C1306 C1301 1.363 . S
C1306 C1305 1.415 . S
C1307 H1283 0.951 . S
C1307 C1308 1.366 . S
C1307 C1309 1.388 . S
C1308 C1307 1.366 . S
C1308 C1312 1.385 . S
C1309 H1284 0.951 . S
C1309 C1307 1.388 . S
C1309 C1310 1.366 . S
C1310 C1309 1.366 . S
C1310 C1311 1.414 . S
C1310 C1313 1.499 . S
C1311 H1285 0.950 . S
C1311 C1310 1.414 . S
C1311 C1312 1.374 . S
C1312 H1286 0.950 . S
C1312 C1308 1.385 . S
C1312 C1311 1.374 . S
C1313 C1310 1.499 . S
C1313 C1314 1.373 1_556 S
C1313 C1315 1.389 1_556 S
C1314 H1287 0.950 1_554 S
C1314 C1300 1.377 . S
C1314 C1313 1.373 1_554 S
C1315 C1299 1.377 . S
C1315 C1313 1.389 1_554 S
C1315 C1316 1.524 . S
C1316 C1315 1.524 . S
C1316 C1317 1.397 1_554 S
C1316 C1321 1.363 . S
C1317 H1288 0.950 . S
C1317 C1316 1.397 1_556 S
C1317 C1318 1.334 . S
C1318 H1289 0.950 . S
C1318 C1317 1.334 . S
C1318 C1319 1.287 . S
C1319 C1318 1.287 . S
C1319 C1320 1.535 . S
C1319 H1322 0.999 . S
C1320 H1290 0.946 1_556 S
C1320 C1319 1.535 . S
C1320 C1321 1.408 1_556 S
C1321 H1291 0.950 . S
C1321 C1316 1.363 . S
C1321 C1320 1.408 1_554 S
H1322 C1319 0.999 . S
H1323 C1304 0.913 . S
H1324 C1342 0.951 . S
H1325 C1344 0.951 . S
H1326 C1346 0.950 . S
H1327 C1347 0.950 . S
H1328 C1349 0.950 . S
H1329 C1352 0.950 . S
H1330 C1353 0.950 . S
H1331 C1355 0.950 . S
H1332 C1356 0.950 . S
H1333 C1357 0.951 . S
H1334 C1359 0.951 . S
H1335 C1361 0.950 . S
H1336 C1362 0.950 . S
H1337 C1364 0.950 . S
H1338 C1367 0.950 . S
H1339 C1368 0.950 . S
H1340 C1370 0.950 . S
H1341 C1371 0.950 . S
C1342 H1324 0.951 . S
C1342 C1343 1.366 . S
C1342 C1344 1.388 . S
C1343 C1342 1.366 . S
C1343 C1347 1.385 . S
C1344 H1325 0.951 . S
C1344 C1342 1.388 . S
C1344 C1345 1.366 . S
C1345 C1344 1.366 . S
C1345 C1346 1.414 . S
C1345 C1348 1.499 . S
C1346 H1326 0.950 . S
C1346 C1345 1.414 . S
C1346 C1347 1.374 . S
C1347 H1327 0.950 . S
C1347 C1343 1.385 . S
C1347 C1346 1.374 . S
C1348 C1345 1.499 . S
C1348 C1349 1.373 . S
C1348 C1350 1.389 . S
C1349 H1328 0.950 . S
C1349 C1348 1.373 . S
C1349 C1365 1.377 . S
C1350 C1348 1.389 . S
C1350 C1351 1.524 . S
C1350 C1364 1.377 . S
C1351 C1350 1.524 . S
C1351 C1352 1.397 . S
C1351 C1356 1.363 . S
C1352 H1329 0.950 . S
C1352 C1351 1.397 . S
C1352 C1353 1.334 . S
C1353 H1330 0.950 . S
C1353 C1352 1.334 . S
C1353 C1354 1.287 . S
C1354 C1353 1.287 . S
C1354 C1355 1.524 . S
C1354 H1373 0.913 . S
C1355 H1331 0.950 . S
C1355 C1354 1.524 . S
C1355 C1356 1.415 . S
C1356 H1332 0.950 . S
C1356 C1351 1.363 . S
C1356 C1355 1.415 . S
C1357 H1333 0.951 . S
C1357 C1358 1.366 . S
C1357 C1359 1.388 . S
C1358 C1357 1.366 . S
C1358 C1362 1.385 . S
C1359 H1334 0.951 . S
C1359 C1357 1.388 . S
C1359 C1360 1.366 . S
C1360 C1359 1.366 . S
C1360 C1361 1.414 . S
C1360 C1363 1.499 . S
C1361 H1335 0.950 . S
C1361 C1360 1.414 . S
C1361 C1362 1.374 . S
C1362 H1336 0.950 . S
C1362 C1358 1.385 . S
C1362 C1361 1.374 . S
C1363 C1360 1.499 . S
C1363 C1364 1.373 . S
C1363 C1365 1.389 . S
C1364 H1337 0.950 . S
C1364 C1350 1.377 . S
C1364 C1363 1.373 . S
C1365 C1349 1.377 . S
C1365 C1363 1.389 . S
C1365 C1366 1.524 . S
C1366 C1365 1.524 . S
C1366 C1367 1.397 . S
C1366 C1371 1.363 . S
C1367 H1338 0.950 . S
C1367 C1366 1.397 . S
C1367 C1368 1.334 . S
C1368 H1339 0.950 . S
C1368 C1367 1.334 . S
C1368 C1369 1.287 . S
C1369 C1368 1.287 . S
C1369 C1370 1.524 . S
C1369 H1372 0.999 . S
C1370 H1340 0.950 . S
C1370 C1369 1.524 . S
C1370 C1371 1.415 . S
C1371 H1341 0.950 . S
C1371 C1366 1.363 . S
C1371 C1370 1.415 . S
H1372 C1369 0.999 . S
H1373 C1354 0.913 . S
H1374 C1392 0.951 . S
H1375 C1394 0.951 . S
H1376 C1396 0.950 . S
H1377 C1397 0.950 . S
H1378 C1399 0.950 . S
H1379 C1402 0.950 . S
H1380 C1403 0.950 . S
H1381 C1405 0.950 . S
H1382 C1406 0.950 . S
H1383 C1407 0.951 . S
H1384 C1409 0.951 . S
H1385 C1411 0.950 . S
H1386 C1412 0.950 . S
H1387 C1414 0.950 . S
H1388 C1417 0.950 . S
H1389 C1418 0.950 . S
H1390 C1420 0.950 . S
H1391 C1421 0.950 . S
C1392 H1374 0.951 . S
C1392 C1393 1.366 . S
C1392 C1394 1.388 . S
C1393 C1392 1.366 . S
C1393 C1397 1.385 . S
C1394 H1375 0.951 . S
C1394 C1392 1.388 . S
C1394 C1395 1.366 . S
C1395 C1394 1.366 . S
C1395 C1396 1.414 . S
C1395 C1398 1.499 . S
C1396 H1376 0.950 . S
C1396 C1395 1.414 . S
C1396 C1397 1.374 . S
C1397 H1377 0.950 . S
C1397 C1393 1.385 . S
C1397 C1396 1.374 . S
C1398 C1395 1.499 . S
C1398 C1399 1.373 . S
C1398 C1400 1.389 . S
C1399 H1378 0.950 . S
C1399 C1398 1.373 . S
C1399 C1415 1.377 . S
C1400 C1398 1.389 . S
C1400 C1401 1.524 . S
C1400 C1414 1.377 . S
C1401 C1400 1.524 . S
C1401 C1402 1.397 . S
C1401 C1406 1.363 . S
C1402 H1379 0.950 . S
C1402 C1401 1.397 . S
C1402 C1403 1.334 . S
C1403 H1380 0.950 . S
C1403 C1402 1.334 . S
C1403 C1404 1.287 . S
C1404 C1403 1.287 . S
C1404 C1405 1.524 . S
C1404 H1423 0.913 . S
C1405 H1381 0.950 . S
C1405 C1404 1.524 . S
C1405 C1406 1.415 . S
C1406 H1382 0.950 . S
C1406 C1401 1.363 . S
C1406 C1405 1.415 . S
C1407 H1383 0.951 . S
C1407 C1408 1.366 . S
C1407 C1409 1.388 . S
C1408 C1407 1.366 . S
C1408 C1412 1.385 . S
C1409 H1384 0.951 . S
C1409 C1407 1.388 . S
C1409 C1410 1.366 . S
C1410 C1409 1.366 . S
C1410 C1411 1.414 . S
C1410 C1413 1.499 . S
C1411 H1385 0.950 . S
C1411 C1410 1.414 . S
C1411 C1412 1.374 . S
C1412 H1386 0.950 . S
C1412 C1408 1.385 . S
C1412 C1411 1.374 . S
C1413 C1410 1.499 . S
C1413 C1414 1.373 . S
C1413 C1415 1.389 . S
C1414 H1387 0.950 . S
C1414 C1400 1.377 . S
C1414 C1413 1.373 . S
C1415 C1399 1.377 . S
C1415 C1413 1.389 . S
C1415 C1416 1.524 . S
C1416 C1415 1.524 . S
C1416 C1417 1.397 . S
C1416 C1421 1.363 . S
C1417 H1388 0.950 . S
C1417 C1416 1.397 . S
C1417 C1418 1.334 . S
C1418 H1389 0.950 . S
C1418 C1417 1.334 . S
C1418 C1419 1.287 . S
C1419 C1418 1.287 . S
C1419 C1420 1.524 . S
C1419 H1422 0.999 . S
C1420 H1390 0.950 . S
C1420 C1419 1.524 . S
C1420 C1421 1.415 . S
C1421 H1391 0.950 . S
C1421 C1416 1.363 . S
C1421 C1420 1.415 . S
H1422 C1419 0.999 . S
H1423 C1404 0.913 . S
H1424 C1442 0.951 . S
H1425 C1444 0.951 . S
H1426 C1446 0.950 . S
H1427 C1447 0.950 . S
H1428 C1449 0.965 . S
H1429 C1452 0.950 . S
H1430 C1453 0.950 . S
H1431 C1455 0.950 . S
H1432 C1456 0.950 . S
H1433 C1457 0.951 . S
H1434 C1459 0.951 . S
H1435 C1461 0.950 . S
H1436 C1462 0.950 . S
H1437 C1464 0.950 . S
H1438 C1467 0.950 . S
H1439 C1468 0.950 . S
H1440 C1470 0.950 . S
H1441 C1471 0.950 . S
C1442 H1424 0.951 . S
C1442 C1443 1.366 . S
C1442 C1444 1.388 . S
C1443 C1442 1.366 . S
C1443 C1447 1.385 . S
C1444 H1425 0.951 . S
C1444 C1442 1.388 . S
C1444 C1445 1.366 . S
C1445 C1444 1.366 . S
C1445 C1446 1.414 . S
C1445 C1448 1.499 . S
C1446 H1426 0.950 . S
C1446 C1445 1.414 . S
C1446 C1447 1.374 . S
C1447 H1427 0.950 . S
C1447 C1443 1.385 . S
C1447 C1446 1.374 . S
C1448 C1445 1.499 . S
C1448 C1449 1.373 1_556 S
C1448 C1450 1.389 1_556 S
C1449 H1428 0.965 . S
C1449 C1448 1.373 1_554 S
C1449 C1465 1.377 . S
C1450 C1448 1.389 1_554 S
C1450 C1451 1.524 1_554 S
C1450 C1464 1.377 . S
C1451 C1450 1.524 1_556 S
C1451 C1452 1.397 . S
C1451 C1456 1.363 1_556 S
C1452 H1429 0.950 . S
C1452 C1451 1.397 . S
C1452 C1453 1.334 . S
C1453 H1430 0.950 . S
C1453 C1452 1.334 . S
C1453 C1454 1.287 . S
C1454 C1453 1.287 . S
C1454 C1455 1.524 . S
C1454 H1473 0.913 . S
C1455 H1431 0.950 . S
C1455 C1454 1.524 . S
C1455 C1456 1.415 1_556 S
C1456 H1432 0.950 . S
C1456 C1451 1.363 1_554 S
C1456 C1455 1.415 1_554 S
C1457 H1433 0.951 . S
C1457 C1458 1.366 . S
C1457 C1459 1.388 . S
C1458 C1457 1.366 . S
C1458 C1462 1.385 . S
C1459 H1434 0.951 . S
C1459 C1457 1.388 . S
C1459 C1460 1.366 . S
C1460 C1459 1.366 . S
C1460 C1461 1.414 . S
C1460 C1463 1.499 . S
C1461 H1435 0.950 . S
C1461 C1460 1.414 . S
C1461 C1462 1.374 . S
C1462 H1436 0.950 . S
C1462 C1458 1.385 . S
C1462 C1461 1.374 . S
C1463 C1460 1.499 . S
C1463 C1464 1.373 . S
C1463 C1465 1.389 . S
C1464 H1437 0.950 . S
C1464 C1450 1.377 . S
C1464 C1463 1.373 . S
C1465 C1449 1.377 . S
C1465 C1463 1.389 . S
C1465 C1466 1.524 . S
C1466 C1465 1.524 . S
C1466 C1467 1.397 . S
C1466 C1471 1.363 . S
C1467 H1438 0.950 . S
C1467 C1466 1.397 . S
C1467 C1468 1.334 . S
C1468 H1439 0.950 . S
C1468 C1467 1.334 . S
C1468 C1469 1.287 . S
C1469 C1468 1.287 . S
C1469 C1470 1.524 . S
C1469 H1472 0.999 . S
C1470 H1440 0.950 . S
C1470 C1469 1.524 . S
C1470 C1471 1.415 . S
C1471 H1441 0.950 . S
C1471 C1466 1.363 . S
C1471 C1470 1.415 . S
H1472 C1469 0.999 . S
H1473 C1454 0.913 . S
H1474 C1492 0.951 . S
H1475 C1494 0.951 . S
H1476 C1496 0.950 . S
H1477 C1497 0.950 . S
H1478 C1499 0.950 . S
H1479 C1502 0.950 . S
H1480 C1503 0.950 . S
H1481 C1505 0.950 . S
H1482 C1506 0.950 . S
H1483 C1507 0.951 . S
H1484 C1509 0.951 . S
H1485 C1511 0.950 . S
H1486 C1512 0.950 . S
H1487 C1514 0.950 . S
H1488 C1517 0.950 . S
H1489 C1518 0.950 . S
H1490 C1520 0.950 . S
H1491 C1521 0.950 . S
C1492 H1474 0.951 . S
C1492 C1493 1.366 . S
C1492 C1494 1.388 . S
C1493 C1492 1.366 . S
C1493 C1497 1.385 . S
C1494 H1475 0.951 . S
C1494 C1492 1.388 . S
C1494 C1495 1.366 . S
C1495 C1494 1.366 . S
C1495 C1496 1.414 . S
C1495 C1498 1.499 . S
C1496 H1476 0.950 . S
C1496 C1495 1.414 . S
C1496 C1497 1.374 . S
C1497 H1477 0.950 . S
C1497 C1493 1.385 . S
C1497 C1496 1.374 . S
C1498 C1495 1.499 . S
C1498 C1499 1.373 . S
C1498 C1500 1.389 . S
C1499 H1478 0.950 . S
C1499 C1498 1.373 . S
C1499 C1515 1.377 . S
C1500 C1498 1.389 . S
C1500 C1501 1.524 . S
C1500 C1514 1.377 . S
C1501 C1500 1.524 . S
C1501 C1502 1.397 . S
C1501 C1506 1.363 . S
C1502 H1479 0.950 . S
C1502 C1501 1.397 . S
C1502 C1503 1.334 . S
C1503 H1480 0.950 . S
C1503 C1502 1.334 . S
C1503 C1504 1.287 . S
C1504 C1503 1.287 . S
C1504 C1505 1.524 . S
C1504 H1523 0.913 . S
C1505 H1481 0.950 . S
C1505 C1504 1.524 . S
C1505 C1506 1.415 . S
C1506 H1482 0.950 . S
C1506 C1501 1.363 . S
C1506 C1505 1.415 . S
C1507 H1483 0.951 . S
C1507 C1508 1.366 . S
C1507 C1509 1.388 . S
C1508 C1507 1.366 . S
C1508 C1512 1.385 . S
C1509 H1484 0.951 . S
C1509 C1507 1.388 . S
C1509 C1510 1.366 . S
C1510 C1509 1.366 . S
C1510 C1511 1.414 . S
C1510 C1513 1.499 . S
C1511 H1485 0.950 . S
C1511 C1510 1.414 . S
C1511 C1512 1.374 . S
C1512 H1486 0.950 . S
C1512 C1508 1.385 . S
C1512 C1511 1.374 . S
C1513 C1510 1.499 . S
C1513 C1514 1.373 . S
C1513 C1515 1.389 . S
C1514 H1487 0.950 . S
C1514 C1500 1.377 . S
C1514 C1513 1.373 . S
C1515 C1499 1.377 . S
C1515 C1513 1.389 . S
C1515 C1516 1.524 . S
C1516 C1515 1.524 . S
C1516 C1517 1.397 . S
C1516 C1521 1.363 . S
C1517 H1488 0.950 . S
C1517 C1516 1.397 . S
C1517 C1518 1.334 . S
C1518 H1489 0.950 . S
C1518 C1517 1.334 . S
C1518 C1519 1.287 . S
C1519 C1518 1.287 . S
C1519 C1520 1.524 . S
C1519 H1522 0.999 . S
C1520 H1490 0.950 . S
C1520 C1519 1.524 . S
C1520 C1521 1.415 . S
C1521 H1491 0.950 . S
C1521 C1516 1.363 . S
C1521 C1520 1.415 . S
H1522 C1519 0.999 . S
H1523 C1504 0.913 . S
H1524 C1542 0.951 . S
H1525 C1544 0.951 . S
H1526 C1546 0.950 . S
H1527 C1547 0.950 . S
H1528 C1549 0.950 . S
H1529 C1552 0.950 . S
H1530 C1553 0.950 . S
H1531 C1555 0.950 . S
H1532 C1556 0.950 . S
H1533 C1557 0.951 . S
H1534 C1559 0.951 . S
H1535 C1561 0.950 . S
H1536 C1562 0.950 . S
H1537 C1564 0.950 . S
H1538 C1567 0.950 . S
H1539 C1568 0.950 . S
H1540 C1570 0.950 . S
H1541 C1571 0.950 . S
C1542 H1524 0.951 . S
C1542 C1543 1.366 . S
C1542 C1544 1.388 . S
C1543 C1542 1.366 . S
C1543 C1547 1.385 . S
C1544 H1525 0.951 . S
C1544 C1542 1.388 . S
C1544 C1545 1.366 . S
C1545 C1544 1.366 . S
C1545 C1546 1.414 . S
C1545 C1548 1.499 . S
C1546 H1526 0.950 . S
C1546 C1545 1.414 . S
C1546 C1547 1.374 . S
C1547 H1527 0.950 . S
C1547 C1543 1.385 . S
C1547 C1546 1.374 . S
C1548 C1545 1.499 . S
C1548 C1549 1.373 . S
C1548 C1550 1.389 . S
C1549 H1528 0.950 . S
C1549 C1548 1.373 . S
C1549 C1565 1.377 . S
C1550 C1548 1.389 . S
C1550 C1551 1.524 . S
C1550 C1564 1.377 . S
C1551 C1550 1.524 . S
C1551 C1552 1.397 . S
C1551 C1556 1.363 . S
C1552 H1529 0.950 . S
C1552 C1551 1.397 . S
C1552 C1553 1.334 . S
C1553 H1530 0.950 . S
C1553 C1552 1.334 . S
C1553 C1554 1.287 . S
C1554 C1553 1.287 . S
C1554 C1555 1.524 . S
C1554 H1573 0.913 . S
C1555 H1531 0.950 . S
C1555 C1554 1.524 . S
C1555 C1556 1.415 . S
C1556 H1532 0.950 . S
C1556 C1551 1.363 . S
C1556 C1555 1.415 . S
C1557 H1533 0.951 . S
C1557 C1558 1.366 . S
C1557 C1559 1.388 . S
C1558 C1557 1.366 . S
C1558 C1562 1.385 . S
C1559 H1534 0.951 . S
C1559 C1557 1.388 . S
C1559 C1560 1.366 . S
C1560 C1559 1.366 . S
C1560 C1561 1.414 . S
C1560 C1563 1.499 . S
C1561 H1535 0.950 . S
C1561 C1560 1.414 . S
C1561 C1562 1.374 . S
C1562 H1536 0.950 . S
C1562 C1558 1.385 . S
C1562 C1561 1.374 . S
C1563 C1560 1.499 . S
C1563 C1564 1.373 . S
C1563 C1565 1.389 . S
C1564 H1537 0.950 . S
C1564 C1550 1.377 . S
C1564 C1563 1.373 . S
C1565 C1549 1.377 . S
C1565 C1563 1.389 . S
C1565 C1566 1.524 . S
C1566 C1565 1.524 . S
C1566 C1567 1.397 . S
C1566 C1571 1.363 . S
C1567 H1538 0.950 . S
C1567 C1566 1.397 . S
C1567 C1568 1.334 . S
C1568 H1539 0.950 . S
C1568 C1567 1.334 . S
C1568 C1569 1.287 . S
C1569 C1568 1.287 . S
C1569 C1570 1.524 . S
C1569 H1572 0.999 . S
C1570 H1540 0.950 . S
C1570 C1569 1.524 . S
C1570 C1571 1.415 . S
C1571 H1541 0.950 . S
C1571 C1566 1.363 . S
C1571 C1570 1.415 . S
H1572 C1569 0.999 . S
H1573 C1554 0.913 . S
H1574 C1592 0.951 . S
H1575 C1594 0.951 . S
H1576 C1596 0.950 . S
H1577 C1597 0.950 . S
H1578 C1599 0.950 . S
H1579 C1602 0.950 . S
H1580 C1603 0.950 . S
H1581 C1605 0.950 . S
H1582 C1606 0.950 . S
H1583 C1607 0.951 . S
H1584 C1609 0.951 . S
H1585 C1611 0.950 . S
H1586 C1612 0.950 . S
H1587 C1614 0.950 . S
H1588 C1617 0.950 . S
H1589 C1618 0.950 . S
H1590 C1620 0.950 . S
H1591 C1621 0.950 . S
C1592 H1574 0.951 . S
C1592 C1593 1.366 . S
C1592 C1594 1.388 . S
C1593 C1592 1.366 . S
C1593 C1597 1.385 . S
C1594 H1575 0.951 . S
C1594 C1592 1.388 . S
C1594 C1595 1.366 . S
C1595 C1594 1.366 . S
C1595 C1596 1.414 . S
C1595 C1598 1.499 . S
C1596 H1576 0.950 . S
C1596 C1595 1.414 . S
C1596 C1597 1.374 . S
C1597 H1577 0.950 . S
C1597 C1593 1.385 . S
C1597 C1596 1.374 . S
C1598 C1595 1.499 . S
C1598 C1599 1.373 . S
C1598 C1600 1.389 . S
C1599 H1578 0.950 . S
C1599 C1598 1.373 . S
C1599 C1615 1.377 . S
C1600 C1598 1.389 . S
C1600 C1601 1.524 . S
C1600 C1614 1.377 . S
C1601 C1600 1.524 . S
C1601 C1602 1.397 . S
C1601 C1606 1.363 . S
C1602 H1579 0.950 . S
C1602 C1601 1.397 . S
C1602 C1603 1.334 . S
C1603 H1580 0.950 . S
C1603 C1602 1.334 . S
C1603 C1604 1.287 . S
C1604 C1603 1.287 . S
C1604 C1605 1.524 . S
C1604 H1623 0.913 . S
C1605 H1581 0.950 . S
C1605 C1604 1.524 . S
C1605 C1606 1.415 . S
C1606 H1582 0.950 . S
C1606 C1601 1.363 . S
C1606 C1605 1.415 . S
C1607 H1583 0.951 . S
C1607 C1608 1.366 . S
C1607 C1609 1.388 . S
C1608 C1607 1.366 . S
C1608 C1612 1.385 . S
C1609 H1584 0.951 . S
C1609 C1607 1.388 . S
C1609 C1610 1.366 . S
C1610 C1609 1.366 . S
C1610 C1611 1.414 . S
C1610 C1613 1.499 . S
C1611 H1585 0.950 . S
C1611 C1610 1.414 . S
C1611 C1612 1.374 . S
C1612 H1586 0.950 . S
C1612 C1608 1.385 . S
C1612 C1611 1.374 . S
C1613 C1610 1.499 . S
C1613 C1614 1.373 . S
C1613 C1615 1.389 . S
C1614 H1587 0.950 . S
C1614 C1600 1.377 . S
C1614 C1613 1.373 . S
C1615 C1599 1.377 . S
C1615 C1613 1.389 . S
C1615 C1616 1.524 . S
C1616 C1615 1.524 . S
C1616 C1617 1.397 . S
C1616 C1621 1.363 . S
C1617 H1588 0.950 . S
C1617 C1616 1.397 . S
C1617 C1618 1.334 . S
C1618 H1589 0.950 . S
C1618 C1617 1.334 . S
C1618 C1619 1.287 . S
C1619 C1618 1.287 . S
C1619 C1620 1.524 . S
C1619 H1622 0.999 . S
C1620 H1590 0.950 . S
C1620 C1619 1.524 . S
C1620 C1621 1.415 . S
C1621 H1591 0.950 . S
C1621 C1616 1.363 . S
C1621 C1620 1.415 . S
H1622 C1619 0.999 . S
H1623 C1604 0.913 . S
H1624 C1642 0.951 . S
H1625 C1644 0.951 . S
H1626 C1646 0.950 . S
H1627 C1647 0.950 . S
H1628 C1649 0.950 . S
H1629 C1652 0.950 . S
H1630 C1653 0.950 . S
H1631 C1655 0.950 . S
H1632 C1656 0.950 . S
H1633 C1657 0.951 . S
H1634 C1659 0.951 . S
H1635 C1661 0.950 . S
H1636 C1662 0.950 . S
H1637 C1664 0.950 . S
H1638 C1667 0.950 . S
H1639 C1668 0.950 . S
H1640 C1670 0.950 . S
H1641 C1671 0.950 . S
C1642 H1624 0.951 . S
C1642 C1643 1.366 . S
C1642 C1644 1.388 . S
C1643 C1642 1.366 . S
C1643 C1647 1.385 . S
C1644 H1625 0.951 . S
C1644 C1642 1.388 . S
C1644 C1645 1.366 . S
C1645 C1644 1.366 . S
C1645 C1646 1.414 . S
C1645 C1648 1.499 . S
C1646 H1626 0.950 . S
C1646 C1645 1.414 . S
C1646 C1647 1.374 . S
C1647 H1627 0.950 . S
C1647 C1643 1.385 . S
C1647 C1646 1.374 . S
C1648 C1645 1.499 . S
C1648 C1649 1.373 . S
C1648 C1650 1.389 . S
C1649 H1628 0.950 . S
C1649 C1648 1.373 . S
C1649 C1665 1.377 . S
C1650 C1648 1.389 . S
C1650 C1651 1.524 . S
C1650 C1664 1.377 . S
C1651 C1650 1.524 . S
C1651 C1652 1.397 . S
C1651 C1656 1.363 . S
C1652 H1629 0.950 . S
C1652 C1651 1.397 . S
C1652 C1653 1.334 . S
C1653 H1630 0.950 . S
C1653 C1652 1.334 . S
C1653 C1654 1.287 . S
C1654 C1653 1.287 . S
C1654 C1655 1.524 . S
C1654 H1673 0.913 . S
C1655 H1631 0.950 . S
C1655 C1654 1.524 . S
C1655 C1656 1.415 . S
C1656 H1632 0.950 . S
C1656 C1651 1.363 . S
C1656 C1655 1.415 . S
C1657 H1633 0.951 . S
C1657 C1658 1.366 . S
C1657 C1659 1.388 . S
C1658 C1657 1.366 . S
C1658 C1662 1.385 . S
C1659 H1634 0.951 . S
C1659 C1657 1.388 . S
C1659 C1660 1.366 . S
C1660 C1659 1.366 . S
C1660 C1661 1.414 . S
C1660 C1663 1.499 . S
C1661 H1635 0.950 . S
C1661 C1660 1.414 . S
C1661 C1662 1.374 . S
C1662 H1636 0.950 . S
C1662 C1658 1.385 . S
C1662 C1661 1.374 . S
C1663 C1660 1.499 . S
C1663 C1664 1.373 . S
C1663 C1665 1.389 . S
C1664 H1637 0.950 . S
C1664 C1650 1.377 . S
C1664 C1663 1.373 . S
C1665 C1649 1.377 . S
C1665 C1663 1.389 . S
C1665 C1666 1.524 . S
C1666 C1665 1.524 . S
C1666 C1667 1.397 . S
C1666 C1671 1.363 . S
C1667 H1638 0.950 . S
C1667 C1666 1.397 . S
C1667 C1668 1.334 . S
C1668 H1639 0.950 . S
C1668 C1667 1.334 . S
C1668 C1669 1.287 . S
C1669 C1668 1.287 . S
C1669 C1670 1.524 . S
C1669 H1672 0.999 . S
C1670 H1640 0.950 . S
C1670 C1669 1.524 . S
C1670 C1671 1.415 . S
C1671 H1641 0.950 . S
C1671 C1666 1.363 . S
C1671 C1670 1.415 . S
H1672 C1669 0.999 . S
H1673 C1654 0.913 . S
H1674 C1692 0.951 . S
H1675 C1694 0.951 . S
H1676 C1696 0.950 . S
H1677 C1697 0.950 . S
H1678 C1699 0.950 . S
H1679 C1702 0.950 . S
H1680 C1703 0.950 . S
H1681 C1705 0.950 . S
H1682 C1706 0.950 . S
H1683 C1707 0.951 . S
H1684 C1709 0.951 . S
H1685 C1711 0.950 . S
H1686 C1712 0.950 . S
H1687 C1714 0.950 . S
H1688 C1717 0.950 . S
H1689 C1718 0.950 . S
H1690 C1720 0.950 . S
H1691 C1721 0.950 . S
C1692 H1674 0.951 . S
C1692 C1693 1.366 . S
C1692 C1694 1.388 . S
C1693 C1692 1.366 . S
C1693 C1697 1.385 . S
C1694 H1675 0.951 . S
C1694 C1692 1.388 . S
C1694 C1695 1.366 . S
C1695 C1694 1.366 . S
C1695 C1696 1.414 . S
C1695 C1698 1.499 . S
C1696 H1676 0.950 . S
C1696 C1695 1.414 . S
C1696 C1697 1.374 . S
C1697 H1677 0.950 . S
C1697 C1693 1.385 . S
C1697 C1696 1.374 . S
C1698 C1695 1.499 . S
C1698 C1699 1.373 . S
C1698 C1700 1.389 . S
C1699 H1678 0.950 . S
C1699 C1698 1.373 . S
C1699 C1715 1.377 . S
C1700 C1698 1.389 . S
C1700 C1701 1.524 . S
C1700 C1714 1.377 . S
C1701 C1700 1.524 . S
C1701 C1702 1.397 . S
C1701 C1706 1.363 . S
C1702 H1679 0.950 . S
C1702 C1701 1.397 . S
C1702 C1703 1.334 . S
C1703 H1680 0.950 . S
C1703 C1702 1.334 . S
C1703 C1704 1.287 . S
C1704 C1703 1.287 . S
C1704 C1705 1.524 . S
C1704 H1723 0.913 . S
C1705 H1681 0.950 . S
C1705 C1704 1.524 . S
C1705 C1706 1.415 . S
C1706 H1682 0.950 . S
C1706 C1701 1.363 . S
C1706 C1705 1.415 . S
C1707 H1683 0.951 . S
C1707 C1708 1.366 . S
C1707 C1709 1.388 . S
C1708 C1707 1.366 . S
C1708 C1712 1.385 . S
C1709 H1684 0.951 . S
C1709 C1707 1.388 . S
C1709 C1710 1.366 . S
C1710 C1709 1.366 . S
C1710 C1711 1.414 . S
C1710 C1713 1.499 . S
C1711 H1685 0.950 . S
C1711 C1710 1.414 . S
C1711 C1712 1.374 . S
C1712 H1686 0.950 . S
C1712 C1708 1.385 . S
C1712 C1711 1.374 . S
C1713 C1710 1.499 . S
C1713 C1714 1.373 . S
C1713 C1715 1.389 . S
C1714 H1687 0.950 . S
C1714 C1700 1.377 . S
C1714 C1713 1.373 . S
C1715 C1699 1.377 . S
C1715 C1713 1.389 . S
C1715 C1716 1.524 . S
C1716 C1715 1.524 . S
C1716 C1717 1.397 . S
C1716 C1721 1.363 . S
C1717 H1688 0.950 . S
C1717 C1716 1.397 . S
C1717 C1718 1.334 . S
C1718 H1689 0.950 . S
C1718 C1717 1.334 . S
C1718 C1719 1.287 . S
C1719 C1718 1.287 . S
C1719 C1720 1.524 . S
C1719 H1722 0.999 . S
C1720 H1690 0.950 . S
C1720 C1719 1.524 . S
C1720 C1721 1.415 . S
C1721 H1691 0.950 . S
C1721 C1716 1.363 . S
C1721 C1720 1.415 . S
H1722 C1719 0.999 . S
H1723 C1704 0.913 . S
H1724 C1742 0.951 . S
H1725 C1744 0.951 . S
H1726 C1746 0.950 . S
H1727 C1747 0.950 . S
H1728 C1749 0.950 . S
H1729 C1752 0.950 . S
H1730 C1753 0.950 . S
H1731 C1755 0.950 . S
H1732 C1756 0.950 . S
H1733 C1757 0.951 . S
H1734 C1759 0.951 . S
H1735 C1761 0.950 . S
H1736 C1762 0.950 . S
H1737 C1764 0.950 . S
H1738 C1767 0.950 . S
H1739 C1768 0.950 . S
H1740 C1770 0.950 . S
H1741 C1771 0.950 . S
C1742 H1724 0.951 . S
C1742 C1743 1.366 . S
C1742 C1744 1.388 . S
C1743 C1742 1.366 . S
C1743 C1747 1.385 . S
C1744 H1725 0.951 . S
C1744 C1742 1.388 . S
C1744 C1745 1.366 . S
C1745 C1744 1.366 . S
C1745 C1746 1.414 . S
C1745 C1748 1.499 . S
C1746 H1726 0.950 . S
C1746 C1745 1.414 . S
C1746 C1747 1.374 . S
C1747 H1727 0.950 . S
C1747 C1743 1.385 . S
C1747 C1746 1.374 . S
C1748 C1745 1.499 . S
C1748 C1749 1.373 . S
C1748 C1750 1.389 . S
C1749 H1728 0.950 . S
C1749 C1748 1.373 . S
C1749 C1765 1.377 . S
C1750 C1748 1.389 . S
C1750 C1751 1.524 . S
C1750 C1764 1.377 . S
C1751 C1750 1.524 . S
C1751 C1752 1.397 . S
C1751 C1756 1.363 . S
C1752 H1729 0.950 . S
C1752 C1751 1.397 . S
C1752 C1753 1.334 . S
C1753 H1730 0.950 . S
C1753 C1752 1.334 . S
C1753 C1754 1.287 . S
C1754 C1753 1.287 . S
C1754 C1755 1.524 . S
C1754 H1773 0.913 . S
C1755 H1731 0.950 . S
C1755 C1754 1.524 . S
C1755 C1756 1.415 . S
C1756 H1732 0.950 . S
C1756 C1751 1.363 . S
C1756 C1755 1.415 . S
C1757 H1733 0.951 . S
C1757 C1758 1.366 . S
C1757 C1759 1.388 . S
C1758 C1757 1.366 . S
C1758 C1762 1.385 . S
C1759 H1734 0.951 . S
C1759 C1757 1.388 . S
C1759 C1760 1.366 . S
C1760 C1759 1.366 . S
C1760 C1761 1.414 . S
C1760 C1763 1.499 . S
C1761 H1735 0.950 . S
C1761 C1760 1.414 . S
C1761 C1762 1.374 . S
C1762 H1736 0.950 . S
C1762 C1758 1.385 . S
C1762 C1761 1.374 . S
C1763 C1760 1.499 . S
C1763 C1764 1.373 . S
C1763 C1765 1.389 . S
C1764 H1737 0.950 . S
C1764 C1750 1.377 . S
C1764 C1763 1.373 . S
C1765 C1749 1.377 . S
C1765 C1763 1.389 . S
C1765 C1766 1.524 . S
C1766 C1765 1.524 . S
C1766 C1767 1.397 . S
C1766 C1771 1.363 . S
C1767 H1738 0.950 . S
C1767 C1766 1.397 . S
C1767 C1768 1.334 . S
C1768 H1739 0.950 . S
C1768 C1767 1.334 . S
C1768 C1769 1.287 . S
C1769 C1768 1.287 . S
C1769 C1770 1.524 . S
C1769 H1772 0.999 . S
C1770 H1740 0.950 . S
C1770 C1769 1.524 . S
C1770 C1771 1.415 . S
C1771 H1741 0.950 . S
C1771 C1766 1.363 . S
C1771 C1770 1.415 . S
H1772 C1769 0.999 . S
H1773 C1754 0.913 . S
H1774 C1792 0.951 . S
H1775 C1794 0.951 . S
H1776 C1796 0.950 . S
H1777 C1797 0.950 . S
H1778 C1799 0.950 . S
H1779 C1802 0.950 . S
H1780 C1803 0.950 . S
H1781 C1805 0.950 . S
H1782 C1806 0.950 . S
H1783 C1807 0.951 . S
H1784 C1809 0.951 . S
H1785 C1811 0.950 . S
H1786 C1812 0.950 . S
H1787 C1814 0.950 . S
H1788 C1817 0.950 . S
H1789 C1818 0.950 . S
H1790 C1820 0.950 . S
H1791 C1821 0.950 1_554 S
C1792 H1774 0.951 . S
C1792 C1793 1.366 . S
C1792 C1794 1.388 . S
C1793 C1792 1.366 . S
C1793 C1797 1.385 . S
C1794 H1775 0.951 . S
C1794 C1792 1.388 . S
C1794 C1795 1.366 . S
C1795 C1794 1.366 . S
C1795 C1796 1.414 . S
C1795 C1798 1.499 . S
C1796 H1776 0.950 . S
C1796 C1795 1.414 . S
C1796 C1797 1.374 . S
C1797 H1777 0.950 . S
C1797 C1793 1.385 . S
C1797 C1796 1.374 . S
C1798 C1795 1.499 . S
C1798 C1799 1.373 . S
C1798 C1800 1.389 . S
C1799 H1778 0.950 . S
C1799 C1798 1.373 . S
C1799 C1815 1.377 . S
C1800 C1798 1.389 . S
C1800 C1801 1.524 . S
C1800 C1814 1.377 . S
C1801 C1800 1.524 . S
C1801 C1802 1.397 . S
C1801 C1806 1.363 . S
C1802 H1779 0.950 . S
C1802 C1801 1.397 . S
C1802 C1803 1.334 . S
C1803 H1780 0.950 . S
C1803 C1802 1.334 . S
C1803 C1804 1.287 . S
C1804 C1803 1.287 . S
C1804 C1805 1.524 . S
C1804 H1823 0.913 . S
C1805 H1781 0.950 . S
C1805 C1804 1.524 . S
C1805 C1806 1.415 . S
C1806 H1782 0.950 . S
C1806 C1801 1.363 . S
C1806 C1805 1.415 . S
C1807 H1783 0.951 . S
C1807 C1808 1.366 . S
C1807 C1809 1.388 . S
C1808 C1807 1.366 . S
C1808 C1812 1.385 . S
C1809 H1784 0.951 . S
C1809 C1807 1.388 . S
C1809 C1810 1.366 . S
C1810 C1809 1.366 . S
C1810 C1811 1.414 . S
C1810 C1813 1.499 . S
C1811 H1785 0.950 . S
C1811 C1810 1.414 . S
C1811 C1812 1.374 . S
C1812 H1786 0.950 . S
C1812 C1808 1.385 . S
C1812 C1811 1.374 . S
C1813 C1810 1.499 . S
C1813 C1814 1.373 1_556 S
C1813 C1815 1.389 1_556 S
C1814 H1787 0.950 . S
C1814 C1800 1.377 . S
C1814 C1813 1.373 1_554 S
C1815 C1799 1.377 . S
C1815 C1813 1.389 1_554 S
C1815 C1816 1.524 1_554 S
C1816 C1815 1.524 1_556 S
C1816 C1817 1.397 . S
C1816 C1821 1.363 . S
C1817 H1788 0.950 . S
C1817 C1816 1.397 . S
C1817 C1818 1.334 . S
C1818 H1789 0.950 . S
C1818 C1817 1.334 . S
C1818 C1819 1.287 . S
C1819 C1818 1.287 . S
C1819 C1820 1.524 . S
C1819 H1822 0.999 . S
C1820 H1790 0.950 . S
C1820 C1819 1.524 . S
C1820 C1821 1.415 . S
C1821 H1791 0.950 1_556 S
C1821 C1816 1.363 . S
C1821 C1820 1.415 . S
H1822 C1819 0.999 . S
H1823 C1804 0.913 . S
C243 C92 1.472 . S
C258 C8 1.472 . S
C293 C106 1.472 . S
C308 C22 1.472 . S
C343 C36 1.472 . S
C358 C64 1.472 . S
C393 C50 1.472 . S
C408 C78 1.472 . S
C443 C120 1.472 . S
C458 C204 1.472 . S
C493 C218 1.472 . S
C508 C134 1.472 . S
C543 C148 1.472 . S
C558 C176 1.472 . S
C593 C162 1.471 . S
C608 C190 1.471 . S
C643 C9 1.381 . S
C658 C149 1.381 . S
C693 C23 1.381 . S
C708 C163 1.381 . S
C743 C37 1.382 . S
C758 C121 1.382 . S
C793 C51 1.381 . S
C808 C135 1.381 . S
C843 C65 1.382 . S
C858 C205 1.382 . S
C893 C219 1.381 . S
C908 C79 1.381 . S
C943 C93 1.381 . S
C958 C177 1.381 . S
C993 C191 1.381 . S
C1008 C107 1.381 . S
C1043 C189 0.277 . S
C1058 C7 0.279 . S
C1093 C21 0.276 . S
C1108 C203 0.279 . S
C1143 C217 0.279 . S
C1158 C35 0.276 . S
C1193 C175 0.278 . S
C1208 C49 0.277 . S
C1243 C161 0.276 . S
C1258 C63 0.279 . S
C1293 C77 0.277 . S
C1308 C119 0.279 . S
C1343 C91 0.276 . S
C1358 C133 0.278 . S
C1393 C105 0.279 . S
C1408 C147 0.277 . S
C1443 C185 1.463 . S
C1458 C3 1.463 . S
C1493 C17 1.462 . S
C1508 C199 1.463 . S
C1543 C31 1.463 . S
C1558 C213 1.463 . S
C1593 C171 1.463 . S
C1608 C45 1.463 . S
C1643 C157 1.463 . S
C1658 C59 1.462 . S
C1693 C115 1.462 . S
C1708 C73 1.462 . S
C1743 C87 1.463 . S
C1758 C129 1.463 . S
C1793 C143 1.462 . S
C1808 C101 1.462 . S
