# Generated by pormake.
# Topology smc, (6)-cn, num edge types: 1
# Building blocks:
#     Node 0, Type 0, BuildingBlock: VOLQOD_clean_sbu_1, # of connection points: 6
#     Node 1, Type 0, BuildingBlock: VOLQOD_clean_sbu_1, # of connection points: 6
#     Node 2, Type 0, BuildingBlock: VOLQOD_clean_sbu_1, # of connection points: 6
#     Node 3, Type 0, BuildingBlock: VOLQOD_clean_sbu_1, # of connection points: 6
#     Node 4, Type 0, BuildingBlock: VOLQOD_clean_sbu_1, # of connection points: 6
#     Node 5, Type 0, BuildingBlock: VOLQOD_clean_sbu_1, # of connection points: 6
#     Node 6, Type 0, BuildingBlock: VOLQOD_clean_sbu_1, # of connection points: 6
#     Node 7, Type 0, BuildingBlock: VOLQOD_clean_sbu_1, # of connection points: 6
#     Node 8, Type 0, BuildingBlock: VOLQOD_clean_sbu_1, # of connection points: 6
#     Edge 9, Type (0, 0), BuildingBlock: OJICUG_clean_linker_0, # of connection points: 2
#     Edge 10, Type (0, 0), BuildingBlock: OJICUG_clean_linker_0, # of connection points: 2
#     Edge 11, Type (0, 0), BuildingBlock: OJICUG_clean_linker_0, # of connection points: 2
#     Edge 12, Type (0, 0), BuildingBlock: OJICUG_clean_linker_0, # of connection points: 2
#     Edge 13, Type (0, 0), BuildingBlock: OJICUG_clean_linker_0, # of connection points: 2
#     Edge 14, Type (0, 0), BuildingBlock: OJICUG_clean_linker_0, # of connection points: 2
#     Edge 15, Type (0, 0), BuildingBlock: OJICUG_clean_linker_0, # of connection points: 2
#     Edge 16, Type (0, 0), BuildingBlock: OJICUG_clean_linker_0, # of connection points: 2
#     Edge 17, Type (0, 0), BuildingBlock: OJICUG_clean_linker_0, # of connection points: 2
#     Edge 18, Type (0, 0), BuildingBlock: OJICUG_clean_linker_0, # of connection points: 2
#     Edge 19, Type (0, 0), BuildingBlock: OJICUG_clean_linker_0, # of connection points: 2
#     Edge 20, Type (0, 0), BuildingBlock: OJICUG_clean_linker_0, # of connection points: 2
#     Edge 21, Type (0, 0), BuildingBlock: OJICUG_clean_linker_0, # of connection points: 2
#     Edge 22, Type (0, 0), BuildingBlock: OJICUG_clean_linker_0, # of connection points: 2
#     Edge 23, Type (0, 0), BuildingBlock: OJICUG_clean_linker_0, # of connection points: 2
#     Edge 24, Type (0, 0), BuildingBlock: OJICUG_clean_linker_0, # of connection points: 2
#     Edge 25, Type (0, 0), BuildingBlock: OJICUG_clean_linker_0, # of connection points: 2
#     Edge 26, Type (0, 0), BuildingBlock: OJICUG_clean_linker_0, # of connection points: 2
#     Edge 27, Type (0, 0), BuildingBlock: OJICUG_clean_linker_0, # of connection points: 2
#     Edge 28, Type (0, 0), BuildingBlock: OJICUG_clean_linker_0, # of connection points: 2
#     Edge 29, Type (0, 0), BuildingBlock: OJICUG_clean_linker_0, # of connection points: 2
#     Edge 30, Type (0, 0), BuildingBlock: OJICUG_clean_linker_0, # of connection points: 2
#     Edge 31, Type (0, 0), BuildingBlock: OJICUG_clean_linker_0, # of connection points: 2
#     Edge 32, Type (0, 0), BuildingBlock: OJICUG_clean_linker_0, # of connection points: 2
#     Edge 33, Type (0, 0), BuildingBlock: OJICUG_clean_linker_0, # of connection points: 2
#     Edge 34, Type (0, 0), BuildingBlock: OJICUG_clean_linker_0, # of connection points: 2
#     Edge 35, Type (0, 0), BuildingBlock: OJICUG_clean_linker_0, # of connection points: 2
# Relax obj value: 0.339
# Max RMSD: 0.274
# Mean RMSD: 0.261
data_MOF--net-smc--node1-VOLQOD_clean_sbu_1--edge1-OJICUG_clean_linker_0
_symmetry_space_group_name_H-M    P1
_symmetry_Int_Tables_number       1
_symmetry_cell_setting            triclinic
loop_
_symmetry_equiv_pos_as_xyz
'x, y, z'
_cell_length_a     24.09043
_cell_length_b     24.285507
_cell_length_c     36.391752
_cell_angle_alpha  89.742257
_cell_angle_beta   90.286738
_cell_angle_gamma 120.75842
loop_
_atom_site_label
_atom_site_type_symbol
_atom_site_fract_x
_atom_site_fract_y
_atom_site_fract_z
_atom_type_partial_charge
O0 O 0.89497 0.50063 0.99966 0.0
Zn1 Zn 0.95783 0.47584 0.98244 0.0
O2 O -0.02732 0.43177 0.02216 0.0
Zn3 Zn -0.03599 0.35284 1.00579 0.0
Zn4 Zn 0.91783 0.41743 0.06309 0.0
Zn5 Zn 0.05745 0.48647 0.03963 0.0
O6 O 0.05 0.35713 1.00648 0.0
O7 O 0.11421 0.46261 0.01436 0.0
O8 O 0.92589 0.42137 0.93601 0.0
O9 O 0.93477 0.33854 0.95362 0.0
O10 O 0.89182 0.27815 0.03262 0.0
O11 O 0.84716 0.32638 0.06179 0.0
O12 O -0.03588 0.42884 0.11086 0.0
O13 O 0.03729 0.56192 0.97282 0.0
O14 O 0.06625 0.47374 0.09361 0.0
O15 O 0.08405 0.57703 0.02772 0.0
C16 C 0.87323 0.50224 0.03125 0.0
C17 C 0.10547 0.40801 1.00584 0.0
C18 C 0.84561 0.27586 0.05089 0.0
C19 C 0.92042 0.3672 0.92941 0.0
C20 C 0.02324 0.44979 0.11844 0.0
C21 C 0.0762 0.59877 0.99745 0.0
O22 O 0.88099 0.47481 0.05911 0.0
O23 O 0.46588 0.40839 0.98496 0.0
Zn24 Zn 0.48527 0.49521 0.96815 0.0
O25 O 0.53686 0.55701 1.00551 0.0
Zn26 Zn 0.61653 0.62603 0.9864 0.0
Zn27 Zn 0.54917 0.51765 0.04751 0.0
Zn28 Zn 0.4884 0.59143 0.02347 0.0
O29 O 0.61545 0.70978 0.98803 0.0
O30 O 0.50884 0.66635 0.99316 0.0
O31 O 0.53115 0.51928 0.91878 0.0
O32 O 0.62349 0.6079 0.93335 0.0
O33 O 0.69179 0.62619 0.01161 0.0
O34 O 0.63958 0.53852 0.04643 0.0
O35 O 0.54029 0.55403 0.09512 0.0
O36 O 0.39595 0.48256 0.96505 0.0
O37 O 0.51049 0.6216 0.07589 0.0
O38 O 0.39591 0.52519 0.01902 0.0
C39 C 0.46518 0.38599 0.01684 0.0
C40 C 0.56443 0.71333 0.98537 0.0
C41 C 0.69154 0.58416 0.03296 0.0
C42 C 0.58717 0.56544 0.91008 0.0
C43 C 0.52865 0.59863 0.10156 0.0
C44 C 0.36606 0.48861 0.99204 0.0
O45 O 0.49152 0.4224 0.04451 0.0
O46 O 0.4829 0.90938 0.02447 0.0
Zn47 Zn 0.45773 0.9704 0.04464 0.0
O48 O 0.4168 -0.0087 1.00603 0.0
Zn49 Zn 0.34002 -0.01265 0.02324 0.0
Zn50 Zn 0.39902 0.93794 0.96458 0.0
Zn51 Zn 0.47585 0.07475 0.989 0.0
O52 O 0.34621 0.07336 0.01559 0.0
O53 O 0.45393 0.13282 0.01439 0.0
O54 O 0.40207 0.93907 0.09093 0.0
O55 O 0.33288 0.97146 0.07763 0.0
O56 O 0.2619 0.90859 1.00193 0.0
O57 O 0.30878 0.86672 0.96862 0.0
O58 O 0.404 -0.01531 0.91834 0.0
O59 O 0.54415 0.04743 0.05692 0.0
O60 O 0.46571 0.08632 0.93459 0.0
O61 O 0.56527 0.09734 1.0028 0.0
C62 C 0.48639 0.89296 0.99167 0.0
C63 C 0.39885 0.12715 0.01864 0.0
C64 C 0.25883 0.86313 0.98276 0.0
C65 C 0.35662 0.94868 0.10019 0.0
C66 C 0.4323 0.04408 0.91058 0.0
C67 C 0.58378 0.08729 0.03365 0.0
O68 O 0.45915 0.90383 0.96476 0.0
O69 O 0.56558 0.84103 0.31889 0.0
Zn70 Zn 0.63194 0.8213 0.30039 0.0
O71 O 0.64875 0.77615 0.33862 0.0
Zn72 Zn 0.63965 0.6975 0.32219 0.0
Zn73 Zn 0.59706 0.76259 0.38047 0.0
Zn74 Zn 0.73392 0.82879 0.35516 0.0
O75 O 0.72588 0.7015 0.32465 0.0
O76 O 0.78933 0.8079 0.32554 0.0
O77 O 0.6038 0.76937 0.25265 0.0
O78 O 0.61312 0.68634 0.2696 0.0
O79 O 0.56512 0.62273 0.3482 0.0
O80 O 0.5245 0.67368 0.37855 0.0
O81 O 0.64363 0.76603 0.42685 0.0
O82 O 0.70869 0.91092 0.29378 0.0
O83 O 0.74519 0.81142 0.40831 0.0
O84 O 0.75657 0.91868 0.34765 0.0
C85 C 0.54978 0.84647 0.35152 0.0
C86 C 0.78072 0.75235 0.32003 0.0
C87 C 0.52059 0.6223 0.36729 0.0
C88 C 0.59954 0.71582 0.24549 0.0
C89 C 0.70264 0.78485 0.43326 0.0
C90 C 0.74635 0.94428 0.31984 0.0
O91 O 0.56337 0.8229 0.37915 0.0
O92 O 0.14403 0.74423 0.32905 0.0
Zn93 Zn 0.16392 0.82919 0.30819 0.0
O94 O 0.20914 0.89533 0.34476 0.0
Zn95 Zn 0.28468 0.96752 0.32376 0.0
Zn96 Zn 0.23039 0.86194 0.38641 0.0
Zn97 Zn 0.15303 0.92166 0.36338 0.0
O98 O 0.28051 0.0488 0.3299 0.0
O99 O 0.17408 0.00229 0.33844 0.0
O100 O 0.21383 0.85092 0.25991 0.0
O101 O 0.28634 0.95388 0.26951 0.0
O102 O 0.36492 0.96936 0.34339 0.0
O103 O 0.32112 0.88535 0.38133 0.0
O104 O 0.22317 0.89923 0.43367 0.0
O105 O 0.07498 0.81531 0.29952 0.0
O106 O 0.16613 0.94361 0.41771 0.0
O107 O 0.0621 0.85417 0.35214 0.0
C108 C 0.14607 0.7264 0.3618 0.0
C109 C 0.22865 0.05101 0.33073 0.0
C110 C 0.36971 0.92988 0.36461 0.0
C111 C 0.25929 0.90517 0.24854 0.0
C112 C 0.19656 0.93119 0.44188 0.0
C113 C 0.03911 0.81991 0.32341 0.0
O114 O 0.17493 0.76667 0.3875 0.0
O115 O 0.23233 0.41124 0.33389 0.0
Zn116 Zn 0.1437 0.34632 0.31653 0.0
O117 O 0.08335 0.33228 0.35555 0.0
Zn118 Zn 0.01353 0.34229 0.33861 0.0
Zn119 Zn 0.12496 0.38644 0.39647 0.0
Zn120 Zn 0.04987 0.24838 0.37341 0.0
O121 O 0.92887 0.25733 0.33833 0.0
O122 O -0.03068 0.19328 0.34598 0.0
O123 O 0.12083 0.37559 0.26896 0.0
O124 O 0.02979 0.36966 0.28652 0.0
O125 O 0.01489 0.4171 0.36352 0.0
O126 O 0.10875 0.45832 0.39332 0.0
O127 O 0.0878 0.34189 0.44428 0.0
O128 O 0.15235 0.26853 0.30946 0.0
O129 O 0.02642 0.24066 0.42721 0.0
O130 O 0.11433 0.22184 0.36372 0.0
C131 C 0.25585 0.43169 0.36577 0.0
C132 C 0.9237 0.20242 0.33664 0.0
C133 C 0.06143 0.46265 0.38131 0.0
C134 C 0.07234 0.38202 0.26222 0.0
C135 C 0.04711 0.28366 0.45193 0.0
C136 C 0.1476 0.23009 0.3349 0.0
O137 O 0.22 0.42185 0.3936 0.0
O138 O 0.21927 0.16772 0.66433 0.0
Zn139 Zn 0.28263 0.14601 0.64273 0.0
O140 O 0.30495 0.10451 0.68043 0.0
Zn141 Zn 0.29922 0.02767 0.66334 0.0
Zn142 Zn 0.25298 0.08613 0.72266 0.0
Zn143 Zn 0.39032 0.16193 0.69626 0.0
O144 O 0.38623 0.03428 0.66646 0.0
O145 O 0.44721 0.14093 0.66799 0.0
O146 O 0.25091 0.09182 0.59576 0.0
O147 O 0.27404 0.01688 0.61059 0.0
O148 O 0.22524 0.95032 0.68762 0.0
O149 O 0.18121 -0.00355 0.71943 0.0
O150 O 0.30218 0.09062 0.76779 0.0
O151 O 0.35907 0.23347 0.63169 0.0
O152 O 0.40419 0.14915 0.75007 0.0
O153 O 0.41235 0.25128 0.68469 0.0
C154 C 0.20399 0.1705 0.69756 0.0
C155 C 0.44035 0.0861 0.66238 0.0
C156 C 0.17913 0.94682 0.70657 0.0
C157 C 0.2539 0.04227 0.5875 0.0
C158 C 0.36227 0.11669 0.77452 0.0
C159 C 0.40027 0.27146 0.65509 0.0
O160 O 0.2177 0.14461 0.72388 0.0
O161 O 0.7959 0.07374 0.66612 0.0
Zn162 Zn 0.82163 0.16183 0.64919 0.0
O163 O 0.86743 0.22029 0.68888 0.0
Zn164 Zn 0.94629 0.29326 0.67224 0.0
Zn165 Zn 0.8814 0.17961 0.72958 0.0
Zn166 Zn 0.81253 0.24742 0.70684 0.0
O167 O 0.93947 0.37351 0.67254 0.0
O168 O 0.83247 0.32497 0.67897 0.0
O169 O 0.87572 0.1858 0.60261 0.0
O170 O 0.95947 0.27923 0.61984 0.0
O171 O 0.02269 0.29661 0.69789 0.0
O172 O -0.02737 0.20265 0.72723 0.0
O173 O 0.87074 0.21307 0.77771 0.0
O174 O 0.73575 0.15483 0.64018 0.0
O175 O 0.82821 0.27122 0.76051 0.0
O176 O 0.72153 0.17941 0.69684 0.0
C177 C 0.79563 0.04955 0.69731 0.0
C178 C 0.88648 0.3734 0.67012 0.0
C179 C 0.02397 0.25189 0.7158 0.0
C180 C 0.9302 0.23579 0.59577 0.0
C181 C 0.85143 0.25163 0.78535 0.0
C182 C 0.69906 0.15246 0.66598 0.0
O183 O 0.82427 0.08429 0.72524 0.0
O184 O 0.81472 0.5821 0.68925 0.0
Zn185 Zn 0.79113 0.64496 0.70689 0.0
O186 O 0.74543 0.6585 0.66767 0.0
Zn187 Zn 0.66672 0.65089 0.68553 0.0
Zn188 Zn 0.72888 0.60379 0.62655 0.0
Zn189 Zn 0.80268 0.74205 0.64996 0.0
O190 O 0.6741 0.73794 0.68478 0.0
O191 O 0.78081 0.79899 0.67654 0.0
O192 O 0.73949 0.61678 0.75409 0.0
O193 O 0.65349 0.62285 0.73842 0.0
O194 O 0.58973 0.57883 0.65957 0.0
O195 O 0.63706 0.53452 0.629 0.0
O196 O 0.73747 0.65004 0.57889 0.0
O197 O 0.87773 0.72304 0.71652 0.0
O198 O 0.79081 0.75188 0.59603 0.0
O199 O 0.89373 0.76699 0.66105 0.0
C200 C 0.81468 0.559 0.65786 0.0
C201 C 0.72671 0.79203 0.68579 0.0
C202 C 0.58665 0.53304 0.6408 0.0
C203 C 0.68517 0.61087 0.76198 0.0
C204 C 0.76242 0.70934 0.57142 0.0
C205 C 0.91527 0.7603 0.69169 0.0
O206 O 0.78606 0.5657 0.63005 0.0
C207 C 0.26458 0.42963 0.02705 0.0
C208 C 0.29546 0.4521 0.99306 0.0
H209 H 0.17681 0.39422 0.05717 0.0
C210 C 0.25876 0.44482 0.96148 0.0
H211 H 0.29207 0.43393 0.05164 0.0
C212 C 0.19273 0.42212 0.96475 0.0
C213 C 0.16331 0.40513 0.99939 0.0
H214 H 0.28188 0.46175 0.93502 0.0
H215 H 0.16605 0.42312 0.94095 0.0
C216 C 0.19871 0.40595 0.03015 0.0
C217 C 0.56412 0.85935 0.01153 0.0
C218 C 0.52082 0.85833 0.98508 0.0
H219 H 0.6157 0.81465 0.03103 0.0
C220 C 0.50706 0.82003 0.95368 0.0
H221 H 0.57662 0.88944 0.03566 0.0
C222 C 0.52981 0.77772 0.95105 0.0
C223 C 0.56761 0.77422 0.97934 0.0
H224 H 0.47446 0.8188 0.93265 0.0
H225 H 0.51284 0.74353 0.92868 0.0
C226 C 0.58771 0.8177 0.00854 0.0
C227 C 0.16666 0.77569 0.01623 0.0
C228 C 0.19971 0.79994 0.98301 0.0
H229 H 0.10233 0.69168 0.04699 0.0
C230 C 0.18515 0.75856 0.95295 0.0
H231 H 0.17773 0.80654 0.03992 0.0
C232 C 0.14132 0.69301 0.95685 0.0
C233 C 0.11327 0.66814 0.99116 0.0
H234 H 0.21055 0.77637 0.92715 0.0
H235 H 0.13296 0.66141 0.93389 0.0
C236 C 0.12439 0.71003 0.02043 0.0
C237 C 0.37529 0.20898 0.99577 0.0
C238 C 0.39852 0.18645 0.02385 0.0
H239 H 0.37903 0.29111 0.97128 0.0
C240 C 0.43624 0.22773 0.05221 0.0
H241 H 0.3471 0.17786 0.97332 0.0
C242 C 0.45441 0.29212 0.05122 0.0
C243 C 0.43633 0.31633 0.02132 0.0
H244 H 0.45524 0.21106 0.07382 0.0
H245 H 0.4863 0.32363 0.0725 0.0
C246 C 0.39444 0.2738 0.99437 0.0
C247 C 0.69771 0.13085 0.01623 0.0
C248 C 0.65252 0.12435 0.04257 0.0
H249 H 0.79632 0.18281 0.99933 0.0
C250 C 0.67351 0.1592 0.07537 0.0
H251 H 0.6821 0.10369 0.99089 0.0
C252 C 0.73867 0.20539 0.07995 0.0
C253 C 0.78331 0.21563 0.05218 0.0
H254 H 0.63903 0.15448 0.09599 0.0
H255 H 0.75342 0.23596 0.10397 0.0
C256 C 0.76298 0.17553 0.02128 0.0
C257 C 0.79781 0.52398 0.06632 0.0
C258 C 0.83614 0.53479 0.03515 0.0
H259 H 0.72224 0.53312 0.09041 0.0
C260 C 0.83559 0.57386 1.00666 0.0
H261 H 0.79797 0.49498 0.08898 0.0
C262 C 0.79296 0.59666 1.0078 0.0
C263 C 0.74987 0.57999 0.03723 0.0
H264 H 0.86574 0.58421 0.98263 0.0
H265 H 0.78997 0.62248 0.98424 0.0
C266 C 0.75479 0.54618 0.06727 0.0
C267 C 0.8789 0.78051 0.28476 0.0
C268 C 0.83874 0.74888 0.31486 0.0
H269 H -0.0246 0.82661 0.26355 0.0
C270 C 0.86269 0.73103 0.34488 0.0
H271 H 0.86118 0.79567 0.26173 0.0
C272 C 0.92805 0.75071 0.34651 0.0
C273 C -0.03067 0.78678 0.3177 0.0
H274 H 0.83258 0.70786 0.36864 0.0
H275 H 0.94714 0.74124 0.37121 0.0
C276 C 0.94395 0.7985 0.28591 0.0
C277 C 0.18841 0.1716 0.2978 0.0
C278 C 0.18215 0.19501 0.33178 0.0
H279 H 0.20995 0.10634 0.2707 0.0
C280 C 0.20551 0.18104 0.36376 0.0
H281 H 0.17088 0.18203 0.2728 0.0
C282 C 0.22981 0.14001 0.3623 0.0
C283 C 0.23037 0.11179 0.32896 0.0
H284 H 0.20212 0.19943 0.39021 0.0
H285 H 0.2426 0.12574 0.38774 0.0
C286 C 0.21155 0.12925 0.29649 0.0
C287 C 0.85839 0.11538 0.29322 0.0
C288 C 0.86279 0.14558 0.32682 0.0
H289 H 0.81573 0.02595 0.26424 0.0
C290 C 0.81976 0.11123 0.35518 0.0
H291 H 0.89252 0.14122 0.2714 0.0
C292 C 0.77762 0.04558 0.35151 0.0
C293 C 0.77764 0.01407 0.31927 0.0
H294 H 0.82362 0.1336 0.38153 0.0
H295 H 0.74838 0.01863 0.37485 0.0
C296 C 0.81516 0.04968 0.28925 0.0
C297 C 0.13195 0.63674 0.40207 0.0
C298 C 0.11528 0.65746 0.37002 0.0
H299 H 0.12635 0.55744 0.43124 0.0
C300 C 0.07079 0.61169 0.34529 0.0
H301 H 0.16545 0.67084 0.4219 0.0
C302 C 0.04724 0.54659 0.3511 0.0
C303 C 0.0687 0.5265 0.38143 0.0
H304 H 0.05606 0.62626 0.32071 0.0
H305 H 0.01644 0.51269 0.33035 0.0
C306 C 0.10918 0.57181 0.4076 0.0
C307 C 0.36729 0.47308 0.34194 0.0
C308 C 0.32635 0.47111 0.36998 0.0
H309 H 0.46288 0.52229 0.31975 0.0
C310 C 0.35314 0.51109 0.40068 0.0
H311 H 0.34799 0.44183 0.31829 0.0
C312 C 0.41868 0.55696 0.40144 0.0
C313 C 0.45841 0.56287 0.37178 0.0
H314 H 0.32291 0.51004 0.42293 0.0
H315 H 0.43745 0.59058 0.42408 0.0
C316 C 0.43313 0.51847 0.34297 0.0
C317 C 0.44088 0.89708 0.39466 0.0
C318 C 0.42872 0.92622 0.36476 0.0
H319 H 0.48878 0.84889 0.41395 0.0
C320 C 0.46381 0.93729 0.33218 0.0
H321 H 0.41445 0.88816 0.42013 0.0
C322 C 0.50551 0.91365 0.32835 0.0
C323 C 0.51321 0.87931 0.3572 0.0
H324 H 0.45496 0.95921 0.30862 0.0
H325 H 0.5293 0.91968 0.3022 0.0
C326 C 0.483 0.87409 0.39099 0.0
C327 C 0.58715 0.08205 0.68764 0.0
C328 C 0.62948 0.12115 0.65995 0.0
H329 H 0.49094 0.03704 0.7089 0.0
C330 C 0.60535 0.13682 0.62907 0.0
H331 H 0.60522 0.06937 0.71159 0.0
C332 C 0.54051 0.11942 0.62792 0.0
C333 C 0.49928 0.08445 0.657 0.0
H334 H 0.63757 0.16719 0.60757 0.0
H335 H 0.52367 0.13715 0.60573 0.0
C336 C 0.52197 0.063 0.68592 0.0
C337 C 0.9139 0.48448 0.68219 0.0
C338 C 0.88544 0.43075 0.6593 0.0
H339 H 0.91303 0.568 0.69968 0.0
C340 C 0.84186 0.42531 0.63181 0.0
H341 H 0.94687 0.48881 0.70388 0.0
C342 C 0.82262 0.4704 0.62921 0.0
C343 C 0.84567 0.52051 0.65472 0.0
H344 H 0.81899 0.38353 0.61418 0.0
H345 H 0.78581 0.46296 0.60932 0.0
C346 C 0.89377 0.52903 0.68007 0.0
C347 C 0.48896 0.44841 0.6718 0.0
C348 C 0.52602 0.47119 0.63969 0.0
H349 H 0.42043 0.36562 0.70205 0.0
C350 C 0.51345 0.42902 0.61029 0.0
H351 H 0.4983 0.47987 0.69499 0.0
C352 C 0.46802 0.36387 0.61413 0.0
C353 C 0.43639 0.34035 0.64776 0.0
H354 H 0.54185 0.4457 0.58537 0.0
H355 H 0.4616 0.33137 0.59201 0.0
C356 C 0.44512 0.38313 0.67602 0.0
C357 C 0.76861 0.88834 0.724 0.0
C358 C 0.72694 0.85006 0.69585 0.0
H359 H 0.82239 -0.01776 0.747 0.0
C360 C 0.6996 0.87502 0.67195 0.0
H361 H 0.79062 0.86964 0.74239 0.0
C362 C 0.71893 0.93976 0.67393 0.0
C363 C 0.76514 -0.02037 0.70012 0.0
H364 H 0.66811 0.84618 0.64975 0.0
H365 H 0.70061 0.95936 0.65366 0.0
C366 C 0.78704 0.95268 0.72644 0.0
C367 C 0.00855 0.8283 0.73248 0.0
C368 C -0.01517 0.79792 0.69857 0.0
H369 H 0.09092 0.90063 0.76177 0.0
C370 C 0.02794 0.80794 0.67003 0.0
H371 H -0.02412 0.82079 0.75486 0.0
C372 C 0.09367 0.85157 0.67439 0.0
C373 C 0.11657 0.88703 0.70696 0.0
H374 H 0.0104 0.7841 0.64382 0.0
H375 H 0.1254 0.86175 0.65111 0.0
C376 C 0.07411 0.87346 0.73649 0.0
C377 C 0.13344 0.19017 0.73869 0.0
C378 C 0.16763 0.2027 0.70559 0.0
H379 H 0.0613 0.19787 0.76833 0.0
C380 C 0.16393 0.24359 0.67951 0.0
H381 H 0.13605 0.15961 0.75956 0.0
C382 C 0.12228 0.26683 0.68502 0.0
C383 C 0.08307 0.24855 0.71638 0.0
H384 H 0.19088 0.25519 0.65409 0.0
H385 H 0.11654 0.29408 0.66322 0.0
C386 C 0.09113 0.21256 0.74392 0.0
C387 C 0.10904 0.42125 0.19747 0.0
C388 C 0.06347 0.40393 0.22575 0.0
H389 H 0.13261 0.45055 0.14121 0.0
C390 C 0.00756 0.40708 0.219 0.0
H391 H 0.15278 0.41982 0.20185 0.0
C392 C -0.00388 0.42459 0.1846 0.0
C393 C 0.0404 0.43988 0.15596 0.0
H394 H -0.0285 0.39472 0.24013 0.0
H395 H 0.9517 0.4248 0.18027 0.0
C396 C 0.0977 0.43933 0.16287 0.0
C397 C 0.56259 0.7146 0.18019 0.0
C398 C 0.57815 0.68562 0.20878 0.0
H399 H 0.534 0.70954 0.12376 0.0
C400 C 0.57344 0.6263 0.20215 0.0
H401 H 0.56537 0.76006 0.18441 0.0
C402 C 0.55545 0.5975 0.16773 0.0
C403 C 0.54143 0.62696 0.13884 0.0
H404 H 0.58445 0.60205 0.22347 0.0
H405 H 0.55355 0.55239 0.16369 0.0
C406 C 0.54428 0.68545 0.14553 0.0
C407 C 0.32093 0.88135 0.15769 0.0
C408 C 0.33189 0.93613 0.13821 0.0
H409 H 0.28673 0.82712 0.20792 0.0
C410 C 0.3171 -0.02095 0.15493 0.0
H411 H 0.33154 0.84735 0.14523 0.0
C412 C 0.29315 0.96835 0.19069 0.0
C413 C 0.28142 0.91341 0.21011 0.0
H414 H 0.32513 0.02166 0.14053 0.0
H415 H 0.2834 0.00298 0.20315 0.0
C416 C 0.29481 0.8695 0.19326 0.0
C417 C 0.35901 0.0218 0.85739 0.0
C418 C 0.41793 0.06345 0.87486 0.0
H419 H 0.29509 0.00688 0.81283 0.0
C420 C 0.45928 0.12401 0.85916 0.0
H421 H 0.32566 -0.02487 0.86893 0.0
C422 C 0.44197 0.14201 0.82626 0.0
C423 C 0.38215 0.10053 0.80946 0.0
H424 H 0.50486 0.15717 0.8722 0.0
H425 H 0.47469 0.18848 0.81433 0.0
C426 C 0.34106 0.04036 0.82542 0.0
C427 C 0.87972 0.3638 0.86493 0.0
C428 C 0.89791 0.33618 0.89302 0.0
H429 H 0.84969 0.35819 0.80879 0.0
C430 C 0.89559 0.2781 0.88598 0.0
H431 H 0.88052 0.40824 0.86951 0.0
C432 C 0.87807 0.24963 0.85145 0.0
C433 C 0.86194 0.27814 0.82298 0.0
H434 H 0.90868 0.25495 0.90696 0.0
H435 H 0.87848 0.20578 0.84689 0.0
C436 C 0.86166 0.33489 0.83023 0.0
C437 C 0.59261 0.5629 0.80616 0.0
C438 C 0.65947 0.59321 0.79972 0.0
H439 H 0.51703 0.52891 0.84628 0.0
C440 C 0.70173 0.61032 0.82983 0.0
H441 H 0.55891 0.54894 0.78341 0.0
C442 C 0.67788 0.60015 0.86568 0.0
C443 C 0.61118 0.5712 0.87215 0.0
H444 H 0.75344 0.63392 0.82571 0.0
H445 H 0.71177 0.61561 0.8884 0.0
C446 C 0.56861 0.55122 0.84207 0.0
C447 C 0.77941 0.8068 0.48584 0.0
C448 C 0.71964 0.76712 0.46858 0.0
H449 H 0.8397 0.82002 0.53272 0.0
C450 C 0.676 0.70766 0.48451 0.0
H451 H 0.81399 0.85265 0.4739 0.0
C452 C 0.69156 0.68809 0.51705 0.0
C453 C 0.75037 0.7283 0.535 0.0
H454 H 0.62998 0.67569 0.47147 0.0
H455 H 0.65654 0.64216 0.52876 0.0
C456 C 0.79416 0.78804 0.51925 0.0
C457 C 0.19675 0.00899 0.48775 0.0
C458 C 0.20497 0.95693 0.47964 0.0
H459 H 0.20629 0.07762 0.52822 0.0
C460 C 0.22612 0.93196 0.50758 0.0
H461 H 0.18076 0.02948 0.4667 0.0
C462 C 0.24053 0.95919 0.54244 0.0
C463 C 0.23465 0.01262 0.5505 0.0
H464 H 0.23259 0.89169 0.50242 0.0
H465 H 0.25749 0.93866 0.56293 0.0
C466 C 0.2117 0.03677 0.52289 0.0
C467 C 0.93283 0.19865 0.53148 0.0
C468 C 0.96117 0.24495 0.55935 0.0
H469 H 0.93824 0.17407 0.47558 0.0
C470 C 0.02014 0.30157 0.55217 0.0
H471 H 0.88769 0.15435 0.53618 0.0
C472 C 0.04894 0.31276 0.51773 0.0
C473 C 0.01984 0.26756 0.48947 0.0
H474 H 0.04385 0.33819 0.57299 0.0
H475 H 0.09359 0.35762 0.51309 0.0
C476 C -0.03797 0.20979 0.49685 0.0
loop_
_geom_bond_atom_site_label_1
_geom_bond_atom_site_label_2
_geom_bond_distance
_geom_bond_site_symmetry_2
_ccdc_geom_bond_type
O0 Zn1 1.953 . S
O0 C16 1.225 1_556 S
Zn1 O0 1.953 . S
Zn1 O2 1.949 1_656 S
Zn1 O8 1.919 . S
Zn1 O13 1.924 1_655 S
O2 Zn1 1.949 1_454 S
O2 Zn3 1.923 1_454 S
O2 Zn4 1.950 1_455 S
O2 Zn5 1.945 . S
Zn3 O2 1.923 1_656 S
Zn3 O6 1.933 1_655 S
Zn3 O9 1.941 . S
Zn3 O10 1.966 1_556 S
Zn4 O2 1.950 1_655 S
Zn4 O11 1.938 . S
Zn4 O12 1.906 . S
Zn4 O22 1.953 . S
Zn5 O2 1.945 . S
Zn5 O7 1.932 . S
Zn5 O14 1.977 . S
Zn5 O15 1.910 . S
O6 Zn3 1.933 1_455 S
O6 C17 1.226 1_556 S
O7 Zn5 1.932 . S
O7 C17 1.307 . S
O8 Zn1 1.919 . S
O8 C19 1.253 . S
O9 Zn3 1.941 . S
O9 C19 1.283 . S
O10 Zn3 1.966 1_554 S
O10 C18 1.302 . S
O11 Zn4 1.938 . S
O11 C18 1.247 . S
O12 Zn4 1.906 . S
O12 C20 1.304 1_655 S
O13 Zn1 1.924 1_455 S
O13 C21 1.311 . S
O14 Zn5 1.977 . S
O14 C20 1.272 . S
O15 Zn5 1.910 . S
O15 C21 1.231 1_554 S
C16 O0 1.225 1_554 S
C16 O22 1.298 . S
C17 O6 1.226 1_554 S
C17 O7 1.307 . S
C18 O10 1.302 . S
C18 O11 1.247 . S
C19 O8 1.253 . S
C19 O9 1.283 . S
C20 O12 1.304 1_455 S
C20 O14 1.272 . S
C21 O13 1.311 . S
C21 O15 1.231 1_556 S
O22 Zn4 1.953 . S
O22 C16 1.298 . S
O23 Zn24 1.953 . S
O23 C39 1.225 1_556 S
Zn24 O23 1.953 . S
Zn24 O25 1.949 1_556 S
Zn24 O31 1.919 . S
Zn24 O36 1.924 . S
O25 Zn24 1.949 1_554 S
O25 Zn26 1.923 1_554 S
O25 Zn27 1.950 . S
O25 Zn28 1.945 . S
Zn26 O25 1.923 1_556 S
Zn26 O29 1.933 . S
Zn26 O32 1.941 . S
Zn26 O33 1.965 . S
Zn27 O25 1.950 . S
Zn27 O34 1.938 . S
Zn27 O35 1.906 . S
Zn27 O45 1.953 . S
Zn28 O25 1.945 . S
Zn28 O30 1.932 . S
Zn28 O37 1.977 . S
Zn28 O38 1.910 . S
O29 Zn26 1.933 . S
O29 C40 1.226 . S
O30 Zn28 1.932 . S
O30 C40 1.307 1_554 S
O31 Zn24 1.919 . S
O31 C42 1.253 . S
O32 Zn26 1.941 . S
O32 C42 1.283 . S
O33 Zn26 1.965 . S
O33 C41 1.303 1_556 S
O34 Zn27 1.938 . S
O34 C41 1.247 . S
O35 Zn27 1.906 . S
O35 C43 1.304 . S
O36 Zn24 1.924 . S
O36 C44 1.311 . S
O37 Zn28 1.977 . S
O37 C43 1.272 . S
O38 Zn28 1.910 . S
O38 C44 1.231 1_554 S
C39 O23 1.225 1_554 S
C39 O45 1.298 . S
C40 O29 1.226 . S
C40 O30 1.307 1_556 S
C41 O33 1.303 1_554 S
C41 O34 1.247 . S
C42 O31 1.253 . S
C42 O32 1.283 . S
C43 O35 1.304 . S
C43 O37 1.272 . S
C44 O36 1.311 . S
C44 O38 1.231 1_556 S
O45 Zn27 1.953 . S
O45 C39 1.298 . S
O46 Zn47 1.953 1_565 S
O46 C62 1.225 . S
Zn47 O46 1.953 1_545 S
Zn47 O48 1.949 . S
Zn47 O54 1.919 . S
Zn47 O59 1.924 . S
O48 Zn47 1.949 . S
O48 Zn49 1.923 . S
O48 Zn50 1.950 1_544 S
O48 Zn51 1.945 1_554 S
Zn49 O48 1.923 . S
Zn49 O52 1.933 . S
Zn49 O55 1.941 1_545 S
Zn49 O56 1.965 1_545 S
Zn50 O48 1.950 1_566 S
Zn50 O57 1.938 . S
Zn50 O58 1.906 . S
Zn50 O68 1.953 . S
Zn51 O48 1.945 1_556 S
Zn51 O53 1.932 . S
Zn51 O60 1.977 . S
Zn51 O61 1.910 . S
O52 Zn49 1.933 . S
O52 C63 1.226 . S
O53 Zn51 1.932 . S
O53 C63 1.307 1_556 S
O54 Zn47 1.919 . S
O54 C65 1.253 . S
O55 Zn49 1.941 1_565 S
O55 C65 1.283 1_565 S
O56 Zn49 1.965 1_565 S
O56 C64 1.303 1_554 S
O57 Zn50 1.938 . S
O57 C64 1.247 . S
O58 Zn50 1.906 . S
O58 C66 1.304 1_565 S
O59 Zn47 1.924 . S
O59 C67 1.311 . S
O60 Zn51 1.977 . S
O60 C66 1.272 . S
O61 Zn51 1.910 . S
O61 C67 1.231 1_556 S
C62 O46 1.225 . S
C62 O68 1.298 1_554 S
C63 O52 1.226 . S
C63 O53 1.307 1_554 S
C64 O56 1.303 1_556 S
C64 O57 1.247 . S
C65 O54 1.253 . S
C65 O55 1.283 1_545 S
C66 O58 1.304 1_545 S
C66 O60 1.272 . S
C67 O59 1.311 . S
C67 O61 1.231 1_554 S
O68 Zn50 1.953 . S
O68 C62 1.298 1_556 S
O69 Zn70 1.953 . S
O69 C85 1.225 . S
Zn70 O69 1.953 . S
Zn70 O71 1.949 . S
Zn70 O77 1.919 . S
Zn70 O82 1.924 . S
O71 Zn70 1.949 . S
O71 Zn72 1.923 . S
O71 Zn73 1.950 . S
O71 Zn74 1.945 . S
Zn72 O71 1.923 . S
Zn72 O75 1.933 . S
Zn72 O78 1.941 . S
Zn72 O79 1.965 . S
Zn73 O71 1.950 . S
Zn73 O80 1.938 . S
Zn73 O81 1.906 . S
Zn73 O91 1.953 . S
Zn74 O71 1.945 . S
Zn74 O76 1.932 . S
Zn74 O83 1.977 . S
Zn74 O84 1.910 . S
O75 Zn72 1.933 . S
O75 C86 1.226 . S
O76 Zn74 1.932 . S
O76 C86 1.307 . S
O77 Zn70 1.919 . S
O77 C88 1.253 . S
O78 Zn72 1.941 . S
O78 C88 1.283 . S
O79 Zn72 1.965 . S
O79 C87 1.303 . S
O80 Zn73 1.938 . S
O80 C87 1.247 . S
O81 Zn73 1.906 . S
O81 C89 1.304 . S
O82 Zn70 1.924 . S
O82 C90 1.311 . S
O83 Zn74 1.977 . S
O83 C89 1.272 . S
O84 Zn74 1.910 . S
O84 C90 1.231 . S
C85 O69 1.225 . S
C85 O91 1.298 . S
C86 O75 1.226 . S
C86 O76 1.307 . S
C87 O79 1.303 . S
C87 O80 1.247 . S
C88 O77 1.253 . S
C88 O78 1.283 . S
C89 O81 1.304 . S
C89 O83 1.272 . S
C90 O82 1.311 . S
C90 O84 1.231 . S
O91 Zn73 1.953 . S
O91 C85 1.298 . S
O92 Zn93 1.953 . S
O92 C108 1.225 . S
Zn93 O92 1.953 . S
Zn93 O94 1.949 . S
Zn93 O100 1.919 . S
Zn93 O105 1.924 . S
O94 Zn93 1.949 . S
O94 Zn95 1.923 1_565 S
O94 Zn96 1.950 . S
O94 Zn97 1.945 . S
Zn95 O94 1.923 1_545 S
Zn95 O98 1.933 . S
Zn95 O101 1.941 1_545 S
Zn95 O102 1.965 . S
Zn96 O94 1.950 . S
Zn96 O103 1.938 . S
Zn96 O104 1.906 . S
Zn96 O114 1.953 . S
Zn97 O94 1.945 . S
Zn97 O99 1.932 1_565 S
Zn97 O106 1.977 . S
Zn97 O107 1.910 . S
O98 Zn95 1.933 . S
O98 C109 1.226 . S
O99 Zn97 1.932 1_545 S
O99 C109 1.307 . S
O100 Zn93 1.919 . S
O100 C111 1.253 . S
O101 Zn95 1.941 1_565 S
O101 C111 1.283 . S
O102 Zn95 1.965 . S
O102 C110 1.303 1_545 S
O103 Zn96 1.938 . S
O103 C110 1.247 . S
O104 Zn96 1.906 . S
O104 C112 1.304 . S
O105 Zn93 1.924 . S
O105 C113 1.311 . S
O106 Zn97 1.977 . S
O106 C112 1.272 . S
O107 Zn97 1.910 . S
O107 C113 1.231 . S
C108 O92 1.225 . S
C108 O114 1.298 . S
C109 O98 1.226 . S
C109 O99 1.307 . S
C110 O102 1.303 1_565 S
C110 O103 1.247 . S
C111 O100 1.253 . S
C111 O101 1.283 . S
C112 O104 1.304 . S
C112 O106 1.272 . S
C113 O105 1.311 . S
C113 O107 1.231 . S
O114 Zn96 1.953 . S
O114 C108 1.298 . S
O115 Zn116 1.953 . S
O115 C131 1.225 . S
Zn116 O115 1.953 . S
Zn116 O117 1.949 . S
Zn116 O123 1.919 . S
Zn116 O128 1.924 . S
O117 Zn116 1.949 . S
O117 Zn118 1.923 . S
O117 Zn119 1.950 . S
O117 Zn120 1.945 . S
Zn118 O117 1.923 . S
Zn118 O121 1.933 1_455 S
Zn118 O124 1.941 . S
Zn118 O125 1.965 . S
Zn119 O117 1.950 . S
Zn119 O126 1.938 . S
Zn119 O127 1.906 . S
Zn119 O137 1.953 . S
Zn120 O117 1.945 . S
Zn120 O122 1.932 1_455 S
Zn120 O129 1.977 . S
Zn120 O130 1.910 . S
O121 Zn118 1.933 1_655 S
O121 C132 1.226 . S
O122 Zn120 1.932 1_655 S
O122 C132 1.307 . S
O123 Zn116 1.919 . S
O123 C134 1.253 . S
O124 Zn118 1.941 . S
O124 C134 1.283 . S
O125 Zn118 1.965 . S
O125 C133 1.303 . S
O126 Zn119 1.938 . S
O126 C133 1.247 . S
O127 Zn119 1.906 . S
O127 C135 1.304 . S
O128 Zn116 1.924 . S
O128 C136 1.311 . S
O129 Zn120 1.977 . S
O129 C135 1.272 . S
O130 Zn120 1.910 . S
O130 C136 1.231 . S
C131 O115 1.225 . S
C131 O137 1.298 . S
C132 O121 1.226 . S
C132 O122 1.307 . S
C133 O125 1.303 . S
C133 O126 1.247 . S
C134 O123 1.253 . S
C134 O124 1.283 . S
C135 O127 1.304 . S
C135 O129 1.272 . S
C136 O128 1.311 . S
C136 O130 1.231 . S
O137 Zn119 1.953 . S
O137 C131 1.298 . S
O138 Zn139 1.953 . S
O138 C154 1.225 . S
Zn139 O138 1.953 . S
Zn139 O140 1.949 . S
Zn139 O146 1.919 . S
Zn139 O151 1.924 . S
O140 Zn139 1.949 . S
O140 Zn141 1.923 . S
O140 Zn142 1.950 . S
O140 Zn143 1.945 . S
Zn141 O140 1.923 . S
Zn141 O144 1.933 . S
Zn141 O147 1.941 . S
Zn141 O148 1.965 1_545 S
Zn142 O140 1.950 . S
Zn142 O149 1.938 1_545 S
Zn142 O150 1.906 . S
Zn142 O160 1.953 . S
Zn143 O140 1.945 . S
Zn143 O145 1.932 . S
Zn143 O152 1.977 . S
Zn143 O153 1.910 . S
O144 Zn141 1.933 . S
O144 C155 1.226 . S
O145 Zn143 1.932 . S
O145 C155 1.307 . S
O146 Zn139 1.919 . S
O146 C157 1.253 . S
O147 Zn141 1.941 . S
O147 C157 1.283 . S
O148 Zn141 1.965 1_565 S
O148 C156 1.303 . S
O149 Zn142 1.938 1_565 S
O149 C156 1.247 . S
O150 Zn142 1.906 . S
O150 C158 1.304 . S
O151 Zn139 1.924 . S
O151 C159 1.311 . S
O152 Zn143 1.977 . S
O152 C158 1.272 . S
O153 Zn143 1.910 . S
O153 C159 1.231 . S
C154 O138 1.225 . S
C154 O160 1.298 . S
C155 O144 1.226 . S
C155 O145 1.307 . S
C156 O148 1.303 . S
C156 O149 1.247 . S
C157 O146 1.253 . S
C157 O147 1.283 . S
C158 O150 1.304 . S
C158 O152 1.272 . S
C159 O151 1.311 . S
C159 O153 1.231 . S
O160 Zn142 1.953 . S
O160 C154 1.298 . S
O161 Zn162 1.953 . S
O161 C177 1.225 . S
Zn162 O161 1.953 . S
Zn162 O163 1.949 . S
Zn162 O169 1.919 . S
Zn162 O174 1.924 . S
O163 Zn162 1.949 . S
O163 Zn164 1.923 . S
O163 Zn165 1.950 . S
O163 Zn166 1.945 . S
Zn164 O163 1.923 . S
Zn164 O167 1.934 . S
Zn164 O170 1.941 . S
Zn164 O171 1.965 1_655 S
Zn165 O163 1.950 . S
Zn165 O172 1.938 1_655 S
Zn165 O173 1.906 . S
Zn165 O183 1.953 . S
Zn166 O163 1.945 . S
Zn166 O168 1.932 . S
Zn166 O175 1.977 . S
Zn166 O176 1.910 . S
O167 Zn164 1.934 . S
O167 C178 1.225 . S
O168 Zn166 1.932 . S
O168 C178 1.307 . S
O169 Zn162 1.919 . S
O169 C180 1.253 . S
O170 Zn164 1.941 . S
O170 C180 1.283 . S
O171 Zn164 1.965 1_455 S
O171 C179 1.303 . S
O172 Zn165 1.938 1_455 S
O172 C179 1.247 . S
O173 Zn165 1.906 . S
O173 C181 1.304 . S
O174 Zn162 1.924 . S
O174 C182 1.311 . S
O175 Zn166 1.977 . S
O175 C181 1.272 . S
O176 Zn166 1.910 . S
O176 C182 1.231 . S
C177 O161 1.225 . S
C177 O183 1.298 . S
C178 O167 1.225 . S
C178 O168 1.307 . S
C179 O171 1.303 . S
C179 O172 1.247 . S
C180 O169 1.253 . S
C180 O170 1.283 . S
C181 O173 1.304 . S
C181 O175 1.272 . S
C182 O174 1.311 . S
C182 O176 1.231 . S
O183 Zn165 1.953 . S
O183 C177 1.298 . S
O184 Zn185 1.953 . S
O184 C200 1.225 . S
Zn185 O184 1.953 . S
Zn185 O186 1.949 . S
Zn185 O192 1.919 . S
Zn185 O197 1.924 . S
O186 Zn185 1.949 . S
O186 Zn187 1.923 . S
O186 Zn188 1.950 . S
O186 Zn189 1.945 . S
Zn187 O186 1.923 . S
Zn187 O190 1.933 . S
Zn187 O193 1.941 . S
Zn187 O194 1.965 . S
Zn188 O186 1.950 . S
Zn188 O195 1.938 . S
Zn188 O196 1.906 . S
Zn188 O206 1.953 . S
Zn189 O186 1.945 . S
Zn189 O191 1.932 . S
Zn189 O198 1.977 . S
Zn189 O199 1.910 . S
O190 Zn187 1.933 . S
O190 C201 1.226 . S
O191 Zn189 1.932 . S
O191 C201 1.307 . S
O192 Zn185 1.919 . S
O192 C203 1.253 . S
O193 Zn187 1.941 . S
O193 C203 1.283 . S
O194 Zn187 1.965 . S
O194 C202 1.303 . S
O195 Zn188 1.938 . S
O195 C202 1.247 . S
O196 Zn188 1.906 . S
O196 C204 1.304 . S
O197 Zn185 1.924 . S
O197 C205 1.311 . S
O198 Zn189 1.977 . S
O198 C204 1.272 . S
O199 Zn189 1.910 . S
O199 C205 1.231 . S
C200 O184 1.225 . S
C200 O206 1.298 . S
C201 O190 1.226 . S
C201 O191 1.307 . S
C202 O194 1.303 . S
C202 O195 1.247 . S
C203 O192 1.253 . S
C203 O193 1.283 . S
C204 O196 1.304 . S
C204 O198 1.272 . S
C205 O197 1.311 . S
C205 O199 1.231 . S
O206 Zn188 1.953 . S
O206 C200 1.298 . S
C207 C208 1.402 . S
C207 H211 0.950 . S
C207 C216 1.390 . S
C208 C207 1.402 . S
C208 C210 1.373 1_554 S
H209 C216 0.950 . S
C210 C208 1.373 1_556 S
C210 C212 1.390 . S
C210 H214 0.950 . S
H211 C207 0.950 . S
C212 C210 1.390 . S
C212 C213 1.394 . S
C212 H215 0.950 . S
C213 C212 1.394 . S
C213 C216 1.381 1_556 S
H214 C210 0.950 . S
H215 C212 0.950 . S
C216 C207 1.390 . S
C216 H209 0.950 . S
C216 C213 1.381 1_554 S
C217 C218 1.377 1_554 S
C217 H221 0.950 . S
C217 C226 1.390 . S
C218 C217 1.377 1_556 S
C218 C220 1.399 . S
H219 C226 0.950 . S
C220 C218 1.399 . S
C220 C222 1.390 . S
C220 H224 0.950 . S
H221 C217 0.950 . S
C222 C220 1.390 . S
C222 C223 1.387 . S
C222 H225 0.950 . S
C223 C222 1.387 . S
C223 C226 1.387 1_556 S
H224 C220 0.950 . S
H225 C222 0.950 . S
C226 C217 1.390 . S
C226 H219 0.950 . S
C226 C223 1.387 1_554 S
C227 C228 1.387 . S
C227 H231 0.950 . S
C227 C236 1.390 . S
C228 C227 1.387 . S
C228 C230 1.387 1_554 S
H229 C236 0.950 . S
C230 C228 1.387 1_556 S
C230 C232 1.390 . S
C230 H234 0.950 . S
H231 C227 0.950 . S
C232 C230 1.390 . S
C232 C233 1.360 1_556 S
C232 H235 0.950 . S
C233 C232 1.360 1_554 S
C233 C236 1.416 . S
H234 C230 0.950 . S
H235 C232 0.950 . S
C236 C227 1.390 . S
C236 H229 0.950 . S
C236 C233 1.416 . S
C237 C238 1.387 1_556 S
C237 H241 0.950 . S
C237 C246 1.390 . S
C238 C237 1.387 1_554 S
C238 C240 1.387 . S
H239 C246 0.950 . S
C240 C238 1.387 . S
C240 C242 1.390 . S
C240 H244 0.950 . S
H241 C237 0.950 . S
C242 C240 1.390 . S
C242 C243 1.387 . S
C242 H245 0.950 . S
C243 C242 1.387 . S
C243 C246 1.387 1_554 S
H244 C240 0.950 . S
H245 C242 0.950 . S
C246 C237 1.390 . S
C246 H239 0.950 . S
C246 C243 1.387 1_556 S
C247 C248 1.387 1_556 S
C247 H251 0.950 . S
C247 C256 1.390 . S
C248 C247 1.387 1_554 S
C248 C250 1.387 . S
H249 C256 0.950 . S
C250 C248 1.387 . S
C250 C252 1.390 . S
C250 H254 0.950 . S
H251 C247 0.950 . S
C252 C250 1.390 . S
C252 C253 1.387 . S
C252 H255 0.950 . S
C253 C252 1.387 . S
C253 C256 1.387 1_554 S
H254 C250 0.950 . S
H255 C252 0.950 . S
C256 C247 1.390 . S
C256 H249 0.950 . S
C256 C253 1.387 1_556 S
C257 C258 1.387 . S
C257 H261 0.950 . S
C257 C266 1.390 . S
C258 C257 1.387 . S
C258 C260 1.387 1_554 S
H259 C266 0.950 . S
C260 C258 1.387 1_556 S
C260 C262 1.390 . S
C260 H264 0.950 . S
H261 C257 0.950 . S
C262 C260 1.390 . S
C262 C263 1.387 1_556 S
C262 H265 0.950 . S
C263 C262 1.387 1_554 S
C263 C266 1.387 . S
H264 C260 0.950 . S
H265 C262 0.950 . S
C266 C257 1.390 . S
C266 H259 0.950 . S
C266 C263 1.387 . S
C267 C268 1.387 . S
C267 H271 0.950 . S
C267 C276 1.390 . S
C268 C267 1.387 . S
C268 C270 1.387 . S
H269 C276 0.950 1_455 S
C270 C268 1.387 . S
C270 C272 1.390 . S
C270 H274 0.950 . S
H271 C267 0.950 . S
C272 C270 1.390 . S
C272 C273 1.387 1_655 S
C272 H275 0.950 1_655 S
C273 C272 1.387 1_455 S
C273 C276 1.387 1_455 S
H274 C270 0.950 . S
H275 C272 0.950 1_455 S
C276 C267 1.390 . S
C276 H269 0.950 1_655 S
C276 C273 1.387 1_655 S
C277 C278 1.387 . S
C277 H281 0.950 . S
C277 C286 1.390 . S
C278 C277 1.387 . S
C278 C280 1.387 . S
H279 C286 0.950 . S
C280 C278 1.387 . S
C280 C282 1.390 . S
C280 H284 0.950 . S
H281 C277 0.950 . S
C282 C280 1.390 . S
C282 C283 1.387 . S
C282 H285 0.950 . S
C283 C282 1.387 . S
C283 C286 1.387 . S
H284 C280 0.950 . S
H285 C282 0.950 . S
C286 C277 1.390 . S
C286 H279 0.950 . S
C286 C283 1.387 . S
C287 C288 1.387 . S
C287 H291 0.950 . S
C287 C296 1.390 . S
C288 C287 1.387 . S
C288 C290 1.387 . S
H289 C296 0.950 . S
C290 C288 1.387 . S
C290 C292 1.390 . S
C290 H294 0.950 . S
H291 C287 0.950 . S
C292 C290 1.390 . S
C292 C293 1.387 . S
C292 H295 0.950 . S
C293 C292 1.387 . S
C293 C296 1.387 . S
H294 C290 0.950 . S
H295 C292 0.950 . S
C296 C287 1.390 . S
C296 H289 0.950 . S
C296 C293 1.387 . S
C297 C298 1.387 . S
C297 H301 0.950 . S
C297 C306 1.390 . S
C298 C297 1.387 . S
C298 C300 1.387 . S
H299 C306 0.950 . S
C300 C298 1.387 . S
C300 C302 1.390 . S
C300 H304 0.950 . S
H301 C297 0.950 . S
C302 C300 1.390 . S
C302 C303 1.387 . S
C302 H305 0.950 . S
C303 C302 1.387 . S
C303 C306 1.387 . S
H304 C300 0.950 . S
H305 C302 0.950 . S
C306 C297 1.390 . S
C306 H299 0.950 . S
C306 C303 1.387 . S
C307 C308 1.387 . S
C307 H311 0.950 . S
C307 C316 1.390 . S
C308 C307 1.387 . S
C308 C310 1.387 . S
H309 C316 0.950 . S
C310 C308 1.387 . S
C310 C312 1.390 . S
C310 H314 0.950 . S
H311 C307 0.950 . S
C312 C310 1.390 . S
C312 C313 1.387 . S
C312 H315 0.950 . S
C313 C312 1.387 . S
C313 C316 1.387 . S
H314 C310 0.950 . S
H315 C312 0.950 . S
C316 C307 1.390 . S
C316 H309 0.950 . S
C316 C313 1.387 . S
C317 C318 1.387 . S
C317 H321 0.950 . S
C317 C326 1.390 . S
C318 C317 1.387 . S
C318 C320 1.387 . S
H319 C326 0.950 . S
C320 C318 1.387 . S
C320 C322 1.390 . S
C320 H324 0.950 . S
H321 C317 0.950 . S
C322 C320 1.390 . S
C322 C323 1.387 . S
C322 H325 0.950 . S
C323 C322 1.387 . S
C323 C326 1.387 . S
H324 C320 0.950 . S
H325 C322 0.950 . S
C326 C317 1.390 . S
C326 H319 0.950 . S
C326 C323 1.387 . S
C327 C328 1.387 . S
C327 H331 0.950 . S
C327 C336 1.390 . S
C328 C327 1.387 . S
C328 C330 1.387 . S
H329 C336 0.950 . S
C330 C328 1.387 . S
C330 C332 1.390 . S
C330 H334 0.950 . S
H331 C327 0.950 . S
C332 C330 1.390 . S
C332 C333 1.387 . S
C332 H335 0.950 . S
C333 C332 1.387 . S
C333 C336 1.387 . S
H334 C330 0.950 . S
H335 C332 0.950 . S
C336 C327 1.390 . S
C336 H329 0.950 . S
C336 C333 1.387 . S
C337 C338 1.387 . S
C337 H341 0.950 . S
C337 C346 1.390 . S
C338 C337 1.387 . S
C338 C340 1.387 . S
H339 C346 0.950 . S
C340 C338 1.387 . S
C340 C342 1.390 . S
C340 H344 0.950 . S
H341 C337 0.950 . S
C342 C340 1.390 . S
C342 C343 1.387 . S
C342 H345 0.950 . S
C343 C342 1.387 . S
C343 C346 1.387 . S
H344 C340 0.950 . S
H345 C342 0.950 . S
C346 C337 1.390 . S
C346 H339 0.950 . S
C346 C343 1.387 . S
C347 C348 1.387 . S
C347 H351 0.950 . S
C347 C356 1.390 . S
C348 C347 1.387 . S
C348 C350 1.387 . S
H349 C356 0.950 . S
C350 C348 1.387 . S
C350 C352 1.390 . S
C350 H354 0.950 . S
H351 C347 0.950 . S
C352 C350 1.390 . S
C352 C353 1.387 . S
C352 H355 0.950 . S
C353 C352 1.387 . S
C353 C356 1.387 . S
H354 C350 0.950 . S
H355 C352 0.950 . S
C356 C347 1.390 . S
C356 H349 0.950 . S
C356 C353 1.387 . S
C357 C358 1.387 . S
C357 H361 0.950 . S
C357 C366 1.390 . S
C358 C357 1.387 . S
C358 C360 1.387 . S
H359 C366 0.950 . S
C360 C358 1.387 . S
C360 C362 1.390 . S
C360 H364 0.950 . S
H361 C357 0.950 . S
C362 C360 1.390 . S
C362 C363 1.387 1_565 S
C362 H365 0.950 . S
C363 C362 1.387 1_545 S
C363 C366 1.387 1_545 S
H364 C360 0.950 . S
H365 C362 0.950 . S
C366 C357 1.390 . S
C366 H359 0.950 . S
C366 C363 1.387 1_565 S
C367 C368 1.387 . S
C367 H371 0.950 . S
C367 C376 1.390 . S
C368 C367 1.387 . S
C368 C370 1.387 . S
H369 C376 0.950 . S
C370 C368 1.387 . S
C370 C372 1.390 . S
C370 H374 0.950 . S
H371 C367 0.950 . S
C372 C370 1.390 . S
C372 C373 1.387 . S
C372 H375 0.950 . S
C373 C372 1.387 . S
C373 C376 1.387 . S
H374 C370 0.950 . S
H375 C372 0.950 . S
C376 C367 1.390 . S
C376 H369 0.950 . S
C376 C373 1.387 . S
C377 C378 1.387 . S
C377 H381 0.950 . S
C377 C386 1.390 . S
C378 C377 1.387 . S
C378 C380 1.387 . S
H379 C386 0.950 . S
C380 C378 1.387 . S
C380 C382 1.390 . S
C380 H384 0.950 . S
H381 C377 0.950 . S
C382 C380 1.390 . S
C382 C383 1.387 . S
C382 H385 0.950 . S
C383 C382 1.387 . S
C383 C386 1.387 . S
H384 C380 0.950 . S
H385 C382 0.950 . S
C386 C377 1.390 . S
C386 H379 0.950 . S
C386 C383 1.387 . S
C387 C388 1.387 . S
C387 H391 0.950 . S
C387 C396 1.390 . S
C388 C387 1.387 . S
C388 C390 1.387 . S
H389 C396 0.950 . S
C390 C388 1.387 . S
C390 C392 1.390 . S
C390 H394 0.950 . S
H391 C387 0.950 . S
C392 C390 1.390 . S
C392 C393 1.387 . S
C392 H395 0.950 . S
C393 C392 1.387 . S
C393 C396 1.387 . S
H394 C390 0.950 . S
H395 C392 0.950 . S
C396 C387 1.390 . S
C396 H389 0.950 . S
C396 C393 1.387 . S
C397 C398 1.387 . S
C397 H401 0.950 . S
C397 C406 1.390 . S
C398 C397 1.387 . S
C398 C400 1.387 . S
H399 C406 0.950 . S
C400 C398 1.387 . S
C400 C402 1.390 . S
C400 H404 0.950 . S
H401 C397 0.950 . S
C402 C400 1.390 . S
C402 C403 1.387 . S
C402 H405 0.950 . S
C403 C402 1.387 . S
C403 C406 1.387 . S
H404 C400 0.950 . S
H405 C402 0.950 . S
C406 C397 1.390 . S
C406 H399 0.950 . S
C406 C403 1.387 . S
C407 C408 1.387 1_565 S
C407 H411 0.950 . S
C407 C416 1.390 . S
C408 C407 1.387 1_545 S
C408 C410 1.387 . S
H409 C416 0.950 . S
C410 C408 1.387 . S
C410 C412 1.390 . S
C410 H414 0.950 . S
H411 C407 0.950 . S
C412 C410 1.390 . S
C412 C413 1.387 1_545 S
C412 H415 0.950 . S
C413 C412 1.387 1_565 S
C413 C416 1.387 . S
H414 C410 0.950 . S
H415 C412 0.950 . S
C416 C407 1.390 . S
C416 H409 0.950 . S
C416 C413 1.387 . S
C417 C418 1.387 . S
C417 H421 0.950 1_545 S
C417 C426 1.390 . S
C418 C417 1.387 . S
C418 C420 1.387 . S
H419 C426 0.950 . S
C420 C418 1.387 . S
C420 C422 1.390 . S
C420 H424 0.950 . S
H421 C417 0.950 1_565 S
C422 C420 1.390 . S
C422 C423 1.387 . S
C422 H425 0.950 . S
C423 C422 1.387 . S
C423 C426 1.387 . S
H424 C420 0.950 . S
H425 C422 0.950 . S
C426 C417 1.390 . S
C426 H419 0.950 . S
C426 C423 1.387 . S
C427 C428 1.387 . S
C427 H431 0.950 . S
C427 C436 1.390 . S
C428 C427 1.387 . S
C428 C430 1.387 . S
H429 C436 0.950 . S
C430 C428 1.387 . S
C430 C432 1.390 . S
C430 H434 0.950 1_655 S
H431 C427 0.950 . S
C432 C430 1.390 . S
C432 C433 1.387 . S
C432 H435 0.950 . S
C433 C432 1.387 . S
C433 C436 1.387 . S
H434 C430 0.950 1_455 S
H435 C432 0.950 . S
C436 C427 1.390 . S
C436 H429 0.950 . S
C436 C433 1.387 . S
C437 C438 1.387 . S
C437 H441 0.950 . S
C437 C446 1.390 . S
C438 C437 1.387 . S
C438 C440 1.387 . S
H439 C446 0.950 . S
C440 C438 1.387 . S
C440 C442 1.390 . S
C440 H444 0.950 . S
H441 C437 0.950 . S
C442 C440 1.390 . S
C442 C443 1.387 . S
C442 H445 0.950 . S
C443 C442 1.387 . S
C443 C446 1.387 . S
H444 C440 0.950 . S
H445 C442 0.950 . S
C446 C437 1.390 . S
C446 H439 0.950 . S
C446 C443 1.387 . S
C447 C448 1.387 . S
C447 H451 0.950 . S
C447 C456 1.390 . S
C448 C447 1.387 . S
C448 C450 1.387 . S
H449 C456 0.950 . S
C450 C448 1.387 . S
C450 C452 1.390 . S
C450 H454 0.950 . S
H451 C447 0.950 . S
C452 C450 1.390 . S
C452 C453 1.387 . S
C452 H455 0.950 . S
C453 C452 1.387 . S
C453 C456 1.387 . S
H454 C450 0.950 . S
H455 C452 0.950 . S
C456 C447 1.390 . S
C456 H449 0.950 . S
C456 C453 1.387 . S
C457 C458 1.387 . S
C457 H461 0.950 . S
C457 C466 1.390 . S
C458 C457 1.387 . S
C458 C460 1.387 1_545 S
H459 C466 0.950 . S
C460 C458 1.387 1_565 S
C460 C462 1.390 1_565 S
C460 H464 0.950 . S
H461 C457 0.950 . S
C462 C460 1.390 1_545 S
C462 C463 1.387 . S
C462 H465 0.950 1_545 S
C463 C462 1.387 . S
C463 C466 1.387 . S
H464 C460 0.950 . S
H465 C462 0.950 1_565 S
C466 C457 1.390 . S
C466 H459 0.950 . S
C466 C463 1.387 . S
C467 C468 1.387 . S
C467 H471 0.950 . S
C467 C476 1.390 1_655 S
C468 C467 1.387 . S
C468 C470 1.387 1_655 S
H469 C476 0.956 1_655 S
C470 C468 1.387 1_455 S
C470 C472 1.390 . S
C470 H474 0.950 . S
H471 C467 0.950 . S
C472 C470 1.390 . S
C472 C473 1.387 . S
C472 H475 0.950 . S
C473 C472 1.387 . S
C473 C476 1.387 . S
H474 C470 0.950 . S
H475 C472 0.950 . S
C476 C467 1.390 1_455 S
C476 H469 0.956 1_455 S
C476 C473 1.387 . S
C208 C44 1.341 1_554 S
C213 C17 1.227 1_556 S
C218 C62 1.527 1_556 S
C223 C40 1.401 . S
C228 C64 1.266 1_554 S
C233 C21 1.282 1_554 S
C238 C63 1.271 . S
C243 C39 1.381 . S
C248 C67 0.971 . S
C253 C18 0.963 . S
C258 C16 1.324 . S
C263 C41 1.302 . S
C268 C86 1.302 . S
C273 C113 1.394 . S
C278 C136 1.523 . S
C283 C109 1.404 . S
C288 C132 1.184 . S
C293 C90 1.285 1_545 S
C298 C108 1.265 . S
C303 C133 1.247 . S
C308 C131 1.027 . S
C313 C87 1.015 . S
C318 C110 1.133 . S
C323 C85 1.150 . S
C328 C182 1.207 . S
C333 C155 1.134 . S
C338 C178 1.442 . S
C343 C200 1.556 . S
C348 C202 1.159 . S
C353 C159 1.167 . S
C358 C201 1.169 . S
C363 C177 1.267 . S
C368 C205 1.018 1_455 S
C373 C156 1.013 . S
C378 C154 1.215 . S
C383 C179 1.199 . S
C388 C134 1.560 . S
C393 C20 1.653 . S
C398 C88 1.723 . S
C403 C43 1.859 . S
C408 C65 1.654 . S
C413 C111 1.630 . S
C418 C66 1.590 . S
C423 C158 1.590 . S
C428 C19 1.628 . S
C433 C181 1.748 . S
C438 C203 1.755 . S
C443 C42 1.752 . S
C448 C89 1.716 . S
C453 C204 1.714 . S
C458 C112 1.635 1_545 S
C463 C157 1.534 . S
C468 C180 1.689 . S
C473 C135 1.804 . S
