# Generated by pormake.
# Topology smc, (6)-cn, num edge types: 1
# Building blocks:
#     Node 0, Type 0, BuildingBlock: PAMTOO_clean_sbu_0, # of connection points: 6
#     Node 1, Type 0, BuildingBlock: PAMTOO_clean_sbu_0, # of connection points: 6
#     Node 2, Type 0, BuildingBlock: PAMTOO_clean_sbu_0, # of connection points: 6
#     Node 3, Type 0, BuildingBlock: PAMTOO_clean_sbu_0, # of connection points: 6
#     Node 4, Type 0, BuildingBlock: PAMTOO_clean_sbu_0, # of connection points: 6
#     Node 5, Type 0, BuildingBlock: PAMTOO_clean_sbu_0, # of connection points: 6
#     Node 6, Type 0, BuildingBlock: PAMTOO_clean_sbu_0, # of connection points: 6
#     Node 7, Type 0, BuildingBlock: PAMTOO_clean_sbu_0, # of connection points: 6
#     Node 8, Type 0, BuildingBlock: PAMTOO_clean_sbu_0, # of connection points: 6
#     Edge 9, Type (0, 0), BuildingBlock: XIVTED_clean_linker_0, # of connection points: 2
#     Edge 10, Type (0, 0), BuildingBlock: XIVTED_clean_linker_0, # of connection points: 2
#     Edge 11, Type (0, 0), BuildingBlock: XIVTED_clean_linker_0, # of connection points: 2
#     Edge 12, Type (0, 0), BuildingBlock: XIVTED_clean_linker_0, # of connection points: 2
#     Edge 13, Type (0, 0), BuildingBlock: XIVTED_clean_linker_0, # of connection points: 2
#     Edge 14, Type (0, 0), BuildingBlock: XIVTED_clean_linker_0, # of connection points: 2
#     Edge 15, Type (0, 0), BuildingBlock: XIVTED_clean_linker_0, # of connection points: 2
#     Edge 16, Type (0, 0), BuildingBlock: XIVTED_clean_linker_0, # of connection points: 2
#     Edge 17, Type (0, 0), BuildingBlock: XIVTED_clean_linker_0, # of connection points: 2
#     Edge 18, Type (0, 0), BuildingBlock: XIVTED_clean_linker_0, # of connection points: 2
#     Edge 19, Type (0, 0), BuildingBlock: XIVTED_clean_linker_0, # of connection points: 2
#     Edge 20, Type (0, 0), BuildingBlock: XIVTED_clean_linker_0, # of connection points: 2
#     Edge 21, Type (0, 0), BuildingBlock: XIVTED_clean_linker_0, # of connection points: 2
#     Edge 22, Type (0, 0), BuildingBlock: XIVTED_clean_linker_0, # of connection points: 2
#     Edge 23, Type (0, 0), BuildingBlock: XIVTED_clean_linker_0, # of connection points: 2
#     Edge 24, Type (0, 0), BuildingBlock: XIVTED_clean_linker_0, # of connection points: 2
#     Edge 25, Type (0, 0), BuildingBlock: XIVTED_clean_linker_0, # of connection points: 2
#     Edge 26, Type (0, 0), BuildingBlock: XIVTED_clean_linker_0, # of connection points: 2
#     Edge 27, Type (0, 0), BuildingBlock: XIVTED_clean_linker_0, # of connection points: 2
#     Edge 28, Type (0, 0), BuildingBlock: XIVTED_clean_linker_0, # of connection points: 2
#     Edge 29, Type (0, 0), BuildingBlock: XIVTED_clean_linker_0, # of connection points: 2
#     Edge 30, Type (0, 0), BuildingBlock: XIVTED_clean_linker_0, # of connection points: 2
#     Edge 31, Type (0, 0), BuildingBlock: XIVTED_clean_linker_0, # of connection points: 2
#     Edge 32, Type (0, 0), BuildingBlock: XIVTED_clean_linker_0, # of connection points: 2
#     Edge 33, Type (0, 0), BuildingBlock: XIVTED_clean_linker_0, # of connection points: 2
#     Edge 34, Type (0, 0), BuildingBlock: XIVTED_clean_linker_0, # of connection points: 2
#     Edge 35, Type (0, 0), BuildingBlock: XIVTED_clean_linker_0, # of connection points: 2
# Relax obj value: 0.297
# Max RMSD: 0.345
# Mean RMSD: 0.309
data_MOF--net-smc--node1-PAMTOO_clean_sbu_0--edge1-XIVTED_clean_linker_0
_symmetry_space_group_name_H-M    P1
_symmetry_Int_Tables_number       1
_symmetry_cell_setting            triclinic
loop_
_symmetry_equiv_pos_as_xyz
'x, y, z'
_cell_length_a     42.797578
_cell_length_b     31.645736
_cell_length_c     39.26766
_cell_angle_alpha  90.274071
_cell_angle_beta   90.123584
_cell_angle_gamma 119.04914
loop_
_atom_site_label
_atom_site_type_symbol
_atom_site_fract_x
_atom_site_fract_y
_atom_site_fract_z
_atom_type_partial_charge
Dy0 Dy 0.0777 0.42043 0.999 0.0
Dy1 Dy 1.04799 0.49342 0.02186 0.0
C2 C 0.09516 0.46705 0.07494 0.0
O3 O 1.01956 0.37527 1.01204 0.0
O4 O 1.01866 0.42684 0.05211 0.0
O5 O 0.08579 0.35885 1.00786 0.0
O6 O 0.10119 0.39708 0.9599 0.0
O7 O 1.01418 0.45079 0.97661 0.0
O8 O 1.05507 0.43409 0.95185 0.0
O9 O 0.09406 0.53469 0.98733 0.0
O10 O 0.1251 0.49551 1.0003 0.0
O11 O 1.00581 0.51154 1.01894 0.0
O12 O 1.05481 0.5593 0.04592 0.0
C13 C 1.00418 0.38395 0.03805 0.0
O14 O 0.09573 0.43604 0.05302 0.0
O15 O 0.07974 0.49352 0.06813 0.0
C16 C 0.14409 0.38486 0.98705 0.0
C17 C 0.21438 0.4611 0.99034 0.0
C18 C 0.19399 0.44509 0.02011 0.0
C19 C 0.15914 0.40684 1.01854 0.0
C20 C 0.16645 0.39549 0.95866 0.0
C21 C 0.20139 0.4337 0.96024 0.0
C22 C 0.1061 0.36901 0.98095 0.0
C23 C 1.02496 0.43535 0.95034 0.0
C24 C 0.1245 0.53451 0.98994 0.0
C25 C 1.00068 0.55459 0.06626 0.0
C26 C 0.95748 0.57343 0.11139 0.0
C27 C 0.94269 0.53102 0.09141 0.0
C28 C 0.96402 0.52164 0.06921 0.0
C29 C 1.01596 0.59549 0.08759 0.0
C30 C 0.99464 0.60466 0.11012 0.0
C31 C 1.02212 0.54927 0.03878 0.0
H32 H 0.20351 0.46496 0.04384 0.0
H33 H 0.14275 0.39899 0.04108 0.0
H34 H 0.15554 0.37885 0.93417 0.0
H35 H 0.2172 0.44424 0.93721 0.0
H36 H 0.9142 0.50634 0.09119 0.0
H37 H 0.95131 0.48964 0.05322 0.0
H38 H 1.04417 0.62142 0.08589 0.0
H39 H 1.0071 0.6372 0.12557 0.0
Dy40 Dy 0.64601 0.65952 0.03204 0.0
Dy41 Dy 0.57699 0.62042 0.98763 0.0
C42 C 0.6543 0.66301 0.95289 0.0
O43 O 0.62833 0.71902 0.0352 0.0
O44 O 0.59703 0.70012 0.98562 0.0
O45 O 0.70155 0.68103 0.03883 0.0
O46 O 0.67148 0.68853 0.08081 0.0
O47 O 0.56773 0.63792 0.04259 0.0
O48 O 0.60034 0.60653 0.06144 0.0
O49 O 0.57469 0.54956 0.99957 0.0
O50 O 0.63148 0.57911 0.02103 0.0
O51 O 0.51982 0.57712 0.98256 0.0
O52 O 0.55146 0.62156 0.94054 0.0
C53 C 0.61076 0.72964 1.0116 0.0
O54 O 0.6658 0.6893 0.98052 0.0
O55 O 0.62136 0.62639 0.95226 0.0
C56 C 0.71942 0.67394 0.09427 0.0
C57 C 0.76431 0.64804 0.1306 0.0
C58 C 0.73878 0.61538 0.10738 0.0
C59 C 0.71646 0.6282 0.0894 0.0
C60 C 0.74275 0.70504 0.11927 0.0
C61 C 0.76495 0.69216 0.13741 0.0
C62 C 0.70174 0.69196 0.07099 0.0
C63 C 0.57835 0.62216 0.06876 0.0
C64 C 0.60044 0.54166 1.01063 0.0
C65 C 0.49727 0.61943 0.95176 0.0
C66 C 0.44973 0.6566 0.95538 0.0
C67 C 0.48073 0.67658 0.97568 0.0
C68 C 0.50418 0.6578 0.97407 0.0
C69 C 0.46818 0.60216 0.92944 0.0
C70 C 0.44453 0.62061 0.93119 0.0
C71 C 0.51955 0.59623 0.95321 0.0
H72 H 0.73769 0.58129 0.10125 0.0
H73 H 0.69839 0.60355 0.07032 0.0
H74 H 0.74512 0.74034 0.12354 0.0
H75 H 0.78383 0.71773 0.15557 0.0
H76 H 0.4856 0.70445 0.99436 0.0
H77 H 0.52671 0.67157 0.99144 0.0
H78 H 0.46274 0.57277 0.91194 0.0
H79 H 0.42066 0.60379 0.91549 0.0
Dy80 Dy 0.49287 1.05585 1.01126 0.0
Dy81 Dy 0.56709 0.11114 0.05032 0.0
C82 C 0.49273 1.05353 0.09159 0.0
O83 O 0.50913 0.13955 1.01179 0.0
O84 O 0.56101 0.17585 0.0435 0.0
O85 O 0.43605 1.03058 1.01325 0.0
O86 O 0.45943 1.02182 0.96692 0.0
O87 O 0.57405 0.13761 0.99483 0.0
O88 O 0.53322 0.06635 0.973 0.0
O89 O 0.55714 1.03422 0.04836 0.0
O90 O 0.50956 0.9965 1.01212 0.0
O91 O 0.61797 0.11412 0.05324 0.0
O92 O 0.60577 0.15731 0.08849 0.0
C93 C 0.53624 0.17944 0.02618 0.0
O94 O 0.48047 1.02743 0.06398 0.0
O95 O 0.52479 0.09199 0.09152 0.0
C96 C 0.40155 0.95912 0.98112 0.0
C97 C 0.34514 0.86207 0.97804 0.0
C98 C 0.37139 0.87722 1.00386 0.0
C99 C 0.39929 0.92519 1.00535 0.0
C100 C 0.376 0.94399 0.95494 0.0
C101 C 0.34818 0.89609 0.95336 0.0
C102 C 0.42991 1.01034 0.9832 0.0
C103 C 0.55867 0.10996 0.96796 0.0
C104 C 0.53607 0.99639 0.02969 0.0
C105 C 0.66703 0.18295 0.07604 0.0
C106 C 0.7418 0.234 0.06952 0.0
C107 C 0.71968 0.22874 0.04144 0.0
C108 C 0.6825 0.20335 0.04467 0.0
C109 C 0.68893 0.19124 0.1046 0.0
C110 C 0.72603 0.21661 0.10143 0.0
C111 C 0.6295 0.1455 0.07816 0.0
H112 H 0.36989 0.85241 0.02349 0.0
H113 H 0.41882 0.93597 0.02576 0.0
H114 H 0.37737 0.9694 0.93582 0.0
H115 H 0.329 0.88576 0.93271 0.0
H116 H 0.73108 0.24257 1.01669 0.0
H117 H 0.66594 0.19717 0.0223 0.0
H118 H 0.67738 0.17527 0.12891 0.0
H119 H 0.74225 0.21974 0.1235 0.0
Dy120 Dy 0.75325 0.79409 0.34117 0.0
Dy121 Dy 0.69172 0.83367 0.36521 0.0
C122 C 0.74417 0.81686 0.4193 0.0
O123 O 0.69556 0.7294 0.34045 0.0
O124 O 0.67679 0.76008 0.38358 0.0
O125 O 0.79918 0.81159 0.3087 0.0
O126 O 0.78629 0.75855 0.3481 0.0
O127 O 0.6767 0.80403 0.31132 0.0
O128 O 0.72227 0.78849 0.29343 0.0
O129 O 0.73575 0.89346 0.33657 0.0
O130 O 0.7782 0.87309 0.35246 0.0
O131 O 0.63602 0.81332 0.37302 0.0
O132 O 0.67661 0.88668 0.38439 0.0
C133 C 0.67012 0.72499 0.36208 0.0
O134 O 0.74839 0.7885 0.39736 0.0
O135 O 0.72836 0.84297 0.41116 0.0
C136 C 0.85017 0.80372 0.33018 0.0
C137 C 0.92702 0.83364 0.33278 0.0
C138 C 0.90057 0.79063 0.34839 0.0
C139 C 0.86336 0.77608 0.347 0.0
C140 C 0.87647 0.84705 0.31502 0.0
C141 C 0.91371 0.86164 0.31639 0.0
C142 C 0.80964 0.78454 0.32482 0.0
C143 C 0.69218 0.78988 0.28801 0.0
C144 C 0.76933 0.90435 0.34023 0.0
C145 C 0.61533 0.87257 0.37512 0.0
C146 C 0.55762 0.8951 0.36731 0.0
C147 C 0.56117 0.86196 0.34536 0.0
C148 C 0.58926 0.85075 0.3493 0.0
C149 C 0.61251 0.90658 0.3964 0.0
C150 C 0.58437 0.91765 0.39261 0.0
C151 C 0.64232 0.85601 0.38339 0.0
H152 H 0.90842 0.76757 0.36193 0.0
H153 H 0.84467 0.74224 0.35872 0.0
H154 H 0.86824 0.86956 0.3012 0.0
H155 H 0.93196 0.89459 0.3035 0.0
H156 H 0.54208 0.84416 0.325 0.0
H157 H 0.59008 0.82411 0.33246 0.0
H158 H 0.63155 0.9236 0.41697 0.0
H159 H 0.58305 0.94281 0.41052 0.0
Dy160 Dy 0.28314 0.99109 0.34863 0.0
Dy161 Dy 0.25177 0.88236 0.32803 0.0
C162 C 0.25872 0.91618 0.40515 0.0
O163 O 0.32966 0.97398 0.35867 0.0
O164 O 0.30907 0.90286 0.32894 0.0
O165 O 0.30772 1.0435 0.38896 0.0
O166 O 0.29295 0.06394 0.34123 0.0
O167 O 0.27856 0.92391 0.2798 0.0
O168 O 0.31288 1.00049 0.30044 0.0
O169 O 0.20262 0.88812 0.3415 0.0
O170 O 0.22541 0.96754 0.32951 0.0
O171 O 0.21388 0.82857 0.29372 0.0
O172 O 0.2433 0.80937 0.33004 0.0
C173 C 0.33485 0.93875 0.34571 0.0
O174 O 0.25 0.94595 0.39098 0.0
O175 O 0.26501 0.88793 0.38486 0.0
C176 C 0.28078 0.09214 0.3917 0.0
C177 C 0.23642 0.12451 0.42108 0.0
C178 C 0.22281 0.07535 0.41327 0.0
C179 C 0.24487 0.05928 0.39873 0.0
C180 C 0.29495 0.14075 0.40082 0.0
C181 C 0.27292 0.15688 0.41551 0.0
C182 C 0.30237 0.07559 0.37307 0.0
C183 C 0.30551 0.96819 0.27643 0.0
C184 C 0.197 0.92447 0.33472 0.0
C185 C 0.23809 0.78169 0.27355 0.0
C186 C 0.26702 0.74874 0.22226 0.0
C187 C 0.23048 0.72178 0.23135 0.0
C188 C 0.21632 0.73804 0.25694 0.0
C189 C 0.27315 0.81133 0.26205 0.0
C190 C 0.28744 0.79517 0.23643 0.0
C191 C 0.22415 0.79737 0.30207 0.0
H192 H 0.19488 1.04968 0.41737 0.0
H193 H 0.2336 1.02146 0.39187 0.0
H194 H 0.32261 0.16644 0.39549 0.0
H195 H 0.28404 0.19516 0.4207 0.0
H196 H 0.21336 0.68593 0.22116 0.0
H197 H 0.18885 0.71551 0.26477 0.0
H198 H 0.29002 0.84607 0.27391 0.0
H199 H 0.31535 0.81718 0.22985 0.0
Dy200 Dy 0.12591 0.42248 0.36895 0.0
Dy201 Dy 0.21679 0.46903 0.38012 0.0
C202 C 0.15942 0.45991 0.43821 0.0
O203 O 0.15343 0.49216 0.34114 0.0
O204 O 0.20111 0.52624 0.37681 0.0
O205 O 0.07336 0.3889 0.39149 0.0
O206 O 0.08008 0.40817 0.33801 0.0
O207 O 0.20413 0.45882 0.32306 0.0
O208 O 0.14683 0.39611 0.32704 0.0
O209 O 0.19309 0.38987 0.37459 0.0
O210 O 0.13569 0.3659 0.39354 0.0
O211 O 0.27038 0.52889 0.3725 0.0
O212 O 0.26343 0.46795 0.40242 0.0
C213 C 0.18465 0.52877 0.34931 0.0
O214 O 0.1447 0.47141 0.41347 0.0
O215 O 0.18618 0.45129 0.43111 0.0
C216 C 1.02721 0.33842 0.35402 0.0
C217 C 0.96919 0.24569 0.34106 0.0
C218 C 0.96426 0.28018 0.35956 0.0
C219 C 0.99306 0.32616 0.36596 0.0
C220 C 1.03228 0.30451 0.33517 0.0
C221 C 1.00348 0.25861 0.3286 0.0
C222 C 0.05747 0.38597 0.36248 0.0
C223 C 0.17394 0.42614 0.30839 0.0
C224 C 0.16319 0.35841 0.38923 0.0
C225 C 0.32372 0.52069 0.38033 0.0
C226 C 0.39901 0.55344 0.37108 0.0
C227 C 0.38082 0.57194 0.35126 0.0
C228 C 0.34399 0.55609 0.35593 0.0
C229 C 0.34157 0.50111 0.39933 0.0
C230 C 0.37835 0.51699 0.39475 0.0
C231 C 0.28633 0.50989 0.38996 0.0
H232 H 0.93839 0.27125 0.36998 0.0
H233 H 0.98879 0.35189 0.38075 0.0
H234 H 0.05855 0.31334 0.32582 0.0
H235 H 1.00814 0.23318 0.3139 0.0
H236 H 0.39532 0.60027 0.333 0.0
H237 H 0.3317 0.57295 0.34113 0.0
H238 H 0.32732 0.4744 0.41872 0.0
H239 H 0.39066 0.50085 0.41025 0.0
Dy240 Dy 0.41979 1.05501 0.6923 0.0
Dy241 Dy 0.39988 0.14063 0.6938 0.0
C242 C 0.43935 0.12187 0.75654 0.0
O243 O 0.35956 1.01939 0.69452 0.0
O244 O 0.35781 0.08066 0.72346 0.0
O245 O 0.40966 0.98568 0.71156 0.0
O246 O 0.45275 1.02426 0.67604 0.0
O247 O 0.36917 0.09188 0.64875 0.0
O248 O 0.40509 0.05822 0.63842 0.0
O249 O 0.44782 0.1673 0.66131 0.0
O250 O 0.4717 0.12699 0.68931 0.0
O251 O 0.3823 0.18659 0.66928 0.0
O252 O 0.39544 0.19547 0.72291 0.0
C253 C 0.34205 1.03565 0.71312 0.0
O254 O 0.42162 0.0769 0.74639 0.0
O255 O 0.44047 0.15597 0.73657 0.0
C256 C 0.46536 0.99068 0.7236 0.0
C257 C 0.52749 1.03102 0.76373 0.0
C258 C 0.49519 1.0238 0.77766 0.0
C259 C 0.46423 1.00363 0.75775 0.0
C260 C 0.49622 0.99082 0.71163 0.0
C261 C 0.52716 1.01074 0.73166 0.0
C262 C 0.43924 0.99018 0.69887 0.0
C263 C 0.37947 0.06707 0.62876 0.0
C264 C 0.47583 0.1642 0.67094 0.0
C265 C 0.34953 0.21064 0.70517 0.0
C266 C 0.28807 0.21695 0.72266 0.0
C267 C 0.28588 0.17162 0.71699 0.0
C268 C 0.31643 0.16849 0.70843 0.0
C269 C 0.3518 0.2558 0.71055 0.0
C270 C 0.32137 0.25898 0.71921 0.0
C271 C 0.38214 0.20808 0.6976 0.0
H272 H 0.49478 1.03848 0.80248 0.0
H273 H 0.44059 1.00313 0.76795 0.0
H274 H 0.49766 0.98081 0.68548 0.0
H275 H 0.55178 1.01587 0.72026 0.0
H276 H 0.2607 0.13859 0.71973 0.0
H277 H 0.31431 0.13324 0.70465 0.0
H278 H 0.37719 0.28866 0.70822 0.0
H279 H 0.32387 0.29444 0.72288 0.0
Dy280 Dy 0.96231 0.31999 0.69471 0.0
Dy281 Dy 0.88983 0.28094 0.65466 0.0
C282 C 0.96412 0.32811 0.61503 0.0
O283 O 0.94501 0.37939 0.70189 0.0
O284 O 0.91011 0.36058 0.65439 0.0
O285 O 1.0187 0.34516 0.6931 0.0
O286 O 0.99359 0.34428 0.74133 0.0
O287 O 0.88426 0.29665 0.71093 0.0
O288 O 0.91939 0.26733 0.727 0.0
O289 O 0.88964 0.21074 0.66345 0.0
O290 O 0.94724 0.24001 0.68238 0.0
O291 O 0.83477 0.22619 0.64895 0.0
O292 O 0.85566 0.29109 0.61864 0.0
C293 C 0.9259 0.39007 0.68001 0.0
O294 O 0.97625 0.35252 0.64329 0.0
O295 O 0.93148 0.29069 0.61434 0.0
C296 C 1.04318 0.32985 0.74134 0.0
C297 C 0.0886 0.29095 0.75581 0.0
C298 C 1.05222 0.2603 0.74816 0.0
C299 C 1.0297 0.27963 0.74089 0.0
C300 C 0.07869 0.36028 0.75115 0.0
C301 C 0.10122 0.34106 0.75839 0.0
C302 C 1.02278 0.35115 0.72602 0.0
C303 C 0.89652 0.28087 0.73574 0.0
C304 C 0.91575 0.20278 0.67305 0.0
C305 C 0.79956 0.26283 0.64462 0.0
C306 C 0.74571 0.25859 0.68723 0.0
C307 C 0.78161 0.29106 0.69458 0.0
C308 C 0.80839 0.29358 0.67315 0.0
C309 C 0.76366 0.23354 0.6356 0.0
C310 C 0.73678 0.2318 0.65667 0.0
C311 C 0.82707 0.25353 0.62993 0.0
H312 H 1.0415 0.22153 0.74645 0.0
H313 H 1.00233 0.25561 0.73313 0.0
H314 H 0.08961 0.39917 0.75121 0.0
H315 H 0.12911 0.36582 0.7638 0.0
H316 H 0.78899 0.31179 0.7181 0.0
H317 H 0.83605 0.31637 0.68053 0.0
H318 H 0.75643 0.20923 0.61392 0.0
H319 H 0.70919 0.20607 0.65079 0.0
Dy320 Dy 0.81172 0.71898 0.68175 0.0
Dy321 Dy 0.89284 0.78293 0.70451 0.0
C322 C 0.82962 0.72936 0.75941 0.0
O323 O 0.8247 0.80165 0.68296 0.0
O324 O 0.88011 0.84213 0.70884 0.0
O325 O 0.75599 0.68622 0.69632 0.0
O326 O 0.76991 0.68011 0.64439 0.0
O327 O 0.88298 0.80425 0.65097 0.0
O328 O 0.84279 0.72944 0.6352 0.0
O329 O 0.88522 0.70705 0.70601 0.0
O330 O 0.83087 0.66237 0.6802 0.0
O331 O 0.94494 0.80574 0.68387 0.0
O332 O 0.93982 0.82348 0.73711 0.0
C333 C 0.85221 0.84281 0.69571 0.0
O334 O 0.81464 0.69816 0.7348 0.0
O335 O 0.85991 0.76943 0.75343 0.0
C336 C 0.71982 0.61066 0.66755 0.0
C337 C 0.67261 0.50874 0.66742 0.0
C338 C 0.68279 0.5354 0.69815 0.0
C339 C 0.70601 0.58558 0.69822 0.0
C340 C 0.7097 0.5841 0.63689 0.0
C341 C 0.68663 0.53399 0.63682 0.0
C342 C 0.74459 0.66404 0.6671 0.0
C343 C 0.86347 0.77394 0.62667 0.0
C344 C 0.86081 0.66582 0.69286 0.0
C345 C 1.00057 0.8499 0.71527 0.0
C346 C 0.07543 0.88709 0.72054 0.0
C347 C 0.05804 0.87318 0.68878 0.0
C348 C 1.02113 0.85477 0.68619 0.0
C349 C 1.0179 0.86498 0.74695 0.0
C350 C 1.05497 0.88342 0.74957 0.0
C351 C 0.9611 0.82568 0.71247 0.0
H352 H 0.67228 0.51772 0.72222 0.0
H353 H 0.713 0.60469 0.72238 0.0
H354 H 0.71974 0.60212 0.6128 0.0
H355 H 0.68005 0.515 0.61263 0.0
H356 H 0.07296 0.87648 0.66579 0.0
H357 H 1.00863 0.84364 0.66135 0.0
H358 H 1.00272 0.86134 0.76983 0.0
H359 H 0.06744 0.89353 0.77448 0.0
H360 H 0.42696 0.66301 1.01915 0.0
H361 H 0.23411 0.53076 0.94181 0.0
H362 H 0.40192 0.66545 0.91289 0.0
H363 H 0.26772 0.50135 0.03839 0.0
H364 H 0.29035 0.6067 0.9386 0.0
H365 H 0.36516 0.63709 0.03332 0.0
C366 C 0.40892 0.66024 0.99881 0.0
C367 C 0.41917 0.66398 0.96452 0.0
C368 C 0.28511 0.58397 0.96074 0.0
C369 C 0.34824 0.63263 0.98067 0.0
C370 C 0.25338 0.54028 0.96232 0.0
C371 C 0.24704 0.50876 0.9897 0.0
C372 C 0.31072 0.59601 0.9866 0.0
C373 C 0.27193 0.52403 1.01645 0.0
C374 C 0.37341 0.64489 1.007 0.0
C375 C 0.3946 0.66065 0.93953 0.0
N376 N 0.30303 0.56621 1.01391 0.0
N377 N 0.3598 0.64341 0.94796 0.0
H378 H 0.57993 0.97889 0.07259 0.0
H379 H 0.57389 0.75563 0.96603 0.0
H380 H 0.51344 0.91744 0.98383 0.0
H381 H 0.62533 0.7991 0.06417 0.0
H382 H 0.55434 0.81616 0.97115 0.0
H383 H 0.59824 0.91663 0.06911 0.0
C384 C 0.56879 0.95223 0.05235 0.0
C385 C 0.5446 0.95431 0.02859 0.0
C386 C 0.57 0.81289 0.99163 0.0
C387 C 0.56664 0.88145 0.02415 0.0
C388 C 0.5815 0.77799 0.98876 0.0
C389 C 0.60177 0.77121 1.01465 0.0
C390 C 0.5788 0.84299 0.02057 0.0
C391 C 0.61016 0.80235 0.04324 0.0
C392 C 0.57951 0.91636 0.05042 0.0
C393 C 0.53176 0.91793 1.00307 0.0
N394 N 0.59885 0.83648 0.0453 0.0
N395 N 0.543 0.88376 1.00147 0.0
H396 H 0.34332 0.77557 0.994 0.0
H397 H 0.13163 0.61827 0.96339 0.0
H398 H 0.2753 0.83328 0.96124 0.0
H399 H 0.19446 0.5561 1.00268 0.0
H400 H 0.1857 0.69577 0.95837 0.0
H401 H 0.29103 0.69432 0.99423 0.0
C402 C 0.31749 0.77135 0.9869 0.0
C403 C 0.31397 0.81177 0.97752 0.0
C404 C 0.18788 0.66527 0.96795 0.0
C405 C 0.25392 0.71848 0.9775 0.0
C406 C 0.15686 0.62073 0.97078 0.0
C407 C 0.15827 0.58037 0.98369 0.0
C408 C 0.22094 0.67013 0.97821 0.0
C409 C 0.19201 0.58615 0.99262 0.0
C410 C 0.28766 0.72482 0.98688 0.0
C411 C 0.27974 0.80355 0.96812 0.0
N412 N 0.22197 0.63026 0.98993 0.0
N413 N 0.25127 0.75815 0.96845 0.0
H414 H 0.49783 0.21872 0.99004 0.0
H415 H 0.63963 0.49983 0.03953 0.0
H416 H 0.59097 0.26302 0.05365 0.0
H417 H 0.54169 0.4595 0.98484 0.0
H418 H 0.62305 0.41347 0.04237 0.0
H419 H 0.51332 0.30505 0.98555 0.0
C420 C 0.52132 0.24594 1.00318 0.0
C421 C 0.54267 0.23182 0.02243 0.0
C422 C 0.60513 0.4234 0.02963 0.0
C423 C 0.56121 0.3327 1.01699 0.0
C424 C 0.61478 0.47327 0.02791 0.0
C425 C 0.59237 0.48845 1.01188 0.0
C426 C 0.57266 0.38714 1.01511 0.0
C427 C 0.56025 0.45076 0.99758 0.0
C428 C 0.53032 0.29572 1.00054 0.0
C429 C 0.57308 0.27043 0.03847 0.0
N430 N 0.55158 0.40282 0.99949 0.0
N431 N 0.5812 0.31787 0.03534 0.0
H432 H 0.77614 0.21632 1.0172 0.0
H433 H 0.97034 0.38112 0.09714 0.0
H434 H 0.79619 0.29457 0.11227 0.0
H435 H 0.9527 0.31195 0.99863 0.0
H436 H 0.90603 0.34026 0.10628 0.0
H437 H 0.84014 0.24469 1.01196 0.0
C438 C 0.79404 0.23992 0.0368 0.0
C439 C 0.78079 0.25342 0.06511 0.0
C440 C 0.91614 0.33341 0.08284 0.0
C441 C 0.85397 0.28497 0.05966 0.0
C442 C 0.9529 0.35646 0.07771 0.0
C443 C 0.96681 0.3502 0.04695 0.0
C444 C 0.89306 0.30413 0.05692 0.0
C445 C 0.94306 0.3177 0.02274 0.0
C446 C 0.83052 0.2556 0.03397 0.0
C447 C 0.80516 0.28303 0.09013 0.0
N448 N 0.90721 0.29636 0.02803 0.0
N449 N 0.84055 0.29787 0.08676 0.0
H450 H 0.96545 0.66441 0.1188 0.0
H451 H 0.75985 0.56253 0.15237 0.0
H452 H 0.89423 0.51546 0.14487 0.0
H453 H 0.83538 0.71331 0.13696 0.0
H454 H 0.80983 0.54653 0.16058 0.0
H455 H 0.92055 0.68518 0.13724 0.0
C456 C 0.94077 0.63611 0.1292 0.0
C457 C 0.9335 0.58779 0.12951 0.0
C458 C 0.81543 0.58329 0.15613 0.0
C459 C 0.8811 0.61135 0.14964 0.0
C460 C 0.78689 0.59241 0.15131 0.0
C461 C 0.79335 0.63918 0.14335 0.0
C462 C 0.85065 0.62114 0.15263 0.0
C463 C 0.82895 0.67666 0.14303 0.0
C464 C 0.91486 0.64803 0.13949 0.0
C465 C 0.90065 0.55293 0.14307 0.0
N466 N 0.85618 0.66666 0.14696 0.0
N467 N 0.87539 0.5652 0.15191 0.0
H468 H 0.9602 0.77587 0.33907 0.0
H469 H 0.16819 0.98817 0.32636 0.0
H470 H 0.98889 0.9257 0.32672 0.0
H471 H 0.1345 0.83732 0.34098 0.0
H472 H 0.10447 0.96809 0.32579 0.0
H473 H 1.02364 0.79914 0.3396 0.0
C474 C 0.97941 0.81383 0.33675 0.0
C475 C 0.96753 0.84833 0.33305 0.0
C476 C 0.11099 0.93932 0.32908 0.0
C477 C 1.04296 0.87591 0.33309 0.0
C478 C 0.14773 0.95086 0.32936 0.0
C479 C 0.15785 0.91471 0.33366 0.0
C480 C 0.08329 0.89098 0.3331 0.0
C481 C 0.12906 0.86703 0.33756 0.0
C482 C 1.01626 0.82717 0.3368 0.0
C483 C 0.99543 0.8969 0.32933 0.0
N484 N 0.09393 0.85692 0.33716 0.0
N485 N 1.03113 0.90892 0.3295 0.0
H486 H 0.10895 0.26393 0.38979 0.0
H487 H 0.17142 0.10053 0.39297 0.0
H488 H 0.21663 0.35804 0.4247 0.0
H489 H 0.24648 0.19264 0.46945 0.0
H490 H 0.14096 0.14826 0.39624 0.0
H491 H 0.114 0.19396 0.41034 0.0
C492 C 0.13341 0.2697 0.40209 0.0
C493 C 0.16288 0.31619 0.40464 0.0
C494 C 0.1631 0.15694 0.41342 0.0
C495 C 0.16886 0.23761 0.42807 0.0
C496 C 0.18063 0.12965 0.4115 0.0
C497 C 0.2121 0.14353 0.43035 0.0
C498 C 0.17743 0.19847 0.43414 0.0
C499 C 0.22292 0.18167 0.45375 0.0
C500 C 0.13636 0.22998 0.41365 0.0
C501 C 0.19376 0.32241 0.42131 0.0
N502 N 0.20615 0.20862 0.45435 0.0
N503 N 0.19602 0.28353 0.43217 0.0
H504 H 0.89837 0.21652 0.32741 0.0
H505 H 0.84071 0.9357 0.33743 0.0
H506 H 0.97131 0.16075 0.34425 0.0
H507 H 0.76409 0.98715 0.33099 0.0
H508 H 0.88894 1.01842 0.33363 0.0
H509 H 0.84904 0.13344 0.32321 0.0
C510 C 0.90406 0.18689 0.33018 0.0
C511 C 0.93912 0.19575 0.33628 0.0
C512 C 0.86162 1.0118 0.33293 0.0
C513 C 0.88285 0.10072 0.33115 0.0
C514 C 0.83397 0.96444 0.33513 0.0
C515 C 0.79823 0.95446 0.33499 0.0
C516 C 0.85369 1.04982 0.33065 0.0
C517 C 0.79126 0.99323 0.33139 0.0
C518 C 0.8759 0.13951 0.3276 0.0
C519 C 0.94491 0.15589 0.33907 0.0
N520 N 0.8188 1.03935 0.32963 0.0
N521 N 0.9171 0.11026 0.33662 0.0
H522 H 0.3322 0.75569 0.24032 0.0
H523 H 0.16296 0.5289 0.2838 0.0
H524 H 0.24673 0.67835 0.16962 0.0
H525 H 0.25608 0.59607 0.34913 0.0
H526 H 0.20031 0.5691 0.23524 0.0
H527 H 0.319 0.68049 0.26763 0.0
C528 C 0.31135 0.72246 0.22927 0.0
C529 C 0.2853 0.72293 0.20762 0.0
C530 C 0.21281 0.57452 0.26007 0.0
C531 C 0.27119 0.63775 0.23708 0.0
C532 C 0.1913 0.55233 0.28807 0.0
C533 C 0.20631 0.55919 0.32082 0.0
C534 C 0.24968 0.60484 0.26469 0.0
C535 C 0.24327 0.58966 0.32444 0.0
C536 C 0.30348 0.67927 0.24545 0.0
C537 C 0.2637 0.67926 0.19042 0.0
N538 N 0.26362 0.61168 0.29677 0.0
N539 N 0.25438 0.63758 0.20747 0.0
H540 H 0.44786 0.56583 0.42194 0.0
H541 H 0.62539 0.6882 0.3054 0.0
H542 H 0.44351 0.5877 0.31407 0.0
H543 H 0.62569 0.67783 0.41463 0.0
H544 H 0.55933 0.64338 0.30602 0.0
H545 H 0.51242 0.59904 0.41786 0.0
C546 C 0.46017 0.57699 0.3972 0.0
C547 C 0.43931 0.57332 0.36833 0.0
C548 C 0.57387 0.65005 0.3298 0.0
C549 C 0.51495 0.61278 0.36352 0.0
C550 C 0.61174 0.67501 0.32939 0.0
C551 C 0.63153 0.68617 0.35998 0.0
C552 C 0.55538 0.63587 0.36104 0.0
C553 C 0.61188 0.66953 0.39034 0.0
C554 C 0.49746 0.59646 0.39494 0.0
C555 C 0.45794 0.58993 0.33726 0.0
N556 N 0.57536 0.64566 0.39009 0.0
N557 N 0.49436 0.60874 0.33571 0.0
H558 H 0.34792 0.86678 0.32355 0.0
H559 H 0.55293 0.97829 0.38444 0.0
H560 H 0.40142 1.00354 0.37683 0.0
H561 H 0.4882 0.83419 0.3441 0.0
H562 H 0.50086 0.99128 0.38064 0.0
H563 H 0.40096 0.85849 0.32909 0.0
C564 C 0.37079 0.8955 0.33652 0.0
C565 C 0.36935 0.93614 0.34976 0.0
C566 C 0.49811 0.95686 0.37259 0.0
C567 C 0.43212 0.92628 0.35618 0.0
C568 C 0.528 0.9491 0.37489 0.0
C569 C 0.52586 0.9048 0.36452 0.0
C570 C 0.46529 0.92029 0.35966 0.0
C571 C 0.49228 0.86933 0.35188 0.0
C572 C 0.40146 0.89046 0.33969 0.0
C573 C 0.40072 0.9715 0.36616 0.0
N574 N 0.46387 0.87787 0.34985 0.0
N575 N 0.43063 0.9658 0.36883 0.0
H576 H 0.68244 0.26031 0.68536 0.0
H577 H 0.59035 1.03037 0.77631 0.0
H578 H 0.74691 0.22191 0.74891 0.0
H579 H 0.54244 0.12286 0.77757 0.0
H580 H 0.64941 0.10216 0.77366 0.0
H581 H 0.63172 0.21545 0.72347 0.0
C582 C 0.68612 0.24376 0.70801 0.0
C583 C 0.71856 0.2444 0.71409 0.0
C584 C 0.62604 0.10681 0.77597 0.0
C585 C 0.66086 0.19194 0.75683 0.0
C586 C 0.59241 0.06585 0.77756 0.0
C587 C 0.56164 0.0708 0.77655 0.0
C588 C 0.6285 0.15246 0.77212 0.0
C589 C 0.5656 0.11753 0.7781 0.0
C590 C 0.65734 0.21833 0.72979 0.0
C591 C 0.72217 0.22214 0.74354 0.0
N592 N 0.59843 0.15665 0.77446 0.0
N593 N 0.69327 0.19541 0.76331 0.0
H594 H 0.95466 0.47064 0.72555 0.0
H595 H 0.82517 0.57598 0.65909 0.0
H596 H 0.8777 0.40679 0.64415 0.0
H597 H 0.91526 0.65751 0.7255 0.0
H598 H 0.84126 0.51097 0.65725 0.0
H599 H 0.93864 0.53606 0.72968 0.0
C600 C 0.93458 0.4701 0.70847 0.0
C601 C 0.91809 0.43246 0.68417 0.0
C602 C 0.85753 0.54301 0.67236 0.0
C603 C 0.89882 0.50793 0.68922 0.0
C604 C 0.84817 0.58038 0.67352 0.0
C605 C 0.86863 0.62322 0.69246 0.0
C606 C 0.88759 0.54737 0.69054 0.0
C607 C 0.89837 0.62577 0.71039 0.0
C608 C 0.92532 0.50771 0.71086 0.0
C609 C 0.89184 0.43458 0.66315 0.0
N610 N 0.90674 0.58893 0.70904 0.0
N611 N 0.88318 0.47086 0.66623 0.0
H612 H 0.66561 0.43899 0.71407 0.0
H613 H 0.49669 0.22581 0.61762 0.0
H614 H 0.62032 0.45551 0.62004 0.0
H615 H 0.53399 0.20502 0.71484 0.0
H616 H 0.54723 0.30743 0.61547 0.0
H617 H 0.62212 0.35236 0.71315 0.0
C618 C 0.64661 0.42467 0.69324 0.0
C619 C 0.64692 0.45525 0.66709 0.0
C620 C 0.54484 0.28504 0.63714 0.0
C621 C 0.59717 0.35535 0.6657 0.0
C622 C 0.51606 0.23811 0.63823 0.0
C623 C 0.51108 0.20833 0.66637 0.0
C624 C 0.56896 0.30316 0.66464 0.0
C625 C 0.537 0.22648 0.69244 0.0
C626 C 0.62191 0.37498 0.69264 0.0
C627 C 0.62181 0.43385 0.64055 0.0
N628 N 0.56457 0.27295 0.69117 0.0
N629 N 0.59811 0.38563 0.64065 0.0
H630 H 0.89533 0.92211 0.73475 0.0
H631 H 0.86067 0.12272 0.64142 0.0
H632 H 0.82068 0.8837 0.6513 0.0
H633 H 0.94997 0.15871 0.70849 0.0
H634 H 0.84317 1.03675 0.6465 0.0
H635 H 0.91129 1.00663 0.72806 0.0
C636 C 0.88171 0.93093 0.71507 0.0
C637 C 0.85615 0.89392 0.69371 0.0
C638 C 0.86669 0.06322 0.66003 0.0
C639 C 0.87528 0.99439 0.68576 0.0
C640 C 0.87696 0.11295 0.65715 0.0
C641 C 0.90732 0.14955 0.67435 0.0
C642 C 0.8863 1.04827 0.68086 0.0
C643 C 0.92668 0.13296 0.69433 0.0
C644 C 0.89124 0.98006 0.71121 0.0
C645 C 0.84005 0.90967 0.6689 0.0
N646 N 0.91578 0.08425 0.69714 0.0
N647 N 0.84983 0.95815 0.66568 0.0
H648 H 0.125 0.96141 0.76019 0.0
H649 H 0.29381 0.94994 0.68223 0.0
H650 H 0.1155 0.85373 0.68683 0.0
H651 H 0.30111 1.05543 0.75649 0.0
H652 H 0.22842 0.90964 0.68679 0.0
H653 H 0.18949 0.9922 0.76222 0.0
C654 C 0.13638 0.94391 0.74473 0.0
C655 C 0.11467 0.90509 0.72313 0.0
C656 C 0.24441 0.94133 0.70234 0.0
C657 C 0.18885 0.94058 0.72504 0.0
C658 C 0.28175 0.96414 0.69989 0.0
C659 C 0.30303 1.00625 0.71887 0.0
C660 C 0.22832 0.96081 0.72391 0.0
C661 C 0.28587 1.02325 0.74116 0.0
C662 C 0.17331 0.96168 0.74576 0.0
C663 C 0.13118 0.88432 0.70338 0.0
N664 N 0.24966 1.00073 0.74286 0.0
N665 N 0.16722 0.90242 0.7047 0.0
H666 H 0.22039 0.16618 0.69581 0.0
H667 H 0.14645 0.31833 0.79856 0.0
H668 H 0.28227 0.27643 0.77023 0.0
H669 H 0.08974 0.22068 0.71559 0.0
H670 H 0.19294 0.29483 0.79427 0.0
H671 H 0.16882 0.17706 0.70857 0.0
C672 C 0.22303 0.19229 0.71511 0.0
C673 C 0.25582 0.22077 0.73173 0.0
C674 C 0.17012 0.27817 0.77725 0.0
C675 C 0.19696 0.23369 0.74629 0.0
C676 C 0.14358 0.29164 0.77965 0.0
C677 C 0.11421 0.27182 0.75722 0.0
C678 C 0.16737 0.24465 0.75221 0.0
C679 C 0.11166 0.23671 0.73363 0.0
C680 C 0.19362 0.19867 0.72226 0.0
C681 C 0.25772 0.25433 0.75632 0.0
N682 N 0.13803 0.22461 0.73155 0.0
N683 N 0.22878 0.26002 0.76273 0.0
H684 H 0.22078 0.47146 0.25466 0.0
H685 H 0.07126 0.47848 0.13736 0.0
H686 H 0.10851 0.39494 0.2793 0.0
H687 H 0.15475 0.45973 0.09053 0.0
H688 H 0.09316 0.47033 0.19363 0.0
H689 H 0.20474 0.4866 0.19711 0.0
C690 C 0.1929 0.45737 0.24798 0.0
C691 C 0.16605 0.4315 0.272 0.0
C692 C 0.10691 0.46861 0.17097 0.0
C693 C 0.14777 0.45066 0.20705 0.0
C694 C 0.0946 0.47364 0.13892 0.0
C695 C 0.11105 0.4695 0.10919 0.0
C696 C 0.13643 0.46058 0.17343 0.0
C697 C 0.14108 0.46271 0.11281 0.0
C698 C 0.1838 0.46626 0.21527 0.0
C699 C 0.13031 0.4148 0.2619 0.0
N700 N 0.15288 0.45858 0.14428 0.0
N701 N 0.12234 0.42523 0.2306 0.0
H702 H 0.64001 0.80368 0.25532 0.0
H703 H 0.58859 0.58429 0.12644 0.0
H704 H 0.69855 0.72522 0.24619 0.0
H705 H 0.5799 0.70712 0.09149 0.0
H706 H 0.61406 0.62658 0.17998 0.0
H707 H 0.60594 0.76216 0.20331 0.0
C708 C 0.64592 0.77811 0.24238 0.0
C709 C 0.67262 0.7685 0.25519 0.0
C710 C 0.60599 0.64404 0.16091 0.0
C711 C 0.63281 0.71972 0.19644 0.0
C712 C 0.59095 0.61965 0.13041 0.0
C713 C 0.58204 0.642 0.10413 0.0
C714 C 0.61196 0.69131 0.16589 0.0
C715 C 0.58609 0.6882 0.11097 0.0
C716 C 0.62642 0.75445 0.21274 0.0
C717 C 0.67872 0.73455 0.23732 0.0
N718 N 0.60105 0.71155 0.14109 0.0
N719 N 0.65883 0.71122 0.20934 0.0
H720 H 0.49683 0.10823 0.14886 0.0
H721 H 0.30512 0.91032 0.22286 0.0
H722 H 0.43042 0.96905 0.10205 0.0
H723 H 0.36583 1.05488 0.26361 0.0
H724 H 0.35148 0.93022 0.1796 0.0
H725 H 0.45099 0.08797 0.193 0.0
C726 C 0.47297 0.0732 0.14806 0.0
C727 C 0.46782 1.04044 0.12149 0.0
C728 C 0.35456 0.95773 0.19787 0.0
C729 C 0.41464 1.01704 0.17196 0.0
C730 C 0.32786 0.94641 0.22256 0.0
C731 C 0.33109 0.98091 0.24707 0.0
C732 C 0.38512 1.00391 0.19756 0.0
C733 C 0.36173 1.02696 0.24531 0.0
C734 C 0.44657 0.06175 0.17316 0.0
C735 C 0.43587 0.99572 0.12183 0.0
N736 N 0.38738 1.03693 0.22127 0.0
N737 N 0.41073 0.98551 0.1464 0.0
H738 H 0.5557 0.067 0.90748 0.0
H739 H 0.4973 0.20811 0.78023 0.0
H740 H 0.55723 0.1937 0.95009 0.0
H741 H 0.43108 0.0581 0.80632 0.0
H742 H 0.53615 0.21714 0.82992 0.0
H743 H 0.53094 0.07914 0.85464 0.0
C744 C 0.55235 0.09868 0.90522 0.0
C745 C 0.55874 0.12937 0.9334 0.0
C746 C 0.51288 0.18252 0.82464 0.0
C747 C 0.52935 0.14278 0.87285 0.0
C748 C 0.4906 0.17735 0.79648 0.0
C749 C 0.46089 0.13208 0.78869 0.0
C750 C 0.5057 0.14192 0.84452 0.0
C751 C 0.45384 0.0935 0.81067 0.0
C752 C 0.53772 0.10518 0.87516 0.0
C753 C 0.55314 0.16942 0.92897 0.0
N754 N 0.47618 0.09914 0.83703 0.0
N755 N 0.53812 0.17453 0.89947 0.0
H756 H 1.02497 0.36798 0.90728 0.0
H757 H 0.89984 0.36525 0.761 0.0
H758 H 0.97065 0.45075 0.92419 0.0
H759 H 0.90453 0.23788 0.79175 0.0
H760 H 0.92716 0.4036 0.8161 0.0
H761 H 0.98578 0.32821 0.8589 0.0
C762 C 1.00496 0.3782 0.9007 0.0
C763 C 1.00134 0.41308 0.91996 0.0
C764 C 0.92119 0.36675 0.81105 0.0
C765 C 0.95598 0.36717 0.86387 0.0
C766 C 0.9052 0.34459 0.77977 0.0
C767 C 0.89986 0.29814 0.77165 0.0
C768 C 0.93236 0.34251 0.83389 0.0
C769 C 0.90815 0.27366 0.79681 0.0
C770 C 0.98231 0.35503 0.87314 0.0
C771 C 0.97443 0.42411 0.91011 0.0
N772 N 0.92461 0.2964 0.82625 0.0
N773 N 0.95299 0.40164 0.88247 0.0
H774 H 0.77442 0.6433 0.78008 0.0
H775 H 0.71861 0.74508 0.94315 0.0
H776 H 0.83427 0.79245 0.81203 0.0
H777 H 0.65003 0.60646 0.89667 0.0
H778 H 0.76298 0.76169 0.89864 0.0
H779 H 0.73227 0.62792 0.82603 0.0
C780 C 0.77917 0.67294 0.79706 0.0
C781 C 0.8084 0.71948 0.7918 0.0
C782 C 0.73823 0.72771 0.89802 0.0
C783 C 0.75899 0.70164 0.84519 0.0
C784 C 0.71267 0.71804 0.92351 0.0
C785 C 0.68013 0.67412 0.92392 0.0
C786 C 0.7318 0.69308 0.87257 0.0
C787 C 0.6744 0.64086 0.89754 0.0
C788 C 0.75468 0.66399 0.82332 0.0
C789 C 0.81256 0.75594 0.81502 0.0
N790 N 0.69994 0.65089 0.87322 0.0
N791 N 0.78813 0.7463 0.84052 0.0
H792 H 0.731 0.73765 0.45503 0.0
H793 H 0.86707 0.86216 0.61063 0.0
H794 H 0.78942 0.893 0.46238 0.0
H795 H 0.83522 0.72042 0.56942 0.0
H796 H 0.83672 0.87713 0.56213 0.0
H797 H 0.76316 0.73239 0.50452 0.0
C798 C 0.75009 0.77083 0.46763 0.0
C799 C 0.75718 0.8158 0.45451 0.0
C800 C 0.83694 0.84312 0.56355 0.0
C801 C 0.79551 0.81009 0.51138 0.0
C802 C 0.85465 0.83474 0.59102 0.0
C803 C 0.85393 0.7899 0.59421 0.0
C804 C 0.81799 0.80615 0.53944 0.0
C805 C 0.83662 0.75548 0.56826 0.0
C806 C 0.76889 0.76781 0.49574 0.0
C807 C 0.78261 0.85753 0.4719 0.0
N808 N 0.8192 0.76409 0.54251 0.0
N809 N 0.80107 0.85374 0.49934 0.0
H810 H 0.30992 0.90167 0.43838 0.0
H811 H 0.31948 0.06577 0.60043 0.0
H812 H 0.23735 0.95806 0.45393 0.0
H813 H 0.39468 1.01415 0.58268 0.0
H814 H 0.28714 1.02322 0.54846 0.0
H815 H 0.33823 0.93674 0.49358 0.0
C816 C 0.29926 0.92016 0.45377 0.0
C817 C 0.27096 0.92647 0.44145 0.0
C818 C 0.31075 1.02124 0.55596 0.0
C819 C 0.30398 0.96815 0.50441 0.0
C820 C 0.32937 1.04583 0.58562 0.0
C821 C 0.36009 1.04399 0.59617 0.0
C822 C 0.32276 0.99433 0.53655 0.0
C823 C 0.37127 1.01698 0.57579 0.0
C824 C 0.31576 0.94085 0.48513 0.0
C825 C 0.25897 0.95201 0.46234 0.0
N826 N 0.35273 0.9934 0.54721 0.0
N827 N 0.27558 0.97204 0.49246 0.0
H828 H 0.97819 0.27405 0.56711 0.0
H829 H 0.13701 0.50951 0.4788 0.0
H830 H 1.00963 0.42051 0.59697 0.0
H831 H 0.12775 0.36867 0.46647 0.0
H832 H 0.0883 0.47607 0.52011 0.0
H833 H 1.02862 0.30551 0.52649 0.0
C834 C 0.99504 0.31273 0.56456 0.0
C835 C 0.98922 0.34462 0.58531 0.0
C836 C 0.09718 0.4524 0.50894 0.0
C837 C 1.04754 0.38094 0.53939 0.0
C838 C 0.12546 0.47175 0.48564 0.0
C839 C 0.13744 0.44237 0.46983 0.0
C840 C 0.07956 0.40259 0.51609 0.0
C841 C 0.12026 0.3931 0.47879 0.0
C842 C 1.0242 0.33069 0.54175 0.0
C843 C 1.01274 0.39443 0.58144 0.0
N844 N 0.09204 0.37469 0.50097 0.0
N845 N 1.0405 0.41083 0.55915 0.0
loop_
_geom_bond_atom_site_label_1
_geom_bond_atom_site_label_2
_geom_bond_distance
_geom_bond_site_symmetry_2
_ccdc_geom_bond_type
Dy0 O3 2.307 1_456 S
Dy0 O5 2.394 1_556 S
Dy0 O6 2.380 . S
Dy0 O8 2.340 . S
Dy0 O10 2.298 . S
Dy0 O14 2.274 1_556 S
Dy0 C22 2.738 . S
Dy1 O4 2.298 . S
Dy1 O7 2.275 1_554 S
Dy1 O9 2.307 1_655 S
Dy1 O11 2.395 1_554 S
Dy1 O12 2.379 . S
Dy1 O15 2.333 1_655 S
Dy1 C31 2.738 . S
C2 O14 1.254 . S
C2 O15 1.273 . S
O3 Dy0 2.307 1_654 S
O3 C13 1.266 . S
O4 Dy1 2.298 . S
O4 C13 1.236 . S
O5 Dy0 2.394 1_554 S
O5 C22 1.241 1_554 S
O6 Dy0 2.380 . S
O6 C22 1.264 . S
O7 Dy1 2.275 1_556 S
O7 C23 1.254 . S
O8 Dy0 2.340 . S
O8 C23 1.257 1_455 S
O9 Dy1 2.307 1_455 S
O9 C24 1.266 . S
O10 Dy0 2.298 . S
O10 C24 1.236 1_556 S
O11 Dy1 2.395 1_556 S
O11 C31 1.255 1_556 S
O12 Dy1 2.379 . S
O12 C31 1.249 . S
C13 O3 1.266 . S
C13 O4 1.236 . S
O14 Dy0 2.274 1_554 S
O14 C2 1.254 . S
O15 Dy1 2.333 1_455 S
O15 C2 1.273 . S
C16 C19 1.337 1_556 S
C16 C20 1.335 . S
C16 C22 1.516 . S
C17 C18 1.304 . S
C17 C21 1.323 1_554 S
C18 C17 1.304 . S
C18 C19 1.371 . S
C18 H32 0.930 . S
C19 C16 1.337 1_554 S
C19 C18 1.371 . S
C19 H33 0.931 . S
C20 C16 1.335 . S
C20 C21 1.433 . S
C20 H34 0.931 . S
C21 C17 1.323 1_556 S
C21 C20 1.433 . S
C21 H35 0.933 . S
C22 Dy0 2.738 . S
C22 O5 1.241 1_556 S
C22 O6 1.264 . S
C22 C16 1.516 . S
C23 O7 1.254 . S
C23 O8 1.257 1_655 S
C24 O9 1.266 . S
C24 O10 1.236 1_554 S
C25 C28 1.344 1_554 S
C25 C29 1.328 . S
C25 C31 1.516 . S
C26 C27 1.304 1_554 S
C26 C30 1.323 . S
C27 C26 1.304 1_556 S
C27 C28 1.371 . S
C27 H36 0.930 . S
C28 C25 1.344 1_556 S
C28 C27 1.371 . S
C28 H37 0.931 . S
C29 C25 1.328 . S
C29 C30 1.433 . S
C29 H38 0.931 . S
C30 C26 1.323 . S
C30 C29 1.433 . S
C30 H39 0.933 . S
C31 Dy1 2.738 . S
C31 O11 1.255 1_554 S
C31 O12 1.249 . S
C31 C25 1.516 . S
H32 C18 0.930 . S
H33 C19 0.931 . S
H34 C20 0.931 . S
H35 C21 0.933 . S
H36 C27 0.930 . S
H37 C28 0.931 . S
H38 C29 0.931 . S
H39 C30 0.933 . S
Dy40 O43 2.307 . S
Dy40 O45 2.395 1_554 S
Dy40 O46 2.379 . S
Dy40 O48 2.339 . S
Dy40 O50 2.298 . S
Dy40 O54 2.275 1_554 S
Dy40 C62 2.738 . S
Dy41 O44 2.298 . S
Dy41 O47 2.275 1_556 S
Dy41 O49 2.307 . S
Dy41 O51 2.395 1_556 S
Dy41 O52 2.379 . S
Dy41 O55 2.339 . S
Dy41 C71 2.738 . S
C42 O54 1.254 . S
C42 O55 1.257 . S
O43 Dy40 2.307 . S
O43 C53 1.266 1_554 S
O44 Dy41 2.298 . S
O44 C53 1.236 . S
O45 Dy40 2.395 1_556 S
O45 C62 1.255 1_556 S
O46 Dy40 2.379 . S
O46 C62 1.249 . S
O47 Dy41 2.275 1_554 S
O47 C63 1.254 . S
O48 Dy40 2.339 . S
O48 C63 1.257 . S
O49 Dy41 2.307 . S
O49 C64 1.266 1_556 S
O50 Dy40 2.298 . S
O50 C64 1.236 . S
O51 Dy41 2.395 1_554 S
O51 C71 1.255 1_554 S
O52 Dy41 2.379 . S
O52 C71 1.249 . S
C53 O43 1.266 1_556 S
C53 O44 1.236 . S
O54 Dy40 2.275 1_556 S
O54 C42 1.254 . S
O55 Dy41 2.339 . S
O55 C42 1.257 . S
C56 C59 1.344 1_554 S
C56 C60 1.328 . S
C56 C62 1.516 . S
C57 C58 1.304 1_554 S
C57 C61 1.323 . S
C58 C57 1.304 1_556 S
C58 C59 1.371 . S
C58 H72 0.930 . S
C59 C56 1.344 1_556 S
C59 C58 1.371 . S
C59 H73 0.931 . S
C60 C56 1.328 . S
C60 C61 1.433 . S
C60 H74 0.931 . S
C61 C57 1.323 . S
C61 C60 1.433 . S
C61 H75 0.933 . S
C62 Dy40 2.738 . S
C62 O45 1.255 1_554 S
C62 O46 1.249 . S
C62 C56 1.516 . S
C63 O47 1.254 . S
C63 O48 1.257 . S
C64 O49 1.266 1_554 S
C64 O50 1.236 . S
C65 C68 1.344 1_556 S
C65 C69 1.328 . S
C65 C71 1.516 . S
C66 C67 1.304 1_556 S
C66 C70 1.323 . S
C67 C66 1.304 1_554 S
C67 C68 1.371 . S
C67 H76 0.930 . S
C68 C65 1.344 1_554 S
C68 C67 1.371 . S
C68 H77 0.931 . S
C69 C65 1.328 . S
C69 C70 1.433 . S
C69 H78 0.931 . S
C70 C66 1.323 . S
C70 C69 1.433 . S
C70 H79 0.933 . S
C71 Dy41 2.738 . S
C71 O51 1.255 1_556 S
C71 O52 1.249 . S
C71 C65 1.516 . S
H72 C58 0.930 . S
H73 C59 0.931 . S
H74 C60 0.931 . S
H75 C61 0.933 . S
H76 C67 0.930 . S
H77 C68 0.931 . S
H78 C69 0.931 . S
H79 C70 0.933 . S
Dy80 O83 2.307 1_566 S
Dy80 O85 2.395 1_556 S
Dy80 O86 2.379 . S
Dy80 O88 2.339 . S
Dy80 O90 2.298 . S
Dy80 O94 2.275 1_556 S
Dy80 C102 2.738 . S
Dy81 O84 2.298 . S
Dy81 O87 2.275 1_554 S
Dy81 O89 2.307 1_545 S
Dy81 O91 2.395 1_554 S
Dy81 O92 2.379 . S
Dy81 O95 2.339 . S
Dy81 C111 2.738 . S
C82 O94 1.254 . S
C82 O95 1.257 1_565 S
O83 Dy80 2.307 1_544 S
O83 C93 1.266 . S
O84 Dy81 2.298 . S
O84 C93 1.236 . S
O85 Dy80 2.395 1_554 S
O85 C102 1.255 1_554 S
O86 Dy80 2.379 . S
O86 C102 1.249 . S
O87 Dy81 2.275 1_556 S
O87 C103 1.254 . S
O88 Dy80 2.339 . S
O88 C103 1.257 1_565 S
O89 Dy81 2.307 1_565 S
O89 C104 1.266 . S
O90 Dy80 2.298 . S
O90 C104 1.236 1_556 S
O91 Dy81 2.395 1_556 S
O91 C111 1.255 1_556 S
O92 Dy81 2.379 . S
O92 C111 1.249 . S
C93 O83 1.266 . S
C93 O84 1.236 . S
O94 Dy80 2.275 1_554 S
O94 C82 1.254 . S
O95 Dy81 2.339 . S
O95 C82 1.257 1_545 S
C96 C99 1.321 1_556 S
C96 C100 1.350 . S
C96 C102 1.517 . S
C97 C98 1.304 . S
C97 C101 1.323 1_554 S
C98 C97 1.304 . S
C98 C99 1.371 . S
C98 H112 0.930 . S
C99 C96 1.321 1_554 S
C99 C98 1.371 . S
C99 H113 0.931 . S
C100 C96 1.350 . S
C100 C101 1.433 . S
C100 H114 0.931 . S
C101 C97 1.323 1_556 S
C101 C100 1.433 . S
C101 H115 0.933 . S
C102 Dy80 2.738 . S
C102 O85 1.255 1_556 S
C102 O86 1.249 . S
C102 C96 1.517 . S
C103 O87 1.254 . S
C103 O88 1.257 1_545 S
C104 O89 1.266 . S
C104 O90 1.236 1_554 S
C105 C108 1.344 1_554 S
C105 C109 1.328 . S
C105 C111 1.516 . S
C106 C107 1.304 1_554 S
C106 C110 1.323 . S
C107 C106 1.304 1_556 S
C107 C108 1.371 . S
C107 H116 0.930 . S
C108 C105 1.344 1_556 S
C108 C107 1.371 . S
C108 H117 0.931 . S
C109 C105 1.328 . S
C109 C110 1.433 . S
C109 H118 0.931 . S
C110 C106 1.323 . S
C110 C109 1.433 . S
C110 H119 0.933 . S
C111 Dy81 2.738 . S
C111 O91 1.255 1_554 S
C111 O92 1.249 . S
C111 C105 1.516 . S
H112 C98 0.930 . S
H113 C99 0.931 . S
H114 C100 0.931 . S
H115 C101 0.933 . S
H116 C107 0.930 . S
H117 C108 0.931 . S
H118 C109 0.931 . S
H119 C110 0.933 . S
Dy120 O123 2.307 . S
Dy120 O125 2.395 . S
Dy120 O126 2.379 . S
Dy120 O128 2.339 . S
Dy120 O130 2.298 . S
Dy120 O134 2.275 . S
Dy120 C142 2.738 . S
Dy121 O124 2.298 . S
Dy121 O127 2.275 . S
Dy121 O129 2.307 . S
Dy121 O131 2.395 . S
Dy121 O132 2.379 . S
Dy121 O135 2.339 . S
Dy121 C151 2.738 . S
C122 O134 1.254 . S
C122 O135 1.257 . S
O123 Dy120 2.307 . S
O123 C133 1.266 . S
O124 Dy121 2.298 . S
O124 C133 1.236 . S
O125 Dy120 2.395 . S
O125 C142 1.255 . S
O126 Dy120 2.379 . S
O126 C142 1.249 . S
O127 Dy121 2.275 . S
O127 C143 1.254 . S
O128 Dy120 2.339 . S
O128 C143 1.257 . S
O129 Dy121 2.307 . S
O129 C144 1.266 . S
O130 Dy120 2.298 . S
O130 C144 1.236 . S
O131 Dy121 2.395 . S
O131 C151 1.255 . S
O132 Dy121 2.379 . S
O132 C151 1.249 . S
C133 O123 1.266 . S
C133 O124 1.236 . S
O134 Dy120 2.275 . S
O134 C122 1.254 . S
O135 Dy121 2.339 . S
O135 C122 1.257 . S
C136 C139 1.344 . S
C136 C140 1.328 . S
C136 C142 1.516 . S
C137 C138 1.304 . S
C137 C141 1.323 . S
C138 C137 1.304 . S
C138 C139 1.371 . S
C138 H152 0.930 . S
C139 C136 1.344 . S
C139 C138 1.371 . S
C139 H153 0.931 . S
C140 C136 1.328 . S
C140 C141 1.433 . S
C140 H154 0.931 . S
C141 C137 1.323 . S
C141 C140 1.433 . S
C141 H155 0.933 . S
C142 Dy120 2.738 . S
C142 O125 1.255 . S
C142 O126 1.249 . S
C142 C136 1.516 . S
C143 O127 1.254 . S
C143 O128 1.257 . S
C144 O129 1.266 . S
C144 O130 1.236 . S
C145 C148 1.344 . S
C145 C149 1.328 . S
C145 C151 1.516 . S
C146 C147 1.304 . S
C146 C150 1.323 . S
C147 C146 1.304 . S
C147 C148 1.371 . S
C147 H156 0.930 . S
C148 C145 1.344 . S
C148 C147 1.371 . S
C148 H157 0.931 . S
C149 C145 1.328 . S
C149 C150 1.433 . S
C149 H158 0.931 . S
C150 C146 1.323 . S
C150 C149 1.433 . S
C150 H159 0.933 . S
C151 Dy121 2.738 . S
C151 O131 1.255 . S
C151 O132 1.249 . S
C151 C145 1.516 . S
H152 C138 0.930 . S
H153 C139 0.931 . S
H154 C140 0.931 . S
H155 C141 0.933 . S
H156 C147 0.930 . S
H157 C148 0.931 . S
H158 C149 0.931 . S
H159 C150 0.933 . S
Dy160 O163 2.307 . S
Dy160 O165 2.395 . S
Dy160 O166 2.379 1_565 S
Dy160 O168 2.339 . S
Dy160 O170 2.298 . S
Dy160 O174 2.275 . S
Dy160 C182 2.738 1_565 S
Dy161 O164 2.298 . S
Dy161 O167 2.275 . S
Dy161 O169 2.307 . S
Dy161 O171 2.395 . S
Dy161 O172 2.379 . S
Dy161 O175 2.339 . S
Dy161 C191 2.738 . S
C162 O174 1.254 . S
C162 O175 1.257 . S
O163 Dy160 2.307 . S
O163 C173 1.266 . S
O164 Dy161 2.298 . S
O164 C173 1.236 . S
O165 Dy160 2.395 . S
O165 C182 1.255 1_565 S
O166 Dy160 2.379 1_545 S
O166 C182 1.249 . S
O167 Dy161 2.275 . S
O167 C183 1.254 . S
O168 Dy160 2.339 . S
O168 C183 1.257 . S
O169 Dy161 2.307 . S
O169 C184 1.266 . S
O170 Dy160 2.298 . S
O170 C184 1.236 . S
O171 Dy161 2.395 . S
O171 C191 1.255 . S
O172 Dy161 2.379 . S
O172 C191 1.249 . S
C173 O163 1.266 . S
C173 O164 1.236 . S
O174 Dy160 2.275 . S
O174 C162 1.254 . S
O175 Dy161 2.339 . S
O175 C162 1.257 . S
C176 C179 1.344 . S
C176 C180 1.328 . S
C176 C182 1.516 . S
C177 C178 1.304 . S
C177 C181 1.323 . S
C178 C177 1.304 . S
C178 C179 1.371 . S
C178 H192 0.930 . S
C179 C176 1.344 . S
C179 C178 1.371 . S
C179 H193 0.931 . S
C180 C176 1.328 . S
C180 C181 1.433 . S
C180 H194 0.931 . S
C181 C177 1.323 . S
C181 C180 1.433 . S
C181 H195 0.933 . S
C182 Dy160 2.738 1_545 S
C182 O165 1.255 1_545 S
C182 O166 1.249 . S
C182 C176 1.516 . S
C183 O167 1.254 . S
C183 O168 1.257 . S
C184 O169 1.266 . S
C184 O170 1.236 . S
C185 C188 1.344 . S
C185 C189 1.328 . S
C185 C191 1.516 . S
C186 C187 1.304 . S
C186 C190 1.323 . S
C187 C186 1.304 . S
C187 C188 1.371 . S
C187 H196 0.930 . S
C188 C185 1.344 . S
C188 C187 1.371 . S
C188 H197 0.931 . S
C189 C185 1.328 . S
C189 C190 1.433 . S
C189 H198 0.931 . S
C190 C186 1.323 . S
C190 C189 1.433 . S
C190 H199 0.933 . S
C191 Dy161 2.738 . S
C191 O171 1.255 . S
C191 O172 1.249 . S
C191 C185 1.516 . S
H192 C178 0.930 . S
H193 C179 0.931 . S
H194 C180 0.931 . S
H195 C181 0.933 . S
H196 C187 0.930 . S
H197 C188 0.931 . S
H198 C189 0.931 . S
H199 C190 0.933 . S
Dy200 O203 2.307 . S
Dy200 O205 2.395 . S
Dy200 O206 2.379 . S
Dy200 O208 2.339 . S
Dy200 O210 2.298 . S
Dy200 O214 2.275 . S
Dy200 C222 2.738 . S
Dy201 O204 2.298 . S
Dy201 O207 2.275 . S
Dy201 O209 2.307 . S
Dy201 O211 2.395 . S
Dy201 O212 2.379 . S
Dy201 O215 2.339 . S
Dy201 C231 2.738 . S
C202 O214 1.254 . S
C202 O215 1.257 . S
O203 Dy200 2.307 . S
O203 C213 1.266 . S
O204 Dy201 2.298 . S
O204 C213 1.236 . S
O205 Dy200 2.395 . S
O205 C222 1.255 . S
O206 Dy200 2.379 . S
O206 C222 1.249 . S
O207 Dy201 2.275 . S
O207 C223 1.254 . S
O208 Dy200 2.339 . S
O208 C223 1.257 . S
O209 Dy201 2.307 . S
O209 C224 1.266 . S
O210 Dy200 2.298 . S
O210 C224 1.236 . S
O211 Dy201 2.395 . S
O211 C231 1.255 . S
O212 Dy201 2.379 . S
O212 C231 1.249 . S
C213 O203 1.266 . S
C213 O204 1.236 . S
O214 Dy200 2.275 . S
O214 C202 1.254 . S
O215 Dy201 2.339 . S
O215 C202 1.257 . S
C216 C219 1.344 . S
C216 C220 1.328 . S
C216 C222 1.516 1_655 S
C217 C218 1.304 . S
C217 C221 1.323 . S
C218 C217 1.304 . S
C218 C219 1.371 . S
C218 H232 0.930 . S
C219 C216 1.344 . S
C219 C218 1.371 . S
C219 H233 0.931 . S
C220 C216 1.328 . S
C220 C221 1.433 . S
C220 H234 0.931 . S
C221 C217 1.323 . S
C221 C220 1.433 . S
C221 H235 0.933 . S
C222 Dy200 2.738 . S
C222 O205 1.255 . S
C222 O206 1.249 . S
C222 C216 1.516 1_455 S
C223 O207 1.254 . S
C223 O208 1.257 . S
C224 O209 1.266 . S
C224 O210 1.236 . S
C225 C228 1.344 . S
C225 C229 1.328 . S
C225 C231 1.516 . S
C226 C227 1.304 . S
C226 C230 1.323 . S
C227 C226 1.304 . S
C227 C228 1.371 . S
C227 H236 0.930 . S
C228 C225 1.344 . S
C228 C227 1.371 . S
C228 H237 0.931 . S
C229 C225 1.328 . S
C229 C230 1.433 . S
C229 H238 0.931 . S
C230 C226 1.323 . S
C230 C229 1.433 . S
C230 H239 0.933 . S
C231 Dy201 2.738 . S
C231 O211 1.255 . S
C231 O212 1.249 . S
C231 C225 1.516 . S
H232 C218 0.930 . S
H233 C219 0.931 . S
H234 C220 0.931 . S
H235 C221 0.933 . S
H236 C227 0.930 . S
H237 C228 0.931 . S
H238 C229 0.931 . S
H239 C230 0.933 . S
Dy240 O243 2.307 . S
Dy240 O245 2.395 . S
Dy240 O246 2.379 . S
Dy240 O248 2.339 . S
Dy240 O250 2.298 . S
Dy240 O254 2.275 . S
Dy240 C262 2.738 . S
Dy241 O244 2.298 . S
Dy241 O247 2.275 . S
Dy241 O249 2.307 . S
Dy241 O251 2.395 . S
Dy241 O252 2.379 . S
Dy241 O255 2.339 . S
Dy241 C271 2.738 . S
C242 O254 1.254 . S
C242 O255 1.257 . S
O243 Dy240 2.307 . S
O243 C253 1.266 . S
O244 Dy241 2.298 . S
O244 C253 1.236 . S
O245 Dy240 2.395 . S
O245 C262 1.255 . S
O246 Dy240 2.379 . S
O246 C262 1.249 . S
O247 Dy241 2.275 . S
O247 C263 1.254 . S
O248 Dy240 2.339 . S
O248 C263 1.257 . S
O249 Dy241 2.307 . S
O249 C264 1.266 . S
O250 Dy240 2.298 . S
O250 C264 1.236 . S
O251 Dy241 2.395 . S
O251 C271 1.255 . S
O252 Dy241 2.379 . S
O252 C271 1.249 . S
C253 O243 1.266 . S
C253 O244 1.236 . S
O254 Dy240 2.275 . S
O254 C242 1.254 . S
O255 Dy241 2.339 . S
O255 C242 1.257 . S
C256 C259 1.344 . S
C256 C260 1.328 . S
C256 C262 1.516 . S
C257 C258 1.304 . S
C257 C261 1.323 . S
C258 C257 1.304 . S
C258 C259 1.371 . S
C258 H272 0.930 . S
C259 C256 1.344 . S
C259 C258 1.371 . S
C259 H273 0.931 . S
C260 C256 1.328 . S
C260 C261 1.433 . S
C260 H274 0.931 . S
C261 C257 1.323 . S
C261 C260 1.433 . S
C261 H275 0.933 . S
C262 Dy240 2.738 . S
C262 O245 1.255 . S
C262 O246 1.249 . S
C262 C256 1.516 . S
C263 O247 1.254 . S
C263 O248 1.257 . S
C264 O249 1.266 . S
C264 O250 1.236 . S
C265 C268 1.344 . S
C265 C269 1.328 . S
C265 C271 1.516 . S
C266 C267 1.304 . S
C266 C270 1.323 . S
C267 C266 1.304 . S
C267 C268 1.371 . S
C267 H276 0.930 . S
C268 C265 1.344 . S
C268 C267 1.371 . S
C268 H277 0.931 . S
C269 C265 1.328 . S
C269 C270 1.433 . S
C269 H278 0.931 . S
C270 C266 1.323 . S
C270 C269 1.433 . S
C270 H279 0.933 . S
C271 Dy241 2.738 . S
C271 O251 1.255 . S
C271 O252 1.249 . S
C271 C265 1.516 . S
H272 C258 0.930 . S
H273 C259 0.931 . S
H274 C260 0.931 . S
H275 C261 0.933 . S
H276 C267 0.930 . S
H277 C268 0.931 . S
H278 C269 0.931 . S
H279 C270 0.933 . S
Dy280 O283 2.307 . S
Dy280 O285 2.395 . S
Dy280 O286 2.379 . S
Dy280 O288 2.339 . S
Dy280 O290 2.298 . S
Dy280 O294 2.275 . S
Dy280 C302 2.738 . S
Dy281 O284 2.298 . S
Dy281 O287 2.275 . S
Dy281 O289 2.307 . S
Dy281 O291 2.395 . S
Dy281 O292 2.379 . S
Dy281 O295 2.339 . S
Dy281 C311 2.738 . S
C282 O294 1.254 . S
C282 O295 1.257 . S
O283 Dy280 2.307 . S
O283 C293 1.266 . S
O284 Dy281 2.298 . S
O284 C293 1.236 . S
O285 Dy280 2.395 . S
O285 C302 1.255 . S
O286 Dy280 2.379 . S
O286 C302 1.249 . S
O287 Dy281 2.275 . S
O287 C303 1.254 . S
O288 Dy280 2.339 . S
O288 C303 1.257 . S
O289 Dy281 2.307 . S
O289 C304 1.266 . S
O290 Dy280 2.298 . S
O290 C304 1.236 . S
O291 Dy281 2.395 . S
O291 C311 1.255 . S
O292 Dy281 2.379 . S
O292 C311 1.249 . S
C293 O283 1.266 . S
C293 O284 1.236 . S
O294 Dy280 2.275 . S
O294 C282 1.254 . S
O295 Dy281 2.339 . S
O295 C282 1.257 . S
C296 C299 1.344 . S
C296 C300 1.328 . S
C296 C302 1.516 1_455 S
C297 C298 1.304 . S
C297 C301 1.323 . S
C298 C297 1.304 . S
C298 C299 1.371 . S
C298 H312 0.930 . S
C299 C296 1.344 . S
C299 C298 1.371 . S
C299 H313 0.931 . S
C300 C296 1.328 . S
C300 C301 1.433 . S
C300 H314 0.931 . S
C301 C297 1.323 . S
C301 C300 1.433 . S
C301 H315 0.933 . S
C302 Dy280 2.738 . S
C302 O285 1.255 . S
C302 O286 1.249 . S
C302 C296 1.516 1_655 S
C303 O287 1.254 . S
C303 O288 1.257 . S
C304 O289 1.266 . S
C304 O290 1.236 . S
C305 C308 1.344 . S
C305 C309 1.328 . S
C305 C311 1.516 . S
C306 C307 1.304 . S
C306 C310 1.323 . S
C307 C306 1.304 . S
C307 C308 1.371 . S
C307 H316 0.930 . S
C308 C305 1.344 . S
C308 C307 1.371 . S
C308 H317 0.931 . S
C309 C305 1.328 . S
C309 C310 1.433 . S
C309 H318 0.931 . S
C310 C306 1.323 . S
C310 C309 1.433 . S
C310 H319 0.933 . S
C311 Dy281 2.738 . S
C311 O291 1.255 . S
C311 O292 1.249 . S
C311 C305 1.516 . S
H312 C298 0.930 . S
H313 C299 0.931 . S
H314 C300 0.931 . S
H315 C301 0.933 . S
H316 C307 0.930 . S
H317 C308 0.931 . S
H318 C309 0.931 . S
H319 C310 0.933 . S
Dy320 O323 2.307 . S
Dy320 O325 2.395 . S
Dy320 O326 2.379 . S
Dy320 O328 2.339 . S
Dy320 O330 2.298 . S
Dy320 O334 2.275 . S
Dy320 C342 2.738 . S
Dy321 O324 2.298 . S
Dy321 O327 2.275 . S
Dy321 O329 2.307 . S
Dy321 O331 2.395 . S
Dy321 O332 2.379 . S
Dy321 O335 2.339 . S
Dy321 C351 2.738 . S
C322 O334 1.254 . S
C322 O335 1.257 . S
O323 Dy320 2.307 . S
O323 C333 1.266 . S
O324 Dy321 2.298 . S
O324 C333 1.236 . S
O325 Dy320 2.395 . S
O325 C342 1.255 . S
O326 Dy320 2.379 . S
O326 C342 1.249 . S
O327 Dy321 2.275 . S
O327 C343 1.254 . S
O328 Dy320 2.339 . S
O328 C343 1.257 . S
O329 Dy321 2.307 . S
O329 C344 1.266 . S
O330 Dy320 2.298 . S
O330 C344 1.236 . S
O331 Dy321 2.395 . S
O331 C351 1.255 . S
O332 Dy321 2.379 . S
O332 C351 1.249 . S
C333 O323 1.266 . S
C333 O324 1.236 . S
O334 Dy320 2.275 . S
O334 C322 1.254 . S
O335 Dy321 2.339 . S
O335 C322 1.257 . S
C336 C339 1.344 . S
C336 C340 1.328 . S
C336 C342 1.516 . S
C337 C338 1.304 . S
C337 C341 1.323 . S
C338 C337 1.304 . S
C338 C339 1.371 . S
C338 H352 0.930 . S
C339 C336 1.344 . S
C339 C338 1.371 . S
C339 H353 0.931 . S
C340 C336 1.328 . S
C340 C341 1.433 . S
C340 H354 0.931 . S
C341 C337 1.323 . S
C341 C340 1.433 . S
C341 H355 0.933 . S
C342 Dy320 2.738 . S
C342 O325 1.255 . S
C342 O326 1.249 . S
C342 C336 1.516 . S
C343 O327 1.254 . S
C343 O328 1.257 . S
C344 O329 1.266 . S
C344 O330 1.236 . S
C345 C348 1.344 . S
C345 C349 1.328 . S
C345 C351 1.516 . S
C346 C347 1.304 1_455 S
C346 C350 1.323 1_455 S
C347 C346 1.304 1_655 S
C347 C348 1.371 . S
C347 H356 0.930 . S
C348 C345 1.344 . S
C348 C347 1.371 . S
C348 H357 0.931 . S
C349 C345 1.328 . S
C349 C350 1.433 . S
C349 H358 0.931 . S
C350 C346 1.323 1_655 S
C350 C349 1.433 . S
C350 H359 0.933 1_655 S
C351 Dy321 2.738 . S
C351 O331 1.255 . S
C351 O332 1.249 . S
C351 C345 1.516 . S
H352 C338 0.930 . S
H353 C339 0.931 . S
H354 C340 0.931 . S
H355 C341 0.933 . S
H356 C347 0.930 . S
H357 C348 0.931 . S
H358 C349 0.931 . S
H359 C350 0.933 1_455 S
H360 C366 0.930 . S
H361 C370 0.930 . S
H362 C375 0.929 . S
H363 C373 0.929 . S
H364 C368 0.929 . S
H365 C374 0.929 . S
C366 H360 0.930 . S
C366 C367 1.367 1_554 S
C366 C374 1.378 . S
C367 C366 1.367 1_556 S
C367 C375 1.433 . S
C368 H364 0.929 . S
C368 C370 1.378 . S
C368 C372 1.350 . S
C369 C372 1.463 . S
C369 C374 1.350 1_556 S
C369 N377 1.427 . S
C370 H361 0.930 . S
C370 C368 1.378 . S
C370 C371 1.366 . S
C371 C370 1.366 . S
C371 C373 1.434 1_556 S
C372 C368 1.350 . S
C372 C369 1.463 . S
C372 N376 1.427 1_556 S
C373 H363 0.929 . S
C373 C371 1.434 1_554 S
C373 N376 1.384 . S
C374 H365 0.929 . S
C374 C366 1.378 . S
C374 C369 1.350 1_554 S
C375 H362 0.929 . S
C375 C367 1.433 . S
C375 N377 1.384 . S
N376 C372 1.427 1_554 S
N376 C373 1.384 . S
N377 C369 1.427 . S
N377 C375 1.384 . S
H378 C384 0.930 . S
H379 C388 0.930 . S
H380 C393 0.929 . S
H381 C391 0.929 . S
H382 C386 0.929 . S
H383 C392 0.929 . S
C384 H378 0.930 . S
C384 C385 1.367 1_556 S
C384 C392 1.378 . S
C385 C384 1.367 1_554 S
C385 C393 1.433 . S
C386 H382 0.929 . S
C386 C388 1.378 . S
C386 C390 1.360 . S
C387 C390 1.463 . S
C387 C392 1.350 1_554 S
C387 N395 1.427 . S
C388 H379 0.930 . S
C388 C386 1.378 . S
C388 C389 1.358 1_554 S
C389 C388 1.358 1_556 S
C389 C391 1.442 . S
C390 C386 1.360 . S
C390 C387 1.463 . S
C390 N394 1.417 1_554 S
C391 H381 0.929 . S
C391 C389 1.442 . S
C391 N394 1.384 . S
C392 H383 0.929 . S
C392 C384 1.378 . S
C392 C387 1.350 1_556 S
C393 H380 0.929 . S
C393 C385 1.433 . S
C393 N395 1.384 . S
N394 C390 1.417 1_556 S
N394 C391 1.384 . S
N395 C387 1.427 . S
N395 C393 1.384 . S
H396 C402 0.930 . S
H397 C406 0.930 . S
H398 C411 0.929 . S
H399 C409 0.929 . S
H400 C404 0.929 . S
H401 C410 0.929 . S
C402 H396 0.930 . S
C402 C403 1.369 . S
C402 C410 1.378 . S
C403 C402 1.369 . S
C403 C411 1.431 1_556 S
C404 H400 0.929 . S
C404 C406 1.378 . S
C404 C408 1.350 . S
C405 C408 1.463 . S
C405 C410 1.350 1_554 S
C405 N413 1.427 . S
C406 H397 0.930 . S
C406 C404 1.378 . S
C406 C407 1.367 . S
C407 C406 1.367 . S
C407 C409 1.433 1_554 S
C408 C404 1.350 . S
C408 C405 1.463 . S
C408 N412 1.427 1_554 S
C409 H399 0.929 . S
C409 C407 1.433 1_556 S
C409 N412 1.384 . S
C410 H401 0.929 . S
C410 C402 1.378 . S
C410 C405 1.350 1_556 S
C411 H398 0.929 . S
C411 C403 1.431 1_554 S
C411 N413 1.384 . S
N412 C408 1.427 1_556 S
N412 C409 1.384 . S
N413 C405 1.427 . S
N413 C411 1.384 . S
H414 C420 0.930 . S
H415 C424 0.930 . S
H416 C429 0.929 . S
H417 C427 0.929 . S
H418 C422 0.929 . S
H419 C428 0.929 . S
C420 H414 0.930 . S
C420 C421 1.367 1_556 S
C420 C428 1.378 . S
C421 C420 1.367 1_554 S
C421 C429 1.433 . S
C422 H418 0.929 . S
C422 C424 1.378 . S
C422 C426 1.350 . S
C423 C426 1.463 . S
C423 C428 1.350 1_554 S
C423 N431 1.427 . S
C424 H415 0.930 . S
C424 C422 1.378 . S
C424 C425 1.367 . S
C425 C424 1.367 . S
C425 C427 1.433 1_554 S
C426 C422 1.350 . S
C426 C423 1.463 . S
C426 N430 1.427 1_554 S
C427 H417 0.929 . S
C427 C425 1.433 1_556 S
C427 N430 1.384 . S
C428 H419 0.929 . S
C428 C420 1.378 . S
C428 C423 1.350 1_556 S
C429 H416 0.929 . S
C429 C421 1.433 . S
C429 N431 1.384 . S
N430 C426 1.427 1_556 S
N430 C427 1.384 . S
N431 C423 1.427 . S
N431 C429 1.384 . S
H432 C438 0.930 . S
H433 C442 0.930 . S
H434 C447 0.929 . S
H435 C445 0.929 . S
H436 C440 0.929 . S
H437 C446 0.929 . S
C438 H432 0.930 . S
C438 C439 1.367 1_556 S
C438 C446 1.378 . S
C439 C438 1.367 1_554 S
C439 C447 1.433 . S
C440 H436 0.929 . S
C440 C442 1.378 . S
C440 C444 1.350 . S
C441 C444 1.463 . S
C441 C446 1.350 1_554 S
C441 N449 1.427 . S
C442 H433 0.930 . S
C442 C440 1.378 . S
C442 C443 1.367 . S
C443 C442 1.367 . S
C443 C445 1.433 1_554 S
C444 C440 1.350 . S
C444 C441 1.463 . S
C444 N448 1.427 1_554 S
C445 H435 0.929 . S
C445 C443 1.433 1_556 S
C445 N448 1.384 . S
C446 H437 0.929 . S
C446 C438 1.378 . S
C446 C441 1.350 1_556 S
C447 H434 0.929 . S
C447 C439 1.433 . S
C447 N449 1.384 . S
N448 C444 1.427 1_556 S
N448 C445 1.384 . S
N449 C441 1.427 . S
N449 C447 1.384 . S
H450 C456 0.930 . S
H451 C460 0.930 . S
H452 C465 0.927 1_556 S
H453 C463 0.929 . S
H454 C458 0.933 . S
H455 C464 0.929 . S
C456 H450 0.930 . S
C456 C457 1.367 . S
C456 C464 1.378 . S
C457 C456 1.367 . S
C457 C465 1.433 . S
C458 H454 0.933 . S
C458 C460 1.379 . S
C458 C462 1.344 1_556 S
C459 C462 1.463 . S
C459 C464 1.350 . S
C459 N467 1.427 . S
C460 H451 0.930 . S
C460 C458 1.379 . S
C460 C461 1.367 1_556 S
C461 C460 1.367 1_554 S
C461 C463 1.433 . S
C462 C458 1.344 1_554 S
C462 C459 1.463 . S
C462 N466 1.427 . S
C463 H453 0.929 . S
C463 C461 1.433 . S
C463 N466 1.384 . S
C464 H455 0.929 . S
C464 C456 1.378 . S
C464 C459 1.350 . S
C465 H452 0.927 1_554 S
C465 C457 1.433 . S
C465 N467 1.384 . S
N466 C462 1.427 . S
N466 C463 1.384 . S
N467 C459 1.427 . S
N467 C465 1.384 . S
H468 C474 0.930 . S
H469 C478 0.930 . S
H470 C483 0.929 . S
H471 C481 0.929 . S
H472 C476 0.929 . S
H473 C482 0.929 . S
C474 H468 0.930 . S
C474 C475 1.367 . S
C474 C482 1.378 . S
C475 C474 1.367 . S
C475 C483 1.433 . S
C476 H472 0.929 . S
C476 C478 1.378 . S
C476 C480 1.350 . S
C477 C480 1.463 1_655 S
C477 C482 1.350 . S
C477 N485 1.427 . S
C478 H469 0.930 . S
C478 C476 1.378 . S
C478 C479 1.367 . S
C479 C478 1.367 . S
C479 C481 1.433 . S
C480 C476 1.350 . S
C480 C477 1.463 1_455 S
C480 N484 1.427 . S
C481 H471 0.929 . S
C481 C479 1.433 . S
C481 N484 1.384 . S
C482 H473 0.929 . S
C482 C474 1.378 . S
C482 C477 1.350 . S
C483 H470 0.929 . S
C483 C475 1.433 . S
C483 N485 1.384 . S
N484 C480 1.427 . S
N484 C481 1.384 . S
N485 C477 1.427 . S
N485 C483 1.384 . S
H486 C492 0.930 . S
H487 C496 0.930 . S
H488 C501 0.929 . S
H489 C499 0.929 . S
H490 C494 0.929 . S
H491 C500 0.929 . S
C492 H486 0.930 . S
C492 C493 1.367 . S
C492 C500 1.378 . S
C493 C492 1.367 . S
C493 C501 1.433 . S
C494 H490 0.929 . S
C494 C496 1.378 . S
C494 C498 1.350 . S
C495 C498 1.463 . S
C495 C500 1.350 . S
C495 N503 1.427 . S
C496 H487 0.930 . S
C496 C494 1.378 . S
C496 C497 1.367 . S
C497 C496 1.367 . S
C497 C499 1.433 . S
C498 C494 1.350 . S
C498 C495 1.463 . S
C498 N502 1.427 . S
C499 H489 0.929 . S
C499 C497 1.433 . S
C499 N502 1.384 . S
C500 H491 0.929 . S
C500 C492 1.378 . S
C500 C495 1.350 . S
C501 H488 0.929 . S
C501 C493 1.433 . S
C501 N503 1.384 . S
N502 C498 1.427 . S
N502 C499 1.384 . S
N503 C495 1.427 . S
N503 C501 1.384 . S
H504 C510 0.930 . S
H505 C514 0.930 . S
H506 C519 0.929 . S
H507 C517 0.929 . S
H508 C512 0.929 . S
H509 C518 0.929 . S
C510 H504 0.930 . S
C510 C511 1.367 . S
C510 C518 1.378 . S
C511 C510 1.367 . S
C511 C519 1.433 . S
C512 H508 0.929 . S
C512 C514 1.378 . S
C512 C516 1.350 . S
C513 C516 1.463 1_545 S
C513 C518 1.350 . S
C513 N521 1.427 . S
C514 H505 0.930 . S
C514 C512 1.378 . S
C514 C515 1.367 . S
C515 C514 1.367 . S
C515 C517 1.433 . S
C516 C512 1.350 . S
C516 C513 1.463 1_565 S
C516 N520 1.427 . S
C517 H507 0.929 . S
C517 C515 1.433 . S
C517 N520 1.384 . S
C518 H509 0.929 . S
C518 C510 1.378 . S
C518 C513 1.350 . S
C519 H506 0.929 . S
C519 C511 1.433 . S
C519 N521 1.384 . S
N520 C516 1.427 . S
N520 C517 1.384 . S
N521 C513 1.427 . S
N521 C519 1.384 . S
H522 C528 0.930 . S
H523 C532 0.930 . S
H524 C537 0.929 . S
H525 C535 0.929 . S
H526 C530 0.929 . S
H527 C536 0.929 . S
C528 H522 0.930 . S
C528 C529 1.367 . S
C528 C536 1.378 . S
C529 C528 1.367 . S
C529 C537 1.433 . S
C530 H526 0.929 . S
C530 C532 1.378 . S
C530 C534 1.350 . S
C531 C534 1.463 . S
C531 C536 1.350 . S
C531 N539 1.427 . S
C532 H523 0.930 . S
C532 C530 1.378 . S
C532 C533 1.367 . S
C533 C532 1.367 . S
C533 C535 1.433 . S
C534 C530 1.350 . S
C534 C531 1.463 . S
C534 N538 1.427 . S
C535 H525 0.929 . S
C535 C533 1.433 . S
C535 N538 1.384 . S
C536 H527 0.929 . S
C536 C528 1.378 . S
C536 C531 1.350 . S
C537 H524 0.929 . S
C537 C529 1.433 . S
C537 N539 1.384 . S
N538 C534 1.427 . S
N538 C535 1.384 . S
N539 C531 1.427 . S
N539 C537 1.384 . S
H540 C546 0.930 . S
H541 C550 0.930 . S
H542 C555 0.929 . S
H543 C553 0.929 . S
H544 C548 0.929 . S
H545 C554 0.929 . S
C546 H540 0.930 . S
C546 C547 1.367 . S
C546 C554 1.378 . S
C547 C546 1.367 . S
C547 C555 1.433 . S
C548 H544 0.929 . S
C548 C550 1.378 . S
C548 C552 1.350 . S
C549 C552 1.463 . S
C549 C554 1.350 . S
C549 N557 1.427 . S
C550 H541 0.930 . S
C550 C548 1.378 . S
C550 C551 1.367 . S
C551 C550 1.367 . S
C551 C553 1.433 . S
C552 C548 1.350 . S
C552 C549 1.463 . S
C552 N556 1.427 . S
C553 H543 0.929 . S
C553 C551 1.433 . S
C553 N556 1.384 . S
C554 H545 0.929 . S
C554 C546 1.378 . S
C554 C549 1.350 . S
C555 H542 0.929 . S
C555 C547 1.433 . S
C555 N557 1.384 . S
N556 C552 1.427 . S
N556 C553 1.384 . S
N557 C549 1.427 . S
N557 C555 1.384 . S
H558 C564 0.930 . S
H559 C568 0.930 . S
H560 C573 0.929 . S
H561 C571 0.929 . S
H562 C566 0.929 . S
H563 C572 0.929 . S
C564 H558 0.930 . S
C564 C565 1.367 . S
C564 C572 1.378 . S
C565 C564 1.367 . S
C565 C573 1.433 . S
C566 H562 0.929 . S
C566 C568 1.378 . S
C566 C570 1.350 . S
C567 C570 1.463 . S
C567 C572 1.350 . S
C567 N575 1.427 . S
C568 H559 0.930 . S
C568 C566 1.378 . S
C568 C569 1.367 . S
C569 C568 1.367 . S
C569 C571 1.433 . S
C570 C566 1.350 . S
C570 C567 1.463 . S
C570 N574 1.427 . S
C571 H561 0.929 . S
C571 C569 1.433 . S
C571 N574 1.384 . S
C572 H563 0.929 . S
C572 C564 1.378 . S
C572 C567 1.350 . S
C573 H560 0.929 . S
C573 C565 1.433 . S
C573 N575 1.384 . S
N574 C570 1.427 . S
N574 C571 1.384 . S
N575 C567 1.427 . S
N575 C573 1.384 . S
H576 C582 0.930 . S
H577 C586 0.930 . S
H578 C591 0.929 . S
H579 C589 0.929 . S
H580 C584 0.929 . S
H581 C590 0.929 . S
C582 H576 0.930 . S
C582 C583 1.367 . S
C582 C590 1.378 . S
C583 C582 1.367 . S
C583 C591 1.433 . S
C584 H580 0.929 . S
C584 C586 1.378 . S
C584 C588 1.350 . S
C585 C588 1.463 . S
C585 C590 1.350 . S
C585 N593 1.427 . S
C586 H577 0.930 . S
C586 C584 1.378 . S
C586 C587 1.367 . S
C587 C586 1.367 . S
C587 C589 1.433 . S
C588 C584 1.350 . S
C588 C585 1.463 . S
C588 N592 1.427 . S
C589 H579 0.929 . S
C589 C587 1.433 . S
C589 N592 1.384 . S
C590 H581 0.929 . S
C590 C582 1.378 . S
C590 C585 1.350 . S
C591 H578 0.929 . S
C591 C583 1.433 . S
C591 N593 1.384 . S
N592 C588 1.427 . S
N592 C589 1.384 . S
N593 C585 1.427 . S
N593 C591 1.384 . S
H594 C600 0.930 . S
H595 C604 0.930 . S
H596 C609 0.929 . S
H597 C607 0.929 . S
H598 C602 0.929 . S
H599 C608 0.929 . S
C600 H594 0.930 . S
C600 C601 1.367 . S
C600 C608 1.378 . S
C601 C600 1.367 . S
C601 C609 1.433 . S
C602 H598 0.929 . S
C602 C604 1.378 . S
C602 C606 1.350 . S
C603 C606 1.463 . S
C603 C608 1.350 . S
C603 N611 1.427 . S
C604 H595 0.930 . S
C604 C602 1.378 . S
C604 C605 1.367 . S
C605 C604 1.367 . S
C605 C607 1.433 . S
C606 C602 1.350 . S
C606 C603 1.463 . S
C606 N610 1.427 . S
C607 H597 0.929 . S
C607 C605 1.433 . S
C607 N610 1.384 . S
C608 H599 0.929 . S
C608 C600 1.378 . S
C608 C603 1.350 . S
C609 H596 0.929 . S
C609 C601 1.433 . S
C609 N611 1.384 . S
N610 C606 1.427 . S
N610 C607 1.384 . S
N611 C603 1.427 . S
N611 C609 1.384 . S
H612 C618 0.930 . S
H613 C622 0.930 . S
H614 C627 0.929 . S
H615 C625 0.929 . S
H616 C620 0.929 . S
H617 C626 0.929 . S
C618 H612 0.930 . S
C618 C619 1.367 . S
C618 C626 1.378 . S
C619 C618 1.367 . S
C619 C627 1.433 . S
C620 H616 0.929 . S
C620 C622 1.378 . S
C620 C624 1.350 . S
C621 C624 1.463 . S
C621 C626 1.350 . S
C621 N629 1.427 . S
C622 H613 0.930 . S
C622 C620 1.378 . S
C622 C623 1.367 . S
C623 C622 1.367 . S
C623 C625 1.433 . S
C624 C620 1.350 . S
C624 C621 1.463 . S
C624 N628 1.427 . S
C625 H615 0.929 . S
C625 C623 1.433 . S
C625 N628 1.384 . S
C626 H617 0.929 . S
C626 C618 1.378 . S
C626 C621 1.350 . S
C627 H614 0.929 . S
C627 C619 1.433 . S
C627 N629 1.384 . S
N628 C624 1.427 . S
N628 C625 1.384 . S
N629 C621 1.427 . S
N629 C627 1.384 . S
H630 C636 0.930 . S
H631 C640 0.930 . S
H632 C645 0.929 . S
H633 C643 0.929 . S
H634 C638 0.929 . S
H635 C644 0.929 . S
C636 H630 0.930 . S
C636 C637 1.367 . S
C636 C644 1.378 . S
C637 C636 1.367 . S
C637 C645 1.433 . S
C638 H634 0.929 . S
C638 C640 1.378 1_565 S
C638 C642 1.350 . S
C639 C642 1.463 . S
C639 C644 1.350 . S
C639 N647 1.427 . S
C640 H631 0.930 . S
C640 C638 1.378 1_545 S
C640 C641 1.367 . S
C641 C640 1.367 . S
C641 C643 1.433 . S
C642 C638 1.350 . S
C642 C639 1.463 . S
C642 N646 1.427 1_565 S
C643 H633 0.929 . S
C643 C641 1.433 . S
C643 N646 1.384 . S
C644 H635 0.929 . S
C644 C636 1.378 . S
C644 C639 1.350 . S
C645 H632 0.929 . S
C645 C637 1.433 . S
C645 N647 1.384 . S
N646 C642 1.427 1_545 S
N646 C643 1.384 . S
N647 C639 1.427 . S
N647 C645 1.384 . S
H648 C654 0.930 1_545 S
H649 C658 0.930 . S
H650 C663 0.929 . S
H651 C661 0.929 . S
H652 C656 0.929 . S
H653 C662 0.929 1_545 S
C654 H648 0.930 1_565 S
C654 C655 1.367 . S
C654 C662 1.378 . S
C655 C654 1.367 . S
C655 C663 1.433 . S
C656 H652 0.929 . S
C656 C658 1.378 . S
C656 C660 1.350 . S
C657 C660 1.463 . S
C657 C662 1.350 . S
C657 N665 1.427 . S
C658 H649 0.930 . S
C658 C656 1.378 . S
C658 C659 1.367 1_565 S
C659 C658 1.367 1_545 S
C659 C661 1.433 . S
C660 C656 1.350 . S
C660 C657 1.463 . S
C660 N664 1.427 1_565 S
C661 H651 0.929 . S
C661 C659 1.433 . S
C661 N664 1.384 . S
C662 H653 0.929 1_565 S
C662 C654 1.378 . S
C662 C657 1.350 . S
C663 H650 0.929 . S
C663 C655 1.433 . S
C663 N665 1.384 . S
N664 C660 1.427 1_545 S
N664 C661 1.384 . S
N665 C657 1.427 . S
N665 C663 1.384 . S
H666 C672 0.930 . S
H667 C676 0.930 . S
H668 C681 0.929 . S
H669 C679 0.929 . S
H670 C674 0.929 . S
H671 C680 0.929 . S
C672 H666 0.930 . S
C672 C673 1.367 . S
C672 C680 1.378 . S
C673 C672 1.367 . S
C673 C681 1.433 . S
C674 H670 0.929 . S
C674 C676 1.378 . S
C674 C678 1.350 . S
C675 C678 1.463 . S
C675 C680 1.350 . S
C675 N683 1.427 . S
C676 H667 0.930 . S
C676 C674 1.378 . S
C676 C677 1.367 . S
C677 C676 1.367 . S
C677 C679 1.433 . S
C678 C674 1.350 . S
C678 C675 1.463 . S
C678 N682 1.427 . S
C679 H669 0.929 . S
C679 C677 1.433 . S
C679 N682 1.384 . S
C680 H671 0.929 . S
C680 C672 1.378 . S
C680 C675 1.350 . S
C681 H668 0.929 . S
C681 C673 1.433 . S
C681 N683 1.384 . S
N682 C678 1.427 . S
N682 C679 1.384 . S
N683 C675 1.427 . S
N683 C681 1.384 . S
H684 C690 0.930 . S
H685 C694 0.930 . S
H686 C699 0.929 . S
H687 C697 0.929 . S
H688 C692 0.929 . S
H689 C698 0.929 . S
C690 H684 0.930 . S
C690 C691 1.367 . S
C690 C698 1.378 . S
C691 C690 1.367 . S
C691 C699 1.433 . S
C692 H688 0.929 . S
C692 C694 1.378 . S
C692 C696 1.350 . S
C693 C696 1.463 . S
C693 C698 1.350 . S
C693 N701 1.427 . S
C694 H685 0.930 . S
C694 C692 1.378 . S
C694 C695 1.367 . S
C695 C694 1.367 . S
C695 C697 1.433 . S
C696 C692 1.350 . S
C696 C693 1.463 . S
C696 N700 1.427 . S
C697 H687 0.929 . S
C697 C695 1.433 . S
C697 N700 1.384 . S
C698 H689 0.929 . S
C698 C690 1.378 . S
C698 C693 1.350 . S
C699 H686 0.929 . S
C699 C691 1.433 . S
C699 N701 1.384 . S
N700 C696 1.427 . S
N700 C697 1.384 . S
N701 C693 1.427 . S
N701 C699 1.384 . S
H702 C708 0.930 . S
H703 C712 0.930 . S
H704 C717 0.929 . S
H705 C715 0.929 . S
H706 C710 0.929 . S
H707 C716 0.929 . S
C708 H702 0.930 . S
C708 C709 1.367 . S
C708 C716 1.378 . S
C709 C708 1.367 . S
C709 C717 1.433 . S
C710 H706 0.929 . S
C710 C712 1.378 . S
C710 C714 1.350 . S
C711 C714 1.463 . S
C711 C716 1.350 . S
C711 N719 1.427 . S
C712 H703 0.930 . S
C712 C710 1.378 . S
C712 C713 1.367 . S
C713 C712 1.367 . S
C713 C715 1.433 . S
C714 C710 1.350 . S
C714 C711 1.463 . S
C714 N718 1.427 . S
C715 H705 0.929 . S
C715 C713 1.433 . S
C715 N718 1.384 . S
C716 H707 0.929 . S
C716 C708 1.378 . S
C716 C711 1.350 . S
C717 H704 0.929 . S
C717 C709 1.433 . S
C717 N719 1.384 . S
N718 C714 1.427 . S
N718 C715 1.384 . S
N719 C711 1.427 . S
N719 C717 1.384 . S
H720 C726 0.930 1_545 S
H721 C730 0.930 . S
H722 C735 0.929 . S
H723 C733 0.929 . S
H724 C728 0.929 . S
H725 C734 0.929 . S
C726 H720 0.930 1_565 S
C726 C727 1.367 . S
C726 C734 1.378 . S
C727 C726 1.367 . S
C727 C735 1.433 . S
C728 H724 0.929 . S
C728 C730 1.378 . S
C728 C732 1.350 . S
C729 C732 1.463 . S
C729 C734 1.350 . S
C729 N737 1.427 . S
C730 H721 0.930 . S
C730 C728 1.378 . S
C730 C731 1.367 . S
C731 C730 1.367 . S
C731 C733 1.433 . S
C732 C728 1.350 . S
C732 C729 1.463 . S
C732 N736 1.427 . S
C733 H723 0.929 . S
C733 C731 1.433 . S
C733 N736 1.384 . S
C734 H725 0.929 . S
C734 C726 1.378 . S
C734 C729 1.350 . S
C735 H722 0.929 . S
C735 C727 1.433 . S
C735 N737 1.384 . S
N736 C732 1.427 . S
N736 C733 1.384 . S
N737 C729 1.427 . S
N737 C735 1.384 . S
H738 C744 0.930 . S
H739 C748 0.930 . S
H740 C753 0.929 . S
H741 C751 0.929 . S
H742 C746 0.929 . S
H743 C752 0.929 . S
C744 H738 0.930 . S
C744 C745 1.367 . S
C744 C752 1.378 . S
C745 C744 1.367 . S
C745 C753 1.433 . S
C746 H742 0.929 . S
C746 C748 1.378 . S
C746 C750 1.350 . S
C747 C750 1.463 . S
C747 C752 1.350 . S
C747 N755 1.427 . S
C748 H739 0.930 . S
C748 C746 1.378 . S
C748 C749 1.367 . S
C749 C748 1.367 . S
C749 C751 1.433 . S
C750 C746 1.350 . S
C750 C747 1.463 . S
C750 N754 1.427 . S
C751 H741 0.929 . S
C751 C749 1.433 . S
C751 N754 1.384 . S
C752 H743 0.929 . S
C752 C744 1.378 . S
C752 C747 1.350 . S
C753 H740 0.929 . S
C753 C745 1.433 . S
C753 N755 1.384 . S
N754 C750 1.427 . S
N754 C751 1.384 . S
N755 C747 1.427 . S
N755 C753 1.384 . S
H756 C762 0.930 1_455 S
H757 C766 0.930 . S
H758 C771 0.929 . S
H759 C769 0.929 . S
H760 C764 0.929 . S
H761 C770 0.929 . S
C762 H756 0.930 1_655 S
C762 C763 1.367 . S
C762 C770 1.378 . S
C763 C762 1.367 . S
C763 C771 1.433 . S
C764 H760 0.929 . S
C764 C766 1.378 . S
C764 C768 1.350 . S
C765 C768 1.463 . S
C765 C770 1.350 . S
C765 N773 1.427 . S
C766 H757 0.930 . S
C766 C764 1.378 . S
C766 C767 1.367 . S
C767 C766 1.367 . S
C767 C769 1.433 . S
C768 C764 1.350 . S
C768 C765 1.463 . S
C768 N772 1.427 . S
C769 H759 0.929 . S
C769 C767 1.433 . S
C769 N772 1.384 . S
C770 H761 0.929 . S
C770 C762 1.378 . S
C770 C765 1.350 . S
C771 H758 0.929 . S
C771 C763 1.433 . S
C771 N773 1.384 . S
N772 C768 1.427 . S
N772 C769 1.384 . S
N773 C765 1.427 . S
N773 C771 1.384 . S
H774 C780 0.930 . S
H775 C784 0.930 . S
H776 C789 0.929 . S
H777 C787 0.929 . S
H778 C782 0.929 . S
H779 C788 0.929 . S
C780 H774 0.930 . S
C780 C781 1.367 . S
C780 C788 1.378 . S
C781 C780 1.367 . S
C781 C789 1.433 . S
C782 H778 0.929 . S
C782 C784 1.378 . S
C782 C786 1.350 . S
C783 C786 1.463 . S
C783 C788 1.350 . S
C783 N791 1.427 . S
C784 H775 0.930 . S
C784 C782 1.378 . S
C784 C785 1.367 . S
C785 C784 1.367 . S
C785 C787 1.433 . S
C786 C782 1.350 . S
C786 C783 1.463 . S
C786 N790 1.427 . S
C787 H777 0.929 . S
C787 C785 1.433 . S
C787 N790 1.384 . S
C788 H779 0.929 . S
C788 C780 1.378 . S
C788 C783 1.350 . S
C789 H776 0.929 . S
C789 C781 1.433 . S
C789 N791 1.384 . S
N790 C786 1.427 . S
N790 C787 1.384 . S
N791 C783 1.427 . S
N791 C789 1.384 . S
H792 C798 0.930 . S
H793 C802 0.930 . S
H794 C807 0.929 . S
H795 C805 0.929 . S
H796 C800 0.929 . S
H797 C806 0.929 . S
C798 H792 0.930 . S
C798 C799 1.367 . S
C798 C806 1.378 . S
C799 C798 1.367 . S
C799 C807 1.433 . S
C800 H796 0.929 . S
C800 C802 1.378 . S
C800 C804 1.350 . S
C801 C804 1.463 . S
C801 C806 1.350 . S
C801 N809 1.427 . S
C802 H793 0.930 . S
C802 C800 1.378 . S
C802 C803 1.367 . S
C803 C802 1.367 . S
C803 C805 1.433 . S
C804 C800 1.350 . S
C804 C801 1.463 . S
C804 N808 1.427 . S
C805 H795 0.929 . S
C805 C803 1.433 . S
C805 N808 1.384 . S
C806 H797 0.929 . S
C806 C798 1.378 . S
C806 C801 1.350 . S
C807 H794 0.929 . S
C807 C799 1.433 . S
C807 N809 1.384 . S
N808 C804 1.427 . S
N808 C805 1.384 . S
N809 C801 1.427 . S
N809 C807 1.384 . S
H810 C816 0.930 . S
H811 C820 0.930 . S
H812 C825 0.929 . S
H813 C823 0.929 . S
H814 C818 0.929 . S
H815 C824 0.929 . S
C816 H810 0.930 . S
C816 C817 1.367 . S
C816 C824 1.378 . S
C817 C816 1.367 . S
C817 C825 1.433 . S
C818 H814 0.929 . S
C818 C820 1.378 . S
C818 C822 1.350 . S
C819 C822 1.463 1_565 S
C819 C824 1.350 . S
C819 N827 1.427 . S
C820 H811 0.930 . S
C820 C818 1.378 . S
C820 C821 1.367 . S
C821 C820 1.367 . S
C821 C823 1.433 . S
C822 C818 1.350 . S
C822 C819 1.463 1_545 S
C822 N826 1.427 . S
C823 H813 0.929 . S
C823 C821 1.433 . S
C823 N826 1.384 . S
C824 H815 0.929 . S
C824 C816 1.378 . S
C824 C819 1.350 . S
C825 H812 0.929 . S
C825 C817 1.433 . S
C825 N827 1.384 . S
N826 C822 1.427 . S
N826 C823 1.384 . S
N827 C819 1.427 . S
N827 C825 1.384 . S
H828 C834 0.930 . S
H829 C838 0.930 . S
H830 C843 0.929 . S
H831 C841 0.929 . S
H832 C836 0.929 . S
H833 C842 0.929 . S
C834 H828 0.930 . S
C834 C835 1.367 . S
C834 C842 1.378 . S
C835 C834 1.367 . S
C835 C843 1.433 . S
C836 H832 0.929 . S
C836 C838 1.378 . S
C836 C840 1.350 . S
C837 C840 1.463 1_655 S
C837 C842 1.350 . S
C837 N845 1.427 . S
C838 H829 0.930 . S
C838 C836 1.378 . S
C838 C839 1.367 . S
C839 C838 1.367 . S
C839 C841 1.433 . S
C840 C836 1.350 . S
C840 C837 1.463 1_455 S
C840 N844 1.427 . S
C841 H831 0.929 . S
C841 C839 1.433 . S
C841 N844 1.384 . S
C842 H833 0.929 . S
C842 C834 1.378 . S
C842 C837 1.350 . S
C843 H830 0.929 . S
C843 C835 1.433 . S
C843 N845 1.384 . S
N844 C840 1.427 . S
N844 C841 1.384 . S
N845 C837 1.427 . S
N845 C843 1.384 . S
C367 C66 0.499 . S
C371 C17 0.576 1_556 S
C385 C104 3.350 . S
C389 C53 3.383 . S
C403 C97 0.976 1_556 S
C407 C24 0.979 . S
C421 C93 3.013 . S
C425 C64 2.995 . S
C439 C106 1.989 . S
C443 C13 1.983 . S
C457 C26 0.555 . S
C461 C57 0.671 . S
C475 C137 2.817 . S
C479 C184 2.855 . S
C493 C224 0.828 . S
C497 C177 0.831 . S
C511 C217 0.835 . S
C515 C144 0.837 . S
C529 C186 0.333 . S
C533 C213 0.302 . S
C547 C226 2.080 . S
C551 C133 2.074 . S
C565 C173 2.303 . S
C569 C146 2.308 . S
C583 C306 0.533 . S
C587 C257 0.622 . S
C601 C293 3.424 . S
C605 C344 3.394 . S
C619 C337 0.991 . S
C623 C264 0.995 . S
C637 C333 2.949 . S
C641 C304 2.931 . S
C655 C346 2.015 . S
C659 C253 2.009 . S
C673 C266 0.537 . S
C677 C297 0.673 . S
C691 C223 2.336 . S
C695 C2 2.605 . S
C709 C143 2.031 . S
C713 C63 1.981 . S
C727 C82 2.983 . S
C731 C183 2.791 . S
C745 C103 2.332 . S
C749 C242 2.610 . S
C763 C23 1.983 . S
C767 C303 1.954 . S
C781 C322 2.972 . S
C785 C42 2.990 . S
C799 C122 2.655 . S
C803 C343 2.382 . S
C817 C162 2.144 . S
C821 C263 2.008 . S
C835 C282 2.951 . S
C839 C202 2.927 . S
