# Generated by pormake.
# Topology smc, (6)-cn, num edge types: 1
# Building blocks:
#     Node 0, Type 0, BuildingBlock: OJICUG_clean_sbu_0, # of connection points: 6
#     Node 1, Type 0, BuildingBlock: OJICUG_clean_sbu_0, # of connection points: 6
#     Node 2, Type 0, BuildingBlock: OJICUG_clean_sbu_0, # of connection points: 6
#     Node 3, Type 0, BuildingBlock: OJICUG_clean_sbu_0, # of connection points: 6
#     Node 4, Type 0, BuildingBlock: OJICUG_clean_sbu_0, # of connection points: 6
#     Node 5, Type 0, BuildingBlock: OJICUG_clean_sbu_0, # of connection points: 6
#     Node 6, Type 0, BuildingBlock: OJICUG_clean_sbu_0, # of connection points: 6
#     Node 7, Type 0, BuildingBlock: OJICUG_clean_sbu_0, # of connection points: 6
#     Node 8, Type 0, BuildingBlock: OJICUG_clean_sbu_0, # of connection points: 6
#     Edge 9, Type (0, 0), BuildingBlock: CIFDUS_clean_linker_0, # of connection points: 2
#     Edge 10, Type (0, 0), BuildingBlock: CIFDUS_clean_linker_0, # of connection points: 2
#     Edge 11, Type (0, 0), BuildingBlock: CIFDUS_clean_linker_0, # of connection points: 2
#     Edge 12, Type (0, 0), BuildingBlock: CIFDUS_clean_linker_0, # of connection points: 2
#     Edge 13, Type (0, 0), BuildingBlock: CIFDUS_clean_linker_0, # of connection points: 2
#     Edge 14, Type (0, 0), BuildingBlock: CIFDUS_clean_linker_0, # of connection points: 2
#     Edge 15, Type (0, 0), BuildingBlock: CIFDUS_clean_linker_0, # of connection points: 2
#     Edge 16, Type (0, 0), BuildingBlock: CIFDUS_clean_linker_0, # of connection points: 2
#     Edge 17, Type (0, 0), BuildingBlock: CIFDUS_clean_linker_0, # of connection points: 2
#     Edge 18, Type (0, 0), BuildingBlock: CIFDUS_clean_linker_0, # of connection points: 2
#     Edge 19, Type (0, 0), BuildingBlock: CIFDUS_clean_linker_0, # of connection points: 2
#     Edge 20, Type (0, 0), BuildingBlock: CIFDUS_clean_linker_0, # of connection points: 2
#     Edge 21, Type (0, 0), BuildingBlock: CIFDUS_clean_linker_0, # of connection points: 2
#     Edge 22, Type (0, 0), BuildingBlock: CIFDUS_clean_linker_0, # of connection points: 2
#     Edge 23, Type (0, 0), BuildingBlock: CIFDUS_clean_linker_0, # of connection points: 2
#     Edge 24, Type (0, 0), BuildingBlock: CIFDUS_clean_linker_0, # of connection points: 2
#     Edge 25, Type (0, 0), BuildingBlock: CIFDUS_clean_linker_0, # of connection points: 2
#     Edge 26, Type (0, 0), BuildingBlock: CIFDUS_clean_linker_0, # of connection points: 2
#     Edge 27, Type (0, 0), BuildingBlock: CIFDUS_clean_linker_0, # of connection points: 2
#     Edge 28, Type (0, 0), BuildingBlock: CIFDUS_clean_linker_0, # of connection points: 2
#     Edge 29, Type (0, 0), BuildingBlock: CIFDUS_clean_linker_0, # of connection points: 2
#     Edge 30, Type (0, 0), BuildingBlock: CIFDUS_clean_linker_0, # of connection points: 2
#     Edge 31, Type (0, 0), BuildingBlock: CIFDUS_clean_linker_0, # of connection points: 2
#     Edge 32, Type (0, 0), BuildingBlock: CIFDUS_clean_linker_0, # of connection points: 2
#     Edge 33, Type (0, 0), BuildingBlock: CIFDUS_clean_linker_0, # of connection points: 2
#     Edge 34, Type (0, 0), BuildingBlock: CIFDUS_clean_linker_0, # of connection points: 2
#     Edge 35, Type (0, 0), BuildingBlock: CIFDUS_clean_linker_0, # of connection points: 2
# Relax obj value: 0.196
# Max RMSD: 0.270
# Mean RMSD: 0.270
data_MOF--net-smc--node1-OJICUG_clean_sbu_0--edge1-CIFDUS_clean_linker_0
_symmetry_space_group_name_H-M    P1
_symmetry_Int_Tables_number       1
_symmetry_cell_setting            triclinic
loop_
_symmetry_equiv_pos_as_xyz
'x, y, z'
_cell_length_a     27.319227
_cell_length_b     27.332615
_cell_length_c     40.979547
_cell_angle_alpha  89.856455
_cell_angle_beta   90.199203
_cell_angle_gamma 120.20568
loop_
_atom_site_label
_atom_site_type_symbol
_atom_site_fract_x
_atom_site_fract_y
_atom_site_fract_z
_atom_type_partial_charge
Sc0 Sc 0.03414 0.51559 0.95391 0.0
Sc1 Sc 0.00238 0.38671 -0.01036 0.0
Sc2 Sc 0.96919 0.47908 0.02884 0.0
O3 O 0.00224 0.45975 -0.00919 0.0
C4 C 0.07903 0.59143 0.01589 0.0
C5 C 0.12792 0.4831 0.97165 0.0
C6 C 0.01385 0.40661 0.06509 0.0
C7 C 0.98759 0.40113 0.91475 0.0
C8 C 0.92561 0.51738 0.97052 0.0
C9 C 0.87601 0.35466 0.00665 0.0
O10 O 0.06187 0.58596 0.98658 0.0
O11 O 0.09132 0.43227 0.97924 0.0
O12 O 0.98866 0.43476 0.06483 0.0
O13 O 0.01123 0.45449 0.91588 0.0
O14 O 0.94533 0.52815 -0.00077 0.0
O15 O 0.91317 0.34096 -5e-05 0.0
O16 O 0.95184 0.50922 0.94746 0.0
O17 O 0.97875 0.37093 0.9398 0.0
O18 O 0.88834 0.40344 0.01773 0.0
O19 O 0.11508 0.51963 0.96144 0.0
O20 O 0.05164 0.55394 0.0376 0.0
O21 O 0.02616 0.39008 0.03933 0.0
Sc22 Sc 0.50277 0.54179 0.9526 0.0
Sc23 Sc 0.62843 0.63386 -0.00694 0.0
Sc24 Sc 0.52921 0.50465 0.02799 0.0
O25 O 0.55432 0.56096 -0.00873 0.0
C26 C 0.41943 0.50435 0.01076 0.0
C27 C 0.53605 0.66727 0.97355 0.0
C28 C 0.59844 0.61868 0.06762 0.0
C29 C 0.62149 0.61236 0.91761 0.0
C30 C 0.49714 0.42825 0.96669 0.0
C31 C 0.65555 0.53653 0.01109 0.0
O32 O 0.42848 0.49537 0.98171 0.0
O33 O 0.58609 0.68005 0.98205 0.0
O34 O 0.56825 0.5654 0.06599 0.0
O35 O 0.56802 0.58356 0.91732 0.0
O36 O 0.48498 0.43408 -0.00432 0.0
O37 O 0.67075 0.58772 0.004 0.0
O38 O 0.50842 0.46581 0.94487 0.0
O39 O 0.64983 0.63085 0.94357 0.0
O40 O 0.60568 0.49996 0.02075 0.0
O41 O 0.4995 0.61876 0.96195 0.0
O42 O 0.4537 0.51153 0.03391 0.0
O43 O 0.62014 0.64952 0.04284 0.0
Sc44 Sc 0.47324 0.97767 0.95478 0.0
Sc45 Sc 0.38354 0.01257 -0.00316 0.0
Sc46 Sc 0.5178 0.04913 0.02728 0.0
O47 O 0.45699 0.01299 -0.00694 0.0
C48 C 0.51723 0.93856 0.01296 0.0
C49 C 0.35115 0.88499 0.98222 0.0
C50 C 0.41156 0.01285 0.0729 0.0
C51 C 0.39339 0.01355 0.91886 0.0
C52 C 0.58698 0.08784 0.96353 0.0
C53 C 0.48239 0.1406 0.00688 0.0
O54 O 0.52406 0.95489 0.98357 0.0
O55 O 0.33895 0.92187 -0.00776 0.0
O56 O 0.46367 0.03246 0.06793 0.0
O57 O 0.4272 0.99489 0.91937 0.0
O58 O 0.58419 0.07154 -0.00729 0.0
O59 O 0.43083 0.10322 0.00102 0.0
O60 O 0.54738 0.05957 0.9431 0.0
O61 O 0.37545 0.02437 0.94488 0.0
O62 O 0.5198 0.12887 0.0173 0.0
O63 O 0.39767 0.89759 0.96764 0.0
O64 O 0.51222 0.96745 0.03575 0.0
O65 O 0.37652 0.00094 0.04959 0.0
Sc66 Sc 0.69633 0.83293 0.29027 0.0
Sc67 Sc 0.66068 0.7043 0.3274 0.0
Sc68 Sc 0.62895 0.80004 0.3645 0.0
O69 O 0.66179 0.77816 0.32738 0.0
C70 C 0.73873 0.91215 0.35004 0.0
C71 C 0.78794 0.79927 0.31175 0.0
C72 C 0.6731 0.72889 0.40281 0.0
C73 C 0.65117 0.71766 0.2521 0.0
C74 C 0.58702 0.83618 0.30303 0.0
C75 C 0.53479 0.67443 0.344 0.0
O76 O 0.72104 0.9047 0.32092 0.0
O77 O 0.75024 0.74827 0.3183 0.0
O78 O 0.65072 0.75966 0.40194 0.0
O79 O 0.67622 0.77105 0.2533 0.0
O80 O 0.6023 0.84481 0.33272 0.0
O81 O 0.57133 0.66038 0.33646 0.0
O82 O 0.61492 0.82712 0.28133 0.0
O83 O 0.63896 0.68719 0.27728 0.0
O84 O 0.54783 0.7233 0.35527 0.0
O85 O 0.77635 0.83648 0.30104 0.0
O86 O 0.7113 0.87616 0.37239 0.0
O87 O 0.68192 0.70833 0.37751 0.0
Sc88 Sc 0.15107 0.85747 0.28966 0.0
Sc89 Sc 0.28257 0.95107 0.32522 0.0
Sc90 Sc 0.1891 0.81972 0.3608 0.0
O91 O 0.20878 0.8773 0.32523 0.0
C92 C 0.07662 0.81782 0.35149 0.0
C93 C 0.18506 0.98183 0.31471 0.0
C94 C 0.26654 0.92975 0.40238 0.0
C95 C 0.26106 0.93465 0.24804 0.0
C96 C 0.14905 0.74498 0.29908 0.0
C97 C 0.31334 0.85359 0.33566 0.0
O98 O 0.08173 0.80876 0.32181 0.0
O99 O 0.23579 0.99512 0.32223 0.0
O100 O 0.23291 0.87743 0.39898 0.0
O101 O 0.20873 0.90096 0.25143 0.0
O102 O 0.14004 0.75028 0.32874 0.0
O103 O 0.32664 0.90431 0.32822 0.0
O104 O 0.15706 0.78264 0.27798 0.0
O105 O 0.29447 0.95445 0.27235 0.0
O106 O 0.26538 0.8172 0.34804 0.0
O107 O 0.14866 0.93387 0.3023 0.0
O108 O 0.1144 0.82585 0.37256 0.0
O109 O 0.28613 0.96313 0.37809 0.0
Sc110 Sc 0.13124 0.29744 0.28602 0.0
Sc111 Sc 0.03545 0.32915 0.3231 0.0
Sc112 Sc 0.16417 0.36475 0.36032 0.0
O113 O 0.10936 0.33026 0.32315 0.0
C114 C 0.16754 0.25552 0.3474 0.0
C115 C 0.00561 0.20333 0.30645 0.0
C116 C 0.04882 0.31952 0.39841 0.0
C117 C 0.05999 0.34152 0.24771 0.0
C118 C 0.24337 0.40725 0.30057 0.0
C119 C 0.13042 0.45635 0.33891 0.0
O120 O 0.17615 0.27086 0.31773 0.0
O121 O 0.99153 0.23986 0.31396 0.0
O122 O 0.10223 0.34447 0.39726 0.0
O123 O 0.09075 0.31912 0.24859 0.0
O124 O 0.23597 0.38962 0.32969 0.0
O125 O 0.07942 0.41867 0.33227 0.0
O126 O 0.20735 0.37977 0.2782 0.0
O127 O 0.03946 0.35039 0.273 0.0
O128 O 0.16764 0.44475 0.34966 0.0
O129 O 0.0545 0.21635 0.29521 0.0
O130 O 0.15846 0.28337 0.36913 0.0
O131 O 0.01834 0.30747 0.3732 0.0
Sc132 Sc 0.38097 0.18633 0.62331 0.0
Sc133 Sc 0.34424 0.05212 0.65368 0.0
Sc134 Sc 0.30915 0.14177 0.69564 0.0
O135 O 0.34463 0.12553 0.65744 0.0
C136 C 0.41929 0.25558 0.68707 0.0
C137 C 0.47238 0.15097 0.64394 0.0
C138 C 0.3451 0.06209 0.73166 0.0
C139 C 0.3449 0.08016 0.57764 0.0
C140 C 0.27024 0.18569 0.63725 0.0
C141 C 0.21653 0.01961 0.66812 0.0
O142 O 0.40306 0.2527 0.65786 0.0
O143 O 0.43495 0.09941 0.64967 0.0
O144 O 0.32648 0.09593 0.73112 0.0
O145 O 0.36462 0.13226 0.58265 0.0
O146 O 0.2862 0.19231 0.66673 0.0
O147 O 0.25348 0.00748 0.65812 0.0
O148 O 0.29932 0.1807 0.61458 0.0
O149 O 0.33274 0.0451 0.60091 0.0
O150 O 0.22909 0.06611 0.68272 0.0
O151 O 0.4607 0.18839 0.63354 0.0
O152 O 0.391 0.216 0.70745 0.0
O153 O 0.35588 0.04407 0.70566 0.0
Sc154 Sc 0.83601 0.19733 0.62255 0.0
Sc155 Sc 0.96541 0.2967 0.6574 0.0
Sc156 Sc 0.8737 0.17114 0.69784 0.0
O157 O 0.89255 0.22258 0.6592 0.0
C158 C 0.76003 0.16548 0.68402 0.0
C159 C 0.86793 0.32371 0.63943 0.0
C160 C 0.94439 0.28987 0.73284 0.0
C161 C 0.9499 0.26641 0.58283 0.0
C162 C 0.83578 0.08762 0.63974 0.0
C163 C -0.00093 0.20447 0.67671 0.0
O164 O 0.76563 0.15332 0.65497 0.0
O165 O 0.91917 0.33893 0.64649 0.0
O166 O 0.91585 0.23641 0.73311 0.0
O167 O 0.8966 0.2362 0.58447 0.0
O168 O 0.82692 0.09678 0.66879 0.0
O169 O 0.01179 0.25453 0.66839 0.0
O170 O 0.84284 0.12179 0.61659 0.0
O171 O 0.98085 0.28823 0.6076 0.0
O172 O 0.95058 0.16785 0.68825 0.0
O173 O 0.83132 0.27381 0.62978 0.0
O174 O 0.79779 0.17683 0.70576 0.0
O175 O 0.96252 0.31818 0.70688 0.0
Sc176 Sc 0.8103 0.63741 0.62161 0.0
Sc177 Sc 0.71807 0.67074 0.66087 0.0
Sc178 Sc 0.84713 0.7025 0.69655 0.0
O179 O 0.79114 0.67056 0.65966 0.0
C180 C 0.84891 0.59395 0.67986 0.0
C181 C 0.68588 0.54437 0.64384 0.0
C182 C 0.73272 0.65598 0.73574 0.0
C183 C 0.73774 0.68207 0.58541 0.0
C184 C 0.92282 0.74722 0.63455 0.0
C185 C 0.81457 0.79625 0.67888 0.0
O186 O 0.85947 0.61352 0.65114 0.0
O187 O 0.67222 0.58155 0.65054 0.0
O188 O 0.7861 0.67956 0.73462 0.0
O189 O 0.76587 0.65686 0.58565 0.0
O190 O 0.91745 0.73024 0.66387 0.0
O191 O 0.7637 0.75966 0.67128 0.0
O192 O 0.88522 0.71977 0.61285 0.0
O193 O 0.72129 0.69442 0.61119 0.0
O194 O 0.85113 0.78341 0.68909 0.0
O195 O 0.73464 0.55664 0.63274 0.0
O196 O 0.84085 0.62025 0.70293 0.0
O197 O 0.70246 0.64721 0.7107 0.0
H198 H 0.38891 0.56949 0.9786 0.0
H199 H 0.33201 0.44009 0.05258 0.0
H200 H 0.2355 0.42458 0.04782 0.0
H201 H 0.16653 0.43945 0.01732 0.0
H202 H 0.22358 0.56831 0.94267 0.0
H203 H 0.32184 0.59284 0.95296 0.0
C204 C 0.35558 0.539 -0.00568 0.0
C205 C 0.36702 0.5058 0.01589 0.0
C206 C 0.30052 0.52945 -0.00934 0.0
C207 C 0.324 0.4664 0.03614 0.0
C208 C 0.26888 0.45708 0.03302 0.0
C209 C 0.20042 0.47283 0.00316 0.0
C210 C 0.18776 0.50081 0.97842 0.0
C211 C 0.25642 0.48678 0.0094 0.0
C212 C 0.23222 0.54543 0.96128 0.0
C213 C 0.28826 0.5595 0.96726 0.0
H214 H 0.44918 0.84085 0.98329 0.0
H215 H 0.58537 0.91774 0.0532 0.0
H216 H 0.6011 0.83709 0.04791 0.0
H217 H 0.58392 0.75215 0.01786 0.0
H218 H 0.44882 0.67679 0.94673 0.0
H219 H 0.42463 0.75012 0.95795 0.0
C220 C 0.48119 0.83906 -0.00189 0.0
C221 C 0.51605 0.88483 0.0187 0.0
C222 C 0.49102 0.7939 -0.00604 0.0
C223 C 0.55761 0.88253 0.03764 0.0
C224 C 0.56707 0.83693 0.03414 0.0
C225 C 0.54927 0.75176 0.00462 0.0
C226 C 0.5193 0.71001 0.98063 0.0
C227 C 0.53553 0.79371 0.01136 0.0
C228 C 0.47324 0.70901 0.96474 0.0
C229 C 0.45931 0.75076 0.97126 0.0
H230 H 0.26641 0.84441 0.02697 0.0
H231 H 0.34286 0.79001 0.95414 0.0
H232 H 0.26946 0.69149 0.9634 0.0
H233 H 0.17765 0.6231 0.98703 0.0
H234 H 0.09912 0.67703 0.05828 0.0
H235 H 0.18047 0.77392 0.05554 0.0
C236 C 0.26718 0.81108 0.01308 0.0
C237 C 0.3093 0.8248 -0.01083 0.0
C238 C 0.22487 0.75466 0.01852 0.0
C239 C 0.31053 0.78083 0.97223 0.0
C240 C 0.26864 0.7245 0.97758 0.0
C241 C 0.17926 0.65581 0.00269 0.0
C242 C 0.13289 0.64334 0.02293 0.0
C243 C 0.2249 0.71123 1e-05 0.0
C244 C 0.13486 0.68572 0.04296 0.0
C245 C 0.18089 0.74112 0.04095 0.0
H246 H 0.43132 0.17558 0.96352 0.0
H247 H 0.57288 0.23887 0.03027 0.0
H248 H 0.59665 0.33616 0.01788 0.0
H249 H 0.56968 0.40138 -0.00667 0.0
H250 H 0.42623 0.33805 0.92848 0.0
H251 H 0.41137 0.24199 0.93404 0.0
C252 C 0.46738 0.2106 0.97547 0.0
C253 C 0.49939 0.19992 -0.00143 0.0
C254 C 0.48066 0.26612 0.9682 0.0
C255 C 0.54706 0.24587 0.01288 0.0
C256 C 0.56069 0.30142 0.00572 0.0
C257 C 0.53631 0.36676 0.9796 0.0
C258 C 0.49928 0.37648 0.9603 0.0
C259 C 0.52691 0.31183 0.98405 0.0
C260 C 0.45578 0.33152 0.94289 0.0
C261 C 0.44682 0.27663 0.94658 0.0
H262 H 0.61412 0.18979 0.98589 0.0
H263 H 0.67656 0.10336 0.92651 0.0
H264 H 0.77374 0.18224 0.93378 0.0
H265 H 0.84049 0.26716 0.96426 0.0
H266 H 0.77799 0.3504 0.02698 0.0
H267 H 0.68065 0.28061 0.01163 0.0
C268 C 0.64887 0.18934 0.97354 0.0
C269 C 0.6384 0.14134 0.95537 0.0
C270 C 0.70443 0.23302 0.97958 0.0
C271 C 0.6836 0.14051 0.93989 0.0
C272 C 0.73914 0.185 0.94471 0.0
C273 C 0.80568 0.27006 0.97481 0.0
C274 C 0.81657 0.31312 -0.00239 0.0
C275 C 0.75006 0.22992 0.96585 0.0
C276 C 0.77087 0.3172 0.00996 0.0
C277 C 0.71525 0.27747 0.00102 0.0
H278 H 0.8321 0.45406 0.0049 0.0
H279 H 0.89847 0.57694 0.92724 0.0
H280 H 0.8165 0.59072 0.93201 0.0
H281 H 0.73403 0.57687 0.96352 0.0
H282 H 0.66832 0.45404 0.04154 0.0
H283 H 0.74245 0.43041 0.03128 0.0
C284 C 0.82769 0.48256 -0.01166 0.0
C285 C 0.87094 0.51456 0.96576 0.0
C286 C 0.7816 0.49101 -0.0081 0.0
C287 C 0.86526 0.55158 0.9445 0.0
C288 C 0.81891 0.55991 0.94761 0.0
C289 C 0.73598 0.54496 0.97837 0.0
C290 C 0.69711 0.51855 0.00408 0.0
C291 C 0.77825 0.53155 0.97215 0.0
C292 C 0.69855 0.47568 0.02216 0.0
C293 C 0.74075 0.46217 0.01622 0.0
H294 H 0.82303 0.74506 0.35288 0.0
H295 H 0.88624 0.89293 0.29116 0.0
H296 H 0.98351 0.91875 0.30517 0.0
H297 H 0.04944 0.89267 0.32947 0.0
H298 H 0.98651 0.74211 0.38813 0.0
H299 H 0.88962 0.72486 0.38195 0.0
C300 C 0.85798 0.78289 0.34229 0.0
C301 C 0.84728 0.81621 0.32018 0.0
C302 C 0.91358 0.79735 0.35046 0.0
C303 C 0.89319 0.86603 0.30771 0.0
C304 C 0.94877 0.88092 0.31585 0.0
C305 C 0.01467 0.85724 0.34187 0.0
C306 C 0.02485 0.81897 0.35952 0.0
C307 C 0.95933 0.84619 0.3366 0.0
C308 C 0.97967 0.77271 0.37511 0.0
C309 C 0.92431 0.76234 0.37094 0.0
H310 H 0.09686 0.15457 0.32187 0.0
H311 H 0.23942 0.23963 0.38698 0.0
H312 H 0.25508 0.1587 0.38405 0.0
H313 H 0.23578 0.07055 0.3568 0.0
H314 H 0.09459 0.98752 0.29002 0.0
H315 H 0.07049 0.06113 0.29979 0.0
C316 C 0.13025 0.15449 0.33622 0.0
C317 C 0.16683 0.20251 0.35478 0.0
C318 C 0.13994 0.10899 0.33339 0.0
C319 C 0.2103 0.2026 0.37304 0.0
C320 C 0.21967 0.15677 0.37089 0.0
C321 C 0.19965 0.06841 0.34435 0.0
C322 C 0.16785 0.02423 0.32201 0.0
C323 C 0.18615 0.1109 0.35006 0.0
C324 C 0.12024 0.02136 0.30692 0.0
C325 C 0.1064 0.06339 0.31254 0.0
H326 H 0.92212 0.16635 0.35144 0.0
H327 H -0.00206 0.10626 0.28163 0.0
H328 H 0.92672 0.00829 0.29489 0.0
H329 H 0.83684 0.94146 0.32128 0.0
H330 H 0.75921 0.00141 0.38941 0.0
H331 H 0.83879 0.09849 0.38273 0.0
C332 C 0.92307 0.1319 0.33893 0.0
C333 C 0.96422 0.14363 0.31468 0.0
C334 C 0.88232 0.07602 0.34681 0.0
C335 C 0.96606 0.09842 0.29978 0.0
C336 C 0.92554 0.0425 0.30749 0.0
C337 C 0.83842 0.97558 0.3355 0.0
C338 C 0.79269 0.9646 0.35598 0.0
C339 C 0.88279 0.03101 0.33037 0.0
C340 C 0.7945 0.0089 0.37404 0.0
C341 C 0.83943 0.06437 0.3697 0.0
H342 H 0.22379 0.71774 0.32136 0.0
H343 H 0.07333 0.65477 0.26239 0.0
H344 H 0.05605 0.55794 0.2686 0.0
H345 H 0.07622 0.49141 0.29771 0.0
H346 H 0.22406 0.55465 0.35966 0.0
H347 H 0.24986 0.65186 0.34572 0.0
C348 C 0.18837 0.68298 0.3089 0.0
C349 C 0.15015 0.69315 0.29114 0.0
C350 C 0.17732 0.62766 0.31416 0.0
C351 C 0.1039 0.64796 0.27549 0.0
C352 C 0.09351 0.59262 0.27967 0.0
C353 C 0.11404 0.52635 0.30837 0.0
C354 C 0.14736 0.51567 0.33053 0.0
C355 C 0.1285 0.58192 0.30023 0.0
C356 C 0.19717 0.56158 0.34308 0.0
C357 C 0.21203 0.61713 0.33497 0.0
H358 H 0.27279 0.50524 0.32954 0.0
H359 H 0.33249 0.42789 0.26105 0.0
H360 H 0.42959 0.50758 0.26764 0.0
H361 H 0.49761 0.591 0.29891 0.0
H362 H 0.43776 0.66657 0.36903 0.0
H363 H 0.3397 0.59518 0.35591 0.0
C364 C 0.30685 0.5069 0.31523 0.0
C365 C 0.2958 0.46121 0.29467 0.0
C366 C 0.3623 0.55136 0.32029 0.0
C367 C 0.34003 0.46314 0.27649 0.0
C368 C 0.39551 0.50814 0.28077 0.0
C369 C 0.4632 0.59185 0.31151 0.0
C370 C 0.47503 0.63299 0.33581 0.0
C371 C 0.40725 0.551 0.30371 0.0
C372 C 0.42986 0.63472 0.35084 0.0
C373 C 0.37388 0.59409 0.34321 0.0
H374 H 0.40204 0.90436 0.29365 0.0
H375 H 0.31894 0.76305 0.36015 0.0
H376 H 0.39251 0.7389 0.3503 0.0
H377 H 0.48599 0.76531 0.32827 0.0
H378 H 0.5712 0.90812 0.26353 0.0
H379 H 0.49021 0.92373 0.26645 0.0
C380 C 0.39988 0.8682 0.30602 0.0
C381 C 0.35569 0.83637 0.32831 0.0
C382 C 0.44235 0.85469 0.30027 0.0
C383 C 0.35278 0.78871 0.3433 0.0
C384 C 0.39479 0.77485 0.33762 0.0
C385 C 0.48592 0.79874 0.314 0.0
C386 C 0.534 0.83541 0.29555 0.0
C387 C 0.44041 0.80842 0.31684 0.0
C388 C 0.53411 0.87893 0.27738 0.0
C389 C 0.48826 0.88828 0.27953 0.0
H390 H 0.73329 0.23841 0.65792 0.0
H391 H 0.66978 0.09415 0.72196 0.0
H392 H 0.57368 0.0793 0.7164 0.0
H393 H 0.50729 0.0995 0.68705 0.0
H394 H 0.57073 0.24175 0.62099 0.0
H395 H 0.66805 0.26554 0.63351 0.0
C396 C 0.69862 0.20487 0.67149 0.0
C397 C 0.7083 0.16762 0.69055 0.0
C398 C 0.64365 0.19546 0.667 0.0
C399 C 0.66328 0.12388 0.70774 0.0
C400 C 0.60836 0.11492 0.70405 0.0
C401 C 0.54234 0.13572 0.67528 0.0
C402 C 0.5317 0.16793 0.65233 0.0
C403 C 0.59788 0.14899 0.68262 0.0
C404 C 0.57771 0.21579 0.63826 0.0
C405 C 0.63327 0.22942 0.64549 0.0
H406 H 0.90871 0.4026 0.68685 0.0
H407 H 0.78511 0.33624 0.60908 0.0
H408 H 0.76156 0.41042 0.6193 0.0
H409 H 0.78539 0.50024 0.64558 0.0
H410 H 0.90896 0.56717 0.72303 0.0
H411 H 0.92281 0.48527 0.71826 0.0
C412 C 0.87664 0.40441 0.67205 0.0
C413 C 0.84998 0.36532 0.64641 0.0
C414 C 0.86327 0.44671 0.67824 0.0
C415 C 0.80694 0.36662 0.6284 0.0
C416 C 0.79347 0.40885 0.63432 0.0
C417 C 0.81407 0.49597 0.66209 0.0
C418 C 0.84622 0.53936 0.68462 0.0
C419 C 0.82253 0.44989 0.65855 0.0
C420 C 0.88347 0.53386 0.70581 0.0
C421 C 0.89183 0.48754 0.70271 0.0
H422 H 0.59819 0.50903 0.68604 0.0
H423 H 0.68182 0.44632 0.6238 0.0
H424 H 0.6122 0.34912 0.63932 0.0
H425 H 0.52142 0.28268 0.66505 0.0
H426 H 0.43452 0.3453 0.72386 0.0
H427 H 0.51327 0.44245 0.71649 0.0
C428 C 0.60122 0.47421 0.67563 0.0
C429 C 0.64435 0.485 0.65292 0.0
C430 C 0.56116 0.41866 0.68468 0.0
C431 C 0.64857 0.43928 0.64075 0.0
C432 C 0.60894 0.38374 0.64978 0.0
C433 C 0.52084 0.31748 0.67726 0.0
C434 C 0.47274 0.30705 0.6953 0.0
C435 C 0.56443 0.37301 0.67114 0.0
C436 C 0.47175 0.3523 0.7106 0.0
C437 C 0.51617 0.40782 0.70571 0.0
H438 H 0.77075 0.83474 0.63322 0.0
H439 H 0.89993 0.89198 0.70785 0.0
H440 H 0.92444 0.99016 0.69756 0.0
H441 H 0.90099 0.05714 0.67193 0.0
H442 H 0.77131 6e-05 0.59795 0.0
H443 H 0.75578 0.9036 0.60273 0.0
C444 C 0.80419 0.86865 0.64738 0.0
C445 C 0.83227 0.85606 0.67212 0.0
C446 C 0.81812 0.92461 0.64114 0.0
C447 C 0.87697 0.90056 0.68924 0.0
C448 C 0.89103 0.95656 0.68327 0.0
C449 C 0.87044 0.02379 0.65621 0.0
C450 C 0.83718 0.03518 0.63463 0.0
C451 C 0.86088 0.96874 0.65987 0.0
C452 C 0.79768 0.9921 0.61438 0.0
C453 C 0.78835 0.937 0.61752 0.0
H454 H 0.9545 0.84602 0.6632 0.0
H455 H 0.00849 0.76699 0.59232 0.0
H456 H 0.10542 0.84832 0.59506 0.0
H457 H 0.17593 0.93449 0.62353 0.0
H458 H 0.12147 0.01146 0.69601 0.0
H459 H 0.02291 0.93799 0.68673 0.0
C460 C 0.98723 0.84752 0.64761 0.0
C461 C 0.97475 0.80102 0.62747 0.0
C462 C 0.04268 0.89316 0.6503 0.0
C463 C 0.01717 0.80283 0.60755 0.0
C464 C 0.0726 0.84886 0.60957 0.0
C465 C 0.14258 0.93537 0.63734 0.0
C466 C 0.15631 0.97767 0.66115 0.0
C467 C 0.08614 0.893 0.63189 0.0
C468 C 0.1123 0.97899 0.67799 0.0
C469 C 0.05595 0.93706 0.67263 0.0
H470 H 0.17179 0.11661 0.66578 0.0
H471 H 0.25051 0.25526 0.59772 0.0
H472 H 0.17005 0.27127 0.60318 0.0
H473 H 0.0848 0.25354 0.63303 0.0
H474 H 0.00779 0.1162 0.70252 0.0
H475 H 0.08084 0.09178 0.69091 0.0
C476 C 0.17042 0.14922 0.65138 0.0
C477 C 0.21663 0.18466 0.63127 0.0
C478 C 0.12541 0.15926 0.6557 0.0
C479 C 0.21492 0.22702 0.61288 0.0
C480 C 0.16944 0.23665 0.61649 0.0
C481 C 0.08398 0.21835 0.64583 0.0
C482 C 0.04182 0.18778 0.66948 0.0
C483 C 0.1258 0.20451 0.63888 0.0
C484 C 0.04032 0.14108 0.6848 0.0
C485 C 0.0819 0.12701 0.67804 0.0
H486 H 0.08973 0.32334 0.18788 0.0
H487 H 0.00307 0.39818 0.23659 0.0
H488 H 0.98228 0.42576 0.18419 0.0
H489 H 0.98742 0.42747 0.12498 0.0
H490 H 0.07377 0.35266 0.07596 0.0
H491 H 0.09612 0.32636 0.12844 0.0
C492 C 0.06634 0.34572 0.18708 0.0
C493 C 0.04776 0.35838 0.21604 0.0
C494 C 0.05446 0.36145 0.15695 0.0
C495 C 0.01758 0.38753 0.2146 0.0
C496 C 0.00572 0.40345 0.18469 0.0
C497 C 0.01126 0.40553 0.12569 0.0
C498 C 0.02866 0.39184 0.09665 0.0
C499 C 0.02378 0.39041 0.15577 0.0
C500 C 0.05958 0.36346 0.09802 0.0
C501 C 0.07244 0.34842 0.12798 0.0
H502 H 0.67187 0.76909 0.19332 0.0
H503 H 0.59469 0.60421 0.23909 0.0
H504 H 0.56989 0.55906 0.18566 0.0
H505 H 0.57233 0.56666 0.12639 0.0
H506 H 0.6501 0.7317 0.08078 0.0
H507 H 0.67232 0.77665 0.13423 0.0
C508 C 0.64959 0.72326 0.1917 0.0
C509 C 0.63549 0.69009 0.22006 0.0
C510 C 0.6356 0.69766 0.1611 0.0
C511 C 0.60636 0.63075 0.21754 0.0
C512 C 0.59208 0.60488 0.18706 0.0
C513 C 0.59391 0.61246 0.12809 0.0
C514 C 0.60986 0.6458 0.09974 0.0
C515 C 0.60683 0.638 0.15874 0.0
C516 C 0.63777 0.70509 0.10231 0.0
C517 C 0.65045 0.73084 0.13281 0.0
H518 H 0.30375 0.97041 0.09613 0.0
H519 H 0.47644 0.03473 0.12779 0.0
H520 H 0.44633 0.01871 0.18445 0.0
H521 H 0.37052 0.98408 0.22562 0.0
H522 H 0.19799 0.91943 0.19352 0.0
H523 H 0.22866 0.93819 0.1371 0.0
C524 C 0.33484 0.98107 0.11538 0.0
C525 C 0.39219 0.00359 0.10742 0.0
C526 C 0.31736 0.9717 0.14818 0.0
C527 C 0.43183 0.01717 0.13292 0.0
C528 C 0.41474 0.00808 0.16552 0.0
C529 C 0.33977 0.97454 0.20631 0.0
C530 C 0.28206 0.95007 0.21403 0.0
C531 C 0.35755 0.98509 0.17351 0.0
C532 C 0.24276 0.93783 0.18851 0.0
C533 C 0.26016 0.94857 0.15606 0.0
H534 H 0.41476 0.98324 0.85982 0.0
H535 H 0.33315 0.06672 0.90435 0.0
H536 H 0.30957 0.087 0.8502 0.0
H537 H 0.31511 0.08386 0.7907 0.0
H538 H 0.3978 0.00144 0.74619 0.0
H539 H 0.41787 0.97768 0.80033 0.0
C540 C 0.39169 0.00584 0.85786 0.0
C541 C 0.37603 0.02371 0.8863 0.0
C542 C 0.3786 0.01757 0.82674 0.0
C543 C 0.34574 0.05246 0.88302 0.0
C544 C 0.33239 0.06417 0.85205 0.0
C545 C 0.33748 0.06057 0.79267 0.0
C546 C 0.3552 0.04473 0.76423 0.0
C547 C 0.34909 0.04737 0.82379 0.0
C548 C 0.38367 0.01418 0.76752 0.0
C549 C 0.39525 0.00071 0.79849 0.0
H550 H 0.01943 0.44976 0.8551 0.0
H551 H 0.91827 0.28862 0.90336 0.0
H552 H 0.89524 0.24041 0.85094 0.0
H553 H 0.90656 0.24356 0.7922 0.0
H554 H 0.00807 0.40405 0.7434 0.0
H555 H 0.02814 0.45313 0.79565 0.0
C556 C 0.99202 0.40415 0.85413 0.0
C557 C 0.97103 0.37275 0.88299 0.0
C558 C 0.9793 0.37661 0.82401 0.0
C559 C 0.93553 0.31368 0.88143 0.0
C560 C 0.92225 0.28606 0.85152 0.0
C561 C 0.93315 0.28928 0.79288 0.0
C562 C 0.95622 0.32004 0.76405 0.0
C563 C 0.94453 0.31707 0.82278 0.0
C564 C 0.99008 0.37933 0.76535 0.0
C565 C 0.00153 0.40744 0.79516 0.0
H566 H 0.78141 0.68781 0.79544 0.0
H567 H 0.62022 0.58643 0.74705 0.0
H568 H 0.57203 0.56316 0.79944 0.0
H569 H 0.57518 0.57439 0.8582 0.0
H570 H 0.73572 0.67616 0.90714 0.0
H571 H 0.7848 0.69639 0.85492 0.0
C572 C 0.7358 0.6603 0.79638 0.0
C573 C 0.70438 0.63932 0.76749 0.0
C574 C 0.70826 0.64744 0.82648 0.0
C575 C 0.6453 0.60369 0.769 0.0
C576 C 0.61768 0.59027 0.79889 0.0
C577 C 0.62092 0.60105 0.85755 0.0
C578 C 0.65167 0.62417 0.88642 0.0
C579 C 0.64871 0.61254 0.82767 0.0
C580 C 0.71099 0.65814 0.88516 0.0
C581 C 0.7391 0.66968 0.85537 0.0
H582 H 0.65474 0.7584 0.46268 0.0
H583 H 0.72984 0.67205 0.4139 0.0
H584 H 0.75726 0.65103 0.46628 0.0
H585 H 0.75874 0.65587 0.5255 0.0
H586 H 0.68368 0.74191 0.5746 0.0
H587 H 0.65754 0.76449 0.52214 0.0
C588 C 0.67715 0.73503 0.46346 0.0
C589 C 0.68993 0.7166 0.43448 0.0
C590 C 0.69278 0.723 0.49358 0.0
C591 C 0.7191 0.68644 0.4359 0.0
C592 C 0.73493 0.67446 0.4658 0.0
C593 C 0.73678 0.67968 0.52481 0.0
C594 C 0.72298 0.69693 0.55387 0.0
C595 C 0.72176 0.69235 0.49474 0.0
C596 C 0.69457 0.72784 0.55253 0.0
C597 C 0.67962 0.74082 0.52258 0.0
H598 H 0.31621 0.03919 0.42488 0.0
H599 H 0.25136 0.86673 0.45685 0.0
H600 H 0.2702 0.89739 0.51328 0.0
H601 H 0.30244 0.97243 0.55432 0.0
H602 H 0.36703 0.14507 0.52281 0.0
H603 H 0.35101 0.11498 0.46611 0.0
C604 C 0.30665 0.00845 0.44417 0.0
C605 C 0.28208 0.95077 0.4364 0.0
C606 C 0.31725 0.02623 0.47698 0.0
C607 C 0.26983 0.91148 0.4619 0.0
C608 C 0.28061 0.92888 0.49436 0.0
C609 C 0.31317 0.00352 0.53509 0.0
C610 C 0.33574 0.06084 0.5431 0.0
C611 C 0.3038 0.98605 0.50228 0.0
C612 C 0.34942 0.10047 0.51763 0.0
C613 C 0.34033 0.0834 0.48502 0.0
H614 H 0.89778 0.24068 0.52402 0.0
H615 H 0.06291 0.31753 0.56972 0.0
H616 H 0.10783 0.33978 0.5163 0.0
H617 H 0.10026 0.33967 0.45722 0.0
H618 H 0.9353 0.26343 0.41134 0.0
H619 H 0.89015 0.23854 0.46473 0.0
C620 C 0.94359 0.26206 0.52234 0.0
C621 C 0.97696 0.27776 0.55071 0.0
C622 C 0.96912 0.275 0.49171 0.0
C623 C 0.03627 0.30541 0.54817 0.0
C624 C 0.06201 0.3181 0.5177 0.0
C625 C 0.05441 0.31757 0.45881 0.0
C626 C 0.02123 0.30378 0.43042 0.0
C627 C 0.02881 0.30353 0.48939 0.0
C628 C 0.96186 0.27488 0.4329 0.0
C629 C 0.93598 0.26054 0.46336 0.0
loop_
_geom_bond_atom_site_label_1
_geom_bond_atom_site_label_2
_geom_bond_distance
_geom_bond_site_symmetry_2
_ccdc_geom_bond_type
Sc0 O3 2.025 1_556 S
Sc0 O10 2.105 . S
Sc0 O13 2.105 . S
Sc0 O16 2.105 1_455 S
Sc0 O19 2.105 . S
Sc1 O3 2.025 . S
Sc1 O11 2.105 1_554 S
Sc1 O15 2.105 1_455 S
Sc1 O17 2.105 1_454 S
Sc1 O21 2.105 . S
Sc2 O3 2.025 1_655 S
Sc2 O12 2.105 1_655 S
Sc2 O14 2.105 . S
Sc2 O18 2.105 . S
Sc2 O20 2.105 1_655 S
O3 Sc0 2.025 1_554 S
O3 Sc1 2.025 . S
O3 Sc2 2.025 1_455 S
C4 O10 1.268 1_554 S
C4 O20 1.268 . S
C5 O11 1.268 . S
C5 O19 1.268 . S
C6 O12 1.268 . S
C6 O21 1.268 . S
C7 O13 1.268 1_655 S
C7 O17 1.268 . S
C8 O14 1.268 1_556 S
C8 O16 1.268 . S
C9 O15 1.268 . S
C9 O18 1.268 . S
O10 Sc0 2.105 . S
O10 C4 1.268 1_556 S
O11 Sc1 2.105 1_556 S
O11 C5 1.268 . S
O12 Sc2 2.105 1_455 S
O12 C6 1.268 . S
O13 Sc0 2.105 . S
O13 C7 1.268 1_455 S
O14 Sc2 2.105 . S
O14 C8 1.268 1_554 S
O15 Sc1 2.105 1_655 S
O15 C9 1.268 . S
O16 Sc0 2.105 1_655 S
O16 C8 1.268 . S
O17 Sc1 2.105 1_656 S
O17 C7 1.268 . S
O18 Sc2 2.105 . S
O18 C9 1.268 . S
O19 Sc0 2.105 . S
O19 C5 1.268 . S
O20 Sc2 2.105 1_455 S
O20 C4 1.268 . S
O21 Sc1 2.105 . S
O21 C6 1.268 . S
Sc22 O25 2.025 1_556 S
Sc22 O32 2.105 . S
Sc22 O35 2.105 . S
Sc22 O38 2.105 . S
Sc22 O41 2.105 . S
Sc23 O25 2.025 . S
Sc23 O33 2.105 1_554 S
Sc23 O37 2.105 . S
Sc23 O39 2.105 1_554 S
Sc23 O43 2.105 . S
Sc24 O25 2.025 . S
Sc24 O34 2.105 . S
Sc24 O36 2.105 . S
Sc24 O40 2.105 . S
Sc24 O42 2.105 . S
O25 Sc22 2.025 1_554 S
O25 Sc23 2.025 . S
O25 Sc24 2.025 . S
C26 O32 1.268 1_554 S
C26 O42 1.268 . S
C27 O33 1.268 . S
C27 O41 1.268 . S
C28 O34 1.268 . S
C28 O43 1.268 . S
C29 O35 1.268 . S
C29 O39 1.268 . S
C30 O36 1.268 1_556 S
C30 O38 1.268 . S
C31 O37 1.268 . S
C31 O40 1.268 . S
O32 Sc22 2.105 . S
O32 C26 1.268 1_556 S
O33 Sc23 2.105 1_556 S
O33 C27 1.268 . S
O34 Sc24 2.105 . S
O34 C28 1.268 . S
O35 Sc22 2.105 . S
O35 C29 1.268 . S
O36 Sc24 2.105 . S
O36 C30 1.268 1_554 S
O37 Sc23 2.105 . S
O37 C31 1.268 . S
O38 Sc22 2.105 . S
O38 C30 1.268 . S
O39 Sc23 2.105 1_556 S
O39 C29 1.268 . S
O40 Sc24 2.105 . S
O40 C31 1.268 . S
O41 Sc22 2.105 . S
O41 C27 1.268 . S
O42 Sc24 2.105 . S
O42 C26 1.268 . S
O43 Sc23 2.105 . S
O43 C28 1.268 . S
Sc44 O47 2.025 1_566 S
Sc44 O54 2.105 . S
Sc44 O57 2.105 1_565 S
Sc44 O60 2.105 1_565 S
Sc44 O63 2.105 . S
Sc45 O47 2.025 . S
Sc45 O55 2.105 1_544 S
Sc45 O59 2.105 . S
Sc45 O61 2.105 1_554 S
Sc45 O65 2.105 1_545 S
Sc46 O47 2.025 . S
Sc46 O56 2.105 . S
Sc46 O58 2.105 . S
Sc46 O62 2.105 . S
Sc46 O64 2.105 1_545 S
O47 Sc44 2.025 1_544 S
O47 Sc45 2.025 . S
O47 Sc46 2.025 . S
C48 O54 1.268 1_554 S
C48 O64 1.268 . S
C49 O55 1.268 . S
C49 O63 1.268 . S
C50 O56 1.268 1_565 S
C50 O65 1.268 . S
C51 O57 1.268 . S
C51 O61 1.268 . S
C52 O58 1.268 1_556 S
C52 O60 1.268 . S
C53 O59 1.268 . S
C53 O62 1.268 . S
O54 Sc44 2.105 . S
O54 C48 1.268 1_556 S
O55 Sc45 2.105 1_566 S
O55 C49 1.268 . S
O56 Sc46 2.105 . S
O56 C50 1.268 1_545 S
O57 Sc44 2.105 1_545 S
O57 C51 1.268 . S
O58 Sc46 2.105 . S
O58 C52 1.268 1_554 S
O59 Sc45 2.105 . S
O59 C53 1.268 . S
O60 Sc44 2.105 1_545 S
O60 C52 1.268 . S
O61 Sc45 2.105 1_556 S
O61 C51 1.268 . S
O62 Sc46 2.105 . S
O62 C53 1.268 . S
O63 Sc44 2.105 . S
O63 C49 1.268 . S
O64 Sc46 2.105 1_565 S
O64 C48 1.268 . S
O65 Sc45 2.105 1_565 S
O65 C50 1.268 . S
Sc66 O69 2.025 . S
Sc66 O76 2.105 . S
Sc66 O79 2.105 . S
Sc66 O82 2.105 . S
Sc66 O85 2.105 . S
Sc67 O69 2.025 . S
Sc67 O77 2.105 . S
Sc67 O81 2.105 . S
Sc67 O83 2.105 . S
Sc67 O87 2.105 . S
Sc68 O69 2.025 . S
Sc68 O78 2.105 . S
Sc68 O80 2.105 . S
Sc68 O84 2.105 . S
Sc68 O86 2.105 . S
O69 Sc66 2.025 . S
O69 Sc67 2.025 . S
O69 Sc68 2.025 . S
C70 O76 1.268 . S
C70 O86 1.268 . S
C71 O77 1.268 . S
C71 O85 1.268 . S
C72 O78 1.268 . S
C72 O87 1.268 . S
C73 O79 1.268 . S
C73 O83 1.268 . S
C74 O80 1.268 . S
C74 O82 1.268 . S
C75 O81 1.268 . S
C75 O84 1.268 . S
O76 Sc66 2.105 . S
O76 C70 1.268 . S
O77 Sc67 2.105 . S
O77 C71 1.268 . S
O78 Sc68 2.105 . S
O78 C72 1.268 . S
O79 Sc66 2.105 . S
O79 C73 1.268 . S
O80 Sc68 2.105 . S
O80 C74 1.268 . S
O81 Sc67 2.105 . S
O81 C75 1.268 . S
O82 Sc66 2.105 . S
O82 C74 1.268 . S
O83 Sc67 2.105 . S
O83 C73 1.268 . S
O84 Sc68 2.105 . S
O84 C75 1.268 . S
O85 Sc66 2.105 . S
O85 C71 1.268 . S
O86 Sc68 2.105 . S
O86 C70 1.268 . S
O87 Sc67 2.105 . S
O87 C72 1.268 . S
Sc88 O91 2.025 . S
Sc88 O98 2.105 . S
Sc88 O101 2.105 . S
Sc88 O104 2.105 . S
Sc88 O107 2.105 . S
Sc89 O91 2.025 . S
Sc89 O99 2.105 1_565 S
Sc89 O103 2.105 . S
Sc89 O105 2.105 . S
Sc89 O109 2.105 . S
Sc90 O91 2.025 . S
Sc90 O100 2.105 . S
Sc90 O102 2.105 . S
Sc90 O106 2.105 . S
Sc90 O108 2.105 . S
O91 Sc88 2.025 . S
O91 Sc89 2.025 . S
O91 Sc90 2.025 . S
C92 O98 1.268 . S
C92 O108 1.268 . S
C93 O99 1.268 . S
C93 O107 1.268 1_545 S
C94 O100 1.268 . S
C94 O109 1.268 . S
C95 O101 1.268 . S
C95 O105 1.268 . S
C96 O102 1.268 . S
C96 O104 1.268 . S
C97 O103 1.268 . S
C97 O106 1.268 . S
O98 Sc88 2.105 . S
O98 C92 1.268 . S
O99 Sc89 2.105 1_545 S
O99 C93 1.268 . S
O100 Sc90 2.105 . S
O100 C94 1.268 . S
O101 Sc88 2.105 . S
O101 C95 1.268 . S
O102 Sc90 2.105 . S
O102 C96 1.268 . S
O103 Sc89 2.105 . S
O103 C97 1.268 . S
O104 Sc88 2.105 . S
O104 C96 1.268 . S
O105 Sc89 2.105 . S
O105 C95 1.268 . S
O106 Sc90 2.105 . S
O106 C97 1.268 . S
O107 Sc88 2.105 . S
O107 C93 1.268 1_565 S
O108 Sc90 2.105 . S
O108 C92 1.268 . S
O109 Sc89 2.105 . S
O109 C94 1.268 . S
Sc110 O113 2.025 . S
Sc110 O120 2.105 . S
Sc110 O123 2.105 . S
Sc110 O126 2.105 . S
Sc110 O129 2.105 . S
Sc111 O113 2.025 . S
Sc111 O121 2.105 1_455 S
Sc111 O125 2.105 . S
Sc111 O127 2.105 . S
Sc111 O131 2.105 . S
Sc112 O113 2.025 . S
Sc112 O122 2.105 . S
Sc112 O124 2.105 . S
Sc112 O128 2.105 . S
Sc112 O130 2.105 . S
O113 Sc110 2.025 . S
O113 Sc111 2.025 . S
O113 Sc112 2.025 . S
C114 O120 1.268 . S
C114 O130 1.268 . S
C115 O121 1.268 1_455 S
C115 O129 1.268 . S
C116 O122 1.268 . S
C116 O131 1.268 . S
C117 O123 1.268 . S
C117 O127 1.268 . S
C118 O124 1.268 . S
C118 O126 1.268 . S
C119 O125 1.268 . S
C119 O128 1.268 . S
O120 Sc110 2.105 . S
O120 C114 1.268 . S
O121 Sc111 2.105 1_655 S
O121 C115 1.268 1_655 S
O122 Sc112 2.105 . S
O122 C116 1.268 . S
O123 Sc110 2.105 . S
O123 C117 1.268 . S
O124 Sc112 2.105 . S
O124 C118 1.268 . S
O125 Sc111 2.105 . S
O125 C119 1.268 . S
O126 Sc110 2.105 . S
O126 C118 1.268 . S
O127 Sc111 2.105 . S
O127 C117 1.268 . S
O128 Sc112 2.105 . S
O128 C119 1.268 . S
O129 Sc110 2.105 . S
O129 C115 1.268 . S
O130 Sc112 2.105 . S
O130 C114 1.268 . S
O131 Sc111 2.105 . S
O131 C116 1.268 . S
Sc132 O135 2.025 . S
Sc132 O142 2.105 . S
Sc132 O145 2.105 . S
Sc132 O148 2.105 . S
Sc132 O151 2.105 . S
Sc133 O135 2.025 . S
Sc133 O143 2.105 . S
Sc133 O147 2.105 1_545 S
Sc133 O149 2.105 . S
Sc133 O153 2.105 . S
Sc134 O135 2.025 . S
Sc134 O144 2.105 . S
Sc134 O146 2.105 . S
Sc134 O150 2.105 . S
Sc134 O152 2.105 . S
O135 Sc132 2.025 . S
O135 Sc133 2.025 . S
O135 Sc134 2.025 . S
C136 O142 1.268 . S
C136 O152 1.268 . S
C137 O143 1.268 . S
C137 O151 1.268 . S
C138 O144 1.268 . S
C138 O153 1.268 . S
C139 O145 1.268 . S
C139 O149 1.268 . S
C140 O146 1.268 . S
C140 O148 1.268 . S
C141 O147 1.268 1_545 S
C141 O150 1.268 . S
O142 Sc132 2.105 . S
O142 C136 1.268 . S
O143 Sc133 2.105 . S
O143 C137 1.268 . S
O144 Sc134 2.105 . S
O144 C138 1.268 . S
O145 Sc132 2.105 . S
O145 C139 1.268 . S
O146 Sc134 2.105 . S
O146 C140 1.268 . S
O147 Sc133 2.105 1_565 S
O147 C141 1.268 1_565 S
O148 Sc132 2.105 . S
O148 C140 1.268 . S
O149 Sc133 2.105 . S
O149 C139 1.268 . S
O150 Sc134 2.105 . S
O150 C141 1.268 . S
O151 Sc132 2.105 . S
O151 C137 1.268 . S
O152 Sc134 2.105 . S
O152 C136 1.268 . S
O153 Sc133 2.105 . S
O153 C138 1.268 . S
Sc154 O157 2.025 . S
Sc154 O164 2.105 . S
Sc154 O167 2.105 . S
Sc154 O170 2.105 . S
Sc154 O173 2.105 . S
Sc155 O157 2.025 . S
Sc155 O165 2.105 . S
Sc155 O169 2.105 1_655 S
Sc155 O171 2.105 . S
Sc155 O175 2.105 . S
Sc156 O157 2.025 . S
Sc156 O166 2.105 . S
Sc156 O168 2.105 . S
Sc156 O172 2.105 . S
Sc156 O174 2.105 . S
O157 Sc154 2.025 . S
O157 Sc155 2.025 . S
O157 Sc156 2.025 . S
C158 O164 1.268 . S
C158 O174 1.268 . S
C159 O165 1.268 . S
C159 O173 1.268 . S
C160 O166 1.268 . S
C160 O175 1.268 . S
C161 O167 1.268 . S
C161 O171 1.268 . S
C162 O168 1.268 . S
C162 O170 1.268 . S
C163 O169 1.268 . S
C163 O172 1.268 1_455 S
O164 Sc154 2.105 . S
O164 C158 1.268 . S
O165 Sc155 2.105 . S
O165 C159 1.268 . S
O166 Sc156 2.105 . S
O166 C160 1.268 . S
O167 Sc154 2.105 . S
O167 C161 1.268 . S
O168 Sc156 2.105 . S
O168 C162 1.268 . S
O169 Sc155 2.105 1_455 S
O169 C163 1.268 . S
O170 Sc154 2.105 . S
O170 C162 1.268 . S
O171 Sc155 2.105 . S
O171 C161 1.268 . S
O172 Sc156 2.105 . S
O172 C163 1.268 1_655 S
O173 Sc154 2.105 . S
O173 C159 1.268 . S
O174 Sc156 2.105 . S
O174 C158 1.268 . S
O175 Sc155 2.105 . S
O175 C160 1.268 . S
Sc176 O179 2.025 . S
Sc176 O186 2.105 . S
Sc176 O189 2.105 . S
Sc176 O192 2.105 . S
Sc176 O195 2.105 . S
Sc177 O179 2.025 . S
Sc177 O187 2.105 . S
Sc177 O191 2.105 . S
Sc177 O193 2.105 . S
Sc177 O197 2.105 . S
Sc178 O179 2.025 . S
Sc178 O188 2.105 . S
Sc178 O190 2.105 . S
Sc178 O194 2.105 . S
Sc178 O196 2.105 . S
O179 Sc176 2.025 . S
O179 Sc177 2.025 . S
O179 Sc178 2.025 . S
C180 O186 1.268 . S
C180 O196 1.268 . S
C181 O187 1.268 . S
C181 O195 1.268 . S
C182 O188 1.268 . S
C182 O197 1.268 . S
C183 O189 1.268 . S
C183 O193 1.268 . S
C184 O190 1.268 . S
C184 O192 1.268 . S
C185 O191 1.268 . S
C185 O194 1.268 . S
O186 Sc176 2.105 . S
O186 C180 1.268 . S
O187 Sc177 2.105 . S
O187 C181 1.268 . S
O188 Sc178 2.105 . S
O188 C182 1.268 . S
O189 Sc176 2.105 . S
O189 C183 1.268 . S
O190 Sc178 2.105 . S
O190 C184 1.268 . S
O191 Sc177 2.105 . S
O191 C185 1.268 . S
O192 Sc176 2.105 . S
O192 C184 1.268 . S
O193 Sc177 2.105 . S
O193 C183 1.268 . S
O194 Sc178 2.105 . S
O194 C185 1.268 . S
O195 Sc176 2.105 . S
O195 C181 1.268 . S
O196 Sc178 2.105 . S
O196 C180 1.268 . S
O197 Sc177 2.105 . S
O197 C182 1.268 . S
H198 C204 0.930 1_556 S
H199 C207 0.930 . S
H200 C208 0.930 . S
H201 C209 0.930 . S
H202 C212 0.930 . S
H203 C213 0.930 . S
C204 H198 0.930 1_554 S
C204 C205 1.355 . S
C204 C206 1.412 1_554 S
C205 C204 1.355 . S
C205 C207 1.419 . S
C206 C204 1.412 1_556 S
C206 C211 1.418 1_556 S
C206 C213 1.418 . S
C207 H199 0.930 . S
C207 C205 1.419 . S
C207 C208 1.362 . S
C208 H200 0.930 . S
C208 C207 1.362 . S
C208 C211 1.409 . S
C209 H201 0.930 . S
C209 C210 1.355 1_554 S
C209 C211 1.415 . S
C210 C209 1.355 1_556 S
C210 C212 1.419 . S
C211 C206 1.418 1_554 S
C211 C208 1.409 . S
C211 C209 1.415 . S
C212 H202 0.930 . S
C212 C210 1.419 . S
C212 C213 1.362 . S
C213 H203 0.930 . S
C213 C206 1.418 . S
C213 C212 1.362 . S
H214 C220 0.930 . S
H215 C223 0.930 . S
H216 C224 0.930 . S
H217 C225 0.930 . S
H218 C228 0.930 . S
H219 C229 0.930 . S
C220 H214 0.930 . S
C220 C221 1.355 . S
C220 C222 1.415 . S
C221 C220 1.355 . S
C221 C223 1.419 . S
C222 C220 1.415 . S
C222 C227 1.425 . S
C222 C229 1.409 . S
C223 H215 0.930 . S
C223 C221 1.419 . S
C223 C224 1.362 . S
C224 H216 0.930 . S
C224 C223 1.362 . S
C224 C227 1.409 . S
C225 H217 0.930 . S
C225 C226 1.355 . S
C225 C227 1.415 1_556 S
C226 C225 1.355 . S
C226 C228 1.419 . S
C227 C222 1.425 . S
C227 C224 1.409 . S
C227 C225 1.415 1_554 S
C228 H218 0.930 . S
C228 C226 1.419 . S
C228 C229 1.362 1_556 S
C229 H219 0.930 . S
C229 C222 1.409 . S
C229 C228 1.362 1_554 S
H230 C236 0.930 . S
H231 C239 0.930 . S
H232 C240 0.930 . S
H233 C241 0.930 1_556 S
H234 C244 0.930 . S
H235 C245 0.930 . S
C236 H230 0.930 . S
C236 C237 1.355 1_554 S
C236 C238 1.415 . S
C237 C236 1.355 1_556 S
C237 C239 1.419 . S
C238 C236 1.415 . S
C238 C243 1.425 1_554 S
C238 C245 1.409 . S
C239 H231 0.930 . S
C239 C237 1.419 . S
C239 C240 1.362 . S
C240 H232 0.930 . S
C240 C239 1.362 . S
C240 C243 1.409 . S
C241 H233 0.930 1_554 S
C241 C242 1.355 . S
C241 C243 1.415 1_554 S
C242 C241 1.355 . S
C242 C244 1.419 . S
C243 C238 1.425 1_556 S
C243 C240 1.409 . S
C243 C241 1.415 1_556 S
C244 H234 0.930 . S
C244 C242 1.419 . S
C244 C245 1.362 . S
C245 H235 0.930 . S
C245 C238 1.409 . S
C245 C244 1.362 . S
H246 C252 0.938 . S
H247 C255 0.930 . S
H248 C256 0.930 . S
H249 C257 0.930 1_554 S
H250 C260 0.930 . S
H251 C261 0.930 . S
C252 H246 0.938 . S
C252 C253 1.341 1_556 S
C252 C254 1.420 . S
C253 C252 1.341 1_554 S
C253 C255 1.419 . S
C254 C252 1.420 . S
C254 C259 1.425 1_556 S
C254 C261 1.409 . S
C255 H247 0.930 . S
C255 C253 1.419 . S
C255 C256 1.362 . S
C256 H248 0.930 . S
C256 C255 1.362 . S
C256 C259 1.409 . S
C257 H249 0.930 1_556 S
C257 C258 1.355 . S
C257 C259 1.415 1_556 S
C258 C257 1.355 . S
C258 C260 1.419 . S
C259 C254 1.425 1_554 S
C259 C256 1.409 . S
C259 C257 1.415 1_554 S
C260 H250 0.930 . S
C260 C258 1.419 . S
C260 C261 1.362 . S
C261 H251 0.930 . S
C261 C254 1.409 . S
C261 C260 1.362 . S
H262 C268 0.930 . S
H263 C271 0.930 . S
H264 C272 0.930 . S
H265 C273 0.929 . S
H266 C276 0.930 . S
H267 C277 0.930 . S
C268 H262 0.930 . S
C268 C269 1.355 . S
C268 C270 1.414 . S
C269 C268 1.355 . S
C269 C271 1.419 . S
C270 C268 1.414 . S
C270 C275 1.425 . S
C270 C277 1.410 1_556 S
C271 H263 0.930 . S
C271 C269 1.419 . S
C271 C272 1.362 . S
C272 H264 0.930 . S
C272 C271 1.362 . S
C272 C275 1.409 . S
C273 H265 0.929 . S
C273 C274 1.355 . S
C273 C275 1.415 1_554 S
C274 C273 1.355 . S
C274 C276 1.419 . S
C275 C270 1.425 . S
C275 C272 1.409 . S
C275 C273 1.415 1_556 S
C276 H266 0.930 . S
C276 C274 1.419 . S
C276 C277 1.362 . S
C277 H267 0.930 . S
C277 C270 1.410 1_554 S
C277 C276 1.362 . S
H278 C284 0.930 . S
H279 C287 0.930 . S
H280 C288 0.930 . S
H281 C289 0.930 . S
H282 C292 0.930 . S
H283 C293 0.930 . S
C284 H278 0.930 . S
C284 C285 1.355 . S
C284 C286 1.415 . S
C285 C284 1.355 . S
C285 C287 1.419 1_556 S
C286 C284 1.415 . S
C286 C291 1.425 1_556 S
C286 C293 1.409 . S
C287 H279 0.930 . S
C287 C285 1.419 1_554 S
C287 C288 1.362 . S
C288 H280 0.930 . S
C288 C287 1.362 . S
C288 C291 1.409 . S
C289 H281 0.930 . S
C289 C290 1.355 . S
C289 C291 1.415 . S
C290 C289 1.355 . S
C290 C292 1.419 1_554 S
C291 C286 1.425 1_554 S
C291 C288 1.409 . S
C291 C289 1.415 . S
C292 H282 0.930 . S
C292 C290 1.419 1_556 S
C292 C293 1.362 . S
C293 H283 0.930 . S
C293 C286 1.409 . S
C293 C292 1.362 . S
H294 C300 0.930 . S
H295 C303 0.930 . S
H296 C304 0.930 . S
H297 C305 0.930 . S
H298 C308 0.930 1_455 S
H299 C309 0.930 . S
C300 H294 0.930 . S
C300 C301 1.355 . S
C300 C302 1.415 . S
C301 C300 1.355 . S
C301 C303 1.419 . S
C302 C300 1.415 . S
C302 C307 1.425 . S
C302 C309 1.409 . S
C303 H295 0.930 . S
C303 C301 1.419 . S
C303 C304 1.362 . S
C304 H296 0.930 . S
C304 C303 1.362 . S
C304 C307 1.409 . S
C305 H297 0.930 . S
C305 C306 1.355 . S
C305 C307 1.415 1_455 S
C306 C305 1.355 . S
C306 C308 1.419 1_455 S
C307 C302 1.425 . S
C307 C304 1.409 . S
C307 C305 1.415 1_655 S
C308 H298 0.930 1_655 S
C308 C306 1.419 1_655 S
C308 C309 1.362 . S
C309 H299 0.930 . S
C309 C302 1.409 . S
C309 C308 1.362 . S
H310 C316 0.930 . S
H311 C319 0.930 . S
H312 C320 0.930 . S
H313 C321 0.930 . S
H314 C324 0.930 1_565 S
H315 C325 0.930 . S
C316 H310 0.930 . S
C316 C317 1.355 . S
C316 C318 1.415 . S
C317 C316 1.355 . S
C317 C319 1.419 . S
C318 C316 1.415 . S
C318 C323 1.425 . S
C318 C325 1.409 . S
C319 H311 0.930 . S
C319 C317 1.419 . S
C319 C320 1.362 . S
C320 H312 0.930 . S
C320 C319 1.362 . S
C320 C323 1.409 . S
C321 H313 0.930 . S
C321 C322 1.355 . S
C321 C323 1.415 . S
C322 C321 1.355 . S
C322 C324 1.419 . S
C323 C318 1.425 . S
C323 C320 1.409 . S
C323 C321 1.415 . S
C324 H314 0.930 1_545 S
C324 C322 1.419 . S
C324 C325 1.362 . S
C325 H315 0.930 . S
C325 C318 1.409 . S
C325 C324 1.362 . S
H326 C332 0.930 . S
H327 C335 0.930 . S
H328 C336 0.930 . S
H329 C337 0.930 1_565 S
H330 C340 0.930 . S
H331 C341 0.930 . S
C332 H326 0.930 . S
C332 C333 1.355 . S
C332 C334 1.415 . S
C333 C332 1.355 . S
C333 C335 1.419 . S
C334 C332 1.415 . S
C334 C339 1.425 . S
C334 C341 1.409 . S
C335 H327 0.930 . S
C335 C333 1.419 . S
C335 C336 1.362 . S
C336 H328 0.930 . S
C336 C335 1.362 . S
C336 C339 1.409 . S
C337 H329 0.930 1_545 S
C337 C338 1.355 1_545 S
C337 C339 1.415 . S
C338 C337 1.355 1_565 S
C338 C340 1.419 . S
C339 C334 1.425 . S
C339 C336 1.409 . S
C339 C337 1.415 . S
C340 H330 0.930 . S
C340 C338 1.419 . S
C340 C341 1.362 1_565 S
C341 H331 0.930 . S
C341 C334 1.409 . S
C341 C340 1.362 1_545 S
H342 C348 0.930 . S
H343 C351 0.930 . S
H344 C352 0.930 . S
H345 C353 0.930 . S
H346 C356 0.930 . S
H347 C357 0.930 . S
C348 H342 0.930 . S
C348 C349 1.355 . S
C348 C350 1.415 . S
C349 C348 1.355 . S
C349 C351 1.419 . S
C350 C348 1.415 . S
C350 C355 1.425 . S
C350 C357 1.409 . S
C351 H343 0.930 . S
C351 C349 1.419 . S
C351 C352 1.362 . S
C352 H344 0.930 . S
C352 C351 1.362 . S
C352 C355 1.409 . S
C353 H345 0.930 . S
C353 C354 1.355 . S
C353 C355 1.415 . S
C354 C353 1.355 . S
C354 C356 1.419 . S
C355 C350 1.425 . S
C355 C352 1.409 . S
C355 C353 1.415 . S
C356 H346 0.930 . S
C356 C354 1.419 . S
C356 C357 1.362 . S
C357 H347 0.930 . S
C357 C350 1.409 . S
C357 C356 1.362 . S
H358 C364 0.930 . S
H359 C367 0.930 . S
H360 C368 0.930 . S
H361 C369 0.930 . S
H362 C372 0.930 . S
H363 C373 0.930 . S
C364 H358 0.930 . S
C364 C365 1.355 . S
C364 C366 1.415 . S
C365 C364 1.355 . S
C365 C367 1.419 . S
C366 C364 1.415 . S
C366 C371 1.425 . S
C366 C373 1.409 . S
C367 H359 0.930 . S
C367 C365 1.419 . S
C367 C368 1.362 . S
C368 H360 0.930 . S
C368 C367 1.362 . S
C368 C371 1.409 . S
C369 H361 0.930 . S
C369 C370 1.355 . S
C369 C371 1.415 . S
C370 C369 1.355 . S
C370 C372 1.419 . S
C371 C366 1.425 . S
C371 C368 1.409 . S
C371 C369 1.415 . S
C372 H362 0.930 . S
C372 C370 1.419 . S
C372 C373 1.362 . S
C373 H363 0.930 . S
C373 C366 1.409 . S
C373 C372 1.362 . S
H374 C380 0.930 . S
H375 C383 0.930 . S
H376 C384 0.930 . S
H377 C385 0.930 . S
H378 C388 0.930 . S
H379 C389 0.930 . S
C380 H374 0.930 . S
C380 C381 1.355 . S
C380 C382 1.415 . S
C381 C380 1.355 . S
C381 C383 1.419 . S
C382 C380 1.415 . S
C382 C387 1.425 . S
C382 C389 1.409 . S
C383 H375 0.930 . S
C383 C381 1.419 . S
C383 C384 1.362 . S
C384 H376 0.930 . S
C384 C383 1.362 . S
C384 C387 1.409 . S
C385 H377 0.930 . S
C385 C386 1.355 . S
C385 C387 1.415 . S
C386 C385 1.355 . S
C386 C388 1.419 . S
C387 C382 1.425 . S
C387 C384 1.409 . S
C387 C385 1.415 . S
C388 H378 0.930 . S
C388 C386 1.419 . S
C388 C389 1.362 . S
C389 H379 0.930 . S
C389 C382 1.409 . S
C389 C388 1.362 . S
H390 C396 0.930 . S
H391 C399 0.930 . S
H392 C400 0.930 . S
H393 C401 0.930 . S
H394 C404 0.930 . S
H395 C405 0.930 . S
C396 H390 0.930 . S
C396 C397 1.355 . S
C396 C398 1.415 . S
C397 C396 1.355 . S
C397 C399 1.419 . S
C398 C396 1.415 . S
C398 C403 1.425 . S
C398 C405 1.409 . S
C399 H391 0.930 . S
C399 C397 1.419 . S
C399 C400 1.362 . S
C400 H392 0.930 . S
C400 C399 1.362 . S
C400 C403 1.409 . S
C401 H393 0.930 . S
C401 C402 1.355 . S
C401 C403 1.415 . S
C402 C401 1.355 . S
C402 C404 1.419 . S
C403 C398 1.425 . S
C403 C400 1.409 . S
C403 C401 1.415 . S
C404 H394 0.930 . S
C404 C402 1.419 . S
C404 C405 1.362 . S
C405 H395 0.930 . S
C405 C398 1.409 . S
C405 C404 1.362 . S
H406 C412 0.930 . S
H407 C415 0.930 . S
H408 C416 0.930 . S
H409 C417 0.930 . S
H410 C420 0.930 . S
H411 C421 0.930 . S
C412 H406 0.930 . S
C412 C413 1.355 . S
C412 C414 1.415 . S
C413 C412 1.355 . S
C413 C415 1.419 . S
C414 C412 1.415 . S
C414 C419 1.425 . S
C414 C421 1.409 . S
C415 H407 0.930 . S
C415 C413 1.419 . S
C415 C416 1.362 . S
C416 H408 0.930 . S
C416 C415 1.362 . S
C416 C419 1.409 . S
C417 H409 0.930 . S
C417 C418 1.355 . S
C417 C419 1.415 . S
C418 C417 1.355 . S
C418 C420 1.419 . S
C419 C414 1.425 . S
C419 C416 1.409 . S
C419 C417 1.415 . S
C420 H410 0.930 . S
C420 C418 1.419 . S
C420 C421 1.362 . S
C421 H411 0.930 . S
C421 C414 1.409 . S
C421 C420 1.362 . S
H422 C428 0.930 . S
H423 C431 0.930 . S
H424 C432 0.930 . S
H425 C433 0.930 . S
H426 C436 0.930 . S
H427 C437 0.930 . S
C428 H422 0.930 . S
C428 C429 1.355 . S
C428 C430 1.415 . S
C429 C428 1.355 . S
C429 C431 1.419 . S
C430 C428 1.415 . S
C430 C435 1.425 . S
C430 C437 1.409 . S
C431 H423 0.930 . S
C431 C429 1.419 . S
C431 C432 1.362 . S
C432 H424 0.930 . S
C432 C431 1.362 . S
C432 C435 1.409 . S
C433 H425 0.930 . S
C433 C434 1.355 . S
C433 C435 1.415 . S
C434 C433 1.355 . S
C434 C436 1.419 . S
C435 C430 1.425 . S
C435 C432 1.409 . S
C435 C433 1.415 . S
C436 H426 0.930 . S
C436 C434 1.419 . S
C436 C437 1.362 . S
C437 H427 0.930 . S
C437 C430 1.409 . S
C437 C436 1.362 . S
H438 C444 0.930 . S
H439 C447 0.930 . S
H440 C448 0.930 . S
H441 C449 0.930 . S
H442 C452 0.930 1_545 S
H443 C453 0.930 . S
C444 H438 0.930 . S
C444 C445 1.355 . S
C444 C446 1.415 . S
C445 C444 1.355 . S
C445 C447 1.419 . S
C446 C444 1.415 . S
C446 C451 1.425 . S
C446 C453 1.409 . S
C447 H439 0.930 . S
C447 C445 1.419 . S
C447 C448 1.362 . S
C448 H440 0.930 . S
C448 C447 1.362 . S
C448 C451 1.409 . S
C449 H441 0.930 . S
C449 C450 1.355 . S
C449 C451 1.415 1_545 S
C450 C449 1.355 . S
C450 C452 1.419 1_545 S
C451 C446 1.425 . S
C451 C448 1.409 . S
C451 C449 1.415 1_565 S
C452 H442 0.930 1_565 S
C452 C450 1.419 1_565 S
C452 C453 1.362 . S
C453 H443 0.930 . S
C453 C446 1.409 . S
C453 C452 1.362 . S
H454 C460 0.929 . S
H455 C463 0.930 . S
H456 C464 0.930 . S
H457 C465 0.930 . S
H458 C468 0.930 . S
H459 C469 0.930 . S
C460 H454 0.929 . S
C460 C461 1.354 . S
C460 C462 1.416 1_655 S
C461 C460 1.354 . S
C461 C463 1.419 . S
C462 C460 1.416 1_455 S
C462 C467 1.425 . S
C462 C469 1.409 . S
C463 H455 0.930 . S
C463 C461 1.419 . S
C463 C464 1.362 1_655 S
C464 H456 0.930 . S
C464 C463 1.362 1_455 S
C464 C467 1.409 . S
C465 H457 0.930 . S
C465 C466 1.355 . S
C465 C467 1.415 . S
C466 C465 1.355 . S
C466 C468 1.419 . S
C467 C462 1.425 . S
C467 C464 1.409 . S
C467 C465 1.415 . S
C468 H458 0.930 . S
C468 C466 1.419 . S
C468 C469 1.362 . S
C469 H459 0.930 . S
C469 C462 1.409 . S
C469 C468 1.362 . S
H470 C476 0.930 . S
H471 C479 0.930 . S
H472 C480 0.930 . S
H473 C481 0.930 . S
H474 C484 0.930 . S
H475 C485 0.930 . S
C476 H470 0.930 . S
C476 C477 1.355 . S
C476 C478 1.415 . S
C477 C476 1.355 . S
C477 C479 1.419 . S
C478 C476 1.415 . S
C478 C483 1.425 . S
C478 C485 1.409 . S
C479 H471 0.930 . S
C479 C477 1.419 . S
C479 C480 1.362 . S
C480 H472 0.930 . S
C480 C479 1.362 . S
C480 C483 1.409 . S
C481 H473 0.930 . S
C481 C482 1.355 . S
C481 C483 1.415 . S
C482 C481 1.355 . S
C482 C484 1.419 . S
C483 C478 1.425 . S
C483 C480 1.409 . S
C483 C481 1.415 . S
C484 H474 0.930 . S
C484 C482 1.419 . S
C484 C485 1.362 . S
C485 H475 0.930 . S
C485 C478 1.409 . S
C485 C484 1.362 . S
H486 C492 0.930 . S
H487 C495 0.930 . S
H488 C496 0.930 . S
H489 C497 0.930 . S
H490 C500 0.930 . S
H491 C501 0.930 . S
C492 H486 0.930 . S
C492 C493 1.355 . S
C492 C494 1.415 . S
C493 C492 1.355 . S
C493 C495 1.419 . S
C494 C492 1.415 . S
C494 C499 1.425 . S
C494 C501 1.409 . S
C495 H487 0.930 . S
C495 C493 1.419 . S
C495 C496 1.362 . S
C496 H488 0.930 . S
C496 C495 1.362 . S
C496 C499 1.409 . S
C497 H489 0.930 . S
C497 C498 1.355 . S
C497 C499 1.415 . S
C498 C497 1.355 . S
C498 C500 1.419 . S
C499 C494 1.425 . S
C499 C496 1.409 . S
C499 C497 1.415 . S
C500 H490 0.930 . S
C500 C498 1.419 . S
C500 C501 1.362 . S
C501 H491 0.930 . S
C501 C494 1.409 . S
C501 C500 1.362 . S
H502 C508 0.930 . S
H503 C511 0.930 . S
H504 C512 0.930 . S
H505 C513 0.930 . S
H506 C516 0.930 . S
H507 C517 0.930 . S
C508 H502 0.930 . S
C508 C509 1.355 . S
C508 C510 1.415 . S
C509 C508 1.355 . S
C509 C511 1.419 . S
C510 C508 1.415 . S
C510 C515 1.425 . S
C510 C517 1.409 . S
C511 H503 0.930 . S
C511 C509 1.419 . S
C511 C512 1.362 . S
C512 H504 0.930 . S
C512 C511 1.362 . S
C512 C515 1.409 . S
C513 H505 0.930 . S
C513 C514 1.355 . S
C513 C515 1.415 . S
C514 C513 1.355 . S
C514 C516 1.419 . S
C515 C510 1.425 . S
C515 C512 1.409 . S
C515 C513 1.415 . S
C516 H506 0.930 . S
C516 C514 1.419 . S
C516 C517 1.362 . S
C517 H507 0.930 . S
C517 C510 1.409 . S
C517 C516 1.362 . S
H518 C524 0.930 . S
H519 C527 0.930 . S
H520 C528 0.930 . S
H521 C529 0.930 . S
H522 C532 0.930 . S
H523 C533 0.930 . S
C524 H518 0.930 . S
C524 C525 1.355 . S
C524 C526 1.415 . S
C525 C524 1.355 . S
C525 C527 1.419 1_565 S
C526 C524 1.415 . S
C526 C531 1.425 . S
C526 C533 1.409 . S
C527 H519 0.930 . S
C527 C525 1.419 1_545 S
C527 C528 1.362 . S
C528 H520 0.930 . S
C528 C527 1.362 . S
C528 C531 1.409 1_545 S
C529 H521 0.930 . S
C529 C530 1.355 . S
C529 C531 1.415 . S
C530 C529 1.355 . S
C530 C532 1.419 . S
C531 C526 1.425 . S
C531 C528 1.409 1_565 S
C531 C529 1.415 . S
C532 H522 0.930 . S
C532 C530 1.419 . S
C532 C533 1.362 . S
C533 H523 0.930 . S
C533 C526 1.409 . S
C533 C532 1.362 . S
H534 C540 0.930 . S
H535 C543 0.929 1_565 S
H536 C544 0.930 . S
H537 C545 0.930 . S
H538 C548 0.930 . S
H539 C549 0.930 . S
C540 H534 0.930 . S
C540 C541 1.355 . S
C540 C542 1.415 . S
C541 C540 1.355 . S
C541 C543 1.419 . S
C542 C540 1.415 . S
C542 C547 1.425 . S
C542 C549 1.409 . S
C543 H535 0.929 1_545 S
C543 C541 1.419 . S
C543 C544 1.362 . S
C544 H536 0.930 . S
C544 C543 1.362 . S
C544 C547 1.409 . S
C545 H537 0.930 . S
C545 C546 1.355 . S
C545 C547 1.415 . S
C546 C545 1.355 . S
C546 C548 1.419 . S
C547 C542 1.425 . S
C547 C544 1.409 . S
C547 C545 1.415 . S
C548 H538 0.930 . S
C548 C546 1.419 . S
C548 C549 1.362 . S
C549 H539 0.930 . S
C549 C542 1.409 . S
C549 C548 1.362 . S
H550 C556 0.930 1_455 S
H551 C559 0.930 . S
H552 C560 0.930 . S
H553 C561 0.930 . S
H554 C564 0.930 1_455 S
H555 C565 0.930 . S
C556 H550 0.930 1_655 S
C556 C557 1.355 . S
C556 C558 1.415 . S
C557 C556 1.355 . S
C557 C559 1.419 . S
C558 C556 1.415 . S
C558 C563 1.425 . S
C558 C565 1.409 1_655 S
C559 H551 0.930 . S
C559 C557 1.419 . S
C559 C560 1.362 . S
C560 H552 0.930 . S
C560 C559 1.362 . S
C560 C563 1.409 . S
C561 H553 0.930 . S
C561 C562 1.355 . S
C561 C563 1.415 . S
C562 C561 1.355 . S
C562 C564 1.419 . S
C563 C558 1.425 . S
C563 C560 1.409 . S
C563 C561 1.415 . S
C564 H554 0.930 1_655 S
C564 C562 1.419 . S
C564 C565 1.362 1_655 S
C565 H555 0.930 . S
C565 C558 1.409 1_455 S
C565 C564 1.362 1_455 S
H566 C572 0.930 . S
H567 C575 0.930 . S
H568 C576 0.930 . S
H569 C577 0.930 . S
H570 C580 0.930 . S
H571 C581 0.930 . S
C572 H566 0.930 . S
C572 C573 1.355 . S
C572 C574 1.415 . S
C573 C572 1.355 . S
C573 C575 1.419 . S
C574 C572 1.415 . S
C574 C579 1.425 . S
C574 C581 1.409 . S
C575 H567 0.930 . S
C575 C573 1.419 . S
C575 C576 1.362 . S
C576 H568 0.930 . S
C576 C575 1.362 . S
C576 C579 1.409 . S
C577 H569 0.930 . S
C577 C578 1.355 . S
C577 C579 1.415 . S
C578 C577 1.355 . S
C578 C580 1.419 . S
C579 C574 1.425 . S
C579 C576 1.409 . S
C579 C577 1.415 . S
C580 H570 0.930 . S
C580 C578 1.419 . S
C580 C581 1.362 . S
C581 H571 0.930 . S
C581 C574 1.409 . S
C581 C580 1.362 . S
H582 C588 0.930 . S
H583 C591 0.930 . S
H584 C592 0.930 . S
H585 C593 0.930 . S
H586 C596 0.930 . S
H587 C597 0.930 . S
C588 H582 0.930 . S
C588 C589 1.355 . S
C588 C590 1.415 . S
C589 C588 1.355 . S
C589 C591 1.419 . S
C590 C588 1.415 . S
C590 C595 1.425 . S
C590 C597 1.409 . S
C591 H583 0.930 . S
C591 C589 1.419 . S
C591 C592 1.362 . S
C592 H584 0.930 . S
C592 C591 1.362 . S
C592 C595 1.409 . S
C593 H585 0.930 . S
C593 C594 1.355 . S
C593 C595 1.415 . S
C594 C593 1.355 . S
C594 C596 1.419 . S
C595 C590 1.425 . S
C595 C592 1.409 . S
C595 C593 1.415 . S
C596 H586 0.930 . S
C596 C594 1.419 . S
C596 C597 1.362 . S
C597 H587 0.930 . S
C597 C590 1.409 . S
C597 C596 1.362 . S
H598 C604 0.930 . S
H599 C607 0.930 . S
H600 C608 0.930 . S
H601 C609 0.930 . S
H602 C612 0.930 . S
H603 C613 0.930 . S
C604 H598 0.930 . S
C604 C605 1.355 1_545 S
C604 C606 1.415 . S
C605 C604 1.355 1_565 S
C605 C607 1.419 . S
C606 C604 1.415 . S
C606 C611 1.425 1_545 S
C606 C613 1.409 . S
C607 H599 0.930 . S
C607 C605 1.419 . S
C607 C608 1.362 . S
C608 H600 0.930 . S
C608 C607 1.362 . S
C608 C611 1.409 . S
C609 H601 0.930 . S
C609 C610 1.355 1_565 S
C609 C611 1.415 . S
C610 C609 1.355 1_545 S
C610 C612 1.419 . S
C611 C606 1.425 1_565 S
C611 C608 1.409 . S
C611 C609 1.415 . S
C612 H602 0.930 . S
C612 C610 1.419 . S
C612 C613 1.362 . S
C613 H603 0.930 . S
C613 C606 1.409 . S
C613 C612 1.362 . S
H614 C620 0.930 . S
H615 C623 0.930 . S
H616 C624 0.930 . S
H617 C625 0.930 . S
H618 C628 0.930 . S
H619 C629 0.930 . S
C620 H614 0.930 . S
C620 C621 1.355 . S
C620 C622 1.415 . S
C621 C620 1.355 . S
C621 C623 1.419 1_655 S
C622 C620 1.415 . S
C622 C627 1.425 1_655 S
C622 C629 1.409 . S
C623 H615 0.930 . S
C623 C621 1.419 1_455 S
C623 C624 1.362 . S
C624 H616 0.930 . S
C624 C623 1.362 . S
C624 C627 1.409 . S
C625 H617 0.930 . S
C625 C626 1.355 . S
C625 C627 1.415 . S
C626 C625 1.355 . S
C626 C628 1.419 1_455 S
C627 C622 1.425 1_455 S
C627 C624 1.409 . S
C627 C625 1.415 . S
C628 H618 0.930 . S
C628 C626 1.419 1_655 S
C628 C629 1.362 . S
C629 H619 0.930 . S
C629 C622 1.409 . S
C629 C628 1.362 . S
C205 C26 1.466 . S
C210 C5 1.542 . S
C221 C48 1.416 . S
C226 C27 1.525 . S
C237 C49 1.558 . S
C242 C4 1.488 . S
C253 C53 1.558 . S
C258 C30 1.446 . S
C269 C52 1.438 . S
C274 C9 1.531 . S
C285 C8 1.392 . S
C290 C31 1.523 . S
C301 C71 1.563 . S
C306 C92 1.476 . S
C317 C114 1.444 . S
C322 C93 1.557 . S
C333 C115 1.558 1_655 S
C338 C70 1.488 . S
C349 C96 1.450 . S
C354 C119 1.535 . S
C365 C118 1.486 . S
C370 C75 1.562 . S
C381 C97 1.523 . S
C386 C74 1.393 . S
C397 C158 1.444 . S
C402 C137 1.557 . S
C413 C159 1.526 . S
C418 C180 1.420 . S
C429 C181 1.557 . S
C434 C136 1.446 . S
C445 C185 1.563 . S
C450 C162 1.478 . S
C461 C184 1.474 . S
C466 C141 1.547 1_565 S
C477 C140 1.481 . S
C482 C163 1.551 . S
C493 C117 1.418 . S
C498 C6 1.395 . S
C509 C73 1.421 . S
C514 C28 1.380 . S
C525 C50 1.362 . S
C530 C95 1.398 . S
C541 C51 1.388 . S
C546 C138 1.421 . S
C557 C7 1.421 . S
C562 C160 1.381 . S
C573 C182 1.420 . S
C578 C29 1.374 . S
C589 C72 1.414 . S
C594 C183 1.404 . S
C605 C94 1.368 . S
C610 C139 1.381 . S
C621 C161 1.420 . S
C626 C116 1.374 . S
