# Generated by pormake.
# Topology svk, (7)-cn, num edge types: 1
# Building blocks:
#     Node 0, Type 0, BuildingBlock: HICVOG_clean_sbu_0, # of connection points: 7
#     Node 1, Type 0, BuildingBlock: HICVOG_clean_sbu_0, # of connection points: 7
#     Node 2, Type 0, BuildingBlock: HICVOG_clean_sbu_0, # of connection points: 7
#     Node 3, Type 0, BuildingBlock: HICVOG_clean_sbu_0, # of connection points: 7
#     Edge 4, Type (0, 0), BuildingBlock: XIVTED_clean_linker_0, # of connection points: 2
#     Edge 5, Type (0, 0), BuildingBlock: XIVTED_clean_linker_0, # of connection points: 2
#     Edge 6, Type (0, 0), BuildingBlock: XIVTED_clean_linker_0, # of connection points: 2
#     Edge 7, Type (0, 0), BuildingBlock: XIVTED_clean_linker_0, # of connection points: 2
#     Edge 8, Type (0, 0), BuildingBlock: XIVTED_clean_linker_0, # of connection points: 2
#     Edge 9, Type (0, 0), BuildingBlock: XIVTED_clean_linker_0, # of connection points: 2
#     Edge 10, Type (0, 0), BuildingBlock: XIVTED_clean_linker_0, # of connection points: 2
#     Edge 11, Type (0, 0), BuildingBlock: XIVTED_clean_linker_0, # of connection points: 2
#     Edge 12, Type (0, 0), BuildingBlock: XIVTED_clean_linker_0, # of connection points: 2
#     Edge 13, Type (0, 0), BuildingBlock: XIVTED_clean_linker_0, # of connection points: 2
#     Edge 14, Type (0, 0), BuildingBlock: XIVTED_clean_linker_0, # of connection points: 2
#     Edge 15, Type (0, 0), BuildingBlock: XIVTED_clean_linker_0, # of connection points: 2
#     Edge 16, Type (0, 0), BuildingBlock: XIVTED_clean_linker_0, # of connection points: 2
#     Edge 17, Type (0, 0), BuildingBlock: XIVTED_clean_linker_0, # of connection points: 2
# Relax obj value: 0.246
# Max RMSD: 0.244
# Mean RMSD: 0.244
data_MOF--net-svk--node1-HICVOG_clean_sbu_0--edge1-XIVTED_clean_linker_0
_symmetry_space_group_name_H-M    P1
_symmetry_Int_Tables_number       1
_symmetry_cell_setting            triclinic
loop_
_symmetry_equiv_pos_as_xyz
'x, y, z'
_cell_length_a     17.689238
_cell_length_b     52.313345
_cell_length_c     20.5121
_cell_angle_alpha  91.334498
_cell_angle_beta   89.693128
_cell_angle_gamma 90.023498
loop_
_atom_site_label
_atom_site_type_symbol
_atom_site_fract_x
_atom_site_fract_y
_atom_site_fract_z
_atom_type_partial_charge
Zn0 Zn 0.0643 0.38497 0.11526 0.0
C1 C 0.9312 0.3302 0.04668 0.0
N2 N 0.97807 0.31552 0.08093 0.0
C3 C 0.03535 0.33137 0.09572 0.0
N4 N 0.02266 0.35494 0.07274 0.0
N5 N 0.95829 0.35413 0.04019 0.0
C6 C 0.77679 0.38978 1.00016 0.0
O7 O 0.81265 0.40557 0.03987 0.0
O8 O 0.18018 0.38219 0.12137 0.0
Zn9 Zn 0.92982 0.37842 0.97457 0.0
N10 N 0.00687 0.38717 0.19599 0.0
C11 C 0.88093 0.39626 0.23077 0.0
C12 C 0.93548 0.3949 0.18208 0.0
C13 C 0.02609 0.38041 0.25755 0.0
N14 N 0.89953 0.38957 0.29187 0.0
C15 C 0.97035 0.38162 0.3073 0.0
O16 O 0.95346 0.41576 0.99621 0.0
C17 C 0.99681 0.42907 0.03291 0.0
O18 O 0.03943 0.41885 0.07464 0.0
H19 H 0.92059 0.39945 0.13273 0.0
H20 H 0.0826 0.37356 0.26694 0.0
C21 C 0.97883 0.36966 0.83519 0.0
C22 C 0.03799 0.36561 0.78922 0.0
C23 C 0.12596 0.36353 0.87598 0.0
C24 C 0.06836 0.36841 0.92051 0.0
N25 N 0.99578 0.37076 0.90005 0.0
N26 N 0.10954 0.36239 0.81176 0.0
H27 H 0.92123 0.37288 0.82003 0.0
C28 C 0.21608 0.39338 0.076 0.0
O29 O 0.17752 0.40596 0.03266 0.0
O30 O 0.81515 0.37526 0.96167 0.0
H31 H 0.08187 0.37104 0.97122 0.0
H32 H 0.82395 0.40231 0.22005 0.0
H33 H 0.18371 0.36138 0.89211 0.0
Zn34 Zn 0.07433 0.65907 0.89531 0.0
C35 C 0.93915 0.71702 0.94609 0.0
N36 N 0.98656 0.72955 0.90667 0.0
C37 C 0.04371 0.7131 0.89674 0.0
N38 N 0.02982 0.69084 0.92667 0.0
N39 N 0.96577 0.69346 0.95991 0.0
C40 C 0.78932 0.66794 0.98459 0.0
O41 O 0.83157 0.66294 0.933 0.0
O42 O 0.1892 0.66209 0.88795 0.0
Zn43 Zn 0.93719 0.6723 0.03378 0.0
N44 N 0.02126 0.64988 0.81442 0.0
C45 C 0.91092 0.62788 0.77781 0.0
C46 C 0.95846 0.63586 0.82769 0.0
C47 C 0.03748 0.65687 0.75203 0.0
N48 N 0.92679 0.63469 0.71611 0.0
C49 C 0.98824 0.64909 0.70088 0.0
O50 O 0.96662 0.63456 0.0274 0.0
C51 C 0.01286 0.62014 0.99613 0.0
O52 O 0.05436 0.62855 0.9507 0.0
H53 H 0.94429 0.63117 0.87716 0.0
H54 H 0.08625 0.66877 0.74303 0.0
C55 C 0.98122 0.67807 0.17258 0.0
C56 C 0.02528 0.68884 0.2237 0.0
C57 C 0.08273 0.71668 0.14827 0.0
C58 C 0.03953 0.70602 0.09828 0.0
N59 N 0.98949 0.68694 0.11083 0.0
N60 N 0.07477 0.70785 0.20939 0.0
H61 H 0.94245 0.66249 0.18113 0.0
C62 C 0.22345 0.65905 0.94181 0.0
O63 O 0.18299 0.6545 0.99419 0.0
O64 O 0.82175 0.6726 0.03895 0.0
H65 H 0.04668 0.71298 0.04968 0.0
H66 H 0.86106 0.61666 0.78804 0.0
H67 H 0.1227 0.7318 0.13854 0.0
Zn68 Zn 0.56545 0.88488 0.11337 0.0
C69 C 0.43194 0.83017 0.04537 0.0
N70 N 0.47906 0.81546 0.07928 0.0
C71 C 0.53648 0.8313 0.09379 0.0
N72 N 0.52365 0.85488 0.07094 0.0
N73 N 0.45901 0.8541 0.03884 0.0
C74 C 0.27759 0.88885 1.00027 0.0
O75 O 0.3135 0.9041 0.04129 0.0
O76 O 0.68135 0.88227 0.11856 0.0
Zn77 Zn 0.43028 0.87841 0.97351 0.0
N78 N 0.50929 0.88685 0.1947 0.0
C79 C 0.38407 0.8959 0.23143 0.0
C80 C 0.43766 0.89464 0.18195 0.0
C81 C 0.5297 0.87991 0.25582 0.0
N82 N 0.40387 0.88906 0.29213 0.0
C83 C 0.47497 0.88103 0.30639 0.0
O84 O 0.45288 0.91578 0.9955 0.0
C85 C 0.49626 0.92907 0.03221 0.0
O86 O 0.53941 0.91881 0.07347 0.0
H87 H 0.42186 0.89934 0.13292 0.0
H88 H 0.58638 0.87302 0.26422 0.0
C89 C 0.47906 0.86926 0.83454 0.0
C90 C 0.53805 0.8653 0.7884 0.0
C91 C 0.62689 0.86454 0.87473 0.0
C92 C 0.56933 0.86927 0.91942 0.0
N93 N 0.49648 0.87096 0.89922 0.0
N94 N 0.61001 0.86281 0.81063 0.0
H95 H 0.42112 0.87191 0.81962 0.0
C96 C 0.71682 0.89401 0.0739 0.0
O97 O 0.67791 0.90701 0.03162 0.0
O98 O 0.31593 0.87497 0.96028 0.0
H99 H 0.58296 0.87225 0.97005 0.0
H100 H 0.3269 0.902 0.22165 0.0
H101 H 0.68489 0.86292 0.89062 0.0
Zn102 Zn 0.57288 0.1593 0.89722 0.0
C103 C 0.43825 0.21722 0.94904 0.0
N104 N 0.48542 0.22979 0.9095 0.0
C105 C 0.54246 0.21333 0.89914 0.0
N106 N 0.52877 0.19105 0.92901 0.0
N107 N 0.46491 0.19364 0.96254 0.0
C108 C 0.28802 0.16844 0.98851 0.0
O109 O 0.32929 0.16359 0.93626 0.0
O110 O 0.68759 0.1623 0.88886 0.0
Zn111 Zn 0.43675 0.1724 0.0363 0.0
N112 N 0.51915 0.15029 0.81668 0.0
C113 C 0.40785 0.12878 0.78042 0.0
C114 C 0.45581 0.13659 0.83019 0.0
C115 C 0.53559 0.15711 0.75423 0.0
N116 N 0.42393 0.13542 0.71864 0.0
C117 C 0.486 0.1495 0.70321 0.0
O118 O 0.46575 0.13463 0.02935 0.0
C119 C 0.51178 0.12023 0.99777 0.0
O120 O 0.55316 0.1287 0.95232 0.0
H121 H 0.44163 0.13202 0.87974 0.0
H122 H 0.58486 0.16875 0.74509 0.0
C123 C 0.48108 0.17808 0.17487 0.0
C124 C 0.52546 0.18872 0.22594 0.0
C125 C 0.58402 0.21624 0.15037 0.0
C126 C 0.54048 0.20572 0.10043 0.0
N127 N 0.48974 0.18686 0.11308 0.0
N128 N 0.57567 0.20751 0.21155 0.0
H129 H 0.44171 0.16269 0.18349 0.0
C130 C 0.72284 0.15898 0.9421 0.0
O131 O 0.68338 0.15413 0.99485 0.0
O132 O 0.32145 0.17287 0.04253 0.0
H133 H 0.54788 0.21261 0.05178 0.0
H134 H 0.35753 0.11781 0.79082 0.0
H135 H 0.62456 0.23118 0.14057 0.0
H136 H 0.9643 0.4577 0.92656 0.0
H137 H 0.97602 0.59375 0.10693 0.0
H138 H 0.02884 0.46467 0.12874 0.0
H139 H 0.04503 0.58272 0.90613 0.0
H140 H 0.97085 0.54691 0.1177 0.0
H141 H 0.96782 0.50446 0.91956 0.0
C142 C 0.97878 0.46907 0.96952 0.0
C143 C 0.99681 0.45729 0.02817 0.0
C144 C 0.98735 0.5549 0.0715 0.0
C145 C 0.99965 0.51068 0.02077 0.0
C146 C 0.99021 0.58152 0.06532 0.0
C147 C 0.01167 0.59214 0.00577 0.0
C148 C 0.00385 0.53892 0.01722 0.0
C149 C 0.02916 0.5754 0.95322 0.0
C150 C 0.98106 0.49569 0.96543 0.0
C151 C 0.0153 0.47298 0.08239 0.0
N152 N 0.02414 0.54969 0.95999 0.0
N153 N 0.01574 0.49889 0.07755 0.0
H154 H 0.47552 0.09366 0.10843 0.0
H155 H 0.46253 0.95791 0.92652 0.0
H156 H 0.5431 0.08295 0.90718 0.0
H157 H 0.52865 0.9645 0.12838 0.0
H158 H 0.46573 1.00469 0.92013 0.0
H159 H 0.47027 0.0468 0.11869 0.0
C160 C 0.48936 0.0815 0.06661 0.0
C161 C 0.51047 0.09221 0.00708 0.0
C162 C 0.47937 0.99583 0.9658 0.0
C163 C 0.50255 0.03897 0.01796 0.0
C164 C 0.47726 0.96919 0.96955 0.0
C165 C 0.49585 0.95731 0.02791 0.0
C166 C 0.49835 1.01072 0.02121 0.0
C167 C 0.51466 0.9729 0.08223 0.0
C168 C 0.48646 0.05486 0.0725 0.0
C169 C 0.52752 0.07555 0.95426 0.0
N170 N 0.51495 0.99883 0.07774 0.0
N171 N 0.52247 0.04983 0.96076 0.0
H172 H 0.14445 0.37679 0.69834 0.0
H173 H 0.86927 0.36218 0.39304 0.0
H174 H 0.9091 0.35555 0.71517 0.0
H175 H 0.10234 0.38607 0.37872 0.0
H176 H 0.88537 0.35638 0.50958 0.0
H177 H 0.13161 0.37739 0.58083 0.0
C178 C 0.08983 0.37219 0.67752 0.0
C179 C 0.02758 0.36627 0.71741 0.0
C180 C 0.9332 0.36267 0.48094 0.0
C181 C 0.01272 0.36702 0.58153 0.0
C182 C 0.9242 0.36598 0.41427 0.0
C183 C 0.98452 0.37473 0.37583 0.0
C184 C 0.00302 0.36826 0.50986 0.0
C185 C 0.05444 0.37907 0.40605 0.0
C186 C 0.0827 0.37259 0.61008 0.0
C187 C 0.95841 0.36067 0.68696 0.0
N188 N 0.06155 0.37599 0.47142 0.0
N189 N 0.95288 0.36122 0.62079 0.0
H190 H 0.9031 0.6686 0.29026 0.0
H191 H 0.1189 0.66325 0.63325 0.0
H192 H 0.1365 0.69087 0.31511 0.0
H193 H 0.87918 0.6506 0.6083 0.0
H194 H 0.12913 0.6718 0.51651 0.0
H195 H 0.89668 0.65889 0.40603 0.0
C196 C 0.95337 0.67108 0.31959 0.0
C197 C 0.02055 0.68049 0.29248 0.0
C198 C 0.07434 0.6672 0.53692 0.0
C199 C 0.01313 0.66987 0.42587 0.0
C200 C 0.06832 0.66253 0.60384 0.0
C201 C 0.998 0.65618 0.63132 0.0
C202 C 0.00976 0.66542 0.49721 0.0
C203 C 0.93487 0.65514 0.58977 0.0
C204 C 0.94947 0.66578 0.38605 0.0
C205 C 0.08329 0.6838 0.3338 0.0
N206 N 0.94233 0.65962 0.52521 0.0
N207 N 0.07806 0.67854 0.39826 0.0
H208 H 0.40885 0.85381 0.71616 0.0
H209 H 0.60888 0.88482 0.37536 0.0
H210 H 0.64285 0.87632 0.69595 0.0
H211 H 0.37524 0.86196 0.3938 0.0
H212 H 0.62498 0.87837 0.49212 0.0
H213 H 0.3967 0.85445 0.5975 0.0
C214 C 0.45748 0.85908 0.6872 0.0
C215 C 0.52679 0.86529 0.71663 0.0
C216 C 0.57036 0.87453 0.47041 0.0
C217 C 0.51355 0.86559 0.58054 0.0
C218 C 0.56139 0.87798 0.40351 0.0
C219 C 0.49053 0.87402 0.37462 0.0
C220 C 0.50804 0.86715 0.50861 0.0
C221 C 0.43071 0.86556 0.4141 0.0
C222 C 0.4507 0.8592 0.61926 0.0
C223 C 0.58822 0.87131 0.67585 0.0
N224 N 0.44066 0.86259 0.47901 0.0
N225 N 0.58006 0.8714 0.6102 0.0
H226 H 0.61727 0.163 0.6356 0.0
H227 H 0.40236 0.16909 0.29241 0.0
H228 H 0.37716 0.1513 0.61047 0.0
H229 H 0.63654 0.19034 0.31748 0.0
H230 H 0.39532 0.15945 0.40819 0.0
H231 H 0.62802 0.17141 0.51886 0.0
C232 C 0.56672 0.16246 0.60615 0.0
C233 C 0.49612 0.15643 0.63358 0.0
C234 C 0.44841 0.1661 0.38826 0.0
C235 C 0.50847 0.16552 0.49947 0.0
C236 C 0.45266 0.17135 0.32179 0.0
C237 C 0.52026 0.18046 0.29475 0.0
C238 C 0.51215 0.16993 0.42814 0.0
C239 C 0.58304 0.18351 0.33614 0.0
C240 C 0.57303 0.16706 0.53923 0.0
C241 C 0.43304 0.1556 0.59198 0.0
N242 N 0.57746 0.1783 0.4006 0.0
N243 N 0.44077 0.16 0.5274 0.0
H244 H 0.68373 0.43046 0.01132 0.0
H245 H 0.31383 0.35497 0.11267 0.0
H246 H 0.68095 0.3481 0.99913 0.0
H247 H 0.30758 0.4281 0.01999 0.0
H248 H 0.45073 0.35239 0.08863 0.0
H249 H 0.54739 0.43043 0.03052 0.0
C250 C 0.654 0.41235 0.01191 0.0
C251 C 0.69328 0.38929 1.00282 0.0
C252 C 0.419 0.36894 0.07374 0.0
C253 C 0.53734 0.38904 0.02705 0.0
C254 C 0.34129 0.37054 0.08798 0.0
C255 C 0.29937 0.39182 0.06842 0.0
C256 C 0.45484 0.38905 0.0413 0.0
C257 C 0.33757 0.41135 0.03596 0.0
C258 C 0.57627 0.41233 0.02307 0.0
C259 C 0.65225 0.36631 0.00484 0.0
N260 N 0.41292 0.40958 0.02394 0.0
N261 N 0.57633 0.36672 0.01759 0.0
H262 H 0.70717 0.66321 0.87266 0.0
H263 H 0.3062 0.6616 0.05356 0.0
H264 H 0.6808 0.67343 0.08095 0.0
H265 H 0.33047 0.6634 0.84425 0.0
H266 H 0.44288 0.66533 0.06433 0.0
H267 H 0.57003 0.66264 0.86138 0.0
C268 C 0.67257 0.66536 0.91617 0.0
C269 C 0.7058 0.66823 0.97801 0.0
C270 C 0.41849 0.66498 0.01601 0.0
C271 C 0.54794 0.66753 0.96519 0.0
C272 C 0.34026 0.66276 0.00969 0.0
C273 C 0.30661 0.66198 0.94776 0.0
C274 C 0.46405 0.66625 0.96 0.0
C275 C 0.35389 0.66382 0.89291 0.0
C276 C 0.59408 0.66509 0.90956 0.0
C277 C 0.65779 0.67107 0.03239 0.0
N278 N 0.43023 0.66572 0.9003 0.0
N279 N 0.58133 0.67051 0.02473 0.0
H280 H 0.18231 0.84715 0.98988 0.0
H281 H 0.80739 0.93018 0.02316 0.0
H282 H 0.1839 0.92895 0.02077 0.0
H283 H 0.81532 0.85501 0.10483 0.0
H284 H 0.94281 0.92771 1.00105 0.0
H285 H 0.04424 0.84718 0.01014 0.0
C286 C 0.15338 0.86509 0.99968 0.0
C287 C 0.19412 0.88813 1.00326 0.0
C288 C 0.91508 0.91176 0.02397 0.0
C289 C 0.03785 0.88828 0.02631 0.0
C290 C 0.8378 0.91315 0.03671 0.0
C291 C 0.80009 0.89284 0.06627 0.0
C292 C 0.9553 0.88964 0.03946 0.0
C293 C 0.84245 0.87119 0.08253 0.0
C294 C 0.07514 0.86506 0.012 0.0
C295 C 0.1545 0.91081 0.01738 0.0
N296 N 0.91795 0.87002 0.06833 0.0
N297 N 0.07872 0.91033 0.02792 0.0
H298 H 0.18166 0.17384 0.08654 0.0
H299 H 0.82739 0.16483 0.84332 0.0
H300 H 0.20362 0.16407 0.87776 0.0
H301 H 0.80805 0.1603 0.05258 0.0
H302 H 0.965 0.16878 0.85465 0.0
H303 H 0.04374 0.17314 0.07485 0.0
C304 C 0.15758 0.1716 0.0383 0.0
C305 C 0.20439 0.16882 0.98317 0.0
C306 C 0.9305 0.16694 0.89805 0.0
C307 C 0.04666 0.16813 0.9693 0.0
C308 C 0.85197 0.1647 0.89156 0.0
C309 C 0.80607 0.162 0.94697 0.0
C310 C 0.96329 0.16667 0.96041 0.0
C311 C 0.84109 0.1621 0.00836 0.0
C312 C 0.07885 0.17118 0.03161 0.0
C313 C 0.1699 0.16611 0.92177 0.0
N314 N 0.91737 0.16438 0.0134 0.0
N315 N 0.09334 0.16581 0.91652 0.0
H316 H 0.38293 0.21485 0.07667 0.0
H317 H 0.16321 0.34511 0.03207 0.0
H318 H 0.3536 0.25334 0.89508 0.0
H319 H 0.07705 0.29058 0.16812 0.0
H320 H 0.26799 0.31668 0.0067 0.0
H321 H 0.29501 0.24529 0.1293 0.0
C322 C 0.35692 0.22914 0.04744 0.0
C323 C 0.37504 0.23121 0.98104 0.0
C324 C 0.22738 0.31123 0.04361 0.0
C325 C 0.27893 0.26701 0.04174 0.0
C326 C 0.16844 0.32784 0.0595 0.0
C327 C 0.11151 0.32039 0.10281 0.0
C328 C 0.22918 0.28689 0.07079 0.0
C329 C 0.12012 0.29704 0.13461 0.0
C330 C 0.30774 0.24679 0.07783 0.0
C331 C 0.34122 0.25092 0.94633 0.0
N332 N 0.17718 0.28078 0.11705 0.0
N333 N 0.29563 0.26815 0.97714 0.0
H334 H 0.66388 0.8451 0.0295 0.0
H335 H 0.88253 0.71447 0.0733 0.0
H336 H 0.5787 0.79048 0.16582 0.0
H337 H 0.85565 0.75348 0.89215 0.0
H338 H 0.79477 0.74495 0.1258 0.0
H339 H 0.76836 0.81661 0.00331 0.0
C340 C 0.66926 0.82778 0.05675 0.0
C341 C 0.61268 0.82031 0.10037 0.0
C342 C 0.80801 0.74657 0.07445 0.0
C343 C 0.73005 0.78681 0.06758 0.0
C344 C 0.85711 0.72889 0.04411 0.0
C345 C 0.87591 0.73109 0.9779 0.0
C346 C 0.77986 0.76694 0.03851 0.0
C347 C 0.84277 0.75095 0.94328 0.0
C348 C 0.72803 0.81115 0.04042 0.0
C349 C 0.6215 0.79695 0.13206 0.0
N350 N 0.79718 0.76821 0.97405 0.0
N351 N 0.67842 0.78069 0.11415 0.0
H352 H 0.39715 0.82935 0.91419 0.0
H353 H 0.16083 0.70439 0.97641 0.0
H354 H 0.32455 0.80239 0.10124 0.0
H355 H 0.09423 0.74992 0.81417 0.0
H356 H 0.26049 0.73461 1.00142 0.0
H357 H 0.31174 0.79788 0.86073 0.0
C358 C 0.36117 0.81753 0.94384 0.0
C359 C 0.36667 0.81859 0.01213 0.0
C360 C 0.22579 0.7376 0.95889 0.0
C361 C 0.27429 0.78193 0.95206 0.0
C362 C 0.1704 0.71975 0.94306 0.0
C363 C 0.12024 0.72412 0.89193 0.0
C364 C 0.23037 0.76034 0.92425 0.0
C365 C 0.13245 0.74572 0.85356 0.0
C366 C 0.31376 0.79935 0.91344 0.0
C367 C 0.32126 0.80226 0.04851 0.0
N368 N 0.18549 0.76345 0.87129 0.0
N369 N 0.27793 0.78439 0.01809 0.0
H370 H 0.66082 0.20433 0.97725 0.0
H371 H 0.89616 0.32952 0.91547 0.0
H372 H 0.59192 0.25029 0.81653 0.0
H373 H 0.82414 0.30224 0.10239 0.0
H374 H 0.81079 0.29806 0.86188 0.0
H375 H 0.76093 0.23447 1.00164 0.0
C376 C 0.66993 0.21977 0.94407 0.0
C377 C 0.61899 0.2243 0.89363 0.0
C378 C 0.81296 0.29946 0.91459 0.0
C379 C 0.72969 0.2604 0.92525 0.0
C380 C 0.86034 0.31763 0.94508 0.0
C381 C 0.866 0.3186 0.01335 0.0
C382 C 0.77369 0.28196 0.95313 0.0
C383 C 0.82076 0.30219 0.04966 0.0
C384 C 0.72561 0.23757 0.95954 0.0
C385 C 0.63071 0.24598 0.85543 0.0
N386 N 0.77747 0.28433 0.01917 0.0
N387 N 0.68404 0.26366 0.87285 0.0
loop_
_geom_bond_atom_site_label_1
_geom_bond_atom_site_label_2
_geom_bond_distance
_geom_bond_site_symmetry_2
_ccdc_geom_bond_type
Zn0 N4 2.020 . S
Zn0 O8 2.019 . S
Zn0 N10 2.119 . S
Zn0 O18 1.975 . S
C1 N2 1.334 1_656 S
C1 N5 1.336 . S
N2 C1 1.334 1_454 S
N2 C3 1.334 . S
C3 N2 1.334 . S
C3 N4 1.336 . S
N4 Zn0 2.020 . S
N4 C3 1.336 . S
N4 N5 1.354 1_454 S
N5 C1 1.336 . S
N5 N4 1.354 1_656 S
N5 Zn9 2.020 . S
C6 O7 1.244 1_556 S
C6 O30 1.257 . S
O7 C6 1.244 1_554 S
O8 Zn0 2.019 . S
O8 C28 1.257 . S
Zn9 N5 2.020 . S
Zn9 O16 1.975 . S
Zn9 N25 2.119 . S
Zn9 O30 2.019 . S
N10 Zn0 2.119 . S
N10 C12 1.334 1_455 S
N10 C13 1.328 . S
C11 C12 1.391 . S
C11 N14 1.323 1_655 S
C11 H32 0.930 . S
C12 N10 1.334 1_655 S
C12 C11 1.391 . S
C12 H19 0.930 . S
C13 N10 1.328 . S
C13 C15 1.392 . S
C13 H20 0.930 . S
N14 C11 1.323 1_455 S
N14 C15 1.339 . S
C15 C13 1.392 . S
C15 N14 1.339 . S
O16 Zn9 1.975 . S
O16 C17 1.252 1_656 S
C17 O16 1.252 1_454 S
C17 O18 1.252 . S
O18 Zn0 1.975 . S
O18 C17 1.252 . S
H19 C12 0.930 . S
H20 C13 0.930 . S
C21 C22 1.392 . S
C21 N25 1.328 . S
C21 H27 0.930 . S
C22 C21 1.392 . S
C22 N26 1.336 . S
C23 C24 1.391 . S
C23 N26 1.326 1_455 S
C23 H33 0.930 . S
C24 C23 1.391 . S
C24 N25 1.334 1_455 S
C24 H31 0.930 . S
N25 Zn9 2.119 . S
N25 C21 1.328 . S
N25 C24 1.334 1_655 S
N26 C22 1.336 . S
N26 C23 1.326 1_655 S
H27 C21 0.930 . S
C28 O8 1.257 . S
C28 O29 1.244 1_554 S
O29 C28 1.244 1_556 S
O30 C6 1.257 . S
O30 Zn9 2.019 . S
H31 C24 0.930 . S
H32 C11 0.930 . S
H33 C23 0.930 . S
Zn34 N38 2.020 . S
Zn34 O42 2.019 . S
Zn34 N44 2.119 . S
Zn34 O52 1.975 . S
C35 N36 1.334 1_655 S
C35 N39 1.336 . S
N36 C35 1.334 1_455 S
N36 C37 1.334 1_554 S
C37 N36 1.334 1_556 S
C37 N38 1.336 . S
N38 Zn34 2.020 . S
N38 C37 1.336 . S
N38 N39 1.354 1_456 S
N39 C35 1.336 . S
N39 N38 1.354 1_654 S
N39 Zn43 2.020 . S
C40 O41 1.244 1_554 S
C40 O64 1.257 . S
O41 C40 1.244 1_556 S
O42 Zn34 2.019 . S
O42 C62 1.257 . S
Zn43 N39 2.020 . S
Zn43 O50 1.975 . S
Zn43 N59 2.119 . S
Zn43 O64 2.019 . S
N44 Zn34 2.119 . S
N44 C46 1.334 1_455 S
N44 C47 1.328 . S
C45 C46 1.391 . S
C45 N48 1.323 1_655 S
C45 H66 0.930 . S
C46 N44 1.334 1_655 S
C46 C45 1.391 . S
C46 H53 0.930 . S
C47 N44 1.328 . S
C47 C49 1.392 . S
C47 H54 0.930 . S
N48 C45 1.323 1_455 S
N48 C49 1.339 . S
C49 C47 1.392 . S
C49 N48 1.339 . S
O50 Zn43 1.975 . S
O50 C51 1.252 1_655 S
C51 O50 1.252 1_455 S
C51 O52 1.252 1_554 S
O52 Zn34 1.975 . S
O52 C51 1.252 1_556 S
H53 C46 0.930 . S
H54 C47 0.930 . S
C55 C56 1.392 . S
C55 N59 1.328 . S
C55 H61 0.930 . S
C56 C55 1.392 . S
C56 N60 1.336 . S
C57 C58 1.391 . S
C57 N60 1.326 1_455 S
C57 H67 0.930 . S
C58 C57 1.391 . S
C58 N59 1.334 1_455 S
C58 H65 0.930 . S
N59 Zn43 2.119 . S
N59 C55 1.328 . S
N59 C58 1.334 1_655 S
N60 C56 1.336 . S
N60 C57 1.326 1_655 S
H61 C55 0.930 . S
C62 O42 1.257 . S
C62 O63 1.244 1_556 S
O63 C62 1.244 1_554 S
O64 C40 1.257 . S
O64 Zn43 2.019 . S
H65 C58 0.930 . S
H66 C45 0.930 . S
H67 C57 0.930 . S
Zn68 N72 2.020 . S
Zn68 O76 2.019 . S
Zn68 N78 2.119 . S
Zn68 O86 1.975 . S
C69 N70 1.334 1_556 S
C69 N73 1.336 . S
N70 C69 1.334 1_554 S
N70 C71 1.334 . S
C71 N70 1.334 . S
C71 N72 1.336 . S
N72 Zn68 2.020 . S
N72 C71 1.336 . S
N72 N73 1.354 1_554 S
N73 C69 1.336 . S
N73 N72 1.354 1_556 S
N73 Zn77 2.020 . S
C74 O75 1.244 1_556 S
C74 O98 1.257 . S
O75 C74 1.244 1_554 S
O76 Zn68 2.019 . S
O76 C96 1.257 . S
Zn77 N73 2.020 . S
Zn77 O84 1.975 . S
Zn77 N93 2.119 . S
Zn77 O98 2.019 . S
N78 Zn68 2.119 . S
N78 C80 1.334 . S
N78 C81 1.328 . S
C79 C80 1.391 . S
C79 N82 1.329 . S
C79 H100 0.930 . S
C80 N78 1.334 . S
C80 C79 1.391 . S
C80 H87 0.930 . S
C81 N78 1.328 . S
C81 C83 1.392 . S
C81 H88 0.930 . S
N82 C79 1.329 . S
N82 C83 1.331 . S
C83 C81 1.392 . S
C83 N82 1.331 . S
O84 Zn77 1.975 . S
O84 C85 1.252 1_556 S
C85 O84 1.252 1_554 S
C85 O86 1.252 . S
O86 Zn68 1.975 . S
O86 C85 1.252 . S
H87 C80 0.930 . S
H88 C81 0.930 . S
C89 C90 1.392 . S
C89 N93 1.328 . S
C89 H95 0.930 . S
C90 C89 1.392 . S
C90 N94 1.331 . S
C91 C92 1.391 . S
C91 N94 1.329 . S
C91 H101 0.930 . S
C92 C91 1.391 . S
C92 N93 1.334 . S
C92 H99 0.930 . S
N93 Zn77 2.119 . S
N93 C89 1.328 . S
N93 C92 1.334 . S
N94 C90 1.331 . S
N94 C91 1.329 . S
H95 C89 0.930 . S
C96 O76 1.257 . S
C96 O97 1.244 1_554 S
O97 C96 1.244 1_556 S
O98 C74 1.257 . S
O98 Zn77 2.019 . S
H99 C92 0.930 . S
H100 C79 0.930 . S
H101 C91 0.930 . S
Zn102 N106 2.020 . S
Zn102 O110 2.019 . S
Zn102 N112 2.119 . S
Zn102 O120 1.975 . S
C103 N104 1.334 . S
C103 N107 1.336 . S
N104 C103 1.334 . S
N104 C105 1.334 1_554 S
C105 N104 1.334 1_556 S
C105 N106 1.336 . S
N106 Zn102 2.020 . S
N106 C105 1.336 . S
N106 N107 1.354 1_556 S
N107 C103 1.336 . S
N107 N106 1.354 1_554 S
N107 Zn111 2.020 . S
C108 O109 1.244 1_554 S
C108 O132 1.257 . S
O109 C108 1.244 1_556 S
O110 Zn102 2.019 . S
O110 C130 1.257 . S
Zn111 N107 2.020 . S
Zn111 O118 1.975 . S
Zn111 N127 2.119 . S
Zn111 O132 2.019 . S
N112 Zn102 2.119 . S
N112 C114 1.334 . S
N112 C115 1.328 . S
C113 C114 1.391 . S
C113 N116 1.329 . S
C113 H134 0.930 . S
C114 N112 1.334 . S
C114 C113 1.391 . S
C114 H121 0.930 . S
C115 N112 1.328 . S
C115 C117 1.392 . S
C115 H122 0.930 . S
N116 C113 1.329 . S
N116 C117 1.331 . S
C117 C115 1.392 . S
C117 N116 1.331 . S
O118 Zn111 1.975 . S
O118 C119 1.252 . S
C119 O118 1.252 . S
C119 O120 1.252 1_554 S
O120 Zn102 1.975 . S
O120 C119 1.252 1_556 S
H121 C114 0.930 . S
H122 C115 0.930 . S
C123 C124 1.392 . S
C123 N127 1.328 . S
C123 H129 0.930 . S
C124 C123 1.392 . S
C124 N128 1.331 . S
C125 C126 1.391 . S
C125 N128 1.329 . S
C125 H135 0.930 . S
C126 C125 1.391 . S
C126 N127 1.334 . S
C126 H133 0.930 . S
N127 Zn111 2.119 . S
N127 C123 1.328 . S
N127 C126 1.334 . S
N128 C124 1.331 . S
N128 C125 1.329 . S
H129 C123 0.930 . S
C130 O110 1.257 . S
C130 O131 1.244 1_556 S
O131 C130 1.244 1_554 S
O132 C108 1.257 . S
O132 Zn111 2.019 . S
H133 C126 0.930 . S
H134 C113 0.930 . S
H135 C125 0.930 . S
H136 C142 0.930 . S
H137 C146 0.930 . S
H138 C151 0.929 . S
H139 C149 0.929 . S
H140 C144 0.929 . S
H141 C150 0.929 . S
C142 H136 0.930 . S
C142 C143 1.368 . S
C142 C150 1.378 . S
C143 C142 1.368 . S
C143 C151 1.432 1_656 S
C144 H140 0.929 . S
C144 C146 1.378 . S
C144 C148 1.353 . S
C145 C148 1.462 1_656 S
C145 C150 1.352 . S
C145 N153 1.425 1_656 S
C146 H137 0.930 . S
C146 C144 1.378 . S
C146 C147 1.369 . S
C147 C146 1.369 . S
C147 C149 1.431 1_454 S
C148 C144 1.353 . S
C148 C145 1.462 1_454 S
C148 N152 1.424 1_454 S
C149 H139 0.929 . S
C149 C147 1.431 1_656 S
C149 N152 1.384 . S
C150 H141 0.929 . S
C150 C142 1.378 . S
C150 C145 1.352 . S
C151 H138 0.929 . S
C151 C143 1.432 1_454 S
C151 N153 1.384 . S
N152 C148 1.424 1_656 S
N152 C149 1.384 . S
N153 C145 1.425 1_454 S
N153 C151 1.384 . S
H154 C160 0.930 . S
H155 C164 0.930 . S
H156 C169 0.929 . S
H157 C167 0.929 . S
H158 C162 0.929 . S
H159 C168 0.929 . S
C160 H154 0.930 . S
C160 C161 1.367 . S
C160 C168 1.378 . S
C161 C160 1.367 . S
C161 C169 1.433 1_554 S
C162 H158 0.929 . S
C162 C164 1.378 . S
C162 C166 1.350 . S
C163 C166 1.463 1_544 S
C163 C168 1.350 . S
C163 N171 1.427 1_554 S
C164 H155 0.930 . S
C164 C162 1.378 . S
C164 C165 1.367 . S
C165 C164 1.367 . S
C165 C167 1.433 1_556 S
C166 C162 1.350 . S
C166 C163 1.463 1_566 S
C166 N170 1.427 1_556 S
C167 H157 0.929 . S
C167 C165 1.433 1_554 S
C167 N170 1.384 . S
C168 H159 0.929 . S
C168 C160 1.378 . S
C168 C163 1.350 . S
C169 H156 0.929 . S
C169 C161 1.433 1_556 S
C169 N171 1.384 . S
N170 C166 1.427 1_554 S
N170 C167 1.384 . S
N171 C163 1.427 1_556 S
N171 C169 1.384 . S
H172 C178 0.930 1_455 S
H173 C182 0.930 1_655 S
H174 C187 0.929 . S
H175 C185 0.929 . S
H176 C180 0.929 . S
H177 C186 0.929 . S
C178 H172 0.930 1_655 S
C178 C179 1.367 . S
C178 C186 1.378 1_655 S
C179 C178 1.367 . S
C179 C187 1.433 . S
C180 H176 0.929 . S
C180 C182 1.378 1_655 S
C180 C184 1.350 1_655 S
C181 C184 1.463 1_655 S
C181 C186 1.350 1_655 S
C181 N189 1.427 . S
C182 H173 0.930 1_455 S
C182 C180 1.378 1_455 S
C182 C183 1.367 . S
C183 C182 1.367 . S
C183 C185 1.433 . S
C184 C180 1.350 1_455 S
C184 C181 1.463 1_455 S
C184 N188 1.427 . S
C185 H175 0.929 . S
C185 C183 1.433 . S
C185 N188 1.384 . S
C186 H177 0.929 . S
C186 C178 1.378 1_455 S
C186 C181 1.350 1_455 S
C187 H174 0.929 . S
C187 C179 1.433 . S
C187 N189 1.384 . S
N188 C184 1.427 . S
N188 C185 1.384 . S
N189 C181 1.427 . S
N189 C187 1.384 . S
H190 C196 0.930 . S
H191 C200 0.930 . S
H192 C205 0.929 1_455 S
H193 C203 0.929 1_655 S
H194 C198 0.929 . S
H195 C204 0.929 . S
C196 H190 0.930 . S
C196 C197 1.367 . S
C196 C204 1.378 . S
C197 C196 1.367 . S
C197 C205 1.433 . S
C198 H194 0.929 . S
C198 C200 1.378 . S
C198 C202 1.350 . S
C199 C202 1.463 1_655 S
C199 C204 1.350 . S
C199 N207 1.427 1_655 S
C200 H191 0.930 . S
C200 C198 1.378 . S
C200 C201 1.367 . S
C201 C200 1.367 . S
C201 C203 1.433 . S
C202 C198 1.350 . S
C202 C199 1.463 1_455 S
C202 N206 1.427 1_455 S
C203 H193 0.929 1_455 S
C203 C201 1.433 . S
C203 N206 1.384 1_455 S
C204 H195 0.929 . S
C204 C196 1.378 . S
C204 C199 1.350 . S
C205 H192 0.929 1_655 S
C205 C197 1.433 . S
C205 N207 1.384 1_655 S
N206 C202 1.427 1_655 S
N206 C203 1.384 1_655 S
N207 C199 1.427 1_455 S
N207 C205 1.384 1_455 S
H208 C214 0.930 . S
H209 C218 0.930 . S
H210 C223 0.929 . S
H211 C221 0.929 . S
H212 C216 0.929 . S
H213 C222 0.929 . S
C214 H208 0.930 . S
C214 C215 1.367 . S
C214 C222 1.378 . S
C215 C214 1.367 . S
C215 C223 1.433 . S
C216 H212 0.929 . S
C216 C218 1.378 . S
C216 C220 1.350 . S
C217 C220 1.463 . S
C217 C222 1.350 . S
C217 N225 1.427 . S
C218 H209 0.930 . S
C218 C216 1.378 . S
C218 C219 1.367 . S
C219 C218 1.367 . S
C219 C221 1.433 . S
C220 C216 1.350 . S
C220 C217 1.463 . S
C220 N224 1.427 . S
C221 H211 0.929 . S
C221 C219 1.433 . S
C221 N224 1.384 . S
C222 H213 0.929 . S
C222 C214 1.378 . S
C222 C217 1.350 . S
C223 H210 0.929 . S
C223 C215 1.433 . S
C223 N225 1.384 . S
N224 C220 1.427 . S
N224 C221 1.384 . S
N225 C217 1.427 . S
N225 C223 1.384 . S
H226 C232 0.930 . S
H227 C236 0.930 . S
H228 C241 0.929 . S
H229 C239 0.929 . S
H230 C234 0.929 . S
H231 C240 0.929 . S
C232 H226 0.930 . S
C232 C233 1.367 . S
C232 C240 1.378 . S
C233 C232 1.367 . S
C233 C241 1.433 . S
C234 H230 0.929 . S
C234 C236 1.378 . S
C234 C238 1.350 . S
C235 C238 1.463 . S
C235 C240 1.350 . S
C235 N243 1.427 . S
C236 H227 0.930 . S
C236 C234 1.378 . S
C236 C237 1.367 . S
C237 C236 1.367 . S
C237 C239 1.433 . S
C238 C234 1.350 . S
C238 C235 1.463 . S
C238 N242 1.427 . S
C239 H229 0.929 . S
C239 C237 1.433 . S
C239 N242 1.384 . S
C240 H231 0.929 . S
C240 C232 1.378 . S
C240 C235 1.350 . S
C241 H228 0.929 . S
C241 C233 1.433 . S
C241 N243 1.384 . S
N242 C238 1.427 . S
N242 C239 1.384 . S
N243 C235 1.427 . S
N243 C241 1.384 . S
H244 C250 0.930 . S
H245 C254 0.930 . S
H246 C259 0.929 . S
H247 C257 0.929 . S
H248 C252 0.929 . S
H249 C258 0.929 . S
C250 H244 0.930 . S
C250 C251 1.367 . S
C250 C258 1.378 . S
C251 C250 1.367 . S
C251 C259 1.433 . S
C252 H248 0.929 . S
C252 C254 1.378 . S
C252 C256 1.350 . S
C253 C256 1.463 1_556 S
C253 C258 1.350 . S
C253 N261 1.427 . S
C254 H245 0.930 . S
C254 C252 1.378 . S
C254 C255 1.367 . S
C255 C254 1.367 . S
C255 C257 1.433 . S
C256 C252 1.350 . S
C256 C253 1.463 1_554 S
C256 N260 1.427 . S
C257 H247 0.929 . S
C257 C255 1.433 . S
C257 N260 1.384 . S
C258 H249 0.929 . S
C258 C250 1.378 . S
C258 C253 1.350 . S
C259 H246 0.929 . S
C259 C251 1.433 . S
C259 N261 1.384 . S
N260 C256 1.427 . S
N260 C257 1.384 . S
N261 C253 1.427 . S
N261 C259 1.384 . S
H262 C268 0.930 . S
H263 C272 0.930 . S
H264 C277 0.929 . S
H265 C275 0.929 . S
H266 C270 0.929 . S
H267 C276 0.929 . S
C268 H262 0.930 . S
C268 C269 1.367 1_556 S
C268 C276 1.378 . S
C269 C268 1.367 1_554 S
C269 C277 1.433 . S
C270 H266 0.929 . S
C270 C272 1.378 . S
C270 C274 1.350 1_554 S
C271 C274 1.463 1_554 S
C271 C276 1.350 1_554 S
C271 N279 1.427 . S
C272 H263 0.930 . S
C272 C270 1.378 . S
C272 C273 1.367 1_554 S
C273 C272 1.367 1_556 S
C273 C275 1.433 . S
C274 C270 1.350 1_556 S
C274 C271 1.463 1_556 S
C274 N278 1.427 . S
C275 H265 0.929 . S
C275 C273 1.433 . S
C275 N278 1.384 . S
C276 H267 0.929 . S
C276 C268 1.378 . S
C276 C271 1.350 1_556 S
C277 H264 0.929 . S
C277 C269 1.433 . S
C277 N279 1.384 . S
N278 C274 1.427 . S
N278 C275 1.384 . S
N279 C271 1.427 . S
N279 C277 1.384 . S
H280 C286 0.930 . S
H281 C290 0.930 . S
H282 C295 0.929 . S
H283 C293 0.929 . S
H284 C288 0.929 1_556 S
H285 C294 0.929 1_554 S
C286 H280 0.930 . S
C286 C287 1.367 . S
C286 C294 1.378 . S
C287 C286 1.367 . S
C287 C295 1.433 . S
C288 H284 0.929 1_554 S
C288 C290 1.378 . S
C288 C292 1.350 . S
C289 C292 1.463 1_456 S
C289 C294 1.350 . S
C289 N297 1.427 . S
C290 H281 0.930 . S
C290 C288 1.378 . S
C290 C291 1.367 . S
C291 C290 1.367 . S
C291 C293 1.433 . S
C292 C288 1.350 . S
C292 C289 1.463 1_654 S
C292 N296 1.427 . S
C293 H283 0.929 . S
C293 C291 1.433 . S
C293 N296 1.384 . S
C294 H285 0.929 1_556 S
C294 C286 1.378 . S
C294 C289 1.350 . S
C295 H282 0.929 . S
C295 C287 1.433 . S
C295 N297 1.384 . S
N296 C292 1.427 . S
N296 C293 1.384 . S
N297 C289 1.427 . S
N297 C295 1.384 . S
H298 C304 0.930 . S
H299 C308 0.930 . S
H300 C313 0.929 . S
H301 C311 0.929 . S
H302 C306 0.929 . S
H303 C312 0.929 . S
C304 H298 0.930 . S
C304 C305 1.367 . S
C304 C312 1.378 . S
C305 C304 1.367 . S
C305 C313 1.433 1_554 S
C306 H302 0.929 . S
C306 C308 1.378 . S
C306 C310 1.350 . S
C307 C310 1.463 1_454 S
C307 C312 1.350 . S
C307 N315 1.427 1_554 S
C308 H299 0.930 . S
C308 C306 1.378 . S
C308 C309 1.367 . S
C309 C308 1.367 . S
C309 C311 1.433 1_556 S
C310 C306 1.350 . S
C310 C307 1.463 1_656 S
C310 N314 1.427 1_556 S
C311 H301 0.929 . S
C311 C309 1.433 1_554 S
C311 N314 1.384 . S
C312 H303 0.929 . S
C312 C304 1.378 . S
C312 C307 1.350 . S
C313 H300 0.929 . S
C313 C305 1.433 1_556 S
C313 N315 1.384 . S
N314 C310 1.427 1_554 S
N314 C311 1.384 . S
N315 C307 1.427 1_556 S
N315 C313 1.384 . S
H316 C322 0.930 . S
H317 C326 0.930 1_556 S
H318 C331 0.929 1_556 S
H319 C329 0.929 . S
H320 C324 0.929 1_556 S
H321 C330 0.929 . S
C322 H316 0.930 . S
C322 C323 1.367 . S
C322 C330 1.378 . S
C323 C322 1.367 . S
C323 C331 1.433 . S
C324 H320 0.929 1_554 S
C324 C326 1.378 . S
C324 C328 1.350 . S
C325 C328 1.463 . S
C325 C330 1.350 . S
C325 N333 1.427 . S
C326 H317 0.930 1_554 S
C326 C324 1.378 . S
C326 C327 1.367 . S
C327 C326 1.367 . S
C327 C329 1.433 . S
C328 C324 1.350 . S
C328 C325 1.463 . S
C328 N332 1.427 . S
C329 H319 0.929 . S
C329 C327 1.433 . S
C329 N332 1.384 . S
C330 H321 0.929 . S
C330 C322 1.378 . S
C330 C325 1.350 . S
C331 H318 0.929 1_554 S
C331 C323 1.433 . S
C331 N333 1.384 . S
N332 C328 1.427 . S
N332 C329 1.384 . S
N333 C325 1.427 . S
N333 C331 1.384 . S
H334 C340 0.930 1_556 S
H335 C344 0.930 . S
H336 C349 0.929 . S
H337 C347 0.929 1_556 S
H338 C342 0.929 . S
H339 C348 0.929 1_556 S
C340 H334 0.930 1_554 S
C340 C341 1.367 . S
C340 C348 1.378 . S
C341 C340 1.367 . S
C341 C349 1.433 . S
C342 H338 0.929 . S
C342 C344 1.378 . S
C342 C346 1.350 . S
C343 C346 1.463 . S
C343 C348 1.350 . S
C343 N351 1.427 . S
C344 H335 0.930 . S
C344 C342 1.378 . S
C344 C345 1.367 . S
C345 C344 1.367 . S
C345 C347 1.433 . S
C346 C342 1.350 . S
C346 C343 1.463 . S
C346 N350 1.427 . S
C347 H337 0.929 1_554 S
C347 C345 1.433 . S
C347 N350 1.384 . S
C348 H339 0.929 1_554 S
C348 C340 1.378 . S
C348 C343 1.350 . S
C349 H336 0.929 . S
C349 C341 1.433 . S
C349 N351 1.384 . S
N350 C346 1.427 . S
N350 C347 1.384 . S
N351 C343 1.427 . S
N351 C349 1.384 . S
H352 C358 0.930 . S
H353 C362 0.930 1_554 S
H354 C367 0.929 1_554 S
H355 C365 0.929 . S
H356 C360 0.929 1_554 S
H357 C366 0.929 . S
C358 H352 0.930 . S
C358 C359 1.367 . S
C358 C366 1.378 . S
C359 C358 1.367 . S
C359 C367 1.433 . S
C360 H356 0.929 1_556 S
C360 C362 1.378 . S
C360 C364 1.350 . S
C361 C364 1.463 . S
C361 C366 1.350 . S
C361 N369 1.427 . S
C362 H353 0.930 1_556 S
C362 C360 1.378 . S
C362 C363 1.367 . S
C363 C362 1.367 . S
C363 C365 1.433 . S
C364 C360 1.350 . S
C364 C361 1.463 . S
C364 N368 1.427 . S
C365 H355 0.929 . S
C365 C363 1.433 . S
C365 N368 1.384 . S
C366 H357 0.929 . S
C366 C358 1.378 . S
C366 C361 1.350 . S
C367 H354 0.929 1_556 S
C367 C359 1.433 . S
C367 N369 1.384 . S
N368 C364 1.427 . S
N368 C365 1.384 . S
N369 C361 1.427 . S
N369 C367 1.384 . S
H370 C376 0.930 . S
H371 C380 0.930 . S
H372 C385 0.929 . S
H373 C383 0.929 . S
H374 C378 0.929 . S
H375 C384 0.929 . S
C376 H370 0.930 . S
C376 C377 1.367 1_554 S
C376 C384 1.378 . S
C377 C376 1.367 1_556 S
C377 C385 1.433 . S
C378 H374 0.929 . S
C378 C380 1.378 . S
C378 C382 1.350 . S
C379 C382 1.463 . S
C379 C384 1.350 1_556 S
C379 N387 1.427 . S
C380 H371 0.930 . S
C380 C378 1.378 . S
C380 C381 1.367 . S
C381 C380 1.367 . S
C381 C383 1.433 1_556 S
C382 C378 1.350 . S
C382 C379 1.463 . S
C382 N386 1.427 1_556 S
C383 H373 0.929 . S
C383 C381 1.433 1_554 S
C383 N386 1.384 . S
C384 H375 0.929 . S
C384 C376 1.378 . S
C384 C379 1.350 1_554 S
C385 H372 0.929 . S
C385 C377 1.433 . S
C385 N387 1.384 . S
N386 C382 1.427 1_554 S
N386 C383 1.384 . S
N387 C379 1.427 . S
N387 C385 1.384 . S
C143 C17 1.529 1_656 S
C147 C51 1.529 . S
C161 C119 1.529 . S
C165 C85 1.529 1_556 S
C179 C22 1.817 . S
C183 C15 1.817 . S
C197 C56 1.832 . S
C201 C49 1.833 . S
C215 C90 1.830 . S
C219 C83 1.831 . S
C233 C117 1.832 . S
C237 C124 1.832 . S
C251 C6 1.296 . S
C255 C28 1.293 . S
C269 C40 1.291 . S
C273 C62 1.291 . S
C287 C74 1.292 . S
C291 C96 1.296 . S
C305 C108 1.298 . S
C309 C130 1.296 . S
C323 C103 1.738 . S
C327 C3 1.730 . S
C341 C71 1.741 . S
C345 C35 1.749 . S
C359 C69 1.747 . S
C363 C37 1.740 . S
C377 C105 1.733 . S
C381 C1 1.746 . S
