# Generated by pormake.
# Topology mdf, (4)-cn, num edge types: 1
# Building blocks:
#     Node 0, Type 0, BuildingBlock: ICAMEG_clean_sbu_1, # of connection points: 4
#     Node 1, Type 0, BuildingBlock: ICAMEG_clean_sbu_1, # of connection points: 4
#     Node 2, Type 0, BuildingBlock: ICAMEG_clean_sbu_1, # of connection points: 4
#     Node 3, Type 0, BuildingBlock: ICAMEG_clean_sbu_1, # of connection points: 4
#     Node 4, Type 0, BuildingBlock: ICAMEG_clean_sbu_1, # of connection points: 4
#     Node 5, Type 0, BuildingBlock: ICAMEG_clean_sbu_1, # of connection points: 4
#     Node 6, Type 0, BuildingBlock: ICAMEG_clean_sbu_1, # of connection points: 4
#     Node 7, Type 0, BuildingBlock: ICAMEG_clean_sbu_1, # of connection points: 4
#     Edge 8, Type (0, 0), BuildingBlock: UVAHIK_clean_linker_0, # of connection points: 2
#     Edge 9, Type (0, 0), BuildingBlock: UVAHIK_clean_linker_0, # of connection points: 2
#     Edge 10, Type (0, 0), BuildingBlock: UVAHIK_clean_linker_0, # of connection points: 2
#     Edge 11, Type (0, 0), BuildingBlock: UVAHIK_clean_linker_0, # of connection points: 2
#     Edge 12, Type (0, 0), BuildingBlock: UVAHIK_clean_linker_0, # of connection points: 2
#     Edge 13, Type (0, 0), BuildingBlock: UVAHIK_clean_linker_0, # of connection points: 2
#     Edge 14, Type (0, 0), BuildingBlock: UVAHIK_clean_linker_0, # of connection points: 2
#     Edge 15, Type (0, 0), BuildingBlock: UVAHIK_clean_linker_0, # of connection points: 2
#     Edge 16, Type (0, 0), BuildingBlock: UVAHIK_clean_linker_0, # of connection points: 2
#     Edge 17, Type (0, 0), BuildingBlock: UVAHIK_clean_linker_0, # of connection points: 2
#     Edge 18, Type (0, 0), BuildingBlock: UVAHIK_clean_linker_0, # of connection points: 2
#     Edge 19, Type (0, 0), BuildingBlock: UVAHIK_clean_linker_0, # of connection points: 2
#     Edge 20, Type (0, 0), BuildingBlock: UVAHIK_clean_linker_0, # of connection points: 2
#     Edge 21, Type (0, 0), BuildingBlock: UVAHIK_clean_linker_0, # of connection points: 2
#     Edge 22, Type (0, 0), BuildingBlock: UVAHIK_clean_linker_0, # of connection points: 2
#     Edge 23, Type (0, 0), BuildingBlock: UVAHIK_clean_linker_0, # of connection points: 2
# Relax obj value: 0.009
# Max RMSD: 0.053
# Mean RMSD: 0.053
data_MOF--net-mdf--node1-ICAMEG_clean_sbu_1--edge1-UVAHIK_clean_linker_0
_symmetry_space_group_name_H-M    P1
_symmetry_Int_Tables_number       1
_symmetry_cell_setting            triclinic
loop_
_symmetry_equiv_pos_as_xyz
'x, y, z'
_cell_length_a     53.451041
_cell_length_b     53.438565
_cell_length_c     14.021777
_cell_angle_alpha  90.079131
_cell_angle_beta   90.087949
_cell_angle_gamma 90.006351
loop_
_atom_site_label
_atom_site_type_symbol
_atom_site_fract_x
_atom_site_fract_y
_atom_site_fract_z
_atom_type_partial_charge
Co0 Co 0.24322 0.50329 0.50003 0.0
Co1 Co 0.25502 0.50313 0.25723 0.0
O2 O 0.24911 0.5206 0.37853 0.0
C3 C 0.19838 0.53638 0.48913 0.0
O4 O 0.19482 0.52952 0.40016 0.0
C5 C 0.29918 0.53721 0.26859 0.0
O6 O 0.30185 0.53197 0.3595 0.0
O7 O 0.28119 0.48153 0.31674 0.0
O8 O 0.2694 0.47809 0.46977 0.0
H9 H 0.26858 0.42755 0.04999 0.0
H10 H 0.25385 0.55766 0.49684 0.0
O11 O 0.21707 0.52821 0.53583 0.0
H12 H 0.31957 0.52096 0.70041 0.0
H13 H 0.22416 0.49895 0.85137 0.0
H14 H 0.23881 0.45013 0.558 0.0
H15 H 0.28695 0.49429 0.62849 0.0
H16 H 0.2344 0.52018 0.70043 0.0
O17 O 0.28123 0.52789 0.22079 0.0
H18 H 0.25929 0.44986 0.19995 0.0
H19 H 0.26399 0.51969 0.05668 0.0
H20 H 0.22943 0.42809 0.70823 0.0
H21 H 0.28601 0.58511 0.56787 0.0
H22 H 0.22175 0.45256 0.85606 0.0
H23 H 0.3192 0.56676 0.67036 0.0
O24 O 0.21704 0.48154 0.44083 0.0
H25 H 0.21209 0.5848 0.18926 0.0
H26 H 0.21131 0.49392 0.12866 0.0
H27 H 0.17866 0.52048 0.0567 0.0
H28 H 0.17894 0.5663 0.08676 0.0
H29 H 0.24431 0.55747 0.26025 0.0
H30 H 0.27416 0.49817 0.90603 0.0
H31 H 0.27635 0.45177 0.90186 0.0
O32 O 0.22883 0.47799 0.28786 0.0
C33 C 0.28347 0.4722 0.40003 0.0
C34 C 0.26763 0.44778 0.05086 0.0
C35 C 0.27078 0.48741 0.97008 0.0
N36 N 0.26104 0.48605 0.13713 0.0
C37 C 0.26224 0.46051 0.13544 0.0
C38 C 0.26511 0.4995 0.05572 0.0
C39 C 0.27202 0.46138 0.96781 0.0
C40 C 0.26819 0.54956 0.54161 0.0
N41 N 0.26858 0.52438 0.55822 0.0
C42 C 0.28637 0.56519 0.58149 0.0
C43 C 0.30501 0.55487 0.6389 0.0
C44 C 0.30524 0.52918 0.65568 0.0
C45 C 0.2868 0.51413 0.6144 0.0
C46 C 0.22747 0.48808 0.78742 0.0
C47 C 0.23588 0.46089 0.62237 0.0
C48 C 0.23317 0.50001 0.70162 0.0
N49 N 0.23717 0.48642 0.62037 0.0
C50 C 0.23045 0.44831 0.70711 0.0
C51 C 0.22611 0.46205 0.79 0.0
C52 C 0.21477 0.47213 0.35756 0.0
C53 C 0.21177 0.56486 0.17563 0.0
C54 C 0.21145 0.51378 0.14268 0.0
C55 C 0.19297 0.52876 0.10141 0.0
C56 C 0.19316 0.55447 0.1182 0.0
N57 N 0.22965 0.52411 0.19882 0.0
C58 C 0.22998 0.5493 0.2155 0.0
Co59 Co 0.4963 0.75632 0.4995 0.0
Co60 Co 0.49559 0.745 0.74193 0.0
O61 O 0.47843 0.75083 0.61999 0.0
C62 C 0.46225 0.80055 0.50478 0.0
O63 O 0.46825 0.80452 0.59439 0.0
C64 C 0.46096 0.70112 0.73554 0.0
O65 O 0.46798 0.69627 0.6477 0.0
O66 O 0.5162 0.71781 0.68422 0.0
O67 O 0.52173 0.73056 0.53331 0.0
H68 H 0.57041 0.72904 0.95059 0.0
H69 H 0.44214 0.74472 0.49972 0.0
O70 O 0.47123 0.78194 0.45987 0.0
H71 H 0.48091 0.67897 0.30196 0.0
H72 H 0.50241 0.77489 0.14826 0.0
H73 H 0.54972 0.76105 0.44571 0.0
H74 H 0.50667 0.7123 0.37395 0.0
H75 H 0.48047 0.76435 0.29735 0.0
O76 O 0.46967 0.72002 0.77959 0.0
H77 H 0.5486 0.73891 0.8001 0.0
H78 H 0.47859 0.73757 0.94285 0.0
H79 H 0.57251 0.77039 0.2971 0.0
H80 H 0.4156 0.71181 0.42862 0.0
H81 H 0.54879 0.77764 0.14716 0.0
H82 H 0.43499 0.67861 0.32901 0.0
O83 O 0.51723 0.78302 0.55896 0.0
H84 H 0.41558 0.7913 0.80633 0.0
H85 H 0.50637 0.78887 0.86788 0.0
H86 H 0.48104 0.82281 0.93757 0.0
H87 H 0.43527 0.82414 0.90706 0.0
H88 H 0.44171 0.75778 0.73753 0.0
H89 H 0.49953 0.72659 0.09382 0.0
H90 H 0.5458 0.72252 0.09862 0.0
O91 O 0.5218 0.77015 0.71022 0.0
C92 C 0.52649 0.71588 0.6025 0.0
C93 C 0.55024 0.73083 0.94947 0.0
C94 C 0.51047 0.72945 0.02985 0.0
N95 N 0.51234 0.73883 0.86259 0.0
C96 C 0.5378 0.73657 0.86459 0.0
C97 C 0.49869 0.73553 0.944 0.0
C98 C 0.53642 0.72714 0.03247 0.0
C99 C 0.4507 0.73036 0.45626 0.0
N100 N 0.47594 0.73039 0.44122 0.0
C101 C 0.43558 0.71176 0.41631 0.0
C102 C 0.44648 0.69313 0.3605 0.0
C103 C 0.47224 0.6933 0.34538 0.0
C104 C 0.48676 0.71216 0.38667 0.0
C105 C 0.51297 0.77165 0.21302 0.0
C106 C 0.5393 0.7637 0.38037 0.0
C107 C 0.50063 0.76583 0.29784 0.0
N108 N 0.51379 0.76212 0.38029 0.0
C109 C 0.5523 0.76914 0.29657 0.0
C110 C 0.53899 0.77325 0.21251 0.0
C111 C 0.5272 0.78472 0.64144 0.0
C112 C 0.43551 0.79092 0.82016 0.0
C113 C 0.48653 0.78944 0.85363 0.0
C114 C 0.47225 0.80864 0.89363 0.0
C115 C 0.44657 0.80936 0.87658 0.0
N116 N 0.47555 0.77141 0.79843 0.0
C117 C 0.45038 0.77197 0.78152 0.0
Co118 Co 0.2407 -0.00076 0.75326 0.0
Co119 Co 0.25281 0.9973 0.99569 0.0
O120 O 0.24679 0.98085 0.87236 0.0
C121 C 0.19687 0.96481 0.76122 0.0
O122 O 0.19422 0.96972 0.85244 0.0
C123 C 0.29714 0.9636 0.98157 0.0
O124 O 0.30033 0.97028 0.89232 0.0
O125 O 0.27916 0.0191 0.93876 0.0
O126 O 0.26679 0.02427 0.78701 0.0
H127 H 0.26711 0.07104 0.21187 0.0
H128 H 0.25171 0.94495 0.74911 0.0
O129 O 0.21463 0.97456 0.71398 0.0
H130 H 0.317 0.98401 0.5507 0.0
H131 H 0.2215 0.0068 0.40261 0.0
H132 H 0.23615 0.05289 0.70245 0.0
H133 H 0.2843 0.00976 0.62632 0.0
H134 H 0.23159 0.98417 0.55082 0.0
O135 O 0.27879 0.97202 0.02941 0.0
H136 H 0.25784 0.05003 0.05906 0.0
H137 H 0.26126 0.97907 0.19452 0.0
H138 H 0.22697 0.07632 0.555 0.0
H139 H 0.28399 0.91841 0.67435 0.0
H140 H 0.21939 0.05322 0.40381 0.0
H141 H 0.31696 0.93795 0.5744 0.0
O142 O 0.21442 0.02019 0.81532 0.0
H143 H 0.2094 0.91541 0.05464 0.0
H144 H 0.209 0.00586 0.12402 0.0
H145 H 0.17613 0.979 0.19241 0.0
H146 H 0.17622 0.93339 0.15794 0.0
H147 H 0.24182 0.94306 0.98716 0.0
H148 H 0.27126 -0.00073 0.34812 0.0
H149 H 0.27416 0.04559 0.35755 0.0
O150 O 0.22683 0.02293 0.96792 0.0
C151 C 0.28121 0.02928 0.85687 0.0
C152 C 0.26589 0.05084 0.20866 0.0
C153 C 0.26826 0.01056 0.28509 0.0
N154 N 0.25897 0.01335 0.11781 0.0
C155 C 0.26053 0.03885 0.12243 0.0
C156 C 0.26267 -0.00077 0.19783 0.0
C157 C 0.26987 0.03655 0.29035 0.0
C158 C 0.26596 0.95356 0.70547 0.0
N159 N 0.26615 0.97889 0.69226 0.0
C160 C 0.28421 0.93845 0.66346 0.0
C161 C 0.30272 0.94943 0.60748 0.0
C162 C 0.30277 0.97527 0.59424 0.0
C163 C 0.28426 0.98979 0.63758 0.0
C164 C 0.22485 0.01708 0.46796 0.0
C165 C 0.23324 0.04273 0.63665 0.0
C166 C 0.23045 0.00436 0.55226 0.0
N167 N 0.23449 0.0172 0.63529 0.0
C168 C 0.22792 0.05609 0.55349 0.0
C169 C 0.22363 0.04312 0.46873 0.0
C170 C 0.21246 0.02913 0.8994 0.0
C171 C 0.20916 0.93526 0.07021 0.0
C172 C 0.20905 0.98611 0.10804 0.0
C173 C 0.19045 0.97095 0.14733 0.0
C174 C 0.19053 0.94536 0.12807 0.0
N175 N 0.22727 0.97607 0.0514 0.0
C176 C 0.2275 0.95099 0.03237 0.0
Co177 Co 0.00033 0.75462 0.24709 0.0
Co178 Co -0.00071 0.74249 0.00452 0.0
O179 O 0.01719 0.74786 0.1253 0.0
C180 C 0.03551 0.79791 0.23643 0.0
O181 O 0.02864 0.80201 0.14784 0.0
C182 C 0.03178 0.69708 0.01438 0.0
O183 O 0.0267 0.69449 0.10542 0.0
O184 O 0.97688 0.71715 0.06481 0.0
O185 O 0.97391 0.72963 0.21726 0.0
H186 H 0.92279 0.73192 0.79952 0.0
H187 H 0.05415 0.74151 0.24318 0.0
O188 O 0.02649 0.77957 0.28265 0.0
H189 H 0.01464 0.67746 0.44616 0.0
H190 H 0.99733 0.77346 0.59907 0.0
H191 H 0.94752 0.76158 0.30614 0.0
H192 H 0.98943 0.71127 0.37499 0.0
H193 H 0.01787 0.76254 0.44732 0.0
O194 O 0.02296 0.71538 0.96734 0.0
H195 H 0.94579 0.74019 0.94895 0.0
H196 H 0.01503 0.73272 0.80336 0.0
H197 H 0.92614 0.77173 0.45711 0.0
H198 H 0.08015 0.70812 0.31348 0.0
H199 H 0.95112 0.77799 0.60476 0.0
H200 H 0.06038 0.67577 0.41569 0.0
O201 O 0.9797 0.78173 0.1883 0.0
H202 H 0.0824 0.78233 0.93527 0.0
H203 H 0.99165 0.7861 0.87428 0.0
H204 H 0.01933 0.81761 0.80141 0.0
H205 H 0.0651 0.81581 0.83164 0.0
H206 H 0.05394 0.75131 0.0072 0.0
H207 H 0.99279 0.72355 0.6532 0.0
H208 H 0.94633 0.72331 0.65043 0.0
O209 O 0.97525 0.76965 0.03581 0.0
C210 C 0.96748 0.71552 0.1482 0.0
C211 C 0.94304 0.73203 0.79977 0.0
C212 C 0.98232 0.72732 0.71767 0.0
N213 N 0.98173 0.73701 0.88494 0.0
C214 C 0.95617 0.73683 0.88406 0.0
C215 C 0.99481 0.73242 0.80305 0.0
C216 C 0.95626 0.72716 0.71618 0.0
C217 C 0.04543 0.72755 0.28786 0.0
N218 N 0.02028 0.72831 0.30475 0.0
C219 C 0.06024 0.70866 0.32732 0.0
C220 C 0.04913 0.6905 0.38456 0.0
C221 C 0.02347 0.69142 0.40158 0.0
C222 C 0.00925 0.71054 0.36073 0.0
C223 C 0.98624 0.77079 0.53519 0.0
C224 C 0.95849 0.76393 0.37037 0.0
C225 C 0.99778 0.76471 0.44893 0.0
N226 N 0.98392 0.76146 0.36781 0.0
C227 C 0.94629 0.76979 0.45555 0.0
C228 C 0.96031 0.77333 0.53834 0.0
C229 C 0.97016 0.78413 0.1053 0.0
C230 C 0.06249 0.78333 0.92164 0.0
C231 C 0.01147 0.78536 0.88859 0.0
C232 C 0.02709 0.80317 0.8467 0.0
C233 C 0.05277 0.80213 0.86358 0.0
N234 N 0.02112 0.76698 0.94543 0.0
C235 C 0.04629 0.76581 0.9621 0.0
Co236 Co 0.74272 0.00132 0.99804 0.0
Co237 Co 0.75501 0.00199 0.7561 0.0
O238 O 0.74923 0.01914 0.87812 0.0
C239 C 0.6996 0.03667 0.99001 0.0
O240 O 0.69587 0.03066 0.90025 0.0
C241 C 0.79931 0.03588 0.76802 0.0
O242 O 0.80228 0.03007 0.85829 0.0
O243 O 0.78122 0.98034 0.81498 0.0
O244 O 0.76787 0.97524 0.96536 0.0
H245 H 0.76818 0.92693 0.54568 0.0
H246 H 0.7556 0.05522 1.00039 0.0
O247 O 0.71766 0.02708 0.03639 0.0
H248 H 0.81993 0.01434 0.19874 0.0
H249 H 0.72393 0.99547 0.34928 0.0
H250 H 0.73621 0.94801 0.05115 0.0
H251 H 0.7862 0.98957 0.12454 0.0
H252 H 0.73462 0.01727 0.19998 0.0
O253 O 0.78117 0.02689 0.72034 0.0
H254 H 0.75939 0.94888 0.69689 0.0
H255 H 0.76373 0.01906 0.556 0.0
H256 H 0.7264 0.92538 0.19969 0.0
H257 H 0.78893 0.08079 0.07381 0.0
H258 H 0.72003 0.94917 0.35004 0.0
H259 H 0.82142 0.06032 0.17369 0.0
O260 O 0.7157 0.98108 0.93687 0.0
H261 H 0.71207 0.08382 0.69121 0.0
H262 H 0.71121 0.99309 0.62756 0.0
H263 H 0.67851 0.01982 0.55686 0.0
H264 H 0.67884 0.06557 0.58842 0.0
H265 H 0.74431 0.05631 0.761 0.0
H266 H 0.77336 0.99791 0.40406 0.0
H267 H 0.77544 0.95151 0.39804 0.0
O268 O 0.72883 0.9767 0.78584 0.0
C269 C 0.78261 0.97003 0.89686 0.0
C270 C 0.76727 0.94716 0.54735 0.0
C271 C 0.7702 0.98699 0.46789 0.0
N272 N 0.76097 0.98522 0.63532 0.0
C273 C 0.76218 0.95969 0.63266 0.0
C274 C 0.76484 0.99887 0.55426 0.0
C275 C 0.77137 0.96096 0.46457 0.0
C276 C 0.76962 0.04621 0.04408 0.0
N277 N 0.76897 0.02092 0.05801 0.0
C278 C 0.78847 0.06077 0.0853 0.0
C279 C 0.80671 0.04927 0.14124 0.0
C280 C 0.80591 0.02347 0.15523 0.0
C281 C 0.78682 0.00951 0.11269 0.0
C282 C 0.72674 0.98489 0.2843 0.0
C283 C 0.73381 0.95847 0.11656 0.0
C284 C 0.73267 0.99715 0.19939 0.0
N285 N 0.73604 0.98394 0.11683 0.0
C286 C 0.72814 0.94556 0.20035 0.0
C287 C 0.72452 0.95891 0.28464 0.0
C288 C 0.71397 0.97141 0.85385 0.0
C289 C 0.71172 0.06392 0.67691 0.0
C290 C 0.71135 0.01292 0.6423 0.0
C291 C 0.69286 0.02799 0.6017 0.0
C292 C 0.69307 0.05366 0.61934 0.0
N293 N 0.7296 0.02311 0.69863 0.0
C294 C 0.72995 0.04826 0.7161 0.0
Co295 Co 0.99657 0.2571 0.00962 0.0
Co296 Co 0.99592 0.24549 0.252 0.0
O297 O 0.97876 0.25157 0.13021 0.0
C298 C 0.96295 0.30159 0.017 0.0
O299 O 0.96904 0.30516 0.10676 0.0
C300 C 0.96109 0.20185 0.24395 0.0
O301 O 0.96787 0.19745 0.1555 0.0
O302 O 0.01649 0.21835 0.19374 0.0
O303 O 0.02174 0.23103 0.04257 0.0
H304 H 0.07069 0.22927 0.46068 0.0
H305 H 0.94228 0.24614 0.01004 0.0
O306 O 0.97175 0.28307 0.97101 0.0
H307 H 0.98016 0.1802 0.81072 0.0
H308 H 0.00255 0.27578 0.65839 0.0
H309 H 0.04998 0.26134 0.95514 0.0
H310 H 0.00635 0.21311 0.88323 0.0
H311 H 0.98062 0.2656 0.80789 0.0
O312 O 0.96998 0.22048 0.28914 0.0
H313 H 0.04891 0.23916 0.31013 0.0
H314 H 0.97888 0.23793 0.45276 0.0
H315 H 0.07273 0.27043 0.80621 0.0
H316 H 0.9153 0.21366 0.93842 0.0
H317 H 0.04895 0.27797 0.65662 0.0
H318 H 0.93425 0.18037 0.83801 0.0
O319 O 0.01785 0.28347 0.06937 0.0
H320 H 0.91602 0.29186 0.31761 0.0
H321 H 0.00685 0.28929 0.37816 0.0
H322 H 0.98161 0.32323 0.44832 0.0
H323 H 0.93582 0.32464 0.41829 0.0
H324 H 0.94204 0.25833 0.24834 0.0
H325 H -0.0002 0.22705 0.60389 0.0
H326 H 0.04606 0.22288 0.60875 0.0
O327 O 0.02217 0.27061 0.22075 0.0
C328 C 0.02661 0.21636 0.1117 0.0
C329 C 0.05053 0.2311 0.45953 0.0
C330 C 0.01074 0.22984 0.53989 0.0
N331 N 0.01265 0.23915 0.37257 0.0
C332 C 0.0381 0.23684 0.37461 0.0
C333 C -0.00101 0.23588 0.45396 0.0
C334 C 0.0367 0.22748 0.54254 0.0
C335 C 0.95064 0.23174 0.96623 0.0
N336 N 0.97587 0.23149 0.95103 0.0
C337 C 0.93528 0.21339 0.92598 0.0
C338 C 0.94592 0.1947 0.86974 0.0
C339 C 0.97168 0.19458 0.85448 0.0
C340 C 0.98645 0.2132 0.89607 0.0
C341 C 0.01312 0.27244 0.72302 0.0
C342 C 0.03953 0.26415 0.88998 0.0
C343 C 0.0008 0.26681 0.80805 0.0
N344 N 0.014 0.26288 0.89027 0.0
C345 C 0.05251 0.26944 0.80599 0.0
C346 C 0.03916 0.27371 0.72212 0.0
C347 C 0.02776 0.28511 0.15197 0.0
C348 C 0.93595 0.29144 0.33125 0.0
C349 C 0.987 0.28987 0.36417 0.0
C350 C 0.97277 0.30908 0.40443 0.0
C351 C 0.94708 0.30985 0.38764 0.0
N352 N 0.97595 0.27188 0.30901 0.0
C353 C 0.95077 0.27248 0.29237 0.0
Co354 Co 0.74108 0.49766 0.25664 0.0
Co355 Co 0.75292 0.49708 0.49906 0.0
O356 O 0.74735 0.47991 0.37691 0.0
C357 C 0.69732 0.46302 0.26228 0.0
O358 O 0.69294 0.46955 0.35103 0.0
C359 C 0.79767 0.46367 0.48958 0.0
O360 O 0.80122 0.46991 0.40006 0.0
O361 O 0.77914 0.51886 0.44114 0.0
O362 O 0.76629 0.52365 0.28982 0.0
H363 H 0.76612 0.57215 0.70951 0.0
H364 H 0.75378 0.44373 0.25607 0.0
O365 O 0.71597 0.47198 0.21778 0.0
H366 H 0.8183 0.48399 0.0575 0.0
H367 H 0.72221 0.50332 0.90523 0.0
H368 H 0.73493 0.55096 0.20281 0.0
H369 H 0.78463 0.50902 0.13046 0.0
H370 H 0.7331 0.48162 0.05462 0.0
O371 O 0.77906 0.47223 0.5356 0.0
H372 H 0.75714 0.5502 0.55838 0.0
H373 H 0.76136 0.48005 0.69946 0.0
H374 H 0.72505 0.57352 0.05406 0.0
H375 H 0.78704 0.41791 0.18397 0.0
H376 H 0.71839 0.54963 0.90404 0.0
H377 H 0.81962 0.43806 0.08395 0.0
O378 O 0.71408 0.5181 0.3167 0.0
H379 H 0.71002 0.41514 0.56198 0.0
H380 H 0.70901 0.50581 0.62667 0.0
H381 H 0.67628 0.47898 0.69629 0.0
H382 H 0.67669 0.43325 0.6642 0.0
H383 H 0.74229 0.44274 0.4933 0.0
H384 H 0.77129 0.50118 0.85124 0.0
H385 H 0.77353 0.54758 0.85713 0.0
O386 O 0.72673 0.52228 0.46855 0.0
C387 C 0.78076 0.52905 0.35911 0.0
C388 C 0.76515 0.55193 0.70789 0.0
C389 C 0.76807 0.5121 0.78742 0.0
N390 N 0.7587 0.51387 0.62002 0.0
C391 C 0.75994 0.5394 0.62263 0.0
C392 C 0.76255 0.50023 0.70114 0.0
C393 C 0.76934 0.53813 0.79066 0.0
C394 C 0.76786 0.45261 0.21241 0.0
N395 N 0.7673 0.47787 0.19772 0.0
C396 C 0.78667 0.4379 0.1719 0.0
C397 C 0.80496 0.44922 0.11588 0.0
C398 C 0.80425 0.475 0.10111 0.0
C399 C 0.7852 0.48911 0.14296 0.0
C400 C 0.72514 0.51394 0.97007 0.0
C401 C 0.73246 0.54047 0.13749 0.0
C402 C 0.73117 0.50174 0.05504 0.0
N403 N 0.73461 0.51499 0.13749 0.0
C404 C 0.72674 0.55334 0.05359 0.0
C405 C 0.72297 0.53993 0.96949 0.0
C406 C 0.71211 0.52767 0.39978 0.0
C407 C 0.70964 0.43503 0.57648 0.0
C408 C 0.70918 0.486 0.61169 0.0
C409 C 0.69067 0.47087 0.65168 0.0
C410 C 0.69093 0.44521 0.63375 0.0
N411 N 0.72749 0.47588 0.55568 0.0
C412 C 0.72788 0.45074 0.5379 0.0
Co413 Co 0.49996 0.25549 0.74755 0.0
Co414 Co 0.49908 0.24305 0.50528 0.0
O415 O 0.51694 0.2499 0.62514 0.0
C416 C 0.53262 0.3006 0.73367 0.0
O417 O 0.52677 0.30304 0.64317 0.0
C418 C 0.535 0.20037 0.51397 0.0
O419 O 0.52975 0.19716 0.6046 0.0
O420 O 0.47902 0.216 0.56666 0.0
O421 O 0.47538 0.22857 0.7188 0.0
H422 H 0.42309 0.22615 0.30365 0.0
H423 H 0.55454 0.24637 0.74131 0.0
O424 O 0.52414 0.28242 0.78215 0.0
H425 H 0.52055 0.1799 0.94743 0.0
H426 H 0.49634 0.27418 0.09959 0.0
H427 H 0.44692 0.25847 0.80828 0.0
H428 H 0.49269 0.21166 0.87694 0.0
H429 H 0.51732 0.26503 0.94703 0.0
O430 O 0.52487 0.21802 0.46707 0.0
H431 H 0.44579 0.23616 0.45222 0.0
H432 H 0.51492 0.23483 0.30336 0.0
H433 H 0.42516 0.26687 0.96005 0.0
H434 H 0.58317 0.21509 0.81089 0.0
H435 H 0.44993 0.27502 0.1069 0.0
H436 H 0.56618 0.18152 0.91466 0.0
O437 O 0.4774 0.28102 0.68914 0.0
H438 H 0.57829 0.28945 0.42898 0.0
H439 H 0.48706 0.28634 0.37847 0.0
H440 H 0.51164 0.32006 0.30389 0.0
H441 H 0.55763 0.32174 0.32883 0.0
H442 H 0.55291 0.25613 0.50274 0.0
H443 H 0.49306 0.22402 0.15398 0.0
H444 H 0.44679 0.21985 0.15325 0.0
O445 O 0.47293 0.26809 0.53775 0.0
C446 C 0.46989 0.21388 0.65031 0.0
C447 C 0.44325 0.22799 0.30299 0.0
C448 C 0.48252 0.22678 0.21899 0.0
N449 N 0.48165 0.23613 0.38653 0.0
C450 C 0.4562 0.23377 0.3868 0.0
C451 C 0.49481 0.23279 0.30395 0.0
C452 C 0.45656 0.22442 0.21867 0.0
C453 C 0.54704 0.23186 0.78663 0.0
N454 N 0.52195 0.23079 0.80475 0.0
C455 C 0.56332 0.21418 0.82569 0.0
C456 C 0.55378 0.19533 0.88382 0.0
C457 C 0.52818 0.19439 0.90213 0.0
C458 C 0.51246 0.21236 0.86163 0.0
C459 C 0.48534 0.27066 0.03608 0.0
C460 C 0.45782 0.26166 0.87216 0.0
C461 C 0.49712 0.26555 0.94938 0.0
N462 N 0.48336 0.26118 0.86876 0.0
C463 C 0.4454 0.26652 0.95779 0.0
C464 C 0.4593 0.27113 0.04013 0.0
C465 C 0.46726 0.28247 0.60688 0.0
C466 C 0.55827 0.28891 0.41753 0.0
C467 C 0.507 0.28705 0.39027 0.0
C468 C 0.52086 0.30613 0.34752 0.0
C469 C 0.54666 0.30704 0.36144 0.0
N470 N 0.51852 0.26931 0.44507 0.0
C471 C 0.54381 0.27007 0.45894 0.0
C472 C 0.4403 0.68756 0.88642 0.0
C473 C 0.44403 0.68402 0.78801 0.0
C474 C 0.42516 0.67135 0.93843 0.0
C475 C 0.39669 0.60817 0.9317 0.0
H476 H 0.35616 0.63492 0.13736 0.0
C477 C 0.31889 0.55201 0.11791 0.0
C478 C 0.31737 0.55328 0.21798 0.0
C479 C 0.33538 0.56731 0.06788 0.0
C480 C 0.36762 0.62715 0.08096 0.0
H481 H 0.43441 0.66069 0.66689 0.0
H482 H 0.40723 0.63258 0.75758 0.0
H483 H 0.3815 0.66314 0.04127 0.0
H484 H 0.33217 0.5715 0.34412 0.0
H485 H 0.36097 0.59878 0.25581 0.0
H486 H 0.38212 0.57223 0.97033 0.0
C487 C 0.41654 0.64771 0.7948 0.0
C488 C 0.38217 0.6433 0.02571 0.0
C489 C 0.43198 0.6639 0.7426 0.0
C490 C 0.33295 0.57011 0.26711 0.0
C491 C 0.3493 0.58576 0.21661 0.0
C492 C 0.38192 0.59206 0.9864 0.0
C493 C 0.41301 0.65123 0.89355 0.0
C494 C 0.39696 0.63402 0.95045 0.0
C495 C 0.35062 0.58448 0.11643 0.0
C496 C 0.36724 0.60139 0.06158 0.0
H497 H 0.44938 0.70271 0.92429 0.0
H498 H 0.42339 0.67442 0.01448 0.0
H499 H 0.40815 0.60027 0.87562 0.0
H500 H 0.30732 0.53911 0.07776 0.0
H501 H 0.3358 0.56607 0.99077 0.0
C502 C 0.44472 0.81678 0.35192 0.0
C503 C 0.44587 0.81811 0.45203 0.0
C504 C 0.42954 0.83304 0.30019 0.0
C505 C 0.39522 0.89313 0.31729 0.0
H506 H 0.36078 0.86754 0.09363 0.0
C507 C 0.31533 0.9461 0.13112 0.0
C508 C 0.31542 0.94728 0.03086 0.0
C509 C 0.33233 0.93102 0.17973 0.0
C510 C 0.37053 0.87502 0.15516 0.0
H511 H 0.43189 0.8377 0.57636 0.0
H512 H 0.40467 0.86588 0.48587 0.0
H513 H 0.38733 0.83973 0.18703 0.0
H514 H 0.33352 0.93347 0.90301 0.0
H515 H 0.36324 0.90656 0.9887 0.0
H516 H 0.37777 0.92828 0.28635 0.0
C517 C 0.41598 0.85246 0.44732 0.0
C518 C 0.38577 0.85911 0.20886 0.0
C519 C 0.43145 0.83624 0.49932 0.0
C520 C 0.33299 0.93295 0.9802 0.0
C521 C 0.34991 0.91752 0.02916 0.0
C522 C 0.37979 0.90897 0.26404 0.0
C523 C 0.41479 0.85098 0.34699 0.0
C524 C 0.39832 0.86794 0.29069 0.0
C525 C 0.34975 0.91651 0.12949 0.0
C526 C 0.36724 0.90006 0.18261 0.0
H527 H 0.45581 0.80329 0.31279 0.0
H528 H 0.42962 0.83168 0.22312 0.0
H529 H 0.40493 0.90072 0.37868 0.0
H530 H 0.30218 0.95698 0.17267 0.0
H531 H 0.33155 0.93041 0.2569 0.0
C532 C 0.05623 0.81257 0.38598 0.0
C533 C 0.05267 0.81522 0.28707 0.0
C534 C 0.0716 0.82899 0.43625 0.0
C535 C 0.10094 0.89162 0.42272 0.0
H536 H 0.14074 0.86618 0.633 0.0
C537 C 0.17796 0.94912 0.60988 0.0
C538 C 0.17903 0.94838 0.71011 0.0
C539 C 0.16178 0.93345 0.55963 0.0
C540 C 0.1295 0.87358 0.57523 0.0
H541 H 0.06282 0.83718 0.16323 0.0
H542 H 0.09039 0.8657 0.25102 0.0
H543 H 0.11541 0.83741 0.53863 0.0
H544 H 0.16379 0.93071 0.83628 0.0
H545 H 0.13553 0.90286 0.74771 0.0
H546 H 0.11563 0.92775 0.45848 0.0
C547 C 0.08078 0.85109 0.28988 0.0
C548 C 0.11497 0.85713 0.52098 0.0
C549 C 0.06512 0.83467 0.23938 0.0
C550 C 0.16336 0.9317 0.75914 0.0
C551 C 0.14731 0.91572 0.7085 0.0
C552 C 0.11568 0.90804 0.47647 0.0
C553 C 0.08415 0.84845 0.3891 0.0
C554 C 0.10038 0.86593 0.44427 0.0
C555 C 0.14642 0.91645 0.60817 0.0
C556 C 0.13006 0.89919 0.55341 0.0
H557 H 0.04683 0.79797 0.42555 0.0
H558 H 0.07325 0.82665 0.5127 0.0
H559 H 0.08965 0.89915 0.36535 0.0
H560 H 0.18965 0.96186 0.56976 0.0
H561 H 0.1617 0.93428 0.48242 0.0
C562 C 0.04579 0.67731 0.86274 0.0
C563 C 0.04731 0.6786 0.96275 0.0
C564 C 0.06091 0.66092 0.81143 0.0
C565 C 0.10137 0.60492 0.83444 0.0
H566 H 0.12867 0.62905 0.59523 0.0
C567 C 0.18204 0.55561 0.6389 0.0
C568 C 0.18012 0.55252 0.53944 0.0
C569 C 0.1648 0.57018 0.68854 0.0
C570 C 0.12093 0.62194 0.66121 0.0
H571 H 0.06557 0.66328 0.08764 0.0
H572 H 0.09268 0.63485 0.9975 0.0
H573 H 0.10119 0.65594 0.68842 0.0
H574 H 0.15857 0.56256 0.41412 0.0
H575 H 0.1284 0.58848 0.50145 0.0
H576 H 0.12175 0.57111 0.80782 0.0
C577 C 0.07942 0.64634 0.95892 0.0
C578 C 0.10516 0.63732 0.71479 0.0
C579 C 0.06399 0.66267 0.01065 0.0
C580 C 0.16056 0.56456 0.49063 0.0
C581 C 0.14336 0.57943 0.54053 0.0
C582 C 0.11733 0.58961 0.78115 0.0
C583 C 0.07824 0.6455 0.85848 0.0
C584 C 0.09516 0.62902 0.80213 0.0
C585 C 0.14526 0.58223 0.64014 0.0
C586 C 0.12733 0.59799 0.69412 0.0
H587 H 0.0328 0.68898 0.82356 0.0
H588 H 0.05895 0.66034 0.73458 0.0
H589 H 0.09372 0.59775 0.90042 0.0
H590 H 0.19681 0.54664 0.67913 0.0
H591 H 0.16698 0.57227 0.76497 0.0
C592 C 0.81826 0.0519 0.61768 0.0
C593 C 0.81736 0.05223 0.71796 0.0
C594 C 0.8347 0.06741 0.56832 0.0
C595 C 0.86822 0.1265 0.58679 0.0
H596 H 0.90702 0.10076 0.37457 0.0
C597 C 0.94113 0.1872 0.39473 0.0
C598 C 0.9442 0.18454 0.29559 0.0
C599 C 0.92596 0.17081 0.44576 0.0
C600 C 0.89604 0.10835 0.43264 0.0
H601 H 0.83319 0.06904 0.84515 0.0
H602 H 0.8619 0.09668 0.75811 0.0
H603 H 0.88089 0.07238 0.46742 0.0
H604 H 0.93341 0.16259 0.17219 0.0
H605 H 0.90617 0.13418 0.26124 0.0
H606 H 0.8827 0.16254 0.55103 0.0
C607 C 0.84978 0.08423 0.71819 0.0
C608 C 0.88122 0.09205 0.48625 0.0
C609 C 0.83348 0.06837 0.76795 0.0
C610 C 0.93149 0.16511 0.24849 0.0
C611 C 0.91602 0.14874 0.29974 0.0
C612 C 0.88283 0.14285 0.53266 0.0
C613 C 0.85051 0.08387 0.61781 0.0
C614 C 0.86716 0.10096 0.56387 0.0
C615 C 0.91311 0.15139 0.39917 0.0
C616 C 0.897 0.134 0.45497 0.0
H617 H 0.80626 0.03956 0.5768 0.0
H618 H 0.83465 0.06688 0.49107 0.0
H619 H 0.85725 0.13396 0.64517 0.0
H620 H 0.95077 0.20178 0.43384 0.0
H621 H 0.92468 0.17318 0.52231 0.0
C622 C 0.9322 0.33732 0.01436 0.0
C623 C 0.9466 0.31944 0.96558 0.0
C624 C 0.91664 0.35374 0.9637 0.0
C625 C 0.9073 0.38159 0.72558 0.0
H626 H 0.83853 0.39 0.8064 0.0
C627 C 0.83338 0.43284 0.49285 0.0
C628 C 0.8157 0.44756 0.5412 0.0
C629 C 0.84988 0.41745 0.54405 0.0
C630 C 0.85777 0.38819 0.78341 0.0
H631 H 0.95627 0.30514 0.82521 0.0
H632 H 0.92942 0.33366 0.73794 0.0
H633 H 0.86666 0.36393 0.90016 0.0
H634 H 0.80212 0.45832 0.68132 0.0
H635 H 0.83097 0.43232 0.76947 0.0
H636 H 0.89856 0.40604 0.60938 0.0
C637 C 0.93011 0.33507 0.81499 0.0
C638 C 0.87387 0.37322 0.83732 0.0
C639 C 0.94536 0.31857 0.86535 0.0
C640 C 0.81519 0.44693 0.64145 0.0
C641 C 0.83172 0.43186 0.69231 0.0
C642 C 0.89125 0.39676 0.67204 0.0
C643 C 0.9155 0.35277 0.86343 0.0
C644 C 0.89877 0.36968 0.80881 0.0
C645 C 0.84913 0.4167 0.64454 0.0
C646 C 0.86625 0.40024 0.70021 0.0
H647 H 0.93275 0.33846 0.09147 0.0
H648 H 0.90564 0.36732 0.00283 0.0
H649 H 0.92648 0.37935 0.7023 0.0
H650 H 0.83421 0.43291 0.41567 0.0
H651 H 0.86291 0.40586 0.50482 0.0
C652 C 0.68305 0.44306 0.11063 0.0
C653 C 0.68 0.44631 0.20953 0.0
C654 C 0.66664 0.4281 0.0585 0.0
C655 C 0.60366 0.39933 0.06688 0.0
H656 H 0.62972 0.35926 0.85845 0.0
C657 C 0.54754 0.32096 0.88315 0.0
C658 C 0.54844 0.31928 0.78308 0.0
C659 C 0.56277 0.33778 0.93219 0.0
C660 C 0.62214 0.37061 0.91559 0.0
H661 H 0.65732 0.43606 0.33134 0.0
H662 H 0.62884 0.4092 0.24032 0.0
H663 H 0.65821 0.38466 0.95381 0.0
H664 H 0.56584 0.33418 0.6558 0.0
H665 H 0.593 0.36358 0.74237 0.0
H666 H 0.56765 0.3846 0.02975 0.0
C667 C 0.64375 0.41875 0.2029 0.0
C668 C 0.63844 0.38518 0.97043 0.0
C669 C 0.66015 0.43399 0.25526 0.0
C670 C 0.56475 0.33508 0.73286 0.0
C671 C 0.58033 0.35177 0.78235 0.0
C672 C 0.5874 0.38456 0.01254 0.0
C673 C 0.6468 0.41567 0.10371 0.0
C674 C 0.62942 0.39975 0.0468 0.0
C675 C 0.57949 0.35321 0.88258 0.0
C676 C 0.59649 0.37002 0.93646 0.0
H677 H 0.69797 0.45237 0.07255 0.0
H678 H 0.66932 0.42665 0.98215 0.0
H679 H 0.59596 0.41063 0.12387 0.0
H680 H 0.53502 0.30922 0.92409 0.0
H681 H 0.56187 0.33827 0.00936 0.0
C682 C 0.68412 0.05604 0.1409 0.0
C683 C 0.68237 0.05375 0.04109 0.0
C684 C 0.66787 0.0716 0.19109 0.0
C685 C 0.6279 0.12663 0.16692 0.0
H686 H 0.59707 0.10217 0.3992 0.0
C687 C 0.55237 0.18326 0.36237 0.0
C688 C 0.55198 0.1831 0.46266 0.0
C689 C 0.56816 0.1673 0.31195 0.0
C690 C 0.6058 0.10945 0.33535 0.0
H691 H 0.66221 0.0663 0.9157 0.0
H692 H 0.63379 0.09392 0.00401 0.0
H693 H 0.62434 0.07469 0.30711 0.0
H694 H 0.56796 0.16597 0.58873 0.0
H695 H 0.5962 0.13832 0.50039 0.0
H696 H 0.60989 0.16151 0.19572 0.0
C697 C 0.64785 0.08349 0.04294 0.0
C698 C 0.62131 0.09364 0.28229 0.0
C699 C 0.66403 0.06763 0.99249 0.0
C700 C 0.56778 0.16647 0.51151 0.0
C701 C 0.58386 0.15057 0.46077 0.0
C702 C 0.61258 0.14251 0.22038 0.0
C703 C 0.64954 0.08548 0.14288 0.0
C704 C 0.63249 0.10206 0.19746 0.0
C705 C 0.58427 0.15086 0.36023 0.0
C706 C 0.60123 0.1341 0.30512 0.0
H707 H 0.69798 0.04566 0.18095 0.0
H708 H 0.66987 0.073 0.26782 0.0
H709 H 0.63658 0.13375 0.10269 0.0
H710 H 0.54023 0.19557 0.32215 0.0
H711 H 0.56746 0.16767 0.23477 0.0
C712 C 0.30892 0.44635 0.51282 0.0
C713 C 0.30342 0.45354 0.4185 0.0
C714 C 0.32742 0.42867 0.53176 0.0
C715 C 0.35867 0.37474 0.43106 0.0
H716 H 0.40924 0.38715 0.6242 0.0
C717 C 0.43915 0.30559 0.49478 0.0
C718 C 0.44828 0.30211 0.58803 0.0
C719 C 0.42184 0.32433 0.47465 0.0
C720 C 0.39503 0.3832 0.57117 0.0
H721 H 0.313 0.44739 0.26997 0.0
H722 H 0.34512 0.41584 0.30349 0.0
H723 H 0.37886 0.41972 0.58558 0.0
H724 H 0.44575 0.31545 0.73385 0.0
H725 H 0.41472 0.34776 0.69926 0.0
H726 H 0.37403 0.33802 0.4185 0.0
C727 C 0.33513 0.42431 0.36246 0.0
C728 C 0.37778 0.40194 0.54857 0.0
C729 C 0.31684 0.4424 0.3434 0.0
C730 C 0.43927 0.3177 0.66113 0.0
C731 C 0.42159 0.33635 0.64108 0.0
C732 C 0.37566 0.35588 0.45454 0.0
C733 C 0.3406 0.41737 0.45692 0.0
C734 C 0.35949 0.39789 0.47815 0.0
C735 C 0.41273 0.33994 0.54737 0.0
C736 C 0.39417 0.35987 0.52462 0.0
H737 H 0.29887 0.45426 0.5726 0.0
H738 H 0.33103 0.42341 0.6051 0.0
H739 H 0.34447 0.37102 0.37765 0.0
H740 H 0.44548 0.29395 0.43638 0.0
H741 H 0.41591 0.32676 0.40138 0.0
C742 C 0.67897 0.94298 0.90653 0.0
C743 C 0.69378 0.95311 0.83337 0.0
C744 C 0.66039 0.92529 0.8855 0.0
C745 C 0.64056 0.88107 0.69325 0.0
H746 H 0.57847 0.87937 0.83545 0.0
C747 C 0.5554 0.81958 0.58607 0.0
C748 C 0.54578 0.80475 0.6603 0.0
C749 C 0.573 0.83834 0.60548 0.0
C750 C 0.59576 0.87965 0.7953 0.0
H751 H 0.70037 0.95259 0.68043 0.0
H752 H 0.66758 0.92307 0.64389 0.0
H753 H 0.60997 0.9109 0.87408 0.0
H754 H 0.54747 0.79805 0.81316 0.0
H755 H 0.57745 0.83102 0.84644 0.0
H756 H 0.62598 0.8501 0.61331 0.0
C757 C 0.67065 0.92805 0.71786 0.0
C758 C 0.6139 0.89758 0.81782 0.0
C759 C 0.68937 0.94534 0.73891 0.0
C760 C 0.55414 0.80921 0.75412 0.0
C761 C 0.57133 0.82816 0.77353 0.0
C762 C 0.62227 0.86342 0.66987 0.0
C763 C 0.65605 0.91755 0.79075 0.0
C764 C 0.63661 0.89848 0.76731 0.0
C765 C 0.58098 0.84287 0.69954 0.0
C766 C 0.59978 0.86245 0.72101 0.0
H767 H 0.68196 0.94841 0.98013 0.0
H768 H 0.64977 0.91737 0.94379 0.0
H769 H 0.65799 0.88074 0.65403 0.0
H770 H 0.54949 0.8166 0.51301 0.0
H771 H 0.5802 0.84949 0.54716 0.0
C772 C 0.05332 0.19139 1.0003 0.0
C773 C 0.04481 0.19595 0.09373 0.0
C774 C 0.07032 0.17224 0.98167 0.0
C775 C 0.12061 0.13642 0.08774 0.0
H776 H 0.10886 0.0899 0.87978 0.0
C777 C 0.18781 0.0547 0.01555 0.0
C778 C 0.19244 0.04754 0.9206 0.0
C779 C 0.1691 0.07193 0.03727 0.0
C780 C 0.11264 0.10294 0.93716 0.0
H781 H 0.04797 0.18403 0.24115 0.0
H782 H 0.07834 0.15075 0.20835 0.0
H783 H 0.0773 0.12129 0.91865 0.0
H784 H 0.1811 0.05331 0.77371 0.0
H785 H 0.14893 0.0842 0.81132 0.0
H786 H 0.15625 0.11894 0.10451 0.0
C787 C 0.07143 0.16199 0.14973 0.0
C788 C 0.09446 0.12079 0.95983 0.0
C789 C 0.05402 0.18097 0.16837 0.0
C790 C 0.17793 0.05825 0.84765 0.0
C791 C 0.15936 0.07586 0.86939 0.0
C792 C 0.13894 0.11884 0.06431 0.0
C793 C 0.07961 0.15741 0.05605 0.0
C794 C 0.0983 0.13769 0.03527 0.0
C795 C 0.15473 0.08293 0.96462 0.0
C796 C 0.1352 0.10182 0.98875 0.0
H797 H 0.04696 0.20265 0.94096 0.0
H798 H 0.07661 0.16936 0.90905 0.0
H799 H 0.12419 0.14951 0.14526 0.0
H800 H 0.19858 0.04698 0.0739 0.0
H801 H 0.16582 0.07644 0.1115 0.0
C802 C 0.93786 0.6815 0.09501 0.0
C803 C 0.94839 0.69608 0.16828 0.0
C804 C 0.91988 0.66324 0.11599 0.0
C805 C 0.876 0.64341 0.30881 0.0
H806 H 0.87448 0.58119 0.16655 0.0
C807 C 0.8154 0.55751 0.41551 0.0
C808 C 0.80056 0.5479 0.34107 0.0
C809 C 0.83395 0.57535 0.39653 0.0
C810 C 0.87472 0.59851 0.20675 0.0
H811 H 0.94807 0.70278 0.32128 0.0
H812 H 0.91801 0.67054 0.35767 0.0
H813 H 0.90568 0.61288 0.12739 0.0
H814 H 0.79354 0.54989 0.18836 0.0
H815 H 0.82611 0.58024 0.15588 0.0
H816 H 0.84532 0.62862 0.38936 0.0
C817 C 0.92295 0.67352 0.2837 0.0
C818 C 0.89244 0.61677 0.18388 0.0
C819 C 0.94054 0.69193 0.2627 0.0
C820 C 0.80473 0.55653 0.24756 0.0
C821 C 0.82346 0.57395 0.22859 0.0
C822 C 0.85855 0.62499 0.33254 0.0
C823 C 0.91224 0.65899 0.21079 0.0
C824 C 0.89327 0.63953 0.23435 0.0
C825 C 0.83822 0.58355 0.3027 0.0
C826 C 0.85765 0.60245 0.28135 0.0
H827 H 0.94332 0.68433 0.02144 0.0
H828 H 0.91177 0.65268 0.0577 0.0
H829 H 0.87566 0.66086 0.34809 0.0
H830 H 0.81261 0.55139 0.48834 0.0
H831 H 0.84514 0.58254 0.45492 0.0
C832 C 0.30609 0.05631 0.74652 0.0
C833 C 0.3016 0.04755 0.83964 0.0
C834 C 0.32544 0.07311 0.72833 0.0
C835 C 0.36239 0.12243 0.83583 0.0
H836 H 0.40837 0.11031 0.62691 0.0
C837 C 0.44497 0.18846 0.7657 0.0
C838 C 0.45187 0.19348 0.67085 0.0
C839 C 0.4277 0.16976 0.78679 0.0
C840 C 0.39549 0.11418 0.6846 0.0
H841 H 0.31381 0.05013 0.98701 0.0
H842 H 0.34744 0.08015 0.955 0.0
H843 H 0.37638 0.07928 0.66486 0.0
H844 H 0.44575 0.18271 0.5235 0.0
H845 H 0.41477 0.15053 0.56007 0.0
H846 H 0.38063 0.15765 0.85383 0.0
C847 C 0.33599 0.07358 0.89628 0.0
C848 C 0.3773 0.09631 0.70671 0.0
C849 C 0.3168 0.05638 0.91447 0.0
C850 C 0.441 0.17923 0.59737 0.0
C851 C 0.42333 0.16067 0.6185 0.0
C852 C 0.38032 0.14045 0.81296 0.0
C853 C 0.34055 0.08194 0.80285 0.0
C854 C 0.36059 0.10029 0.78249 0.0
C855 C 0.41637 0.1558 0.71361 0.0
C856 C 0.39716 0.13657 0.73712 0.0
H857 H 0.29468 0.05025 0.68704 0.0
H858 H 0.3283 0.07955 0.65592 0.0
H859 H 0.34947 0.12611 0.89361 0.0
H860 H 0.45283 0.199 0.82444 0.0
H861 H 0.42332 0.16624 0.86094 0.0
C862 C 0.80596 0.94203 0.00885 0.0
C863 C 0.80254 0.95137 0.91583 0.0
C864 C 0.82495 0.92494 0.02879 0.0
C865 C 0.86283 0.87611 0.92259 0.0
H866 H 0.90699 0.88679 0.13874 0.0
C867 C 0.9456 0.81056 0.99204 0.0
C868 C 0.95214 0.80466 0.08658 0.0
C869 C 0.92823 0.82925 0.97228 0.0
C870 C 0.89461 0.8833 0.07902 0.0
H871 H 0.81625 0.9495 0.77041 0.0
H872 H 0.84925 0.91901 0.80537 0.0
H873 H 0.87511 0.91793 0.10027 0.0
H874 H 0.94528 0.8139 0.23485 0.0
H875 H 0.91402 0.84607 0.20047 0.0
H876 H 0.88143 0.84118 0.90279 0.0
C877 C 0.83724 0.92533 0.86271 0.0
C878 C 0.87648 0.90123 0.05665 0.0
C879 C 0.81841 0.9428 0.84282 0.0
C880 C 0.94081 0.81808 0.1612 0.0
C881 C 0.92298 0.83661 0.14135 0.0
C882 C 0.88067 0.85802 0.94569 0.0
C883 C 0.84076 0.91641 0.95609 0.0
C884 C 0.86048 0.89782 0.97804 0.0
C885 C 0.91635 0.8423 0.04645 0.0
C886 C 0.89693 0.86142 0.02387 0.0
H887 H 0.79399 0.94788 0.06693 0.0
H888 H 0.827 0.91807 0.10105 0.0
H889 H 0.85044 0.87283 0.86262 0.0
H890 H 0.95383 0.8007 0.93246 0.0
H891 H 0.92418 0.83345 0.89833 0.0
C892 C 0.05614 0.31985 0.09696 0.0
C893 C 0.04654 0.30495 0.17099 0.0
C894 C 0.07391 0.33844 0.11649 0.0
C895 C 0.09742 0.37903 0.30759 0.0
H896 H 0.15876 0.38102 0.16089 0.0
C897 C 0.1808 0.44284 0.4132 0.0
C898 C 0.19477 0.45351 0.33874 0.0
C899 C 0.16236 0.4249 0.39358 0.0
C900 C 0.14159 0.38106 0.20172 0.0
H901 H 0.04841 0.29792 0.32361 0.0
H902 H 0.07876 0.33055 0.35708 0.0
H903 H 0.12669 0.35031 0.12143 0.0
H904 H 0.19997 0.4537 0.185 0.0
H905 H 0.16744 0.42368 0.15108 0.0
H906 H 0.11195 0.41006 0.38677 0.0
C907 C 0.07249 0.3279 0.28425 0.0
C908 C 0.12326 0.36339 0.17905 0.0
C909 C 0.05509 0.30914 0.26472 0.0
C910 C 0.18966 0.44601 0.24447 0.0
C911 C 0.17109 0.42845 0.22488 0.0
C912 C 0.11561 0.39696 0.3295 0.0
C913 C 0.08212 0.3427 0.21046 0.0
C914 C 0.10106 0.36214 0.23197 0.0
C915 C 0.15732 0.41744 0.29901 0.0
C916 C 0.13797 0.3982 0.27692 0.0
H917 H 0.05007 0.31708 0.02397 0.0
H918 H 0.08106 0.34966 0.05831 0.0
H919 H 0.08036 0.37854 0.34914 0.0
H920 H 0.18435 0.44806 0.48667 0.0
H921 H 0.15236 0.4166 0.45271 0.0
C922 C 0.55372 0.68043 0.65977 0.0
C923 C 0.54474 0.69548 0.58496 0.0
C924 C 0.57108 0.66138 0.64155 0.0
C925 C 0.59422 0.61997 0.45278 0.0
H926 H 0.65577 0.618 0.59884 0.0
C927 C 0.67746 0.55637 0.34555 0.0
C928 C 0.69188 0.54596 0.41943 0.0
C929 C 0.65888 0.5741 0.36587 0.0
C930 C 0.63852 0.61792 0.55828 0.0
H931 H 0.54726 0.70226 0.43233 0.0
H932 H 0.57681 0.66881 0.40109 0.0
H933 H 0.62388 0.64886 0.638 0.0
H934 H 0.69775 0.546 0.57287 0.0
H935 H 0.66495 0.57556 0.60809 0.0
H936 H 0.60849 0.58878 0.37406 0.0
C937 C 0.57039 0.67171 0.47353 0.0
C938 C 0.62029 0.63568 0.58078 0.0
C939 C 0.55344 0.69094 0.49177 0.0
C940 C 0.68706 0.55347 0.51385 0.0
C941 C 0.66834 0.57078 0.53417 0.0
C942 C 0.61229 0.60193 0.43109 0.0
C943 C 0.57943 0.65679 0.5481 0.0
C944 C 0.59806 0.63699 0.52787 0.0
C945 C 0.65414 0.58158 0.46059 0.0
C946 C 0.63475 0.60073 0.4833 0.0
H947 H 0.54752 0.68347 0.73238 0.0
H948 H 0.57782 0.65007 0.70031 0.0
H949 H 0.57712 0.62052 0.41123 0.0
H950 H 0.68078 0.55115 0.27197 0.0
H951 H 0.64857 0.58225 0.3071 0.0
loop_
_geom_bond_atom_site_label_1
_geom_bond_atom_site_label_2
_geom_bond_distance
_geom_bond_site_symmetry_2
_ccdc_geom_bond_type
Co0 O2 2.143 . S
Co0 O8 2.074 . S
Co0 O11 2.093 . S
Co0 O24 2.097 . S
Co0 N41 2.151 . S
Co0 N49 2.214 . S
Co1 O2 2.160 . S
Co1 O7 2.058 . S
Co1 O17 2.057 . S
Co1 O32 2.037 . S
Co1 N36 2.145 . S
Co1 N57 2.257 . S
O2 Co0 2.143 . S
O2 Co1 2.160 . S
C3 O4 1.278 . S
C3 O11 1.224 . S
O4 C3 1.278 . S
C5 O6 1.245 . S
C5 O17 1.232 . S
O6 C5 1.245 . S
O7 Co1 2.058 . S
O7 C33 1.269 . S
O8 Co0 2.074 . S
O8 C33 1.257 . S
H9 C34 0.930 . S
H10 C40 0.930 . S
O11 Co0 2.093 . S
O11 C3 1.224 . S
H12 C44 0.929 . S
H13 C46 0.930 . S
H14 C47 0.930 . S
H15 C45 0.929 . S
H16 C48 0.928 . S
O17 Co1 2.057 . S
O17 C5 1.232 . S
H18 C37 0.929 . S
H19 C38 0.929 . S
H20 C50 0.931 . S
H21 C42 0.929 . S
H22 C51 0.930 . S
H23 C43 0.931 . S
O24 Co0 2.097 . S
O24 C52 1.214 . S
H25 C53 0.929 . S
H26 C54 0.929 . S
H27 C55 0.930 . S
H28 C56 0.929 . S
H29 C58 0.930 . S
H30 C35 0.930 . S
H31 C39 0.930 . S
O32 Co1 2.037 . S
O32 C52 1.234 . S
C33 O7 1.269 . S
C33 O8 1.257 . S
C34 H9 0.930 . S
C34 C37 1.388 . S
C34 C39 1.418 1_554 S
C35 H30 0.930 . S
C35 C38 1.404 1_556 S
C35 C39 1.353 . S
N36 Co1 2.145 . S
N36 C37 1.397 . S
N36 C38 1.334 . S
C37 H18 0.929 . S
C37 C34 1.388 . S
C37 N36 1.397 . S
C38 H19 0.929 . S
C38 C35 1.404 1_554 S
C38 N36 1.334 . S
C39 H31 0.930 . S
C39 C34 1.418 1_556 S
C39 C35 1.353 . S
C40 H10 0.930 . S
C40 N41 1.330 . S
C40 C42 1.446 . S
N41 Co0 2.151 . S
N41 C40 1.330 . S
N41 C45 1.418 . S
C42 H21 0.929 . S
C42 C40 1.446 . S
C42 C43 1.332 . S
C43 H23 0.931 . S
C43 C42 1.332 . S
C43 C44 1.267 . S
C44 H12 0.929 . S
C44 C43 1.267 . S
C44 C45 1.251 . S
C45 H15 0.929 . S
C45 N41 1.418 . S
C45 C44 1.251 . S
C46 H13 0.930 . S
C46 C48 1.406 . S
C46 C51 1.261 . S
C47 H14 0.930 . S
C47 N49 1.325 . S
C47 C50 1.357 . S
C48 H16 0.928 . S
C48 C46 1.406 . S
C48 N49 1.261 . S
N49 Co0 2.214 . S
N49 C47 1.325 . S
N49 C48 1.261 . S
C50 H20 0.931 . S
C50 C47 1.357 . S
C50 C51 1.312 . S
C51 H22 0.930 . S
C51 C46 1.261 . S
C51 C50 1.312 . S
C52 O24 1.214 . S
C52 O32 1.234 . S
C53 H25 0.929 . S
C53 C56 1.391 . S
C53 C58 1.391 . S
C54 H26 0.929 . S
C54 C55 1.390 . S
C54 N57 1.391 . S
C55 H27 0.930 . S
C55 C54 1.390 . S
C55 C56 1.392 . S
C56 H28 0.929 . S
C56 C53 1.391 . S
C56 C55 1.392 . S
N57 Co1 2.257 . S
N57 C54 1.391 . S
N57 C58 1.388 . S
C58 H29 0.930 . S
C58 C53 1.391 . S
C58 N57 1.388 . S
Co59 O61 2.143 . S
Co59 O67 2.074 . S
Co59 O70 2.093 . S
Co59 O83 2.097 . S
Co59 N100 2.151 . S
Co59 N108 2.214 . S
Co60 O61 2.160 . S
Co60 O66 2.058 . S
Co60 O76 2.057 . S
Co60 O91 2.037 . S
Co60 N95 2.145 . S
Co60 N116 2.257 . S
O61 Co59 2.143 . S
O61 Co60 2.160 . S
C62 O63 1.278 . S
C62 O70 1.224 . S
O63 C62 1.278 . S
C64 O65 1.245 . S
C64 O76 1.232 . S
O65 C64 1.245 . S
O66 Co60 2.058 . S
O66 C92 1.269 . S
O67 Co59 2.074 . S
O67 C92 1.257 . S
H68 C93 0.930 . S
H69 C99 0.930 . S
O70 Co59 2.093 . S
O70 C62 1.224 . S
H71 C103 0.929 . S
H72 C105 0.930 . S
H73 C106 0.930 . S
H74 C104 0.929 . S
H75 C107 0.928 . S
O76 Co60 2.057 . S
O76 C64 1.232 . S
H77 C96 0.929 . S
H78 C97 0.929 . S
H79 C109 0.931 . S
H80 C101 0.929 . S
H81 C110 0.930 . S
H82 C102 0.931 . S
O83 Co59 2.097 . S
O83 C111 1.214 . S
H84 C112 0.929 . S
H85 C113 0.929 . S
H86 C114 0.930 . S
H87 C115 0.929 . S
H88 C117 0.930 . S
H89 C94 0.930 . S
H90 C98 0.930 . S
O91 Co60 2.037 . S
O91 C111 1.234 . S
C92 O66 1.269 . S
C92 O67 1.257 . S
C93 H68 0.930 . S
C93 C96 1.388 . S
C93 C98 1.418 1_556 S
C94 H89 0.930 . S
C94 C97 1.404 1_554 S
C94 C98 1.353 . S
N95 Co60 2.145 . S
N95 C96 1.397 . S
N95 C97 1.334 . S
C96 H77 0.929 . S
C96 C93 1.388 . S
C96 N95 1.397 . S
C97 H78 0.929 . S
C97 C94 1.404 1_556 S
C97 N95 1.334 . S
C98 H90 0.930 . S
C98 C93 1.418 1_554 S
C98 C94 1.353 . S
C99 H69 0.930 . S
C99 N100 1.330 . S
C99 C101 1.446 . S
N100 Co59 2.151 . S
N100 C99 1.330 . S
N100 C104 1.418 . S
C101 H80 0.929 . S
C101 C99 1.446 . S
C101 C102 1.332 . S
C102 H82 0.931 . S
C102 C101 1.332 . S
C102 C103 1.267 . S
C103 H71 0.929 . S
C103 C102 1.267 . S
C103 C104 1.251 . S
C104 H74 0.929 . S
C104 N100 1.418 . S
C104 C103 1.251 . S
C105 H72 0.930 . S
C105 C107 1.406 . S
C105 C110 1.261 . S
C106 H73 0.930 . S
C106 N108 1.325 . S
C106 C109 1.357 . S
C107 H75 0.928 . S
C107 C105 1.406 . S
C107 N108 1.261 . S
N108 Co59 2.214 . S
N108 C106 1.325 . S
N108 C107 1.261 . S
C109 H79 0.931 . S
C109 C106 1.357 . S
C109 C110 1.312 . S
C110 H81 0.930 . S
C110 C105 1.261 . S
C110 C109 1.312 . S
C111 O83 1.214 . S
C111 O91 1.234 . S
C112 H84 0.929 . S
C112 C115 1.391 . S
C112 C117 1.391 . S
C113 H85 0.929 . S
C113 C114 1.390 . S
C113 N116 1.391 . S
C114 H86 0.930 . S
C114 C113 1.390 . S
C114 C115 1.392 . S
C115 H87 0.929 . S
C115 C112 1.391 . S
C115 C114 1.392 . S
N116 Co60 2.257 . S
N116 C113 1.391 . S
N116 C117 1.388 . S
C117 H88 0.930 . S
C117 C112 1.391 . S
C117 N116 1.388 . S
Co118 O120 2.143 1_545 S
Co118 O126 2.074 . S
Co118 O129 2.093 1_545 S
Co118 O142 2.097 . S
Co118 N159 2.151 1_545 S
Co118 N167 2.214 . S
Co119 O120 2.157 . S
Co119 O125 2.061 1_565 S
Co119 O135 2.053 1_556 S
Co119 O150 2.040 1_565 S
Co119 N154 2.147 1_566 S
Co119 N175 2.254 1_556 S
O120 Co118 2.143 1_565 S
O120 Co119 2.157 . S
C121 O122 1.278 . S
C121 O129 1.224 . S
O122 C121 1.278 . S
C123 O124 1.245 . S
C123 O135 1.232 1_556 S
O124 C123 1.245 . S
O125 Co119 2.061 1_545 S
O125 C151 1.269 . S
O126 Co118 2.074 . S
O126 C151 1.257 . S
H127 C152 0.930 . S
H128 C158 0.930 . S
O129 Co118 2.093 1_565 S
O129 C121 1.224 . S
H130 C162 0.929 . S
H131 C164 0.930 . S
H132 C165 0.930 . S
H133 C163 0.929 1_545 S
H134 C166 0.928 . S
O135 Co119 2.053 1_554 S
O135 C123 1.232 1_554 S
H136 C155 0.929 . S
H137 C156 0.929 1_565 S
H138 C168 0.931 . S
H139 C160 0.929 . S
H140 C169 0.930 . S
H141 C161 0.931 . S
O142 Co118 2.097 . S
O142 C170 1.214 . S
H143 C171 0.929 . S
H144 C172 0.929 1_545 S
H145 C173 0.930 . S
H146 C174 0.929 . S
H147 C176 0.930 . S
H148 C153 0.930 . S
H149 C157 0.930 . S
O150 Co119 2.040 1_545 S
O150 C170 1.234 . S
C151 O125 1.269 . S
C151 O126 1.257 . S
C152 H127 0.930 . S
C152 C155 1.388 . S
C152 C157 1.418 . S
C153 H148 0.930 . S
C153 C156 1.404 . S
C153 C157 1.353 . S
N154 Co119 2.147 1_544 S
N154 C155 1.397 . S
N154 C156 1.334 . S
C155 H136 0.929 . S
C155 C152 1.388 . S
C155 N154 1.397 . S
C156 H137 0.929 1_545 S
C156 C153 1.404 . S
C156 N154 1.334 . S
C157 H149 0.930 . S
C157 C152 1.418 . S
C157 C153 1.353 . S
C158 H128 0.930 . S
C158 N159 1.330 . S
C158 C160 1.446 . S
N159 Co118 2.151 1_565 S
N159 C158 1.330 . S
N159 C163 1.418 . S
C160 H139 0.929 . S
C160 C158 1.446 . S
C160 C161 1.332 . S
C161 H141 0.931 . S
C161 C160 1.332 . S
C161 C162 1.267 . S
C162 H130 0.929 . S
C162 C161 1.267 . S
C162 C163 1.251 . S
C163 H133 0.929 1_565 S
C163 N159 1.418 . S
C163 C162 1.251 . S
C164 H131 0.930 . S
C164 C166 1.406 . S
C164 C169 1.261 . S
C165 H132 0.930 . S
C165 N167 1.325 . S
C165 C168 1.357 . S
C166 H134 0.928 . S
C166 C164 1.406 . S
C166 N167 1.261 . S
N167 Co118 2.214 . S
N167 C165 1.325 . S
N167 C166 1.261 . S
C168 H138 0.931 . S
C168 C165 1.357 . S
C168 C169 1.312 . S
C169 H140 0.930 . S
C169 C164 1.261 . S
C169 C168 1.312 . S
C170 O142 1.214 . S
C170 O150 1.234 . S
C171 H143 0.929 . S
C171 C174 1.391 . S
C171 C176 1.391 . S
C172 H144 0.929 1_565 S
C172 C173 1.390 . S
C172 N175 1.391 . S
C173 H145 0.930 . S
C173 C172 1.390 . S
C173 C174 1.392 . S
C174 H146 0.929 . S
C174 C171 1.391 . S
C174 C173 1.392 . S
N175 Co119 2.254 1_554 S
N175 C172 1.391 . S
N175 C176 1.388 . S
C176 H147 0.930 . S
C176 C171 1.391 . S
C176 N175 1.388 . S
Co177 O179 2.143 1_655 S
Co177 O185 2.074 . S
Co177 O188 2.093 1_655 S
Co177 O201 2.097 . S
Co177 N218 2.151 1_655 S
Co177 N226 2.214 . S
Co178 O179 2.157 . S
Co178 O184 2.061 1_455 S
Co178 O194 2.053 1_554 S
Co178 O209 2.040 1_455 S
Co178 N213 2.147 1_454 S
Co178 N234 2.254 1_554 S
O179 Co177 2.143 1_455 S
O179 Co178 2.157 . S
C180 O181 1.278 . S
C180 O188 1.224 . S
O181 C180 1.278 . S
C182 O183 1.245 . S
C182 O194 1.232 1_554 S
O183 C182 1.245 . S
O184 Co178 2.061 1_655 S
O184 C210 1.269 . S
O185 Co177 2.074 . S
O185 C210 1.257 . S
H186 C211 0.930 . S
H187 C217 0.930 . S
O188 Co177 2.093 1_455 S
O188 C180 1.224 . S
H189 C221 0.929 . S
H190 C223 0.930 . S
H191 C224 0.930 . S
H192 C222 0.929 1_655 S
H193 C225 0.928 . S
O194 Co178 2.053 1_556 S
O194 C182 1.232 1_556 S
H195 C214 0.929 . S
H196 C215 0.929 1_455 S
H197 C227 0.931 . S
H198 C219 0.929 . S
H199 C228 0.930 . S
H200 C220 0.931 . S
O201 Co177 2.097 . S
O201 C229 1.214 . S
H202 C230 0.929 . S
H203 C231 0.929 1_655 S
H204 C232 0.930 . S
H205 C233 0.929 . S
H206 C235 0.930 . S
H207 C212 0.930 . S
H208 C216 0.930 . S
O209 Co178 2.040 1_655 S
O209 C229 1.234 . S
C210 O184 1.269 . S
C210 O185 1.257 . S
C211 H186 0.930 . S
C211 C214 1.388 . S
C211 C216 1.418 . S
C212 H207 0.930 . S
C212 C215 1.404 . S
C212 C216 1.353 . S
N213 Co178 2.147 1_656 S
N213 C214 1.397 . S
N213 C215 1.334 . S
C214 H195 0.929 . S
C214 C211 1.388 . S
C214 N213 1.397 . S
C215 H196 0.929 1_655 S
C215 C212 1.404 . S
C215 N213 1.334 . S
C216 H208 0.930 . S
C216 C211 1.418 . S
C216 C212 1.353 . S
C217 H187 0.930 . S
C217 N218 1.330 . S
C217 C219 1.446 . S
N218 Co177 2.151 1_455 S
N218 C217 1.330 . S
N218 C222 1.418 . S
C219 H198 0.929 . S
C219 C217 1.446 . S
C219 C220 1.332 . S
C220 H200 0.931 . S
C220 C219 1.332 . S
C220 C221 1.267 . S
C221 H189 0.929 . S
C221 C220 1.267 . S
C221 C222 1.251 . S
C222 H192 0.929 1_455 S
C222 N218 1.418 . S
C222 C221 1.251 . S
C223 H190 0.930 . S
C223 C225 1.406 . S
C223 C228 1.261 . S
C224 H191 0.930 . S
C224 N226 1.325 . S
C224 C227 1.357 . S
C225 H193 0.928 . S
C225 C223 1.406 . S
C225 N226 1.261 . S
N226 Co177 2.214 . S
N226 C224 1.325 . S
N226 C225 1.261 . S
C227 H197 0.931 . S
C227 C224 1.357 . S
C227 C228 1.312 . S
C228 H199 0.930 . S
C228 C223 1.261 . S
C228 C227 1.312 . S
C229 O201 1.214 . S
C229 O209 1.234 . S
C230 H202 0.929 . S
C230 C233 1.391 . S
C230 C235 1.391 . S
C231 H203 0.929 1_455 S
C231 C232 1.390 . S
C231 N234 1.391 . S
C232 H204 0.930 . S
C232 C231 1.390 . S
C232 C233 1.392 . S
C233 H205 0.929 . S
C233 C230 1.391 . S
C233 C232 1.392 . S
N234 Co178 2.254 1_556 S
N234 C231 1.391 . S
N234 C235 1.388 . S
C235 H206 0.930 . S
C235 C230 1.391 . S
C235 N234 1.388 . S
Co236 O238 2.143 1_564 S
Co236 O244 2.074 1_554 S
Co236 O247 2.093 1_565 S
Co236 O260 2.097 1_554 S
Co236 N277 2.151 1_565 S
Co236 N285 2.214 . S
Co237 O238 2.163 . S
Co237 O243 2.055 1_545 S
Co237 O253 2.062 . S
Co237 O268 2.033 1_545 S
Co237 N272 2.142 1_545 S
Co237 N293 2.260 . S
O238 Co236 2.143 1_546 S
O238 Co237 2.163 . S
C239 O240 1.278 . S
C239 O247 1.224 1_556 S
O240 C239 1.278 . S
C241 O242 1.245 . S
C241 O253 1.232 . S
O242 C241 1.245 . S
O243 Co237 2.055 1_565 S
O243 C269 1.269 . S
O244 Co236 2.074 1_556 S
O244 C269 1.257 . S
H245 C270 0.930 . S
H246 C276 0.930 . S
O247 Co236 2.093 1_545 S
O247 C239 1.224 1_554 S
H248 C280 0.929 . S
H249 C282 0.930 . S
H250 C283 0.930 . S
H251 C281 0.929 1_565 S
H252 C284 0.928 . S
O253 Co237 2.062 . S
O253 C241 1.232 . S
H254 C273 0.929 . S
H255 C274 0.929 1_545 S
H256 C286 0.931 . S
H257 C278 0.929 . S
H258 C287 0.930 . S
H259 C279 0.931 . S
O260 Co236 2.097 1_556 S
O260 C288 1.214 . S
H261 C289 0.929 . S
H262 C290 0.929 1_565 S
H263 C291 0.930 . S
H264 C292 0.929 . S
H265 C294 0.930 . S
H266 C271 0.930 . S
H267 C275 0.930 . S
O268 Co237 2.033 1_565 S
O268 C288 1.234 . S
C269 O243 1.269 . S
C269 O244 1.257 . S
C270 H245 0.930 . S
C270 C273 1.388 . S
C270 C275 1.418 . S
C271 H266 0.930 . S
C271 C274 1.404 . S
C271 C275 1.353 . S
N272 Co237 2.142 1_565 S
N272 C273 1.397 . S
N272 C274 1.334 . S
C273 H254 0.929 . S
C273 C270 1.388 . S
C273 N272 1.397 . S
C274 H255 0.929 1_565 S
C274 C271 1.404 . S
C274 N272 1.334 . S
C275 H267 0.930 . S
C275 C270 1.418 . S
C275 C271 1.353 . S
C276 H246 0.930 . S
C276 N277 1.330 . S
C276 C278 1.446 . S
N277 Co236 2.151 1_545 S
N277 C276 1.330 . S
N277 C281 1.418 . S
C278 H257 0.929 . S
C278 C276 1.446 . S
C278 C279 1.332 . S
C279 H259 0.931 . S
C279 C278 1.332 . S
C279 C280 1.267 . S
C280 H248 0.929 . S
C280 C279 1.267 . S
C280 C281 1.251 . S
C281 H251 0.929 1_545 S
C281 N277 1.418 . S
C281 C280 1.251 . S
C282 H249 0.930 . S
C282 C284 1.406 . S
C282 C287 1.261 . S
C283 H250 0.930 . S
C283 N285 1.325 . S
C283 C286 1.357 . S
C284 H252 0.928 . S
C284 C282 1.406 . S
C284 N285 1.261 . S
N285 Co236 2.214 . S
N285 C283 1.325 . S
N285 C284 1.261 . S
C286 H256 0.931 . S
C286 C283 1.357 . S
C286 C287 1.312 . S
C287 H258 0.930 . S
C287 C282 1.261 . S
C287 C286 1.312 . S
C288 O260 1.214 . S
C288 O268 1.234 . S
C289 H261 0.929 . S
C289 C292 1.391 . S
C289 C294 1.391 . S
C290 H262 0.929 1_545 S
C290 C291 1.390 . S
C290 N293 1.391 . S
C291 H263 0.930 . S
C291 C290 1.390 . S
C291 C292 1.392 . S
C292 H264 0.929 . S
C292 C289 1.391 . S
C292 C291 1.392 . S
N293 Co237 2.260 . S
N293 C290 1.391 . S
N293 C294 1.388 . S
C294 H265 0.930 . S
C294 C289 1.391 . S
C294 N293 1.388 . S
Co295 O297 2.143 1_456 S
Co295 O303 2.074 1_556 S
Co295 O306 2.093 1_455 S
Co295 O319 2.097 1_556 S
Co295 N336 2.151 1_455 S
Co295 N344 2.214 . S
Co296 O297 2.163 . S
Co296 O302 2.055 1_655 S
Co296 O312 2.062 . S
Co296 O327 2.033 1_655 S
Co296 N331 2.142 1_655 S
Co296 N352 2.260 . S
O297 Co295 2.143 1_654 S
O297 Co296 2.163 . S
C298 O299 1.278 . S
C298 O306 1.224 1_554 S
O299 C298 1.278 . S
C300 O301 1.245 . S
C300 O312 1.232 . S
O301 C300 1.245 . S
O302 Co296 2.055 1_455 S
O302 C328 1.269 . S
O303 Co295 2.074 1_554 S
O303 C328 1.257 . S
H304 C329 0.930 . S
H305 C335 0.930 . S
O306 Co295 2.093 1_655 S
O306 C298 1.224 1_556 S
H307 C339 0.929 . S
H308 C341 0.930 . S
H309 C342 0.930 . S
H310 C340 0.929 1_455 S
H311 C343 0.928 . S
O312 Co296 2.062 . S
O312 C300 1.232 . S
H313 C332 0.929 . S
H314 C333 0.929 1_655 S
H315 C345 0.931 . S
H316 C337 0.929 . S
H317 C346 0.930 . S
H318 C338 0.931 . S
O319 Co295 2.097 1_554 S
O319 C347 1.214 . S
H320 C348 0.929 . S
H321 C349 0.929 1_455 S
H322 C350 0.930 . S
H323 C351 0.929 . S
H324 C353 0.930 . S
H325 C330 0.930 . S
H326 C334 0.930 . S
O327 Co296 2.033 1_455 S
O327 C347 1.234 . S
C328 O302 1.269 . S
C328 O303 1.257 . S
C329 H304 0.930 . S
C329 C332 1.388 . S
C329 C334 1.418 . S
C330 H325 0.930 . S
C330 C333 1.404 . S
C330 C334 1.353 . S
N331 Co296 2.142 1_455 S
N331 C332 1.397 . S
N331 C333 1.334 . S
C332 H313 0.929 . S
C332 C329 1.388 . S
C332 N331 1.397 . S
C333 H314 0.929 1_455 S
C333 C330 1.404 . S
C333 N331 1.334 . S
C334 H326 0.930 . S
C334 C329 1.418 . S
C334 C330 1.353 . S
C335 H305 0.930 . S
C335 N336 1.330 . S
C335 C337 1.446 . S
N336 Co295 2.151 1_655 S
N336 C335 1.330 . S
N336 C340 1.418 . S
C337 H316 0.929 . S
C337 C335 1.446 . S
C337 C338 1.332 . S
C338 H318 0.931 . S
C338 C337 1.332 . S
C338 C339 1.267 . S
C339 H307 0.929 . S
C339 C338 1.267 . S
C339 C340 1.251 . S
C340 H310 0.929 1_655 S
C340 N336 1.418 . S
C340 C339 1.251 . S
C341 H308 0.930 . S
C341 C343 1.406 . S
C341 C346 1.261 . S
C342 H309 0.930 . S
C342 N344 1.325 . S
C342 C345 1.357 . S
C343 H311 0.928 . S
C343 C341 1.406 . S
C343 N344 1.261 . S
N344 Co295 2.214 . S
N344 C342 1.325 . S
N344 C343 1.261 . S
C345 H315 0.931 . S
C345 C342 1.357 . S
C345 C346 1.312 . S
C346 H317 0.930 . S
C346 C341 1.261 . S
C346 C345 1.312 . S
C347 O319 1.214 . S
C347 O327 1.234 . S
C348 H320 0.929 . S
C348 C351 1.391 . S
C348 C353 1.391 . S
C349 H321 0.929 1_655 S
C349 C350 1.390 . S
C349 N352 1.391 . S
C350 H322 0.930 . S
C350 C349 1.390 . S
C350 C351 1.392 . S
C351 H323 0.929 . S
C351 C348 1.391 . S
C351 C350 1.392 . S
N352 Co296 2.260 . S
N352 C349 1.391 . S
N352 C353 1.388 . S
C353 H324 0.930 . S
C353 C348 1.391 . S
C353 N352 1.388 . S
Co354 O356 2.143 . S
Co354 O362 2.074 . S
Co354 O365 2.093 . S
Co354 O378 2.097 . S
Co354 N395 2.151 . S
Co354 N403 2.214 . S
Co355 O356 2.160 . S
Co355 O361 2.058 . S
Co355 O371 2.057 . S
Co355 O386 2.037 . S
Co355 N390 2.145 . S
Co355 N411 2.257 . S
O356 Co354 2.143 . S
O356 Co355 2.160 . S
C357 O358 1.278 . S
C357 O365 1.224 . S
O358 C357 1.278 . S
C359 O360 1.245 . S
C359 O371 1.232 . S
O360 C359 1.245 . S
O361 Co355 2.058 . S
O361 C387 1.269 . S
O362 Co354 2.074 . S
O362 C387 1.257 . S
H363 C388 0.930 . S
H364 C394 0.930 . S
O365 Co354 2.093 . S
O365 C357 1.224 . S
H366 C398 0.929 1_556 S
H367 C400 0.930 . S
H368 C401 0.930 . S
H369 C399 0.929 . S
H370 C402 0.928 . S
O371 Co355 2.057 . S
O371 C359 1.232 . S
H372 C391 0.929 . S
H373 C392 0.929 . S
H374 C404 0.931 . S
H375 C396 0.929 . S
H376 C405 0.930 . S
H377 C397 0.931 1_556 S
O378 Co354 2.097 . S
O378 C406 1.214 . S
H379 C407 0.929 . S
H380 C408 0.929 . S
H381 C409 0.930 . S
H382 C410 0.929 . S
H383 C412 0.930 . S
H384 C389 0.930 . S
H385 C393 0.930 . S
O386 Co355 2.037 . S
O386 C406 1.234 . S
C387 O361 1.269 . S
C387 O362 1.257 . S
C388 H363 0.930 . S
C388 C391 1.388 . S
C388 C393 1.418 . S
C389 H384 0.930 . S
C389 C392 1.404 . S
C389 C393 1.353 . S
N390 Co355 2.145 . S
N390 C391 1.397 . S
N390 C392 1.334 . S
C391 H372 0.929 . S
C391 C388 1.388 . S
C391 N390 1.397 . S
C392 H373 0.929 . S
C392 C389 1.404 . S
C392 N390 1.334 . S
C393 H385 0.930 . S
C393 C388 1.418 . S
C393 C389 1.353 . S
C394 H364 0.930 . S
C394 N395 1.330 . S
C394 C396 1.446 . S
N395 Co354 2.151 . S
N395 C394 1.330 . S
N395 C399 1.418 . S
C396 H375 0.929 . S
C396 C394 1.446 . S
C396 C397 1.332 . S
C397 H377 0.931 1_554 S
C397 C396 1.332 . S
C397 C398 1.267 . S
C398 H366 0.929 1_554 S
C398 C397 1.267 . S
C398 C399 1.251 . S
C399 H369 0.929 . S
C399 N395 1.418 . S
C399 C398 1.251 . S
C400 H367 0.930 . S
C400 C402 1.406 1_556 S
C400 C405 1.261 . S
C401 H368 0.930 . S
C401 N403 1.325 . S
C401 C404 1.357 . S
C402 H370 0.928 . S
C402 C400 1.406 1_554 S
C402 N403 1.261 . S
N403 Co354 2.214 . S
N403 C401 1.325 . S
N403 C402 1.261 . S
C404 H374 0.931 . S
C404 C401 1.357 . S
C404 C405 1.312 1_554 S
C405 H376 0.930 . S
C405 C400 1.261 . S
C405 C404 1.312 1_556 S
C406 O378 1.214 . S
C406 O386 1.234 . S
C407 H379 0.929 . S
C407 C410 1.391 . S
C407 C412 1.391 . S
C408 H380 0.929 . S
C408 C409 1.390 . S
C408 N411 1.391 . S
C409 H381 0.930 . S
C409 C408 1.390 . S
C409 C410 1.392 . S
C410 H382 0.929 . S
C410 C407 1.391 . S
C410 C409 1.392 . S
N411 Co355 2.257 . S
N411 C408 1.391 . S
N411 C412 1.388 . S
C412 H383 0.930 . S
C412 C407 1.391 . S
C412 N411 1.388 . S
Co413 O415 2.143 . S
Co413 O421 2.074 . S
Co413 O424 2.093 . S
Co413 O437 2.097 . S
Co413 N454 2.151 . S
Co413 N462 2.214 . S
Co414 O415 2.160 . S
Co414 O420 2.058 . S
Co414 O430 2.057 . S
Co414 O445 2.037 . S
Co414 N449 2.145 . S
Co414 N470 2.257 . S
O415 Co413 2.143 . S
O415 Co414 2.160 . S
C416 O417 1.278 . S
C416 O424 1.224 . S
O417 C416 1.278 . S
C418 O419 1.245 . S
C418 O430 1.232 . S
O419 C418 1.245 . S
O420 Co414 2.058 . S
O420 C446 1.269 . S
O421 Co413 2.074 . S
O421 C446 1.257 . S
H422 C447 0.930 . S
H423 C453 0.930 . S
O424 Co413 2.093 . S
O424 C416 1.224 . S
H425 C457 0.929 1_554 S
H426 C459 0.930 . S
H427 C460 0.930 . S
H428 C458 0.929 . S
H429 C461 0.928 . S
O430 Co414 2.057 . S
O430 C418 1.232 . S
H431 C450 0.929 . S
H432 C451 0.929 . S
H433 C463 0.931 . S
H434 C455 0.929 . S
H435 C464 0.930 . S
H436 C456 0.931 1_554 S
O437 Co413 2.097 . S
O437 C465 1.214 . S
H438 C466 0.929 . S
H439 C467 0.929 . S
H440 C468 0.930 . S
H441 C469 0.929 . S
H442 C471 0.930 . S
H443 C448 0.930 . S
H444 C452 0.930 . S
O445 Co414 2.037 . S
O445 C465 1.234 . S
C446 O420 1.269 . S
C446 O421 1.257 . S
C447 H422 0.930 . S
C447 C450 1.388 . S
C447 C452 1.418 . S
C448 H443 0.930 . S
C448 C451 1.404 . S
C448 C452 1.353 . S
N449 Co414 2.145 . S
N449 C450 1.397 . S
N449 C451 1.334 . S
C450 H431 0.929 . S
C450 C447 1.388 . S
C450 N449 1.397 . S
C451 H432 0.929 . S
C451 C448 1.404 . S
C451 N449 1.334 . S
C452 H444 0.930 . S
C452 C447 1.418 . S
C452 C448 1.353 . S
C453 H423 0.930 . S
C453 N454 1.330 . S
C453 C455 1.446 . S
N454 Co413 2.151 . S
N454 C453 1.330 . S
N454 C458 1.418 . S
C455 H434 0.929 . S
C455 C453 1.446 . S
C455 C456 1.332 . S
C456 H436 0.931 1_556 S
C456 C455 1.332 . S
C456 C457 1.267 . S
C457 H425 0.929 1_556 S
C457 C456 1.267 . S
C457 C458 1.251 . S
C458 H428 0.929 . S
C458 N454 1.418 . S
C458 C457 1.251 . S
C459 H426 0.930 . S
C459 C461 1.406 1_554 S
C459 C464 1.261 . S
C460 H427 0.930 . S
C460 N462 1.325 . S
C460 C463 1.357 . S
C461 H429 0.928 . S
C461 C459 1.406 1_556 S
C461 N462 1.261 . S
N462 Co413 2.214 . S
N462 C460 1.325 . S
N462 C461 1.261 . S
C463 H433 0.931 . S
C463 C460 1.357 . S
C463 C464 1.312 1_556 S
C464 H435 0.930 . S
C464 C459 1.261 . S
C464 C463 1.312 1_554 S
C465 O437 1.214 . S
C465 O445 1.234 . S
C466 H438 0.929 . S
C466 C469 1.391 . S
C466 C471 1.391 . S
C467 H439 0.929 . S
C467 C468 1.390 . S
C467 N470 1.391 . S
C468 H440 0.930 . S
C468 C467 1.390 . S
C468 C469 1.392 . S
C469 H441 0.929 . S
C469 C466 1.391 . S
C469 C468 1.392 . S
N470 Co414 2.257 . S
N470 C467 1.391 . S
N470 C471 1.388 . S
C471 H442 0.930 . S
C471 C466 1.391 . S
C471 N470 1.388 . S
C472 C473 1.349 . S
C472 C474 1.327 . S
C472 H497 0.950 . S
C473 C472 1.349 . S
C473 C489 1.349 . S
C474 C472 1.327 . S
C474 C493 1.429 . S
C474 H498 0.950 . S
C475 C492 1.574 . S
C475 C494 1.368 . S
C475 H499 0.949 . S
H476 C480 0.949 . S
C477 C478 1.349 . S
C477 C479 1.327 . S
C477 H500 0.950 . S
C478 C477 1.349 . S
C478 C490 1.349 . S
C479 C477 1.327 . S
C479 C495 1.429 . S
C479 H501 0.950 . S
C480 H476 0.949 . S
C480 C488 1.574 . S
C480 C496 1.368 . S
H481 C489 0.950 . S
H482 C487 0.950 . S
H483 C488 0.949 . S
H484 C490 0.950 . S
H485 C491 0.950 . S
H486 C492 0.949 . S
C487 H482 0.950 . S
C487 C489 1.327 . S
C487 C493 1.429 . S
C488 C480 1.574 . S
C488 H483 0.949 . S
C488 C494 1.368 1_554 S
C489 C473 1.349 . S
C489 H481 0.950 . S
C489 C487 1.327 . S
C490 C478 1.349 . S
C490 H484 0.950 . S
C490 C491 1.327 . S
C491 H485 0.950 . S
C491 C490 1.327 . S
C491 C495 1.429 . S
C492 C475 1.574 . S
C492 H486 0.949 . S
C492 C496 1.368 1_556 S
C493 C474 1.429 . S
C493 C487 1.429 . S
C493 C494 1.523 . S
C494 C475 1.368 . S
C494 C488 1.368 1_556 S
C494 C493 1.523 . S
C495 C479 1.429 . S
C495 C491 1.429 . S
C495 C496 1.523 . S
C496 C480 1.368 . S
C496 C492 1.368 1_554 S
C496 C495 1.523 . S
H497 C472 0.950 . S
H498 C474 0.950 . S
H499 C475 0.949 . S
H500 C477 0.950 . S
H501 C479 0.950 . S
C502 C503 1.349 . S
C502 C504 1.327 . S
C502 H527 0.950 . S
C503 C502 1.349 . S
C503 C519 1.349 . S
C504 C502 1.327 . S
C504 C523 1.429 . S
C504 H528 0.950 . S
C505 C522 1.574 . S
C505 C524 1.368 . S
C505 H529 0.949 . S
H506 C510 0.949 . S
C507 C508 1.349 . S
C507 C509 1.327 . S
C507 H530 0.950 . S
C508 C507 1.349 . S
C508 C520 1.349 . S
C509 C507 1.327 . S
C509 C525 1.429 . S
C509 H531 0.950 . S
C510 H506 0.949 . S
C510 C518 1.574 . S
C510 C526 1.368 . S
H511 C519 0.950 . S
H512 C517 0.950 . S
H513 C518 0.949 . S
H514 C520 0.950 1_556 S
H515 C521 0.950 . S
H516 C522 0.949 . S
C517 H512 0.950 . S
C517 C519 1.327 . S
C517 C523 1.429 . S
C518 C510 1.574 . S
C518 H513 0.949 . S
C518 C524 1.368 . S
C519 C503 1.349 . S
C519 H511 0.950 . S
C519 C517 1.327 . S
C520 C508 1.349 . S
C520 H514 0.950 1_554 S
C520 C521 1.327 . S
C521 H515 0.950 . S
C521 C520 1.327 . S
C521 C525 1.429 . S
C522 C505 1.574 . S
C522 H516 0.949 . S
C522 C526 1.368 . S
C523 C504 1.429 . S
C523 C517 1.429 . S
C523 C524 1.523 . S
C524 C505 1.368 . S
C524 C518 1.368 . S
C524 C523 1.523 . S
C525 C509 1.429 . S
C525 C521 1.429 . S
C525 C526 1.523 . S
C526 C510 1.368 . S
C526 C522 1.368 . S
C526 C525 1.523 . S
H527 C502 0.950 . S
H528 C504 0.950 . S
H529 C505 0.949 . S
H530 C507 0.950 . S
H531 C509 0.950 . S
C532 C533 1.349 . S
C532 C534 1.327 . S
C532 H557 0.950 . S
C533 C532 1.349 . S
C533 C549 1.349 . S
C534 C532 1.327 . S
C534 C553 1.429 . S
C534 H558 0.950 . S
C535 C552 1.574 . S
C535 C554 1.368 . S
C535 H559 0.949 . S
H536 C540 0.949 . S
C537 C538 1.349 . S
C537 C539 1.327 . S
C537 H560 0.950 . S
C538 C537 1.349 . S
C538 C550 1.349 . S
C539 C537 1.327 . S
C539 C555 1.429 . S
C539 H561 0.950 . S
C540 H536 0.949 . S
C540 C548 1.574 . S
C540 C556 1.368 . S
H541 C549 0.950 . S
H542 C547 0.950 . S
H543 C548 0.949 . S
H544 C550 0.950 . S
H545 C551 0.950 . S
H546 C552 0.949 . S
C547 H542 0.950 . S
C547 C549 1.327 . S
C547 C553 1.429 . S
C548 C540 1.574 . S
C548 H543 0.949 . S
C548 C554 1.368 . S
C549 C533 1.349 . S
C549 H541 0.950 . S
C549 C547 1.327 . S
C550 C538 1.349 . S
C550 H544 0.950 . S
C550 C551 1.327 . S
C551 H545 0.950 . S
C551 C550 1.327 . S
C551 C555 1.429 . S
C552 C535 1.574 . S
C552 H546 0.949 . S
C552 C556 1.368 . S
C553 C534 1.429 . S
C553 C547 1.429 . S
C553 C554 1.523 . S
C554 C535 1.368 . S
C554 C548 1.368 . S
C554 C553 1.523 . S
C555 C539 1.429 . S
C555 C551 1.429 . S
C555 C556 1.523 . S
C556 C540 1.368 . S
C556 C552 1.368 . S
C556 C555 1.523 . S
H557 C532 0.950 . S
H558 C534 0.950 . S
H559 C535 0.949 . S
H560 C537 0.950 . S
H561 C539 0.950 . S
C562 C563 1.349 . S
C562 C564 1.327 . S
C562 H587 0.950 . S
C563 C562 1.349 . S
C563 C579 1.349 . S
C564 C562 1.327 . S
C564 C583 1.429 . S
C564 H588 0.950 . S
C565 C582 1.574 . S
C565 C584 1.368 . S
C565 H589 0.949 . S
H566 C570 0.949 . S
C567 C568 1.349 . S
C567 C569 1.327 . S
C567 H590 0.950 . S
C568 C567 1.349 . S
C568 C580 1.349 . S
C569 C567 1.327 . S
C569 C585 1.429 . S
C569 H591 0.950 . S
C570 H566 0.949 . S
C570 C578 1.574 . S
C570 C586 1.368 . S
H571 C579 0.950 1_554 S
H572 C577 0.950 . S
H573 C578 0.949 . S
H574 C580 0.950 . S
H575 C581 0.950 . S
H576 C582 0.949 . S
C577 H572 0.950 . S
C577 C579 1.327 . S
C577 C583 1.429 . S
C578 C570 1.574 . S
C578 H573 0.949 . S
C578 C584 1.368 . S
C579 C563 1.349 . S
C579 H571 0.950 1_556 S
C579 C577 1.327 . S
C580 C568 1.349 . S
C580 H574 0.950 . S
C580 C581 1.327 . S
C581 H575 0.950 . S
C581 C580 1.327 . S
C581 C585 1.429 . S
C582 C565 1.574 . S
C582 H576 0.949 . S
C582 C586 1.368 . S
C583 C564 1.429 . S
C583 C577 1.429 . S
C583 C584 1.523 . S
C584 C565 1.368 . S
C584 C578 1.368 . S
C584 C583 1.523 . S
C585 C569 1.429 . S
C585 C581 1.429 . S
C585 C586 1.523 . S
C586 C570 1.368 . S
C586 C582 1.368 . S
C586 C585 1.523 . S
H587 C562 0.950 . S
H588 C564 0.950 . S
H589 C565 0.949 . S
H590 C567 0.950 . S
H591 C569 0.950 . S
C592 C593 1.349 . S
C592 C594 1.327 . S
C592 H617 0.950 . S
C593 C592 1.349 . S
C593 C609 1.349 . S
C594 C592 1.327 . S
C594 C613 1.429 . S
C594 H618 0.950 . S
C595 C612 1.574 . S
C595 C614 1.368 . S
C595 H619 0.949 . S
H596 C600 0.949 . S
C597 C598 1.349 . S
C597 C599 1.327 . S
C597 H620 0.950 . S
C598 C597 1.349 . S
C598 C610 1.349 . S
C599 C597 1.327 . S
C599 C615 1.429 . S
C599 H621 0.950 . S
C600 H596 0.949 . S
C600 C608 1.574 . S
C600 C616 1.368 . S
H601 C609 0.950 . S
H602 C607 0.950 . S
H603 C608 0.949 . S
H604 C610 0.950 . S
H605 C611 0.950 . S
H606 C612 0.949 . S
C607 H602 0.950 . S
C607 C609 1.327 . S
C607 C613 1.429 . S
C608 C600 1.574 . S
C608 H603 0.949 . S
C608 C614 1.368 . S
C609 C593 1.349 . S
C609 H601 0.950 . S
C609 C607 1.327 . S
C610 C598 1.349 . S
C610 H604 0.950 . S
C610 C611 1.327 . S
C611 H605 0.950 . S
C611 C610 1.327 . S
C611 C615 1.429 . S
C612 C595 1.574 . S
C612 H606 0.949 . S
C612 C616 1.368 . S
C613 C594 1.429 . S
C613 C607 1.429 . S
C613 C614 1.523 . S
C614 C595 1.368 . S
C614 C608 1.368 . S
C614 C613 1.523 . S
C615 C599 1.429 . S
C615 C611 1.429 . S
C615 C616 1.523 . S
C616 C600 1.368 . S
C616 C612 1.368 . S
C616 C615 1.523 . S
H617 C592 0.950 . S
H618 C594 0.950 . S
H619 C595 0.949 . S
H620 C597 0.950 . S
H621 C599 0.950 . S
C622 C623 1.349 . S
C622 C624 1.327 . S
C622 H647 0.950 1_556 S
C623 C622 1.349 . S
C623 C639 1.349 . S
C624 C622 1.327 . S
C624 C643 1.429 . S
C624 H648 0.950 . S
C625 C642 1.574 . S
C625 C644 1.368 . S
C625 H649 0.949 . S
H626 C630 0.949 . S
C627 C628 1.349 . S
C627 C629 1.327 . S
C627 H650 0.950 . S
C628 C627 1.349 . S
C628 C640 1.349 . S
C629 C627 1.327 . S
C629 C645 1.429 . S
C629 H651 0.950 . S
C630 H626 0.949 . S
C630 C638 1.574 . S
C630 C646 1.368 . S
H631 C639 0.950 . S
H632 C637 0.950 . S
H633 C638 0.949 . S
H634 C640 0.950 . S
H635 C641 0.950 . S
H636 C642 0.949 . S
C637 H632 0.950 . S
C637 C639 1.327 . S
C637 C643 1.429 . S
C638 C630 1.574 . S
C638 H633 0.949 . S
C638 C644 1.368 . S
C639 C623 1.349 . S
C639 H631 0.950 . S
C639 C637 1.327 . S
C640 C628 1.349 . S
C640 H634 0.950 . S
C640 C641 1.327 . S
C641 H635 0.950 . S
C641 C640 1.327 . S
C641 C645 1.429 . S
C642 C625 1.574 . S
C642 H636 0.949 . S
C642 C646 1.368 . S
C643 C624 1.429 . S
C643 C637 1.429 . S
C643 C644 1.523 . S
C644 C625 1.368 . S
C644 C638 1.368 . S
C644 C643 1.523 . S
C645 C629 1.429 . S
C645 C641 1.429 . S
C645 C646 1.523 . S
C646 C630 1.368 . S
C646 C642 1.368 . S
C646 C645 1.523 . S
H647 C622 0.950 1_554 S
H648 C624 0.950 . S
H649 C625 0.949 . S
H650 C627 0.950 . S
H651 C629 0.950 . S
C652 C653 1.349 . S
C652 C654 1.327 . S
C652 H677 0.950 . S
C653 C652 1.349 . S
C653 C669 1.349 . S
C654 C652 1.327 . S
C654 C673 1.429 . S
C654 H678 0.950 . S
C655 C672 1.574 1_554 S
C655 C674 1.368 . S
C655 H679 0.949 . S
H656 C660 0.949 . S
C657 C658 1.349 . S
C657 C659 1.327 . S
C657 H680 0.950 . S
C658 C657 1.349 . S
C658 C670 1.349 . S
C659 C657 1.327 . S
C659 C675 1.429 . S
C659 H681 0.950 . S
C660 H656 0.949 . S
C660 C668 1.574 1_556 S
C660 C676 1.368 . S
H661 C669 0.950 . S
H662 C667 0.950 . S
H663 C668 0.949 . S
H664 C670 0.950 . S
H665 C671 0.950 . S
H666 C672 0.949 . S
C667 H662 0.950 . S
C667 C669 1.327 . S
C667 C673 1.429 . S
C668 C660 1.574 1_554 S
C668 H663 0.949 . S
C668 C674 1.368 . S
C669 C653 1.349 . S
C669 H661 0.950 . S
C669 C667 1.327 . S
C670 C658 1.349 . S
C670 H664 0.950 . S
C670 C671 1.327 . S
C671 H665 0.950 . S
C671 C670 1.327 . S
C671 C675 1.429 . S
C672 C655 1.574 1_556 S
C672 H666 0.949 . S
C672 C676 1.368 . S
C673 C654 1.429 . S
C673 C667 1.429 . S
C673 C674 1.523 . S
C674 C655 1.368 . S
C674 C668 1.368 . S
C674 C673 1.523 . S
C675 C659 1.429 . S
C675 C671 1.429 . S
C675 C676 1.523 . S
C676 C660 1.368 . S
C676 C672 1.368 . S
C676 C675 1.523 . S
H677 C652 0.950 . S
H678 C654 0.950 . S
H679 C655 0.949 . S
H680 C657 0.950 . S
H681 C659 0.950 . S
C682 C683 1.349 . S
C682 C684 1.327 . S
C682 H707 0.950 . S
C683 C682 1.349 . S
C683 C699 1.349 . S
C684 C682 1.327 . S
C684 C703 1.429 . S
C684 H708 0.950 . S
C685 C702 1.574 . S
C685 C704 1.368 . S
C685 H709 0.949 . S
H686 C690 0.949 . S
C687 C688 1.349 . S
C687 C689 1.327 . S
C687 H710 0.950 . S
C688 C687 1.349 . S
C688 C700 1.349 . S
C689 C687 1.327 . S
C689 C705 1.429 . S
C689 H711 0.950 . S
C690 H686 0.949 . S
C690 C698 1.574 . S
C690 C706 1.368 . S
H691 C699 0.950 1_556 S
H692 C697 0.950 . S
H693 C698 0.949 . S
H694 C700 0.950 . S
H695 C701 0.950 . S
H696 C702 0.949 . S
C697 H692 0.950 . S
C697 C699 1.327 . S
C697 C703 1.429 . S
C698 C690 1.574 . S
C698 H693 0.949 . S
C698 C704 1.368 . S
C699 C683 1.349 . S
C699 H691 0.950 1_554 S
C699 C697 1.327 . S
C700 C688 1.349 . S
C700 H694 0.950 . S
C700 C701 1.327 . S
C701 H695 0.950 . S
C701 C700 1.327 . S
C701 C705 1.429 . S
C702 C685 1.574 . S
C702 H696 0.949 . S
C702 C706 1.368 . S
C703 C684 1.429 . S
C703 C697 1.429 . S
C703 C704 1.523 . S
C704 C685 1.368 . S
C704 C698 1.368 . S
C704 C703 1.523 . S
C705 C689 1.429 . S
C705 C701 1.429 . S
C705 C706 1.523 . S
C706 C690 1.368 . S
C706 C702 1.368 . S
C706 C705 1.523 . S
H707 C682 0.950 . S
H708 C684 0.950 . S
H709 C685 0.949 . S
H710 C687 0.950 . S
H711 C689 0.950 . S
C712 C713 1.349 . S
C712 C714 1.327 . S
C712 H737 0.950 . S
C713 C712 1.349 . S
C713 C729 1.349 . S
C714 C712 1.327 . S
C714 C733 1.429 . S
C714 H738 0.950 . S
C715 C732 1.574 . S
C715 C734 1.368 . S
C715 H739 0.949 . S
H716 C720 0.949 . S
C717 C718 1.349 . S
C717 C719 1.327 . S
C717 H740 0.950 . S
C718 C717 1.349 . S
C718 C730 1.349 . S
C719 C717 1.327 . S
C719 C735 1.429 . S
C719 H741 0.950 . S
C720 H716 0.949 . S
C720 C728 1.574 . S
C720 C736 1.368 . S
H721 C729 0.950 . S
H722 C727 0.950 . S
H723 C728 0.949 . S
H724 C730 0.950 . S
H725 C731 0.950 . S
H726 C732 0.949 . S
C727 H722 0.950 . S
C727 C729 1.327 . S
C727 C733 1.429 . S
C728 C720 1.574 . S
C728 H723 0.949 . S
C728 C734 1.368 . S
C729 C713 1.349 . S
C729 H721 0.950 . S
C729 C727 1.327 . S
C730 C718 1.349 . S
C730 H724 0.950 . S
C730 C731 1.327 . S
C731 H725 0.950 . S
C731 C730 1.327 . S
C731 C735 1.429 . S
C732 C715 1.574 . S
C732 H726 0.949 . S
C732 C736 1.368 . S
C733 C714 1.429 . S
C733 C727 1.429 . S
C733 C734 1.523 . S
C734 C715 1.368 . S
C734 C728 1.368 . S
C734 C733 1.523 . S
C735 C719 1.429 . S
C735 C731 1.429 . S
C735 C736 1.523 . S
C736 C720 1.368 . S
C736 C732 1.368 . S
C736 C735 1.523 . S
H737 C712 0.950 . S
H738 C714 0.950 . S
H739 C715 0.949 . S
H740 C717 0.950 . S
H741 C719 0.950 . S
C742 C743 1.349 . S
C742 C744 1.327 . S
C742 H767 0.950 . S
C743 C742 1.349 . S
C743 C759 1.349 . S
C744 C742 1.327 . S
C744 C763 1.429 . S
C744 H768 0.950 . S
C745 C762 1.574 . S
C745 C764 1.368 . S
C745 H769 0.949 . S
H746 C750 0.949 . S
C747 C748 1.349 . S
C747 C749 1.327 . S
C747 H770 0.950 . S
C748 C747 1.349 . S
C748 C760 1.349 . S
C749 C747 1.327 . S
C749 C765 1.429 . S
C749 H771 0.950 . S
C750 H746 0.949 . S
C750 C758 1.574 . S
C750 C766 1.368 . S
H751 C759 0.950 . S
H752 C757 0.950 . S
H753 C758 0.949 . S
H754 C760 0.950 . S
H755 C761 0.950 . S
H756 C762 0.949 . S
C757 H752 0.950 . S
C757 C759 1.327 . S
C757 C763 1.429 . S
C758 C750 1.574 . S
C758 H753 0.949 . S
C758 C764 1.368 . S
C759 C743 1.349 . S
C759 H751 0.950 . S
C759 C757 1.327 . S
C760 C748 1.349 . S
C760 H754 0.950 . S
C760 C761 1.327 . S
C761 H755 0.950 . S
C761 C760 1.327 . S
C761 C765 1.429 . S
C762 C745 1.574 . S
C762 H756 0.949 . S
C762 C766 1.368 . S
C763 C744 1.429 . S
C763 C757 1.429 . S
C763 C764 1.523 . S
C764 C745 1.368 . S
C764 C758 1.368 . S
C764 C763 1.523 . S
C765 C749 1.429 . S
C765 C761 1.429 . S
C765 C766 1.523 . S
C766 C750 1.368 . S
C766 C762 1.368 . S
C766 C765 1.523 . S
H767 C742 0.950 . S
H768 C744 0.950 . S
H769 C745 0.949 . S
H770 C747 0.950 . S
H771 C749 0.950 . S
C772 C773 1.350 . S
C772 C774 1.327 1_554 S
C772 H797 0.949 1_554 S
C773 C772 1.350 . S
C773 C789 1.349 . S
C774 C772 1.327 1_556 S
C774 C793 1.429 1_556 S
C774 H798 0.950 . S
C775 C792 1.574 . S
C775 C794 1.368 . S
C775 H799 0.949 . S
H776 C780 0.949 . S
C777 C778 1.350 . S
C777 C779 1.327 1_556 S
C777 H800 0.949 1_556 S
C778 C777 1.350 . S
C778 C790 1.349 . S
C779 C777 1.327 1_554 S
C779 C795 1.429 1_554 S
C779 H801 0.950 . S
C780 H776 0.949 . S
C780 C788 1.574 . S
C780 C796 1.368 . S
H781 C789 0.950 . S
H782 C787 0.950 . S
H783 C788 0.949 . S
H784 C790 0.950 . S
H785 C791 0.950 . S
H786 C792 0.949 . S
C787 H782 0.950 . S
C787 C789 1.327 . S
C787 C793 1.429 . S
C788 C780 1.574 . S
C788 H783 0.949 . S
C788 C794 1.368 1_556 S
C789 C773 1.349 . S
C789 H781 0.950 . S
C789 C787 1.327 . S
C790 C778 1.349 . S
C790 H784 0.950 . S
C790 C791 1.327 . S
C791 H785 0.950 . S
C791 C790 1.327 . S
C791 C795 1.429 . S
C792 C775 1.574 . S
C792 H786 0.949 . S
C792 C796 1.368 1_554 S
C793 C774 1.429 1_554 S
C793 C787 1.429 . S
C793 C794 1.523 . S
C794 C775 1.368 . S
C794 C788 1.368 1_554 S
C794 C793 1.523 . S
C795 C779 1.429 1_556 S
C795 C791 1.429 . S
C795 C796 1.523 . S
C796 C780 1.368 . S
C796 C792 1.368 1_556 S
C796 C795 1.523 . S
H797 C772 0.949 1_556 S
H798 C774 0.950 . S
H799 C775 0.949 . S
H800 C777 0.949 1_554 S
H801 C779 0.950 . S
C802 C803 1.349 . S
C802 C804 1.327 . S
C802 H827 0.950 . S
C803 C802 1.349 . S
C803 C819 1.349 . S
C804 C802 1.327 . S
C804 C823 1.429 . S
C804 H828 0.950 . S
C805 C822 1.574 . S
C805 C824 1.368 . S
C805 H829 0.949 . S
H806 C810 0.949 . S
C807 C808 1.349 . S
C807 C809 1.327 . S
C807 H830 0.950 . S
C808 C807 1.349 . S
C808 C820 1.349 . S
C809 C807 1.327 . S
C809 C825 1.429 . S
C809 H831 0.950 . S
C810 H806 0.949 . S
C810 C818 1.574 . S
C810 C826 1.368 . S
H811 C819 0.950 . S
H812 C817 0.950 . S
H813 C818 0.949 . S
H814 C820 0.950 . S
H815 C821 0.950 . S
H816 C822 0.949 . S
C817 H812 0.950 . S
C817 C819 1.327 . S
C817 C823 1.429 . S
C818 C810 1.574 . S
C818 H813 0.949 . S
C818 C824 1.368 . S
C819 C803 1.349 . S
C819 H811 0.950 . S
C819 C817 1.327 . S
C820 C808 1.349 . S
C820 H814 0.950 . S
C820 C821 1.327 . S
C821 H815 0.950 . S
C821 C820 1.327 . S
C821 C825 1.429 . S
C822 C805 1.574 . S
C822 H816 0.949 . S
C822 C826 1.368 . S
C823 C804 1.429 . S
C823 C817 1.429 . S
C823 C824 1.523 . S
C824 C805 1.368 . S
C824 C818 1.368 . S
C824 C823 1.523 . S
C825 C809 1.429 . S
C825 C821 1.429 . S
C825 C826 1.523 . S
C826 C810 1.368 . S
C826 C822 1.368 . S
C826 C825 1.523 . S
H827 C802 0.950 . S
H828 C804 0.950 . S
H829 C805 0.949 . S
H830 C807 0.950 . S
H831 C809 0.950 . S
C832 C833 1.349 . S
C832 C834 1.327 . S
C832 H857 0.950 . S
C833 C832 1.349 . S
C833 C849 1.349 . S
C834 C832 1.327 . S
C834 C853 1.429 . S
C834 H858 0.950 . S
C835 C852 1.574 . S
C835 C854 1.368 . S
C835 H859 0.949 . S
H836 C840 0.949 . S
C837 C838 1.349 . S
C837 C839 1.327 . S
C837 H860 0.950 . S
C838 C837 1.349 . S
C838 C850 1.349 . S
C839 C837 1.327 . S
C839 C855 1.429 . S
C839 H861 0.950 . S
C840 H836 0.949 . S
C840 C848 1.574 . S
C840 C856 1.368 . S
H841 C849 0.950 . S
H842 C847 0.950 . S
H843 C848 0.949 . S
H844 C850 0.950 . S
H845 C851 0.950 . S
H846 C852 0.949 . S
C847 H842 0.950 . S
C847 C849 1.327 . S
C847 C853 1.429 . S
C848 C840 1.574 . S
C848 H843 0.949 . S
C848 C854 1.368 . S
C849 C833 1.349 . S
C849 H841 0.950 . S
C849 C847 1.327 . S
C850 C838 1.349 . S
C850 H844 0.950 . S
C850 C851 1.327 . S
C851 H845 0.950 . S
C851 C850 1.327 . S
C851 C855 1.429 . S
C852 C835 1.574 . S
C852 H846 0.949 . S
C852 C856 1.368 . S
C853 C834 1.429 . S
C853 C847 1.429 . S
C853 C854 1.523 . S
C854 C835 1.368 . S
C854 C848 1.368 . S
C854 C853 1.523 . S
C855 C839 1.429 . S
C855 C851 1.429 . S
C855 C856 1.523 . S
C856 C840 1.368 . S
C856 C852 1.368 . S
C856 C855 1.523 . S
H857 C832 0.950 . S
H858 C834 0.950 . S
H859 C835 0.949 . S
H860 C837 0.950 . S
H861 C839 0.950 . S
C862 C863 1.349 . S
C862 C864 1.327 1_556 S
C862 H887 0.950 1_556 S
C863 C862 1.349 . S
C863 C879 1.349 . S
C864 C862 1.327 1_554 S
C864 C883 1.427 1_554 S
C864 H888 0.951 . S
C865 C882 1.574 . S
C865 C884 1.368 . S
C865 H889 0.949 . S
H866 C870 0.949 . S
C867 C868 1.349 . S
C867 C869 1.326 1_554 S
C867 H890 0.950 1_554 S
C868 C867 1.349 . S
C868 C880 1.349 . S
C869 C867 1.326 1_556 S
C869 C885 1.427 1_556 S
C869 H891 0.952 . S
C870 H866 0.949 . S
C870 C878 1.574 . S
C870 C886 1.368 . S
H871 C879 0.950 . S
H872 C877 0.950 . S
H873 C878 0.949 . S
H874 C880 0.950 . S
H875 C881 0.950 . S
H876 C882 0.949 . S
C877 H872 0.950 . S
C877 C879 1.327 . S
C877 C883 1.429 . S
C878 C870 1.574 . S
C878 H873 0.949 . S
C878 C884 1.368 1_554 S
C879 C863 1.349 . S
C879 H871 0.950 . S
C879 C877 1.327 . S
C880 C868 1.349 . S
C880 H874 0.950 . S
C880 C881 1.327 . S
C881 H875 0.950 . S
C881 C880 1.327 . S
C881 C885 1.429 . S
C882 C865 1.574 . S
C882 H876 0.949 . S
C882 C886 1.368 1_556 S
C883 C864 1.427 1_556 S
C883 C877 1.429 . S
C883 C884 1.523 . S
C884 C865 1.368 . S
C884 C878 1.368 1_556 S
C884 C883 1.523 . S
C885 C869 1.427 1_554 S
C885 C881 1.429 . S
C885 C886 1.523 . S
C886 C870 1.368 . S
C886 C882 1.368 1_554 S
C886 C885 1.523 . S
H887 C862 0.950 1_554 S
H888 C864 0.951 . S
H889 C865 0.949 . S
H890 C867 0.950 1_556 S
H891 C869 0.952 . S
C892 C893 1.349 . S
C892 C894 1.327 . S
C892 H917 0.950 . S
C893 C892 1.349 . S
C893 C909 1.349 . S
C894 C892 1.327 . S
C894 C913 1.429 . S
C894 H918 0.950 . S
C895 C912 1.574 . S
C895 C914 1.368 . S
C895 H919 0.949 . S
H896 C900 0.949 . S
C897 C898 1.349 . S
C897 C899 1.327 . S
C897 H920 0.950 . S
C898 C897 1.349 . S
C898 C910 1.349 . S
C899 C897 1.327 . S
C899 C915 1.429 . S
C899 H921 0.950 . S
C900 H896 0.949 . S
C900 C908 1.574 . S
C900 C916 1.368 . S
H901 C909 0.950 . S
H902 C907 0.950 . S
H903 C908 0.949 . S
H904 C910 0.950 . S
H905 C911 0.950 . S
H906 C912 0.949 . S
C907 H902 0.950 . S
C907 C909 1.327 . S
C907 C913 1.429 . S
C908 C900 1.574 . S
C908 H903 0.949 . S
C908 C914 1.368 . S
C909 C893 1.349 . S
C909 H901 0.950 . S
C909 C907 1.327 . S
C910 C898 1.349 . S
C910 H904 0.950 . S
C910 C911 1.327 . S
C911 H905 0.950 . S
C911 C910 1.327 . S
C911 C915 1.429 . S
C912 C895 1.574 . S
C912 H906 0.949 . S
C912 C916 1.368 . S
C913 C894 1.429 . S
C913 C907 1.429 . S
C913 C914 1.523 . S
C914 C895 1.368 . S
C914 C908 1.368 . S
C914 C913 1.523 . S
C915 C899 1.429 . S
C915 C911 1.429 . S
C915 C916 1.523 . S
C916 C900 1.368 . S
C916 C912 1.368 . S
C916 C915 1.523 . S
H917 C892 0.950 . S
H918 C894 0.950 . S
H919 C895 0.949 . S
H920 C897 0.950 . S
H921 C899 0.950 . S
C922 C923 1.349 . S
C922 C924 1.327 . S
C922 H947 0.950 . S
C923 C922 1.349 . S
C923 C939 1.349 . S
C924 C922 1.327 . S
C924 C943 1.429 . S
C924 H948 0.950 . S
C925 C942 1.574 . S
C925 C944 1.368 . S
C925 H949 0.949 . S
H926 C930 0.949 . S
C927 C928 1.349 . S
C927 C929 1.327 . S
C927 H950 0.950 . S
C928 C927 1.349 . S
C928 C940 1.349 . S
C929 C927 1.327 . S
C929 C945 1.429 . S
C929 H951 0.950 . S
C930 H926 0.949 . S
C930 C938 1.574 . S
C930 C946 1.368 . S
H931 C939 0.950 . S
H932 C937 0.950 . S
H933 C938 0.949 . S
H934 C940 0.950 . S
H935 C941 0.950 . S
H936 C942 0.949 . S
C937 H932 0.950 . S
C937 C939 1.327 . S
C937 C943 1.429 . S
C938 C930 1.574 . S
C938 H933 0.949 . S
C938 C944 1.368 . S
C939 C923 1.349 . S
C939 H931 0.950 . S
C939 C937 1.327 . S
C940 C928 1.349 . S
C940 H934 0.950 . S
C940 C941 1.327 . S
C941 H935 0.950 . S
C941 C940 1.327 . S
C941 C945 1.429 . S
C942 C925 1.574 . S
C942 H936 0.949 . S
C942 C946 1.368 . S
C943 C924 1.429 . S
C943 C937 1.429 . S
C943 C944 1.523 . S
C944 C925 1.368 . S
C944 C938 1.368 . S
C944 C943 1.523 . S
C945 C929 1.429 . S
C945 C941 1.429 . S
C945 C946 1.523 . S
C946 C930 1.368 . S
C946 C942 1.368 . S
C946 C945 1.523 . S
H947 C922 0.950 . S
H948 C924 0.950 . S
H949 C925 0.949 . S
H950 C927 0.950 . S
H951 C929 0.950 . S
C473 C64 1.506 . S
C478 C5 1.506 . S
C503 C62 1.499 . S
C508 C123 1.509 1_554 S
C533 C180 1.501 . S
C538 C121 1.501 . S
C563 C182 1.509 1_556 S
C568 C3 1.499 . S
C593 C241 1.507 . S
C598 C300 1.507 . S
C623 C298 1.499 1_556 S
C628 C359 1.509 . S
C653 C357 1.501 . S
C658 C416 1.501 . S
C683 C239 1.499 1_554 S
C688 C418 1.509 . S
C713 C33 1.516 . S
C718 C465 1.514 . S
C743 C288 1.510 . S
C748 C111 1.510 . S
C773 C328 1.516 . S
C778 C170 1.514 . S
C803 C210 1.520 . S
C808 C387 1.520 . S
C833 C151 1.520 . S
C838 C446 1.520 . S
C863 C269 1.516 . S
C868 C229 1.514 . S
C893 C347 1.510 . S
C898 C52 1.510 . S
C923 C92 1.516 . S
C928 C406 1.514 . S
