# Generated by pormake.
# Topology wkd, (5)-cn, num edge types: 1
# Building blocks:
#     Node 0, Type 0, BuildingBlock: XOMCOT_clean_sbu_1, # of connection points: 5
#     Node 1, Type 0, BuildingBlock: XOMCOT_clean_sbu_1, # of connection points: 5
#     Node 2, Type 0, BuildingBlock: XOMCOT_clean_sbu_1, # of connection points: 5
#     Node 3, Type 0, BuildingBlock: XOMCOT_clean_sbu_1, # of connection points: 5
#     Node 4, Type 0, BuildingBlock: XOMCOT_clean_sbu_1, # of connection points: 5
#     Node 5, Type 0, BuildingBlock: XOMCOT_clean_sbu_1, # of connection points: 5
#     Node 6, Type 0, BuildingBlock: XOMCOT_clean_sbu_1, # of connection points: 5
#     Node 7, Type 0, BuildingBlock: XOMCOT_clean_sbu_1, # of connection points: 5
#     Node 8, Type 0, BuildingBlock: XOMCOT_clean_sbu_1, # of connection points: 5
#     Node 9, Type 0, BuildingBlock: XOMCOT_clean_sbu_1, # of connection points: 5
#     Node 10, Type 0, BuildingBlock: XOMCOT_clean_sbu_1, # of connection points: 5
#     Node 11, Type 0, BuildingBlock: XOMCOT_clean_sbu_1, # of connection points: 5
#     Edge 12, Type (0, 0), BuildingBlock: OJICUG_clean_linker_0, # of connection points: 2
#     Edge 13, Type (0, 0), BuildingBlock: OJICUG_clean_linker_0, # of connection points: 2
#     Edge 14, Type (0, 0), BuildingBlock: OJICUG_clean_linker_0, # of connection points: 2
#     Edge 15, Type (0, 0), BuildingBlock: OJICUG_clean_linker_0, # of connection points: 2
#     Edge 16, Type (0, 0), BuildingBlock: OJICUG_clean_linker_0, # of connection points: 2
#     Edge 17, Type (0, 0), BuildingBlock: OJICUG_clean_linker_0, # of connection points: 2
#     Edge 18, Type (0, 0), BuildingBlock: OJICUG_clean_linker_0, # of connection points: 2
#     Edge 19, Type (0, 0), BuildingBlock: OJICUG_clean_linker_0, # of connection points: 2
#     Edge 20, Type (0, 0), BuildingBlock: OJICUG_clean_linker_0, # of connection points: 2
#     Edge 21, Type (0, 0), BuildingBlock: OJICUG_clean_linker_0, # of connection points: 2
#     Edge 22, Type (0, 0), BuildingBlock: OJICUG_clean_linker_0, # of connection points: 2
#     Edge 23, Type (0, 0), BuildingBlock: OJICUG_clean_linker_0, # of connection points: 2
#     Edge 24, Type (0, 0), BuildingBlock: OJICUG_clean_linker_0, # of connection points: 2
#     Edge 25, Type (0, 0), BuildingBlock: OJICUG_clean_linker_0, # of connection points: 2
#     Edge 26, Type (0, 0), BuildingBlock: OJICUG_clean_linker_0, # of connection points: 2
#     Edge 27, Type (0, 0), BuildingBlock: OJICUG_clean_linker_0, # of connection points: 2
#     Edge 28, Type (0, 0), BuildingBlock: OJICUG_clean_linker_0, # of connection points: 2
#     Edge 29, Type (0, 0), BuildingBlock: OJICUG_clean_linker_0, # of connection points: 2
#     Edge 30, Type (0, 0), BuildingBlock: OJICUG_clean_linker_0, # of connection points: 2
#     Edge 31, Type (0, 0), BuildingBlock: OJICUG_clean_linker_0, # of connection points: 2
#     Edge 32, Type (0, 0), BuildingBlock: OJICUG_clean_linker_0, # of connection points: 2
#     Edge 33, Type (0, 0), BuildingBlock: OJICUG_clean_linker_0, # of connection points: 2
#     Edge 34, Type (0, 0), BuildingBlock: OJICUG_clean_linker_0, # of connection points: 2
#     Edge 35, Type (0, 0), BuildingBlock: OJICUG_clean_linker_0, # of connection points: 2
#     Edge 36, Type (0, 0), BuildingBlock: OJICUG_clean_linker_0, # of connection points: 2
#     Edge 37, Type (0, 0), BuildingBlock: OJICUG_clean_linker_0, # of connection points: 2
#     Edge 38, Type (0, 0), BuildingBlock: OJICUG_clean_linker_0, # of connection points: 2
#     Edge 39, Type (0, 0), BuildingBlock: OJICUG_clean_linker_0, # of connection points: 2
#     Edge 40, Type (0, 0), BuildingBlock: OJICUG_clean_linker_0, # of connection points: 2
#     Edge 41, Type (0, 0), BuildingBlock: OJICUG_clean_linker_0, # of connection points: 2
# Relax obj value: 0.119
# Max RMSD: 0.171
# Mean RMSD: 0.170
data_MOF--net-wkd--node1-XOMCOT_clean_sbu_1--edge1-OJICUG_clean_linker_0
_symmetry_space_group_name_H-M    P1
_symmetry_Int_Tables_number       1
_symmetry_cell_setting            triclinic
loop_
_symmetry_equiv_pos_as_xyz
'x, y, z'
_cell_length_a     19.246691
_cell_length_b     19.288116
_cell_length_c     83.857316
_cell_angle_alpha  90.169731
_cell_angle_beta   89.90557
_cell_angle_gamma 119.84004
loop_
_atom_site_label
_atom_site_type_symbol
_atom_site_fract_x
_atom_site_fract_y
_atom_site_fract_z
_atom_type_partial_charge
C0 C 0.03421 0.27157 0.08457 0.0
C1 C 0.03344 0.2137 0.09425 0.0
N2 N 0.98275 0.14129 0.08801 0.0
N3 N 0.98418 0.23685 0.07215 0.0
C4 C 0.95363 0.15723 0.07459 0.0
H5 H 0.0706 0.33535 0.08635 0.0
Co6 Co 0.96949 0.29525 0.05556 0.0
C7 C 0.8428 0.16728 0.03418 0.0
O8 O 0.80776 0.20991 0.03175 0.0
N9 N 0.95669 0.35561 0.03892 0.0
C10 C 0.9573 0.40435 1.01477 0.0
C11 C 0.96625 0.3482 0.02313 0.0
C12 C 0.94177 0.41744 0.03972 0.0
N13 N 0.94188 0.44806 0.0252 0.0
O14 O 0.87907 0.29049 0.06727 0.0
H15 H 0.9776 0.30375 0.01784 0.0
H16 H 0.93241 0.44101 0.05067 0.0
O17 O 0.9032 0.19381 0.04359 0.0
C18 C 0.91077 0.35192 0.0765 0.0
O19 O 0.98849 0.40016 0.07567 0.0
N20 N 0.06384 0.31072 0.04575 0.0
C21 C 0.21276 0.37522 0.03078 0.0
C22 C 0.14882 0.30085 0.02592 0.0
C23 C 0.07468 0.26846 0.03384 0.0
C24 C 0.12643 0.38073 0.05106 0.0
C25 C 0.20141 0.41359 0.04388 0.0
H26 H 1.02522 0.21261 0.02968 0.0
H27 H 0.11686 0.41359 0.06044 0.0
H28 H 0.91097 0.11174 0.06668 0.0
H29 H 0.06985 0.22467 0.10479 0.0
H30 H 0.95983 0.41107 1.00194 0.0
H31 H 0.15538 0.26955 0.0158 0.0
H32 H 0.24865 0.47145 0.04789 0.0
C33 C 0.79548 0.04544 0.24536 0.0
C34 C 0.85758 0.05191 0.25463 0.0
N35 N 0.86774 0.98878 0.25162 0.0
N36 N 0.76602 0.97866 0.2364 0.0
C37 C 0.81127 0.9453 0.24047 0.0
H38 H 0.77244 0.0864 0.24533 0.0
Co39 Co 0.675 0.94062 0.22303 0.0
C40 C 0.70818 0.85865 0.196 0.0
O41 O 0.67955 0.89205 0.18638 0.0
N42 N 0.58134 0.89953 0.21009 0.0
C43 C 0.46494 0.80369 0.20039 0.0
C44 C 0.53479 0.81985 0.20781 0.0
C45 C 0.53744 0.93055 0.20385 0.0
N46 N 0.46662 0.87321 0.19789 0.0
O47 O 0.61115 0.85927 0.23883 0.0
H48 H 0.54929 0.77552 0.21196 0.0
H49 H 0.55379 0.99274 0.20446 0.0
O50 O 0.7096 0.87152 0.21113 0.0
C51 C 0.57843 0.89285 0.24668 0.0
O52 O 0.59919 0.96692 0.24317 0.0
N53 N 0.73241 0.02919 0.20933 0.0
C54 C 0.80221 0.17606 0.19317 0.0
C55 C 0.83182 0.12275 0.19116 0.0
C56 C 0.79683 0.0499 0.19959 0.0
C57 C 0.70712 0.08271 0.21212 0.0
C58 C 0.73974 0.15513 0.20406 0.0
H59 H 0.82251 1.01148 0.19847 0.0
H60 H 0.66123 0.06946 0.22092 0.0
H61 H 0.80156 0.88902 0.23568 0.0
H62 H 0.89297 0.10006 0.26286 0.0
H63 H 0.41549 0.7451 0.19745 0.0
H64 H 0.88168 0.13724 0.18324 0.0
H65 H 0.71743 0.19549 0.20676 0.0
C66 C 0.7664 0.78854 0.41318 0.0
C67 C 0.82237 0.85036 0.42243 0.0
N68 N 0.89561 0.86093 0.41909 0.0
N69 N 0.80341 0.75963 0.40391 0.0
C70 C 0.8822 0.80494 0.40778 0.0
H71 H 0.7024 0.76542 0.41335 0.0
Co72 Co 0.75004 0.66951 0.3903 0.0
C73 C 0.86484 0.70366 0.36319 0.0
O74 O 0.80295 0.676 0.35354 0.0
N75 N 0.69718 0.57678 0.37708 0.0
C76 C 0.67665 0.46108 0.36692 0.0
C77 C 0.73035 0.53022 0.37451 0.0
C78 C 0.62216 0.53353 0.37087 0.0
N79 N 0.60872 0.46317 0.36462 0.0
O80 O 0.76774 0.60446 0.4058 0.0
H81 H 0.78923 0.54417 0.37856 0.0
H82 H 0.57626 0.54998 0.37171 0.0
O83 O 0.85333 0.70407 0.37833 0.0
C84 C 0.70165 0.57154 0.41366 0.0
O85 O 0.64822 0.59273 0.41034 0.0
N86 N 0.71876 0.72807 0.3769 0.0
C87 C 0.64154 0.7995 0.36121 0.0
C88 C 0.72431 0.82865 0.35912 0.0
C89 C 0.76225 0.79283 0.36732 0.0
C90 C 0.64013 0.70316 0.37978 0.0
C91 C 0.60027 0.73663 0.37194 0.0
H92 H 0.82623 0.81812 0.36615 0.0
H93 H 0.60769 0.65689 0.38846 0.0
H94 H 0.92868 0.79572 0.4027 0.0
H95 H 0.80984 0.88533 0.43086 0.0
H96 H 0.6858 0.41173 0.36376 0.0
H97 H 0.75947 0.87874 0.35131 0.0
H98 H 0.53773 0.71457 0.37469 0.0
C99 C 0.99515 0.76536 0.57917 0.0
C100 C 0.98992 0.82242 0.58822 0.0
N101 N 0.05496 0.89432 0.58537 0.0
N102 N 0.06302 0.80038 0.57049 0.0
C103 C 0.0983 0.879 0.57454 0.0
H104 H 0.95246 0.702 0.57906 0.0
Co105 Co 0.10006 0.7457 0.55724 0.0
C106 C 0.18085 0.85866 0.52995 0.0
O107 O 0.14735 0.79656 0.52034 0.0
N108 N 0.1403 0.69177 0.54437 0.0
C109 C 0.23565 0.67036 0.53447 0.0
C110 C 0.21999 0.72437 0.54195 0.0
C111 C 0.10874 0.61682 0.53815 0.0
N112 N 0.16579 0.60283 0.53207 0.0
O113 O 0.18291 0.76481 0.57287 0.0
H114 H 0.26472 0.78319 0.54599 0.0
H115 H 0.04638 0.57144 0.53882 0.0
O116 O 0.16836 0.84774 0.54507 0.0
C117 C 0.14972 0.70087 0.58132 0.0
O118 O 0.07462 0.64801 0.5784 0.0
N119 N 1.01021 0.71328 0.54371 0.0
C120 C 0.86171 0.63477 0.52794 0.0
C121 C 0.91505 0.7171 0.52559 0.0
C122 C 0.98875 0.75571 0.53382 0.0
C123 C 0.95682 0.63511 0.54681 0.0
C124 C 0.88357 0.59461 0.53894 0.0
H125 H 0.02722 0.81938 0.53243 0.0
H126 H 0.97094 0.60359 0.55568 0.0
H127 H 0.15575 0.9239 0.56992 0.0
H128 H 0.94124 0.81153 0.59619 0.0
H129 H 0.29416 0.67915 0.5314 0.0
H130 H 0.89998 0.75146 0.51756 0.0
H131 H 0.84337 0.53251 0.54187 0.0
C132 C 0.32588 0.09682 0.75265 0.0
C133 C 0.26754 0.09899 0.76174 0.0
N134 N 0.20871 0.09225 0.75205 0.0
N135 N 0.30558 0.08957 0.7371 0.0
C136 C 0.23314 0.08619 0.73712 0.0
H137 H 0.37889 0.09821 0.75726 0.0
Co138 Co 0.36835 0.07964 0.7206 0.0
C139 C 0.36184 0.18346 0.69318 0.0
O140 O 0.39996 0.16193 0.68311 0.0
N141 N 0.43271 0.06683 0.70459 0.0
C142 C 0.48597 1.00211 0.69197 0.0
C143 C 0.42116 0.99417 0.70023 0.0
C144 C 0.50722 0.11841 0.69886 0.0
N145 N 0.54059 0.08003 0.6912 0.0
O146 O 0.46699 0.1649 0.7305 0.0
H147 H 0.37206 0.93751 0.70392 0.0
H148 H 0.53894 0.18189 0.7014 0.0
O149 O 0.3497 0.15646 0.70753 0.0
C150 C 0.50381 0.13242 0.73718 0.0
O151 O 0.47073 0.05425 0.73652 0.0
N152 N 0.27586 0.98988 0.71227 0.0
C153 C 0.19637 0.83661 0.69902 0.0
C154 C 0.21038 0.90343 0.68992 0.0
C155 C 0.25048 0.97999 0.69679 0.0
C156 C 0.25278 0.92476 0.7218 0.0
C157 C 0.2136 0.84751 0.71538 0.0
H158 H 0.26832 0.03057 0.68911 0.0
H159 H 0.27406 0.93309 0.73397 0.0
H160 H 0.19871 0.07857 0.72641 0.0
H161 H 0.26724 0.10217 0.77462 0.0
H162 H 0.4943 0.95378 0.68765 0.0
H163 H 0.19718 0.89755 0.67728 0.0
H164 H 0.20218 0.79739 0.72291 0.0
C165 C 0.25586 0.30528 0.91959 0.0
C166 C 0.19633 0.24702 0.92873 0.0
N167 N 0.13923 0.19313 0.91901 0.0
N168 N 0.23724 0.28997 0.90401 0.0
C169 C 0.16581 0.22029 0.904 0.0
H170 H 0.31046 0.35497 0.92415 0.0
Co171 Co 0.30727 0.35694 0.88772 0.0
C172 C 0.19672 0.35731 0.86113 0.0
O173 O 0.25717 0.40324 0.85184 0.0
N174 N 0.38216 0.42616 0.87199 0.0
C175 C 0.49479 0.48486 0.85753 0.0
C176 C 0.44164 0.41684 0.86554 0.0
C177 C 0.40238 0.50219 0.86789 0.0
N178 N 0.47021 0.53842 0.85909 0.0
O179 O 0.31896 0.45192 0.89904 0.0
H180 H 0.44979 0.36603 0.86731 0.0
H181 H 0.36998 0.53164 0.87183 0.0
O182 O 0.21052 0.33952 0.87513 0.0
C183 C 0.38867 0.48829 0.90554 0.0
O184 O 0.43554 0.45732 0.90382 0.0
N185 N 0.30542 0.26732 0.87796 0.0
C186 C 0.37152 0.18627 0.8621 0.0
C187 C 0.31643 0.20244 0.85439 0.0
C188 C 0.28376 0.24295 0.86255 0.0
C189 C 0.34967 0.24207 0.88625 0.0
C190 C 0.38345 0.20133 0.87854 0.0
H191 H 0.24858 0.26149 0.8558 0.0
H192 H 0.36716 0.26221 0.89839 0.0
H193 H 0.13426 0.18999 0.89323 0.0
H194 H 0.1966 0.24327 0.9416 0.0
H195 H 0.54913 0.49546 0.85156 0.0
H196 H 0.3043 0.19038 0.84178 0.0
H197 H 0.4255 0.19003 0.88499 0.0
C198 C 0.78061 0.99132 0.78277 0.0
C199 C 0.83697 0.98489 0.77369 0.0
N200 N 0.90965 0.04896 0.77656 0.0
N201 N 0.81687 0.059 0.79149 0.0
C202 C 0.89549 0.09295 0.78743 0.0
H203 H 0.71691 0.94951 0.78291 0.0
Co204 Co 0.76402 0.09743 0.8049 0.0
C205 C 0.87788 0.17434 0.83223 0.0
O206 O 0.8156 0.13921 0.84176 0.0
N207 N 0.71232 0.13947 0.81799 0.0
C208 C 0.69537 0.23702 0.82818 0.0
C209 C 0.74735 0.21921 0.82046 0.0
C210 C 0.63797 0.11011 0.82444 0.0
N211 N 0.62667 0.16849 0.83069 0.0
O212 O 0.78362 0.18031 0.78927 0.0
H213 H 0.80649 0.26255 0.8163 0.0
H214 H 0.591 0.04846 0.82386 0.0
O215 O 0.86703 0.16406 0.81705 0.0
C216 C 0.71862 0.14709 0.78106 0.0
O217 O 0.66535 0.07262 0.78424 0.0
N218 N 0.73034 1.00725 0.81826 0.0
C219 C 0.64933 0.85549 0.83258 0.0
C220 C 0.73232 0.90661 0.83495 0.0
C221 C 0.77219 0.98205 0.82743 0.0
C222 C 0.65112 0.95677 0.81538 0.0
C223 C 0.6093 0.88257 0.82269 0.0
H224 H 0.83641 0.01854 0.8286 0.0
H225 H 0.61967 0.97378 0.80704 0.0
H226 H 0.94127 0.14987 0.79208 0.0
H227 H 0.8251 0.93602 0.76571 0.0
H228 H 0.70629 0.2961 0.83133 0.0
H229 H 0.76662 0.88753 0.84207 0.0
H230 H 0.5457 0.84653 0.8204 0.0
C231 C 0.80977 0.76925 0.94945 0.0
C232 C 0.87092 0.82506 0.94009 0.0
N233 N 0.88196 0.89817 0.9436 0.0
N234 N 0.78181 0.80627 0.95896 0.0
C235 C 0.82694 0.88487 0.95513 0.0
H236 H 0.78651 0.70537 0.94924 0.0
Co237 Co 0.69317 0.75242 0.9728 0.0
C238 C 0.72861 0.8651 1.00004 0.0
O239 O 0.7057 0.80275 1.00935 0.0
N240 N 0.60127 0.69863 0.98626 0.0
C241 C 0.48555 0.67709 0.99677 0.0
C242 C 0.55443 0.73129 0.98917 0.0
C243 C 0.55826 0.6233 0.99222 0.0
N244 N 0.48818 0.60947 0.99868 0.0
O245 O 0.62526 0.76696 0.95744 0.0
H246 H 0.56788 0.79015 0.98532 0.0
H247 H 0.5747 0.57757 0.99116 0.0
O248 O 0.726 0.8555 0.98479 0.0
C249 C 0.59057 0.69953 0.95007 0.0
O250 O 0.61144 0.64625 0.95371 0.0
N251 N 0.75539 0.72484 0.98611 0.0
C252 C 0.8336 0.65629 1.0022 0.0
C253 C 0.86352 0.73919 1.00289 0.0
C254 C 0.82401 0.77276 0.99448 0.0
C255 C 0.7306 0.64562 0.98436 0.0
C256 C 0.76713 0.60981 0.99261 0.0
H257 H 0.84938 0.83688 0.9945 0.0
H258 H 0.68261 0.60979 0.97619 0.0
H259 H 0.81836 0.93128 0.96042 0.0
H260 H 0.9052 0.81254 0.93148 0.0
H261 H 0.43615 0.68569 1.00025 0.0
H262 H 0.91721 0.77746 1.00963 0.0
H263 H 0.74479 0.54632 0.99115 0.0
C264 C 0.97195 0.74037 0.10919 0.0
C265 C 0.97015 0.79877 0.1002 0.0
N266 N 0.95704 0.84688 0.10991 0.0
N267 N 0.95945 0.75003 0.12465 0.0
C268 C 0.95128 0.81618 0.12477 0.0
H269 H 0.98376 0.69471 0.1047 0.0
Co270 Co 0.96134 0.68224 0.14074 0.0
C271 C 0.84986 0.68 0.16727 0.0
O272 O 0.86536 0.63442 0.17646 0.0
N273 N 0.96597 0.61184 0.15642 0.0
C274 C 1.019 0.55571 0.1718 0.0
C275 C 0.0327 0.62419 0.16422 0.0
C276 C 0.91248 0.53361 0.15946 0.0
N277 N 0.94363 0.4979 0.16866 0.0
O278 O 0.87895 0.5888 0.12907 0.0
H279 H 0.09028 0.67782 0.16378 0.0
H280 H 0.85318 0.5022 0.15428 0.0
O281 O 0.88133 0.69853 0.15327 0.0
C282 C 0.91267 0.55377 0.12213 0.0
O283 O 0.99016 0.58373 0.12404 0.0
N284 N 0.04837 0.77143 0.15066 0.0
C285 C 0.19486 0.85538 0.16651 0.0
C286 C 0.1234 0.84084 0.17396 0.0
C287 C 0.0505 0.79897 0.16579 0.0
C288 C 0.11804 0.79476 0.14255 0.0
C289 C 0.19215 0.83689 0.15025 0.0
H290 H 0.9965 0.78236 0.17234 0.0
H291 H 0.11577 0.77238 0.1306 0.0
H292 H 0.94202 0.84159 0.13554 0.0
H293 H 0.98076 0.80672 0.08748 0.0
H294 H 0.06259 0.54885 0.17871 0.0
H295 H 0.12301 0.85555 0.18643 0.0
H296 H 0.24556 0.84676 0.14399 0.0
C297 C 0.24204 0.95484 0.27619 0.0
C298 C 0.18226 0.95315 0.26701 0.0
N299 N 0.12553 0.95146 0.27668 0.0
N300 N 0.22394 0.95328 0.29178 0.0
C301 C 0.15257 0.95217 0.29172 0.0
H302 H 0.29644 0.95881 0.27166 0.0
Co303 Co 0.29424 0.95744 0.30819 0.0
C304 C 0.18539 0.84759 0.33481 0.0
O305 O 0.24641 0.86398 0.34412 0.0
N306 N 0.3693 0.96401 0.32414 0.0
C307 C 0.47905 0.01827 0.33937 0.0
C308 C 0.4242 0.03155 0.33158 0.0
C309 C 0.39373 0.91049 0.32761 0.0
N310 N 0.46094 0.9423 0.33672 0.0
O311 O 0.30725 0.87437 0.29709 0.0
H312 H 0.42847 0.08922 0.33071 0.0
H313 H 0.36536 0.85055 0.32277 0.0
O314 O 0.19822 0.87827 0.32075 0.0
C315 C 0.37687 0.90749 0.29056 0.0
O316 O 0.42304 0.98521 0.29208 0.0
N317 N 0.29079 0.04492 0.31769 0.0
C318 C 0.35404 0.19202 0.33334 0.0
C319 C 0.29738 0.12125 0.34089 0.0
C320 C 0.26603 0.04804 0.33283 0.0
C321 C 0.33661 0.11393 0.30946 0.0
C322 C 0.36897 0.18835 0.31706 0.0
H323 H 0.22913 0.99456 0.33948 0.0
H324 H 0.35623 0.11085 0.29751 0.0
H325 H 0.12137 0.95229 0.30246 0.0
H326 H 0.18208 0.95582 0.25411 0.0
H327 H 0.52998 0.06255 0.34605 0.0
H328 H 0.28283 0.12157 0.35337 0.0
H329 H 0.41223 0.24119 0.31071 0.0
C330 C 0.30462 0.23428 0.44309 0.0
C331 C 0.24613 0.17465 0.43396 0.0
N332 N 0.19164 0.11836 0.44369 0.0
N333 N 0.28891 0.21655 0.45869 0.0
C334 C 0.21873 0.14554 0.4587 0.0
H335 H 0.35476 0.28831 0.4385 0.0
Co336 Co 0.35571 0.28681 0.47506 0.0
C337 C 0.35772 0.17798 0.50156 0.0
O338 O 0.40284 0.23881 0.51085 0.0
N339 N 0.42484 0.36181 0.49099 0.0
C340 C 0.48048 0.47163 0.50619 0.0
C341 C 0.41226 0.41686 0.49847 0.0
C342 C 0.50292 0.38611 0.49438 0.0
N343 N 0.53838 0.45336 0.50348 0.0
O344 O 0.45127 0.29926 0.46382 0.0
H345 H 0.35879 0.4213 0.49766 0.0
H346 H 0.53455 0.35768 0.48949 0.0
O347 O 0.3394 0.19091 0.48755 0.0
C348 C 0.48703 0.36862 0.45728 0.0
O349 O 0.45504 0.41463 0.45886 0.0
N350 N 0.26523 0.28396 0.48471 0.0
C351 C 0.18185 0.34781 0.50052 0.0
C352 C 0.19644 0.29121 0.50802 0.0
C353 C 0.23806 0.25957 0.49988 0.0
C354 C 0.24154 0.32974 0.47654 0.0
C355 C 0.1997 0.36239 0.48422 0.0
H356 H 0.25506 0.22275 0.50647 0.0
H357 H 0.26367 0.34907 0.46457 0.0
H358 H 0.18801 0.1147 0.46948 0.0
H359 H 0.24267 0.1743 0.42108 0.0
H360 H 0.48718 0.52264 0.51288 0.0
H361 H 0.18214 0.27692 0.5205 0.0
H362 H 0.18973 0.40558 0.47792 0.0
C363 C 0.1101 0.31255 0.60937 0.0
C364 C 0.11154 0.25389 0.60029 0.0
N365 N 0.10375 0.19482 0.60997 0.0
N366 N 0.10229 0.29226 0.62491 0.0
C367 C 0.09784 0.21947 0.6249 0.0
H368 H 0.11226 0.36573 0.60473 0.0
Co369 Co 0.0926 0.35515 0.64146 0.0
C370 C 0.19746 0.3493 0.66879 0.0
O371 O 0.1762 0.3876 0.67887 0.0
N372 N 0.08005 0.41963 0.65751 0.0
C373 C 1.01532 0.47273 0.6702 0.0
C374 C 1.00731 0.40792 0.66195 0.0
C375 C 0.13175 0.49422 0.66318 0.0
N376 N 0.09337 0.52749 0.6709 0.0
O377 O 0.17724 0.45347 0.6315 0.0
H378 H 0.95048 0.35866 0.65833 0.0
H379 H 0.19526 0.52601 0.66058 0.0
O380 O 0.17009 0.33697 0.65445 0.0
C381 C 0.14314 0.48861 0.62479 0.0
O382 O 0.06467 0.45397 0.62547 0.0
N383 N 1.00322 0.26296 0.64982 0.0
C384 C 0.84995 0.1832 0.66308 0.0
C385 C 0.9171 0.19754 0.67217 0.0
C386 C 0.99369 0.23779 0.66531 0.0
C387 C 0.93781 0.23962 0.6403 0.0
C388 C 0.86053 0.20026 0.64673 0.0
H389 H 0.04452 0.25589 0.67297 0.0
H390 H 0.94591 0.26077 0.62814 0.0
H391 H 0.08944 0.1849 0.6356 0.0
H392 H 0.11484 0.25353 0.58741 0.0
H393 H 0.96691 0.48091 0.67458 0.0
H394 H 0.91142 0.18448 0.68482 0.0
H395 H 0.81012 0.18859 0.63921 0.0
C396 C 0.80581 0.96052 0.02212 0.0
C397 C 0.76239 0.9454 1.00778 0.0
H398 H 0.8663 0.04173 0.04141 0.0
C399 C 0.74747 1.00495 1.00193 0.0
H400 H 0.81868 0.91609 0.02695 0.0
C401 C 0.77294 0.07655 1.01055 0.0
C402 C 0.81577 0.09122 0.025 0.0
H403 H 0.71385 0.99509 0.991 0.0
H404 H 0.75924 0.12062 1.00585 0.0
C405 C 0.83309 0.03268 0.03047 0.0
C406 C 0.7884 0.76932 0.16514 0.0
C407 C 0.80957 0.72231 0.17448 0.0
H408 H 0.73987 0.84795 0.1645 0.0
C409 C 0.79609 0.71977 0.19111 0.0
H410 H 0.79809 0.77336 0.15237 0.0
C411 C 0.76361 0.76374 0.19818 0.0
C412 C 0.74253 0.81077 0.18882 0.0
H413 H 0.81211 0.68488 0.19879 0.0
H414 H 0.75504 0.76086 0.21098 0.0
C415 C 0.75495 0.81233 0.17218 0.0
C416 C 0.95809 0.75145 0.33945 0.0
C417 C 0.94706 0.73835 0.35606 0.0
H418 H 0.04045 0.7958 0.31975 0.0
C419 C 1.01507 0.75934 0.36548 0.0
H420 H 0.90744 0.73645 0.33174 0.0
C421 C 0.0916 0.79248 0.35849 0.0
C422 C 0.10274 0.8067 0.3419 0.0
H423 H 1.00927 0.75028 0.37826 0.0
H424 H 0.14242 0.80841 0.36621 0.0
C425 C 0.03464 0.78553 0.3325 0.0
C426 C 0.26891 0.0276 0.49923 0.0
C427 C 0.31585 0.09557 0.50864 0.0
H428 H 0.19074 0.90074 0.49847 0.0
C429 C 0.31882 0.08462 0.52524 0.0
H430 H 0.26452 0.0333 0.48648 0.0
C431 C 0.27533 1.00841 0.53223 0.0
C432 C 0.22836 0.94051 0.5228 0.0
H433 H 0.35369 0.13535 0.53297 0.0
H434 H 0.27853 1.00276 0.54501 0.0
C435 C 0.22637 0.95133 0.50618 0.0
C436 C 0.2902 0.26286 0.69745 0.0
C437 C 0.32309 0.22941 0.68705 0.0
H438 H 0.22668 0.32747 0.69996 0.0
C439 C 0.31595 0.23773 0.67048 0.0
H440 H 0.29403 0.25767 0.71024 0.0
C441 C 0.27604 0.2768 0.66453 0.0
C442 C 0.24313 0.31023 0.67493 0.0
H443 H 0.33985 0.21248 0.66202 0.0
H444 H 0.27074 0.28052 0.65174 0.0
C445 C 0.25155 0.30318 0.69149 0.0
C446 C 0.02724 0.27252 0.83025 0.0
C447 C 0.95961 0.22285 0.8395 0.0
H448 H 0.15369 0.35453 0.82976 0.0
C449 C 0.97047 0.2197 0.8561 0.0
H450 H 1.02158 0.27678 0.8175 0.0
C451 C 0.04653 0.26385 0.86319 0.0
C452 C 0.11424 0.31356 0.85395 0.0
H453 H 0.92008 0.18204 0.86369 0.0
H454 H 0.05227 0.25856 0.87591 0.0
C455 C 0.10319 0.31754 0.83738 0.0
C456 C 0.94209 0.99815 0.08375 0.0
C457 C 0.96871 0.06452 0.09396 0.0
H458 H 0.91596 0.87734 0.08082 0.0
C459 C 0.98527 0.05539 0.10999 0.0
H460 H 0.92868 1.00217 0.07138 0.0
C461 C 0.97868 0.98342 0.11543 0.0
C462 C 0.95554 0.91839 0.10499 0.0
H463 H 1.00441 0.10428 0.11837 0.0
H464 H 0.99443 0.9798 0.12766 0.0
C465 C 0.93562 0.9264 0.08917 0.0
C466 C 0.96165 1.00486 0.27374 0.0
C467 C 0.92776 0.97321 0.25866 0.0
H468 H 0.04999 0.02199 0.2914 0.0
C469 C 0.95631 0.92898 0.25035 0.0
H470 H 0.94061 0.0382 0.28066 0.0
C471 C 1.0189 0.91966 0.25657 0.0
C472 C 0.05473 0.95365 0.27136 0.0
H473 H 0.93225 0.90378 0.23876 0.0
H474 H 0.0402 0.88661 0.24962 0.0
C475 C 1.02392 0.99485 0.28004 0.0
C476 C 0.11572 1.01202 0.42358 0.0
C477 C 0.11849 0.04779 0.43845 0.0
H478 H 0.04407 0.92554 0.40583 0.0
C479 C 0.04718 1.01702 0.44731 0.0
H480 H 0.1695 0.03322 0.41648 0.0
C481 C 0.97469 0.95483 0.44114 0.0
C482 C 0.9715 0.92097 0.42599 0.0
H483 H 0.04677 0.043 0.45875 0.0
H484 H 0.92089 0.93381 0.44822 0.0
C485 C 0.04362 0.94954 0.41748 0.0
C486 C 0.13369 0.11608 0.59034 0.0
C487 C 0.09744 0.11985 0.60472 0.0
H488 H 0.14891 0.04289 0.57296 0.0
C489 C 0.05087 0.04821 0.6131 0.0
H490 H 0.17096 0.16991 0.58362 0.0
C491 C 0.0383 0.9748 0.60694 0.0
C492 C 0.07245 0.97079 0.59227 0.0
H493 H 1.02184 0.04844 0.62415 0.0
H494 H 1.00115 0.921 0.61367 0.0
C495 C 0.1216 0.04295 0.58425 0.0
C496 C 0.13118 0.12385 0.77167 0.0
C497 C 0.13418 0.08726 0.75729 0.0
H498 H 0.05891 0.14064 0.78904 0.0
C499 C 0.06218 0.04169 0.74887 0.0
H500 H 0.18533 0.16038 0.77841 0.0
C501 C 0.98909 0.03045 0.75501 0.0
C502 C 0.98583 0.06498 0.76969 0.0
H503 H 0.06184 1.01243 0.73782 0.0
H504 H 0.93496 0.99405 0.74826 0.0
C505 C 0.0584 0.1131 0.77774 0.0
C506 C 0.9712 0.04569 0.94532 0.0
C507 C 0.94178 0.97387 0.9367 0.0
H508 H 0.05555 0.17113 0.9464 0.0
C509 C 0.97463 0.97712 0.92145 0.0
H510 H 0.94796 0.04606 0.95706 0.0
C511 C 0.03682 0.04938 0.91528 0.0
C512 C 0.06851 0.12035 0.92425 0.0
H513 H 0.95288 0.92354 0.91429 0.0
H514 H 0.06211 0.04903 0.90376 0.0
C515 C 0.03362 0.11757 0.93922 0.0
C516 C 0.3511 0.49564 0.99732 0.0
C517 C 0.42484 0.53679 1.00529 0.0
H518 H 0.22593 0.40956 0.99909 0.0
C519 C 0.43091 0.51494 0.02093 0.0
H520 H 0.34534 0.51269 0.98531 0.0
C521 C 0.36269 0.45693 0.02891 0.0
C522 C 0.28754 0.41921 0.02129 0.0
H523 H 0.4871 0.547 0.02731 0.0
H524 H 0.36764 0.44498 0.04135 0.0
C525 C 0.28313 0.43665 1.00519 0.0
C526 C 0.82395 0.36591 0.17438 0.0
C527 C 0.90751 0.41472 0.17336 0.0
H528 H 0.72524 0.25219 0.181 0.0
C529 C 0.9557 0.38132 0.1775 0.0
H530 H 0.78483 0.38905 0.17125 0.0
C531 C 0.92164 0.30299 0.18326 0.0
C532 C 0.8383 0.2555 0.18502 0.0
H533 H 1.02019 0.4159 0.1765 0.0
H534 H 0.96101 0.28092 0.18693 0.0
C535 C 0.78985 0.28744 0.18011 0.0
C536 C 0.4733 0.82257 0.3426 0.0
C537 C 0.50788 0.90601 0.34162 0.0
H538 H 0.4885 0.72366 0.34909 0.0
C539 C 0.58931 0.95376 0.34585 0.0
H540 H 0.41119 0.78369 0.33942 0.0
C541 C 0.63362 0.91936 0.35158 0.0
C542 C 0.598 0.83613 0.35322 0.0
H543 H 0.61916 0.01813 0.34491 0.0
H544 H 0.69499 0.95836 0.35528 0.0
C545 C 0.51772 0.78816 0.34829 0.0
C546 C 0.73389 0.62646 0.518 0.0
C547 C 0.78151 0.59071 0.51995 0.0
H548 H 0.62071 0.61197 0.51108 0.0
C549 C 0.74922 0.51005 0.51532 0.0
H550 H 0.75618 0.6881 0.52146 0.0
C551 C 0.67048 0.46551 0.5096 0.0
C552 C 0.62164 0.50032 0.50832 0.0
H553 H 0.78449 0.48067 0.51637 0.0
H554 H 0.64722 0.40318 0.50664 0.0
C555 C 0.65526 0.58201 0.51226 0.0
C556 C 0.18995 0.64224 0.68726 0.0
C557 C 0.12463 0.60801 0.67676 0.0
H558 H 0.26292 0.74088 0.70275 0.0
C559 C 0.08467 0.65057 0.67322 0.0
H560 H 0.22128 0.61042 0.69024 0.0
C561 C 0.10829 0.72495 0.68026 0.0
C562 C 0.17159 0.75796 0.69127 0.0
H563 H 0.03429 0.62559 0.66509 0.0
H564 H 0.07577 0.75573 0.6774 0.0
C565 C 0.2128 0.71619 0.69455 0.0
C566 C 0.46565 0.21793 0.83919 0.0
C567 C 0.42775 0.17033 0.85262 0.0
H568 H 0.55877 0.25426 0.82175 0.0
C569 C 0.45178 0.11598 0.85778 0.0
H570 H 0.44995 0.26151 0.83505 0.0
C571 C 0.51411 0.11145 0.84995 0.0
C572 C 0.55447 0.1625 0.83712 0.0
H573 H 0.42397 0.07877 0.86811 0.0
H574 H 0.5337 0.07139 0.85443 0.0
C575 C 0.52848 0.21441 0.83163 0.0
C576 C 0.62071 0.75683 0.85508 0.0
C577 C 0.60388 0.77332 0.83966 0.0
H578 H 0.5903 0.66816 0.8734 0.0
C579 C 0.54083 0.71051 0.83104 0.0
H580 H 0.66837 0.80326 0.86211 0.0
C581 C 0.49522 0.63448 0.83772 0.0
C582 C 0.51172 0.61875 0.85308 0.0
H583 H 0.52713 0.71948 0.81897 0.0
H584 H 0.44797 0.58717 0.83076 0.0
C585 C 0.57531 0.68008 0.86167 0.0
C586 C 0.86537 0.51885 0.02955 0.0
C587 C 0.92425 0.51058 0.02118 0.0
H588 H 0.79036 0.57231 0.03001 0.0
C589 C 0.96048 0.55958 1.00782 0.0
H590 H 0.83591 0.48154 0.03979 0.0
C591 C 0.93539 0.61225 1.00241 0.0
C592 C 0.87329 0.61683 1.01021 0.0
H593 H 1.0065 0.55516 1.00121 0.0
H594 H 0.96136 0.64607 0.99161 0.0
C595 C 0.83949 0.57086 0.024 0.0
C596 C 0.41192 0.92976 0.17841 0.0
C597 C 0.40126 0.88106 0.19165 0.0
H598 H 0.35451 0.96022 0.15991 0.0
C599 C 0.3237 0.83218 0.19762 0.0
H600 H 0.47129 0.96743 0.17356 0.0
C601 C 0.25748 0.82874 0.19006 0.0
C602 C 0.26699 0.87329 0.17616 0.0
H603 H 0.31424 0.79415 0.20782 0.0
H604 H 0.19832 0.78704 0.19454 0.0
C605 C 0.3452 0.92529 0.1706 0.0
C606 C 0.49759 0.40882 0.34507 0.0
C607 C 0.53541 0.39819 0.35839 0.0
H608 H 0.40976 0.35153 0.32654 0.0
C609 C 0.5066 0.32087 0.36441 0.0
H610 H 0.51944 0.46798 0.34017 0.0
C611 C 0.44378 0.25483 0.35686 0.0
C612 C 0.4088 0.26424 0.34291 0.0
H613 H 0.53509 0.31142 0.37465 0.0
H614 H 0.42621 0.19584 0.3614 0.0
C615 C 0.43528 0.34226 0.33727 0.0
C616 C 0.10862 0.49175 0.51249 0.0
C617 C 0.15756 0.52958 0.52576 0.0
H618 H 0.07754 0.40381 0.49395 0.0
C619 C 0.20649 0.50071 0.53167 0.0
H620 H 0.07096 0.51362 0.50768 0.0
C621 C 0.20959 0.43781 0.52406 0.0
C622 C 0.16467 0.40279 0.51016 0.0
H623 H 0.24478 0.52915 0.54187 0.0
H624 H 0.2513 0.42016 0.52852 0.0
C625 C 0.11275 0.42936 0.50464 0.0
C626 C 0.664 0.07159 0.68886 0.0
C627 C 0.62119 0.11131 0.68533 0.0
H628 H 0.76947 0.06295 0.68467 0.0
C629 C 0.65524 0.17646 0.67487 0.0
H630 H 0.63915 0.02137 0.69698 0.0
C631 C 0.72928 0.19939 0.66758 0.0
C632 C 0.77127 0.15839 0.67084 0.0
H633 H 0.62321 0.20761 0.6719 0.0
H634 H 0.75387 0.24939 0.6594 0.0
C635 C 0.73846 0.09527 0.68182 0.0
C636 C 0.85512 0.49101 0.09576 0.0
C637 C 0.87072 0.48202 0.11176 0.0
H638 H 0.85116 0.45214 0.0716 0.0
C639 C 0.8744 0.41335 0.11597 0.0
H640 H 0.85445 0.54444 0.09206 0.0
C641 C 0.87215 0.36011 0.10424 0.0
C642 C 0.86673 0.37455 0.088 0.0
H643 H 0.88848 0.40586 0.12813 0.0
H644 H 0.88534 0.31381 0.10772 0.0
C645 C 0.85319 0.43777 0.084 0.0
C646 C 0.43594 0.83433 0.25444 0.0
C647 C 0.51424 0.85329 0.25877 0.0
H648 H 0.3283 0.83426 0.26149 0.0
C649 C 0.53575 0.8682 0.27493 0.0
H650 H 0.41857 0.82549 0.24199 0.0
C651 C 0.48419 0.87383 0.28608 0.0
C652 C 0.40974 0.8643 0.28135 0.0
H653 H 0.59633 0.8858 0.27857 0.0
H654 H 0.50642 0.89466 0.29802 0.0
C655 C 0.38408 0.83965 0.26563 0.0
C656 C 0.62771 0.47535 0.45288 0.0
C657 C 0.56279 0.40149 0.44802 0.0
H658 H 0.7274 0.58746 0.44556 0.0
C659 C 0.56132 0.37676 0.4322 0.0
H660 H 0.62942 0.4969 0.46491 0.0
C661 C 0.61805 0.42899 0.42107 0.0
C662 C 0.67739 0.50675 0.42556 0.0
H663 H 0.5109 0.32148 0.42796 0.0
H664 H 0.60914 0.41236 0.40857 0.0
C665 C 0.68445 0.52729 0.44179 0.0
C666 C 0.21287 0.62066 0.5889 0.0
C667 C 0.19109 0.67785 0.59332 0.0
H668 H 0.21762 0.51572 0.59581 0.0
C669 C 0.17599 0.68382 0.60952 0.0
H670 H 0.22189 0.61252 0.57642 0.0
C671 C 0.17309 0.62798 0.62061 0.0
C672 C 0.18543 0.56493 0.6158 0.0
H673 H 0.15626 0.7251 0.61324 0.0
H674 H 0.15183 0.62855 0.63257 0.0
C675 C 0.2102 0.56478 0.60003 0.0
C676 C 0.58026 0.20292 0.76176 0.0
C677 C 0.58039 0.17635 0.74615 0.0
H678 H 0.62898 0.2184 0.78539 0.0
C679 C 0.64434 0.16485 0.74154 0.0
H680 H 0.53061 0.20985 0.76584 0.0
C681 C 0.70121 0.17039 0.75272 0.0
C682 C 0.69531 0.18716 0.76882 0.0
H683 H 0.64499 0.14237 0.72971 0.0
H684 H 0.7432 0.15118 0.7492 0.0
C685 C 0.63713 0.20814 0.77299 0.0
C686 C 0.5453 0.68441 0.92196 0.0
C687 C 0.52517 0.67444 0.93822 0.0
H688 H 0.51487 0.63291 0.89853 0.0
C689 C 0.44797 0.61326 0.94257 0.0
H690 H 0.6051 0.72886 0.91827 0.0
C691 C 0.39592 0.55791 0.9312 0.0
C692 C 0.4203 0.56248 0.91526 0.0
H693 H 0.43174 0.60222 0.95506 0.0
H694 H 0.34125 0.50625 0.93527 0.0
C695 C 0.49352 0.62894 0.91063 0.0
loop_
_geom_bond_atom_site_label_1
_geom_bond_atom_site_label_2
_geom_bond_distance
_geom_bond_site_symmetry_2
_ccdc_geom_bond_type
C0 C1 1.351 . S
C0 N3 1.368 1_455 S
C0 H5 0.931 . S
C1 C0 1.351 . S
C1 N2 1.373 . S
C1 H29 0.930 . S
N2 C1 1.373 . S
N2 C4 1.340 1_455 S
N3 C0 1.368 1_655 S
N3 C4 1.321 . S
N3 Co6 2.135 . S
C4 N2 1.340 1_655 S
C4 N3 1.321 . S
C4 H28 0.930 . S
H5 C0 0.931 . S
Co6 N3 2.135 . S
Co6 N9 2.121 . S
Co6 O14 2.055 . S
Co6 O17 2.039 . S
Co6 N20 2.140 1_655 S
C7 O8 1.227 . S
C7 O17 1.265 . S
O8 C7 1.227 . S
N9 Co6 2.121 . S
N9 C11 1.375 . S
N9 C12 1.313 . S
C10 C11 1.338 1_556 S
C10 N13 1.377 1_556 S
C10 H30 0.930 . S
C11 N9 1.375 . S
C11 C10 1.338 1_554 S
C11 H15 0.931 . S
C12 N9 1.313 . S
C12 N13 1.344 . S
C12 H16 0.930 . S
N13 C10 1.377 1_554 S
N13 C12 1.344 . S
O14 Co6 2.055 . S
O14 C18 1.253 . S
H15 C11 0.931 . S
H16 C12 0.930 . S
O17 Co6 2.039 . S
O17 C7 1.265 . S
C18 O14 1.253 . S
C18 O19 1.227 1_655 S
O19 C18 1.227 1_455 S
N20 Co6 2.140 1_455 S
N20 C23 1.346 . S
N20 C24 1.345 . S
C21 C22 1.387 . S
C21 C25 1.391 . S
C22 C21 1.387 . S
C22 C23 1.369 . S
C22 H31 0.929 . S
C23 N20 1.346 . S
C23 C22 1.369 . S
C23 H26 0.928 . S
C24 N20 1.345 . S
C24 C25 1.371 . S
C24 H27 0.931 . S
C25 C21 1.391 . S
C25 C24 1.371 . S
C25 H32 0.930 . S
H26 C23 0.928 . S
H27 C24 0.931 . S
H28 C4 0.930 . S
H29 C1 0.930 . S
H30 C10 0.930 . S
H31 C22 0.929 . S
H32 C25 0.930 . S
C33 C34 1.351 . S
C33 N36 1.368 1_545 S
C33 H38 0.931 . S
C34 C33 1.351 . S
C34 N35 1.373 . S
C34 H62 0.930 . S
N35 C34 1.373 . S
N35 C37 1.340 1_545 S
N36 C33 1.368 1_565 S
N36 C37 1.321 . S
N36 Co39 2.135 . S
C37 N35 1.340 1_565 S
C37 N36 1.321 . S
C37 H61 0.930 . S
H38 C33 0.931 . S
Co39 N36 2.135 . S
Co39 N42 2.121 . S
Co39 O47 2.055 . S
Co39 O50 2.039 . S
Co39 N53 2.140 1_565 S
C40 O41 1.227 . S
C40 O50 1.265 . S
O41 C40 1.227 . S
N42 Co39 2.121 . S
N42 C44 1.375 . S
N42 C45 1.313 . S
C43 C44 1.338 . S
C43 N46 1.377 . S
C43 H63 0.930 . S
C44 N42 1.375 . S
C44 C43 1.338 . S
C44 H48 0.931 . S
C45 N42 1.313 . S
C45 N46 1.344 . S
C45 H49 0.930 . S
N46 C43 1.377 . S
N46 C45 1.344 . S
O47 Co39 2.055 . S
O47 C51 1.253 . S
H48 C44 0.931 . S
H49 C45 0.930 . S
O50 Co39 2.039 . S
O50 C40 1.265 . S
C51 O47 1.253 . S
C51 O52 1.227 1_565 S
O52 C51 1.227 1_545 S
N53 Co39 2.140 1_545 S
N53 C56 1.346 . S
N53 C57 1.345 . S
C54 C55 1.387 . S
C54 C58 1.391 . S
C55 C54 1.387 . S
C55 C56 1.369 . S
C55 H64 0.929 . S
C56 N53 1.346 . S
C56 C55 1.369 . S
C56 H59 0.928 . S
C57 N53 1.345 . S
C57 C58 1.371 . S
C57 H60 0.931 . S
C58 C54 1.391 . S
C58 C57 1.371 . S
C58 H65 0.930 . S
H59 C56 0.928 . S
H60 C57 0.931 . S
H61 C37 0.930 . S
H62 C34 0.930 . S
H63 C43 0.930 . S
H64 C55 0.929 . S
H65 C58 0.930 . S
C66 C67 1.351 . S
C66 N69 1.368 . S
C66 H71 0.931 . S
C67 C66 1.351 . S
C67 N68 1.373 . S
C67 H95 0.930 . S
N68 C67 1.373 . S
N68 C70 1.340 . S
N69 C66 1.368 . S
N69 C70 1.321 . S
N69 Co72 2.135 . S
C70 N68 1.340 . S
C70 N69 1.321 . S
C70 H94 0.930 . S
H71 C66 0.931 . S
Co72 N69 2.135 . S
Co72 N75 2.121 . S
Co72 O80 2.055 . S
Co72 O83 2.039 . S
Co72 N86 2.140 . S
C73 O74 1.227 . S
C73 O83 1.265 . S
O74 C73 1.227 . S
N75 Co72 2.121 . S
N75 C77 1.375 . S
N75 C78 1.313 . S
C76 C77 1.338 . S
C76 N79 1.377 . S
C76 H96 0.930 . S
C77 N75 1.375 . S
C77 C76 1.338 . S
C77 H81 0.931 . S
C78 N75 1.313 . S
C78 N79 1.344 . S
C78 H82 0.930 . S
N79 C76 1.377 . S
N79 C78 1.344 . S
O80 Co72 2.055 . S
O80 C84 1.253 . S
H81 C77 0.931 . S
H82 C78 0.930 . S
O83 Co72 2.039 . S
O83 C73 1.265 . S
C84 O80 1.253 . S
C84 O85 1.227 . S
O85 C84 1.227 . S
N86 Co72 2.140 . S
N86 C89 1.346 . S
N86 C90 1.345 . S
C87 C88 1.387 . S
C87 C91 1.391 . S
C88 C87 1.387 . S
C88 C89 1.369 . S
C88 H97 0.929 . S
C89 N86 1.346 . S
C89 C88 1.369 . S
C89 H92 0.928 . S
C90 N86 1.345 . S
C90 C91 1.371 . S
C90 H93 0.931 . S
C91 C87 1.391 . S
C91 C90 1.371 . S
C91 H98 0.930 . S
H92 C89 0.928 . S
H93 C90 0.931 . S
H94 C70 0.930 . S
H95 C67 0.930 . S
H96 C76 0.930 . S
H97 C88 0.929 . S
H98 C91 0.930 . S
C99 C100 1.351 . S
C99 N102 1.368 1_655 S
C99 H104 0.931 . S
C100 C99 1.351 . S
C100 N101 1.373 . S
C100 H128 0.930 . S
N101 C100 1.373 . S
N101 C103 1.340 1_655 S
N102 C99 1.368 1_455 S
N102 C103 1.321 . S
N102 Co105 2.135 . S
C103 N101 1.340 1_455 S
C103 N102 1.321 . S
C103 H127 0.930 . S
H104 C99 0.931 . S
Co105 N102 2.135 . S
Co105 N108 2.121 . S
Co105 O113 2.055 . S
Co105 O116 2.039 . S
Co105 N119 2.140 1_455 S
C106 O107 1.227 . S
C106 O116 1.265 . S
O107 C106 1.227 . S
N108 Co105 2.121 . S
N108 C110 1.375 . S
N108 C111 1.313 . S
C109 C110 1.338 . S
C109 N112 1.377 . S
C109 H129 0.930 . S
C110 N108 1.375 . S
C110 C109 1.338 . S
C110 H114 0.931 . S
C111 N108 1.313 . S
C111 N112 1.344 . S
C111 H115 0.930 . S
N112 C109 1.377 . S
N112 C111 1.344 . S
O113 Co105 2.055 . S
O113 C117 1.253 . S
H114 C110 0.931 . S
H115 C111 0.930 . S
O116 Co105 2.039 . S
O116 C106 1.265 . S
C117 O113 1.253 . S
C117 O118 1.227 1_455 S
O118 C117 1.227 1_655 S
N119 Co105 2.140 1_655 S
N119 C122 1.346 . S
N119 C123 1.345 . S
C120 C121 1.387 . S
C120 C124 1.391 . S
C121 C120 1.387 . S
C121 C122 1.369 . S
C121 H130 0.929 . S
C122 N119 1.346 . S
C122 C121 1.369 . S
C122 H125 0.928 . S
C123 N119 1.345 . S
C123 C124 1.371 . S
C123 H126 0.931 . S
C124 C120 1.391 . S
C124 C123 1.371 . S
C124 H131 0.930 . S
H125 C122 0.928 . S
H126 C123 0.931 . S
H127 C103 0.930 . S
H128 C100 0.930 . S
H129 C109 0.930 . S
H130 C121 0.929 . S
H131 C124 0.930 . S
C132 C133 1.351 . S
C132 N135 1.368 1_565 S
C132 H137 0.931 . S
C133 C132 1.351 . S
C133 N134 1.373 . S
C133 H161 0.930 . S
N134 C133 1.373 . S
N134 C136 1.340 1_565 S
N135 C132 1.368 1_545 S
N135 C136 1.321 . S
N135 Co138 2.135 . S
C136 N134 1.340 1_545 S
C136 N135 1.321 . S
C136 H160 0.930 . S
H137 C132 0.931 . S
Co138 N135 2.135 . S
Co138 N141 2.121 . S
Co138 O146 2.055 . S
Co138 O149 2.039 . S
Co138 N152 2.140 1_545 S
C139 O140 1.227 . S
C139 O149 1.265 . S
O140 C139 1.227 . S
N141 Co138 2.121 . S
N141 C143 1.375 . S
N141 C144 1.313 . S
C142 C143 1.338 . S
C142 N145 1.377 . S
C142 H162 0.930 . S
C143 N141 1.375 . S
C143 C142 1.338 . S
C143 H147 0.931 . S
C144 N141 1.313 . S
C144 N145 1.344 . S
C144 H148 0.930 . S
N145 C142 1.377 . S
N145 C144 1.344 . S
O146 Co138 2.055 . S
O146 C150 1.253 . S
H147 C143 0.931 . S
H148 C144 0.930 . S
O149 Co138 2.039 . S
O149 C139 1.265 . S
C150 O146 1.253 . S
C150 O151 1.227 1_545 S
O151 C150 1.227 1_565 S
N152 Co138 2.140 1_565 S
N152 C155 1.346 . S
N152 C156 1.345 . S
C153 C154 1.387 . S
C153 C157 1.391 . S
C154 C153 1.387 . S
C154 C155 1.369 . S
C154 H163 0.929 . S
C155 N152 1.346 . S
C155 C154 1.369 . S
C155 H158 0.928 . S
C156 N152 1.345 . S
C156 C157 1.371 . S
C156 H159 0.931 . S
C157 C153 1.391 . S
C157 C156 1.371 . S
C157 H164 0.930 . S
H158 C155 0.928 . S
H159 C156 0.931 . S
H160 C136 0.930 . S
H161 C133 0.930 . S
H162 C142 0.930 . S
H163 C154 0.929 . S
H164 C157 0.930 . S
C165 C166 1.351 . S
C165 N168 1.368 . S
C165 H170 0.931 . S
C166 C165 1.351 . S
C166 N167 1.373 . S
C166 H194 0.930 . S
N167 C166 1.373 . S
N167 C169 1.340 . S
N168 C165 1.368 . S
N168 C169 1.321 . S
N168 Co171 2.135 . S
C169 N167 1.340 . S
C169 N168 1.321 . S
C169 H193 0.930 . S
H170 C165 0.931 . S
Co171 N168 2.135 . S
Co171 N174 2.121 . S
Co171 O179 2.055 . S
Co171 O182 2.039 . S
Co171 N185 2.140 . S
C172 O173 1.227 . S
C172 O182 1.265 . S
O173 C172 1.227 . S
N174 Co171 2.121 . S
N174 C176 1.375 . S
N174 C177 1.313 . S
C175 C176 1.338 . S
C175 N178 1.377 . S
C175 H195 0.930 . S
C176 N174 1.375 . S
C176 C175 1.338 . S
C176 H180 0.931 . S
C177 N174 1.313 . S
C177 N178 1.344 . S
C177 H181 0.930 . S
N178 C175 1.377 . S
N178 C177 1.344 . S
O179 Co171 2.055 . S
O179 C183 1.253 . S
H180 C176 0.931 . S
H181 C177 0.930 . S
O182 Co171 2.039 . S
O182 C172 1.265 . S
C183 O179 1.253 . S
C183 O184 1.227 . S
O184 C183 1.227 . S
N185 Co171 2.140 . S
N185 C188 1.346 . S
N185 C189 1.345 . S
C186 C187 1.387 . S
C186 C190 1.391 . S
C187 C186 1.387 . S
C187 C188 1.369 . S
C187 H196 0.929 . S
C188 N185 1.346 . S
C188 C187 1.369 . S
C188 H191 0.928 . S
C189 N185 1.345 . S
C189 C190 1.371 . S
C189 H192 0.931 . S
C190 C186 1.391 . S
C190 C189 1.371 . S
C190 H197 0.930 . S
H191 C188 0.928 . S
H192 C189 0.931 . S
H193 C169 0.930 . S
H194 C166 0.930 . S
H195 C175 0.930 . S
H196 C187 0.929 . S
H197 C190 0.930 . S
C198 C199 1.351 . S
C198 N201 1.368 1_565 S
C198 H203 0.931 . S
C199 C198 1.351 . S
C199 N200 1.373 . S
C199 H227 0.930 . S
N200 C199 1.373 . S
N200 C202 1.340 1_565 S
N201 C198 1.368 1_545 S
N201 C202 1.321 . S
N201 Co204 2.135 . S
C202 N200 1.340 1_545 S
C202 N201 1.321 . S
C202 H226 0.930 . S
H203 C198 0.931 . S
Co204 N201 2.135 . S
Co204 N207 2.121 . S
Co204 O212 2.055 . S
Co204 O215 2.039 . S
Co204 N218 2.140 1_545 S
C205 O206 1.227 . S
C205 O215 1.265 . S
O206 C205 1.227 . S
N207 Co204 2.121 . S
N207 C209 1.375 . S
N207 C210 1.313 . S
C208 C209 1.338 . S
C208 N211 1.377 . S
C208 H228 0.930 . S
C209 N207 1.375 . S
C209 C208 1.338 . S
C209 H213 0.931 . S
C210 N207 1.313 . S
C210 N211 1.344 . S
C210 H214 0.930 . S
N211 C208 1.377 . S
N211 C210 1.344 . S
O212 Co204 2.055 . S
O212 C216 1.253 . S
H213 C209 0.931 . S
H214 C210 0.930 . S
O215 Co204 2.039 . S
O215 C205 1.265 . S
C216 O212 1.253 . S
C216 O217 1.227 1_545 S
O217 C216 1.227 1_565 S
N218 Co204 2.140 1_565 S
N218 C221 1.346 . S
N218 C222 1.345 . S
C219 C220 1.387 . S
C219 C223 1.391 . S
C220 C219 1.387 . S
C220 C221 1.369 . S
C220 H229 0.929 . S
C221 N218 1.346 . S
C221 C220 1.369 . S
C221 H224 0.928 . S
C222 N218 1.345 . S
C222 C223 1.371 . S
C222 H225 0.931 . S
C223 C219 1.391 . S
C223 C222 1.371 . S
C223 H230 0.930 . S
H224 C221 0.928 . S
H225 C222 0.931 . S
H226 C202 0.930 . S
H227 C199 0.930 . S
H228 C208 0.930 . S
H229 C220 0.929 . S
H230 C223 0.930 . S
C231 C232 1.351 . S
C231 N234 1.368 . S
C231 H236 0.931 . S
C232 C231 1.351 . S
C232 N233 1.373 . S
C232 H260 0.930 . S
N233 C232 1.373 . S
N233 C235 1.340 . S
N234 C231 1.368 . S
N234 C235 1.321 . S
N234 Co237 2.135 . S
C235 N233 1.340 . S
C235 N234 1.321 . S
C235 H259 0.930 . S
H236 C231 0.931 . S
Co237 N234 2.135 . S
Co237 N240 2.121 . S
Co237 O245 2.055 . S
Co237 O248 2.039 . S
Co237 N251 2.140 . S
C238 O239 1.227 . S
C238 O248 1.265 . S
O239 C238 1.227 . S
N240 Co237 2.121 . S
N240 C242 1.375 . S
N240 C243 1.313 . S
C241 C242 1.338 1_554 S
C241 N244 1.377 1_554 S
C241 H261 0.930 . S
C242 N240 1.375 . S
C242 C241 1.338 1_556 S
C242 H246 0.959 . S
C243 N240 1.313 . S
C243 N244 1.344 . S
C243 H247 0.930 . S
N244 C241 1.377 1_556 S
N244 C243 1.344 . S
O245 Co237 2.055 . S
O245 C249 1.253 . S
H246 C242 0.959 . S
H247 C243 0.930 . S
O248 Co237 2.039 . S
O248 C238 1.265 . S
C249 O245 1.253 . S
C249 O250 1.227 . S
O250 C249 1.227 . S
N251 Co237 2.140 . S
N251 C254 1.346 . S
N251 C255 1.345 . S
C252 C253 1.387 . S
C252 C256 1.391 . S
C253 C252 1.387 . S
C253 C254 1.369 . S
C253 H262 0.929 . S
C254 N251 1.346 . S
C254 C253 1.369 . S
C254 H257 0.928 . S
C255 N251 1.345 . S
C255 C256 1.371 . S
C255 H258 0.931 . S
C256 C252 1.391 . S
C256 C255 1.371 . S
C256 H263 0.930 . S
H257 C254 0.928 . S
H258 C255 0.931 . S
H259 C235 0.930 . S
H260 C232 0.930 . S
H261 C241 0.930 . S
H262 C253 0.929 . S
H263 C256 0.930 . S
C264 C265 1.351 . S
C264 N267 1.368 1_455 S
C264 H269 0.931 . S
C265 C264 1.351 . S
C265 N266 1.373 . S
C265 H293 0.930 . S
N266 C265 1.373 . S
N266 C268 1.340 1_455 S
N267 C264 1.368 1_655 S
N267 C268 1.321 . S
N267 Co270 2.135 . S
C268 N266 1.340 1_655 S
C268 N267 1.321 . S
C268 H292 0.930 . S
H269 C264 0.931 . S
Co270 N267 2.135 . S
Co270 N273 2.121 . S
Co270 O278 2.055 . S
Co270 O281 2.039 . S
Co270 N284 2.140 1_655 S
C271 O272 1.227 . S
C271 O281 1.265 . S
O272 C271 1.227 . S
N273 Co270 2.121 . S
N273 C275 1.375 . S
N273 C276 1.313 . S
C274 C275 1.338 . S
C274 N277 1.377 . S
C274 H294 0.930 . S
C275 N273 1.375 . S
C275 C274 1.338 . S
C275 H279 0.931 . S
C276 N273 1.313 . S
C276 N277 1.344 . S
C276 H280 0.930 . S
N277 C274 1.377 . S
N277 C276 1.344 . S
O278 Co270 2.055 . S
O278 C282 1.253 . S
H279 C275 0.931 . S
H280 C276 0.930 . S
O281 Co270 2.039 . S
O281 C271 1.265 . S
C282 O278 1.253 . S
C282 O283 1.227 1_655 S
O283 C282 1.227 1_455 S
N284 Co270 2.140 1_455 S
N284 C287 1.346 . S
N284 C288 1.345 . S
C285 C286 1.387 . S
C285 C289 1.391 . S
C286 C285 1.387 . S
C286 C287 1.369 . S
C286 H295 0.929 . S
C287 N284 1.346 . S
C287 C286 1.369 . S
C287 H290 0.928 . S
C288 N284 1.345 . S
C288 C289 1.371 . S
C288 H291 0.931 . S
C289 C285 1.391 . S
C289 C288 1.371 . S
C289 H296 0.930 . S
H290 C287 0.928 . S
H291 C288 0.931 . S
H292 C268 0.930 . S
H293 C265 0.930 . S
H294 C274 0.930 . S
H295 C286 0.929 . S
H296 C289 0.930 . S
C297 C298 1.351 . S
C297 N300 1.368 1_545 S
C297 H302 0.931 . S
C298 C297 1.351 . S
C298 N299 1.373 . S
C298 H326 0.930 . S
N299 C298 1.373 . S
N299 C301 1.340 1_545 S
N300 C297 1.368 1_565 S
N300 C301 1.321 . S
N300 Co303 2.135 . S
C301 N299 1.340 1_565 S
C301 N300 1.321 . S
C301 H325 0.930 . S
H302 C297 0.931 . S
Co303 N300 2.135 . S
Co303 N306 2.121 . S
Co303 O311 2.055 . S
Co303 O314 2.039 . S
Co303 N317 2.140 1_565 S
C304 O305 1.227 . S
C304 O314 1.265 . S
O305 C304 1.227 . S
N306 Co303 2.121 . S
N306 C308 1.375 . S
N306 C309 1.313 . S
C307 C308 1.338 . S
C307 N310 1.377 . S
C307 H327 0.930 . S
C308 N306 1.375 . S
C308 C307 1.338 . S
C308 H312 0.931 . S
C309 N306 1.313 . S
C309 N310 1.344 . S
C309 H313 0.930 . S
N310 C307 1.377 . S
N310 C309 1.344 . S
O311 Co303 2.055 . S
O311 C315 1.253 . S
H312 C308 0.931 . S
H313 C309 0.930 . S
O314 Co303 2.039 . S
O314 C304 1.265 . S
C315 O311 1.253 . S
C315 O316 1.227 1_565 S
O316 C315 1.227 1_545 S
N317 Co303 2.140 1_545 S
N317 C320 1.346 . S
N317 C321 1.345 . S
C318 C319 1.387 . S
C318 C322 1.391 . S
C319 C318 1.387 . S
C319 C320 1.369 . S
C319 H328 0.929 . S
C320 N317 1.346 . S
C320 C319 1.369 . S
C320 H323 0.928 . S
C321 N317 1.345 . S
C321 C322 1.371 . S
C321 H324 0.931 . S
C322 C318 1.391 . S
C322 C321 1.371 . S
C322 H329 0.930 . S
H323 C320 0.928 . S
H324 C321 0.931 . S
H325 C301 0.930 . S
H326 C298 0.930 . S
H327 C307 0.930 . S
H328 C319 0.929 . S
H329 C322 0.930 . S
C330 C331 1.351 . S
C330 N333 1.368 . S
C330 H335 0.931 . S
C331 C330 1.351 . S
C331 N332 1.373 . S
C331 H359 0.930 . S
N332 C331 1.373 . S
N332 C334 1.340 . S
N333 C330 1.368 . S
N333 C334 1.321 . S
N333 Co336 2.135 . S
C334 N332 1.340 . S
C334 N333 1.321 . S
C334 H358 0.930 . S
H335 C330 0.931 . S
Co336 N333 2.135 . S
Co336 N339 2.121 . S
Co336 O344 2.055 . S
Co336 O347 2.039 . S
Co336 N350 2.140 . S
C337 O338 1.227 . S
C337 O347 1.265 . S
O338 C337 1.227 . S
N339 Co336 2.121 . S
N339 C341 1.375 . S
N339 C342 1.313 . S
C340 C341 1.338 . S
C340 N343 1.377 . S
C340 H360 0.930 . S
C341 N339 1.375 . S
C341 C340 1.338 . S
C341 H345 0.931 . S
C342 N339 1.313 . S
C342 N343 1.344 . S
C342 H346 0.930 . S
N343 C340 1.377 . S
N343 C342 1.344 . S
O344 Co336 2.055 . S
O344 C348 1.253 . S
H345 C341 0.931 . S
H346 C342 0.930 . S
O347 Co336 2.039 . S
O347 C337 1.265 . S
C348 O344 1.253 . S
C348 O349 1.227 . S
O349 C348 1.227 . S
N350 Co336 2.140 . S
N350 C353 1.346 . S
N350 C354 1.345 . S
C351 C352 1.387 . S
C351 C355 1.391 . S
C352 C351 1.387 . S
C352 C353 1.369 . S
C352 H361 0.929 . S
C353 N350 1.346 . S
C353 C352 1.369 . S
C353 H356 0.928 . S
C354 N350 1.345 . S
C354 C355 1.371 . S
C354 H357 0.931 . S
C355 C351 1.391 . S
C355 C354 1.371 . S
C355 H362 0.930 . S
H356 C353 0.928 . S
H357 C354 0.931 . S
H358 C334 0.930 . S
H359 C331 0.930 . S
H360 C340 0.930 . S
H361 C352 0.929 . S
H362 C355 0.930 . S
C363 C364 1.351 . S
C363 N366 1.368 1_655 S
C363 H368 0.931 . S
C364 C363 1.351 . S
C364 N365 1.373 . S
C364 H392 0.930 . S
N365 C364 1.373 . S
N365 C367 1.340 1_655 S
N366 C363 1.368 1_455 S
N366 C367 1.321 . S
N366 Co369 2.135 . S
C367 N365 1.340 1_455 S
C367 N366 1.321 . S
C367 H391 0.930 . S
H368 C363 0.931 . S
Co369 N366 2.135 . S
Co369 N372 2.121 . S
Co369 O377 2.055 . S
Co369 O380 2.039 . S
Co369 N383 2.140 1_455 S
C370 O371 1.227 . S
C370 O380 1.265 . S
O371 C370 1.227 . S
N372 Co369 2.121 . S
N372 C374 1.375 . S
N372 C375 1.313 . S
C373 C374 1.338 . S
C373 N376 1.377 . S
C373 H393 0.930 . S
C374 N372 1.375 . S
C374 C373 1.338 . S
C374 H378 0.931 . S
C375 N372 1.313 . S
C375 N376 1.344 . S
C375 H379 0.930 . S
N376 C373 1.377 . S
N376 C375 1.344 . S
O377 Co369 2.055 . S
O377 C381 1.253 . S
H378 C374 0.931 . S
H379 C375 0.930 . S
O380 Co369 2.039 . S
O380 C370 1.265 . S
C381 O377 1.253 . S
C381 O382 1.227 1_455 S
O382 C381 1.227 1_655 S
N383 Co369 2.140 1_655 S
N383 C386 1.346 . S
N383 C387 1.345 . S
C384 C385 1.387 . S
C384 C388 1.391 . S
C385 C384 1.387 . S
C385 C386 1.369 . S
C385 H394 0.929 . S
C386 N383 1.346 . S
C386 C385 1.369 . S
C386 H389 0.928 . S
C387 N383 1.345 . S
C387 C388 1.371 . S
C387 H390 0.931 . S
C388 C384 1.391 . S
C388 C387 1.371 . S
C388 H395 0.930 . S
H389 C386 0.928 . S
H390 C387 0.931 . S
H391 C367 0.930 . S
H392 C364 0.930 . S
H393 C373 0.930 . S
H394 C385 0.929 . S
H395 C388 0.930 . S
C396 C397 1.387 . S
C396 H400 0.950 . S
C396 C405 1.390 1_566 S
C397 C396 1.387 . S
C397 C399 1.387 . S
H398 C405 0.950 . S
C399 C397 1.387 . S
C399 C401 1.390 1_566 S
C399 H403 0.950 . S
H400 C396 0.950 . S
C401 C399 1.390 1_544 S
C401 C402 1.387 . S
C401 H404 0.950 . S
C402 C401 1.387 . S
C402 C405 1.387 . S
H403 C399 0.950 . S
H404 C401 0.950 . S
C405 C396 1.390 1_544 S
C405 H398 0.950 . S
C405 C402 1.387 . S
C406 C407 1.387 . S
C406 H410 0.950 . S
C406 C415 1.390 . S
C407 C406 1.387 . S
C407 C409 1.387 . S
H408 C415 0.950 . S
C409 C407 1.387 . S
C409 C411 1.390 . S
C409 H413 0.950 . S
H410 C406 0.950 . S
C411 C409 1.390 . S
C411 C412 1.387 . S
C411 H414 0.950 . S
C412 C411 1.387 . S
C412 C415 1.387 . S
H413 C409 0.950 . S
H414 C411 0.950 . S
C415 C406 1.390 . S
C415 H408 0.950 . S
C415 C412 1.387 . S
C416 C417 1.387 . S
C416 H420 0.950 . S
C416 C425 1.390 1_655 S
C417 C416 1.387 . S
C417 C419 1.387 1_655 S
H418 C425 0.950 . S
C419 C417 1.387 1_455 S
C419 C421 1.390 . S
C419 H423 0.950 . S
H420 C416 0.950 . S
C421 C419 1.390 . S
C421 C422 1.387 . S
C421 H424 0.950 . S
C422 C421 1.387 . S
C422 C425 1.387 . S
H423 C419 0.950 . S
H424 C421 0.950 . S
C425 C416 1.390 1_455 S
C425 H418 0.950 . S
C425 C422 1.387 . S
C426 C427 1.387 . S
C426 H430 0.950 . S
C426 C435 1.390 1_545 S
C427 C426 1.387 . S
C427 C429 1.387 . S
H428 C435 0.950 . S
C429 C427 1.387 . S
C429 C431 1.390 1_545 S
C429 H433 0.950 . S
H430 C426 0.950 . S
C431 C429 1.390 1_565 S
C431 C432 1.387 . S
C431 H434 0.950 . S
C432 C431 1.387 . S
C432 C435 1.387 . S
H433 C429 0.950 . S
H434 C431 0.950 . S
C435 C426 1.390 1_565 S
C435 H428 0.950 . S
C435 C432 1.387 . S
C436 C437 1.387 . S
C436 H440 0.950 . S
C436 C445 1.390 . S
C437 C436 1.387 . S
C437 C439 1.387 . S
H438 C445 0.950 . S
C439 C437 1.387 . S
C439 C441 1.390 . S
C439 H443 0.950 . S
H440 C436 0.950 . S
C441 C439 1.390 . S
C441 C442 1.387 . S
C441 H444 0.950 . S
C442 C441 1.387 . S
C442 C445 1.387 . S
H443 C439 0.950 . S
H444 C441 0.950 . S
C445 C436 1.390 . S
C445 H438 0.950 . S
C445 C442 1.387 . S
C446 C447 1.387 . S
C446 H450 0.950 . S
C446 C455 1.390 1_655 S
C447 C446 1.387 . S
C447 C449 1.387 . S
H448 C455 0.950 . S
C449 C447 1.387 . S
C449 C451 1.390 1_655 S
C449 H453 0.950 . S
H450 C446 0.950 . S
C451 C449 1.390 1_455 S
C451 C452 1.387 . S
C451 H454 0.950 . S
C452 C451 1.387 . S
C452 C455 1.387 . S
H453 C449 0.950 . S
H454 C451 0.950 . S
C455 C446 1.390 1_455 S
C455 H448 0.950 . S
C455 C452 1.387 . S
C456 C457 1.387 . S
C456 H460 0.950 . S
C456 C465 1.390 1_545 S
C457 C456 1.387 . S
C457 C459 1.387 . S
H458 C465 0.950 . S
C459 C457 1.387 . S
C459 C461 1.390 . S
C459 H463 0.950 . S
H460 C456 0.950 . S
C461 C459 1.390 . S
C461 C462 1.387 1_545 S
C461 H464 0.950 . S
C462 C461 1.387 1_565 S
C462 C465 1.387 . S
H463 C459 0.950 . S
H464 C461 0.950 . S
C465 C456 1.390 1_565 S
C465 H458 0.950 . S
C465 C462 1.387 . S
C466 C467 1.387 1_455 S
C466 H470 0.950 . S
C466 C475 1.390 . S
C467 C466 1.387 1_655 S
C467 C469 1.387 1_545 S
H468 C475 0.950 . S
C469 C467 1.387 1_565 S
C469 C471 1.390 1_655 S
C469 H473 0.950 . S
H470 C466 0.950 . S
C471 C469 1.390 1_455 S
C471 C472 1.387 1_565 S
C471 H474 0.950 . S
C472 C471 1.387 1_545 S
C472 C475 1.387 . S
H473 C469 0.950 . S
H474 C471 0.950 . S
C475 C466 1.390 . S
C475 H468 0.950 . S
C475 C472 1.387 . S
C476 C477 1.387 . S
C476 H480 0.950 . S
C476 C485 1.393 1_545 S
C477 C476 1.387 . S
C477 C479 1.387 1_455 S
H478 C485 0.953 . S
C479 C477 1.387 1_655 S
C479 C481 1.390 . S
C479 H483 0.950 . S
H480 C476 0.950 . S
C481 C479 1.390 . S
C481 C482 1.387 1_545 S
C481 H484 0.950 . S
C482 C481 1.387 1_565 S
C482 C485 1.382 1_655 S
H483 C479 0.950 . S
H484 C481 0.950 . S
C485 C476 1.393 1_565 S
C485 H478 0.953 . S
C485 C482 1.382 1_455 S
C486 C487 1.387 1_455 S
C486 H490 0.950 . S
C486 C495 1.390 1_545 S
C487 C486 1.387 1_655 S
C487 C489 1.387 1_545 S
H488 C495 0.950 1_545 S
C489 C487 1.387 1_565 S
C489 C491 1.390 . S
C489 H493 0.950 . S
H490 C486 0.950 . S
C491 C489 1.390 . S
C491 C492 1.387 . S
C491 H494 0.950 . S
C492 C491 1.387 . S
C492 C495 1.387 1_655 S
H493 C489 0.950 . S
H494 C491 0.950 . S
C495 C486 1.390 1_565 S
C495 H488 0.950 1_565 S
C495 C492 1.387 1_455 S
C496 C497 1.387 1_545 S
C496 H500 0.950 . S
C496 C505 1.390 1_455 S
C497 C496 1.387 1_565 S
C497 C499 1.387 1_455 S
H498 C505 0.950 . S
C499 C497 1.387 1_655 S
C499 C501 1.390 . S
C499 H503 0.950 . S
H500 C496 0.950 . S
C501 C499 1.390 . S
C501 C502 1.387 . S
C501 H504 0.950 . S
C502 C501 1.387 . S
C502 C505 1.387 1_565 S
H503 C499 0.950 . S
H504 C501 0.950 . S
C505 C496 1.390 1_655 S
C505 H498 0.950 . S
C505 C502 1.387 1_545 S
C506 C507 1.387 1_545 S
C506 H510 0.950 . S
C506 C515 1.390 1_655 S
C507 C506 1.387 1_565 S
C507 C509 1.387 1_655 S
H508 C515 0.950 . S
C509 C507 1.387 1_455 S
C509 C511 1.390 . S
C509 H513 0.950 1_455 S
H510 C506 0.950 . S
C511 C509 1.390 . S
C511 C512 1.387 1_565 S
C511 H514 0.950 . S
C512 C511 1.387 1_545 S
C512 C515 1.387 . S
H513 C509 0.950 1_655 S
H514 C511 0.950 . S
C515 C506 1.390 1_455 S
C515 H508 0.950 . S
C515 C512 1.387 . S
C516 C517 1.387 . S
C516 H520 0.950 . S
C516 C525 1.390 1_556 S
C517 C516 1.387 . S
C517 C519 1.383 1_556 S
H518 C525 0.950 . S
C519 C517 1.383 1_554 S
C519 C521 1.396 . S
C519 H523 0.945 1_554 S
H520 C516 0.950 . S
C521 C519 1.396 . S
C521 C522 1.387 . S
C521 H524 0.950 . S
C522 C521 1.387 . S
C522 C525 1.387 . S
H523 C519 0.945 1_556 S
H524 C521 0.950 . S
C525 C516 1.390 1_554 S
C525 H518 0.950 . S
C525 C522 1.387 . S
C526 C527 1.387 . S
C526 H530 0.950 . S
C526 C535 1.390 . S
C527 C526 1.387 . S
C527 C529 1.387 . S
H528 C535 0.950 . S
C529 C527 1.387 . S
C529 C531 1.390 . S
C529 H533 0.950 . S
H530 C526 0.950 . S
C531 C529 1.390 . S
C531 C532 1.387 . S
C531 H534 0.950 . S
C532 C531 1.387 . S
C532 C535 1.387 . S
H533 C529 0.950 . S
H534 C531 0.950 . S
C535 C526 1.390 . S
C535 H528 0.950 . S
C535 C532 1.387 . S
C536 C537 1.387 . S
C536 H540 0.950 . S
C536 C545 1.390 . S
C537 C536 1.387 . S
C537 C539 1.387 . S
H538 C545 0.950 . S
C539 C537 1.387 . S
C539 C541 1.390 . S
C539 H543 0.950 . S
H540 C536 0.950 . S
C541 C539 1.390 . S
C541 C542 1.387 . S
C541 H544 0.950 . S
C542 C541 1.387 . S
C542 C545 1.387 . S
H543 C539 0.950 . S
H544 C541 0.950 . S
C545 C536 1.390 . S
C545 H538 0.950 . S
C545 C542 1.387 . S
C546 C547 1.387 . S
C546 H550 0.950 . S
C546 C555 1.390 . S
C547 C546 1.387 . S
C547 C549 1.387 . S
H548 C555 0.950 . S
C549 C547 1.387 . S
C549 C551 1.390 . S
C549 H553 0.950 . S
H550 C546 0.950 . S
C551 C549 1.390 . S
C551 C552 1.387 . S
C551 H554 0.950 . S
C552 C551 1.387 . S
C552 C555 1.387 . S
H553 C549 0.950 . S
H554 C551 0.950 . S
C555 C546 1.390 . S
C555 H548 0.950 . S
C555 C552 1.387 . S
C556 C557 1.387 . S
C556 H560 0.950 . S
C556 C565 1.390 . S
C557 C556 1.387 . S
C557 C559 1.387 . S
H558 C565 0.950 . S
C559 C557 1.387 . S
C559 C561 1.390 . S
C559 H563 0.950 . S
H560 C556 0.950 . S
C561 C559 1.390 . S
C561 C562 1.387 . S
C561 H564 0.950 . S
C562 C561 1.387 . S
C562 C565 1.387 . S
H563 C559 0.950 . S
H564 C561 0.950 . S
C565 C556 1.390 . S
C565 H558 0.950 . S
C565 C562 1.387 . S
C566 C567 1.387 . S
C566 H570 0.950 . S
C566 C575 1.390 . S
C567 C566 1.387 . S
C567 C569 1.387 . S
H568 C575 0.950 . S
C569 C567 1.387 . S
C569 C571 1.390 . S
C569 H573 0.950 . S
H570 C566 0.950 . S
C571 C569 1.390 . S
C571 C572 1.387 . S
C571 H574 0.950 . S
C572 C571 1.387 . S
C572 C575 1.387 . S
H573 C569 0.950 . S
H574 C571 0.950 . S
C575 C566 1.390 . S
C575 H568 0.950 . S
C575 C572 1.387 . S
C576 C577 1.387 . S
C576 H580 0.950 . S
C576 C585 1.390 . S
C577 C576 1.387 . S
C577 C579 1.387 . S
H578 C585 0.950 . S
C579 C577 1.387 . S
C579 C581 1.390 . S
C579 H583 0.950 . S
H580 C576 0.950 . S
C581 C579 1.390 . S
C581 C582 1.387 . S
C581 H584 0.950 . S
C582 C581 1.387 . S
C582 C585 1.387 . S
H583 C579 0.950 . S
H584 C581 0.950 . S
C585 C576 1.390 . S
C585 H578 0.950 . S
C585 C582 1.387 . S
C586 C587 1.387 . S
C586 H590 0.950 . S
C586 C595 1.402 . S
C587 C586 1.387 . S
C587 C589 1.387 1_554 S
H588 C595 0.953 . S
C589 C587 1.387 1_556 S
C589 C591 1.390 . S
C589 H593 0.950 . S
H590 C586 0.950 . S
C591 C589 1.390 . S
C591 C592 1.387 . S
C591 H594 0.950 . S
C592 C591 1.387 . S
C592 C595 1.373 1_556 S
H593 C589 0.950 . S
H594 C591 0.950 . S
C595 C586 1.402 . S
C595 H588 0.953 . S
C595 C592 1.373 1_554 S
C596 C597 1.387 . S
C596 H600 0.950 . S
C596 C605 1.390 . S
C597 C596 1.387 . S
C597 C599 1.387 . S
H598 C605 0.950 . S
C599 C597 1.387 . S
C599 C601 1.390 . S
C599 H603 0.950 . S
H600 C596 0.950 . S
C601 C599 1.390 . S
C601 C602 1.387 . S
C601 H604 0.950 . S
C602 C601 1.387 . S
C602 C605 1.387 . S
H603 C599 0.950 . S
H604 C601 0.950 . S
C605 C596 1.390 . S
C605 H598 0.950 . S
C605 C602 1.387 . S
C606 C607 1.387 . S
C606 H610 0.950 . S
C606 C615 1.390 . S
C607 C606 1.387 . S
C607 C609 1.387 . S
H608 C615 0.950 . S
C609 C607 1.387 . S
C609 C611 1.390 . S
C609 H613 0.950 . S
H610 C606 0.950 . S
C611 C609 1.390 . S
C611 C612 1.387 . S
C611 H614 0.950 . S
C612 C611 1.387 . S
C612 C615 1.387 . S
H613 C609 0.950 . S
H614 C611 0.950 . S
C615 C606 1.390 . S
C615 H608 0.950 . S
C615 C612 1.387 . S
C616 C617 1.387 . S
C616 H620 0.950 . S
C616 C625 1.390 . S
C617 C616 1.387 . S
C617 C619 1.387 . S
H618 C625 0.950 . S
C619 C617 1.387 . S
C619 C621 1.390 . S
C619 H623 0.950 . S
H620 C616 0.950 . S
C621 C619 1.390 . S
C621 C622 1.387 . S
C621 H624 0.950 . S
C622 C621 1.387 . S
C622 C625 1.387 . S
H623 C619 0.950 . S
H624 C621 0.950 . S
C625 C616 1.390 . S
C625 H618 0.950 . S
C625 C622 1.387 . S
C626 C627 1.387 . S
C626 H630 0.950 . S
C626 C635 1.390 . S
C627 C626 1.387 . S
C627 C629 1.387 . S
H628 C635 0.950 . S
C629 C627 1.387 . S
C629 C631 1.390 . S
C629 H633 0.950 . S
H630 C626 0.950 . S
C631 C629 1.390 . S
C631 C632 1.387 . S
C631 H634 0.950 . S
C632 C631 1.387 . S
C632 C635 1.387 . S
H633 C629 0.950 . S
H634 C631 0.950 . S
C635 C626 1.390 . S
C635 H628 0.950 . S
C635 C632 1.387 . S
C636 C637 1.387 1_455 S
C636 H640 0.950 . S
C636 C645 1.390 . S
C637 C636 1.387 1_655 S
C637 C639 1.387 . S
H638 C645 0.950 . S
C639 C637 1.387 . S
C639 C641 1.390 . S
C639 H643 0.950 . S
H640 C636 0.950 . S
C641 C639 1.390 . S
C641 C642 1.387 . S
C641 H644 0.950 . S
C642 C641 1.387 . S
C642 C645 1.387 1_655 S
H643 C639 0.950 . S
H644 C641 0.950 . S
C645 C636 1.390 . S
C645 H638 0.950 . S
C645 C642 1.387 1_455 S
C646 C647 1.387 . S
C646 H650 0.950 . S
C646 C655 1.390 . S
C647 C646 1.387 . S
C647 C649 1.387 1_565 S
H648 C655 0.950 . S
C649 C647 1.387 1_545 S
C649 C651 1.390 . S
C649 H653 0.950 . S
H650 C646 0.950 . S
C651 C649 1.390 . S
C651 C652 1.387 1_545 S
C651 H654 0.950 . S
C652 C651 1.387 1_565 S
C652 C655 1.387 . S
H653 C649 0.950 . S
H654 C651 0.950 . S
C655 C646 1.390 . S
C655 H648 0.950 . S
C655 C652 1.387 . S
C656 C657 1.387 . S
C656 H660 0.950 . S
C656 C665 1.390 . S
C657 C656 1.387 . S
C657 C659 1.387 . S
H658 C665 0.950 . S
C659 C657 1.387 . S
C659 C661 1.390 . S
C659 H663 0.950 . S
H660 C656 0.950 . S
C661 C659 1.390 . S
C661 C662 1.387 . S
C661 H664 0.950 . S
C662 C661 1.387 . S
C662 C665 1.387 . S
H663 C659 0.950 . S
H664 C661 0.950 . S
C665 C656 1.390 . S
C665 H658 0.950 . S
C665 C662 1.387 . S
C666 C667 1.387 . S
C666 H670 0.950 . S
C666 C675 1.390 . S
C667 C666 1.387 . S
C667 C669 1.387 . S
H668 C675 0.950 . S
C669 C667 1.387 . S
C669 C671 1.390 . S
C669 H673 0.950 . S
H670 C666 0.950 . S
C671 C669 1.390 . S
C671 C672 1.387 . S
C671 H674 0.950 . S
C672 C671 1.387 . S
C672 C675 1.387 . S
H673 C669 0.950 . S
H674 C671 0.950 . S
C675 C666 1.390 . S
C675 H668 0.950 . S
C675 C672 1.387 . S
C676 C677 1.387 . S
C676 H680 0.950 . S
C676 C685 1.390 . S
C677 C676 1.387 . S
C677 C679 1.387 1_545 S
H678 C685 0.950 . S
C679 C677 1.387 1_565 S
C679 C681 1.390 . S
C679 H683 0.950 . S
H680 C676 0.950 . S
C681 C679 1.390 . S
C681 C682 1.387 1_565 S
C681 H684 0.950 . S
C682 C681 1.387 1_545 S
C682 C685 1.387 . S
H683 C679 0.950 . S
H684 C681 0.950 . S
C685 C676 1.390 . S
C685 H678 0.950 . S
C685 C682 1.387 . S
C686 C687 1.387 . S
C686 H690 0.950 . S
C686 C695 1.390 . S
C687 C686 1.387 . S
C687 C689 1.387 . S
H688 C695 0.950 . S
C689 C687 1.387 . S
C689 C691 1.390 . S
C689 H693 0.950 . S
H690 C686 0.950 . S
C691 C689 1.390 . S
C691 C692 1.387 . S
C691 H694 0.950 . S
C692 C691 1.387 . S
C692 C695 1.387 . S
H693 C689 0.950 . S
H694 C691 0.950 . S
C695 C686 1.390 . S
C695 H688 0.950 . S
C695 C692 1.387 . S
C397 C238 1.630 . S
C402 C7 1.637 . S
C407 C271 1.600 . S
C412 C40 1.604 . S
C417 C73 1.631 . S
C422 C304 1.637 . S
C427 C337 1.630 . S
C432 C106 1.638 . S
C437 C139 1.601 . S
C442 C370 1.605 . S
C447 C205 1.637 . S
C452 C172 1.630 . S
C457 N2 1.650 . S
C462 N266 1.652 . S
C467 N35 1.653 . S
C472 N299 1.652 . S
C477 N332 1.622 . S
C482 N68 1.622 . S
C487 N365 1.651 . S
C492 N101 1.650 . S
C497 N134 1.651 . S
C502 N200 1.650 . S
C507 N233 1.621 . S
C512 N167 1.622 . S
C517 N244 1.166 . S
C522 C21 1.171 . S
C527 N277 1.210 . S
C532 C54 1.217 . S
C537 N310 1.228 . S
C542 C87 1.239 . S
C547 C120 1.172 . S
C552 N343 1.166 . S
C557 N376 1.210 . S
C562 C153 1.217 . S
C567 C186 1.238 . S
C572 N211 1.228 . S
C577 C219 1.173 . S
C582 N178 1.166 . S
C587 N13 1.228 . S
C592 C252 1.239 . S
C597 N46 1.212 . S
C602 C285 1.216 . S
C607 N79 1.167 . S
C612 C318 1.170 . S
C617 N112 1.228 . S
C622 C351 1.238 . S
C627 N145 1.212 . S
C632 C384 1.216 . S
C637 C282 1.568 . S
C642 C18 1.568 . S
C647 C51 1.567 . S
C652 C315 1.567 . S
C657 C348 1.621 . S
C662 C84 1.623 . S
C667 C117 1.567 . S
C672 C381 1.568 . S
C677 C150 1.567 . S
C682 C216 1.567 . S
C687 C249 1.622 . S
C692 C183 1.621 . S
