# Generated by pormake.
# Topology uos, (4)-cn, num edge types: 1
# Building blocks:
#     Node 0, Type 0, BuildingBlock: UXUYUI_clean_sbu_0, # of connection points: 4
#     Node 1, Type 0, BuildingBlock: UXUYUI_clean_sbu_0, # of connection points: 4
#     Node 2, Type 0, BuildingBlock: UXUYUI_clean_sbu_0, # of connection points: 4
#     Node 3, Type 0, BuildingBlock: UXUYUI_clean_sbu_0, # of connection points: 4
#     Node 4, Type 0, BuildingBlock: UXUYUI_clean_sbu_0, # of connection points: 4
#     Node 5, Type 0, BuildingBlock: UXUYUI_clean_sbu_0, # of connection points: 4
#     Node 6, Type 0, BuildingBlock: UXUYUI_clean_sbu_0, # of connection points: 4
#     Node 7, Type 0, BuildingBlock: UXUYUI_clean_sbu_0, # of connection points: 4
#     Node 8, Type 0, BuildingBlock: UXUYUI_clean_sbu_0, # of connection points: 4
#     Node 9, Type 0, BuildingBlock: UXUYUI_clean_sbu_0, # of connection points: 4
#     Node 10, Type 0, BuildingBlock: UXUYUI_clean_sbu_0, # of connection points: 4
#     Node 11, Type 0, BuildingBlock: UXUYUI_clean_sbu_0, # of connection points: 4
#     Node 12, Type 0, BuildingBlock: UXUYUI_clean_sbu_0, # of connection points: 4
#     Node 13, Type 0, BuildingBlock: UXUYUI_clean_sbu_0, # of connection points: 4
#     Node 14, Type 0, BuildingBlock: UXUYUI_clean_sbu_0, # of connection points: 4
#     Node 15, Type 0, BuildingBlock: UXUYUI_clean_sbu_0, # of connection points: 4
#     Node 16, Type 0, BuildingBlock: UXUYUI_clean_sbu_0, # of connection points: 4
#     Node 17, Type 0, BuildingBlock: UXUYUI_clean_sbu_0, # of connection points: 4
#     Node 18, Type 0, BuildingBlock: UXUYUI_clean_sbu_0, # of connection points: 4
#     Node 19, Type 0, BuildingBlock: UXUYUI_clean_sbu_0, # of connection points: 4
#     Node 20, Type 0, BuildingBlock: UXUYUI_clean_sbu_0, # of connection points: 4
#     Node 21, Type 0, BuildingBlock: UXUYUI_clean_sbu_0, # of connection points: 4
#     Node 22, Type 0, BuildingBlock: UXUYUI_clean_sbu_0, # of connection points: 4
#     Node 23, Type 0, BuildingBlock: UXUYUI_clean_sbu_0, # of connection points: 4
#     Node 24, Type 0, BuildingBlock: UXUYUI_clean_sbu_0, # of connection points: 4
#     Node 25, Type 0, BuildingBlock: UXUYUI_clean_sbu_0, # of connection points: 4
#     Node 26, Type 0, BuildingBlock: UXUYUI_clean_sbu_0, # of connection points: 4
#     Node 27, Type 0, BuildingBlock: UXUYUI_clean_sbu_0, # of connection points: 4
#     Node 28, Type 0, BuildingBlock: UXUYUI_clean_sbu_0, # of connection points: 4
#     Node 29, Type 0, BuildingBlock: UXUYUI_clean_sbu_0, # of connection points: 4
#     Node 30, Type 0, BuildingBlock: UXUYUI_clean_sbu_0, # of connection points: 4
#     Node 31, Type 0, BuildingBlock: UXUYUI_clean_sbu_0, # of connection points: 4
#     Edge 32, Type (0, 0), BuildingBlock: TEMPAE_clean_linker_10, # of connection points: 2
#     Edge 33, Type (0, 0), BuildingBlock: TEMPAE_clean_linker_10, # of connection points: 2
#     Edge 34, Type (0, 0), BuildingBlock: TEMPAE_clean_linker_10, # of connection points: 2
#     Edge 35, Type (0, 0), BuildingBlock: TEMPAE_clean_linker_10, # of connection points: 2
#     Edge 36, Type (0, 0), BuildingBlock: TEMPAE_clean_linker_10, # of connection points: 2
#     Edge 37, Type (0, 0), BuildingBlock: TEMPAE_clean_linker_10, # of connection points: 2
#     Edge 38, Type (0, 0), BuildingBlock: TEMPAE_clean_linker_10, # of connection points: 2
#     Edge 39, Type (0, 0), BuildingBlock: TEMPAE_clean_linker_10, # of connection points: 2
#     Edge 40, Type (0, 0), BuildingBlock: TEMPAE_clean_linker_10, # of connection points: 2
#     Edge 41, Type (0, 0), BuildingBlock: TEMPAE_clean_linker_10, # of connection points: 2
#     Edge 42, Type (0, 0), BuildingBlock: TEMPAE_clean_linker_10, # of connection points: 2
#     Edge 43, Type (0, 0), BuildingBlock: TEMPAE_clean_linker_10, # of connection points: 2
#     Edge 44, Type (0, 0), BuildingBlock: TEMPAE_clean_linker_10, # of connection points: 2
#     Edge 45, Type (0, 0), BuildingBlock: TEMPAE_clean_linker_10, # of connection points: 2
#     Edge 46, Type (0, 0), BuildingBlock: TEMPAE_clean_linker_10, # of connection points: 2
#     Edge 47, Type (0, 0), BuildingBlock: TEMPAE_clean_linker_10, # of connection points: 2
#     Edge 48, Type (0, 0), BuildingBlock: TEMPAE_clean_linker_10, # of connection points: 2
#     Edge 49, Type (0, 0), BuildingBlock: TEMPAE_clean_linker_10, # of connection points: 2
#     Edge 50, Type (0, 0), BuildingBlock: TEMPAE_clean_linker_10, # of connection points: 2
#     Edge 51, Type (0, 0), BuildingBlock: TEMPAE_clean_linker_10, # of connection points: 2
#     Edge 52, Type (0, 0), BuildingBlock: TEMPAE_clean_linker_10, # of connection points: 2
#     Edge 53, Type (0, 0), BuildingBlock: TEMPAE_clean_linker_10, # of connection points: 2
#     Edge 54, Type (0, 0), BuildingBlock: TEMPAE_clean_linker_10, # of connection points: 2
#     Edge 55, Type (0, 0), BuildingBlock: TEMPAE_clean_linker_10, # of connection points: 2
#     Edge 56, Type (0, 0), BuildingBlock: TEMPAE_clean_linker_10, # of connection points: 2
#     Edge 57, Type (0, 0), BuildingBlock: TEMPAE_clean_linker_10, # of connection points: 2
#     Edge 58, Type (0, 0), BuildingBlock: TEMPAE_clean_linker_10, # of connection points: 2
#     Edge 59, Type (0, 0), BuildingBlock: TEMPAE_clean_linker_10, # of connection points: 2
#     Edge 60, Type (0, 0), BuildingBlock: TEMPAE_clean_linker_10, # of connection points: 2
#     Edge 61, Type (0, 0), BuildingBlock: TEMPAE_clean_linker_10, # of connection points: 2
#     Edge 62, Type (0, 0), BuildingBlock: TEMPAE_clean_linker_10, # of connection points: 2
#     Edge 63, Type (0, 0), BuildingBlock: TEMPAE_clean_linker_10, # of connection points: 2
#     Edge 64, Type (0, 0), BuildingBlock: TEMPAE_clean_linker_10, # of connection points: 2
#     Edge 65, Type (0, 0), BuildingBlock: TEMPAE_clean_linker_10, # of connection points: 2
#     Edge 66, Type (0, 0), BuildingBlock: TEMPAE_clean_linker_10, # of connection points: 2
#     Edge 67, Type (0, 0), BuildingBlock: TEMPAE_clean_linker_10, # of connection points: 2
#     Edge 68, Type (0, 0), BuildingBlock: TEMPAE_clean_linker_10, # of connection points: 2
#     Edge 69, Type (0, 0), BuildingBlock: TEMPAE_clean_linker_10, # of connection points: 2
#     Edge 70, Type (0, 0), BuildingBlock: TEMPAE_clean_linker_10, # of connection points: 2
#     Edge 71, Type (0, 0), BuildingBlock: TEMPAE_clean_linker_10, # of connection points: 2
#     Edge 72, Type (0, 0), BuildingBlock: TEMPAE_clean_linker_10, # of connection points: 2
#     Edge 73, Type (0, 0), BuildingBlock: TEMPAE_clean_linker_10, # of connection points: 2
#     Edge 74, Type (0, 0), BuildingBlock: TEMPAE_clean_linker_10, # of connection points: 2
#     Edge 75, Type (0, 0), BuildingBlock: TEMPAE_clean_linker_10, # of connection points: 2
#     Edge 76, Type (0, 0), BuildingBlock: TEMPAE_clean_linker_10, # of connection points: 2
#     Edge 77, Type (0, 0), BuildingBlock: TEMPAE_clean_linker_10, # of connection points: 2
#     Edge 78, Type (0, 0), BuildingBlock: TEMPAE_clean_linker_10, # of connection points: 2
#     Edge 79, Type (0, 0), BuildingBlock: TEMPAE_clean_linker_10, # of connection points: 2
#     Edge 80, Type (0, 0), BuildingBlock: TEMPAE_clean_linker_10, # of connection points: 2
#     Edge 81, Type (0, 0), BuildingBlock: TEMPAE_clean_linker_10, # of connection points: 2
#     Edge 82, Type (0, 0), BuildingBlock: TEMPAE_clean_linker_10, # of connection points: 2
#     Edge 83, Type (0, 0), BuildingBlock: TEMPAE_clean_linker_10, # of connection points: 2
#     Edge 84, Type (0, 0), BuildingBlock: TEMPAE_clean_linker_10, # of connection points: 2
#     Edge 85, Type (0, 0), BuildingBlock: TEMPAE_clean_linker_10, # of connection points: 2
#     Edge 86, Type (0, 0), BuildingBlock: TEMPAE_clean_linker_10, # of connection points: 2
#     Edge 87, Type (0, 0), BuildingBlock: TEMPAE_clean_linker_10, # of connection points: 2
#     Edge 88, Type (0, 0), BuildingBlock: TEMPAE_clean_linker_10, # of connection points: 2
#     Edge 89, Type (0, 0), BuildingBlock: TEMPAE_clean_linker_10, # of connection points: 2
#     Edge 90, Type (0, 0), BuildingBlock: TEMPAE_clean_linker_10, # of connection points: 2
#     Edge 91, Type (0, 0), BuildingBlock: TEMPAE_clean_linker_10, # of connection points: 2
#     Edge 92, Type (0, 0), BuildingBlock: TEMPAE_clean_linker_10, # of connection points: 2
#     Edge 93, Type (0, 0), BuildingBlock: TEMPAE_clean_linker_10, # of connection points: 2
#     Edge 94, Type (0, 0), BuildingBlock: TEMPAE_clean_linker_10, # of connection points: 2
#     Edge 95, Type (0, 0), BuildingBlock: TEMPAE_clean_linker_10, # of connection points: 2
# Relax obj value: 0.138
# Max RMSD: 0.134
# Mean RMSD: 0.134
data_MOF--net-uos--node1-UXUYUI_clean_sbu_0--edge1-TEMPAE_clean_linker_10
_symmetry_space_group_name_H-M    P1
_symmetry_Int_Tables_number       1
_symmetry_cell_setting            triclinic
loop_
_symmetry_equiv_pos_as_xyz
'x, y, z'
_cell_length_a     124.12356
_cell_length_b     124.12857
_cell_length_c     35.272038
_cell_angle_alpha  89.988013
_cell_angle_beta   89.994472
_cell_angle_gamma 89.99939
loop_
_atom_site_label
_atom_site_type_symbol
_atom_site_fract_x
_atom_site_fract_y
_atom_site_fract_z
_atom_type_partial_charge
Li0 Li 0.17937 0.15887 0.12902 0.0
Li1 Li 0.16069 0.15698 0.15092 0.0
Li2 Li 0.16576 0.1553 0.08401 0.0
Li3 Li 0.16609 0.17301 0.11088 0.0
C4 C 0.177 0.13804 0.13607 0.0
N5 N 0.192 0.12255 0.1556 0.0
C6 C 0.1771 0.13373 0.17267 0.0
C7 C 0.18442 0.13435 0.10924 0.0
C8 C 0.18477 0.12594 0.18204 0.0
C9 C 0.19197 0.12655 0.1197 0.0
C10 C 0.16821 0.1761 0.1887 0.0
C11 C 0.15447 0.1864 0.22066 0.0
N12 N 0.16224 0.19162 0.24073 0.0
C13 C 0.17606 0.18155 0.2096 0.0
C14 C 0.15733 0.17853 0.19422 0.0
C15 C 0.17288 0.18937 0.2358 0.0
C16 C 0.20247 0.15827 0.12523 0.0
N17 N 0.19364 0.15683 0.14743 0.0
C18 C 0.20468 0.15327 0.20147 0.0
C19 C 0.19455 0.15442 0.18487 0.0
C20 C 0.21398 0.15481 0.17946 0.0
C21 C 0.2128 0.15731 0.1408 0.0
H22 H 0.20151 0.16034 0.09565 0.0
H23 H 0.18737 0.15353 0.20197 0.0
C24 C 0.14192 0.14925 0.18935 0.0
N25 N 0.15239 0.15227 0.19301 0.0
C26 C 0.13626 0.14528 0.22064 0.0
C27 C 0.15218 0.14796 0.259 0.0
C28 C 0.15752 0.15183 0.227 0.0
C29 C 0.14144 0.14447 0.25599 0.0
H30 H 0.13799 0.14979 0.1621 0.0
H31 H 0.16584 0.15436 0.22908 0.0
C32 C 0.18006 0.16649 0.04219 0.0
N33 N 0.18519 0.16698 0.96597 0.0
C34 C 0.1761 0.17473 0.01905 0.0
C35 C 0.18673 0.15857 0.02665 0.0
C36 C 0.17877 0.17482 0.98057 0.0
C37 C 0.1892 0.15893 0.98803 0.0
C38 C 0.14546 0.16204 0.08013 0.0
C39 C 0.1401 0.15214 0.07844 0.0
C40 C 0.14294 0.17011 0.05394 0.0
C41 C 0.13234 0.15046 0.05036 0.0
C42 C 0.13511 0.16813 0.02637 0.0
N43 N 0.13002 0.15842 0.02514 0.0
C44 C 0.16123 0.1365 0.0411 0.0
C45 C 0.15916 0.15272 0.00657 0.0
C46 C 0.15728 0.13052 0.01051 0.0
N47 N 0.16201 0.14741 0.03877 0.0
C48 C 0.15522 0.14708 0.97531 0.0
C49 C 0.15405 0.13584 0.9772 0.0
H50 H 0.1633 0.13245 0.06724 0.0
H51 H 0.15949 0.16139 0.00558 0.0
C52 C 0.17292 0.19415 0.09569 0.0
N53 N 0.16421 0.18812 0.10544 0.0
C54 C 0.17202 0.20532 0.09253 0.0
C55 C 0.15327 0.20391 0.11038 0.0
C56 C 0.15449 0.19274 0.11271 0.0
C57 C 0.16212 0.21033 0.10014 0.0
H58 H 0.18058 0.19026 0.0906 0.0
H59 H 0.14772 0.18774 0.12071 0.0
O60 O 0.16972 0.14586 0.12657 0.0
O61 O 0.17121 0.16851 0.16269 0.0
O62 O 0.17759 0.16631 0.07999 0.0
O63 O 0.15323 0.16377 0.10693 0.0
H64 H 0.17137 0.13642 0.19371 0.0
H65 H 0.18435 0.13749 0.08067 0.0
H66 H 0.185 0.12259 0.21035 0.0
H67 H 0.1978 0.12368 0.09927 0.0
H68 H 0.14608 0.18838 0.22517 0.0
H69 H 0.18452 0.17976 0.20556 0.0
H70 H 0.15115 0.17443 0.17808 0.0
H71 H 0.17886 0.19367 0.25218 0.0
H72 H 0.20523 0.1515 0.23149 0.0
H73 H 0.21977 0.15853 0.12287 0.0
H74 H 0.12802 0.14262 0.21695 0.0
H75 H 0.15643 0.14766 0.28579 0.0
H76 H 0.17088 0.1809 0.03048 0.0
H77 H 0.18998 0.15222 0.04419 0.0
H78 H 0.17569 0.18111 0.96228 0.0
H79 H 0.19431 0.15282 0.97559 0.0
H80 H 0.1421 0.14573 0.098 0.0
H81 H 0.14709 0.17777 0.05456 0.0
H82 H 0.12821 0.14281 0.04847 0.0
H83 H 0.13311 0.17428 0.00581 0.0
H84 H 0.15638 0.12189 0.01349 0.0
H85 H 0.15294 0.15152 0.95014 0.0
H86 H 0.17907 0.21002 0.0851 0.0
H87 H 0.14549 0.20748 0.11639 0.0
Li88 Li 0.09144 0.92927 0.38527 0.0
Li89 Li 0.09165 0.91092 0.40825 0.0
Li90 Li 0.09549 0.91434 0.3425 0.0
Li91 Li 0.07685 0.91643 0.36806 0.0
C92 C 0.11097 0.92228 0.41483 0.0
N93 N 0.12508 0.92848 0.47138 0.0
C94 C 0.10706 0.92538 0.45036 0.0
C95 C 0.12207 0.92233 0.40809 0.0
C96 C 0.11432 0.92848 0.47857 0.0
C97 C 0.12907 0.92549 0.43704 0.0
C98 C 0.07413 0.92235 0.44858 0.0
C99 C 0.05898 0.91526 0.48351 0.0
N100 N 0.06059 0.92284 0.5108 0.0
C101 C 0.07562 0.93006 0.47698 0.0
C102 C 0.06574 0.91488 0.45186 0.0
C103 C 0.0687 0.93017 0.50821 0.0
C104 C 0.08445 0.94931 0.40905 0.0
N105 N 0.09356 0.94396 0.39894 0.0
C106 C 0.10443 0.95901 0.4171 0.0
C107 C 0.10342 0.94867 0.40168 0.0
C108 C 0.09519 0.9645 0.4297 0.0
C109 C 0.08508 0.95961 0.42464 0.0
H110 H 0.07671 0.94539 0.40623 0.0
H111 H 0.11054 0.94429 0.39309 0.0
C112 C 0.10508 0.89605 0.44479 0.0
N113 N 0.09608 0.9021 0.45026 0.0
C114 C 0.10933 0.88988 0.47431 0.0
C115 C 0.09508 0.8964 0.51491 0.0
C116 C 0.09103 0.90231 0.48445 0.0
C117 C 0.1044 0.89011 0.51021 0.0
H118 H 0.10906 0.89615 0.41751 0.0
H119 H 0.08402 0.90725 0.48866 0.0
C120 C 0.08924 0.93375 0.30868 0.0
N121 N 0.0976 0.94831 0.25724 0.0
C122 C 0.08249 0.93874 0.28229 0.0
C123 C 0.10024 0.93617 0.30897 0.0
C124 C 0.08687 0.94608 0.25649 0.0
C125 C 0.10431 0.94355 0.28272 0.0
C126 C 0.08691 0.89271 0.37406 0.0
C127 C 0.09543 0.88659 0.35959 0.0
C128 C 0.07983 0.8881 0.40027 0.0
C129 C 0.0968 0.87599 0.37201 0.0
C130 C 0.08149 0.87748 0.41204 0.0
N131 N 0.08988 0.8717 0.3978 0.0
C132 C 0.11396 0.9068 0.30392 0.0
C133 C 0.09849 0.90909 0.26532 0.0
C134 C 0.11977 0.90269 0.27323 0.0
N135 N 0.1035 0.9098 0.29948 0.0
C136 C 0.10401 0.90505 0.23385 0.0
C137 C 0.11477 0.90166 0.23765 0.0
H138 H 0.11768 0.90732 0.33157 0.0
H139 H 0.09015 0.91152 0.26271 0.0
C140 C 0.05612 0.92481 0.35902 0.0
N141 N 0.06187 0.91551 0.35824 0.0
C142 C 0.04494 0.92459 0.35473 0.0
C143 C 0.04585 0.9052 0.34861 0.0
C144 C 0.05703 0.90581 0.35275 0.0
C145 C 0.03966 0.91468 0.34986 0.0
H146 H 0.06022 0.93239 0.36378 0.0
H147 H 0.06183 0.89854 0.35233 0.0
O148 O 0.10405 0.91917 0.38667 0.0
O149 O 0.08079 0.92219 0.41767 0.0
O150 O 0.08504 0.92656 0.33408 0.0
O151 O 0.08556 0.90316 0.36277 0.0
H152 H 0.09853 0.92539 0.45616 0.0
H153 H 0.12524 0.91998 0.38073 0.0
H154 H 0.11139 0.9309 0.50617 0.0
H155 H 0.13767 0.92558 0.43219 0.0
H156 H 0.05248 0.90953 0.48641 0.0
H157 H 0.08208 0.93588 0.47506 0.0
H158 H 0.06449 0.90882 0.43041 0.0
H159 H 0.06977 0.93609 0.5304 0.0
H160 H 0.11237 0.96248 0.42051 0.0
H161 H 0.07774 0.96364 0.43323 0.0
H162 H 0.11644 0.88506 0.46907 0.0
H163 H 0.09111 0.89703 0.54215 0.0
H164 H 0.07395 0.93695 0.28176 0.0
H165 H 0.1056 0.9324 0.32916 0.0
H166 H 0.08175 0.95 0.23588 0.0
H167 H 0.11281 0.94549 0.28261 0.0
H168 H 0.10096 0.89001 0.33921 0.0
H169 H 0.0732 0.8927 0.41172 0.0
H170 H 0.1034 0.87119 0.36122 0.0
H171 H 0.07613 0.87384 0.43253 0.0
H172 H 0.12799 0.90005 0.27762 0.0
H173 H 0.09987 0.90453 0.20688 0.0
H174 H 0.04046 0.93206 0.35633 0.0
H175 H 0.04208 0.89742 0.34462 0.0
Li176 Li 0.32062 0.84223 0.64025 0.0
Li177 Li 0.33952 0.84351 0.66342 0.0
Li178 Li 0.33531 0.84547 0.59601 0.0
Li179 Li 0.33359 0.82798 0.62582 0.0
C180 C 0.32542 0.86374 0.6246 0.0
N181 N 0.31506 0.88169 0.596 0.0
C182 C 0.32807 0.874 0.63793 0.0
C183 C 0.3175 0.8626 0.59669 0.0
C184 C 0.32274 0.88298 0.62313 0.0
C185 C 0.31236 0.87177 0.5826 0.0
C186 C 0.32609 0.82581 0.70437 0.0
C187 C 0.33124 0.81613 0.7609 0.0
N188 N 0.32122 0.8117 0.76261 0.0
C189 C 0.31581 0.82128 0.70706 0.0
C190 C 0.33383 0.82331 0.73182 0.0
C191 C 0.31352 0.81412 0.73654 0.0
C192 C 0.2983 0.83807 0.64358 0.0
N193 N 0.30618 0.8449 0.65531 0.0
C194 C 0.29383 0.85414 0.69587 0.0
C195 C 0.30414 0.85292 0.68057 0.0
C196 C 0.28565 0.8469 0.68557 0.0
C197 C 0.28793 0.83888 0.65867 0.0
H198 H 0.30021 0.8317 0.62375 0.0
H199 H 0.31061 0.85813 0.68977 0.0
C200 C 0.35852 0.85054 0.70252 0.0
N201 N 0.34777 0.84857 0.70501 0.0
C202 C 0.36415 0.85449 0.73389 0.0
C203 C 0.34748 0.85452 0.76939 0.0
C204 C 0.3422 0.85051 0.73747 0.0
C205 C 0.35859 0.85658 0.76782 0.0
H206 H 0.36272 0.84919 0.67613 0.0
H207 H 0.33363 0.84897 0.73844 0.0
C208 C 0.32346 0.82995 0.55625 0.0
N209 N 0.3242 0.8196 0.48697 0.0
C210 C 0.33338 0.8273 0.53993 0.0
C211 C 0.31393 0.82733 0.53735 0.0
C212 C 0.33358 0.82207 0.50489 0.0
C213 C 0.31447 0.8221 0.50233 0.0
C214 C 0.35646 0.83199 0.62951 0.0
C215 C 0.36598 0.83469 0.6106 0.0
C216 C 0.35674 0.8245 0.65904 0.0
C217 C 0.37566 0.82988 0.62181 0.0
C218 C 0.36656 0.81986 0.66939 0.0
N219 N 0.37574 0.82264 0.65074 0.0
C220 C 0.34962 0.85831 0.55622 0.0
C221 C 0.33418 0.85397 0.51978 0.0
C222 C 0.35398 0.86415 0.52608 0.0
N223 N 0.33995 0.8533 0.55248 0.0
C224 C 0.33829 0.85965 0.48872 0.0
C225 C 0.34834 0.86481 0.49166 0.0
H226 H 0.35398 0.85771 0.5827 0.0
H227 H 0.32641 0.85006 0.51772 0.0
C228 C 0.32584 0.80677 0.62909 0.0
N229 N 0.33455 0.8127 0.61872 0.0
C230 C 0.32591 0.79559 0.6251 0.0
C231 C 0.34371 0.79681 0.59781 0.0
C232 C 0.34332 0.80799 0.60255 0.0
C233 C 0.33495 0.79043 0.60946 0.0
H234 H 0.31879 0.81073 0.64025 0.0
H235 H 0.34998 0.81288 0.59298 0.0
O236 O 0.33063 0.8549 0.6387 0.0
O237 O 0.32841 0.833 0.67603 0.0
O238 O 0.32301 0.83501 0.59067 0.0
O239 O 0.34697 0.83674 0.61913 0.0
H240 H 0.3342 0.87501 0.65949 0.0
H241 H 0.31535 0.85473 0.58595 0.0
H242 H 0.32471 0.89097 0.63319 0.0
H243 H 0.30622 0.87101 0.56099 0.0
H244 H 0.33717 0.8141 0.78221 0.0
H245 H 0.30967 0.82319 0.68643 0.0
H246 H 0.34175 0.82694 0.73098 0.0
H247 H 0.30562 0.8105 0.73872 0.0
H248 H 0.29238 0.86037 0.71676 0.0
H249 H 0.2818 0.83318 0.64995 0.0
H250 H 0.37269 0.85613 0.73138 0.0
H251 H 0.34292 0.85594 0.79509 0.0
H252 H 0.34085 0.82927 0.55403 0.0
H253 H 0.30619 0.82932 0.54965 0.0
H254 H 0.3412 0.81998 0.49193 0.0
H255 H 0.30715 0.82002 0.48738 0.0
H256 H 0.36591 0.84046 0.5876 0.0
H257 H 0.34942 0.82217 0.67334 0.0
H258 H 0.38309 0.83192 0.6075 0.0
H259 H 0.36687 0.81403 0.69216 0.0
H260 H 0.36179 0.86792 0.52945 0.0
H261 H 0.33363 0.86007 0.4628 0.0
H262 H 0.31897 0.79104 0.63462 0.0
H263 H 0.35075 0.79323 0.58475 0.0
Li264 Li 0.40492 0.08887 0.90092 0.0
Li265 Li 0.40636 0.07013 0.88354 0.0
Li266 Li 0.42073 0.08391 0.86496 0.0
Li267 Li 0.40269 0.08437 0.83618 0.0
C268 C 0.41843 0.08122 0.95197 0.0
N269 N 0.42194 0.08722 0.0263 0.0
C270 C 0.41369 0.07539 0.98147 0.0
C271 C 0.42503 0.09003 0.96017 0.0
C272 C 0.41555 0.07857 0.01889 0.0
C273 C 0.42668 0.09296 0.99797 0.0
C274 C 0.38485 0.07357 0.86789 0.0
C275 C 0.37711 0.06034 0.82591 0.0
N276 N 0.3675 0.06138 0.84411 0.0
C277 C 0.37491 0.07452 0.88615 0.0
C278 C 0.38597 0.06644 0.83751 0.0
C279 C 0.36623 0.06828 0.87372 0.0
C280 C 0.40306 0.10782 0.94757 0.0
N281 N 0.39997 0.09743 0.94214 0.0
C282 C 0.3893 0.09781 0.99841 0.0
C283 C 0.39322 0.0924 0.96667 0.0
C284 C 0.39213 0.10864 0.00459 0.0
C285 C 0.39912 0.11365 0.97852 0.0
H286 H 0.40855 0.11161 0.92783 0.0
H287 H 0.39101 0.08408 0.9618 0.0
C288 C 0.4137 0.04932 0.89839 0.0
N289 N 0.40482 0.05569 0.90063 0.0
C290 C 0.41366 0.03905 0.91457 0.0
C291 C 0.3952 0.04195 0.93395 0.0
C292 C 0.39566 0.05223 0.91795 0.0
C293 C 0.40434 0.0353 0.9329 0.0
H294 H 0.42093 0.05237 0.88501 0.0
H295 H 0.38882 0.05756 0.92052 0.0
C296 C 0.40607 0.10602 0.84911 0.0
N297 N 0.39535 0.12492 0.83205 0.0
C298 C 0.39506 0.10701 0.85676 0.0
C299 C 0.41162 0.11464 0.83276 0.0
C300 C 0.38979 0.11663 0.84794 0.0
C301 C 0.40606 0.12413 0.82436 0.0
C302 C 0.41685 0.06826 0.80036 0.0
C303 C 0.42395 0.07395 0.77704 0.0
C304 C 0.41347 0.05795 0.78976 0.0
C305 C 0.42736 0.06933 0.74298 0.0
C306 C 0.41707 0.0536 0.75549 0.0
N307 N 0.42387 0.05934 0.73298 0.0
C308 C 0.44199 0.07779 0.87599 0.0
C309 C 0.44025 0.0934 0.83773 0.0
C310 C 0.45318 0.07816 0.87284 0.0
N311 N 0.4358 0.08533 0.85854 0.0
C312 C 0.45145 0.09405 0.83363 0.0
C313 C 0.45808 0.08634 0.85129 0.0
H314 H 0.43819 0.07151 0.8925 0.0
H315 H 0.43511 0.09927 0.8241 0.0
C316 C 0.3844 0.09032 0.79162 0.0
N317 N 0.3952 0.08841 0.79044 0.0
C318 C 0.37905 0.09447 0.76004 0.0
C319 C 0.39598 0.09475 0.72639 0.0
C320 C 0.40101 0.0906 0.75869 0.0
C321 C 0.38485 0.09685 0.7269 0.0
H322 H 0.37997 0.08908 0.81757 0.0
H323 H 0.40963 0.08951 0.75878 0.0
O324 O 0.41647 0.07842 0.91516 0.0
O325 O 0.3934 0.07962 0.88 0.0
O326 O 0.4114 0.09662 0.85685 0.0
O327 O 0.41359 0.07253 0.83422 0.0
H328 H 0.40855 0.06855 0.97547 0.0
H329 H 0.42872 0.09463 0.93755 0.0
H330 H 0.41189 0.07418 0.04205 0.0
H331 H 0.43171 0.09981 0.00479 0.0
H332 H 0.37786 0.0548 0.8024 0.0
H333 H 0.37392 0.08002 0.90972 0.0
H334 H 0.39356 0.06568 0.82287 0.0
H335 H 0.35849 0.06892 0.88761 0.0
H336 H 0.38421 0.09346 0.01806 0.0
H337 H 0.40145 0.122 0.98165 0.0
H338 H 0.42086 0.03413 0.91317 0.0
H339 H 0.38793 0.03938 0.94834 0.0
H340 H 0.3906 0.10043 0.86931 0.0
H341 H 0.42013 0.11399 0.82653 0.0
H342 H 0.38127 0.11749 0.85367 0.0
H343 H 0.41025 0.13087 0.81168 0.0
H344 H 0.42672 0.08189 0.78497 0.0
H345 H 0.40817 0.05332 0.8079 0.0
H346 H 0.43279 0.07368 0.72452 0.0
H347 H 0.41449 0.04565 0.74686 0.0
H348 H 0.45794 0.07217 0.88756 0.0
H349 H 0.45486 0.10043 0.81646 0.0
H350 H 0.37052 0.09622 0.76213 0.0
H351 H 0.40079 0.09645 0.70148 0.0
Li352 Li 0.16416 0.84656 0.91021 0.0
Li353 Li 0.16543 0.82874 0.88122 0.0
Li354 Li 0.17818 0.8431 0.86431 0.0
Li355 Li 0.15933 0.84377 0.84338 0.0
C356 C 0.17842 0.83639 0.95153 0.0
N357 N 0.18196 0.83768 0.0287 0.0
C358 C 0.17377 0.82883 0.97591 0.0
C359 C 0.18494 0.84455 0.9663 0.0
C360 C 0.17565 0.82963 0.01487 0.0
C361 C 0.1866 0.84508 0.00543 0.0
C362 C 0.14172 0.83891 0.88151 0.0
C363 C 0.12588 0.83462 0.84483 0.0
N364 N 0.12028 0.8423 0.86403 0.0
C365 C 0.1358 0.84675 0.90088 0.0
C366 C 0.13672 0.83278 0.85329 0.0
C367 C 0.12497 0.84834 0.89164 0.0
C368 C 0.1621 0.86477 0.95885 0.0
N369 N 0.16016 0.85404 0.95535 0.0
C370 C 0.1508 0.85382 0.0146 0.0
C371 C 0.15468 0.84851 0.98247 0.0
C372 C 0.1525 0.86495 0.01876 0.0
C373 C 0.15835 0.87041 0.99052 0.0
H374 H 0.16636 0.86901 0.93668 0.0
H375 H 0.15305 0.84003 0.97856 0.0
C376 C 0.17343 0.80809 0.89826 0.0
N377 N 0.16431 0.81359 0.88933 0.0
C378 C 0.17319 0.7969 0.90217 0.0
C379 C 0.15413 0.79726 0.88809 0.0
C380 C 0.15473 0.80845 0.88473 0.0
C381 C 0.16346 0.79133 0.89665 0.0
H382 H 0.18095 0.8124 0.90165 0.0
H383 H 0.14759 0.81301 0.87794 0.0
C384 C 0.17407 0.86385 0.85313 0.0
N385 N 0.18691 0.88026 0.82564 0.0
C386 C 0.17223 0.86806 0.81695 0.0
C387 C 0.18237 0.86804 0.87545 0.0
C388 C 0.17883 0.87635 0.80354 0.0
C389 C 0.1888 0.87631 0.86099 0.0
C390 C 0.1727 0.82342 0.81451 0.0
C391 C 0.18317 0.81933 0.81653 0.0
C392 C 0.16453 0.81722 0.79819 0.0
C393 C 0.18529 0.80904 0.80234 0.0
C394 C 0.16697 0.80695 0.7844 0.0
N395 N 0.17721 0.80311 0.78675 0.0
C396 C 0.20126 0.84318 0.86743 0.0
C397 C 0.19334 0.84936 0.81033 0.0
C398 C 0.21157 0.84409 0.85161 0.0
N399 N 0.19243 0.84574 0.84653 0.0
C400 C 0.20345 0.85059 0.79369 0.0
C401 C 0.21277 0.84773 0.81401 0.0
H402 H 0.20029 0.84007 0.89587 0.0
H403 H 0.18617 0.85107 0.79403 0.0
C404 C 0.1429 0.85613 0.80785 0.0
N405 N 0.15053 0.84844 0.80237 0.0
C406 C 0.13689 0.86 0.77728 0.0
C407 C 0.14696 0.84821 0.73583 0.0
C408 C 0.15265 0.84446 0.76728 0.0
C409 C 0.13896 0.85612 0.7405 0.0
H410 H 0.14158 0.85938 0.8359 0.0
H411 H 0.15897 0.83857 0.76355 0.0
O412 O 0.1765 0.83588 0.91342 0.0
O413 O 0.15235 0.83727 0.89 0.0
O414 O 0.16779 0.85563 0.86657 0.0
O415 O 0.17039 0.83333 0.8294 0.0
H416 H 0.16866 0.82249 0.96493 0.0
H417 H 0.18861 0.85045 0.94777 0.0
H418 H 0.17205 0.82387 0.03412 0.0
H419 H 0.19158 0.85139 0.0173 0.0
H420 H 0.12194 0.82999 0.82288 0.0
H421 H 0.13953 0.85164 0.92258 0.0
H422 H 0.14121 0.8268 0.83755 0.0
H423 H 0.1203 0.8544 0.90634 0.0
H424 H 0.14619 0.84931 0.0353 0.0
H425 H 0.15992 0.87897 0.9927 0.0
H426 H 0.18058 0.79262 0.90841 0.0
H427 H 0.14645 0.79328 0.88403 0.0
H428 H 0.16584 0.86492 0.79928 0.0
H429 H 0.18391 0.86486 0.90347 0.0
H430 H 0.17753 0.87966 0.77553 0.0
H431 H 0.1953 0.87959 0.87786 0.0
H432 H 0.18958 0.82399 0.82934 0.0
H433 H 0.15637 0.82024 0.79665 0.0
H434 H 0.19334 0.80574 0.80389 0.0
H435 H 0.16071 0.80203 0.77195 0.0
H436 H 0.21846 0.84159 0.86825 0.0
H437 H 0.20392 0.85362 0.76495 0.0
H438 H 0.13074 0.86601 0.78245 0.0
H439 H 0.14905 0.84516 0.70804 0.0
Li440 Li 0.42204 0.91607 0.1332 0.0
Li441 Li 0.40376 0.91417 0.16398 0.0
Li442 Li 0.40628 0.91056 0.09853 0.0
Li443 Li 0.40713 0.9289 0.11795 0.0
C444 C 0.41305 0.89278 0.12828 0.0
N445 N 0.41217 0.87237 0.09737 0.0
C446 C 0.40395 0.88636 0.1338 0.0
C447 C 0.42174 0.88882 0.10731 0.0
C448 C 0.40364 0.87606 0.11785 0.0
C449 C 0.42113 0.87848 0.09186 0.0
C450 C 0.41768 0.93165 0.19831 0.0
C451 C 0.41747 0.94732 0.23869 0.0
N452 N 0.4247 0.94246 0.26213 0.0
C453 C 0.42516 0.92685 0.22262 0.0
C454 C 0.41385 0.942 0.20621 0.0
C455 C 0.42858 0.93243 0.25482 0.0
C456 C 0.44324 0.92236 0.11963 0.0
N457 N 0.43716 0.9152 0.13941 0.0
C458 C 0.45294 0.90721 0.16622 0.0
C459 C 0.44174 0.90769 0.16238 0.0
C460 C 0.45944 0.91445 0.14581 0.0
C461 C 0.45445 0.92211 0.12231 0.0
H462 H 0.43934 0.92827 0.10173 0.0
H463 H 0.43668 0.90207 0.17767 0.0
C464 C 0.38635 0.90535 0.20425 0.0
N465 N 0.39638 0.90955 0.20879 0.0
C466 C 0.3807 0.90126 0.23531 0.0
C467 C 0.39588 0.9057 0.27522 0.0
C468 C 0.40121 0.90979 0.24339 0.0
C469 C 0.38549 0.90132 0.27136 0.0
H470 H 0.38279 0.90499 0.1763 0.0
H471 H 0.40926 0.91295 0.24622 0.0
C472 C 0.41554 0.92471 0.0467 0.0
N473 N 0.4123 0.93195 0.9735 0.0
C474 C 0.40511 0.92676 0.03359 0.0
C475 C 0.42432 0.92633 0.02256 0.0
C476 C 0.40364 0.93042 0.9965 0.0
C477 C 0.42251 0.93 0.98565 0.0
C478 C 0.38569 0.92456 0.13484 0.0
C479 C 0.37584 0.92414 0.1157 0.0
C480 C 0.38658 0.93064 0.16806 0.0
C481 C 0.36704 0.92985 0.13005 0.0
C482 C 0.37759 0.93623 0.18152 0.0
N483 N 0.36809 0.93573 0.16239 0.0
C484 C 0.39113 0.89838 0.05764 0.0
C485 C 0.40852 0.89884 0.02984 0.0
C486 C 0.38716 0.89238 0.02726 0.0
N487 N 0.4016 0.90155 0.05815 0.0
C488 C 0.40487 0.89291 0.99876 0.0
C489 C 0.39403 0.88971 0.99704 0.0
H490 H 0.38583 0.90068 0.08059 0.0
H491 H 0.41683 0.90143 0.03113 0.0
C492 C 0.41478 0.94864 0.09427 0.0
N493 N 0.40537 0.9436 0.10285 0.0
C494 C 0.41472 0.95884 0.07765 0.0
C495 C 0.39527 0.95877 0.08076 0.0
C496 C 0.39569 0.94847 0.09667 0.0
C497 C 0.40487 0.96397 0.07034 0.0
H498 H 0.42234 0.94453 0.09904 0.0
H499 H 0.38829 0.94427 0.10268 0.0
O500 O 0.41338 0.90299 0.14271 0.0
O501 O 0.41433 0.92639 0.16637 0.0
O502 O 0.41722 0.92119 0.083 0.0
O503 O 0.39433 0.91896 0.12098 0.0
H504 H 0.39714 0.88934 0.14985 0.0
H505 H 0.42883 0.89374 0.10267 0.0
H506 H 0.39662 0.87101 0.12165 0.0
H507 H 0.42777 0.87532 0.07537 0.0
H508 H 0.41456 0.95532 0.24523 0.0
H509 H 0.42821 0.91885 0.21687 0.0
H510 H 0.40816 0.94588 0.18741 0.0
H511 H 0.43432 0.92879 0.274 0.0
H512 H 0.4565 0.90115 0.18442 0.0
H513 H 0.45916 0.92791 0.10647 0.0
H514 H 0.37279 0.89779 0.23094 0.0
H515 H 0.39985 0.90592 0.30255 0.0
H516 H 0.3982 0.92556 0.0518 0.0
H517 H 0.43244 0.92478 0.03227 0.0
H518 H 0.39561 0.93204 0.98601 0.0
H519 H 0.42924 0.93129 0.96666 0.0
H520 H 0.37503 0.91947 0.08995 0.0
H521 H 0.39409 0.93101 0.18341 0.0
H522 H 0.35938 0.92961 0.11548 0.0
H523 H 0.37817 0.94095 0.2072 0.0
H524 H 0.37872 0.89016 0.02683 0.0
H525 H 0.41045 0.89091 0.9762 0.0
H526 H 0.42228 0.96263 0.0701 0.0
H527 H 0.38752 0.96245 0.07514 0.0
Li528 Li 0.33372 0.17229 0.3762 0.0
Li529 Li 0.33558 0.15469 0.40414 0.0
Li530 Li 0.33934 0.15717 0.33757 0.0
Li531 Li 0.32115 0.15809 0.35999 0.0
C532 C 0.35606 0.169 0.36857 0.0
N533 N 0.37411 0.17983 0.34309 0.0
C534 C 0.36615 0.16681 0.38433 0.0
C535 C 0.35515 0.17672 0.33989 0.0
C536 C 0.37519 0.17236 0.37105 0.0
C537 C 0.36437 0.18211 0.32739 0.0
C538 C 0.32376 0.1697 0.44542 0.0
C539 C 0.31489 0.17697 0.50062 0.0
N540 N 0.32466 0.17934 0.51595 0.0
C541 C 0.33372 0.17222 0.46173 0.0
C542 C 0.31427 0.17209 0.46498 0.0
C543 C 0.334 0.17709 0.4974 0.0
C544 C 0.32618 0.1933 0.37005 0.0
N545 N 0.33457 0.18747 0.38382 0.0
C546 C 0.34339 0.20351 0.40486 0.0
C547 C 0.34301 0.19229 0.40156 0.0
C548 C 0.33491 0.2098 0.39029 0.0
C549 C 0.32616 0.20451 0.37314 0.0
H550 H 0.31951 0.18921 0.35649 0.0
H551 H 0.34953 0.18746 0.4127 0.0
C552 C 0.35048 0.14271 0.4447 0.0
N553 N 0.34036 0.1468 0.44736 0.0
C554 C 0.35489 0.13681 0.47459 0.0
C555 C 0.33832 0.13934 0.50948 0.0
C556 C 0.33422 0.1452 0.4788 0.0
C557 C 0.3488 0.13506 0.50761 0.0
H558 H 0.35515 0.14406 0.41924 0.0
H559 H 0.32615 0.14845 0.48008 0.0
C560 C 0.32463 0.16708 0.28927 0.0
N561 N 0.31661 0.16473 0.21668 0.0
C562 C 0.32347 0.15681 0.27347 0.0
C563 C 0.32172 0.17615 0.26816 0.0
C564 C 0.31939 0.1558 0.23674 0.0
C565 C 0.31768 0.17479 0.2315 0.0
C566 C 0.32551 0.13668 0.37612 0.0
C567 C 0.32777 0.1263 0.36297 0.0
C568 C 0.31775 0.13811 0.40443 0.0
C569 C 0.32226 0.11752 0.37843 0.0
C570 C 0.31242 0.12913 0.41918 0.0
N571 N 0.31476 0.11911 0.40599 0.0
C572 C 0.35077 0.14193 0.29535 0.0
C573 C 0.35116 0.1594 0.2684 0.0
C574 C 0.35653 0.13777 0.26469 0.0
N575 N 0.34813 0.15254 0.29646 0.0
C576 C 0.35715 0.15565 0.23761 0.0
C577 C 0.3598 0.14464 0.23509 0.0
H578 H 0.3482 0.13665 0.31796 0.0
H579 H 0.3488 0.16777 0.26954 0.0
C580 C 0.29976 0.1643 0.34746 0.0
N581 N 0.30658 0.15578 0.34455 0.0
C582 C 0.28944 0.16378 0.33175 0.0
C583 C 0.29324 0.1456 0.31127 0.0
C584 C 0.30352 0.1465 0.32709 0.0
C585 C 0.2861 0.15438 0.31284 0.0
H586 H 0.30251 0.17166 0.36073 0.0
H587 H 0.30916 0.13993 0.32414 0.0
O588 O 0.34717 0.16359 0.38137 0.0
O589 O 0.32321 0.16495 0.41047 0.0
O590 O 0.3285 0.16832 0.32532 0.0
O591 O 0.33093 0.14531 0.36125 0.0
H592 H 0.367 0.16087 0.40663 0.0
H593 H 0.34741 0.17857 0.32743 0.0
H594 H 0.38305 0.17074 0.38299 0.0
H595 H 0.36377 0.1881 0.30521 0.0
H596 H 0.30761 0.17886 0.51608 0.0
H597 H 0.34116 0.17042 0.44715 0.0
H598 H 0.3065 0.1702 0.45271 0.0
H599 H 0.34165 0.17908 0.51035 0.0
H600 H 0.35036 0.20719 0.41798 0.0
H601 H 0.31932 0.20895 0.36228 0.0
H602 H 0.36304 0.13379 0.47206 0.0
H603 H 0.3333 0.13808 0.5342 0.0
H604 H 0.32565 0.1497 0.28939 0.0
H605 H 0.32256 0.18414 0.28004 0.0
H606 H 0.31844 0.14791 0.22419 0.0
H607 H 0.31538 0.18174 0.21484 0.0
H608 H 0.33372 0.12502 0.341 0.0
H609 H 0.31581 0.14605 0.41491 0.0
H610 H 0.32393 0.10945 0.36851 0.0
H611 H 0.3064 0.13014 0.4411 0.0
H612 H 0.35812 0.12921 0.26388 0.0
H613 H 0.3596 0.16132 0.21596 0.0
H614 H 0.28431 0.17082 0.33314 0.0
H615 H 0.291 0.13815 0.29738 0.0
Li616 Li 0.07906 0.08516 0.62794 0.0
Li617 Li 0.09645 0.08668 0.65523 0.0
Li618 Li 0.09365 0.09018 0.58757 0.0
Li619 Li 0.0923 0.07123 0.61169 0.0
C620 C 0.0813 0.10637 0.64178 0.0
N621 N 0.06735 0.12263 0.66315 0.0
C622 C 0.08155 0.11041 0.67878 0.0
C623 C 0.074 0.11064 0.61562 0.0
C624 C 0.07443 0.11863 0.68902 0.0
C625 C 0.06699 0.11883 0.627 0.0
C626 C 0.07833 0.07304 0.68863 0.0
C627 C 0.06235 0.06363 0.70899 0.0
N628 N 0.0615 0.07044 0.73906 0.0
C629 C 0.07732 0.07993 0.71977 0.0
C630 C 0.07082 0.06479 0.68323 0.0
C631 C 0.06876 0.07847 0.74497 0.0
C632 C 0.05756 0.0803 0.61215 0.0
N633 N 0.06375 0.08641 0.63564 0.0
C634 C 0.04802 0.09283 0.66778 0.0
C635 C 0.0592 0.09247 0.66357 0.0
C636 C 0.04149 0.08664 0.64375 0.0
C637 C 0.04637 0.08025 0.61583 0.0
H638 H 0.06134 0.07535 0.59074 0.0
H639 H 0.06422 0.09691 0.683 0.0
C640 C 0.10913 0.10126 0.69589 0.0
N641 N 0.10494 0.09116 0.6974 0.0
C642 C 0.1153 0.10521 0.72584 0.0
C643 C 0.11293 0.08821 0.75821 0.0
C644 C 0.10677 0.08458 0.72754 0.0
C645 C 0.11724 0.09869 0.7577 0.0
H646 H 0.10756 0.10629 0.67146 0.0
H647 H 0.10341 0.07654 0.72779 0.0
C648 C 0.08073 0.07986 0.54001 0.0
N649 N 0.07793 0.08176 0.46261 0.0
C650 C 0.08613 0.0729 0.51535 0.0
C651 C 0.07382 0.08771 0.52537 0.0
C652 C 0.08462 0.07401 0.47629 0.0
C653 C 0.07254 0.08857 0.48613 0.0
C654 C 0.1152 0.08269 0.62288 0.0
C655 C 0.1206 0.09219 0.61344 0.0
C656 C 0.12014 0.07516 0.64664 0.0
C657 C 0.1309 0.09402 0.6281 0.0
C658 C 0.13043 0.07729 0.66076 0.0
N659 N 0.13555 0.0866 0.65128 0.0
C660 C 0.09608 0.10873 0.5404 0.0
C661 C 0.10462 0.09276 0.51909 0.0
C662 C 0.09983 0.11437 0.50873 0.0
N663 N 0.09848 0.09812 0.54478 0.0
C664 C 0.10848 0.09805 0.48694 0.0
C665 C 0.1061 0.109 0.48145 0.0
H666 H 0.09133 0.11285 0.56156 0.0
H667 H 0.10657 0.08437 0.52375 0.0
C668 C 0.08502 0.05109 0.5891 0.0
N669 N 0.09417 0.05668 0.59676 0.0
C670 C 0.08559 0.04089 0.57264 0.0
C671 C 0.10502 0.04228 0.5729 0.0
C672 C 0.10407 0.0525 0.58933 0.0
C673 C 0.09568 0.03643 0.56369 0.0
H674 H 0.07726 0.05474 0.59446 0.0
H675 H 0.1112 0.05726 0.59477 0.0
O676 O 0.08829 0.09841 0.63112 0.0
O677 O 0.0865 0.07451 0.66317 0.0
O678 O 0.08226 0.07906 0.57829 0.0
O679 O 0.10498 0.08092 0.60986 0.0
H680 H 0.08709 0.10717 0.69949 0.0
H681 H 0.07369 0.1076 0.58692 0.0
H682 H 0.07451 0.1218 0.71758 0.0
H683 H 0.06126 0.12217 0.6071 0.0
H684 H 0.05643 0.05733 0.70503 0.0
H685 H 0.083 0.08643 0.72414 0.0
H686 H 0.07147 0.05942 0.6592 0.0
H687 H 0.06784 0.08378 0.76907 0.0
H688 H 0.04451 0.09771 0.69003 0.0
H689 H 0.04157 0.07537 0.5968 0.0
H690 H 0.11831 0.11339 0.72437 0.0
H691 H 0.11433 0.08286 0.78195 0.0
H692 H 0.09154 0.0668 0.52618 0.0
H693 H 0.06952 0.0931 0.5441 0.0
H694 H 0.08881 0.06873 0.45684 0.0
H695 H 0.06725 0.09464 0.47439 0.0
H696 H 0.11684 0.09815 0.59534 0.0
H697 H 0.11599 0.06782 0.65456 0.0
H698 H 0.13517 0.10136 0.62118 0.0
H699 H 0.13434 0.07157 0.67938 0.0
H700 H 0.0978 0.1228 0.5055 0.0
H701 H 0.11345 0.09366 0.46697 0.0
H702 H 0.0782 0.03661 0.56637 0.0
H703 H 0.11295 0.0392 0.56605 0.0
Li704 Li 0.83992 0.84391 0.842 0.0
Li705 Li 0.83537 0.84644 0.9079 0.0
Li706 Li 0.8344 0.82782 0.87713 0.0
Li707 Li 0.82173 0.8424 0.86063 0.0
C708 C 0.85764 0.83426 0.8816 0.0
N709 N 0.87888 0.82801 0.87311 0.0
C710 C 0.86593 0.84056 0.89675 0.0
C711 C 0.86017 0.8247 0.86257 0.0
C712 C 0.87661 0.83729 0.892 0.0
C713 C 0.87095 0.8217 0.85848 0.0
C714 C 0.83594 0.86513 0.86653 0.0
C715 C 0.83574 0.88455 0.86535 0.0
N716 N 0.84655 0.88464 0.87158 0.0
C717 C 0.84704 0.86542 0.87285 0.0
C718 C 0.83023 0.87477 0.86269 0.0
C719 C 0.85227 0.87536 0.87534 0.0
C720 C 0.84423 0.85757 0.78082 0.0
N721 N 0.84852 0.84912 0.8002 0.0
C722 C 0.86343 0.84845 0.75723 0.0
C723 C 0.85791 0.84449 0.78882 0.0
C724 C 0.85922 0.85723 0.73695 0.0
C725 C 0.84948 0.8618 0.74923 0.0
H726 H 0.8366 0.86094 0.78954 0.0
H727 H 0.86105 0.83759 0.80354 0.0
C728 C 0.8471 0.8492 0.975 0.0
N729 N 0.83925 0.85372 0.95339 0.0
C730 C 0.85105 0.85459 0.00684 0.0
C731 C 0.83859 0.86911 0.99412 0.0
C732 C 0.83484 0.86341 0.96258 0.0
C733 C 0.84689 0.86475 0.0165 0.0
H734 H 0.85047 0.8415 0.96695 0.0
H735 H 0.82856 0.8668 0.94501 0.0
C736 C 0.83129 0.83166 0.78918 0.0
N737 N 0.8355 0.83043 0.71243 0.0
C738 C 0.82613 0.83866 0.764 0.0
C739 C 0.8385 0.82396 0.77535 0.0
C740 C 0.82839 0.83793 0.72529 0.0
C741 C 0.84054 0.82349 0.73643 0.0
C742 C 0.81335 0.83492 0.9222 0.0
C743 C 0.80724 0.82565 0.91556 0.0
C744 C 0.8085 0.84398 0.9384 0.0
C745 C 0.79632 0.82563 0.92508 0.0
C746 C 0.79756 0.84363 0.94752 0.0
N747 N 0.79174 0.83455 0.9407 0.0
C748 C 0.84258 0.80832 0.90934 0.0
C749 C 0.82891 0.80648 0.86287 0.0
C750 C 0.84328 0.79713 0.91323 0.0
N751 N 0.83555 0.81272 0.88417 0.0
C752 C 0.82923 0.79529 0.86619 0.0
C753 C 0.83655 0.79043 0.89141 0.0
H754 H 0.84773 0.81351 0.92605 0.0
H755 H 0.82332 0.81023 0.84339 0.0
C756 C 0.80202 0.85392 0.84698 0.0
N757 N 0.8073 0.84436 0.84388 0.0
C758 C 0.79173 0.85512 0.83124 0.0
C759 C 0.79256 0.83662 0.81002 0.0
C760 C 0.80276 0.83576 0.82625 0.0
C761 C 0.78697 0.84644 0.8119 0.0
H762 H 0.80587 0.86063 0.86102 0.0
H763 H 0.80716 0.82826 0.82427 0.0
O764 O 0.84711 0.8372 0.88681 0.0
O765 O 0.83059 0.8555 0.86436 0.0
O766 O 0.82942 0.83246 0.82726 0.0
O767 O 0.82395 0.83524 0.91188 0.0
H768 H 0.86415 0.84787 0.91222 0.0
H769 H 0.85389 0.81974 0.85054 0.0
H770 H 0.8831 0.8421 0.90347 0.0
H771 H 0.87301 0.81437 0.84357 0.0
H772 H 0.83141 0.89208 0.86249 0.0
H773 H 0.85158 0.85806 0.87565 0.0
H774 H 0.82162 0.87468 0.8578 0.0
H775 H 0.86086 0.87568 0.88023 0.0
H776 H 0.87081 0.84453 0.74834 0.0
H777 H 0.84595 0.86863 0.73468 0.0
H778 H 0.85753 0.85098 0.02303 0.0
H779 H 0.83507 0.87686 0.00082 0.0
H780 H 0.82056 0.84469 0.77432 0.0
H781 H 0.84251 0.81846 0.79447 0.0
H782 H 0.82453 0.84335 0.70549 0.0
H783 H 0.84615 0.81761 0.72532 0.0
H784 H 0.81088 0.81861 0.90283 0.0
H785 H 0.81313 0.85123 0.94344 0.0
H786 H 0.79147 0.81854 0.91993 0.0
H787 H 0.79367 0.8506 0.95988 0.0
H788 H 0.84912 0.79378 0.93272 0.0
H789 H 0.82371 0.79051 0.8494 0.0
H790 H 0.7877 0.86284 0.83318 0.0
H791 H 0.78911 0.82967 0.79597 0.0
Li792 Li 0.90782 0.09162 0.59848 0.0
Li793 Li 0.90483 0.08646 0.66388 0.0
Li794 Li 0.92282 0.08425 0.63451 0.0
Li795 Li 0.90794 0.07223 0.61643 0.0
C796 C 0.91729 0.10827 0.63911 0.0
N797 N 0.92238 0.12968 0.6274 0.0
C798 C 0.91156 0.11635 0.65798 0.0
C799 C 0.92571 0.11108 0.61474 0.0
C800 C 0.91423 0.12713 0.65155 0.0
C801 C 0.92813 0.12195 0.60907 0.0
C802 C 0.88623 0.08817 0.61644 0.0
C803 C 0.86772 0.08919 0.59601 0.0
N804 N 0.86706 0.09935 0.61027 0.0
C805 C 0.88537 0.09861 0.63091 0.0
C806 C 0.87734 0.08341 0.59886 0.0
C807 C 0.87561 0.10414 0.62752 0.0
C808 C 0.90404 0.09663 0.52272 0.0
N809 N 0.90366 0.10096 0.55808 0.0
C810 C 0.89621 0.1173 0.53352 0.0
C811 C 0.89988 0.11111 0.56397 0.0
C812 C 0.89647 0.113 0.49671 0.0
C813 C 0.90055 0.10256 0.49146 0.0
H814 H 0.90684 0.08846 0.51888 0.0
H815 H 0.89943 0.11434 0.59231 0.0
C816 C 0.90274 0.09687 0.73408 0.0
N817 N 0.89747 0.09033 0.70938 0.0
C818 C 0.89745 0.1009 0.76602 0.0
C819 C 0.88149 0.09114 0.7471 0.0
C820 C 0.88711 0.08725 0.71562 0.0
C821 C 0.88662 0.09818 0.77253 0.0
H822 H 0.91098 0.0992 0.72833 0.0
H823 H 0.88311 0.082 0.69563 0.0
C824 C 0.92575 0.07865 0.55708 0.0
N825 N 0.94183 0.07549 0.50404 0.0
C826 C 0.92901 0.06822 0.54759 0.0
C827 C 0.93052 0.08747 0.53902 0.0
C828 C 0.9372 0.06679 0.52088 0.0
C829 C 0.93868 0.0857 0.51244 0.0
C830 C 0.91062 0.06643 0.69233 0.0
C831 C 0.91699 0.06218 0.72138 0.0
C832 C 0.89986 0.06323 0.68899 0.0
C833 C 0.91247 0.05479 0.74668 0.0
C834 C 0.89565 0.05583 0.71486 0.0
N835 N 0.90199 0.05179 0.74293 0.0
C836 C 0.94271 0.09304 0.66068 0.0
C837 C 0.94405 0.07651 0.62744 0.0
C838 C 0.95392 0.09361 0.66404 0.0
N839 N 0.93804 0.08468 0.64189 0.0
C840 C 0.95527 0.07685 0.62952 0.0
C841 C 0.96032 0.08554 0.64766 0.0
H842 H 0.93774 0.09932 0.6727 0.0
H843 H 0.94014 0.06974 0.61407 0.0
C844 C 0.89741 0.05715 0.57007 0.0
N845 N 0.90482 0.05818 0.59817 0.0
C846 C 0.89574 0.04717 0.55272 0.0
C847 C 0.90926 0.03948 0.59397 0.0
C848 C 0.91066 0.04961 0.61058 0.0
C849 C 0.90183 0.0382 0.56422 0.0
H850 H 0.89302 0.06416 0.56042 0.0
H851 H 0.91667 0.05072 0.63243 0.0
O852 O 0.91475 0.09767 0.64492 0.0
O853 O 0.89573 0.08263 0.61919 0.0
O854 O 0.91773 0.08019 0.58314 0.0
O855 O 0.91495 0.07371 0.66749 0.0
H856 H 0.90507 0.11433 0.67719 0.0
H857 H 0.93038 0.10493 0.60063 0.0
H858 H 0.90981 0.13347 0.66577 0.0
H859 H 0.93461 0.12423 0.5902 0.0
H860 H 0.86077 0.0856 0.58246 0.0
H861 H 0.89216 0.10241 0.64461 0.0
H862 H 0.87787 0.07532 0.58755 0.0
H863 H 0.87485 0.11223 0.63859 0.0
H864 H 0.89313 0.12533 0.53874 0.0
H865 H 0.90069 0.09887 0.46363 0.0
H866 H 0.90169 0.10638 0.78469 0.0
H867 H 0.87318 0.08874 0.75133 0.0
H868 H 0.92534 0.06129 0.56099 0.0
H869 H 0.92788 0.09558 0.54509 0.0
H870 H 0.93987 0.05876 0.51353 0.0
H871 H 0.94246 0.09246 0.49835 0.0
H872 H 0.92533 0.06459 0.72433 0.0
H873 H 0.8948 0.06641 0.66669 0.0
H874 H 0.91731 0.05144 0.76931 0.0
H875 H 0.88734 0.05328 0.71262 0.0
H876 H 0.95756 0.10041 0.6784 0.0
H877 H 0.95996 0.07036 0.61722 0.0
H878 H 0.88985 0.04654 0.53018 0.0
H879 H 0.91426 0.03285 0.60335 0.0
Li880 Li 0.66027 0.1564 0.33945 0.0
Li881 Li 0.66441 0.15319 0.40655 0.0
Li882 Li 0.66651 0.17189 0.37809 0.0
Li883 Li 0.67926 0.15742 0.36377 0.0
C884 C 0.6424 0.16465 0.38064 0.0
N885 N 0.62048 0.16806 0.3731 0.0
C886 C 0.63506 0.15719 0.39527 0.0
C887 C 0.63857 0.17397 0.36291 0.0
C888 C 0.62402 0.15902 0.39095 0.0
C889 C 0.62747 0.17552 0.35918 0.0
C890 C 0.66921 0.13417 0.37017 0.0
C891 C 0.67622 0.11893 0.40467 0.0
N892 N 0.66859 0.11254 0.38857 0.0
C893 C 0.6615 0.12743 0.35366 0.0
C894 C 0.67669 0.12987 0.3956 0.0
C895 C 0.6613 0.11652 0.36343 0.0
C896 C 0.65613 0.15272 0.26235 0.0
N897 N 0.65177 0.15173 0.29752 0.0
C898 C 0.63633 0.14281 0.27191 0.0
C899 C 0.64207 0.14687 0.30282 0.0
C900 C 0.64063 0.14373 0.2352 0.0
C901 C 0.65064 0.14887 0.23064 0.0
H902 H 0.66399 0.15635 0.25893 0.0
H903 H 0.63897 0.14576 0.33112 0.0
C904 C 0.66284 0.14839 0.48533 0.0
N905 N 0.65974 0.14524 0.45006 0.0
C906 C 0.65899 0.14296 0.51738 0.0
C907 C 0.64895 0.1311 0.47616 0.0
C908 C 0.65292 0.13679 0.44503 0.0
C909 C 0.65191 0.13421 0.51297 0.0
H910 H 0.66817 0.15521 0.48862 0.0
H911 H 0.65031 0.13462 0.41685 0.0
C912 C 0.67072 0.1749 0.30044 0.0
N913 N 0.66866 0.19072 0.24574 0.0
C914 C 0.67989 0.17944 0.28382 0.0
C915 C 0.66052 0.17827 0.28871 0.0
C916 C 0.67867 0.18747 0.25638 0.0
C917 C 0.65963 0.18631 0.26116 0.0
C918 C 0.68601 0.16478 0.4309 0.0
C919 C 0.69179 0.17443 0.42927 0.0
C920 C 0.69042 0.1559 0.44968 0.0
C921 C 0.70201 0.17496 0.44574 0.0
C922 C 0.70066 0.15676 0.46582 0.0
N923 N 0.70621 0.16618 0.46348 0.0
C924 C 0.65735 0.19154 0.40594 0.0
C925 C 0.67332 0.19327 0.36966 0.0
C926 C 0.65662 0.20274 0.40968 0.0
N927 N 0.66552 0.18707 0.38561 0.0
C928 C 0.67289 0.20446 0.3725 0.0
C929 C 0.6644 0.20935 0.39237 0.0
H930 H 0.65134 0.18642 0.41892 0.0
H931 H 0.67993 0.1895 0.35476 0.0
C932 C 0.69759 0.14516 0.34032 0.0
N933 N 0.69388 0.15513 0.34952 0.0
C934 C 0.70793 0.1439 0.32517 0.0
C935 C 0.71044 0.16317 0.32971 0.0
C936 C 0.7001 0.16404 0.34489 0.0
C937 C 0.71441 0.15302 0.319 0.0
H938 H 0.6924 0.13823 0.34338 0.0
H939 H 0.69688 0.17189 0.35178 0.0
O940 O 0.65325 0.16301 0.38492 0.0
O941 O 0.66946 0.14489 0.36121 0.0
O942 O 0.67177 0.16709 0.32767 0.0
O943 O 0.67605 0.16406 0.41454 0.0
H944 H 0.63783 0.15002 0.40953 0.0
H945 H 0.64407 0.18003 0.35251 0.0
H946 H 0.61826 0.15326 0.40185 0.0
H947 H 0.62441 0.18268 0.34538 0.0
H948 H 0.68193 0.11551 0.42446 0.0
H949 H 0.65571 0.13059 0.33368 0.0
H950 H 0.68281 0.13493 0.40815 0.0
H951 H 0.65533 0.11123 0.35105 0.0
H952 H 0.62877 0.13869 0.2769 0.0
H953 H 0.65424 0.14984 0.20289 0.0
H954 H 0.6615 0.1456 0.54528 0.0
H955 H 0.64334 0.12455 0.47147 0.0
H956 H 0.68786 0.17685 0.29211 0.0
H957 H 0.65336 0.17461 0.30028 0.0
H958 H 0.6857 0.19111 0.2435 0.0
H959 H 0.65177 0.18899 0.2519 0.0
H960 H 0.68846 0.18141 0.41517 0.0
H961 H 0.68596 0.14845 0.45196 0.0
H962 H 0.70661 0.18236 0.44441 0.0
H963 H 0.70419 0.14993 0.4803 0.0
H964 H 0.64995 0.20619 0.42528 0.0
H965 H 0.67919 0.20923 0.35949 0.0
H966 H 0.71065 0.13595 0.3169 0.0
H967 H 0.7152 0.17039 0.32579 0.0
Li968 Li 0.59307 0.9117 0.09847 0.0
Li969 Li 0.59641 0.91567 0.16388 0.0
Li970 Li 0.57797 0.91784 0.13652 0.0
Li971 Li 0.59316 0.93026 0.11837 0.0
C972 C 0.58349 0.8941 0.14006 0.0
N973 N 0.57719 0.8728 0.13435 0.0
C974 C 0.59007 0.88591 0.15443 0.0
C975 C 0.57363 0.89145 0.12332 0.0
C976 C 0.58676 0.87519 0.15109 0.0
C977 C 0.57061 0.88064 0.12057 0.0
C978 C 0.61491 0.91469 0.11929 0.0
C979 C 0.6343 0.91471 0.11486 0.0
N980 N 0.63433 0.90382 0.11928 0.0
C981 C 0.61514 0.90352 0.12372 0.0
C982 C 0.62456 0.92035 0.11475 0.0
C983 C 0.62503 0.89816 0.12365 0.0
C984 C 0.6049 0.90792 0.0331 0.0
N985 N 0.5974 0.90315 0.05563 0.0
C986 C 0.59695 0.88773 0.01498 0.0
C987 C 0.59335 0.89326 0.04709 0.0
C988 C 0.6047 0.89249 0.99128 0.0
C989 C 0.60866 0.90273 0.00065 0.0
H990 H 0.60793 0.91583 0.04027 0.0
H991 H 0.58731 0.88963 0.0648 0.0
C992 C 0.59875 0.90419 0.23178 0.0
N993 N 0.60391 0.91122 0.20848 0.0
C994 C 0.60402 0.89992 0.26337 0.0
C995 C 0.61976 0.91039 0.24693 0.0
C996 C 0.61416 0.9145 0.21574 0.0
C997 C 0.61472 0.9029 0.27103 0.0
H998 H 0.5906 0.90172 0.22531 0.0
H999 H 0.61805 0.92019 0.19704 0.0
C1000 C 0.58025 0.92105 0.04879 0.0
N1001 N 0.57658 0.91636 0.97332 0.0
C1002 C 0.58616 0.92629 0.02053 0.0
C1003 C 0.57237 0.91354 0.03866 0.0
C1004 C 0.58421 0.92377 0.98254 0.0
C1005 C 0.57066 0.91125 0.00036 0.0
C1006 C 0.59041 0.93523 0.19571 0.0
C1007 C 0.58401 0.93885 0.22569 0.0
C1008 C 0.60106 0.93879 0.19264 0.0
C1009 C 0.58837 0.94598 0.25219 0.0
C1010 C 0.60514 0.94591 0.21972 0.0
N1011 N 0.59876 0.94933 0.24869 0.0
C1012 C 0.55852 0.91037 0.17084 0.0
C1013 C 0.55663 0.92388 0.12378 0.0
C1014 C 0.54733 0.90977 0.17518 0.0
N1015 N 0.56289 0.91726 0.14511 0.0
C1016 C 0.54544 0.92363 0.12746 0.0
C1017 C 0.54065 0.91645 0.15322 0.0
H1018 H 0.56372 0.90523 0.18754 0.0
H1019 H 0.56035 0.92928 0.10355 0.0
C1020 C 0.60438 0.946 0.07699 0.0
N1021 N 0.59624 0.94451 0.1022 0.0
C1022 C 0.60594 0.95606 0.06011 0.0
C1023 C 0.59101 0.96297 0.09685 0.0
C1024 C 0.58967 0.95274 0.11274 0.0
C1025 C 0.59908 0.96466 0.06952 0.0
H1026 H 0.6094 0.93926 0.06887 0.0
H1027 H 0.58317 0.95126 0.13248 0.0
O1028 O 0.58651 0.90465 0.14373 0.0
O1029 O 0.60533 0.92014 0.1195 0.0
O1030 O 0.58226 0.92316 0.08617 0.0
O1031 O 0.58625 0.9282 0.1697 0.0
H1032 H 0.59762 0.88779 0.16823 0.0
H1033 H 0.5684 0.89765 0.11226 0.0
H1034 H 0.59179 0.86878 0.16195 0.0
H1035 H 0.56303 0.87848 0.10746 0.0
H1036 H 0.64183 0.91899 0.11145 0.0
H1037 H 0.60775 0.89903 0.12696 0.0
H1038 H 0.62451 0.92902 0.11133 0.0
H1039 H 0.62532 0.8895 0.12705 0.0
H1040 H 0.59361 0.87988 0.00849 0.0
H1041 H 0.61472 0.90664 0.98336 0.0
H1042 H 0.59987 0.8941 0.28098 0.0
H1043 H 0.62795 0.91301 0.25209 0.0
H1044 H 0.59228 0.93212 0.02786 0.0
H1045 H 0.56766 0.9095 0.06014 0.0
H1046 H 0.58879 0.92769 0.96038 0.0
H1047 H 0.56464 0.90541 0.99213 0.0
H1048 H 0.57575 0.93615 0.22844 0.0
H1049 H 0.60615 0.93607 0.16967 0.0
H1050 H 0.58351 0.94884 0.27556 0.0
H1051 H 0.61337 0.94872 0.21772 0.0
H1052 H 0.54395 0.90419 0.19555 0.0
H1053 H 0.54057 0.92883 0.10971 0.0
H1054 H 0.6123 0.95706 0.03939 0.0
H1055 H 0.58548 0.96936 0.10456 0.0
Li1056 Li 0.83411 0.17165 0.12436 0.0
Li1057 Li 0.82175 0.15744 0.14219 0.0
Li1058 Li 0.84031 0.15703 0.16334 0.0
Li1059 Li 0.8362 0.15375 0.09772 0.0
C1060 C 0.83294 0.17484 0.20234 0.0
N1061 N 0.84059 0.18913 0.25602 0.0
C1062 C 0.82653 0.17767 0.23334 0.0
C1063 C 0.84324 0.17929 0.1986 0.0
C1064 C 0.83055 0.18491 0.26019 0.0
C1065 C 0.84696 0.18649 0.22605 0.0
C1066 C 0.81575 0.17048 0.07913 0.0
C1067 C 0.80557 0.17903 0.02925 0.0
N1068 N 0.79947 0.18414 0.05576 0.0
C1069 C 0.80938 0.1758 0.10587 0.0
C1070 C 0.81384 0.17209 0.04051 0.0
C1071 C 0.80119 0.18268 0.0935 0.0
C1072 C 0.84334 0.19082 0.09394 0.0
N1073 N 0.83521 0.1868 0.11559 0.0
C1074 C 0.82843 0.20453 0.12702 0.0
C1075 C 0.82789 0.19342 0.13238 0.0
C1076 C 0.83674 0.2089 0.10495 0.0
C1077 C 0.84433 0.20194 0.08848 0.0
H1078 H 0.8491 0.18538 0.08115 0.0
H1079 H 0.82168 0.19008 0.15035 0.0
C1080 C 0.80694 0.15316 0.19812 0.0
N1081 N 0.80764 0.15414 0.15986 0.0
C1082 C 0.79696 0.15171 0.21552 0.0
C1083 C 0.78858 0.15195 0.15367 0.0
C1084 C 0.79877 0.15332 0.13738 0.0
C1085 C 0.78756 0.15134 0.19337 0.0
H1086 H 0.81415 0.15372 0.21519 0.0
H1087 H 0.79956 0.15405 0.10695 0.0
C1088 C 0.8575 0.15853 0.11284 0.0
N1089 N 0.87724 0.14879 0.10086 0.0
C1090 C 0.8591 0.14777 0.12318 0.0
C1091 C 0.86595 0.16433 0.09647 0.0
C1092 C 0.86913 0.14299 0.11688 0.0
C1093 C 0.87587 0.15927 0.09063 0.0
C1094 C 0.82623 0.13599 0.13097 0.0
C1095 C 0.82756 0.12629 0.15055 0.0
C1096 C 0.81925 0.13644 0.09989 0.0
C1097 C 0.82188 0.11718 0.13866 0.0
C1098 C 0.81372 0.12715 0.0889 0.0
N1099 N 0.81514 0.1178 0.10835 0.0
C1100 C 0.84396 0.14586 0.2298 0.0
C1101 C 0.8589 0.15666 0.21221 0.0
C1102 C 0.84945 0.14209 0.26161 0.0
N1103 N 0.84877 0.15292 0.20578 0.0
C1104 C 0.86473 0.15305 0.24367 0.0
C1105 C 0.86002 0.1456 0.26873 0.0
H1106 H 0.83584 0.14314 0.2241 0.0
H1107 H 0.86251 0.16235 0.19277 0.0
C1108 C 0.84073 0.15095 0.01972 0.0
N1109 N 0.84067 0.14587 0.05386 0.0
C1110 C 0.84475 0.14571 0.9876 0.0
C1111 C 0.84849 0.1301 0.02635 0.0
C1112 C 0.84437 0.13561 0.05762 0.0
C1113 C 0.84882 0.13516 0.99073 0.0
H1114 H 0.83782 0.15914 0.01761 0.0
H1115 H 0.84439 0.13178 0.08513 0.0
O1116 O 0.82908 0.16777 0.17588 0.0
O1117 O 0.82386 0.16374 0.09043 0.0
O1118 O 0.84774 0.1634 0.11841 0.0
O1119 O 0.83175 0.14495 0.14247 0.0
H1120 H 0.81854 0.17431 0.23659 0.0
H1121 H 0.84831 0.17722 0.17478 0.0
H1122 H 0.82567 0.18717 0.28434 0.0
H1123 H 0.85491 0.18999 0.22351 0.0
H1124 H 0.80401 0.18035 0.99944 0.0
H1125 H 0.81074 0.17467 0.13588 0.0
H1126 H 0.8187 0.16802 0.01944 0.0
H1127 H 0.79621 0.18686 0.11391 0.0
H1128 H 0.82254 0.20968 0.14063 0.0
H1129 H 0.85086 0.20508 0.07136 0.0
H1130 H 0.79661 0.15103 0.24611 0.0
H1131 H 0.78156 0.15177 0.13546 0.0
H1132 H 0.85269 0.14314 0.13599 0.0
H1133 H 0.86486 0.17266 0.08831 0.0
H1134 H 0.87047 0.13467 0.12473 0.0
H1135 H 0.88247 0.16366 0.07795 0.0
H1136 H 0.83293 0.12582 0.17466 0.0
H1137 H 0.81811 0.14385 0.08432 0.0
H1138 H 0.82284 0.10962 0.15353 0.0
H1139 H 0.8083 0.12739 0.06491 0.0
H1140 H 0.84542 0.13652 0.28054 0.0
H1141 H 0.87288 0.15591 0.24791 0.0
H1142 H 0.84473 0.1499 0.96066 0.0
H1143 H 0.85169 0.12206 0.03034 0.0
Li1144 Li 0.59183 0.0707 0.884 0.0
Li1145 Li 0.57684 0.08362 0.86732 0.0
Li1146 Li 0.59516 0.08533 0.83852 0.0
Li1147 Li 0.59239 0.08929 0.90406 0.0
C1148 C 0.58828 0.06614 0.80615 0.0
N1149 N 0.59564 0.05224 0.75076 0.0
C1150 C 0.58164 0.06339 0.7757 0.0
C1151 C 0.59867 0.06185 0.80845 0.0
C1152 C 0.58551 0.05634 0.74798 0.0
C1153 C 0.60224 0.05483 0.78015 0.0
C1154 C 0.57963 0.08046 0.95462 0.0
C1155 C 0.57064 0.0908 0.00308 0.0
N1156 N 0.57662 0.08571 0.02999 0.0
C1157 C 0.58562 0.07526 0.98275 0.0
C1158 C 0.57202 0.08823 0.96483 0.0
C1159 C 0.584 0.07805 0.0207 0.0
C1160 C 0.60265 0.05463 0.92513 0.0
N1161 N 0.59464 0.05633 0.89961 0.0
C1162 C 0.58931 0.03787 0.90306 0.0
C1163 C 0.58808 0.04821 0.88804 0.0
C1164 C 0.59726 0.03591 0.93068 0.0
C1165 C 0.6041 0.04444 0.94119 0.0
H1166 H 0.60765 0.0613 0.93411 0.0
H1167 H 0.58172 0.04984 0.86787 0.0
C1168 C 0.55736 0.09131 0.83375 0.0
N1169 N 0.56173 0.08459 0.86003 0.0
C1170 C 0.54617 0.09217 0.83029 0.0
C1171 C 0.54425 0.07895 0.88019 0.0
C1172 C 0.55545 0.07839 0.88281 0.0
C1173 C 0.53944 0.08599 0.85394 0.0
H1174 H 0.56258 0.09613 0.81598 0.0
H1175 H 0.55916 0.07306 0.90323 0.0
C1176 C 0.61413 0.08525 0.88038 0.0
N1177 N 0.63423 0.09474 0.87645 0.0
C1178 C 0.61507 0.09644 0.87758 0.0
C1179 C 0.62341 0.07888 0.8813 0.0
C1180 C 0.6253 0.10108 0.87561 0.0
C1181 C 0.6335 0.08383 0.87924 0.0
C1182 C 0.58317 0.10725 0.86457 0.0
C1183 C 0.59026 0.11526 0.85215 0.0
C1184 C 0.57331 0.11019 0.88073 0.0
C1185 C 0.58747 0.12608 0.85684 0.0
C1186 C 0.57081 0.1211 0.88487 0.0
N1187 N 0.57789 0.12875 0.87299 0.0
C1188 C 0.59807 0.09771 0.77289 0.0
C1189 C 0.61228 0.08537 0.78401 0.0
C1190 C 0.60347 0.10196 0.74156 0.0
N1191 N 0.60259 0.08968 0.79367 0.0
C1192 C 0.61796 0.08935 0.75277 0.0
C1193 C 0.61362 0.09786 0.73129 0.0
H1194 H 0.59034 0.10099 0.78119 0.0
H1195 H 0.61569 0.07895 0.80086 0.0
C1196 C 0.60509 0.09294 0.96774 0.0
N1197 N 0.59723 0.09768 0.94662 0.0
C1198 C 0.60915 0.09806 0.99987 0.0
C1199 C 0.59699 0.11289 0.98824 0.0
C1200 C 0.59309 0.10743 0.95644 0.0
C1201 C 0.60512 0.10819 0.0104 0.0
H1202 H 0.60813 0.0851 0.95977 0.0
H1203 H 0.58669 0.11097 0.94011 0.0
O1204 O 0.58463 0.07309 0.83334 0.0
O1205 O 0.58135 0.0781 0.91724 0.0
O1206 O 0.6042 0.0805 0.88188 0.0
O1207 O 0.58568 0.0966 0.85956 0.0
H1208 H 0.57358 0.06667 0.77352 0.0
H1209 H 0.60395 0.06392 0.83174 0.0
H1210 H 0.58045 0.05413 0.72423 0.0
H1211 H 0.61027 0.05146 0.78155 0.0
H1212 H 0.56483 0.09684 0.01138 0.0
H1213 H 0.59155 0.06924 0.97534 0.0
H1214 H 0.56729 0.09229 0.94344 0.0
H1215 H 0.58864 0.07416 0.04274 0.0
H1216 H 0.58398 0.03152 0.89357 0.0
H1217 H 0.61023 0.04339 0.9627 0.0
H1218 H 0.54283 0.09777 0.80989 0.0
H1219 H 0.53942 0.07387 0.89845 0.0
H1220 H 0.60798 0.10146 0.8771 0.0
H1221 H 0.6228 0.0702 0.88339 0.0
H1222 H 0.62614 0.10974 0.87342 0.0
H1223 H 0.64075 0.079 0.87983 0.0
H1224 H 0.59782 0.11317 0.83878 0.0
H1225 H 0.56769 0.10415 0.89035 0.0
H1226 H 0.59291 0.13235 0.84749 0.0
H1227 H 0.56324 0.12349 0.89757 0.0
H1228 H 0.59985 0.10859 0.7262 0.0
H1229 H 0.62567 0.08582 0.74559 0.0
H1230 H 0.61547 0.09419 0.01607 0.0
H1231 H 0.59356 0.12063 0.99575 0.0
Li1232 Li 0.66545 0.82832 0.62487 0.0
Li1233 Li 0.67834 0.84126 0.64083 0.0
Li1234 Li 0.65981 0.84319 0.66492 0.0
Li1235 Li 0.66471 0.84601 0.59395 0.0
C1236 C 0.6718 0.82243 0.69408 0.0
N1237 N 0.67445 0.80264 0.7287 0.0
C1238 C 0.68063 0.81594 0.68485 0.0
C1239 C 0.66441 0.81892 0.72131 0.0
C1240 C 0.6818 0.80594 0.70254 0.0
C1241 C 0.66587 0.80888 0.73841 0.0
C1242 C 0.68579 0.83511 0.57237 0.0
C1243 C 0.69841 0.84346 0.52946 0.0
N1244 N 0.7057 0.83559 0.53736 0.0
C1245 C 0.69337 0.82706 0.57984 0.0
C1246 C 0.6883 0.84336 0.54685 0.0
C1247 C 0.70341 0.82746 0.56197 0.0
C1248 C 0.66886 0.80809 0.58945 0.0
N1249 N 0.6631 0.8132 0.61687 0.0
C1250 C 0.65552 0.79648 0.63741 0.0
C1251 C 0.6563 0.80767 0.64003 0.0
C1252 C 0.66167 0.79095 0.61032 0.0
C1253 C 0.66824 0.7969 0.58556 0.0
H1254 H 0.67414 0.81266 0.57119 0.0
H1255 H 0.65171 0.81191 0.66133 0.0
C1256 C 0.69446 0.8409 0.69571 0.0
N1257 N 0.69287 0.84363 0.6588 0.0
C1258 C 0.70456 0.84202 0.7124 0.0
C1259 C 0.71128 0.84921 0.65336 0.0
C1260 C 0.70098 0.84798 0.6378 0.0
C1261 C 0.71321 0.84606 0.69106 0.0
H1262 H 0.68783 0.83789 0.71249 0.0
H1263 H 0.69951 0.85054 0.60906 0.0
C1264 C 0.64475 0.83074 0.60794 0.0
N1265 N 0.62929 0.81591 0.58689 0.0
C1266 C 0.64471 0.82652 0.57121 0.0
C1267 C 0.63688 0.8275 0.63389 0.0
C1268 C 0.63684 0.819 0.56115 0.0
C1269 C 0.62914 0.81997 0.6227 0.0
C1270 C 0.67644 0.86213 0.64783 0.0
C1271 C 0.67889 0.8645 0.68558 0.0
C1272 C 0.68191 0.86742 0.61864 0.0
C1273 C 0.6869 0.87208 0.69353 0.0
C1274 C 0.68985 0.87497 0.62777 0.0
N1275 N 0.69217 0.87711 0.6647 0.0
C1276 C 0.65562 0.84742 0.74106 0.0
C1277 C 0.64164 0.85294 0.69955 0.0
C1278 C 0.65005 0.85153 0.7722 0.0
N1279 N 0.65137 0.84823 0.70571 0.0
C1280 C 0.6358 0.85721 0.72992 0.0
C1281 C 0.64005 0.85662 0.76684 0.0
H1282 H 0.66342 0.8437 0.74496 0.0
H1283 H 0.63853 0.85355 0.67098 0.0
C1284 C 0.66067 0.84924 0.51548 0.0
N1285 N 0.66042 0.85392 0.55031 0.0
C1286 C 0.65667 0.85475 0.48389 0.0
C1287 C 0.65228 0.86977 0.52463 0.0
C1288 C 0.6564 0.864 0.55538 0.0
C1289 C 0.65227 0.86512 0.48827 0.0
H1290 H 0.66386 0.84118 0.51235 0.0
H1291 H 0.65617 0.86745 0.58354 0.0
O1292 O 0.67044 0.83218 0.67663 0.0
O1293 O 0.67587 0.83478 0.58924 0.0
O1294 O 0.65248 0.83796 0.61851 0.0
O1295 O 0.66888 0.8545 0.63947 0.0
H1296 H 0.68647 0.81859 0.66413 0.0
H1297 H 0.65752 0.82384 0.72871 0.0
H1298 H 0.68854 0.8008 0.69546 0.0
H1299 H 0.66017 0.80602 0.75929 0.0
H1300 H 0.70049 0.84982 0.50981 0.0
H1301 H 0.69153 0.82056 0.5992 0.0
H1302 H 0.68257 0.84968 0.54082 0.0
H1303 H 0.70937 0.82131 0.56761 0.0
H1304 H 0.65025 0.79219 0.65669 0.0
H1305 H 0.67314 0.79292 0.56438 0.0
H1306 H 0.70557 0.8398 0.74188 0.0
H1307 H 0.7177 0.85241 0.63586 0.0
H1308 H 0.65078 0.82893 0.55088 0.0
H1309 H 0.63683 0.83068 0.66246 0.0
H1310 H 0.63675 0.81561 0.5329 0.0
H1311 H 0.62303 0.81734 0.64253 0.0
H1312 H 0.67475 0.86041 0.70846 0.0
H1313 H 0.68011 0.86564 0.58928 0.0
H1314 H 0.68895 0.87394 0.72261 0.0
H1315 H 0.69419 0.87909 0.60549 0.0
H1316 H 0.65357 0.85075 0.80017 0.0
H1317 H 0.62819 0.86118 0.72441 0.0
H1318 H 0.65696 0.85089 0.45639 0.0
H1319 H 0.64882 0.87766 0.52955 0.0
Li1320 Li 0.90689 0.93152 0.38244 0.0
Li1321 Li 0.92095 0.91839 0.36704 0.0
Li1322 Li 0.9024 0.91633 0.33936 0.0
Li1323 Li 0.90616 0.91233 0.40614 0.0
C1324 C 0.9119 0.93639 0.30605 0.0
N1325 N 0.90939 0.95292 0.25429 0.0
C1326 C 0.92087 0.94217 0.29332 0.0
C1327 C 0.90169 0.93891 0.29197 0.0
C1328 C 0.91943 0.95053 0.2673 0.0
C1329 C 0.90058 0.94732 0.26594 0.0
C1330 C 0.92629 0.92591 0.43532 0.0
C1331 C 0.94229 0.91973 0.46749 0.0
N1332 N 0.94601 0.93003 0.46873 0.0
C1333 C 0.93022 0.93645 0.43729 0.0
C1334 C 0.93232 0.91749 0.4509 0.0
C1335 C 0.94022 0.93836 0.45417 0.0
C1336 C 0.89707 0.94769 0.42576 0.0
N1337 N 0.90425 0.94606 0.39723 0.0
C1338 C 0.90909 0.9647 0.39765 0.0
C1339 C 0.91016 0.95433 0.3828 0.0
C1340 C 0.90192 0.96658 0.42777 0.0
C1341 C 0.89571 0.95794 0.44138 0.0
H1342 H 0.89264 0.94092 0.43725 0.0
H1343 H 0.91604 0.9528 0.36093 0.0
C1344 C 0.94084 0.90747 0.35408 0.0
N1345 N 0.93606 0.91725 0.3583 0.0
C1346 C 0.95204 0.90672 0.35065 0.0
C1347 C 0.95312 0.92612 0.35522 0.0
C1348 C 0.94192 0.9265 0.35824 0.0
C1349 C 0.95833 0.91612 0.35177 0.0
H1350 H 0.93599 0.90025 0.35397 0.0
H1351 H 0.9379 0.93417 0.36141 0.0
C1352 C 0.88372 0.92349 0.38068 0.0
N1353 N 0.86197 0.92776 0.37302 0.0
C1354 C 0.87609 0.91605 0.39348 0.0
C1355 C 0.88028 0.93321 0.36475 0.0
C1356 C 0.86514 0.91832 0.38911 0.0
C1357 C 0.86925 0.93519 0.36093 0.0
C1358 C 0.9118 0.89438 0.36931 0.0
C1359 C 0.90442 0.88762 0.35111 0.0
C1360 C 0.91869 0.89012 0.39681 0.0
C1361 C 0.90394 0.87675 0.36125 0.0
C1362 C 0.91795 0.87921 0.40621 0.0
N1363 N 0.91064 0.87281 0.3884 0.0
C1364 C 0.89831 0.91317 0.26087 0.0
C1365 C 0.88488 0.90624 0.30184 0.0
C1366 C 0.89285 0.90916 0.22922 0.0
N1367 N 0.89426 0.91167 0.29629 0.0
C1368 C 0.87917 0.90206 0.27107 0.0
C1369 C 0.88317 0.90342 0.2341 0.0
H1370 H 0.90589 0.91734 0.25722 0.0
H1371 H 0.88203 0.90478 0.33027 0.0
C1372 C 0.90548 0.90645 0.48319 0.0
N1373 N 0.90181 0.90374 0.44817 0.0
C1374 C 0.90196 0.90082 0.51512 0.0
C1375 C 0.89105 0.88961 0.47432 0.0
C1376 C 0.89473 0.8955 0.4432 0.0
C1377 C 0.89457 0.89233 0.51092 0.0
H1378 H 0.91098 0.91314 0.48643 0.0
H1379 H 0.89177 0.89365 0.41515 0.0
O1380 O 0.91319 0.92819 0.3316 0.0
O1381 O 0.91662 0.92385 0.41815 0.0
O1382 O 0.89449 0.92142 0.3851 0.0
O1383 O 0.9123 0.90507 0.36004 0.0
H1384 H 0.92885 0.94025 0.30354 0.0
H1385 H 0.89471 0.93433 0.3006 0.0
H1386 H 0.92629 0.95511 0.25741 0.0
H1387 H 0.89271 0.94936 0.25488 0.0
H1388 H 0.94707 0.91327 0.47939 0.0
H1389 H 0.92566 0.94307 0.42557 0.0
H1390 H 0.92935 0.90932 0.45011 0.0
H1391 H 0.94339 0.94647 0.45561 0.0
H1392 H 0.91399 0.97115 0.38617 0.0
H1393 H 0.89021 0.95898 0.46492 0.0
H1394 H 0.95575 0.89885 0.3482 0.0
H1395 H 0.95766 0.93357 0.35569 0.0
H1396 H 0.87859 0.90856 0.40637 0.0
H1397 H 0.88602 0.93923 0.35585 0.0
H1398 H 0.85915 0.91258 0.39858 0.0
H1399 H 0.86648 0.94267 0.34853 0.0
H1400 H 0.89912 0.89072 0.32943 0.0
H1401 H 0.92451 0.89519 0.41092 0.0
H1402 H 0.89823 0.87144 0.34752 0.0
H1403 H 0.92319 0.87584 0.42765 0.0
H1404 H 0.89621 0.91047 0.20126 0.0
H1405 H 0.87189 0.89749 0.27634 0.0
H1406 H 0.90492 0.90313 0.54284 0.0
H1407 H 0.88523 0.88323 0.4699 0.0
Li1408 Li 0.6799 0.65787 0.63472 0.0
Li1409 Li 0.6617 0.65673 0.65623 0.0
Li1410 Li 0.66467 0.65457 0.58946 0.0
Li1411 Li 0.66712 0.67205 0.62162 0.0
C1412 C 0.67507 0.63638 0.6165 0.0
N1413 N 0.68537 0.61864 0.58603 0.0
C1414 C 0.67355 0.62618 0.63241 0.0
C1415 C 0.68182 0.63755 0.585 0.0
C1416 C 0.67884 0.61731 0.61663 0.0
C1417 C 0.68695 0.62849 0.57004 0.0
C1418 C 0.67653 0.6655 0.70662 0.0
C1419 C 0.68351 0.67191 0.7663 0.0
N1420 N 0.68483 0.66155 0.77797 0.0
C1421 C 0.67796 0.65491 0.71922 0.0
C1422 C 0.67933 0.67407 0.73031 0.0
C1423 C 0.68216 0.65308 0.75538 0.0
C1424 C 0.7006 0.6644 0.65514 0.0
N1425 N 0.69453 0.6554 0.64986 0.0
C1426 C 0.70839 0.64443 0.67698 0.0
C1427 C 0.69822 0.64552 0.6604 0.0
C1428 C 0.71478 0.6536 0.68317 0.0
C1429 C 0.71082 0.66367 0.67152 0.0
H1430 H 0.69729 0.67221 0.64823 0.0
H1431 H 0.69316 0.63852 0.65759 0.0
C1432 C 0.64929 0.64144 0.69573 0.0
N1433 N 0.65298 0.65174 0.69702 0.0
C1434 C 0.64345 0.63722 0.72608 0.0
C1435 C 0.64518 0.65433 0.75824 0.0
C1436 C 0.65092 0.65826 0.72715 0.0
C1437 C 0.64146 0.64365 0.75809 0.0
H1438 H 0.65105 0.63647 0.67132 0.0
H1439 H 0.65388 0.66645 0.72724 0.0
C1440 C 0.67983 0.67332 0.56238 0.0
N1441 N 0.68483 0.69116 0.51889 0.0
C1442 C 0.67203 0.67797 0.53892 0.0
C1443 C 0.69021 0.67767 0.56336 0.0
C1444 C 0.67471 0.68701 0.51727 0.0
C1445 C 0.69257 0.68671 0.54124 0.0
C1446 C 0.64374 0.66384 0.62929 0.0
C1447 C 0.6367 0.65528 0.62239 0.0
C1448 C 0.64059 0.67221 0.65333 0.0
C1449 C 0.62661 0.6552 0.63999 0.0
C1450 C 0.63044 0.67184 0.67035 0.0
N1451 N 0.62372 0.66341 0.66342 0.0
C1452 C 0.65432 0.63767 0.55142 0.0
C1453 C 0.66165 0.65077 0.50992 0.0
C1454 C 0.65017 0.63187 0.5208 0.0
N1455 N 0.65986 0.64697 0.54552 0.0
C1456 C 0.6575 0.64532 0.47849 0.0
C1457 C 0.65162 0.63577 0.4838 0.0
H1458 H 0.65302 0.63481 0.58004 0.0
H1459 H 0.66624 0.65807 0.50584 0.0
C1460 C 0.67378 0.69341 0.63262 0.0
N1461 N 0.66587 0.68727 0.6171 0.0
C1462 C 0.67331 0.70462 0.63015 0.0
C1463 C 0.65659 0.70298 0.59547 0.0
C1464 C 0.65735 0.69179 0.59887 0.0
C1465 C 0.66464 0.70958 0.61132 0.0
H1466 H 0.68045 0.68956 0.647 0.0
H1467 H 0.6512 0.68669 0.58666 0.0
O1468 O 0.66982 0.64507 0.6316 0.0
O1469 O 0.67257 0.66756 0.67112 0.0
O1470 O 0.67729 0.66461 0.58445 0.0
O1471 O 0.65376 0.66391 0.61322 0.0
H1472 H 0.66834 0.62513 0.65675 0.0
H1473 H 0.6831 0.64534 0.57215 0.0
H1474 H 0.67774 0.60938 0.62869 0.0
H1475 H 0.6922 0.62928 0.5457 0.0
H1476 H 0.68572 0.67847 0.78492 0.0
H1477 H 0.67588 0.64815 0.70133 0.0
H1478 H 0.67831 0.68231 0.72092 0.0
H1479 H 0.68332 0.64493 0.76545 0.0
H1480 H 0.71113 0.63651 0.68555 0.0
H1481 H 0.71536 0.67098 0.67653 0.0
H1482 H 0.64079 0.62891 0.725 0.0
H1483 H 0.6437 0.65958 0.78222 0.0
H1484 H 0.66392 0.67479 0.53817 0.0
H1485 H 0.6964 0.67409 0.58085 0.0
H1486 H 0.66871 0.69075 0.49934 0.0
H1487 H 0.70057 0.69018 0.54182 0.0
H1488 H 0.63904 0.64872 0.60396 0.0
H1489 H 0.646 0.67885 0.65921 0.0
H1490 H 0.6211 0.64859 0.63511 0.0
H1491 H 0.62791 0.67823 0.68922 0.0
H1492 H 0.64563 0.62457 0.52604 0.0
H1493 H 0.65889 0.6485 0.45032 0.0
H1494 H 0.67961 0.70935 0.64336 0.0
H1495 H 0.64984 0.70641 0.58025 0.0
Li1496 Li 0.59208 0.42875 0.88741 0.0
Li1497 Li 0.59383 0.40996 0.90418 0.0
Li1498 Li 0.59594 0.41477 0.83956 0.0
Li1499 Li 0.57787 0.41481 0.86841 0.0
C1500 C 0.61363 0.42571 0.87216 0.0
N1501 N 0.63085 0.43831 0.84986 0.0
C1502 C 0.62346 0.42501 0.89135 0.0
C1503 C 0.61257 0.43279 0.84162 0.0
C1504 C 0.63207 0.43146 0.87966 0.0
C1505 C 0.62136 0.4391 0.83076 0.0
C1506 C 0.5802 0.41721 0.95553 0.0
C1507 C 0.57215 0.40514 0.00092 0.0
N1508 N 0.57675 0.41086 0.02955 0.0
C1509 C 0.5848 0.42303 0.98534 0.0
C1510 C 0.57377 0.40824 0.96328 0.0
C1511 C 0.58297 0.41966 0.0226 0.0
C1512 C 0.5853 0.45003 0.89948 0.0
N1513 N 0.59363 0.44311 0.90515 0.0
C1514 C 0.60292 0.45617 0.94269 0.0
C1515 C 0.60235 0.44596 0.92623 0.0
C1516 C 0.59432 0.46341 0.93807 0.0
C1517 C 0.58547 0.46028 0.91585 0.0
H1518 H 0.57839 0.44746 0.8831 0.0
H1519 H 0.6087 0.44019 0.93132 0.0
C1520 C 0.59607 0.39089 0.9501 0.0
N1521 N 0.59894 0.40135 0.94505 0.0
C1522 C 0.60014 0.38505 0.98085 0.0
C1523 C 0.60962 0.40104 0.00128 0.0
C1524 C 0.60559 0.40646 0.96976 0.0
C1525 C 0.60703 0.39013 0.00707 0.0
H1526 H 0.59067 0.38705 0.93022 0.0
H1527 H 0.60762 0.41484 0.96519 0.0
C1528 C 0.58176 0.43069 0.80383 0.0
N1529 N 0.57518 0.43955 0.73579 0.0
C1530 C 0.57473 0.42503 0.78018 0.0
C1531 C 0.58529 0.44095 0.79319 0.0
C1532 C 0.57154 0.42961 0.7458 0.0
C1533 C 0.58191 0.44527 0.75859 0.0
C1534 C 0.59277 0.393 0.85099 0.0
C1535 C 0.60373 0.39187 0.85925 0.0
C1536 C 0.58729 0.38464 0.8328 0.0
C1537 C 0.60903 0.38236 0.84918 0.0
C1538 C 0.59288 0.37525 0.82321 0.0
N1539 N 0.60354 0.37432 0.83151 0.0
C1540 C 0.6144 0.40879 0.79663 0.0
C1541 C 0.59823 0.40916 0.76114 0.0
C1542 C 0.62004 0.40467 0.76562 0.0
N1543 N 0.60368 0.41096 0.79399 0.0
C1544 C 0.60357 0.40511 0.72928 0.0
C1545 C 0.61461 0.40267 0.73146 0.0
H1546 H 0.61855 0.40981 0.82328 0.0
H1547 H 0.58964 0.41042 0.76002 0.0
C1548 C 0.55649 0.41973 0.88367 0.0
N1549 N 0.56277 0.41303 0.86273 0.0
C1550 C 0.54529 0.41895 0.88186 0.0
C1551 C 0.5472 0.40448 0.83649 0.0
C1552 C 0.55841 0.40546 0.83949 0.0
C1553 C 0.54051 0.41125 0.85804 0.0
H1554 H 0.5602 0.42568 0.90186 0.0
H1555 H 0.56362 0.40022 0.82327 0.0
O1556 O 0.60514 0.41949 0.88358 0.0
O1557 O 0.58213 0.42019 0.91886 0.0
O1558 O 0.5848 0.42644 0.83799 0.0
O1559 O 0.58744 0.40232 0.85981 0.0
H1560 H 0.6244 0.41956 0.91508 0.0
H1561 H 0.60508 0.43334 0.82626 0.0
H1562 H 0.63972 0.43102 0.89427 0.0
H1563 H 0.62065 0.4446 0.80712 0.0
H1564 H 0.56726 0.39816 0.00738 0.0
H1565 H 0.58981 0.42998 0.97971 0.0
H1566 H 0.5702 0.40365 0.94042 0.0
H1567 H 0.58653 0.42404 0.04598 0.0
H1568 H 0.60981 0.45824 0.96008 0.0
H1569 H 0.57871 0.46565 0.91154 0.0
H1570 H 0.59799 0.37664 0.98369 0.0
H1571 H 0.61463 0.40543 0.02108 0.0
H1572 H 0.57186 0.41712 0.78809 0.0
H1573 H 0.59053 0.44557 0.81156 0.0
H1574 H 0.56617 0.42527 0.72708 0.0
H1575 H 0.58462 0.45318 0.74994 0.0
H1576 H 0.60813 0.39827 0.87314 0.0
H1577 H 0.57882 0.38541 0.82605 0.0
H1578 H 0.61751 0.38139 0.85534 0.0
H1579 H 0.58874 0.36872 0.8091 0.0
H1580 H 0.62855 0.4029 0.76856 0.0
H1581 H 0.59902 0.40347 0.70373 0.0
H1582 H 0.54042 0.42442 0.89857 0.0
H1583 H 0.54382 0.3984 0.81797 0.0
Li1584 Li 0.82073 0.34155 0.13415 0.0
Li1585 Li 0.83963 0.34244 0.1536 0.0
Li1586 Li 0.83442 0.34515 0.08737 0.0
Li1587 Li 0.83349 0.32728 0.11653 0.0
C1588 C 0.82431 0.36212 0.1451 0.0
N1589 N 0.81074 0.37774 0.17388 0.0
C1590 C 0.82566 0.36582 0.18222 0.0
C1591 C 0.8161 0.3664 0.12255 0.0
C1592 C 0.81871 0.37373 0.19625 0.0
C1593 C 0.8093 0.37427 0.13765 0.0
C1594 C 0.82681 0.32217 0.18566 0.0
C1595 C 0.83316 0.30553 0.21303 0.0
N1596 N 0.82279 0.30233 0.2183 0.0
C1597 C 0.81621 0.31873 0.19145 0.0
C1598 C 0.83536 0.31554 0.19668 0.0
C1599 C 0.81435 0.30867 0.208 0.0
C1600 C 0.7977 0.34251 0.12976 0.0
N1601 N 0.80647 0.34413 0.15213 0.0
C1602 C 0.79525 0.34815 0.20536 0.0
C1603 C 0.80543 0.34689 0.18925 0.0
C1604 C 0.78602 0.34637 0.18322 0.0
C1605 C 0.78732 0.34358 0.14486 0.0
H1606 H 0.79875 0.34017 0.10048 0.0
H1607 H 0.81255 0.34784 0.2066 0.0
C1608 C 0.85443 0.35663 0.18796 0.0
N1609 N 0.84892 0.34728 0.193 0.0
C1610 C 0.86063 0.36089 0.21738 0.0
C1611 C 0.85547 0.34574 0.25644 0.0
C1612 C 0.84935 0.34179 0.22629 0.0
C1613 C 0.8611 0.35549 0.25235 0.0
H1614 H 0.85379 0.36091 0.16134 0.0
H1615 H 0.84471 0.3345 0.22984 0.0
C1616 C 0.82051 0.33457 0.04661 0.0
N1617 N 0.81747 0.3354 0.9691 0.0
C1618 C 0.8251 0.32672 0.02327 0.0
C1619 C 0.81432 0.3428 0.03061 0.0
C1620 C 0.82347 0.32728 0.98413 0.0
C1621 C 0.8129 0.3431 0.99134 0.0
C1622 C 0.85695 0.3379 0.11531 0.0
C1623 C 0.86218 0.34692 0.10035 0.0
C1624 C 0.86251 0.33097 0.13966 0.0
C1625 C 0.87291 0.34888 0.11013 0.0
C1626 C 0.87323 0.33322 0.14881 0.0
N1627 N 0.87816 0.34205 0.13398 0.0
C1628 C 0.83621 0.36318 0.03706 0.0
C1629 C 0.84428 0.34694 0.0161 0.0
C1630 C 0.84015 0.36866 0.00528 0.0
N1631 N 0.83839 0.35254 0.04193 0.0
C1632 C 0.84839 0.35209 0.98403 0.0
C1633 C 0.84648 0.36314 0.97855 0.0
H1634 H 0.83168 0.3675 0.05836 0.0
H1635 H 0.84603 0.33852 0.02098 0.0
C1636 C 0.82573 0.30608 0.11112 0.0
N1637 N 0.8348 0.31216 0.10822 0.0
C1638 C 0.82633 0.29488 0.10857 0.0
C1639 C 0.84548 0.29644 0.09715 0.0
C1640 C 0.84454 0.30762 0.10073 0.0
C1641 C 0.83632 0.28995 0.10184 0.0
H1642 H 0.81806 0.30993 0.11629 0.0
H1643 H 0.8516 0.31267 0.09802 0.0
O1644 O 0.83091 0.35425 0.13105 0.0
O1645 O 0.8288 0.33191 0.16884 0.0
O1646 O 0.82221 0.33431 0.08488 0.0
O1647 O 0.84638 0.33596 0.10675 0.0
H1648 H 0.83192 0.36255 0.20017 0.0
H1649 H 0.8149 0.36356 0.09387 0.0
H1650 H 0.81962 0.37663 0.22498 0.0
H1651 H 0.80287 0.37761 0.1206 0.0
H1652 H 0.83971 0.30028 0.22139 0.0
H1653 H 0.80948 0.3237 0.1829 0.0
H1654 H 0.84361 0.31803 0.19209 0.0
H1655 H 0.80619 0.30589 0.21249 0.0
H1656 H 0.79461 0.35013 0.23518 0.0
H1657 H 0.7804 0.34217 0.12683 0.0
H1658 H 0.8649 0.36839 0.21296 0.0
H1659 H 0.85546 0.34141 0.2831 0.0
H1660 H 0.82995 0.32032 0.03521 0.0
H1661 H 0.81073 0.34895 0.04831 0.0
H1662 H 0.82702 0.32129 0.96568 0.0
H1663 H 0.80818 0.34946 0.97852 0.0
H1664 H 0.85798 0.35243 0.08177 0.0
H1665 H 0.85856 0.32399 0.15168 0.0
H1666 H 0.87705 0.35585 0.09889 0.0
H1667 H 0.87761 0.32796 0.16778 0.0
H1668 H 0.83859 0.37721 0.00242 0.0
H1669 H 0.85313 0.34749 0.96395 0.0
H1670 H 0.81908 0.29011 0.11189 0.0
H1671 H 0.8533 0.29288 0.09187 0.0
Li1672 Li 0.90724 0.58932 0.41309 0.0
Li1673 Li 0.90898 0.57049 0.38761 0.0
Li1674 Li 0.92211 0.58404 0.37211 0.0
Li1675 Li 0.90453 0.5853 0.34434 0.0
C1676 C 0.92827 0.5774 0.43929 0.0
N1677 N 0.94881 0.57578 0.46887 0.0
C1678 C 0.93425 0.56798 0.43408 0.0
C1679 C 0.93267 0.58595 0.45988 0.0
C1680 C 0.94464 0.56733 0.44916 0.0
C1681 C 0.94308 0.58498 0.47454 0.0
C1682 C 0.88693 0.5749 0.37573 0.0
C1683 C 0.87846 0.56177 0.33511 0.0
N1684 N 0.86868 0.5646 0.3494 0.0
C1685 C 0.87681 0.57768 0.39002 0.0
C1686 C 0.88778 0.56689 0.34805 0.0
C1687 C 0.86767 0.57238 0.37635 0.0
C1688 C 0.8976 0.60708 0.45098 0.0
N1689 N 0.90229 0.59726 0.45539 0.0
C1690 C 0.89926 0.59776 0.52222 0.0
C1691 C 0.90321 0.59256 0.49003 0.0
C1692 C 0.89437 0.60791 0.51863 0.0
C1693 C 0.89364 0.61263 0.4825 0.0
H1694 H 0.89686 0.61054 0.42295 0.0
H1695 H 0.90692 0.58471 0.49254 0.0
C1696 C 0.91257 0.54785 0.38692 0.0
N1697 N 0.90672 0.55598 0.40246 0.0
C1698 C 0.91171 0.53739 0.40135 0.0
C1699 C 0.89862 0.54387 0.44672 0.0
C1700 C 0.89977 0.55419 0.43153 0.0
C1701 C 0.90476 0.53532 0.43202 0.0
H1702 H 0.91813 0.54956 0.36407 0.0
H1703 H 0.89535 0.56087 0.44365 0.0
C1704 C 0.91736 0.60701 0.36679 0.0
N1705 N 0.92611 0.62746 0.36351 0.0
C1706 C 0.9183 0.61233 0.332 0.0
C1707 C 0.92071 0.61217 0.39998 0.0
C1708 C 0.9228 0.62264 0.33092 0.0
C1709 C 0.92516 0.62249 0.39771 0.0
C1710 C 0.91925 0.57386 0.30099 0.0
C1711 C 0.92302 0.58359 0.28622 0.0
C1712 C 0.91953 0.56457 0.27863 0.0
C1713 C 0.927 0.58389 0.24919 0.0
C1714 C 0.92356 0.5652 0.24171 0.0
N1715 N 0.92718 0.57477 0.22787 0.0
C1716 C 0.94279 0.57698 0.34992 0.0
C1717 C 0.94281 0.59473 0.37444 0.0
C1718 C 0.95398 0.57723 0.34574 0.0
N1719 N 0.93743 0.58565 0.36407 0.0
C1720 C 0.95399 0.59535 0.37061 0.0
C1721 C 0.95973 0.58649 0.35632 0.0
H1722 H 0.9384 0.56974 0.3427 0.0
H1723 H 0.93854 0.60138 0.38682 0.0
C1724 C 0.89215 0.60007 0.30395 0.0
N1725 N 0.89626 0.58994 0.3018 0.0
C1726 C 0.88629 0.60436 0.27374 0.0
C1727 C 0.88886 0.58766 0.2397 0.0
C1728 C 0.89464 0.58366 0.27071 0.0
C1729 C 0.88463 0.59816 0.24091 0.0
H1730 H 0.89354 0.60486 0.32908 0.0
H1731 H 0.89788 0.57558 0.26986 0.0
O1732 O 0.91825 0.57834 0.4236 0.0
O1733 O 0.89593 0.58008 0.38866 0.0
O1734 O 0.91272 0.59701 0.36848 0.0
O1735 O 0.91521 0.57336 0.33703 0.0
H1736 H 0.93096 0.56131 0.41807 0.0
H1737 H 0.92813 0.59329 0.46418 0.0
H1738 H 0.94941 0.56013 0.44507 0.0
H1739 H 0.94662 0.59156 0.49032 0.0
H1740 H 0.87899 0.55557 0.31367 0.0
H1741 H 0.87603 0.58389 0.41141 0.0
H1742 H 0.89555 0.56464 0.33659 0.0
H1743 H 0.85978 0.57444 0.38714 0.0
H1744 H 0.90002 0.5939 0.54963 0.0
H1745 H 0.88981 0.62039 0.47858 0.0
H1746 H 0.91652 0.53102 0.38895 0.0
H1747 H 0.89329 0.54269 0.47067 0.0
H1748 H 0.91552 0.60857 0.3061 0.0
H1749 H 0.92002 0.60821 0.42715 0.0
H1750 H 0.92361 0.62683 0.30417 0.0
H1751 H 0.92786 0.62654 0.42314 0.0
H1752 H 0.92293 0.59081 0.30321 0.0
H1753 H 0.91661 0.55697 0.28967 0.0
H1754 H 0.92995 0.59138 0.23742 0.0
H1755 H 0.9238 0.55808 0.22404 0.0
H1756 H 0.95808 0.57022 0.33452 0.0
H1757 H 0.95812 0.60256 0.37989 0.0
H1758 H 0.88329 0.61253 0.27575 0.0
H1759 H 0.88766 0.58256 0.21515 0.0
Li1760 Li 0.66421 0.34571 0.40722 0.0
Li1761 Li 0.66633 0.32802 0.38033 0.0
Li1762 Li 0.67872 0.34231 0.36319 0.0
Li1763 Li 0.66049 0.34285 0.34085 0.0
C1764 C 0.67632 0.33107 0.44935 0.0
N1765 N 0.6757 0.32174 0.52043 0.0
C1766 C 0.66643 0.32876 0.46649 0.0
C1767 C 0.68589 0.32864 0.46835 0.0
C1768 C 0.66629 0.32404 0.50244 0.0
C1769 C 0.68541 0.32392 0.50428 0.0
C1770 C 0.64404 0.33078 0.3724 0.0
C1771 C 0.63617 0.31725 0.33184 0.0
N1772 N 0.62636 0.31922 0.34758 0.0
C1773 C 0.63389 0.33264 0.38823 0.0
C1774 C 0.6452 0.323 0.34402 0.0
C1775 C 0.62505 0.32673 0.37528 0.0
C1776 C 0.64881 0.35694 0.44827 0.0
N1777 N 0.65923 0.35364 0.45016 0.0
C1778 C 0.66114 0.36148 0.51175 0.0
C1779 C 0.66546 0.35583 0.48094 0.0
C1780 C 0.65032 0.36481 0.51084 0.0
C1781 C 0.64416 0.36253 0.47843 0.0
H1782 H 0.6441 0.35519 0.42323 0.0
H1783 H 0.67374 0.35313 0.48174 0.0
C1784 C 0.67337 0.30677 0.37309 0.0
N1785 N 0.6655 0.31288 0.389 0.0
C1786 C 0.67319 0.29558 0.37689 0.0
C1787 C 0.65684 0.29717 0.41376 0.0
C1788 C 0.65738 0.30835 0.40942 0.0
C1789 C 0.6648 0.29063 0.3972 0.0
H1790 H 0.67973 0.31061 0.35708 0.0
H1791 H 0.65125 0.3134 0.42203 0.0
C1792 C 0.67402 0.36374 0.37814 0.0
N1793 N 0.68452 0.38159 0.40692 0.0
C1794 C 0.67154 0.37403 0.36463 0.0
C1795 C 0.68188 0.36254 0.40626 0.0
C1796 C 0.67693 0.38295 0.37954 0.0
C1797 C 0.68708 0.37166 0.42045 0.0
C1798 C 0.6753 0.33302 0.29296 0.0
C1799 C 0.67635 0.34327 0.27691 0.0
C1800 C 0.67823 0.32395 0.27193 0.0
C1801 C 0.68034 0.34426 0.24006 0.0
C1802 C 0.68219 0.32528 0.23514 0.0
N1803 N 0.68315 0.33532 0.2201 0.0
C1804 C 0.70022 0.33636 0.35095 0.0
C1805 C 0.6962 0.35401 0.32963 0.0
C1806 C 0.71054 0.33698 0.33524 0.0
N1807 N 0.69327 0.34477 0.34758 0.0
C1808 C 0.70646 0.35501 0.31378 0.0
C1809 C 0.71374 0.34635 0.31583 0.0
H1810 H 0.69758 0.32902 0.3646 0.0
H1811 H 0.69046 0.36049 0.32633 0.0
C1812 C 0.6488 0.35775 0.2981 0.0
N1813 N 0.65163 0.34719 0.29953 0.0
C1814 C 0.64299 0.36174 0.2673 0.0
C1815 C 0.6427 0.3438 0.24069 0.0
C1816 C 0.64873 0.34021 0.27164 0.0
C1817 C 0.63986 0.35475 0.23786 0.0
H1818 H 0.65126 0.36312 0.32058 0.0
H1819 H 0.65124 0.33189 0.27304 0.0
O1820 O 0.67673 0.33568 0.41413 0.0
O1821 O 0.65275 0.33651 0.38502 0.0
O1822 O 0.66873 0.35495 0.36379 0.0
O1823 O 0.6715 0.33181 0.32912 0.0
H1824 H 0.65893 0.3306 0.45234 0.0
H1825 H 0.69361 0.33038 0.45543 0.0
H1826 H 0.6587 0.32221 0.51603 0.0
H1827 H 0.69276 0.322 0.51932 0.0
H1828 H 0.63696 0.31122 0.30989 0.0
H1829 H 0.63285 0.33859 0.41037 0.0
H1830 H 0.65298 0.32139 0.33154 0.0
H1831 H 0.61714 0.3281 0.38727 0.0
H1832 H 0.66615 0.36302 0.53631 0.0
H1833 H 0.63584 0.36509 0.47629 0.0
H1834 H 0.67941 0.29083 0.36334 0.0
H1835 H 0.6503 0.29369 0.42996 0.0
H1836 H 0.66552 0.37512 0.3428 0.0
H1837 H 0.68399 0.35467 0.41699 0.0
H1838 H 0.67508 0.39096 0.36933 0.0
H1839 H 0.69317 0.37083 0.44221 0.0
H1840 H 0.67413 0.3504 0.29271 0.0
H1841 H 0.67747 0.31596 0.28395 0.0
H1842 H 0.6812 0.35215 0.22733 0.0
H1843 H 0.6845 0.31832 0.21854 0.0
H1844 H 0.71578 0.33003 0.33702 0.0
H1845 H 0.70859 0.36244 0.2995 0.0
H1846 H 0.64124 0.37028 0.26624 0.0
H1847 H 0.64037 0.33805 0.21915 0.0
Li1848 Li 0.90404 0.41325 0.65605 0.0
Li1849 Li 0.92117 0.41466 0.63039 0.0
Li1850 Li 0.90762 0.42853 0.61468 0.0
Li1851 Li 0.90668 0.40894 0.58856 0.0
C1852 C 0.91215 0.42853 0.70022 0.0
N1853 N 0.90757 0.43478 0.77362 0.0
C1854 C 0.91593 0.42244 0.73078 0.0
C1855 C 0.90613 0.43785 0.70694 0.0
C1856 C 0.91349 0.42572 0.76769 0.0
C1857 C 0.90389 0.44087 0.74428 0.0
C1858 C 0.9199 0.3936 0.6387 0.0
C1859 C 0.93096 0.37911 0.61507 0.0
N1860 N 0.93552 0.37807 0.64996 0.0
C1861 C 0.92461 0.39233 0.6744 0.0
C1862 C 0.92303 0.3869 0.60882 0.0
C1863 C 0.93253 0.38446 0.67948 0.0
C1864 C 0.8959 0.39756 0.70563 0.0
N1865 N 0.89565 0.40834 0.69893 0.0
C1866 C 0.88343 0.41089 0.75076 0.0
C1867 C 0.88949 0.41501 0.72061 0.0
C1868 C 0.88358 0.39978 0.75831 0.0
C1869 C 0.88992 0.39309 0.73522 0.0
H1870 H 0.90068 0.39236 0.68778 0.0
H1871 H 0.88916 0.42351 0.71433 0.0
C1872 C 0.94108 0.41888 0.66664 0.0
N1873 N 0.9364 0.41309 0.6384 0.0
C1874 C 0.95224 0.4186 0.67178 0.0
C1875 C 0.95357 0.40631 0.61888 0.0
C1876 C 0.9424 0.40681 0.61486 0.0
C1877 C 0.95866 0.41234 0.64745 0.0
H1878 H 0.93617 0.4239 0.68476 0.0
H1879 H 0.93854 0.40239 0.59226 0.0
C1880 C 0.88509 0.41797 0.62567 0.0
N1881 N 0.86463 0.41697 0.65617 0.0
C1882 C 0.87955 0.40818 0.6266 0.0
C1883 C 0.88022 0.42727 0.63992 0.0
C1884 C 0.86922 0.40783 0.64227 0.0
C1885 C 0.86986 0.42659 0.65527 0.0
C1886 C 0.92699 0.42273 0.56261 0.0
C1887 C 0.93299 0.43162 0.57473 0.0
C1888 C 0.93104 0.41608 0.53401 0.0
C1889 C 0.94301 0.43365 0.55818 0.0
C1890 C 0.94109 0.4184 0.51812 0.0
N1891 N 0.94682 0.42706 0.53046 0.0
C1892 C 0.91165 0.45109 0.61143 0.0
C1893 C 0.89775 0.44461 0.5714 0.0
C1894 C 0.91084 0.46136 0.59539 0.0
N1895 N 0.90525 0.44296 0.59886 0.0
C1896 C 0.89666 0.45474 0.55463 0.0
C1897 C 0.9034 0.46324 0.56604 0.0
H1898 H 0.91766 0.4495 0.63295 0.0
H1899 H 0.89286 0.43794 0.56172 0.0
C1900 C 0.89765 0.39097 0.55093 0.0
N1901 N 0.90216 0.40085 0.54607 0.0
C1902 C 0.89391 0.38518 0.51963 0.0
C1903 C 0.89961 0.39982 0.47908 0.0
C1904 C 0.90318 0.40535 0.51115 0.0
C1905 C 0.89484 0.38962 0.48312 0.0
H1906 H 0.8969 0.38764 0.57915 0.0
H1907 H 0.90666 0.4133 0.50829 0.0
O1908 O 0.91448 0.42548 0.6639 0.0
O1909 O 0.91218 0.40129 0.63313 0.0
O1910 O 0.89529 0.41843 0.61124 0.0
O1911 O 0.91727 0.42048 0.57906 0.0
H1912 H 0.92066 0.41525 0.72603 0.0
H1913 H 0.90312 0.44264 0.6836 0.0
H1914 H 0.91631 0.42105 0.79162 0.0
H1915 H 0.89919 0.44803 0.74993 0.0
H1916 H 0.93352 0.37392 0.59216 0.0
H1917 H 0.92222 0.3974 0.69786 0.0
H1918 H 0.91947 0.38779 0.581 0.0
H1919 H 0.9363 0.38343 0.70689 0.0
H1920 H 0.87854 0.41631 0.76756 0.0
H1921 H 0.89034 0.38449 0.74021 0.0
H1922 H 0.9558 0.42329 0.69443 0.0
H1923 H 0.95818 0.40152 0.59904 0.0
H1924 H 0.88325 0.4009 0.61576 0.0
H1925 H 0.88444 0.4349 0.6395 0.0
H1926 H 0.86485 0.40029 0.64347 0.0
H1927 H 0.86601 0.43371 0.66661 0.0
H1928 H 0.93001 0.43677 0.59711 0.0
H1929 H 0.92655 0.40911 0.52456 0.0
H1930 H 0.94777 0.44045 0.56748 0.0
H1931 H 0.94436 0.41328 0.49611 0.0
H1932 H 0.91629 0.46763 0.60478 0.0
H1933 H 0.89071 0.45585 0.53249 0.0
H1934 H 0.89034 0.37731 0.52392 0.0
H1935 H 0.90032 0.40361 0.45153 0.0
Li1936 Li 0.83355 0.67178 0.88563 0.0
Li1937 Li 0.83564 0.6532 0.91204 0.0
Li1938 Li 0.83919 0.65675 0.84644 0.0
Li1939 Li 0.82079 0.65709 0.86871 0.0
C1940 C 0.85718 0.66194 0.87955 0.0
N1941 N 0.87799 0.65933 0.85336 0.0
C1942 C 0.86306 0.65275 0.88932 0.0
C1943 C 0.86191 0.66986 0.85681 0.0
C1944 C 0.87357 0.65157 0.87572 0.0
C1945 C 0.87243 0.66837 0.84375 0.0
C1946 C 0.81617 0.65956 0.94517 0.0
C1947 C 0.80636 0.64456 0.97162 0.0
N1948 N 0.80156 0.65136 0.99675 0.0
C1949 C 0.81115 0.66639 0.97123 0.0
C1950 C 0.81377 0.64855 0.94532 0.0
C1951 C 0.80379 0.66209 0.99709 0.0
C1952 C 0.826 0.69293 0.8827 0.0
N1953 N 0.83439 0.6868 0.89475 0.0
C1954 C 0.84388 0.70246 0.91567 0.0
C1955 C 0.84321 0.69128 0.91124 0.0
C1956 C 0.83543 0.70906 0.90267 0.0
C1957 C 0.82638 0.70411 0.88613 0.0
H1958 H 0.81912 0.68911 0.86948 0.0
H1959 H 0.84977 0.68618 0.92056 0.0
C1960 C 0.84249 0.63479 0.95286 0.0
N1961 N 0.8402 0.64546 0.95567 0.0
C1962 C 0.84658 0.62918 0.98409 0.0
C1963 C 0.84575 0.64565 0.02054 0.0
C1964 C 0.84166 0.65093 0.98864 0.0
C1965 C 0.84838 0.63465 0.01841 0.0
H1966 H 0.84138 0.63069 0.92611 0.0
H1967 H 0.83979 0.65943 0.98994 0.0
C1968 C 0.82788 0.67394 0.80424 0.0
N1969 N 0.82737 0.68696 0.74067 0.0
C1970 C 0.82038 0.672 0.77547 0.0
C1971 C 0.83509 0.68254 0.80073 0.0
C1972 C 0.82027 0.67865 0.74353 0.0
C1973 C 0.83471 0.68902 0.76837 0.0
C1974 C 0.82767 0.63742 0.84048 0.0
C1975 C 0.82497 0.64119 0.80436 0.0
C1976 C 0.8271 0.6264 0.84823 0.0
C1977 C 0.82174 0.63385 0.77656 0.0
C1978 C 0.82383 0.61931 0.81967 0.0
N1979 N 0.82125 0.62316 0.78473 0.0
C1980 C 0.85296 0.64241 0.80852 0.0
C1981 C 0.84939 0.65816 0.77279 0.0
C1982 C 0.85896 0.63807 0.7787 0.0
N1983 N 0.84822 0.65224 0.80496 0.0
C1984 C 0.85522 0.6541 0.74215 0.0
C1985 C 0.85998 0.64388 0.74474 0.0
H1986 H 0.85189 0.63782 0.83433 0.0
H1987 H 0.84569 0.66596 0.77039 0.0
C1988 C 0.80075 0.6641 0.84468 0.0
N1989 N 0.80611 0.655 0.85488 0.0
C1990 C 0.79036 0.66348 0.8298 0.0
C1991 C 0.79098 0.64414 0.83753 0.0
C1992 C 0.80138 0.64514 0.85247 0.0
C1993 C 0.78541 0.65338 0.8254 0.0
H1994 H 0.80473 0.67183 0.84694 0.0
H1995 H 0.80574 0.63803 0.86124 0.0
O1996 O 0.8468 0.6631 0.89172 0.0
O1997 O 0.82339 0.66368 0.91971 0.0
O1998 O 0.82797 0.6676 0.83602 0.0
O1999 O 0.83084 0.64443 0.8683 0.0
H2000 H 0.85951 0.64654 0.90684 0.0
H2001 H 0.85747 0.67703 0.84912 0.0
H2002 H 0.8782 0.64446 0.88282 0.0
H2003 H 0.87617 0.6744 0.82592 0.0
H2004 H 0.80442 0.63607 0.97205 0.0
H2005 H 0.81294 0.67493 0.97144 0.0
H2006 H 0.81756 0.64313 0.92541 0.0
H2007 H 0.79984 0.66728 0.01743 0.0
H2008 H 0.85095 0.70587 0.92906 0.0
H2009 H 0.81976 0.70883 0.875 0.0
H2010 H 0.84861 0.62074 0.98104 0.0
H2011 H 0.8469 0.65015 0.04654 0.0
H2012 H 0.8147 0.66542 0.77773 0.0
H2013 H 0.84098 0.68415 0.82253 0.0
H2014 H 0.81452 0.67723 0.72104 0.0
H2015 H 0.84026 0.69568 0.76526 0.0
H2016 H 0.82537 0.64966 0.79776 0.0
H2017 H 0.82913 0.62334 0.87606 0.0
H2018 H 0.81964 0.63667 0.7485 0.0
H2019 H 0.82335 0.61076 0.8253 0.0
H2020 H 0.86245 0.63012 0.7817 0.0
H2021 H 0.85594 0.65887 0.71656 0.0
H2022 H 0.78642 0.6708 0.8205 0.0
H2023 H 0.78739 0.63621 0.83512 0.0
Li2024 Li 0.57806 0.58578 0.12967 0.0
Li2025 Li 0.59616 0.58646 0.15749 0.0
Li2026 Li 0.59345 0.58901 0.08966 0.0
Li2027 Li 0.59096 0.57082 0.11414 0.0
C2028 C 0.58361 0.60798 0.13017 0.0
N2029 N 0.57397 0.62803 0.12728 0.0
C2030 C 0.58372 0.61469 0.16201 0.0
C2031 C 0.57868 0.61151 0.09678 0.0
C2032 C 0.57878 0.62478 0.16 0.0
C2033 C 0.57383 0.62166 0.09591 0.0
C2034 C 0.57973 0.57551 0.19936 0.0
C2035 C 0.57099 0.56672 0.25198 0.0
N2036 N 0.56932 0.57649 0.26847 0.0
C2037 C 0.57789 0.58546 0.21673 0.0
C2038 C 0.57622 0.56606 0.21699 0.0
C2039 C 0.57263 0.58579 0.2517 0.0
C2040 C 0.55693 0.57901 0.13097 0.0
N2041 N 0.56302 0.58788 0.13811 0.0
C2042 C 0.5473 0.59801 0.15434 0.0
C2043 C 0.55847 0.59725 0.15013 0.0
C2044 C 0.54082 0.589 0.14682 0.0
C2045 C 0.54577 0.57937 0.1353 0.0
H2046 H 0.56079 0.57166 0.12162 0.0
H2047 H 0.56343 0.60413 0.15651 0.0
C2048 C 0.60929 0.60071 0.19733 0.0
N2049 N 0.60432 0.59099 0.20029 0.0
C2050 C 0.6151 0.60489 0.22785 0.0
C2051 C 0.61049 0.58903 0.26416 0.0
C2052 C 0.6049 0.58507 0.23267 0.0
C2053 C 0.61566 0.59908 0.26191 0.0
H2054 H 0.60861 0.60529 0.17134 0.0
H2055 H 0.60091 0.57734 0.23424 0.0
C2056 C 0.57651 0.57965 0.04608 0.0
N2057 N 0.56644 0.58067 0.97629 0.0
C2058 C 0.57926 0.57236 0.01746 0.0
C2059 C 0.56848 0.58732 0.03943 0.0
C2060 C 0.57413 0.57305 0.9823 0.0
C2061 C 0.56353 0.58774 0.0039 0.0
C2062 C 0.61303 0.58099 0.09197 0.0
C2063 C 0.61481 0.57401 0.06151 0.0
C2064 C 0.61993 0.58973 0.0977 0.0
C2065 C 0.62344 0.57596 0.03704 0.0
C2066 C 0.62846 0.59141 0.07255 0.0
N2067 N 0.63002 0.58455 0.04299 0.0
C2068 C 0.60199 0.60712 0.05052 0.0
C2069 C 0.60009 0.59141 0.01301 0.0
C2070 C 0.60629 0.61275 0.01976 0.0
N2071 N 0.59886 0.59668 0.04651 0.0
C2072 C 0.60443 0.59668 0.98165 0.0
C2073 C 0.60758 0.60751 0.98479 0.0
H2074 H 0.60131 0.61103 0.07778 0.0
H2075 H 0.59798 0.58301 0.01085 0.0
C2076 C 0.58283 0.55163 0.0859 0.0
N2077 N 0.59181 0.55598 0.10174 0.0
C2078 C 0.58313 0.54129 0.0705 0.0
C2079 C 0.60174 0.53981 0.09012 0.0
C2080 C 0.60111 0.55027 0.10481 0.0
C2081 C 0.59273 0.53533 0.07184 0.0
H2082 H 0.57554 0.55637 0.08393 0.0
H2083 H 0.60815 0.55397 0.11733 0.0
O2084 O 0.58839 0.59807 0.13179 0.0
O2085 O 0.58474 0.57501 0.16489 0.0
O2086 O 0.58133 0.57897 0.08088 0.0
O2087 O 0.60444 0.57939 0.11561 0.0
H2088 H 0.58754 0.61209 0.18805 0.0
H2089 H 0.57869 0.60652 0.07171 0.0
H2090 H 0.57876 0.63004 0.18446 0.0
H2091 H 0.56998 0.62449 0.07025 0.0
H2092 H 0.56824 0.55948 0.26602 0.0
H2093 H 0.58048 0.59285 0.20331 0.0
H2094 H 0.57753 0.5583 0.20374 0.0
H2095 H 0.57116 0.59343 0.26549 0.0
H2096 H 0.54376 0.60554 0.16369 0.0
H2097 H 0.54103 0.57227 0.12896 0.0
H2098 H 0.61888 0.61272 0.22516 0.0
H2099 H 0.61079 0.58429 0.28993 0.0
H2100 H 0.5854 0.56632 0.02221 0.0
H2101 H 0.56601 0.59281 0.06154 0.0
H2102 H 0.57626 0.56753 0.9598 0.0
H2103 H 0.55733 0.59366 0.99834 0.0
H2104 H 0.60946 0.56728 0.05639 0.0
H2105 H 0.61864 0.59523 0.12104 0.0
H2106 H 0.62487 0.57068 0.01317 0.0
H2107 H 0.63383 0.59819 0.07648 0.0
H2108 H 0.60882 0.62104 0.02351 0.0
H2109 H 0.60532 0.59234 0.9552 0.0
H2110 H 0.57598 0.53805 0.05706 0.0
H2111 H 0.6093 0.53546 0.09154 0.0
Li2112 Li 0.32136 0.34302 0.3652 0.0
Li2113 Li 0.33416 0.32887 0.38205 0.0
Li2114 Li 0.33548 0.34661 0.41341 0.0
Li2115 Li 0.34072 0.34427 0.34801 0.0
C2116 C 0.31574 0.33952 0.44095 0.0
N2117 N 0.30062 0.34674 0.49249 0.0
C2118 C 0.31199 0.33266 0.46946 0.0
C2119 C 0.31179 0.35004 0.43859 0.0
C2120 C 0.30434 0.33647 0.49526 0.0
C2121 C 0.30415 0.35355 0.46493 0.0
C2122 C 0.32817 0.3247 0.30998 0.0
C2123 C 0.33492 0.31024 0.2709 0.0
N2124 N 0.32482 0.30603 0.26889 0.0
C2125 C 0.31783 0.32031 0.30705 0.0
C2126 C 0.33676 0.3197 0.29136 0.0
C2127 C 0.31631 0.31084 0.28633 0.0
C2128 C 0.30562 0.35337 0.32095 0.0
N2129 N 0.30709 0.34566 0.34779 0.0
C2130 C 0.28855 0.34056 0.34397 0.0
C2131 C 0.2988 0.33938 0.35982 0.0
C2132 C 0.28679 0.34836 0.31566 0.0
C2133 C 0.29548 0.35494 0.30473 0.0
H2134 H 0.3124 0.3581 0.31142 0.0
H2135 H 0.30024 0.33316 0.3807 0.0
C2136 C 0.34453 0.30868 0.39641 0.0
N2137 N 0.335 0.31366 0.38904 0.0
C2138 C 0.34499 0.29747 0.39984 0.0
C2139 C 0.32579 0.29675 0.38893 0.0
C2140 C 0.32569 0.30797 0.38621 0.0
C2141 C 0.33555 0.29132 0.39559 0.0
H2142 H 0.35178 0.3134 0.3997 0.0
H2143 H 0.31818 0.31215 0.38131 0.0
C2144 C 0.33583 0.36569 0.36697 0.0
N2145 N 0.3453 0.38579 0.36141 0.0
C2146 C 0.34578 0.36768 0.38412 0.0
C2147 C 0.33067 0.37396 0.34714 0.0
C2148 C 0.35045 0.37788 0.38097 0.0
C2149 C 0.3356 0.38406 0.34459 0.0
C2150 C 0.35802 0.33686 0.38571 0.0
C2151 C 0.36534 0.34333 0.4055 0.0
C2152 C 0.36181 0.32985 0.3577 0.0
C2153 C 0.37629 0.34279 0.39648 0.0
C2154 C 0.37281 0.32956 0.34948 0.0
N2155 N 0.37976 0.33599 0.36886 0.0
C2156 C 0.34617 0.34898 0.48278 0.0
C2157 C 0.33474 0.36367 0.46797 0.0
C2158 C 0.35012 0.35438 0.51457 0.0
N2159 N 0.33883 0.35378 0.45977 0.0
C2160 C 0.33839 0.36934 0.49972 0.0
C2161 C 0.34637 0.36479 0.52311 0.0
H2162 H 0.34927 0.3411 0.47556 0.0
H2163 H 0.32889 0.36732 0.44921 0.0
C2164 C 0.34672 0.34721 0.27217 0.0
N2165 N 0.34997 0.34926 0.30827 0.0
C2166 C 0.35263 0.35111 0.24145 0.0
C2167 C 0.36512 0.35924 0.28549 0.0
C2168 C 0.35903 0.35509 0.31535 0.0
C2169 C 0.36189 0.35732 0.24799 0.0
H2170 H 0.33938 0.34274 0.26721 0.0
H2171 H 0.36147 0.35671 0.34411 0.0
O2172 O 0.32324 0.33587 0.41558 0.0
O2173 O 0.32983 0.33391 0.33053 0.0
O2174 O 0.3311 0.35575 0.36978 0.0
O2175 O 0.34724 0.33731 0.39389 0.0
H2176 H 0.31497 0.32449 0.47161 0.0
H2177 H 0.31457 0.35546 0.41667 0.0
H2178 H 0.30137 0.33125 0.5175 0.0
H2179 H 0.30104 0.36167 0.46345 0.0
H2180 H 0.34151 0.30627 0.25652 0.0
H2181 H 0.31107 0.32408 0.32101 0.0
H2182 H 0.34476 0.32312 0.29239 0.0
H2183 H 0.30837 0.3073 0.28417 0.0
H2184 H 0.2822 0.33515 0.35288 0.0
H2185 H 0.29452 0.36117 0.28349 0.0
H2186 H 0.35266 0.29369 0.40593 0.0
H2187 H 0.31831 0.2924 0.38509 0.0
H2188 H 0.34989 0.36139 0.39952 0.0
H2189 H 0.32293 0.37263 0.33392 0.0
H2190 H 0.35816 0.37949 0.39404 0.0
H2191 H 0.33169 0.39052 0.32928 0.0
H2192 H 0.36262 0.34878 0.42737 0.0
H2193 H 0.35631 0.32469 0.34252 0.0
H2194 H 0.38202 0.3478 0.41141 0.0
H2195 H 0.37582 0.3242 0.32773 0.0
H2196 H 0.35635 0.35058 0.53136 0.0
H2197 H 0.33511 0.37725 0.50551 0.0
H2198 H 0.34978 0.3496 0.21291 0.0
H2199 H 0.37225 0.36396 0.29166 0.0
Li2200 Li 0.40797 0.59144 0.09208 0.0
Li2201 Li 0.40367 0.58604 0.15899 0.0
Li2202 Li 0.42237 0.58449 0.13053 0.0
Li2203 Li 0.40829 0.57273 0.11024 0.0
C2204 C 0.41262 0.60843 0.13317 0.0
N2205 N 0.41002 0.63005 0.11677 0.0
C2206 C 0.40463 0.61443 0.15147 0.0
C2207 C 0.41936 0.61347 0.10681 0.0
C2208 C 0.40343 0.62534 0.14274 0.0
C2209 C 0.41789 0.62439 0.09881 0.0
C2210 C 0.38769 0.57628 0.10078 0.0
C2211 C 0.37404 0.56307 0.11497 0.0
N2212 N 0.37185 0.56217 0.07731 0.0
C2213 C 0.38528 0.57528 0.06225 0.0
C2214 C 0.38202 0.57018 0.12742 0.0
C2215 C 0.37725 0.56808 0.05094 0.0
C2216 C 0.40847 0.60056 0.01853 0.0
N2217 N 0.40354 0.60095 0.05289 0.0
C2218 C 0.3908 0.61381 0.02993 0.0
C2219 C 0.39487 0.6074 0.05911 0.0
C2220 C 0.39563 0.61348 0.99391 0.0
C2221 C 0.40467 0.60683 0.98854 0.0
H2222 H 0.41514 0.59512 0.01404 0.0
H2223 H 0.39099 0.60738 0.08656 0.0
C2224 C 0.39982 0.58985 0.23725 0.0
N2225 N 0.39538 0.59008 0.20202 0.0
C2226 C 0.39409 0.59385 0.26832 0.0
C2227 C 0.37939 0.59832 0.22616 0.0
C2228 C 0.38532 0.59407 0.19603 0.0
C2229 C 0.38382 0.59834 0.26278 0.0
H2230 H 0.4079 0.58676 0.24103 0.0
H2231 H 0.38207 0.59428 0.16759 0.0
C2232 C 0.42859 0.57863 0.06309 0.0
N2233 N 0.4491 0.57491 0.0354 0.0
C2234 C 0.43275 0.56816 0.06211 0.0
C2235 C 0.43487 0.58719 0.04987 0.0
C2236 C 0.44313 0.56645 0.04796 0.0
C2237 C 0.44522 0.58515 0.03608 0.0
C2238 C 0.41311 0.56393 0.17849 0.0
C2239 C 0.42024 0.55564 0.16891 0.0
C2240 C 0.40484 0.56195 0.20451 0.0
C2241 C 0.41898 0.54551 0.18557 0.0
C2242 C 0.40387 0.5517 0.2206 0.0
N2243 N 0.4109 0.54377 0.21087 0.0
C2244 C 0.44193 0.59571 0.14633 0.0
C2245 C 0.44361 0.57675 0.14151 0.0
C2246 C 0.4531 0.59679 0.15015 0.0
N2247 N 0.43745 0.5858 0.14136 0.0
C2248 C 0.45478 0.57746 0.14464 0.0
C2249 C 0.45966 0.58759 0.14846 0.0
H2250 H 0.43688 0.60279 0.14649 0.0
H2251 H 0.4399 0.56898 0.13783 0.0
C2252 C 0.40691 0.55796 0.05117 0.0
N2253 N 0.40489 0.55878 0.08895 0.0
C2254 C 0.40557 0.54818 0.03236 0.0
C2255 C 0.39936 0.54031 0.091 0.0
C2256 C 0.40074 0.55031 0.10863 0.0
C2257 C 0.40204 0.53908 0.05249 0.0
H2258 H 0.40974 0.56491 0.03563 0.0
H2259 H 0.3986 0.55122 0.13807 0.0
O2260 O 0.41378 0.59768 0.1408 0.0
O2261 O 0.39574 0.58302 0.11229 0.0
O2262 O 0.41851 0.5805 0.07747 0.0
O2263 O 0.41432 0.57398 0.16307 0.0
H2264 H 0.39939 0.61071 0.17213 0.0
H2265 H 0.42557 0.60896 0.09237 0.0
H2266 H 0.39726 0.63006 0.15659 0.0
H2267 H 0.423 0.62836 0.07826 0.0
H2268 H 0.36962 0.55825 0.13522 0.0
H2269 H 0.38965 0.57993 0.04133 0.0
H2270 H 0.38385 0.57084 0.15734 0.0
H2271 H 0.37533 0.56716 0.0212 0.0
H2272 H 0.38385 0.61886 0.03534 0.0
H2273 H 0.4085 0.60615 0.96105 0.0
H2274 H 0.3978 0.59383 0.29611 0.0
H2275 H 0.37148 0.60169 0.22084 0.0
H2276 H 0.42814 0.56144 0.0729 0.0
H2277 H 0.43184 0.59535 0.0506 0.0
H2278 H 0.44647 0.5584 0.04727 0.0
H2279 H 0.45018 0.59172 0.02599 0.0
H2280 H 0.42654 0.55693 0.14833 0.0
H2281 H 0.39918 0.5682 0.21205 0.0
H2282 H 0.4244 0.53901 0.17824 0.0
H2283 H 0.3975 0.55006 0.24072 0.0
H2284 H 0.45659 0.60475 0.15307 0.0
H2285 H 0.45958 0.57018 0.14367 0.0
H2286 H 0.40738 0.54774 0.00237 0.0
H2287 H 0.39652 0.53355 0.10767 0.0
Li2288 Li 0.16071 0.65651 0.84734 0.0
Li2289 Li 0.16476 0.65448 0.91313 0.0
Li2290 Li 0.16626 0.67247 0.88181 0.0
Li2291 Li 0.17933 0.6575 0.86718 0.0
C2292 C 0.14288 0.6667 0.88564 0.0
N2293 N 0.12172 0.67306 0.87566 0.0
C2294 C 0.13447 0.66046 0.90032 0.0
C2295 C 0.14052 0.67625 0.86635 0.0
C2296 C 0.12383 0.66379 0.89484 0.0
C2297 C 0.12977 0.67931 0.86147 0.0
C2298 C 0.16443 0.6353 0.87262 0.0
C2299 C 0.16487 0.61589 0.87115 0.0
N2300 N 0.15402 0.61567 0.87664 0.0
C2301 C 0.1533 0.63489 0.87823 0.0
C2302 C 0.17028 0.62574 0.86903 0.0
C2303 C 0.14818 0.62489 0.88018 0.0
C2304 C 0.15809 0.64483 0.78114 0.0
N2305 N 0.15235 0.65095 0.80588 0.0
C2306 C 0.13632 0.64825 0.76948 0.0
C2307 C 0.14164 0.65271 0.80064 0.0
C2308 C 0.14209 0.64203 0.74304 0.0
C2309 C 0.15316 0.64041 0.74921 0.0
H2310 H 0.16658 0.64348 0.78609 0.0
H2311 H 0.13714 0.65751 0.82049 0.0
C2312 C 0.15221 0.6518 0.97855 0.0
N2313 N 0.16051 0.6474 0.95882 0.0
C2314 C 0.14793 0.64649 0.01001 0.0
C2315 C 0.16116 0.63242 0.00145 0.0
C2316 C 0.16509 0.63795 0.96979 0.0
C2317 C 0.15233 0.63659 0.02178 0.0
H2318 H 0.14873 0.65933 0.96924 0.0
H2319 H 0.17168 0.63459 0.95356 0.0
C2320 C 0.17031 0.66826 0.79402 0.0
N2321 N 0.16708 0.66945 0.71659 0.0
C2322 C 0.17775 0.66363 0.7691 0.0
C2323 C 0.16131 0.67362 0.77949 0.0
C2324 C 0.17595 0.66429 0.73007 0.0
C2325 C 0.15979 0.67409 0.74029 0.0
C2326 C 0.18379 0.66202 0.94469 0.0
C2327 C 0.18627 0.66908 0.97428 0.0
C2328 C 0.18836 0.65174 0.94403 0.0
C2329 C 0.19332 0.66572 0.00281 0.0
C2330 C 0.19537 0.64868 0.97308 0.0
N2331 N 0.19768 0.65567 0.00162 0.0
C2332 C 0.16206 0.69213 0.92076 0.0
C2333 C 0.16807 0.69383 0.85725 0.0
C2334 C 0.16163 0.70334 0.92461 0.0
N2335 N 0.16527 0.68765 0.88746 0.0
C2336 C 0.16771 0.70503 0.85977 0.0
C2337 C 0.16454 0.70996 0.89387 0.0
H2338 H 0.15993 0.68699 0.94437 0.0
H2339 H 0.17063 0.69005 0.83116 0.0
C2340 C 0.1959 0.64602 0.83039 0.0
N2341 N 0.19378 0.65471 0.85261 0.0
C2342 C 0.20618 0.64455 0.8151 0.0
C2343 C 0.21199 0.66073 0.84732 0.0
C2344 C 0.20157 0.66194 0.86169 0.0
C2345 C 0.21436 0.65207 0.82296 0.0
H2346 H 0.18948 0.6405 0.82322 0.0
H2347 H 0.19962 0.6688 0.8793 0.0
O2348 O 0.15335 0.66361 0.89105 0.0
O2349 O 0.16966 0.64499 0.87092 0.0
O2350 O 0.17182 0.66749 0.83238 0.0
O2351 O 0.17685 0.66518 0.91673 0.0
H2352 H 0.13612 0.65311 0.91571 0.0
H2353 H 0.14688 0.68127 0.85527 0.0
H2354 H 0.11725 0.65901 0.90587 0.0
H2355 H 0.12784 0.68666 0.84645 0.0
H2356 H 0.16929 0.60842 0.86847 0.0
H2357 H 0.14867 0.6422 0.881 0.0
H2358 H 0.17892 0.62593 0.86479 0.0
H2359 H 0.13956 0.62445 0.88452 0.0
H2360 H 0.12774 0.64957 0.7665 0.0
H2361 H 0.15805 0.63587 0.72945 0.0
H2362 H 0.14103 0.64998 0.0242 0.0
H2363 H 0.16497 0.62494 0.00971 0.0
H2364 H 0.1848 0.65953 0.77973 0.0
H2365 H 0.15549 0.67728 0.79825 0.0
H2366 H 0.18161 0.66069 0.71049 0.0
H2367 H 0.1528 0.67813 0.72871 0.0
H2368 H 0.18276 0.67706 0.9752 0.0
H2369 H 0.18649 0.64615 0.92144 0.0
H2370 H 0.19531 0.67109 0.02591 0.0
H2371 H 0.19896 0.64073 0.97296 0.0
H2372 H 0.15925 0.70678 0.95154 0.0
H2373 H 0.16985 0.70978 0.83513 0.0
H2374 H 0.20757 0.63785 0.79609 0.0
H2375 H 0.21807 0.66662 0.85474 0.0
Li2376 Li 0.09249 0.40954 0.59779 0.0
Li2377 Li 0.09547 0.41415 0.66216 0.0
Li2378 Li 0.07743 0.41643 0.63442 0.0
Li2379 Li 0.09277 0.42867 0.61401 0.0
C2380 C 0.08578 0.39208 0.64412 0.0
N2381 N 0.08607 0.36983 0.64757 0.0
C2382 C 0.09462 0.38671 0.65988 0.0
C2383 C 0.07702 0.38612 0.63065 0.0
C2384 C 0.09463 0.37546 0.66123 0.0
C2385 C 0.07735 0.37488 0.63246 0.0
C2386 C 0.11312 0.41401 0.59894 0.0
C2387 C 0.12455 0.41403 0.54366 0.0
N2388 N 0.12944 0.40491 0.55636 0.0
C2389 C 0.11831 0.40468 0.6116 0.0
C2390 C 0.11631 0.41878 0.56486 0.0
C2391 C 0.12653 0.4002 0.58963 0.0
C2392 C 0.09619 0.4051 0.52118 0.0
N2393 N 0.09664 0.40047 0.55609 0.0
C2394 C 0.10486 0.38471 0.52992 0.0
C2395 C 0.10083 0.39043 0.5609 0.0
C2396 C 0.10457 0.38936 0.49367 0.0
C2397 C 0.10005 0.39964 0.48942 0.0
H2398 H 0.09321 0.41324 0.51815 0.0
H2399 H 0.1015 0.38701 0.58881 0.0
C2400 C 0.09701 0.40464 0.73439 0.0
N2401 N 0.10271 0.41012 0.70772 0.0
C2402 C 0.1022 0.40038 0.76614 0.0
C2403 C 0.11898 0.40778 0.74305 0.0
C2404 C 0.11345 0.41192 0.71175 0.0
C2405 C 0.11338 0.40173 0.77042 0.0
H2406 H 0.08848 0.4033 0.73034 0.0
H2407 H 0.11778 0.41629 0.69002 0.0
C2408 C 0.0743 0.4188 0.5567 0.0
N2409 N 0.05807 0.41489 0.50494 0.0
C2410 C 0.07005 0.42725 0.53519 0.0
C2411 C 0.07033 0.40837 0.5518 0.0
C2412 C 0.06184 0.42511 0.50918 0.0
C2413 C 0.06211 0.40655 0.52551 0.0
C2414 C 0.08646 0.4294 0.70249 0.0
C2415 C 0.07853 0.42584 0.72766 0.0
C2416 C 0.09552 0.43481 0.71633 0.0
C2417 C 0.07982 0.42772 0.76645 0.0
C2418 C 0.09652 0.43652 0.75532 0.0
N2419 N 0.08872 0.43296 0.77936 0.0
C2420 C 0.05769 0.40781 0.66167 0.0
C2421 C 0.05623 0.42388 0.62568 0.0
C2422 C 0.04648 0.40719 0.66505 0.0
N2423 N 0.06228 0.41599 0.6418 0.0
C2424 C 0.04501 0.42352 0.62803 0.0
C2425 C 0.04 0.41504 0.64762 0.0
H2426 H 0.06272 0.40171 0.6745 0.0
H2427 H 0.06011 0.43038 0.61056 0.0
C2428 C 0.09634 0.44326 0.55602 0.0
N2429 N 0.09579 0.44258 0.59441 0.0
C2430 C 0.09773 0.45322 0.53836 0.0
C2431 C 0.098 0.46165 0.60014 0.0
C2432 C 0.09662 0.45148 0.61666 0.0
C2433 C 0.09849 0.46261 0.56042 0.0
H2434 H 0.09546 0.43606 0.53904 0.0
H2435 H 0.096 0.45072 0.64712 0.0
O2436 O 0.08549 0.40311 0.64334 0.0
O2437 O 0.10482 0.41832 0.61945 0.0
O2438 O 0.08224 0.42079 0.58263 0.0
O2439 O 0.08549 0.42737 0.66458 0.0
H2440 H 0.10147 0.39114 0.67046 0.0
H2441 H 0.07001 0.39011 0.61913 0.0
H2442 H 0.10145 0.37121 0.67308 0.0
H2443 H 0.07064 0.37018 0.62201 0.0
H2444 H 0.12704 0.41759 0.51706 0.0
H2445 H 0.11592 0.40086 0.63784 0.0
H2446 H 0.11239 0.42599 0.55465 0.0
H2447 H 0.13055 0.39293 0.59893 0.0
H2448 H 0.10832 0.37679 0.53437 0.0
H2449 H 0.09988 0.40361 0.46206 0.0
H2450 H 0.09752 0.39594 0.78682 0.0
H2451 H 0.1276 0.40895 0.74503 0.0
H2452 H 0.07303 0.43538 0.53873 0.0
H2453 H 0.0736 0.40175 0.56797 0.0
H2454 H 0.05845 0.43157 0.49241 0.0
H2455 H 0.05896 0.39851 0.52144 0.0
H2456 H 0.0715 0.42159 0.71736 0.0
H2457 H 0.10179 0.4375 0.69721 0.0
H2458 H 0.07377 0.42497 0.7863 0.0
H2459 H 0.10352 0.44063 0.76648 0.0
H2460 H 0.04292 0.4005 0.6803 0.0
H2461 H 0.04031 0.42982 0.61472 0.0
H2462 H 0.09785 0.45359 0.50769 0.0
H2463 H 0.0986 0.46867 0.61822 0.0
Li2464 Li 0.32059 0.65564 0.6391 0.0
Li2465 Li 0.33317 0.67156 0.6209 0.0
Li2466 Li 0.33533 0.65336 0.59422 0.0
Li2467 Li 0.33971 0.65632 0.65781 0.0
C2468 C 0.31981 0.66106 0.55285 0.0
N2469 N 0.31513 0.65616 0.47832 0.0
C2470 C 0.3248 0.66674 0.52351 0.0
C2471 C 0.3124 0.65294 0.5444 0.0
C2472 C 0.32234 0.66412 0.48598 0.0
C2473 C 0.31014 0.65058 0.50649 0.0
C2474 C 0.33061 0.66931 0.70778 0.0
C2475 C 0.33962 0.68079 0.75287 0.0
N2476 N 0.33636 0.67419 0.78145 0.0
C2477 C 0.3273 0.66267 0.73758 0.0
C2478 C 0.3368 0.67846 0.71542 0.0
C2479 C 0.33032 0.66526 0.77463 0.0
C2480 C 0.30536 0.64534 0.68548 0.0
N2481 N 0.30649 0.65238 0.65624 0.0
C2482 C 0.2877 0.65651 0.65784 0.0
C2483 C 0.29792 0.65784 0.64191 0.0
C2484 C 0.28634 0.64958 0.68902 0.0
C2485 C 0.29531 0.64381 0.70239 0.0
H2486 H 0.31235 0.64114 0.69635 0.0
H2487 H 0.29911 0.6635 0.61896 0.0
C2488 C 0.34117 0.6914 0.59176 0.0
N2489 N 0.33345 0.68667 0.61342 0.0
C2490 C 0.34162 0.70262 0.58862 0.0
C2491 C 0.32592 0.70381 0.62903 0.0
C2492 C 0.32582 0.69259 0.63153 0.0
C2493 C 0.33399 0.709 0.60777 0.0
H2494 H 0.3471 0.68646 0.5775 0.0
H2495 H 0.31974 0.68858 0.64837 0.0
C2496 C 0.33144 0.63367 0.62649 0.0
N2497 N 0.33169 0.61242 0.60337 0.0
C2498 C 0.34122 0.6282 0.62265 0.0
C2499 C 0.32177 0.6283 0.61907 0.0
C2500 C 0.34118 0.61747 0.61075 0.0
C2501 C 0.32207 0.61755 0.60731 0.0
C2502 C 0.35718 0.66356 0.62153 0.0
C2503 C 0.36338 0.65422 0.61789 0.0
C2504 C 0.36203 0.67313 0.63354 0.0
C2505 C 0.37433 0.65457 0.6269 0.0
C2506 C 0.37301 0.67315 0.64224 0.0
N2507 N 0.37888 0.66395 0.63881 0.0
C2508 C 0.34853 0.65058 0.53033 0.0
C2509 C 0.33492 0.63728 0.53429 0.0
C2510 C 0.35282 0.64569 0.49807 0.0
N2511 N 0.33987 0.64622 0.54826 0.0
C2512 C 0.33908 0.632 0.5025 0.0
C2513 C 0.34826 0.6361 0.48411 0.0
H2514 H 0.35215 0.65787 0.5412 0.0
H2515 H 0.3278 0.63416 0.5479 0.0
C2516 C 0.34724 0.64208 0.7131 0.0
N2517 N 0.34881 0.65219 0.69937 0.0
C2518 C 0.3531 0.63841 0.74422 0.0
C2519 C 0.36207 0.65566 0.74711 0.0
C2520 C 0.356 0.65901 0.71586 0.0
C2521 C 0.36066 0.64522 0.76165 0.0
H2522 H 0.34126 0.63691 0.70038 0.0
H2523 H 0.35691 0.66712 0.70533 0.0
O2524 O 0.32235 0.66327 0.58971 0.0
O2525 O 0.32797 0.66677 0.67124 0.0
O2526 O 0.33131 0.64415 0.63847 0.0
O2527 O 0.34645 0.66338 0.61273 0.0
H2528 H 0.33061 0.67301 0.52972 0.0
H2529 H 0.30853 0.64843 0.56688 0.0
H2530 H 0.32619 0.6684 0.46293 0.0
H2531 H 0.30447 0.64428 0.49948 0.0
H2532 H 0.34446 0.68781 0.7592 0.0
H2533 H 0.32257 0.65552 0.73211 0.0
H2534 H 0.33952 0.68363 0.69264 0.0
H2535 H 0.32787 0.66015 0.79796 0.0
H2536 H 0.28103 0.66121 0.64693 0.0
H2537 H 0.29458 0.63831 0.7261 0.0
H2538 H 0.34802 0.70626 0.57217 0.0
H2539 H 0.31975 0.70836 0.64364 0.0
H2540 H 0.34876 0.6322 0.62884 0.0
H2541 H 0.31413 0.63241 0.62198 0.0
H2542 H 0.34869 0.61315 0.60746 0.0
H2543 H 0.31466 0.61331 0.60124 0.0
H2544 H 0.35977 0.6468 0.60815 0.0
H2545 H 0.35734 0.68042 0.63671 0.0
H2546 H 0.37922 0.64739 0.62436 0.0
H2547 H 0.37686 0.68048 0.65184 0.0
H2548 H 0.35967 0.64941 0.48429 0.0
H2549 H 0.33524 0.62464 0.49308 0.0
H2550 H 0.35155 0.63039 0.75503 0.0
H2551 H 0.3678 0.66118 0.75969 0.0
Li2552 Li 0.09237 0.56987 0.38468 0.0
Li2553 Li 0.07851 0.58359 0.37366 0.0
Li2554 Li 0.09634 0.58483 0.34342 0.0
Li2555 Li 0.09417 0.58805 0.41148 0.0
C2556 C 0.08271 0.56376 0.32244 0.0
N2557 N 0.07796 0.54315 0.29819 0.0
C2558 C 0.07229 0.55967 0.32659 0.0
C2559 C 0.0907 0.55741 0.3057 0.0
C2560 C 0.07005 0.54922 0.31419 0.0
C2561 C 0.08814 0.54699 0.29372 0.0
C2562 C 0.0818 0.57757 0.46032 0.0
C2563 C 0.07597 0.58694 0.51662 0.0
N2564 N 0.08024 0.57895 0.53833 0.0
C2565 C 0.0861 0.56943 0.48318 0.0
C2566 C 0.07665 0.58637 0.47714 0.0
C2567 C 0.08523 0.57028 0.52256 0.0
C2568 C 0.10443 0.55085 0.40037 0.0
N2569 N 0.09437 0.55505 0.39667 0.0
C2570 C 0.08647 0.53875 0.41959 0.0
C2571 C 0.08546 0.54922 0.40563 0.0
C2572 C 0.09676 0.53427 0.42476 0.0
C2573 C 0.10581 0.5404 0.41438 0.0
H2574 H 0.11138 0.55573 0.39369 0.0
H2575 H 0.07758 0.55289 0.40343 0.0
C2576 C 0.05903 0.58885 0.33438 0.0
N2577 N 0.06334 0.58562 0.36796 0.0
C2578 C 0.04786 0.58992 0.33044 0.0
C2579 C 0.04581 0.5841 0.39541 0.0
C2580 C 0.05697 0.58318 0.3981 0.0
C2581 C 0.04108 0.58752 0.36126 0.0
H2582 H 0.06425 0.59049 0.31054 0.0
H2583 H 0.06055 0.58031 0.4241 0.0
C2584 C 0.11546 0.58064 0.37359 0.0
N2585 N 0.13597 0.58429 0.34602 0.0
C2586 C 0.12162 0.58914 0.38784 0.0
C2587 C 0.11975 0.57392 0.34561 0.0
C2588 C 0.13197 0.59087 0.37347 0.0
C2589 C 0.13012 0.57593 0.33193 0.0
C2590 C 0.08115 0.60419 0.3574 0.0
C2591 C 0.08057 0.60688 0.31898 0.0
C2592 C 0.07433 0.60927 0.38335 0.0
C2593 C 0.0731 0.6146 0.30711 0.0
C2594 C 0.06696 0.61693 0.37034 0.0
N2595 N 0.0665 0.6194 0.33281 0.0
C2596 C 0.10295 0.58516 0.26549 0.0
C2597 C 0.11042 0.59867 0.30505 0.0
C2598 C 0.10848 0.58929 0.23411 0.0
N2599 N 0.10404 0.58988 0.30006 0.0
C2600 C 0.11625 0.60292 0.27472 0.0
C2601 C 0.11527 0.59826 0.23866 0.0
H2602 H 0.09771 0.57826 0.26222 0.0
H2603 H 0.11093 0.60242 0.33266 0.0
C2604 C 0.1044 0.59045 0.48198 0.0
N2605 N 0.0995 0.59597 0.45351 0.0
C2606 C 0.10831 0.59589 0.51369 0.0
C2607 C 0.10266 0.61269 0.48519 0.0
C2608 C 0.09862 0.60689 0.45436 0.0
C2609 C 0.10747 0.60714 0.5154 0.0
H2610 H 0.10526 0.5818 0.47999 0.0
H2611 H 0.09484 0.61108 0.43101 0.0
O2612 O 0.08512 0.57389 0.33505 0.0
O2613 O 0.0827 0.57697 0.42171 0.0
O2614 O 0.10524 0.57894 0.38677 0.0
O2615 O 0.0883 0.59655 0.36953 0.0
H2616 H 0.06602 0.56447 0.33957 0.0
H2617 H 0.0988 0.56046 0.30229 0.0
H2618 H 0.06203 0.54592 0.31738 0.0
H2619 H 0.09425 0.54196 0.28091 0.0
H2620 H 0.07207 0.59374 0.53001 0.0
H2621 H 0.09018 0.5626 0.47074 0.0
H2622 H 0.07331 0.59276 0.45989 0.0
H2623 H 0.08857 0.56408 0.5406 0.0
H2624 H 0.07927 0.53441 0.42784 0.0
H2625 H 0.11389 0.53723 0.41767 0.0
H2626 H 0.04459 0.59261 0.30362 0.0
H2627 H 0.04091 0.58189 0.41961 0.0
H2628 H 0.11842 0.59442 0.40947 0.0
H2629 H 0.11508 0.56731 0.33428 0.0
H2630 H 0.13681 0.59746 0.38407 0.0
H2631 H 0.13352 0.57085 0.31007 0.0
H2632 H 0.08577 0.603 0.29849 0.0
H2633 H 0.07469 0.60728 0.41318 0.0
H2634 H 0.07253 0.61673 0.27744 0.0
H2635 H 0.06159 0.62089 0.39007 0.0
H2636 H 0.10752 0.5855 0.20666 0.0
H2637 H 0.12127 0.60995 0.2792 0.0
H2638 H 0.11212 0.59139 0.53634 0.0
H2639 H 0.10195 0.62139 0.48565 0.0
Li2640 Li 0.17937 0.34293 0.13945 0.0
Li2641 Li 0.16566 0.32893 0.12504 0.0
Li2642 Li 0.16489 0.34684 0.09519 0.0
Li2643 Li 0.16114 0.34488 0.16067 0.0
C2644 C 0.1838 0.32824 0.07884 0.0
N2645 N 0.1986 0.31279 0.05738 0.0
C2646 C 0.18832 0.32138 0.10596 0.0
C2647 C 0.18677 0.32722 0.04081 0.0
C2648 C 0.1958 0.31362 0.09454 0.0
C2649 C 0.19429 0.31936 0.03054 0.0
C2650 C 0.16796 0.33088 0.21022 0.0
C2651 C 0.15455 0.32303 0.25133 0.0
N2652 N 0.16019 0.32653 0.28203 0.0
C2653 C 0.17365 0.33434 0.24217 0.0
C2654 C 0.15836 0.32514 0.2148 0.0
C2655 C 0.16957 0.33208 0.27823 0.0
C2656 C 0.19512 0.35085 0.18785 0.0
N2657 N 0.19397 0.3457 0.15407 0.0
C2658 C 0.21307 0.34378 0.14843 0.0
C2659 C 0.20271 0.34253 0.1336 0.0
C2660 C 0.21444 0.34859 0.18413 0.0
C2661 C 0.20534 0.3524 0.20348 0.0
H2662 H 0.18805 0.35355 0.20302 0.0
H2663 H 0.20169 0.33889 0.10608 0.0
C2664 C 0.15916 0.30972 0.0868 0.0
N2665 N 0.16372 0.3138 0.11876 0.0
C2666 C 0.15841 0.29856 0.08171 0.0
C2667 C 0.16692 0.29609 0.14271 0.0
C2668 C 0.16759 0.30723 0.14643 0.0
C2669 C 0.1624 0.29157 0.10983 0.0
H2670 H 0.15628 0.31514 0.06501 0.0
H2671 H 0.17137 0.31065 0.17125 0.0
C2672 C 0.17644 0.36424 0.12319 0.0
N2673 N 0.18887 0.38086 0.09486 0.0
C2674 C 0.17599 0.37444 0.13982 0.0
C2675 C 0.18324 0.36248 0.09218 0.0
C2676 C 0.18233 0.38275 0.12507 0.0
C2677 C 0.18945 0.37099 0.07827 0.0
C2678 C 0.14336 0.34322 0.11043 0.0
C2679 C 0.14184 0.35412 0.11893 0.0
C2680 C 0.13509 0.33741 0.09303 0.0
C2681 C 0.13204 0.35902 0.10988 0.0
C2682 C 0.1254 0.3426 0.08444 0.0
N2683 N 0.12409 0.35321 0.09297 0.0
C2684 C 0.15954 0.34905 0.01709 0.0
C2685 C 0.15748 0.36491 0.0538 0.0
C2686 C 0.15521 0.35424 0.9853 0.0
N2687 N 0.16049 0.35441 0.05054 0.0
C2688 C 0.15311 0.37038 0.02289 0.0
C2689 C 0.15177 0.36501 0.98818 0.0
H2690 H 0.16186 0.34067 0.01543 0.0
H2691 H 0.15815 0.36897 0.08078 0.0
C2692 C 0.15777 0.35747 0.22512 0.0
N2693 N 0.15291 0.35013 0.20226 0.0
C2694 C 0.1524 0.3615 0.25681 0.0
C2695 C 0.13707 0.35037 0.24073 0.0
C2696 C 0.14277 0.34651 0.20943 0.0
C2697 C 0.14189 0.35797 0.26494 0.0
H2698 H 0.1659 0.36008 0.21889 0.0
H2699 H 0.13914 0.34058 0.19099 0.0
O2700 O 0.17623 0.33571 0.08906 0.0
O2701 O 0.17164 0.33326 0.1746 0.0
O2702 O 0.17029 0.35606 0.13764 0.0
O2703 O 0.15294 0.33826 0.11839 0.0
H2704 H 0.18615 0.32208 0.13554 0.0
H2705 H 0.18327 0.33242 0.01946 0.0
H2706 H 0.19937 0.30828 0.11523 0.0
H2707 H 0.19667 0.31848 0.0012 0.0
H2708 H 0.14709 0.31867 0.25527 0.0
H2709 H 0.18112 0.33873 0.23923 0.0
H2710 H 0.15379 0.3225 0.19036 0.0
H2711 H 0.17387 0.33474 0.3032 0.0
H2712 H 0.21994 0.34094 0.13233 0.0
H2713 H 0.20607 0.35619 0.23103 0.0
H2714 H 0.15498 0.29545 0.05569 0.0
H2715 H 0.16994 0.29106 0.16544 0.0
H2716 H 0.17078 0.37592 0.16389 0.0
H2717 H 0.18374 0.35465 0.0789 0.0
H2718 H 0.18205 0.39069 0.13764 0.0
H2719 H 0.19474 0.36974 0.05429 0.0
H2720 H 0.14817 0.35877 0.13219 0.0
H2721 H 0.13617 0.32898 0.08613 0.0
H2722 H 0.13077 0.36745 0.11623 0.0
H2723 H 0.11893 0.3382 0.07095 0.0
H2724 H 0.15421 0.34976 0.95919 0.0
H2725 H 0.15069 0.3787 0.02628 0.0
H2726 H 0.1565 0.36719 0.27504 0.0
H2727 H 0.12896 0.3475 0.24571 0.0
Li2728 Li 0.40741 0.43012 0.88632 0.0
Li2729 Li 0.42207 0.41671 0.87228 0.0
Li2730 Li 0.40304 0.41517 0.8453 0.0
Li2731 Li 0.40641 0.41197 0.91098 0.0
C2732 C 0.41604 0.4367 0.82277 0.0
N2733 N 0.41959 0.45754 0.79823 0.0
C2734 C 0.42578 0.44186 0.83089 0.0
C2735 C 0.40815 0.44209 0.80181 0.0
C2736 C 0.42741 0.45241 0.81833 0.0
C2737 C 0.41009 0.45264 0.78975 0.0
C2738 C 0.41941 0.42184 0.95861 0.0
C2739 C 0.42851 0.41332 0.01101 0.0
N2740 N 0.42219 0.41892 0.03559 0.0
C2741 C 0.41303 0.42754 0.98433 0.0
C2742 C 0.42724 0.41469 0.97195 0.0
C2743 C 0.41455 0.42594 0.02317 0.0
C2744 C 0.39587 0.44987 0.89981 0.0
N2745 N 0.40562 0.44487 0.90007 0.0
C2746 C 0.41385 0.46024 0.92884 0.0
C2747 C 0.41454 0.44986 0.91393 0.0
C2748 C 0.40386 0.46555 0.92962 0.0
C2749 C 0.39482 0.46032 0.91426 0.0
H2750 H 0.38884 0.44567 0.88961 0.0
H2751 H 0.42216 0.44563 0.91432 0.0
C2752 C 0.4412 0.40814 0.83865 0.0
N2753 N 0.43714 0.41512 0.86472 0.0
C2754 C 0.45236 0.4071 0.83413 0.0
C2755 C 0.45486 0.4206 0.88276 0.0
C2756 C 0.4437 0.4213 0.88658 0.0
C2757 C 0.45933 0.41342 0.85631 0.0
H2758 H 0.43578 0.40337 0.82149 0.0
H2759 H 0.44023 0.4268 0.907 0.0
C2760 C 0.38432 0.42056 0.87612 0.0
N2761 N 0.36354 0.41995 0.84801 0.0
C2762 C 0.37696 0.41297 0.88988 0.0
C2763 C 0.38109 0.42784 0.84812 0.0
C2764 C 0.3665 0.4128 0.87531 0.0
C2765 C 0.37056 0.4274 0.83424 0.0
C2766 C 0.41238 0.39322 0.87729 0.0
C2767 C 0.40254 0.38799 0.88279 0.0
C2768 C 0.422 0.38752 0.88208 0.0
C2769 C 0.40247 0.37712 0.89303 0.0
C2770 C 0.4216 0.37665 0.89226 0.0
N2771 N 0.41192 0.37172 0.89749 0.0
C2772 C 0.398 0.41397 0.76643 0.0
C2773 C 0.38707 0.40314 0.80614 0.0
C2774 C 0.39252 0.41027 0.73427 0.0
N2775 N 0.39518 0.41038 0.80151 0.0
C2776 C 0.38129 0.39937 0.77499 0.0
C2777 C 0.38401 0.4029 0.73847 0.0
H2778 H 0.40457 0.41962 0.76337 0.0
H2779 H 0.38508 0.40021 0.834 0.0
C2780 C 0.3934 0.40809 0.974 0.0
N2781 N 0.40221 0.40422 0.95566 0.0
C2782 C 0.38956 0.403 0.00652 0.0
C2783 C 0.40421 0.39025 0.00187 0.0
C2784 C 0.40782 0.39567 0.96958 0.0
C2785 C 0.39486 0.39383 0.02053 0.0
H2786 H 0.38938 0.41521 0.96344 0.0
H2787 H 0.41511 0.39304 0.95572 0.0
O2788 O 0.4142 0.42647 0.83569 0.0
O2789 O 0.41783 0.42306 0.92052 0.0
O2790 O 0.39465 0.4208 0.88975 0.0
O2791 O 0.41264 0.40386 0.86716 0.0
H2792 H 0.43196 0.43781 0.84711 0.0
H2793 H 0.40063 0.43818 0.79487 0.0
H2794 H 0.43487 0.45653 0.82466 0.0
H2795 H 0.40404 0.45692 0.77362 0.0
H2796 H 0.43449 0.40777 0.02178 0.0
H2797 H 0.40689 0.43305 0.97438 0.0
H2798 H 0.43217 0.41015 0.95233 0.0
H2799 H 0.40964 0.43026 0.04344 0.0
H2800 H 0.42103 0.46403 0.94006 0.0
H2801 H 0.38695 0.46408 0.91474 0.0
H2802 H 0.45549 0.40153 0.81325 0.0
H2803 H 0.45995 0.42553 0.9007 0.0
H2804 H 0.37933 0.40714 0.91103 0.0
H2805 H 0.38668 0.4337 0.83694 0.0
H2806 H 0.36074 0.40694 0.88555 0.0
H2807 H 0.36798 0.43296 0.81244 0.0
H2808 H 0.39504 0.39233 0.88022 0.0
H2809 H 0.42969 0.39145 0.87824 0.0
H2810 H 0.39491 0.37299 0.89766 0.0
H2811 H 0.42898 0.37214 0.89612 0.0
H2812 H 0.39486 0.41316 0.7065 0.0
H2813 H 0.37491 0.39354 0.77937 0.0
H2814 H 0.38254 0.40628 0.02066 0.0
H2815 H 0.40859 0.38325 0.01171 0.0
C2816 C 0.26633 0.15876 0.30964 0.0
C2817 C 0.27545 0.15392 0.29338 0.0
C2818 C 0.25636 0.15873 0.29085 0.0
C2819 C 0.25543 0.15364 0.25507 0.0
C2820 C 0.26454 0.14861 0.23871 0.0
C2821 C 0.27444 0.14886 0.25793 0.0
C2822 C 0.24683 0.16422 0.30915 0.0
C2823 C 0.26386 0.14305 0.2007 0.0
C2824 C 0.22732 0.14579 0.22234 0.0
C2825 C 0.2248 0.1542 0.19729 0.0
C2826 C 0.23732 0.14541 0.2409 0.0
C2827 C 0.24494 0.15371 0.23454 0.0
C2828 C 0.24249 0.16215 0.20896 0.0
C2829 C 0.23246 0.16227 0.1905 0.0
C2830 C 0.23969 0.13619 0.26755 0.0
C2831 C 0.25036 0.17119 0.20168 0.0
H2832 H 0.26698 0.16256 0.33721 0.0
H2833 H 0.28146 0.14527 0.24474 0.0
H2834 H 0.24374 0.17067 0.29028 0.0
H2835 H 0.24019 0.15835 0.31331 0.0
H2836 H 0.24889 0.16783 0.33703 0.0
H2837 H 0.27159 0.13919 0.19251 0.0
H2838 H 0.25747 0.1368 0.2013 0.0
H2839 H 0.26162 0.14896 0.17847 0.0
H2840 H 0.22145 0.13948 0.22736 0.0
H2841 H 0.2305 0.16885 0.17152 0.0
H2842 H 0.24106 0.13932 0.2966 0.0
H2843 H 0.24717 0.13201 0.25865 0.0
H2844 H 0.23303 0.13022 0.26855 0.0
H2845 H 0.25204 0.17554 0.22852 0.0
H2846 H 0.2473 0.17707 0.18049 0.0
H2847 H 0.25813 0.16789 0.19136 0.0
C2848 C 0.10291 0.98314 0.43592 0.0
C2849 C 0.09603 0.97504 0.44946 0.0
C2850 C 0.10353 0.9932 0.45416 0.0
C2851 C 0.09716 0.99516 0.48676 0.0
C2852 C 0.09037 0.98694 0.50094 0.0
C2853 C 0.08989 0.977 0.48214 0.0
C2854 C 0.11084 0.00178 0.43814 0.0
C2855 C 0.08349 0.98868 0.53573 0.0
C2856 C 0.10397 0.01816 0.55399 0.0
C2857 C 0.09638 0.02596 0.54335 0.0
C2858 C 0.10447 0.00815 0.53537 0.0
C2859 C 0.09723 0.00594 0.50533 0.0
C2860 C 0.0897 0.01387 0.49399 0.0
C2861 C 0.08937 0.02377 0.51311 0.0
C2862 C 0.11259 0.99988 0.54834 0.0
C2863 C 0.08188 0.01184 0.46197 0.0
H2864 H 0.10764 0.9817 0.41058 0.0
H2865 H 0.08472 0.9707 0.4932 0.0
H2866 H 0.10598 0.00881 0.42894 0.0
H2867 H 0.11649 0.00467 0.4603 0.0
H2868 H 0.1156 0.99884 0.41355 0.0
H2869 H 0.07891 0.98135 0.54383 0.0
H2870 H 0.08861 0.99113 0.56003 0.0
H2871 H 0.07768 0.99531 0.53051 0.0
H2872 H 0.10938 0.01978 0.57745 0.0
H2873 H 0.08362 0.02984 0.50423 0.0
H2874 H 0.11761 0.99722 0.52408 0.0
H2875 H 0.10834 0.99267 0.55934 0.0
H2876 H 0.11797 0.00303 0.57095 0.0
H2877 H 0.08632 0.00958 0.43586 0.0
H2878 H 0.0768 0.01899 0.45571 0.0
H2879 H 0.07652 0.005 0.4693 0.0
C2880 C 0.22466 0.84548 0.75681 0.0
C2881 C 0.22358 0.84809 0.7954 0.0
C2882 C 0.23473 0.84569 0.73877 0.0
C2883 C 0.24404 0.84832 0.75992 0.0
C2884 C 0.24307 0.85092 0.79886 0.0
C2885 C 0.23285 0.85087 0.81604 0.0
C2886 C 0.23541 0.84297 0.69709 0.0
C2887 C 0.25284 0.85363 0.82248 0.0
C2888 C 0.27065 0.83802 0.72093 0.0
C2889 C 0.27498 0.84733 0.70438 0.0
C2890 C 0.26069 0.83829 0.73973 0.0
C2891 C 0.25483 0.84806 0.7414 0.0
C2892 C 0.25914 0.85749 0.72456 0.0
C2893 C 0.26924 0.85703 0.70657 0.0
C2894 C 0.25647 0.82811 0.7579 0.0
C2895 C 0.25304 0.868 0.72509 0.0
H2896 H 0.21764 0.84307 0.74064 0.0
H2897 H 0.23213 0.85305 0.84567 0.0
H2898 H 0.23953 0.84955 0.68151 0.0
H2899 H 0.24026 0.83555 0.69309 0.0
H2900 H 0.22734 0.84168 0.6842 0.0
H2901 H 0.25073 0.85543 0.85243 0.0
H2902 H 0.2586 0.8468 0.82202 0.0
H2903 H 0.25706 0.86071 0.81032 0.0
H2904 H 0.27517 0.83055 0.7197 0.0
H2905 H 0.27258 0.86422 0.69366 0.0
H2906 H 0.24872 0.82576 0.74455 0.0
H2907 H 0.25484 0.82954 0.78843 0.0
H2908 H 0.2622 0.82128 0.75524 0.0
H2909 H 0.24515 0.86698 0.71071 0.0
H2910 H 0.25753 0.8746 0.71082 0.0
H2911 H 0.25135 0.87045 0.75474 0.0
C2912 C 0.41256 0.02219 0.97818 0.0
C2913 C 0.40433 0.02474 0.95249 0.0
C2914 C 0.41253 0.01237 0.99789 0.0
C2915 C 0.40417 0.00484 0.9912 0.0
C2916 C 0.39589 0.00734 0.96499 0.0
C2917 C 0.39601 0.01732 0.94622 0.0
C2918 C 0.42139 0.01008 0.02608 0.0
C2919 C 0.38696 0.99944 0.95656 0.0
C2920 C 0.41013 0.97565 0.01582 0.0
C2921 C 0.40461 0.97443 0.0502 0.0
C2922 C 0.4099 0.98545 0.99601 0.0
C2923 C 0.40418 0.9943 0.01135 0.0
C2924 C 0.39862 0.99312 0.04619 0.0
C2925 C 0.3988 0.98314 0.06502 0.0
C2926 C 0.41576 0.98632 0.9586 0.0
C2927 C 0.39259 0.00242 0.0638 0.0
H2928 H 0.41892 0.02799 0.9834 0.0
H2929 H 0.38968 0.01928 0.9262 0.0
H2930 H 0.41787 0.00842 0.0544 0.0
H2931 H 0.42593 0.00279 0.01741 0.0
H2932 H 0.42714 0.0169 0.0287 0.0
H2933 H 0.38121 0.00256 0.93506 0.0
H2934 H 0.39042 0.99176 0.94605 0.0
H2935 H 0.38244 0.99757 0.98288 0.0
H2936 H 0.41451 0.96886 0.00415 0.0
H2937 H 0.39457 0.98219 0.0917 0.0
H2938 H 0.42215 0.99254 0.9605 0.0
H2939 H 0.41008 0.9889 0.93605 0.0
H2940 H 0.41952 0.97858 0.94997 0.0
H2941 H 0.3982 0.00924 0.06885 0.0
H2942 H 0.38874 0.0002 0.09113 0.0
H2943 H 0.38626 0.00534 0.04411 0.0
C2944 C 0.76768 0.85256 0.81165 0.0
C2945 C 0.77632 0.84756 0.79305 0.0
C2946 C 0.75743 0.85306 0.79478 0.0
C2947 C 0.75582 0.8485 0.7584 0.0
C2948 C 0.7646 0.84375 0.73903 0.0
C2949 C 0.77473 0.84333 0.7566 0.0
C2950 C 0.74825 0.85816 0.81639 0.0
C2951 C 0.76324 0.83887 0.7001 0.0
C2952 C 0.72794 0.8385 0.73169 0.0
C2953 C 0.72415 0.8468 0.70816 0.0
C2954 C 0.73815 0.83904 0.74854 0.0
C2955 C 0.74483 0.84807 0.74151 0.0
C2956 C 0.7411 0.85647 0.7177 0.0
C2957 C 0.7308 0.85574 0.70132 0.0
C2958 C 0.74184 0.8299 0.77365 0.0
C2959 C 0.74801 0.8662 0.70948 0.0
H2960 H 0.76885 0.8558 0.8399 0.0
H2961 H 0.78143 0.83962 0.74181 0.0
H2962 H 0.74424 0.86437 0.79872 0.0
H2963 H 0.74212 0.85194 0.82318 0.0
H2964 H 0.75097 0.86195 0.84326 0.0
H2965 H 0.771 0.83604 0.68798 0.0
H2966 H 0.75763 0.83192 0.70165 0.0
H2967 H 0.75964 0.84484 0.68044 0.0
H2968 H 0.72295 0.83147 0.73661 0.0
H2969 H 0.72789 0.86224 0.68354 0.0
H2970 H 0.74403 0.83301 0.8021 0.0
H2971 H 0.74915 0.8261 0.76146 0.0
H2972 H 0.73556 0.82359 0.7771 0.0
H2973 H 0.75016 0.87031 0.73635 0.0
H2974 H 0.7439 0.87207 0.6906 0.0
H2975 H 0.75565 0.86365 0.69585 0.0
C2976 C 0.89145 0.98174 0.45737 0.0
C2977 C 0.90138 0.97732 0.44641 0.0
C2978 C 0.89093 0.99169 0.47629 0.0
C2979 C 0.90057 0.99732 0.48459 0.0
C2980 C 0.9106 0.99293 0.47339 0.0
C2981 C 0.91088 0.983 0.45445 0.0
C2982 C 0.88008 0.99615 0.48755 0.0
C2983 C 0.92106 0.99866 0.48186 0.0
C2984 C 0.90001 0.02741 0.50438 0.0
C2985 C 0.90085 0.0277 0.54406 0.0
C2986 C 0.89965 0.01758 0.48473 0.0
C2987 C 0.90021 0.00779 0.50519 0.0
C2988 C 0.90087 0.00801 0.54527 0.0
C2989 C 0.90117 0.01796 0.56421 0.0
C2990 C 0.89896 0.01769 0.44199 0.0
C2991 C 0.90146 0.99773 0.5681 0.0
H2992 H 0.88408 0.97744 0.45096 0.0
H2993 H 0.9186 0.97955 0.44666 0.0
H2994 H 0.87972 0.99721 0.51876 0.0
H2995 H 0.87889 0.00421 0.47461 0.0
H2996 H 0.87334 0.99083 0.47868 0.0
H2997 H 0.92817 0.99423 0.47079 0.0
H2998 H 0.92097 0.00684 0.46917 0.0
H2999 H 0.92201 0.99967 0.51294 0.0
H3000 H 0.89992 0.03488 0.4885 0.0
H3001 H 0.90168 0.01811 0.59488 0.0
H3002 H 0.89206 0.0127 0.43238 0.0
H3003 H 0.90636 0.01409 0.42975 0.0
H3004 H 0.89799 0.02596 0.43045 0.0
H3005 H 0.89447 0.9925 0.56145 0.0
H3006 H 0.90159 0.99928 0.59912 0.0
H3007 H 0.90884 0.99319 0.56036 0.0
C3008 C 0.73234 0.14398 0.31016 0.0
C3009 C 0.72503 0.15208 0.29984 0.0
C3010 C 0.74248 0.14321 0.2926 0.0
C3011 C 0.74531 0.15068 0.26389 0.0
C3012 C 0.73787 0.15872 0.25285 0.0
C3013 C 0.72784 0.15934 0.27101 0.0
C3014 C 0.75023 0.13458 0.30532 0.0
C3015 C 0.74055 0.16678 0.22216 0.0
C3016 C 0.77477 0.15682 0.24487 0.0
C3017 C 0.77678 0.15083 0.21184 0.0
C3018 C 0.76464 0.15664 0.26247 0.0
C3019 C 0.75624 0.15042 0.2465 0.0
C3020 C 0.7582 0.14431 0.21329 0.0
C3021 C 0.76845 0.14457 0.19638 0.0
C3022 C 0.76288 0.16328 0.29782 0.0
C3023 C 0.74942 0.1376 0.19539 0.0
H3024 H 0.73022 0.13839 0.33255 0.0
H3025 H 0.72213 0.16549 0.26243 0.0
H3026 H 0.75287 0.12969 0.28069 0.0
H3027 H 0.75754 0.13836 0.31762 0.0
H3028 H 0.74664 0.12912 0.32686 0.0
H3029 H 0.73371 0.17227 0.21589 0.0
H3030 H 0.74758 0.17171 0.23092 0.0
H3031 H 0.74283 0.16252 0.19571 0.0
H3032 H 0.78107 0.16184 0.25665 0.0
H3033 H 0.76996 0.13983 0.17114 0.0
H3034 H 0.7598 0.15811 0.32106 0.0
H3035 H 0.75671 0.16956 0.29233 0.0
H3036 H 0.77038 0.1673 0.30761 0.0
H3037 H 0.74621 0.13175 0.21629 0.0
H3038 H 0.7523 0.13312 0.17011 0.0
H3039 H 0.74263 0.14287 0.18674 0.0
C3040 C 0.58869 0.01946 0.95917 0.0
C3041 C 0.59806 0.02522 0.94982 0.0
C3042 C 0.58923 0.00957 0.97831 0.0
C3043 C 0.59939 0.00534 0.98887 0.0
C3044 C 0.60889 0.01107 0.97952 0.0
C3045 C 0.60811 0.02091 0.95995 0.0
C3046 C 0.57891 0.00367 0.98754 0.0
C3047 C 0.61987 0.00685 0.99043 0.0
C3048 C 0.59924 0.98488 0.06912 0.0
C3049 C 0.59987 0.97512 0.04923 0.0
C3050 C 0.59937 0.99479 0.0499 0.0
C3051 C 0.60002 0.99494 0.0098 0.0
C3052 C 0.60082 0.98511 0.98962 0.0
C3053 C 0.60078 0.97533 0.00959 0.0
C3054 C 0.59864 0.0051 0.07246 0.0
C3055 C 0.60139 0.98492 0.94686 0.0
H3056 H 0.58086 0.0228 0.95222 0.0
H3057 H 0.61541 0.0252 0.95246 0.0
H3058 H 0.57914 0.99542 0.97544 0.0
H3059 H 0.57806 0.00283 0.01871 0.0
H3060 H 0.57168 0.00789 0.97638 0.0
H3061 H 0.62647 0.01231 0.98132 0.0
H3062 H 0.62033 0.00581 0.02164 0.0
H3063 H 0.6212 0.99881 0.97749 0.0
H3064 H 0.59863 0.98475 0.09978 0.0
H3065 H 0.60111 0.96781 0.99404 0.0
H3066 H 0.5911 0.00943 0.06516 0.0
H3067 H 0.60546 0.0105 0.06511 0.0
H3068 H 0.59875 0.00363 0.10352 0.0
H3069 H 0.5939 0.9884 0.93482 0.0
H3070 H 0.60242 0.97663 0.93553 0.0
H3071 H 0.6082 0.98996 0.93683 0.0
C3072 C 0.72614 0.64637 0.73616 0.0
C3073 C 0.72523 0.65278 0.70353 0.0
C3074 C 0.73581 0.6459 0.75677 0.0
C3075 C 0.7448 0.65198 0.74442 0.0
C3076 C 0.74398 0.65834 0.7112 0.0
C3077 C 0.73421 0.65868 0.69121 0.0
C3078 C 0.73634 0.63907 0.79214 0.0
C3079 C 0.75341 0.66489 0.697 0.0
C3080 C 0.76652 0.65993 0.81499 0.0
C3081 C 0.77473 0.65253 0.80658 0.0
C3082 C 0.75667 0.65971 0.79546 0.0
C3083 C 0.75498 0.65192 0.76673 0.0
C3084 C 0.76314 0.64428 0.75866 0.0
C3085 C 0.77291 0.64467 0.77872 0.0
C3086 C 0.74814 0.66793 0.80511 0.0
C3087 C 0.76166 0.63588 0.72817 0.0
H3088 H 0.71919 0.64191 0.74618 0.0
H3089 H 0.73359 0.66356 0.66582 0.0
H3090 H 0.74307 0.63322 0.78998 0.0
H3091 H 0.73798 0.64426 0.81711 0.0
H3092 H 0.72875 0.63456 0.79726 0.0
H3093 H 0.75155 0.66919 0.67014 0.0
H3094 H 0.75577 0.67092 0.71867 0.0
H3095 H 0.76047 0.65958 0.69224 0.0
H3096 H 0.76783 0.66593 0.8368 0.0
H3097 H 0.77926 0.63902 0.77174 0.0
H3098 H 0.74049 0.66383 0.81261 0.0
H3099 H 0.7465 0.67308 0.78005 0.0
H3100 H 0.75056 0.6732 0.82911 0.0
H3101 H 0.75424 0.63114 0.73362 0.0
H3102 H 0.7686 0.63026 0.72639 0.0
H3103 H 0.76064 0.63987 0.70025 0.0
C3104 C 0.60347 0.48066 0.95617 0.0
C3105 C 0.59438 0.47397 0.95775 0.0
C3106 C 0.6036 0.49065 0.97487 0.0
C3107 C 0.59449 0.49393 0.99613 0.0
C3108 C 0.58535 0.48713 0.99819 0.0
C3109 C 0.58538 0.47727 0.97874 0.0
C3110 C 0.61342 0.49776 0.97149 0.0
C3111 C 0.57553 0.49027 0.02096 0.0
C3112 C 0.59779 0.51575 0.07106 0.0
C3113 C 0.59343 0.52474 0.05251 0.0
C3114 C 0.59822 0.50566 0.05303 0.0
C3115 C 0.59437 0.5046 0.0154 0.0
C3116 C 0.59016 0.51372 0.99634 0.0
C3117 C 0.58967 0.52365 0.01521 0.0
C3118 C 0.60263 0.4961 0.07444 0.0
C3119 C 0.58612 0.51297 0.95603 0.0
H3120 H 0.61041 0.47814 0.93978 0.0
H3121 H 0.5784 0.47203 0.98045 0.0
H3122 H 0.61116 0.50557 0.95841 0.0
H3123 H 0.61671 0.49955 1.00004 0.0
H3124 H 0.61987 0.494 0.9541 0.0
H3125 H 0.56923 0.48391 0.02071 0.0
H3126 H 0.57786 0.49189 0.05079 0.0
H3127 H 0.57201 0.4978 0.00943 0.0
H3128 H 0.60065 0.51658 0.09995 0.0
H3129 H 0.58645 0.53063 0.00062 0.0
H3130 H 0.60949 0.49251 0.05869 0.0
H3131 H 0.59634 0.48979 0.0769 0.0
H3132 H 0.60541 0.49829 0.10337 0.0
H3133 H 0.59256 0.50977 0.93734 0.0
H3134 H 0.58345 0.52089 0.94479 0.0
H3135 H 0.57925 0.50727 0.9545 0.0
C3136 C 0.73359 0.34227 0.31298 0.0
C3137 C 0.7244 0.3469 0.29642 0.0
C3138 C 0.74358 0.34239 0.29426 0.0
C3139 C 0.74445 0.34734 0.25822 0.0
C3140 C 0.73527 0.35216 0.24155 0.0
C3141 C 0.72536 0.35183 0.26072 0.0
C3142 C 0.75318 0.33713 0.31293 0.0
C3143 C 0.73589 0.35757 0.20325 0.0
C3144 C 0.77248 0.35545 0.22525 0.0
C3145 C 0.77515 0.34695 0.20075 0.0
C3146 C 0.76246 0.35577 0.24367 0.0
C3147 C 0.75496 0.34734 0.23774 0.0
C3148 C 0.75755 0.33881 0.21269 0.0
C3149 C 0.7676 0.33875 0.19437 0.0
C3150 C 0.75993 0.36507 0.26977 0.0
C3151 C 0.74981 0.32963 0.20586 0.0
H3152 H 0.73298 0.33858 0.34074 0.0
H3153 H 0.7183 0.35526 0.24729 0.0
H3154 H 0.75637 0.33064 0.29444 0.0
H3155 H 0.75972 0.34311 0.31677 0.0
H3156 H 0.75116 0.33361 0.34101 0.0
H3157 H 0.72811 0.36128 0.19481 0.0
H3158 H 0.74218 0.36391 0.20354 0.0
H3159 H 0.73823 0.35159 0.18136 0.0
H3160 H 0.77826 0.36186 0.22998 0.0
H3161 H 0.76968 0.33209 0.17585 0.0
H3162 H 0.7586 0.36206 0.299 0.0
H3163 H 0.75239 0.3691 0.26061 0.0
H3164 H 0.7665 0.37115 0.27043 0.0
H3165 H 0.74819 0.32537 0.23292 0.0
H3166 H 0.75297 0.32372 0.18498 0.0
H3167 H 0.742 0.33278 0.19536 0.0
C3168 C 0.90209 0.47423 0.5065 0.0
C3169 C 0.90305 0.47382 0.54614 0.0
C3170 C 0.90212 0.4841 0.48706 0.0
C3171 C 0.90316 0.49382 0.5077 0.0
C3172 C 0.90405 0.49348 0.54772 0.0
C3173 C 0.90398 0.48349 0.56645 0.0
C3174 C 0.90119 0.48411 0.44437 0.0
C3175 C 0.90514 0.50368 0.57073 0.0
C3176 C 0.91376 0.51863 0.45661 0.0
C3177 C 0.90427 0.52447 0.44988 0.0
C3178 C 0.91351 0.50863 0.4752 0.0
C3179 C 0.90352 0.50433 0.48735 0.0
C3180 C 0.89389 0.51011 0.48023 0.0
C3181 C 0.89438 0.52011 0.46161 0.0
C3182 C 0.92395 0.50272 0.48232 0.0
C3183 C 0.88308 0.50577 0.49252 0.0
H3184 H 0.90156 0.4668 0.49049 0.0
H3185 H 0.90461 0.48325 0.59709 0.0
H3186 H 0.89425 0.48915 0.43544 0.0
H3187 H 0.90853 0.48772 0.43171 0.0
H3188 H 0.90012 0.47588 0.43262 0.0
H3189 H 0.90561 0.50205 0.60166 0.0
H3190 H 0.9125 0.5081 0.562 0.0
H3191 H 0.89817 0.50906 0.56531 0.0
H3192 H 0.92145 0.52201 0.44818 0.0
H3193 H 0.88701 0.52451 0.45614 0.0
H3194 H 0.92361 0.49456 0.46956 0.0
H3195 H 0.92518 0.50167 0.51326 0.0
H3196 H 0.93102 0.50706 0.47045 0.0
H3197 H 0.88167 0.49776 0.4795 0.0
H3198 H 0.87633 0.5112 0.48451 0.0
H3199 H 0.88297 0.50465 0.52372 0.0
C3200 C 0.26651 0.34761 0.31672 0.0
C3201 C 0.27611 0.34928 0.29647 0.0
C3202 C 0.25646 0.34785 0.29847 0.0
C3203 C 0.25594 0.35001 0.2591 0.0
C3204 C 0.26555 0.352 0.23865 0.0
C3205 C 0.2755 0.3515 0.25745 0.0
C3206 C 0.24639 0.34559 0.3212 0.0
C3207 C 0.26533 0.35444 0.19671 0.0
C3208 C 0.23169 0.33989 0.20393 0.0
C3209 C 0.22524 0.34914 0.20198 0.0
C3210 C 0.24168 0.34006 0.22251 0.0
C3211 C 0.24539 0.34978 0.23901 0.0
C3212 C 0.239 0.35921 0.23652 0.0
C3213 C 0.22894 0.35875 0.21833 0.0
C3214 C 0.24817 0.3298 0.22507 0.0
C3215 C 0.24278 0.36976 0.25312 0.0
H3216 H 0.26684 0.34608 0.34694 0.0
H3217 H 0.28283 0.35262 0.24125 0.0
H3218 H 0.24071 0.35245 0.31882 0.0
H3219 H 0.24225 0.33838 0.30964 0.0
H3220 H 0.24815 0.34417 0.35167 0.0
H3221 H 0.27343 0.35652 0.18547 0.0
H3222 H 0.26224 0.34735 0.18094 0.0
H3223 H 0.25977 0.36124 0.19091 0.0
H3224 H 0.22877 0.33242 0.19174 0.0
H3225 H 0.22398 0.36592 0.21663 0.0
H3226 H 0.24954 0.32767 0.25525 0.0
H3227 H 0.2562 0.33098 0.21188 0.0
H3228 H 0.24412 0.32292 0.21085 0.0
H3229 H 0.24393 0.36891 0.28416 0.0
H3230 H 0.23699 0.37642 0.24784 0.0
H3231 H 0.2507 0.372 0.2408 0.0
C3232 C 0.40967 0.52531 0.008 0.0
C3233 C 0.40157 0.52835 0.03364 0.0
C3234 C 0.40956 0.51517 0.99044 0.0
C3235 C 0.40121 0.5078 0.99899 0.0
C3236 C 0.39297 0.5108 0.02468 0.0
C3237 C 0.39323 0.52105 0.04161 0.0
C3238 C 0.4185 0.51229 0.9632 0.0
C3239 C 0.38396 0.50314 0.0346 0.0
C3240 C 0.39698 0.48458 0.93019 0.0
C3241 C 0.40284 0.4763 0.94775 0.0
C3242 C 0.39622 0.49484 0.94682 0.0
C3243 C 0.40137 0.49683 0.98197 0.0
C3244 C 0.4071 0.48843 0.00019 0.0
C3245 C 0.40779 0.47829 0.98281 0.0
C3246 C 0.39013 0.50361 0.92639 0.0
C3247 C 0.41262 0.49019 0.03784 0.0
H3248 H 0.41627 0.53078 0.00216 0.0
H3249 H 0.38686 0.52337 0.061 0.0
H3250 H 0.42316 0.50537 0.97448 0.0
H3251 H 0.41506 0.50977 0.93555 0.0
H3252 H 0.42413 0.51911 0.95828 0.0
H3253 H 0.37805 0.50677 0.05451 0.0
H3254 H 0.37965 0.50062 0.00852 0.0
H3255 H 0.38733 0.49575 0.04778 0.0
H3256 H 0.3932 0.48309 0.903 0.0
H3257 H 0.41217 0.47187 0.99682 0.0
H3258 H 0.39571 0.51025 0.91884 0.0
H3259 H 0.38385 0.50706 0.94522 0.0
H3260 H 0.38621 0.50065 0.90007 0.0
H3261 H 0.41898 0.49641 0.03481 0.0
H3262 H 0.41636 0.48271 0.04901 0.0
H3263 H 0.40674 0.49322 0.05902 0.0
C3264 C 0.27536 0.64937 0.74859 0.0
C3265 C 0.2758 0.6489 0.70887 0.0
C3266 C 0.26546 0.64941 0.76782 0.0
C3267 C 0.25575 0.64891 0.74687 0.0
C3268 C 0.25614 0.64817 0.70681 0.0
C3269 C 0.26616 0.64822 0.68828 0.0
C3270 C 0.2654 0.65031 0.81052 0.0
C3271 C 0.24596 0.64751 0.6835 0.0
C3272 C 0.22998 0.64113 0.79858 0.0
C3273 C 0.22511 0.65121 0.80434 0.0
C3274 C 0.23993 0.64024 0.77981 0.0
C3275 C 0.24519 0.64966 0.76675 0.0
C3276 C 0.24038 0.65985 0.77275 0.0
C3277 C 0.23039 0.6605 0.79124 0.0
C3278 C 0.2448 0.62922 0.77384 0.0
C3279 C 0.24575 0.67009 0.7594 0.0
H3280 H 0.28278 0.65005 0.76464 0.0
H3281 H 0.26645 0.64774 0.65761 0.0
H3282 H 0.26144 0.65795 0.81906 0.0
H3283 H 0.26066 0.64363 0.82308 0.0
H3284 H 0.27365 0.65015 0.82272 0.0
H3285 H 0.24765 0.64643 0.6528 0.0
H3286 H 0.2409 0.64069 0.69338 0.0
H3287 H 0.24117 0.65498 0.68725 0.0
H3288 H 0.22605 0.63392 0.80895 0.0
H3289 H 0.22662 0.66831 0.79481 0.0
H3290 H 0.2528 0.62878 0.78777 0.0
H3291 H 0.24609 0.62778 0.74313 0.0
H3292 H 0.23964 0.62268 0.78531 0.0
H3293 H 0.2539 0.67078 0.77207 0.0
H3294 H 0.24105 0.6774 0.76697 0.0
H3295 H 0.24678 0.66988 0.72817 0.0
C3296 C 0.10586 0.47477 0.50976 0.0
C3297 C 0.09929 0.47334 0.54179 0.0
C3298 C 0.1061 0.48464 0.49027 0.0
C3299 C 0.09963 0.49329 0.50311 0.0
C3300 C 0.09319 0.49199 0.53593 0.0
C3301 C 0.0931 0.48203 0.55486 0.0
C3302 C 0.11313 0.48573 0.45553 0.0
C3303 C 0.08618 0.50102 0.55051 0.0
C3304 C 0.10576 0.52192 0.47133 0.0
C3305 C 0.09799 0.52353 0.443 0.0
C3306 C 0.10652 0.51207 0.49071 0.0
C3307 C 0.09932 0.50361 0.48156 0.0
C3308 C 0.09161 0.5051 0.45245 0.0
C3309 C 0.09103 0.51504 0.43354 0.0
C3310 C 0.11484 0.51079 0.52161 0.0
C3311 C 0.08383 0.49626 0.4417 0.0
H3312 H 0.11078 0.46814 0.49979 0.0
H3313 H 0.0879 0.48096 0.57927 0.0
H3314 H 0.10804 0.48737 0.43032 0.0
H3315 H 0.11869 0.49267 0.45884 0.0
H3316 H 0.11797 0.47837 0.45003 0.0
H3317 H 0.08199 0.49886 0.5773 0.0
H3318 H 0.09111 0.50834 0.55552 0.0
H3319 H 0.08002 0.50312 0.52892 0.0
H3320 H 0.11106 0.52849 0.47919 0.0
H3321 H 0.08509 0.51618 0.41138 0.0
H3322 H 0.11991 0.5036 0.51607 0.0
H3323 H 0.11076 0.50949 0.54923 0.0
H3324 H 0.12016 0.51796 0.52408 0.0
H3325 H 0.08833 0.48888 0.43368 0.0
H3326 H 0.07853 0.4986 0.41771 0.0
H3327 H 0.0787 0.49418 0.4664 0.0
C3328 C 0.14015 0.13413 0.926 0.0
C3329 C 0.14904 0.12979 0.94528 0.0
C3330 C 0.13529 0.12859 0.89584 0.0
C3331 C 0.13934 0.11841 0.88478 0.0
C3332 C 0.14824 0.11392 0.90428 0.0
C3333 C 0.153 0.11967 0.93425 0.0
C3334 C 0.12581 0.13367 0.87578 0.0
C3335 C 0.15277 0.10306 0.89339 0.0
C3336 C 0.12009 0.10094 0.82779 0.0
C3337 C 0.12346 0.10299 0.79049 0.0
C3338 C 0.12541 0.10562 0.85885 0.0
C3339 C 0.13428 0.11256 0.85249 0.0
C3340 C 0.13792 0.11441 0.81502 0.0
C3341 C 0.1325 0.10957 0.78452 0.0
C3342 C 0.12131 0.10341 0.8984 0.0
C3343 C 0.14735 0.12175 0.80704 0.0
H3344 H 0.13687 0.14183 0.93481 0.0
H3345 H 0.15992 0.1163 0.94876 0.0
H3346 H 0.12767 0.13469 0.84522 0.0
H3347 H 0.11868 0.12831 0.87782 0.0
H3348 H 0.12366 0.14166 0.88778 0.0
H3349 H 0.15958 0.10059 0.91187 0.0
H3350 H 0.14637 0.09684 0.89513 0.0
H3351 H 0.15561 0.10326 0.86358 0.0
H3352 H 0.11306 0.09596 0.8327 0.0
H3353 H 0.13529 0.11104 0.75586 0.0
H3354 H 0.11806 0.11094 0.91089 0.0
H3355 H 0.128 0.10067 0.91688 0.0
H3356 H 0.11486 0.09721 0.89876 0.0
H3357 H 0.14537 0.13008 0.81616 0.0
H3358 H 0.14953 0.12192 0.77649 0.0
H3359 H 0.1545 0.11914 0.82355 0.0
C3360 C 0.14271 0.88086 0.04592 0.0
C3361 C 0.14777 0.87087 0.05145 0.0
C3362 C 0.13766 0.88627 0.07605 0.0
C3363 C 0.13765 0.88157 0.11264 0.0
C3364 C 0.14293 0.8716 0.11859 0.0
C3365 C 0.14792 0.86637 0.08795 0.0
C3366 C 0.13209 0.89687 0.06853 0.0
C3367 C 0.14315 0.86636 0.15722 0.0
C3368 C 0.13148 0.89918 0.19827 0.0
C3369 C 0.12061 0.89673 0.2051 0.0
C3370 C 0.13712 0.89435 0.1682 0.0
C3371 C 0.13178 0.88689 0.14438 0.0
C3372 C 0.1208 0.88443 0.15098 0.0
C3373 C 0.11536 0.88936 0.18124 0.0
C3374 C 0.14881 0.89722 0.16197 0.0
C3375 C 0.11482 0.87649 0.12629 0.0
H3376 H 0.14242 0.88433 0.01774 0.0
H3377 H 0.15193 0.85873 0.09254 0.0
H3378 H 0.12332 0.89604 0.07389 0.0
H3379 H 0.13517 0.90314 0.08814 0.0
H3380 H 0.13327 0.89969 0.03892 0.0
H3381 H 0.14791 0.85878 0.15742 0.0
H3382 H 0.14664 0.87198 0.17838 0.0
H3383 H 0.13481 0.8645 0.16648 0.0
H3384 H 0.13556 0.90496 0.21629 0.0
H3385 H 0.10702 0.88729 0.18666 0.0
H3386 H 0.14992 0.90056 0.13307 0.0
H3387 H 0.15386 0.88986 0.16397 0.0
H3388 H 0.15179 0.9032 0.18293 0.0
H3389 H 0.1151 0.87914 0.09626 0.0
H3390 H 0.10625 0.87558 0.13483 0.0
H3391 H 0.11876 0.86848 0.1278 0.0
C3392 C 0.38533 0.88957 0.32914 0.0
C3393 C 0.37983 0.89648 0.30437 0.0
C3394 C 0.37999 0.8846 0.35958 0.0
C3395 C 0.3689 0.88665 0.36559 0.0
C3396 C 0.36333 0.89374 0.34097 0.0
C3397 C 0.36885 0.89853 0.31056 0.0
C3398 C 0.3862 0.87702 0.38501 0.0
C3399 C 0.35153 0.89622 0.34668 0.0
C3400 C 0.35306 0.86603 0.42267 0.0
C3401 C 0.35307 0.87068 0.45891 0.0
C3402 C 0.35807 0.8712 0.39194 0.0
C3403 C 0.36313 0.8813 0.39751 0.0
C3404 C 0.36294 0.88615 0.43383 0.0
C3405 C 0.35795 0.88076 0.46411 0.0
C3406 C 0.35817 0.86573 0.35371 0.0
C3407 C 0.36813 0.89697 0.44082 0.0
H3408 H 0.39377 0.88784 0.32419 0.0
H3409 H 0.36459 0.90395 0.29171 0.0
H3410 H 0.3858 0.87987 0.41479 0.0
H3411 H 0.3825 0.86889 0.38417 0.0
H3412 H 0.3948 0.87633 0.37662 0.0
H3413 H 0.34843 0.90206 0.32546 0.0
H3414 H 0.34673 0.8887 0.34466 0.0
H3415 H 0.35022 0.89958 0.37546 0.0
H3416 H 0.3494 0.85818 0.41859 0.0
H3417 H 0.35786 0.88445 0.49197 0.0
H3418 H 0.3666 0.86405 0.34505 0.0
H3419 H 0.35462 0.87111 0.33193 0.0
H3420 H 0.35362 0.85802 0.35383 0.0
H3421 H 0.37691 0.89645 0.43531 0.0
H3422 H 0.3669 0.89984 0.47034 0.0
H3423 H 0.36479 0.90306 0.421 0.0
C3424 C 0.38444 0.11041 0.67413 0.0
C3425 C 0.37941 0.10198 0.69388 0.0
C3426 C 0.37929 0.11558 0.64375 0.0
C3427 C 0.36881 0.11229 0.63286 0.0
C3428 C 0.3637 0.10376 0.6525 0.0
C3429 C 0.36906 0.0987 0.68273 0.0
C3430 C 0.38501 0.12465 0.62352 0.0
C3431 C 0.35255 0.1 0.64168 0.0
C3432 C 0.35199 0.13247 0.57734 0.0
C3433 C 0.35346 0.12892 0.53993 0.0
C3434 C 0.35679 0.12703 0.60792 0.0
C3435 C 0.36323 0.11782 0.60094 0.0
C3436 C 0.36458 0.11408 0.56334 0.0
C3437 C 0.35968 0.11966 0.53333 0.0
C3438 C 0.35514 0.13126 0.64763 0.0
C3439 C 0.37136 0.10427 0.55474 0.0
H3440 H 0.39235 0.11313 0.68293 0.0
H3441 H 0.36516 0.09212 0.69755 0.0
H3442 H 0.38574 0.12278 0.59288 0.0
H3443 H 0.38025 0.13218 0.62599 0.0
H3444 H 0.3932 0.12614 0.63512 0.0
H3445 H 0.3497 0.09324 0.65972 0.0
H3446 H 0.34675 0.10677 0.64425 0.0
H3447 H 0.35246 0.09736 0.61165 0.0
H3448 H 0.3473 0.13967 0.58267 0.0
H3449 H 0.36072 0.11676 0.50457 0.0
H3450 H 0.363 0.13377 0.6598 0.0
H3451 H 0.35187 0.12482 0.66612 0.0
H3452 H 0.34956 0.13826 0.64843 0.0
H3453 H 0.37979 0.1057 0.56385 0.0
H3454 H 0.37136 0.10222 0.52408 0.0
H3455 H 0.36833 0.09723 0.5709 0.0
C3456 C 0.85375 0.8819 0.0454 0.0
C3457 C 0.85145 0.87088 0.04898 0.0
C3458 C 0.8586 0.88766 0.07512 0.0
C3459 C 0.8612 0.88227 0.10931 0.0
C3460 C 0.85872 0.8712 0.11337 0.0
C3461 C 0.85389 0.86563 0.08316 0.0
C3462 C 0.86118 0.89944 0.06962 0.0
C3463 C 0.86129 0.86518 0.14947 0.0
C3464 C 0.88342 0.89337 0.17233 0.0
C3465 C 0.87753 0.89847 0.20117 0.0
C3466 C 0.87821 0.88823 0.14199 0.0
C3467 C 0.86681 0.88812 0.14046 0.0
C3468 C 0.86081 0.89336 0.16916 0.0
C3469 C 0.86623 0.89848 0.19911 0.0
C3470 C 0.88491 0.88274 0.11193 0.0
C3471 C 0.84864 0.89343 0.16849 0.0
H3472 H 0.85201 0.88598 0.01891 0.0
H3473 H 0.85202 0.85715 0.08628 0.0
H3474 H 0.85748 0.90429 0.09261 0.0
H3475 H 0.87002 0.90069 0.07123 0.0
H3476 H 0.85827 0.90255 0.04191 0.0
H3477 H 0.85854 0.85667 0.14853 0.0
H3478 H 0.87011 0.86528 0.15455 0.0
H3479 H 0.85741 0.86922 0.174 0.0
H3480 H 0.89214 0.89317 0.17393 0.0
H3481 H 0.86161 0.90252 0.22097 0.0
H3482 H 0.88277 0.88589 0.08348 0.0
H3483 H 0.88318 0.87397 0.11185 0.0
H3484 H 0.89369 0.88391 0.11646 0.0
H3485 H 0.84572 0.897 0.14154 0.0
H3486 H 0.84516 0.89806 0.19251 0.0
H3487 H 0.84556 0.88505 0.16977 0.0
C3488 C 0.86039 0.13529 0.93229 0.0
C3489 C 0.85374 0.12961 0.95753 0.0
C3490 C 0.86546 0.13007 0.90182 0.0
C3491 C 0.86392 0.11887 0.89652 0.0
C3492 C 0.85714 0.1131 0.9216 0.0
C3493 C 0.85211 0.11853 0.95171 0.0
C3494 C 0.87261 0.13651 0.87563 0.0
C3495 C 0.85529 0.10115 0.91688 0.0
C3496 C 0.8702 0.10715 0.79938 0.0
C3497 C 0.88062 0.10303 0.80479 0.0
C3498 C 0.86463 0.11223 0.82906 0.0
C3499 C 0.86957 0.11317 0.8651 0.0
C3500 C 0.88 0.10887 0.87091 0.0
C3501 C 0.88541 0.10388 0.84067 0.0
C3502 C 0.85355 0.11678 0.82166 0.0
C3503 C 0.8855 0.10962 0.909 0.0
H3504 H 0.86184 0.1438 0.93684 0.0
H3505 H 0.84687 0.1141 0.97071 0.0
H3506 H 0.88099 0.13343 0.87712 0.0
H3507 H 0.86987 0.13559 0.84588 0.0
H3508 H 0.87268 0.14523 0.88283 0.0
H3509 H 0.84969 0.09786 0.93855 0.0
H3510 H 0.85193 0.09946 0.88835 0.0
H3511 H 0.86307 0.09679 0.91899 0.0
H3512 H 0.86651 0.10665 0.77159 0.0
H3513 H 0.89341 0.1006 0.84512 0.0
H3514 H 0.85362 0.12563 0.82611 0.0
H3515 H 0.84766 0.11333 0.84198 0.0
H3516 H 0.85071 0.11511 0.79237 0.0
H3517 H 0.8866 0.1182 0.91693 0.0
H3518 H 0.89351 0.10562 0.90913 0.0
H3519 H 0.8804 0.10586 0.93116 0.0
C3520 C 0.63089 0.10428 0.70166 0.0
C3521 C 0.61972 0.10263 0.699 0.0
C3522 C 0.63667 0.10915 0.672 0.0
C3523 C 0.63115 0.11253 0.63895 0.0
C3524 C 0.61991 0.11079 0.6359 0.0
C3525 C 0.61434 0.10584 0.66586 0.0
C3526 C 0.64865 0.11082 0.67626 0.0
C3527 C 0.61372 0.11427 0.60111 0.0
C3528 C 0.64319 0.13454 0.57709 0.0
C3529 C 0.64724 0.12861 0.54642 0.0
C3530 C 0.63809 0.1294 0.60768 0.0
C3531 C 0.63707 0.11803 0.60772 0.0
C3532 C 0.64139 0.11197 0.5773 0.0
C3533 C 0.64639 0.11734 0.54697 0.0
C3534 C 0.63353 0.13615 0.63948 0.0
C3535 C 0.64057 0.09984 0.57648 0.0
H3536 H 0.6351 0.10197 0.72733 0.0
H3537 H 0.60576 0.10445 0.66326 0.0
H3538 H 0.65299 0.10705 0.65215 0.0
H3539 H 0.65052 0.11956 0.67565 0.0
H3540 H 0.65181 0.10738 0.70312 0.0
H3541 H 0.60502 0.11229 0.60307 0.0
H3542 H 0.61457 0.1231 0.59703 0.0
H3543 H 0.6171 0.11031 0.57554 0.0
H3544 H 0.64371 0.14326 0.57663 0.0
H3545 H 0.64962 0.1127 0.52354 0.0
H3546 H 0.63684 0.13344 0.66708 0.0
H3547 H 0.62466 0.13511 0.64075 0.0
H3548 H 0.63534 0.14486 0.6359 0.0
H3549 H 0.6441 0.09638 0.60269 0.0
H3550 H 0.64474 0.09629 0.55158 0.0
H3551 H 0.63197 0.0974 0.57563 0.0
C3552 C 0.64106 0.86526 0.42897 0.0
C3553 C 0.64733 0.87089 0.45551 0.0
C3554 C 0.63603 0.87062 0.39869 0.0
C3555 C 0.63724 0.88191 0.3949 0.0
C3556 C 0.64362 0.88764 0.42134 0.0
C3557 C 0.64861 0.88206 0.45124 0.0
C3558 C 0.62931 0.86421 0.37105 0.0
C3559 C 0.6451 0.89968 0.41825 0.0
C3560 C 0.63127 0.8943 0.29847 0.0
C3561 C 0.62067 0.89798 0.3033 0.0
C3562 C 0.63681 0.88917 0.32815 0.0
C3563 C 0.63164 0.88773 0.36359 0.0
C3564 C 0.62101 0.8916 0.36885 0.0
C3565 C 0.61565 0.89665 0.33862 0.0
C3566 C 0.6481 0.88509 0.32133 0.0
C3567 C 0.61526 0.8903 0.4063 0.0
H3568 H 0.63986 0.85666 0.43231 0.0
H3569 H 0.65356 0.88647 0.47125 0.0
H3570 H 0.62083 0.86702 0.37204 0.0
H3571 H 0.63226 0.86551 0.34171 0.0
H3572 H 0.62947 0.85544 0.37722 0.0
H3573 H 0.6504 0.90294 0.44089 0.0
H3574 H 0.64863 0.90176 0.3903 0.0
H3575 H 0.63716 0.90376 0.42005 0.0
H3576 H 0.63515 0.89518 0.27111 0.0
H3577 H 0.6075 0.89959 0.34267 0.0
H3578 H 0.6483 0.8762 0.3247 0.0
H3579 H 0.6537 0.88853 0.34265 0.0
H3580 H 0.6511 0.88715 0.29256 0.0
H3581 H 0.61439 0.88162 0.41313 0.0
H3582 H 0.60713 0.89404 0.40612 0.0
H3583 H 0.62008 0.89402 0.42935 0.0
C3584 C 0.64807 0.61891 0.44677 0.0
C3585 C 0.64677 0.63006 0.45103 0.0
C3586 C 0.64336 0.61341 0.41614 0.0
C3587 C 0.63704 0.61919 0.38959 0.0
C3588 C 0.63567 0.63045 0.3939 0.0
C3589 C 0.64063 0.63576 0.4244 0.0
C3590 C 0.64516 0.60144 0.41214 0.0
C3591 C 0.62886 0.63688 0.36657 0.0
C3592 C 0.63177 0.60795 0.29107 0.0
C3593 C 0.62138 0.60366 0.29513 0.0
C3594 C 0.63708 0.61277 0.32186 0.0
C3595 C 0.63179 0.61348 0.35736 0.0
C3596 C 0.62134 0.60905 0.36169 0.0
C3597 C 0.6163 0.60411 0.33058 0.0
C3598 C 0.64828 0.61723 0.31626 0.0
C3599 C 0.61538 0.60979 0.3989 0.0
H3600 H 0.65288 0.6145 0.46721 0.0
H3601 H 0.63952 0.64437 0.42791 0.0
H3602 H 0.63733 0.59713 0.41335 0.0
H3603 H 0.64881 0.59965 0.38413 0.0
H3604 H 0.65049 0.59818 0.43468 0.0
H3605 H 0.62851 0.64556 0.37415 0.0
H3606 H 0.63213 0.63613 0.33743 0.0
H3607 H 0.62053 0.63363 0.36609 0.0
H3608 H 0.63574 0.60752 0.26374 0.0
H3609 H 0.60823 0.60089 0.33365 0.0
H3610 H 0.65386 0.61374 0.33759 0.0
H3611 H 0.64823 0.62608 0.32058 0.0
H3612 H 0.65149 0.61551 0.28749 0.0
H3613 H 0.62021 0.60608 0.42189 0.0
H3614 H 0.6074 0.60575 0.39783 0.0
H3615 H 0.61414 0.61838 0.40653 0.0
C3616 C 0.62711 0.38869 0.70527 0.0
C3617 C 0.62028 0.39752 0.69907 0.0
C3618 C 0.63228 0.38349 0.67498 0.0
C3619 C 0.63064 0.38724 0.63752 0.0
C3620 C 0.62386 0.39625 0.63109 0.0
C3621 C 0.61873 0.40125 0.66193 0.0
C3622 C 0.63935 0.37385 0.683 0.0
C3623 C 0.62197 0.40054 0.5916 0.0
C3624 C 0.65086 0.37893 0.56181 0.0
C3625 C 0.64538 0.37053 0.54355 0.0
C3626 C 0.64614 0.3845 0.59229 0.0
C3627 C 0.63573 0.38153 0.60499 0.0
C3628 C 0.6302 0.37299 0.58684 0.0
C3629 C 0.63507 0.36762 0.55631 0.0
C3630 C 0.65227 0.3936 0.61076 0.0
C3631 C 0.61914 0.36949 0.59978 0.0
H3632 H 0.62822 0.38566 0.73385 0.0
H3633 H 0.61353 0.40813 0.65702 0.0
H3634 H 0.63604 0.36663 0.66858 0.0
H3635 H 0.64756 0.37522 0.67151 0.0
H3636 H 0.64001 0.37211 0.71381 0.0
H3637 H 0.61678 0.40782 0.59152 0.0
H3638 H 0.62978 0.40257 0.57803 0.0
H3639 H 0.61809 0.39425 0.5739 0.0
H3640 H 0.65878 0.38128 0.55182 0.0
H3641 H 0.63085 0.36104 0.54265 0.0
H3642 H 0.65351 0.39183 0.64128 0.0
H3643 H 0.64752 0.40116 0.60897 0.0
H3644 H 0.66025 0.39497 0.59735 0.0
H3645 H 0.61944 0.36697 0.62995 0.0
H3646 H 0.61593 0.3627 0.58268 0.0
H3647 H 0.61343 0.37634 0.59782 0.0
C3648 C 0.87141 0.38553 0.7849 0.0
C3649 C 0.87723 0.39511 0.79009 0.0
C3650 C 0.86588 0.38067 0.81512 0.0
C3651 C 0.86622 0.38546 0.85153 0.0
C3652 C 0.87187 0.39526 0.85677 0.0
C3653 C 0.87728 0.39999 0.82595 0.0
C3654 C 0.85988 0.37027 0.80825 0.0
C3655 C 0.87247 0.40059 0.89518 0.0
C3656 C 0.8456 0.37657 0.92517 0.0
C3657 C 0.85147 0.36894 0.94602 0.0
C3658 C 0.85029 0.38206 0.89444 0.0
C3659 C 0.86113 0.3799 0.88445 0.0
C3660 C 0.86712 0.37228 0.9056 0.0
C3661 C 0.86223 0.3669 0.93605 0.0
C3662 C 0.84363 0.39008 0.87245 0.0
C3663 C 0.87872 0.3698 0.89605 0.0
H3664 H 0.87121 0.38181 0.75711 0.0
H3665 H 0.88184 0.40734 0.83021 0.0
H3666 H 0.8636 0.36369 0.82504 0.0
H3667 H 0.8514 0.37105 0.81783 0.0
H3668 H 0.85991 0.3679 0.77788 0.0
H3669 H 0.87671 0.40847 0.89413 0.0
H3670 H 0.86425 0.40188 0.90667 0.0
H3671 H 0.87679 0.39525 0.91532 0.0
H3672 H 0.83726 0.37813 0.93252 0.0
H3673 H 0.86688 0.36116 0.95244 0.0
H3674 H 0.84301 0.38752 0.84239 0.0
H3675 H 0.84761 0.39808 0.87271 0.0
H3676 H 0.83537 0.39097 0.88416 0.0
H3677 H 0.87929 0.36666 0.86667 0.0
H3678 H 0.88231 0.36377 0.91561 0.0
H3679 H 0.88361 0.37727 0.89732 0.0
C3680 C 0.88265 0.60134 0.17097 0.0
C3681 C 0.87874 0.60278 0.20794 0.0
C3682 C 0.87751 0.60616 0.13979 0.0
C3683 C 0.86819 0.61254 0.14569 0.0
C3684 C 0.86406 0.61381 0.18284 0.0
C3685 C 0.86939 0.60894 0.21349 0.0
C3686 C 0.88219 0.60464 0.10065 0.0
C3687 C 0.85411 0.62049 0.19029 0.0
C3688 C 0.86143 0.63402 0.07263 0.0
C3689 C 0.8533 0.629 0.05138 0.0
C3690 C 0.86633 0.62875 0.10335 0.0
C3691 C 0.86301 0.6182 0.1132 0.0
C3692 C 0.85477 0.6131 0.09199 0.0
C3693 C 0.85003 0.61855 0.06129 0.0
C3694 C 0.87512 0.63445 0.1251 0.0
C3695 C 0.85096 0.60188 0.10176 0.0
H3696 H 0.88994 0.59669 0.16649 0.0
H3697 H 0.86623 0.60996 0.24192 0.0
H3698 H 0.87598 0.60138 0.08117 0.0
H3699 H 0.88479 0.61253 0.08908 0.0
H3700 H 0.88922 0.59909 0.10065 0.0
H3701 H 0.85168 0.62033 0.22059 0.0
H3702 H 0.8556 0.62897 0.1819 0.0
H3703 H 0.8473 0.6175 0.17286 0.0
H3704 H 0.86412 0.64202 0.0648 0.0
H3705 H 0.84368 0.61466 0.04524 0.0
H3706 H 0.88268 0.62969 0.12377 0.0
H3707 H 0.87285 0.63513 0.15542 0.0
H3708 H 0.87675 0.64266 0.11389 0.0
H3709 H 0.85779 0.59614 0.10001 0.0
H3710 H 0.84445 0.59906 0.0826 0.0
H3711 H 0.84795 0.60169 0.13136 0.0
C3712 C 0.35316 0.38211 0.55143 0.0
C3713 C 0.35115 0.37102 0.55513 0.0
C3714 C 0.35817 0.38796 0.58058 0.0
C3715 C 0.36141 0.38258 0.61407 0.0
C3716 C 0.3593 0.37143 0.61822 0.0
C3717 C 0.35413 0.36581 0.58887 0.0
C3718 C 0.36017 0.39986 0.57528 0.0
C3719 C 0.36266 0.36539 0.65346 0.0
C3720 C 0.38394 0.3943 0.67429 0.0
C3721 C 0.3782 0.39853 0.7051 0.0
C3722 C 0.37856 0.38924 0.64413 0.0
C3723 C 0.36717 0.38853 0.6446 0.0
C3724 C 0.36132 0.39313 0.67503 0.0
C3725 C 0.36692 0.398 0.70505 0.0
C3726 C 0.38509 0.38433 0.6124 0.0
C3727 C 0.34917 0.39271 0.67625 0.0
H3728 H 0.35105 0.3862 0.52531 0.0
H3729 H 0.35246 0.3573 0.59235 0.0
H3730 H 0.35668 0.40445 0.59932 0.0
H3731 H 0.36897 0.40147 0.57508 0.0
H3732 H 0.35666 0.40296 0.54844 0.0
H3733 H 0.36043 0.35673 0.65228 0.0
H3734 H 0.37152 0.36601 0.65729 0.0
H3735 H 0.35884 0.36904 0.67882 0.0
H3736 H 0.39267 0.3946 0.67447 0.0
H3737 H 0.36246 0.40136 0.72871 0.0
H3738 H 0.38239 0.38757 0.58467 0.0
H3739 H 0.38379 0.37549 0.61178 0.0
H3740 H 0.39385 0.38591 0.61556 0.0
H3741 H 0.34576 0.39608 0.64971 0.0
H3742 H 0.34581 0.39724 0.70071 0.0
H3743 H 0.34646 0.38421 0.67826 0.0
C3744 C 0.34673 0.62477 0.42494 0.0
C3745 C 0.35318 0.63037 0.45111 0.0
C3746 C 0.35133 0.61919 0.39427 0.0
C3747 C 0.36263 0.61941 0.38901 0.0
C3748 C 0.36918 0.6251 0.415 0.0
C3749 C 0.36441 0.63038 0.44591 0.0
C3750 C 0.34409 0.61307 0.36745 0.0
C3751 C 0.38126 0.62566 0.41011 0.0
C3752 C 0.37672 0.59812 0.3293 0.0
C3753 C 0.378 0.60351 0.29467 0.0
C3754 C 0.37148 0.60309 0.35997 0.0
C3755 C 0.36764 0.61379 0.35611 0.0
C3756 C 0.36889 0.61924 0.32112 0.0
C3757 C 0.37397 0.614 0.29072 0.0
C3758 C 0.37011 0.59693 0.39656 0.0
C3759 C 0.36512 0.63072 0.31607 0.0
H3760 H 0.33805 0.62481 0.42813 0.0
H3761 H 0.36953 0.63443 0.46626 0.0
H3762 H 0.34474 0.6165 0.3385 0.0
H3763 H 0.34668 0.60453 0.36577 0.0
H3764 H 0.3355 0.61333 0.37634 0.0
H3765 H 0.38519 0.63068 0.43221 0.0
H3766 H 0.38475 0.61744 0.4113 0.0
H3767 H 0.38325 0.62906 0.38187 0.0
H3768 H 0.37977 0.58998 0.33227 0.0
H3769 H 0.37507 0.61822 0.26408 0.0
H3770 H 0.36149 0.59679 0.40487 0.0
H3771 H 0.37459 0.60102 0.41966 0.0
H3772 H 0.37306 0.5885 0.39434 0.0
H3773 H 0.35638 0.63133 0.32235 0.0
H3774 H 0.36656 0.63377 0.2869 0.0
H3775 H 0.36938 0.63604 0.33641 0.0
C3776 C 0.1469 0.61924 0.05362 0.0
C3777 C 0.14751 0.63054 0.05427 0.0
C3778 C 0.14204 0.61348 0.08339 0.0
C3779 C 0.13749 0.61916 0.11429 0.0
C3780 C 0.13811 0.63054 0.11529 0.0
C3781 C 0.14321 0.63607 0.08554 0.0
C3782 C 0.14168 0.60134 0.08156 0.0
C3783 C 0.13327 0.6369 0.14757 0.0
C3784 C 0.11551 0.60571 0.17274 0.0
C3785 C 0.12109 0.60299 0.20592 0.0
C3786 C 0.12077 0.61089 0.14255 0.0
C3787 C 0.13192 0.61322 0.14537 0.0
C3788 C 0.13765 0.61019 0.17842 0.0
C3789 C 0.13214 0.60521 0.20846 0.0
C3790 C 0.11433 0.61415 0.10809 0.0
C3791 C 0.14957 0.61233 0.18222 0.0
H3792 H 0.15002 0.61485 0.02945 0.0
H3793 H 0.1438 0.64477 0.08686 0.0
H3794 H 0.14523 0.59784 0.10767 0.0
H3795 H 0.13319 0.59857 0.08005 0.0
H3796 H 0.14609 0.59811 0.05662 0.0
H3797 H 0.13432 0.64572 0.1439 0.0
H3798 H 0.12453 0.63513 0.14983 0.0
H3799 H 0.13704 0.63447 0.17477 0.0
H3800 H 0.10694 0.60408 0.17092 0.0
H3801 H 0.13647 0.60303 0.23402 0.0
H3802 H 0.11792 0.61061 0.08215 0.0
H3803 H 0.11457 0.62304 0.10476 0.0
H3804 H 0.10578 0.61157 0.10999 0.0
H3805 H 0.15396 0.6088 0.15779 0.0
H3806 H 0.15296 0.60894 0.20883 0.0
H3807 H 0.1511 0.62114 0.18186 0.0
C3808 C 0.12752 0.40184 0.82152 0.0
C3809 C 0.11921 0.39646 0.80234 0.0
C3810 C 0.13312 0.39686 0.85138 0.0
C3811 C 0.13034 0.38624 0.86237 0.0
C3812 C 0.122 0.38075 0.84305 0.0
C3813 C 0.11655 0.38591 0.81327 0.0
C3814 C 0.14196 0.40299 0.87136 0.0
C3815 C 0.11879 0.36942 0.85387 0.0
C3816 C 0.15037 0.36942 0.91877 0.0
C3817 C 0.1464 0.37051 0.9558 0.0
C3818 C 0.1453 0.37457 0.8881 0.0
C3819 C 0.136 0.38094 0.89462 0.0
C3820 C 0.13196 0.38207 0.93193 0.0
C3821 C 0.1372 0.37685 0.96202 0.0
C3822 C 0.14986 0.37321 0.84872 0.0
C3823 C 0.12203 0.3887 0.94004 0.0
H3824 H 0.12956 0.41002 0.81351 0.0
H3825 H 0.11029 0.38161 0.79816 0.0
H3826 H 0.13989 0.40398 0.90176 0.0
H3827 H 0.14961 0.39837 0.87004 0.0
H3828 H 0.14332 0.41108 0.85881 0.0
H3829 H 0.11217 0.36625 0.83588 0.0
H3830 H 0.12583 0.36396 0.85131 0.0
H3831 H 0.11615 0.36922 0.88392 0.0
H3832 H 0.15753 0.36462 0.91381 0.0
H3833 H 0.13397 0.37759 0.99045 0.0
H3834 H 0.15189 0.38119 0.83653 0.0
H3835 H 0.14375 0.36947 0.82992 0.0
H3836 H 0.15721 0.3681 0.84848 0.0
H3837 H 0.1232 0.39708 0.92988 0.0
H3838 H 0.12004 0.38894 0.97074 0.0
H3839 H 0.11503 0.38533 0.92447 0.0
C3840 C 0.15305 0.27459 0.08869 0.0
C3841 C 0.16203 0.27965 0.10505 0.0
C3842 C 0.15252 0.26331 0.0855 0.0
C3843 C 0.16113 0.25694 0.09936 0.0
C3844 C 0.17027 0.262 0.11539 0.0
C3845 C 0.17065 0.27326 0.11773 0.0
C3846 C 0.14269 0.2582 0.06783 0.0
C3847 C 0.17961 0.25549 0.13061 0.0
C3848 C 0.15638 0.22788 0.12861 0.0
C3849 C 0.16116 0.22224 0.09858 0.0
C3850 C 0.15608 0.23918 0.12879 0.0
C3851 C 0.16055 0.24497 0.09796 0.0
C3852 C 0.16506 0.2393 0.06696 0.0
C3853 C 0.16538 0.228 0.06777 0.0
C3854 C 0.15133 0.24493 0.16261 0.0
C3855 C 0.16976 0.24518 0.03333 0.0
H3856 H 0.14631 0.27943 0.0791 0.0
H3857 H 0.17774 0.27708 0.12958 0.0
H3858 H 0.14512 0.25279 0.04432 0.0
H3859 H 0.13846 0.25319 0.08918 0.0
H3860 H 0.13695 0.26429 0.05663 0.0
H3861 H 0.18612 0.26066 0.14223 0.0
H3862 H 0.17676 0.25003 0.15339 0.0
H3863 H 0.18304 0.25038 0.10782 0.0
H3864 H 0.1532 0.22345 0.15263 0.0
H3865 H 0.16897 0.22364 0.04432 0.0
H3866 H 0.14503 0.2507 0.15329 0.0
H3867 H 0.1577 0.24966 0.1771 0.0
H3868 H 0.14772 0.23926 0.18341 0.0
H3869 H 0.16381 0.25098 0.02177 0.0
H3870 H 0.17224 0.23959 0.01033 0.0
H3871 H 0.17692 0.24988 0.04237 0.0
C3872 C 0.97546 0.90888 0.32387 0.0
C3873 C 0.97027 0.91554 0.3503 0.0
C3874 C 0.98676 0.90836 0.32219 0.0
C3875 C 0.99299 0.91456 0.34776 0.0
C3876 C 0.98778 0.92123 0.37469 0.0
C3877 C 0.97649 0.92166 0.37555 0.0
C3878 C 0.99203 0.90122 0.2929 0.0
C3879 C 0.99413 0.92789 0.40269 0.0
C3880 C 0.02195 0.90663 0.36879 0.0
C3881 C 0.02772 0.91423 0.3475 0.0
C3882 C 0.01064 0.90652 0.36862 0.0
C3883 C 0.00497 0.91415 0.34642 0.0
C3884 C 0.01075 0.92167 0.32415 0.0
C3885 C 0.02206 0.92165 0.32508 0.0
C3886 C 0.00476 0.89843 0.39299 0.0
C3887 C 0.005 0.92987 0.29985 0.0
H3888 H 0.97068 0.90421 0.30411 0.0
H3889 H 0.97251 0.92669 0.3964 0.0
H3890 H 0.99726 0.90613 0.27414 0.0
H3891 H 0.99726 0.89519 0.30704 0.0
H3892 H 0.98604 0.8969 0.27511 0.0
H3893 H 0.98885 0.93257 0.42206 0.0
H3894 H 0.99938 0.92257 0.41998 0.0
H3895 H 0.99946 0.93358 0.38733 0.0
H3896 H 0.02628 0.90096 0.38652 0.0
H3897 H 0.02649 0.92746 0.30824 0.0
H3898 H 0.99903 0.8937 0.37549 0.0
H3899 H 0.99996 0.9027 0.41487 0.0
H3900 H 0.01034 0.89276 0.40741 0.0
H3901 H 0.99932 0.92577 0.28033 0.0
H3902 H 0.01067 0.93482 0.2828 0.0
H3903 H 0.00017 0.93533 0.31807 0.0
C3904 C 0.34472 0.77274 0.6137 0.0
C3905 C 0.33524 0.77849 0.60573 0.0
C3906 C 0.34494 0.76144 0.61218 0.0
C3907 C 0.33544 0.75572 0.60278 0.0
C3908 C 0.32591 0.76147 0.59394 0.0
C3909 C 0.32594 0.77276 0.59533 0.0
C3910 C 0.35527 0.7556 0.62156 0.0
C3911 C 0.31561 0.75567 0.58386 0.0
C3912 C 0.33717 0.72635 0.57257 0.0
C3913 C 0.33452 0.72098 0.60635 0.0
C3914 C 0.33762 0.73765 0.57103 0.0
C3915 C 0.3353 0.74374 0.60398 0.0
C3916 C 0.33268 0.73837 0.63818 0.0
C3917 C 0.33237 0.72708 0.63899 0.0
C3918 C 0.3405 0.74309 0.5341 0.0
C3919 C 0.33013 0.74457 0.67393 0.0
H3920 H 0.35191 0.77706 0.62216 0.0
H3921 H 0.31864 0.77713 0.58838 0.0
H3922 H 0.35418 0.75078 0.64778 0.0
H3923 H 0.35738 0.7499 0.59849 0.0
H3924 H 0.36213 0.76122 0.62587 0.0
H3925 H 0.30899 0.76132 0.57647 0.0
H3926 H 0.31698 0.75018 0.55953 0.0
H3927 H 0.31296 0.75063 0.60814 0.0
H3928 H 0.33873 0.72172 0.54711 0.0
H3929 H 0.33054 0.72302 0.66541 0.0
H3930 H 0.34756 0.74844 0.5382 0.0
H3931 H 0.33371 0.74823 0.52454 0.0
H3932 H 0.34239 0.7372 0.51134 0.0
H3933 H 0.33707 0.74974 0.68182 0.0
H3934 H 0.32824 0.73919 0.69819 0.0
H3935 H 0.32315 0.74997 0.66899 0.0
C3936 C 0.47603 0.07729 0.84393 0.0
C3937 C 0.47002 0.08681 0.84776 0.0
C3938 C 0.48733 0.0775 0.84303 0.0
C3939 C 0.49278 0.08749 0.84563 0.0
C3940 C 0.48679 0.09716 0.84825 0.0
C3941 C 0.47548 0.09671 0.84943 0.0
C3942 C 0.49343 0.067 0.84027 0.0
C3943 C 0.49232 0.10797 0.85082 0.0
C3944 C 0.52125 0.08664 0.88479 0.0
C3945 C 0.5275 0.08688 0.85162 0.0
C3946 C 0.50997 0.08699 0.88321 0.0
C3947 C 0.50476 0.08771 0.8476 0.0
C3948 C 0.511 0.08823 0.81404 0.0
C3949 C 0.52229 0.08778 0.81643 0.0
C3950 C 0.50361 0.0864 0.91967 0.0
C3951 C 0.50573 0.08907 0.77557 0.0
H3952 H 0.47189 0.06963 0.84184 0.0
H3953 H 0.47093 0.1041 0.85274 0.0
H3954 H 0.49902 0.0672 0.81573 0.0
H3955 H 0.49839 0.06584 0.86612 0.0
H3956 H 0.48798 0.05996 0.83711 0.0
H3957 H 0.48651 0.11477 0.84998 0.0
H3958 H 0.49697 0.10846 0.87763 0.0
H3959 H 0.49813 0.10892 0.82717 0.0
H3960 H 0.52519 0.08619 0.91216 0.0
H3961 H 0.52703 0.08787 0.79063 0.0
H3962 H 0.49842 0.07911 0.91951 0.0
H3963 H 0.49822 0.09349 0.92215 0.0
H3964 H 0.50888 0.08608 0.94509 0.0
H3965 H 0.50089 0.08173 0.76997 0.0
H3966 H 0.51172 0.09002 0.75239 0.0
H3967 H 0.50013 0.09603 0.77489 0.0
C3968 C 0.16839 0.77389 0.92812 0.0
C3969 C 0.16313 0.77939 0.89871 0.0
C3970 C 0.16842 0.76259 0.92959 0.0
C3971 C 0.16316 0.75664 0.90077 0.0
C3972 C 0.15773 0.76216 0.87125 0.0
C3973 C 0.15775 0.77346 0.87066 0.0
C3974 C 0.17421 0.757 0.9617 0.0
C3975 C 0.15212 0.75611 0.83979 0.0
C3976 C 0.17252 0.72812 0.88026 0.0
C3977 C 0.16436 0.72192 0.89711 0.0
C3978 C 0.17226 0.73941 0.88156 0.0
C3979 C 0.1637 0.74466 0.90051 0.0
C3980 C 0.15556 0.73848 0.91832 0.0
C3981 C 0.15596 0.72718 0.91631 0.0
C3982 C 0.1811 0.74572 0.8622 0.0
C3983 C 0.14633 0.7438 0.93895 0.0
H3984 H 0.17245 0.77845 0.95008 0.0
H3985 H 0.15379 0.77767 0.84762 0.0
H3986 H 0.16864 0.7514 0.97644 0.0
H3987 H 0.18095 0.75211 0.95032 0.0
H3988 H 0.1775 0.76278 0.98276 0.0
H3989 H 0.14797 0.76159 0.81963 0.0
H3990 H 0.15807 0.75123 0.82381 0.0
H3991 H 0.1461 0.75045 0.85181 0.0
H3992 H 0.17915 0.72413 0.86602 0.0
H3993 H 0.14957 0.72247 0.92909 0.0
H3994 H 0.18516 0.75107 0.88292 0.0
H3995 H 0.17759 0.75094 0.83984 0.0
H3996 H 0.18725 0.7404 0.849 0.0
H3997 H 0.14946 0.74938 0.96091 0.0
H3998 H 0.14091 0.73785 0.95278 0.0
H3999 H 0.14151 0.74868 0.91876 0.0
C4000 C 0.47772 0.9146 0.11598 0.0
C4001 C 0.47136 0.91406 0.14877 0.0
C4002 C 0.489 0.91459 0.11821 0.0
C4003 C 0.49406 0.91412 0.15416 0.0
C4004 C 0.48769 0.91346 0.18738 0.0
C4005 C 0.4764 0.91337 0.18428 0.0
C4006 C 0.49551 0.91518 0.08209 0.0
C4007 C 0.49279 0.91305 0.22621 0.0
C4008 C 0.52353 0.90578 0.15593 0.0
C4009 C 0.52874 0.9158 0.15626 0.0
C4010 C 0.51224 0.90509 0.15604 0.0
C4011 C 0.50602 0.91465 0.15683 0.0
C4012 C 0.51125 0.92478 0.15835 0.0
C4013 C 0.52254 0.92524 0.15786 0.0
C4014 C 0.50696 0.89415 0.15407 0.0
C4015 C 0.50491 0.93516 0.15965 0.0
H4016 H 0.47385 0.91499 0.08846 0.0
H4017 H 0.4715 0.91305 0.2097 0.0
H4018 H 0.50041 0.92266 0.08188 0.0
H4019 H 0.50119 0.90829 0.08059 0.0
H4020 H 0.49035 0.9151 0.05636 0.0
H4021 H 0.48671 0.91225 0.24917 0.0
H4022 H 0.49847 0.90618 0.22802 0.0
H4023 H 0.49752 0.92051 0.23118 0.0
H4024 H 0.5283 0.89847 0.15433 0.0
H4025 H 0.52655 0.93299 0.1586 0.0
H4026 H 0.50238 0.89341 0.12718 0.0
H4027 H 0.50112 0.89319 0.17763 0.0
H4028 H 0.51291 0.88748 0.15552 0.0
H4029 H 0.50017 0.93608 0.13317 0.0
H4030 H 0.51018 0.94233 0.16294 0.0
H4031 H 0.4991 0.93498 0.18355 0.0
C4032 C 0.33124 0.22805 0.36233 0.0
C4033 C 0.33525 0.22179 0.39237 0.0
C4034 C 0.33139 0.23934 0.36388 0.0
C4035 C 0.33582 0.24455 0.39597 0.0
C4036 C 0.33999 0.23833 0.42622 0.0
C4037 C 0.33958 0.22703 0.4242 0.0
C4038 C 0.32677 0.2457 0.33116 0.0
C4039 C 0.34489 0.24361 0.46072 0.0
C4040 C 0.34457 0.27361 0.3818 0.0
C4041 C 0.33587 0.27932 0.39743 0.0
C4042 C 0.3448 0.2623 0.38206 0.0
C4043 C 0.33603 0.25653 0.39777 0.0
C4044 C 0.32728 0.26222 0.41397 0.0
C4045 C 0.32735 0.27353 0.41388 0.0
C4046 C 0.35433 0.25653 0.36487 0.0
C4047 C 0.31775 0.25635 0.43072 0.0
H4048 H 0.32808 0.22413 0.33726 0.0
H4049 H 0.34256 0.22231 0.44781 0.0
H4050 H 0.32029 0.25111 0.34146 0.0
H4051 H 0.33311 0.25086 0.31847 0.0
H4052 H 0.32342 0.24042 0.30864 0.0
H4053 H 0.34803 0.23763 0.48137 0.0
H4054 H 0.35158 0.24899 0.45206 0.0
H4055 H 0.33878 0.24868 0.47514 0.0
H4056 H 0.35113 0.27797 0.36851 0.0
H4057 H 0.32069 0.27783 0.42671 0.0
H4058 H 0.35169 0.25184 0.33974 0.0
H4059 H 0.35774 0.25071 0.38553 0.0
H4060 H 0.36079 0.26217 0.35596 0.0
H4061 H 0.31381 0.25138 0.40855 0.0
H4062 H 0.31167 0.26195 0.44278 0.0
H4063 H 0.32046 0.25079 0.45341 0.0
C4064 C 0.97816 0.08524 0.61513 0.0
C4065 C 0.97222 0.08622 0.64874 0.0
C4066 C 0.98945 0.0857 0.61547 0.0
C4067 C 0.99493 0.08695 0.6504 0.0
C4068 C 0.98897 0.08796 0.68446 0.0
C4069 C 0.97765 0.08769 0.68317 0.0
C4070 C 0.9955 0.08481 0.57846 0.0
C4071 C 0.99454 0.0891 0.7223 0.0
C4072 C 0.02389 0.07711 0.65101 0.0
C4073 C 0.02962 0.08679 0.64765 0.0
C4074 C 0.01261 0.07708 0.65321 0.0
C4075 C 0.00692 0.08696 0.65117 0.0
C4076 C 0.01269 0.09677 0.64817 0.0
C4077 C 0.024 0.09657 0.64685 0.0
C4078 C 0.00676 0.06647 0.65716 0.0
C4079 C 0.00691 0.10744 0.64519 0.0
H4080 H 0.97393 0.08421 0.58847 0.0
H4081 H 0.97305 0.08838 0.70917 0.0
H4082 H 0.0009 0.09186 0.57485 0.0
H4083 H 0.00065 0.07751 0.5787 0.0
H4084 H 0.99001 0.08436 0.55364 0.0
H4085 H 0.98873 0.08988 0.74611 0.0
H4086 H 0.99972 0.08196 0.72753 0.0
H4087 H 0.99986 0.09627 0.72214 0.0
H4088 H 0.02827 0.06955 0.65198 0.0
H4089 H 0.02845 0.10404 0.64399 0.0
H4090 H 0.00179 0.06497 0.63158 0.0
H4091 H 0.00122 0.06674 0.68182 0.0
H4092 H 0.01239 0.05959 0.66089 0.0
H4093 H 0.00188 0.10755 0.61919 0.0
H4094 H 0.01258 0.11435 0.64412 0.0
H4095 H 0.00142 0.10854 0.66969 0.0
C4096 C 0.84595 0.72635 0.89862 0.0
C4097 C 0.83613 0.72103 0.90512 0.0
C4098 C 0.84657 0.73765 0.89857 0.0
C4099 C 0.83711 0.7438 0.90455 0.0
C4100 C 0.82723 0.73851 0.91191 0.0
C4101 C 0.82688 0.72721 0.91244 0.0
C4102 C 0.85728 0.74301 0.89112 0.0
C4103 C 0.81695 0.74477 0.91816 0.0
C4104 C 0.83882 0.77352 0.93011 0.0
C4105 C 0.8371 0.77847 0.89479 0.0
C4106 C 0.83908 0.76225 0.93363 0.0
C4107 C 0.83742 0.75575 0.90119 0.0
C4108 C 0.83577 0.76067 0.86545 0.0
C4109 C 0.83573 0.77194 0.86264 0.0
C4110 C 0.841 0.75729 0.97214 0.0
C4111 C 0.83389 0.75402 0.8302 0.0
H4112 H 0.85313 0.7217 0.89247 0.0
H4113 H 0.81931 0.72321 0.9183 0.0
H4114 H 0.85698 0.74737 0.86369 0.0
H4115 H 0.85903 0.74904 0.91349 0.0
H4116 H 0.86401 0.73712 0.89008 0.0
H4117 H 0.80999 0.73945 0.9246 0.0
H4118 H 0.81799 0.75054 0.94188 0.0
H4119 H 0.81504 0.74955 0.89243 0.0
H4120 H 0.83976 0.77846 0.95523 0.0
H4121 H 0.83464 0.77564 0.83508 0.0
H4122 H 0.84787 0.75158 0.97079 0.0
H4123 H 0.83381 0.75262 0.98099 0.0
H4124 H 0.84273 0.76345 0.99416 0.0
H4125 H 0.84082 0.74856 0.82528 0.0
H4126 H 0.83273 0.75908 0.80456 0.0
H4127 H 0.82664 0.74889 0.83402 0.0
C4128 C 0.66559 0.22756 0.36228 0.0
C4129 C 0.6637 0.22127 0.39466 0.0
C4130 C 0.66537 0.23884 0.364 0.0
C4131 C 0.66323 0.24399 0.39901 0.0
C4132 C 0.66116 0.23771 0.43172 0.0
C4133 C 0.66139 0.22641 0.42913 0.0
C4134 C 0.66752 0.24525 0.32839 0.0
C4135 C 0.65891 0.24291 0.46957 0.0
C4136 C 0.67356 0.27268 0.40767 0.0
C4137 C 0.66424 0.2787 0.40017 0.0
C4138 C 0.67328 0.26138 0.40844 0.0
C4139 C 0.66344 0.25596 0.40134 0.0
C4140 C 0.65395 0.262 0.39459 0.0
C4141 C 0.65446 0.2733 0.39417 0.0
C4142 C 0.68355 0.25524 0.41604 0.0
C4143 C 0.64333 0.25651 0.38667 0.0
H4144 H 0.66722 0.22362 0.33544 0.0
H4145 H 0.66001 0.22159 0.4543 0.0
H4146 H 0.66069 0.25077 0.32262 0.0
H4147 H 0.67481 0.2503 0.33228 0.0
H4148 H 0.66875 0.24001 0.30322 0.0
H4149 H 0.65714 0.2369 0.49204 0.0
H4150 H 0.66597 0.24778 0.4785 0.0
H4151 H 0.65196 0.24849 0.46716 0.0
H4152 H 0.6811 0.27683 0.41285 0.0
H4153 H 0.64725 0.2779 0.38797 0.0
H4154 H 0.68574 0.25041 0.39074 0.0
H4155 H 0.68236 0.24953 0.43989 0.0
H4156 H 0.6904 0.26066 0.42301 0.0
H4157 H 0.64391 0.25183 0.35995 0.0
H4158 H 0.63659 0.26235 0.38401 0.0
H4159 H 0.6414 0.25073 0.40966 0.0
C4160 C 0.84165 0.27284 0.06933 0.0
C4161 C 0.83716 0.27807 0.10078 0.0
C4162 C 0.84208 0.26154 0.06763 0.0
C4163 C 0.83816 0.25538 0.09852 0.0
C4164 C 0.83387 0.26067 0.13073 0.0
C4165 C 0.83331 0.27195 0.13127 0.0
C4166 C 0.84651 0.25618 0.0325 0.0
C4167 C 0.82981 0.25441 0.16457 0.0
C4168 C 0.82867 0.22652 0.08633 0.0
C4169 C 0.83752 0.22071 0.10006 0.0
C4170 C 0.82896 0.2378 0.08416 0.0
C4171 C 0.83822 0.2434 0.09692 0.0
C4172 C 0.84726 0.23753 0.11017 0.0
C4173 C 0.84684 0.22622 0.1112 0.0
C4174 C 0.81925 0.24375 0.06909 0.0
C4175 C 0.85719 0.2432 0.12472 0.0
H4176 H 0.84457 0.2776 0.04569 0.0
H4177 H 0.82994 0.27603 0.15574 0.0
H4178 H 0.85329 0.25078 0.04007 0.0
H4179 H 0.84017 0.25111 0.0193 0.0
H4180 H 0.84937 0.26212 0.01121 0.0
H4181 H 0.82724 0.25977 0.18815 0.0
H4182 H 0.82285 0.24934 0.15613 0.0
H4183 H 0.83619 0.24893 0.17514 0.0
H4184 H 0.82149 0.22222 0.07753 0.0
H4185 H 0.85364 0.22169 0.12211 0.0
H4186 H 0.82171 0.24948 0.04655 0.0
H4187 H 0.81551 0.24853 0.09216 0.0
H4188 H 0.81307 0.23819 0.05736 0.0
H4189 H 0.86031 0.24888 0.10308 0.0
H4190 H 0.86372 0.23746 0.13237 0.0
H4191 H 0.8551 0.24801 0.15019 0.0
C4192 C 0.67326 0.72774 0.60307 0.0
C4193 C 0.66394 0.72154 0.60872 0.0
C4194 C 0.67279 0.73904 0.60214 0.0
C4195 C 0.66274 0.74428 0.60648 0.0
C4196 C 0.65327 0.73809 0.61131 0.0
C4197 C 0.65398 0.7268 0.61259 0.0
C4198 C 0.68308 0.74537 0.5971 0.0
C4199 C 0.64239 0.74339 0.6158 0.0
C4200 C 0.66278 0.77309 0.64279 0.0
C4201 C 0.66164 0.779 0.60915 0.0
C4202 C 0.66313 0.76179 0.64229 0.0
C4203 C 0.6622 0.75626 0.60733 0.0
C4204 C 0.66092 0.76219 0.57329 0.0
C4205 C 0.66073 0.7735 0.57459 0.0
C4206 C 0.66464 0.75578 0.67914 0.0
C4207 C 0.65978 0.75657 0.53555 0.0
H4208 H 0.68096 0.72377 0.59933 0.0
H4209 H 0.64675 0.72211 0.61747 0.0
H4210 H 0.68244 0.75069 0.57194 0.0
H4211 H 0.68442 0.75062 0.62211 0.0
H4212 H 0.69023 0.74007 0.59355 0.0
H4213 H 0.63573 0.73742 0.6172 0.0
H4214 H 0.64227 0.74828 0.64212 0.0
H4215 H 0.64086 0.74894 0.59176 0.0
H4216 H 0.66364 0.77732 0.6695 0.0
H4217 H 0.65977 0.77806 0.54858 0.0
H4218 H 0.67212 0.75089 0.67785 0.0
H4219 H 0.65784 0.75013 0.68372 0.0
H4220 H 0.66517 0.76128 0.70391 0.0
H4221 H 0.66707 0.75168 0.52967 0.0
H4222 H 0.6586 0.76234 0.51181 0.0
H4223 H 0.65282 0.75096 0.53634 0.0
C4224 C 0.52239 0.41057 0.88903 0.0
C4225 C 0.52859 0.41041 0.8558 0.0
C4226 C 0.5111 0.41043 0.8875 0.0
C4227 C 0.50586 0.41021 0.85184 0.0
C4228 C 0.51208 0.4098 0.81819 0.0
C4229 C 0.52338 0.40985 0.82058 0.0
C4230 C 0.50477 0.41075 0.92406 0.0
C4231 C 0.50679 0.40964 0.77965 0.0
C4232 C 0.47622 0.4024 0.85146 0.0
C4233 C 0.47121 0.41253 0.85238 0.0
C4234 C 0.4875 0.4015 0.85043 0.0
C4235 C 0.4939 0.41095 0.84997 0.0
C4236 C 0.48886 0.42118 0.84966 0.0
C4237 C 0.47758 0.42184 0.85102 0.0
C4238 C 0.49258 0.39045 0.85106 0.0
C4239 C 0.49538 0.43145 0.84876 0.0
H4240 H 0.52639 0.41085 0.91633 0.0
H4241 H 0.52815 0.40981 0.79482 0.0
H4242 H 0.50003 0.41831 0.92551 0.0
H4243 H 0.49897 0.40395 0.92506 0.0
H4244 H 0.51005 0.41031 0.94944 0.0
H4245 H 0.51274 0.40874 0.75633 0.0
H4246 H 0.50091 0.40293 0.77792 0.0
H4247 H 0.50225 0.41724 0.77524 0.0
H4248 H 0.47132 0.39518 0.8528 0.0
H4249 H 0.47373 0.42968 0.85118 0.0
H4250 H 0.49724 0.38941 0.87766 0.0
H4251 H 0.49832 0.38958 0.82716 0.0
H4252 H 0.48649 0.38391 0.84924 0.0
H4253 H 0.50028 0.4321 0.87497 0.0
H4254 H 0.49023 0.43874 0.84646 0.0
H4255 H 0.50105 0.43133 0.82445 0.0
C4256 C 0.97781 0.57795 0.36616 0.0
C4257 C 0.97168 0.58679 0.35394 0.0
C4258 C 0.98911 0.57827 0.36564 0.0
C4259 C 0.99443 0.58764 0.35249 0.0
C4260 C 0.9883 0.59653 0.33952 0.0
C4261 C 0.977 0.59601 0.34049 0.0
C4262 C 0.99535 0.56865 0.37994 0.0
C4263 C 0.99368 0.60664 0.32506 0.0
C4264 C 0.02294 0.59213 0.38812 0.0
C4265 C 0.02915 0.58822 0.35783 0.0
C4266 C 0.01165 0.59215 0.38647 0.0
C4267 C 0.0064 0.58825 0.35359 0.0
C4268 C 0.0126 0.58459 0.32246 0.0
C4269 C 0.0239 0.58459 0.32498 0.0
C4270 C 0.00533 0.59614 0.42026 0.0
C4271 C 0.00729 0.58042 0.28686 0.0
H4272 H 0.97375 0.57086 0.37708 0.0
H4273 H 0.9723 0.60282 0.33062 0.0
H4274 H 0.00104 0.5658 0.35783 0.0
H4275 H 0.00022 0.571 0.40499 0.0
H4276 H 0.99001 0.56185 0.3881 0.0
H4277 H 0.98777 0.61268 0.31474 0.0
H4278 H 0.99855 0.61034 0.34798 0.0
H4279 H 0.99928 0.60463 0.30157 0.0
H4280 H 0.02693 0.59513 0.41333 0.0
H4281 H 0.02861 0.58145 0.3016 0.0
H4282 H 0.0003 0.58952 0.43178 0.0
H4283 H 0.99979 0.6027 0.41153 0.0
H4284 H 0.01063 0.59919 0.44326 0.0
H4285 H 0.00261 0.57304 0.29348 0.0
H4286 H 0.01324 0.57846 0.26436 0.0
H4287 H 0.00154 0.58647 0.27564 0.0
C4288 C 0.97656 0.40291 0.64541 0.0
C4289 C 0.97061 0.41241 0.65076 0.0
C4290 C 0.98787 0.40301 0.64633 0.0
C4291 C 0.99337 0.41282 0.65295 0.0
C4292 C 0.98742 0.42238 0.65925 0.0
C4293 C 0.97613 0.42207 0.65795 0.0
C4294 C 0.99394 0.39264 0.63946 0.0
C4295 C 0.993 0.433 0.66646 0.0
C4296 C 0.02277 0.41201 0.68332 0.0
C4297 C 0.02807 0.41431 0.64913 0.0
C4298 C 0.01148 0.41148 0.68503 0.0
C4299 C 0.00536 0.41318 0.65168 0.0
C4300 C 0.01067 0.41538 0.61702 0.0
C4301 C 0.02196 0.41595 0.6162 0.0
C4302 C 0.00609 0.40921 0.72257 0.0
C4303 C 0.00444 0.41714 0.58076 0.0
H4304 H 0.97237 0.39539 0.6404 0.0
H4305 H 0.97162 0.42947 0.66155 0.0
H4306 H 0.99895 0.39342 0.61355 0.0
H4307 H 0.99948 0.39099 0.66343 0.0
H4308 H 0.98847 0.38563 0.63594 0.0
H4309 H 0.98721 0.43957 0.67292 0.0
H4310 H 0.9987 0.43221 0.69052 0.0
H4311 H 0.99777 0.43534 0.64117 0.0
H4312 H 0.02747 0.41082 0.70889 0.0
H4313 H 0.02603 0.41758 0.58961 0.0
H4314 H 0.00093 0.40195 0.72025 0.0
H4315 H 0.00077 0.41605 0.73036 0.0
H4316 H 0.012 0.40794 0.74577 0.0
H4317 H 0.99935 0.41 0.57465 0.0
H4318 H 0.0098 0.4186 0.55607 0.0
H4319 H 0.99897 0.42415 0.58396 0.0
C4320 C 0.47773 0.58328 0.12156 0.0
C4321 C 0.47155 0.58852 0.14923 0.0
C4322 C 0.48901 0.58388 0.12194 0.0
C4323 C 0.49424 0.58975 0.15103 0.0
C4324 C 0.48803 0.5951 0.17897 0.0
C4325 C 0.47674 0.5945 0.17754 0.0
C4326 C 0.49532 0.5782 0.09127 0.0
C4327 C 0.49334 0.60131 0.2107 0.0
C4328 C 0.52324 0.58157 0.16953 0.0
C4329 C 0.52893 0.58962 0.15016 0.0
C4330 C 0.51194 0.58173 0.17115 0.0
C4331 C 0.50622 0.59004 0.15244 0.0
C4332 C 0.51194 0.5983 0.13341 0.0
C4333 C 0.52325 0.59803 0.13274 0.0
C4334 C 0.50613 0.57287 0.19222 0.0
C4335 C 0.50612 0.60721 0.11268 0.0
H4336 H 0.47371 0.57877 0.09936 0.0
H4337 H 0.47195 0.59851 0.19905 0.0
H4338 H 0.50067 0.58401 0.07655 0.0
H4339 H 0.50054 0.57192 0.10406 0.0
H4340 H 0.49001 0.57432 0.06991 0.0
H4341 H 0.48736 0.60513 0.2299 0.0
H4342 H 0.4985 0.59582 0.22763 0.0
H4343 H 0.49864 0.60767 0.19889 0.0
H4344 H 0.52763 0.57513 0.18336 0.0
H4345 H 0.52765 0.60421 0.11747 0.0
H4346 H 0.50132 0.568 0.172 0.0
H4347 H 0.50044 0.57638 0.21308 0.0
H4348 H 0.51177 0.56743 0.2074 0.0
H4349 H 0.50131 0.60374 0.08913 0.0
H4350 H 0.51176 0.61329 0.10076 0.0
H4351 H 0.50042 0.61134 0.13202 0.0
C4352 C 0.14132 0.13265 0.31355 0.0
C4353 C 0.13582 0.13972 0.28926 0.0
C4354 C 0.13615 0.12798 0.34485 0.0
C4355 C 0.12519 0.13036 0.35197 0.0
C4356 C 0.11958 0.13749 0.32765 0.0
C4357 C 0.12496 0.1421 0.2966 0.0
C4358 C 0.14242 0.1204 0.37012 0.0
C4359 C 0.10788 0.14021 0.33437 0.0
C4360 C 0.11005 0.10997 0.41193 0.0
C4361 C 0.11037 0.11479 0.44786 0.0
C4362 C 0.11459 0.11509 0.38025 0.0
C4363 C 0.11961 0.12525 0.38467 0.0
C4364 C 0.11974 0.13027 0.4207 0.0
C4365 C 0.1151 0.12499 0.45187 0.0
C4366 C 0.11421 0.10951 0.34223 0.0
C4367 C 0.12507 0.14108 0.42655 0.0
H4368 H 0.14965 0.13062 0.30774 0.0
H4369 H 0.12069 0.14764 0.27823 0.0
H4370 H 0.14223 0.12333 0.39983 0.0
H4371 H 0.13863 0.11231 0.36982 0.0
H4372 H 0.15096 0.11958 0.36116 0.0
H4373 H 0.10467 0.14592 0.31287 0.0
H4374 H 0.10295 0.13276 0.3337 0.0
H4375 H 0.10687 0.14384 0.36289 0.0
H4376 H 0.10627 0.10216 0.40861 0.0
H4377 H 0.11546 0.12871 0.47965 0.0
H4378 H 0.12252 0.10767 0.33259 0.0
H4379 H 0.11054 0.1149 0.32071 0.0
H4380 H 0.10955 0.10188 0.3432 0.0
H4381 H 0.13383 0.1404 0.42071 0.0
H4382 H 0.12398 0.14416 0.45588 0.0
H4383 H 0.12175 0.14708 0.4064 0.0
C4384 C 0.10256 0.87951 0.57067 0.0
C4385 C 0.10919 0.88422 0.54296 0.0
C4386 C 0.10697 0.87456 0.60291 0.0
C4387 C 0.1183 0.87413 0.60726 0.0
C4388 C 0.12504 0.87857 0.57893 0.0
C4389 C 0.12042 0.88364 0.54735 0.0
C4390 C 0.09952 0.87001 0.63272 0.0
C4391 C 0.13717 0.87815 0.58235 0.0
C4392 C 0.13058 0.87162 0.70538 0.0
C4393 C 0.13316 0.86061 0.70703 0.0
C4394 C 0.1255 0.87605 0.67346 0.0
C4395 C 0.12312 0.86938 0.64205 0.0
C4396 C 0.12561 0.85826 0.64352 0.0
C4397 C 0.1305 0.854 0.6761 0.0
C4398 C 0.12285 0.88793 0.67313 0.0
C4399 C 0.12328 0.85092 0.61039 0.0
H4400 H 0.09389 0.87973 0.56728 0.0
H4401 H 0.12563 0.8874 0.52656 0.0
H4402 H 0.10132 0.86137 0.63752 0.0
H4403 H 0.10083 0.87425 0.66004 0.0
H4404 H 0.0909 0.87082 0.62474 0.0
H4405 H 0.14127 0.88137 0.55675 0.0
H4406 H 0.1398 0.88291 0.60728 0.0
H4407 H 0.13986 0.86972 0.58696 0.0
H4408 H 0.13276 0.87686 0.7287 0.0
H4409 H 0.13227 0.84545 0.67727 0.0
H4410 H 0.11419 0.88913 0.66659 0.0
H4411 H 0.12754 0.89203 0.65057 0.0
H4412 H 0.12468 0.89188 0.70066 0.0
H4413 H 0.11458 0.85117 0.60328 0.0
H4414 H 0.1256 0.84243 0.61621 0.0
H4415 H 0.12775 0.85374 0.58501 0.0
C4416 C 0.39229 0.88778 0.92672 0.0
C4417 C 0.38976 0.88406 0.96318 0.0
C4418 C 0.38772 0.88302 0.89444 0.0
C4419 C 0.38049 0.87429 0.89875 0.0
C4420 C 0.37814 0.87029 0.93543 0.0
C4421 C 0.38277 0.87526 0.96724 0.0
C4422 C 0.39036 0.88756 0.85581 0.0
C4423 C 0.37054 0.86093 0.94112 0.0
C4424 C 0.35969 0.86963 0.82167 0.0
C4425 C 0.36428 0.86111 0.8012 0.0
C4426 C 0.36491 0.87401 0.85338 0.0
C4427 C 0.37494 0.86972 0.86504 0.0
C4428 C 0.37963 0.86111 0.8445 0.0
C4429 C 0.37426 0.85694 0.81269 0.0
C4430 C 0.35969 0.88325 0.87433 0.0
C4431 C 0.39028 0.85629 0.85627 0.0
H4432 H 0.39759 0.89467 0.92348 0.0
H4433 H 0.38089 0.87228 0.99537 0.0
H4434 H 0.39332 0.88108 0.83683 0.0
H4435 H 0.38297 0.89094 0.84273 0.0
H4436 H 0.39655 0.89401 0.85718 0.0
H4437 H 0.37006 0.85839 0.97128 0.0
H4438 H 0.36235 0.86319 0.93139 0.0
H4439 H 0.37317 0.85395 0.92382 0.0
H4440 H 0.35205 0.87298 0.81256 0.0
H4441 H 0.37779 0.85028 0.79713 0.0
H4442 H 0.36516 0.89032 0.8745 0.0
H4443 H 0.35824 0.88096 0.9043 0.0
H4444 H 0.3519 0.8857 0.86145 0.0
H4445 H 0.39663 0.86258 0.85614 0.0
H4446 H 0.39284 0.84962 0.83729 0.0
H4447 H 0.38971 0.85316 0.88567 0.0
C4448 C 0.37737 0.11239 0.05154 0.0
C4449 C 0.38777 0.11462 0.03795 0.0
C4450 C 0.37328 0.11759 0.08375 0.0
C4451 C 0.37958 0.12549 0.10226 0.0
C4452 C 0.38995 0.12803 0.08823 0.0
C4453 C 0.39399 0.12246 0.05659 0.0
C4454 C 0.36223 0.11452 0.09821 0.0
C4455 C 0.3968 0.1366 0.10671 0.0
C4456 C 0.3637 0.14457 0.16502 0.0
C4457 C 0.36556 0.14025 0.20128 0.0
C4458 C 0.36861 0.14015 0.13274 0.0
C4459 C 0.37529 0.13098 0.13655 0.0
C4460 C 0.37736 0.12668 0.17297 0.0
C4461 C 0.37261 0.13146 0.20489 0.0
C4462 C 0.36641 0.14512 0.09443 0.0
C4463 C 0.3843 0.11678 0.17812 0.0
H4464 H 0.37235 0.10658 0.03697 0.0
H4465 H 0.40208 0.12417 0.04686 0.0
H4466 H 0.36279 0.11185 0.12817 0.0
H4467 H 0.35682 0.12162 0.09749 0.0
H4468 H 0.3585 0.10796 0.08127 0.0
H4469 H 0.40444 0.13803 0.09109 0.0
H4470 H 0.39226 0.14429 0.1083 0.0
H4471 H 0.39879 0.1342 0.13618 0.0
H4472 H 0.35815 0.15123 0.16153 0.0
H4473 H 0.37436 0.1282 0.23271 0.0
H4474 H 0.36155 0.13949 0.07699 0.0
H4475 H 0.37408 0.14656 0.0791 0.0
H4476 H 0.36198 0.15287 0.09673 0.0
H4477 H 0.3806 0.10986 0.16302 0.0
H4478 H 0.38531 0.11458 0.20844 0.0
H4479 H 0.39237 0.11811 0.16553 0.0
C4480 C 0.88677 0.89262 0.57629 0.0
C4481 C 0.89017 0.88669 0.54464 0.0
C4482 C 0.88211 0.8875 0.60771 0.0
C4483 C 0.88086 0.87617 0.60756 0.0
C4484 C 0.88445 0.87011 0.57599 0.0
C4485 C 0.88903 0.87545 0.54482 0.0
C4486 C 0.8783 0.89426 0.64071 0.0
C4487 C 0.88333 0.858 0.57497 0.0
C4488 C 0.8761 0.86276 0.70296 0.0
C4489 C 0.86486 0.86158 0.70309 0.0
C4490 C 0.88146 0.86727 0.67169 0.0
C4491 C 0.87542 0.87074 0.63991 0.0
C4492 C 0.8641 0.86939 0.63958 0.0
C4493 C 0.85897 0.8648 0.67108 0.0
C4494 C 0.89355 0.86855 0.67299 0.0
C4495 C 0.85737 0.87299 0.60619 0.0
H4496 H 0.88749 0.90133 0.57607 0.0
H4497 H 0.89174 0.87083 0.52056 0.0
H4498 H 0.86946 0.89336 0.64414 0.0
H4499 H 0.88211 0.89143 0.66737 0.0
H4500 H 0.88018 0.90294 0.63692 0.0
H4501 H 0.88691 0.85443 0.54898 0.0
H4502 H 0.88729 0.85438 0.60012 0.0
H4503 H 0.87468 0.85575 0.57619 0.0
H4504 H 0.88071 0.86039 0.72771 0.0
H4505 H 0.8503 0.86372 0.67065 0.0
H4506 H 0.89568 0.87723 0.67233 0.0
H4507 H 0.89727 0.86475 0.6477 0.0
H4508 H 0.89713 0.86489 0.69885 0.0
H4509 H 0.85827 0.8818 0.60204 0.0
H4510 H 0.84869 0.87113 0.61002 0.0
H4511 H 0.86023 0.86901 0.5799 0.0
C4512 C 0.87257 0.14821 0.3239 0.0
C4513 C 0.86608 0.14138 0.30193 0.0
C4514 C 0.8781 0.1443 0.35582 0.0
C4515 C 0.87706 0.13332 0.36608 0.0
C4516 C 0.87061 0.12637 0.34381 0.0
C4517 C 0.86525 0.13047 0.31195 0.0
C4518 C 0.88496 0.15193 0.37882 0.0
C4519 C 0.86929 0.11461 0.35382 0.0
C4520 C 0.89744 0.11933 0.42935 0.0
C4521 C 0.89198 0.11908 0.46414 0.0
C4522 C 0.89286 0.12431 0.39748 0.0
C4523 C 0.88253 0.12907 0.40045 0.0
C4524 C 0.87712 0.12912 0.43579 0.0
C4525 C 0.88193 0.12416 0.46725 0.0
C4526 C 0.89893 0.12419 0.36038 0.0
C4527 C 0.86606 0.13404 0.44 0.0
H4528 H 0.87318 0.15667 0.31658 0.0
H4529 H 0.86042 0.12509 0.29472 0.0
H4530 H 0.88171 0.15256 0.40804 0.0
H4531 H 0.89329 0.14878 0.38109 0.0
H4532 H 0.88526 0.16013 0.36624 0.0
H4533 H 0.864 0.11028 0.33351 0.0
H4534 H 0.87727 0.11058 0.35426 0.0
H4535 H 0.8658 0.11384 0.38265 0.0
H4536 H 0.90528 0.11552 0.42699 0.0
H4537 H 0.87762 0.12388 0.49398 0.0
H4538 H 0.89948 0.13246 0.34862 0.0
H4539 H 0.89451 0.11921 0.33941 0.0
H4540 H 0.9072 0.12089 0.3635 0.0
H4541 H 0.86607 0.14246 0.42943 0.0
H4542 H 0.86324 0.13403 0.4699 0.0
H4543 H 0.86019 0.12946 0.42259 0.0
C4544 C 0.64083 0.13355 0.17384 0.0
C4545 C 0.63497 0.13896 0.20206 0.0
C4546 C 0.63564 0.12885 0.14268 0.0
C4547 C 0.62429 0.12945 0.13977 0.0
C4548 C 0.6183 0.13489 0.16805 0.0
C4549 C 0.62372 0.13961 0.19882 0.0
C4550 C 0.64231 0.12312 0.11305 0.0
C4551 C 0.60618 0.13567 0.16593 0.0
C4552 C 0.61225 0.12474 0.04221 0.0
C4553 C 0.60945 0.11381 0.04418 0.0
C4554 C 0.6169 0.13001 0.07338 0.0
C4555 C 0.61871 0.12421 0.10736 0.0
C4556 C 0.61565 0.11325 0.10982 0.0
C4557 C 0.61109 0.10817 0.07813 0.0
C4558 C 0.62014 0.14168 0.06961 0.0
C4559 C 0.61736 0.10683 0.14569 0.0
H4560 H 0.6495 0.13283 0.17643 0.0
H4561 H 0.61914 0.14387 0.22024 0.0
H4562 H 0.64001 0.1145 0.11183 0.0
H4563 H 0.64072 0.12663 0.08465 0.0
H4564 H 0.65109 0.12366 0.1189 0.0
H4565 H 0.60271 0.14022 0.19016 0.0
H4566 H 0.60375 0.1397 0.13918 0.0
H4567 H 0.60261 0.12747 0.1656 0.0
H4568 H 0.61108 0.1291 0.01589 0.0
H4569 H 0.60879 0.09976 0.07989 0.0
H4570 H 0.62901 0.14243 0.07255 0.0
H4571 H 0.61645 0.14652 0.09262 0.0
H4572 H 0.61772 0.14517 0.04189 0.0
H4573 H 0.6261 0.10628 0.15199 0.0
H4574 H 0.61405 0.09854 0.14355 0.0
H4575 H 0.61349 0.11096 0.17003 0.0
C4576 C 0.64006 0.86723 0.82725 0.0
C4577 C 0.63429 0.86157 0.79945 0.0
C4578 C 0.63481 0.87198 0.85818 0.0
C4579 C 0.62347 0.87115 0.86132 0.0
C4580 C 0.61757 0.86548 0.83337 0.0
C4581 C 0.62305 0.86074 0.80279 0.0
C4582 C 0.64139 0.87797 0.8874 0.0
C4583 C 0.60547 0.86445 0.83576 0.0
C4584 C 0.61175 0.8759 0.95936 0.0
C4585 C 0.60878 0.88678 0.95722 0.0
C4586 C 0.6163 0.87062 0.92803 0.0
C4587 C 0.61784 0.87635 0.89373 0.0
C4588 C 0.61454 0.88724 0.89107 0.0
C4589 C 0.61008 0.89233 0.92289 0.0
C4590 C 0.61978 0.85902 0.93201 0.0
C4591 C 0.61597 0.89358 0.85488 0.0
H4592 H 0.64872 0.86808 0.82456 0.0
H4593 H 0.61854 0.85628 0.78167 0.0
H4594 H 0.63884 0.88653 0.88848 0.0
H4595 H 0.63998 0.87448 0.91594 0.0
H4596 H 0.65016 0.87768 0.88124 0.0
H4597 H 0.60206 0.8598 0.81168 0.0
H4598 H 0.60318 0.8604 0.86262 0.0
H4599 H 0.60172 0.87257 0.83607 0.0
H4600 H 0.61085 0.87161 0.98595 0.0
H4601 H 0.60763 0.9007 0.92098 0.0
H4602 H 0.62866 0.85845 0.92902 0.0
H4603 H 0.61617 0.85406 0.90914 0.0
H4604 H 0.61744 0.85553 0.95983 0.0
H4605 H 0.62467 0.89438 0.84829 0.0
H4606 H 0.61242 0.90178 0.85681 0.0
H4607 H 0.61216 0.88927 0.83082 0.0
C4608 C 0.60895 0.62361 0.94223 0.0
C4609 C 0.61237 0.6132 0.95192 0.0
C4610 C 0.61333 0.629 0.91081 0.0
C4611 C 0.62139 0.62388 0.88885 0.0
C4612 C 0.62494 0.61341 0.89872 0.0
C4613 C 0.62036 0.60818 0.93006 0.0
C4614 C 0.60929 0.64012 0.90096 0.0
C4615 C 0.63361 0.60773 0.87623 0.0
C4616 C 0.62669 0.63271 0.78746 0.0
C4617 C 0.63594 0.63907 0.79174 0.0
C4618 C 0.62172 0.62792 0.81897 0.0
C4619 C 0.62617 0.62946 0.85553 0.0
C4620 C 0.63541 0.636 0.86008 0.0
C4621 C 0.64017 0.64076 0.82812 0.0
C4622 C 0.6118 0.62108 0.81306 0.0
C4623 C 0.64045 0.63775 0.89857 0.0
H4624 H 0.60271 0.62746 0.9589 0.0
H4625 H 0.62313 0.60019 0.9378 0.0
H4626 H 0.61607 0.64595 0.90141 0.0
H4627 H 0.60594 0.64014 0.8718 0.0
H4628 H 0.60297 0.64296 0.92086 0.0
H4629 H 0.63552 0.59964 0.88785 0.0
H4630 H 0.63101 0.60681 0.84632 0.0
H4631 H 0.64108 0.61264 0.87613 0.0
H4632 H 0.62334 0.63149 0.75941 0.0
H4633 H 0.6474 0.64557 0.83149 0.0
H4634 H 0.60512 0.62403 0.8312 0.0
H4635 H 0.6135 0.61264 0.82163 0.0
H4636 H 0.60907 0.62109 0.78307 0.0
H4637 H 0.63438 0.64103 0.91859 0.0
H4638 H 0.64741 0.64337 0.89744 0.0
H4639 H 0.64324 0.62994 0.91026 0.0
C4640 C 0.63604 0.35466 0.16773 0.0
C4641 C 0.63405 0.35898 0.2039 0.0
C4642 C 0.63109 0.35895 0.13531 0.0
C4643 C 0.62422 0.36799 0.13888 0.0
C4644 C 0.62202 0.37229 0.17521 0.0
C4645 C 0.62682 0.36763 0.20727 0.0
C4646 C 0.63345 0.35399 0.0971 0.0
C4647 C 0.61488 0.38204 0.18012 0.0
C4648 C 0.62187 0.38656 0.05389 0.0
C4649 C 0.61151 0.38416 0.04025 0.0
C4650 C 0.62605 0.38141 0.08605 0.0
C4651 C 0.61988 0.37338 0.10446 0.0
C4652 C 0.60957 0.37064 0.09031 0.0
C4653 C 0.60544 0.37616 0.05872 0.0
C4654 C 0.63702 0.38467 0.10062 0.0
C4655 C 0.60287 0.36193 0.10869 0.0
H4656 H 0.64172 0.3481 0.16444 0.0
H4657 H 0.62497 0.37088 0.23502 0.0
H4658 H 0.62583 0.35239 0.08164 0.0
H4659 H 0.63823 0.35969 0.07969 0.0
H4660 H 0.63802 0.34633 0.09958 0.0
H4661 H 0.61377 0.38425 0.21039 0.0
H4662 H 0.61846 0.38902 0.165 0.0
H4663 H 0.60685 0.38054 0.1674 0.0
H4664 H 0.62678 0.39249 0.03942 0.0
H4665 H 0.59739 0.37431 0.04893 0.0
H4666 H 0.64256 0.37766 0.1001 0.0
H4667 H 0.63638 0.38738 0.13052 0.0
H4668 H 0.64066 0.39127 0.08363 0.0
H4669 H 0.60758 0.35435 0.1105 0.0
H4670 H 0.5953 0.36032 0.09287 0.0
H4671 H 0.60077 0.36431 0.13807 0.0
C4672 C 0.89647 0.38351 0.41562 0.0
C4673 C 0.89055 0.38385 0.44948 0.0
C4674 C 0.89226 0.37856 0.38306 0.0
C4675 C 0.88186 0.37389 0.38438 0.0
C4676 C 0.87593 0.37403 0.41866 0.0
C4677 C 0.88036 0.379 0.45083 0.0
C4678 C 0.89886 0.37849 0.3471 0.0
C4679 C 0.86479 0.36919 0.42112 0.0
C4680 C 0.86586 0.37127 0.29317 0.0
C4681 C 0.86692 0.36026 0.28506 0.0
C4682 C 0.87081 0.37583 0.32511 0.0
C4683 C 0.87699 0.36922 0.34954 0.0
C4684 C 0.87826 0.35814 0.34118 0.0
C4685 C 0.87319 0.35378 0.30906 0.0
C4686 C 0.86922 0.38767 0.33317 0.0
C4687 C 0.88486 0.35086 0.36643 0.0
H4688 H 0.90441 0.38714 0.41459 0.0
H4689 H 0.8757 0.37935 0.47679 0.0
H4690 H 0.89979 0.37012 0.33656 0.0
H4691 H 0.89463 0.38312 0.32471 0.0
H4692 H 0.90699 0.38203 0.35125 0.0
H4693 H 0.86141 0.36962 0.45024 0.0
H4694 H 0.85928 0.3735 0.40155 0.0
H4695 H 0.865 0.36063 0.4121 0.0
H4696 H 0.8609 0.37629 0.27507 0.0
H4697 H 0.87413 0.34529 0.3027 0.0
H4698 H 0.87714 0.39176 0.33552 0.0
H4699 H 0.86503 0.38871 0.36072 0.0
H4700 H 0.86443 0.39176 0.31079 0.0
H4701 H 0.89314 0.3541 0.36951 0.0
H4702 H 0.88536 0.34251 0.35526 0.0
H4703 H 0.88124 0.35059 0.39519 0.0
C4704 C 0.87558 0.63407 0.71575 0.0
C4705 C 0.86554 0.63909 0.71159 0.0
C4706 C 0.88074 0.62925 0.68464 0.0
C4707 C 0.87565 0.62935 0.6487 0.0
C4708 C 0.86554 0.63446 0.64434 0.0
C4709 C 0.86063 0.63932 0.6758 0.0
C4710 C 0.89159 0.62399 0.69026 0.0
C4711 C 0.85978 0.6346 0.60661 0.0
C4712 C 0.8919 0.62431 0.55909 0.0
C4713 C 0.88978 0.61339 0.55229 0.0
C4714 C 0.88751 0.62958 0.59077 0.0
C4715 C 0.88073 0.62381 0.61585 0.0
C4716 C 0.87856 0.61278 0.60908 0.0
C4717 C 0.88316 0.60769 0.57749 0.0
C4718 C 0.89011 0.64131 0.59734 0.0
C4719 C 0.87124 0.60639 0.63487 0.0
H4720 H 0.87943 0.63396 0.74335 0.0
H4721 H 0.8528 0.64309 0.67263 0.0
H4722 H 0.89101 0.61525 0.68401 0.0
H4723 H 0.89755 0.62746 0.67022 0.0
H4724 H 0.89467 0.62501 0.71962 0.0
H4725 H 0.85204 0.63908 0.60785 0.0
H4726 H 0.86498 0.63837 0.58471 0.0
H4727 H 0.85811 0.62623 0.59731 0.0
H4728 H 0.89709 0.62871 0.5398 0.0
H4729 H 0.88141 0.59927 0.57203 0.0
H4730 H 0.89369 0.64239 0.62592 0.0
H4731 H 0.88261 0.64616 0.59645 0.0
H4732 H 0.89581 0.64454 0.57587 0.0
H4733 H 0.87437 0.60656 0.66431 0.0
H4734 H 0.87044 0.59785 0.62579 0.0
H4735 H 0.8631 0.61009 0.63535 0.0
C4736 C 0.37051 0.37319 0.21672 0.0
C4737 C 0.3678 0.36223 0.21584 0.0
C4738 C 0.37544 0.37815 0.18551 0.0
C4739 C 0.37781 0.37198 0.15282 0.0
C4740 C 0.37539 0.36083 0.15222 0.0
C4741 C 0.37034 0.3561 0.18369 0.0
C4742 C 0.37778 0.39009 0.18703 0.0
C4743 C 0.37793 0.35396 0.11805 0.0
C4744 C 0.37942 0.38675 0.0589 0.0
C4745 C 0.39058 0.38803 0.05421 0.0
C4746 C 0.37518 0.38152 0.0908 0.0
C4747 C 0.38227 0.37732 0.11852 0.0
C4748 C 0.39354 0.3784 0.11376 0.0
C4749 C 0.39756 0.3838 0.08175 0.0
C4750 C 0.36311 0.38056 0.09495 0.0
C4751 C 0.40133 0.37395 0.14264 0.0
H4752 H 0.36844 0.37797 0.24139 0.0
H4753 H 0.36834 0.3476 0.18314 0.0
H4754 H 0.38639 0.39162 0.18054 0.0
H4755 H 0.37294 0.39433 0.16519 0.0
H4756 H 0.37589 0.39363 0.21518 0.0
H4757 H 0.37617 0.3453 0.12305 0.0
H4758 H 0.37311 0.35673 0.09341 0.0
H4759 H 0.38655 0.35481 0.11028 0.0
H4760 H 0.37396 0.38979 0.03743 0.0
H4761 H 0.40618 0.38485 0.07862 0.0
H4762 H 0.36047 0.3845 0.12163 0.0
H4763 H 0.36076 0.37196 0.0968 0.0
H4764 H 0.35871 0.38431 0.0709 0.0
H4765 H 0.40008 0.37798 0.17036 0.0
H4766 H 0.40987 0.37508 0.134 0.0
H4767 H 0.39984 0.36522 0.14696 0.0
C4768 C 0.39751 0.62467 0.935 0.0
C4769 C 0.39088 0.61945 0.96146 0.0
C4770 C 0.39313 0.62965 0.90275 0.0
C4771 C 0.38185 0.62937 0.89681 0.0
C4772 C 0.3751 0.62436 0.92392 0.0
C4773 C 0.37969 0.61946 0.9559 0.0
C4774 C 0.40058 0.63498 0.87458 0.0
C4775 C 0.36303 0.62385 0.91852 0.0
C4776 C 0.36826 0.64825 0.82674 0.0
C4777 C 0.36677 0.64146 0.79538 0.0
C4778 C 0.37343 0.64452 0.85966 0.0
C4779 C 0.37713 0.63375 0.86126 0.0
C4780 C 0.37588 0.62694 0.82936 0.0
C4781 C 0.37075 0.63089 0.7968 0.0
C4782 C 0.37464 0.65202 0.8931 0.0
C4783 C 0.37974 0.6154 0.82993 0.0
H4784 H 0.40615 0.6248 0.93939 0.0
H4785 H 0.37453 0.61531 0.97592 0.0
H4786 H 0.40021 0.63064 0.84712 0.0
H4787 H 0.39796 0.64339 0.86921 0.0
H4788 H 0.40907 0.63508 0.88448 0.0
H4789 H 0.35887 0.62018 0.94323 0.0
H4790 H 0.35974 0.63205 0.91388 0.0
H4791 H 0.36113 0.61902 0.89292 0.0
H4792 H 0.36511 0.65639 0.82601 0.0
H4793 H 0.36979 0.62566 0.77243 0.0
H4794 H 0.38316 0.65224 0.90255 0.0
H4795 H 0.36978 0.64899 0.91724 0.0
H4796 H 0.37201 0.66036 0.88641 0.0
H4797 H 0.38844 0.61509 0.8371 0.0
H4798 H 0.37849 0.61129 0.80231 0.0
H4799 H 0.37537 0.61084 0.85219 0.0
C4800 C 0.12819 0.64269 0.69107 0.0
C4801 C 0.13662 0.63722 0.70941 0.0
C4802 C 0.12295 0.63818 0.65956 0.0
C4803 C 0.12639 0.62809 0.64539 0.0
C4804 C 0.13495 0.62258 0.66341 0.0
C4805 C 0.13985 0.62712 0.69545 0.0
C4806 C 0.11371 0.64421 0.64147 0.0
C4807 C 0.13896 0.61186 0.6488 0.0
C4808 C 0.10807 0.61069 0.58486 0.0
C4809 C 0.11183 0.61301 0.54835 0.0
C4810 C 0.11248 0.61584 0.61667 0.0
C4811 C 0.12105 0.62324 0.61175 0.0
C4812 C 0.12481 0.62566 0.57479 0.0
C4813 C 0.12005 0.6206 0.54342 0.0
C4814 C 0.10808 0.61325 0.65552 0.0
C4815 C 0.13409 0.63332 0.56848 0.0
H4816 H 0.12572 0.65056 0.70105 0.0
H4817 H 0.14618 0.62269 0.70974 0.0
H4818 H 0.11572 0.64621 0.61166 0.0
H4819 H 0.10642 0.63904 0.64092 0.0
H4820 H 0.11176 0.65179 0.65675 0.0
H4821 H 0.14599 0.60882 0.66513 0.0
H4822 H 0.13243 0.60578 0.65035 0.0
H4823 H 0.14133 0.61261 0.61857 0.0
H4824 H 0.10165 0.60484 0.58845 0.0
H4825 H 0.12298 0.62229 0.51508 0.0
H4826 H 0.10582 0.62078 0.67047 0.0
H4827 H 0.11438 0.60922 0.67278 0.0
H4828 H 0.10092 0.60789 0.65421 0.0
H4829 H 0.13229 0.64126 0.58138 0.0
H4830 H 0.13588 0.63452 0.5379 0.0
H4831 H 0.14143 0.63015 0.5826 0.0
C4832 C 0.12971 0.35533 0.32102 0.0
C4833 C 0.13601 0.36221 0.2985 0.0
C4834 C 0.12422 0.35924 0.35298 0.0
C4835 C 0.12512 0.37026 0.36279 0.0
C4836 C 0.13144 0.37724 0.34016 0.0
C4837 C 0.13677 0.37314 0.30822 0.0
C4838 C 0.11753 0.35157 0.37641 0.0
C4839 C 0.1326 0.38904 0.34976 0.0
C4840 C 0.10418 0.38359 0.42568 0.0
C4841 C 0.1095 0.38382 0.46073 0.0
C4842 C 0.10906 0.37894 0.39373 0.0
C4843 C 0.11953 0.37452 0.39692 0.0
C4844 C 0.12486 0.37455 0.43241 0.0
C4845 C 0.11976 0.37918 0.46394 0.0
C4846 C 0.1031 0.37896 0.35642 0.0
C4847 C 0.13607 0.36999 0.43684 0.0
H4848 H 0.1292 0.34685 0.31401 0.0
H4849 H 0.14147 0.37854 0.29064 0.0
H4850 H 0.12073 0.35118 0.40573 0.0
H4851 H 0.10911 0.35453 0.3783 0.0
H4852 H 0.11744 0.34329 0.36441 0.0
H4853 H 0.13787 0.39337 0.32936 0.0
H4854 H 0.12457 0.39297 0.3499 0.0
H4855 H 0.13604 0.38994 0.37862 0.0
H4856 H 0.09621 0.38708 0.42323 0.0
H4857 H 0.12395 0.37948 0.49088 0.0
H4858 H 0.10259 0.37065 0.34498 0.0
H4859 H 0.10757 0.38388 0.33538 0.0
H4860 H 0.09481 0.38225 0.35913 0.0
H4861 H 0.13628 0.36152 0.42683 0.0
H4862 H 0.1389 0.37023 0.46671 0.0
H4863 H 0.1418 0.37463 0.41907 0.0
loop_
_geom_bond_atom_site_label_1
_geom_bond_atom_site_label_2
_geom_bond_distance
_geom_bond_site_symmetry_2
_ccdc_geom_bond_type
Li0 N17 1.990 . S
Li0 O60 1.956 . S
Li0 O61 1.970 . S
Li0 O62 1.961 . S
Li1 N25 1.990 . S
Li1 O60 1.970 . S
Li1 O61 1.956 . S
Li1 O63 1.961 . S
Li2 N47 1.990 . S
Li2 O60 1.961 . S
Li2 O62 1.956 . S
Li2 O63 1.970 . S
Li3 N53 1.990 . S
Li3 O61 1.961 . S
Li3 O62 1.970 . S
Li3 O63 1.956 . S
C4 C6 1.348 . S
C4 C7 1.356 . S
C4 O60 1.325 . S
N5 C8 1.314 . S
N5 C9 1.279 . S
C6 C4 1.348 . S
C6 C8 1.353 . S
C6 H64 0.929 . S
C7 C4 1.356 . S
C7 C9 1.358 . S
C7 H65 0.930 . S
C8 N5 1.314 . S
C8 C6 1.353 . S
C8 H66 0.930 . S
C9 N5 1.279 . S
C9 C7 1.358 . S
C9 H67 0.930 . S
C10 C13 1.348 . S
C10 C14 1.356 . S
C10 O61 1.325 . S
C11 N12 1.279 . S
C11 C14 1.358 . S
C11 H68 0.930 . S
N12 C11 1.279 . S
N12 C15 1.314 . S
C13 C10 1.348 . S
C13 C15 1.353 . S
C13 H69 0.929 . S
C14 C10 1.356 . S
C14 C11 1.358 . S
C14 H70 0.930 . S
C15 N12 1.314 . S
C15 C13 1.353 . S
C15 H71 0.930 . S
C16 N17 1.314 . S
C16 C21 1.353 . S
C16 H22 0.930 . S
N17 Li0 1.990 . S
N17 C16 1.314 . S
N17 C19 1.279 . S
C18 C19 1.358 . S
C18 C20 1.356 . S
C18 H72 0.930 . S
C19 N17 1.279 . S
C19 C18 1.358 . S
C19 H23 0.930 . S
C20 C18 1.356 . S
C20 C21 1.348 . S
C21 C16 1.353 . S
C21 C20 1.348 . S
C21 H73 0.929 . S
H22 C16 0.930 . S
H23 C19 0.930 . S
C24 N25 1.314 . S
C24 C26 1.353 . S
C24 H30 0.930 . S
N25 Li1 1.990 . S
N25 C24 1.314 . S
N25 C28 1.279 . S
C26 C24 1.353 . S
C26 C29 1.348 . S
C26 H74 0.929 . S
C27 C28 1.358 . S
C27 C29 1.356 . S
C27 H75 0.930 . S
C28 N25 1.279 . S
C28 C27 1.358 . S
C28 H31 0.930 . S
C29 C26 1.348 . S
C29 C27 1.356 . S
H30 C24 0.930 . S
H31 C28 0.930 . S
C32 C34 1.348 . S
C32 C35 1.356 . S
C32 O62 1.325 . S
N33 C36 1.314 . S
N33 C37 1.279 . S
C34 C32 1.348 . S
C34 C36 1.353 . S
C34 H76 0.929 . S
C35 C32 1.356 . S
C35 C37 1.358 . S
C35 H77 0.930 . S
C36 N33 1.314 . S
C36 C34 1.353 . S
C36 H78 0.930 . S
C37 N33 1.279 . S
C37 C35 1.358 . S
C37 H79 0.930 . S
C38 C39 1.348 . S
C38 C40 1.356 . S
C38 O63 1.325 . S
C39 C38 1.348 . S
C39 C41 1.353 . S
C39 H80 0.929 . S
C40 C38 1.356 . S
C40 C42 1.358 . S
C40 H81 0.930 . S
C41 C39 1.353 . S
C41 N43 1.314 . S
C41 H82 0.930 . S
C42 C40 1.358 . S
C42 N43 1.279 . S
C42 H83 0.930 . S
N43 C41 1.314 . S
N43 C42 1.279 . S
C44 C46 1.353 . S
C44 N47 1.314 . S
C44 H50 0.930 . S
C45 N47 1.279 . S
C45 C48 1.358 1_554 S
C45 H51 0.930 . S
C46 C44 1.353 . S
C46 C49 1.348 1_554 S
C46 H84 0.929 . S
N47 Li2 1.990 . S
N47 C44 1.314 . S
N47 C45 1.279 . S
C48 C45 1.358 1_556 S
C48 C49 1.356 . S
C48 H85 0.930 . S
C49 C46 1.348 1_556 S
C49 C48 1.356 . S
H50 C44 0.930 . S
H51 C45 0.930 . S
C52 N53 1.314 . S
C52 C54 1.353 . S
C52 H58 0.930 . S
N53 Li3 1.990 . S
N53 C52 1.314 . S
N53 C56 1.279 . S
C54 C52 1.353 . S
C54 C57 1.348 . S
C54 H86 0.929 . S
C55 C56 1.358 . S
C55 C57 1.356 . S
C55 H87 0.930 . S
C56 N53 1.279 . S
C56 C55 1.358 . S
C56 H59 0.930 . S
C57 C54 1.348 . S
C57 C55 1.356 . S
H58 C52 0.930 . S
H59 C56 0.930 . S
O60 Li0 1.956 . S
O60 Li1 1.970 . S
O60 Li2 1.961 . S
O60 C4 1.325 . S
O61 Li0 1.970 . S
O61 Li1 1.956 . S
O61 Li3 1.961 . S
O61 C10 1.325 . S
O62 Li0 1.961 . S
O62 Li2 1.956 . S
O62 Li3 1.970 . S
O62 C32 1.325 . S
O63 Li1 1.961 . S
O63 Li2 1.970 . S
O63 Li3 1.956 . S
O63 C38 1.325 . S
H64 C6 0.929 . S
H65 C7 0.930 . S
H66 C8 0.930 . S
H67 C9 0.930 . S
H68 C11 0.930 . S
H69 C13 0.929 . S
H70 C14 0.930 . S
H71 C15 0.930 . S
H72 C18 0.930 . S
H73 C21 0.929 . S
H74 C26 0.929 . S
H75 C27 0.930 . S
H76 C34 0.929 . S
H77 C35 0.930 . S
H78 C36 0.930 . S
H79 C37 0.930 . S
H80 C39 0.929 . S
H81 C40 0.930 . S
H82 C41 0.930 . S
H83 C42 0.930 . S
H84 C46 0.929 . S
H85 C48 0.930 . S
H86 C54 0.929 . S
H87 C55 0.930 . S
Li88 N105 1.990 . S
Li88 O148 1.956 . S
Li88 O149 1.970 . S
Li88 O150 1.961 . S
Li89 N113 1.990 . S
Li89 O148 1.970 . S
Li89 O149 1.956 . S
Li89 O151 1.961 . S
Li90 N135 1.990 . S
Li90 O148 1.961 . S
Li90 O150 1.956 . S
Li90 O151 1.970 . S
Li91 N141 1.990 . S
Li91 O149 1.961 . S
Li91 O150 1.970 . S
Li91 O151 1.956 . S
C92 C94 1.348 . S
C92 C95 1.356 . S
C92 O148 1.325 . S
N93 C96 1.314 . S
N93 C97 1.279 . S
C94 C92 1.348 . S
C94 C96 1.353 . S
C94 H152 0.929 . S
C95 C92 1.356 . S
C95 C97 1.358 . S
C95 H153 0.930 . S
C96 N93 1.314 . S
C96 C94 1.353 . S
C96 H154 0.930 . S
C97 N93 1.279 . S
C97 C95 1.358 . S
C97 H155 0.930 . S
C98 C101 1.348 . S
C98 C102 1.356 . S
C98 O149 1.325 . S
C99 N100 1.279 . S
C99 C102 1.358 . S
C99 H156 0.930 . S
N100 C99 1.279 . S
N100 C103 1.314 . S
C101 C98 1.348 . S
C101 C103 1.353 . S
C101 H157 0.929 . S
C102 C98 1.356 . S
C102 C99 1.358 . S
C102 H158 0.930 . S
C103 N100 1.314 . S
C103 C101 1.353 . S
C103 H159 0.930 . S
C104 N105 1.314 . S
C104 C109 1.353 . S
C104 H110 0.930 . S
N105 Li88 1.990 . S
N105 C104 1.314 . S
N105 C107 1.279 . S
C106 C107 1.358 . S
C106 C108 1.356 . S
C106 H160 0.930 . S
C107 N105 1.279 . S
C107 C106 1.358 . S
C107 H111 0.930 . S
C108 C106 1.356 . S
C108 C109 1.348 . S
C109 C104 1.353 . S
C109 C108 1.348 . S
C109 H161 0.929 . S
H110 C104 0.930 . S
H111 C107 0.930 . S
C112 N113 1.314 . S
C112 C114 1.353 . S
C112 H118 0.930 . S
N113 Li89 1.990 . S
N113 C112 1.314 . S
N113 C116 1.279 . S
C114 C112 1.353 . S
C114 C117 1.348 . S
C114 H162 0.929 . S
C115 C116 1.358 . S
C115 C117 1.356 . S
C115 H163 0.930 . S
C116 N113 1.279 . S
C116 C115 1.358 . S
C116 H119 0.930 . S
C117 C114 1.348 . S
C117 C115 1.356 . S
H118 C112 0.930 . S
H119 C116 0.930 . S
C120 C122 1.348 . S
C120 C123 1.356 . S
C120 O150 1.325 . S
N121 C124 1.314 . S
N121 C125 1.279 . S
C122 C120 1.348 . S
C122 C124 1.353 . S
C122 H164 0.929 . S
C123 C120 1.356 . S
C123 C125 1.358 . S
C123 H165 0.930 . S
C124 N121 1.314 . S
C124 C122 1.353 . S
C124 H166 0.930 . S
C125 N121 1.279 . S
C125 C123 1.358 . S
C125 H167 0.930 . S
C126 C127 1.348 . S
C126 C128 1.356 . S
C126 O151 1.325 . S
C127 C126 1.348 . S
C127 C129 1.353 . S
C127 H168 0.929 . S
C128 C126 1.356 . S
C128 C130 1.358 . S
C128 H169 0.930 . S
C129 C127 1.353 . S
C129 N131 1.314 . S
C129 H170 0.930 . S
C130 C128 1.358 . S
C130 N131 1.279 . S
C130 H171 0.930 . S
N131 C129 1.314 . S
N131 C130 1.279 . S
C132 C134 1.353 . S
C132 N135 1.314 . S
C132 H138 0.930 . S
C133 N135 1.279 . S
C133 C136 1.358 . S
C133 H139 0.930 . S
C134 C132 1.353 . S
C134 C137 1.348 . S
C134 H172 0.929 . S
N135 Li90 1.990 . S
N135 C132 1.314 . S
N135 C133 1.279 . S
C136 C133 1.358 . S
C136 C137 1.356 . S
C136 H173 0.930 . S
C137 C134 1.348 . S
C137 C136 1.356 . S
H138 C132 0.930 . S
H139 C133 0.930 . S
C140 N141 1.314 . S
C140 C142 1.353 . S
C140 H146 0.930 . S
N141 Li91 1.990 . S
N141 C140 1.314 . S
N141 C144 1.279 . S
C142 C140 1.353 . S
C142 C145 1.348 . S
C142 H174 0.929 . S
C143 C144 1.358 . S
C143 C145 1.356 . S
C143 H175 0.930 . S
C144 N141 1.279 . S
C144 C143 1.358 . S
C144 H147 0.930 . S
C145 C142 1.348 . S
C145 C143 1.356 . S
H146 C140 0.930 . S
H147 C144 0.930 . S
O148 Li88 1.956 . S
O148 Li89 1.970 . S
O148 Li90 1.961 . S
O148 C92 1.325 . S
O149 Li88 1.970 . S
O149 Li89 1.956 . S
O149 Li91 1.961 . S
O149 C98 1.325 . S
O150 Li88 1.961 . S
O150 Li90 1.956 . S
O150 Li91 1.970 . S
O150 C120 1.325 . S
O151 Li89 1.961 . S
O151 Li90 1.970 . S
O151 Li91 1.956 . S
O151 C126 1.325 . S
H152 C94 0.929 . S
H153 C95 0.930 . S
H154 C96 0.930 . S
H155 C97 0.930 . S
H156 C99 0.930 . S
H157 C101 0.929 . S
H158 C102 0.930 . S
H159 C103 0.930 . S
H160 C106 0.930 . S
H161 C109 0.929 . S
H162 C114 0.929 . S
H163 C115 0.930 . S
H164 C122 0.929 . S
H165 C123 0.930 . S
H166 C124 0.930 . S
H167 C125 0.930 . S
H168 C127 0.929 . S
H169 C128 0.930 . S
H170 C129 0.930 . S
H171 C130 0.930 . S
H172 C134 0.929 . S
H173 C136 0.930 . S
H174 C142 0.929 . S
H175 C143 0.930 . S
Li176 N193 1.990 . S
Li176 O236 1.956 . S
Li176 O237 1.970 . S
Li176 O238 1.961 . S
Li177 N201 1.990 . S
Li177 O236 1.970 . S
Li177 O237 1.956 . S
Li177 O239 1.961 . S
Li178 N223 1.990 . S
Li178 O236 1.961 . S
Li178 O238 1.956 . S
Li178 O239 1.970 . S
Li179 N229 1.990 . S
Li179 O237 1.961 . S
Li179 O238 1.970 . S
Li179 O239 1.956 . S
C180 C182 1.348 . S
C180 C183 1.356 . S
C180 O236 1.325 . S
N181 C184 1.314 . S
N181 C185 1.279 . S
C182 C180 1.348 . S
C182 C184 1.353 . S
C182 H240 0.929 . S
C183 C180 1.356 . S
C183 C185 1.358 . S
C183 H241 0.930 . S
C184 N181 1.314 . S
C184 C182 1.353 . S
C184 H242 0.930 . S
C185 N181 1.279 . S
C185 C183 1.358 . S
C185 H243 0.930 . S
C186 C189 1.348 . S
C186 C190 1.356 . S
C186 O237 1.325 . S
C187 N188 1.279 . S
C187 C190 1.358 . S
C187 H244 0.930 . S
N188 C187 1.279 . S
N188 C191 1.314 . S
C189 C186 1.348 . S
C189 C191 1.353 . S
C189 H245 0.929 . S
C190 C186 1.356 . S
C190 C187 1.358 . S
C190 H246 0.930 . S
C191 N188 1.314 . S
C191 C189 1.353 . S
C191 H247 0.930 . S
C192 N193 1.314 . S
C192 C197 1.353 . S
C192 H198 0.930 . S
N193 Li176 1.990 . S
N193 C192 1.314 . S
N193 C195 1.279 . S
C194 C195 1.358 . S
C194 C196 1.356 . S
C194 H248 0.930 . S
C195 N193 1.279 . S
C195 C194 1.358 . S
C195 H199 0.930 . S
C196 C194 1.356 . S
C196 C197 1.348 . S
C197 C192 1.353 . S
C197 C196 1.348 . S
C197 H249 0.929 . S
H198 C192 0.930 . S
H199 C195 0.930 . S
C200 N201 1.314 . S
C200 C202 1.353 . S
C200 H206 0.930 . S
N201 Li177 1.990 . S
N201 C200 1.314 . S
N201 C204 1.279 . S
C202 C200 1.353 . S
C202 C205 1.348 . S
C202 H250 0.929 . S
C203 C204 1.358 . S
C203 C205 1.356 . S
C203 H251 0.930 . S
C204 N201 1.279 . S
C204 C203 1.358 . S
C204 H207 0.930 . S
C205 C202 1.348 . S
C205 C203 1.356 . S
H206 C200 0.930 . S
H207 C204 0.930 . S
C208 C210 1.348 . S
C208 C211 1.356 . S
C208 O238 1.325 . S
N209 C212 1.314 . S
N209 C213 1.279 . S
C210 C208 1.348 . S
C210 C212 1.353 . S
C210 H252 0.929 . S
C211 C208 1.356 . S
C211 C213 1.358 . S
C211 H253 0.930 . S
C212 N209 1.314 . S
C212 C210 1.353 . S
C212 H254 0.930 . S
C213 N209 1.279 . S
C213 C211 1.358 . S
C213 H255 0.930 . S
C214 C215 1.348 . S
C214 C216 1.356 . S
C214 O239 1.325 . S
C215 C214 1.348 . S
C215 C217 1.353 . S
C215 H256 0.929 . S
C216 C214 1.356 . S
C216 C218 1.358 . S
C216 H257 0.930 . S
C217 C215 1.353 . S
C217 N219 1.314 . S
C217 H258 0.930 . S
C218 C216 1.358 . S
C218 N219 1.279 . S
C218 H259 0.930 . S
N219 C217 1.314 . S
N219 C218 1.279 . S
C220 C222 1.353 . S
C220 N223 1.314 . S
C220 H226 0.930 . S
C221 N223 1.279 . S
C221 C224 1.358 . S
C221 H227 0.930 . S
C222 C220 1.353 . S
C222 C225 1.348 . S
C222 H260 0.929 . S
N223 Li178 1.990 . S
N223 C220 1.314 . S
N223 C221 1.279 . S
C224 C221 1.358 . S
C224 C225 1.356 . S
C224 H261 0.930 . S
C225 C222 1.348 . S
C225 C224 1.356 . S
H226 C220 0.930 . S
H227 C221 0.930 . S
C228 N229 1.314 . S
C228 C230 1.353 . S
C228 H234 0.930 . S
N229 Li179 1.990 . S
N229 C228 1.314 . S
N229 C232 1.279 . S
C230 C228 1.353 . S
C230 C233 1.348 . S
C230 H262 0.929 . S
C231 C232 1.358 . S
C231 C233 1.356 . S
C231 H263 0.930 . S
C232 N229 1.279 . S
C232 C231 1.358 . S
C232 H235 0.930 . S
C233 C230 1.348 . S
C233 C231 1.356 . S
H234 C228 0.930 . S
H235 C232 0.930 . S
O236 Li176 1.956 . S
O236 Li177 1.970 . S
O236 Li178 1.961 . S
O236 C180 1.325 . S
O237 Li176 1.970 . S
O237 Li177 1.956 . S
O237 Li179 1.961 . S
O237 C186 1.325 . S
O238 Li176 1.961 . S
O238 Li178 1.956 . S
O238 Li179 1.970 . S
O238 C208 1.325 . S
O239 Li177 1.961 . S
O239 Li178 1.970 . S
O239 Li179 1.956 . S
O239 C214 1.325 . S
H240 C182 0.929 . S
H241 C183 0.930 . S
H242 C184 0.930 . S
H243 C185 0.930 . S
H244 C187 0.930 . S
H245 C189 0.929 . S
H246 C190 0.930 . S
H247 C191 0.930 . S
H248 C194 0.930 . S
H249 C197 0.929 . S
H250 C202 0.929 . S
H251 C203 0.930 . S
H252 C210 0.929 . S
H253 C211 0.930 . S
H254 C212 0.930 . S
H255 C213 0.930 . S
H256 C215 0.929 . S
H257 C216 0.930 . S
H258 C217 0.930 . S
H259 C218 0.930 . S
H260 C222 0.929 . S
H261 C224 0.930 . S
H262 C230 0.929 . S
H263 C231 0.930 . S
Li264 N281 1.990 . S
Li264 O324 1.956 . S
Li264 O325 1.970 . S
Li264 O326 1.961 . S
Li265 N289 1.990 . S
Li265 O324 1.970 . S
Li265 O325 1.956 . S
Li265 O327 1.961 . S
Li266 N311 1.990 . S
Li266 O324 1.961 . S
Li266 O326 1.956 . S
Li266 O327 1.970 . S
Li267 N317 1.990 . S
Li267 O325 1.961 . S
Li267 O326 1.970 . S
Li267 O327 1.956 . S
C268 C270 1.348 . S
C268 C271 1.356 . S
C268 O324 1.325 . S
N269 C272 1.314 . S
N269 C273 1.279 . S
C270 C268 1.348 . S
C270 C272 1.353 1_556 S
C270 H328 0.929 . S
C271 C268 1.356 . S
C271 C273 1.358 1_556 S
C271 H329 0.930 . S
C272 N269 1.314 . S
C272 C270 1.353 1_554 S
C272 H330 0.930 . S
C273 N269 1.279 . S
C273 C271 1.358 1_554 S
C273 H331 0.930 . S
C274 C277 1.348 . S
C274 C278 1.356 . S
C274 O325 1.325 . S
C275 N276 1.279 . S
C275 C278 1.358 . S
C275 H332 0.930 . S
N276 C275 1.279 . S
N276 C279 1.314 . S
C277 C274 1.348 . S
C277 C279 1.353 . S
C277 H333 0.929 . S
C278 C274 1.356 . S
C278 C275 1.358 . S
C278 H334 0.930 . S
C279 N276 1.314 . S
C279 C277 1.353 . S
C279 H335 0.930 . S
C280 N281 1.314 . S
C280 C285 1.353 . S
C280 H286 0.930 . S
N281 Li264 1.990 . S
N281 C280 1.314 . S
N281 C283 1.279 1_556 S
C282 C283 1.358 . S
C282 C284 1.356 . S
C282 H336 0.930 . S
C283 N281 1.279 1_554 S
C283 C282 1.358 . S
C283 H287 0.930 . S
C284 C282 1.356 . S
C284 C285 1.348 1_554 S
C285 C280 1.353 . S
C285 C284 1.348 1_556 S
C285 H337 0.929 . S
H286 C280 0.930 . S
H287 C283 0.930 . S
C288 N289 1.314 . S
C288 C290 1.353 . S
C288 H294 0.930 . S
N289 Li265 1.990 . S
N289 C288 1.314 . S
N289 C292 1.279 . S
C290 C288 1.353 . S
C290 C293 1.348 . S
C290 H338 0.929 . S
C291 C292 1.358 . S
C291 C293 1.356 . S
C291 H339 0.930 . S
C292 N289 1.279 . S
C292 C291 1.358 . S
C292 H295 0.930 . S
C293 C290 1.348 . S
C293 C291 1.356 . S
H294 C288 0.930 . S
H295 C292 0.930 . S
C296 C298 1.348 . S
C296 C299 1.356 . S
C296 O326 1.325 . S
N297 C300 1.314 . S
N297 C301 1.279 . S
C298 C296 1.348 . S
C298 C300 1.353 . S
C298 H340 0.929 . S
C299 C296 1.356 . S
C299 C301 1.358 . S
C299 H341 0.930 . S
C300 N297 1.314 . S
C300 C298 1.353 . S
C300 H342 0.930 . S
C301 N297 1.279 . S
C301 C299 1.358 . S
C301 H343 0.930 . S
C302 C303 1.348 . S
C302 C304 1.356 . S
C302 O327 1.325 . S
C303 C302 1.348 . S
C303 C305 1.353 . S
C303 H344 0.929 . S
C304 C302 1.356 . S
C304 C306 1.358 . S
C304 H345 0.930 . S
C305 C303 1.353 . S
C305 N307 1.314 . S
C305 H346 0.930 . S
C306 C304 1.358 . S
C306 N307 1.279 . S
C306 H347 0.930 . S
N307 C305 1.314 . S
N307 C306 1.279 . S
C308 C310 1.353 . S
C308 N311 1.314 . S
C308 H314 0.930 . S
C309 N311 1.279 . S
C309 C312 1.358 . S
C309 H315 0.930 . S
C310 C308 1.353 . S
C310 C313 1.348 . S
C310 H348 0.929 . S
N311 Li266 1.990 . S
N311 C308 1.314 . S
N311 C309 1.279 . S
C312 C309 1.358 . S
C312 C313 1.356 . S
C312 H349 0.930 . S
C313 C310 1.348 . S
C313 C312 1.356 . S
H314 C308 0.930 . S
H315 C309 0.930 . S
C316 N317 1.314 . S
C316 C318 1.353 . S
C316 H322 0.930 . S
N317 Li267 1.990 . S
N317 C316 1.314 . S
N317 C320 1.279 . S
C318 C316 1.353 . S
C318 C321 1.348 . S
C318 H350 0.929 . S
C319 C320 1.358 . S
C319 C321 1.356 . S
C319 H351 0.930 . S
C320 N317 1.279 . S
C320 C319 1.358 . S
C320 H323 0.930 . S
C321 C318 1.348 . S
C321 C319 1.356 . S
H322 C316 0.930 . S
H323 C320 0.930 . S
O324 Li264 1.956 . S
O324 Li265 1.970 . S
O324 Li266 1.961 . S
O324 C268 1.325 . S
O325 Li264 1.970 . S
O325 Li265 1.956 . S
O325 Li267 1.961 . S
O325 C274 1.325 . S
O326 Li264 1.961 . S
O326 Li266 1.956 . S
O326 Li267 1.970 . S
O326 C296 1.325 . S
O327 Li265 1.961 . S
O327 Li266 1.970 . S
O327 Li267 1.956 . S
O327 C302 1.325 . S
H328 C270 0.929 . S
H329 C271 0.930 . S
H330 C272 0.930 . S
H331 C273 0.930 . S
H332 C275 0.930 . S
H333 C277 0.929 . S
H334 C278 0.930 . S
H335 C279 0.930 . S
H336 C282 0.930 . S
H337 C285 0.929 . S
H338 C290 0.929 . S
H339 C291 0.930 . S
H340 C298 0.929 . S
H341 C299 0.930 . S
H342 C300 0.930 . S
H343 C301 0.930 . S
H344 C303 0.929 . S
H345 C304 0.930 . S
H346 C305 0.930 . S
H347 C306 0.930 . S
H348 C310 0.929 . S
H349 C312 0.930 . S
H350 C318 0.929 . S
H351 C319 0.930 . S
Li352 N369 1.990 . S
Li352 O412 1.956 . S
Li352 O413 1.970 . S
Li352 O414 1.961 . S
Li353 N377 1.990 . S
Li353 O412 1.970 . S
Li353 O413 1.956 . S
Li353 O415 1.961 . S
Li354 N399 1.990 . S
Li354 O412 1.961 . S
Li354 O414 1.956 . S
Li354 O415 1.970 . S
Li355 N405 1.990 . S
Li355 O413 1.961 . S
Li355 O414 1.970 . S
Li355 O415 1.956 . S
C356 C358 1.348 . S
C356 C359 1.356 . S
C356 O412 1.325 . S
N357 C360 1.314 . S
N357 C361 1.279 . S
C358 C356 1.348 . S
C358 C360 1.353 . S
C358 H416 0.929 . S
C359 C356 1.356 . S
C359 C361 1.358 . S
C359 H417 0.930 . S
C360 N357 1.314 . S
C360 C358 1.353 . S
C360 H418 0.930 . S
C361 N357 1.279 . S
C361 C359 1.358 . S
C361 H419 0.930 . S
C362 C365 1.348 . S
C362 C366 1.356 . S
C362 O413 1.325 . S
C363 N364 1.279 . S
C363 C366 1.358 . S
C363 H420 0.930 . S
N364 C363 1.279 . S
N364 C367 1.314 . S
C365 C362 1.348 . S
C365 C367 1.353 . S
C365 H421 0.929 . S
C366 C362 1.356 . S
C366 C363 1.358 . S
C366 H422 0.930 . S
C367 N364 1.314 . S
C367 C365 1.353 . S
C367 H423 0.930 . S
C368 N369 1.314 . S
C368 C373 1.353 . S
C368 H374 0.930 . S
N369 Li352 1.990 . S
N369 C368 1.314 . S
N369 C371 1.279 . S
C370 C371 1.358 1_554 S
C370 C372 1.356 . S
C370 H424 0.930 . S
C371 N369 1.279 . S
C371 C370 1.358 1_556 S
C371 H375 0.930 . S
C372 C370 1.356 . S
C372 C373 1.348 1_554 S
C373 C368 1.353 . S
C373 C372 1.348 1_556 S
C373 H425 0.929 . S
H374 C368 0.930 . S
H375 C371 0.930 . S
C376 N377 1.314 . S
C376 C378 1.353 . S
C376 H382 0.930 . S
N377 Li353 1.990 . S
N377 C376 1.314 . S
N377 C380 1.279 . S
C378 C376 1.353 . S
C378 C381 1.348 . S
C378 H426 0.929 . S
C379 C380 1.358 . S
C379 C381 1.356 . S
C379 H427 0.930 . S
C380 N377 1.279 . S
C380 C379 1.358 . S
C380 H383 0.930 . S
C381 C378 1.348 . S
C381 C379 1.356 . S
H382 C376 0.930 . S
H383 C380 0.930 . S
C384 C386 1.348 . S
C384 C387 1.356 . S
C384 O414 1.325 . S
N385 C388 1.314 . S
N385 C389 1.279 . S
C386 C384 1.348 . S
C386 C388 1.353 . S
C386 H428 0.929 . S
C387 C384 1.356 . S
C387 C389 1.358 . S
C387 H429 0.930 . S
C388 N385 1.314 . S
C388 C386 1.353 . S
C388 H430 0.930 . S
C389 N385 1.279 . S
C389 C387 1.358 . S
C389 H431 0.930 . S
C390 C391 1.348 . S
C390 C392 1.356 . S
C390 O415 1.325 . S
C391 C390 1.348 . S
C391 C393 1.353 . S
C391 H432 0.929 . S
C392 C390 1.356 . S
C392 C394 1.358 . S
C392 H433 0.930 . S
C393 C391 1.353 . S
C393 N395 1.314 . S
C393 H434 0.930 . S
C394 C392 1.358 . S
C394 N395 1.279 . S
C394 H435 0.930 . S
N395 C393 1.314 . S
N395 C394 1.279 . S
C396 C398 1.353 . S
C396 N399 1.314 . S
C396 H402 0.930 . S
C397 N399 1.279 . S
C397 C400 1.358 . S
C397 H403 0.930 . S
C398 C396 1.353 . S
C398 C401 1.348 . S
C398 H436 0.929 . S
N399 Li354 1.990 . S
N399 C396 1.314 . S
N399 C397 1.279 . S
C400 C397 1.358 . S
C400 C401 1.356 . S
C400 H437 0.930 . S
C401 C398 1.348 . S
C401 C400 1.356 . S
H402 C396 0.930 . S
H403 C397 0.930 . S
C404 N405 1.314 . S
C404 C406 1.353 . S
C404 H410 0.930 . S
N405 Li355 1.990 . S
N405 C404 1.314 . S
N405 C408 1.279 . S
C406 C404 1.353 . S
C406 C409 1.348 . S
C406 H438 0.929 . S
C407 C408 1.358 . S
C407 C409 1.356 . S
C407 H439 0.930 . S
C408 N405 1.279 . S
C408 C407 1.358 . S
C408 H411 0.930 . S
C409 C406 1.348 . S
C409 C407 1.356 . S
H410 C404 0.930 . S
H411 C408 0.930 . S
O412 Li352 1.956 . S
O412 Li353 1.970 . S
O412 Li354 1.961 . S
O412 C356 1.325 . S
O413 Li352 1.970 . S
O413 Li353 1.956 . S
O413 Li355 1.961 . S
O413 C362 1.325 . S
O414 Li352 1.961 . S
O414 Li354 1.956 . S
O414 Li355 1.970 . S
O414 C384 1.325 . S
O415 Li353 1.961 . S
O415 Li354 1.970 . S
O415 Li355 1.956 . S
O415 C390 1.325 . S
H416 C358 0.929 . S
H417 C359 0.930 . S
H418 C360 0.930 . S
H419 C361 0.930 . S
H420 C363 0.930 . S
H421 C365 0.929 . S
H422 C366 0.930 . S
H423 C367 0.930 . S
H424 C370 0.930 . S
H425 C373 0.929 . S
H426 C378 0.929 . S
H427 C379 0.930 . S
H428 C386 0.929 . S
H429 C387 0.930 . S
H430 C388 0.930 . S
H431 C389 0.930 . S
H432 C391 0.929 . S
H433 C392 0.930 . S
H434 C393 0.930 . S
H435 C394 0.930 . S
H436 C398 0.929 . S
H437 C400 0.930 . S
H438 C406 0.929 . S
H439 C407 0.930 . S
Li440 N457 1.990 . S
Li440 O500 1.956 . S
Li440 O501 1.970 . S
Li440 O502 1.961 . S
Li441 N465 1.990 . S
Li441 O500 1.970 . S
Li441 O501 1.956 . S
Li441 O503 1.961 . S
Li442 N487 1.990 . S
Li442 O500 1.961 . S
Li442 O502 1.956 . S
Li442 O503 1.970 . S
Li443 N493 1.990 . S
Li443 O501 1.961 . S
Li443 O502 1.970 . S
Li443 O503 1.956 . S
C444 C446 1.348 . S
C444 C447 1.356 . S
C444 O500 1.325 . S
N445 C448 1.314 . S
N445 C449 1.279 . S
C446 C444 1.348 . S
C446 C448 1.353 . S
C446 H504 0.929 . S
C447 C444 1.356 . S
C447 C449 1.358 . S
C447 H505 0.930 . S
C448 N445 1.314 . S
C448 C446 1.353 . S
C448 H506 0.930 . S
C449 N445 1.279 . S
C449 C447 1.358 . S
C449 H507 0.930 . S
C450 C453 1.348 . S
C450 C454 1.356 . S
C450 O501 1.325 . S
C451 N452 1.279 . S
C451 C454 1.358 . S
C451 H508 0.930 . S
N452 C451 1.279 . S
N452 C455 1.314 . S
C453 C450 1.348 . S
C453 C455 1.353 . S
C453 H509 0.929 . S
C454 C450 1.356 . S
C454 C451 1.358 . S
C454 H510 0.930 . S
C455 N452 1.314 . S
C455 C453 1.353 . S
C455 H511 0.930 . S
C456 N457 1.314 . S
C456 C461 1.353 . S
C456 H462 0.930 . S
N457 Li440 1.990 . S
N457 C456 1.314 . S
N457 C459 1.279 . S
C458 C459 1.358 . S
C458 C460 1.356 . S
C458 H512 0.930 . S
C459 N457 1.279 . S
C459 C458 1.358 . S
C459 H463 0.930 . S
C460 C458 1.356 . S
C460 C461 1.348 . S
C461 C456 1.353 . S
C461 C460 1.348 . S
C461 H513 0.929 . S
H462 C456 0.930 . S
H463 C459 0.930 . S
C464 N465 1.314 . S
C464 C466 1.353 . S
C464 H470 0.930 . S
N465 Li441 1.990 . S
N465 C464 1.314 . S
N465 C468 1.279 . S
C466 C464 1.353 . S
C466 C469 1.348 . S
C466 H514 0.929 . S
C467 C468 1.358 . S
C467 C469 1.356 . S
C467 H515 0.930 . S
C468 N465 1.279 . S
C468 C467 1.358 . S
C468 H471 0.930 . S
C469 C466 1.348 . S
C469 C467 1.356 . S
H470 C464 0.930 . S
H471 C468 0.930 . S
C472 C474 1.348 . S
C472 C475 1.356 . S
C472 O502 1.325 . S
N473 C476 1.314 . S
N473 C477 1.279 . S
C474 C472 1.348 . S
C474 C476 1.353 1_554 S
C474 H516 0.929 . S
C475 C472 1.356 . S
C475 C477 1.358 1_554 S
C475 H517 0.930 . S
C476 N473 1.314 . S
C476 C474 1.353 1_556 S
C476 H518 0.930 . S
C477 N473 1.279 . S
C477 C475 1.358 1_556 S
C477 H519 0.930 . S
C478 C479 1.348 . S
C478 C480 1.356 . S
C478 O503 1.325 . S
C479 C478 1.348 . S
C479 C481 1.353 . S
C479 H520 0.929 . S
C480 C478 1.356 . S
C480 C482 1.358 . S
C480 H521 0.930 . S
C481 C479 1.353 . S
C481 N483 1.314 . S
C481 H522 0.930 . S
C482 C480 1.358 . S
C482 N483 1.279 . S
C482 H523 0.930 . S
N483 C481 1.314 . S
N483 C482 1.279 . S
C484 C486 1.353 . S
C484 N487 1.314 . S
C484 H490 0.930 . S
C485 N487 1.279 1_556 S
C485 C488 1.358 . S
C485 H491 0.930 . S
C486 C484 1.353 . S
C486 C489 1.348 1_554 S
C486 H524 0.929 . S
N487 Li442 1.990 . S
N487 C484 1.314 . S
N487 C485 1.279 1_554 S
C488 C485 1.358 . S
C488 C489 1.356 . S
C488 H525 0.930 . S
C489 C486 1.348 1_556 S
C489 C488 1.356 . S
H490 C484 0.930 . S
H491 C485 0.930 . S
C492 N493 1.314 . S
C492 C494 1.353 . S
C492 H498 0.930 . S
N493 Li443 1.990 . S
N493 C492 1.314 . S
N493 C496 1.279 . S
C494 C492 1.353 . S
C494 C497 1.348 . S
C494 H526 0.929 . S
C495 C496 1.358 . S
C495 C497 1.356 . S
C495 H527 0.930 . S
C496 N493 1.279 . S
C496 C495 1.358 . S
C496 H499 0.930 . S
C497 C494 1.348 . S
C497 C495 1.356 . S
H498 C492 0.930 . S
H499 C496 0.930 . S
O500 Li440 1.956 . S
O500 Li441 1.970 . S
O500 Li442 1.961 . S
O500 C444 1.325 . S
O501 Li440 1.970 . S
O501 Li441 1.956 . S
O501 Li443 1.961 . S
O501 C450 1.325 . S
O502 Li440 1.961 . S
O502 Li442 1.956 . S
O502 Li443 1.970 . S
O502 C472 1.325 . S
O503 Li441 1.961 . S
O503 Li442 1.970 . S
O503 Li443 1.956 . S
O503 C478 1.325 . S
H504 C446 0.929 . S
H505 C447 0.930 . S
H506 C448 0.930 . S
H507 C449 0.930 . S
H508 C451 0.930 . S
H509 C453 0.929 . S
H510 C454 0.930 . S
H511 C455 0.930 . S
H512 C458 0.930 . S
H513 C461 0.929 . S
H514 C466 0.929 . S
H515 C467 0.930 . S
H516 C474 0.929 . S
H517 C475 0.930 . S
H518 C476 0.930 . S
H519 C477 0.930 . S
H520 C479 0.929 . S
H521 C480 0.930 . S
H522 C481 0.930 . S
H523 C482 0.930 . S
H524 C486 0.929 . S
H525 C488 0.930 . S
H526 C494 0.929 . S
H527 C495 0.930 . S
Li528 N545 1.990 . S
Li528 O588 1.956 . S
Li528 O589 1.970 . S
Li528 O590 1.961 . S
Li529 N553 1.990 . S
Li529 O588 1.970 . S
Li529 O589 1.956 . S
Li529 O591 1.961 . S
Li530 N575 1.990 . S
Li530 O588 1.961 . S
Li530 O590 1.956 . S
Li530 O591 1.970 . S
Li531 N581 1.990 . S
Li531 O589 1.961 . S
Li531 O590 1.970 . S
Li531 O591 1.956 . S
C532 C534 1.348 . S
C532 C535 1.356 . S
C532 O588 1.325 . S
N533 C536 1.314 . S
N533 C537 1.279 . S
C534 C532 1.348 . S
C534 C536 1.353 . S
C534 H592 0.929 . S
C535 C532 1.356 . S
C535 C537 1.358 . S
C535 H593 0.930 . S
C536 N533 1.314 . S
C536 C534 1.353 . S
C536 H594 0.930 . S
C537 N533 1.279 . S
C537 C535 1.358 . S
C537 H595 0.930 . S
C538 C541 1.348 . S
C538 C542 1.356 . S
C538 O589 1.325 . S
C539 N540 1.279 . S
C539 C542 1.358 . S
C539 H596 0.930 . S
N540 C539 1.279 . S
N540 C543 1.314 . S
C541 C538 1.348 . S
C541 C543 1.353 . S
C541 H597 0.929 . S
C542 C538 1.356 . S
C542 C539 1.358 . S
C542 H598 0.930 . S
C543 N540 1.314 . S
C543 C541 1.353 . S
C543 H599 0.930 . S
C544 N545 1.314 . S
C544 C549 1.353 . S
C544 H550 0.930 . S
N545 Li528 1.990 . S
N545 C544 1.314 . S
N545 C547 1.279 . S
C546 C547 1.358 . S
C546 C548 1.356 . S
C546 H600 0.930 . S
C547 N545 1.279 . S
C547 C546 1.358 . S
C547 H551 0.930 . S
C548 C546 1.356 . S
C548 C549 1.348 . S
C549 C544 1.353 . S
C549 C548 1.348 . S
C549 H601 0.929 . S
H550 C544 0.930 . S
H551 C547 0.930 . S
C552 N553 1.314 . S
C552 C554 1.353 . S
C552 H558 0.930 . S
N553 Li529 1.990 . S
N553 C552 1.314 . S
N553 C556 1.279 . S
C554 C552 1.353 . S
C554 C557 1.348 . S
C554 H602 0.929 . S
C555 C556 1.358 . S
C555 C557 1.356 . S
C555 H603 0.930 . S
C556 N553 1.279 . S
C556 C555 1.358 . S
C556 H559 0.930 . S
C557 C554 1.348 . S
C557 C555 1.356 . S
H558 C552 0.930 . S
H559 C556 0.930 . S
C560 C562 1.348 . S
C560 C563 1.356 . S
C560 O590 1.325 . S
N561 C564 1.314 . S
N561 C565 1.279 . S
C562 C560 1.348 . S
C562 C564 1.353 . S
C562 H604 0.929 . S
C563 C560 1.356 . S
C563 C565 1.358 . S
C563 H605 0.930 . S
C564 N561 1.314 . S
C564 C562 1.353 . S
C564 H606 0.930 . S
C565 N561 1.279 . S
C565 C563 1.358 . S
C565 H607 0.930 . S
C566 C567 1.348 . S
C566 C568 1.356 . S
C566 O591 1.325 . S
C567 C566 1.348 . S
C567 C569 1.353 . S
C567 H608 0.929 . S
C568 C566 1.356 . S
C568 C570 1.358 . S
C568 H609 0.930 . S
C569 C567 1.353 . S
C569 N571 1.314 . S
C569 H610 0.930 . S
C570 C568 1.358 . S
C570 N571 1.279 . S
C570 H611 0.930 . S
N571 C569 1.314 . S
N571 C570 1.279 . S
C572 C574 1.353 . S
C572 N575 1.314 . S
C572 H578 0.930 . S
C573 N575 1.279 . S
C573 C576 1.358 . S
C573 H579 0.930 . S
C574 C572 1.353 . S
C574 C577 1.348 . S
C574 H612 0.929 . S
N575 Li530 1.990 . S
N575 C572 1.314 . S
N575 C573 1.279 . S
C576 C573 1.358 . S
C576 C577 1.356 . S
C576 H613 0.930 . S
C577 C574 1.348 . S
C577 C576 1.356 . S
H578 C572 0.930 . S
H579 C573 0.930 . S
C580 N581 1.314 . S
C580 C582 1.353 . S
C580 H586 0.930 . S
N581 Li531 1.990 . S
N581 C580 1.314 . S
N581 C584 1.279 . S
C582 C580 1.353 . S
C582 C585 1.348 . S
C582 H614 0.929 . S
C583 C584 1.358 . S
C583 C585 1.356 . S
C583 H615 0.930 . S
C584 N581 1.279 . S
C584 C583 1.358 . S
C584 H587 0.930 . S
C585 C582 1.348 . S
C585 C583 1.356 . S
H586 C580 0.930 . S
H587 C584 0.930 . S
O588 Li528 1.956 . S
O588 Li529 1.970 . S
O588 Li530 1.961 . S
O588 C532 1.325 . S
O589 Li528 1.970 . S
O589 Li529 1.956 . S
O589 Li531 1.961 . S
O589 C538 1.325 . S
O590 Li528 1.961 . S
O590 Li530 1.956 . S
O590 Li531 1.970 . S
O590 C560 1.325 . S
O591 Li529 1.961 . S
O591 Li530 1.970 . S
O591 Li531 1.956 . S
O591 C566 1.325 . S
H592 C534 0.929 . S
H593 C535 0.930 . S
H594 C536 0.930 . S
H595 C537 0.930 . S
H596 C539 0.930 . S
H597 C541 0.929 . S
H598 C542 0.930 . S
H599 C543 0.930 . S
H600 C546 0.930 . S
H601 C549 0.929 . S
H602 C554 0.929 . S
H603 C555 0.930 . S
H604 C562 0.929 . S
H605 C563 0.930 . S
H606 C564 0.930 . S
H607 C565 0.930 . S
H608 C567 0.929 . S
H609 C568 0.930 . S
H610 C569 0.930 . S
H611 C570 0.930 . S
H612 C574 0.929 . S
H613 C576 0.930 . S
H614 C582 0.929 . S
H615 C583 0.930 . S
Li616 N633 1.990 . S
Li616 O676 1.956 . S
Li616 O677 1.970 . S
Li616 O678 1.961 . S
Li617 N641 1.990 . S
Li617 O676 1.970 . S
Li617 O677 1.956 . S
Li617 O679 1.961 . S
Li618 N663 1.990 . S
Li618 O676 1.961 . S
Li618 O678 1.956 . S
Li618 O679 1.970 . S
Li619 N669 1.990 . S
Li619 O677 1.961 . S
Li619 O678 1.970 . S
Li619 O679 1.956 . S
C620 C622 1.348 . S
C620 C623 1.356 . S
C620 O676 1.325 . S
N621 C624 1.314 . S
N621 C625 1.279 . S
C622 C620 1.348 . S
C622 C624 1.353 . S
C622 H680 0.929 . S
C623 C620 1.356 . S
C623 C625 1.358 . S
C623 H681 0.930 . S
C624 N621 1.314 . S
C624 C622 1.353 . S
C624 H682 0.930 . S
C625 N621 1.279 . S
C625 C623 1.358 . S
C625 H683 0.930 . S
C626 C629 1.348 . S
C626 C630 1.356 . S
C626 O677 1.325 . S
C627 N628 1.279 . S
C627 C630 1.358 . S
C627 H684 0.930 . S
N628 C627 1.279 . S
N628 C631 1.314 . S
C629 C626 1.348 . S
C629 C631 1.353 . S
C629 H685 0.929 . S
C630 C626 1.356 . S
C630 C627 1.358 . S
C630 H686 0.930 . S
C631 N628 1.314 . S
C631 C629 1.353 . S
C631 H687 0.930 . S
C632 N633 1.314 . S
C632 C637 1.353 . S
C632 H638 0.930 . S
N633 Li616 1.990 . S
N633 C632 1.314 . S
N633 C635 1.279 . S
C634 C635 1.358 . S
C634 C636 1.356 . S
C634 H688 0.930 . S
C635 N633 1.279 . S
C635 C634 1.358 . S
C635 H639 0.930 . S
C636 C634 1.356 . S
C636 C637 1.348 . S
C637 C632 1.353 . S
C637 C636 1.348 . S
C637 H689 0.929 . S
H638 C632 0.930 . S
H639 C635 0.930 . S
C640 N641 1.314 . S
C640 C642 1.353 . S
C640 H646 0.930 . S
N641 Li617 1.990 . S
N641 C640 1.314 . S
N641 C644 1.279 . S
C642 C640 1.353 . S
C642 C645 1.348 . S
C642 H690 0.929 . S
C643 C644 1.358 . S
C643 C645 1.356 . S
C643 H691 0.930 . S
C644 N641 1.279 . S
C644 C643 1.358 . S
C644 H647 0.930 . S
C645 C642 1.348 . S
C645 C643 1.356 . S
H646 C640 0.930 . S
H647 C644 0.930 . S
C648 C650 1.348 . S
C648 C651 1.356 . S
C648 O678 1.325 . S
N649 C652 1.314 . S
N649 C653 1.279 . S
C650 C648 1.348 . S
C650 C652 1.353 . S
C650 H692 0.929 . S
C651 C648 1.356 . S
C651 C653 1.358 . S
C651 H693 0.930 . S
C652 N649 1.314 . S
C652 C650 1.353 . S
C652 H694 0.930 . S
C653 N649 1.279 . S
C653 C651 1.358 . S
C653 H695 0.930 . S
C654 C655 1.348 . S
C654 C656 1.356 . S
C654 O679 1.325 . S
C655 C654 1.348 . S
C655 C657 1.353 . S
C655 H696 0.929 . S
C656 C654 1.356 . S
C656 C658 1.358 . S
C656 H697 0.930 . S
C657 C655 1.353 . S
C657 N659 1.314 . S
C657 H698 0.930 . S
C658 C656 1.358 . S
C658 N659 1.279 . S
C658 H699 0.930 . S
N659 C657 1.314 . S
N659 C658 1.279 . S
C660 C662 1.353 . S
C660 N663 1.314 . S
C660 H666 0.930 . S
C661 N663 1.279 . S
C661 C664 1.358 . S
C661 H667 0.930 . S
C662 C660 1.353 . S
C662 C665 1.348 . S
C662 H700 0.929 . S
N663 Li618 1.990 . S
N663 C660 1.314 . S
N663 C661 1.279 . S
C664 C661 1.358 . S
C664 C665 1.356 . S
C664 H701 0.930 . S
C665 C662 1.348 . S
C665 C664 1.356 . S
H666 C660 0.930 . S
H667 C661 0.930 . S
C668 N669 1.314 . S
C668 C670 1.353 . S
C668 H674 0.930 . S
N669 Li619 1.990 . S
N669 C668 1.314 . S
N669 C672 1.279 . S
C670 C668 1.353 . S
C670 C673 1.348 . S
C670 H702 0.929 . S
C671 C672 1.358 . S
C671 C673 1.356 . S
C671 H703 0.930 . S
C672 N669 1.279 . S
C672 C671 1.358 . S
C672 H675 0.930 . S
C673 C670 1.348 . S
C673 C671 1.356 . S
H674 C668 0.930 . S
H675 C672 0.930 . S
O676 Li616 1.956 . S
O676 Li617 1.970 . S
O676 Li618 1.961 . S
O676 C620 1.325 . S
O677 Li616 1.970 . S
O677 Li617 1.956 . S
O677 Li619 1.961 . S
O677 C626 1.325 . S
O678 Li616 1.961 . S
O678 Li618 1.956 . S
O678 Li619 1.970 . S
O678 C648 1.325 . S
O679 Li617 1.961 . S
O679 Li618 1.970 . S
O679 Li619 1.956 . S
O679 C654 1.325 . S
H680 C622 0.929 . S
H681 C623 0.930 . S
H682 C624 0.930 . S
H683 C625 0.930 . S
H684 C627 0.930 . S
H685 C629 0.929 . S
H686 C630 0.930 . S
H687 C631 0.930 . S
H688 C634 0.930 . S
H689 C637 0.929 . S
H690 C642 0.929 . S
H691 C643 0.930 . S
H692 C650 0.929 . S
H693 C651 0.930 . S
H694 C652 0.930 . S
H695 C653 0.930 . S
H696 C655 0.929 . S
H697 C656 0.930 . S
H698 C657 0.930 . S
H699 C658 0.930 . S
H700 C662 0.929 . S
H701 C664 0.930 . S
H702 C670 0.929 . S
H703 C671 0.930 . S
Li704 N721 1.990 . S
Li704 O764 1.956 . S
Li704 O765 1.970 . S
Li704 O766 1.961 . S
Li705 N729 1.990 . S
Li705 O764 1.970 . S
Li705 O765 1.956 . S
Li705 O767 1.961 . S
Li706 N751 1.990 . S
Li706 O764 1.961 . S
Li706 O766 1.956 . S
Li706 O767 1.970 . S
Li707 N757 1.990 . S
Li707 O765 1.961 . S
Li707 O766 1.970 . S
Li707 O767 1.956 . S
C708 C710 1.348 . S
C708 C711 1.356 . S
C708 O764 1.325 . S
N709 C712 1.314 . S
N709 C713 1.279 . S
C710 C708 1.348 . S
C710 C712 1.353 . S
C710 H768 0.929 . S
C711 C708 1.356 . S
C711 C713 1.358 . S
C711 H769 0.930 . S
C712 N709 1.314 . S
C712 C710 1.353 . S
C712 H770 0.930 . S
C713 N709 1.279 . S
C713 C711 1.358 . S
C713 H771 0.930 . S
C714 C717 1.348 . S
C714 C718 1.356 . S
C714 O765 1.325 . S
C715 N716 1.279 . S
C715 C718 1.358 . S
C715 H772 0.930 . S
N716 C715 1.279 . S
N716 C719 1.314 . S
C717 C714 1.348 . S
C717 C719 1.353 . S
C717 H773 0.929 . S
C718 C714 1.356 . S
C718 C715 1.358 . S
C718 H774 0.930 . S
C719 N716 1.314 . S
C719 C717 1.353 . S
C719 H775 0.930 . S
C720 N721 1.314 . S
C720 C725 1.353 . S
C720 H726 0.930 . S
N721 Li704 1.990 . S
N721 C720 1.314 . S
N721 C723 1.279 . S
C722 C723 1.358 . S
C722 C724 1.356 . S
C722 H776 0.930 . S
C723 N721 1.279 . S
C723 C722 1.358 . S
C723 H727 0.930 . S
C724 C722 1.356 . S
C724 C725 1.348 . S
C725 C720 1.353 . S
C725 C724 1.348 . S
C725 H777 0.929 . S
H726 C720 0.930 . S
H727 C723 0.930 . S
C728 N729 1.314 . S
C728 C730 1.353 1_556 S
C728 H734 0.930 . S
N729 Li705 1.990 . S
N729 C728 1.314 . S
N729 C732 1.279 . S
C730 C728 1.353 1_554 S
C730 C733 1.348 . S
C730 H778 0.929 . S
C731 C732 1.358 . S
C731 C733 1.356 1_556 S
C731 H779 0.930 . S
C732 N729 1.279 . S
C732 C731 1.358 . S
C732 H735 0.930 . S
C733 C730 1.348 . S
C733 C731 1.356 1_554 S
H734 C728 0.930 . S
H735 C732 0.930 . S
C736 C738 1.348 . S
C736 C739 1.356 . S
C736 O766 1.325 . S
N737 C740 1.314 . S
N737 C741 1.279 . S
C738 C736 1.348 . S
C738 C740 1.353 . S
C738 H780 0.929 . S
C739 C736 1.356 . S
C739 C741 1.358 . S
C739 H781 0.930 . S
C740 N737 1.314 . S
C740 C738 1.353 . S
C740 H782 0.930 . S
C741 N737 1.279 . S
C741 C739 1.358 . S
C741 H783 0.930 . S
C742 C743 1.348 . S
C742 C744 1.356 . S
C742 O767 1.325 . S
C743 C742 1.348 . S
C743 C745 1.353 . S
C743 H784 0.929 . S
C744 C742 1.356 . S
C744 C746 1.358 . S
C744 H785 0.930 . S
C745 C743 1.353 . S
C745 N747 1.314 . S
C745 H786 0.930 . S
C746 C744 1.358 . S
C746 N747 1.279 . S
C746 H787 0.930 . S
N747 C745 1.314 . S
N747 C746 1.279 . S
C748 C750 1.353 . S
C748 N751 1.314 . S
C748 H754 0.930 . S
C749 N751 1.279 . S
C749 C752 1.358 . S
C749 H755 0.930 . S
C750 C748 1.353 . S
C750 C753 1.348 . S
C750 H788 0.929 . S
N751 Li706 1.990 . S
N751 C748 1.314 . S
N751 C749 1.279 . S
C752 C749 1.358 . S
C752 C753 1.356 . S
C752 H789 0.930 . S
C753 C750 1.348 . S
C753 C752 1.356 . S
H754 C748 0.930 . S
H755 C749 0.930 . S
C756 N757 1.314 . S
C756 C758 1.353 . S
C756 H762 0.930 . S
N757 Li707 1.990 . S
N757 C756 1.314 . S
N757 C760 1.279 . S
C758 C756 1.353 . S
C758 C761 1.348 . S
C758 H790 0.929 . S
C759 C760 1.358 . S
C759 C761 1.356 . S
C759 H791 0.930 . S
C760 N757 1.279 . S
C760 C759 1.358 . S
C760 H763 0.930 . S
C761 C758 1.348 . S
C761 C759 1.356 . S
H762 C756 0.930 . S
H763 C760 0.930 . S
O764 Li704 1.956 . S
O764 Li705 1.970 . S
O764 Li706 1.961 . S
O764 C708 1.325 . S
O765 Li704 1.970 . S
O765 Li705 1.956 . S
O765 Li707 1.961 . S
O765 C714 1.325 . S
O766 Li704 1.961 . S
O766 Li706 1.956 . S
O766 Li707 1.970 . S
O766 C736 1.325 . S
O767 Li705 1.961 . S
O767 Li706 1.970 . S
O767 Li707 1.956 . S
O767 C742 1.325 . S
H768 C710 0.929 . S
H769 C711 0.930 . S
H770 C712 0.930 . S
H771 C713 0.930 . S
H772 C715 0.930 . S
H773 C717 0.929 . S
H774 C718 0.930 . S
H775 C719 0.930 . S
H776 C722 0.930 . S
H777 C725 0.929 . S
H778 C730 0.929 . S
H779 C731 0.930 . S
H780 C738 0.929 . S
H781 C739 0.930 . S
H782 C740 0.930 . S
H783 C741 0.930 . S
H784 C743 0.929 . S
H785 C744 0.930 . S
H786 C745 0.930 . S
H787 C746 0.930 . S
H788 C750 0.929 . S
H789 C752 0.930 . S
H790 C758 0.929 . S
H791 C759 0.930 . S
Li792 N809 1.990 . S
Li792 O852 1.956 . S
Li792 O853 1.970 . S
Li792 O854 1.961 . S
Li793 N817 1.990 . S
Li793 O852 1.970 . S
Li793 O853 1.956 . S
Li793 O855 1.961 . S
Li794 N839 1.990 . S
Li794 O852 1.961 . S
Li794 O854 1.956 . S
Li794 O855 1.970 . S
Li795 N845 1.990 . S
Li795 O853 1.961 . S
Li795 O854 1.970 . S
Li795 O855 1.956 . S
C796 C798 1.348 . S
C796 C799 1.356 . S
C796 O852 1.325 . S
N797 C800 1.314 . S
N797 C801 1.279 . S
C798 C796 1.348 . S
C798 C800 1.353 . S
C798 H856 0.929 . S
C799 C796 1.356 . S
C799 C801 1.358 . S
C799 H857 0.930 . S
C800 N797 1.314 . S
C800 C798 1.353 . S
C800 H858 0.930 . S
C801 N797 1.279 . S
C801 C799 1.358 . S
C801 H859 0.930 . S
C802 C805 1.348 . S
C802 C806 1.356 . S
C802 O853 1.325 . S
C803 N804 1.279 . S
C803 C806 1.358 . S
C803 H860 0.930 . S
N804 C803 1.279 . S
N804 C807 1.314 . S
C805 C802 1.348 . S
C805 C807 1.353 . S
C805 H861 0.929 . S
C806 C802 1.356 . S
C806 C803 1.358 . S
C806 H862 0.930 . S
C807 N804 1.314 . S
C807 C805 1.353 . S
C807 H863 0.930 . S
C808 N809 1.314 . S
C808 C813 1.353 . S
C808 H814 0.930 . S
N809 Li792 1.990 . S
N809 C808 1.314 . S
N809 C811 1.279 . S
C810 C811 1.358 . S
C810 C812 1.356 . S
C810 H864 0.930 . S
C811 N809 1.279 . S
C811 C810 1.358 . S
C811 H815 0.930 . S
C812 C810 1.356 . S
C812 C813 1.348 . S
C813 C808 1.353 . S
C813 C812 1.348 . S
C813 H865 0.929 . S
H814 C808 0.930 . S
H815 C811 0.930 . S
C816 N817 1.314 . S
C816 C818 1.353 . S
C816 H822 0.930 . S
N817 Li793 1.990 . S
N817 C816 1.314 . S
N817 C820 1.279 . S
C818 C816 1.353 . S
C818 C821 1.348 . S
C818 H866 0.929 . S
C819 C820 1.358 . S
C819 C821 1.356 . S
C819 H867 0.930 . S
C820 N817 1.279 . S
C820 C819 1.358 . S
C820 H823 0.930 . S
C821 C818 1.348 . S
C821 C819 1.356 . S
H822 C816 0.930 . S
H823 C820 0.930 . S
C824 C826 1.348 . S
C824 C827 1.356 . S
C824 O854 1.325 . S
N825 C828 1.314 . S
N825 C829 1.279 . S
C826 C824 1.348 . S
C826 C828 1.353 . S
C826 H868 0.929 . S
C827 C824 1.356 . S
C827 C829 1.358 . S
C827 H869 0.930 . S
C828 N825 1.314 . S
C828 C826 1.353 . S
C828 H870 0.930 . S
C829 N825 1.279 . S
C829 C827 1.358 . S
C829 H871 0.930 . S
C830 C831 1.348 . S
C830 C832 1.356 . S
C830 O855 1.325 . S
C831 C830 1.348 . S
C831 C833 1.353 . S
C831 H872 0.929 . S
C832 C830 1.356 . S
C832 C834 1.358 . S
C832 H873 0.930 . S
C833 C831 1.353 . S
C833 N835 1.314 . S
C833 H874 0.930 . S
C834 C832 1.358 . S
C834 N835 1.279 . S
C834 H875 0.930 . S
N835 C833 1.314 . S
N835 C834 1.279 . S
C836 C838 1.353 . S
C836 N839 1.314 . S
C836 H842 0.930 . S
C837 N839 1.279 . S
C837 C840 1.358 . S
C837 H843 0.930 . S
C838 C836 1.353 . S
C838 C841 1.348 . S
C838 H876 0.929 . S
N839 Li794 1.990 . S
N839 C836 1.314 . S
N839 C837 1.279 . S
C840 C837 1.358 . S
C840 C841 1.356 . S
C840 H877 0.930 . S
C841 C838 1.348 . S
C841 C840 1.356 . S
H842 C836 0.930 . S
H843 C837 0.930 . S
C844 N845 1.314 . S
C844 C846 1.353 . S
C844 H850 0.930 . S
N845 Li795 1.990 . S
N845 C844 1.314 . S
N845 C848 1.279 . S
C846 C844 1.353 . S
C846 C849 1.348 . S
C846 H878 0.929 . S
C847 C848 1.358 . S
C847 C849 1.356 . S
C847 H879 0.930 . S
C848 N845 1.279 . S
C848 C847 1.358 . S
C848 H851 0.930 . S
C849 C846 1.348 . S
C849 C847 1.356 . S
H850 C844 0.930 . S
H851 C848 0.930 . S
O852 Li792 1.956 . S
O852 Li793 1.970 . S
O852 Li794 1.961 . S
O852 C796 1.325 . S
O853 Li792 1.970 . S
O853 Li793 1.956 . S
O853 Li795 1.961 . S
O853 C802 1.325 . S
O854 Li792 1.961 . S
O854 Li794 1.956 . S
O854 Li795 1.970 . S
O854 C824 1.325 . S
O855 Li793 1.961 . S
O855 Li794 1.970 . S
O855 Li795 1.956 . S
O855 C830 1.325 . S
H856 C798 0.929 . S
H857 C799 0.930 . S
H858 C800 0.930 . S
H859 C801 0.930 . S
H860 C803 0.930 . S
H861 C805 0.929 . S
H862 C806 0.930 . S
H863 C807 0.930 . S
H864 C810 0.930 . S
H865 C813 0.929 . S
H866 C818 0.929 . S
H867 C819 0.930 . S
H868 C826 0.929 . S
H869 C827 0.930 . S
H870 C828 0.930 . S
H871 C829 0.930 . S
H872 C831 0.929 . S
H873 C832 0.930 . S
H874 C833 0.930 . S
H875 C834 0.930 . S
H876 C838 0.929 . S
H877 C840 0.930 . S
H878 C846 0.929 . S
H879 C847 0.930 . S
Li880 N897 1.990 . S
Li880 O940 1.956 . S
Li880 O941 1.970 . S
Li880 O942 1.961 . S
Li881 N905 1.990 . S
Li881 O940 1.970 . S
Li881 O941 1.956 . S
Li881 O943 1.961 . S
Li882 N927 1.990 . S
Li882 O940 1.961 . S
Li882 O942 1.956 . S
Li882 O943 1.970 . S
Li883 N933 1.990 . S
Li883 O941 1.961 . S
Li883 O942 1.970 . S
Li883 O943 1.956 . S
C884 C886 1.348 . S
C884 C887 1.356 . S
C884 O940 1.325 . S
N885 C888 1.314 . S
N885 C889 1.279 . S
C886 C884 1.348 . S
C886 C888 1.353 . S
C886 H944 0.929 . S
C887 C884 1.356 . S
C887 C889 1.358 . S
C887 H945 0.930 . S
C888 N885 1.314 . S
C888 C886 1.353 . S
C888 H946 0.930 . S
C889 N885 1.279 . S
C889 C887 1.358 . S
C889 H947 0.930 . S
C890 C893 1.348 . S
C890 C894 1.356 . S
C890 O941 1.325 . S
C891 N892 1.279 . S
C891 C894 1.358 . S
C891 H948 0.930 . S
N892 C891 1.279 . S
N892 C895 1.314 . S
C893 C890 1.348 . S
C893 C895 1.353 . S
C893 H949 0.929 . S
C894 C890 1.356 . S
C894 C891 1.358 . S
C894 H950 0.930 . S
C895 N892 1.314 . S
C895 C893 1.353 . S
C895 H951 0.930 . S
C896 N897 1.314 . S
C896 C901 1.353 . S
C896 H902 0.930 . S
N897 Li880 1.990 . S
N897 C896 1.314 . S
N897 C899 1.279 . S
C898 C899 1.358 . S
C898 C900 1.356 . S
C898 H952 0.930 . S
C899 N897 1.279 . S
C899 C898 1.358 . S
C899 H903 0.930 . S
C900 C898 1.356 . S
C900 C901 1.348 . S
C901 C896 1.353 . S
C901 C900 1.348 . S
C901 H953 0.929 . S
H902 C896 0.930 . S
H903 C899 0.930 . S
C904 N905 1.314 . S
C904 C906 1.353 . S
C904 H910 0.930 . S
N905 Li881 1.990 . S
N905 C904 1.314 . S
N905 C908 1.279 . S
C906 C904 1.353 . S
C906 C909 1.348 . S
C906 H954 0.929 . S
C907 C908 1.358 . S
C907 C909 1.356 . S
C907 H955 0.930 . S
C908 N905 1.279 . S
C908 C907 1.358 . S
C908 H911 0.930 . S
C909 C906 1.348 . S
C909 C907 1.356 . S
H910 C904 0.930 . S
H911 C908 0.930 . S
C912 C914 1.348 . S
C912 C915 1.356 . S
C912 O942 1.325 . S
N913 C916 1.314 . S
N913 C917 1.279 . S
C914 C912 1.348 . S
C914 C916 1.353 . S
C914 H956 0.929 . S
C915 C912 1.356 . S
C915 C917 1.358 . S
C915 H957 0.930 . S
C916 N913 1.314 . S
C916 C914 1.353 . S
C916 H958 0.930 . S
C917 N913 1.279 . S
C917 C915 1.358 . S
C917 H959 0.930 . S
C918 C919 1.348 . S
C918 C920 1.356 . S
C918 O943 1.325 . S
C919 C918 1.348 . S
C919 C921 1.353 . S
C919 H960 0.929 . S
C920 C918 1.356 . S
C920 C922 1.358 . S
C920 H961 0.930 . S
C921 C919 1.353 . S
C921 N923 1.314 . S
C921 H962 0.930 . S
C922 C920 1.358 . S
C922 N923 1.279 . S
C922 H963 0.930 . S
N923 C921 1.314 . S
N923 C922 1.279 . S
C924 C926 1.353 . S
C924 N927 1.314 . S
C924 H930 0.930 . S
C925 N927 1.279 . S
C925 C928 1.358 . S
C925 H931 0.930 . S
C926 C924 1.353 . S
C926 C929 1.348 . S
C926 H964 0.929 . S
N927 Li882 1.990 . S
N927 C924 1.314 . S
N927 C925 1.279 . S
C928 C925 1.358 . S
C928 C929 1.356 . S
C928 H965 0.930 . S
C929 C926 1.348 . S
C929 C928 1.356 . S
H930 C924 0.930 . S
H931 C925 0.930 . S
C932 N933 1.314 . S
C932 C934 1.353 . S
C932 H938 0.930 . S
N933 Li883 1.990 . S
N933 C932 1.314 . S
N933 C936 1.279 . S
C934 C932 1.353 . S
C934 C937 1.348 . S
C934 H966 0.929 . S
C935 C936 1.358 . S
C935 C937 1.356 . S
C935 H967 0.930 . S
C936 N933 1.279 . S
C936 C935 1.358 . S
C936 H939 0.930 . S
C937 C934 1.348 . S
C937 C935 1.356 . S
H938 C932 0.930 . S
H939 C936 0.930 . S
O940 Li880 1.956 . S
O940 Li881 1.970 . S
O940 Li882 1.961 . S
O940 C884 1.325 . S
O941 Li880 1.970 . S
O941 Li881 1.956 . S
O941 Li883 1.961 . S
O941 C890 1.325 . S
O942 Li880 1.961 . S
O942 Li882 1.956 . S
O942 Li883 1.970 . S
O942 C912 1.325 . S
O943 Li881 1.961 . S
O943 Li882 1.970 . S
O943 Li883 1.956 . S
O943 C918 1.325 . S
H944 C886 0.929 . S
H945 C887 0.930 . S
H946 C888 0.930 . S
H947 C889 0.930 . S
H948 C891 0.930 . S
H949 C893 0.929 . S
H950 C894 0.930 . S
H951 C895 0.930 . S
H952 C898 0.930 . S
H953 C901 0.929 . S
H954 C906 0.929 . S
H955 C907 0.930 . S
H956 C914 0.929 . S
H957 C915 0.930 . S
H958 C916 0.930 . S
H959 C917 0.930 . S
H960 C919 0.929 . S
H961 C920 0.930 . S
H962 C921 0.930 . S
H963 C922 0.930 . S
H964 C926 0.929 . S
H965 C928 0.930 . S
H966 C934 0.929 . S
H967 C935 0.930 . S
Li968 N985 1.990 . S
Li968 O1028 1.956 . S
Li968 O1029 1.970 . S
Li968 O1030 1.961 . S
Li969 N993 1.990 . S
Li969 O1028 1.970 . S
Li969 O1029 1.956 . S
Li969 O1031 1.961 . S
Li970 N1015 1.990 . S
Li970 O1028 1.961 . S
Li970 O1030 1.956 . S
Li970 O1031 1.970 . S
Li971 N1021 1.990 . S
Li971 O1029 1.961 . S
Li971 O1030 1.970 . S
Li971 O1031 1.956 . S
C972 C974 1.348 . S
C972 C975 1.356 . S
C972 O1028 1.325 . S
N973 C976 1.314 . S
N973 C977 1.279 . S
C974 C972 1.348 . S
C974 C976 1.353 . S
C974 H1032 0.929 . S
C975 C972 1.356 . S
C975 C977 1.358 . S
C975 H1033 0.930 . S
C976 N973 1.314 . S
C976 C974 1.353 . S
C976 H1034 0.930 . S
C977 N973 1.279 . S
C977 C975 1.358 . S
C977 H1035 0.930 . S
C978 C981 1.348 . S
C978 C982 1.356 . S
C978 O1029 1.325 . S
C979 N980 1.279 . S
C979 C982 1.358 . S
C979 H1036 0.930 . S
N980 C979 1.279 . S
N980 C983 1.314 . S
C981 C978 1.348 . S
C981 C983 1.353 . S
C981 H1037 0.929 . S
C982 C978 1.356 . S
C982 C979 1.358 . S
C982 H1038 0.930 . S
C983 N980 1.314 . S
C983 C981 1.353 . S
C983 H1039 0.930 . S
C984 N985 1.314 1_556 S
C984 C989 1.353 . S
C984 H990 0.930 . S
N985 Li968 1.990 . S
N985 C984 1.314 1_554 S
N985 C987 1.279 . S
C986 C987 1.358 1_556 S
C986 C988 1.356 . S
C986 H1040 0.928 1_556 S
C987 N985 1.279 . S
C987 C986 1.358 1_554 S
C987 H991 0.930 . S
C988 C986 1.356 . S
C988 C989 1.348 . S
C989 C984 1.353 . S
C989 C988 1.348 . S
C989 H1041 0.929 . S
H990 C984 0.930 . S
H991 C987 0.930 . S
C992 N993 1.314 . S
C992 C994 1.353 . S
C992 H998 0.930 . S
N993 Li969 1.990 . S
N993 C992 1.314 . S
N993 C996 1.279 . S
C994 C992 1.353 . S
C994 C997 1.348 . S
C994 H1042 0.929 . S
C995 C996 1.358 . S
C995 C997 1.356 . S
C995 H1043 0.930 . S
C996 N993 1.279 . S
C996 C995 1.358 . S
C996 H999 0.930 . S
C997 C994 1.348 . S
C997 C995 1.356 . S
H998 C992 0.930 . S
H999 C996 0.930 . S
C1000 C1002 1.348 . S
C1000 C1003 1.366 . S
C1000 O1030 1.325 . S
N1001 C1004 1.314 . S
N1001 C1005 1.279 . S
C1002 C1000 1.348 . S
C1002 C1004 1.353 1_554 S
C1002 H1044 0.929 . S
C1003 C1000 1.366 . S
C1003 C1005 1.346 1_554 S
C1003 H1045 0.932 . S
C1004 N1001 1.314 . S
C1004 C1002 1.353 1_556 S
C1004 H1046 0.930 . S
C1005 N1001 1.279 . S
C1005 C1003 1.346 1_556 S
C1005 H1047 0.930 . S
C1006 C1007 1.348 . S
C1006 C1008 1.356 . S
C1006 O1031 1.325 . S
C1007 C1006 1.348 . S
C1007 C1009 1.353 . S
C1007 H1048 0.929 . S
C1008 C1006 1.356 . S
C1008 C1010 1.358 . S
C1008 H1049 0.930 . S
C1009 C1007 1.353 . S
C1009 N1011 1.314 . S
C1009 H1050 0.930 . S
C1010 C1008 1.358 . S
C1010 N1011 1.279 . S
C1010 H1051 0.930 . S
N1011 C1009 1.314 . S
N1011 C1010 1.279 . S
C1012 C1014 1.353 . S
C1012 N1015 1.314 . S
C1012 H1018 0.930 . S
C1013 N1015 1.279 . S
C1013 C1016 1.358 . S
C1013 H1019 0.930 . S
C1014 C1012 1.353 . S
C1014 C1017 1.348 . S
C1014 H1052 0.929 . S
N1015 Li970 1.990 . S
N1015 C1012 1.314 . S
N1015 C1013 1.279 . S
C1016 C1013 1.358 . S
C1016 C1017 1.356 . S
C1016 H1053 0.930 . S
C1017 C1014 1.348 . S
C1017 C1016 1.356 . S
H1018 C1012 0.930 . S
H1019 C1013 0.930 . S
C1020 N1021 1.314 . S
C1020 C1022 1.353 . S
C1020 H1026 0.930 . S
N1021 Li971 1.990 . S
N1021 C1020 1.314 . S
N1021 C1024 1.279 . S
C1022 C1020 1.353 . S
C1022 C1025 1.348 . S
C1022 H1054 0.929 . S
C1023 C1024 1.358 . S
C1023 C1025 1.356 . S
C1023 H1055 0.930 . S
C1024 N1021 1.279 . S
C1024 C1023 1.358 . S
C1024 H1027 0.930 . S
C1025 C1022 1.348 . S
C1025 C1023 1.356 . S
H1026 C1020 0.930 . S
H1027 C1024 0.930 . S
O1028 Li968 1.956 . S
O1028 Li969 1.970 . S
O1028 Li970 1.961 . S
O1028 C972 1.325 . S
O1029 Li968 1.970 . S
O1029 Li969 1.956 . S
O1029 Li971 1.961 . S
O1029 C978 1.325 . S
O1030 Li968 1.961 . S
O1030 Li970 1.956 . S
O1030 Li971 1.970 . S
O1030 C1000 1.325 . S
O1031 Li969 1.961 . S
O1031 Li970 1.970 . S
O1031 Li971 1.956 . S
O1031 C1006 1.325 . S
H1032 C974 0.929 . S
H1033 C975 0.930 . S
H1034 C976 0.930 . S
H1035 C977 0.930 . S
H1036 C979 0.930 . S
H1037 C981 0.929 . S
H1038 C982 0.930 . S
H1039 C983 0.930 . S
H1040 C986 0.928 1_554 S
H1041 C989 0.929 . S
H1042 C994 0.929 . S
H1043 C995 0.930 . S
H1044 C1002 0.929 . S
H1045 C1003 0.932 . S
H1046 C1004 0.930 . S
H1047 C1005 0.930 . S
H1048 C1007 0.929 . S
H1049 C1008 0.930 . S
H1050 C1009 0.930 . S
H1051 C1010 0.930 . S
H1052 C1014 0.929 . S
H1053 C1016 0.930 . S
H1054 C1022 0.929 . S
H1055 C1023 0.930 . S
Li1056 N1073 1.990 . S
Li1056 O1116 1.956 . S
Li1056 O1117 1.970 . S
Li1056 O1118 1.961 . S
Li1057 N1081 1.990 . S
Li1057 O1116 1.970 . S
Li1057 O1117 1.956 . S
Li1057 O1119 1.961 . S
Li1058 N1103 1.990 . S
Li1058 O1116 1.961 . S
Li1058 O1118 1.956 . S
Li1058 O1119 1.970 . S
Li1059 N1109 1.990 . S
Li1059 O1117 1.961 . S
Li1059 O1118 1.970 . S
Li1059 O1119 1.956 . S
C1060 C1062 1.348 . S
C1060 C1063 1.356 . S
C1060 O1116 1.325 . S
N1061 C1064 1.314 . S
N1061 C1065 1.279 . S
C1062 C1060 1.348 . S
C1062 C1064 1.353 . S
C1062 H1120 0.929 . S
C1063 C1060 1.356 . S
C1063 C1065 1.358 . S
C1063 H1121 0.930 . S
C1064 N1061 1.314 . S
C1064 C1062 1.353 . S
C1064 H1122 0.930 . S
C1065 N1061 1.279 . S
C1065 C1063 1.358 . S
C1065 H1123 0.930 . S
C1066 C1069 1.348 . S
C1066 C1070 1.356 . S
C1066 O1117 1.325 . S
C1067 N1068 1.279 . S
C1067 C1070 1.358 . S
C1067 H1124 0.930 . S
N1068 C1067 1.279 . S
N1068 C1071 1.314 . S
C1069 C1066 1.348 . S
C1069 C1071 1.353 . S
C1069 H1125 0.929 . S
C1070 C1066 1.356 . S
C1070 C1067 1.358 . S
C1070 H1126 0.930 . S
C1071 N1068 1.314 . S
C1071 C1069 1.353 . S
C1071 H1127 0.930 . S
C1072 N1073 1.314 . S
C1072 C1077 1.353 . S
C1072 H1078 0.930 . S
N1073 Li1056 1.990 . S
N1073 C1072 1.314 . S
N1073 C1075 1.279 . S
C1074 C1075 1.358 . S
C1074 C1076 1.356 . S
C1074 H1128 0.930 . S
C1075 N1073 1.279 . S
C1075 C1074 1.358 . S
C1075 H1079 0.930 . S
C1076 C1074 1.356 . S
C1076 C1077 1.348 . S
C1077 C1072 1.353 . S
C1077 C1076 1.348 . S
C1077 H1129 0.929 . S
H1078 C1072 0.930 . S
H1079 C1075 0.930 . S
C1080 N1081 1.314 . S
C1080 C1082 1.353 . S
C1080 H1086 0.930 . S
N1081 Li1057 1.990 . S
N1081 C1080 1.314 . S
N1081 C1084 1.279 . S
C1082 C1080 1.353 . S
C1082 C1085 1.348 . S
C1082 H1130 0.929 . S
C1083 C1084 1.358 . S
C1083 C1085 1.356 . S
C1083 H1131 0.930 . S
C1084 N1081 1.279 . S
C1084 C1083 1.358 . S
C1084 H1087 0.930 . S
C1085 C1082 1.348 . S
C1085 C1083 1.356 . S
H1086 C1080 0.930 . S
H1087 C1084 0.930 . S
C1088 C1090 1.348 . S
C1088 C1091 1.356 . S
C1088 O1118 1.325 . S
N1089 C1092 1.314 . S
N1089 C1093 1.279 . S
C1090 C1088 1.348 . S
C1090 C1092 1.353 . S
C1090 H1132 0.929 . S
C1091 C1088 1.356 . S
C1091 C1093 1.358 . S
C1091 H1133 0.930 . S
C1092 N1089 1.314 . S
C1092 C1090 1.353 . S
C1092 H1134 0.930 . S
C1093 N1089 1.279 . S
C1093 C1091 1.358 . S
C1093 H1135 0.930 . S
C1094 C1095 1.348 . S
C1094 C1096 1.356 . S
C1094 O1119 1.325 . S
C1095 C1094 1.348 . S
C1095 C1097 1.353 . S
C1095 H1136 0.929 . S
C1096 C1094 1.356 . S
C1096 C1098 1.358 . S
C1096 H1137 0.930 . S
C1097 C1095 1.353 . S
C1097 N1099 1.314 . S
C1097 H1138 0.930 . S
C1098 C1096 1.358 . S
C1098 N1099 1.279 . S
C1098 H1139 0.930 . S
N1099 C1097 1.314 . S
N1099 C1098 1.279 . S
C1100 C1102 1.353 . S
C1100 N1103 1.314 . S
C1100 H1106 0.930 . S
C1101 N1103 1.279 . S
C1101 C1104 1.358 . S
C1101 H1107 0.930 . S
C1102 C1100 1.353 . S
C1102 C1105 1.348 . S
C1102 H1140 0.929 . S
N1103 Li1058 1.990 . S
N1103 C1100 1.314 . S
N1103 C1101 1.279 . S
C1104 C1101 1.358 . S
C1104 C1105 1.356 . S
C1104 H1141 0.930 . S
C1105 C1102 1.348 . S
C1105 C1104 1.356 . S
H1106 C1100 0.930 . S
H1107 C1101 0.930 . S
C1108 N1109 1.314 . S
C1108 C1110 1.353 1_554 S
C1108 H1114 0.930 . S
N1109 Li1059 1.990 . S
N1109 C1108 1.314 . S
N1109 C1112 1.279 . S
C1110 C1108 1.353 1_556 S
C1110 C1113 1.348 . S
C1110 H1142 0.929 . S
C1111 C1112 1.358 . S
C1111 C1113 1.356 1_554 S
C1111 H1143 0.930 . S
C1112 N1109 1.279 . S
C1112 C1111 1.358 . S
C1112 H1115 0.930 . S
C1113 C1110 1.348 . S
C1113 C1111 1.356 1_556 S
H1114 C1108 0.930 . S
H1115 C1112 0.930 . S
O1116 Li1056 1.956 . S
O1116 Li1057 1.970 . S
O1116 Li1058 1.961 . S
O1116 C1060 1.325 . S
O1117 Li1056 1.970 . S
O1117 Li1057 1.956 . S
O1117 Li1059 1.961 . S
O1117 C1066 1.325 . S
O1118 Li1056 1.961 . S
O1118 Li1058 1.956 . S
O1118 Li1059 1.970 . S
O1118 C1088 1.325 . S
O1119 Li1057 1.961 . S
O1119 Li1058 1.970 . S
O1119 Li1059 1.956 . S
O1119 C1094 1.325 . S
H1120 C1062 0.929 . S
H1121 C1063 0.930 . S
H1122 C1064 0.930 . S
H1123 C1065 0.930 . S
H1124 C1067 0.930 . S
H1125 C1069 0.929 . S
H1126 C1070 0.930 . S
H1127 C1071 0.930 . S
H1128 C1074 0.930 . S
H1129 C1077 0.929 . S
H1130 C1082 0.929 . S
H1131 C1083 0.930 . S
H1132 C1090 0.929 . S
H1133 C1091 0.930 . S
H1134 C1092 0.930 . S
H1135 C1093 0.930 . S
H1136 C1095 0.929 . S
H1137 C1096 0.930 . S
H1138 C1097 0.930 . S
H1139 C1098 0.930 . S
H1140 C1102 0.929 . S
H1141 C1104 0.930 . S
H1142 C1110 0.929 . S
H1143 C1111 0.930 . S
Li1144 N1161 1.990 . S
Li1144 O1204 1.956 . S
Li1144 O1205 1.970 . S
Li1144 O1206 1.961 . S
Li1145 N1169 1.990 . S
Li1145 O1204 1.970 . S
Li1145 O1205 1.956 . S
Li1145 O1207 1.961 . S
Li1146 N1191 1.990 . S
Li1146 O1204 1.961 . S
Li1146 O1206 1.956 . S
Li1146 O1207 1.970 . S
Li1147 N1197 1.990 . S
Li1147 O1205 1.961 . S
Li1147 O1206 1.970 . S
Li1147 O1207 1.956 . S
C1148 C1150 1.348 . S
C1148 C1151 1.356 . S
C1148 O1204 1.325 . S
N1149 C1152 1.314 . S
N1149 C1153 1.279 . S
C1150 C1148 1.348 . S
C1150 C1152 1.353 . S
C1150 H1208 0.929 . S
C1151 C1148 1.356 . S
C1151 C1153 1.358 . S
C1151 H1209 0.930 . S
C1152 N1149 1.314 . S
C1152 C1150 1.353 . S
C1152 H1210 0.930 . S
C1153 N1149 1.279 . S
C1153 C1151 1.358 . S
C1153 H1211 0.930 . S
C1154 C1157 1.348 . S
C1154 C1158 1.366 . S
C1154 O1205 1.325 . S
C1155 N1156 1.279 . S
C1155 C1158 1.346 1_554 S
C1155 H1212 0.930 . S
N1156 C1155 1.279 . S
N1156 C1159 1.314 . S
C1157 C1154 1.348 . S
C1157 C1159 1.353 1_556 S
C1157 H1213 0.929 . S
C1158 C1154 1.366 . S
C1158 C1155 1.346 1_556 S
C1158 H1214 0.932 . S
C1159 N1156 1.314 . S
C1159 C1157 1.353 1_554 S
C1159 H1215 0.930 . S
C1160 N1161 1.314 . S
C1160 C1165 1.353 . S
C1160 H1166 0.930 . S
N1161 Li1144 1.990 . S
N1161 C1160 1.314 . S
N1161 C1163 1.279 . S
C1162 C1163 1.358 . S
C1162 C1164 1.356 . S
C1162 H1216 0.930 . S
C1163 N1161 1.279 . S
C1163 C1162 1.358 . S
C1163 H1167 0.930 . S
C1164 C1162 1.356 . S
C1164 C1165 1.348 . S
C1165 C1160 1.353 . S
C1165 C1164 1.348 . S
C1165 H1217 0.929 . S
H1166 C1160 0.930 . S
H1167 C1163 0.930 . S
C1168 N1169 1.314 . S
C1168 C1170 1.353 . S
C1168 H1174 0.930 . S
N1169 Li1145 1.990 . S
N1169 C1168 1.314 . S
N1169 C1172 1.279 . S
C1170 C1168 1.353 . S
C1170 C1173 1.348 . S
C1170 H1218 0.929 . S
C1171 C1172 1.358 . S
C1171 C1173 1.356 . S
C1171 H1219 0.930 . S
C1172 N1169 1.279 . S
C1172 C1171 1.358 . S
C1172 H1175 0.930 . S
C1173 C1170 1.348 . S
C1173 C1171 1.356 . S
H1174 C1168 0.930 . S
H1175 C1172 0.930 . S
C1176 C1178 1.348 . S
C1176 C1179 1.356 . S
C1176 O1206 1.325 . S
N1177 C1180 1.314 . S
N1177 C1181 1.279 . S
C1178 C1176 1.348 . S
C1178 C1180 1.353 . S
C1178 H1220 0.929 . S
C1179 C1176 1.356 . S
C1179 C1181 1.358 . S
C1179 H1221 0.930 . S
C1180 N1177 1.314 . S
C1180 C1178 1.353 . S
C1180 H1222 0.930 . S
C1181 N1177 1.279 . S
C1181 C1179 1.358 . S
C1181 H1223 0.930 . S
C1182 C1183 1.348 . S
C1182 C1184 1.356 . S
C1182 O1207 1.325 . S
C1183 C1182 1.348 . S
C1183 C1185 1.353 . S
C1183 H1224 0.929 . S
C1184 C1182 1.356 . S
C1184 C1186 1.358 . S
C1184 H1225 0.930 . S
C1185 C1183 1.353 . S
C1185 N1187 1.314 . S
C1185 H1226 0.930 . S
C1186 C1184 1.358 . S
C1186 N1187 1.279 . S
C1186 H1227 0.930 . S
N1187 C1185 1.314 . S
N1187 C1186 1.279 . S
C1188 C1190 1.353 . S
C1188 N1191 1.314 . S
C1188 H1194 0.930 . S
C1189 N1191 1.279 . S
C1189 C1192 1.358 . S
C1189 H1195 0.930 . S
C1190 C1188 1.353 . S
C1190 C1193 1.348 . S
C1190 H1228 0.929 . S
N1191 Li1146 1.990 . S
N1191 C1188 1.314 . S
N1191 C1189 1.279 . S
C1192 C1189 1.358 . S
C1192 C1193 1.356 . S
C1192 H1229 0.930 . S
C1193 C1190 1.348 . S
C1193 C1192 1.356 . S
H1194 C1188 0.930 . S
H1195 C1189 0.930 . S
C1196 N1197 1.314 1_554 S
C1196 C1198 1.353 . S
C1196 H1202 0.930 . S
N1197 Li1147 1.990 . S
N1197 C1196 1.314 1_556 S
N1197 C1200 1.279 . S
C1198 C1196 1.353 . S
C1198 C1201 1.348 . S
C1198 H1230 0.929 . S
C1199 C1200 1.358 1_554 S
C1199 C1201 1.356 . S
C1199 H1231 0.928 1_554 S
C1200 N1197 1.279 . S
C1200 C1199 1.358 1_556 S
C1200 H1203 0.930 . S
C1201 C1198 1.348 . S
C1201 C1199 1.356 . S
H1202 C1196 0.930 . S
H1203 C1200 0.930 . S
O1204 Li1144 1.956 . S
O1204 Li1145 1.970 . S
O1204 Li1146 1.961 . S
O1204 C1148 1.325 . S
O1205 Li1144 1.970 . S
O1205 Li1145 1.956 . S
O1205 Li1147 1.961 . S
O1205 C1154 1.325 . S
O1206 Li1144 1.961 . S
O1206 Li1146 1.956 . S
O1206 Li1147 1.970 . S
O1206 C1176 1.325 . S
O1207 Li1145 1.961 . S
O1207 Li1146 1.970 . S
O1207 Li1147 1.956 . S
O1207 C1182 1.325 . S
H1208 C1150 0.929 . S
H1209 C1151 0.930 . S
H1210 C1152 0.930 . S
H1211 C1153 0.930 . S
H1212 C1155 0.930 . S
H1213 C1157 0.929 . S
H1214 C1158 0.932 . S
H1215 C1159 0.930 . S
H1216 C1162 0.930 . S
H1217 C1165 0.929 . S
H1218 C1170 0.929 . S
H1219 C1171 0.930 . S
H1220 C1178 0.929 . S
H1221 C1179 0.930 . S
H1222 C1180 0.930 . S
H1223 C1181 0.930 . S
H1224 C1183 0.929 . S
H1225 C1184 0.930 . S
H1226 C1185 0.930 . S
H1227 C1186 0.930 . S
H1228 C1190 0.929 . S
H1229 C1192 0.930 . S
H1230 C1198 0.929 . S
H1231 C1199 0.928 1_556 S
Li1232 N1249 1.990 . S
Li1232 O1292 1.956 . S
Li1232 O1293 1.970 . S
Li1232 O1294 1.961 . S
Li1233 N1257 1.990 . S
Li1233 O1292 1.970 . S
Li1233 O1293 1.956 . S
Li1233 O1295 1.961 . S
Li1234 N1279 1.990 . S
Li1234 O1292 1.961 . S
Li1234 O1294 1.956 . S
Li1234 O1295 1.970 . S
Li1235 N1285 1.990 . S
Li1235 O1293 1.961 . S
Li1235 O1294 1.970 . S
Li1235 O1295 1.956 . S
C1236 C1238 1.348 . S
C1236 C1239 1.356 . S
C1236 O1292 1.325 . S
N1237 C1240 1.314 . S
N1237 C1241 1.279 . S
C1238 C1236 1.348 . S
C1238 C1240 1.353 . S
C1238 H1296 0.929 . S
C1239 C1236 1.356 . S
C1239 C1241 1.358 . S
C1239 H1297 0.930 . S
C1240 N1237 1.314 . S
C1240 C1238 1.353 . S
C1240 H1298 0.930 . S
C1241 N1237 1.279 . S
C1241 C1239 1.358 . S
C1241 H1299 0.930 . S
C1242 C1245 1.348 . S
C1242 C1246 1.356 . S
C1242 O1293 1.325 . S
C1243 N1244 1.279 . S
C1243 C1246 1.358 . S
C1243 H1300 0.930 . S
N1244 C1243 1.279 . S
N1244 C1247 1.314 . S
C1245 C1242 1.348 . S
C1245 C1247 1.353 . S
C1245 H1301 0.929 . S
C1246 C1242 1.356 . S
C1246 C1243 1.358 . S
C1246 H1302 0.930 . S
C1247 N1244 1.314 . S
C1247 C1245 1.353 . S
C1247 H1303 0.930 . S
C1248 N1249 1.314 . S
C1248 C1253 1.353 . S
C1248 H1254 0.930 . S
N1249 Li1232 1.990 . S
N1249 C1248 1.314 . S
N1249 C1251 1.279 . S
C1250 C1251 1.358 . S
C1250 C1252 1.356 . S
C1250 H1304 0.930 . S
C1251 N1249 1.279 . S
C1251 C1250 1.358 . S
C1251 H1255 0.930 . S
C1252 C1250 1.356 . S
C1252 C1253 1.348 . S
C1253 C1248 1.353 . S
C1253 C1252 1.348 . S
C1253 H1305 0.929 . S
H1254 C1248 0.930 . S
H1255 C1251 0.930 . S
C1256 N1257 1.314 . S
C1256 C1258 1.353 . S
C1256 H1262 0.930 . S
N1257 Li1233 1.990 . S
N1257 C1256 1.314 . S
N1257 C1260 1.279 . S
C1258 C1256 1.353 . S
C1258 C1261 1.348 . S
C1258 H1306 0.929 . S
C1259 C1260 1.358 . S
C1259 C1261 1.356 . S
C1259 H1307 0.930 . S
C1260 N1257 1.279 . S
C1260 C1259 1.358 . S
C1260 H1263 0.930 . S
C1261 C1258 1.348 . S
C1261 C1259 1.356 . S
H1262 C1256 0.930 . S
H1263 C1260 0.930 . S
C1264 C1266 1.348 . S
C1264 C1267 1.356 . S
C1264 O1294 1.325 . S
N1265 C1268 1.314 . S
N1265 C1269 1.279 . S
C1266 C1264 1.348 . S
C1266 C1268 1.353 . S
C1266 H1308 0.929 . S
C1267 C1264 1.356 . S
C1267 C1269 1.358 . S
C1267 H1309 0.930 . S
C1268 N1265 1.314 . S
C1268 C1266 1.353 . S
C1268 H1310 0.930 . S
C1269 N1265 1.279 . S
C1269 C1267 1.358 . S
C1269 H1311 0.930 . S
C1270 C1271 1.348 . S
C1270 C1272 1.356 . S
C1270 O1295 1.325 . S
C1271 C1270 1.348 . S
C1271 C1273 1.353 . S
C1271 H1312 0.929 . S
C1272 C1270 1.356 . S
C1272 C1274 1.358 . S
C1272 H1313 0.930 . S
C1273 C1271 1.353 . S
C1273 N1275 1.314 . S
C1273 H1314 0.930 . S
C1274 C1272 1.358 . S
C1274 N1275 1.279 . S
C1274 H1315 0.930 . S
N1275 C1273 1.314 . S
N1275 C1274 1.279 . S
C1276 C1278 1.353 . S
C1276 N1279 1.314 . S
C1276 H1282 0.930 . S
C1277 N1279 1.279 . S
C1277 C1280 1.358 . S
C1277 H1283 0.930 . S
C1278 C1276 1.353 . S
C1278 C1281 1.348 . S
C1278 H1316 0.929 . S
N1279 Li1234 1.990 . S
N1279 C1276 1.314 . S
N1279 C1277 1.279 . S
C1280 C1277 1.358 . S
C1280 C1281 1.356 . S
C1280 H1317 0.930 . S
C1281 C1278 1.348 . S
C1281 C1280 1.356 . S
H1282 C1276 0.930 . S
H1283 C1277 0.930 . S
C1284 N1285 1.314 . S
C1284 C1286 1.353 . S
C1284 H1290 0.930 . S
N1285 Li1235 1.990 . S
N1285 C1284 1.314 . S
N1285 C1288 1.279 . S
C1286 C1284 1.353 . S
C1286 C1289 1.348 . S
C1286 H1318 0.929 . S
C1287 C1288 1.358 . S
C1287 C1289 1.356 . S
C1287 H1319 0.930 . S
C1288 N1285 1.279 . S
C1288 C1287 1.358 . S
C1288 H1291 0.930 . S
C1289 C1286 1.348 . S
C1289 C1287 1.356 . S
H1290 C1284 0.930 . S
H1291 C1288 0.930 . S
O1292 Li1232 1.956 . S
O1292 Li1233 1.970 . S
O1292 Li1234 1.961 . S
O1292 C1236 1.325 . S
O1293 Li1232 1.970 . S
O1293 Li1233 1.956 . S
O1293 Li1235 1.961 . S
O1293 C1242 1.325 . S
O1294 Li1232 1.961 . S
O1294 Li1234 1.956 . S
O1294 Li1235 1.970 . S
O1294 C1264 1.325 . S
O1295 Li1233 1.961 . S
O1295 Li1234 1.970 . S
O1295 Li1235 1.956 . S
O1295 C1270 1.325 . S
H1296 C1238 0.929 . S
H1297 C1239 0.930 . S
H1298 C1240 0.930 . S
H1299 C1241 0.930 . S
H1300 C1243 0.930 . S
H1301 C1245 0.929 . S
H1302 C1246 0.930 . S
H1303 C1247 0.930 . S
H1304 C1250 0.930 . S
H1305 C1253 0.929 . S
H1306 C1258 0.929 . S
H1307 C1259 0.930 . S
H1308 C1266 0.929 . S
H1309 C1267 0.930 . S
H1310 C1268 0.930 . S
H1311 C1269 0.930 . S
H1312 C1271 0.929 . S
H1313 C1272 0.930 . S
H1314 C1273 0.930 . S
H1315 C1274 0.930 . S
H1316 C1278 0.929 . S
H1317 C1280 0.930 . S
H1318 C1286 0.929 . S
H1319 C1287 0.930 . S
Li1320 N1337 1.990 . S
Li1320 O1380 1.956 . S
Li1320 O1381 1.970 . S
Li1320 O1382 1.961 . S
Li1321 N1345 1.990 . S
Li1321 O1380 1.970 . S
Li1321 O1381 1.956 . S
Li1321 O1383 1.961 . S
Li1322 N1367 1.990 . S
Li1322 O1380 1.961 . S
Li1322 O1382 1.956 . S
Li1322 O1383 1.970 . S
Li1323 N1373 1.990 . S
Li1323 O1381 1.961 . S
Li1323 O1382 1.970 . S
Li1323 O1383 1.956 . S
C1324 C1326 1.348 . S
C1324 C1327 1.356 . S
C1324 O1380 1.325 . S
N1325 C1328 1.314 . S
N1325 C1329 1.279 . S
C1326 C1324 1.348 . S
C1326 C1328 1.353 . S
C1326 H1384 0.929 . S
C1327 C1324 1.356 . S
C1327 C1329 1.358 . S
C1327 H1385 0.930 . S
C1328 N1325 1.314 . S
C1328 C1326 1.353 . S
C1328 H1386 0.930 . S
C1329 N1325 1.279 . S
C1329 C1327 1.358 . S
C1329 H1387 0.930 . S
C1330 C1333 1.348 . S
C1330 C1334 1.356 . S
C1330 O1381 1.325 . S
C1331 N1332 1.279 . S
C1331 C1334 1.358 . S
C1331 H1388 0.930 . S
N1332 C1331 1.279 . S
N1332 C1335 1.314 . S
C1333 C1330 1.348 . S
C1333 C1335 1.353 . S
C1333 H1389 0.929 . S
C1334 C1330 1.356 . S
C1334 C1331 1.358 . S
C1334 H1390 0.930 . S
C1335 N1332 1.314 . S
C1335 C1333 1.353 . S
C1335 H1391 0.930 . S
C1336 N1337 1.314 . S
C1336 C1341 1.353 . S
C1336 H1342 0.930 . S
N1337 Li1320 1.990 . S
N1337 C1336 1.314 . S
N1337 C1339 1.279 . S
C1338 C1339 1.358 . S
C1338 C1340 1.356 . S
C1338 H1392 0.930 . S
C1339 N1337 1.279 . S
C1339 C1338 1.358 . S
C1339 H1343 0.930 . S
C1340 C1338 1.356 . S
C1340 C1341 1.348 . S
C1341 C1336 1.353 . S
C1341 C1340 1.348 . S
C1341 H1393 0.929 . S
H1342 C1336 0.930 . S
H1343 C1339 0.930 . S
C1344 N1345 1.314 . S
C1344 C1346 1.353 . S
C1344 H1350 0.930 . S
N1345 Li1321 1.990 . S
N1345 C1344 1.314 . S
N1345 C1348 1.279 . S
C1346 C1344 1.353 . S
C1346 C1349 1.348 . S
C1346 H1394 0.929 . S
C1347 C1348 1.358 . S
C1347 C1349 1.356 . S
C1347 H1395 0.930 . S
C1348 N1345 1.279 . S
C1348 C1347 1.358 . S
C1348 H1351 0.930 . S
C1349 C1346 1.348 . S
C1349 C1347 1.356 . S
H1350 C1344 0.930 . S
H1351 C1348 0.930 . S
C1352 C1354 1.348 . S
C1352 C1355 1.356 . S
C1352 O1382 1.325 . S
N1353 C1356 1.314 . S
N1353 C1357 1.279 . S
C1354 C1352 1.348 . S
C1354 C1356 1.353 . S
C1354 H1396 0.929 . S
C1355 C1352 1.356 . S
C1355 C1357 1.358 . S
C1355 H1397 0.930 . S
C1356 N1353 1.314 . S
C1356 C1354 1.353 . S
C1356 H1398 0.930 . S
C1357 N1353 1.279 . S
C1357 C1355 1.358 . S
C1357 H1399 0.930 . S
C1358 C1359 1.348 . S
C1358 C1360 1.356 . S
C1358 O1383 1.325 . S
C1359 C1358 1.348 . S
C1359 C1361 1.353 . S
C1359 H1400 0.929 . S
C1360 C1358 1.356 . S
C1360 C1362 1.358 . S
C1360 H1401 0.930 . S
C1361 C1359 1.353 . S
C1361 N1363 1.314 . S
C1361 H1402 0.930 . S
C1362 C1360 1.358 . S
C1362 N1363 1.279 . S
C1362 H1403 0.930 . S
N1363 C1361 1.314 . S
N1363 C1362 1.279 . S
C1364 C1366 1.353 . S
C1364 N1367 1.314 . S
C1364 H1370 0.930 . S
C1365 N1367 1.279 . S
C1365 C1368 1.358 . S
C1365 H1371 0.930 . S
C1366 C1364 1.353 . S
C1366 C1369 1.348 . S
C1366 H1404 0.929 . S
N1367 Li1322 1.990 . S
N1367 C1364 1.314 . S
N1367 C1365 1.279 . S
C1368 C1365 1.358 . S
C1368 C1369 1.356 . S
C1368 H1405 0.930 . S
C1369 C1366 1.348 . S
C1369 C1368 1.356 . S
H1370 C1364 0.930 . S
H1371 C1365 0.930 . S
C1372 N1373 1.314 . S
C1372 C1374 1.353 . S
C1372 H1378 0.930 . S
N1373 Li1323 1.990 . S
N1373 C1372 1.314 . S
N1373 C1376 1.279 . S
C1374 C1372 1.353 . S
C1374 C1377 1.348 . S
C1374 H1406 0.929 . S
C1375 C1376 1.358 . S
C1375 C1377 1.356 . S
C1375 H1407 0.930 . S
C1376 N1373 1.279 . S
C1376 C1375 1.358 . S
C1376 H1379 0.930 . S
C1377 C1374 1.348 . S
C1377 C1375 1.356 . S
H1378 C1372 0.930 . S
H1379 C1376 0.930 . S
O1380 Li1320 1.956 . S
O1380 Li1321 1.970 . S
O1380 Li1322 1.961 . S
O1380 C1324 1.325 . S
O1381 Li1320 1.970 . S
O1381 Li1321 1.956 . S
O1381 Li1323 1.961 . S
O1381 C1330 1.325 . S
O1382 Li1320 1.961 . S
O1382 Li1322 1.956 . S
O1382 Li1323 1.970 . S
O1382 C1352 1.325 . S
O1383 Li1321 1.961 . S
O1383 Li1322 1.970 . S
O1383 Li1323 1.956 . S
O1383 C1358 1.325 . S
H1384 C1326 0.929 . S
H1385 C1327 0.930 . S
H1386 C1328 0.930 . S
H1387 C1329 0.930 . S
H1388 C1331 0.930 . S
H1389 C1333 0.929 . S
H1390 C1334 0.930 . S
H1391 C1335 0.930 . S
H1392 C1338 0.930 . S
H1393 C1341 0.929 . S
H1394 C1346 0.929 . S
H1395 C1347 0.930 . S
H1396 C1354 0.929 . S
H1397 C1355 0.930 . S
H1398 C1356 0.930 . S
H1399 C1357 0.930 . S
H1400 C1359 0.929 . S
H1401 C1360 0.930 . S
H1402 C1361 0.930 . S
H1403 C1362 0.930 . S
H1404 C1366 0.929 . S
H1405 C1368 0.930 . S
H1406 C1374 0.929 . S
H1407 C1375 0.930 . S
Li1408 N1425 1.990 . S
Li1408 O1468 1.956 . S
Li1408 O1469 1.970 . S
Li1408 O1470 1.961 . S
Li1409 N1433 1.990 . S
Li1409 O1468 1.970 . S
Li1409 O1469 1.956 . S
Li1409 O1471 1.961 . S
Li1410 N1455 1.990 . S
Li1410 O1468 1.961 . S
Li1410 O1470 1.956 . S
Li1410 O1471 1.970 . S
Li1411 N1461 1.990 . S
Li1411 O1469 1.961 . S
Li1411 O1470 1.970 . S
Li1411 O1471 1.956 . S
C1412 C1414 1.348 . S
C1412 C1415 1.356 . S
C1412 O1468 1.325 . S
N1413 C1416 1.314 . S
N1413 C1417 1.279 . S
C1414 C1412 1.348 . S
C1414 C1416 1.353 . S
C1414 H1472 0.929 . S
C1415 C1412 1.356 . S
C1415 C1417 1.358 . S
C1415 H1473 0.930 . S
C1416 N1413 1.314 . S
C1416 C1414 1.353 . S
C1416 H1474 0.930 . S
C1417 N1413 1.279 . S
C1417 C1415 1.358 . S
C1417 H1475 0.930 . S
C1418 C1421 1.348 . S
C1418 C1422 1.356 . S
C1418 O1469 1.325 . S
C1419 N1420 1.279 . S
C1419 C1422 1.358 . S
C1419 H1476 0.930 . S
N1420 C1419 1.279 . S
N1420 C1423 1.314 . S
C1421 C1418 1.348 . S
C1421 C1423 1.353 . S
C1421 H1477 0.929 . S
C1422 C1418 1.356 . S
C1422 C1419 1.358 . S
C1422 H1478 0.930 . S
C1423 N1420 1.314 . S
C1423 C1421 1.353 . S
C1423 H1479 0.930 . S
C1424 N1425 1.314 . S
C1424 C1429 1.353 . S
C1424 H1430 0.930 . S
N1425 Li1408 1.990 . S
N1425 C1424 1.314 . S
N1425 C1427 1.279 . S
C1426 C1427 1.358 . S
C1426 C1428 1.356 . S
C1426 H1480 0.930 . S
C1427 N1425 1.279 . S
C1427 C1426 1.358 . S
C1427 H1431 0.930 . S
C1428 C1426 1.356 . S
C1428 C1429 1.348 . S
C1429 C1424 1.353 . S
C1429 C1428 1.348 . S
C1429 H1481 0.929 . S
H1430 C1424 0.930 . S
H1431 C1427 0.930 . S
C1432 N1433 1.314 . S
C1432 C1434 1.353 . S
C1432 H1438 0.930 . S
N1433 Li1409 1.990 . S
N1433 C1432 1.314 . S
N1433 C1436 1.279 . S
C1434 C1432 1.353 . S
C1434 C1437 1.348 . S
C1434 H1482 0.929 . S
C1435 C1436 1.358 . S
C1435 C1437 1.356 . S
C1435 H1483 0.930 . S
C1436 N1433 1.279 . S
C1436 C1435 1.358 . S
C1436 H1439 0.930 . S
C1437 C1434 1.348 . S
C1437 C1435 1.356 . S
H1438 C1432 0.930 . S
H1439 C1436 0.930 . S
C1440 C1442 1.348 . S
C1440 C1443 1.356 . S
C1440 O1470 1.325 . S
N1441 C1444 1.314 . S
N1441 C1445 1.279 . S
C1442 C1440 1.348 . S
C1442 C1444 1.353 . S
C1442 H1484 0.929 . S
C1443 C1440 1.356 . S
C1443 C1445 1.358 . S
C1443 H1485 0.930 . S
C1444 N1441 1.314 . S
C1444 C1442 1.353 . S
C1444 H1486 0.930 . S
C1445 N1441 1.279 . S
C1445 C1443 1.358 . S
C1445 H1487 0.930 . S
C1446 C1447 1.348 . S
C1446 C1448 1.356 . S
C1446 O1471 1.325 . S
C1447 C1446 1.348 . S
C1447 C1449 1.353 . S
C1447 H1488 0.929 . S
C1448 C1446 1.356 . S
C1448 C1450 1.358 . S
C1448 H1489 0.930 . S
C1449 C1447 1.353 . S
C1449 N1451 1.314 . S
C1449 H1490 0.930 . S
C1450 C1448 1.358 . S
C1450 N1451 1.279 . S
C1450 H1491 0.930 . S
N1451 C1449 1.314 . S
N1451 C1450 1.279 . S
C1452 C1454 1.353 . S
C1452 N1455 1.314 . S
C1452 H1458 0.930 . S
C1453 N1455 1.279 . S
C1453 C1456 1.358 . S
C1453 H1459 0.930 . S
C1454 C1452 1.353 . S
C1454 C1457 1.348 . S
C1454 H1492 0.929 . S
N1455 Li1410 1.990 . S
N1455 C1452 1.314 . S
N1455 C1453 1.279 . S
C1456 C1453 1.358 . S
C1456 C1457 1.356 . S
C1456 H1493 0.930 . S
C1457 C1454 1.348 . S
C1457 C1456 1.356 . S
H1458 C1452 0.930 . S
H1459 C1453 0.930 . S
C1460 N1461 1.314 . S
C1460 C1462 1.353 . S
C1460 H1466 0.930 . S
N1461 Li1411 1.990 . S
N1461 C1460 1.314 . S
N1461 C1464 1.279 . S
C1462 C1460 1.353 . S
C1462 C1465 1.348 . S
C1462 H1494 0.929 . S
C1463 C1464 1.358 . S
C1463 C1465 1.356 . S
C1463 H1495 0.930 . S
C1464 N1461 1.279 . S
C1464 C1463 1.358 . S
C1464 H1467 0.930 . S
C1465 C1462 1.348 . S
C1465 C1463 1.356 . S
H1466 C1460 0.930 . S
H1467 C1464 0.930 . S
O1468 Li1408 1.956 . S
O1468 Li1409 1.970 . S
O1468 Li1410 1.961 . S
O1468 C1412 1.325 . S
O1469 Li1408 1.970 . S
O1469 Li1409 1.956 . S
O1469 Li1411 1.961 . S
O1469 C1418 1.325 . S
O1470 Li1408 1.961 . S
O1470 Li1410 1.956 . S
O1470 Li1411 1.970 . S
O1470 C1440 1.325 . S
O1471 Li1409 1.961 . S
O1471 Li1410 1.970 . S
O1471 Li1411 1.956 . S
O1471 C1446 1.325 . S
H1472 C1414 0.929 . S
H1473 C1415 0.930 . S
H1474 C1416 0.930 . S
H1475 C1417 0.930 . S
H1476 C1419 0.930 . S
H1477 C1421 0.929 . S
H1478 C1422 0.930 . S
H1479 C1423 0.930 . S
H1480 C1426 0.930 . S
H1481 C1429 0.929 . S
H1482 C1434 0.929 . S
H1483 C1435 0.930 . S
H1484 C1442 0.929 . S
H1485 C1443 0.930 . S
H1486 C1444 0.930 . S
H1487 C1445 0.930 . S
H1488 C1447 0.929 . S
H1489 C1448 0.930 . S
H1490 C1449 0.930 . S
H1491 C1450 0.930 . S
H1492 C1454 0.929 . S
H1493 C1456 0.930 . S
H1494 C1462 0.929 . S
H1495 C1463 0.930 . S
Li1496 N1513 1.990 . S
Li1496 O1556 1.956 . S
Li1496 O1557 1.970 . S
Li1496 O1558 1.961 . S
Li1497 N1521 1.990 . S
Li1497 O1556 1.970 . S
Li1497 O1557 1.956 . S
Li1497 O1559 1.961 . S
Li1498 N1543 1.990 . S
Li1498 O1556 1.961 . S
Li1498 O1558 1.956 . S
Li1498 O1559 1.970 . S
Li1499 N1549 1.990 . S
Li1499 O1557 1.961 . S
Li1499 O1558 1.970 . S
Li1499 O1559 1.956 . S
C1500 C1502 1.348 . S
C1500 C1503 1.356 . S
C1500 O1556 1.325 . S
N1501 C1504 1.314 . S
N1501 C1505 1.279 . S
C1502 C1500 1.348 . S
C1502 C1504 1.353 . S
C1502 H1560 0.929 . S
C1503 C1500 1.356 . S
C1503 C1505 1.358 . S
C1503 H1561 0.930 . S
C1504 N1501 1.314 . S
C1504 C1502 1.353 . S
C1504 H1562 0.930 . S
C1505 N1501 1.279 . S
C1505 C1503 1.358 . S
C1505 H1563 0.930 . S
C1506 C1509 1.348 . S
C1506 C1510 1.356 . S
C1506 O1557 1.325 . S
C1507 N1508 1.279 . S
C1507 C1510 1.358 1_554 S
C1507 H1564 0.930 . S
N1508 C1507 1.279 . S
N1508 C1511 1.314 . S
C1509 C1506 1.348 . S
C1509 C1511 1.353 1_556 S
C1509 H1565 0.929 . S
C1510 C1506 1.356 . S
C1510 C1507 1.358 1_556 S
C1510 H1566 0.930 . S
C1511 N1508 1.314 . S
C1511 C1509 1.353 1_554 S
C1511 H1567 0.930 . S
C1512 N1513 1.314 . S
C1512 C1517 1.353 . S
C1512 H1518 0.930 . S
N1513 Li1496 1.990 . S
N1513 C1512 1.314 . S
N1513 C1515 1.279 . S
C1514 C1515 1.358 . S
C1514 C1516 1.356 . S
C1514 H1568 0.930 . S
C1515 N1513 1.279 . S
C1515 C1514 1.358 . S
C1515 H1519 0.930 . S
C1516 C1514 1.356 . S
C1516 C1517 1.348 . S
C1517 C1512 1.353 . S
C1517 C1516 1.348 . S
C1517 H1569 0.929 . S
H1518 C1512 0.930 . S
H1519 C1515 0.930 . S
C1520 N1521 1.314 . S
C1520 C1522 1.353 . S
C1520 H1526 0.930 . S
N1521 Li1497 1.990 . S
N1521 C1520 1.314 . S
N1521 C1524 1.279 1_556 S
C1522 C1520 1.353 . S
C1522 C1525 1.348 1_556 S
C1522 H1570 0.929 . S
C1523 C1524 1.358 . S
C1523 C1525 1.356 . S
C1523 H1571 0.930 . S
C1524 N1521 1.279 1_554 S
C1524 C1523 1.358 . S
C1524 H1527 0.930 . S
C1525 C1522 1.348 1_554 S
C1525 C1523 1.356 . S
H1526 C1520 0.930 . S
H1527 C1524 0.930 . S
C1528 C1530 1.348 . S
C1528 C1531 1.356 . S
C1528 O1558 1.325 . S
N1529 C1532 1.314 . S
N1529 C1533 1.279 . S
C1530 C1528 1.348 . S
C1530 C1532 1.353 . S
C1530 H1572 0.929 . S
C1531 C1528 1.356 . S
C1531 C1533 1.358 . S
C1531 H1573 0.930 . S
C1532 N1529 1.314 . S
C1532 C1530 1.353 . S
C1532 H1574 0.930 . S
C1533 N1529 1.279 . S
C1533 C1531 1.358 . S
C1533 H1575 0.930 . S
C1534 C1535 1.348 . S
C1534 C1536 1.356 . S
C1534 O1559 1.325 . S
C1535 C1534 1.348 . S
C1535 C1537 1.353 . S
C1535 H1576 0.929 . S
C1536 C1534 1.356 . S
C1536 C1538 1.358 . S
C1536 H1577 0.930 . S
C1537 C1535 1.353 . S
C1537 N1539 1.314 . S
C1537 H1578 0.930 . S
C1538 C1536 1.358 . S
C1538 N1539 1.279 . S
C1538 H1579 0.930 . S
N1539 C1537 1.314 . S
N1539 C1538 1.279 . S
C1540 C1542 1.353 . S
C1540 N1543 1.314 . S
C1540 H1546 0.930 . S
C1541 N1543 1.279 . S
C1541 C1544 1.358 . S
C1541 H1547 0.930 . S
C1542 C1540 1.353 . S
C1542 C1545 1.348 . S
C1542 H1580 0.929 . S
N1543 Li1498 1.990 . S
N1543 C1540 1.314 . S
N1543 C1541 1.279 . S
C1544 C1541 1.358 . S
C1544 C1545 1.356 . S
C1544 H1581 0.930 . S
C1545 C1542 1.348 . S
C1545 C1544 1.356 . S
H1546 C1540 0.930 . S
H1547 C1541 0.930 . S
C1548 N1549 1.314 . S
C1548 C1550 1.353 . S
C1548 H1554 0.930 . S
N1549 Li1499 1.990 . S
N1549 C1548 1.314 . S
N1549 C1552 1.279 . S
C1550 C1548 1.353 . S
C1550 C1553 1.348 . S
C1550 H1582 0.929 . S
C1551 C1552 1.358 . S
C1551 C1553 1.356 . S
C1551 H1583 0.930 . S
C1552 N1549 1.279 . S
C1552 C1551 1.358 . S
C1552 H1555 0.930 . S
C1553 C1550 1.348 . S
C1553 C1551 1.356 . S
H1554 C1548 0.930 . S
H1555 C1552 0.930 . S
O1556 Li1496 1.956 . S
O1556 Li1497 1.970 . S
O1556 Li1498 1.961 . S
O1556 C1500 1.325 . S
O1557 Li1496 1.970 . S
O1557 Li1497 1.956 . S
O1557 Li1499 1.961 . S
O1557 C1506 1.325 . S
O1558 Li1496 1.961 . S
O1558 Li1498 1.956 . S
O1558 Li1499 1.970 . S
O1558 C1528 1.325 . S
O1559 Li1497 1.961 . S
O1559 Li1498 1.970 . S
O1559 Li1499 1.956 . S
O1559 C1534 1.325 . S
H1560 C1502 0.929 . S
H1561 C1503 0.930 . S
H1562 C1504 0.930 . S
H1563 C1505 0.930 . S
H1564 C1507 0.930 . S
H1565 C1509 0.929 . S
H1566 C1510 0.930 . S
H1567 C1511 0.930 . S
H1568 C1514 0.930 . S
H1569 C1517 0.929 . S
H1570 C1522 0.929 . S
H1571 C1523 0.930 . S
H1572 C1530 0.929 . S
H1573 C1531 0.930 . S
H1574 C1532 0.930 . S
H1575 C1533 0.930 . S
H1576 C1535 0.929 . S
H1577 C1536 0.930 . S
H1578 C1537 0.930 . S
H1579 C1538 0.930 . S
H1580 C1542 0.929 . S
H1581 C1544 0.930 . S
H1582 C1550 0.929 . S
H1583 C1551 0.930 . S
Li1584 N1601 1.990 . S
Li1584 O1644 1.956 . S
Li1584 O1645 1.970 . S
Li1584 O1646 1.961 . S
Li1585 N1609 1.990 . S
Li1585 O1644 1.970 . S
Li1585 O1645 1.956 . S
Li1585 O1647 1.961 . S
Li1586 N1631 1.990 . S
Li1586 O1644 1.961 . S
Li1586 O1646 1.956 . S
Li1586 O1647 1.970 . S
Li1587 N1637 1.990 . S
Li1587 O1645 1.961 . S
Li1587 O1646 1.970 . S
Li1587 O1647 1.956 . S
C1588 C1590 1.348 . S
C1588 C1591 1.356 . S
C1588 O1644 1.325 . S
N1589 C1592 1.314 . S
N1589 C1593 1.279 . S
C1590 C1588 1.348 . S
C1590 C1592 1.353 . S
C1590 H1648 0.929 . S
C1591 C1588 1.356 . S
C1591 C1593 1.358 . S
C1591 H1649 0.930 . S
C1592 N1589 1.314 . S
C1592 C1590 1.353 . S
C1592 H1650 0.930 . S
C1593 N1589 1.279 . S
C1593 C1591 1.358 . S
C1593 H1651 0.930 . S
C1594 C1597 1.348 . S
C1594 C1598 1.356 . S
C1594 O1645 1.325 . S
C1595 N1596 1.279 . S
C1595 C1598 1.358 . S
C1595 H1652 0.930 . S
N1596 C1595 1.279 . S
N1596 C1599 1.314 . S
C1597 C1594 1.348 . S
C1597 C1599 1.353 . S
C1597 H1653 0.929 . S
C1598 C1594 1.356 . S
C1598 C1595 1.358 . S
C1598 H1654 0.930 . S
C1599 N1596 1.314 . S
C1599 C1597 1.353 . S
C1599 H1655 0.930 . S
C1600 N1601 1.314 . S
C1600 C1605 1.353 . S
C1600 H1606 0.930 . S
N1601 Li1584 1.990 . S
N1601 C1600 1.314 . S
N1601 C1603 1.279 . S
C1602 C1603 1.358 . S
C1602 C1604 1.356 . S
C1602 H1656 0.930 . S
C1603 N1601 1.279 . S
C1603 C1602 1.358 . S
C1603 H1607 0.930 . S
C1604 C1602 1.356 . S
C1604 C1605 1.348 . S
C1605 C1600 1.353 . S
C1605 C1604 1.348 . S
C1605 H1657 0.929 . S
H1606 C1600 0.930 . S
H1607 C1603 0.930 . S
C1608 N1609 1.314 . S
C1608 C1610 1.353 . S
C1608 H1614 0.930 . S
N1609 Li1585 1.990 . S
N1609 C1608 1.314 . S
N1609 C1612 1.279 . S
C1610 C1608 1.353 . S
C1610 C1613 1.348 . S
C1610 H1658 0.929 . S
C1611 C1612 1.358 . S
C1611 C1613 1.356 . S
C1611 H1659 0.930 . S
C1612 N1609 1.279 . S
C1612 C1611 1.358 . S
C1612 H1615 0.930 . S
C1613 C1610 1.348 . S
C1613 C1611 1.356 . S
H1614 C1608 0.930 . S
H1615 C1612 0.930 . S
C1616 C1618 1.348 . S
C1616 C1619 1.356 . S
C1616 O1646 1.325 . S
N1617 C1620 1.314 . S
N1617 C1621 1.279 . S
C1618 C1616 1.348 . S
C1618 C1620 1.353 . S
C1618 H1660 0.929 . S
C1619 C1616 1.356 . S
C1619 C1621 1.358 . S
C1619 H1661 0.930 . S
C1620 N1617 1.314 . S
C1620 C1618 1.353 . S
C1620 H1662 0.930 . S
C1621 N1617 1.279 . S
C1621 C1619 1.358 . S
C1621 H1663 0.930 . S
C1622 C1623 1.348 . S
C1622 C1624 1.356 . S
C1622 O1647 1.325 . S
C1623 C1622 1.348 . S
C1623 C1625 1.353 . S
C1623 H1664 0.929 . S
C1624 C1622 1.356 . S
C1624 C1626 1.358 . S
C1624 H1665 0.930 . S
C1625 C1623 1.353 . S
C1625 N1627 1.314 . S
C1625 H1666 0.930 . S
C1626 C1624 1.358 . S
C1626 N1627 1.279 . S
C1626 H1667 0.930 . S
N1627 C1625 1.314 . S
N1627 C1626 1.279 . S
C1628 C1630 1.353 . S
C1628 N1631 1.314 . S
C1628 H1634 0.930 . S
C1629 N1631 1.279 . S
C1629 C1632 1.358 1_554 S
C1629 H1635 0.930 . S
C1630 C1628 1.353 . S
C1630 C1633 1.348 1_554 S
C1630 H1668 0.929 . S
N1631 Li1586 1.990 . S
N1631 C1628 1.314 . S
N1631 C1629 1.279 . S
C1632 C1629 1.358 1_556 S
C1632 C1633 1.356 . S
C1632 H1669 0.930 . S
C1633 C1630 1.348 1_556 S
C1633 C1632 1.356 . S
H1634 C1628 0.930 . S
H1635 C1629 0.930 . S
C1636 N1637 1.314 . S
C1636 C1638 1.353 . S
C1636 H1642 0.930 . S
N1637 Li1587 1.990 . S
N1637 C1636 1.314 . S
N1637 C1640 1.279 . S
C1638 C1636 1.353 . S
C1638 C1641 1.348 . S
C1638 H1670 0.929 . S
C1639 C1640 1.358 . S
C1639 C1641 1.356 . S
C1639 H1671 0.930 . S
C1640 N1637 1.279 . S
C1640 C1639 1.358 . S
C1640 H1643 0.930 . S
C1641 C1638 1.348 . S
C1641 C1639 1.356 . S
H1642 C1636 0.930 . S
H1643 C1640 0.930 . S
O1644 Li1584 1.956 . S
O1644 Li1585 1.970 . S
O1644 Li1586 1.961 . S
O1644 C1588 1.325 . S
O1645 Li1584 1.970 . S
O1645 Li1585 1.956 . S
O1645 Li1587 1.961 . S
O1645 C1594 1.325 . S
O1646 Li1584 1.961 . S
O1646 Li1586 1.956 . S
O1646 Li1587 1.970 . S
O1646 C1616 1.325 . S
O1647 Li1585 1.961 . S
O1647 Li1586 1.970 . S
O1647 Li1587 1.956 . S
O1647 C1622 1.325 . S
H1648 C1590 0.929 . S
H1649 C1591 0.930 . S
H1650 C1592 0.930 . S
H1651 C1593 0.930 . S
H1652 C1595 0.930 . S
H1653 C1597 0.929 . S
H1654 C1598 0.930 . S
H1655 C1599 0.930 . S
H1656 C1602 0.930 . S
H1657 C1605 0.929 . S
H1658 C1610 0.929 . S
H1659 C1611 0.930 . S
H1660 C1618 0.929 . S
H1661 C1619 0.930 . S
H1662 C1620 0.930 . S
H1663 C1621 0.930 . S
H1664 C1623 0.929 . S
H1665 C1624 0.930 . S
H1666 C1625 0.930 . S
H1667 C1626 0.930 . S
H1668 C1630 0.929 . S
H1669 C1632 0.930 . S
H1670 C1638 0.929 . S
H1671 C1639 0.930 . S
Li1672 N1689 1.990 . S
Li1672 O1732 1.956 . S
Li1672 O1733 1.970 . S
Li1672 O1734 1.961 . S
Li1673 N1697 1.990 . S
Li1673 O1732 1.970 . S
Li1673 O1733 1.956 . S
Li1673 O1735 1.961 . S
Li1674 N1719 1.990 . S
Li1674 O1732 1.961 . S
Li1674 O1734 1.956 . S
Li1674 O1735 1.970 . S
Li1675 N1725 1.990 . S
Li1675 O1733 1.961 . S
Li1675 O1734 1.970 . S
Li1675 O1735 1.956 . S
C1676 C1678 1.348 . S
C1676 C1679 1.356 . S
C1676 O1732 1.325 . S
N1677 C1680 1.314 . S
N1677 C1681 1.279 . S
C1678 C1676 1.348 . S
C1678 C1680 1.353 . S
C1678 H1736 0.929 . S
C1679 C1676 1.356 . S
C1679 C1681 1.358 . S
C1679 H1737 0.930 . S
C1680 N1677 1.314 . S
C1680 C1678 1.353 . S
C1680 H1738 0.930 . S
C1681 N1677 1.279 . S
C1681 C1679 1.358 . S
C1681 H1739 0.930 . S
C1682 C1685 1.348 . S
C1682 C1686 1.356 . S
C1682 O1733 1.325 . S
C1683 N1684 1.279 . S
C1683 C1686 1.358 . S
C1683 H1740 0.930 . S
N1684 C1683 1.279 . S
N1684 C1687 1.314 . S
C1685 C1682 1.348 . S
C1685 C1687 1.353 . S
C1685 H1741 0.929 . S
C1686 C1682 1.356 . S
C1686 C1683 1.358 . S
C1686 H1742 0.930 . S
C1687 N1684 1.314 . S
C1687 C1685 1.353 . S
C1687 H1743 0.930 . S
C1688 N1689 1.314 . S
C1688 C1693 1.353 . S
C1688 H1694 0.930 . S
N1689 Li1672 1.990 . S
N1689 C1688 1.314 . S
N1689 C1691 1.279 . S
C1690 C1691 1.358 . S
C1690 C1692 1.356 . S
C1690 H1744 0.930 . S
C1691 N1689 1.279 . S
C1691 C1690 1.358 . S
C1691 H1695 0.930 . S
C1692 C1690 1.356 . S
C1692 C1693 1.348 . S
C1693 C1688 1.353 . S
C1693 C1692 1.348 . S
C1693 H1745 0.929 . S
H1694 C1688 0.930 . S
H1695 C1691 0.930 . S
C1696 N1697 1.314 . S
C1696 C1698 1.353 . S
C1696 H1702 0.930 . S
N1697 Li1673 1.990 . S
N1697 C1696 1.314 . S
N1697 C1700 1.279 . S
C1698 C1696 1.353 . S
C1698 C1701 1.348 . S
C1698 H1746 0.929 . S
C1699 C1700 1.358 . S
C1699 C1701 1.356 . S
C1699 H1747 0.930 . S
C1700 N1697 1.279 . S
C1700 C1699 1.358 . S
C1700 H1703 0.930 . S
C1701 C1698 1.348 . S
C1701 C1699 1.356 . S
H1702 C1696 0.930 . S
H1703 C1700 0.930 . S
C1704 C1706 1.348 . S
C1704 C1707 1.356 . S
C1704 O1734 1.325 . S
N1705 C1708 1.314 . S
N1705 C1709 1.279 . S
C1706 C1704 1.348 . S
C1706 C1708 1.353 . S
C1706 H1748 0.929 . S
C1707 C1704 1.356 . S
C1707 C1709 1.358 . S
C1707 H1749 0.930 . S
C1708 N1705 1.314 . S
C1708 C1706 1.353 . S
C1708 H1750 0.930 . S
C1709 N1705 1.279 . S
C1709 C1707 1.358 . S
C1709 H1751 0.930 . S
C1710 C1711 1.348 . S
C1710 C1712 1.356 . S
C1710 O1735 1.325 . S
C1711 C1710 1.348 . S
C1711 C1713 1.353 . S
C1711 H1752 0.929 . S
C1712 C1710 1.356 . S
C1712 C1714 1.358 . S
C1712 H1753 0.930 . S
C1713 C1711 1.353 . S
C1713 N1715 1.314 . S
C1713 H1754 0.930 . S
C1714 C1712 1.358 . S
C1714 N1715 1.279 . S
C1714 H1755 0.930 . S
N1715 C1713 1.314 . S
N1715 C1714 1.279 . S
C1716 C1718 1.353 . S
C1716 N1719 1.314 . S
C1716 H1722 0.930 . S
C1717 N1719 1.279 . S
C1717 C1720 1.358 . S
C1717 H1723 0.930 . S
C1718 C1716 1.353 . S
C1718 C1721 1.348 . S
C1718 H1756 0.929 . S
N1719 Li1674 1.990 . S
N1719 C1716 1.314 . S
N1719 C1717 1.279 . S
C1720 C1717 1.358 . S
C1720 C1721 1.356 . S
C1720 H1757 0.930 . S
C1721 C1718 1.348 . S
C1721 C1720 1.356 . S
H1722 C1716 0.930 . S
H1723 C1717 0.930 . S
C1724 N1725 1.314 . S
C1724 C1726 1.353 . S
C1724 H1730 0.930 . S
N1725 Li1675 1.990 . S
N1725 C1724 1.314 . S
N1725 C1728 1.279 . S
C1726 C1724 1.353 . S
C1726 C1729 1.348 . S
C1726 H1758 0.929 . S
C1727 C1728 1.358 . S
C1727 C1729 1.356 . S
C1727 H1759 0.930 . S
C1728 N1725 1.279 . S
C1728 C1727 1.358 . S
C1728 H1731 0.930 . S
C1729 C1726 1.348 . S
C1729 C1727 1.356 . S
H1730 C1724 0.930 . S
H1731 C1728 0.930 . S
O1732 Li1672 1.956 . S
O1732 Li1673 1.970 . S
O1732 Li1674 1.961 . S
O1732 C1676 1.325 . S
O1733 Li1672 1.970 . S
O1733 Li1673 1.956 . S
O1733 Li1675 1.961 . S
O1733 C1682 1.325 . S
O1734 Li1672 1.961 . S
O1734 Li1674 1.956 . S
O1734 Li1675 1.970 . S
O1734 C1704 1.325 . S
O1735 Li1673 1.961 . S
O1735 Li1674 1.970 . S
O1735 Li1675 1.956 . S
O1735 C1710 1.325 . S
H1736 C1678 0.929 . S
H1737 C1679 0.930 . S
H1738 C1680 0.930 . S
H1739 C1681 0.930 . S
H1740 C1683 0.930 . S
H1741 C1685 0.929 . S
H1742 C1686 0.930 . S
H1743 C1687 0.930 . S
H1744 C1690 0.930 . S
H1745 C1693 0.929 . S
H1746 C1698 0.929 . S
H1747 C1699 0.930 . S
H1748 C1706 0.929 . S
H1749 C1707 0.930 . S
H1750 C1708 0.930 . S
H1751 C1709 0.930 . S
H1752 C1711 0.929 . S
H1753 C1712 0.930 . S
H1754 C1713 0.930 . S
H1755 C1714 0.930 . S
H1756 C1718 0.929 . S
H1757 C1720 0.930 . S
H1758 C1726 0.929 . S
H1759 C1727 0.930 . S
Li1760 N1777 1.990 . S
Li1760 O1820 1.956 . S
Li1760 O1821 1.970 . S
Li1760 O1822 1.961 . S
Li1761 N1785 1.990 . S
Li1761 O1820 1.970 . S
Li1761 O1821 1.956 . S
Li1761 O1823 1.961 . S
Li1762 N1807 1.990 . S
Li1762 O1820 1.961 . S
Li1762 O1822 1.956 . S
Li1762 O1823 1.970 . S
Li1763 N1813 1.990 . S
Li1763 O1821 1.961 . S
Li1763 O1822 1.970 . S
Li1763 O1823 1.956 . S
C1764 C1766 1.348 . S
C1764 C1767 1.356 . S
C1764 O1820 1.325 . S
N1765 C1768 1.314 . S
N1765 C1769 1.279 . S
C1766 C1764 1.348 . S
C1766 C1768 1.353 . S
C1766 H1824 0.929 . S
C1767 C1764 1.356 . S
C1767 C1769 1.358 . S
C1767 H1825 0.930 . S
C1768 N1765 1.314 . S
C1768 C1766 1.353 . S
C1768 H1826 0.930 . S
C1769 N1765 1.279 . S
C1769 C1767 1.358 . S
C1769 H1827 0.930 . S
C1770 C1773 1.348 . S
C1770 C1774 1.356 . S
C1770 O1821 1.325 . S
C1771 N1772 1.279 . S
C1771 C1774 1.358 . S
C1771 H1828 0.930 . S
N1772 C1771 1.279 . S
N1772 C1775 1.314 . S
C1773 C1770 1.348 . S
C1773 C1775 1.353 . S
C1773 H1829 0.929 . S
C1774 C1770 1.356 . S
C1774 C1771 1.358 . S
C1774 H1830 0.930 . S
C1775 N1772 1.314 . S
C1775 C1773 1.353 . S
C1775 H1831 0.930 . S
C1776 N1777 1.314 . S
C1776 C1781 1.353 . S
C1776 H1782 0.930 . S
N1777 Li1760 1.990 . S
N1777 C1776 1.314 . S
N1777 C1779 1.279 . S
C1778 C1779 1.358 . S
C1778 C1780 1.356 . S
C1778 H1832 0.930 . S
C1779 N1777 1.279 . S
C1779 C1778 1.358 . S
C1779 H1783 0.930 . S
C1780 C1778 1.356 . S
C1780 C1781 1.348 . S
C1781 C1776 1.353 . S
C1781 C1780 1.348 . S
C1781 H1833 0.929 . S
H1782 C1776 0.930 . S
H1783 C1779 0.930 . S
C1784 N1785 1.314 . S
C1784 C1786 1.353 . S
C1784 H1790 0.930 . S
N1785 Li1761 1.990 . S
N1785 C1784 1.314 . S
N1785 C1788 1.279 . S
C1786 C1784 1.353 . S
C1786 C1789 1.348 . S
C1786 H1834 0.929 . S
C1787 C1788 1.358 . S
C1787 C1789 1.356 . S
C1787 H1835 0.930 . S
C1788 N1785 1.279 . S
C1788 C1787 1.358 . S
C1788 H1791 0.930 . S
C1789 C1786 1.348 . S
C1789 C1787 1.356 . S
H1790 C1784 0.930 . S
H1791 C1788 0.930 . S
C1792 C1794 1.348 . S
C1792 C1795 1.356 . S
C1792 O1822 1.325 . S
N1793 C1796 1.314 . S
N1793 C1797 1.279 . S
C1794 C1792 1.348 . S
C1794 C1796 1.353 . S
C1794 H1836 0.929 . S
C1795 C1792 1.356 . S
C1795 C1797 1.358 . S
C1795 H1837 0.930 . S
C1796 N1793 1.314 . S
C1796 C1794 1.353 . S
C1796 H1838 0.930 . S
C1797 N1793 1.279 . S
C1797 C1795 1.358 . S
C1797 H1839 0.930 . S
C1798 C1799 1.348 . S
C1798 C1800 1.356 . S
C1798 O1823 1.325 . S
C1799 C1798 1.348 . S
C1799 C1801 1.353 . S
C1799 H1840 0.929 . S
C1800 C1798 1.356 . S
C1800 C1802 1.358 . S
C1800 H1841 0.930 . S
C1801 C1799 1.353 . S
C1801 N1803 1.314 . S
C1801 H1842 0.930 . S
C1802 C1800 1.358 . S
C1802 N1803 1.279 . S
C1802 H1843 0.930 . S
N1803 C1801 1.314 . S
N1803 C1802 1.279 . S
C1804 C1806 1.353 . S
C1804 N1807 1.314 . S
C1804 H1810 0.930 . S
C1805 N1807 1.279 . S
C1805 C1808 1.358 . S
C1805 H1811 0.930 . S
C1806 C1804 1.353 . S
C1806 C1809 1.348 . S
C1806 H1844 0.929 . S
N1807 Li1762 1.990 . S
N1807 C1804 1.314 . S
N1807 C1805 1.279 . S
C1808 C1805 1.358 . S
C1808 C1809 1.356 . S
C1808 H1845 0.930 . S
C1809 C1806 1.348 . S
C1809 C1808 1.356 . S
H1810 C1804 0.930 . S
H1811 C1805 0.930 . S
C1812 N1813 1.314 . S
C1812 C1814 1.353 . S
C1812 H1818 0.930 . S
N1813 Li1763 1.990 . S
N1813 C1812 1.314 . S
N1813 C1816 1.279 . S
C1814 C1812 1.353 . S
C1814 C1817 1.348 . S
C1814 H1846 0.929 . S
C1815 C1816 1.358 . S
C1815 C1817 1.356 . S
C1815 H1847 0.930 . S
C1816 N1813 1.279 . S
C1816 C1815 1.358 . S
C1816 H1819 0.930 . S
C1817 C1814 1.348 . S
C1817 C1815 1.356 . S
H1818 C1812 0.930 . S
H1819 C1816 0.930 . S
O1820 Li1760 1.956 . S
O1820 Li1761 1.970 . S
O1820 Li1762 1.961 . S
O1820 C1764 1.325 . S
O1821 Li1760 1.970 . S
O1821 Li1761 1.956 . S
O1821 Li1763 1.961 . S
O1821 C1770 1.325 . S
O1822 Li1760 1.961 . S
O1822 Li1762 1.956 . S
O1822 Li1763 1.970 . S
O1822 C1792 1.325 . S
O1823 Li1761 1.961 . S
O1823 Li1762 1.970 . S
O1823 Li1763 1.956 . S
O1823 C1798 1.325 . S
H1824 C1766 0.929 . S
H1825 C1767 0.930 . S
H1826 C1768 0.930 . S
H1827 C1769 0.930 . S
H1828 C1771 0.930 . S
H1829 C1773 0.929 . S
H1830 C1774 0.930 . S
H1831 C1775 0.930 . S
H1832 C1778 0.930 . S
H1833 C1781 0.929 . S
H1834 C1786 0.929 . S
H1835 C1787 0.930 . S
H1836 C1794 0.929 . S
H1837 C1795 0.930 . S
H1838 C1796 0.930 . S
H1839 C1797 0.930 . S
H1840 C1799 0.929 . S
H1841 C1800 0.930 . S
H1842 C1801 0.930 . S
H1843 C1802 0.930 . S
H1844 C1806 0.929 . S
H1845 C1808 0.930 . S
H1846 C1814 0.929 . S
H1847 C1815 0.930 . S
Li1848 N1865 1.990 . S
Li1848 O1908 1.956 . S
Li1848 O1909 1.970 . S
Li1848 O1910 1.961 . S
Li1849 N1873 1.990 . S
Li1849 O1908 1.970 . S
Li1849 O1909 1.956 . S
Li1849 O1911 1.961 . S
Li1850 N1895 1.990 . S
Li1850 O1908 1.961 . S
Li1850 O1910 1.956 . S
Li1850 O1911 1.970 . S
Li1851 N1901 1.990 . S
Li1851 O1909 1.961 . S
Li1851 O1910 1.970 . S
Li1851 O1911 1.956 . S
C1852 C1854 1.348 . S
C1852 C1855 1.356 . S
C1852 O1908 1.325 . S
N1853 C1856 1.314 . S
N1853 C1857 1.279 . S
C1854 C1852 1.348 . S
C1854 C1856 1.353 . S
C1854 H1912 0.929 . S
C1855 C1852 1.356 . S
C1855 C1857 1.358 . S
C1855 H1913 0.930 . S
C1856 N1853 1.314 . S
C1856 C1854 1.353 . S
C1856 H1914 0.930 . S
C1857 N1853 1.279 . S
C1857 C1855 1.358 . S
C1857 H1915 0.930 . S
C1858 C1861 1.348 . S
C1858 C1862 1.356 . S
C1858 O1909 1.325 . S
C1859 N1860 1.279 . S
C1859 C1862 1.358 . S
C1859 H1916 0.930 . S
N1860 C1859 1.279 . S
N1860 C1863 1.314 . S
C1861 C1858 1.348 . S
C1861 C1863 1.353 . S
C1861 H1917 0.929 . S
C1862 C1858 1.356 . S
C1862 C1859 1.358 . S
C1862 H1918 0.930 . S
C1863 N1860 1.314 . S
C1863 C1861 1.353 . S
C1863 H1919 0.930 . S
C1864 N1865 1.314 . S
C1864 C1869 1.353 . S
C1864 H1870 0.930 . S
N1865 Li1848 1.990 . S
N1865 C1864 1.314 . S
N1865 C1867 1.279 . S
C1866 C1867 1.358 . S
C1866 C1868 1.356 . S
C1866 H1920 0.930 . S
C1867 N1865 1.279 . S
C1867 C1866 1.358 . S
C1867 H1871 0.930 . S
C1868 C1866 1.356 . S
C1868 C1869 1.348 . S
C1869 C1864 1.353 . S
C1869 C1868 1.348 . S
C1869 H1921 0.929 . S
H1870 C1864 0.930 . S
H1871 C1867 0.930 . S
C1872 N1873 1.314 . S
C1872 C1874 1.353 . S
C1872 H1878 0.930 . S
N1873 Li1849 1.990 . S
N1873 C1872 1.314 . S
N1873 C1876 1.279 . S
C1874 C1872 1.353 . S
C1874 C1877 1.348 . S
C1874 H1922 0.929 . S
C1875 C1876 1.358 . S
C1875 C1877 1.356 . S
C1875 H1923 0.930 . S
C1876 N1873 1.279 . S
C1876 C1875 1.358 . S
C1876 H1879 0.930 . S
C1877 C1874 1.348 . S
C1877 C1875 1.356 . S
H1878 C1872 0.930 . S
H1879 C1876 0.930 . S
C1880 C1882 1.348 . S
C1880 C1883 1.356 . S
C1880 O1910 1.325 . S
N1881 C1884 1.314 . S
N1881 C1885 1.279 . S
C1882 C1880 1.348 . S
C1882 C1884 1.353 . S
C1882 H1924 0.929 . S
C1883 C1880 1.356 . S
C1883 C1885 1.358 . S
C1883 H1925 0.930 . S
C1884 N1881 1.314 . S
C1884 C1882 1.353 . S
C1884 H1926 0.930 . S
C1885 N1881 1.279 . S
C1885 C1883 1.358 . S
C1885 H1927 0.930 . S
C1886 C1887 1.348 . S
C1886 C1888 1.356 . S
C1886 O1911 1.325 . S
C1887 C1886 1.348 . S
C1887 C1889 1.353 . S
C1887 H1928 0.929 . S
C1888 C1886 1.356 . S
C1888 C1890 1.358 . S
C1888 H1929 0.930 . S
C1889 C1887 1.353 . S
C1889 N1891 1.314 . S
C1889 H1930 0.930 . S
C1890 C1888 1.358 . S
C1890 N1891 1.279 . S
C1890 H1931 0.930 . S
N1891 C1889 1.314 . S
N1891 C1890 1.279 . S
C1892 C1894 1.353 . S
C1892 N1895 1.314 . S
C1892 H1898 0.930 . S
C1893 N1895 1.279 . S
C1893 C1896 1.358 . S
C1893 H1899 0.930 . S
C1894 C1892 1.353 . S
C1894 C1897 1.348 . S
C1894 H1932 0.929 . S
N1895 Li1850 1.990 . S
N1895 C1892 1.314 . S
N1895 C1893 1.279 . S
C1896 C1893 1.358 . S
C1896 C1897 1.356 . S
C1896 H1933 0.930 . S
C1897 C1894 1.348 . S
C1897 C1896 1.356 . S
H1898 C1892 0.930 . S
H1899 C1893 0.930 . S
C1900 N1901 1.314 . S
C1900 C1902 1.353 . S
C1900 H1906 0.930 . S
N1901 Li1851 1.990 . S
N1901 C1900 1.314 . S
N1901 C1904 1.279 . S
C1902 C1900 1.353 . S
C1902 C1905 1.348 . S
C1902 H1934 0.929 . S
C1903 C1904 1.358 . S
C1903 C1905 1.356 . S
C1903 H1935 0.930 . S
C1904 N1901 1.279 . S
C1904 C1903 1.358 . S
C1904 H1907 0.930 . S
C1905 C1902 1.348 . S
C1905 C1903 1.356 . S
H1906 C1900 0.930 . S
H1907 C1904 0.930 . S
O1908 Li1848 1.956 . S
O1908 Li1849 1.970 . S
O1908 Li1850 1.961 . S
O1908 C1852 1.325 . S
O1909 Li1848 1.970 . S
O1909 Li1849 1.956 . S
O1909 Li1851 1.961 . S
O1909 C1858 1.325 . S
O1910 Li1848 1.961 . S
O1910 Li1850 1.956 . S
O1910 Li1851 1.970 . S
O1910 C1880 1.325 . S
O1911 Li1849 1.961 . S
O1911 Li1850 1.970 . S
O1911 Li1851 1.956 . S
O1911 C1886 1.325 . S
H1912 C1854 0.929 . S
H1913 C1855 0.930 . S
H1914 C1856 0.930 . S
H1915 C1857 0.930 . S
H1916 C1859 0.930 . S
H1917 C1861 0.929 . S
H1918 C1862 0.930 . S
H1919 C1863 0.930 . S
H1920 C1866 0.930 . S
H1921 C1869 0.929 . S
H1922 C1874 0.929 . S
H1923 C1875 0.930 . S
H1924 C1882 0.929 . S
H1925 C1883 0.930 . S
H1926 C1884 0.930 . S
H1927 C1885 0.930 . S
H1928 C1887 0.929 . S
H1929 C1888 0.930 . S
H1930 C1889 0.930 . S
H1931 C1890 0.930 . S
H1932 C1894 0.929 . S
H1933 C1896 0.930 . S
H1934 C1902 0.929 . S
H1935 C1903 0.930 . S
Li1936 N1953 1.990 . S
Li1936 O1996 1.956 . S
Li1936 O1997 1.970 . S
Li1936 O1998 1.961 . S
Li1937 N1961 1.990 . S
Li1937 O1996 1.970 . S
Li1937 O1997 1.956 . S
Li1937 O1999 1.961 . S
Li1938 N1983 1.990 . S
Li1938 O1996 1.961 . S
Li1938 O1998 1.956 . S
Li1938 O1999 1.970 . S
Li1939 N1989 1.990 . S
Li1939 O1997 1.961 . S
Li1939 O1998 1.970 . S
Li1939 O1999 1.956 . S
C1940 C1942 1.348 . S
C1940 C1943 1.356 . S
C1940 O1996 1.325 . S
N1941 C1944 1.314 . S
N1941 C1945 1.279 . S
C1942 C1940 1.348 . S
C1942 C1944 1.353 . S
C1942 H2000 0.929 . S
C1943 C1940 1.356 . S
C1943 C1945 1.358 . S
C1943 H2001 0.930 . S
C1944 N1941 1.314 . S
C1944 C1942 1.353 . S
C1944 H2002 0.930 . S
C1945 N1941 1.279 . S
C1945 C1943 1.358 . S
C1945 H2003 0.930 . S
C1946 C1949 1.348 . S
C1946 C1950 1.356 . S
C1946 O1997 1.325 . S
C1947 N1948 1.279 . S
C1947 C1950 1.358 . S
C1947 H2004 0.930 . S
N1948 C1947 1.279 . S
N1948 C1951 1.314 . S
C1949 C1946 1.348 . S
C1949 C1951 1.353 . S
C1949 H2005 0.929 . S
C1950 C1946 1.356 . S
C1950 C1947 1.358 . S
C1950 H2006 0.930 . S
C1951 N1948 1.314 . S
C1951 C1949 1.353 . S
C1951 H2007 0.930 . S
C1952 N1953 1.314 . S
C1952 C1957 1.353 . S
C1952 H1958 0.930 . S
N1953 Li1936 1.990 . S
N1953 C1952 1.314 . S
N1953 C1955 1.279 . S
C1954 C1955 1.358 . S
C1954 C1956 1.356 . S
C1954 H2008 0.930 . S
C1955 N1953 1.279 . S
C1955 C1954 1.358 . S
C1955 H1959 0.930 . S
C1956 C1954 1.356 . S
C1956 C1957 1.348 . S
C1957 C1952 1.353 . S
C1957 C1956 1.348 . S
C1957 H2009 0.929 . S
H1958 C1952 0.930 . S
H1959 C1955 0.930 . S
C1960 N1961 1.314 . S
C1960 C1962 1.353 . S
C1960 H1966 0.930 . S
N1961 Li1937 1.990 . S
N1961 C1960 1.314 . S
N1961 C1964 1.279 . S
C1962 C1960 1.353 . S
C1962 C1965 1.348 1_556 S
C1962 H2010 0.929 . S
C1963 C1964 1.358 1_554 S
C1963 C1965 1.356 . S
C1963 H2011 0.930 . S
C1964 N1961 1.279 . S
C1964 C1963 1.358 1_556 S
C1964 H1967 0.930 . S
C1965 C1962 1.348 1_554 S
C1965 C1963 1.356 . S
H1966 C1960 0.930 . S
H1967 C1964 0.930 . S
C1968 C1970 1.348 . S
C1968 C1971 1.356 . S
C1968 O1998 1.325 . S
N1969 C1972 1.314 . S
N1969 C1973 1.279 . S
C1970 C1968 1.348 . S
C1970 C1972 1.353 . S
C1970 H2012 0.929 . S
C1971 C1968 1.356 . S
C1971 C1973 1.358 . S
C1971 H2013 0.930 . S
C1972 N1969 1.314 . S
C1972 C1970 1.353 . S
C1972 H2014 0.930 . S
C1973 N1969 1.279 . S
C1973 C1971 1.358 . S
C1973 H2015 0.930 . S
C1974 C1975 1.348 . S
C1974 C1976 1.356 . S
C1974 O1999 1.325 . S
C1975 C1974 1.348 . S
C1975 C1977 1.353 . S
C1975 H2016 0.929 . S
C1976 C1974 1.356 . S
C1976 C1978 1.358 . S
C1976 H2017 0.930 . S
C1977 C1975 1.353 . S
C1977 N1979 1.314 . S
C1977 H2018 0.930 . S
C1978 C1976 1.358 . S
C1978 N1979 1.279 . S
C1978 H2019 0.930 . S
N1979 C1977 1.314 . S
N1979 C1978 1.279 . S
C1980 C1982 1.353 . S
C1980 N1983 1.314 . S
C1980 H1986 0.930 . S
C1981 N1983 1.279 . S
C1981 C1984 1.358 . S
C1981 H1987 0.930 . S
C1982 C1980 1.353 . S
C1982 C1985 1.348 . S
C1982 H2020 0.929 . S
N1983 Li1938 1.990 . S
N1983 C1980 1.314 . S
N1983 C1981 1.279 . S
C1984 C1981 1.358 . S
C1984 C1985 1.356 . S
C1984 H2021 0.930 . S
C1985 C1982 1.348 . S
C1985 C1984 1.356 . S
H1986 C1980 0.930 . S
H1987 C1981 0.930 . S
C1988 N1989 1.314 . S
C1988 C1990 1.353 . S
C1988 H1994 0.930 . S
N1989 Li1939 1.990 . S
N1989 C1988 1.314 . S
N1989 C1992 1.279 . S
C1990 C1988 1.353 . S
C1990 C1993 1.348 . S
C1990 H2022 0.929 . S
C1991 C1992 1.358 . S
C1991 C1993 1.356 . S
C1991 H2023 0.930 . S
C1992 N1989 1.279 . S
C1992 C1991 1.358 . S
C1992 H1995 0.930 . S
C1993 C1990 1.348 . S
C1993 C1991 1.356 . S
H1994 C1988 0.930 . S
H1995 C1992 0.930 . S
O1996 Li1936 1.956 . S
O1996 Li1937 1.970 . S
O1996 Li1938 1.961 . S
O1996 C1940 1.325 . S
O1997 Li1936 1.970 . S
O1997 Li1937 1.956 . S
O1997 Li1939 1.961 . S
O1997 C1946 1.325 . S
O1998 Li1936 1.961 . S
O1998 Li1938 1.956 . S
O1998 Li1939 1.970 . S
O1998 C1968 1.325 . S
O1999 Li1937 1.961 . S
O1999 Li1938 1.970 . S
O1999 Li1939 1.956 . S
O1999 C1974 1.325 . S
H2000 C1942 0.929 . S
H2001 C1943 0.930 . S
H2002 C1944 0.930 . S
H2003 C1945 0.930 . S
H2004 C1947 0.930 . S
H2005 C1949 0.929 . S
H2006 C1950 0.930 . S
H2007 C1951 0.930 . S
H2008 C1954 0.930 . S
H2009 C1957 0.929 . S
H2010 C1962 0.929 . S
H2011 C1963 0.930 . S
H2012 C1970 0.929 . S
H2013 C1971 0.930 . S
H2014 C1972 0.930 . S
H2015 C1973 0.930 . S
H2016 C1975 0.929 . S
H2017 C1976 0.930 . S
H2018 C1977 0.930 . S
H2019 C1978 0.930 . S
H2020 C1982 0.929 . S
H2021 C1984 0.930 . S
H2022 C1990 0.929 . S
H2023 C1991 0.930 . S
Li2024 N2041 1.990 . S
Li2024 O2084 1.956 . S
Li2024 O2085 1.970 . S
Li2024 O2086 1.961 . S
Li2025 N2049 1.990 . S
Li2025 O2084 1.970 . S
Li2025 O2085 1.956 . S
Li2025 O2087 1.961 . S
Li2026 N2071 1.990 . S
Li2026 O2084 1.961 . S
Li2026 O2086 1.956 . S
Li2026 O2087 1.970 . S
Li2027 N2077 1.990 . S
Li2027 O2085 1.961 . S
Li2027 O2086 1.970 . S
Li2027 O2087 1.956 . S
C2028 C2030 1.348 . S
C2028 C2031 1.356 . S
C2028 O2084 1.325 . S
N2029 C2032 1.314 . S
N2029 C2033 1.279 . S
C2030 C2028 1.348 . S
C2030 C2032 1.353 . S
C2030 H2088 0.929 . S
C2031 C2028 1.356 . S
C2031 C2033 1.358 . S
C2031 H2089 0.930 . S
C2032 N2029 1.314 . S
C2032 C2030 1.353 . S
C2032 H2090 0.930 . S
C2033 N2029 1.279 . S
C2033 C2031 1.358 . S
C2033 H2091 0.930 . S
C2034 C2037 1.348 . S
C2034 C2038 1.356 . S
C2034 O2085 1.325 . S
C2035 N2036 1.279 . S
C2035 C2038 1.358 . S
C2035 H2092 0.930 . S
N2036 C2035 1.279 . S
N2036 C2039 1.314 . S
C2037 C2034 1.348 . S
C2037 C2039 1.353 . S
C2037 H2093 0.929 . S
C2038 C2034 1.356 . S
C2038 C2035 1.358 . S
C2038 H2094 0.930 . S
C2039 N2036 1.314 . S
C2039 C2037 1.353 . S
C2039 H2095 0.930 . S
C2040 N2041 1.314 . S
C2040 C2045 1.353 . S
C2040 H2046 0.930 . S
N2041 Li2024 1.990 . S
N2041 C2040 1.314 . S
N2041 C2043 1.279 . S
C2042 C2043 1.358 . S
C2042 C2044 1.356 . S
C2042 H2096 0.930 . S
C2043 N2041 1.279 . S
C2043 C2042 1.358 . S
C2043 H2047 0.930 . S
C2044 C2042 1.356 . S
C2044 C2045 1.348 . S
C2045 C2040 1.353 . S
C2045 C2044 1.348 . S
C2045 H2097 0.929 . S
H2046 C2040 0.930 . S
H2047 C2043 0.930 . S
C2048 N2049 1.314 . S
C2048 C2050 1.353 . S
C2048 H2054 0.930 . S
N2049 Li2025 1.990 . S
N2049 C2048 1.314 . S
N2049 C2052 1.279 . S
C2050 C2048 1.353 . S
C2050 C2053 1.348 . S
C2050 H2098 0.929 . S
C2051 C2052 1.358 . S
C2051 C2053 1.356 . S
C2051 H2099 0.930 . S
C2052 N2049 1.279 . S
C2052 C2051 1.358 . S
C2052 H2055 0.930 . S
C2053 C2050 1.348 . S
C2053 C2051 1.356 . S
H2054 C2048 0.930 . S
H2055 C2052 0.930 . S
C2056 C2058 1.348 . S
C2056 C2059 1.356 . S
C2056 O2086 1.325 . S
N2057 C2060 1.314 . S
N2057 C2061 1.279 . S
C2058 C2056 1.348 . S
C2058 C2060 1.353 1_554 S
C2058 H2100 0.929 . S
C2059 C2056 1.356 . S
C2059 C2061 1.358 1_554 S
C2059 H2101 0.930 . S
C2060 N2057 1.314 . S
C2060 C2058 1.353 1_556 S
C2060 H2102 0.930 . S
C2061 N2057 1.279 . S
C2061 C2059 1.358 1_556 S
C2061 H2103 0.930 . S
C2062 C2063 1.348 . S
C2062 C2064 1.356 . S
C2062 O2087 1.325 . S
C2063 C2062 1.348 . S
C2063 C2065 1.353 . S
C2063 H2104 0.929 . S
C2064 C2062 1.356 . S
C2064 C2066 1.358 . S
C2064 H2105 0.930 . S
C2065 C2063 1.353 . S
C2065 N2067 1.314 . S
C2065 H2106 0.930 . S
C2066 C2064 1.358 . S
C2066 N2067 1.279 . S
C2066 H2107 0.930 . S
N2067 C2065 1.314 . S
N2067 C2066 1.279 . S
C2068 C2070 1.353 . S
C2068 N2071 1.314 . S
C2068 H2074 0.930 . S
C2069 N2071 1.279 1_556 S
C2069 C2072 1.358 . S
C2069 H2075 0.930 . S
C2070 C2068 1.353 . S
C2070 C2073 1.348 1_554 S
C2070 H2108 0.929 . S
N2071 Li2026 1.990 . S
N2071 C2068 1.314 . S
N2071 C2069 1.279 1_554 S
C2072 C2069 1.358 . S
C2072 C2073 1.356 . S
C2072 H2109 0.930 . S
C2073 C2070 1.348 1_556 S
C2073 C2072 1.356 . S
H2074 C2068 0.930 . S
H2075 C2069 0.930 . S
C2076 N2077 1.314 . S
C2076 C2078 1.353 . S
C2076 H2082 0.930 . S
N2077 Li2027 1.990 . S
N2077 C2076 1.314 . S
N2077 C2080 1.279 . S
C2078 C2076 1.353 . S
C2078 C2081 1.348 . S
C2078 H2110 0.929 . S
C2079 C2080 1.358 . S
C2079 C2081 1.356 . S
C2079 H2111 0.930 . S
C2080 N2077 1.279 . S
C2080 C2079 1.358 . S
C2080 H2083 0.930 . S
C2081 C2078 1.348 . S
C2081 C2079 1.356 . S
H2082 C2076 0.930 . S
H2083 C2080 0.930 . S
O2084 Li2024 1.956 . S
O2084 Li2025 1.970 . S
O2084 Li2026 1.961 . S
O2084 C2028 1.325 . S
O2085 Li2024 1.970 . S
O2085 Li2025 1.956 . S
O2085 Li2027 1.961 . S
O2085 C2034 1.325 . S
O2086 Li2024 1.961 . S
O2086 Li2026 1.956 . S
O2086 Li2027 1.970 . S
O2086 C2056 1.325 . S
O2087 Li2025 1.961 . S
O2087 Li2026 1.970 . S
O2087 Li2027 1.956 . S
O2087 C2062 1.325 . S
H2088 C2030 0.929 . S
H2089 C2031 0.930 . S
H2090 C2032 0.930 . S
H2091 C2033 0.930 . S
H2092 C2035 0.930 . S
H2093 C2037 0.929 . S
H2094 C2038 0.930 . S
H2095 C2039 0.930 . S
H2096 C2042 0.930 . S
H2097 C2045 0.929 . S
H2098 C2050 0.929 . S
H2099 C2051 0.930 . S
H2100 C2058 0.929 . S
H2101 C2059 0.930 . S
H2102 C2060 0.930 . S
H2103 C2061 0.930 . S
H2104 C2063 0.929 . S
H2105 C2064 0.930 . S
H2106 C2065 0.930 . S
H2107 C2066 0.930 . S
H2108 C2070 0.929 . S
H2109 C2072 0.930 . S
H2110 C2078 0.929 . S
H2111 C2079 0.930 . S
Li2112 N2129 1.990 . S
Li2112 O2172 1.956 . S
Li2112 O2173 1.970 . S
Li2112 O2174 1.961 . S
Li2113 N2137 1.990 . S
Li2113 O2172 1.970 . S
Li2113 O2173 1.956 . S
Li2113 O2175 1.961 . S
Li2114 N2159 1.990 . S
Li2114 O2172 1.961 . S
Li2114 O2174 1.956 . S
Li2114 O2175 1.970 . S
Li2115 N2165 1.990 . S
Li2115 O2173 1.961 . S
Li2115 O2174 1.970 . S
Li2115 O2175 1.956 . S
C2116 C2118 1.348 . S
C2116 C2119 1.356 . S
C2116 O2172 1.325 . S
N2117 C2120 1.314 . S
N2117 C2121 1.279 . S
C2118 C2116 1.348 . S
C2118 C2120 1.353 . S
C2118 H2176 0.929 . S
C2119 C2116 1.356 . S
C2119 C2121 1.358 . S
C2119 H2177 0.930 . S
C2120 N2117 1.314 . S
C2120 C2118 1.353 . S
C2120 H2178 0.930 . S
C2121 N2117 1.279 . S
C2121 C2119 1.358 . S
C2121 H2179 0.930 . S
C2122 C2125 1.348 . S
C2122 C2126 1.356 . S
C2122 O2173 1.325 . S
C2123 N2124 1.279 . S
C2123 C2126 1.358 . S
C2123 H2180 0.930 . S
N2124 C2123 1.279 . S
N2124 C2127 1.314 . S
C2125 C2122 1.348 . S
C2125 C2127 1.353 . S
C2125 H2181 0.929 . S
C2126 C2122 1.356 . S
C2126 C2123 1.358 . S
C2126 H2182 0.930 . S
C2127 N2124 1.314 . S
C2127 C2125 1.353 . S
C2127 H2183 0.930 . S
C2128 N2129 1.314 . S
C2128 C2133 1.353 . S
C2128 H2134 0.930 . S
N2129 Li2112 1.990 . S
N2129 C2128 1.314 . S
N2129 C2131 1.279 . S
C2130 C2131 1.358 . S
C2130 C2132 1.356 . S
C2130 H2184 0.930 . S
C2131 N2129 1.279 . S
C2131 C2130 1.358 . S
C2131 H2135 0.930 . S
C2132 C2130 1.356 . S
C2132 C2133 1.348 . S
C2133 C2128 1.353 . S
C2133 C2132 1.348 . S
C2133 H2185 0.929 . S
H2134 C2128 0.930 . S
H2135 C2131 0.930 . S
C2136 N2137 1.314 . S
C2136 C2138 1.353 . S
C2136 H2142 0.930 . S
N2137 Li2113 1.990 . S
N2137 C2136 1.314 . S
N2137 C2140 1.279 . S
C2138 C2136 1.353 . S
C2138 C2141 1.348 . S
C2138 H2186 0.929 . S
C2139 C2140 1.358 . S
C2139 C2141 1.356 . S
C2139 H2187 0.930 . S
C2140 N2137 1.279 . S
C2140 C2139 1.358 . S
C2140 H2143 0.930 . S
C2141 C2138 1.348 . S
C2141 C2139 1.356 . S
H2142 C2136 0.930 . S
H2143 C2140 0.930 . S
C2144 C2146 1.348 . S
C2144 C2147 1.356 . S
C2144 O2174 1.325 . S
N2145 C2148 1.314 . S
N2145 C2149 1.279 . S
C2146 C2144 1.348 . S
C2146 C2148 1.353 . S
C2146 H2188 0.929 . S
C2147 C2144 1.356 . S
C2147 C2149 1.358 . S
C2147 H2189 0.930 . S
C2148 N2145 1.314 . S
C2148 C2146 1.353 . S
C2148 H2190 0.930 . S
C2149 N2145 1.279 . S
C2149 C2147 1.358 . S
C2149 H2191 0.930 . S
C2150 C2151 1.348 . S
C2150 C2152 1.356 . S
C2150 O2175 1.325 . S
C2151 C2150 1.348 . S
C2151 C2153 1.353 . S
C2151 H2192 0.929 . S
C2152 C2150 1.356 . S
C2152 C2154 1.358 . S
C2152 H2193 0.930 . S
C2153 C2151 1.353 . S
C2153 N2155 1.314 . S
C2153 H2194 0.930 . S
C2154 C2152 1.358 . S
C2154 N2155 1.279 . S
C2154 H2195 0.930 . S
N2155 C2153 1.314 . S
N2155 C2154 1.279 . S
C2156 C2158 1.353 . S
C2156 N2159 1.314 . S
C2156 H2162 0.930 . S
C2157 N2159 1.279 . S
C2157 C2160 1.358 . S
C2157 H2163 0.930 . S
C2158 C2156 1.353 . S
C2158 C2161 1.348 . S
C2158 H2196 0.929 . S
N2159 Li2114 1.990 . S
N2159 C2156 1.314 . S
N2159 C2157 1.279 . S
C2160 C2157 1.358 . S
C2160 C2161 1.356 . S
C2160 H2197 0.930 . S
C2161 C2158 1.348 . S
C2161 C2160 1.356 . S
H2162 C2156 0.930 . S
H2163 C2157 0.930 . S
C2164 N2165 1.314 . S
C2164 C2166 1.353 . S
C2164 H2170 0.930 . S
N2165 Li2115 1.990 . S
N2165 C2164 1.314 . S
N2165 C2168 1.279 . S
C2166 C2164 1.353 . S
C2166 C2169 1.348 . S
C2166 H2198 0.929 . S
C2167 C2168 1.358 . S
C2167 C2169 1.356 . S
C2167 H2199 0.930 . S
C2168 N2165 1.279 . S
C2168 C2167 1.358 . S
C2168 H2171 0.930 . S
C2169 C2166 1.348 . S
C2169 C2167 1.356 . S
H2170 C2164 0.930 . S
H2171 C2168 0.930 . S
O2172 Li2112 1.956 . S
O2172 Li2113 1.970 . S
O2172 Li2114 1.961 . S
O2172 C2116 1.325 . S
O2173 Li2112 1.970 . S
O2173 Li2113 1.956 . S
O2173 Li2115 1.961 . S
O2173 C2122 1.325 . S
O2174 Li2112 1.961 . S
O2174 Li2114 1.956 . S
O2174 Li2115 1.970 . S
O2174 C2144 1.325 . S
O2175 Li2113 1.961 . S
O2175 Li2114 1.970 . S
O2175 Li2115 1.956 . S
O2175 C2150 1.325 . S
H2176 C2118 0.929 . S
H2177 C2119 0.930 . S
H2178 C2120 0.930 . S
H2179 C2121 0.930 . S
H2180 C2123 0.930 . S
H2181 C2125 0.929 . S
H2182 C2126 0.930 . S
H2183 C2127 0.930 . S
H2184 C2130 0.930 . S
H2185 C2133 0.929 . S
H2186 C2138 0.929 . S
H2187 C2139 0.930 . S
H2188 C2146 0.929 . S
H2189 C2147 0.930 . S
H2190 C2148 0.930 . S
H2191 C2149 0.930 . S
H2192 C2151 0.929 . S
H2193 C2152 0.930 . S
H2194 C2153 0.930 . S
H2195 C2154 0.930 . S
H2196 C2158 0.929 . S
H2197 C2160 0.930 . S
H2198 C2166 0.929 . S
H2199 C2167 0.930 . S
Li2200 N2217 1.990 . S
Li2200 O2260 1.956 . S
Li2200 O2261 1.970 . S
Li2200 O2262 1.961 . S
Li2201 N2225 1.990 . S
Li2201 O2260 1.970 . S
Li2201 O2261 1.956 . S
Li2201 O2263 1.961 . S
Li2202 N2247 1.990 . S
Li2202 O2260 1.961 . S
Li2202 O2262 1.956 . S
Li2202 O2263 1.970 . S
Li2203 N2253 1.990 . S
Li2203 O2261 1.961 . S
Li2203 O2262 1.970 . S
Li2203 O2263 1.956 . S
C2204 C2206 1.348 . S
C2204 C2207 1.356 . S
C2204 O2260 1.325 . S
N2205 C2208 1.314 . S
N2205 C2209 1.279 . S
C2206 C2204 1.348 . S
C2206 C2208 1.353 . S
C2206 H2264 0.929 . S
C2207 C2204 1.356 . S
C2207 C2209 1.358 . S
C2207 H2265 0.930 . S
C2208 N2205 1.314 . S
C2208 C2206 1.353 . S
C2208 H2266 0.930 . S
C2209 N2205 1.279 . S
C2209 C2207 1.358 . S
C2209 H2267 0.930 . S
C2210 C2213 1.348 . S
C2210 C2214 1.356 . S
C2210 O2261 1.325 . S
C2211 N2212 1.279 . S
C2211 C2214 1.358 . S
C2211 H2268 0.930 . S
N2212 C2211 1.279 . S
N2212 C2215 1.314 . S
C2213 C2210 1.348 . S
C2213 C2215 1.353 . S
C2213 H2269 0.929 . S
C2214 C2210 1.356 . S
C2214 C2211 1.358 . S
C2214 H2270 0.930 . S
C2215 N2212 1.314 . S
C2215 C2213 1.353 . S
C2215 H2271 0.930 . S
C2216 N2217 1.314 1_556 S
C2216 C2221 1.353 . S
C2216 H2222 0.930 . S
N2217 Li2200 1.990 . S
N2217 C2216 1.314 1_554 S
N2217 C2219 1.279 . S
C2218 C2219 1.358 1_556 S
C2218 C2220 1.356 . S
C2218 H2272 0.928 1_556 S
C2219 N2217 1.279 . S
C2219 C2218 1.358 1_554 S
C2219 H2223 0.930 . S
C2220 C2218 1.356 . S
C2220 C2221 1.348 . S
C2221 C2216 1.353 . S
C2221 C2220 1.348 . S
C2221 H2273 0.929 . S
H2222 C2216 0.930 . S
H2223 C2219 0.930 . S
C2224 N2225 1.314 . S
C2224 C2226 1.353 . S
C2224 H2230 0.930 . S
N2225 Li2201 1.990 . S
N2225 C2224 1.314 . S
N2225 C2228 1.279 . S
C2226 C2224 1.353 . S
C2226 C2229 1.348 . S
C2226 H2274 0.929 . S
C2227 C2228 1.358 . S
C2227 C2229 1.356 . S
C2227 H2275 0.930 . S
C2228 N2225 1.279 . S
C2228 C2227 1.358 . S
C2228 H2231 0.930 . S
C2229 C2226 1.348 . S
C2229 C2227 1.356 . S
H2230 C2224 0.930 . S
H2231 C2228 0.930 . S
C2232 C2234 1.348 . S
C2232 C2235 1.366 . S
C2232 O2262 1.325 . S
N2233 C2236 1.314 . S
N2233 C2237 1.279 . S
C2234 C2232 1.348 . S
C2234 C2236 1.353 1_554 S
C2234 H2276 0.929 . S
C2235 C2232 1.366 . S
C2235 C2237 1.346 1_554 S
C2235 H2277 0.932 . S
C2236 N2233 1.314 . S
C2236 C2234 1.353 1_556 S
C2236 H2278 0.930 . S
C2237 N2233 1.279 . S
C2237 C2235 1.346 1_556 S
C2237 H2279 0.930 . S
C2238 C2239 1.348 . S
C2238 C2240 1.356 . S
C2238 O2263 1.325 . S
C2239 C2238 1.348 . S
C2239 C2241 1.353 . S
C2239 H2280 0.929 . S
C2240 C2238 1.356 . S
C2240 C2242 1.358 . S
C2240 H2281 0.930 . S
C2241 C2239 1.353 . S
C2241 N2243 1.314 . S
C2241 H2282 0.930 . S
C2242 C2240 1.358 . S
C2242 N2243 1.279 . S
C2242 H2283 0.930 . S
N2243 C2241 1.314 . S
N2243 C2242 1.279 . S
C2244 C2246 1.353 . S
C2244 N2247 1.314 . S
C2244 H2250 0.930 . S
C2245 N2247 1.279 . S
C2245 C2248 1.358 . S
C2245 H2251 0.930 . S
C2246 C2244 1.353 . S
C2246 C2249 1.348 . S
C2246 H2284 0.929 . S
N2247 Li2202 1.990 . S
N2247 C2244 1.314 . S
N2247 C2245 1.279 . S
C2248 C2245 1.358 . S
C2248 C2249 1.356 . S
C2248 H2285 0.930 . S
C2249 C2246 1.348 . S
C2249 C2248 1.356 . S
H2250 C2244 0.930 . S
H2251 C2245 0.930 . S
C2252 N2253 1.314 . S
C2252 C2254 1.353 . S
C2252 H2258 0.930 . S
N2253 Li2203 1.990 . S
N2253 C2252 1.314 . S
N2253 C2256 1.279 . S
C2254 C2252 1.353 . S
C2254 C2257 1.348 . S
C2254 H2286 0.929 . S
C2255 C2256 1.358 . S
C2255 C2257 1.356 . S
C2255 H2287 0.930 . S
C2256 N2253 1.279 . S
C2256 C2255 1.358 . S
C2256 H2259 0.930 . S
C2257 C2254 1.348 . S
C2257 C2255 1.356 . S
H2258 C2252 0.930 . S
H2259 C2256 0.930 . S
O2260 Li2200 1.956 . S
O2260 Li2201 1.970 . S
O2260 Li2202 1.961 . S
O2260 C2204 1.325 . S
O2261 Li2200 1.970 . S
O2261 Li2201 1.956 . S
O2261 Li2203 1.961 . S
O2261 C2210 1.325 . S
O2262 Li2200 1.961 . S
O2262 Li2202 1.956 . S
O2262 Li2203 1.970 . S
O2262 C2232 1.325 . S
O2263 Li2201 1.961 . S
O2263 Li2202 1.970 . S
O2263 Li2203 1.956 . S
O2263 C2238 1.325 . S
H2264 C2206 0.929 . S
H2265 C2207 0.930 . S
H2266 C2208 0.930 . S
H2267 C2209 0.930 . S
H2268 C2211 0.930 . S
H2269 C2213 0.929 . S
H2270 C2214 0.930 . S
H2271 C2215 0.930 . S
H2272 C2218 0.928 1_554 S
H2273 C2221 0.929 . S
H2274 C2226 0.929 . S
H2275 C2227 0.930 . S
H2276 C2234 0.929 . S
H2277 C2235 0.932 . S
H2278 C2236 0.930 . S
H2279 C2237 0.930 . S
H2280 C2239 0.929 . S
H2281 C2240 0.930 . S
H2282 C2241 0.930 . S
H2283 C2242 0.930 . S
H2284 C2246 0.929 . S
H2285 C2248 0.930 . S
H2286 C2254 0.929 . S
H2287 C2255 0.930 . S
Li2288 N2305 1.990 . S
Li2288 O2348 1.956 . S
Li2288 O2349 1.970 . S
Li2288 O2350 1.961 . S
Li2289 N2313 1.990 . S
Li2289 O2348 1.970 . S
Li2289 O2349 1.956 . S
Li2289 O2351 1.961 . S
Li2290 N2335 1.990 . S
Li2290 O2348 1.961 . S
Li2290 O2350 1.956 . S
Li2290 O2351 1.970 . S
Li2291 N2341 1.990 . S
Li2291 O2349 1.961 . S
Li2291 O2350 1.970 . S
Li2291 O2351 1.956 . S
C2292 C2294 1.348 . S
C2292 C2295 1.356 . S
C2292 O2348 1.325 . S
N2293 C2296 1.314 . S
N2293 C2297 1.279 . S
C2294 C2292 1.348 . S
C2294 C2296 1.353 . S
C2294 H2352 0.929 . S
C2295 C2292 1.356 . S
C2295 C2297 1.358 . S
C2295 H2353 0.930 . S
C2296 N2293 1.314 . S
C2296 C2294 1.353 . S
C2296 H2354 0.930 . S
C2297 N2293 1.279 . S
C2297 C2295 1.358 . S
C2297 H2355 0.930 . S
C2298 C2301 1.348 . S
C2298 C2302 1.356 . S
C2298 O2349 1.325 . S
C2299 N2300 1.279 . S
C2299 C2302 1.358 . S
C2299 H2356 0.930 . S
N2300 C2299 1.279 . S
N2300 C2303 1.314 . S
C2301 C2298 1.348 . S
C2301 C2303 1.353 . S
C2301 H2357 0.929 . S
C2302 C2298 1.356 . S
C2302 C2299 1.358 . S
C2302 H2358 0.930 . S
C2303 N2300 1.314 . S
C2303 C2301 1.353 . S
C2303 H2359 0.930 . S
C2304 N2305 1.314 . S
C2304 C2309 1.353 . S
C2304 H2310 0.930 . S
N2305 Li2288 1.990 . S
N2305 C2304 1.314 . S
N2305 C2307 1.279 . S
C2306 C2307 1.358 . S
C2306 C2308 1.356 . S
C2306 H2360 0.930 . S
C2307 N2305 1.279 . S
C2307 C2306 1.358 . S
C2307 H2311 0.930 . S
C2308 C2306 1.356 . S
C2308 C2309 1.348 . S
C2309 C2304 1.353 . S
C2309 C2308 1.348 . S
C2309 H2361 0.929 . S
H2310 C2304 0.930 . S
H2311 C2307 0.930 . S
C2312 N2313 1.314 . S
C2312 C2314 1.353 1_556 S
C2312 H2318 0.930 . S
N2313 Li2289 1.990 . S
N2313 C2312 1.314 . S
N2313 C2316 1.279 . S
C2314 C2312 1.353 1_554 S
C2314 C2317 1.348 . S
C2314 H2362 0.929 . S
C2315 C2316 1.358 . S
C2315 C2317 1.356 1_556 S
C2315 H2363 0.930 . S
C2316 N2313 1.279 . S
C2316 C2315 1.358 . S
C2316 H2319 0.930 . S
C2317 C2314 1.348 . S
C2317 C2315 1.356 1_554 S
H2318 C2312 0.930 . S
H2319 C2316 0.930 . S
C2320 C2322 1.348 . S
C2320 C2323 1.356 . S
C2320 O2350 1.325 . S
N2321 C2324 1.314 . S
N2321 C2325 1.279 . S
C2322 C2320 1.348 . S
C2322 C2324 1.353 . S
C2322 H2364 0.929 . S
C2323 C2320 1.356 . S
C2323 C2325 1.358 . S
C2323 H2365 0.930 . S
C2324 N2321 1.314 . S
C2324 C2322 1.353 . S
C2324 H2366 0.930 . S
C2325 N2321 1.279 . S
C2325 C2323 1.358 . S
C2325 H2367 0.930 . S
C2326 C2327 1.348 . S
C2326 C2328 1.356 . S
C2326 O2351 1.325 . S
C2327 C2326 1.348 . S
C2327 C2329 1.353 . S
C2327 H2368 0.929 . S
C2328 C2326 1.356 . S
C2328 C2330 1.358 . S
C2328 H2369 0.930 . S
C2329 C2327 1.353 . S
C2329 N2331 1.314 . S
C2329 H2370 0.930 . S
C2330 C2328 1.358 . S
C2330 N2331 1.279 . S
C2330 H2371 0.930 . S
N2331 C2329 1.314 . S
N2331 C2330 1.279 . S
C2332 C2334 1.353 . S
C2332 N2335 1.314 . S
C2332 H2338 0.930 . S
C2333 N2335 1.279 . S
C2333 C2336 1.358 . S
C2333 H2339 0.930 . S
C2334 C2332 1.353 . S
C2334 C2337 1.348 . S
C2334 H2372 0.929 . S
N2335 Li2290 1.990 . S
N2335 C2332 1.314 . S
N2335 C2333 1.279 . S
C2336 C2333 1.358 . S
C2336 C2337 1.356 . S
C2336 H2373 0.930 . S
C2337 C2334 1.348 . S
C2337 C2336 1.356 . S
H2338 C2332 0.930 . S
H2339 C2333 0.930 . S
C2340 N2341 1.314 . S
C2340 C2342 1.353 . S
C2340 H2346 0.930 . S
N2341 Li2291 1.990 . S
N2341 C2340 1.314 . S
N2341 C2344 1.279 . S
C2342 C2340 1.353 . S
C2342 C2345 1.348 . S
C2342 H2374 0.929 . S
C2343 C2344 1.358 . S
C2343 C2345 1.356 . S
C2343 H2375 0.930 . S
C2344 N2341 1.279 . S
C2344 C2343 1.358 . S
C2344 H2347 0.930 . S
C2345 C2342 1.348 . S
C2345 C2343 1.356 . S
H2346 C2340 0.930 . S
H2347 C2344 0.930 . S
O2348 Li2288 1.956 . S
O2348 Li2289 1.970 . S
O2348 Li2290 1.961 . S
O2348 C2292 1.325 . S
O2349 Li2288 1.970 . S
O2349 Li2289 1.956 . S
O2349 Li2291 1.961 . S
O2349 C2298 1.325 . S
O2350 Li2288 1.961 . S
O2350 Li2290 1.956 . S
O2350 Li2291 1.970 . S
O2350 C2320 1.325 . S
O2351 Li2289 1.961 . S
O2351 Li2290 1.970 . S
O2351 Li2291 1.956 . S
O2351 C2326 1.325 . S
H2352 C2294 0.929 . S
H2353 C2295 0.930 . S
H2354 C2296 0.930 . S
H2355 C2297 0.930 . S
H2356 C2299 0.930 . S
H2357 C2301 0.929 . S
H2358 C2302 0.930 . S
H2359 C2303 0.930 . S
H2360 C2306 0.930 . S
H2361 C2309 0.929 . S
H2362 C2314 0.929 . S
H2363 C2315 0.930 . S
H2364 C2322 0.929 . S
H2365 C2323 0.930 . S
H2366 C2324 0.930 . S
H2367 C2325 0.930 . S
H2368 C2327 0.929 . S
H2369 C2328 0.930 . S
H2370 C2329 0.930 . S
H2371 C2330 0.930 . S
H2372 C2334 0.929 . S
H2373 C2336 0.930 . S
H2374 C2342 0.929 . S
H2375 C2343 0.930 . S
Li2376 N2393 1.990 . S
Li2376 O2436 1.956 . S
Li2376 O2437 1.970 . S
Li2376 O2438 1.961 . S
Li2377 N2401 1.990 . S
Li2377 O2436 1.970 . S
Li2377 O2437 1.956 . S
Li2377 O2439 1.961 . S
Li2378 N2423 1.990 . S
Li2378 O2436 1.961 . S
Li2378 O2438 1.956 . S
Li2378 O2439 1.970 . S
Li2379 N2429 1.990 . S
Li2379 O2437 1.961 . S
Li2379 O2438 1.970 . S
Li2379 O2439 1.956 . S
C2380 C2382 1.348 . S
C2380 C2383 1.356 . S
C2380 O2436 1.325 . S
N2381 C2384 1.314 . S
N2381 C2385 1.279 . S
C2382 C2380 1.348 . S
C2382 C2384 1.353 . S
C2382 H2440 0.929 . S
C2383 C2380 1.356 . S
C2383 C2385 1.358 . S
C2383 H2441 0.930 . S
C2384 N2381 1.314 . S
C2384 C2382 1.353 . S
C2384 H2442 0.930 . S
C2385 N2381 1.279 . S
C2385 C2383 1.358 . S
C2385 H2443 0.930 . S
C2386 C2389 1.348 . S
C2386 C2390 1.356 . S
C2386 O2437 1.325 . S
C2387 N2388 1.279 . S
C2387 C2390 1.358 . S
C2387 H2444 0.930 . S
N2388 C2387 1.279 . S
N2388 C2391 1.314 . S
C2389 C2386 1.348 . S
C2389 C2391 1.353 . S
C2389 H2445 0.929 . S
C2390 C2386 1.356 . S
C2390 C2387 1.358 . S
C2390 H2446 0.930 . S
C2391 N2388 1.314 . S
C2391 C2389 1.353 . S
C2391 H2447 0.930 . S
C2392 N2393 1.314 . S
C2392 C2397 1.353 . S
C2392 H2398 0.930 . S
N2393 Li2376 1.990 . S
N2393 C2392 1.314 . S
N2393 C2395 1.279 . S
C2394 C2395 1.358 . S
C2394 C2396 1.356 . S
C2394 H2448 0.930 . S
C2395 N2393 1.279 . S
C2395 C2394 1.358 . S
C2395 H2399 0.930 . S
C2396 C2394 1.356 . S
C2396 C2397 1.348 . S
C2397 C2392 1.353 . S
C2397 C2396 1.348 . S
C2397 H2449 0.929 . S
H2398 C2392 0.930 . S
H2399 C2395 0.930 . S
C2400 N2401 1.314 . S
C2400 C2402 1.353 . S
C2400 H2406 0.930 . S
N2401 Li2377 1.990 . S
N2401 C2400 1.314 . S
N2401 C2404 1.279 . S
C2402 C2400 1.353 . S
C2402 C2405 1.348 . S
C2402 H2450 0.929 . S
C2403 C2404 1.358 . S
C2403 C2405 1.356 . S
C2403 H2451 0.930 . S
C2404 N2401 1.279 . S
C2404 C2403 1.358 . S
C2404 H2407 0.930 . S
C2405 C2402 1.348 . S
C2405 C2403 1.356 . S
H2406 C2400 0.930 . S
H2407 C2404 0.930 . S
C2408 C2410 1.348 . S
C2408 C2411 1.356 . S
C2408 O2438 1.325 . S
N2409 C2412 1.314 . S
N2409 C2413 1.279 . S
C2410 C2408 1.348 . S
C2410 C2412 1.353 . S
C2410 H2452 0.929 . S
C2411 C2408 1.356 . S
C2411 C2413 1.358 . S
C2411 H2453 0.930 . S
C2412 N2409 1.314 . S
C2412 C2410 1.353 . S
C2412 H2454 0.930 . S
C2413 N2409 1.279 . S
C2413 C2411 1.358 . S
C2413 H2455 0.930 . S
C2414 C2415 1.348 . S
C2414 C2416 1.356 . S
C2414 O2439 1.325 . S
C2415 C2414 1.348 . S
C2415 C2417 1.353 . S
C2415 H2456 0.929 . S
C2416 C2414 1.356 . S
C2416 C2418 1.358 . S
C2416 H2457 0.930 . S
C2417 C2415 1.353 . S
C2417 N2419 1.314 . S
C2417 H2458 0.930 . S
C2418 C2416 1.358 . S
C2418 N2419 1.279 . S
C2418 H2459 0.930 . S
N2419 C2417 1.314 . S
N2419 C2418 1.279 . S
C2420 C2422 1.353 . S
C2420 N2423 1.314 . S
C2420 H2426 0.930 . S
C2421 N2423 1.279 . S
C2421 C2424 1.358 . S
C2421 H2427 0.930 . S
C2422 C2420 1.353 . S
C2422 C2425 1.348 . S
C2422 H2460 0.929 . S
N2423 Li2378 1.990 . S
N2423 C2420 1.314 . S
N2423 C2421 1.279 . S
C2424 C2421 1.358 . S
C2424 C2425 1.356 . S
C2424 H2461 0.930 . S
C2425 C2422 1.348 . S
C2425 C2424 1.356 . S
H2426 C2420 0.930 . S
H2427 C2421 0.930 . S
C2428 N2429 1.314 . S
C2428 C2430 1.353 . S
C2428 H2434 0.930 . S
N2429 Li2379 1.990 . S
N2429 C2428 1.314 . S
N2429 C2432 1.279 . S
C2430 C2428 1.353 . S
C2430 C2433 1.348 . S
C2430 H2462 0.929 . S
C2431 C2432 1.358 . S
C2431 C2433 1.356 . S
C2431 H2463 0.930 . S
C2432 N2429 1.279 . S
C2432 C2431 1.358 . S
C2432 H2435 0.930 . S
C2433 C2430 1.348 . S
C2433 C2431 1.356 . S
H2434 C2428 0.930 . S
H2435 C2432 0.930 . S
O2436 Li2376 1.956 . S
O2436 Li2377 1.970 . S
O2436 Li2378 1.961 . S
O2436 C2380 1.325 . S
O2437 Li2376 1.970 . S
O2437 Li2377 1.956 . S
O2437 Li2379 1.961 . S
O2437 C2386 1.325 . S
O2438 Li2376 1.961 . S
O2438 Li2378 1.956 . S
O2438 Li2379 1.970 . S
O2438 C2408 1.325 . S
O2439 Li2377 1.961 . S
O2439 Li2378 1.970 . S
O2439 Li2379 1.956 . S
O2439 C2414 1.325 . S
H2440 C2382 0.929 . S
H2441 C2383 0.930 . S
H2442 C2384 0.930 . S
H2443 C2385 0.930 . S
H2444 C2387 0.930 . S
H2445 C2389 0.929 . S
H2446 C2390 0.930 . S
H2447 C2391 0.930 . S
H2448 C2394 0.930 . S
H2449 C2397 0.929 . S
H2450 C2402 0.929 . S
H2451 C2403 0.930 . S
H2452 C2410 0.929 . S
H2453 C2411 0.930 . S
H2454 C2412 0.930 . S
H2455 C2413 0.930 . S
H2456 C2415 0.929 . S
H2457 C2416 0.930 . S
H2458 C2417 0.930 . S
H2459 C2418 0.930 . S
H2460 C2422 0.929 . S
H2461 C2424 0.930 . S
H2462 C2430 0.929 . S
H2463 C2431 0.930 . S
Li2464 N2481 1.990 . S
Li2464 O2524 1.956 . S
Li2464 O2525 1.970 . S
Li2464 O2526 1.961 . S
Li2465 N2489 1.990 . S
Li2465 O2524 1.970 . S
Li2465 O2525 1.956 . S
Li2465 O2527 1.961 . S
Li2466 N2511 1.990 . S
Li2466 O2524 1.961 . S
Li2466 O2526 1.956 . S
Li2466 O2527 1.970 . S
Li2467 N2517 1.990 . S
Li2467 O2525 1.961 . S
Li2467 O2526 1.970 . S
Li2467 O2527 1.956 . S
C2468 C2470 1.348 . S
C2468 C2471 1.356 . S
C2468 O2524 1.325 . S
N2469 C2472 1.314 . S
N2469 C2473 1.279 . S
C2470 C2468 1.348 . S
C2470 C2472 1.353 . S
C2470 H2528 0.929 . S
C2471 C2468 1.356 . S
C2471 C2473 1.358 . S
C2471 H2529 0.930 . S
C2472 N2469 1.314 . S
C2472 C2470 1.353 . S
C2472 H2530 0.930 . S
C2473 N2469 1.279 . S
C2473 C2471 1.358 . S
C2473 H2531 0.930 . S
C2474 C2477 1.348 . S
C2474 C2478 1.356 . S
C2474 O2525 1.325 . S
C2475 N2476 1.279 . S
C2475 C2478 1.358 . S
C2475 H2532 0.930 . S
N2476 C2475 1.279 . S
N2476 C2479 1.314 . S
C2477 C2474 1.348 . S
C2477 C2479 1.353 . S
C2477 H2533 0.929 . S
C2478 C2474 1.356 . S
C2478 C2475 1.358 . S
C2478 H2534 0.930 . S
C2479 N2476 1.314 . S
C2479 C2477 1.353 . S
C2479 H2535 0.930 . S
C2480 N2481 1.314 . S
C2480 C2485 1.353 . S
C2480 H2486 0.930 . S
N2481 Li2464 1.990 . S
N2481 C2480 1.314 . S
N2481 C2483 1.279 . S
C2482 C2483 1.358 . S
C2482 C2484 1.356 . S
C2482 H2536 0.930 . S
C2483 N2481 1.279 . S
C2483 C2482 1.358 . S
C2483 H2487 0.930 . S
C2484 C2482 1.356 . S
C2484 C2485 1.348 . S
C2485 C2480 1.353 . S
C2485 C2484 1.348 . S
C2485 H2537 0.929 . S
H2486 C2480 0.930 . S
H2487 C2483 0.930 . S
C2488 N2489 1.314 . S
C2488 C2490 1.353 . S
C2488 H2494 0.930 . S
N2489 Li2465 1.990 . S
N2489 C2488 1.314 . S
N2489 C2492 1.279 . S
C2490 C2488 1.353 . S
C2490 C2493 1.348 . S
C2490 H2538 0.929 . S
C2491 C2492 1.358 . S
C2491 C2493 1.356 . S
C2491 H2539 0.930 . S
C2492 N2489 1.279 . S
C2492 C2491 1.358 . S
C2492 H2495 0.930 . S
C2493 C2490 1.348 . S
C2493 C2491 1.356 . S
H2494 C2488 0.930 . S
H2495 C2492 0.930 . S
C2496 C2498 1.348 . S
C2496 C2499 1.356 . S
C2496 O2526 1.325 . S
N2497 C2500 1.314 . S
N2497 C2501 1.279 . S
C2498 C2496 1.348 . S
C2498 C2500 1.353 . S
C2498 H2540 0.929 . S
C2499 C2496 1.356 . S
C2499 C2501 1.358 . S
C2499 H2541 0.930 . S
C2500 N2497 1.314 . S
C2500 C2498 1.353 . S
C2500 H2542 0.930 . S
C2501 N2497 1.279 . S
C2501 C2499 1.358 . S
C2501 H2543 0.930 . S
C2502 C2503 1.348 . S
C2502 C2504 1.356 . S
C2502 O2527 1.325 . S
C2503 C2502 1.348 . S
C2503 C2505 1.353 . S
C2503 H2544 0.929 . S
C2504 C2502 1.356 . S
C2504 C2506 1.358 . S
C2504 H2545 0.930 . S
C2505 C2503 1.353 . S
C2505 N2507 1.314 . S
C2505 H2546 0.930 . S
C2506 C2504 1.358 . S
C2506 N2507 1.279 . S
C2506 H2547 0.930 . S
N2507 C2505 1.314 . S
N2507 C2506 1.279 . S
C2508 C2510 1.353 . S
C2508 N2511 1.314 . S
C2508 H2514 0.930 . S
C2509 N2511 1.279 . S
C2509 C2512 1.358 . S
C2509 H2515 0.930 . S
C2510 C2508 1.353 . S
C2510 C2513 1.348 . S
C2510 H2548 0.929 . S
N2511 Li2466 1.990 . S
N2511 C2508 1.314 . S
N2511 C2509 1.279 . S
C2512 C2509 1.358 . S
C2512 C2513 1.356 . S
C2512 H2549 0.930 . S
C2513 C2510 1.348 . S
C2513 C2512 1.356 . S
H2514 C2508 0.930 . S
H2515 C2509 0.930 . S
C2516 N2517 1.314 . S
C2516 C2518 1.353 . S
C2516 H2522 0.930 . S
N2517 Li2467 1.990 . S
N2517 C2516 1.314 . S
N2517 C2520 1.279 . S
C2518 C2516 1.353 . S
C2518 C2521 1.348 . S
C2518 H2550 0.929 . S
C2519 C2520 1.358 . S
C2519 C2521 1.356 . S
C2519 H2551 0.930 . S
C2520 N2517 1.279 . S
C2520 C2519 1.358 . S
C2520 H2523 0.930 . S
C2521 C2518 1.348 . S
C2521 C2519 1.356 . S
H2522 C2516 0.930 . S
H2523 C2520 0.930 . S
O2524 Li2464 1.956 . S
O2524 Li2465 1.970 . S
O2524 Li2466 1.961 . S
O2524 C2468 1.325 . S
O2525 Li2464 1.970 . S
O2525 Li2465 1.956 . S
O2525 Li2467 1.961 . S
O2525 C2474 1.325 . S
O2526 Li2464 1.961 . S
O2526 Li2466 1.956 . S
O2526 Li2467 1.970 . S
O2526 C2496 1.325 . S
O2527 Li2465 1.961 . S
O2527 Li2466 1.970 . S
O2527 Li2467 1.956 . S
O2527 C2502 1.325 . S
H2528 C2470 0.929 . S
H2529 C2471 0.930 . S
H2530 C2472 0.930 . S
H2531 C2473 0.930 . S
H2532 C2475 0.930 . S
H2533 C2477 0.929 . S
H2534 C2478 0.930 . S
H2535 C2479 0.930 . S
H2536 C2482 0.930 . S
H2537 C2485 0.929 . S
H2538 C2490 0.929 . S
H2539 C2491 0.930 . S
H2540 C2498 0.929 . S
H2541 C2499 0.930 . S
H2542 C2500 0.930 . S
H2543 C2501 0.930 . S
H2544 C2503 0.929 . S
H2545 C2504 0.930 . S
H2546 C2505 0.930 . S
H2547 C2506 0.930 . S
H2548 C2510 0.929 . S
H2549 C2512 0.930 . S
H2550 C2518 0.929 . S
H2551 C2519 0.930 . S
Li2552 N2569 1.990 . S
Li2552 O2612 1.956 . S
Li2552 O2613 1.970 . S
Li2552 O2614 1.961 . S
Li2553 N2577 1.990 . S
Li2553 O2612 1.970 . S
Li2553 O2613 1.956 . S
Li2553 O2615 1.961 . S
Li2554 N2599 1.990 . S
Li2554 O2612 1.961 . S
Li2554 O2614 1.956 . S
Li2554 O2615 1.970 . S
Li2555 N2605 1.990 . S
Li2555 O2613 1.961 . S
Li2555 O2614 1.970 . S
Li2555 O2615 1.956 . S
C2556 C2558 1.348 . S
C2556 C2559 1.356 . S
C2556 O2612 1.325 . S
N2557 C2560 1.314 . S
N2557 C2561 1.279 . S
C2558 C2556 1.348 . S
C2558 C2560 1.353 . S
C2558 H2616 0.929 . S
C2559 C2556 1.356 . S
C2559 C2561 1.358 . S
C2559 H2617 0.930 . S
C2560 N2557 1.314 . S
C2560 C2558 1.353 . S
C2560 H2618 0.930 . S
C2561 N2557 1.279 . S
C2561 C2559 1.358 . S
C2561 H2619 0.930 . S
C2562 C2565 1.348 . S
C2562 C2566 1.356 . S
C2562 O2613 1.325 . S
C2563 N2564 1.279 . S
C2563 C2566 1.358 . S
C2563 H2620 0.930 . S
N2564 C2563 1.279 . S
N2564 C2567 1.314 . S
C2565 C2562 1.348 . S
C2565 C2567 1.353 . S
C2565 H2621 0.929 . S
C2566 C2562 1.356 . S
C2566 C2563 1.358 . S
C2566 H2622 0.930 . S
C2567 N2564 1.314 . S
C2567 C2565 1.353 . S
C2567 H2623 0.930 . S
C2568 N2569 1.314 . S
C2568 C2573 1.353 . S
C2568 H2574 0.930 . S
N2569 Li2552 1.990 . S
N2569 C2568 1.314 . S
N2569 C2571 1.279 . S
C2570 C2571 1.358 . S
C2570 C2572 1.356 . S
C2570 H2624 0.930 . S
C2571 N2569 1.279 . S
C2571 C2570 1.358 . S
C2571 H2575 0.930 . S
C2572 C2570 1.356 . S
C2572 C2573 1.348 . S
C2573 C2568 1.353 . S
C2573 C2572 1.348 . S
C2573 H2625 0.929 . S
H2574 C2568 0.930 . S
H2575 C2571 0.930 . S
C2576 N2577 1.314 . S
C2576 C2578 1.353 . S
C2576 H2582 0.930 . S
N2577 Li2553 1.990 . S
N2577 C2576 1.314 . S
N2577 C2580 1.279 . S
C2578 C2576 1.353 . S
C2578 C2581 1.348 . S
C2578 H2626 0.929 . S
C2579 C2580 1.358 . S
C2579 C2581 1.356 . S
C2579 H2627 0.930 . S
C2580 N2577 1.279 . S
C2580 C2579 1.358 . S
C2580 H2583 0.930 . S
C2581 C2578 1.348 . S
C2581 C2579 1.356 . S
H2582 C2576 0.930 . S
H2583 C2580 0.930 . S
C2584 C2586 1.348 . S
C2584 C2587 1.356 . S
C2584 O2614 1.325 . S
N2585 C2588 1.314 . S
N2585 C2589 1.279 . S
C2586 C2584 1.348 . S
C2586 C2588 1.353 . S
C2586 H2628 0.929 . S
C2587 C2584 1.356 . S
C2587 C2589 1.358 . S
C2587 H2629 0.930 . S
C2588 N2585 1.314 . S
C2588 C2586 1.353 . S
C2588 H2630 0.930 . S
C2589 N2585 1.279 . S
C2589 C2587 1.358 . S
C2589 H2631 0.930 . S
C2590 C2591 1.348 . S
C2590 C2592 1.356 . S
C2590 O2615 1.325 . S
C2591 C2590 1.348 . S
C2591 C2593 1.353 . S
C2591 H2632 0.929 . S
C2592 C2590 1.356 . S
C2592 C2594 1.358 . S
C2592 H2633 0.930 . S
C2593 C2591 1.353 . S
C2593 N2595 1.314 . S
C2593 H2634 0.930 . S
C2594 C2592 1.358 . S
C2594 N2595 1.279 . S
C2594 H2635 0.930 . S
N2595 C2593 1.314 . S
N2595 C2594 1.279 . S
C2596 C2598 1.353 . S
C2596 N2599 1.314 . S
C2596 H2602 0.930 . S
C2597 N2599 1.279 . S
C2597 C2600 1.358 . S
C2597 H2603 0.930 . S
C2598 C2596 1.353 . S
C2598 C2601 1.348 . S
C2598 H2636 0.929 . S
N2599 Li2554 1.990 . S
N2599 C2596 1.314 . S
N2599 C2597 1.279 . S
C2600 C2597 1.358 . S
C2600 C2601 1.356 . S
C2600 H2637 0.930 . S
C2601 C2598 1.348 . S
C2601 C2600 1.356 . S
H2602 C2596 0.930 . S
H2603 C2597 0.930 . S
C2604 N2605 1.314 . S
C2604 C2606 1.353 . S
C2604 H2610 0.930 . S
N2605 Li2555 1.990 . S
N2605 C2604 1.314 . S
N2605 C2608 1.279 . S
C2606 C2604 1.353 . S
C2606 C2609 1.348 . S
C2606 H2638 0.929 . S
C2607 C2608 1.358 . S
C2607 C2609 1.356 . S
C2607 H2639 0.930 . S
C2608 N2605 1.279 . S
C2608 C2607 1.358 . S
C2608 H2611 0.930 . S
C2609 C2606 1.348 . S
C2609 C2607 1.356 . S
H2610 C2604 0.930 . S
H2611 C2608 0.930 . S
O2612 Li2552 1.956 . S
O2612 Li2553 1.970 . S
O2612 Li2554 1.961 . S
O2612 C2556 1.325 . S
O2613 Li2552 1.970 . S
O2613 Li2553 1.956 . S
O2613 Li2555 1.961 . S
O2613 C2562 1.325 . S
O2614 Li2552 1.961 . S
O2614 Li2554 1.956 . S
O2614 Li2555 1.970 . S
O2614 C2584 1.325 . S
O2615 Li2553 1.961 . S
O2615 Li2554 1.970 . S
O2615 Li2555 1.956 . S
O2615 C2590 1.325 . S
H2616 C2558 0.929 . S
H2617 C2559 0.930 . S
H2618 C2560 0.930 . S
H2619 C2561 0.930 . S
H2620 C2563 0.930 . S
H2621 C2565 0.929 . S
H2622 C2566 0.930 . S
H2623 C2567 0.930 . S
H2624 C2570 0.930 . S
H2625 C2573 0.929 . S
H2626 C2578 0.929 . S
H2627 C2579 0.930 . S
H2628 C2586 0.929 . S
H2629 C2587 0.930 . S
H2630 C2588 0.930 . S
H2631 C2589 0.930 . S
H2632 C2591 0.929 . S
H2633 C2592 0.930 . S
H2634 C2593 0.930 . S
H2635 C2594 0.930 . S
H2636 C2598 0.929 . S
H2637 C2600 0.930 . S
H2638 C2606 0.929 . S
H2639 C2607 0.930 . S
Li2640 N2657 1.990 . S
Li2640 O2700 1.956 . S
Li2640 O2701 1.970 . S
Li2640 O2702 1.961 . S
Li2641 N2665 1.990 . S
Li2641 O2700 1.970 . S
Li2641 O2701 1.956 . S
Li2641 O2703 1.961 . S
Li2642 N2687 1.990 . S
Li2642 O2700 1.961 . S
Li2642 O2702 1.956 . S
Li2642 O2703 1.970 . S
Li2643 N2693 1.990 . S
Li2643 O2701 1.961 . S
Li2643 O2702 1.970 . S
Li2643 O2703 1.956 . S
C2644 C2646 1.348 . S
C2644 C2647 1.356 . S
C2644 O2700 1.325 . S
N2645 C2648 1.314 . S
N2645 C2649 1.279 . S
C2646 C2644 1.348 . S
C2646 C2648 1.353 . S
C2646 H2704 0.929 . S
C2647 C2644 1.356 . S
C2647 C2649 1.358 . S
C2647 H2705 0.930 . S
C2648 N2645 1.314 . S
C2648 C2646 1.353 . S
C2648 H2706 0.930 . S
C2649 N2645 1.279 . S
C2649 C2647 1.358 . S
C2649 H2707 0.930 . S
C2650 C2653 1.348 . S
C2650 C2654 1.356 . S
C2650 O2701 1.325 . S
C2651 N2652 1.279 . S
C2651 C2654 1.358 . S
C2651 H2708 0.930 . S
N2652 C2651 1.279 . S
N2652 C2655 1.314 . S
C2653 C2650 1.348 . S
C2653 C2655 1.353 . S
C2653 H2709 0.929 . S
C2654 C2650 1.356 . S
C2654 C2651 1.358 . S
C2654 H2710 0.930 . S
C2655 N2652 1.314 . S
C2655 C2653 1.353 . S
C2655 H2711 0.930 . S
C2656 N2657 1.314 . S
C2656 C2661 1.353 . S
C2656 H2662 0.930 . S
N2657 Li2640 1.990 . S
N2657 C2656 1.314 . S
N2657 C2659 1.279 . S
C2658 C2659 1.358 . S
C2658 C2660 1.356 . S
C2658 H2712 0.930 . S
C2659 N2657 1.279 . S
C2659 C2658 1.358 . S
C2659 H2663 0.930 . S
C2660 C2658 1.356 . S
C2660 C2661 1.348 . S
C2661 C2656 1.353 . S
C2661 C2660 1.348 . S
C2661 H2713 0.929 . S
H2662 C2656 0.930 . S
H2663 C2659 0.930 . S
C2664 N2665 1.314 . S
C2664 C2666 1.353 . S
C2664 H2670 0.930 . S
N2665 Li2641 1.990 . S
N2665 C2664 1.314 . S
N2665 C2668 1.279 . S
C2666 C2664 1.353 . S
C2666 C2669 1.348 . S
C2666 H2714 0.929 . S
C2667 C2668 1.358 . S
C2667 C2669 1.356 . S
C2667 H2715 0.930 . S
C2668 N2665 1.279 . S
C2668 C2667 1.358 . S
C2668 H2671 0.930 . S
C2669 C2666 1.348 . S
C2669 C2667 1.356 . S
H2670 C2664 0.930 . S
H2671 C2668 0.930 . S
C2672 C2674 1.348 . S
C2672 C2675 1.356 . S
C2672 O2702 1.325 . S
N2673 C2676 1.314 . S
N2673 C2677 1.279 . S
C2674 C2672 1.348 . S
C2674 C2676 1.353 . S
C2674 H2716 0.929 . S
C2675 C2672 1.356 . S
C2675 C2677 1.358 . S
C2675 H2717 0.930 . S
C2676 N2673 1.314 . S
C2676 C2674 1.353 . S
C2676 H2718 0.930 . S
C2677 N2673 1.279 . S
C2677 C2675 1.358 . S
C2677 H2719 0.930 . S
C2678 C2679 1.348 . S
C2678 C2680 1.356 . S
C2678 O2703 1.325 . S
C2679 C2678 1.348 . S
C2679 C2681 1.353 . S
C2679 H2720 0.929 . S
C2680 C2678 1.356 . S
C2680 C2682 1.358 . S
C2680 H2721 0.930 . S
C2681 C2679 1.353 . S
C2681 N2683 1.314 . S
C2681 H2722 0.930 . S
C2682 C2680 1.358 . S
C2682 N2683 1.279 . S
C2682 H2723 0.930 . S
N2683 C2681 1.314 . S
N2683 C2682 1.279 . S
C2684 C2686 1.353 1_554 S
C2684 N2687 1.314 . S
C2684 H2690 0.930 . S
C2685 N2687 1.279 . S
C2685 C2688 1.358 . S
C2685 H2691 0.930 . S
C2686 C2684 1.353 1_556 S
C2686 C2689 1.348 . S
C2686 H2724 0.929 . S
N2687 Li2642 1.990 . S
N2687 C2684 1.314 . S
N2687 C2685 1.279 . S
C2688 C2685 1.358 . S
C2688 C2689 1.356 1_554 S
C2688 H2725 0.930 . S
C2689 C2686 1.348 . S
C2689 C2688 1.356 1_556 S
H2690 C2684 0.930 . S
H2691 C2685 0.930 . S
C2692 N2693 1.314 . S
C2692 C2694 1.353 . S
C2692 H2698 0.930 . S
N2693 Li2643 1.990 . S
N2693 C2692 1.314 . S
N2693 C2696 1.279 . S
C2694 C2692 1.353 . S
C2694 C2697 1.348 . S
C2694 H2726 0.929 . S
C2695 C2696 1.358 . S
C2695 C2697 1.356 . S
C2695 H2727 0.930 . S
C2696 N2693 1.279 . S
C2696 C2695 1.358 . S
C2696 H2699 0.930 . S
C2697 C2694 1.348 . S
C2697 C2695 1.356 . S
H2698 C2692 0.930 . S
H2699 C2696 0.930 . S
O2700 Li2640 1.956 . S
O2700 Li2641 1.970 . S
O2700 Li2642 1.961 . S
O2700 C2644 1.325 . S
O2701 Li2640 1.970 . S
O2701 Li2641 1.956 . S
O2701 Li2643 1.961 . S
O2701 C2650 1.325 . S
O2702 Li2640 1.961 . S
O2702 Li2642 1.956 . S
O2702 Li2643 1.970 . S
O2702 C2672 1.325 . S
O2703 Li2641 1.961 . S
O2703 Li2642 1.970 . S
O2703 Li2643 1.956 . S
O2703 C2678 1.325 . S
H2704 C2646 0.929 . S
H2705 C2647 0.930 . S
H2706 C2648 0.930 . S
H2707 C2649 0.930 . S
H2708 C2651 0.930 . S
H2709 C2653 0.929 . S
H2710 C2654 0.930 . S
H2711 C2655 0.930 . S
H2712 C2658 0.930 . S
H2713 C2661 0.929 . S
H2714 C2666 0.929 . S
H2715 C2667 0.930 . S
H2716 C2674 0.929 . S
H2717 C2675 0.930 . S
H2718 C2676 0.930 . S
H2719 C2677 0.930 . S
H2720 C2679 0.929 . S
H2721 C2680 0.930 . S
H2722 C2681 0.930 . S
H2723 C2682 0.930 . S
H2724 C2686 0.929 . S
H2725 C2688 0.930 . S
H2726 C2694 0.929 . S
H2727 C2695 0.930 . S
Li2728 N2745 1.990 . S
Li2728 O2788 1.956 . S
Li2728 O2789 1.970 . S
Li2728 O2790 1.961 . S
Li2729 N2753 1.990 . S
Li2729 O2788 1.970 . S
Li2729 O2789 1.956 . S
Li2729 O2791 1.961 . S
Li2730 N2775 1.990 . S
Li2730 O2788 1.961 . S
Li2730 O2790 1.956 . S
Li2730 O2791 1.970 . S
Li2731 N2781 1.990 . S
Li2731 O2789 1.961 . S
Li2731 O2790 1.970 . S
Li2731 O2791 1.956 . S
C2732 C2734 1.348 . S
C2732 C2735 1.356 . S
C2732 O2788 1.325 . S
N2733 C2736 1.314 . S
N2733 C2737 1.279 . S
C2734 C2732 1.348 . S
C2734 C2736 1.353 . S
C2734 H2792 0.929 . S
C2735 C2732 1.356 . S
C2735 C2737 1.358 . S
C2735 H2793 0.930 . S
C2736 N2733 1.314 . S
C2736 C2734 1.353 . S
C2736 H2794 0.930 . S
C2737 N2733 1.279 . S
C2737 C2735 1.358 . S
C2737 H2795 0.930 . S
C2738 C2741 1.348 . S
C2738 C2742 1.366 . S
C2738 O2789 1.325 . S
C2739 N2740 1.279 . S
C2739 C2742 1.346 1_554 S
C2739 H2796 0.930 . S
N2740 C2739 1.279 . S
N2740 C2743 1.314 . S
C2741 C2738 1.348 . S
C2741 C2743 1.353 1_556 S
C2741 H2797 0.929 . S
C2742 C2738 1.366 . S
C2742 C2739 1.346 1_556 S
C2742 H2798 0.932 . S
C2743 N2740 1.314 . S
C2743 C2741 1.353 1_554 S
C2743 H2799 0.930 . S
C2744 N2745 1.314 . S
C2744 C2749 1.353 . S
C2744 H2750 0.930 . S
N2745 Li2728 1.990 . S
N2745 C2744 1.314 . S
N2745 C2747 1.279 . S
C2746 C2747 1.358 . S
C2746 C2748 1.356 . S
C2746 H2800 0.930 . S
C2747 N2745 1.279 . S
C2747 C2746 1.358 . S
C2747 H2751 0.930 . S
C2748 C2746 1.356 . S
C2748 C2749 1.348 . S
C2749 C2744 1.353 . S
C2749 C2748 1.348 . S
C2749 H2801 0.929 . S
H2750 C2744 0.930 . S
H2751 C2747 0.930 . S
C2752 N2753 1.314 . S
C2752 C2754 1.353 . S
C2752 H2758 0.930 . S
N2753 Li2729 1.990 . S
N2753 C2752 1.314 . S
N2753 C2756 1.279 . S
C2754 C2752 1.353 . S
C2754 C2757 1.348 . S
C2754 H2802 0.929 . S
C2755 C2756 1.358 . S
C2755 C2757 1.356 . S
C2755 H2803 0.930 . S
C2756 N2753 1.279 . S
C2756 C2755 1.358 . S
C2756 H2759 0.930 . S
C2757 C2754 1.348 . S
C2757 C2755 1.356 . S
H2758 C2752 0.930 . S
H2759 C2756 0.930 . S
C2760 C2762 1.348 . S
C2760 C2763 1.356 . S
C2760 O2790 1.325 . S
N2761 C2764 1.314 . S
N2761 C2765 1.279 . S
C2762 C2760 1.348 . S
C2762 C2764 1.353 . S
C2762 H2804 0.929 . S
C2763 C2760 1.356 . S
C2763 C2765 1.358 . S
C2763 H2805 0.930 . S
C2764 N2761 1.314 . S
C2764 C2762 1.353 . S
C2764 H2806 0.930 . S
C2765 N2761 1.279 . S
C2765 C2763 1.358 . S
C2765 H2807 0.930 . S
C2766 C2767 1.348 . S
C2766 C2768 1.356 . S
C2766 O2791 1.325 . S
C2767 C2766 1.348 . S
C2767 C2769 1.353 . S
C2767 H2808 0.929 . S
C2768 C2766 1.356 . S
C2768 C2770 1.358 . S
C2768 H2809 0.930 . S
C2769 C2767 1.353 . S
C2769 N2771 1.314 . S
C2769 H2810 0.930 . S
C2770 C2768 1.358 . S
C2770 N2771 1.279 . S
C2770 H2811 0.930 . S
N2771 C2769 1.314 . S
N2771 C2770 1.279 . S
C2772 C2774 1.353 . S
C2772 N2775 1.314 . S
C2772 H2778 0.930 . S
C2773 N2775 1.279 . S
C2773 C2776 1.358 . S
C2773 H2779 0.930 . S
C2774 C2772 1.353 . S
C2774 C2777 1.348 . S
C2774 H2812 0.929 . S
N2775 Li2730 1.990 . S
N2775 C2772 1.314 . S
N2775 C2773 1.279 . S
C2776 C2773 1.358 . S
C2776 C2777 1.356 . S
C2776 H2813 0.930 . S
C2777 C2774 1.348 . S
C2777 C2776 1.356 . S
H2778 C2772 0.930 . S
H2779 C2773 0.930 . S
C2780 N2781 1.314 1_554 S
C2780 C2782 1.353 . S
C2780 H2786 0.930 . S
N2781 Li2731 1.990 . S
N2781 C2780 1.314 1_556 S
N2781 C2784 1.279 . S
C2782 C2780 1.353 . S
C2782 C2785 1.348 . S
C2782 H2814 0.929 . S
C2783 C2784 1.358 1_554 S
C2783 C2785 1.356 . S
C2783 H2815 0.928 1_554 S
C2784 N2781 1.279 . S
C2784 C2783 1.358 1_556 S
C2784 H2787 0.930 . S
C2785 C2782 1.348 . S
C2785 C2783 1.356 . S
H2786 C2780 0.930 . S
H2787 C2784 0.930 . S
O2788 Li2728 1.956 . S
O2788 Li2729 1.970 . S
O2788 Li2730 1.961 . S
O2788 C2732 1.325 . S
O2789 Li2728 1.970 . S
O2789 Li2729 1.956 . S
O2789 Li2731 1.961 . S
O2789 C2738 1.325 . S
O2790 Li2728 1.961 . S
O2790 Li2730 1.956 . S
O2790 Li2731 1.970 . S
O2790 C2760 1.325 . S
O2791 Li2729 1.961 . S
O2791 Li2730 1.970 . S
O2791 Li2731 1.956 . S
O2791 C2766 1.325 . S
H2792 C2734 0.929 . S
H2793 C2735 0.930 . S
H2794 C2736 0.930 . S
H2795 C2737 0.930 . S
H2796 C2739 0.930 . S
H2797 C2741 0.929 . S
H2798 C2742 0.932 . S
H2799 C2743 0.930 . S
H2800 C2746 0.930 . S
H2801 C2749 0.929 . S
H2802 C2754 0.929 . S
H2803 C2755 0.930 . S
H2804 C2762 0.929 . S
H2805 C2763 0.930 . S
H2806 C2764 0.930 . S
H2807 C2765 0.930 . S
H2808 C2767 0.929 . S
H2809 C2768 0.930 . S
H2810 C2769 0.930 . S
H2811 C2770 0.930 . S
H2812 C2774 0.929 . S
H2813 C2776 0.930 . S
H2814 C2782 0.929 . S
H2815 C2783 0.928 1_556 S
C2816 C2817 1.391 . S
C2816 C2818 1.394 . S
C2816 H2832 0.931 . S
C2817 C2816 1.391 . S
C2817 C2821 1.376 . S
C2818 C2816 1.394 . S
C2818 C2819 1.369 . S
C2818 C2822 1.531 . S
C2819 C2818 1.369 . S
C2819 C2820 1.410 . S
C2819 C2827 1.503 . S
C2820 C2819 1.410 . S
C2820 C2821 1.392 . S
C2820 C2823 1.511 . S
C2821 C2817 1.376 . S
C2821 C2820 1.392 . S
C2821 H2833 0.929 . S
C2822 C2818 1.531 . S
C2822 H2834 0.960 . S
C2822 H2835 0.962 . S
C2822 H2836 0.960 . S
C2823 C2820 1.511 . S
C2823 H2837 0.961 . S
C2823 H2838 0.961 . S
C2823 H2839 0.961 . S
C2824 C2825 1.370 . S
C2824 C2826 1.363 . S
C2824 H2840 0.931 . S
C2825 C2824 1.370 . S
C2825 C2829 1.408 . S
C2826 C2824 1.363 . S
C2826 C2827 1.370 . S
C2826 C2830 1.524 . S
C2827 C2819 1.503 . S
C2827 C2826 1.370 . S
C2827 C2828 1.403 . S
C2828 C2827 1.403 . S
C2828 C2829 1.404 . S
C2828 C2831 1.539 . S
C2829 C2825 1.408 . S
C2829 C2828 1.404 . S
C2829 H2841 0.930 . S
C2830 C2826 1.524 . S
C2830 H2842 0.956 . S
C2830 H2843 0.961 . S
C2830 H2844 0.961 . S
C2831 C2828 1.539 . S
C2831 H2845 0.958 . S
C2831 H2846 0.961 . S
C2831 H2847 0.960 . S
H2832 C2816 0.931 . S
H2833 C2821 0.929 . S
H2834 C2822 0.960 . S
H2835 C2822 0.962 . S
H2836 C2822 0.960 . S
H2837 C2823 0.961 . S
H2838 C2823 0.961 . S
H2839 C2823 0.961 . S
H2840 C2824 0.931 . S
H2841 C2829 0.930 . S
H2842 C2830 0.956 . S
H2843 C2830 0.961 . S
H2844 C2830 0.961 . S
H2845 C2831 0.958 . S
H2846 C2831 0.961 . S
H2847 C2831 0.960 . S
C2848 C2849 1.391 . S
C2848 C2850 1.394 . S
C2848 H2864 0.931 . S
C2849 C2848 1.391 . S
C2849 C2853 1.376 . S
C2850 C2848 1.394 . S
C2850 C2851 1.369 . S
C2850 C2854 1.531 1_565 S
C2851 C2850 1.369 . S
C2851 C2852 1.410 . S
C2851 C2859 1.503 1_565 S
C2852 C2851 1.410 . S
C2852 C2853 1.392 . S
C2852 C2855 1.511 . S
C2853 C2849 1.376 . S
C2853 C2852 1.392 . S
C2853 H2865 0.929 . S
C2854 C2850 1.531 1_545 S
C2854 H2866 0.960 . S
C2854 H2867 0.962 . S
C2854 H2868 0.960 . S
C2855 C2852 1.511 . S
C2855 H2869 0.961 . S
C2855 H2870 0.961 . S
C2855 H2871 0.961 . S
C2856 C2857 1.370 . S
C2856 C2858 1.363 . S
C2856 H2872 0.931 . S
C2857 C2856 1.370 . S
C2857 C2861 1.408 . S
C2858 C2856 1.363 . S
C2858 C2859 1.370 . S
C2858 C2862 1.524 1_545 S
C2859 C2851 1.503 1_545 S
C2859 C2858 1.370 . S
C2859 C2860 1.403 . S
C2860 C2859 1.403 . S
C2860 C2861 1.404 . S
C2860 C2863 1.539 . S
C2861 C2857 1.408 . S
C2861 C2860 1.404 . S
C2861 H2873 0.930 . S
C2862 C2858 1.524 1_565 S
C2862 H2874 0.956 . S
C2862 H2875 0.961 . S
C2862 H2876 0.961 . S
C2863 C2860 1.539 . S
C2863 H2877 0.958 . S
C2863 H2878 0.961 . S
C2863 H2879 0.960 . S
H2864 C2848 0.931 . S
H2865 C2853 0.929 . S
H2866 C2854 0.960 . S
H2867 C2854 0.962 . S
H2868 C2854 0.960 . S
H2869 C2855 0.961 . S
H2870 C2855 0.961 . S
H2871 C2855 0.961 . S
H2872 C2856 0.931 . S
H2873 C2861 0.930 . S
H2874 C2862 0.956 . S
H2875 C2862 0.961 . S
H2876 C2862 0.961 . S
H2877 C2863 0.958 . S
H2878 C2863 0.961 . S
H2879 C2863 0.960 . S
C2880 C2881 1.391 . S
C2880 C2882 1.394 . S
C2880 H2896 0.931 . S
C2881 C2880 1.391 . S
C2881 C2885 1.376 . S
C2882 C2880 1.394 . S
C2882 C2883 1.369 . S
C2882 C2886 1.531 . S
C2883 C2882 1.369 . S
C2883 C2884 1.410 . S
C2883 C2891 1.503 . S
C2884 C2883 1.410 . S
C2884 C2885 1.392 . S
C2884 C2887 1.511 . S
C2885 C2881 1.376 . S
C2885 C2884 1.392 . S
C2885 H2897 0.929 . S
C2886 C2882 1.531 . S
C2886 H2898 0.960 . S
C2886 H2899 0.962 . S
C2886 H2900 0.960 . S
C2887 C2884 1.511 . S
C2887 H2901 0.961 . S
C2887 H2902 0.961 . S
C2887 H2903 0.961 . S
C2888 C2889 1.370 . S
C2888 C2890 1.363 . S
C2888 H2904 0.931 . S
C2889 C2888 1.370 . S
C2889 C2893 1.408 . S
C2890 C2888 1.363 . S
C2890 C2891 1.370 . S
C2890 C2894 1.524 . S
C2891 C2883 1.503 . S
C2891 C2890 1.370 . S
C2891 C2892 1.403 . S
C2892 C2891 1.403 . S
C2892 C2893 1.404 . S
C2892 C2895 1.539 . S
C2893 C2889 1.408 . S
C2893 C2892 1.404 . S
C2893 H2905 0.930 . S
C2894 C2890 1.524 . S
C2894 H2906 0.956 . S
C2894 H2907 0.961 . S
C2894 H2908 0.961 . S
C2895 C2892 1.539 . S
C2895 H2909 0.958 . S
C2895 H2910 0.961 . S
C2895 H2911 0.960 . S
H2896 C2880 0.931 . S
H2897 C2885 0.929 . S
H2898 C2886 0.960 . S
H2899 C2886 0.962 . S
H2900 C2886 0.960 . S
H2901 C2887 0.961 . S
H2902 C2887 0.961 . S
H2903 C2887 0.961 . S
H2904 C2888 0.931 . S
H2905 C2893 0.930 . S
H2906 C2894 0.956 . S
H2907 C2894 0.961 . S
H2908 C2894 0.961 . S
H2909 C2895 0.958 . S
H2910 C2895 0.961 . S
H2911 C2895 0.960 . S
C2912 C2913 1.391 . S
C2912 C2914 1.394 1_556 S
C2912 H2928 0.931 . S
C2913 C2912 1.391 . S
C2913 C2917 1.376 . S
C2914 C2912 1.394 1_554 S
C2914 C2915 1.369 1_554 S
C2914 C2918 1.531 . S
C2915 C2914 1.369 1_556 S
C2915 C2916 1.410 . S
C2915 C2923 1.503 1_546 S
C2916 C2915 1.410 . S
C2916 C2917 1.392 . S
C2916 C2919 1.511 1_545 S
C2917 C2913 1.376 . S
C2917 C2916 1.392 . S
C2917 H2929 0.929 . S
C2918 C2914 1.531 . S
C2918 H2930 0.960 . S
C2918 H2931 0.962 . S
C2918 H2932 0.960 . S
C2919 C2916 1.511 1_565 S
C2919 H2933 0.961 . S
C2919 H2934 0.961 . S
C2919 H2935 0.961 . S
C2920 C2921 1.370 . S
C2920 C2922 1.363 . S
C2920 H2936 0.931 . S
C2921 C2920 1.370 . S
C2921 C2925 1.408 . S
C2922 C2920 1.363 . S
C2922 C2923 1.370 . S
C2922 C2926 1.524 1_554 S
C2923 C2915 1.503 1_564 S
C2923 C2922 1.370 . S
C2923 C2924 1.403 . S
C2924 C2923 1.403 . S
C2924 C2925 1.404 . S
C2924 C2927 1.539 1_565 S
C2925 C2921 1.408 . S
C2925 C2924 1.404 . S
C2925 H2937 0.930 . S
C2926 C2922 1.524 1_556 S
C2926 H2938 0.956 . S
C2926 H2939 0.961 . S
C2926 H2940 0.961 . S
C2927 C2924 1.539 1_545 S
C2927 H2941 0.958 . S
C2927 H2942 0.961 1_545 S
C2927 H2943 0.960 . S
H2928 C2912 0.931 . S
H2929 C2917 0.929 . S
H2930 C2918 0.960 . S
H2931 C2918 0.962 . S
H2932 C2918 0.960 . S
H2933 C2919 0.961 . S
H2934 C2919 0.961 . S
H2935 C2919 0.961 . S
H2936 C2920 0.931 . S
H2937 C2925 0.930 . S
H2938 C2926 0.956 . S
H2939 C2926 0.961 . S
H2940 C2926 0.961 . S
H2941 C2927 0.958 . S
H2942 C2927 0.961 1_565 S
H2943 C2927 0.960 . S
C2944 C2945 1.391 . S
C2944 C2946 1.394 . S
C2944 H2960 0.931 . S
C2945 C2944 1.391 . S
C2945 C2949 1.376 . S
C2946 C2944 1.394 . S
C2946 C2947 1.369 . S
C2946 C2950 1.531 . S
C2947 C2946 1.369 . S
C2947 C2948 1.410 . S
C2947 C2955 1.503 . S
C2948 C2947 1.410 . S
C2948 C2949 1.392 . S
C2948 C2951 1.511 . S
C2949 C2945 1.376 . S
C2949 C2948 1.392 . S
C2949 H2961 0.929 . S
C2950 C2946 1.531 . S
C2950 H2962 0.960 . S
C2950 H2963 0.962 . S
C2950 H2964 0.960 . S
C2951 C2948 1.511 . S
C2951 H2965 0.961 . S
C2951 H2966 0.961 . S
C2951 H2967 0.961 . S
C2952 C2953 1.370 . S
C2952 C2954 1.363 . S
C2952 H2968 0.931 . S
C2953 C2952 1.370 . S
C2953 C2957 1.408 . S
C2954 C2952 1.363 . S
C2954 C2955 1.370 . S
C2954 C2958 1.524 . S
C2955 C2947 1.503 . S
C2955 C2954 1.370 . S
C2955 C2956 1.403 . S
C2956 C2955 1.403 . S
C2956 C2957 1.404 . S
C2956 C2959 1.539 . S
C2957 C2953 1.408 . S
C2957 C2956 1.404 . S
C2957 H2969 0.930 . S
C2958 C2954 1.524 . S
C2958 H2970 0.956 . S
C2958 H2971 0.961 . S
C2958 H2972 0.961 . S
C2959 C2956 1.539 . S
C2959 H2973 0.958 . S
C2959 H2974 0.961 . S
C2959 H2975 0.960 . S
H2960 C2944 0.931 . S
H2961 C2949 0.929 . S
H2962 C2950 0.960 . S
H2963 C2950 0.962 . S
H2964 C2950 0.960 . S
H2965 C2951 0.961 . S
H2966 C2951 0.961 . S
H2967 C2951 0.961 . S
H2968 C2952 0.931 . S
H2969 C2957 0.930 . S
H2970 C2958 0.956 . S
H2971 C2958 0.961 . S
H2972 C2958 0.961 . S
H2973 C2959 0.958 . S
H2974 C2959 0.961 . S
H2975 C2959 0.960 . S
C2976 C2977 1.391 . S
C2976 C2978 1.394 . S
C2976 H2992 0.931 . S
C2977 C2976 1.391 . S
C2977 C2981 1.376 . S
C2978 C2976 1.394 . S
C2978 C2979 1.369 . S
C2978 C2982 1.531 . S
C2979 C2978 1.369 . S
C2979 C2980 1.410 . S
C2979 C2987 1.503 1_565 S
C2980 C2979 1.410 . S
C2980 C2981 1.392 . S
C2980 C2983 1.511 . S
C2981 C2977 1.376 . S
C2981 C2980 1.392 . S
C2981 H2993 0.929 . S
C2982 C2978 1.531 . S
C2982 H2994 0.960 . S
C2982 H2995 0.962 . S
C2982 H2996 0.960 . S
C2983 C2980 1.511 . S
C2983 H2997 0.961 . S
C2983 H2998 0.961 1_565 S
C2983 H2999 0.961 . S
C2984 C2985 1.370 . S
C2984 C2986 1.363 . S
C2984 H3000 0.931 . S
C2985 C2984 1.370 . S
C2985 C2989 1.408 . S
C2986 C2984 1.363 . S
C2986 C2987 1.370 . S
C2986 C2990 1.524 . S
C2987 C2979 1.503 1_545 S
C2987 C2986 1.370 . S
C2987 C2988 1.403 . S
C2988 C2987 1.403 . S
C2988 C2989 1.404 . S
C2988 C2991 1.539 1_545 S
C2989 C2985 1.408 . S
C2989 C2988 1.404 . S
C2989 H3001 0.930 . S
C2990 C2986 1.524 . S
C2990 H3002 0.956 . S
C2990 H3003 0.961 . S
C2990 H3004 0.961 . S
C2991 C2988 1.539 1_565 S
C2991 H3005 0.958 . S
C2991 H3006 0.961 . S
C2991 H3007 0.960 . S
H2992 C2976 0.931 . S
H2993 C2981 0.929 . S
H2994 C2982 0.960 . S
H2995 C2982 0.962 . S
H2996 C2982 0.960 . S
H2997 C2983 0.961 . S
H2998 C2983 0.961 1_545 S
H2999 C2983 0.961 . S
H3000 C2984 0.931 . S
H3001 C2989 0.930 . S
H3002 C2990 0.956 . S
H3003 C2990 0.961 . S
H3004 C2990 0.961 . S
H3005 C2991 0.958 . S
H3006 C2991 0.961 . S
H3007 C2991 0.960 . S
C3008 C3009 1.391 . S
C3008 C3010 1.394 . S
C3008 H3024 0.931 . S
C3009 C3008 1.391 . S
C3009 C3013 1.376 . S
C3010 C3008 1.394 . S
C3010 C3011 1.369 . S
C3010 C3014 1.531 . S
C3011 C3010 1.369 . S
C3011 C3012 1.410 . S
C3011 C3019 1.503 . S
C3012 C3011 1.410 . S
C3012 C3013 1.392 . S
C3012 C3015 1.511 . S
C3013 C3009 1.376 . S
C3013 C3012 1.392 . S
C3013 H3025 0.929 . S
C3014 C3010 1.531 . S
C3014 H3026 0.960 . S
C3014 H3027 0.962 . S
C3014 H3028 0.960 . S
C3015 C3012 1.511 . S
C3015 H3029 0.961 . S
C3015 H3030 0.961 . S
C3015 H3031 0.961 . S
C3016 C3017 1.370 . S
C3016 C3018 1.363 . S
C3016 H3032 0.931 . S
C3017 C3016 1.370 . S
C3017 C3021 1.408 . S
C3018 C3016 1.363 . S
C3018 C3019 1.370 . S
C3018 C3022 1.524 . S
C3019 C3011 1.503 . S
C3019 C3018 1.370 . S
C3019 C3020 1.403 . S
C3020 C3019 1.403 . S
C3020 C3021 1.404 . S
C3020 C3023 1.539 . S
C3021 C3017 1.408 . S
C3021 C3020 1.404 . S
C3021 H3033 0.930 . S
C3022 C3018 1.524 . S
C3022 H3034 0.956 . S
C3022 H3035 0.961 . S
C3022 H3036 0.961 . S
C3023 C3020 1.539 . S
C3023 H3037 0.958 . S
C3023 H3038 0.961 . S
C3023 H3039 0.960 . S
H3024 C3008 0.931 . S
H3025 C3013 0.929 . S
H3026 C3014 0.960 . S
H3027 C3014 0.962 . S
H3028 C3014 0.960 . S
H3029 C3015 0.961 . S
H3030 C3015 0.961 . S
H3031 C3015 0.961 . S
H3032 C3016 0.931 . S
H3033 C3021 0.930 . S
H3034 C3022 0.956 . S
H3035 C3022 0.961 . S
H3036 C3022 0.961 . S
H3037 C3023 0.958 . S
H3038 C3023 0.961 . S
H3039 C3023 0.960 . S
C3040 C3041 1.391 . S
C3040 C3042 1.394 . S
C3040 H3056 0.931 . S
C3041 C3040 1.391 . S
C3041 C3045 1.376 . S
C3042 C3040 1.394 . S
C3042 C3043 1.369 . S
C3042 C3046 1.531 1_545 S
C3043 C3042 1.369 . S
C3043 C3044 1.410 . S
C3043 C3051 1.503 1_546 S
C3044 C3043 1.410 . S
C3044 C3045 1.392 . S
C3044 C3047 1.511 1_556 S
C3045 C3041 1.376 . S
C3045 C3044 1.392 . S
C3045 H3057 0.929 . S
C3046 C3042 1.531 1_565 S
C3046 H3058 0.960 . S
C3046 H3059 0.977 . S
C3046 H3060 0.960 . S
C3047 C3044 1.511 1_554 S
C3047 H3061 0.961 . S
C3047 H3062 0.961 . S
C3047 H3063 0.961 1_554 S
C3048 C3049 1.370 . S
C3048 C3050 1.363 . S
C3048 H3064 0.931 . S
C3049 C3048 1.370 . S
C3049 C3053 1.408 . S
C3050 C3048 1.363 . S
C3050 C3051 1.370 . S
C3050 C3054 1.524 1_565 S
C3051 C3043 1.503 1_564 S
C3051 C3050 1.370 . S
C3051 C3052 1.403 1_554 S
C3052 C3051 1.403 1_556 S
C3052 C3053 1.404 1_556 S
C3052 C3055 1.539 . S
C3053 C3049 1.408 . S
C3053 C3052 1.404 1_554 S
C3053 H3065 0.930 . S
C3054 C3050 1.524 1_545 S
C3054 H3066 0.956 . S
C3054 H3067 0.961 . S
C3054 H3068 0.961 . S
C3055 C3052 1.539 . S
C3055 H3069 0.958 . S
C3055 H3070 0.961 . S
C3055 H3071 0.960 . S
H3056 C3040 0.931 . S
H3057 C3045 0.929 . S
H3058 C3046 0.960 . S
H3059 C3046 0.977 . S
H3060 C3046 0.960 . S
H3061 C3047 0.961 . S
H3062 C3047 0.961 . S
H3063 C3047 0.961 1_556 S
H3064 C3048 0.931 . S
H3065 C3053 0.930 . S
H3066 C3054 0.956 . S
H3067 C3054 0.961 . S
H3068 C3054 0.961 . S
H3069 C3055 0.958 . S
H3070 C3055 0.961 . S
H3071 C3055 0.960 . S
C3072 C3073 1.391 . S
C3072 C3074 1.394 . S
C3072 H3088 0.931 . S
C3073 C3072 1.391 . S
C3073 C3077 1.376 . S
C3074 C3072 1.394 . S
C3074 C3075 1.369 . S
C3074 C3078 1.531 . S
C3075 C3074 1.369 . S
C3075 C3076 1.410 . S
C3075 C3083 1.503 . S
C3076 C3075 1.410 . S
C3076 C3077 1.392 . S
C3076 C3079 1.511 . S
C3077 C3073 1.376 . S
C3077 C3076 1.392 . S
C3077 H3089 0.929 . S
C3078 C3074 1.531 . S
C3078 H3090 0.960 . S
C3078 H3091 0.962 . S
C3078 H3092 0.960 . S
C3079 C3076 1.511 . S
C3079 H3093 0.961 . S
C3079 H3094 0.961 . S
C3079 H3095 0.961 . S
C3080 C3081 1.370 . S
C3080 C3082 1.363 . S
C3080 H3096 0.931 . S
C3081 C3080 1.370 . S
C3081 C3085 1.408 . S
C3082 C3080 1.363 . S
C3082 C3083 1.370 . S
C3082 C3086 1.524 . S
C3083 C3075 1.503 . S
C3083 C3082 1.370 . S
C3083 C3084 1.403 . S
C3084 C3083 1.403 . S
C3084 C3085 1.404 . S
C3084 C3087 1.539 . S
C3085 C3081 1.408 . S
C3085 C3084 1.404 . S
C3085 H3097 0.930 . S
C3086 C3082 1.524 . S
C3086 H3098 0.956 . S
C3086 H3099 0.961 . S
C3086 H3100 0.961 . S
C3087 C3084 1.539 . S
C3087 H3101 0.958 . S
C3087 H3102 0.961 . S
C3087 H3103 0.960 . S
H3088 C3072 0.931 . S
H3089 C3077 0.929 . S
H3090 C3078 0.960 . S
H3091 C3078 0.962 . S
H3092 C3078 0.960 . S
H3093 C3079 0.961 . S
H3094 C3079 0.961 . S
H3095 C3079 0.961 . S
H3096 C3080 0.931 . S
H3097 C3085 0.930 . S
H3098 C3086 0.956 . S
H3099 C3086 0.961 . S
H3100 C3086 0.961 . S
H3101 C3087 0.958 . S
H3102 C3087 0.961 . S
H3103 C3087 0.960 . S
C3104 C3105 1.391 . S
C3104 C3106 1.394 . S
C3104 H3120 0.931 . S
C3105 C3104 1.391 . S
C3105 C3109 1.376 . S
C3106 C3104 1.394 . S
C3106 C3107 1.369 . S
C3106 C3110 1.531 . S
C3107 C3106 1.369 . S
C3107 C3108 1.410 . S
C3107 C3115 1.503 1_556 S
C3108 C3107 1.410 . S
C3108 C3109 1.392 . S
C3108 C3111 1.511 1_556 S
C3109 C3105 1.376 . S
C3109 C3108 1.392 . S
C3109 H3121 0.929 . S
C3110 C3106 1.531 . S
C3110 H3122 0.960 . S
C3110 H3123 0.962 . S
C3110 H3124 0.960 . S
C3111 C3108 1.511 1_554 S
C3111 H3125 0.961 . S
C3111 H3126 0.961 . S
C3111 H3127 0.954 1_554 S
C3112 C3113 1.370 . S
C3112 C3114 1.363 . S
C3112 H3128 0.931 . S
C3113 C3112 1.370 . S
C3113 C3117 1.408 . S
C3114 C3112 1.363 . S
C3114 C3115 1.370 . S
C3114 C3118 1.524 . S
C3115 C3107 1.503 1_554 S
C3115 C3114 1.370 . S
C3115 C3116 1.403 1_554 S
C3116 C3115 1.403 1_556 S
C3116 C3117 1.404 1_556 S
C3116 C3119 1.539 . S
C3117 C3113 1.408 . S
C3117 C3116 1.404 1_554 S
C3117 H3129 0.930 . S
C3118 C3114 1.524 . S
C3118 H3130 0.956 . S
C3118 H3131 0.961 . S
C3118 H3132 0.961 . S
C3119 C3116 1.539 . S
C3119 H3133 0.958 . S
C3119 H3134 0.961 . S
C3119 H3135 0.960 . S
H3120 C3104 0.931 . S
H3121 C3109 0.929 . S
H3122 C3110 0.960 . S
H3123 C3110 0.962 . S
H3124 C3110 0.960 . S
H3125 C3111 0.961 . S
H3126 C3111 0.961 . S
H3127 C3111 0.954 1_556 S
H3128 C3112 0.931 . S
H3129 C3117 0.930 . S
H3130 C3118 0.956 . S
H3131 C3118 0.961 . S
H3132 C3118 0.961 . S
H3133 C3119 0.958 . S
H3134 C3119 0.961 . S
H3135 C3119 0.960 . S
C3136 C3137 1.391 . S
C3136 C3138 1.394 . S
C3136 H3152 0.931 . S
C3137 C3136 1.391 . S
C3137 C3141 1.376 . S
C3138 C3136 1.394 . S
C3138 C3139 1.369 . S
C3138 C3142 1.531 . S
C3139 C3138 1.369 . S
C3139 C3140 1.410 . S
C3139 C3147 1.503 . S
C3140 C3139 1.410 . S
C3140 C3141 1.392 . S
C3140 C3143 1.511 . S
C3141 C3137 1.376 . S
C3141 C3140 1.392 . S
C3141 H3153 0.929 . S
C3142 C3138 1.531 . S
C3142 H3154 0.960 . S
C3142 H3155 0.962 . S
C3142 H3156 0.960 . S
C3143 C3140 1.511 . S
C3143 H3157 0.961 . S
C3143 H3158 0.961 . S
C3143 H3159 0.961 . S
C3144 C3145 1.370 . S
C3144 C3146 1.363 . S
C3144 H3160 0.931 . S
C3145 C3144 1.370 . S
C3145 C3149 1.408 . S
C3146 C3144 1.363 . S
C3146 C3147 1.370 . S
C3146 C3150 1.524 . S
C3147 C3139 1.503 . S
C3147 C3146 1.370 . S
C3147 C3148 1.403 . S
C3148 C3147 1.403 . S
C3148 C3149 1.404 . S
C3148 C3151 1.539 . S
C3149 C3145 1.408 . S
C3149 C3148 1.404 . S
C3149 H3161 0.930 . S
C3150 C3146 1.524 . S
C3150 H3162 0.956 . S
C3150 H3163 0.961 . S
C3150 H3164 0.961 . S
C3151 C3148 1.539 . S
C3151 H3165 0.958 . S
C3151 H3166 0.961 . S
C3151 H3167 0.960 . S
H3152 C3136 0.931 . S
H3153 C3141 0.929 . S
H3154 C3142 0.960 . S
H3155 C3142 0.962 . S
H3156 C3142 0.960 . S
H3157 C3143 0.961 . S
H3158 C3143 0.961 . S
H3159 C3143 0.961 . S
H3160 C3144 0.931 . S
H3161 C3149 0.930 . S
H3162 C3150 0.956 . S
H3163 C3150 0.961 . S
H3164 C3150 0.961 . S
H3165 C3151 0.958 . S
H3166 C3151 0.961 . S
H3167 C3151 0.960 . S
C3168 C3169 1.391 . S
C3168 C3170 1.394 . S
C3168 H3184 0.931 . S
C3169 C3168 1.391 . S
C3169 C3173 1.376 . S
C3170 C3168 1.394 . S
C3170 C3171 1.369 . S
C3170 C3174 1.531 . S
C3171 C3170 1.369 . S
C3171 C3172 1.410 . S
C3171 C3179 1.503 . S
C3172 C3171 1.410 . S
C3172 C3173 1.392 . S
C3172 C3175 1.511 . S
C3173 C3169 1.376 . S
C3173 C3172 1.392 . S
C3173 H3185 0.929 . S
C3174 C3170 1.531 . S
C3174 H3186 0.960 . S
C3174 H3187 0.962 . S
C3174 H3188 0.960 . S
C3175 C3172 1.511 . S
C3175 H3189 0.961 . S
C3175 H3190 0.961 . S
C3175 H3191 0.961 . S
C3176 C3177 1.370 . S
C3176 C3178 1.363 . S
C3176 H3192 0.931 . S
C3177 C3176 1.370 . S
C3177 C3181 1.408 . S
C3178 C3176 1.363 . S
C3178 C3179 1.370 . S
C3178 C3182 1.524 . S
C3179 C3171 1.503 . S
C3179 C3178 1.370 . S
C3179 C3180 1.403 . S
C3180 C3179 1.403 . S
C3180 C3181 1.404 . S
C3180 C3183 1.539 . S
C3181 C3177 1.408 . S
C3181 C3180 1.404 . S
C3181 H3193 0.930 . S
C3182 C3178 1.524 . S
C3182 H3194 0.956 . S
C3182 H3195 0.961 . S
C3182 H3196 0.961 . S
C3183 C3180 1.539 . S
C3183 H3197 0.958 . S
C3183 H3198 0.961 . S
C3183 H3199 0.960 . S
H3184 C3168 0.931 . S
H3185 C3173 0.929 . S
H3186 C3174 0.960 . S
H3187 C3174 0.962 . S
H3188 C3174 0.960 . S
H3189 C3175 0.961 . S
H3190 C3175 0.961 . S
H3191 C3175 0.961 . S
H3192 C3176 0.931 . S
H3193 C3181 0.930 . S
H3194 C3182 0.956 . S
H3195 C3182 0.961 . S
H3196 C3182 0.961 . S
H3197 C3183 0.958 . S
H3198 C3183 0.961 . S
H3199 C3183 0.960 . S
C3200 C3201 1.391 . S
C3200 C3202 1.394 . S
C3200 H3216 0.931 . S
C3201 C3200 1.391 . S
C3201 C3205 1.376 . S
C3202 C3200 1.394 . S
C3202 C3203 1.369 . S
C3202 C3206 1.531 . S
C3203 C3202 1.369 . S
C3203 C3204 1.410 . S
C3203 C3211 1.503 . S
C3204 C3203 1.410 . S
C3204 C3205 1.392 . S
C3204 C3207 1.511 . S
C3205 C3201 1.376 . S
C3205 C3204 1.392 . S
C3205 H3217 0.929 . S
C3206 C3202 1.531 . S
C3206 H3218 0.960 . S
C3206 H3219 0.962 . S
C3206 H3220 0.960 . S
C3207 C3204 1.511 . S
C3207 H3221 0.961 . S
C3207 H3222 0.961 . S
C3207 H3223 0.961 . S
C3208 C3209 1.370 . S
C3208 C3210 1.363 . S
C3208 H3224 0.931 . S
C3209 C3208 1.370 . S
C3209 C3213 1.408 . S
C3210 C3208 1.363 . S
C3210 C3211 1.370 . S
C3210 C3214 1.524 . S
C3211 C3203 1.503 . S
C3211 C3210 1.370 . S
C3211 C3212 1.403 . S
C3212 C3211 1.403 . S
C3212 C3213 1.404 . S
C3212 C3215 1.539 . S
C3213 C3209 1.408 . S
C3213 C3212 1.404 . S
C3213 H3225 0.930 . S
C3214 C3210 1.524 . S
C3214 H3226 0.956 . S
C3214 H3227 0.961 . S
C3214 H3228 0.961 . S
C3215 C3212 1.539 . S
C3215 H3229 0.958 . S
C3215 H3230 0.961 . S
C3215 H3231 0.960 . S
H3216 C3200 0.931 . S
H3217 C3205 0.929 . S
H3218 C3206 0.960 . S
H3219 C3206 0.962 . S
H3220 C3206 0.960 . S
H3221 C3207 0.961 . S
H3222 C3207 0.961 . S
H3223 C3207 0.961 . S
H3224 C3208 0.931 . S
H3225 C3213 0.930 . S
H3226 C3214 0.956 . S
H3227 C3214 0.961 . S
H3228 C3214 0.961 . S
H3229 C3215 0.958 . S
H3230 C3215 0.961 . S
H3231 C3215 0.960 . S
C3232 C3233 1.391 . S
C3232 C3234 1.396 . S
C3232 H3248 0.931 . S
C3233 C3232 1.391 . S
C3233 C3237 1.376 . S
C3234 C3232 1.396 . S
C3234 C3235 1.370 . S
C3234 C3238 1.527 1_554 S
C3235 C3234 1.370 . S
C3235 C3236 1.410 . S
C3235 C3243 1.503 1_554 S
C3236 C3235 1.410 . S
C3236 C3237 1.392 . S
C3236 C3239 1.511 . S
C3237 C3233 1.376 . S
C3237 C3236 1.392 . S
C3237 H3249 0.929 . S
C3238 C3234 1.527 1_556 S
C3238 H3250 0.960 . S
C3238 H3251 0.962 . S
C3238 H3252 0.960 . S
C3239 C3236 1.511 . S
C3239 H3253 0.961 . S
C3239 H3254 0.961 . S
C3239 H3255 0.961 . S
C3240 C3241 1.370 . S
C3240 C3242 1.363 . S
C3240 H3256 0.931 . S
C3241 C3240 1.370 . S
C3241 C3245 1.408 . S
C3242 C3240 1.363 . S
C3242 C3243 1.370 . S
C3242 C3246 1.524 . S
C3243 C3235 1.503 1_556 S
C3243 C3242 1.370 . S
C3243 C3244 1.403 . S
C3244 C3243 1.403 . S
C3244 C3245 1.404 . S
C3244 C3247 1.539 1_556 S
C3245 C3241 1.408 . S
C3245 C3244 1.404 . S
C3245 H3257 0.930 . S
C3246 C3242 1.524 . S
C3246 H3258 0.956 . S
C3246 H3259 0.961 . S
C3246 H3260 0.961 . S
C3247 C3244 1.539 1_554 S
C3247 H3261 0.958 . S
C3247 H3262 0.961 . S
C3247 H3263 0.960 . S
H3248 C3232 0.931 . S
H3249 C3237 0.929 . S
H3250 C3238 0.960 . S
H3251 C3238 0.962 . S
H3252 C3238 0.960 . S
H3253 C3239 0.961 . S
H3254 C3239 0.961 . S
H3255 C3239 0.961 . S
H3256 C3240 0.931 . S
H3257 C3245 0.930 . S
H3258 C3246 0.956 . S
H3259 C3246 0.961 . S
H3260 C3246 0.961 . S
H3261 C3247 0.958 . S
H3262 C3247 0.961 . S
H3263 C3247 0.960 . S
C3264 C3265 1.391 . S
C3264 C3266 1.394 . S
C3264 H3280 0.931 . S
C3265 C3264 1.391 . S
C3265 C3269 1.376 . S
C3266 C3264 1.394 . S
C3266 C3267 1.369 . S
C3266 C3270 1.531 . S
C3267 C3266 1.369 . S
C3267 C3268 1.410 . S
C3267 C3275 1.503 . S
C3268 C3267 1.410 . S
C3268 C3269 1.392 . S
C3268 C3271 1.511 . S
C3269 C3265 1.376 . S
C3269 C3268 1.392 . S
C3269 H3281 0.929 . S
C3270 C3266 1.531 . S
C3270 H3282 0.960 . S
C3270 H3283 0.962 . S
C3270 H3284 0.960 . S
C3271 C3268 1.511 . S
C3271 H3285 0.961 . S
C3271 H3286 0.961 . S
C3271 H3287 0.961 . S
C3272 C3273 1.370 . S
C3272 C3274 1.363 . S
C3272 H3288 0.931 . S
C3273 C3272 1.370 . S
C3273 C3277 1.408 . S
C3274 C3272 1.363 . S
C3274 C3275 1.370 . S
C3274 C3278 1.524 . S
C3275 C3267 1.503 . S
C3275 C3274 1.370 . S
C3275 C3276 1.403 . S
C3276 C3275 1.403 . S
C3276 C3277 1.404 . S
C3276 C3279 1.539 . S
C3277 C3273 1.408 . S
C3277 C3276 1.404 . S
C3277 H3289 0.930 . S
C3278 C3274 1.524 . S
C3278 H3290 0.956 . S
C3278 H3291 0.961 . S
C3278 H3292 0.961 . S
C3279 C3276 1.539 . S
C3279 H3293 0.958 . S
C3279 H3294 0.961 . S
C3279 H3295 0.960 . S
H3280 C3264 0.931 . S
H3281 C3269 0.929 . S
H3282 C3270 0.960 . S
H3283 C3270 0.962 . S
H3284 C3270 0.960 . S
H3285 C3271 0.961 . S
H3286 C3271 0.961 . S
H3287 C3271 0.961 . S
H3288 C3272 0.931 . S
H3289 C3277 0.930 . S
H3290 C3278 0.956 . S
H3291 C3278 0.961 . S
H3292 C3278 0.961 . S
H3293 C3279 0.958 . S
H3294 C3279 0.961 . S
H3295 C3279 0.960 . S
C3296 C3297 1.391 . S
C3296 C3298 1.394 . S
C3296 H3312 0.931 . S
C3297 C3296 1.391 . S
C3297 C3301 1.376 . S
C3298 C3296 1.394 . S
C3298 C3299 1.369 . S
C3298 C3302 1.531 . S
C3299 C3298 1.369 . S
C3299 C3300 1.410 . S
C3299 C3307 1.503 . S
C3300 C3299 1.410 . S
C3300 C3301 1.392 . S
C3300 C3303 1.511 . S
C3301 C3297 1.376 . S
C3301 C3300 1.392 . S
C3301 H3313 0.929 . S
C3302 C3298 1.531 . S
C3302 H3314 0.960 . S
C3302 H3315 0.962 . S
C3302 H3316 0.960 . S
C3303 C3300 1.511 . S
C3303 H3317 0.961 . S
C3303 H3318 0.961 . S
C3303 H3319 0.961 . S
C3304 C3305 1.370 . S
C3304 C3306 1.363 . S
C3304 H3320 0.931 . S
C3305 C3304 1.370 . S
C3305 C3309 1.408 . S
C3306 C3304 1.363 . S
C3306 C3307 1.370 . S
C3306 C3310 1.524 . S
C3307 C3299 1.503 . S
C3307 C3306 1.370 . S
C3307 C3308 1.403 . S
C3308 C3307 1.403 . S
C3308 C3309 1.404 . S
C3308 C3311 1.539 . S
C3309 C3305 1.408 . S
C3309 C3308 1.404 . S
C3309 H3321 0.930 . S
C3310 C3306 1.524 . S
C3310 H3322 0.956 . S
C3310 H3323 0.961 . S
C3310 H3324 0.961 . S
C3311 C3308 1.539 . S
C3311 H3325 0.958 . S
C3311 H3326 0.961 . S
C3311 H3327 0.960 . S
H3312 C3296 0.931 . S
H3313 C3301 0.929 . S
H3314 C3302 0.960 . S
H3315 C3302 0.962 . S
H3316 C3302 0.960 . S
H3317 C3303 0.961 . S
H3318 C3303 0.961 . S
H3319 C3303 0.961 . S
H3320 C3304 0.931 . S
H3321 C3309 0.930 . S
H3322 C3310 0.956 . S
H3323 C3310 0.961 . S
H3324 C3310 0.961 . S
H3325 C3311 0.958 . S
H3326 C3311 0.961 . S
H3327 C3311 0.960 . S
C3328 C3329 1.391 . S
C3328 C3330 1.394 . S
C3328 H3344 0.931 . S
C3329 C3328 1.391 . S
C3329 C3333 1.376 . S
C3330 C3328 1.394 . S
C3330 C3331 1.369 . S
C3330 C3334 1.531 . S
C3331 C3330 1.369 . S
C3331 C3332 1.410 . S
C3331 C3339 1.503 . S
C3332 C3331 1.410 . S
C3332 C3333 1.392 . S
C3332 C3335 1.511 . S
C3333 C3329 1.376 . S
C3333 C3332 1.392 . S
C3333 H3345 0.929 . S
C3334 C3330 1.531 . S
C3334 H3346 0.960 . S
C3334 H3347 0.962 . S
C3334 H3348 0.960 . S
C3335 C3332 1.511 . S
C3335 H3349 0.961 . S
C3335 H3350 0.961 . S
C3335 H3351 0.961 . S
C3336 C3337 1.370 . S
C3336 C3338 1.363 . S
C3336 H3352 0.931 . S
C3337 C3336 1.370 . S
C3337 C3341 1.408 . S
C3338 C3336 1.363 . S
C3338 C3339 1.370 . S
C3338 C3342 1.524 . S
C3339 C3331 1.503 . S
C3339 C3338 1.370 . S
C3339 C3340 1.403 . S
C3340 C3339 1.403 . S
C3340 C3341 1.404 . S
C3340 C3343 1.539 . S
C3341 C3337 1.408 . S
C3341 C3340 1.404 . S
C3341 H3353 0.930 . S
C3342 C3338 1.524 . S
C3342 H3354 0.956 . S
C3342 H3355 0.961 . S
C3342 H3356 0.961 . S
C3343 C3340 1.539 . S
C3343 H3357 0.958 . S
C3343 H3358 0.961 . S
C3343 H3359 0.960 . S
H3344 C3328 0.931 . S
H3345 C3333 0.929 . S
H3346 C3334 0.960 . S
H3347 C3334 0.962 . S
H3348 C3334 0.960 . S
H3349 C3335 0.961 . S
H3350 C3335 0.961 . S
H3351 C3335 0.961 . S
H3352 C3336 0.931 . S
H3353 C3341 0.930 . S
H3354 C3342 0.956 . S
H3355 C3342 0.961 . S
H3356 C3342 0.961 . S
H3357 C3343 0.958 . S
H3358 C3343 0.961 . S
H3359 C3343 0.960 . S
C3360 C3361 1.391 . S
C3360 C3362 1.394 . S
C3360 H3376 0.931 . S
C3361 C3360 1.391 . S
C3361 C3365 1.376 . S
C3362 C3360 1.394 . S
C3362 C3363 1.369 . S
C3362 C3366 1.531 . S
C3363 C3362 1.369 . S
C3363 C3364 1.410 . S
C3363 C3371 1.503 . S
C3364 C3363 1.410 . S
C3364 C3365 1.392 . S
C3364 C3367 1.511 . S
C3365 C3361 1.376 . S
C3365 C3364 1.392 . S
C3365 H3377 0.929 . S
C3366 C3362 1.531 . S
C3366 H3378 0.960 . S
C3366 H3379 0.962 . S
C3366 H3380 0.960 . S
C3367 C3364 1.511 . S
C3367 H3381 0.961 . S
C3367 H3382 0.961 . S
C3367 H3383 0.961 . S
C3368 C3369 1.370 . S
C3368 C3370 1.363 . S
C3368 H3384 0.931 . S
C3369 C3368 1.370 . S
C3369 C3373 1.408 . S
C3370 C3368 1.363 . S
C3370 C3371 1.370 . S
C3370 C3374 1.524 . S
C3371 C3363 1.503 . S
C3371 C3370 1.370 . S
C3371 C3372 1.403 . S
C3372 C3371 1.403 . S
C3372 C3373 1.404 . S
C3372 C3375 1.539 . S
C3373 C3369 1.408 . S
C3373 C3372 1.404 . S
C3373 H3385 0.930 . S
C3374 C3370 1.524 . S
C3374 H3386 0.956 . S
C3374 H3387 0.961 . S
C3374 H3388 0.961 . S
C3375 C3372 1.539 . S
C3375 H3389 0.958 . S
C3375 H3390 0.961 . S
C3375 H3391 0.960 . S
H3376 C3360 0.931 . S
H3377 C3365 0.929 . S
H3378 C3366 0.960 . S
H3379 C3366 0.962 . S
H3380 C3366 0.960 . S
H3381 C3367 0.961 . S
H3382 C3367 0.961 . S
H3383 C3367 0.961 . S
H3384 C3368 0.931 . S
H3385 C3373 0.930 . S
H3386 C3374 0.956 . S
H3387 C3374 0.961 . S
H3388 C3374 0.961 . S
H3389 C3375 0.958 . S
H3390 C3375 0.961 . S
H3391 C3375 0.960 . S
C3392 C3393 1.391 . S
C3392 C3394 1.394 . S
C3392 H3408 0.931 . S
C3393 C3392 1.391 . S
C3393 C3397 1.376 . S
C3394 C3392 1.394 . S
C3394 C3395 1.369 . S
C3394 C3398 1.531 . S
C3395 C3394 1.369 . S
C3395 C3396 1.410 . S
C3395 C3403 1.503 . S
C3396 C3395 1.410 . S
C3396 C3397 1.392 . S
C3396 C3399 1.511 . S
C3397 C3393 1.376 . S
C3397 C3396 1.392 . S
C3397 H3409 0.929 . S
C3398 C3394 1.531 . S
C3398 H3410 0.960 . S
C3398 H3411 0.962 . S
C3398 H3412 0.960 . S
C3399 C3396 1.511 . S
C3399 H3413 0.961 . S
C3399 H3414 0.961 . S
C3399 H3415 0.961 . S
C3400 C3401 1.370 . S
C3400 C3402 1.363 . S
C3400 H3416 0.931 . S
C3401 C3400 1.370 . S
C3401 C3405 1.408 . S
C3402 C3400 1.363 . S
C3402 C3403 1.370 . S
C3402 C3406 1.524 . S
C3403 C3395 1.503 . S
C3403 C3402 1.370 . S
C3403 C3404 1.403 . S
C3404 C3403 1.403 . S
C3404 C3405 1.404 . S
C3404 C3407 1.539 . S
C3405 C3401 1.408 . S
C3405 C3404 1.404 . S
C3405 H3417 0.930 . S
C3406 C3402 1.524 . S
C3406 H3418 0.956 . S
C3406 H3419 0.961 . S
C3406 H3420 0.961 . S
C3407 C3404 1.539 . S
C3407 H3421 0.958 . S
C3407 H3422 0.961 . S
C3407 H3423 0.960 . S
H3408 C3392 0.931 . S
H3409 C3397 0.929 . S
H3410 C3398 0.960 . S
H3411 C3398 0.962 . S
H3412 C3398 0.960 . S
H3413 C3399 0.961 . S
H3414 C3399 0.961 . S
H3415 C3399 0.961 . S
H3416 C3400 0.931 . S
H3417 C3405 0.930 . S
H3418 C3406 0.956 . S
H3419 C3406 0.961 . S
H3420 C3406 0.961 . S
H3421 C3407 0.958 . S
H3422 C3407 0.961 . S
H3423 C3407 0.960 . S
C3424 C3425 1.391 . S
C3424 C3426 1.394 . S
C3424 H3440 0.931 . S
C3425 C3424 1.391 . S
C3425 C3429 1.376 . S
C3426 C3424 1.394 . S
C3426 C3427 1.369 . S
C3426 C3430 1.531 . S
C3427 C3426 1.369 . S
C3427 C3428 1.410 . S
C3427 C3435 1.503 . S
C3428 C3427 1.410 . S
C3428 C3429 1.392 . S
C3428 C3431 1.511 . S
C3429 C3425 1.376 . S
C3429 C3428 1.392 . S
C3429 H3441 0.929 . S
C3430 C3426 1.531 . S
C3430 H3442 0.960 . S
C3430 H3443 0.962 . S
C3430 H3444 0.960 . S
C3431 C3428 1.511 . S
C3431 H3445 0.961 . S
C3431 H3446 0.961 . S
C3431 H3447 0.961 . S
C3432 C3433 1.370 . S
C3432 C3434 1.363 . S
C3432 H3448 0.931 . S
C3433 C3432 1.370 . S
C3433 C3437 1.408 . S
C3434 C3432 1.363 . S
C3434 C3435 1.370 . S
C3434 C3438 1.524 . S
C3435 C3427 1.503 . S
C3435 C3434 1.370 . S
C3435 C3436 1.403 . S
C3436 C3435 1.403 . S
C3436 C3437 1.404 . S
C3436 C3439 1.539 . S
C3437 C3433 1.408 . S
C3437 C3436 1.404 . S
C3437 H3449 0.930 . S
C3438 C3434 1.524 . S
C3438 H3450 0.956 . S
C3438 H3451 0.961 . S
C3438 H3452 0.961 . S
C3439 C3436 1.539 . S
C3439 H3453 0.958 . S
C3439 H3454 0.961 . S
C3439 H3455 0.960 . S
H3440 C3424 0.931 . S
H3441 C3429 0.929 . S
H3442 C3430 0.960 . S
H3443 C3430 0.962 . S
H3444 C3430 0.960 . S
H3445 C3431 0.961 . S
H3446 C3431 0.961 . S
H3447 C3431 0.961 . S
H3448 C3432 0.931 . S
H3449 C3437 0.930 . S
H3450 C3438 0.956 . S
H3451 C3438 0.961 . S
H3452 C3438 0.961 . S
H3453 C3439 0.958 . S
H3454 C3439 0.961 . S
H3455 C3439 0.960 . S
C3456 C3457 1.391 . S
C3456 C3458 1.394 . S
C3456 H3472 0.931 . S
C3457 C3456 1.391 . S
C3457 C3461 1.376 . S
C3458 C3456 1.394 . S
C3458 C3459 1.369 . S
C3458 C3462 1.531 . S
C3459 C3458 1.369 . S
C3459 C3460 1.410 . S
C3459 C3467 1.503 . S
C3460 C3459 1.410 . S
C3460 C3461 1.392 . S
C3460 C3463 1.511 . S
C3461 C3457 1.376 . S
C3461 C3460 1.392 . S
C3461 H3473 0.929 . S
C3462 C3458 1.531 . S
C3462 H3474 0.960 . S
C3462 H3475 0.962 . S
C3462 H3476 0.960 . S
C3463 C3460 1.511 . S
C3463 H3477 0.961 . S
C3463 H3478 0.961 . S
C3463 H3479 0.961 . S
C3464 C3465 1.370 . S
C3464 C3466 1.363 . S
C3464 H3480 0.931 . S
C3465 C3464 1.370 . S
C3465 C3469 1.408 . S
C3466 C3464 1.363 . S
C3466 C3467 1.370 . S
C3466 C3470 1.524 . S
C3467 C3459 1.503 . S
C3467 C3466 1.370 . S
C3467 C3468 1.403 . S
C3468 C3467 1.403 . S
C3468 C3469 1.404 . S
C3468 C3471 1.539 . S
C3469 C3465 1.408 . S
C3469 C3468 1.404 . S
C3469 H3481 0.930 . S
C3470 C3466 1.524 . S
C3470 H3482 0.956 . S
C3470 H3483 0.961 . S
C3470 H3484 0.961 . S
C3471 C3468 1.539 . S
C3471 H3485 0.958 . S
C3471 H3486 0.961 . S
C3471 H3487 0.960 . S
H3472 C3456 0.931 . S
H3473 C3461 0.929 . S
H3474 C3462 0.960 . S
H3475 C3462 0.962 . S
H3476 C3462 0.960 . S
H3477 C3463 0.961 . S
H3478 C3463 0.961 . S
H3479 C3463 0.961 . S
H3480 C3464 0.931 . S
H3481 C3469 0.930 . S
H3482 C3470 0.956 . S
H3483 C3470 0.961 . S
H3484 C3470 0.961 . S
H3485 C3471 0.958 . S
H3486 C3471 0.961 . S
H3487 C3471 0.960 . S
C3488 C3489 1.391 . S
C3488 C3490 1.394 . S
C3488 H3504 0.931 . S
C3489 C3488 1.391 . S
C3489 C3493 1.376 . S
C3490 C3488 1.394 . S
C3490 C3491 1.369 . S
C3490 C3494 1.531 . S
C3491 C3490 1.369 . S
C3491 C3492 1.410 . S
C3491 C3499 1.503 . S
C3492 C3491 1.410 . S
C3492 C3493 1.392 . S
C3492 C3495 1.511 . S
C3493 C3489 1.376 . S
C3493 C3492 1.392 . S
C3493 H3505 0.929 . S
C3494 C3490 1.531 . S
C3494 H3506 0.960 . S
C3494 H3507 0.962 . S
C3494 H3508 0.960 . S
C3495 C3492 1.511 . S
C3495 H3509 0.961 . S
C3495 H3510 0.961 . S
C3495 H3511 0.961 . S
C3496 C3497 1.370 . S
C3496 C3498 1.363 . S
C3496 H3512 0.931 . S
C3497 C3496 1.370 . S
C3497 C3501 1.408 . S
C3498 C3496 1.363 . S
C3498 C3499 1.370 . S
C3498 C3502 1.524 . S
C3499 C3491 1.503 . S
C3499 C3498 1.370 . S
C3499 C3500 1.403 . S
C3500 C3499 1.403 . S
C3500 C3501 1.404 . S
C3500 C3503 1.539 . S
C3501 C3497 1.408 . S
C3501 C3500 1.404 . S
C3501 H3513 0.930 . S
C3502 C3498 1.524 . S
C3502 H3514 0.956 . S
C3502 H3515 0.961 . S
C3502 H3516 0.961 . S
C3503 C3500 1.539 . S
C3503 H3517 0.958 . S
C3503 H3518 0.961 . S
C3503 H3519 0.960 . S
H3504 C3488 0.931 . S
H3505 C3493 0.929 . S
H3506 C3494 0.960 . S
H3507 C3494 0.962 . S
H3508 C3494 0.960 . S
H3509 C3495 0.961 . S
H3510 C3495 0.961 . S
H3511 C3495 0.961 . S
H3512 C3496 0.931 . S
H3513 C3501 0.930 . S
H3514 C3502 0.956 . S
H3515 C3502 0.961 . S
H3516 C3502 0.961 . S
H3517 C3503 0.958 . S
H3518 C3503 0.961 . S
H3519 C3503 0.960 . S
C3520 C3521 1.391 . S
C3520 C3522 1.394 . S
C3520 H3536 0.931 . S
C3521 C3520 1.391 . S
C3521 C3525 1.376 . S
C3522 C3520 1.394 . S
C3522 C3523 1.369 . S
C3522 C3526 1.531 . S
C3523 C3522 1.369 . S
C3523 C3524 1.410 . S
C3523 C3531 1.503 . S
C3524 C3523 1.410 . S
C3524 C3525 1.392 . S
C3524 C3527 1.511 . S
C3525 C3521 1.376 . S
C3525 C3524 1.392 . S
C3525 H3537 0.929 . S
C3526 C3522 1.531 . S
C3526 H3538 0.960 . S
C3526 H3539 0.962 . S
C3526 H3540 0.960 . S
C3527 C3524 1.511 . S
C3527 H3541 0.961 . S
C3527 H3542 0.961 . S
C3527 H3543 0.961 . S
C3528 C3529 1.370 . S
C3528 C3530 1.363 . S
C3528 H3544 0.931 . S
C3529 C3528 1.370 . S
C3529 C3533 1.408 . S
C3530 C3528 1.363 . S
C3530 C3531 1.370 . S
C3530 C3534 1.524 . S
C3531 C3523 1.503 . S
C3531 C3530 1.370 . S
C3531 C3532 1.403 . S
C3532 C3531 1.403 . S
C3532 C3533 1.404 . S
C3532 C3535 1.539 . S
C3533 C3529 1.408 . S
C3533 C3532 1.404 . S
C3533 H3545 0.930 . S
C3534 C3530 1.524 . S
C3534 H3546 0.956 . S
C3534 H3547 0.961 . S
C3534 H3548 0.961 . S
C3535 C3532 1.539 . S
C3535 H3549 0.958 . S
C3535 H3550 0.961 . S
C3535 H3551 0.960 . S
H3536 C3520 0.931 . S
H3537 C3525 0.929 . S
H3538 C3526 0.960 . S
H3539 C3526 0.962 . S
H3540 C3526 0.960 . S
H3541 C3527 0.961 . S
H3542 C3527 0.961 . S
H3543 C3527 0.961 . S
H3544 C3528 0.931 . S
H3545 C3533 0.930 . S
H3546 C3534 0.956 . S
H3547 C3534 0.961 . S
H3548 C3534 0.961 . S
H3549 C3535 0.958 . S
H3550 C3535 0.961 . S
H3551 C3535 0.960 . S
C3552 C3553 1.391 . S
C3552 C3554 1.394 . S
C3552 H3568 0.931 . S
C3553 C3552 1.391 . S
C3553 C3557 1.376 . S
C3554 C3552 1.394 . S
C3554 C3555 1.369 . S
C3554 C3558 1.531 . S
C3555 C3554 1.369 . S
C3555 C3556 1.410 . S
C3555 C3563 1.503 . S
C3556 C3555 1.410 . S
C3556 C3557 1.392 . S
C3556 C3559 1.511 . S
C3557 C3553 1.376 . S
C3557 C3556 1.392 . S
C3557 H3569 0.929 . S
C3558 C3554 1.531 . S
C3558 H3570 0.960 . S
C3558 H3571 0.962 . S
C3558 H3572 0.960 . S
C3559 C3556 1.511 . S
C3559 H3573 0.961 . S
C3559 H3574 0.961 . S
C3559 H3575 0.961 . S
C3560 C3561 1.370 . S
C3560 C3562 1.363 . S
C3560 H3576 0.931 . S
C3561 C3560 1.370 . S
C3561 C3565 1.408 . S
C3562 C3560 1.363 . S
C3562 C3563 1.370 . S
C3562 C3566 1.524 . S
C3563 C3555 1.503 . S
C3563 C3562 1.370 . S
C3563 C3564 1.403 . S
C3564 C3563 1.403 . S
C3564 C3565 1.404 . S
C3564 C3567 1.539 . S
C3565 C3561 1.408 . S
C3565 C3564 1.404 . S
C3565 H3577 0.930 . S
C3566 C3562 1.524 . S
C3566 H3578 0.956 . S
C3566 H3579 0.961 . S
C3566 H3580 0.961 . S
C3567 C3564 1.539 . S
C3567 H3581 0.958 . S
C3567 H3582 0.961 . S
C3567 H3583 0.960 . S
H3568 C3552 0.931 . S
H3569 C3557 0.929 . S
H3570 C3558 0.960 . S
H3571 C3558 0.962 . S
H3572 C3558 0.960 . S
H3573 C3559 0.961 . S
H3574 C3559 0.961 . S
H3575 C3559 0.961 . S
H3576 C3560 0.931 . S
H3577 C3565 0.930 . S
H3578 C3566 0.956 . S
H3579 C3566 0.961 . S
H3580 C3566 0.961 . S
H3581 C3567 0.958 . S
H3582 C3567 0.961 . S
H3583 C3567 0.960 . S
C3584 C3585 1.391 . S
C3584 C3586 1.394 . S
C3584 H3600 0.931 . S
C3585 C3584 1.391 . S
C3585 C3589 1.376 . S
C3586 C3584 1.394 . S
C3586 C3587 1.369 . S
C3586 C3590 1.531 . S
C3587 C3586 1.369 . S
C3587 C3588 1.410 . S
C3587 C3595 1.503 . S
C3588 C3587 1.410 . S
C3588 C3589 1.392 . S
C3588 C3591 1.511 . S
C3589 C3585 1.376 . S
C3589 C3588 1.392 . S
C3589 H3601 0.929 . S
C3590 C3586 1.531 . S
C3590 H3602 0.960 . S
C3590 H3603 0.962 . S
C3590 H3604 0.960 . S
C3591 C3588 1.511 . S
C3591 H3605 0.961 . S
C3591 H3606 0.961 . S
C3591 H3607 0.961 . S
C3592 C3593 1.370 . S
C3592 C3594 1.363 . S
C3592 H3608 0.931 . S
C3593 C3592 1.370 . S
C3593 C3597 1.408 . S
C3594 C3592 1.363 . S
C3594 C3595 1.370 . S
C3594 C3598 1.524 . S
C3595 C3587 1.503 . S
C3595 C3594 1.370 . S
C3595 C3596 1.403 . S
C3596 C3595 1.403 . S
C3596 C3597 1.404 . S
C3596 C3599 1.539 . S
C3597 C3593 1.408 . S
C3597 C3596 1.404 . S
C3597 H3609 0.930 . S
C3598 C3594 1.524 . S
C3598 H3610 0.956 . S
C3598 H3611 0.961 . S
C3598 H3612 0.961 . S
C3599 C3596 1.539 . S
C3599 H3613 0.958 . S
C3599 H3614 0.961 . S
C3599 H3615 0.960 . S
H3600 C3584 0.931 . S
H3601 C3589 0.929 . S
H3602 C3590 0.960 . S
H3603 C3590 0.962 . S
H3604 C3590 0.960 . S
H3605 C3591 0.961 . S
H3606 C3591 0.961 . S
H3607 C3591 0.961 . S
H3608 C3592 0.931 . S
H3609 C3597 0.930 . S
H3610 C3598 0.956 . S
H3611 C3598 0.961 . S
H3612 C3598 0.961 . S
H3613 C3599 0.958 . S
H3614 C3599 0.961 . S
H3615 C3599 0.960 . S
C3616 C3617 1.391 . S
C3616 C3618 1.394 . S
C3616 H3632 0.931 . S
C3617 C3616 1.391 . S
C3617 C3621 1.376 . S
C3618 C3616 1.394 . S
C3618 C3619 1.369 . S
C3618 C3622 1.531 . S
C3619 C3618 1.369 . S
C3619 C3620 1.410 . S
C3619 C3627 1.503 . S
C3620 C3619 1.410 . S
C3620 C3621 1.392 . S
C3620 C3623 1.511 . S
C3621 C3617 1.376 . S
C3621 C3620 1.392 . S
C3621 H3633 0.929 . S
C3622 C3618 1.531 . S
C3622 H3634 0.960 . S
C3622 H3635 0.962 . S
C3622 H3636 0.960 . S
C3623 C3620 1.511 . S
C3623 H3637 0.961 . S
C3623 H3638 0.961 . S
C3623 H3639 0.961 . S
C3624 C3625 1.370 . S
C3624 C3626 1.363 . S
C3624 H3640 0.931 . S
C3625 C3624 1.370 . S
C3625 C3629 1.408 . S
C3626 C3624 1.363 . S
C3626 C3627 1.370 . S
C3626 C3630 1.524 . S
C3627 C3619 1.503 . S
C3627 C3626 1.370 . S
C3627 C3628 1.403 . S
C3628 C3627 1.403 . S
C3628 C3629 1.404 . S
C3628 C3631 1.539 . S
C3629 C3625 1.408 . S
C3629 C3628 1.404 . S
C3629 H3641 0.930 . S
C3630 C3626 1.524 . S
C3630 H3642 0.956 . S
C3630 H3643 0.961 . S
C3630 H3644 0.961 . S
C3631 C3628 1.539 . S
C3631 H3645 0.958 . S
C3631 H3646 0.961 . S
C3631 H3647 0.960 . S
H3632 C3616 0.931 . S
H3633 C3621 0.929 . S
H3634 C3622 0.960 . S
H3635 C3622 0.962 . S
H3636 C3622 0.960 . S
H3637 C3623 0.961 . S
H3638 C3623 0.961 . S
H3639 C3623 0.961 . S
H3640 C3624 0.931 . S
H3641 C3629 0.930 . S
H3642 C3630 0.956 . S
H3643 C3630 0.961 . S
H3644 C3630 0.961 . S
H3645 C3631 0.958 . S
H3646 C3631 0.961 . S
H3647 C3631 0.960 . S
C3648 C3649 1.391 . S
C3648 C3650 1.394 . S
C3648 H3664 0.931 . S
C3649 C3648 1.391 . S
C3649 C3653 1.376 . S
C3650 C3648 1.394 . S
C3650 C3651 1.369 . S
C3650 C3654 1.531 . S
C3651 C3650 1.369 . S
C3651 C3652 1.410 . S
C3651 C3659 1.503 . S
C3652 C3651 1.410 . S
C3652 C3653 1.392 . S
C3652 C3655 1.511 . S
C3653 C3649 1.376 . S
C3653 C3652 1.392 . S
C3653 H3665 0.929 . S
C3654 C3650 1.531 . S
C3654 H3666 0.960 . S
C3654 H3667 0.962 . S
C3654 H3668 0.960 . S
C3655 C3652 1.511 . S
C3655 H3669 0.961 . S
C3655 H3670 0.961 . S
C3655 H3671 0.961 . S
C3656 C3657 1.370 . S
C3656 C3658 1.363 . S
C3656 H3672 0.931 . S
C3657 C3656 1.370 . S
C3657 C3661 1.408 . S
C3658 C3656 1.363 . S
C3658 C3659 1.370 . S
C3658 C3662 1.524 . S
C3659 C3651 1.503 . S
C3659 C3658 1.370 . S
C3659 C3660 1.403 . S
C3660 C3659 1.403 . S
C3660 C3661 1.404 . S
C3660 C3663 1.539 . S
C3661 C3657 1.408 . S
C3661 C3660 1.404 . S
C3661 H3673 0.930 . S
C3662 C3658 1.524 . S
C3662 H3674 0.956 . S
C3662 H3675 0.961 . S
C3662 H3676 0.961 . S
C3663 C3660 1.539 . S
C3663 H3677 0.958 . S
C3663 H3678 0.961 . S
C3663 H3679 0.960 . S
H3664 C3648 0.931 . S
H3665 C3653 0.929 . S
H3666 C3654 0.960 . S
H3667 C3654 0.962 . S
H3668 C3654 0.960 . S
H3669 C3655 0.961 . S
H3670 C3655 0.961 . S
H3671 C3655 0.961 . S
H3672 C3656 0.931 . S
H3673 C3661 0.930 . S
H3674 C3662 0.956 . S
H3675 C3662 0.961 . S
H3676 C3662 0.961 . S
H3677 C3663 0.958 . S
H3678 C3663 0.961 . S
H3679 C3663 0.960 . S
C3680 C3681 1.391 . S
C3680 C3682 1.394 . S
C3680 H3696 0.931 . S
C3681 C3680 1.391 . S
C3681 C3685 1.376 . S
C3682 C3680 1.394 . S
C3682 C3683 1.369 . S
C3682 C3686 1.531 . S
C3683 C3682 1.369 . S
C3683 C3684 1.410 . S
C3683 C3691 1.503 . S
C3684 C3683 1.410 . S
C3684 C3685 1.392 . S
C3684 C3687 1.511 . S
C3685 C3681 1.376 . S
C3685 C3684 1.392 . S
C3685 H3697 0.929 . S
C3686 C3682 1.531 . S
C3686 H3698 0.960 . S
C3686 H3699 0.962 . S
C3686 H3700 0.960 . S
C3687 C3684 1.511 . S
C3687 H3701 0.961 . S
C3687 H3702 0.961 . S
C3687 H3703 0.961 . S
C3688 C3689 1.370 . S
C3688 C3690 1.363 . S
C3688 H3704 0.931 . S
C3689 C3688 1.370 . S
C3689 C3693 1.408 . S
C3690 C3688 1.363 . S
C3690 C3691 1.370 . S
C3690 C3694 1.524 . S
C3691 C3683 1.503 . S
C3691 C3690 1.370 . S
C3691 C3692 1.403 . S
C3692 C3691 1.403 . S
C3692 C3693 1.404 . S
C3692 C3695 1.539 . S
C3693 C3689 1.408 . S
C3693 C3692 1.404 . S
C3693 H3705 0.930 . S
C3694 C3690 1.524 . S
C3694 H3706 0.956 . S
C3694 H3707 0.961 . S
C3694 H3708 0.961 . S
C3695 C3692 1.539 . S
C3695 H3709 0.958 . S
C3695 H3710 0.961 . S
C3695 H3711 0.960 . S
H3696 C3680 0.931 . S
H3697 C3685 0.929 . S
H3698 C3686 0.960 . S
H3699 C3686 0.962 . S
H3700 C3686 0.960 . S
H3701 C3687 0.961 . S
H3702 C3687 0.961 . S
H3703 C3687 0.961 . S
H3704 C3688 0.931 . S
H3705 C3693 0.930 . S
H3706 C3694 0.956 . S
H3707 C3694 0.961 . S
H3708 C3694 0.961 . S
H3709 C3695 0.958 . S
H3710 C3695 0.961 . S
H3711 C3695 0.960 . S
C3712 C3713 1.391 . S
C3712 C3714 1.394 . S
C3712 H3728 0.931 . S
C3713 C3712 1.391 . S
C3713 C3717 1.376 . S
C3714 C3712 1.394 . S
C3714 C3715 1.369 . S
C3714 C3718 1.531 . S
C3715 C3714 1.369 . S
C3715 C3716 1.410 . S
C3715 C3723 1.503 . S
C3716 C3715 1.410 . S
C3716 C3717 1.392 . S
C3716 C3719 1.511 . S
C3717 C3713 1.376 . S
C3717 C3716 1.392 . S
C3717 H3729 0.929 . S
C3718 C3714 1.531 . S
C3718 H3730 0.960 . S
C3718 H3731 0.962 . S
C3718 H3732 0.960 . S
C3719 C3716 1.511 . S
C3719 H3733 0.961 . S
C3719 H3734 0.961 . S
C3719 H3735 0.961 . S
C3720 C3721 1.370 . S
C3720 C3722 1.363 . S
C3720 H3736 0.931 . S
C3721 C3720 1.370 . S
C3721 C3725 1.408 . S
C3722 C3720 1.363 . S
C3722 C3723 1.370 . S
C3722 C3726 1.524 . S
C3723 C3715 1.503 . S
C3723 C3722 1.370 . S
C3723 C3724 1.403 . S
C3724 C3723 1.403 . S
C3724 C3725 1.404 . S
C3724 C3727 1.539 . S
C3725 C3721 1.408 . S
C3725 C3724 1.404 . S
C3725 H3737 0.930 . S
C3726 C3722 1.524 . S
C3726 H3738 0.956 . S
C3726 H3739 0.961 . S
C3726 H3740 0.961 . S
C3727 C3724 1.539 . S
C3727 H3741 0.958 . S
C3727 H3742 0.961 . S
C3727 H3743 0.960 . S
H3728 C3712 0.931 . S
H3729 C3717 0.929 . S
H3730 C3718 0.960 . S
H3731 C3718 0.962 . S
H3732 C3718 0.960 . S
H3733 C3719 0.961 . S
H3734 C3719 0.961 . S
H3735 C3719 0.961 . S
H3736 C3720 0.931 . S
H3737 C3725 0.930 . S
H3738 C3726 0.956 . S
H3739 C3726 0.961 . S
H3740 C3726 0.961 . S
H3741 C3727 0.958 . S
H3742 C3727 0.961 . S
H3743 C3727 0.960 . S
C3744 C3745 1.391 . S
C3744 C3746 1.394 . S
C3744 H3760 0.931 . S
C3745 C3744 1.391 . S
C3745 C3749 1.376 . S
C3746 C3744 1.394 . S
C3746 C3747 1.369 . S
C3746 C3750 1.531 . S
C3747 C3746 1.369 . S
C3747 C3748 1.410 . S
C3747 C3755 1.503 . S
C3748 C3747 1.410 . S
C3748 C3749 1.392 . S
C3748 C3751 1.511 . S
C3749 C3745 1.376 . S
C3749 C3748 1.392 . S
C3749 H3761 0.929 . S
C3750 C3746 1.531 . S
C3750 H3762 0.960 . S
C3750 H3763 0.962 . S
C3750 H3764 0.960 . S
C3751 C3748 1.511 . S
C3751 H3765 0.961 . S
C3751 H3766 0.961 . S
C3751 H3767 0.961 . S
C3752 C3753 1.370 . S
C3752 C3754 1.363 . S
C3752 H3768 0.931 . S
C3753 C3752 1.370 . S
C3753 C3757 1.408 . S
C3754 C3752 1.363 . S
C3754 C3755 1.370 . S
C3754 C3758 1.524 . S
C3755 C3747 1.503 . S
C3755 C3754 1.370 . S
C3755 C3756 1.403 . S
C3756 C3755 1.403 . S
C3756 C3757 1.404 . S
C3756 C3759 1.539 . S
C3757 C3753 1.408 . S
C3757 C3756 1.404 . S
C3757 H3769 0.930 . S
C3758 C3754 1.524 . S
C3758 H3770 0.956 . S
C3758 H3771 0.961 . S
C3758 H3772 0.961 . S
C3759 C3756 1.539 . S
C3759 H3773 0.958 . S
C3759 H3774 0.961 . S
C3759 H3775 0.960 . S
H3760 C3744 0.931 . S
H3761 C3749 0.929 . S
H3762 C3750 0.960 . S
H3763 C3750 0.962 . S
H3764 C3750 0.960 . S
H3765 C3751 0.961 . S
H3766 C3751 0.961 . S
H3767 C3751 0.961 . S
H3768 C3752 0.931 . S
H3769 C3757 0.930 . S
H3770 C3758 0.956 . S
H3771 C3758 0.961 . S
H3772 C3758 0.961 . S
H3773 C3759 0.958 . S
H3774 C3759 0.961 . S
H3775 C3759 0.960 . S
C3776 C3777 1.391 . S
C3776 C3778 1.394 . S
C3776 H3792 0.931 . S
C3777 C3776 1.391 . S
C3777 C3781 1.376 . S
C3778 C3776 1.394 . S
C3778 C3779 1.369 . S
C3778 C3782 1.531 . S
C3779 C3778 1.369 . S
C3779 C3780 1.410 . S
C3779 C3787 1.503 . S
C3780 C3779 1.410 . S
C3780 C3781 1.392 . S
C3780 C3783 1.511 . S
C3781 C3777 1.376 . S
C3781 C3780 1.392 . S
C3781 H3793 0.929 . S
C3782 C3778 1.531 . S
C3782 H3794 0.960 . S
C3782 H3795 0.962 . S
C3782 H3796 0.960 . S
C3783 C3780 1.511 . S
C3783 H3797 0.961 . S
C3783 H3798 0.961 . S
C3783 H3799 0.961 . S
C3784 C3785 1.370 . S
C3784 C3786 1.363 . S
C3784 H3800 0.931 . S
C3785 C3784 1.370 . S
C3785 C3789 1.408 . S
C3786 C3784 1.363 . S
C3786 C3787 1.370 . S
C3786 C3790 1.524 . S
C3787 C3779 1.503 . S
C3787 C3786 1.370 . S
C3787 C3788 1.403 . S
C3788 C3787 1.403 . S
C3788 C3789 1.404 . S
C3788 C3791 1.539 . S
C3789 C3785 1.408 . S
C3789 C3788 1.404 . S
C3789 H3801 0.930 . S
C3790 C3786 1.524 . S
C3790 H3802 0.956 . S
C3790 H3803 0.961 . S
C3790 H3804 0.961 . S
C3791 C3788 1.539 . S
C3791 H3805 0.958 . S
C3791 H3806 0.961 . S
C3791 H3807 0.960 . S
H3792 C3776 0.931 . S
H3793 C3781 0.929 . S
H3794 C3782 0.960 . S
H3795 C3782 0.962 . S
H3796 C3782 0.960 . S
H3797 C3783 0.961 . S
H3798 C3783 0.961 . S
H3799 C3783 0.961 . S
H3800 C3784 0.931 . S
H3801 C3789 0.930 . S
H3802 C3790 0.956 . S
H3803 C3790 0.961 . S
H3804 C3790 0.961 . S
H3805 C3791 0.958 . S
H3806 C3791 0.961 . S
H3807 C3791 0.960 . S
C3808 C3809 1.391 . S
C3808 C3810 1.394 . S
C3808 H3824 0.931 . S
C3809 C3808 1.391 . S
C3809 C3813 1.376 . S
C3810 C3808 1.394 . S
C3810 C3811 1.369 . S
C3810 C3814 1.531 . S
C3811 C3810 1.369 . S
C3811 C3812 1.410 . S
C3811 C3819 1.503 . S
C3812 C3811 1.410 . S
C3812 C3813 1.392 . S
C3812 C3815 1.511 . S
C3813 C3809 1.376 . S
C3813 C3812 1.392 . S
C3813 H3825 0.929 . S
C3814 C3810 1.531 . S
C3814 H3826 0.960 . S
C3814 H3827 0.962 . S
C3814 H3828 0.960 . S
C3815 C3812 1.511 . S
C3815 H3829 0.961 . S
C3815 H3830 0.961 . S
C3815 H3831 0.961 . S
C3816 C3817 1.370 . S
C3816 C3818 1.363 . S
C3816 H3832 0.931 . S
C3817 C3816 1.370 . S
C3817 C3821 1.408 . S
C3818 C3816 1.363 . S
C3818 C3819 1.370 . S
C3818 C3822 1.524 . S
C3819 C3811 1.503 . S
C3819 C3818 1.370 . S
C3819 C3820 1.403 . S
C3820 C3819 1.403 . S
C3820 C3821 1.404 . S
C3820 C3823 1.539 . S
C3821 C3817 1.408 . S
C3821 C3820 1.404 . S
C3821 H3833 0.930 . S
C3822 C3818 1.524 . S
C3822 H3834 0.956 . S
C3822 H3835 0.961 . S
C3822 H3836 0.961 . S
C3823 C3820 1.539 . S
C3823 H3837 0.958 . S
C3823 H3838 0.961 . S
C3823 H3839 0.960 . S
H3824 C3808 0.931 . S
H3825 C3813 0.929 . S
H3826 C3814 0.960 . S
H3827 C3814 0.962 . S
H3828 C3814 0.960 . S
H3829 C3815 0.961 . S
H3830 C3815 0.961 . S
H3831 C3815 0.961 . S
H3832 C3816 0.931 . S
H3833 C3821 0.930 . S
H3834 C3822 0.956 . S
H3835 C3822 0.961 . S
H3836 C3822 0.961 . S
H3837 C3823 0.958 . S
H3838 C3823 0.961 . S
H3839 C3823 0.960 . S
C3840 C3841 1.391 . S
C3840 C3842 1.394 . S
C3840 H3856 0.931 . S
C3841 C3840 1.391 . S
C3841 C3845 1.376 . S
C3842 C3840 1.394 . S
C3842 C3843 1.369 . S
C3842 C3846 1.531 . S
C3843 C3842 1.369 . S
C3843 C3844 1.410 . S
C3843 C3851 1.503 . S
C3844 C3843 1.410 . S
C3844 C3845 1.392 . S
C3844 C3847 1.511 . S
C3845 C3841 1.376 . S
C3845 C3844 1.392 . S
C3845 H3857 0.929 . S
C3846 C3842 1.531 . S
C3846 H3858 0.960 . S
C3846 H3859 0.962 . S
C3846 H3860 0.960 . S
C3847 C3844 1.511 . S
C3847 H3861 0.961 . S
C3847 H3862 0.961 . S
C3847 H3863 0.961 . S
C3848 C3849 1.370 . S
C3848 C3850 1.363 . S
C3848 H3864 0.931 . S
C3849 C3848 1.370 . S
C3849 C3853 1.408 . S
C3850 C3848 1.363 . S
C3850 C3851 1.370 . S
C3850 C3854 1.524 . S
C3851 C3843 1.503 . S
C3851 C3850 1.370 . S
C3851 C3852 1.403 . S
C3852 C3851 1.403 . S
C3852 C3853 1.404 . S
C3852 C3855 1.539 . S
C3853 C3849 1.408 . S
C3853 C3852 1.404 . S
C3853 H3865 0.930 . S
C3854 C3850 1.524 . S
C3854 H3866 0.956 . S
C3854 H3867 0.961 . S
C3854 H3868 0.961 . S
C3855 C3852 1.539 . S
C3855 H3869 0.958 . S
C3855 H3870 0.961 . S
C3855 H3871 0.960 . S
H3856 C3840 0.931 . S
H3857 C3845 0.929 . S
H3858 C3846 0.960 . S
H3859 C3846 0.962 . S
H3860 C3846 0.960 . S
H3861 C3847 0.961 . S
H3862 C3847 0.961 . S
H3863 C3847 0.961 . S
H3864 C3848 0.931 . S
H3865 C3853 0.930 . S
H3866 C3854 0.956 . S
H3867 C3854 0.961 . S
H3868 C3854 0.961 . S
H3869 C3855 0.958 . S
H3870 C3855 0.961 . S
H3871 C3855 0.960 . S
C3872 C3873 1.391 . S
C3872 C3874 1.394 . S
C3872 H3888 0.931 . S
C3873 C3872 1.391 . S
C3873 C3877 1.376 . S
C3874 C3872 1.394 . S
C3874 C3875 1.369 . S
C3874 C3878 1.531 . S
C3875 C3874 1.369 . S
C3875 C3876 1.410 . S
C3875 C3883 1.503 1_655 S
C3876 C3875 1.410 . S
C3876 C3877 1.392 . S
C3876 C3879 1.511 . S
C3877 C3873 1.376 . S
C3877 C3876 1.392 . S
C3877 H3889 0.929 . S
C3878 C3874 1.531 . S
C3878 H3890 0.884 1_655 S
C3878 H3891 0.962 . S
C3878 H3892 0.960 . S
C3879 C3876 1.511 . S
C3879 H3893 0.961 . S
C3879 H3894 0.865 1_655 S
C3879 H3895 0.961 . S
C3880 C3881 1.370 . S
C3880 C3882 1.363 . S
C3880 H3896 0.931 . S
C3881 C3880 1.370 . S
C3881 C3885 1.408 . S
C3882 C3880 1.363 . S
C3882 C3883 1.370 . S
C3882 C3886 1.524 . S
C3883 C3875 1.503 1_455 S
C3883 C3882 1.370 . S
C3883 C3884 1.403 . S
C3884 C3883 1.403 . S
C3884 C3885 1.404 . S
C3884 C3887 1.539 . S
C3885 C3881 1.408 . S
C3885 C3884 1.404 . S
C3885 H3897 0.930 . S
C3886 C3882 1.524 . S
C3886 H3898 0.972 . S
C3886 H3899 0.910 1_455 S
C3886 H3900 0.961 . S
C3887 C3884 1.539 . S
C3887 H3901 0.958 . S
C3887 H3902 0.961 . S
C3887 H3903 0.970 1_455 S
H3888 C3872 0.931 . S
H3889 C3877 0.929 . S
H3890 C3878 0.884 1_455 S
H3891 C3878 0.962 . S
H3892 C3878 0.960 . S
H3893 C3879 0.961 . S
H3894 C3879 0.865 1_455 S
H3895 C3879 0.961 . S
H3896 C3880 0.931 . S
H3897 C3885 0.930 . S
H3898 C3886 0.972 . S
H3899 C3886 0.910 1_655 S
H3900 C3886 0.961 . S
H3901 C3887 0.958 . S
H3902 C3887 0.961 . S
H3903 C3887 0.970 1_655 S
C3904 C3905 1.391 . S
C3904 C3906 1.394 . S
C3904 H3920 0.931 . S
C3905 C3904 1.391 . S
C3905 C3909 1.376 . S
C3906 C3904 1.394 . S
C3906 C3907 1.369 . S
C3906 C3910 1.531 . S
C3907 C3906 1.369 . S
C3907 C3908 1.410 . S
C3907 C3915 1.503 . S
C3908 C3907 1.410 . S
C3908 C3909 1.392 . S
C3908 C3911 1.511 . S
C3909 C3905 1.376 . S
C3909 C3908 1.392 . S
C3909 H3921 0.929 . S
C3910 C3906 1.531 . S
C3910 H3922 0.960 . S
C3910 H3923 0.962 . S
C3910 H3924 0.960 . S
C3911 C3908 1.511 . S
C3911 H3925 0.961 . S
C3911 H3926 0.961 . S
C3911 H3927 0.961 . S
C3912 C3913 1.370 . S
C3912 C3914 1.363 . S
C3912 H3928 0.931 . S
C3913 C3912 1.370 . S
C3913 C3917 1.408 . S
C3914 C3912 1.363 . S
C3914 C3915 1.370 . S
C3914 C3918 1.524 . S
C3915 C3907 1.503 . S
C3915 C3914 1.370 . S
C3915 C3916 1.403 . S
C3916 C3915 1.403 . S
C3916 C3917 1.404 . S
C3916 C3919 1.539 . S
C3917 C3913 1.408 . S
C3917 C3916 1.404 . S
C3917 H3929 0.930 . S
C3918 C3914 1.524 . S
C3918 H3930 0.956 . S
C3918 H3931 0.961 . S
C3918 H3932 0.961 . S
C3919 C3916 1.539 . S
C3919 H3933 0.958 . S
C3919 H3934 0.961 . S
C3919 H3935 0.960 . S
H3920 C3904 0.931 . S
H3921 C3909 0.929 . S
H3922 C3910 0.960 . S
H3923 C3910 0.962 . S
H3924 C3910 0.960 . S
H3925 C3911 0.961 . S
H3926 C3911 0.961 . S
H3927 C3911 0.961 . S
H3928 C3912 0.931 . S
H3929 C3917 0.930 . S
H3930 C3918 0.956 . S
H3931 C3918 0.961 . S
H3932 C3918 0.961 . S
H3933 C3919 0.958 . S
H3934 C3919 0.961 . S
H3935 C3919 0.960 . S
C3936 C3937 1.391 . S
C3936 C3938 1.394 . S
C3936 H3952 0.931 . S
C3937 C3936 1.391 . S
C3937 C3941 1.376 . S
C3938 C3936 1.394 . S
C3938 C3939 1.369 . S
C3938 C3942 1.531 . S
C3939 C3938 1.369 . S
C3939 C3940 1.410 . S
C3939 C3947 1.503 . S
C3940 C3939 1.410 . S
C3940 C3941 1.392 . S
C3940 C3943 1.511 . S
C3941 C3937 1.376 . S
C3941 C3940 1.392 . S
C3941 H3953 0.929 . S
C3942 C3938 1.531 . S
C3942 H3954 0.960 . S
C3942 H3955 0.962 . S
C3942 H3956 0.960 . S
C3943 C3940 1.511 . S
C3943 H3957 0.961 . S
C3943 H3958 0.961 . S
C3943 H3959 0.961 . S
C3944 C3945 1.370 . S
C3944 C3946 1.363 . S
C3944 H3960 0.931 . S
C3945 C3944 1.370 . S
C3945 C3949 1.408 . S
C3946 C3944 1.363 . S
C3946 C3947 1.370 . S
C3946 C3950 1.524 . S
C3947 C3939 1.503 . S
C3947 C3946 1.370 . S
C3947 C3948 1.403 . S
C3948 C3947 1.403 . S
C3948 C3949 1.404 . S
C3948 C3951 1.539 . S
C3949 C3945 1.408 . S
C3949 C3948 1.404 . S
C3949 H3961 0.930 . S
C3950 C3946 1.524 . S
C3950 H3962 0.956 . S
C3950 H3963 0.961 . S
C3950 H3964 0.961 . S
C3951 C3948 1.539 . S
C3951 H3965 0.958 . S
C3951 H3966 0.961 . S
C3951 H3967 0.960 . S
H3952 C3936 0.931 . S
H3953 C3941 0.929 . S
H3954 C3942 0.960 . S
H3955 C3942 0.962 . S
H3956 C3942 0.960 . S
H3957 C3943 0.961 . S
H3958 C3943 0.961 . S
H3959 C3943 0.961 . S
H3960 C3944 0.931 . S
H3961 C3949 0.930 . S
H3962 C3950 0.956 . S
H3963 C3950 0.961 . S
H3964 C3950 0.961 . S
H3965 C3951 0.958 . S
H3966 C3951 0.961 . S
H3967 C3951 0.960 . S
C3968 C3969 1.391 . S
C3968 C3970 1.394 . S
C3968 H3984 0.931 . S
C3969 C3968 1.391 . S
C3969 C3973 1.376 . S
C3970 C3968 1.394 . S
C3970 C3971 1.369 . S
C3970 C3974 1.531 . S
C3971 C3970 1.369 . S
C3971 C3972 1.410 . S
C3971 C3979 1.503 . S
C3972 C3971 1.410 . S
C3972 C3973 1.392 . S
C3972 C3975 1.511 . S
C3973 C3969 1.376 . S
C3973 C3972 1.392 . S
C3973 H3985 0.929 . S
C3974 C3970 1.531 . S
C3974 H3986 0.960 . S
C3974 H3987 0.962 . S
C3974 H3988 0.960 . S
C3975 C3972 1.511 . S
C3975 H3989 0.961 . S
C3975 H3990 0.961 . S
C3975 H3991 0.961 . S
C3976 C3977 1.370 . S
C3976 C3978 1.363 . S
C3976 H3992 0.931 . S
C3977 C3976 1.370 . S
C3977 C3981 1.408 . S
C3978 C3976 1.363 . S
C3978 C3979 1.370 . S
C3978 C3982 1.524 . S
C3979 C3971 1.503 . S
C3979 C3978 1.370 . S
C3979 C3980 1.403 . S
C3980 C3979 1.403 . S
C3980 C3981 1.404 . S
C3980 C3983 1.539 . S
C3981 C3977 1.408 . S
C3981 C3980 1.404 . S
C3981 H3993 0.930 . S
C3982 C3978 1.524 . S
C3982 H3994 0.956 . S
C3982 H3995 0.961 . S
C3982 H3996 0.961 . S
C3983 C3980 1.539 . S
C3983 H3997 0.958 . S
C3983 H3998 0.961 . S
C3983 H3999 0.960 . S
H3984 C3968 0.931 . S
H3985 C3973 0.929 . S
H3986 C3974 0.960 . S
H3987 C3974 0.962 . S
H3988 C3974 0.960 . S
H3989 C3975 0.961 . S
H3990 C3975 0.961 . S
H3991 C3975 0.961 . S
H3992 C3976 0.931 . S
H3993 C3981 0.930 . S
H3994 C3982 0.956 . S
H3995 C3982 0.961 . S
H3996 C3982 0.961 . S
H3997 C3983 0.958 . S
H3998 C3983 0.961 . S
H3999 C3983 0.960 . S
C4000 C4001 1.391 . S
C4000 C4002 1.394 . S
C4000 H4016 0.931 . S
C4001 C4000 1.391 . S
C4001 C4005 1.376 . S
C4002 C4000 1.394 . S
C4002 C4003 1.369 . S
C4002 C4006 1.531 . S
C4003 C4002 1.369 . S
C4003 C4004 1.410 . S
C4003 C4011 1.503 . S
C4004 C4003 1.410 . S
C4004 C4005 1.392 . S
C4004 C4007 1.511 . S
C4005 C4001 1.376 . S
C4005 C4004 1.392 . S
C4005 H4017 0.929 . S
C4006 C4002 1.531 . S
C4006 H4018 0.960 . S
C4006 H4019 0.962 . S
C4006 H4020 0.960 . S
C4007 C4004 1.511 . S
C4007 H4021 0.961 . S
C4007 H4022 0.961 . S
C4007 H4023 0.961 . S
C4008 C4009 1.370 . S
C4008 C4010 1.363 . S
C4008 H4024 0.931 . S
C4009 C4008 1.370 . S
C4009 C4013 1.408 . S
C4010 C4008 1.363 . S
C4010 C4011 1.370 . S
C4010 C4014 1.524 . S
C4011 C4003 1.503 . S
C4011 C4010 1.370 . S
C4011 C4012 1.403 . S
C4012 C4011 1.403 . S
C4012 C4013 1.404 . S
C4012 C4015 1.539 . S
C4013 C4009 1.408 . S
C4013 C4012 1.404 . S
C4013 H4025 0.930 . S
C4014 C4010 1.524 . S
C4014 H4026 0.956 . S
C4014 H4027 0.961 . S
C4014 H4028 0.961 . S
C4015 C4012 1.539 . S
C4015 H4029 0.958 . S
C4015 H4030 0.961 . S
C4015 H4031 0.960 . S
H4016 C4000 0.931 . S
H4017 C4005 0.929 . S
H4018 C4006 0.960 . S
H4019 C4006 0.962 . S
H4020 C4006 0.960 . S
H4021 C4007 0.961 . S
H4022 C4007 0.961 . S
H4023 C4007 0.961 . S
H4024 C4008 0.931 . S
H4025 C4013 0.930 . S
H4026 C4014 0.956 . S
H4027 C4014 0.961 . S
H4028 C4014 0.961 . S
H4029 C4015 0.958 . S
H4030 C4015 0.961 . S
H4031 C4015 0.960 . S
C4032 C4033 1.391 . S
C4032 C4034 1.394 . S
C4032 H4048 0.931 . S
C4033 C4032 1.391 . S
C4033 C4037 1.376 . S
C4034 C4032 1.394 . S
C4034 C4035 1.369 . S
C4034 C4038 1.531 . S
C4035 C4034 1.369 . S
C4035 C4036 1.410 . S
C4035 C4043 1.503 . S
C4036 C4035 1.410 . S
C4036 C4037 1.392 . S
C4036 C4039 1.511 . S
C4037 C4033 1.376 . S
C4037 C4036 1.392 . S
C4037 H4049 0.929 . S
C4038 C4034 1.531 . S
C4038 H4050 0.960 . S
C4038 H4051 0.962 . S
C4038 H4052 0.960 . S
C4039 C4036 1.511 . S
C4039 H4053 0.961 . S
C4039 H4054 0.961 . S
C4039 H4055 0.961 . S
C4040 C4041 1.370 . S
C4040 C4042 1.363 . S
C4040 H4056 0.931 . S
C4041 C4040 1.370 . S
C4041 C4045 1.408 . S
C4042 C4040 1.363 . S
C4042 C4043 1.370 . S
C4042 C4046 1.524 . S
C4043 C4035 1.503 . S
C4043 C4042 1.370 . S
C4043 C4044 1.403 . S
C4044 C4043 1.403 . S
C4044 C4045 1.404 . S
C4044 C4047 1.539 . S
C4045 C4041 1.408 . S
C4045 C4044 1.404 . S
C4045 H4057 0.930 . S
C4046 C4042 1.524 . S
C4046 H4058 0.956 . S
C4046 H4059 0.961 . S
C4046 H4060 0.961 . S
C4047 C4044 1.539 . S
C4047 H4061 0.958 . S
C4047 H4062 0.961 . S
C4047 H4063 0.960 . S
H4048 C4032 0.931 . S
H4049 C4037 0.929 . S
H4050 C4038 0.960 . S
H4051 C4038 0.962 . S
H4052 C4038 0.960 . S
H4053 C4039 0.961 . S
H4054 C4039 0.961 . S
H4055 C4039 0.961 . S
H4056 C4040 0.931 . S
H4057 C4045 0.930 . S
H4058 C4046 0.956 . S
H4059 C4046 0.961 . S
H4060 C4046 0.961 . S
H4061 C4047 0.958 . S
H4062 C4047 0.961 . S
H4063 C4047 0.960 . S
C4064 C4065 1.391 . S
C4064 C4066 1.394 . S
C4064 H4080 0.931 . S
C4065 C4064 1.391 . S
C4065 C4069 1.376 . S
C4066 C4064 1.394 . S
C4066 C4067 1.369 . S
C4066 C4070 1.531 . S
C4067 C4066 1.369 . S
C4067 C4068 1.410 . S
C4067 C4075 1.503 1_655 S
C4068 C4067 1.410 . S
C4068 C4069 1.392 . S
C4068 C4071 1.511 . S
C4069 C4065 1.376 . S
C4069 C4068 1.392 . S
C4069 H4081 0.929 . S
C4070 C4066 1.531 . S
C4070 H4082 0.888 1_655 S
C4070 H4083 0.962 . S
C4070 H4084 0.960 . S
C4071 C4068 1.511 . S
C4071 H4085 0.961 . S
C4071 H4086 0.961 1_655 S
C4071 H4087 0.961 . S
C4072 C4073 1.370 . S
C4072 C4074 1.363 . S
C4072 H4088 0.931 . S
C4073 C4072 1.370 . S
C4073 C4077 1.408 . S
C4074 C4072 1.363 . S
C4074 C4075 1.370 . S
C4074 C4078 1.524 . S
C4075 C4067 1.503 1_455 S
C4075 C4074 1.370 . S
C4075 C4076 1.403 . S
C4076 C4075 1.403 . S
C4076 C4077 1.404 . S
C4076 C4079 1.539 . S
C4077 C4073 1.408 . S
C4077 C4076 1.404 . S
C4077 H4089 0.930 . S
C4078 C4074 1.524 . S
C4078 H4090 0.970 . S
C4078 H4091 0.910 1_455 S
C4078 H4092 0.961 . S
C4079 C4076 1.539 . S
C4079 H4093 0.958 . S
C4079 H4094 0.961 . S
C4079 H4095 0.952 . S
H4080 C4064 0.931 . S
H4081 C4069 0.929 . S
H4082 C4070 0.888 1_455 S
H4083 C4070 0.962 . S
H4084 C4070 0.960 . S
H4085 C4071 0.961 . S
H4086 C4071 0.961 1_455 S
H4087 C4071 0.961 . S
H4088 C4072 0.931 . S
H4089 C4077 0.930 . S
H4090 C4078 0.970 . S
H4091 C4078 0.910 1_655 S
H4092 C4078 0.961 . S
H4093 C4079 0.958 . S
H4094 C4079 0.961 . S
H4095 C4079 0.952 . S
C4096 C4097 1.391 . S
C4096 C4098 1.394 . S
C4096 H4112 0.931 . S
C4097 C4096 1.391 . S
C4097 C4101 1.376 . S
C4098 C4096 1.394 . S
C4098 C4099 1.369 . S
C4098 C4102 1.531 . S
C4099 C4098 1.369 . S
C4099 C4100 1.410 . S
C4099 C4107 1.503 . S
C4100 C4099 1.410 . S
C4100 C4101 1.392 . S
C4100 C4103 1.511 . S
C4101 C4097 1.376 . S
C4101 C4100 1.392 . S
C4101 H4113 0.929 . S
C4102 C4098 1.531 . S
C4102 H4114 0.960 . S
C4102 H4115 0.962 . S
C4102 H4116 0.960 . S
C4103 C4100 1.511 . S
C4103 H4117 0.961 . S
C4103 H4118 0.961 . S
C4103 H4119 0.961 . S
C4104 C4105 1.370 . S
C4104 C4106 1.363 . S
C4104 H4120 0.931 . S
C4105 C4104 1.370 . S
C4105 C4109 1.408 . S
C4106 C4104 1.363 . S
C4106 C4107 1.370 . S
C4106 C4110 1.524 . S
C4107 C4099 1.503 . S
C4107 C4106 1.370 . S
C4107 C4108 1.403 . S
C4108 C4107 1.403 . S
C4108 C4109 1.404 . S
C4108 C4111 1.539 . S
C4109 C4105 1.408 . S
C4109 C4108 1.404 . S
C4109 H4121 0.930 . S
C4110 C4106 1.524 . S
C4110 H4122 0.956 . S
C4110 H4123 0.961 . S
C4110 H4124 0.961 . S
C4111 C4108 1.539 . S
C4111 H4125 0.958 . S
C4111 H4126 0.961 . S
C4111 H4127 0.960 . S
H4112 C4096 0.931 . S
H4113 C4101 0.929 . S
H4114 C4102 0.960 . S
H4115 C4102 0.962 . S
H4116 C4102 0.960 . S
H4117 C4103 0.961 . S
H4118 C4103 0.961 . S
H4119 C4103 0.961 . S
H4120 C4104 0.931 . S
H4121 C4109 0.930 . S
H4122 C4110 0.956 . S
H4123 C4110 0.961 . S
H4124 C4110 0.961 . S
H4125 C4111 0.958 . S
H4126 C4111 0.961 . S
H4127 C4111 0.960 . S
C4128 C4129 1.391 . S
C4128 C4130 1.394 . S
C4128 H4144 0.931 . S
C4129 C4128 1.391 . S
C4129 C4133 1.376 . S
C4130 C4128 1.394 . S
C4130 C4131 1.369 . S
C4130 C4134 1.531 . S
C4131 C4130 1.369 . S
C4131 C4132 1.410 . S
C4131 C4139 1.503 . S
C4132 C4131 1.410 . S
C4132 C4133 1.392 . S
C4132 C4135 1.511 . S
C4133 C4129 1.376 . S
C4133 C4132 1.392 . S
C4133 H4145 0.929 . S
C4134 C4130 1.531 . S
C4134 H4146 0.960 . S
C4134 H4147 0.962 . S
C4134 H4148 0.960 . S
C4135 C4132 1.511 . S
C4135 H4149 0.961 . S
C4135 H4150 0.961 . S
C4135 H4151 0.961 . S
C4136 C4137 1.370 . S
C4136 C4138 1.363 . S
C4136 H4152 0.931 . S
C4137 C4136 1.370 . S
C4137 C4141 1.408 . S
C4138 C4136 1.363 . S
C4138 C4139 1.370 . S
C4138 C4142 1.524 . S
C4139 C4131 1.503 . S
C4139 C4138 1.370 . S
C4139 C4140 1.403 . S
C4140 C4139 1.403 . S
C4140 C4141 1.404 . S
C4140 C4143 1.539 . S
C4141 C4137 1.408 . S
C4141 C4140 1.404 . S
C4141 H4153 0.930 . S
C4142 C4138 1.524 . S
C4142 H4154 0.956 . S
C4142 H4155 0.961 . S
C4142 H4156 0.961 . S
C4143 C4140 1.539 . S
C4143 H4157 0.958 . S
C4143 H4158 0.961 . S
C4143 H4159 0.960 . S
H4144 C4128 0.931 . S
H4145 C4133 0.929 . S
H4146 C4134 0.960 . S
H4147 C4134 0.962 . S
H4148 C4134 0.960 . S
H4149 C4135 0.961 . S
H4150 C4135 0.961 . S
H4151 C4135 0.961 . S
H4152 C4136 0.931 . S
H4153 C4141 0.930 . S
H4154 C4142 0.956 . S
H4155 C4142 0.961 . S
H4156 C4142 0.961 . S
H4157 C4143 0.958 . S
H4158 C4143 0.961 . S
H4159 C4143 0.960 . S
C4160 C4161 1.391 . S
C4160 C4162 1.394 . S
C4160 H4176 0.931 . S
C4161 C4160 1.391 . S
C4161 C4165 1.376 . S
C4162 C4160 1.394 . S
C4162 C4163 1.369 . S
C4162 C4166 1.531 . S
C4163 C4162 1.369 . S
C4163 C4164 1.410 . S
C4163 C4171 1.503 . S
C4164 C4163 1.410 . S
C4164 C4165 1.392 . S
C4164 C4167 1.511 . S
C4165 C4161 1.376 . S
C4165 C4164 1.392 . S
C4165 H4177 0.929 . S
C4166 C4162 1.531 . S
C4166 H4178 0.960 . S
C4166 H4179 0.962 . S
C4166 H4180 0.960 . S
C4167 C4164 1.511 . S
C4167 H4181 0.961 . S
C4167 H4182 0.961 . S
C4167 H4183 0.961 . S
C4168 C4169 1.370 . S
C4168 C4170 1.363 . S
C4168 H4184 0.931 . S
C4169 C4168 1.370 . S
C4169 C4173 1.408 . S
C4170 C4168 1.363 . S
C4170 C4171 1.370 . S
C4170 C4174 1.524 . S
C4171 C4163 1.503 . S
C4171 C4170 1.370 . S
C4171 C4172 1.403 . S
C4172 C4171 1.403 . S
C4172 C4173 1.404 . S
C4172 C4175 1.539 . S
C4173 C4169 1.408 . S
C4173 C4172 1.404 . S
C4173 H4185 0.930 . S
C4174 C4170 1.524 . S
C4174 H4186 0.956 . S
C4174 H4187 0.961 . S
C4174 H4188 0.961 . S
C4175 C4172 1.539 . S
C4175 H4189 0.958 . S
C4175 H4190 0.961 . S
C4175 H4191 0.960 . S
H4176 C4160 0.931 . S
H4177 C4165 0.929 . S
H4178 C4166 0.960 . S
H4179 C4166 0.962 . S
H4180 C4166 0.960 . S
H4181 C4167 0.961 . S
H4182 C4167 0.961 . S
H4183 C4167 0.961 . S
H4184 C4168 0.931 . S
H4185 C4173 0.930 . S
H4186 C4174 0.956 . S
H4187 C4174 0.961 . S
H4188 C4174 0.961 . S
H4189 C4175 0.958 . S
H4190 C4175 0.961 . S
H4191 C4175 0.960 . S
C4192 C4193 1.391 . S
C4192 C4194 1.394 . S
C4192 H4208 0.931 . S
C4193 C4192 1.391 . S
C4193 C4197 1.376 . S
C4194 C4192 1.394 . S
C4194 C4195 1.369 . S
C4194 C4198 1.531 . S
C4195 C4194 1.369 . S
C4195 C4196 1.410 . S
C4195 C4203 1.503 . S
C4196 C4195 1.410 . S
C4196 C4197 1.392 . S
C4196 C4199 1.511 . S
C4197 C4193 1.376 . S
C4197 C4196 1.392 . S
C4197 H4209 0.929 . S
C4198 C4194 1.531 . S
C4198 H4210 0.960 . S
C4198 H4211 0.962 . S
C4198 H4212 0.960 . S
C4199 C4196 1.511 . S
C4199 H4213 0.961 . S
C4199 H4214 0.961 . S
C4199 H4215 0.961 . S
C4200 C4201 1.370 . S
C4200 C4202 1.363 . S
C4200 H4216 0.931 . S
C4201 C4200 1.370 . S
C4201 C4205 1.408 . S
C4202 C4200 1.363 . S
C4202 C4203 1.370 . S
C4202 C4206 1.524 . S
C4203 C4195 1.503 . S
C4203 C4202 1.370 . S
C4203 C4204 1.403 . S
C4204 C4203 1.403 . S
C4204 C4205 1.404 . S
C4204 C4207 1.539 . S
C4205 C4201 1.408 . S
C4205 C4204 1.404 . S
C4205 H4217 0.930 . S
C4206 C4202 1.524 . S
C4206 H4218 0.956 . S
C4206 H4219 0.961 . S
C4206 H4220 0.961 . S
C4207 C4204 1.539 . S
C4207 H4221 0.958 . S
C4207 H4222 0.961 . S
C4207 H4223 0.960 . S
H4208 C4192 0.931 . S
H4209 C4197 0.929 . S
H4210 C4198 0.960 . S
H4211 C4198 0.962 . S
H4212 C4198 0.960 . S
H4213 C4199 0.961 . S
H4214 C4199 0.961 . S
H4215 C4199 0.961 . S
H4216 C4200 0.931 . S
H4217 C4205 0.930 . S
H4218 C4206 0.956 . S
H4219 C4206 0.961 . S
H4220 C4206 0.961 . S
H4221 C4207 0.958 . S
H4222 C4207 0.961 . S
H4223 C4207 0.960 . S
C4224 C4225 1.391 . S
C4224 C4226 1.394 . S
C4224 H4240 0.931 . S
C4225 C4224 1.391 . S
C4225 C4229 1.376 . S
C4226 C4224 1.394 . S
C4226 C4227 1.369 . S
C4226 C4230 1.531 . S
C4227 C4226 1.369 . S
C4227 C4228 1.410 . S
C4227 C4235 1.503 . S
C4228 C4227 1.410 . S
C4228 C4229 1.392 . S
C4228 C4231 1.511 . S
C4229 C4225 1.376 . S
C4229 C4228 1.392 . S
C4229 H4241 0.929 . S
C4230 C4226 1.531 . S
C4230 H4242 0.960 . S
C4230 H4243 0.962 . S
C4230 H4244 0.960 . S
C4231 C4228 1.511 . S
C4231 H4245 0.961 . S
C4231 H4246 0.961 . S
C4231 H4247 0.961 . S
C4232 C4233 1.370 . S
C4232 C4234 1.363 . S
C4232 H4248 0.931 . S
C4233 C4232 1.370 . S
C4233 C4237 1.408 . S
C4234 C4232 1.363 . S
C4234 C4235 1.370 . S
C4234 C4238 1.524 . S
C4235 C4227 1.503 . S
C4235 C4234 1.370 . S
C4235 C4236 1.403 . S
C4236 C4235 1.403 . S
C4236 C4237 1.404 . S
C4236 C4239 1.539 . S
C4237 C4233 1.408 . S
C4237 C4236 1.404 . S
C4237 H4249 0.930 . S
C4238 C4234 1.524 . S
C4238 H4250 0.956 . S
C4238 H4251 0.961 . S
C4238 H4252 0.961 . S
C4239 C4236 1.539 . S
C4239 H4253 0.958 . S
C4239 H4254 0.961 . S
C4239 H4255 0.960 . S
H4240 C4224 0.931 . S
H4241 C4229 0.929 . S
H4242 C4230 0.960 . S
H4243 C4230 0.962 . S
H4244 C4230 0.960 . S
H4245 C4231 0.961 . S
H4246 C4231 0.961 . S
H4247 C4231 0.961 . S
H4248 C4232 0.931 . S
H4249 C4237 0.930 . S
H4250 C4238 0.956 . S
H4251 C4238 0.961 . S
H4252 C4238 0.961 . S
H4253 C4239 0.958 . S
H4254 C4239 0.961 . S
H4255 C4239 0.960 . S
C4256 C4257 1.391 . S
C4256 C4258 1.394 . S
C4256 H4272 0.931 . S
C4257 C4256 1.391 . S
C4257 C4261 1.376 . S
C4258 C4256 1.394 . S
C4258 C4259 1.369 . S
C4258 C4262 1.531 . S
C4259 C4258 1.369 . S
C4259 C4260 1.410 . S
C4259 C4267 1.503 1_655 S
C4260 C4259 1.410 . S
C4260 C4261 1.392 . S
C4260 C4263 1.511 . S
C4261 C4257 1.376 . S
C4261 C4260 1.392 . S
C4261 H4273 0.929 . S
C4262 C4258 1.531 . S
C4262 H4274 0.960 1_655 S
C4262 H4275 0.962 . S
C4262 H4276 0.960 . S
C4263 C4260 1.511 . S
C4263 H4277 0.961 . S
C4263 H4278 0.961 1_655 S
C4263 H4279 0.961 . S
C4264 C4265 1.370 . S
C4264 C4266 1.363 . S
C4264 H4280 0.931 . S
C4265 C4264 1.370 . S
C4265 C4269 1.408 . S
C4266 C4264 1.363 . S
C4266 C4267 1.370 . S
C4266 C4270 1.524 . S
C4267 C4259 1.503 1_455 S
C4267 C4266 1.370 . S
C4267 C4268 1.403 . S
C4268 C4267 1.403 . S
C4268 C4269 1.404 . S
C4268 C4271 1.539 . S
C4269 C4265 1.408 . S
C4269 C4268 1.404 . S
C4269 H4281 0.930 . S
C4270 C4266 1.524 . S
C4270 H4282 0.991 . S
C4270 H4283 0.931 1_455 S
C4270 H4284 0.961 . S
C4271 C4268 1.539 . S
C4271 H4285 0.958 . S
C4271 H4286 0.961 . S
C4271 H4287 0.977 . S
H4272 C4256 0.931 . S
H4273 C4261 0.929 . S
H4274 C4262 0.960 1_455 S
H4275 C4262 0.962 . S
H4276 C4262 0.960 . S
H4277 C4263 0.961 . S
H4278 C4263 0.961 1_455 S
H4279 C4263 0.961 . S
H4280 C4264 0.931 . S
H4281 C4269 0.930 . S
H4282 C4270 0.991 . S
H4283 C4270 0.931 1_655 S
H4284 C4270 0.961 . S
H4285 C4271 0.958 . S
H4286 C4271 0.961 . S
H4287 C4271 0.977 . S
C4288 C4289 1.391 . S
C4288 C4290 1.394 . S
C4288 H4304 0.931 . S
C4289 C4288 1.391 . S
C4289 C4293 1.376 . S
C4290 C4288 1.394 . S
C4290 C4291 1.369 . S
C4290 C4294 1.531 . S
C4291 C4290 1.369 . S
C4291 C4292 1.410 . S
C4291 C4299 1.503 1_655 S
C4292 C4291 1.410 . S
C4292 C4293 1.392 . S
C4292 C4295 1.511 . S
C4293 C4289 1.376 . S
C4293 C4292 1.392 . S
C4293 H4305 0.929 . S
C4294 C4290 1.531 . S
C4294 H4306 0.960 1_655 S
C4294 H4307 0.962 . S
C4294 H4308 0.960 . S
C4295 C4292 1.511 . S
C4295 H4309 0.961 . S
C4295 H4310 0.961 1_655 S
C4295 H4311 0.961 . S
C4296 C4297 1.370 . S
C4296 C4298 1.363 . S
C4296 H4312 0.931 . S
C4297 C4296 1.370 . S
C4297 C4301 1.408 . S
C4298 C4296 1.363 . S
C4298 C4299 1.370 . S
C4298 C4302 1.524 . S
C4299 C4291 1.503 1_455 S
C4299 C4298 1.370 . S
C4299 C4300 1.403 . S
C4300 C4299 1.403 . S
C4300 C4301 1.404 . S
C4300 C4303 1.539 . S
C4301 C4297 1.408 . S
C4301 C4300 1.404 . S
C4301 H4313 0.930 . S
C4302 C4298 1.524 . S
C4302 H4314 0.988 . S
C4302 H4315 0.931 1_455 S
C4302 H4316 0.961 . S
C4303 C4300 1.539 . S
C4303 H4317 0.958 . S
C4303 H4318 0.961 . S
C4303 H4319 0.982 . S
H4304 C4288 0.931 . S
H4305 C4293 0.929 . S
H4306 C4294 0.960 1_455 S
H4307 C4294 0.962 . S
H4308 C4294 0.960 . S
H4309 C4295 0.961 . S
H4310 C4295 0.961 1_455 S
H4311 C4295 0.961 . S
H4312 C4296 0.931 . S
H4313 C4301 0.930 . S
H4314 C4302 0.988 . S
H4315 C4302 0.931 1_655 S
H4316 C4302 0.961 . S
H4317 C4303 0.958 . S
H4318 C4303 0.961 . S
H4319 C4303 0.982 . S
C4320 C4321 1.391 . S
C4320 C4322 1.394 . S
C4320 H4336 0.931 . S
C4321 C4320 1.391 . S
C4321 C4325 1.376 . S
C4322 C4320 1.394 . S
C4322 C4323 1.369 . S
C4322 C4326 1.531 . S
C4323 C4322 1.369 . S
C4323 C4324 1.410 . S
C4323 C4331 1.503 . S
C4324 C4323 1.410 . S
C4324 C4325 1.392 . S
C4324 C4327 1.511 . S
C4325 C4321 1.376 . S
C4325 C4324 1.392 . S
C4325 H4337 0.929 . S
C4326 C4322 1.531 . S
C4326 H4338 0.960 . S
C4326 H4339 0.962 . S
C4326 H4340 0.960 . S
C4327 C4324 1.511 . S
C4327 H4341 0.961 . S
C4327 H4342 0.961 . S
C4327 H4343 0.961 . S
C4328 C4329 1.370 . S
C4328 C4330 1.363 . S
C4328 H4344 0.931 . S
C4329 C4328 1.370 . S
C4329 C4333 1.408 . S
C4330 C4328 1.363 . S
C4330 C4331 1.370 . S
C4330 C4334 1.524 . S
C4331 C4323 1.503 . S
C4331 C4330 1.370 . S
C4331 C4332 1.403 . S
C4332 C4331 1.403 . S
C4332 C4333 1.404 . S
C4332 C4335 1.539 . S
C4333 C4329 1.408 . S
C4333 C4332 1.404 . S
C4333 H4345 0.930 . S
C4334 C4330 1.524 . S
C4334 H4346 0.956 . S
C4334 H4347 0.961 . S
C4334 H4348 0.961 . S
C4335 C4332 1.539 . S
C4335 H4349 0.958 . S
C4335 H4350 0.961 . S
C4335 H4351 0.960 . S
H4336 C4320 0.931 . S
H4337 C4325 0.929 . S
H4338 C4326 0.960 . S
H4339 C4326 0.962 . S
H4340 C4326 0.960 . S
H4341 C4327 0.961 . S
H4342 C4327 0.961 . S
H4343 C4327 0.961 . S
H4344 C4328 0.931 . S
H4345 C4333 0.930 . S
H4346 C4334 0.956 . S
H4347 C4334 0.961 . S
H4348 C4334 0.961 . S
H4349 C4335 0.958 . S
H4350 C4335 0.961 . S
H4351 C4335 0.960 . S
C4352 C4353 1.391 . S
C4352 C4354 1.394 . S
C4352 H4368 0.931 . S
C4353 C4352 1.391 . S
C4353 C4357 1.376 . S
C4354 C4352 1.394 . S
C4354 C4355 1.369 . S
C4354 C4358 1.531 . S
C4355 C4354 1.369 . S
C4355 C4356 1.410 . S
C4355 C4363 1.503 . S
C4356 C4355 1.410 . S
C4356 C4357 1.392 . S
C4356 C4359 1.511 . S
C4357 C4353 1.376 . S
C4357 C4356 1.392 . S
C4357 H4369 0.929 . S
C4358 C4354 1.531 . S
C4358 H4370 0.960 . S
C4358 H4371 0.962 . S
C4358 H4372 0.960 . S
C4359 C4356 1.511 . S
C4359 H4373 0.961 . S
C4359 H4374 0.961 . S
C4359 H4375 0.961 . S
C4360 C4361 1.370 . S
C4360 C4362 1.363 . S
C4360 H4376 0.931 . S
C4361 C4360 1.370 . S
C4361 C4365 1.408 . S
C4362 C4360 1.363 . S
C4362 C4363 1.370 . S
C4362 C4366 1.524 . S
C4363 C4355 1.503 . S
C4363 C4362 1.370 . S
C4363 C4364 1.403 . S
C4364 C4363 1.403 . S
C4364 C4365 1.404 . S
C4364 C4367 1.539 . S
C4365 C4361 1.408 . S
C4365 C4364 1.404 . S
C4365 H4377 0.930 . S
C4366 C4362 1.524 . S
C4366 H4378 0.956 . S
C4366 H4379 0.961 . S
C4366 H4380 0.961 . S
C4367 C4364 1.539 . S
C4367 H4381 0.958 . S
C4367 H4382 0.961 . S
C4367 H4383 0.960 . S
H4368 C4352 0.931 . S
H4369 C4357 0.929 . S
H4370 C4358 0.960 . S
H4371 C4358 0.962 . S
H4372 C4358 0.960 . S
H4373 C4359 0.961 . S
H4374 C4359 0.961 . S
H4375 C4359 0.961 . S
H4376 C4360 0.931 . S
H4377 C4365 0.930 . S
H4378 C4366 0.956 . S
H4379 C4366 0.961 . S
H4380 C4366 0.961 . S
H4381 C4367 0.958 . S
H4382 C4367 0.961 . S
H4383 C4367 0.960 . S
C4384 C4385 1.391 . S
C4384 C4386 1.394 . S
C4384 H4400 0.931 . S
C4385 C4384 1.391 . S
C4385 C4389 1.376 . S
C4386 C4384 1.394 . S
C4386 C4387 1.369 . S
C4386 C4390 1.531 . S
C4387 C4386 1.369 . S
C4387 C4388 1.410 . S
C4387 C4395 1.503 . S
C4388 C4387 1.410 . S
C4388 C4389 1.392 . S
C4388 C4391 1.511 . S
C4389 C4385 1.376 . S
C4389 C4388 1.392 . S
C4389 H4401 0.929 . S
C4390 C4386 1.531 . S
C4390 H4402 0.960 . S
C4390 H4403 0.962 . S
C4390 H4404 0.960 . S
C4391 C4388 1.511 . S
C4391 H4405 0.961 . S
C4391 H4406 0.961 . S
C4391 H4407 0.961 . S
C4392 C4393 1.370 . S
C4392 C4394 1.363 . S
C4392 H4408 0.931 . S
C4393 C4392 1.370 . S
C4393 C4397 1.408 . S
C4394 C4392 1.363 . S
C4394 C4395 1.370 . S
C4394 C4398 1.524 . S
C4395 C4387 1.503 . S
C4395 C4394 1.370 . S
C4395 C4396 1.403 . S
C4396 C4395 1.403 . S
C4396 C4397 1.404 . S
C4396 C4399 1.539 . S
C4397 C4393 1.408 . S
C4397 C4396 1.404 . S
C4397 H4409 0.930 . S
C4398 C4394 1.524 . S
C4398 H4410 0.956 . S
C4398 H4411 0.961 . S
C4398 H4412 0.961 . S
C4399 C4396 1.539 . S
C4399 H4413 0.958 . S
C4399 H4414 0.961 . S
C4399 H4415 0.960 . S
H4400 C4384 0.931 . S
H4401 C4389 0.929 . S
H4402 C4390 0.960 . S
H4403 C4390 0.962 . S
H4404 C4390 0.960 . S
H4405 C4391 0.961 . S
H4406 C4391 0.961 . S
H4407 C4391 0.961 . S
H4408 C4392 0.931 . S
H4409 C4397 0.930 . S
H4410 C4398 0.956 . S
H4411 C4398 0.961 . S
H4412 C4398 0.961 . S
H4413 C4399 0.958 . S
H4414 C4399 0.961 . S
H4415 C4399 0.960 . S
C4416 C4417 1.391 . S
C4416 C4418 1.394 . S
C4416 H4432 0.931 . S
C4417 C4416 1.391 . S
C4417 C4421 1.376 . S
C4418 C4416 1.394 . S
C4418 C4419 1.369 . S
C4418 C4422 1.531 . S
C4419 C4418 1.369 . S
C4419 C4420 1.410 . S
C4419 C4427 1.503 . S
C4420 C4419 1.410 . S
C4420 C4421 1.392 . S
C4420 C4423 1.511 . S
C4421 C4417 1.376 . S
C4421 C4420 1.392 . S
C4421 H4433 0.929 . S
C4422 C4418 1.531 . S
C4422 H4434 0.960 . S
C4422 H4435 0.962 . S
C4422 H4436 0.960 . S
C4423 C4420 1.511 . S
C4423 H4437 0.961 . S
C4423 H4438 0.961 . S
C4423 H4439 0.961 . S
C4424 C4425 1.370 . S
C4424 C4426 1.363 . S
C4424 H4440 0.931 . S
C4425 C4424 1.370 . S
C4425 C4429 1.408 . S
C4426 C4424 1.363 . S
C4426 C4427 1.370 . S
C4426 C4430 1.524 . S
C4427 C4419 1.503 . S
C4427 C4426 1.370 . S
C4427 C4428 1.403 . S
C4428 C4427 1.403 . S
C4428 C4429 1.404 . S
C4428 C4431 1.539 . S
C4429 C4425 1.408 . S
C4429 C4428 1.404 . S
C4429 H4441 0.930 . S
C4430 C4426 1.524 . S
C4430 H4442 0.956 . S
C4430 H4443 0.961 . S
C4430 H4444 0.961 . S
C4431 C4428 1.539 . S
C4431 H4445 0.958 . S
C4431 H4446 0.961 . S
C4431 H4447 0.960 . S
H4432 C4416 0.931 . S
H4433 C4421 0.929 . S
H4434 C4422 0.960 . S
H4435 C4422 0.962 . S
H4436 C4422 0.960 . S
H4437 C4423 0.961 . S
H4438 C4423 0.961 . S
H4439 C4423 0.961 . S
H4440 C4424 0.931 . S
H4441 C4429 0.930 . S
H4442 C4430 0.956 . S
H4443 C4430 0.961 . S
H4444 C4430 0.961 . S
H4445 C4431 0.958 . S
H4446 C4431 0.961 . S
H4447 C4431 0.960 . S
C4448 C4449 1.391 . S
C4448 C4450 1.394 . S
C4448 H4464 0.931 . S
C4449 C4448 1.391 . S
C4449 C4453 1.376 . S
C4450 C4448 1.394 . S
C4450 C4451 1.369 . S
C4450 C4454 1.531 . S
C4451 C4450 1.369 . S
C4451 C4452 1.410 . S
C4451 C4459 1.503 . S
C4452 C4451 1.410 . S
C4452 C4453 1.392 . S
C4452 C4455 1.511 . S
C4453 C4449 1.376 . S
C4453 C4452 1.392 . S
C4453 H4465 0.929 . S
C4454 C4450 1.531 . S
C4454 H4466 0.960 . S
C4454 H4467 0.962 . S
C4454 H4468 0.960 . S
C4455 C4452 1.511 . S
C4455 H4469 0.961 . S
C4455 H4470 0.961 . S
C4455 H4471 0.961 . S
C4456 C4457 1.370 . S
C4456 C4458 1.363 . S
C4456 H4472 0.931 . S
C4457 C4456 1.370 . S
C4457 C4461 1.408 . S
C4458 C4456 1.363 . S
C4458 C4459 1.370 . S
C4458 C4462 1.524 . S
C4459 C4451 1.503 . S
C4459 C4458 1.370 . S
C4459 C4460 1.403 . S
C4460 C4459 1.403 . S
C4460 C4461 1.404 . S
C4460 C4463 1.539 . S
C4461 C4457 1.408 . S
C4461 C4460 1.404 . S
C4461 H4473 0.930 . S
C4462 C4458 1.524 . S
C4462 H4474 0.956 . S
C4462 H4475 0.961 . S
C4462 H4476 0.961 . S
C4463 C4460 1.539 . S
C4463 H4477 0.958 . S
C4463 H4478 0.961 . S
C4463 H4479 0.960 . S
H4464 C4448 0.931 . S
H4465 C4453 0.929 . S
H4466 C4454 0.960 . S
H4467 C4454 0.962 . S
H4468 C4454 0.960 . S
H4469 C4455 0.961 . S
H4470 C4455 0.961 . S
H4471 C4455 0.961 . S
H4472 C4456 0.931 . S
H4473 C4461 0.930 . S
H4474 C4462 0.956 . S
H4475 C4462 0.961 . S
H4476 C4462 0.961 . S
H4477 C4463 0.958 . S
H4478 C4463 0.961 . S
H4479 C4463 0.960 . S
C4480 C4481 1.391 . S
C4480 C4482 1.394 . S
C4480 H4496 0.931 . S
C4481 C4480 1.391 . S
C4481 C4485 1.376 . S
C4482 C4480 1.394 . S
C4482 C4483 1.369 . S
C4482 C4486 1.531 . S
C4483 C4482 1.369 . S
C4483 C4484 1.410 . S
C4483 C4491 1.503 . S
C4484 C4483 1.410 . S
C4484 C4485 1.392 . S
C4484 C4487 1.511 . S
C4485 C4481 1.376 . S
C4485 C4484 1.392 . S
C4485 H4497 0.929 . S
C4486 C4482 1.531 . S
C4486 H4498 0.960 . S
C4486 H4499 0.962 . S
C4486 H4500 0.960 . S
C4487 C4484 1.511 . S
C4487 H4501 0.961 . S
C4487 H4502 0.961 . S
C4487 H4503 0.961 . S
C4488 C4489 1.370 . S
C4488 C4490 1.363 . S
C4488 H4504 0.931 . S
C4489 C4488 1.370 . S
C4489 C4493 1.408 . S
C4490 C4488 1.363 . S
C4490 C4491 1.370 . S
C4490 C4494 1.524 . S
C4491 C4483 1.503 . S
C4491 C4490 1.370 . S
C4491 C4492 1.403 . S
C4492 C4491 1.403 . S
C4492 C4493 1.404 . S
C4492 C4495 1.539 . S
C4493 C4489 1.408 . S
C4493 C4492 1.404 . S
C4493 H4505 0.930 . S
C4494 C4490 1.524 . S
C4494 H4506 0.956 . S
C4494 H4507 0.961 . S
C4494 H4508 0.961 . S
C4495 C4492 1.539 . S
C4495 H4509 0.958 . S
C4495 H4510 0.961 . S
C4495 H4511 0.960 . S
H4496 C4480 0.931 . S
H4497 C4485 0.929 . S
H4498 C4486 0.960 . S
H4499 C4486 0.962 . S
H4500 C4486 0.960 . S
H4501 C4487 0.961 . S
H4502 C4487 0.961 . S
H4503 C4487 0.961 . S
H4504 C4488 0.931 . S
H4505 C4493 0.930 . S
H4506 C4494 0.956 . S
H4507 C4494 0.961 . S
H4508 C4494 0.961 . S
H4509 C4495 0.958 . S
H4510 C4495 0.961 . S
H4511 C4495 0.960 . S
C4512 C4513 1.391 . S
C4512 C4514 1.394 . S
C4512 H4528 0.931 . S
C4513 C4512 1.391 . S
C4513 C4517 1.376 . S
C4514 C4512 1.394 . S
C4514 C4515 1.369 . S
C4514 C4518 1.531 . S
C4515 C4514 1.369 . S
C4515 C4516 1.410 . S
C4515 C4523 1.503 . S
C4516 C4515 1.410 . S
C4516 C4517 1.392 . S
C4516 C4519 1.511 . S
C4517 C4513 1.376 . S
C4517 C4516 1.392 . S
C4517 H4529 0.929 . S
C4518 C4514 1.531 . S
C4518 H4530 0.960 . S
C4518 H4531 0.962 . S
C4518 H4532 0.960 . S
C4519 C4516 1.511 . S
C4519 H4533 0.961 . S
C4519 H4534 0.961 . S
C4519 H4535 0.961 . S
C4520 C4521 1.370 . S
C4520 C4522 1.363 . S
C4520 H4536 0.931 . S
C4521 C4520 1.370 . S
C4521 C4525 1.408 . S
C4522 C4520 1.363 . S
C4522 C4523 1.370 . S
C4522 C4526 1.524 . S
C4523 C4515 1.503 . S
C4523 C4522 1.370 . S
C4523 C4524 1.403 . S
C4524 C4523 1.403 . S
C4524 C4525 1.404 . S
C4524 C4527 1.539 . S
C4525 C4521 1.408 . S
C4525 C4524 1.404 . S
C4525 H4537 0.930 . S
C4526 C4522 1.524 . S
C4526 H4538 0.956 . S
C4526 H4539 0.961 . S
C4526 H4540 0.961 . S
C4527 C4524 1.539 . S
C4527 H4541 0.958 . S
C4527 H4542 0.961 . S
C4527 H4543 0.960 . S
H4528 C4512 0.931 . S
H4529 C4517 0.929 . S
H4530 C4518 0.960 . S
H4531 C4518 0.962 . S
H4532 C4518 0.960 . S
H4533 C4519 0.961 . S
H4534 C4519 0.961 . S
H4535 C4519 0.961 . S
H4536 C4520 0.931 . S
H4537 C4525 0.930 . S
H4538 C4526 0.956 . S
H4539 C4526 0.961 . S
H4540 C4526 0.961 . S
H4541 C4527 0.958 . S
H4542 C4527 0.961 . S
H4543 C4527 0.960 . S
C4544 C4545 1.391 . S
C4544 C4546 1.394 . S
C4544 H4560 0.931 . S
C4545 C4544 1.391 . S
C4545 C4549 1.376 . S
C4546 C4544 1.394 . S
C4546 C4547 1.369 . S
C4546 C4550 1.531 . S
C4547 C4546 1.369 . S
C4547 C4548 1.410 . S
C4547 C4555 1.503 . S
C4548 C4547 1.410 . S
C4548 C4549 1.392 . S
C4548 C4551 1.511 . S
C4549 C4545 1.376 . S
C4549 C4548 1.392 . S
C4549 H4561 0.929 . S
C4550 C4546 1.531 . S
C4550 H4562 0.960 . S
C4550 H4563 0.962 . S
C4550 H4564 0.960 . S
C4551 C4548 1.511 . S
C4551 H4565 0.961 . S
C4551 H4566 0.961 . S
C4551 H4567 0.961 . S
C4552 C4553 1.370 . S
C4552 C4554 1.363 . S
C4552 H4568 0.931 . S
C4553 C4552 1.370 . S
C4553 C4557 1.408 . S
C4554 C4552 1.363 . S
C4554 C4555 1.370 . S
C4554 C4558 1.524 . S
C4555 C4547 1.503 . S
C4555 C4554 1.370 . S
C4555 C4556 1.403 . S
C4556 C4555 1.403 . S
C4556 C4557 1.404 . S
C4556 C4559 1.539 . S
C4557 C4553 1.408 . S
C4557 C4556 1.404 . S
C4557 H4569 0.930 . S
C4558 C4554 1.524 . S
C4558 H4570 0.956 . S
C4558 H4571 0.961 . S
C4558 H4572 0.961 . S
C4559 C4556 1.539 . S
C4559 H4573 0.958 . S
C4559 H4574 0.961 . S
C4559 H4575 0.960 . S
H4560 C4544 0.931 . S
H4561 C4549 0.929 . S
H4562 C4550 0.960 . S
H4563 C4550 0.962 . S
H4564 C4550 0.960 . S
H4565 C4551 0.961 . S
H4566 C4551 0.961 . S
H4567 C4551 0.961 . S
H4568 C4552 0.931 . S
H4569 C4557 0.930 . S
H4570 C4558 0.956 . S
H4571 C4558 0.961 . S
H4572 C4558 0.961 . S
H4573 C4559 0.958 . S
H4574 C4559 0.961 . S
H4575 C4559 0.960 . S
C4576 C4577 1.391 . S
C4576 C4578 1.394 . S
C4576 H4592 0.931 . S
C4577 C4576 1.391 . S
C4577 C4581 1.376 . S
C4578 C4576 1.394 . S
C4578 C4579 1.369 . S
C4578 C4582 1.531 . S
C4579 C4578 1.369 . S
C4579 C4580 1.410 . S
C4579 C4587 1.503 . S
C4580 C4579 1.410 . S
C4580 C4581 1.392 . S
C4580 C4583 1.511 . S
C4581 C4577 1.376 . S
C4581 C4580 1.392 . S
C4581 H4593 0.929 . S
C4582 C4578 1.531 . S
C4582 H4594 0.960 . S
C4582 H4595 0.962 . S
C4582 H4596 0.960 . S
C4583 C4580 1.511 . S
C4583 H4597 0.961 . S
C4583 H4598 0.961 . S
C4583 H4599 0.961 . S
C4584 C4585 1.370 . S
C4584 C4586 1.363 . S
C4584 H4600 0.931 . S
C4585 C4584 1.370 . S
C4585 C4589 1.408 . S
C4586 C4584 1.363 . S
C4586 C4587 1.370 . S
C4586 C4590 1.524 . S
C4587 C4579 1.503 . S
C4587 C4586 1.370 . S
C4587 C4588 1.403 . S
C4588 C4587 1.403 . S
C4588 C4589 1.404 . S
C4588 C4591 1.539 . S
C4589 C4585 1.408 . S
C4589 C4588 1.404 . S
C4589 H4601 0.930 . S
C4590 C4586 1.524 . S
C4590 H4602 0.956 . S
C4590 H4603 0.961 . S
C4590 H4604 0.961 . S
C4591 C4588 1.539 . S
C4591 H4605 0.958 . S
C4591 H4606 0.961 . S
C4591 H4607 0.960 . S
H4592 C4576 0.931 . S
H4593 C4581 0.929 . S
H4594 C4582 0.960 . S
H4595 C4582 0.962 . S
H4596 C4582 0.960 . S
H4597 C4583 0.961 . S
H4598 C4583 0.961 . S
H4599 C4583 0.961 . S
H4600 C4584 0.931 . S
H4601 C4589 0.930 . S
H4602 C4590 0.956 . S
H4603 C4590 0.961 . S
H4604 C4590 0.961 . S
H4605 C4591 0.958 . S
H4606 C4591 0.961 . S
H4607 C4591 0.960 . S
C4608 C4609 1.391 . S
C4608 C4610 1.394 . S
C4608 H4624 0.931 . S
C4609 C4608 1.391 . S
C4609 C4613 1.376 . S
C4610 C4608 1.394 . S
C4610 C4611 1.369 . S
C4610 C4614 1.531 . S
C4611 C4610 1.369 . S
C4611 C4612 1.410 . S
C4611 C4619 1.503 . S
C4612 C4611 1.410 . S
C4612 C4613 1.392 . S
C4612 C4615 1.511 . S
C4613 C4609 1.376 . S
C4613 C4612 1.392 . S
C4613 H4625 0.929 . S
C4614 C4610 1.531 . S
C4614 H4626 0.960 . S
C4614 H4627 0.962 . S
C4614 H4628 0.960 . S
C4615 C4612 1.511 . S
C4615 H4629 0.961 . S
C4615 H4630 0.961 . S
C4615 H4631 0.961 . S
C4616 C4617 1.370 . S
C4616 C4618 1.363 . S
C4616 H4632 0.931 . S
C4617 C4616 1.370 . S
C4617 C4621 1.408 . S
C4618 C4616 1.363 . S
C4618 C4619 1.370 . S
C4618 C4622 1.524 . S
C4619 C4611 1.503 . S
C4619 C4618 1.370 . S
C4619 C4620 1.403 . S
C4620 C4619 1.403 . S
C4620 C4621 1.404 . S
C4620 C4623 1.539 . S
C4621 C4617 1.408 . S
C4621 C4620 1.404 . S
C4621 H4633 0.930 . S
C4622 C4618 1.524 . S
C4622 H4634 0.956 . S
C4622 H4635 0.961 . S
C4622 H4636 0.961 . S
C4623 C4620 1.539 . S
C4623 H4637 0.958 . S
C4623 H4638 0.961 . S
C4623 H4639 0.960 . S
H4624 C4608 0.931 . S
H4625 C4613 0.929 . S
H4626 C4614 0.960 . S
H4627 C4614 0.962 . S
H4628 C4614 0.960 . S
H4629 C4615 0.961 . S
H4630 C4615 0.961 . S
H4631 C4615 0.961 . S
H4632 C4616 0.931 . S
H4633 C4621 0.930 . S
H4634 C4622 0.956 . S
H4635 C4622 0.961 . S
H4636 C4622 0.961 . S
H4637 C4623 0.958 . S
H4638 C4623 0.961 . S
H4639 C4623 0.960 . S
C4640 C4641 1.391 . S
C4640 C4642 1.394 . S
C4640 H4656 0.931 . S
C4641 C4640 1.391 . S
C4641 C4645 1.376 . S
C4642 C4640 1.394 . S
C4642 C4643 1.369 . S
C4642 C4646 1.531 . S
C4643 C4642 1.369 . S
C4643 C4644 1.410 . S
C4643 C4651 1.503 . S
C4644 C4643 1.410 . S
C4644 C4645 1.392 . S
C4644 C4647 1.511 . S
C4645 C4641 1.376 . S
C4645 C4644 1.392 . S
C4645 H4657 0.929 . S
C4646 C4642 1.531 . S
C4646 H4658 0.960 . S
C4646 H4659 0.962 . S
C4646 H4660 0.960 . S
C4647 C4644 1.511 . S
C4647 H4661 0.961 . S
C4647 H4662 0.961 . S
C4647 H4663 0.961 . S
C4648 C4649 1.370 . S
C4648 C4650 1.363 . S
C4648 H4664 0.931 . S
C4649 C4648 1.370 . S
C4649 C4653 1.408 . S
C4650 C4648 1.363 . S
C4650 C4651 1.370 . S
C4650 C4654 1.524 . S
C4651 C4643 1.503 . S
C4651 C4650 1.370 . S
C4651 C4652 1.403 . S
C4652 C4651 1.403 . S
C4652 C4653 1.404 . S
C4652 C4655 1.539 . S
C4653 C4649 1.408 . S
C4653 C4652 1.404 . S
C4653 H4665 0.930 . S
C4654 C4650 1.524 . S
C4654 H4666 0.956 . S
C4654 H4667 0.961 . S
C4654 H4668 0.961 . S
C4655 C4652 1.539 . S
C4655 H4669 0.958 . S
C4655 H4670 0.961 . S
C4655 H4671 0.960 . S
H4656 C4640 0.931 . S
H4657 C4645 0.929 . S
H4658 C4646 0.960 . S
H4659 C4646 0.962 . S
H4660 C4646 0.960 . S
H4661 C4647 0.961 . S
H4662 C4647 0.961 . S
H4663 C4647 0.961 . S
H4664 C4648 0.931 . S
H4665 C4653 0.930 . S
H4666 C4654 0.956 . S
H4667 C4654 0.961 . S
H4668 C4654 0.961 . S
H4669 C4655 0.958 . S
H4670 C4655 0.961 . S
H4671 C4655 0.960 . S
C4672 C4673 1.391 . S
C4672 C4674 1.394 . S
C4672 H4688 0.931 . S
C4673 C4672 1.391 . S
C4673 C4677 1.376 . S
C4674 C4672 1.394 . S
C4674 C4675 1.369 . S
C4674 C4678 1.531 . S
C4675 C4674 1.369 . S
C4675 C4676 1.410 . S
C4675 C4683 1.503 . S
C4676 C4675 1.410 . S
C4676 C4677 1.392 . S
C4676 C4679 1.511 . S
C4677 C4673 1.376 . S
C4677 C4676 1.392 . S
C4677 H4689 0.929 . S
C4678 C4674 1.531 . S
C4678 H4690 0.960 . S
C4678 H4691 0.962 . S
C4678 H4692 0.960 . S
C4679 C4676 1.511 . S
C4679 H4693 0.961 . S
C4679 H4694 0.961 . S
C4679 H4695 0.961 . S
C4680 C4681 1.370 . S
C4680 C4682 1.363 . S
C4680 H4696 0.931 . S
C4681 C4680 1.370 . S
C4681 C4685 1.408 . S
C4682 C4680 1.363 . S
C4682 C4683 1.370 . S
C4682 C4686 1.524 . S
C4683 C4675 1.503 . S
C4683 C4682 1.370 . S
C4683 C4684 1.403 . S
C4684 C4683 1.403 . S
C4684 C4685 1.404 . S
C4684 C4687 1.539 . S
C4685 C4681 1.408 . S
C4685 C4684 1.404 . S
C4685 H4697 0.930 . S
C4686 C4682 1.524 . S
C4686 H4698 0.956 . S
C4686 H4699 0.961 . S
C4686 H4700 0.961 . S
C4687 C4684 1.539 . S
C4687 H4701 0.958 . S
C4687 H4702 0.961 . S
C4687 H4703 0.960 . S
H4688 C4672 0.931 . S
H4689 C4677 0.929 . S
H4690 C4678 0.960 . S
H4691 C4678 0.962 . S
H4692 C4678 0.960 . S
H4693 C4679 0.961 . S
H4694 C4679 0.961 . S
H4695 C4679 0.961 . S
H4696 C4680 0.931 . S
H4697 C4685 0.930 . S
H4698 C4686 0.956 . S
H4699 C4686 0.961 . S
H4700 C4686 0.961 . S
H4701 C4687 0.958 . S
H4702 C4687 0.961 . S
H4703 C4687 0.960 . S
C4704 C4705 1.391 . S
C4704 C4706 1.394 . S
C4704 H4720 0.931 . S
C4705 C4704 1.391 . S
C4705 C4709 1.376 . S
C4706 C4704 1.394 . S
C4706 C4707 1.369 . S
C4706 C4710 1.531 . S
C4707 C4706 1.369 . S
C4707 C4708 1.410 . S
C4707 C4715 1.503 . S
C4708 C4707 1.410 . S
C4708 C4709 1.392 . S
C4708 C4711 1.511 . S
C4709 C4705 1.376 . S
C4709 C4708 1.392 . S
C4709 H4721 0.929 . S
C4710 C4706 1.531 . S
C4710 H4722 0.960 . S
C4710 H4723 0.962 . S
C4710 H4724 0.960 . S
C4711 C4708 1.511 . S
C4711 H4725 0.961 . S
C4711 H4726 0.961 . S
C4711 H4727 0.961 . S
C4712 C4713 1.370 . S
C4712 C4714 1.363 . S
C4712 H4728 0.931 . S
C4713 C4712 1.370 . S
C4713 C4717 1.408 . S
C4714 C4712 1.363 . S
C4714 C4715 1.370 . S
C4714 C4718 1.524 . S
C4715 C4707 1.503 . S
C4715 C4714 1.370 . S
C4715 C4716 1.403 . S
C4716 C4715 1.403 . S
C4716 C4717 1.404 . S
C4716 C4719 1.539 . S
C4717 C4713 1.408 . S
C4717 C4716 1.404 . S
C4717 H4729 0.930 . S
C4718 C4714 1.524 . S
C4718 H4730 0.956 . S
C4718 H4731 0.961 . S
C4718 H4732 0.961 . S
C4719 C4716 1.539 . S
C4719 H4733 0.958 . S
C4719 H4734 0.961 . S
C4719 H4735 0.960 . S
H4720 C4704 0.931 . S
H4721 C4709 0.929 . S
H4722 C4710 0.960 . S
H4723 C4710 0.962 . S
H4724 C4710 0.960 . S
H4725 C4711 0.961 . S
H4726 C4711 0.961 . S
H4727 C4711 0.961 . S
H4728 C4712 0.931 . S
H4729 C4717 0.930 . S
H4730 C4718 0.956 . S
H4731 C4718 0.961 . S
H4732 C4718 0.961 . S
H4733 C4719 0.958 . S
H4734 C4719 0.961 . S
H4735 C4719 0.960 . S
C4736 C4737 1.391 . S
C4736 C4738 1.394 . S
C4736 H4752 0.931 . S
C4737 C4736 1.391 . S
C4737 C4741 1.376 . S
C4738 C4736 1.394 . S
C4738 C4739 1.369 . S
C4738 C4742 1.531 . S
C4739 C4738 1.369 . S
C4739 C4740 1.410 . S
C4739 C4747 1.503 . S
C4740 C4739 1.410 . S
C4740 C4741 1.392 . S
C4740 C4743 1.511 . S
C4741 C4737 1.376 . S
C4741 C4740 1.392 . S
C4741 H4753 0.929 . S
C4742 C4738 1.531 . S
C4742 H4754 0.960 . S
C4742 H4755 0.962 . S
C4742 H4756 0.960 . S
C4743 C4740 1.511 . S
C4743 H4757 0.961 . S
C4743 H4758 0.961 . S
C4743 H4759 0.961 . S
C4744 C4745 1.370 . S
C4744 C4746 1.363 . S
C4744 H4760 0.931 . S
C4745 C4744 1.370 . S
C4745 C4749 1.408 . S
C4746 C4744 1.363 . S
C4746 C4747 1.370 . S
C4746 C4750 1.524 . S
C4747 C4739 1.503 . S
C4747 C4746 1.370 . S
C4747 C4748 1.403 . S
C4748 C4747 1.403 . S
C4748 C4749 1.404 . S
C4748 C4751 1.539 . S
C4749 C4745 1.408 . S
C4749 C4748 1.404 . S
C4749 H4761 0.930 . S
C4750 C4746 1.524 . S
C4750 H4762 0.956 . S
C4750 H4763 0.961 . S
C4750 H4764 0.961 . S
C4751 C4748 1.539 . S
C4751 H4765 0.958 . S
C4751 H4766 0.961 . S
C4751 H4767 0.960 . S
H4752 C4736 0.931 . S
H4753 C4741 0.929 . S
H4754 C4742 0.960 . S
H4755 C4742 0.962 . S
H4756 C4742 0.960 . S
H4757 C4743 0.961 . S
H4758 C4743 0.961 . S
H4759 C4743 0.961 . S
H4760 C4744 0.931 . S
H4761 C4749 0.930 . S
H4762 C4750 0.956 . S
H4763 C4750 0.961 . S
H4764 C4750 0.961 . S
H4765 C4751 0.958 . S
H4766 C4751 0.961 . S
H4767 C4751 0.960 . S
C4768 C4769 1.391 . S
C4768 C4770 1.394 . S
C4768 H4784 0.931 . S
C4769 C4768 1.391 . S
C4769 C4773 1.376 . S
C4770 C4768 1.394 . S
C4770 C4771 1.369 . S
C4770 C4774 1.531 . S
C4771 C4770 1.369 . S
C4771 C4772 1.410 . S
C4771 C4779 1.503 . S
C4772 C4771 1.410 . S
C4772 C4773 1.392 . S
C4772 C4775 1.511 . S
C4773 C4769 1.376 . S
C4773 C4772 1.392 . S
C4773 H4785 0.929 . S
C4774 C4770 1.531 . S
C4774 H4786 0.960 . S
C4774 H4787 0.962 . S
C4774 H4788 0.960 . S
C4775 C4772 1.511 . S
C4775 H4789 0.961 . S
C4775 H4790 0.961 . S
C4775 H4791 0.961 . S
C4776 C4777 1.370 . S
C4776 C4778 1.363 . S
C4776 H4792 0.931 . S
C4777 C4776 1.370 . S
C4777 C4781 1.408 . S
C4778 C4776 1.363 . S
C4778 C4779 1.370 . S
C4778 C4782 1.524 . S
C4779 C4771 1.503 . S
C4779 C4778 1.370 . S
C4779 C4780 1.403 . S
C4780 C4779 1.403 . S
C4780 C4781 1.404 . S
C4780 C4783 1.539 . S
C4781 C4777 1.408 . S
C4781 C4780 1.404 . S
C4781 H4793 0.930 . S
C4782 C4778 1.524 . S
C4782 H4794 0.956 . S
C4782 H4795 0.961 . S
C4782 H4796 0.961 . S
C4783 C4780 1.539 . S
C4783 H4797 0.958 . S
C4783 H4798 0.961 . S
C4783 H4799 0.960 . S
H4784 C4768 0.931 . S
H4785 C4773 0.929 . S
H4786 C4774 0.960 . S
H4787 C4774 0.962 . S
H4788 C4774 0.960 . S
H4789 C4775 0.961 . S
H4790 C4775 0.961 . S
H4791 C4775 0.961 . S
H4792 C4776 0.931 . S
H4793 C4781 0.930 . S
H4794 C4782 0.956 . S
H4795 C4782 0.961 . S
H4796 C4782 0.961 . S
H4797 C4783 0.958 . S
H4798 C4783 0.961 . S
H4799 C4783 0.960 . S
C4800 C4801 1.391 . S
C4800 C4802 1.394 . S
C4800 H4816 0.931 . S
C4801 C4800 1.391 . S
C4801 C4805 1.376 . S
C4802 C4800 1.394 . S
C4802 C4803 1.369 . S
C4802 C4806 1.531 . S
C4803 C4802 1.369 . S
C4803 C4804 1.410 . S
C4803 C4811 1.503 . S
C4804 C4803 1.410 . S
C4804 C4805 1.392 . S
C4804 C4807 1.511 . S
C4805 C4801 1.376 . S
C4805 C4804 1.392 . S
C4805 H4817 0.929 . S
C4806 C4802 1.531 . S
C4806 H4818 0.960 . S
C4806 H4819 0.962 . S
C4806 H4820 0.960 . S
C4807 C4804 1.511 . S
C4807 H4821 0.961 . S
C4807 H4822 0.961 . S
C4807 H4823 0.961 . S
C4808 C4809 1.370 . S
C4808 C4810 1.363 . S
C4808 H4824 0.931 . S
C4809 C4808 1.370 . S
C4809 C4813 1.408 . S
C4810 C4808 1.363 . S
C4810 C4811 1.370 . S
C4810 C4814 1.524 . S
C4811 C4803 1.503 . S
C4811 C4810 1.370 . S
C4811 C4812 1.403 . S
C4812 C4811 1.403 . S
C4812 C4813 1.404 . S
C4812 C4815 1.539 . S
C4813 C4809 1.408 . S
C4813 C4812 1.404 . S
C4813 H4825 0.930 . S
C4814 C4810 1.524 . S
C4814 H4826 0.956 . S
C4814 H4827 0.961 . S
C4814 H4828 0.961 . S
C4815 C4812 1.539 . S
C4815 H4829 0.958 . S
C4815 H4830 0.961 . S
C4815 H4831 0.960 . S
H4816 C4800 0.931 . S
H4817 C4805 0.929 . S
H4818 C4806 0.960 . S
H4819 C4806 0.962 . S
H4820 C4806 0.960 . S
H4821 C4807 0.961 . S
H4822 C4807 0.961 . S
H4823 C4807 0.961 . S
H4824 C4808 0.931 . S
H4825 C4813 0.930 . S
H4826 C4814 0.956 . S
H4827 C4814 0.961 . S
H4828 C4814 0.961 . S
H4829 C4815 0.958 . S
H4830 C4815 0.961 . S
H4831 C4815 0.960 . S
C4832 C4833 1.391 . S
C4832 C4834 1.394 . S
C4832 H4848 0.931 . S
C4833 C4832 1.391 . S
C4833 C4837 1.376 . S
C4834 C4832 1.394 . S
C4834 C4835 1.369 . S
C4834 C4838 1.531 . S
C4835 C4834 1.369 . S
C4835 C4836 1.410 . S
C4835 C4843 1.503 . S
C4836 C4835 1.410 . S
C4836 C4837 1.392 . S
C4836 C4839 1.511 . S
C4837 C4833 1.376 . S
C4837 C4836 1.392 . S
C4837 H4849 0.929 . S
C4838 C4834 1.531 . S
C4838 H4850 0.960 . S
C4838 H4851 0.962 . S
C4838 H4852 0.960 . S
C4839 C4836 1.511 . S
C4839 H4853 0.961 . S
C4839 H4854 0.961 . S
C4839 H4855 0.961 . S
C4840 C4841 1.370 . S
C4840 C4842 1.363 . S
C4840 H4856 0.931 . S
C4841 C4840 1.370 . S
C4841 C4845 1.408 . S
C4842 C4840 1.363 . S
C4842 C4843 1.370 . S
C4842 C4846 1.524 . S
C4843 C4835 1.503 . S
C4843 C4842 1.370 . S
C4843 C4844 1.403 . S
C4844 C4843 1.403 . S
C4844 C4845 1.404 . S
C4844 C4847 1.539 . S
C4845 C4841 1.408 . S
C4845 C4844 1.404 . S
C4845 H4857 0.930 . S
C4846 C4842 1.524 . S
C4846 H4858 0.956 . S
C4846 H4859 0.961 . S
C4846 H4860 0.961 . S
C4847 C4844 1.539 . S
C4847 H4861 0.958 . S
C4847 H4862 0.961 . S
C4847 H4863 0.960 . S
H4848 C4832 0.931 . S
H4849 C4837 0.929 . S
H4850 C4838 0.960 . S
H4851 C4838 0.962 . S
H4852 C4838 0.960 . S
H4853 C4839 0.961 . S
H4854 C4839 0.961 . S
H4855 C4839 0.961 . S
H4856 C4840 0.931 . S
H4857 C4845 0.930 . S
H4858 C4846 0.956 . S
H4859 C4846 0.961 . S
H4860 C4846 0.961 . S
H4861 C4847 0.958 . S
H4862 C4847 0.961 . S
H4863 C4847 0.960 . S
C2817 C585 1.667 . S
C2825 C20 1.686 . S
C2849 C108 1.692 . S
C2857 C673 1.676 . S
C2881 C401 1.689 . S
C2889 C196 1.685 . S
C2913 C293 1.672 . S
C2921 C497 1.692 . S
C2945 C761 1.662 . S
C2953 C1261 1.686 . S
C2977 C1340 1.651 . S
C2985 C849 1.683 . S
C3009 C937 1.663 . S
C3017 C1085 1.686 . S
C3041 C1164 1.695 . S
C3049 C1025 1.673 . S
C3073 C1428 1.697 . S
C3081 C1993 1.681 . S
C3105 C1516 1.694 . S
C3113 C2081 1.676 . S
C3137 C1809 1.676 . S
C3145 C1604 1.682 . S
C3169 C1897 1.694 . S
C3177 C1701 1.683 . S
C3201 C2132 1.690 . S
C3209 C2660 1.678 . S
C3233 C2257 1.674 . S
C3241 C2748 1.669 . S
C3265 C2484 1.666 . S
C3273 C2345 1.672 . S
C3297 C2433 1.651 . S
C3305 C2572 1.681 . S
C3329 C49 1.683 . S
C3337 C645 1.676 . S
C3361 C372 1.670 . S
C3369 C137 1.676 . S
C3393 C469 1.681 . S
C3401 C225 1.678 . S
C3425 C321 1.683 . S
C3433 C557 1.676 . S
C3457 C733 1.672 . S
C3465 C1369 1.667 . S
C3489 C1113 1.655 . S
C3497 C821 1.672 . S
C3521 C1193 1.668 . S
C3529 C909 1.669 . S
C3553 C1289 1.655 . S
C3561 C997 1.672 . S
C3585 C1457 1.665 . S
C3593 C2053 1.680 . S
C3617 C1545 1.673 . S
C3625 C1780 1.676 . S
C3649 C1868 1.669 . S
C3657 C1633 1.677 . S
C3681 C1729 1.679 . S
C3689 C1965 1.680 . S
C3713 C2161 1.670 . S
C3721 C2777 1.668 . S
C3745 C2513 1.673 . S
C3753 C2229 1.664 . S
C3777 C2317 1.670 . S
C3785 C2601 1.668 . S
C3809 C2405 1.672 . S
C3817 C2689 1.665 . S
C3841 C2669 1.465 . S
C3849 C57 1.472 . S
C3873 C1349 1.461 . S
C3881 C145 1.471 . S
C3905 C233 1.468 . S
C3913 C2493 1.470 . S
C3937 C313 1.474 . S
C3945 C1173 1.475 . S
C3969 C381 1.479 . S
C3977 C2337 1.477 . S
C4001 C460 1.462 . S
C4009 C1017 1.469 . S
C4033 C548 1.466 . S
C4041 C2141 1.471 . S
C4065 C841 1.479 . S
C4073 C636 1.478 . S
C4097 C1956 1.465 . S
C4105 C753 1.469 . S
C4129 C929 1.476 . S
C4137 C1789 1.477 . S
C4161 C1641 1.478 . S
C4169 C1076 1.476 . S
C4193 C1465 1.478 . S
C4201 C1252 1.477 . S
C4225 C1553 1.465 . S
C4233 C2757 1.470 . S
C4257 C1721 1.468 . S
C4265 C2581 1.472 . S
C4289 C1877 1.472 . S
C4297 C2425 1.472 . S
C4321 C2249 1.477 . S
C4329 C2044 1.478 . S
C4353 C29 0.319 . S
C4361 C665 0.383 . S
C4385 C117 0.414 . S
C4393 C409 0.351 . S
C4417 C489 0.363 . S
C4425 C205 0.376 . S
C4449 C284 0.336 . S
C4457 C577 0.383 . S
C4481 C1377 0.398 . S
C4489 C724 0.330 . S
C4513 C1105 0.314 . S
C4521 C812 0.358 . S
C4545 C900 0.394 . S
C4553 C1201 0.329 . S
C4577 C1281 0.392 . S
C4585 C988 0.329 . S
C4609 C2073 0.407 . S
C4617 C1437 0.343 . S
C4641 C1817 0.363 . S
C4649 C1525 0.376 . S
C4673 C1905 0.407 . S
C4681 C1613 0.356 . S
C4705 C1985 0.383 . S
C4713 C1692 0.351 . S
C4737 C2169 0.381 . S
C4745 C2785 0.352 . S
C4769 C2220 0.329 . S
C4777 C2521 0.349 . S
C4801 C2308 0.310 . S
C4809 C2609 0.364 . S
C4833 C2697 0.316 . S
C4841 C2396 0.368 . S
