# Generated by pormake.
# Topology lcs, (4)-cn, num edge types: 1
# Building blocks:
#     Node 0, Type 0, BuildingBlock: KUFVIS_clean_sbu_0, # of connection points: 4
#     Node 1, Type 0, BuildingBlock: KUFVIS_clean_sbu_0, # of connection points: 4
#     Node 2, Type 0, BuildingBlock: KUFVIS_clean_sbu_0, # of connection points: 4
#     Node 3, Type 0, BuildingBlock: KUFVIS_clean_sbu_0, # of connection points: 4
#     Node 4, Type 0, BuildingBlock: KUFVIS_clean_sbu_0, # of connection points: 4
#     Node 5, Type 0, BuildingBlock: KUFVIS_clean_sbu_0, # of connection points: 4
#     Node 6, Type 0, BuildingBlock: KUFVIS_clean_sbu_0, # of connection points: 4
#     Node 7, Type 0, BuildingBlock: KUFVIS_clean_sbu_0, # of connection points: 4
#     Node 8, Type 0, BuildingBlock: KUFVIS_clean_sbu_0, # of connection points: 4
#     Node 9, Type 0, BuildingBlock: KUFVIS_clean_sbu_0, # of connection points: 4
#     Node 10, Type 0, BuildingBlock: KUFVIS_clean_sbu_0, # of connection points: 4
#     Node 11, Type 0, BuildingBlock: KUFVIS_clean_sbu_0, # of connection points: 4
#     Node 12, Type 0, BuildingBlock: KUFVIS_clean_sbu_0, # of connection points: 4
#     Node 13, Type 0, BuildingBlock: KUFVIS_clean_sbu_0, # of connection points: 4
#     Node 14, Type 0, BuildingBlock: KUFVIS_clean_sbu_0, # of connection points: 4
#     Node 15, Type 0, BuildingBlock: KUFVIS_clean_sbu_0, # of connection points: 4
#     Node 16, Type 0, BuildingBlock: KUFVIS_clean_sbu_0, # of connection points: 4
#     Node 17, Type 0, BuildingBlock: KUFVIS_clean_sbu_0, # of connection points: 4
#     Node 18, Type 0, BuildingBlock: KUFVIS_clean_sbu_0, # of connection points: 4
#     Node 19, Type 0, BuildingBlock: KUFVIS_clean_sbu_0, # of connection points: 4
#     Node 20, Type 0, BuildingBlock: KUFVIS_clean_sbu_0, # of connection points: 4
#     Node 21, Type 0, BuildingBlock: KUFVIS_clean_sbu_0, # of connection points: 4
#     Node 22, Type 0, BuildingBlock: KUFVIS_clean_sbu_0, # of connection points: 4
#     Node 23, Type 0, BuildingBlock: KUFVIS_clean_sbu_0, # of connection points: 4
#     Edge 24, Type (0, 0), BuildingBlock: AJUNOK_clean_linker_0, # of connection points: 2
#     Edge 25, Type (0, 0), BuildingBlock: AJUNOK_clean_linker_0, # of connection points: 2
#     Edge 26, Type (0, 0), BuildingBlock: AJUNOK_clean_linker_0, # of connection points: 2
#     Edge 27, Type (0, 0), BuildingBlock: AJUNOK_clean_linker_0, # of connection points: 2
#     Edge 28, Type (0, 0), BuildingBlock: AJUNOK_clean_linker_0, # of connection points: 2
#     Edge 29, Type (0, 0), BuildingBlock: AJUNOK_clean_linker_0, # of connection points: 2
#     Edge 30, Type (0, 0), BuildingBlock: AJUNOK_clean_linker_0, # of connection points: 2
#     Edge 31, Type (0, 0), BuildingBlock: AJUNOK_clean_linker_0, # of connection points: 2
#     Edge 32, Type (0, 0), BuildingBlock: AJUNOK_clean_linker_0, # of connection points: 2
#     Edge 33, Type (0, 0), BuildingBlock: AJUNOK_clean_linker_0, # of connection points: 2
#     Edge 34, Type (0, 0), BuildingBlock: AJUNOK_clean_linker_0, # of connection points: 2
#     Edge 35, Type (0, 0), BuildingBlock: AJUNOK_clean_linker_0, # of connection points: 2
#     Edge 36, Type (0, 0), BuildingBlock: AJUNOK_clean_linker_0, # of connection points: 2
#     Edge 37, Type (0, 0), BuildingBlock: AJUNOK_clean_linker_0, # of connection points: 2
#     Edge 38, Type (0, 0), BuildingBlock: AJUNOK_clean_linker_0, # of connection points: 2
#     Edge 39, Type (0, 0), BuildingBlock: AJUNOK_clean_linker_0, # of connection points: 2
#     Edge 40, Type (0, 0), BuildingBlock: AJUNOK_clean_linker_0, # of connection points: 2
#     Edge 41, Type (0, 0), BuildingBlock: AJUNOK_clean_linker_0, # of connection points: 2
#     Edge 42, Type (0, 0), BuildingBlock: AJUNOK_clean_linker_0, # of connection points: 2
#     Edge 43, Type (0, 0), BuildingBlock: AJUNOK_clean_linker_0, # of connection points: 2
#     Edge 44, Type (0, 0), BuildingBlock: AJUNOK_clean_linker_0, # of connection points: 2
#     Edge 45, Type (0, 0), BuildingBlock: AJUNOK_clean_linker_0, # of connection points: 2
#     Edge 46, Type (0, 0), BuildingBlock: AJUNOK_clean_linker_0, # of connection points: 2
#     Edge 47, Type (0, 0), BuildingBlock: AJUNOK_clean_linker_0, # of connection points: 2
#     Edge 48, Type (0, 0), BuildingBlock: AJUNOK_clean_linker_0, # of connection points: 2
#     Edge 49, Type (0, 0), BuildingBlock: AJUNOK_clean_linker_0, # of connection points: 2
#     Edge 50, Type (0, 0), BuildingBlock: AJUNOK_clean_linker_0, # of connection points: 2
#     Edge 51, Type (0, 0), BuildingBlock: AJUNOK_clean_linker_0, # of connection points: 2
#     Edge 52, Type (0, 0), BuildingBlock: AJUNOK_clean_linker_0, # of connection points: 2
#     Edge 53, Type (0, 0), BuildingBlock: AJUNOK_clean_linker_0, # of connection points: 2
#     Edge 54, Type (0, 0), BuildingBlock: AJUNOK_clean_linker_0, # of connection points: 2
#     Edge 55, Type (0, 0), BuildingBlock: AJUNOK_clean_linker_0, # of connection points: 2
#     Edge 56, Type (0, 0), BuildingBlock: AJUNOK_clean_linker_0, # of connection points: 2
#     Edge 57, Type (0, 0), BuildingBlock: AJUNOK_clean_linker_0, # of connection points: 2
#     Edge 58, Type (0, 0), BuildingBlock: AJUNOK_clean_linker_0, # of connection points: 2
#     Edge 59, Type (0, 0), BuildingBlock: AJUNOK_clean_linker_0, # of connection points: 2
#     Edge 60, Type (0, 0), BuildingBlock: AJUNOK_clean_linker_0, # of connection points: 2
#     Edge 61, Type (0, 0), BuildingBlock: AJUNOK_clean_linker_0, # of connection points: 2
#     Edge 62, Type (0, 0), BuildingBlock: AJUNOK_clean_linker_0, # of connection points: 2
#     Edge 63, Type (0, 0), BuildingBlock: AJUNOK_clean_linker_0, # of connection points: 2
#     Edge 64, Type (0, 0), BuildingBlock: AJUNOK_clean_linker_0, # of connection points: 2
#     Edge 65, Type (0, 0), BuildingBlock: AJUNOK_clean_linker_0, # of connection points: 2
#     Edge 66, Type (0, 0), BuildingBlock: AJUNOK_clean_linker_0, # of connection points: 2
#     Edge 67, Type (0, 0), BuildingBlock: AJUNOK_clean_linker_0, # of connection points: 2
#     Edge 68, Type (0, 0), BuildingBlock: AJUNOK_clean_linker_0, # of connection points: 2
#     Edge 69, Type (0, 0), BuildingBlock: AJUNOK_clean_linker_0, # of connection points: 2
#     Edge 70, Type (0, 0), BuildingBlock: AJUNOK_clean_linker_0, # of connection points: 2
#     Edge 71, Type (0, 0), BuildingBlock: AJUNOK_clean_linker_0, # of connection points: 2
# Relax obj value: 0.012
# Max RMSD: 0.065
# Mean RMSD: 0.054
data_MOF--net-lcs--node1-KUFVIS_clean_sbu_0--edge1-AJUNOK_clean_linker_0
_symmetry_space_group_name_H-M    P1
_symmetry_Int_Tables_number       1
_symmetry_cell_setting            triclinic
loop_
_symmetry_equiv_pos_as_xyz
'x, y, z'
_cell_length_a     35.497399
_cell_length_b     36.227324
_cell_length_c     36.236136
_cell_angle_alpha  90.016984
_cell_angle_beta   91.380411
_cell_angle_gamma 91.32043
loop_
_atom_site_label
_atom_site_type_symbol
_atom_site_fract_x
_atom_site_fract_y
_atom_site_fract_z
_atom_type_partial_charge
Mn0 Mn 0.01536 0.25929 0.3805 0.0
Mn1 Mn 0.04991 0.30402 0.45595 0.0
C2 C 0.07258 0.24091 0.40676 0.0
C3 C 0.97763 0.21182 0.35408 0.0
C4 C 0.05462 0.33639 0.37838 0.0
O5 O 0.9697 0.28654 0.39873 0.0
O6 O 0.9943 0.31261 0.4504 0.0
C7 C 0.01009 0.26068 0.51298 0.0
N8 N 0.04287 0.27372 0.49855 0.0
C9 C 0.0796 0.24491 0.54675 0.0
C10 C 0.04622 0.2314 0.56228 0.0
C11 C 0.01132 0.23927 0.54528 0.0
C12 C 0.07658 0.26632 0.5147 0.0
H13 H 0.98322 0.26653 0.49993 0.0
C14 C 0.9664 0.3057 0.428 0.0
O15 O 0.98699 0.24106 0.33538 0.0
O16 O 0.98897 0.21073 0.3883 0.0
N17 N 0.10257 0.29797 0.46529 0.0
C18 C 0.13204 0.31033 0.44502 0.0
C19 C 0.16891 0.30345 0.45729 0.0
C20 C 0.17528 0.28426 0.49046 0.0
C21 C 0.14445 0.27176 0.51088 0.0
C22 C 0.10822 0.27945 0.49723 0.0
H23 H 0.12746 0.32445 0.41919 0.0
O24 O 0.06325 0.2331 0.37282 0.0
O25 O 0.04764 0.25937 0.42484 0.0
O26 O 0.03892 0.30871 0.36159 0.0
O27 O 0.05957 0.33738 0.41347 0.0
C28 C 0.14818 0.25084 0.54348 0.0
C29 C 0.11577 0.23742 0.56141 0.0
H30 H 0.04705 0.21469 0.58706 0.0
H31 H 0.98545 0.22878 0.557 0.0
H32 H 0.19213 0.31249 0.44072 0.0
H33 H 0.20386 0.27867 0.49959 0.0
H34 H 0.17583 0.24433 0.55463 0.0
H35 H 0.119 0.22091 0.58616 0.0
Mn36 Mn 0.02736 0.77296 0.63747 0.0
Mn37 Mn 0.9815 0.80746 0.70977 0.0
C38 C 0.04511 0.83052 0.66213 0.0
C39 C 0.07604 0.73858 0.61221 0.0
C40 C 0.94977 0.81122 0.63132 0.0
O41 O 1.00141 0.72663 0.65839 0.0
O42 O 0.96779 0.75374 0.70239 0.0
C43 C 0.02102 0.76319 0.76699 0.0
N44 N 0.01134 0.79672 0.7531 0.0
C45 C 0.04642 0.82831 0.80182 0.0
C46 C 0.05652 0.79412 0.81666 0.0
C47 C 0.04377 0.76143 0.79915 0.0
C48 C 0.02349 0.82835 0.76979 0.0
H49 H 0.0116 0.73789 0.75365 0.0
C50 C 0.97746 0.72518 0.68417 0.0
O51 O 0.0454 0.74539 0.59342 0.0
O52 O 0.07819 0.75086 0.64579 0.0
N53 N 0.99244 0.85831 0.72157 0.0
C54 C 0.98048 0.88915 0.70385 0.0
C55 C 0.99075 0.92418 0.71787 0.0
C56 C 0.01321 0.9272 0.75018 0.0
C57 C 0.02474 0.89512 0.7684 0.0
C58 C 0.01315 0.86095 0.75332 0.0
H59 H 0.96384 0.88696 0.67894 0.0
O60 O 0.05246 0.82225 0.62828 0.0
O61 O 0.02725 0.80492 0.68051 0.0
O62 O 0.97586 0.79201 0.6175 0.0
O63 O 0.94967 0.82046 0.66552 0.0
C64 C 0.04767 0.89573 0.80068 0.0
C65 C 0.05856 0.86234 0.81734 0.0
H66 H 0.07421 0.79263 0.84138 0.0
H67 H 0.05156 0.73491 0.81036 0.0
H68 H 0.98171 0.94878 0.70357 0.0
H69 H 0.02154 0.95426 0.76065 0.0
H70 H 0.05732 0.92173 0.81276 0.0
H71 H 0.07643 0.86316 0.84201 0.0
Mn72 Mn 0.5159 0.76066 0.88197 0.0
Mn73 Mn 0.5492 0.80735 0.95676 0.0
C74 C 0.57315 0.74373 0.90905 0.0
C75 C 0.47882 0.71218 0.85665 0.0
C76 C 0.55447 0.83813 0.87859 0.0
O77 O 0.46962 0.78755 0.89926 0.0
O78 O 0.49365 0.81531 0.95028 0.0
C79 C 0.50878 0.76454 0.01378 0.0
N80 N 0.5417 0.77771 0.99973 0.0
C81 C 0.57787 0.75007 0.04903 0.0
C82 C 0.54434 0.73645 0.06418 0.0
C83 C 0.50966 0.74365 0.04643 0.0
C84 C 0.57521 0.77085 0.01653 0.0
H85 H 0.48207 0.76988 1.00018 0.0
C86 C 0.46594 0.80733 0.92803 0.0
O87 O 0.48805 0.74092 0.83714 0.0
O88 O 0.49019 0.712 0.89087 0.0
N89 N 0.60178 0.80203 0.96711 0.0
C90 C 0.63153 0.81479 0.94745 0.0
C91 C 0.66827 0.80895 0.96076 0.0
C92 C 0.67414 0.79043 0.99442 0.0
C93 C 0.64307 0.77739 0.01412 0.0
C94 C 0.60702 0.78408 0.99945 0.0
H95 H 0.62729 0.82845 0.92132 0.0
O96 O 0.56424 0.73499 0.87523 0.0
O97 O 0.54779 0.7622 0.9265 0.0
O98 O 0.53895 0.81005 0.86225 0.0
O99 O 0.5592 0.83985 0.9137 0.0
C100 C 0.64644 0.7571 0.04716 0.0
C101 C 0.61385 0.7434 0.06457 0.0
H102 H 0.5449 0.7202 0.08927 0.0
H103 H 0.48367 0.73307 0.05785 0.0
H104 H 0.69179 0.81831 0.94465 0.0
H105 H 0.70255 0.78584 1.00464 0.0
H106 H 0.67396 0.75136 0.05908 0.0
H107 H 0.6168 0.72742 0.0897 0.0
Mn108 Mn 0.5282 0.27228 0.1395 0.0
Mn109 Mn 0.47921 0.30949 0.2085 0.0
C110 C 0.54533 0.33069 0.16276 0.0
C111 C 0.57712 0.23629 0.11665 0.0
C112 C 0.44967 0.30703 0.1291 0.0
O113 O 0.50105 0.22707 0.16179 0.0
O114 O 0.4696 0.25462 0.20726 0.0
C115 C 0.51891 0.27599 0.27261 0.0
N116 N 0.50792 0.30656 0.2537 0.0
C117 C 0.53539 0.34673 0.30048 0.0
C118 C 0.54674 0.31567 0.32059 0.0
C119 C 0.53861 0.28016 0.3065 0.0
C120 C 0.51583 0.34086 0.2669 0.0
H121 H 0.51259 0.24864 0.26199 0.0
C122 C 0.47901 0.2258 0.18929 0.0
O123 O 0.54661 0.24234 0.09742 0.0
O124 O 0.57898 0.25035 0.14962 0.0
N125 N 0.48629 0.36186 0.21314 0.0
C126 C 0.47426 0.38898 0.18992 0.0
C127 C 0.48139 0.42613 0.19936 0.0
C128 C 0.50054 0.43503 0.23265 0.0
C129 C 0.51226 0.40667 0.25629 0.0
C130 C 0.50437 0.37014 0.24543 0.0
H131 H 0.45967 0.38235 0.16421 0.0
O132 O 0.55405 0.32114 0.12955 0.0
O133 O 0.5263 0.30593 0.18112 0.0
O134 O 0.47815 0.29074 0.11633 0.0
O135 O 0.44724 0.31509 0.16326 0.0
C136 C 0.53158 0.41321 0.29015 0.0
C137 C 0.54284 0.38328 0.31235 0.0
H138 H 0.56185 0.31875 0.34678 0.0
H139 H 0.54739 0.25606 0.32179 0.0
H140 H 0.47229 0.44785 0.18093 0.0
H141 H 0.50616 0.46371 0.23975 0.0
H142 H 0.53793 0.44116 0.29937 0.0
H143 H 0.55722 0.38873 0.33851 0.0
Mn144 Mn 0.01628 0.76498 0.14282 0.0
Mn145 Mn 0.98513 0.83534 0.08884 0.0
C146 C 0.95557 0.75502 0.11464 0.0
C147 C 0.04856 0.71096 0.16339 0.0
C148 C 0.99111 0.83923 0.17181 0.0
O149 O 0.0654 0.79352 0.12708 0.0
O150 O 0.04064 0.83535 0.08791 0.0
C151 C 0.01134 0.83801 0.01108 0.0
N152 N 0.98228 0.8337 0.0349 0.0
C153 C 0.93983 0.82263 0.9768 0.0
C154 C 0.97086 0.82839 0.95519 0.0
C155 C 1.0057 0.83716 0.97226 0.0
C156 C 0.94645 0.83328 0.02217 0.0
H157 H 0.03974 0.84232 0.02161 0.0
C158 C 0.06895 0.81961 0.10311 0.0
O159 O 0.04304 0.73915 0.18388 0.0
O160 O 0.03757 0.71447 0.12901 0.0
N161 N 0.93197 0.83523 0.08984 0.0
C162 C 0.90944 0.83759 0.11969 0.0
C163 C 0.87187 0.82449 0.11835 0.0
C164 C 0.85752 0.8037 0.08842 0.0
C165 C 0.88016 0.79717 0.05851 0.0
C166 C 0.91877 0.82316 0.05745 0.0
H167 H 0.91985 0.85019 0.14483 0.0
O168 O 0.96569 0.74113 0.14623 0.0
O169 O 0.98147 0.77788 0.09941 0.0
O170 O 0.99935 0.80607 0.17793 0.0
O171 O 0.98751 0.85166 0.13972 0.0
C172 C 0.86335 0.77531 0.02097 0.0
C173 C 0.90272 0.79438 0.96233 0.0
H174 H 0.96906 0.82308 0.9258 0.0
H175 H 0.02955 0.84126 0.95471 0.0
H176 H 0.85432 0.82862 0.14196 0.0
H177 H 0.82878 0.79313 0.0884 0.0
H178 H 0.83753 0.75875 0.02448 0.0
H179 H 0.89976 0.78678 0.93316 0.0
Mn180 Mn 0.52817 0.7659 0.38222 0.0
Mn181 Mn 0.5085 0.81918 0.45554 0.0
C182 C 0.57466 0.80529 0.40766 0.0
C183 C 0.54897 0.71017 0.35707 0.0
C184 C 0.48227 0.83691 0.3773 0.0
O185 O 0.47968 0.74149 0.40199 0.0
O186 O 0.47133 0.77685 0.45213 0.0
C187 C 0.5269 0.76596 0.5149 0.0
N188 N 0.53245 0.79957 0.49884 0.0
C189 C 0.57941 0.81705 0.54502 0.0
C190 C 0.57399 0.78272 0.56219 0.0
C191 C 0.54766 0.75706 0.54703 0.0
C192 C 0.55776 0.82445 0.51317 0.0
H193 H 0.50686 0.74608 0.5032 0.0
C194 C 0.46161 0.74963 0.43099 0.0
O195 O 0.52756 0.73227 0.33828 0.0
O196 O 0.55716 0.7198 0.39085 0.0
N197 N 0.54215 0.86084 0.46242 0.0
C198 C 0.5453 0.89198 0.44152 0.0
C199 C 0.5711 0.92011 0.45242 0.0
C200 C 0.59321 0.91605 0.48477 0.0
C201 C 0.58911 0.88398 0.50609 0.0
C202 C 0.56268 0.85703 0.49404 0.0
H203 H 0.5285 0.89524 0.41655 0.0
O204 O 0.57693 0.79345 0.37402 0.0
O205 O 0.54523 0.79361 0.42545 0.0
O206 O 0.49811 0.80991 0.36166 0.0
O207 O 0.48341 0.84229 0.41215 0.0
C208 C 0.61077 0.87738 0.53841 0.0
C209 C 0.60597 0.84392 0.55783 0.0
H210 H 0.59011 0.77565 0.58684 0.0
H211 H 0.54348 0.73043 0.56001 0.0
H212 H 0.57413 0.94476 0.43579 0.0
H213 H 0.61342 0.93759 0.49283 0.0
H214 H 0.63158 0.89763 0.54826 0.0
H215 H 0.62316 0.83895 0.58236 0.0
Mn216 Mn 0.51242 0.26608 0.63935 0.0
Mn217 Mn 0.48272 0.33089 0.57811 0.0
C218 C 0.45278 0.25322 0.60942 0.0
C219 C 0.5441 0.21335 0.66425 0.0
C220 C 0.48607 0.34297 0.66059 0.0
O221 O 0.56195 0.29353 0.62315 0.0
O222 O 0.53827 0.33098 0.57904 0.0
C223 C 0.51166 0.32429 0.50201 0.0
N224 N 0.48146 0.32404 0.52473 0.0
C225 C 0.44102 0.30847 0.46644 0.0
C226 C 0.47315 0.31034 0.44583 0.0
C227 C 0.50768 0.31908 0.46342 0.0
C228 C 0.44608 0.32367 0.51065 0.0
H229 H 0.53975 0.3285 0.51336 0.0
C230 C 0.56613 0.31723 0.59692 0.0
O231 O 0.53803 0.24282 0.68277 0.0
O232 O 0.5342 0.21489 0.62944 0.0
N233 N 0.42933 0.33124 0.5777 0.0
C234 C 0.4062 0.3353 0.60705 0.0
C235 C 0.36797 0.32442 0.60522 0.0
C236 C 0.35318 0.30334 0.57581 0.0
C237 C 0.37645 0.29419 0.54708 0.0
C238 C 0.41633 0.31832 0.54547 0.0
H239 H 0.41658 0.34677 0.6327 0.0
O240 O 0.46161 0.24205 0.64244 0.0
O241 O 0.47914 0.27501 0.59373 0.0
O242 O 0.49441 0.31059 0.67053 0.0
O243 O 0.48374 0.35125 0.6271 0.0
C244 C 0.36055 0.26909 0.51124 0.0
C245 C 0.40354 0.28031 0.45322 0.0
H246 H 0.4723 0.30174 0.41721 0.0
H247 H 0.5325 0.3194 0.44678 0.0
H248 H 0.35034 0.32984 0.62848 0.0
H249 H 0.32429 0.29314 0.57617 0.0
H250 H 0.33401 0.25381 0.51507 0.0
H251 H 0.40171 0.26978 0.42492 0.0
Mn252 Mn 0.02646 0.26476 0.88496 0.0
Mn253 Mn 1.00342 0.31822 0.95699 0.0
C254 C 0.07215 0.30367 0.9122 0.0
C255 C 0.04759 0.20835 0.86147 0.0
C256 C 0.98101 0.33563 0.87745 0.0
O257 O 0.97705 0.24095 0.90281 0.0
O258 O 0.96667 0.27531 0.95325 0.0
C259 C 0.0179 0.26759 0.01959 0.0
N260 N 0.02521 0.3001 1.00201 0.0
C261 C 0.06795 0.32026 0.05093 0.0
C262 C 0.06064 0.2871 0.06969 0.0
C263 C 0.03563 0.2606 0.05387 0.0
C264 C 0.0493 0.32576 0.01695 0.0
H265 H 0.99859 0.2472 1.00762 0.0
C266 C 0.95832 0.248 0.93167 0.0
O267 O 0.02762 0.23064 0.84137 0.0
O268 O 0.05413 0.21834 0.89544 0.0
N269 N 0.03682 0.36006 0.96396 0.0
C270 C 0.04156 0.39019 0.94188 0.0
C271 C 0.06704 0.41854 0.95292 0.0
C272 C 0.08715 0.41578 0.98663 0.0
C273 C 0.08146 0.38475 1.0091 0.0
C274 C 0.05567 0.35738 0.99668 0.0
H275 H 0.02629 0.39245 0.91589 0.0
O276 O 0.07577 0.2916 0.8788 0.0
O277 O 0.04178 0.29238 0.92888 0.0
O278 O 0.99813 0.30905 0.8625 0.0
O279 O 0.97987 0.34032 0.91231 0.0
C280 C 0.10062 0.37976 0.04318 0.0
C281 C 0.09373 0.34762 0.06417 0.0
H282 H 0.07444 0.2815 0.09602 0.0
H283 H 0.03003 0.23486 0.06808 0.0
H284 H 0.07127 0.4424 0.93542 0.0
H285 H 0.10695 0.4376 0.99494 0.0
H286 H 0.12083 0.4004 0.05342 0.0
H287 H 0.1088 0.344 0.09022 0.0
Mn288 Mn 0.39453 0.02323 0.25484 0.0
Mn289 Mn 0.31991 0.96418 0.26228 0.0
C290 C 0.37279 0.98918 0.20363 0.0
C291 C 0.41863 0.08342 0.24207 0.0
C292 C 0.39867 0.94754 0.2929 0.0
O293 O 0.37079 0.03812 0.30398 0.0
O294 O 0.31768 1.00247 0.30172 0.0
C295 C 0.2601 0.01619 0.24083 0.0
N296 N 0.27741 0.98348 0.23592 0.0
C297 C 0.23442 0.96681 0.18594 0.0
C298 C 0.21529 0.99973 0.19142 0.0
C299 C 0.22843 0.0247 0.21875 0.0
C300 C 0.26577 0.95984 0.20889 0.0
H301 H 0.27079 0.03582 0.26106 0.0
C302 C 0.33897 0.02748 0.31696 0.0
O303 O 0.43808 0.05966 0.26089 0.0
O304 O 0.38466 0.07298 0.23236 0.0
N305 N 0.31787 0.92548 0.22617 0.0
C306 C 0.33983 0.89521 0.22406 0.0
C307 C 0.33115 0.86795 0.19741 0.0
C308 C 0.29974 0.87183 0.17351 0.0
C309 C 0.27715 0.90285 0.17663 0.0
C310 C 0.287 0.92895 0.20394 0.0
H311 H 0.36379 0.89184 0.24256 0.0
O312 O 0.40651 1.00369 0.20453 0.0
O313 O 0.35277 0.99555 0.23238 0.0
O314 O 0.41529 0.97633 0.27993 0.0
O315 O 0.36306 0.94156 0.28919 0.0
C316 C 0.24532 0.90896 0.15363 0.0
C317 C 0.22409 0.94102 0.15816 0.0
H318 H 0.19098 1.00647 0.17429 0.0
H319 H 0.21435 0.05055 0.22259 0.0
H320 H 0.34862 0.84399 0.1953 0.0
H321 H 0.29328 0.85087 0.15283 0.0
H322 H 0.23711 0.88934 0.13216 0.0
H323 H 0.2 0.94568 0.13997 0.0
Mn324 Mn 0.26647 0.1396 0.51747 0.0
Mn325 Mn 0.29995 0.1929 0.44755 0.0
C326 C 0.32752 0.16742 0.52798 0.0
C327 C 0.23377 0.1193 0.57141 0.0
C328 C 0.29382 0.10989 0.44394 0.0
O329 O 0.2178 0.15591 0.48846 0.0
O330 O 0.24434 0.19293 0.44588 0.0
C331 C 0.2723 0.2703 0.44493 0.0
N332 N 0.30173 0.24689 0.44941 0.0
C333 C 0.3433 0.30577 0.4605 0.0
C334 C 0.31189 0.32684 0.45451 0.0
C335 C 0.27731 0.30919 0.44582 0.0
C336 C 0.33735 0.26015 0.45046 0.0
H337 H 0.24407 0.25937 0.44051 0.0
C338 C 0.21533 0.17873 0.46123 0.0
O339 O 0.23909 0.09885 0.54316 0.0
O340 O 0.24517 0.15357 0.56798 0.0
N341 N 0.35313 0.19275 0.44919 0.0
C342 C 0.37632 0.16334 0.44712 0.0
C343 C 0.41384 0.16543 0.46028 0.0
C344 C 0.42751 0.19569 0.48094 0.0
C345 C 0.40425 0.22521 0.48713 0.0
C346 C 0.36557 0.22539 0.46118 0.0
H347 H 0.36648 0.13794 0.43476 0.0
O348 O 0.31712 0.13585 0.54173 0.0
O349 O 0.30196 0.18258 0.50482 0.0
O350 O 0.2826 0.10411 0.47626 0.0
O351 O 0.29935 0.14185 0.43177 0.0
C352 C 0.42054 0.2632 0.50835 0.0
C353 C 0.38036 0.32112 0.4885 0.0
H354 H 0.31318 0.35628 0.45961 0.0
H355 H 0.25315 0.32636 0.44179 0.0
H356 H 0.43188 0.14214 0.45636 0.0
H357 H 0.45624 0.19627 0.49162 0.0
H358 H 0.44637 0.26014 0.52498 0.0
H359 H 0.38294 0.35041 0.49571 0.0
Mn360 Mn 0.14133 0.02433 0.7732 0.0
Mn361 Mn 0.21575 0.97276 0.75193 0.0
C362 C 0.16745 0.98452 0.8174 0.0
C363 C 0.11495 0.0785 0.79594 0.0
C364 C 0.13552 0.95053 0.72988 0.0
O365 O 0.16088 0.05097 0.72704 0.0
O366 O 0.20667 0.01184 0.71339 0.0
C367 C 0.27368 0.03254 0.76138 0.0
N368 N 0.26013 0.99831 0.77044 0.0
C369 C 0.31251 0.98891 0.8126 0.0
C370 C 0.32708 0.02394 0.80353 0.0
C371 C 0.3075 0.04589 0.7779 0.0
C372 C 0.27855 0.97715 0.7954 0.0
H373 H 0.25887 0.04958 0.74169 0.0
C374 C 0.18725 0.04063 0.70629 0.0
O375 O 0.096 0.05644 0.77378 0.0
O376 O 0.14946 0.06981 0.80378 0.0
N377 N 0.22925 0.93449 0.78599 0.0
C378 C 0.21249 0.90065 0.79058 0.0
C379 C 0.22848 0.8754 0.81547 0.0
C380 C 0.26205 0.88486 0.83484 0.0
C381 C 0.27964 0.91926 0.82863 0.0
C382 C 0.26233 0.94329 0.80347 0.0
H383 H 0.18698 0.89309 0.77558 0.0
O384 O 0.13298 0.99523 0.81954 0.0
O385 O 0.18604 0.99757 0.78941 0.0
O386 O 0.12076 0.98024 0.74135 0.0
O387 O 0.17074 0.94411 0.73337 0.0
C388 C 0.31382 0.9305 0.84623 0.0
C389 C 0.33026 0.9653 0.83821 0.0
H390 H 0.35321 0.03431 0.81615 0.0
H391 H 0.3185 0.07302 0.77083 0.0
H392 H 0.21494 0.84873 0.81974 0.0
H393 H 0.27425 0.86538 0.85413 0.0
H394 H 0.32775 0.91256 0.86591 0.0
H395 H 0.35654 0.97366 0.85192 0.0
Mn396 Mn 0.26797 0.90016 0.02164 0.0
Mn397 Mn 0.23284 0.82471 0.97713 0.0
C398 C 0.21104 0.87362 0.04035 0.0
C399 C 0.30547 0.92707 0.06904 0.0
C400 C 0.2277 0.90222 0.94483 0.0
O401 O 0.3138 0.88167 0.99455 0.0
O402 O 0.28799 0.83095 0.96751 0.0
C403 C 0.27436 0.76769 0.01903 0.0
N404 N 0.24111 0.78207 1.00711 0.0
C405 C 0.20568 0.73304 0.03601 0.0
C406 C 0.23955 0.71761 0.04843 0.0
C407 C 0.27403 0.73508 0.03999 0.0
C408 C 0.20779 0.76558 0.01525 0.0
H409 H 0.30094 0.78098 0.01258 0.0
C410 C 0.31623 0.85283 0.97452 0.0
O411 O 0.29608 0.9455 0.03963 0.0
O412 O 0.29435 0.8928 0.07033 0.0
N413 N 0.18046 0.81472 0.98419 0.0
C414 C 0.15042 0.8339 0.97128 0.0
C415 C 0.11387 0.82085 0.97838 0.0
C416 C 0.10841 0.78802 0.99836 0.0
C417 C 0.1398 0.76847 0.01101 0.0
C418 C 0.17566 0.78284 1.00305 0.0
H419 H 0.15429 0.85938 0.95634 0.0
O420 O 0.21984 0.90778 0.04774 0.0
O421 O 0.23596 0.8557 0.02181 0.0
O422 O 0.24437 0.91883 0.97211 0.0
O423 O 0.22203 0.86722 0.94413 0.0
C424 C 0.13697 0.73558 0.03161 0.0
C425 C 0.16989 0.71782 0.04402 0.0
H426 H 0.23942 0.69253 0.06471 0.0
H427 H 0.30029 0.72342 0.04961 0.0
H428 H 0.09017 0.83644 0.96873 0.0
H429 H 0.08006 0.77825 1.00402 0.0
H430 H 0.10962 0.72389 0.03832 0.0
H431 H 0.16736 0.69274 0.06014 0.0
Mn432 Mn 0.25472 0.39822 0.0173 0.0
Mn433 Mn 0.27383 0.32522 0.9636 0.0
C434 C 0.20737 0.3722 0.97934 0.0
C435 C 0.23494 0.42347 0.07313 0.0
C436 C 0.29792 0.40392 0.94456 0.0
O437 O 0.30358 0.37888 0.04102 0.0
O438 O 0.31284 0.32993 1.00437 0.0
C439 C 0.26166 0.26477 0.01725 0.0
N440 N 0.25287 0.2811 0.9844 0.0
C441 C 0.20851 0.23216 0.96841 0.0
C442 C 0.21726 0.21468 1.00196 0.0
C443 C 0.24386 0.23114 0.02653 0.0
C444 C 0.22726 0.26555 0.96058 0.0
H445 H 0.28214 0.27725 0.0362 0.0
C446 C 0.32231 0.35058 0.03204 0.0
O447 O 0.25575 0.44234 0.0506 0.0
O448 O 0.22679 0.38959 0.06383 0.0
N449 N 0.23834 0.317 0.92365 0.0
C450 C 0.23261 0.33767 0.89268 0.0
C451 C 0.20582 0.32568 0.86588 0.0
C452 C 0.18545 0.29245 0.87102 0.0
C453 C 0.19228 0.27135 0.9028 0.0
C454 C 0.21942 0.28462 0.9285 0.0
H455 H 0.24812 0.36328 0.88861 0.0
O456 O 0.20546 0.40605 0.99067 0.0
O457 O 0.23721 0.3545 0.9904 0.0
O458 O 0.28387 0.41903 0.97282 0.0
O459 O 0.29601 0.36909 0.93903 0.0
C460 C 0.17297 0.23785 0.91017 0.0
C461 C 0.18114 0.21828 0.94294 0.0
H462 H 0.20339 0.18887 0.00933 0.0
H463 H 0.25061 0.21793 0.05257 0.0
H464 H 0.20076 0.3421 0.84139 0.0
H465 H 0.16459 0.28344 0.85043 0.0
H466 H 0.15162 0.22706 0.89095 0.0
H467 H 0.16581 0.19287 0.94868 0.0
Mn468 Mn 0.75316 0.1428 0.01113 0.0
Mn469 Mn 0.79896 0.07143 0.97443 0.0
C470 C 0.7351 0.11997 0.95281 0.0
C471 C 0.70417 0.1662 0.04678 0.0
C472 C 0.83161 0.14993 0.97539 0.0
O473 O 0.77967 0.12008 0.05645 0.0
O474 O 0.80954 0.07349 0.02908 0.0
C475 C 0.75592 0.01079 0.01014 0.0
N476 N 0.76802 0.02779 0.97891 0.0
C477 C 0.73512 0.98279 0.94044 0.0
C478 C 0.72258 0.96465 0.9722 0.0
C479 C 0.73301 0.97875 1.00719 0.0
C480 C 0.75815 0.01445 0.9451 0.0
H481 H 0.76358 0.02164 0.03711 0.0
C482 C 0.80097 0.09204 0.05778 0.0
O483 O 0.73492 0.18529 0.04116 0.0
O484 O 0.70249 0.13324 0.03284 0.0
N485 N 0.79097 0.06554 0.92225 0.0
C486 C 0.80417 0.08706 0.89433 0.0
C487 C 0.79583 0.07701 0.85755 0.0
C488 C 0.77392 0.04503 0.84984 0.0
C489 C 0.76085 0.02319 0.879 0.0
C490 C 0.77055 0.03428 0.9151 0.0
H491 H 0.82047 0.11199 0.90005 0.0
O492 O 0.72744 0.15346 0.9623 0.0
O493 O 0.7535 0.10109 0.97765 0.0
O494 O 0.8041 0.16413 0.99227 0.0
O495 O 0.83237 0.11551 0.96758 0.0
C496 C 0.73801 0.9912 0.87366 0.0
C497 C 0.72512 0.97104 0.90437 0.0
H498 H 0.7047 0.94007 0.97005 0.0
H499 H 0.72327 0.96502 0.03183 0.0
H500 H 0.80587 0.09411 0.8352 0.0
H501 H 0.76706 0.03769 0.82144 0.0
H502 H 0.72983 0.98211 0.84608 0.0
H503 H 0.70724 0.94673 0.89992 0.0
Mn504 Mn 0.14098 0.50903 0.25792 0.0
Mn505 Mn 0.06631 0.52968 0.30936 0.0
C506 C 0.11477 0.46429 0.29697 0.0
C507 C 0.16783 0.48784 0.20339 0.0
C508 C 0.14644 0.55194 0.33188 0.0
O509 O 0.12152 0.55555 0.23188 0.0
O510 O 0.07496 0.56837 0.27039 0.0
C511 C 1.00834 0.51989 0.24965 0.0
N512 N 0.02205 0.51087 0.28384 0.0
C513 C 0.9702 0.46812 0.29314 0.0
C514 C 0.95546 0.47715 0.25815 0.0
C515 C 0.97469 0.50306 0.23628 0.0
C516 C 1.00397 0.48566 0.30493 0.0
H517 H 0.02292 0.53978 0.23266 0.0
C518 C 0.09471 0.57589 0.24196 0.0
O519 O 0.18645 0.50926 0.22639 0.0
O520 O 0.13335 0.47931 0.21169 0.0
N521 N 0.05328 0.49541 0.34755 0.0
C522 C 0.07021 0.49089 0.38134 0.0
C523 C 0.05454 0.46576 0.40653 0.0
C524 C 0.02118 0.44608 0.39705 0.0
C525 C 1.00343 0.4522 0.3627 0.0
C526 C 0.02037 0.47764 0.33874 0.0
H527 H 0.0956 0.50611 0.3889 0.0
O528 O 0.14927 0.46224 0.28633 0.0
O529 O 0.09621 0.49249 0.28425 0.0
O530 O 0.16134 0.54025 0.3024 0.0
O531 O 0.11117 0.54862 0.33807 0.0
C532 C 0.96945 0.43426 0.35142 0.0
C533 C 0.95284 0.44221 0.31666 0.0
H534 H 0.92948 0.46427 0.24775 0.0
H535 H 0.96356 0.51008 0.20918 0.0
H536 H 0.06821 0.46154 0.43317 0.0
H537 H 0.00927 0.42658 0.41647 0.0
H538 H 0.95582 0.41433 0.36929 0.0
H539 H 0.92672 0.42822 0.30827 0.0
Mn540 Mn 0.75395 0.90057 0.51715 0.0
Mn541 Mn 0.77427 0.82593 0.46622 0.0
C542 C 0.7077 0.87439 0.47813 0.0
C543 C 0.73344 0.92647 0.5726 0.0
C544 C 0.80066 0.90398 0.44695 0.0
O545 O 0.80268 0.88155 0.54159 0.0
O546 O 0.81038 0.82905 0.50964 0.0
C547 C 0.75335 0.7674 0.51942 0.0
N548 N 0.7491 0.78316 0.4855 0.0
C549 C 0.70183 0.73762 0.46717 0.0
C550 C 0.70594 0.72073 0.5018 0.0
C551 C 0.73176 0.73573 0.52804 0.0
C552 C 0.72428 0.769 0.46006 0.0
H553 H 0.77295 0.77901 0.53976 0.0
C554 C 0.82018 0.85165 0.53567 0.0
O555 O 0.75452 0.94508 0.55009 0.0
O556 O 0.72537 0.89252 0.56348 0.0
N557 N 0.74168 0.81921 0.42372 0.0
C558 C 0.73958 0.83998 0.39241 0.0
C559 C 0.7143 0.8293 0.36375 0.0
C560 C 0.69159 0.79733 0.36747 0.0
C561 C 0.69456 0.77615 0.39974 0.0
C562 C 0.72055 0.78794 0.42723 0.0
H563 H 0.75681 0.86469 0.3894 0.0
O564 O 0.7051 0.90813 0.48961 0.0
O565 O 0.73716 0.85683 0.49031 0.0
O566 O 0.7835 0.92033 0.47266 0.0
O567 O 0.80066 0.86884 0.44337 0.0
C568 C 0.67217 0.74426 0.40603 0.0
C569 C 0.67575 0.72504 0.43975 0.0
H570 H 0.68915 0.69646 0.50867 0.0
H571 H 0.7349 0.72299 0.55492 0.0
H572 H 0.71212 0.84584 0.33896 0.0
H573 H 0.67176 0.78946 0.34551 0.0
H574 H 0.65168 0.73463 0.38537 0.0
H575 H 0.65797 0.70089 0.44448 0.0
Mn576 Mn 0.88596 0.02624 0.25997 0.0
Mn577 Mn 0.96138 0.01774 0.31794 0.0
C578 C 0.90889 0.07725 0.29352 0.0
C579 C 0.8614 0.03905 0.19997 0.0
C580 C 0.88266 0.98802 0.33532 0.0
O581 O 0.90872 0.97663 0.24497 0.0
O582 O 0.96282 0.97878 0.27927 0.0
C583 C 0.02219 0.03761 0.26654 0.0
N584 N 1.00405 0.04372 0.29858 0.0
C585 C 0.04723 0.09357 0.31503 0.0
C586 C 0.06671 0.08744 0.28247 0.0
C587 C 0.05399 0.05947 0.25802 0.0
C588 C 0.0157 0.07093 0.32201 0.0
H589 H 0.01235 0.01632 0.24761 0.0
C590 C 0.94073 0.9636 0.25492 0.0
O591 O 0.84192 0.02068 0.22402 0.0
O592 O 0.89559 0.04829 0.21007 0.0
N593 N 0.96387 0.05372 0.35673 0.0
C594 C 0.94199 0.05603 0.387 0.0
C595 C 0.95073 0.08286 0.41407 0.0
C596 C 0.98209 0.10675 0.40996 0.0
C597 C 1.00456 0.10346 0.37889 0.0
C598 C 0.99461 0.07603 0.35296 0.0
H599 H 0.91803 0.03758 0.3905 0.0
O600 O 0.87499 0.0768 0.2794 0.0
O601 O 0.92843 0.04815 0.28702 0.0
O602 O 0.86547 1.00184 0.30726 0.0
O603 O 0.9184 0.99079 0.34063 0.0
C604 C 0.03636 0.12639 0.37259 0.0
C605 C 0.0576 0.12154 0.34061 0.0
H606 H 0.0912 0.10429 0.27576 0.0
H607 H 0.06865 0.0548 0.23266 0.0
H608 H 0.93333 0.08513 0.43804 0.0
H609 H 0.9886 0.12755 0.43077 0.0
H610 H 0.04462 0.14798 0.39205 0.0
H611 H 0.0818 0.13955 0.33591 0.0
Mn612 Mn 0.25358 0.6469 0.50849 0.0
Mn613 Mn 0.30161 0.57568 0.47415 0.0
C614 C 0.2363 0.6218 0.45099 0.0
C615 C 0.20457 0.67103 0.54338 0.0
C616 C 0.33224 0.65478 0.47351 0.0
O617 O 0.28078 0.62641 0.55452 0.0
O618 O 0.31132 0.57923 0.52882 0.0
C619 C 0.25953 0.51488 0.51063 0.0
N620 N 0.27157 0.53152 0.4792 0.0
C621 C 0.2398 0.48531 0.44131 0.0
C622 C 0.22732 0.46755 0.47329 0.0
C623 C 0.23722 0.48242 0.5081 0.0
C624 C 0.26222 0.51743 0.44557 0.0
H625 H 0.26678 0.52634 0.53745 0.0
C626 C 0.30236 0.59861 0.55684 0.0
O627 O 0.23467 0.69041 0.53608 0.0
O628 O 0.20329 0.63728 0.53134 0.0
N629 N 0.2944 0.56859 0.42205 0.0
C630 C 0.30783 0.58961 0.39387 0.0
C631 C 0.3 0.57876 0.35722 0.0
C632 C 0.27852 0.54643 0.34991 0.0
C633 C 0.26541 0.52499 0.37935 0.0
C634 C 0.27454 0.53691 0.41531 0.0
H635 H 0.32408 0.61466 0.39928 0.0
O636 O 0.2276 0.65529 0.45943 0.0
O637 O 0.25515 0.60412 0.47644 0.0
O638 O 0.30376 0.6686 0.48898 0.0
O639 O 0.33436 0.62024 0.46672 0.0
C640 C 0.24316 0.49256 0.37442 0.0
C641 C 0.23032 0.47277 0.40538 0.0
H642 H 0.20989 0.44264 0.47145 0.0
H643 H 0.22752 0.46897 0.5329 0.0
H644 H 0.3102 0.59547 0.33464 0.0
H645 H 0.2721 0.53843 0.3216 0.0
H646 H 0.23542 0.48282 0.34694 0.0
H647 H 0.2129 0.4481 0.40123 0.0
Mn648 Mn 0.38475 0.53026 0.75926 0.0
Mn649 Mn 0.45878 0.51626 0.81806 0.0
C650 C 0.40861 0.5785 0.79565 0.0
C651 C 0.36076 0.54648 0.69997 0.0
C652 C 0.37897 0.4902 0.83404 0.0
O653 O 0.40668 0.48193 0.74101 0.0
O654 O 0.45703 0.47647 0.77973 0.0
C655 C 0.5201 0.53109 0.76576 0.0
N656 N 0.50282 0.53903 0.79786 0.0
C657 C 0.54845 0.58742 0.81221 0.0
C658 C 0.56688 0.57959 0.77941 0.0
C659 C 0.55259 0.55134 0.75607 0.0
C660 C 0.51621 0.56628 0.82042 0.0
H661 H 0.50912 0.50951 0.74766 0.0
C662 C 0.43608 0.46509 0.75254 0.0
O663 O 0.34084 0.52728 0.72301 0.0
O664 O 0.39494 0.55505 0.71076 0.0
N665 N 0.46446 0.55237 0.85653 0.0
C666 C 0.44348 0.55633 0.88723 0.0
C667 C 0.45403 0.5834 0.91349 0.0
C668 C 0.48618 0.60591 0.90809 0.0
C669 C 0.5078 0.60078 0.87671 0.0
C670 C 0.49613 0.57308 0.85169 0.0
H671 H 0.41881 0.53907 0.89159 0.0
O672 O 0.37466 0.57944 0.78168 0.0
O673 O 0.42773 0.54941 0.78764 0.0
O674 O 0.36328 0.50322 0.8048 0.0
O675 O 0.41433 0.49287 0.84132 0.0
C676 C 0.54034 0.62221 0.86916 0.0
C677 C 0.56058 0.6156 0.83687 0.0
H678 H 0.5919 0.59519 0.77179 0.0
H679 H 0.56658 0.54524 0.73064 0.0
H680 H 0.4373 0.58705 0.93774 0.0
H681 H 0.49398 0.62702 0.92821 0.0
H682 H 0.5499 0.644 0.88787 0.0
H683 H 0.58539 0.63245 0.83122 0.0
Mn684 Mn 0.6386 0.01182 0.75753 0.0
Mn685 Mn 0.56402 0.03032 0.8101 0.0
C686 C 0.61326 0.96595 0.79604 0.0
C687 C 0.66544 0.99153 0.70242 0.0
C688 C 0.64404 0.05321 0.83248 0.0
O689 O 0.61834 0.05878 0.73258 0.0
O690 O 0.57203 0.06981 0.77191 0.0
C691 C 0.5059 0.02099 0.75047 0.0
N692 N 0.51984 0.01151 0.78444 0.0
C693 C 0.46841 0.96814 0.79324 0.0
C694 C 0.45343 0.97763 0.75847 0.0
C695 C 0.47234 1.00407 0.73695 0.0
C696 C 0.50209 0.98575 0.80517 0.0
H697 H 0.52022 0.0413 0.73377 0.0
C698 C 0.5915 0.0786 0.74366 0.0
O699 O 0.68391 0.01295 0.72555 0.0
O700 O 0.63105 0.98274 0.7108 0.0
N701 N 0.55149 0.99523 0.84773 0.0
C702 C 0.56841 0.99053 0.88149 0.0
C703 C 0.55298 0.965 0.90642 0.0
C704 C 0.51979 0.94512 0.89673 0.0
C705 C 0.50197 0.95149 0.86246 0.0
C706 C 0.51869 0.97733 0.83877 0.0
H707 H 0.59361 1.00595 0.88925 0.0
O708 O 0.64767 0.96456 0.78502 0.0
O709 O 0.59424 0.99412 0.78401 0.0
O710 O 0.65887 0.04245 0.80258 0.0
O711 O 0.60887 0.04917 0.8389 0.0
C712 C 0.46809 0.93345 0.85104 0.0
C713 C 0.45131 0.94177 0.81645 0.0
H714 H 0.42751 0.96471 0.74798 0.0
H715 H 0.46103 0.01146 0.71002 0.0
H716 H 0.56666 0.96063 0.93302 0.0
H717 H 0.50805 0.92532 0.91594 0.0
H718 H 0.45464 0.91321 0.86869 0.0
H719 H 0.42526 0.92772 0.80796 0.0
Mn720 Mn 0.76956 0.64356 0.01706 0.0
Mn721 Mn 0.80094 0.7046 0.95279 0.0
C722 C 0.82946 0.67317 0.03048 0.0
C723 C 0.73698 0.61879 0.06948 0.0
C724 C 0.79708 0.62213 0.94054 0.0
O725 O 0.72041 0.66016 0.98887 0.0
O726 O 0.74553 0.70362 0.95171 0.0
C727 C 0.77166 0.78067 0.95884 0.0
N728 N 0.80186 0.75793 0.95987 0.0
C729 C 0.84214 0.81645 0.9753 0.0
C730 C 0.80991 0.83696 0.97314 0.0
C731 C 0.77549 0.81927 0.96411 0.0
C732 C 0.83717 0.77202 0.96072 0.0
H733 H 0.74367 0.76934 0.9539 0.0
C734 C 0.71714 0.68606 0.96464 0.0
O735 O 0.74333 0.6003 0.04007 0.0
O736 O 0.74732 0.65349 0.06809 0.0
N737 N 0.85432 0.70504 0.95345 0.0
C738 C 0.87761 0.67579 0.94947 0.0
C739 C 0.91591 0.67793 0.96006 0.0
C740 C 0.93064 0.70756 0.98087 0.0
C741 C 0.90722 0.7362 0.99005 0.0
C742 C 0.86708 0.73735 0.96634 0.0
H743 H 0.86731 0.64997 0.93827 0.0
O744 O 0.82027 0.64026 0.04172 0.0
O745 O 0.80338 0.68889 1.00846 0.0
O746 O 0.78757 0.6122 0.9726 0.0
O747 O 0.80045 0.65562 0.9325 0.0
C748 C 0.92322 0.7724 0.01446 0.0
C749 C 0.87994 0.8302 1.00289 0.0
H750 H 0.81063 0.86566 0.9815 0.0
H751 H 0.75058 0.83582 0.96344 0.0
H752 H 0.93369 0.65476 0.95465 0.0
H753 H 0.95965 0.7075 0.99076 0.0
H754 H 0.9499 0.76872 0.02961 0.0
H755 H 0.8818 0.85866 0.01302 0.0
Mn756 Mn 0.89496 0.52228 0.75214 0.0
Mn757 Mn 0.81992 0.46492 0.76558 0.0
C758 C 0.87099 0.48631 0.70365 0.0
C759 C 0.91826 0.58202 0.736 0.0
C760 C 0.89947 0.44726 0.79246 0.0
O761 O 0.87334 0.54059 0.80053 0.0
O762 O 0.82186 0.50337 0.80531 0.0
C763 C 0.75964 0.5182 0.74987 0.0
N764 N 0.77646 0.48575 0.74226 0.0
C765 C 0.73116 0.47199 0.69341 0.0
C766 C 0.7132 0.50515 0.70089 0.0
C767 C 0.72755 0.52837 0.72921 0.0
C768 C 0.76301 0.4633 0.71494 0.0
H769 H 0.7707 0.53621 0.77149 0.0
C770 C 0.84351 0.52989 0.81706 0.0
O771 O 0.93873 0.55906 0.75484 0.0
O772 O 0.88432 0.57067 0.7275 0.0
N773 N 0.81399 0.42635 0.72959 0.0
C774 C 0.83451 0.39528 0.72599 0.0
C775 C 0.8238 0.36906 0.69892 0.0
C776 C 0.792 0.3749 0.67604 0.0
C777 C 0.77086 0.4067 0.68078 0.0
C778 C 0.78264 0.43165 0.7085 0.0
H779 H 0.85895 0.39059 0.74353 0.0
O780 O 0.90502 0.50002 0.7029 0.0
O781 O 0.85184 0.49445 0.73266 0.0
O782 O 0.91597 0.47607 0.77917 0.0
O783 O 0.86386 0.44123 0.7894 0.0
C784 C 0.73869 0.41471 0.65895 0.0
C785 C 0.71892 0.4474 0.66519 0.0
H786 H 0.68848 0.51314 0.68497 0.0
H787 H 0.71393 0.55408 0.73504 0.0
H788 H 0.84016 0.34449 0.69557 0.0
H789 H 0.78407 0.35482 0.65493 0.0
H790 H 0.72905 0.39606 0.63715 0.0
H791 H 0.6944 0.4534 0.64805 0.0
Mn792 Mn 0.76698 0.39817 0.52047 0.0
Mn793 Mn 0.73387 0.32235 0.47549 0.0
C794 C 0.70985 0.37122 0.53788 0.0
C795 C 0.80312 0.42452 0.56917 0.0
C796 C 0.72768 0.39972 0.44291 0.0
O797 O 0.81385 0.38026 0.49467 0.0
O798 O 0.78892 0.32993 0.46619 0.0
C799 C 0.77669 0.26655 0.51781 0.0
N800 N 0.74312 0.27987 0.50542 0.0
C801 C 0.70891 0.22944 0.53331 0.0
C802 C 0.74313 0.21505 0.54618 0.0
C803 C 0.77715 0.23377 0.53849 0.0
C804 C 0.71023 0.26218 0.51283 0.0
H805 H 0.80292 0.2808 0.51195 0.0
C806 C 0.81683 0.35191 0.47408 0.0
O807 O 0.79436 0.44353 0.53992 0.0
O808 O 0.79195 0.39029 0.56965 0.0
N809 N 0.68173 0.3109 0.4822 0.0
C810 C 0.65123 0.32996 0.47028 0.0
C811 C 0.61499 0.31584 0.4769 0.0
C812 C 0.61031 0.28216 0.49566 0.0
C813 C 0.64218 0.26312 0.50795 0.0
C814 C 0.67769 0.27857 0.50041 0.0
H815 H 0.65452 0.35649 0.45725 0.0
O816 O 0.71816 0.40544 0.54533 0.0
O817 O 0.73543 0.35342 0.52006 0.0
O818 O 0.74431 0.41666 0.47012 0.0
O819 O 0.7223 0.36466 0.44257 0.0
C820 C 0.64015 0.22988 0.52806 0.0
C821 C 0.6735 0.21299 0.54066 0.0
H822 H 0.7436 0.18986 0.56225 0.0
H823 H 0.80367 0.22294 0.54846 0.0
H824 H 0.59096 0.33154 0.46822 0.0
H825 H 0.58221 0.27155 0.50106 0.0
H826 H 0.61308 0.21732 0.53439 0.0
H827 H 0.67158 0.18769 0.55649 0.0
Mn828 Mn 0.64361 0.52497 0.27165 0.0
Mn829 Mn 0.71748 0.47213 0.25087 0.0
C830 C 0.66945 0.48547 0.31649 0.0
C831 C 0.6172 0.58006 0.29263 0.0
C832 C 0.63687 0.45062 0.22927 0.0
O833 O 0.66312 0.55038 0.2246 0.0
O834 O 0.7092 0.51114 0.21221 0.0
C835 C 0.77588 0.53131 0.2611 0.0
N836 N 0.76179 0.49726 0.27005 0.0
C837 C 0.81241 0.4881 0.31431 0.0
C838 C 0.82752 0.52297 0.30539 0.0
C839 C 0.80911 0.54469 0.27874 0.0
C840 C 0.77905 0.47634 0.29601 0.0
H841 H 0.76189 0.54819 0.24068 0.0
C842 C 0.68963 0.53958 0.20423 0.0
O843 O 0.59847 0.55705 0.27135 0.0
O844 O 0.65168 0.57154 0.30108 0.0
N845 N 0.73026 0.43352 0.28476 0.0
C846 C 0.71452 0.39897 0.28722 0.0
C847 C 0.73019 0.37332 0.31189 0.0
C848 C 0.76252 0.38308 0.33309 0.0
C849 C 0.77949 0.41805 0.32859 0.0
C850 C 0.76263 0.44241 0.30346 0.0
H851 H 0.69011 0.39105 0.27056 0.0
O852 O 0.6353 0.49704 0.31877 0.0
O853 O 0.688 0.49769 0.28812 0.0
O854 O 0.62247 0.48037 0.241 0.0
O855 O 0.67213 0.44404 0.23204 0.0
C856 C 0.8129 0.42941 0.34752 0.0
C857 C 0.82929 0.46447 0.34046 0.0
H858 H 0.85325 0.53331 0.31879 0.0
H859 H 0.82056 0.57167 0.27175 0.0
H860 H 0.71737 0.34609 0.31456 0.0
H861 H 0.77446 0.36328 0.3522 0.0
H862 H 0.82642 0.41126 0.36729 0.0
H863 H 0.85512 0.47282 0.355 0.0
C864 C 0.11402 0.42146 0.35136 0.0
C865 C 0.09754 0.43285 0.31773 0.0
C866 C 0.09951 0.39085 0.37082 0.0
C867 C 0.06901 0.36896 0.35666 0.0
H868 H 0.13791 0.43687 0.36317 0.0
H869 H 0.11272 0.38418 0.39712 0.0
S870 S 0.01856 0.38487 0.26728 0.0
N871 N 0.05056 0.41868 0.26977 0.0
N872 N 0.02404 0.36046 0.30548 0.0
C873 C 0.05319 0.37935 0.32222 0.0
C874 C 0.06738 0.41125 0.30291 0.0
C875 C 0.89928 0.79658 0.58279 0.0
C876 C 0.91741 0.82247 0.60662 0.0
C877 C 0.86803 0.80614 0.56018 0.0
C878 C 0.85356 0.84219 0.56006 0.0
H879 H 0.90891 0.76843 0.58207 0.0
H880 H 0.85495 0.78486 0.54286 0.0
S881 S 0.89372 0.9215 0.61417 0.0
N882 N 0.92016 0.88648 0.62636 0.0
N883 N 0.86207 0.9045 0.5843 0.0
C884 C 0.87212 0.86854 0.58312 0.0
C885 C 0.90378 0.85869 0.60621 0.0
C886 C 0.45684 0.62973 0.79466 0.0
C887 C 0.42601 0.61244 0.81185 0.0
C888 C 0.47286 0.66294 0.80849 0.0
C889 C 0.45888 0.67964 0.84023 0.0
H890 H 0.46868 0.61744 0.7704 0.0
H891 H 0.49713 0.67493 0.79498 0.0
S892 S 0.37663 0.64711 0.89334 0.0
N893 N 0.38003 0.61617 0.86012 0.0
N894 N 0.41142 0.67747 0.88737 0.0
C895 C 0.42754 0.6631 0.8571 0.0
C896 C 0.41059 0.6299 0.84239 0.0
C897 C 0.64665 0.22635 0.11022 0.0
C898 C 0.60911 0.21616 0.10071 0.0
C899 C 0.67727 0.21 0.0929 0.0
C900 C 0.6716 0.18204 0.06617 0.0
H901 H 0.65242 0.24801 0.13032 0.0
H902 H 0.7056 0.2194 0.10046 0.0
S903 S 0.57883 0.14409 0.03281 0.0
N904 N 0.56811 0.1758 0.06334 0.0
N905 N 0.62532 0.14425 0.03188 0.0
C906 C 0.6342 0.17082 0.05732 0.0
C907 C 0.60308 0.18809 0.07426 0.0
C908 C 0.06919 0.63993 0.23863 0.0
C909 C 0.0853 0.61013 0.22034 0.0
C910 C 0.05836 0.67198 0.21974 0.0
C911 C 0.06224 0.676 0.18122 0.0
H912 H 0.0649 0.63864 0.26811 0.0
H913 H 0.04603 0.69368 0.23574 0.0
S914 S 0.10295 0.60627 0.11968 0.0
N915 N 0.10522 0.58698 0.161 0.0
N916 N 0.0838 0.64699 0.12538 0.0
C917 C 0.07832 0.64649 0.16231 0.0
C918 C 0.09016 0.6138 0.18185 0.0
C919 C 0.62471 0.80862 0.45762 0.0
C920 C 0.60787 0.82394 0.42576 0.0
C921 C 0.65737 0.82478 0.47414 0.0
C922 C 0.67492 0.85624 0.45883 0.0
H923 H 0.61261 0.7839 0.4698 0.0
H924 H 0.66882 0.81272 0.49923 0.0
S925 S 0.64234 0.90652 0.37539 0.0
N926 N 0.61162 0.87183 0.37913 0.0
N927 N 0.67254 0.90255 0.41051 0.0
C928 C 0.65828 0.87183 0.42709 0.0
C929 C 0.62525 0.85523 0.41012 0.0
C930 C 0.45529 0.40339 0.67124 0.0
C931 C 0.47393 0.37255 0.68656 0.0
C932 C 0.44248 0.43212 0.69294 0.0
C933 C 0.44842 0.43247 0.73125 0.0
H934 H 0.45009 0.40566 0.64177 0.0
H935 H 0.42855 0.45485 0.67927 0.0
S936 S 0.4959 0.3596 0.7862 0.0
N937 N 0.49728 0.34441 0.74324 0.0
N938 N 0.47442 0.3996 0.78428 0.0
C939 C 0.46731 0.40231 0.74741 0.0
C940 C 0.47969 0.37217 0.7251 0.0
C941 C 0.89777 0.23483 0.96548 0.0
C942 C 0.92586 0.22276 0.94163 0.0
C943 C 0.86755 0.21141 0.976 0.0
C944 C 0.86414 0.17448 0.9637 0.0
H945 H 0.89894 0.2628 0.97607 0.0
H946 H 0.84684 0.22241 0.99424 0.0
S947 S 0.93091 0.12862 0.90156 0.0
N948 N 0.94835 0.171 0.90634 0.0
N949 N 0.89255 0.12702 0.9264 0.0
C950 C 0.89231 0.16198 0.94001 0.0
C951 C 0.92276 0.18602 0.92892 0.0
C952 C 0.33954 0.06881 0.414 0.0
C953 C 0.30198 0.0796 0.41809 0.0
C954 C 0.35133 0.052 0.38131 0.0
C955 C 0.32576 0.04424 0.35188 0.0
H956 H 0.36048 0.07531 0.43537 0.0
H957 H 0.38079 0.04543 0.3789 0.0
S958 S 0.22331 0.06328 0.35071 0.0
N959 N 0.23899 0.07952 0.39095 0.0
N960 N 0.26019 0.04562 0.33079 0.0
C961 C 0.28753 0.05231 0.35694 0.0
C962 C 0.27588 0.07046 0.38972 0.0
C963 C 0.21152 0.04386 0.64179 0.0
C964 C 0.19657 0.06233 0.67209 0.0
C965 C 0.22243 0.06277 0.6098 0.0
C966 C 0.21982 0.1015 0.60629 0.0
H967 H 0.21487 0.01421 0.64268 0.0
H968 H 0.23385 0.04659 0.58774 0.0
S969 S 0.18246 0.16357 0.67746 0.0
N970 N 0.17909 0.12207 0.69627 0.0
N971 N 0.20067 0.15772 0.63636 0.0
C972 C 0.20486 0.12058 0.63629 0.0
C973 C 0.19293 0.10103 0.66894 0.0
C974 C 0.16805 0.92989 0.86002 0.0
C975 C 0.18468 0.96347 0.84868 0.0
C976 C 0.18256 0.91024 0.89054 0.0
C977 C 0.21327 0.92412 0.91236 0.0
H978 H 0.14401 0.91831 0.84467 0.0
H979 H 0.16918 0.88404 0.89723 0.0
S980 S 0.26419 0.01324 0.89651 0.0
N981 N 0.23199 0.01108 0.86284 0.0
N982 N 0.25861 0.97498 0.92079 0.0
C983 C 0.22926 0.95848 0.90197 0.0
C984 C 0.21503 0.978 0.87021 0.0
C985 C 0.35396 0.92673 0.12051 0.0
C986 C 0.32485 0.94485 0.10127 0.0
C987 C 0.37024 0.9417 0.15318 0.0
C988 C 0.35649 0.97416 0.16866 0.0
H989 H 0.36402 0.9007 0.11037 0.0
H990 H 0.3927 0.92707 0.16716 0.0
S991 S 0.28303 0.03362 0.1276 0.0
N992 N 0.28513 0.99854 0.09864 0.0
N993 N 0.31448 0.02562 0.16083 0.0
C994 C 0.32829 0.99308 0.14913 0.0
C995 C 0.31264 0.97857 0.1153 0.0
C996 C 0.36076 0.35403 0.09172 0.0
C997 C 0.35586 0.34002 0.05558 0.0
C998 C 0.39086 0.34314 0.11502 0.0
C999 C 0.41797 0.31798 0.10331 0.0
H1000 H 0.34078 0.37319 0.10249 0.0
H1001 H 0.39283 0.35476 0.14255 0.0
S1002 S 0.41904 0.27379 0.01076 0.0
N1003 N 0.38153 0.29988 1.00899 0.0
N1004 N 0.43792 0.27982 0.05245 0.0
C1005 C 0.41375 0.30414 0.06702 0.0
C1006 C 0.38286 0.31498 0.04335 0.0
C1007 C 1.00439 0.8978 0.20538 0.0
C1008 C 0.98219 0.8653 0.20163 0.0
C1009 C 0.99101 0.92902 0.22344 0.0
C1010 C 0.95426 0.92954 0.23715 0.0
H1011 H 0.03162 0.89974 0.19255 0.0
H1012 H 1.009 0.95353 0.22511 0.0
S1013 S 0.88588 0.85063 0.23702 0.0
N1014 N 0.92288 0.83446 0.216 0.0
N1015 N 0.8969 0.89385 0.24824 0.0
C1016 C 0.93224 0.89682 0.23485 0.0
C1017 C 0.94644 0.86453 0.21758 0.0
C1018 C 0.16364 0.72491 0.55603 0.0
C1019 C 0.17216 0.68759 0.56223 0.0
C1020 C 0.13212 0.74094 0.57189 0.0
C1021 C 0.1084 0.72052 0.5952 0.0
H1022 H 0.18103 0.7417 0.53814 0.0
H1023 H 0.1264 0.76964 0.56608 0.0
S1024 S 0.11934 0.62267 0.62222 0.0
N1025 N 0.15453 0.63098 0.59412 0.0
N1026 N 0.09619 0.66162 0.62492 0.0
C1027 C 0.11695 0.68352 0.60235 0.0
C1028 C 0.14857 0.66691 0.58556 0.0
C1029 C 0.98541 0.65826 0.70156 0.0
C1030 C 0.96164 0.68847 0.69573 0.0
C1031 C 0.97149 0.62431 0.7155 0.0
C1032 C 0.93302 0.61882 0.72323 0.0
H1033 H 0.01522 0.66117 0.69617 0.0
H1034 H 0.99093 0.602 0.71967 0.0
S1035 S 0.85886 0.68888 0.71186 0.0
N1036 N 0.89778 0.71055 0.69888 0.0
N1037 N 0.8714 0.64674 0.72346 0.0
C1038 C 0.90892 0.64869 0.71693 0.0
C1039 C 0.92326 0.68345 0.70367 0.0
C1040 C 0.14438 0.18837 0.46701 0.0
C1041 C 0.17776 0.19203 0.44671 0.0
C1042 C 0.11034 0.2047 0.45471 0.0
C1043 C 0.10866 0.22625 0.42229 0.0
H1044 H 0.14461 0.17334 0.49284 0.0
H1045 H 0.08521 0.20041 0.47066 0.0
S1046 S 0.18598 0.24114 0.35664 0.0
N1047 N 0.20473 0.21585 0.38981 0.0
N1048 N 0.14217 0.24769 0.36874 0.0
C1049 C 0.1412 0.22889 0.4012 0.0
C1050 C 0.17533 0.21176 0.41297 0.0
C1051 C 0.60994 0.3859 0.22889 0.0
C1052 C 0.61136 0.42135 0.21298 0.0
C1053 C 0.58742 0.35719 0.2132 0.0
C1054 C 0.56547 0.36269 0.18087 0.0
H1055 H 0.62628 0.38025 0.25375 0.0
H1056 H 0.58783 0.3302 0.22607 0.0
S1057 S 0.55911 0.45029 0.12846 0.0
N1058 N 0.58823 0.46049 0.16346 0.0
N1059 N 0.54696 0.40626 0.1333 0.0
C1060 C 0.56668 0.39796 0.16467 0.0
C1061 C 0.58907 0.42742 0.18106 0.0
C1062 C 0.38736 0.85752 0.97689 0.0
C1063 C 0.35398 0.84293 0.96015 0.0
C1064 C 0.42317 0.84644 0.9659 0.0
C1065 C 0.42746 0.82047 0.93734 0.0
H1066 H 0.38592 0.877 0.99947 0.0
H1067 H 0.44771 0.8581 0.98035 0.0
S1068 S 0.34908 0.77565 0.88257 0.0
N1069 N 0.32775 0.80234 0.91208 0.0
N1070 N 0.39462 0.78167 0.89143 0.0
C1071 C 0.39429 0.80653 0.91953 0.0
C1072 C 0.3578 0.81764 0.93092 0.0
C1073 C 0.90315 0.39541 0.83839 0.0
C1074 C 0.92173 0.419 0.81327 0.0
C1075 C 0.92248 0.3683 0.8585 0.0
C1076 C 0.96108 0.36279 0.85378 0.0
H1077 H 0.87334 0.3982 0.84313 0.0
H1078 H 0.90703 0.35144 0.87795 0.0
S1079 S 0.02356 0.41672 0.7923 0.0
N1080 N 0.98171 0.43498 0.78556 0.0
N1081 N 0.01765 0.38331 0.8228 0.0
C1082 C 0.98016 0.38575 0.82873 0.0
C1083 C 0.96063 0.41401 0.80869 0.0
C1084 C 0.35284 0.21508 0.57683 0.0
C1085 C 0.35989 0.18791 0.54987 0.0
C1086 C 0.38272 0.23324 0.59791 0.0
C1087 C 0.42124 0.22992 0.58926 0.0
H1088 H 0.32398 0.22196 0.58227 0.0
H1089 H 0.37544 0.25143 0.62014 0.0
S1090 S 0.45227 0.14088 0.55067 0.0
N1091 N 0.4067 0.14105 0.53981 0.0
N1092 N 0.46237 0.18094 0.57096 0.0
C1093 C 0.42795 0.19649 0.5704 0.0
C1094 C 0.39728 0.17467 0.55281 0.0
C1095 C 0.59782 0.66109 0.35619 0.0
C1096 C 0.56525 0.67668 0.34027 0.0
C1097 C 0.61479 0.63043 0.34021 0.0
C1098 C 0.59952 0.61355 0.308 0.0
H1099 H 0.6107 0.67294 0.38101 0.0
H1100 H 0.63979 0.61956 0.35358 0.0
S1101 S 0.51437 0.64335 0.25551 0.0
N1102 N 0.51851 0.67286 0.29019 0.0
N1103 N 0.54976 0.61487 0.26073 0.0
C1104 C 0.56681 0.62868 0.29192 0.0
C1105 C 0.54989 0.6603 0.30786 0.0
C1106 C 0.10863 0.86393 0.06636 0.0
C1107 C 0.10692 0.83264 0.08974 0.0
C1108 C 0.14215 0.87599 0.05014 0.0
C1109 C 0.17591 0.85732 0.05588 0.0
H1110 H 0.08368 0.87962 0.06017 0.0
H1111 H 0.14153 0.90016 0.03253 0.0
S1112 S 0.18981 0.77868 0.11997 0.0
N1113 N 0.14403 0.78591 0.12105 0.0
N1114 N 0.20739 0.80952 0.09108 0.0
C1115 C 0.17565 0.8274 0.08075 0.0
C1116 C 0.14117 0.81483 0.09743 0.0
C1117 C 0.68475 0.92779 0.62164 0.0
C1118 C 0.71732 0.94355 0.606 0.0
C1119 C 0.66789 0.9439 0.65224 0.0
C1120 C 0.68325 0.97611 0.66905 0.0
H1121 H 0.67178 0.90297 0.60987 0.0
H1122 H 0.64286 0.93063 0.6631 0.0
S1123 S 0.76862 0.02809 0.63924 0.0
N1124 N 0.76429 0.99339 0.60975 0.0
N1125 N 0.73322 0.02312 0.66772 0.0
C1126 C 0.71602 0.99201 0.65392 0.0
C1127 C 0.73284 0.97592 0.62232 0.0
C1128 C 0.8757 0.93509 0.37943 0.0
C1129 C 0.86067 0.96711 0.3633 0.0
C1130 C 0.85609 0.9149 0.40632 0.0
C1131 C 0.82116 0.92651 0.41912 0.0
H1132 H 0.90269 0.92521 0.37082 0.0
H1133 H 0.86862 0.89018 0.41749 0.0
S1134 S 0.7696 1.00865 0.38626 0.0
N1135 N 0.80844 0.00929 0.36201 0.0
N1136 N 0.77222 0.97211 0.41341 0.0
C1137 C 0.80595 0.95869 0.40355 0.0
C1138 C 0.82549 0.97873 0.37543 0.0
C1139 C 0.85358 0.06835 0.09865 0.0
C1140 C 0.81583 0.07913 0.09441 0.0
C1141 C 0.86803 0.05539 0.13275 0.0
C1142 C 0.84498 0.05129 0.16369 0.0
H1143 H 0.87231 0.07049 0.07555 0.0
H1144 H 0.89746 0.04819 0.13478 0.0
S1145 S 0.74377 0.07448 0.16683 0.0
N1146 N 0.75566 0.08464 0.12416 0.0
N1147 N 0.78222 0.05891 0.18753 0.0
C1148 C 0.80699 0.06131 0.15958 0.0
C1149 C 0.7926 0.07558 0.1252 0.0
C1150 C 0.66822 0.0557 0.89821 0.0
C1151 C 0.66888 0.07001 0.86209 0.0
C1152 C 0.69047 0.07148 0.92702 0.0
C1153 C 0.7143 0.10234 0.92099 0.0
H1154 H 0.65074 0.03178 0.90432 0.0
H1155 H 0.68867 0.05965 0.9544 0.0
S1156 S 0.72559 0.15127 0.83198 0.0
N1157 N 0.69533 0.11713 0.82206 0.0
N1158 N 0.73612 0.14757 0.87649 0.0
C1159 C 0.71478 0.11738 0.88522 0.0
C1160 C 0.69266 0.10082 0.85566 0.0
C1161 C 0.61141 0.70866 0.95736 0.0
C1162 C 0.60948 0.73043 0.92508 0.0
C1163 C 0.64582 0.69323 0.96988 0.0
C1164 C 0.67933 0.69838 0.95009 0.0
H1165 H 0.5862 0.70342 0.97293 0.0
H1166 H 0.64626 0.67783 0.99548 0.0
S1167 S 0.68741 0.74954 0.86117 0.0
N1168 N 0.64304 0.754 0.87244 0.0
N1169 N 0.70658 0.7245 0.89431 0.0
C1170 C 0.67682 0.71873 0.91674 0.0
C1171 C 0.64224 0.73462 0.90458 0.0
C1172 C 0.06978 0.13111 0.79393 0.0
C1173 C 0.09754 0.11108 0.81307 0.0
C1174 C 0.05357 0.16231 0.80983 0.0
C1175 C 0.06385 0.1742 0.84583 0.0
H1176 H 0.06102 0.12306 0.76618 0.0
H1177 H 0.03287 0.17724 0.79367 0.0
S1178 S 0.13269 0.12865 0.90879 0.0
N1179 N 0.13318 0.10403 0.87052 0.0
N1180 N 0.10221 0.16163 0.90083 0.0
C1181 C 0.09078 0.15354 0.86563 0.0
C1182 C 0.10775 0.1223 0.84915 0.0
C1183 C 0.9236 0.34125 0.46939 0.0
C1184 C 0.92814 0.31946 0.43753 0.0
C1185 C 0.88784 0.35266 0.48028 0.0
C1186 C 0.8548 0.34253 0.46008 0.0
H1187 H 0.94783 0.3492 0.48657 0.0
H1188 H 0.88603 0.36861 0.50544 0.0
S1189 S 0.85066 0.28862 0.37283 0.0
N1190 N 0.89588 0.29036 0.38458 0.0
N1191 N 0.82916 0.3115 0.40526 0.0
C1192 C 0.85889 0.32175 0.42761 0.0
C1193 C 0.89531 0.31036 0.4163 0.0
C1194 C 0.61354 0.92304 0.85039 0.0
C1195 C 0.59671 0.93417 0.81683 0.0
C1196 C 0.59933 0.89248 0.87014 0.0
C1197 C 0.56881 0.87036 0.85635 0.0
H1198 H 0.63736 0.93871 0.86199 0.0
H1199 H 0.61267 0.88615 0.89645 0.0
S1200 S 0.51775 0.88539 0.76714 0.0
N1201 N 0.54954 0.91941 0.76923 0.0
N1202 N 0.52365 0.86123 0.80544 0.0
C1203 C 0.55279 0.88038 0.82189 0.0
C1204 C 0.56664 0.91225 0.8023 0.0
C1205 C 0.92884 0.16074 0.35513 0.0
C1206 C 0.95797 0.17956 0.33669 0.0
C1207 C 0.9123 0.12801 0.34059 0.0
C1208 C 0.92576 0.11207 0.30824 0.0
H1209 H 0.91898 0.17125 0.38108 0.0
H1210 H 0.8898 0.11438 0.35543 0.0
S1211 S 0.99916 0.15192 0.24809 0.0
N1212 N 0.99744 0.1813 0.28286 0.0
N1213 N 0.96753 0.11902 0.25654 0.0
C1214 C 0.95398 0.13119 0.289 0.0
C1215 C 0.96993 0.16506 0.30309 0.0
C1216 C 0.58586 0.11737 0.68473 0.0
C1217 C 0.58154 0.11352 0.72328 0.0
C1218 C 0.57383 0.14935 0.66542 0.0
C1219 C 0.55777 0.17922 0.68397 0.0
H1220 H 0.59775 0.09512 0.66916 0.0
H1221 H 0.57721 0.15068 0.63583 0.0
S1222 S 0.54131 0.18355 0.78505 0.0
N1223 N 0.56054 0.14306 0.77904 0.0
N1224 N 0.53876 0.2024 0.74367 0.0
C1225 C 0.55405 0.17577 0.72262 0.0
C1226 C 0.56567 0.14327 0.74196 0.0
C1227 C 0.1556 0.36939 0.93101 0.0
C1228 C 0.17334 0.35391 0.96231 0.0
C1229 C 0.12257 0.35321 0.91519 0.0
C1230 C 0.10502 0.32209 0.93118 0.0
H1231 H 0.16781 0.39373 0.91821 0.0
H1232 H 0.1105 0.36529 0.89039 0.0
S1233 S 0.13903 0.27231 0.01443 0.0
N1234 N 0.1698 0.30682 0.00982 0.0
N1235 N 0.10835 0.27599 0.97968 0.0
C1236 C 0.12219 0.3067 0.96277 0.0
C1237 C 0.15596 0.32295 0.97866 0.0
C1238 C 0.42282 0.69001 0.42779 0.0
C1239 C 0.42788 0.72631 0.44137 0.0
C1240 C 0.3921 0.66729 0.43833 0.0
C1241 C 0.36456 0.67983 0.46261 0.0
H1242 H 0.4431 0.67873 0.40926 0.0
H1243 H 0.38998 0.63956 0.42717 0.0
S1244 S 0.3637 0.77322 0.50513 0.0
N1245 N 0.40184 0.77397 0.47997 0.0
N1246 N 0.34444 0.73166 0.49938 0.0
C1247 C 0.36899 0.7163 0.47595 0.0
C1248 C 0.40045 0.73932 0.4655 0.0
C1249 C 0.84071 0.58901 0.85172 0.0
C1250 C 0.83194 0.55118 0.85004 0.0
C1251 C 0.82907 0.61079 0.88092 0.0
C1252 C 0.80874 0.59597 0.91091 0.0
H1253 H 0.85599 0.60236 0.82967 0.0
H1254 H 0.83632 0.63995 0.87957 0.0
S1255 S 0.77934 0.49764 0.92046 0.0
N1256 N 0.80165 0.49913 0.88094 0.0
N1257 N 0.78081 0.54024 0.9369 0.0
C1258 C 0.80022 0.55786 0.91003 0.0
C1259 C 0.81148 0.53553 0.87944 0.0
C1260 C 0.69903 0.59918 0.1672 0.0
C1261 C 0.69872 0.56017 0.16927 0.0
C1262 C 0.71095 0.61828 0.13508 0.0
C1263 C 0.72226 0.59919 0.10333 0.0
H1264 H 0.69115 0.6151 0.19099 0.0
H1265 H 0.71158 0.64818 0.13527 0.0
S1266 S 0.72402 0.49675 0.09381 0.0
N1267 N 0.70939 0.50342 0.13609 0.0
N1268 N 0.73065 0.53835 0.07631 0.0
C1269 C 0.72081 0.56011 0.10495 0.0
C1270 C 0.70939 0.54093 0.13763 0.0
C1271 C 0.72838 0.45658 0.40136 0.0
C1272 C 0.71324 0.4213 0.41001 0.0
C1273 C 0.71522 0.47671 0.37031 0.0
C1274 C 0.68584 0.46276 0.34702 0.0
H1275 H 0.75091 0.46862 0.41844 0.0
H1276 H 0.72772 0.50365 0.36482 0.0
S1277 S 0.63649 0.37226 0.35636 0.0
N1278 N 0.66782 0.37315 0.39071 0.0
N1279 N 0.64146 0.41226 0.33505 0.0
C1280 C 0.66989 0.42819 0.35571 0.0
C1281 C 0.68415 0.40707 0.38625 0.0
C1282 C 0.82361 0.48722 0.65151 0.0
C1283 C 0.85387 0.46986 0.66968 0.0
C1284 C 0.8083 0.4733 0.61801 0.0
C1285 C 0.82247 0.44131 0.60187 0.0
H1286 H 0.81172 0.51172 0.6633 0.0
H1287 H 0.78443 0.48692 0.60532 0.0
S1288 S 0.9033 0.38753 0.63699 0.0
N1289 N 0.89946 0.42107 0.6675 0.0
N1290 N 0.86936 0.39364 0.60572 0.0
C1291 C 0.85319 0.42424 0.61939 0.0
C1292 C 0.86943 0.43901 0.65286 0.0
C1293 C 0.41222 0.15099 0.22681 0.0
C1294 C 0.43498 0.11971 0.22978 0.0
C1295 C 0.42669 0.18512 0.21395 0.0
C1296 C 0.46413 0.1891 0.20214 0.0
H1297 H 0.38305 0.14919 0.23485 0.0
H1298 H 0.40818 0.20847 0.21272 0.0
S1299 S 0.53516 0.1155 0.20327 0.0
N1300 N 0.49701 0.09512 0.21977 0.0
N1301 N 0.52357 0.15852 0.19422 0.0
C1302 C 0.487 0.1579 0.20447 0.0
C1303 C 0.47262 0.12347 0.21864 0.0
C1304 C 0.08997 0.85587 0.71059 0.0
C1305 C 0.06548 0.86223 0.68031 0.0
C1306 C 0.11208 0.88465 0.72656 0.0
C1307 C 0.11057 0.92106 0.71306 0.0
H1308 H 0.09245 0.82827 0.72175 0.0
H1309 H 0.13014 0.87826 0.74998 0.0
S1310 S 0.0512 0.95222 0.63399 0.0
N1311 N 0.04164 0.90745 0.63677 0.0
N1312 N 0.08219 0.9618 0.66762 0.0
C1313 C 0.08594 0.92786 0.68297 0.0
C1314 C 0.06397 0.89834 0.66618 0.0
C1315 C 0.42236 0.86526 0.35487 0.0
C1316 C 0.46182 0.86402 0.35415 0.0
C1317 C 0.40244 0.89203 0.33475 0.0
C1318 C 0.42118 0.9193 0.3136 0.0
H1319 H 0.40673 0.84537 0.37119 0.0
H1320 H 0.372 0.89155 0.33631 0.0
S1321 S 0.52507 0.9283 0.30404 0.0
N1322 N 0.51927 0.89216 0.33127 0.0
N1323 N 0.48231 0.94299 0.29397 0.0
C1324 C 0.46092 0.91835 0.31304 0.0
C1325 C 0.48108 0.89063 0.33316 0.0
C1326 C 0.89972 0.68442 0.05 0.0
C1327 C 0.86127 0.69331 0.05341 0.0
C1328 C 0.9298 0.70563 0.06774 0.0
C1329 C 0.92302 0.73317 0.0944 0.0
H1330 H 0.9068 0.66198 0.03199 0.0
H1331 H 0.9586 0.69987 0.06091 0.0
S1332 S 0.83103 0.73337 0.14203 0.0
N1333 N 0.82055 0.71263 0.10228 0.0
N1334 N 0.87663 0.74398 0.14145 0.0
C1335 C 0.88573 0.73055 0.10791 0.0
C1336 C 0.85485 0.7128 0.08653 0.0
C1337 C 0.6067 0.36142 0.56115 0.0
C1338 C 0.60443 0.33021 0.58455 0.0
C1339 C 0.64071 0.3736 0.54599 0.0
C1340 C 0.67432 0.35486 0.55252 0.0
H1341 H 0.5818 0.3769 0.55414 0.0
H1342 H 0.64057 0.39779 0.5284 0.0
S1343 S 0.68637 0.27574 0.61639 0.0
N1344 N 0.64059 0.28321 0.61653 0.0
N1345 N 0.70478 0.30669 0.58811 0.0
C1346 C 0.67337 0.32481 0.57722 0.0
C1347 C 0.63844 0.31231 0.59306 0.0
C1348 C 0.18661 0.42441 0.12239 0.0
C1349 C 0.2191 0.44026 0.10671 0.0
C1350 C 0.16996 0.44035 0.15316 0.0
C1351 C 0.18547 0.47245 0.17002 0.0
H1352 H 0.1735 0.39972 0.11048 0.0
H1353 H 0.14496 0.42706 0.16408 0.0
S1354 S 0.27052 0.52473 0.13992 0.0
N1355 N 0.26607 0.49012 0.11034 0.0
N1356 N 0.23533 0.51958 0.1686 0.0
C1357 C 0.21811 0.48847 0.1548 0.0
C1358 C 0.23474 0.47255 0.12306 0.0
C1359 C 0.35433 0.43079 0.85961 0.0
C1360 C 0.35567 0.4695 0.8607 0.0
C1361 C 0.33539 0.41015 0.88657 0.0
C1362 C 0.31732 0.4273 0.91619 0.0
H1363 H 0.36848 0.4163 0.83796 0.0
H1364 H 0.33545 0.38034 0.88428 0.0
S1365 S 0.31325 0.52873 0.93111 0.0
N1366 N 0.33765 0.5246 0.89314 0.0
N1367 N 0.3022 0.48622 0.94416 0.0
C1368 C 0.31845 0.46631 0.9173 0.0
C1369 C 0.33761 0.48727 0.88955 0.0
C1370 C 0.35478 0.5768 0.59893 0.0
C1371 C 0.31686 0.58675 0.59389 0.0
C1372 C 0.36875 0.56409 0.63329 0.0
C1373 C 0.34507 0.55946 0.66369 0.0
H1374 H 0.37394 0.57919 0.57618 0.0
H1375 H 0.39825 0.55729 0.63588 0.0
S1376 S 0.24324 0.58064 0.6647 0.0
N1377 N 0.25589 0.5911 0.62232 0.0
N1378 N 0.28159 0.56584 0.68621 0.0
C1379 C 0.30696 0.56884 0.65884 0.0
C1380 C 0.29303 0.58283 0.62418 0.0
C1381 C 0.17072 0.55547 0.39751 0.0
C1382 C 0.17128 0.56919 0.36116 0.0
C1383 C 0.19281 0.57195 0.42605 0.0
C1384 C 0.2163 0.60292 0.41947 0.0
H1385 H 0.15334 0.53159 0.40402 0.0
H1386 H 0.19101 0.56069 0.45366 0.0
S1387 S 0.22745 0.65019 0.32955 0.0
N1388 N 0.19749 0.61564 0.32024 0.0
N1389 N 0.23791 0.64742 0.37415 0.0
C1390 C 0.21682 0.61723 0.38341 0.0
C1391 C 0.19489 0.59996 0.35414 0.0
loop_
_geom_bond_atom_site_label_1
_geom_bond_atom_site_label_2
_geom_bond_distance
_geom_bond_site_symmetry_2
_ccdc_geom_bond_type
Mn0 O5 2.095 1_455 S
Mn0 O15 2.162 1_455 S
Mn0 O16 2.297 1_455 S
Mn0 O24 2.385 . S
Mn0 O25 2.209 . S
Mn0 O26 2.094 . S
Mn1 O6 2.121 1_455 S
Mn1 N8 2.257 . S
Mn1 N17 2.282 . S
Mn1 O25 2.215 . S
Mn1 O27 2.117 . S
C2 O24 1.234 . S
C2 O25 1.283 . S
C3 O15 1.281 . S
C3 O16 1.236 . S
C4 O26 1.240 . S
C4 O27 1.264 . S
O5 Mn0 2.095 1_655 S
O5 C14 1.250 . S
O6 Mn1 2.121 1_655 S
O6 C14 1.258 . S
C7 N8 1.326 . S
C7 C11 1.460 . S
C7 H13 0.929 1_455 S
N8 Mn1 2.257 . S
N8 C7 1.326 . S
N8 C12 1.362 . S
C9 C10 1.258 . S
C9 C12 1.431 . S
C9 C29 1.449 . S
C10 C9 1.258 . S
C10 C11 1.477 . S
C10 H30 0.931 . S
C11 C7 1.460 . S
C11 C10 1.477 . S
C11 H31 0.930 . S
C12 N8 1.362 . S
C12 C9 1.431 . S
C12 C22 1.476 . S
H13 C7 0.929 1_655 S
C14 O5 1.250 . S
C14 O6 1.258 . S
O15 Mn0 2.162 1_655 S
O15 C3 1.281 . S
O16 Mn0 2.297 1_655 S
O16 C3 1.236 . S
N17 Mn1 2.282 . S
N17 C18 1.328 . S
N17 C22 1.318 . S
C18 N17 1.328 . S
C18 C19 1.457 . S
C18 H23 0.929 . S
C19 C18 1.457 . S
C19 C20 1.291 . S
C19 H32 0.931 . S
C20 C19 1.291 . S
C20 C21 1.373 . S
C20 H33 0.929 . S
C21 C20 1.373 . S
C21 C22 1.396 . S
C21 C28 1.403 . S
C22 C12 1.476 . S
C22 N17 1.318 . S
C22 C21 1.396 . S
H23 C18 0.929 . S
O24 Mn0 2.385 . S
O24 C2 1.234 . S
O25 Mn0 2.209 . S
O25 Mn1 2.215 . S
O25 C2 1.283 . S
O26 Mn0 2.094 . S
O26 C4 1.240 . S
O27 Mn1 2.117 . S
O27 C4 1.264 . S
C28 C21 1.403 . S
C28 C29 1.399 . S
C28 H34 0.929 . S
C29 C9 1.449 . S
C29 C28 1.399 . S
C29 H35 0.930 . S
H30 C10 0.931 . S
H31 C11 0.930 . S
H32 C19 0.931 . S
H33 C20 0.929 . S
H34 C28 0.929 . S
H35 C29 0.930 . S
Mn36 O41 2.095 1_455 S
Mn36 O51 2.162 . S
Mn36 O52 2.297 . S
Mn36 O60 2.385 . S
Mn36 O61 2.209 . S
Mn36 O62 2.094 1_455 S
Mn37 O42 2.121 . S
Mn37 N44 2.257 . S
Mn37 N53 2.282 . S
Mn37 O61 2.215 1_655 S
Mn37 O63 2.117 . S
C38 O60 1.234 . S
C38 O61 1.283 . S
C39 O51 1.281 . S
C39 O52 1.236 . S
C40 O62 1.240 . S
C40 O63 1.264 . S
O41 Mn36 2.095 1_655 S
O41 C50 1.250 . S
O42 Mn37 2.121 . S
O42 C50 1.258 . S
C43 N44 1.326 . S
C43 C47 1.460 . S
C43 H49 0.929 . S
N44 Mn37 2.257 . S
N44 C43 1.326 . S
N44 C48 1.362 . S
C45 C46 1.258 . S
C45 C48 1.431 . S
C45 C65 1.449 . S
C46 C45 1.258 . S
C46 C47 1.477 . S
C46 H66 0.931 . S
C47 C43 1.460 . S
C47 C46 1.477 . S
C47 H67 0.930 . S
C48 N44 1.362 . S
C48 C45 1.431 . S
C48 C58 1.476 . S
H49 C43 0.929 . S
C50 O41 1.250 . S
C50 O42 1.258 . S
O51 Mn36 2.162 . S
O51 C39 1.281 . S
O52 Mn36 2.297 . S
O52 C39 1.236 . S
N53 Mn37 2.282 . S
N53 C54 1.328 . S
N53 C58 1.318 . S
C54 N53 1.328 . S
C54 C55 1.457 . S
C54 H59 0.929 . S
C55 C54 1.457 . S
C55 C56 1.291 . S
C55 H68 0.931 . S
C56 C55 1.291 . S
C56 C57 1.373 . S
C56 H69 0.929 . S
C57 C56 1.373 . S
C57 C58 1.396 . S
C57 C64 1.403 . S
C58 C48 1.476 . S
C58 N53 1.318 . S
C58 C57 1.396 . S
H59 C54 0.929 . S
O60 Mn36 2.385 . S
O60 C38 1.234 . S
O61 Mn36 2.209 . S
O61 Mn37 2.215 1_455 S
O61 C38 1.283 . S
O62 Mn36 2.094 1_655 S
O62 C40 1.240 . S
O63 Mn37 2.117 . S
O63 C40 1.264 . S
C64 C57 1.403 . S
C64 C65 1.399 . S
C64 H70 0.929 . S
C65 C45 1.449 . S
C65 C64 1.399 . S
C65 H71 0.930 . S
H66 C46 0.931 . S
H67 C47 0.930 . S
H68 C55 0.931 . S
H69 C56 0.929 . S
H70 C64 0.929 . S
H71 C65 0.930 . S
Mn72 O77 2.095 . S
Mn72 O87 2.162 . S
Mn72 O88 2.297 . S
Mn72 O96 2.385 . S
Mn72 O97 2.209 . S
Mn72 O98 2.094 . S
Mn73 O78 2.121 . S
Mn73 N80 2.257 . S
Mn73 N89 2.282 . S
Mn73 O97 2.215 . S
Mn73 O99 2.117 . S
C74 O96 1.234 . S
C74 O97 1.283 . S
C75 O87 1.281 . S
C75 O88 1.236 . S
C76 O98 1.240 . S
C76 O99 1.264 . S
O77 Mn72 2.095 . S
O77 C86 1.250 . S
O78 Mn73 2.121 . S
O78 C86 1.258 . S
C79 N80 1.326 1_554 S
C79 C83 1.460 . S
C79 H85 0.929 . S
N80 Mn73 2.257 . S
N80 C79 1.326 1_556 S
N80 C84 1.362 1_556 S
C81 C82 1.258 . S
C81 C84 1.431 . S
C81 C101 1.449 . S
C82 C81 1.258 . S
C82 C83 1.477 . S
C82 H102 0.931 . S
C83 C79 1.460 . S
C83 C82 1.477 . S
C83 H103 0.930 . S
C84 N80 1.362 1_554 S
C84 C81 1.431 . S
C84 C94 1.476 1_554 S
H85 C79 0.929 . S
C86 O77 1.250 . S
C86 O78 1.258 . S
O87 Mn72 2.162 . S
O87 C75 1.281 . S
O88 Mn72 2.297 . S
O88 C75 1.236 . S
N89 Mn73 2.282 . S
N89 C90 1.328 . S
N89 C94 1.318 . S
C90 N89 1.328 . S
C90 C91 1.457 . S
C90 H95 0.929 . S
C91 C90 1.457 . S
C91 C92 1.291 . S
C91 H104 0.931 . S
C92 C91 1.291 . S
C92 C93 1.373 . S
C92 H105 0.929 . S
C93 C92 1.373 . S
C93 C94 1.396 . S
C93 C100 1.403 1_556 S
C94 C84 1.476 1_556 S
C94 N89 1.318 . S
C94 C93 1.396 . S
H95 C90 0.929 . S
O96 Mn72 2.385 . S
O96 C74 1.234 . S
O97 Mn72 2.209 . S
O97 Mn73 2.215 . S
O97 C74 1.283 . S
O98 Mn72 2.094 . S
O98 C76 1.240 . S
O99 Mn73 2.117 . S
O99 C76 1.264 . S
C100 C93 1.403 1_554 S
C100 C101 1.399 . S
C100 H106 0.929 . S
C101 C81 1.449 . S
C101 C100 1.399 . S
C101 H107 0.930 . S
H102 C82 0.931 . S
H103 C83 0.930 . S
H104 C91 0.931 . S
H105 C92 0.929 . S
H106 C100 0.929 . S
H107 C101 0.930 . S
Mn108 O113 2.095 . S
Mn108 O123 2.162 . S
Mn108 O124 2.297 . S
Mn108 O132 2.385 . S
Mn108 O133 2.209 . S
Mn108 O134 2.094 . S
Mn109 O114 2.121 . S
Mn109 N116 2.257 . S
Mn109 N125 2.282 . S
Mn109 O133 2.215 . S
Mn109 O135 2.117 . S
C110 O132 1.234 . S
C110 O133 1.283 . S
C111 O123 1.281 . S
C111 O124 1.236 . S
C112 O134 1.240 . S
C112 O135 1.264 . S
O113 Mn108 2.095 . S
O113 C122 1.250 . S
O114 Mn109 2.121 . S
O114 C122 1.258 . S
C115 N116 1.326 . S
C115 C119 1.460 . S
C115 H121 0.929 . S
N116 Mn109 2.257 . S
N116 C115 1.326 . S
N116 C120 1.362 . S
C117 C118 1.258 . S
C117 C120 1.431 . S
C117 C137 1.449 . S
C118 C117 1.258 . S
C118 C119 1.477 . S
C118 H138 0.931 . S
C119 C115 1.460 . S
C119 C118 1.477 . S
C119 H139 0.930 . S
C120 N116 1.362 . S
C120 C117 1.431 . S
C120 C130 1.476 . S
H121 C115 0.929 . S
C122 O113 1.250 . S
C122 O114 1.258 . S
O123 Mn108 2.162 . S
O123 C111 1.281 . S
O124 Mn108 2.297 . S
O124 C111 1.236 . S
N125 Mn109 2.282 . S
N125 C126 1.328 . S
N125 C130 1.318 . S
C126 N125 1.328 . S
C126 C127 1.457 . S
C126 H131 0.929 . S
C127 C126 1.457 . S
C127 C128 1.291 . S
C127 H140 0.931 . S
C128 C127 1.291 . S
C128 C129 1.373 . S
C128 H141 0.929 . S
C129 C128 1.373 . S
C129 C130 1.396 . S
C129 C136 1.403 . S
C130 C120 1.476 . S
C130 N125 1.318 . S
C130 C129 1.396 . S
H131 C126 0.929 . S
O132 Mn108 2.385 . S
O132 C110 1.234 . S
O133 Mn108 2.209 . S
O133 Mn109 2.215 . S
O133 C110 1.283 . S
O134 Mn108 2.094 . S
O134 C112 1.240 . S
O135 Mn109 2.117 . S
O135 C112 1.264 . S
C136 C129 1.403 . S
C136 C137 1.399 . S
C136 H142 0.929 . S
C137 C117 1.449 . S
C137 C136 1.399 . S
C137 H143 0.930 . S
H138 C118 0.931 . S
H139 C119 0.930 . S
H140 C127 0.931 . S
H141 C128 0.929 . S
H142 C136 0.929 . S
H143 C137 0.930 . S
Mn144 O149 2.095 . S
Mn144 O159 2.162 . S
Mn144 O160 2.297 . S
Mn144 O168 2.385 1_455 S
Mn144 O169 2.209 1_455 S
Mn144 O170 2.094 1_455 S
Mn145 O150 2.121 1_655 S
Mn145 N152 2.257 . S
Mn145 N161 2.282 . S
Mn145 O169 2.215 . S
Mn145 O171 2.117 . S
C146 O168 1.234 . S
C146 O169 1.283 . S
C147 O159 1.281 . S
C147 O160 1.236 . S
C148 O170 1.240 . S
C148 O171 1.264 . S
O149 Mn144 2.095 . S
O149 C158 1.250 . S
O150 Mn145 2.121 1_455 S
O150 C158 1.258 . S
C151 N152 1.326 1_556 S
C151 C155 1.460 . S
C151 H157 0.929 1_655 S
N152 Mn145 2.257 . S
N152 C151 1.326 1_554 S
N152 C156 1.362 . S
C153 C154 1.258 . S
C153 C156 1.431 1_556 S
C153 C173 1.449 . S
C154 C153 1.258 . S
C154 C155 1.477 . S
C154 H174 0.931 . S
C155 C151 1.460 . S
C155 C154 1.477 . S
C155 H175 0.918 1_655 S
C156 N152 1.362 . S
C156 C153 1.431 1_554 S
C156 C166 1.476 . S
H157 C151 0.929 1_455 S
C158 O149 1.250 . S
C158 O150 1.258 . S
O159 Mn144 2.162 . S
O159 C147 1.281 . S
O160 Mn144 2.297 . S
O160 C147 1.236 . S
N161 Mn145 2.282 . S
N161 C162 1.328 . S
N161 C166 1.318 . S
C162 N161 1.328 . S
C162 C163 1.457 . S
C162 H167 0.929 . S
C163 C162 1.457 . S
C163 C164 1.291 . S
C163 H176 0.931 . S
C164 C163 1.291 . S
C164 C165 1.373 . S
C164 H177 0.929 . S
C165 C164 1.373 . S
C165 C166 1.396 . S
C165 C172 1.403 1_554 S
C166 C156 1.476 . S
C166 N161 1.318 . S
C166 C165 1.396 . S
H167 C162 0.929 . S
O168 Mn144 2.385 1_655 S
O168 C146 1.234 . S
O169 Mn144 2.209 1_655 S
O169 Mn145 2.215 . S
O169 C146 1.283 . S
O170 Mn144 2.094 1_655 S
O170 C148 1.240 . S
O171 Mn145 2.117 . S
O171 C148 1.264 . S
C172 C165 1.403 1_556 S
C172 C173 1.399 . S
C172 H178 0.929 . S
C173 C153 1.449 . S
C173 C172 1.399 . S
C173 H179 0.930 . S
H174 C154 0.931 . S
H175 C155 0.918 1_455 S
H176 C163 0.931 . S
H177 C164 0.929 . S
H178 C172 0.929 . S
H179 C173 0.930 . S
Mn180 O185 2.095 . S
Mn180 O195 2.162 . S
Mn180 O196 2.297 . S
Mn180 O204 2.385 . S
Mn180 O205 2.209 . S
Mn180 O206 2.094 . S
Mn181 O186 2.121 . S
Mn181 N188 2.257 . S
Mn181 N197 2.282 . S
Mn181 O205 2.215 . S
Mn181 O207 2.117 . S
C182 O204 1.234 . S
C182 O205 1.283 . S
C183 O195 1.281 . S
C183 O196 1.236 . S
C184 O206 1.240 . S
C184 O207 1.264 . S
O185 Mn180 2.095 . S
O185 C194 1.250 . S
O186 Mn181 2.121 . S
O186 C194 1.258 . S
C187 N188 1.326 . S
C187 C191 1.460 . S
C187 H193 0.929 . S
N188 Mn181 2.257 . S
N188 C187 1.326 . S
N188 C192 1.362 . S
C189 C190 1.258 . S
C189 C192 1.431 . S
C189 C209 1.449 . S
C190 C189 1.258 . S
C190 C191 1.477 . S
C190 H210 0.931 . S
C191 C187 1.460 . S
C191 C190 1.477 . S
C191 H211 0.930 . S
C192 N188 1.362 . S
C192 C189 1.431 . S
C192 C202 1.476 . S
H193 C187 0.929 . S
C194 O185 1.250 . S
C194 O186 1.258 . S
O195 Mn180 2.162 . S
O195 C183 1.281 . S
O196 Mn180 2.297 . S
O196 C183 1.236 . S
N197 Mn181 2.282 . S
N197 C198 1.328 . S
N197 C202 1.318 . S
C198 N197 1.328 . S
C198 C199 1.457 . S
C198 H203 0.929 . S
C199 C198 1.457 . S
C199 C200 1.291 . S
C199 H212 0.931 . S
C200 C199 1.291 . S
C200 C201 1.373 . S
C200 H213 0.929 . S
C201 C200 1.373 . S
C201 C202 1.396 . S
C201 C208 1.403 . S
C202 C192 1.476 . S
C202 N197 1.318 . S
C202 C201 1.396 . S
H203 C198 0.929 . S
O204 Mn180 2.385 . S
O204 C182 1.234 . S
O205 Mn180 2.209 . S
O205 Mn181 2.215 . S
O205 C182 1.283 . S
O206 Mn180 2.094 . S
O206 C184 1.240 . S
O207 Mn181 2.117 . S
O207 C184 1.264 . S
C208 C201 1.403 . S
C208 C209 1.399 . S
C208 H214 0.929 . S
C209 C189 1.449 . S
C209 C208 1.399 . S
C209 H215 0.930 . S
H210 C190 0.931 . S
H211 C191 0.930 . S
H212 C199 0.931 . S
H213 C200 0.929 . S
H214 C208 0.929 . S
H215 C209 0.930 . S
Mn216 O221 2.095 . S
Mn216 O231 2.162 . S
Mn216 O232 2.297 . S
Mn216 O240 2.385 . S
Mn216 O241 2.209 . S
Mn216 O242 2.094 . S
Mn217 O222 2.121 . S
Mn217 N224 2.257 . S
Mn217 N233 2.282 . S
Mn217 O241 2.215 . S
Mn217 O243 2.117 . S
C218 O240 1.234 . S
C218 O241 1.283 . S
C219 O231 1.281 . S
C219 O232 1.236 . S
C220 O242 1.240 . S
C220 O243 1.264 . S
O221 Mn216 2.095 . S
O221 C230 1.250 . S
O222 Mn217 2.121 . S
O222 C230 1.258 . S
C223 N224 1.326 . S
C223 C227 1.460 . S
C223 H229 0.929 . S
N224 Mn217 2.257 . S
N224 C223 1.326 . S
N224 C228 1.362 . S
C225 C226 1.258 . S
C225 C228 1.431 . S
C225 C245 1.449 . S
C226 C225 1.258 . S
C226 C227 1.477 . S
C226 H246 0.931 . S
C227 C223 1.460 . S
C227 C226 1.477 . S
C227 H247 0.930 . S
C228 N224 1.362 . S
C228 C225 1.431 . S
C228 C238 1.476 . S
H229 C223 0.929 . S
C230 O221 1.250 . S
C230 O222 1.258 . S
O231 Mn216 2.162 . S
O231 C219 1.281 . S
O232 Mn216 2.297 . S
O232 C219 1.236 . S
N233 Mn217 2.282 . S
N233 C234 1.328 . S
N233 C238 1.318 . S
C234 N233 1.328 . S
C234 C235 1.457 . S
C234 H239 0.929 . S
C235 C234 1.457 . S
C235 C236 1.291 . S
C235 H248 0.931 . S
C236 C235 1.291 . S
C236 C237 1.373 . S
C236 H249 0.929 . S
C237 C236 1.373 . S
C237 C238 1.396 . S
C237 C244 1.403 . S
C238 C228 1.476 . S
C238 N233 1.318 . S
C238 C237 1.396 . S
H239 C234 0.929 . S
O240 Mn216 2.385 . S
O240 C218 1.234 . S
O241 Mn216 2.209 . S
O241 Mn217 2.215 . S
O241 C218 1.283 . S
O242 Mn216 2.094 . S
O242 C220 1.240 . S
O243 Mn217 2.117 . S
O243 C220 1.264 . S
C244 C237 1.403 . S
C244 C245 1.399 . S
C244 H250 0.929 . S
C245 C225 1.449 . S
C245 C244 1.399 . S
C245 H251 0.930 . S
H246 C226 0.931 . S
H247 C227 0.930 . S
H248 C235 0.931 . S
H249 C236 0.929 . S
H250 C244 0.929 . S
H251 C245 0.930 . S
Mn252 O257 2.095 1_455 S
Mn252 O267 2.162 . S
Mn252 O268 2.297 . S
Mn252 O276 2.385 . S
Mn252 O277 2.209 . S
Mn252 O278 2.094 1_455 S
Mn253 O258 2.121 . S
Mn253 N260 2.237 1_656 S
Mn253 N269 2.282 1_655 S
Mn253 O277 2.215 1_655 S
Mn253 O279 2.117 . S
C254 O276 1.234 . S
C254 O277 1.283 . S
C255 O267 1.281 . S
C255 O268 1.236 . S
C256 O278 1.240 . S
C256 O279 1.264 . S
O257 Mn252 2.095 1_655 S
O257 C266 1.250 . S
O258 Mn253 2.121 . S
O258 C266 1.258 . S
C259 N260 1.340 1_655 S
C259 C263 1.460 1_655 S
C259 H265 0.929 . S
N260 Mn253 2.237 1_454 S
N260 C259 1.340 1_455 S
N260 C264 1.368 . S
C261 C262 1.258 . S
C261 C264 1.431 . S
C261 C281 1.449 . S
C262 C261 1.258 . S
C262 C263 1.477 . S
C262 H282 0.931 . S
C263 C259 1.460 1_455 S
C263 C262 1.477 . S
C263 H283 0.930 . S
C264 N260 1.368 . S
C264 C261 1.431 . S
C264 C274 1.476 1_554 S
H265 C259 0.929 . S
C266 O257 1.250 . S
C266 O258 1.258 . S
O267 Mn252 2.162 . S
O267 C255 1.281 . S
O268 Mn252 2.297 . S
O268 C255 1.236 . S
N269 Mn253 2.282 1_455 S
N269 C270 1.328 . S
N269 C274 1.318 . S
C270 N269 1.328 . S
C270 C271 1.457 . S
C270 H275 0.929 . S
C271 C270 1.457 . S
C271 C272 1.291 . S
C271 H284 0.931 . S
C272 C271 1.291 . S
C272 C273 1.373 . S
C272 H285 0.929 . S
C273 C272 1.373 . S
C273 C274 1.396 . S
C273 C280 1.403 1_556 S
C274 C264 1.476 1_556 S
C274 N269 1.318 . S
C274 C273 1.396 . S
H275 C270 0.929 . S
O276 Mn252 2.385 . S
O276 C254 1.234 . S
O277 Mn252 2.209 . S
O277 Mn253 2.215 1_455 S
O277 C254 1.283 . S
O278 Mn252 2.094 1_655 S
O278 C256 1.240 . S
O279 Mn253 2.117 . S
O279 C256 1.264 . S
C280 C273 1.403 1_554 S
C280 C281 1.399 . S
C280 H286 0.929 . S
C281 C261 1.449 . S
C281 C280 1.399 . S
C281 H287 0.930 . S
H282 C262 0.931 . S
H283 C263 0.930 . S
H284 C271 0.931 . S
H285 C272 0.929 . S
H286 C280 0.929 . S
H287 C281 0.930 . S
Mn288 O293 2.095 . S
Mn288 O303 2.162 . S
Mn288 O304 2.297 . S
Mn288 O312 2.385 1_545 S
Mn288 O313 2.209 1_545 S
Mn288 O314 2.094 1_545 S
Mn289 O294 2.121 1_565 S
Mn289 N296 2.257 . S
Mn289 N305 2.282 . S
Mn289 O313 2.215 . S
Mn289 O315 2.117 . S
C290 O312 1.234 . S
C290 O313 1.283 . S
C291 O303 1.281 . S
C291 O304 1.236 . S
C292 O314 1.240 . S
C292 O315 1.264 . S
O293 Mn288 2.095 . S
O293 C302 1.250 . S
O294 Mn289 2.121 1_545 S
O294 C302 1.258 . S
C295 N296 1.326 . S
C295 C299 1.460 . S
C295 H301 0.921 1_565 S
N296 Mn289 2.257 . S
N296 C295 1.326 . S
N296 C300 1.362 . S
C297 C298 1.258 . S
C297 C300 1.431 . S
C297 C317 1.449 . S
C298 C297 1.258 . S
C298 C299 1.477 . S
C298 H318 0.931 . S
C299 C295 1.460 . S
C299 C298 1.477 . S
C299 H319 0.930 . S
C300 N296 1.362 . S
C300 C297 1.431 . S
C300 C310 1.476 . S
H301 C295 0.921 1_545 S
C302 O293 1.250 . S
C302 O294 1.258 . S
O303 Mn288 2.162 . S
O303 C291 1.281 . S
O304 Mn288 2.297 . S
O304 C291 1.236 . S
N305 Mn289 2.282 . S
N305 C306 1.328 . S
N305 C310 1.318 . S
C306 N305 1.328 . S
C306 C307 1.457 . S
C306 H311 0.929 . S
C307 C306 1.457 . S
C307 C308 1.291 . S
C307 H320 0.931 . S
C308 C307 1.291 . S
C308 C309 1.373 . S
C308 H321 0.929 . S
C309 C308 1.373 . S
C309 C310 1.396 . S
C309 C316 1.403 . S
C310 C300 1.476 . S
C310 N305 1.318 . S
C310 C309 1.396 . S
H311 C306 0.929 . S
O312 Mn288 2.385 1_565 S
O312 C290 1.234 . S
O313 Mn288 2.209 1_565 S
O313 Mn289 2.215 . S
O313 C290 1.283 . S
O314 Mn288 2.094 1_565 S
O314 C292 1.240 . S
O315 Mn289 2.117 . S
O315 C292 1.264 . S
C316 C309 1.403 . S
C316 C317 1.399 . S
C316 H322 0.929 . S
C317 C297 1.449 . S
C317 C316 1.399 . S
C317 H323 0.930 . S
H318 C298 0.931 . S
H319 C299 0.930 . S
H320 C307 0.931 . S
H321 C308 0.929 . S
H322 C316 0.929 . S
H323 C317 0.930 . S
Mn324 O329 2.095 . S
Mn324 O339 2.162 . S
Mn324 O340 2.297 . S
Mn324 O348 2.385 . S
Mn324 O349 2.209 . S
Mn324 O350 2.094 . S
Mn325 O330 2.121 . S
Mn325 N332 2.257 . S
Mn325 N341 2.282 . S
Mn325 O349 2.215 . S
Mn325 O351 2.117 . S
C326 O348 1.234 . S
C326 O349 1.283 . S
C327 O339 1.281 . S
C327 O340 1.236 . S
C328 O350 1.240 . S
C328 O351 1.264 . S
O329 Mn324 2.095 . S
O329 C338 1.250 . S
O330 Mn325 2.121 . S
O330 C338 1.258 . S
C331 N332 1.326 . S
C331 C335 1.460 . S
C331 H337 0.929 . S
N332 Mn325 2.257 . S
N332 C331 1.326 . S
N332 C336 1.362 . S
C333 C334 1.258 . S
C333 C336 1.431 . S
C333 C353 1.449 . S
C334 C333 1.258 . S
C334 C335 1.477 . S
C334 H354 0.931 . S
C335 C331 1.460 . S
C335 C334 1.477 . S
C335 H355 0.930 . S
C336 N332 1.362 . S
C336 C333 1.431 . S
C336 C346 1.476 . S
H337 C331 0.929 . S
C338 O329 1.250 . S
C338 O330 1.258 . S
O339 Mn324 2.162 . S
O339 C327 1.281 . S
O340 Mn324 2.297 . S
O340 C327 1.236 . S
N341 Mn325 2.282 . S
N341 C342 1.328 . S
N341 C346 1.318 . S
C342 N341 1.328 . S
C342 C343 1.457 . S
C342 H347 0.929 . S
C343 C342 1.457 . S
C343 C344 1.291 . S
C343 H356 0.931 . S
C344 C343 1.291 . S
C344 C345 1.373 . S
C344 H357 0.929 . S
C345 C344 1.373 . S
C345 C346 1.396 . S
C345 C352 1.403 . S
C346 C336 1.476 . S
C346 N341 1.318 . S
C346 C345 1.396 . S
H347 C342 0.929 . S
O348 Mn324 2.385 . S
O348 C326 1.234 . S
O349 Mn324 2.209 . S
O349 Mn325 2.215 . S
O349 C326 1.283 . S
O350 Mn324 2.094 . S
O350 C328 1.240 . S
O351 Mn325 2.117 . S
O351 C328 1.264 . S
C352 C345 1.403 . S
C352 C353 1.399 . S
C352 H358 0.929 . S
C353 C333 1.449 . S
C353 C352 1.399 . S
C353 H359 0.930 . S
H354 C334 0.931 . S
H355 C335 0.930 . S
H356 C343 0.931 . S
H357 C344 0.929 . S
H358 C352 0.929 . S
H359 C353 0.930 . S
Mn360 O365 2.095 . S
Mn360 O375 2.162 . S
Mn360 O376 2.297 . S
Mn360 O384 2.385 1_545 S
Mn360 O385 2.209 1_545 S
Mn360 O386 2.094 1_545 S
Mn361 O366 2.121 1_565 S
Mn361 N368 2.257 . S
Mn361 N377 2.282 . S
Mn361 O385 2.215 . S
Mn361 O387 2.117 . S
C362 O384 1.234 . S
C362 O385 1.283 . S
C363 O375 1.281 . S
C363 O376 1.236 . S
C364 O386 1.240 . S
C364 O387 1.264 . S
O365 Mn360 2.095 . S
O365 C374 1.250 . S
O366 Mn361 2.121 1_545 S
O366 C374 1.258 . S
C367 N368 1.326 . S
C367 C371 1.460 . S
C367 H373 0.929 . S
N368 Mn361 2.257 . S
N368 C367 1.326 . S
N368 C372 1.362 . S
C369 C370 1.258 . S
C369 C372 1.431 . S
C369 C389 1.449 . S
C370 C369 1.258 . S
C370 C371 1.477 . S
C370 H390 0.931 . S
C371 C367 1.460 . S
C371 C370 1.477 . S
C371 H391 0.930 . S
C372 N368 1.362 . S
C372 C369 1.431 . S
C372 C382 1.476 . S
H373 C367 0.929 . S
C374 O365 1.250 . S
C374 O366 1.258 . S
O375 Mn360 2.162 . S
O375 C363 1.281 . S
O376 Mn360 2.297 . S
O376 C363 1.236 . S
N377 Mn361 2.282 . S
N377 C378 1.328 . S
N377 C382 1.318 . S
C378 N377 1.328 . S
C378 C379 1.457 . S
C378 H383 0.929 . S
C379 C378 1.457 . S
C379 C380 1.291 . S
C379 H392 0.931 . S
C380 C379 1.291 . S
C380 C381 1.373 . S
C380 H393 0.929 . S
C381 C380 1.373 . S
C381 C382 1.396 . S
C381 C388 1.403 . S
C382 C372 1.476 . S
C382 N377 1.318 . S
C382 C381 1.396 . S
H383 C378 0.929 . S
O384 Mn360 2.385 1_565 S
O384 C362 1.234 . S
O385 Mn360 2.209 1_565 S
O385 Mn361 2.215 . S
O385 C362 1.283 . S
O386 Mn360 2.094 1_565 S
O386 C364 1.240 . S
O387 Mn361 2.117 . S
O387 C364 1.264 . S
C388 C381 1.403 . S
C388 C389 1.399 . S
C388 H394 0.929 . S
C389 C369 1.449 . S
C389 C388 1.399 . S
C389 H395 0.930 . S
H390 C370 0.931 . S
H391 C371 0.930 . S
H392 C379 0.931 . S
H393 C380 0.929 . S
H394 C388 0.929 . S
H395 C389 0.930 . S
Mn396 O401 2.095 1_554 S
Mn396 O411 2.162 . S
Mn396 O412 2.297 . S
Mn396 O420 2.385 . S
Mn396 O421 2.209 . S
Mn396 O422 2.094 1_554 S
Mn397 O402 2.121 . S
Mn397 N404 2.257 . S
Mn397 N413 2.282 . S
Mn397 O421 2.215 1_556 S
Mn397 O423 2.117 . S
C398 O420 1.234 . S
C398 O421 1.283 . S
C399 O411 1.281 . S
C399 O412 1.236 . S
C400 O422 1.240 . S
C400 O423 1.264 . S
O401 Mn396 2.095 1_556 S
O401 C410 1.250 . S
O402 Mn397 2.121 . S
O402 C410 1.258 . S
C403 N404 1.326 . S
C403 C407 1.460 . S
C403 H409 0.929 . S
N404 Mn397 2.257 . S
N404 C403 1.326 . S
N404 C408 1.362 . S
C405 C406 1.258 . S
C405 C408 1.431 . S
C405 C425 1.449 . S
C406 C405 1.258 . S
C406 C407 1.477 . S
C406 H426 0.931 . S
C407 C403 1.460 . S
C407 C406 1.477 . S
C407 H427 0.930 . S
C408 N404 1.362 . S
C408 C405 1.431 . S
C408 C418 1.476 . S
H409 C403 0.929 . S
C410 O401 1.250 . S
C410 O402 1.258 . S
O411 Mn396 2.162 . S
O411 C399 1.281 . S
O412 Mn396 2.297 . S
O412 C399 1.236 . S
N413 Mn397 2.282 . S
N413 C414 1.328 . S
N413 C418 1.318 . S
C414 N413 1.328 . S
C414 C415 1.457 . S
C414 H419 0.929 . S
C415 C414 1.457 . S
C415 C416 1.291 . S
C415 H428 0.931 . S
C416 C415 1.291 . S
C416 C417 1.373 . S
C416 H429 0.929 . S
C417 C416 1.373 . S
C417 C418 1.396 . S
C417 C424 1.403 . S
C418 C408 1.476 . S
C418 N413 1.318 . S
C418 C417 1.396 . S
H419 C414 0.929 . S
O420 Mn396 2.385 . S
O420 C398 1.234 . S
O421 Mn396 2.209 . S
O421 Mn397 2.215 1_554 S
O421 C398 1.283 . S
O422 Mn396 2.094 1_556 S
O422 C400 1.240 . S
O423 Mn397 2.117 . S
O423 C400 1.264 . S
C424 C417 1.403 . S
C424 C425 1.399 . S
C424 H430 0.929 . S
C425 C405 1.449 . S
C425 C424 1.399 . S
C425 H431 0.930 . S
H426 C406 0.931 . S
H427 C407 0.930 . S
H428 C415 0.931 . S
H429 C416 0.929 . S
H430 C424 0.929 . S
H431 C425 0.930 . S
Mn432 O437 2.095 . S
Mn432 O447 2.162 . S
Mn432 O448 2.297 . S
Mn432 O456 2.385 1_554 S
Mn432 O457 2.209 1_554 S
Mn432 O458 2.094 1_554 S
Mn433 O438 2.114 1_556 S
Mn433 N440 2.257 . S
Mn433 N449 2.282 . S
Mn433 O457 2.215 . S
Mn433 O459 2.117 . S
C434 O456 1.234 . S
C434 O457 1.283 . S
C435 O447 1.281 . S
C435 O448 1.236 . S
C436 O458 1.240 . S
C436 O459 1.264 . S
O437 Mn432 2.095 . S
O437 C446 1.250 . S
O438 Mn433 2.114 1_554 S
O438 C446 1.264 . S
C439 N440 1.326 . S
C439 C443 1.460 . S
C439 H445 0.929 . S
N440 Mn433 2.257 . S
N440 C439 1.326 . S
N440 C444 1.362 . S
C441 C442 1.258 . S
C441 C444 1.431 . S
C441 C461 1.449 . S
C442 C441 1.258 . S
C442 C443 1.477 . S
C442 H462 0.931 . S
C443 C439 1.460 . S
C443 C442 1.477 . S
C443 H463 0.930 . S
C444 N440 1.362 . S
C444 C441 1.431 . S
C444 C454 1.476 . S
H445 C439 0.929 . S
C446 O437 1.250 . S
C446 O438 1.264 . S
O447 Mn432 2.162 . S
O447 C435 1.281 . S
O448 Mn432 2.297 . S
O448 C435 1.236 . S
N449 Mn433 2.282 . S
N449 C450 1.328 . S
N449 C454 1.318 . S
C450 N449 1.328 . S
C450 C451 1.457 . S
C450 H455 0.929 . S
C451 C450 1.457 . S
C451 C452 1.291 . S
C451 H464 0.931 . S
C452 C451 1.291 . S
C452 C453 1.373 . S
C452 H465 0.929 . S
C453 C452 1.373 . S
C453 C454 1.396 . S
C453 C460 1.403 . S
C454 C444 1.476 . S
C454 N449 1.318 . S
C454 C453 1.396 . S
H455 C450 0.929 . S
O456 Mn432 2.385 1_556 S
O456 C434 1.234 . S
O457 Mn432 2.209 1_556 S
O457 Mn433 2.215 . S
O457 C434 1.283 . S
O458 Mn432 2.094 1_556 S
O458 C436 1.240 . S
O459 Mn433 2.117 . S
O459 C436 1.264 . S
C460 C453 1.403 . S
C460 C461 1.399 . S
C460 H466 0.929 . S
C461 C441 1.449 . S
C461 C460 1.399 . S
C461 H467 0.930 . S
H462 C442 0.931 . S
H463 C443 0.930 . S
H464 C451 0.931 . S
H465 C452 0.929 . S
H466 C460 0.929 . S
H467 C461 0.930 . S
Mn468 O473 2.095 . S
Mn468 O483 2.162 . S
Mn468 O484 2.297 . S
Mn468 O492 2.385 1_554 S
Mn468 O493 2.209 1_554 S
Mn468 O494 2.094 1_554 S
Mn469 O474 2.121 1_556 S
Mn469 N476 2.257 . S
Mn469 N485 2.282 . S
Mn469 O493 2.215 . S
Mn469 O495 2.117 . S
C470 O492 1.234 . S
C470 O493 1.283 . S
C471 O483 1.281 . S
C471 O484 1.236 . S
C472 O494 1.240 . S
C472 O495 1.264 . S
O473 Mn468 2.095 . S
O473 C482 1.250 . S
O474 Mn469 2.121 1_554 S
O474 C482 1.258 . S
C475 N476 1.325 . S
C475 C479 1.461 1_545 S
C475 H481 0.929 1_556 S
N476 Mn469 2.257 . S
N476 C475 1.325 . S
N476 C480 1.362 . S
C477 C478 1.258 . S
C477 C480 1.431 1_565 S
C477 C497 1.449 . S
C478 C477 1.258 . S
C478 C479 1.477 . S
C478 H498 0.931 . S
C479 C475 1.461 1_565 S
C479 C478 1.477 . S
C479 H499 0.929 . S
C480 N476 1.362 . S
C480 C477 1.431 1_545 S
C480 C490 1.476 . S
H481 C475 0.929 1_554 S
C482 O473 1.250 . S
C482 O474 1.258 . S
O483 Mn468 2.162 . S
O483 C471 1.281 . S
O484 Mn468 2.297 . S
O484 C471 1.236 . S
N485 Mn469 2.282 . S
N485 C486 1.328 . S
N485 C490 1.318 . S
C486 N485 1.328 . S
C486 C487 1.457 . S
C486 H491 0.929 . S
C487 C486 1.457 . S
C487 C488 1.291 . S
C487 H500 0.931 . S
C488 C487 1.291 . S
C488 C489 1.373 . S
C488 H501 0.929 . S
C489 C488 1.373 . S
C489 C490 1.396 . S
C489 C496 1.403 1_545 S
C490 C480 1.476 . S
C490 N485 1.318 . S
C490 C489 1.396 . S
H491 C486 0.929 . S
O492 Mn468 2.385 1_556 S
O492 C470 1.234 . S
O493 Mn468 2.209 1_556 S
O493 Mn469 2.215 . S
O493 C470 1.283 . S
O494 Mn468 2.094 1_556 S
O494 C472 1.240 . S
O495 Mn469 2.117 . S
O495 C472 1.264 . S
C496 C489 1.403 1_565 S
C496 C497 1.399 . S
C496 H502 0.929 . S
C497 C477 1.449 . S
C497 C496 1.399 . S
C497 H503 0.930 . S
H498 C478 0.931 . S
H499 C479 0.929 . S
H500 C487 0.931 . S
H501 C488 0.929 . S
H502 C496 0.929 . S
H503 C497 0.930 . S
Mn504 O509 2.095 . S
Mn504 O519 2.162 . S
Mn504 O520 2.297 . S
Mn504 O528 2.385 . S
Mn504 O529 2.209 . S
Mn504 O530 2.094 . S
Mn505 O510 2.121 . S
Mn505 N512 2.257 . S
Mn505 N521 2.282 . S
Mn505 O529 2.215 . S
Mn505 O531 2.117 . S
C506 O528 1.234 . S
C506 O529 1.283 . S
C507 O519 1.281 . S
C507 O520 1.236 . S
C508 O530 1.240 . S
C508 O531 1.264 . S
O509 Mn504 2.095 . S
O509 C518 1.250 . S
O510 Mn505 2.121 . S
O510 C518 1.258 . S
C511 N512 1.326 1_655 S
C511 C515 1.460 . S
C511 H517 0.929 . S
N512 Mn505 2.257 . S
N512 C511 1.326 1_455 S
N512 C516 1.362 . S
C513 C514 1.258 . S
C513 C516 1.431 1_655 S
C513 C533 1.449 . S
C514 C513 1.258 . S
C514 C515 1.477 . S
C514 H534 0.931 . S
C515 C511 1.460 . S
C515 C514 1.477 . S
C515 H535 0.930 . S
C516 N512 1.362 . S
C516 C513 1.431 1_455 S
C516 C526 1.476 . S
H517 C511 0.929 . S
C518 O509 1.250 . S
C518 O510 1.258 . S
O519 Mn504 2.162 . S
O519 C507 1.281 . S
O520 Mn504 2.297 . S
O520 C507 1.236 . S
N521 Mn505 2.282 . S
N521 C522 1.328 . S
N521 C526 1.318 . S
C522 N521 1.328 . S
C522 C523 1.457 . S
C522 H527 0.929 . S
C523 C522 1.457 . S
C523 C524 1.291 . S
C523 H536 0.931 . S
C524 C523 1.291 . S
C524 C525 1.373 . S
C524 H537 0.929 . S
C525 C524 1.373 . S
C525 C526 1.396 . S
C525 C532 1.403 1_455 S
C526 C516 1.476 . S
C526 N521 1.318 . S
C526 C525 1.396 . S
H527 C522 0.929 . S
O528 Mn504 2.385 . S
O528 C506 1.234 . S
O529 Mn504 2.209 . S
O529 Mn505 2.215 . S
O529 C506 1.283 . S
O530 Mn504 2.094 . S
O530 C508 1.240 . S
O531 Mn505 2.117 . S
O531 C508 1.264 . S
C532 C525 1.403 1_655 S
C532 C533 1.399 . S
C532 H538 0.929 . S
C533 C513 1.449 . S
C533 C532 1.399 . S
C533 H539 0.930 . S
H534 C514 0.931 . S
H535 C515 0.930 . S
H536 C523 0.931 . S
H537 C524 0.929 . S
H538 C532 0.929 . S
H539 C533 0.930 . S
Mn540 O545 2.095 . S
Mn540 O555 2.162 . S
Mn540 O556 2.297 . S
Mn540 O564 2.385 . S
Mn540 O565 2.209 . S
Mn540 O566 2.094 . S
Mn541 O546 2.121 . S
Mn541 N548 2.257 . S
Mn541 N557 2.282 . S
Mn541 O565 2.215 . S
Mn541 O567 2.117 . S
C542 O564 1.234 . S
C542 O565 1.283 . S
C543 O555 1.281 . S
C543 O556 1.236 . S
C544 O566 1.240 . S
C544 O567 1.264 . S
O545 Mn540 2.095 . S
O545 C554 1.250 . S
O546 Mn541 2.121 . S
O546 C554 1.258 . S
C547 N548 1.326 . S
C547 C551 1.460 . S
C547 H553 0.929 . S
N548 Mn541 2.257 . S
N548 C547 1.326 . S
N548 C552 1.362 . S
C549 C550 1.258 . S
C549 C552 1.431 . S
C549 C569 1.449 . S
C550 C549 1.258 . S
C550 C551 1.477 . S
C550 H570 0.931 . S
C551 C547 1.460 . S
C551 C550 1.477 . S
C551 H571 0.930 . S
C552 N548 1.362 . S
C552 C549 1.431 . S
C552 C562 1.476 . S
H553 C547 0.929 . S
C554 O545 1.250 . S
C554 O546 1.258 . S
O555 Mn540 2.162 . S
O555 C543 1.281 . S
O556 Mn540 2.297 . S
O556 C543 1.236 . S
N557 Mn541 2.282 . S
N557 C558 1.328 . S
N557 C562 1.318 . S
C558 N557 1.328 . S
C558 C559 1.457 . S
C558 H563 0.929 . S
C559 C558 1.457 . S
C559 C560 1.291 . S
C559 H572 0.931 . S
C560 C559 1.291 . S
C560 C561 1.373 . S
C560 H573 0.929 . S
C561 C560 1.373 . S
C561 C562 1.396 . S
C561 C568 1.403 . S
C562 C552 1.476 . S
C562 N557 1.318 . S
C562 C561 1.396 . S
H563 C558 0.929 . S
O564 Mn540 2.385 . S
O564 C542 1.234 . S
O565 Mn540 2.209 . S
O565 Mn541 2.215 . S
O565 C542 1.283 . S
O566 Mn540 2.094 . S
O566 C544 1.240 . S
O567 Mn541 2.117 . S
O567 C544 1.264 . S
C568 C561 1.403 . S
C568 C569 1.399 . S
C568 H574 0.929 . S
C569 C549 1.449 . S
C569 C568 1.399 . S
C569 H575 0.930 . S
H570 C550 0.931 . S
H571 C551 0.930 . S
H572 C559 0.931 . S
H573 C560 0.929 . S
H574 C568 0.929 . S
H575 C569 0.930 . S
Mn576 O581 2.095 1_545 S
Mn576 O591 2.162 . S
Mn576 O592 2.297 . S
Mn576 O600 2.385 . S
Mn576 O601 2.209 . S
Mn576 O602 2.094 1_545 S
Mn577 O582 2.121 . S
Mn577 N584 2.257 1_665 S
Mn577 N593 2.282 1_565 S
Mn577 O601 2.215 1_565 S
Mn577 O603 2.117 . S
C578 O600 1.234 . S
C578 O601 1.283 . S
C579 O591 1.281 . S
C579 O592 1.236 . S
C580 O602 1.240 . S
C580 O603 1.264 . S
O581 Mn576 2.095 1_565 S
O581 C590 1.250 . S
O582 Mn577 2.121 . S
O582 C590 1.258 . S
C583 N584 1.326 1_565 S
C583 C587 1.460 1_565 S
C583 H589 0.929 . S
N584 Mn577 2.257 1_445 S
N584 C583 1.326 1_545 S
N584 C588 1.362 . S
C585 C586 1.258 . S
C585 C588 1.431 . S
C585 C605 1.449 . S
C586 C585 1.258 . S
C586 C587 1.477 . S
C586 H606 0.931 . S
C587 C583 1.460 1_545 S
C587 C586 1.477 . S
C587 H607 0.930 1_545 S
C588 N584 1.362 . S
C588 C585 1.431 . S
C588 C598 1.476 1_455 S
H589 C583 0.929 . S
C590 O581 1.250 . S
C590 O582 1.258 . S
O591 Mn576 2.162 . S
O591 C579 1.281 . S
O592 Mn576 2.297 . S
O592 C579 1.236 . S
N593 Mn577 2.282 1_545 S
N593 C594 1.328 . S
N593 C598 1.318 . S
C594 N593 1.328 . S
C594 C595 1.457 . S
C594 H599 0.929 . S
C595 C594 1.457 . S
C595 C596 1.291 . S
C595 H608 0.931 . S
C596 C595 1.291 . S
C596 C597 1.373 . S
C596 H609 0.929 . S
C597 C596 1.373 . S
C597 C598 1.396 . S
C597 C604 1.403 1_655 S
C598 C588 1.476 1_655 S
C598 N593 1.318 . S
C598 C597 1.396 . S
H599 C594 0.929 . S
O600 Mn576 2.385 . S
O600 C578 1.234 . S
O601 Mn576 2.209 . S
O601 Mn577 2.215 1_545 S
O601 C578 1.283 . S
O602 Mn576 2.094 1_565 S
O602 C580 1.240 . S
O603 Mn577 2.117 . S
O603 C580 1.264 . S
C604 C597 1.403 1_455 S
C604 C605 1.399 . S
C604 H610 0.929 . S
C605 C585 1.449 . S
C605 C604 1.399 . S
C605 H611 0.930 . S
H606 C586 0.931 . S
H607 C587 0.930 1_565 S
H608 C595 0.931 . S
H609 C596 0.929 . S
H610 C604 0.929 . S
H611 C605 0.930 . S
Mn612 O617 2.095 . S
Mn612 O627 2.162 . S
Mn612 O628 2.297 . S
Mn612 O636 2.385 . S
Mn612 O637 2.209 . S
Mn612 O638 2.094 . S
Mn613 O618 2.121 . S
Mn613 N620 2.257 . S
Mn613 N629 2.282 . S
Mn613 O637 2.215 . S
Mn613 O639 2.117 . S
C614 O636 1.234 . S
C614 O637 1.283 . S
C615 O627 1.281 . S
C615 O628 1.236 . S
C616 O638 1.240 . S
C616 O639 1.264 . S
O617 Mn612 2.095 . S
O617 C626 1.250 . S
O618 Mn613 2.121 . S
O618 C626 1.258 . S
C619 N620 1.326 . S
C619 C623 1.460 . S
C619 H625 0.929 . S
N620 Mn613 2.257 . S
N620 C619 1.326 . S
N620 C624 1.362 . S
C621 C622 1.258 . S
C621 C624 1.431 . S
C621 C641 1.449 . S
C622 C621 1.258 . S
C622 C623 1.477 . S
C622 H642 0.931 . S
C623 C619 1.460 . S
C623 C622 1.477 . S
C623 H643 0.930 . S
C624 N620 1.362 . S
C624 C621 1.431 . S
C624 C634 1.476 . S
H625 C619 0.929 . S
C626 O617 1.250 . S
C626 O618 1.258 . S
O627 Mn612 2.162 . S
O627 C615 1.281 . S
O628 Mn612 2.297 . S
O628 C615 1.236 . S
N629 Mn613 2.282 . S
N629 C630 1.328 . S
N629 C634 1.318 . S
C630 N629 1.328 . S
C630 C631 1.457 . S
C630 H635 0.929 . S
C631 C630 1.457 . S
C631 C632 1.291 . S
C631 H644 0.931 . S
C632 C631 1.291 . S
C632 C633 1.373 . S
C632 H645 0.929 . S
C633 C632 1.373 . S
C633 C634 1.396 . S
C633 C640 1.403 . S
C634 C624 1.476 . S
C634 N629 1.318 . S
C634 C633 1.396 . S
H635 C630 0.929 . S
O636 Mn612 2.385 . S
O636 C614 1.234 . S
O637 Mn612 2.209 . S
O637 Mn613 2.215 . S
O637 C614 1.283 . S
O638 Mn612 2.094 . S
O638 C616 1.240 . S
O639 Mn613 2.117 . S
O639 C616 1.264 . S
C640 C633 1.403 . S
C640 C641 1.399 . S
C640 H646 0.929 . S
C641 C621 1.449 . S
C641 C640 1.399 . S
C641 H647 0.930 . S
H642 C622 0.931 . S
H643 C623 0.930 . S
H644 C631 0.931 . S
H645 C632 0.929 . S
H646 C640 0.929 . S
H647 C641 0.930 . S
Mn648 O653 2.095 . S
Mn648 O663 2.162 . S
Mn648 O664 2.297 . S
Mn648 O672 2.385 . S
Mn648 O673 2.209 . S
Mn648 O674 2.094 . S
Mn649 O654 2.121 . S
Mn649 N656 2.257 . S
Mn649 N665 2.282 . S
Mn649 O673 2.215 . S
Mn649 O675 2.117 . S
C650 O672 1.234 . S
C650 O673 1.283 . S
C651 O663 1.281 . S
C651 O664 1.236 . S
C652 O674 1.240 . S
C652 O675 1.264 . S
O653 Mn648 2.095 . S
O653 C662 1.250 . S
O654 Mn649 2.121 . S
O654 C662 1.258 . S
C655 N656 1.326 . S
C655 C659 1.460 . S
C655 H661 0.929 . S
N656 Mn649 2.257 . S
N656 C655 1.326 . S
N656 C660 1.362 . S
C657 C658 1.258 . S
C657 C660 1.431 . S
C657 C677 1.449 . S
C658 C657 1.258 . S
C658 C659 1.477 . S
C658 H678 0.931 . S
C659 C655 1.460 . S
C659 C658 1.477 . S
C659 H679 0.930 . S
C660 N656 1.362 . S
C660 C657 1.431 . S
C660 C670 1.476 . S
H661 C655 0.929 . S
C662 O653 1.250 . S
C662 O654 1.258 . S
O663 Mn648 2.162 . S
O663 C651 1.281 . S
O664 Mn648 2.297 . S
O664 C651 1.236 . S
N665 Mn649 2.282 . S
N665 C666 1.328 . S
N665 C670 1.318 . S
C666 N665 1.328 . S
C666 C667 1.457 . S
C666 H671 0.929 . S
C667 C666 1.457 . S
C667 C668 1.291 . S
C667 H680 0.931 . S
C668 C667 1.291 . S
C668 C669 1.373 . S
C668 H681 0.929 . S
C669 C668 1.373 . S
C669 C670 1.396 . S
C669 C676 1.403 . S
C670 C660 1.476 . S
C670 N665 1.318 . S
C670 C669 1.396 . S
H671 C666 0.929 . S
O672 Mn648 2.385 . S
O672 C650 1.234 . S
O673 Mn648 2.209 . S
O673 Mn649 2.215 . S
O673 C650 1.283 . S
O674 Mn648 2.094 . S
O674 C652 1.240 . S
O675 Mn649 2.117 . S
O675 C652 1.264 . S
C676 C669 1.403 . S
C676 C677 1.399 . S
C676 H682 0.929 . S
C677 C657 1.449 . S
C677 C676 1.399 . S
C677 H683 0.930 . S
H678 C658 0.931 . S
H679 C659 0.930 . S
H680 C667 0.931 . S
H681 C668 0.929 . S
H682 C676 0.929 . S
H683 C677 0.930 . S
Mn684 O689 2.095 . S
Mn684 O699 2.162 1_545 S
Mn684 O700 2.297 1_545 S
Mn684 O708 2.385 1_545 S
Mn684 O709 2.209 1_545 S
Mn684 O710 2.094 . S
Mn685 O690 2.121 . S
Mn685 N692 2.257 . S
Mn685 N701 2.282 1_545 S
Mn685 O709 2.215 1_545 S
Mn685 O711 2.117 . S
C686 O708 1.234 . S
C686 O709 1.283 . S
C687 O699 1.281 . S
C687 O700 1.236 . S
C688 O710 1.240 . S
C688 O711 1.264 . S
O689 Mn684 2.095 . S
O689 C698 1.250 . S
O690 Mn685 2.121 . S
O690 C698 1.258 . S
C691 N692 1.326 . S
C691 C695 1.460 . S
C691 H697 0.929 . S
N692 Mn685 2.257 . S
N692 C691 1.326 . S
N692 C696 1.362 1_545 S
C693 C694 1.258 . S
C693 C696 1.431 . S
C693 C713 1.449 . S
C694 C693 1.258 . S
C694 C695 1.477 1_565 S
C694 H714 0.931 . S
C695 C691 1.460 . S
C695 C694 1.477 1_545 S
C695 H715 0.930 . S
C696 N692 1.362 1_565 S
C696 C693 1.431 . S
C696 C706 1.476 . S
H697 C691 0.929 . S
C698 O689 1.250 . S
C698 O690 1.258 . S
O699 Mn684 2.162 1_565 S
O699 C687 1.281 . S
O700 Mn684 2.297 1_565 S
O700 C687 1.236 . S
N701 Mn685 2.282 1_565 S
N701 C702 1.328 . S
N701 C706 1.318 . S
C702 N701 1.328 . S
C702 C703 1.457 . S
C702 H707 0.929 . S
C703 C702 1.457 . S
C703 C704 1.291 . S
C703 H716 0.931 . S
C704 C703 1.291 . S
C704 C705 1.373 . S
C704 H717 0.929 . S
C705 C704 1.373 . S
C705 C706 1.396 . S
C705 C712 1.403 . S
C706 C696 1.476 . S
C706 N701 1.318 . S
C706 C705 1.396 . S
H707 C702 0.929 . S
O708 Mn684 2.385 1_565 S
O708 C686 1.234 . S
O709 Mn684 2.209 1_565 S
O709 Mn685 2.215 1_565 S
O709 C686 1.283 . S
O710 Mn684 2.094 . S
O710 C688 1.240 . S
O711 Mn685 2.117 . S
O711 C688 1.264 . S
C712 C705 1.403 . S
C712 C713 1.399 . S
C712 H718 0.929 . S
C713 C693 1.449 . S
C713 C712 1.399 . S
C713 H719 0.930 . S
H714 C694 0.931 . S
H715 C695 0.930 . S
H716 C703 0.931 . S
H717 C704 0.929 . S
H718 C712 0.929 . S
H719 C713 0.930 . S
Mn720 O725 2.095 1_554 S
Mn720 O735 2.162 . S
Mn720 O736 2.297 . S
Mn720 O744 2.385 . S
Mn720 O745 2.209 . S
Mn720 O746 2.094 1_554 S
Mn721 O726 2.121 . S
Mn721 N728 2.257 . S
Mn721 N737 2.282 . S
Mn721 O745 2.215 1_556 S
Mn721 O747 2.117 . S
C722 O744 1.234 . S
C722 O745 1.283 . S
C723 O735 1.281 . S
C723 O736 1.236 . S
C724 O746 1.240 . S
C724 O747 1.264 . S
O725 Mn720 2.095 1_556 S
O725 C734 1.250 . S
O726 Mn721 2.121 . S
O726 C734 1.258 . S
C727 N728 1.326 . S
C727 C731 1.460 . S
C727 H733 0.929 . S
N728 Mn721 2.257 . S
N728 C727 1.326 . S
N728 C732 1.362 . S
C729 C730 1.258 . S
C729 C732 1.431 . S
C729 C749 1.449 . S
C730 C729 1.258 . S
C730 C731 1.477 . S
C730 H750 0.931 . S
C731 C727 1.460 . S
C731 C730 1.477 . S
C731 H751 0.930 . S
C732 N728 1.362 . S
C732 C729 1.431 . S
C732 C742 1.476 . S
H733 C727 0.929 . S
C734 O725 1.250 . S
C734 O726 1.258 . S
O735 Mn720 2.162 . S
O735 C723 1.281 . S
O736 Mn720 2.297 . S
O736 C723 1.236 . S
N737 Mn721 2.282 . S
N737 C738 1.328 . S
N737 C742 1.318 . S
C738 N737 1.328 . S
C738 C739 1.457 . S
C738 H743 0.929 . S
C739 C738 1.457 . S
C739 C740 1.291 . S
C739 H752 0.931 . S
C740 C739 1.291 . S
C740 C741 1.373 . S
C740 H753 0.929 . S
C741 C740 1.373 . S
C741 C742 1.396 . S
C741 C748 1.403 . S
C742 C732 1.476 . S
C742 N737 1.318 . S
C742 C741 1.396 . S
H743 C738 0.929 . S
O744 Mn720 2.385 . S
O744 C722 1.234 . S
O745 Mn720 2.209 . S
O745 Mn721 2.215 1_554 S
O745 C722 1.283 . S
O746 Mn720 2.094 1_556 S
O746 C724 1.240 . S
O747 Mn721 2.117 . S
O747 C724 1.264 . S
C748 C741 1.403 . S
C748 C749 1.399 . S
C748 H754 0.929 . S
C749 C729 1.449 . S
C749 C748 1.399 . S
C749 H755 0.930 . S
H750 C730 0.931 . S
H751 C731 0.930 . S
H752 C739 0.931 . S
H753 C740 0.929 . S
H754 C748 0.929 . S
H755 C749 0.930 . S
Mn756 O761 2.095 . S
Mn756 O771 2.162 . S
Mn756 O772 2.297 . S
Mn756 O780 2.385 . S
Mn756 O781 2.209 . S
Mn756 O782 2.094 . S
Mn757 O762 2.121 . S
Mn757 N764 2.257 . S
Mn757 N773 2.282 . S
Mn757 O781 2.215 . S
Mn757 O783 2.117 . S
C758 O780 1.234 . S
C758 O781 1.283 . S
C759 O771 1.281 . S
C759 O772 1.236 . S
C760 O782 1.240 . S
C760 O783 1.264 . S
O761 Mn756 2.095 . S
O761 C770 1.250 . S
O762 Mn757 2.121 . S
O762 C770 1.258 . S
C763 N764 1.326 . S
C763 C767 1.460 . S
C763 H769 0.929 . S
N764 Mn757 2.257 . S
N764 C763 1.326 . S
N764 C768 1.362 . S
C765 C766 1.258 . S
C765 C768 1.431 . S
C765 C785 1.449 . S
C766 C765 1.258 . S
C766 C767 1.477 . S
C766 H786 0.931 . S
C767 C763 1.460 . S
C767 C766 1.477 . S
C767 H787 0.930 . S
C768 N764 1.362 . S
C768 C765 1.431 . S
C768 C778 1.476 . S
H769 C763 0.929 . S
C770 O761 1.250 . S
C770 O762 1.258 . S
O771 Mn756 2.162 . S
O771 C759 1.281 . S
O772 Mn756 2.297 . S
O772 C759 1.236 . S
N773 Mn757 2.282 . S
N773 C774 1.328 . S
N773 C778 1.318 . S
C774 N773 1.328 . S
C774 C775 1.457 . S
C774 H779 0.929 . S
C775 C774 1.457 . S
C775 C776 1.291 . S
C775 H788 0.931 . S
C776 C775 1.291 . S
C776 C777 1.373 . S
C776 H789 0.929 . S
C777 C776 1.373 . S
C777 C778 1.396 . S
C777 C784 1.403 . S
C778 C768 1.476 . S
C778 N773 1.318 . S
C778 C777 1.396 . S
H779 C774 0.929 . S
O780 Mn756 2.385 . S
O780 C758 1.234 . S
O781 Mn756 2.209 . S
O781 Mn757 2.215 . S
O781 C758 1.283 . S
O782 Mn756 2.094 . S
O782 C760 1.240 . S
O783 Mn757 2.117 . S
O783 C760 1.264 . S
C784 C777 1.403 . S
C784 C785 1.399 . S
C784 H790 0.929 . S
C785 C765 1.449 . S
C785 C784 1.399 . S
C785 H791 0.930 . S
H786 C766 0.931 . S
H787 C767 0.930 . S
H788 C775 0.931 . S
H789 C776 0.929 . S
H790 C784 0.929 . S
H791 C785 0.930 . S
Mn792 O797 2.095 . S
Mn792 O807 2.162 . S
Mn792 O808 2.297 . S
Mn792 O816 2.385 . S
Mn792 O817 2.209 . S
Mn792 O818 2.094 . S
Mn793 O798 2.121 . S
Mn793 N800 2.257 . S
Mn793 N809 2.282 . S
Mn793 O817 2.215 . S
Mn793 O819 2.117 . S
C794 O816 1.234 . S
C794 O817 1.283 . S
C795 O807 1.281 . S
C795 O808 1.236 . S
C796 O818 1.240 . S
C796 O819 1.264 . S
O797 Mn792 2.095 . S
O797 C806 1.250 . S
O798 Mn793 2.121 . S
O798 C806 1.258 . S
C799 N800 1.326 . S
C799 C803 1.460 . S
C799 H805 0.929 . S
N800 Mn793 2.257 . S
N800 C799 1.326 . S
N800 C804 1.362 . S
C801 C802 1.258 . S
C801 C804 1.431 . S
C801 C821 1.449 . S
C802 C801 1.258 . S
C802 C803 1.477 . S
C802 H822 0.931 . S
C803 C799 1.460 . S
C803 C802 1.477 . S
C803 H823 0.930 . S
C804 N800 1.362 . S
C804 C801 1.431 . S
C804 C814 1.476 . S
H805 C799 0.929 . S
C806 O797 1.250 . S
C806 O798 1.258 . S
O807 Mn792 2.162 . S
O807 C795 1.281 . S
O808 Mn792 2.297 . S
O808 C795 1.236 . S
N809 Mn793 2.282 . S
N809 C810 1.328 . S
N809 C814 1.318 . S
C810 N809 1.328 . S
C810 C811 1.457 . S
C810 H815 0.929 . S
C811 C810 1.457 . S
C811 C812 1.291 . S
C811 H824 0.931 . S
C812 C811 1.291 . S
C812 C813 1.373 . S
C812 H825 0.929 . S
C813 C812 1.373 . S
C813 C814 1.396 . S
C813 C820 1.403 . S
C814 C804 1.476 . S
C814 N809 1.318 . S
C814 C813 1.396 . S
H815 C810 0.929 . S
O816 Mn792 2.385 . S
O816 C794 1.234 . S
O817 Mn792 2.209 . S
O817 Mn793 2.215 . S
O817 C794 1.283 . S
O818 Mn792 2.094 . S
O818 C796 1.240 . S
O819 Mn793 2.117 . S
O819 C796 1.264 . S
C820 C813 1.403 . S
C820 C821 1.399 . S
C820 H826 0.929 . S
C821 C801 1.449 . S
C821 C820 1.399 . S
C821 H827 0.930 . S
H822 C802 0.931 . S
H823 C803 0.930 . S
H824 C811 0.931 . S
H825 C812 0.929 . S
H826 C820 0.929 . S
H827 C821 0.930 . S
Mn828 O833 2.095 . S
Mn828 O843 2.162 . S
Mn828 O844 2.297 . S
Mn828 O852 2.385 . S
Mn828 O853 2.209 . S
Mn828 O854 2.094 . S
Mn829 O834 2.121 . S
Mn829 N836 2.257 . S
Mn829 N845 2.282 . S
Mn829 O853 2.215 . S
Mn829 O855 2.117 . S
C830 O852 1.234 . S
C830 O853 1.283 . S
C831 O843 1.281 . S
C831 O844 1.236 . S
C832 O854 1.240 . S
C832 O855 1.264 . S
O833 Mn828 2.095 . S
O833 C842 1.250 . S
O834 Mn829 2.121 . S
O834 C842 1.258 . S
C835 N836 1.326 . S
C835 C839 1.460 . S
C835 H841 0.929 . S
N836 Mn829 2.257 . S
N836 C835 1.326 . S
N836 C840 1.362 . S
C837 C838 1.258 . S
C837 C840 1.431 . S
C837 C857 1.449 . S
C838 C837 1.258 . S
C838 C839 1.477 . S
C838 H858 0.931 . S
C839 C835 1.460 . S
C839 C838 1.477 . S
C839 H859 0.930 . S
C840 N836 1.362 . S
C840 C837 1.431 . S
C840 C850 1.476 . S
H841 C835 0.929 . S
C842 O833 1.250 . S
C842 O834 1.258 . S
O843 Mn828 2.162 . S
O843 C831 1.281 . S
O844 Mn828 2.297 . S
O844 C831 1.236 . S
N845 Mn829 2.282 . S
N845 C846 1.328 . S
N845 C850 1.318 . S
C846 N845 1.328 . S
C846 C847 1.457 . S
C846 H851 0.929 . S
C847 C846 1.457 . S
C847 C848 1.291 . S
C847 H860 0.931 . S
C848 C847 1.291 . S
C848 C849 1.373 . S
C848 H861 0.929 . S
C849 C848 1.373 . S
C849 C850 1.396 . S
C849 C856 1.403 . S
C850 C840 1.476 . S
C850 N845 1.318 . S
C850 C849 1.396 . S
H851 C846 0.929 . S
O852 Mn828 2.385 . S
O852 C830 1.234 . S
O853 Mn828 2.209 . S
O853 Mn829 2.215 . S
O853 C830 1.283 . S
O854 Mn828 2.094 . S
O854 C832 1.240 . S
O855 Mn829 2.117 . S
O855 C832 1.264 . S
C856 C849 1.403 . S
C856 C857 1.399 . S
C856 H862 0.929 . S
C857 C837 1.449 . S
C857 C856 1.399 . S
C857 H863 0.930 . S
H858 C838 0.931 . S
H859 C839 0.930 . S
H860 C847 0.931 . S
H861 C848 0.929 . S
H862 C856 0.929 . S
H863 C857 0.930 . S
C864 C865 1.369 . S
C864 C866 1.419 . S
C864 H868 0.930 . S
C865 C864 1.369 . S
C865 C874 1.429 . S
C866 C864 1.419 . S
C866 C867 1.363 . S
C866 H869 0.929 . S
C867 C866 1.363 . S
C867 C873 1.428 . S
H868 C864 0.930 . S
H869 C866 0.929 . S
S870 N871 1.613 . S
S870 N872 1.610 . S
N871 S870 1.613 . S
N871 C874 1.350 . S
N872 S870 1.610 . S
N872 C873 1.351 . S
C873 C867 1.428 . S
C873 N872 1.351 . S
C873 C874 1.434 . S
C874 C865 1.429 . S
C874 N871 1.350 . S
C874 C873 1.434 . S
C875 C876 1.369 . S
C875 C877 1.419 . S
C875 H879 0.930 . S
C876 C875 1.369 . S
C876 C885 1.429 . S
C877 C875 1.419 . S
C877 C878 1.363 . S
C877 H880 0.929 . S
C878 C877 1.363 . S
C878 C884 1.428 . S
H879 C875 0.930 . S
H880 C877 0.929 . S
S881 N882 1.613 . S
S881 N883 1.610 . S
N882 S881 1.613 . S
N882 C885 1.350 . S
N883 S881 1.610 . S
N883 C884 1.351 . S
C884 C878 1.428 . S
C884 N883 1.351 . S
C884 C885 1.434 . S
C885 C876 1.429 . S
C885 N882 1.350 . S
C885 C884 1.434 . S
C886 C887 1.369 . S
C886 C888 1.419 . S
C886 H890 0.930 . S
C887 C886 1.369 . S
C887 C896 1.429 . S
C888 C886 1.419 . S
C888 C889 1.363 . S
C888 H891 0.929 . S
C889 C888 1.363 . S
C889 C895 1.428 . S
H890 C886 0.930 . S
H891 C888 0.929 . S
S892 N893 1.613 . S
S892 N894 1.610 . S
N893 S892 1.613 . S
N893 C896 1.350 . S
N894 S892 1.610 . S
N894 C895 1.351 . S
C895 C889 1.428 . S
C895 N894 1.351 . S
C895 C896 1.434 . S
C896 C887 1.429 . S
C896 N893 1.350 . S
C896 C895 1.434 . S
C897 C898 1.369 . S
C897 C899 1.419 . S
C897 H901 0.930 . S
C898 C897 1.369 . S
C898 C907 1.429 . S
C899 C897 1.419 . S
C899 C900 1.363 . S
C899 H902 0.929 . S
C900 C899 1.363 . S
C900 C906 1.428 . S
H901 C897 0.930 . S
H902 C899 0.929 . S
S903 N904 1.613 . S
S903 N905 1.610 . S
N904 S903 1.613 . S
N904 C907 1.350 . S
N905 S903 1.610 . S
N905 C906 1.351 . S
C906 C900 1.428 . S
C906 N905 1.351 . S
C906 C907 1.434 . S
C907 C898 1.429 . S
C907 N904 1.350 . S
C907 C906 1.434 . S
C908 C909 1.369 . S
C908 C910 1.419 . S
C908 H912 0.930 . S
C909 C908 1.369 . S
C909 C918 1.429 . S
C910 C908 1.419 . S
C910 C911 1.363 . S
C910 H913 0.929 . S
C911 C910 1.363 . S
C911 C917 1.428 . S
H912 C908 0.930 . S
H913 C910 0.929 . S
S914 N915 1.613 . S
S914 N916 1.610 . S
N915 S914 1.613 . S
N915 C918 1.350 . S
N916 S914 1.610 . S
N916 C917 1.351 . S
C917 C911 1.428 . S
C917 N916 1.351 . S
C917 C918 1.434 . S
C918 C909 1.429 . S
C918 N915 1.350 . S
C918 C917 1.434 . S
C919 C920 1.369 . S
C919 C921 1.419 . S
C919 H923 0.930 . S
C920 C919 1.369 . S
C920 C929 1.429 . S
C921 C919 1.419 . S
C921 C922 1.363 . S
C921 H924 0.929 . S
C922 C921 1.363 . S
C922 C928 1.428 . S
H923 C919 0.930 . S
H924 C921 0.929 . S
S925 N926 1.613 . S
S925 N927 1.610 . S
N926 S925 1.613 . S
N926 C929 1.350 . S
N927 S925 1.610 . S
N927 C928 1.351 . S
C928 C922 1.428 . S
C928 N927 1.351 . S
C928 C929 1.434 . S
C929 C920 1.429 . S
C929 N926 1.350 . S
C929 C928 1.434 . S
C930 C931 1.369 . S
C930 C932 1.419 . S
C930 H934 0.930 . S
C931 C930 1.369 . S
C931 C940 1.429 . S
C932 C930 1.419 . S
C932 C933 1.363 . S
C932 H935 0.929 . S
C933 C932 1.363 . S
C933 C939 1.428 . S
H934 C930 0.930 . S
H935 C932 0.929 . S
S936 N937 1.613 . S
S936 N938 1.610 . S
N937 S936 1.613 . S
N937 C940 1.350 . S
N938 S936 1.610 . S
N938 C939 1.351 . S
C939 C933 1.428 . S
C939 N938 1.351 . S
C939 C940 1.434 . S
C940 C931 1.429 . S
C940 N937 1.350 . S
C940 C939 1.434 . S
C941 C942 1.369 . S
C941 C943 1.419 . S
C941 H945 0.930 . S
C942 C941 1.369 . S
C942 C951 1.429 . S
C943 C941 1.419 . S
C943 C944 1.363 . S
C943 H946 0.929 . S
C944 C943 1.363 . S
C944 C950 1.428 . S
H945 C941 0.930 . S
H946 C943 0.929 . S
S947 N948 1.613 . S
S947 N949 1.610 . S
N948 S947 1.613 . S
N948 C951 1.350 . S
N949 S947 1.610 . S
N949 C950 1.351 . S
C950 C944 1.428 . S
C950 N949 1.351 . S
C950 C951 1.434 . S
C951 C942 1.429 . S
C951 N948 1.350 . S
C951 C950 1.434 . S
C952 C953 1.369 . S
C952 C954 1.419 . S
C952 H956 0.930 . S
C953 C952 1.369 . S
C953 C962 1.429 . S
C954 C952 1.419 . S
C954 C955 1.363 . S
C954 H957 0.929 . S
C955 C954 1.363 . S
C955 C961 1.428 . S
H956 C952 0.930 . S
H957 C954 0.929 . S
S958 N959 1.613 . S
S958 N960 1.610 . S
N959 S958 1.613 . S
N959 C962 1.350 . S
N960 S958 1.610 . S
N960 C961 1.351 . S
C961 C955 1.428 . S
C961 N960 1.351 . S
C961 C962 1.434 . S
C962 C953 1.429 . S
C962 N959 1.350 . S
C962 C961 1.434 . S
C963 C964 1.369 . S
C963 C965 1.419 . S
C963 H967 0.930 . S
C964 C963 1.369 . S
C964 C973 1.429 . S
C965 C963 1.419 . S
C965 C966 1.363 . S
C965 H968 0.929 . S
C966 C965 1.363 . S
C966 C972 1.428 . S
H967 C963 0.930 . S
H968 C965 0.929 . S
S969 N970 1.613 . S
S969 N971 1.610 . S
N970 S969 1.613 . S
N970 C973 1.350 . S
N971 S969 1.610 . S
N971 C972 1.351 . S
C972 C966 1.428 . S
C972 N971 1.351 . S
C972 C973 1.434 . S
C973 C964 1.429 . S
C973 N970 1.350 . S
C973 C972 1.434 . S
C974 C975 1.369 . S
C974 C976 1.419 . S
C974 H978 0.930 . S
C975 C974 1.369 . S
C975 C984 1.429 . S
C976 C974 1.419 . S
C976 C977 1.363 . S
C976 H979 0.929 . S
C977 C976 1.363 . S
C977 C983 1.428 . S
H978 C974 0.930 . S
H979 C976 0.929 . S
S980 N981 1.613 . S
S980 N982 1.610 . S
N981 S980 1.613 . S
N981 C984 1.350 . S
N982 S980 1.610 . S
N982 C983 1.351 . S
C983 C977 1.428 . S
C983 N982 1.351 . S
C983 C984 1.434 . S
C984 C975 1.429 . S
C984 N981 1.350 . S
C984 C983 1.434 . S
C985 C986 1.369 . S
C985 C987 1.419 . S
C985 H989 0.930 . S
C986 C985 1.369 . S
C986 C995 1.429 . S
C987 C985 1.419 . S
C987 C988 1.363 . S
C987 H990 0.929 . S
C988 C987 1.363 . S
C988 C994 1.428 . S
H989 C985 0.930 . S
H990 C987 0.929 . S
S991 N992 1.613 1_545 S
S991 N993 1.610 . S
N992 S991 1.613 1_565 S
N992 C995 1.350 . S
N993 S991 1.610 . S
N993 C994 1.351 1_545 S
C994 C988 1.428 . S
C994 N993 1.351 1_565 S
C994 C995 1.434 . S
C995 C986 1.429 . S
C995 N992 1.350 . S
C995 C994 1.434 . S
C996 C997 1.369 . S
C996 C998 1.419 . S
C996 H1000 0.930 . S
C997 C996 1.369 . S
C997 C1006 1.429 . S
C998 C996 1.419 . S
C998 C999 1.363 . S
C998 H1001 0.929 . S
C999 C998 1.363 . S
C999 C1005 1.428 . S
H1000 C996 0.930 . S
H1001 C998 0.929 . S
S1002 N1003 1.613 . S
S1002 N1004 1.610 1_556 S
N1003 S1002 1.613 . S
N1003 C1006 1.350 1_556 S
N1004 S1002 1.610 1_554 S
N1004 C1005 1.351 . S
C1005 C999 1.428 . S
C1005 N1004 1.351 . S
C1005 C1006 1.434 . S
C1006 C997 1.429 . S
C1006 N1003 1.350 1_554 S
C1006 C1005 1.434 . S
C1007 C1008 1.369 . S
C1007 C1009 1.419 . S
C1007 H1011 0.930 1_655 S
C1008 C1007 1.369 . S
C1008 C1017 1.429 . S
C1009 C1007 1.419 . S
C1009 C1010 1.363 . S
C1009 H1012 0.929 . S
C1010 C1009 1.363 . S
C1010 C1016 1.428 . S
H1011 C1007 0.930 1_455 S
H1012 C1009 0.929 . S
S1013 N1014 1.613 . S
S1013 N1015 1.610 . S
N1014 S1013 1.613 . S
N1014 C1017 1.350 . S
N1015 S1013 1.610 . S
N1015 C1016 1.351 . S
C1016 C1010 1.428 . S
C1016 N1015 1.351 . S
C1016 C1017 1.434 . S
C1017 C1008 1.429 . S
C1017 N1014 1.350 . S
C1017 C1016 1.434 . S
C1018 C1019 1.369 . S
C1018 C1020 1.419 . S
C1018 H1022 0.930 . S
C1019 C1018 1.369 . S
C1019 C1028 1.429 . S
C1020 C1018 1.419 . S
C1020 C1021 1.363 . S
C1020 H1023 0.929 . S
C1021 C1020 1.363 . S
C1021 C1027 1.428 . S
H1022 C1018 0.930 . S
H1023 C1020 0.929 . S
S1024 N1025 1.613 . S
S1024 N1026 1.610 . S
N1025 S1024 1.613 . S
N1025 C1028 1.350 . S
N1026 S1024 1.610 . S
N1026 C1027 1.351 . S
C1027 C1021 1.428 . S
C1027 N1026 1.351 . S
C1027 C1028 1.434 . S
C1028 C1019 1.429 . S
C1028 N1025 1.350 . S
C1028 C1027 1.434 . S
C1029 C1030 1.369 . S
C1029 C1031 1.419 . S
C1029 H1033 0.930 . S
C1030 C1029 1.369 . S
C1030 C1039 1.429 . S
C1031 C1029 1.419 . S
C1031 C1032 1.363 . S
C1031 H1034 0.929 . S
C1032 C1031 1.363 . S
C1032 C1038 1.428 . S
H1033 C1029 0.930 . S
H1034 C1031 0.929 . S
S1035 N1036 1.613 . S
S1035 N1037 1.610 . S
N1036 S1035 1.613 . S
N1036 C1039 1.350 . S
N1037 S1035 1.610 . S
N1037 C1038 1.351 . S
C1038 C1032 1.428 . S
C1038 N1037 1.351 . S
C1038 C1039 1.434 . S
C1039 C1030 1.429 . S
C1039 N1036 1.350 . S
C1039 C1038 1.434 . S
C1040 C1041 1.369 . S
C1040 C1042 1.419 . S
C1040 H1044 0.930 . S
C1041 C1040 1.369 . S
C1041 C1050 1.429 . S
C1042 C1040 1.419 . S
C1042 C1043 1.363 . S
C1042 H1045 0.929 . S
C1043 C1042 1.363 . S
C1043 C1049 1.428 . S
H1044 C1040 0.930 . S
H1045 C1042 0.929 . S
S1046 N1047 1.613 . S
S1046 N1048 1.610 . S
N1047 S1046 1.613 . S
N1047 C1050 1.350 . S
N1048 S1046 1.610 . S
N1048 C1049 1.351 . S
C1049 C1043 1.428 . S
C1049 N1048 1.351 . S
C1049 C1050 1.434 . S
C1050 C1041 1.429 . S
C1050 N1047 1.350 . S
C1050 C1049 1.434 . S
C1051 C1052 1.369 . S
C1051 C1053 1.419 . S
C1051 H1055 0.930 . S
C1052 C1051 1.369 . S
C1052 C1061 1.429 . S
C1053 C1051 1.419 . S
C1053 C1054 1.363 . S
C1053 H1056 0.929 . S
C1054 C1053 1.363 . S
C1054 C1060 1.428 . S
H1055 C1051 0.930 . S
H1056 C1053 0.929 . S
S1057 N1058 1.613 . S
S1057 N1059 1.610 . S
N1058 S1057 1.613 . S
N1058 C1061 1.350 . S
N1059 S1057 1.610 . S
N1059 C1060 1.351 . S
C1060 C1054 1.428 . S
C1060 N1059 1.351 . S
C1060 C1061 1.434 . S
C1061 C1052 1.429 . S
C1061 N1058 1.350 . S
C1061 C1060 1.434 . S
C1062 C1063 1.369 . S
C1062 C1064 1.419 . S
C1062 H1066 0.930 1_556 S
C1063 C1062 1.369 . S
C1063 C1072 1.429 . S
C1064 C1062 1.419 . S
C1064 C1065 1.363 . S
C1064 H1067 0.929 . S
C1065 C1064 1.363 . S
C1065 C1071 1.428 . S
H1066 C1062 0.930 1_554 S
H1067 C1064 0.929 . S
S1068 N1069 1.613 . S
S1068 N1070 1.610 . S
N1069 S1068 1.613 . S
N1069 C1072 1.350 . S
N1070 S1068 1.610 . S
N1070 C1071 1.351 . S
C1071 C1065 1.428 . S
C1071 N1070 1.351 . S
C1071 C1072 1.434 . S
C1072 C1063 1.429 . S
C1072 N1069 1.350 . S
C1072 C1071 1.434 . S
C1073 C1074 1.369 . S
C1073 C1075 1.419 . S
C1073 H1077 0.930 . S
C1074 C1073 1.369 . S
C1074 C1083 1.429 . S
C1075 C1073 1.419 . S
C1075 C1076 1.363 . S
C1075 H1078 0.929 . S
C1076 C1075 1.363 . S
C1076 C1082 1.428 . S
H1077 C1073 0.930 . S
H1078 C1075 0.929 . S
S1079 N1080 1.613 1_455 S
S1079 N1081 1.610 . S
N1080 S1079 1.613 1_655 S
N1080 C1083 1.350 . S
N1081 S1079 1.610 . S
N1081 C1082 1.351 1_455 S
C1082 C1076 1.428 . S
C1082 N1081 1.351 1_655 S
C1082 C1083 1.434 . S
C1083 C1074 1.429 . S
C1083 N1080 1.350 . S
C1083 C1082 1.434 . S
C1084 C1085 1.369 . S
C1084 C1086 1.419 . S
C1084 H1088 0.930 . S
C1085 C1084 1.369 . S
C1085 C1094 1.429 . S
C1086 C1084 1.419 . S
C1086 C1087 1.363 . S
C1086 H1089 0.929 . S
C1087 C1086 1.363 . S
C1087 C1093 1.428 . S
H1088 C1084 0.930 . S
H1089 C1086 0.929 . S
S1090 N1091 1.613 . S
S1090 N1092 1.610 . S
N1091 S1090 1.613 . S
N1091 C1094 1.350 . S
N1092 S1090 1.610 . S
N1092 C1093 1.351 . S
C1093 C1087 1.428 . S
C1093 N1092 1.351 . S
C1093 C1094 1.434 . S
C1094 C1085 1.429 . S
C1094 N1091 1.350 . S
C1094 C1093 1.434 . S
C1095 C1096 1.369 . S
C1095 C1097 1.419 . S
C1095 H1099 0.930 . S
C1096 C1095 1.369 . S
C1096 C1105 1.429 . S
C1097 C1095 1.419 . S
C1097 C1098 1.363 . S
C1097 H1100 0.929 . S
C1098 C1097 1.363 . S
C1098 C1104 1.428 . S
H1099 C1095 0.930 . S
H1100 C1097 0.929 . S
S1101 N1102 1.613 . S
S1101 N1103 1.610 . S
N1102 S1101 1.613 . S
N1102 C1105 1.350 . S
N1103 S1101 1.610 . S
N1103 C1104 1.351 . S
C1104 C1098 1.428 . S
C1104 N1103 1.351 . S
C1104 C1105 1.434 . S
C1105 C1096 1.429 . S
C1105 N1102 1.350 . S
C1105 C1104 1.434 . S
C1106 C1107 1.369 . S
C1106 C1108 1.419 . S
C1106 H1110 0.930 . S
C1107 C1106 1.369 . S
C1107 C1116 1.429 . S
C1108 C1106 1.419 . S
C1108 C1109 1.363 . S
C1108 H1111 0.929 . S
C1109 C1108 1.363 . S
C1109 C1115 1.428 . S
H1110 C1106 0.930 . S
H1111 C1108 0.929 . S
S1112 N1113 1.613 1_556 S
S1112 N1114 1.610 1_556 S
N1113 S1112 1.613 1_554 S
N1113 C1116 1.350 . S
N1114 S1112 1.610 1_554 S
N1114 C1115 1.351 . S
C1115 C1109 1.428 . S
C1115 N1114 1.351 . S
C1115 C1116 1.434 . S
C1116 C1107 1.429 . S
C1116 N1113 1.350 . S
C1116 C1115 1.434 . S
C1117 C1118 1.369 . S
C1117 C1119 1.419 . S
C1117 H1121 0.930 . S
C1118 C1117 1.369 . S
C1118 C1127 1.429 . S
C1119 C1117 1.419 . S
C1119 C1120 1.363 . S
C1119 H1122 0.929 . S
C1120 C1119 1.363 . S
C1120 C1126 1.428 . S
H1121 C1117 0.930 . S
H1122 C1119 0.929 . S
S1123 N1124 1.613 1_545 S
S1123 N1125 1.610 . S
N1124 S1123 1.613 1_565 S
N1124 C1127 1.350 . S
N1125 S1123 1.610 . S
N1125 C1126 1.351 1_545 S
C1126 C1120 1.428 . S
C1126 N1125 1.351 1_565 S
C1126 C1127 1.434 . S
C1127 C1118 1.429 . S
C1127 N1124 1.350 . S
C1127 C1126 1.434 . S
C1128 C1129 1.369 . S
C1128 C1130 1.419 . S
C1128 H1132 0.930 . S
C1129 C1128 1.369 . S
C1129 C1138 1.429 . S
C1130 C1128 1.419 . S
C1130 C1131 1.363 . S
C1130 H1133 0.929 . S
C1131 C1130 1.363 . S
C1131 C1137 1.428 . S
H1132 C1128 0.930 . S
H1133 C1130 0.929 . S
S1134 N1135 1.613 . S
S1134 N1136 1.610 1_545 S
N1135 S1134 1.613 . S
N1135 C1138 1.350 1_545 S
N1136 S1134 1.610 1_565 S
N1136 C1137 1.351 . S
C1137 C1131 1.428 . S
C1137 N1136 1.351 . S
C1137 C1138 1.434 . S
C1138 C1129 1.429 . S
C1138 N1135 1.350 1_565 S
C1138 C1137 1.434 . S
C1139 C1140 1.369 . S
C1139 C1141 1.419 . S
C1139 H1143 0.930 . S
C1140 C1139 1.369 . S
C1140 C1149 1.429 . S
C1141 C1139 1.419 . S
C1141 C1142 1.363 . S
C1141 H1144 0.929 . S
C1142 C1141 1.363 . S
C1142 C1148 1.428 . S
H1143 C1139 0.930 . S
H1144 C1141 0.929 . S
S1145 N1146 1.613 . S
S1145 N1147 1.610 . S
N1146 S1145 1.613 . S
N1146 C1149 1.350 . S
N1147 S1145 1.610 . S
N1147 C1148 1.351 . S
C1148 C1142 1.428 . S
C1148 N1147 1.351 . S
C1148 C1149 1.434 . S
C1149 C1140 1.429 . S
C1149 N1146 1.350 . S
C1149 C1148 1.434 . S
C1150 C1151 1.369 . S
C1150 C1152 1.419 . S
C1150 H1154 0.930 . S
C1151 C1150 1.369 . S
C1151 C1160 1.429 . S
C1152 C1150 1.419 . S
C1152 C1153 1.363 . S
C1152 H1155 0.929 . S
C1153 C1152 1.363 . S
C1153 C1159 1.428 . S
H1154 C1150 0.930 . S
H1155 C1152 0.929 . S
S1156 N1157 1.613 . S
S1156 N1158 1.610 . S
N1157 S1156 1.613 . S
N1157 C1160 1.350 . S
N1158 S1156 1.610 . S
N1158 C1159 1.351 . S
C1159 C1153 1.428 . S
C1159 N1158 1.351 . S
C1159 C1160 1.434 . S
C1160 C1151 1.429 . S
C1160 N1157 1.350 . S
C1160 C1159 1.434 . S
C1161 C1162 1.369 . S
C1161 C1163 1.419 . S
C1161 H1165 0.930 . S
C1162 C1161 1.369 . S
C1162 C1171 1.429 . S
C1163 C1161 1.419 . S
C1163 C1164 1.363 . S
C1163 H1166 0.929 . S
C1164 C1163 1.363 . S
C1164 C1170 1.428 . S
H1165 C1161 0.930 . S
H1166 C1163 0.929 . S
S1167 N1168 1.613 . S
S1167 N1169 1.610 . S
N1168 S1167 1.613 . S
N1168 C1171 1.350 . S
N1169 S1167 1.610 . S
N1169 C1170 1.351 . S
C1170 C1164 1.428 . S
C1170 N1169 1.351 . S
C1170 C1171 1.434 . S
C1171 C1162 1.429 . S
C1171 N1168 1.350 . S
C1171 C1170 1.434 . S
C1172 C1173 1.369 . S
C1172 C1174 1.419 . S
C1172 H1176 0.930 . S
C1173 C1172 1.369 . S
C1173 C1182 1.429 . S
C1174 C1172 1.419 . S
C1174 C1175 1.363 . S
C1174 H1177 0.929 . S
C1175 C1174 1.363 . S
C1175 C1181 1.428 . S
H1176 C1172 0.930 . S
H1177 C1174 0.929 . S
S1178 N1179 1.613 . S
S1178 N1180 1.610 . S
N1179 S1178 1.613 . S
N1179 C1182 1.350 . S
N1180 S1178 1.610 . S
N1180 C1181 1.351 . S
C1181 C1175 1.428 . S
C1181 N1180 1.351 . S
C1181 C1182 1.434 . S
C1182 C1173 1.429 . S
C1182 N1179 1.350 . S
C1182 C1181 1.434 . S
C1183 C1184 1.369 . S
C1183 C1185 1.419 . S
C1183 H1187 0.930 . S
C1184 C1183 1.369 . S
C1184 C1193 1.429 . S
C1185 C1183 1.419 . S
C1185 C1186 1.363 . S
C1185 H1188 0.929 . S
C1186 C1185 1.363 . S
C1186 C1192 1.428 . S
H1187 C1183 0.930 . S
H1188 C1185 0.929 . S
S1189 N1190 1.613 . S
S1189 N1191 1.610 . S
N1190 S1189 1.613 . S
N1190 C1193 1.350 . S
N1191 S1189 1.610 . S
N1191 C1192 1.351 . S
C1192 C1186 1.428 . S
C1192 N1191 1.351 . S
C1192 C1193 1.434 . S
C1193 C1184 1.429 . S
C1193 N1190 1.350 . S
C1193 C1192 1.434 . S
C1194 C1195 1.369 . S
C1194 C1196 1.419 . S
C1194 H1198 0.930 . S
C1195 C1194 1.369 . S
C1195 C1204 1.429 . S
C1196 C1194 1.419 . S
C1196 C1197 1.363 . S
C1196 H1199 0.929 . S
C1197 C1196 1.363 . S
C1197 C1203 1.428 . S
H1198 C1194 0.930 . S
H1199 C1196 0.929 . S
S1200 N1201 1.613 . S
S1200 N1202 1.610 . S
N1201 S1200 1.613 . S
N1201 C1204 1.350 . S
N1202 S1200 1.610 . S
N1202 C1203 1.351 . S
C1203 C1197 1.428 . S
C1203 N1202 1.351 . S
C1203 C1204 1.434 . S
C1204 C1195 1.429 . S
C1204 N1201 1.350 . S
C1204 C1203 1.434 . S
C1205 C1206 1.369 . S
C1205 C1207 1.419 . S
C1205 H1209 0.930 . S
C1206 C1205 1.369 . S
C1206 C1215 1.429 . S
C1207 C1205 1.419 . S
C1207 C1208 1.363 . S
C1207 H1210 0.929 . S
C1208 C1207 1.363 . S
C1208 C1214 1.428 . S
H1209 C1205 0.930 . S
H1210 C1207 0.929 . S
S1211 N1212 1.613 . S
S1211 N1213 1.610 . S
N1212 S1211 1.613 . S
N1212 C1215 1.350 . S
N1213 S1211 1.610 . S
N1213 C1214 1.351 . S
C1214 C1208 1.428 . S
C1214 N1213 1.351 . S
C1214 C1215 1.434 . S
C1215 C1206 1.429 . S
C1215 N1212 1.350 . S
C1215 C1214 1.434 . S
C1216 C1217 1.369 . S
C1216 C1218 1.419 . S
C1216 H1220 0.930 . S
C1217 C1216 1.369 . S
C1217 C1226 1.429 . S
C1218 C1216 1.419 . S
C1218 C1219 1.363 . S
C1218 H1221 0.929 . S
C1219 C1218 1.363 . S
C1219 C1225 1.428 . S
H1220 C1216 0.930 . S
H1221 C1218 0.929 . S
S1222 N1223 1.613 . S
S1222 N1224 1.610 . S
N1223 S1222 1.613 . S
N1223 C1226 1.350 . S
N1224 S1222 1.610 . S
N1224 C1225 1.351 . S
C1225 C1219 1.428 . S
C1225 N1224 1.351 . S
C1225 C1226 1.434 . S
C1226 C1217 1.429 . S
C1226 N1223 1.350 . S
C1226 C1225 1.434 . S
C1227 C1228 1.369 . S
C1227 C1229 1.419 . S
C1227 H1231 0.930 . S
C1228 C1227 1.369 . S
C1228 C1237 1.429 . S
C1229 C1227 1.419 . S
C1229 C1230 1.363 . S
C1229 H1232 0.929 . S
C1230 C1229 1.363 . S
C1230 C1236 1.428 . S
H1231 C1227 0.930 . S
H1232 C1229 0.929 . S
S1233 N1234 1.613 . S
S1233 N1235 1.610 1_554 S
N1234 S1233 1.613 . S
N1234 C1237 1.350 1_554 S
N1235 S1233 1.610 1_556 S
N1235 C1236 1.351 . S
C1236 C1230 1.428 . S
C1236 N1235 1.351 . S
C1236 C1237 1.434 . S
C1237 C1228 1.429 . S
C1237 N1234 1.350 1_556 S
C1237 C1236 1.434 . S
C1238 C1239 1.369 . S
C1238 C1240 1.419 . S
C1238 H1242 0.930 . S
C1239 C1238 1.369 . S
C1239 C1248 1.429 . S
C1240 C1238 1.419 . S
C1240 C1241 1.363 . S
C1240 H1243 0.929 . S
C1241 C1240 1.363 . S
C1241 C1247 1.428 . S
H1242 C1238 0.930 . S
H1243 C1240 0.929 . S
S1244 N1245 1.613 . S
S1244 N1246 1.610 . S
N1245 S1244 1.613 . S
N1245 C1248 1.350 . S
N1246 S1244 1.610 . S
N1246 C1247 1.351 . S
C1247 C1241 1.428 . S
C1247 N1246 1.351 . S
C1247 C1248 1.434 . S
C1248 C1239 1.429 . S
C1248 N1245 1.350 . S
C1248 C1247 1.434 . S
C1249 C1250 1.369 . S
C1249 C1251 1.419 . S
C1249 H1253 0.930 . S
C1250 C1249 1.369 . S
C1250 C1259 1.429 . S
C1251 C1249 1.419 . S
C1251 C1252 1.363 . S
C1251 H1254 0.929 . S
C1252 C1251 1.363 . S
C1252 C1258 1.428 . S
H1253 C1249 0.930 . S
H1254 C1251 0.929 . S
S1255 N1256 1.613 . S
S1255 N1257 1.610 . S
N1256 S1255 1.613 . S
N1256 C1259 1.350 . S
N1257 S1255 1.610 . S
N1257 C1258 1.351 . S
C1258 C1252 1.428 . S
C1258 N1257 1.351 . S
C1258 C1259 1.434 . S
C1259 C1250 1.429 . S
C1259 N1256 1.350 . S
C1259 C1258 1.434 . S
C1260 C1261 1.369 . S
C1260 C1262 1.419 . S
C1260 H1264 0.930 . S
C1261 C1260 1.369 . S
C1261 C1270 1.429 . S
C1262 C1260 1.419 . S
C1262 C1263 1.363 . S
C1262 H1265 0.929 . S
C1263 C1262 1.363 . S
C1263 C1269 1.428 . S
H1264 C1260 0.930 . S
H1265 C1262 0.929 . S
S1266 N1267 1.613 . S
S1266 N1268 1.610 . S
N1267 S1266 1.613 . S
N1267 C1270 1.350 . S
N1268 S1266 1.610 . S
N1268 C1269 1.351 . S
C1269 C1263 1.428 . S
C1269 N1268 1.351 . S
C1269 C1270 1.434 . S
C1270 C1261 1.429 . S
C1270 N1267 1.350 . S
C1270 C1269 1.434 . S
C1271 C1272 1.369 . S
C1271 C1273 1.419 . S
C1271 H1275 0.930 . S
C1272 C1271 1.369 . S
C1272 C1281 1.429 . S
C1273 C1271 1.419 . S
C1273 C1274 1.363 . S
C1273 H1276 0.929 . S
C1274 C1273 1.363 . S
C1274 C1280 1.428 . S
H1275 C1271 0.930 . S
H1276 C1273 0.929 . S
S1277 N1278 1.613 . S
S1277 N1279 1.610 . S
N1278 S1277 1.613 . S
N1278 C1281 1.350 . S
N1279 S1277 1.610 . S
N1279 C1280 1.351 . S
C1280 C1274 1.428 . S
C1280 N1279 1.351 . S
C1280 C1281 1.434 . S
C1281 C1272 1.429 . S
C1281 N1278 1.350 . S
C1281 C1280 1.434 . S
C1282 C1283 1.369 . S
C1282 C1284 1.419 . S
C1282 H1286 0.930 . S
C1283 C1282 1.369 . S
C1283 C1292 1.429 . S
C1284 C1282 1.419 . S
C1284 C1285 1.363 . S
C1284 H1287 0.929 . S
C1285 C1284 1.363 . S
C1285 C1291 1.428 . S
H1286 C1282 0.930 . S
H1287 C1284 0.929 . S
S1288 N1289 1.613 . S
S1288 N1290 1.610 . S
N1289 S1288 1.613 . S
N1289 C1292 1.350 . S
N1290 S1288 1.610 . S
N1290 C1291 1.351 . S
C1291 C1285 1.428 . S
C1291 N1290 1.351 . S
C1291 C1292 1.434 . S
C1292 C1283 1.429 . S
C1292 N1289 1.350 . S
C1292 C1291 1.434 . S
C1293 C1294 1.369 . S
C1293 C1295 1.419 . S
C1293 H1297 0.930 . S
C1294 C1293 1.369 . S
C1294 C1303 1.429 . S
C1295 C1293 1.419 . S
C1295 C1296 1.363 . S
C1295 H1298 0.929 . S
C1296 C1295 1.363 . S
C1296 C1302 1.428 . S
H1297 C1293 0.930 . S
H1298 C1295 0.929 . S
S1299 N1300 1.613 . S
S1299 N1301 1.610 . S
N1300 S1299 1.613 . S
N1300 C1303 1.350 . S
N1301 S1299 1.610 . S
N1301 C1302 1.351 . S
C1302 C1296 1.428 . S
C1302 N1301 1.351 . S
C1302 C1303 1.434 . S
C1303 C1294 1.429 . S
C1303 N1300 1.350 . S
C1303 C1302 1.434 . S
C1304 C1305 1.369 . S
C1304 C1306 1.419 . S
C1304 H1308 0.930 . S
C1305 C1304 1.369 . S
C1305 C1314 1.429 . S
C1306 C1304 1.419 . S
C1306 C1307 1.363 . S
C1306 H1309 0.929 . S
C1307 C1306 1.363 . S
C1307 C1313 1.428 . S
H1308 C1304 0.930 . S
H1309 C1306 0.929 . S
S1310 N1311 1.613 . S
S1310 N1312 1.610 . S
N1311 S1310 1.613 . S
N1311 C1314 1.350 . S
N1312 S1310 1.610 . S
N1312 C1313 1.351 . S
C1313 C1307 1.428 . S
C1313 N1312 1.351 . S
C1313 C1314 1.434 . S
C1314 C1305 1.429 . S
C1314 N1311 1.350 . S
C1314 C1313 1.434 . S
C1315 C1316 1.369 . S
C1315 C1317 1.419 . S
C1315 H1319 0.930 . S
C1316 C1315 1.369 . S
C1316 C1325 1.429 . S
C1317 C1315 1.419 . S
C1317 C1318 1.363 . S
C1317 H1320 0.929 . S
C1318 C1317 1.363 . S
C1318 C1324 1.428 . S
H1319 C1315 0.930 . S
H1320 C1317 0.929 . S
S1321 N1322 1.613 . S
S1321 N1323 1.610 . S
N1322 S1321 1.613 . S
N1322 C1325 1.350 . S
N1323 S1321 1.610 . S
N1323 C1324 1.351 . S
C1324 C1318 1.428 . S
C1324 N1323 1.351 . S
C1324 C1325 1.434 . S
C1325 C1316 1.429 . S
C1325 N1322 1.350 . S
C1325 C1324 1.434 . S
C1326 C1327 1.369 . S
C1326 C1328 1.419 . S
C1326 H1330 0.930 . S
C1327 C1326 1.369 . S
C1327 C1336 1.429 . S
C1328 C1326 1.419 . S
C1328 C1329 1.363 . S
C1328 H1331 0.929 . S
C1329 C1328 1.363 . S
C1329 C1335 1.428 . S
H1330 C1326 0.930 . S
H1331 C1328 0.929 . S
S1332 N1333 1.613 . S
S1332 N1334 1.610 . S
N1333 S1332 1.613 . S
N1333 C1336 1.350 . S
N1334 S1332 1.610 . S
N1334 C1335 1.351 . S
C1335 C1329 1.428 . S
C1335 N1334 1.351 . S
C1335 C1336 1.434 . S
C1336 C1327 1.429 . S
C1336 N1333 1.350 . S
C1336 C1335 1.434 . S
C1337 C1338 1.369 . S
C1337 C1339 1.419 . S
C1337 H1341 0.930 . S
C1338 C1337 1.369 . S
C1338 C1347 1.429 . S
C1339 C1337 1.419 . S
C1339 C1340 1.363 . S
C1339 H1342 0.929 . S
C1340 C1339 1.363 . S
C1340 C1346 1.428 . S
H1341 C1337 0.930 . S
H1342 C1339 0.929 . S
S1343 N1344 1.613 . S
S1343 N1345 1.610 . S
N1344 S1343 1.613 . S
N1344 C1347 1.350 . S
N1345 S1343 1.610 . S
N1345 C1346 1.351 . S
C1346 C1340 1.428 . S
C1346 N1345 1.351 . S
C1346 C1347 1.434 . S
C1347 C1338 1.429 . S
C1347 N1344 1.350 . S
C1347 C1346 1.434 . S
C1348 C1349 1.369 . S
C1348 C1350 1.419 . S
C1348 H1352 0.930 . S
C1349 C1348 1.369 . S
C1349 C1358 1.429 . S
C1350 C1348 1.419 . S
C1350 C1351 1.363 . S
C1350 H1353 0.929 . S
C1351 C1350 1.363 . S
C1351 C1357 1.428 . S
H1352 C1348 0.930 . S
H1353 C1350 0.929 . S
S1354 N1355 1.613 . S
S1354 N1356 1.610 . S
N1355 S1354 1.613 . S
N1355 C1358 1.350 . S
N1356 S1354 1.610 . S
N1356 C1357 1.351 . S
C1357 C1351 1.428 . S
C1357 N1356 1.351 . S
C1357 C1358 1.434 . S
C1358 C1349 1.429 . S
C1358 N1355 1.350 . S
C1358 C1357 1.434 . S
C1359 C1360 1.369 . S
C1359 C1361 1.419 . S
C1359 H1363 0.930 . S
C1360 C1359 1.369 . S
C1360 C1369 1.429 . S
C1361 C1359 1.419 . S
C1361 C1362 1.363 . S
C1361 H1364 0.929 . S
C1362 C1361 1.363 . S
C1362 C1368 1.428 . S
H1363 C1359 0.930 . S
H1364 C1361 0.929 . S
S1365 N1366 1.613 . S
S1365 N1367 1.610 . S
N1366 S1365 1.613 . S
N1366 C1369 1.350 . S
N1367 S1365 1.610 . S
N1367 C1368 1.351 . S
C1368 C1362 1.428 . S
C1368 N1367 1.351 . S
C1368 C1369 1.434 . S
C1369 C1360 1.429 . S
C1369 N1366 1.350 . S
C1369 C1368 1.434 . S
C1370 C1371 1.369 . S
C1370 C1372 1.419 . S
C1370 H1374 0.930 . S
C1371 C1370 1.369 . S
C1371 C1380 1.429 . S
C1372 C1370 1.419 . S
C1372 C1373 1.363 . S
C1372 H1375 0.929 . S
C1373 C1372 1.363 . S
C1373 C1379 1.428 . S
H1374 C1370 0.930 . S
H1375 C1372 0.929 . S
S1376 N1377 1.613 . S
S1376 N1378 1.610 . S
N1377 S1376 1.613 . S
N1377 C1380 1.350 . S
N1378 S1376 1.610 . S
N1378 C1379 1.351 . S
C1379 C1373 1.428 . S
C1379 N1378 1.351 . S
C1379 C1380 1.434 . S
C1380 C1371 1.429 . S
C1380 N1377 1.350 . S
C1380 C1379 1.434 . S
C1381 C1382 1.369 . S
C1381 C1383 1.419 . S
C1381 H1385 0.930 . S
C1382 C1381 1.369 . S
C1382 C1391 1.429 . S
C1383 C1381 1.419 . S
C1383 C1384 1.363 . S
C1383 H1386 0.929 . S
C1384 C1383 1.363 . S
C1384 C1390 1.428 . S
H1385 C1381 0.930 . S
H1386 C1383 0.929 . S
S1387 N1388 1.613 . S
S1387 N1389 1.610 . S
N1388 S1387 1.613 . S
N1388 C1391 1.350 . S
N1389 S1387 1.610 . S
N1389 C1390 1.351 . S
C1390 C1384 1.428 . S
C1390 N1389 1.351 . S
C1390 C1391 1.434 . S
C1391 C1382 1.429 . S
C1391 N1388 1.350 . S
C1391 C1390 1.434 . S
C865 C506 1.459 . S
C867 C4 1.479 . S
C876 C40 1.326 . S
C878 C554 1.299 . S
C887 C650 1.451 . S
C889 C75 1.478 . S
C898 C111 1.352 . S
C900 C471 1.353 . S
C909 C518 1.460 . S
C911 C147 1.494 . S
C920 C182 1.341 . S
C922 C542 1.339 . S
C931 C220 1.465 . S
C933 C662 1.427 . S
C942 C266 1.301 . S
C944 C472 1.326 . S
C953 C328 1.464 . S
C955 C302 1.428 . S
C964 C374 1.458 . S
C966 C327 1.494 . S
C975 C362 1.459 . S
C977 C400 1.478 . S
C986 C399 1.478 . S
C988 C290 1.453 . S
C997 C446 1.293 . S
C999 C112 1.329 . S
C1008 C148 1.462 . S
C1010 C590 1.431 . S
C1019 C615 1.352 . S
C1021 C39 1.352 . S
C1030 C50 1.370 . S
C1032 C759 1.404 . S
C1041 C338 1.589 . S
C1043 C2 1.600 . S
C1052 C832 1.447 . S
C1054 C110 1.438 . S
C1063 C410 1.584 . S
C1065 C86 1.588 . S
C1074 C760 1.441 . S
C1076 C256 1.440 . S
C1085 C326 1.573 . S
C1087 C218 1.576 . S
C1096 C183 1.446 . S
C1098 C831 1.448 . S
C1107 C158 1.593 . S
C1109 C398 1.603 . S
C1118 C543 1.447 . S
C1120 C687 1.447 . S
C1129 C580 1.439 . S
C1131 C544 1.441 . S
C1140 C482 1.376 . S
C1142 C579 1.404 . S
C1151 C688 1.446 . S
C1153 C470 1.436 . S
C1162 C74 1.599 . S
C1164 C734 1.589 . S
C1173 C363 1.449 . S
C1175 C255 1.448 . S
C1184 C14 1.588 . S
C1186 C806 1.585 . S
C1195 C686 1.459 . S
C1197 C76 1.481 . S
C1206 C3 1.478 . S
C1208 C578 1.452 . S
C1217 C698 1.457 . S
C1219 C219 1.494 . S
C1228 C434 1.341 . S
C1230 C254 1.344 . S
C1239 C194 1.294 . S
C1241 C616 1.329 . S
C1250 C770 1.425 . S
C1252 C724 1.464 . S
C1261 C842 1.455 . S
C1263 C723 1.494 . S
C1272 C796 1.479 . S
C1274 C830 1.456 . S
C1283 C758 1.449 . S
C1285 C795 1.478 . S
C1294 C291 1.405 . S
C1296 C122 1.376 . S
C1305 C38 1.436 . S
C1307 C364 1.446 . S
C1316 C184 1.438 . S
C1318 C292 1.440 . S
C1327 C722 1.576 . S
C1329 C146 1.572 . S
C1338 C230 1.591 . S
C1340 C794 1.600 . S
C1349 C435 1.446 . S
C1351 C507 1.448 . S
C1360 C652 1.438 . S
C1362 C436 1.442 . S
C1371 C626 1.374 . S
C1373 C651 1.404 . S
C1382 C508 1.444 . S
C1384 C614 1.437 . S
