# Generated by pormake.
# Topology bmn, (3)-cn, num edge types: 1
# Building blocks:
#     Node 0, Type 0, BuildingBlock: WUSLED_clean_sbu_0, # of connection points: 3
#     Node 1, Type 0, BuildingBlock: WUSLED_clean_sbu_0, # of connection points: 3
#     Node 2, Type 0, BuildingBlock: WUSLED_clean_sbu_0, # of connection points: 3
#     Node 3, Type 0, BuildingBlock: WUSLED_clean_sbu_0, # of connection points: 3
#     Node 4, Type 0, BuildingBlock: WUSLED_clean_sbu_0, # of connection points: 3
#     Node 5, Type 0, BuildingBlock: WUSLED_clean_sbu_0, # of connection points: 3
#     Node 6, Type 0, BuildingBlock: WUSLED_clean_sbu_0, # of connection points: 3
#     Node 7, Type 0, BuildingBlock: WUSLED_clean_sbu_0, # of connection points: 3
#     Node 8, Type 0, BuildingBlock: WUSLED_clean_sbu_0, # of connection points: 3
#     Node 9, Type 0, BuildingBlock: WUSLED_clean_sbu_0, # of connection points: 3
#     Node 10, Type 0, BuildingBlock: WUSLED_clean_sbu_0, # of connection points: 3
#     Node 11, Type 0, BuildingBlock: WUSLED_clean_sbu_0, # of connection points: 3
#     Node 12, Type 0, BuildingBlock: WUSLED_clean_sbu_0, # of connection points: 3
#     Node 13, Type 0, BuildingBlock: WUSLED_clean_sbu_0, # of connection points: 3
#     Node 14, Type 0, BuildingBlock: WUSLED_clean_sbu_0, # of connection points: 3
#     Node 15, Type 0, BuildingBlock: WUSLED_clean_sbu_0, # of connection points: 3
#     Node 16, Type 0, BuildingBlock: WUSLED_clean_sbu_0, # of connection points: 3
#     Node 17, Type 0, BuildingBlock: WUSLED_clean_sbu_0, # of connection points: 3
#     Node 18, Type 0, BuildingBlock: WUSLED_clean_sbu_0, # of connection points: 3
#     Node 19, Type 0, BuildingBlock: WUSLED_clean_sbu_0, # of connection points: 3
#     Node 20, Type 0, BuildingBlock: WUSLED_clean_sbu_0, # of connection points: 3
#     Node 21, Type 0, BuildingBlock: WUSLED_clean_sbu_0, # of connection points: 3
#     Node 22, Type 0, BuildingBlock: WUSLED_clean_sbu_0, # of connection points: 3
#     Node 23, Type 0, BuildingBlock: WUSLED_clean_sbu_0, # of connection points: 3
#     Edge 24, Type (0, 0), None
#     Edge 25, Type (0, 0), None
#     Edge 26, Type (0, 0), None
#     Edge 27, Type (0, 0), None
#     Edge 28, Type (0, 0), None
#     Edge 29, Type (0, 0), None
#     Edge 30, Type (0, 0), None
#     Edge 31, Type (0, 0), None
#     Edge 32, Type (0, 0), None
#     Edge 33, Type (0, 0), None
#     Edge 34, Type (0, 0), None
#     Edge 35, Type (0, 0), None
#     Edge 36, Type (0, 0), None
#     Edge 37, Type (0, 0), None
#     Edge 38, Type (0, 0), None
#     Edge 39, Type (0, 0), None
#     Edge 40, Type (0, 0), None
#     Edge 41, Type (0, 0), None
#     Edge 42, Type (0, 0), None
#     Edge 43, Type (0, 0), None
#     Edge 44, Type (0, 0), None
#     Edge 45, Type (0, 0), None
#     Edge 46, Type (0, 0), None
#     Edge 47, Type (0, 0), None
#     Edge 48, Type (0, 0), None
#     Edge 49, Type (0, 0), None
#     Edge 50, Type (0, 0), None
#     Edge 51, Type (0, 0), None
#     Edge 52, Type (0, 0), None
#     Edge 53, Type (0, 0), None
#     Edge 54, Type (0, 0), None
#     Edge 55, Type (0, 0), None
#     Edge 56, Type (0, 0), None
#     Edge 57, Type (0, 0), None
#     Edge 58, Type (0, 0), None
#     Edge 59, Type (0, 0), None
# Relax obj value: 0.159
# Max RMSD: 0.359
# Mean RMSD: 0.099
data_MOF--net-bmn--node1-WUSLED_clean_sbu_0--edge1-none
_symmetry_space_group_name_H-M    P1
_symmetry_Int_Tables_number       1
_symmetry_cell_setting            triclinic
loop_
_symmetry_equiv_pos_as_xyz
'x, y, z'
_cell_length_a     45.789487
_cell_length_b     50.446568
_cell_length_c     53.85848
_cell_angle_alpha  49.670316
_cell_angle_beta   84.368117
_cell_angle_gamma 82.8958
loop_
_atom_site_label
_atom_site_type_symbol
_atom_site_fract_x
_atom_site_fract_y
_atom_site_fract_z
_atom_type_partial_charge
C0 C 0.26218 0.18255 0.62975 0.0
C1 C 0.24466 0.14787 0.64094 0.0
C2 C 0.31779 0.10654 0.65519 0.0
C3 C 0.28305 0.09627 0.65811 0.0
C4 C 0.32445 0.14589 0.64282 0.0
C5 C 0.29944 0.17999 0.63136 0.0
U6 U 0.20779 0.26127 0.57189 0.0
O7 O 0.21464 0.31696 0.54003 0.0
O8 O 0.17939 0.29597 0.57759 0.0
C9 C 0.19366 0.32343 0.55434 0.0
C10 C 0.24617 0.21609 0.61727 0.0
C11 C 0.19957 0.34785 0.55939 0.0
C12 C 0.23261 0.38422 0.55649 0.0
C13 C 0.22821 0.35659 0.55735 0.0
C14 C 0.17996 0.39394 0.5609 0.0
C15 C 0.20847 0.40379 0.55749 0.0
C16 C 0.1756 0.36637 0.56178 0.0
C17 C 0.165 0.26705 0.51161 0.0
C18 C 0.14192 0.3227 0.4657 0.0
C19 C 0.13744 0.27055 0.47317 0.0
C20 C 0.154 0.25086 0.5014 0.0
C21 C 0.13172 0.30686 0.45457 0.0
C22 C 0.15838 0.30295 0.49397 0.0
C23 C 0.18465 0.24686 0.5395 0.0
O24 O 0.25363 0.24276 0.58734 0.0
O25 O 0.21766 0.21643 0.62337 0.0
O26 O 0.17287 0.23888 0.56665 0.0
O27 O 0.2109 0.25835 0.53276 0.0
H28 H 0.22066 0.15083 0.63965 0.0
H29 H 0.2807 0.07034 0.66623 0.0
H30 H 0.34724 0.14976 0.64244 0.0
H31 H 0.30806 0.20219 0.6258 0.0
H32 H 0.25486 0.39114 0.55369 0.0
H33 H 0.24716 0.34297 0.55523 0.0
H34 H 0.16089 0.40791 0.56239 0.0
H35 H 0.1533 0.36033 0.56313 0.0
H36 H 0.13829 0.3506 0.45184 0.0
H37 H 0.12956 0.25743 0.46559 0.0
H38 H 0.15878 0.22312 0.51484 0.0
H39 H 0.16672 0.31588 0.50155 0.0
C40 C 0.08343 0.70008 0.86081 0.0
C41 C 0.09955 0.71873 0.83111 0.0
C42 C 0.12401 0.74699 0.8459 0.0
C43 C 0.11978 0.74176 0.82385 0.0
C44 C 0.1078 0.72841 0.87547 0.0
C45 C 0.08795 0.70513 0.88289 0.0
U46 U 0.06088 0.6148 0.88497 0.0
O47 O 0.02606 0.58148 0.92045 0.0
O48 O 0.02512 0.60359 0.86964 0.0
C49 C 0.0112 0.58624 0.89796 0.0
C50 C 0.06117 0.67624 0.869 0.0
C51 C 0.97959 0.59723 0.89527 0.0
C52 C 0.91171 0.64433 0.89021 0.0
C53 C 0.96384 0.61335 0.91361 0.0
C54 C 0.92797 0.62205 0.85101 0.0
C55 C 0.90373 0.64227 0.86112 0.0
C56 C 0.96172 0.60185 0.86641 0.0
C57 C 0.14143 0.59855 0.86901 0.0
C58 C 0.18584 0.59652 0.8415 0.0
C59 C 0.17424 0.64522 0.84073 0.0
C60 C 0.14877 0.63013 0.85969 0.0
C61 C 0.19254 0.6292 0.83038 0.0
C62 C 0.16055 0.58138 0.86063 0.0
C63 C 0.11171 0.58682 0.88143 0.0
O64 O 0.05725 0.67223 0.84774 0.0
O65 O 0.06104 0.64685 0.89928 0.0
O66 O 0.09217 0.60415 0.85848 0.0
O67 O 0.10211 0.58159 0.90806 0.0
H68 H 0.0966 0.71557 0.81347 0.0
H69 H 0.13189 0.75577 0.80082 0.0
H70 H 0.11084 0.73141 0.89321 0.0
H71 H 0.07593 0.69114 0.90598 0.0
H72 H 0.89545 0.6583 0.89515 0.0
H73 H 0.97694 0.61048 0.93126 0.0
H74 H 0.92131 0.62165 0.83254 0.0
H75 H 0.97367 0.59161 0.85551 0.0
H76 H 0.19905 0.58355 0.83377 0.0
H77 H 0.17894 0.67007 0.83316 0.0
H78 H 0.13405 0.644 0.8656 0.0
H79 H 0.15495 0.55729 0.86713 0.0
C80 C 0.83255 0.87994 0.94928 0.0
C81 C 0.82614 0.84665 0.96201 0.0
C82 C 0.87618 0.83567 0.94868 0.0
C83 C 0.84781 0.82464 0.96177 0.0
C84 C 0.88258 0.86871 0.93693 0.0
C85 C 0.86097 0.89057 0.93728 0.0
U86 U 0.75218 0.90755 0.95532 0.0
O87 O 0.73367 0.93841 0.96974 0.0
O88 O 0.72709 0.95785 0.92042 0.0
C89 C 0.72407 0.96469 0.94035 0.0
C90 C 0.80956 0.90475 0.94639 0.0
C91 C 0.73045 1.00026 0.92615 0.0
C92 C 0.7449 0.04106 0.93178 0.0
C93 C 0.74199 0.00678 0.94488 0.0
C94 C 0.72554 0.06278 0.88085 0.0
C95 C 0.73637 0.06949 0.89971 0.0
C96 C 0.72252 0.02867 0.89393 0.0
C97 C 0.69071 0.84869 0.98155 0.0
C98 C 0.64029 0.86808 0.96288 0.0
C99 C 0.65283 0.80762 0.0093 0.0
C100 C 0.68204 0.81495 0.00654 0.0
C101 C 0.63174 0.83387 0.98689 0.0
C102 C 0.66943 0.87544 0.96033 0.0
C103 C 0.72219 0.85505 0.97652 0.0
O104 O 0.79079 0.91878 0.9231 0.0
O105 O 0.79685 0.89509 0.97378 0.0
O106 O 0.73092 0.87822 0.94599 0.0
O107 O 0.73321 0.85804 0.99618 0.0
H108 H 0.80424 0.83806 0.97141 0.0
H109 H 0.84222 0.79926 0.97131 0.0
H110 H 0.90394 0.8784 0.92614 0.0
H111 H 0.86621 0.91627 0.92724 0.0
H112 H 0.75346 0.04534 0.94688 0.0
H113 H 0.74815 0.98552 0.96987 0.0
H114 H 0.71819 0.084 0.85631 0.0
H115 H 0.71312 0.0246 0.87903 0.0
H116 H 0.62487 0.88895 0.94499 0.0
H117 H 0.64697 0.78113 0.02852 0.0
H118 H 0.69806 0.79402 0.02337 0.0
H119 H 0.67555 0.9018 0.94098 0.0
C120 C 0.59531 0.60001 0.06981 0.0
C121 C 0.62477 0.59821 0.06069 0.0
C122 C 0.64105 0.60005 0.10115 0.0
C123 C 0.64742 0.59818 0.07623 0.0
C124 C 0.61145 0.60347 0.10924 0.0
C125 C 0.5887 0.60323 0.09378 0.0
U126 U 0.57671 0.57516 0.02165 0.0
O127 O 0.54657 0.53827 0.03208 0.0
O128 O 0.54087 0.59331 0.98803 0.0
C129 C 0.52978 0.56274 0.00732 0.0
C130 C 0.57212 0.59475 0.0567 0.0
C131 C 0.49798 0.56278 0.0152 0.0
C132 C 0.45758 0.55448 0.05207 0.0
C133 C 0.48759 0.55763 0.04337 0.0
C134 C 0.44782 0.56315 1.00378 0.0
C135 C 0.43736 0.5565 0.03271 0.0
C136 C 0.47781 0.56614 0.99521 0.0
C137 C 0.64999 0.55423 0.9896 0.0
C138 C 0.6698 0.56178 0.94185 0.0
C139 C 0.69459 0.52024 0.99319 0.0
C140 C 0.67323 0.52894 0.00773 0.0
C141 C 0.69348 0.53686 0.95994 0.0
C142 C 0.64823 0.57036 0.95654 0.0
C143 C 0.63058 0.56578 1.00518 0.0
O144 O 0.57025 0.61696 0.02478 0.0
O145 O 0.57134 0.56219 0.06934 0.0
O146 O 0.61419 0.59539 0.98658 0.0
O147 O 0.61757 0.54155 0.03299 0.0
H148 H 0.63027 0.59565 0.04226 0.0
H149 H 0.67 0.59607 0.06914 0.0
H150 H 0.60594 0.60486 0.12841 0.0
H151 H 0.56606 0.60439 0.10125 0.0
H152 H 0.45042 0.54915 0.07459 0.0
H153 H 0.50281 0.5551 0.05911 0.0
H154 H 0.43286 0.56561 0.9879 0.0
H155 H 0.48533 0.57035 0.97326 0.0
H156 H 0.66829 0.57532 0.91613 0.0
H157 H 0.71199 0.50036 0.00815 0.0
H158 H 0.67526 0.51634 0.03318 0.0
H159 H 0.63075 0.59026 0.94182 0.0
C160 C 0.35037 0.77433 0.63285 0.0
C161 C 0.35655 0.76736 0.66169 0.0
C162 C 0.37423 0.82509 0.63043 0.0
C163 C 0.36847 0.79236 0.66049 0.0
C164 C 0.36836 0.83189 0.60153 0.0
C165 C 0.3566 0.80665 0.60276 0.0
U166 U 0.29733 0.7043 0.67684 0.0
O167 O 0.26153 0.69477 0.6598 0.0
O168 O 0.29783 0.65444 0.68671 0.0
C169 C 0.27339 0.66387 0.67099 0.0
C170 C 0.33537 0.74909 0.63428 0.0
C171 C 0.27286 0.65594 0.64912 0.0
C172 C 0.28193 0.67057 0.59641 0.0
C173 C 0.2857 0.67682 0.61772 0.0
C174 C 0.25334 0.6219 0.63811 0.0
C175 C 0.26513 0.64345 0.60611 0.0
C176 C 0.25721 0.6281 0.65933 0.0
C177 C 0.25938 0.68257 0.75443 0.0
C178 C 0.24267 0.62945 0.806 0.0
C179 C 0.21284 0.68402 0.77975 0.0
C180 C 0.234 0.70115 0.75465 0.0
C181 C 0.21666 0.64784 0.80559 0.0
C182 C 0.26377 0.64658 0.78069 0.0
C183 C 0.28078 0.7013 0.72669 0.0
O184 O 0.34296 0.71596 0.65829 0.0
O185 O 0.30676 0.75594 0.63046 0.0
O186 O 0.26918 0.72439 0.69776 0.0
O187 O 0.30392 0.6828 0.72704 0.0
H188 H 0.35145 0.74288 0.68524 0.0
H189 H 0.37207 0.78648 0.68323 0.0
H190 H 0.37256 0.85682 0.57802 0.0
H191 H 0.35176 0.81265 0.58023 0.0
H192 H 0.29165 0.68742 0.57212 0.0
H193 H 0.29793 0.69843 0.60945 0.0
H194 H 0.2399 0.60118 0.64638 0.0
H195 H 0.24703 0.6118 0.68346 0.0
H196 H 0.24664 0.60168 0.82573 0.0
H197 H 0.19299 0.69908 0.7782 0.0
H198 H 0.23019 0.72897 0.73495 0.0
H199 H 0.28329 0.63151 0.78157 0.0
C200 C 0.44196 0.78461 0.91586 0.0
C201 C 0.4326 0.81536 0.91068 0.0
C202 C 0.38634 0.81939 0.88889 0.0
C203 C 0.40501 0.83258 0.89735 0.0
C204 C 0.39557 0.78789 0.89523 0.0
C205 C 0.42309 0.77074 0.90855 0.0
U206 U 0.51825 0.76859 0.95119 0.0
O207 O 0.54666 0.7192 0.98039 0.0
O208 O 0.56175 0.76517 0.93235 0.0
C209 C 0.5675 0.73216 0.95764 0.0
C210 C 0.47198 0.76788 0.92639 0.0
C211 C 0.58151 0.71048 0.94985 0.0
C212 C 0.59033 0.70075 0.91102 0.0
C213 C 0.57202 0.7138 0.9239 0.0
C214 C 0.6265 0.6785 0.95168 0.0
C215 C 0.6185 0.6846 0.92366 0.0
C216 C 0.60812 0.69128 0.96464 0.0
C217 C 0.54728 0.81185 0.97747 0.0
C218 C 0.5987 0.79399 0.99246 0.0
C219 C 0.5769 0.84878 0.97734 0.0
C220 C 0.54986 0.84227 0.97273 0.0
C221 C 0.60189 0.8251 0.98648 0.0
C222 C 0.57176 0.78749 0.988 0.0
C223 C 0.52099 0.80756 0.96695 0.0
O224 O 0.49347 0.78817 0.90865 0.0
O225 O 0.47663 0.74653 0.95788 0.0
O226 O 0.51096 0.77637 0.98725 0.0
O227 O 0.52302 0.81986 0.93669 0.0
H228 H 0.44688 0.82644 0.91622 0.0
H229 H 0.39845 0.85648 0.89327 0.0
H230 H 0.38206 0.77714 0.8887 0.0
H231 H 0.43002 0.7471 0.91223 0.0
H232 H 0.58311 0.70511 0.89 0.0
H233 H 0.55141 0.72848 0.91226 0.0
H234 H 0.64797 0.66638 0.96213 0.0
H235 H 0.61579 0.6885 0.98469 0.0
H236 H 0.61741 0.7754 0.99889 0.0
H237 H 0.57841 0.8728 0.97289 0.0
H238 H 0.53132 0.86157 0.96426 0.0
H239 H 0.57044 0.7641 0.99126 0.0
C240 C 0.89036 0.51515 0.91285 0.0
C241 C 0.87231 0.5418 0.90942 0.0
C242 C 0.91542 0.56436 0.91146 0.0
C243 C 0.88473 0.56581 0.90937 0.0
C244 C 0.93298 0.53582 0.91777 0.0
C245 C 0.92056 0.51169 0.91799 0.0
U246 U 0.83416 0.46891 0.90316 0.0
O247 O 0.8413 0.46237 0.86626 0.0
O248 O 0.84443 0.41665 0.91827 0.0
C249 C 0.84527 0.42825 0.88825 0.0
C250 C 0.87933 0.49279 0.90788 0.0
C251 C 0.83087 0.40808 0.88266 0.0
C252 C 0.83433 0.37951 0.8595 0.0
C253 C 0.84566 0.4013 0.86305 0.0
C254 C 0.79249 0.37191 0.89426 0.0
C255 C 0.8079 0.36404 0.87551 0.0
C256 C 0.80394 0.39373 0.89789 0.0
C257 C 0.75917 0.50227 0.921 0.0
C258 C 0.70899 0.52414 0.92215 0.0
C259 C 0.74626 0.51936 0.95405 0.0
C260 C 0.76733 0.50684 0.94238 0.0
C261 C 0.71661 0.52732 0.94474 0.0
C262 C 0.73004 0.51175 0.91047 0.0
C263 C 0.77916 0.4841 0.91213 0.0
O264 O 0.86567 0.50876 0.88055 0.0
O265 O 0.86768 0.46406 0.93305 0.0
O266 O 0.79542 0.45654 0.93543 0.0
O267 O 0.79295 0.50326 0.88363 0.0
H268 H 0.84889 0.54457 0.90593 0.0
H269 H 0.8704 0.5862 0.9067 0.0
H270 H 0.95634 0.53269 0.92158 0.0
H271 H 0.93476 0.49089 0.92115 0.0
H272 H 0.84644 0.37449 0.84442 0.0
H273 H 0.86642 0.41226 0.85102 0.0
H274 H 0.77212 0.36028 0.90698 0.0
H275 H 0.79218 0.39871 0.91313 0.0
H276 H 0.68645 0.52968 0.91459 0.0
H277 H 0.75312 0.52219 0.97086 0.0
H278 H 0.7897 0.49975 0.9508 0.0
H279 H 0.72324 0.50819 0.89414 0.0
C280 C 0.96584 0.46878 0.29019 0.0
C281 C 0.9426 0.46867 0.30923 0.0
C282 C 0.91333 0.51147 0.26076 0.0
C283 C 0.91657 0.48982 0.29467 0.0
C284 C 0.93655 0.51092 0.24187 0.0
C285 C 0.96259 0.48983 0.25645 0.0
U286 U 0.04594 0.44218 0.2838 0.0
O287 O 0.04496 0.45009 0.23865 0.0
O288 O 0.059 0.49129 0.2369 0.0
C289 C 0.05682 0.48008 0.22095 0.0
C290 C 0.99359 0.44766 0.30558 0.0
C291 C 0.08305 0.48296 0.20145 0.0
C292 C 0.10693 0.50955 0.14865 0.0
C293 C 0.08242 0.50748 0.16739 0.0
C294 C 0.13318 0.46296 0.19795 0.0
C295 C 0.13253 0.48707 0.16368 0.0
C296 C 0.10866 0.46093 0.21665 0.0
C297 C 0.09595 0.37394 0.35837 0.0
C298 C 0.12501 0.3216 0.40106 0.0
C299 C 0.09784 0.35782 0.41168 0.0
C300 C 0.08718 0.38032 0.37993 0.0
C301 C 0.11741 0.32857 0.42239 0.0
C302 C 0.1144 0.34405 0.36943 0.0
C303 C 0.08887 0.39941 0.32351 0.0
O304 O 0.0155 0.46526 0.30068 0.0
O305 O 1.00151 0.42416 0.30221 0.0
O306 O 0.08468 0.43236 0.31046 0.0
O307 O 0.07057 0.3904 0.31321 0.0
H308 H 0.94471 0.4525 0.33533 0.0
H309 H 0.89903 0.48935 0.30996 0.0
H310 H 0.93498 0.5276 0.21567 0.0
H311 H 0.98039 0.49034 0.24135 0.0
H312 H 0.10578 0.52873 0.12236 0.0
H313 H 0.06287 0.52481 0.15527 0.0
H314 H 0.15232 0.44494 0.21036 0.0
H315 H 0.1095 0.44182 0.24299 0.0
H316 H 0.14031 0.29966 0.40822 0.0
H317 H 0.09121 0.36369 0.42762 0.0
H318 H 0.07285 0.40318 0.37199 0.0
H319 H 0.12157 0.33877 0.35312 0.0
C320 C 0.364 0.25873 0.33672 0.0
C321 C 0.37117 0.22666 0.36741 0.0
C322 C 0.36317 0.25449 0.39164 0.0
C323 C 0.37072 0.22453 0.39475 0.0
C324 C 0.35554 0.28629 0.36084 0.0
C325 C 0.35601 0.28835 0.33371 0.0
U326 U 0.37556 0.22503 0.28881 0.0
O327 O 0.34877 0.24182 0.24849 0.0
O328 O 0.39536 0.25272 0.23955 0.0
C329 C 0.37104 0.25427 0.22742 0.0
C330 C 0.36469 0.26246 0.30727 0.0
C331 C 0.37424 0.24659 0.20502 0.0
C332 C 0.39392 0.26274 0.15362 0.0
C333 C 0.39301 0.26595 0.17757 0.0
C334 C 0.35772 0.22001 0.1845 0.0
C335 C 0.37587 0.24024 0.15645 0.0
C336 C 0.35689 0.22316 0.20855 0.0
C337 C 0.39468 0.13613 0.36956 0.0
C338 C 0.37875 0.0886 0.42496 0.0
C339 C 0.41461 0.1259 0.41556 0.0
C340 C 0.41366 0.14466 0.38207 0.0
C341 C 0.39655 0.09831 0.43733 0.0
C342 C 0.37784 0.10737 0.39136 0.0
C343 C 0.39065 0.15839 0.33408 0.0
O344 O 0.39078 0.25843 0.29706 0.0
O345 O 0.34426 0.24755 0.30563 0.0
O346 O 0.4099 0.18175 0.3151 0.0
O347 O 0.36339 0.17078 0.32451 0.0
H348 H 0.37724 0.20348 0.37013 0.0
H349 H 0.37685 0.19969 0.41809 0.0
H350 H 0.34906 0.30969 0.35767 0.0
H351 H 0.3502 0.31325 0.31023 0.0
H352 H 0.4086 0.27818 0.1327 0.0
H353 H 0.40649 0.28432 0.1742 0.0
H354 H 0.3434 0.20259 0.18737 0.0
H355 H 0.34206 0.20799 0.22938 0.0
H356 H 0.36447 0.06759 0.44106 0.0
H357 H 0.42899 0.13363 0.42435 0.0
H358 H 0.42705 0.16658 0.36599 0.0
H359 H 0.36313 0.10022 0.3823 0.0
C360 C 0.36683 0.26384 0.59197 0.0
C361 C 0.35382 0.27541 0.60841 0.0
C362 C 0.39929 0.29929 0.60298 0.0
C363 C 0.36983 0.29286 0.61394 0.0
C364 C 0.41191 0.28902 0.58512 0.0
C365 C 0.39582 0.27131 0.57973 0.0
U366 U 0.3383 0.22383 0.55698 0.0
O367 O 0.33759 0.26687 0.50393 0.0
O368 O 0.37504 0.22724 0.52579 0.0
C369 C 0.36244 0.25477 0.49881 0.0
C370 C 0.35029 0.24121 0.59122 0.0
C371 C 0.36264 0.25353 0.47227 0.0
C372 C 0.37506 0.28049 0.41598 0.0
C373 C 0.3745 0.28061 0.44185 0.0
C374 C 0.35217 0.22572 0.45075 0.0
C375 C 0.36367 0.25325 0.41997 0.0
C376 C 0.35158 0.22592 0.47672 0.0
C377 C 0.28408 0.15019 0.61394 0.0
C378 C 0.23524 0.10356 0.63873 0.0
C379 C 0.25304 0.09754 0.69579 0.0
C380 C 0.27993 0.12568 0.67481 0.0
C381 C 0.23309 0.08711 0.67844 0.0
C382 C 0.25843 0.13248 0.60817 0.0
C383 C 0.30165 0.17529 0.58259 0.0
O384 O 0.36517 0.2158 0.59334 0.0
O385 O 0.32812 0.25622 0.57129 0.0
O386 O 0.33039 0.16921 0.58249 0.0
O387 O 0.29301 0.20868 0.56435 0.0
H388 H 0.33152 0.26964 0.61825 0.0
H389 H 0.35945 0.29974 0.62823 0.0
H390 H 0.43441 0.29398 0.57593 0.0
H391 H 0.40624 0.26263 0.56689 0.0
H392 H 0.38455 0.30176 0.39281 0.0
H393 H 0.38335 0.30198 0.43807 0.0
H394 H 0.34309 0.20448 0.45455 0.0
H395 H 0.34238 0.20472 0.50015 0.0
H396 H 0.22152 0.09271 0.63254 0.0
H397 H 0.24971 0.08477 0.72136 0.0
H398 H 0.29188 0.13017 0.68828 0.0
H399 H 0.25716 0.13954 0.58456 0.0
C400 C 0.44858 0.33425 0.63986 0.0
C401 C 0.46192 0.3106 0.6359 0.0
C402 C 0.41717 0.31386 0.61274 0.0
C403 C 0.44638 0.30041 0.62257 0.0
C404 C 0.40437 0.33891 0.6153 0.0
C405 C 0.41983 0.34882 0.62894 0.0
U406 U 0.45143 0.34285 0.70498 0.0
O407 O 0.40601 0.36198 0.70696 0.0
O408 O 0.41873 0.30582 0.7394 0.0
C409 C 0.39913 0.33068 0.7331 0.0
C410 C 0.46439 0.34151 0.65725 0.0
C411 C 0.38975 0.32716 0.76198 0.0
C412 C 0.36147 0.29808 0.81291 0.0
C413 C 0.36639 0.30708 0.78222 0.0
C414 C 0.4024 0.33049 0.80257 0.0
C415 C 0.38014 0.30872 0.82377 0.0
C416 C 0.4072 0.33955 0.77204 0.0
C417 C 0.52265 0.3568 0.72794 0.0
C418 C 0.56094 0.37436 0.74162 0.0
C419 C 0.57395 0.3387 0.72611 0.0
C420 C 0.54421 0.33947 0.72149 0.0
C421 C 0.58255 0.35518 0.7373 0.0
C422 C 0.5313 0.37512 0.73699 0.0
C423 C 0.49117 0.35229 0.73 0.0
O424 O 0.46953 0.31448 0.68795 0.0
O425 O 0.45568 0.37037 0.65244 0.0
O426 O 0.47481 0.37823 0.70554 0.0
O427 O 0.48464 0.32142 0.74158 0.0
H428 H 0.48407 0.29902 0.6442 0.0
H429 H 0.45685 0.28075 0.62143 0.0
H430 H 0.38211 0.35028 0.60748 0.0
H431 H 0.409 0.36717 0.63167 0.0
H432 H 0.34426 0.28112 0.82885 0.0
H433 H 0.35293 0.29694 0.77502 0.0
H434 H 0.41692 0.33937 0.81018 0.0
H435 H 0.42554 0.35478 0.75695 0.0
H436 H 0.56663 0.38701 0.75059 0.0
H437 H 0.5901 0.32414 0.72209 0.0
H438 H 0.53796 0.32523 0.71437 0.0
H439 H 0.51495 0.38846 0.74225 0.0
C440 C 0.37781 0.2666 0.92348 0.0
C441 C 0.35158 0.28047 0.90601 0.0
C442 C 0.37878 0.29434 0.85811 0.0
C443 C 0.35205 0.29405 0.87355 0.0
C444 C 0.40482 0.28023 0.87583 0.0
C445 C 0.40429 0.26643 0.90813 0.0
U446 U 0.36236 0.27086 0.9927 0.0
O447 O 0.35434 0.22909 0.04544 0.0
O448 O 0.39522 0.2556 0.02771 0.0
C449 C 0.37875 0.23327 0.05317 0.0
C450 C 0.37886 0.25225 0.95752 0.0
C451 C 0.37628 0.23577 0.0791 0.0
C452 C 0.37395 0.2067 0.13688 0.0
C453 C 0.37431 0.20531 0.11173 0.0
C454 C 0.37697 0.26925 0.09698 0.0
C455 C 0.37552 0.23866 0.12981 0.0
C456 C 0.37752 0.26779 0.0719 0.0
C457 C 0.32053 0.3498 0.97809 0.0
C458 C 0.31454 0.35375 0.02093 0.0
C459 C 0.30397 0.405 0.9651 0.0
C460 C 0.31112 0.38521 0.95529 0.0
C461 C 0.30649 0.38978 0.99789 0.0
C462 C 0.32135 0.33392 0.01109 0.0
C463 C 0.33158 0.3305 0.96682 0.0
O464 O 0.39552 0.26816 0.96199 0.0
O465 O 0.35411 0.24357 0.97486 0.0
O466 O 0.3195 0.30127 0.98085 0.0
O467 O 0.36039 0.32763 0.9639 0.0
H468 H 0.33083 0.28098 0.91729 0.0
H469 H 0.33169 0.30477 0.86039 0.0
H470 H 0.42566 0.2795 0.86479 0.0
H471 H 0.42474 0.25566 0.92118 0.0
H472 H 0.37312 0.18262 0.16185 0.0
H473 H 0.37361 0.1803 0.11779 0.0
H474 H 0.37765 0.29441 0.09059 0.0
H475 H 0.37927 0.29166 0.0469 0.0
H476 H 0.31696 0.34116 0.04631 0.0
H477 H 0.29726 0.43248 0.94683 0.0
H478 H 0.31015 0.3978 0.92972 0.0
H479 H 0.32819 0.30645 0.02904 0.0
C480 C 0.3467 0.53479 0.06491 0.0
C481 C 0.36208 0.52279 0.04961 0.0
C482 C 0.40588 0.54972 0.04344 0.0
C483 C 0.39128 0.53008 0.03907 0.0
C484 C 0.39033 0.56182 0.05877 0.0
C485 C 0.36095 0.55443 0.06939 0.0
U486 U 0.28385 0.49185 0.06932 0.0
O487 O 0.25192 0.45725 0.10775 0.0
O488 O 0.23623 0.50652 0.06111 0.0
C489 C 0.22909 0.47869 0.09065 0.0
C490 C 0.31596 0.52634 0.076 0.0
C491 C 0.20532 0.48395 0.108 0.0
C492 C 0.18713 0.48293 0.15261 0.0
C493 C 0.21069 0.48118 0.13487 0.0
C494 C 0.15275 0.49119 0.1163 0.0
C495 C 0.15783 0.48754 0.14375 0.0
C496 C 0.17623 0.48939 0.09869 0.0
C497 C 0.30471 0.45124 0.02765 0.0
C498 C 0.29111 0.39984 0.03773 0.0
C499 C 0.31555 0.44456 0.98688 0.0
C500 C 0.31606 0.46394 0.99693 0.0
C501 C 0.30361 0.41193 0.00738 0.0
C502 C 0.29165 0.41935 0.04781 0.0
C503 C 0.30962 0.47031 0.03883 0.0
O504 O 0.29716 0.54181 0.05242 0.0
O505 O 0.31258 0.49289 0.09912 0.0
O506 O 0.31112 0.45213 0.07042 0.0
O507 O 0.29538 0.50119 0.02366 0.0
H508 H 0.3515 0.50748 0.04601 0.0
H509 H 0.40258 0.51969 0.02803 0.0
H510 H 0.40078 0.57723 0.06232 0.0
H511 H 0.34941 0.56399 0.08108 0.0
H512 H 0.19185 0.48046 0.17337 0.0
H513 H 0.23298 0.47703 0.14251 0.0
H514 H 0.13054 0.49424 0.10902 0.0
H515 H 0.17159 0.49132 0.07819 0.0
H516 H 0.28141 0.37503 0.05394 0.0
H517 H 0.32582 0.4545 0.96361 0.0
H518 H 0.32641 0.48836 0.98112 0.0
H519 H 0.28265 0.40905 0.07165 0.0
C520 C 0.71321 0.59105 0.15233 0.0
C521 C 0.69004 0.61699 0.14191 0.0
C522 C 0.6654 0.59664 0.11955 0.0
C523 C 0.66617 0.61959 0.12585 0.0
C524 C 0.68846 0.57044 0.1305 0.0
C525 C 0.7121 0.56767 0.14677 0.0
U526 U 0.76681 0.63474 0.16308 0.0
O527 O 0.79181 0.6157 0.20562 0.0
O528 O 0.8151 0.63101 0.16089 0.0
C529 C 0.81734 0.61732 0.19136 0.0
C530 C 0.73962 0.58934 0.16696 0.0
C531 C 0.83922 0.58721 0.21107 0.0
C532 C 0.8738 0.54177 0.21883 0.0
C533 C 0.8503 0.5671 0.20212 0.0
C534 C 0.8746 0.55518 0.25454 0.0
C535 C 0.88659 0.53596 0.24487 0.0
C536 C 0.85124 0.58057 0.23775 0.0
C537 C 0.75665 0.73109 0.11916 0.0
C538 C 0.79832 0.76132 0.11145 0.0
C539 C 0.74989 0.7921 0.09473 0.0
C540 C 0.73824 0.76164 0.10562 0.0
C541 C 0.78024 0.79251 0.09693 0.0
C542 C 0.78661 0.73094 0.12263 0.0
C543 C 0.74517 0.6999 0.12809 0.0
O544 O 0.7614 0.60604 0.14617 0.0
O545 O 0.73529 0.59428 0.18828 0.0
O546 O 0.73827 0.67588 0.15909 0.0
O547 O 0.7603 0.68699 0.11555 0.0
H548 H 0.69067 0.63558 0.14567 0.0
H549 H 0.64876 0.64011 0.11755 0.0
H550 H 0.68825 0.55208 0.1264 0.0
H551 H 0.72981 0.54758 0.15452 0.0
H552 H 0.88224 0.52706 0.21107 0.0
H553 H 0.84136 0.57157 0.18169 0.0
H554 H 0.88407 0.55167 0.27424 0.0
H555 H 0.84318 0.5959 0.24496 0.0
H556 H 0.82184 0.76055 0.11302 0.0
H557 H 0.73517 0.81538 0.08415 0.0
H558 H 0.715 0.76214 0.10289 0.0
H559 H 0.80118 0.70754 0.13305 0.0
C560 C 0.2341 0.63322 0.53987 0.0
C561 C 0.23883 0.6661 0.52927 0.0
C562 C 0.25742 0.63954 0.58237 0.0
C563 C 0.25034 0.66928 0.55025 0.0
C564 C 0.25419 0.60639 0.5923 0.0
C565 C 0.24251 0.60326 0.57125 0.0
U566 U 0.20321 0.58995 0.50937 0.0
O567 O 0.2376 0.5503 0.5179 0.0
O568 O 0.20155 0.53506 0.55374 0.0
C569 C 0.22457 0.52444 0.54474 0.0
C570 C 0.21727 0.63163 0.519 0.0
C571 C 0.2207 0.49426 0.54709 0.0
C572 C 0.23622 0.43487 0.5691 0.0
C573 C 0.24007 0.46418 0.56576 0.0
C574 C 0.19361 0.46549 0.53489 0.0
C575 C 0.21282 0.43503 0.55388 0.0
C576 C 0.19753 0.4948 0.53152 0.0
C577 C 0.14884 0.65137 0.44281 0.0
C578 C 0.10512 0.68798 0.41245 0.0
C579 C 0.14168 0.71115 0.422 0.0
C580 C 0.15866 0.67929 0.43873 0.0
C581 C 0.11437 0.71569 0.40926 0.0
C582 C 0.1222 0.65608 0.42915 0.0
C583 C 0.16491 0.61662 0.46388 0.0
O584 O 0.19432 0.61301 0.53288 0.0
O585 O 0.23221 0.62815 0.49901 0.0
O586 O 0.1576 0.59773 0.49495 0.0
O587 O 0.19354 0.61581 0.45859 0.0
H588 H 0.23228 0.68954 0.50517 0.0
H589 H 0.2521 0.69522 0.54177 0.0
H590 H 0.25986 0.58288 0.61666 0.0
H591 H 0.23905 0.57762 0.57987 0.0
H592 H 0.2513 0.41187 0.58406 0.0
H593 H 0.25806 0.46324 0.57803 0.0
H594 H 0.17568 0.46684 0.52232 0.0
H595 H 0.18242 0.51785 0.51686 0.0
H596 H 0.08409 0.6904 0.40328 0.0
H597 H 0.14972 0.73205 0.41958 0.0
H598 H 0.1791 0.67613 0.44928 0.0
H599 H 0.11413 0.63472 0.43233 0.0
C600 C 0.82484 0.69321 0.80649 0.0
C601 C 0.85139 0.6929 0.79145 0.0
C602 C 0.87648 0.66017 0.84258 0.0
C603 C 0.87701 0.67657 0.80932 0.0
C604 C 0.84987 0.66081 0.85763 0.0
C605 C 0.82408 0.67711 0.83968 0.0
U606 U 0.74165 0.71711 0.79528 0.0
O607 O 0.72121 0.66941 0.83725 0.0
O608 O 0.73095 0.70883 0.84024 0.0
C609 C 0.71893 0.67949 0.85464 0.0
C610 C 0.7987 0.71196 0.78655 0.0
C611 C 0.69045 0.6767 0.87089 0.0
C612 C 0.66339 0.65153 0.92178 0.0
C613 C 0.68784 0.65045 0.9047 0.0
C614 C 0.64289 0.70376 0.87101 0.0
C615 C 0.64105 0.67889 0.9053 0.0
C616 C 0.66741 0.70268 0.85396 0.0
C617 C 0.72415 0.78717 0.70904 0.0
C618 C 0.72856 0.8462 0.65804 0.0
C619 C 0.76699 0.80086 0.67324 0.0
C620 C 0.75103 0.77667 0.70159 0.0
C621 C 0.75655 0.83623 0.6517 0.0
C622 C 0.71256 0.82187 0.68658 0.0
C623 C 0.71171 0.76373 0.74246 0.0
O624 O 0.7851 0.73544 0.78798 0.0
O625 O 0.78075 0.69297 0.78737 0.0
O626 O 0.71422 0.73036 0.75668 0.0
O627 O 0.71937 0.76971 0.76124 0.0
H628 H 0.85237 0.70566 0.76574 0.0
H629 H 0.89733 0.67743 0.79679 0.0
H630 H 0.84887 0.64826 0.88326 0.0
H631 H 0.80366 0.67735 0.85157 0.0
H632 H 0.66272 0.63179 0.94805 0.0
H633 H 0.70547 0.63016 0.91814 0.0
H634 H 0.62648 0.72557 0.85739 0.0
H635 H 0.66921 0.7233 0.82781 0.0
H636 H 0.71969 0.87315 0.64176 0.0
H637 H 0.78857 0.79218 0.66959 0.0
H638 H 0.76075 0.75017 0.71878 0.0
H639 H 0.69201 0.83059 0.692 0.0
C640 C 0.39416 0.90022 0.63849 0.0
C641 C 0.37546 0.91034 0.61398 0.0
C642 C 0.38415 0.85251 0.62987 0.0
C643 C 0.37054 0.88668 0.60968 0.0
C644 C 0.40479 0.84366 0.65235 0.0
C645 C 0.40969 0.86728 0.65662 0.0
U646 U 0.38807 0.98209 0.63323 0.0
O647 O 0.35912 0.98347 0.66733 0.0
O648 O 0.40632 0.98837 0.66552 0.0
C649 C 0.38008 0.99062 0.67668 0.0
C650 C 0.39323 0.91982 0.65027 0.0
C651 C 0.37208 0.02129 0.67437 0.0
C652 C 0.33938 0.0459 0.69426 0.0
C653 C 0.35473 0.01704 0.69948 0.0
C654 C 0.36105 0.08414 0.63993 0.0
C655 C 0.34144 0.07945 0.66399 0.0
C656 C 0.37614 0.05513 0.64498 0.0
C657 C 0.38919 0.05255 0.53811 0.0
C658 C 0.39346 0.10307 0.48088 0.0
C659 C 0.39283 0.04568 0.4972 0.0
C660 C 0.39025 0.03103 0.52999 0.0
C661 C 0.39456 0.08191 0.47231 0.0
C662 C 0.39085 0.08851 0.51341 0.0
C663 C 0.38664 0.03893 0.57183 0.0
O664 O 0.41622 0.93642 0.64478 0.0
O665 O 0.36792 0.93682 0.64752 0.0
O666 O 0.41089 0.02415 0.58861 0.0
O667 O 0.36304 0.02275 0.58883 0.0
H668 H 0.36315 0.93563 0.5997 0.0
H669 H 0.35448 0.89433 0.59218 0.0
H670 H 0.41605 0.8178 0.66784 0.0
H671 H 0.42414 0.85887 0.67571 0.0
H672 H 0.32403 0.0417 0.71296 0.0
H673 H 0.35103 0.99115 0.72215 0.0
H674 H 0.36259 0.10966 0.61622 0.0
H675 H 0.38906 0.05892 0.62508 0.0
H676 H 0.3941 0.1311 0.46239 0.0
H677 H 0.39372 0.02871 0.49134 0.0
H678 H 0.3891 0.00312 0.5489 0.0
H679 H 0.38999 0.10547 0.51931 0.0
C680 C 0.18958 0.81081 0.83132 0.0
C681 C 0.16093 0.81304 0.84227 0.0
C682 C 0.14598 0.77066 0.8389 0.0
C683 C 0.13938 0.79315 0.84604 0.0
C684 C 0.17431 0.76945 0.82684 0.0
C685 C 0.19588 0.78917 0.82326 0.0
U686 U 0.22942 0.89038 0.80339 0.0
O687 O 0.25543 0.89502 0.83255 0.0
O688 O 0.27659 0.89882 0.79212 0.0
C689 C 0.28009 0.89811 0.81647 0.0
C690 C 0.21388 0.82799 0.83096 0.0
C691 C 0.3064 0.87736 0.83609 0.0
C692 C 0.33298 0.82213 0.87822 0.0
C693 C 0.30727 0.84098 0.86054 0.0
C694 C 0.35697 0.87588 0.84735 0.0
C695 C 0.35826 0.83934 0.87171 0.0
C696 C 0.33132 0.89462 0.82978 0.0
C697 C 0.20224 0.98428 0.74222 0.0
C698 C 0.23507 0.02553 0.73047 0.0
C699 C 0.19463 0.04593 0.69473 0.0
C700 C 0.18601 0.01167 0.71466 0.0
C701 C 0.21964 0.05315 0.70212 0.0
C702 C 0.22642 0.99167 0.75026 0.0
C703 C 0.19639 0.94756 0.7609 0.0
O704 O 0.23017 0.84611 0.80411 0.0
O705 O 0.20843 0.84283 0.84414 0.0
O706 O 0.21411 0.93115 0.75322 0.0
O707 O 0.19305 0.92923 0.79258 0.0
H708 H 0.15529 0.82945 0.8487 0.0
H709 H 0.11763 0.79499 0.85499 0.0
H710 H 0.1802 0.75217 0.82143 0.0
H711 H 0.21784 0.78669 0.81508 0.0
H712 H 0.33306 0.79407 0.897 0.0
H713 H 0.28819 0.82721 0.86579 0.0
H714 H 0.37605 0.89001 0.84119 0.0
H715 H 0.33108 0.92271 0.81091 0.0
H716 H 0.25517 0.02927 0.73653 0.0
H717 H 0.18233 0.06645 0.67306 0.0
H718 H 0.16737 0.00639 0.70793 0.0
H719 H 0.23956 0.97086 0.7711 0.0
C720 C 0.94135 0.65928 0.91362 0.0
C721 C 0.95406 0.67467 0.87598 0.0
C722 C 0.92825 0.59249 0.90875 0.0
C723 C 0.9523 0.65196 0.86288 0.0
C724 C 0.91942 0.58921 0.94233 0.0
C725 C 0.92596 0.62086 0.94334 0.0
U726 U 0.97477 0.73382 0.89698 0.0
O727 O 0.98038 0.74763 0.92767 0.0
O728 O 0.95444 0.78311 0.88322 0.0
C729 C 0.96328 0.77667 0.90926 0.0
C730 C 0.94191 0.68291 0.92047 0.0
C731 C 0.94096 0.78465 0.92568 0.0
C732 C 0.88972 0.79748 0.93388 0.0
C733 C 0.91085 0.78266 0.92458 0.0
C734 C 0.92853 0.81394 0.94795 0.0
C735 C 0.89833 0.81444 0.94456 0.0
C736 C 0.94962 0.79931 0.93846 0.0
C737 C 0.03543 0.77822 0.83568 0.0
C738 C 0.04775 0.82753 0.82963 0.0
C739 C 0.04092 0.83423 0.78179 0.0
C740 C 0.03666 0.79871 0.80168 0.0
C741 C 0.04391 0.84953 0.79577 0.0
C742 C 0.04342 0.79216 0.84944 0.0
C743 C 0.01774 0.74781 0.85519 0.0
O744 O 0.96532 0.67872 0.93537 0.0
O745 O 0.93429 0.71568 0.89584 0.0
O746 O 0.98989 0.75619 0.84737 0.0
O747 O 0.0214 0.72587 0.88691 0.0
H748 H 0.96299 0.6999 0.85952 0.0
H749 H 0.95991 0.66446 0.83786 0.0
H750 H 0.90855 0.56683 0.96315 0.0
H751 H 0.91894 0.6163 0.96552 0.0
H752 H 0.86671 0.79752 0.93074 0.0
H753 H 0.90363 0.77142 0.91481 0.0
H754 H 0.93592 0.82609 0.95674 0.0
H755 H 0.97275 0.80106 0.93955 0.0
H756 H 0.05028 0.83811 0.84143 0.0
H757 H 0.03872 0.85031 0.75572 0.0
H758 H 0.03087 0.78834 0.79057 0.0
H759 H 0.04289 0.7769 0.87561 0.0
C760 C 0.91793 0.0401 0.78843 0.0
C761 C 0.92478 0.00598 0.81729 0.0
C762 C 0.91782 0.0256 0.84879 0.0
C763 C 0.92456 0.99879 0.84713 0.0
C764 C 0.9119 0.05993 0.81971 0.0
C765 C 0.91181 0.06705 0.78985 0.0
U766 U 0.94218 0.02092 0.73126 0.0
O767 O 0.9137 0.01338 0.70611 0.0
O768 O 0.94472 0.05422 0.67756 0.0
C769 C 0.92546 0.03715 0.67722 0.0
C770 C 0.9155 0.04735 0.75728 0.0
C771 C 0.93263 0.02761 0.6563 0.0
C772 C 0.93548 0.04577 0.60181 0.0
C773 C 0.93257 0.05404 0.6223 0.0
C774 C 0.93958 0.98432 0.64899 0.0
C775 C 0.93839 0.01077 0.61489 0.0
C776 C 0.93673 0.99263 0.66946 0.0
C777 C 1.00521 0.94827 0.76212 0.0
C778 C 0.01007 0.90266 0.75824 0.0
C779 C 0.04723 0.90535 0.78545 0.0
C780 C 0.03216 0.93551 0.77796 0.0
C781 C 0.03526 0.88726 0.77761 0.0
C782 C 0.99517 0.93294 0.75056 0.0
C783 C 0.98576 0.973 0.76317 0.0
O784 O 0.93778 0.06141 0.73638 0.0
O785 O 0.90553 0.02224 0.75998 0.0
O786 O 0.95786 0.96655 0.76978 0.0
O787 O 0.98981 0.00631 0.74042 0.0
H788 H 0.9298 0.98469 0.81689 0.0
H789 H 0.92964 0.97216 0.86897 0.0
H790 H 0.90647 0.08112 0.82017 0.0
H791 H 0.9064 0.09354 0.76793 0.0
H792 H 0.93416 0.06681 0.57575 0.0
H793 H 0.92921 0.08119 0.61156 0.0
H794 H 0.94223 0.95711 0.65992 0.0
H795 H 0.93683 0.97164 0.69558 0.0
H796 H 1.00001 0.88955 0.75182 0.0
H797 H 0.06688 0.8946 0.79978 0.0
H798 H 0.04038 0.94726 0.78679 0.0
H799 H 0.9745 0.94257 0.73808 0.0
C800 C 0.90745 0.9332 0.10382 0.0
C801 C 0.89307 0.92912 0.1302 0.0
C802 C 0.93961 0.92887 0.14882 0.0
C803 C 0.9089 0.92695 0.15245 0.0
C804 C 0.95373 0.93507 0.12117 0.0
C805 C 0.93783 0.93707 0.09894 0.0
U806 U 0.88386 0.94545 0.02822 0.0
O807 O 0.88983 0.99963 0.98363 0.0
O808 O 0.92442 0.95812 0.99828 0.0
C809 C 0.91426 0.99044 0.975 0.0
C810 C 0.8908 0.92837 0.08503 0.0
C811 C 0.9144 1.00039 0.94246 0.0
C812 C 0.92897 0.0384 0.885 0.0
C813 C 0.92813 0.02984 0.91557 0.0
C814 C 0.90221 0.9882 0.9079 0.0
C815 C 0.91629 0.01742 0.8809 0.0
C816 C 0.90117 0.97987 0.93828 0.0
C817 C 0.82593 0.8851 0.04674 0.0
C818 C 0.78331 0.85727 0.05223 0.0
C819 C 0.81897 0.82525 0.09507 0.0
C820 C 0.83507 0.85461 0.07757 0.0
C821 C 0.7937 0.82561 0.08184 0.0
C822 C 0.79916 0.88681 0.03508 0.0
C823 C 0.84556 0.91341 0.02474 0.0
O824 O 0.90495 0.91167 0.07571 0.0
O825 O 0.87229 0.95421 0.06338 0.0
O826 O 0.87388 0.90386 0.0286 0.0
O827 O 0.83856 0.94269 0.01953 0.0
H828 H 0.86968 0.92576 0.13459 0.0
H829 H 0.89719 0.92173 0.17351 0.0
H830 H 0.97725 0.93733 0.1172 0.0
H831 H 0.94944 0.94027 0.07874 0.0
H832 H 0.94007 0.06099 0.86473 0.0
H833 H 0.93844 0.04602 0.91828 0.0
H834 H 0.8918 0.97184 0.90549 0.0
H835 H 0.89023 0.95716 0.95865 0.0
H836 H 0.76397 0.85882 0.04118 0.0
H837 H 0.82707 0.8018 0.11836 0.0
H838 H 0.85537 0.85292 0.08747 0.0
H839 H 0.7914 0.91047 0.01171 0.0
C840 C 0.98643 0.89752 0.23105 0.0
C841 C 0.99848 0.889 0.21185 0.0
C842 C 0.95691 0.92087 0.17544 0.0
C843 C 0.98393 0.90047 0.18441 0.0
C844 C 0.94552 0.93064 0.19406 0.0
C845 C 0.96012 0.91897 0.22169 0.0
U846 U 0.99885 0.88228 0.31026 0.0
O847 O 0.98912 0.93355 0.29785 0.0
O848 O 0.95495 0.89664 0.32075 0.0
C849 C 0.96279 0.92601 0.31179 0.0
C850 C 1.00061 0.88113 0.26196 0.0
C851 C 0.95612 0.93114 0.33589 0.0
C852 C 0.93181 0.96573 0.34994 0.0
C853 C 0.93992 0.96158 0.32679 0.0
C854 C 0.95671 0.90934 0.39153 0.0
C855 C 0.93964 0.9394 0.38279 0.0
C856 C 0.96489 0.9053 0.36831 0.0
C857 C 0.05518 0.80742 0.37052 0.0
C858 C 0.09204 0.76367 0.40937 0.0
C859 C 0.07774 0.76329 0.36747 0.0
C860 C 0.05812 0.7927 0.35538 0.0
C861 C 0.09477 0.74822 0.39483 0.0
C862 C 0.07246 0.79294 0.39731 0.0
C863 C 0.03334 0.83672 0.35992 0.0
O864 O 0.98425 0.86154 0.28852 0.0
O865 O 0.01704 0.90039 0.26246 0.0
O866 O 1.00604 0.83176 0.35924 0.0
O867 O 0.0409 0.86796 0.33449 0.0
H868 H 0.0187 0.87229 0.2188 0.0
H869 H 0.99323 0.89185 0.1712 0.0
H870 H 0.92501 0.94671 0.1877 0.0
H871 H 0.95048 0.92587 0.23621 0.0
H872 H 0.91913 0.98947 0.34212 0.0
H873 H 0.9331 0.98193 0.30185 0.0
H874 H 0.96288 0.88831 0.41655 0.0
H875 H 0.97749 0.8816 0.37584 0.0
H876 H 0.10439 0.75252 0.43075 0.0
H877 H 0.0795 0.7523 0.35549 0.0
H878 H 0.04495 0.80363 0.33458 0.0
H879 H 0.07038 0.80387 0.40939 0.0
C880 C 0.90469 0.94164 0.45919 0.0
C881 C 0.88791 0.95602 0.43199 0.0
C882 C 0.92847 0.94219 0.40816 0.0
C883 C 0.89959 0.95634 0.40682 0.0
C884 C 0.94569 0.92896 0.43488 0.0
C885 C 0.93392 0.92861 0.46017 0.0
U886 U 0.891 0.94761 0.52895 0.0
O887 O 0.93519 0.9468 0.54236 0.0
O888 O 0.90868 0.99651 0.51017 0.0
C889 C 0.93172 0.9799 0.52891 0.0
C890 C 0.88971 0.93656 0.48756 0.0
C891 C 0.93492 0.9869 0.55123 0.0
C892 C 0.95323 0.02115 0.5628 0.0
C893 C 0.95162 0.01366 0.54201 0.0
C894 C 0.92172 0.97491 0.60239 0.0
C895 C 0.93819 1.00192 0.59325 0.0
C896 C 0.92002 0.96759 0.5816 0.0
C897 C 0.82298 0.90628 0.58808 0.0
C898 C 0.77848 0.89333 0.62141 0.0
C899 C 0.7973 0.8557 0.60926 0.0
C900 C 0.8203 0.87724 0.59053 0.0
C901 C 0.77675 0.86277 0.62598 0.0
C902 C 0.80136 0.91481 0.60266 0.0
C903 C 0.84966 0.92549 0.57438 0.0
O904 O 0.87645 0.96431 0.4825 0.0
O905 O 0.90256 0.91427 0.5159 0.0
O906 O 0.87471 0.90727 0.57876 0.0
O907 O 0.84776 0.95661 0.54548 0.0
H908 H 0.86518 0.96577 0.43083 0.0
H909 H 0.88543 0.96627 0.38703 0.0
H910 H 0.96814 0.91831 0.43657 0.0
H911 H 0.94742 0.91722 0.48086 0.0
H912 H 0.96623 0.042 0.55504 0.0
H913 H 0.96316 0.02899 0.51862 0.0
H914 H 0.90939 0.95999 0.62529 0.0
H915 H 0.90667 0.9471 0.58908 0.0
H916 H 0.7634 0.89947 0.63414 0.0
H917 H 0.79637 0.83268 0.61184 0.0
H918 H 0.83669 0.87029 0.57928 0.0
H919 H 0.80311 0.93707 0.60112 0.0
C920 C 0.77765 0.29091 0.86938 0.0
C921 C 0.75768 0.31637 0.8663 0.0
C922 C 0.79724 0.33884 0.87349 0.0
C923 C 0.76737 0.34 0.86855 0.0
C924 C 0.81712 0.31336 0.87641 0.0
C925 C 0.80739 0.28962 0.87442 0.0
U926 U 0.72651 0.26822 0.83523 0.0
O927 O 0.73461 0.23776 0.81869 0.0
O928 O 0.70303 0.22138 0.85892 0.0
C929 C 0.71694 0.21399 0.84126 0.0
C930 C 0.76793 0.26582 0.86707 0.0
C931 C 0.72722 0.17705 0.85816 0.0
C932 C 0.72585 0.11537 0.90555 0.0
C933 C 0.7212 0.15049 0.89154 0.0
C934 C 0.74416 0.13267 0.85359 0.0
C935 C 0.73644 0.10611 0.88645 0.0
C936 C 0.73949 0.16771 0.8396 0.0
C937 C 0.66674 0.33454 0.77788 0.0
C938 C 0.6278 0.31564 0.76626 0.0
C939 C 0.62644 0.37577 0.74365 0.0
C940 C 0.65302 0.36843 0.75853 0.0
C941 C 0.61308 0.34921 0.74811 0.0
C942 C 0.6544 0.3084 0.78098 0.0
C943 C 0.69246 0.32577 0.79688 0.0
O944 O 0.74174 0.25475 0.87985 0.0
O945 O 0.7727 0.2735 0.83864 0.0
O946 O 0.71763 0.31945 0.78692 0.0
O947 O 0.68817 0.30283 0.82859 0.0
H948 H 0.73462 0.31805 0.86209 0.0
H949 H 0.7516 0.35951 0.8659 0.0
H950 H 0.84021 0.31152 0.88063 0.0
H951 H 0.82312 0.27021 0.87682 0.0
H952 H 0.71946 0.09562 0.93087 0.0
H953 H 0.71157 0.15674 0.90655 0.0
H954 H 0.75281 0.12641 0.83833 0.0
H955 H 0.74418 0.18759 0.81379 0.0
H956 H 0.61803 0.29443 0.77062 0.0
H957 H 0.61589 0.40199 0.72947 0.0
H958 H 0.66236 0.38892 0.75581 0.0
H959 H 0.66475 0.28203 0.79591 0.0
loop_
_geom_bond_atom_site_label_1
_geom_bond_atom_site_label_2
_geom_bond_distance
_geom_bond_site_symmetry_2
_ccdc_geom_bond_type
C0 C1 1.264 . S
C0 C5 1.479 . S
C0 C10 1.465 . S
C1 C0 1.264 . S
C1 C3 1.339 . S
C1 H28 0.931 . S
C2 C3 1.395 . S
C2 C4 1.320 . S
C3 C1 1.339 . S
C3 C2 1.395 . S
C3 H29 0.929 . S
C4 C2 1.320 . S
C4 C5 1.405 . S
C4 H30 0.930 . S
C5 C0 1.479 . S
C5 C4 1.405 . S
C5 H31 0.931 . S
U6 O7 2.454 . S
U6 O8 2.458 . S
U6 C9 2.984 . S
U6 C10 2.847 . S
U6 C23 2.882 . S
U6 O24 2.441 . S
U6 O25 2.420 . S
U6 O26 2.455 . S
U6 O27 2.449 . S
O7 U6 2.454 . S
O7 C9 1.353 . S
O8 U6 2.458 . S
O8 C9 1.286 . S
C9 U6 2.984 . S
C9 O7 1.353 . S
C9 O8 1.286 . S
C9 C11 1.363 . S
C10 C0 1.465 . S
C10 U6 2.847 . S
C10 O24 1.249 . S
C10 O25 1.202 . S
C11 C9 1.363 . S
C11 C13 1.408 . S
C11 C16 1.342 . S
C12 C13 1.310 . S
C12 C15 1.461 . S
C12 H32 0.932 . S
C13 C11 1.408 . S
C13 C12 1.310 . S
C13 H33 0.930 . S
C14 C15 1.474 . S
C14 C16 1.285 . S
C14 H34 0.929 . S
C15 C12 1.461 . S
C15 C14 1.474 . S
C16 C11 1.342 . S
C16 C14 1.285 . S
C16 H35 0.930 . S
C17 C20 1.424 . S
C17 C22 1.245 . S
C17 C23 1.428 . S
C18 C21 1.260 . S
C18 C22 1.477 . S
C18 H36 0.932 . S
C19 C20 1.384 . S
C19 C21 1.479 . S
C19 H37 0.929 . S
C20 C17 1.424 . S
C20 C19 1.384 . S
C20 H38 0.928 . S
C21 C18 1.260 . S
C21 C19 1.479 . S
C22 C17 1.245 . S
C22 C18 1.477 . S
C22 H39 0.932 . S
C23 U6 2.882 . S
C23 C17 1.428 . S
C23 O26 1.301 . S
C23 O27 1.282 . S
O24 U6 2.441 . S
O24 C10 1.249 . S
O25 U6 2.420 . S
O25 C10 1.202 . S
O26 U6 2.455 . S
O26 C23 1.301 . S
O27 U6 2.449 . S
O27 C23 1.282 . S
H28 C1 0.931 . S
H29 C3 0.929 . S
H30 C4 0.930 . S
H31 C5 0.931 . S
H32 C12 0.932 . S
H33 C13 0.930 . S
H34 C14 0.929 . S
H35 C16 0.930 . S
H36 C18 0.932 . S
H37 C19 0.929 . S
H38 C20 0.928 . S
H39 C22 0.932 . S
C40 C41 1.264 . S
C40 C45 1.479 . S
C40 C50 1.465 . S
C41 C40 1.264 . S
C41 C43 1.339 . S
C41 H68 0.931 . S
C42 C43 1.395 . S
C42 C44 1.320 . S
C43 C41 1.339 . S
C43 C42 1.395 . S
C43 H69 0.929 . S
C44 C42 1.320 . S
C44 C45 1.405 . S
C44 H70 0.930 . S
C45 C40 1.479 . S
C45 C44 1.405 . S
C45 H71 0.931 . S
U46 O47 2.454 . S
U46 O48 2.458 . S
U46 C49 2.984 . S
U46 C50 2.847 . S
U46 C63 2.882 . S
U46 O64 2.441 . S
U46 O65 2.420 . S
U46 O66 2.455 . S
U46 O67 2.449 . S
O47 U46 2.454 . S
O47 C49 1.353 . S
O48 U46 2.458 . S
O48 C49 1.286 . S
C49 U46 2.984 . S
C49 O47 1.353 . S
C49 O48 1.286 . S
C49 C51 1.363 1_455 S
C50 C40 1.465 . S
C50 U46 2.847 . S
C50 O64 1.249 . S
C50 O65 1.202 . S
C51 C49 1.363 1_655 S
C51 C53 1.408 . S
C51 C56 1.342 . S
C52 C53 1.310 . S
C52 C55 1.461 . S
C52 H72 0.932 . S
C53 C51 1.408 . S
C53 C52 1.310 . S
C53 H73 0.930 . S
C54 C55 1.474 . S
C54 C56 1.285 . S
C54 H74 0.929 . S
C55 C52 1.461 . S
C55 C54 1.474 . S
C56 C51 1.342 . S
C56 C54 1.285 . S
C56 H75 0.930 1_655 S
C57 C60 1.424 . S
C57 C62 1.245 . S
C57 C63 1.428 . S
C58 C61 1.260 . S
C58 C62 1.477 . S
C58 H76 0.932 . S
C59 C60 1.384 . S
C59 C61 1.479 . S
C59 H77 0.929 . S
C60 C57 1.424 . S
C60 C59 1.384 . S
C60 H78 0.928 . S
C61 C58 1.260 . S
C61 C59 1.479 . S
C62 C57 1.245 . S
C62 C58 1.477 . S
C62 H79 0.932 . S
C63 U46 2.882 . S
C63 C57 1.428 . S
C63 O66 1.301 . S
C63 O67 1.282 . S
O64 U46 2.441 . S
O64 C50 1.249 . S
O65 U46 2.420 . S
O65 C50 1.202 . S
O66 U46 2.455 . S
O66 C63 1.301 . S
O67 U46 2.449 . S
O67 C63 1.282 . S
H68 C41 0.931 . S
H69 C43 0.929 . S
H70 C44 0.930 . S
H71 C45 0.931 . S
H72 C52 0.932 . S
H73 C53 0.930 . S
H74 C54 0.929 . S
H75 C56 0.930 1_455 S
H76 C58 0.932 . S
H77 C59 0.929 . S
H78 C60 0.928 . S
H79 C62 0.932 . S
C80 C81 1.264 . S
C80 C85 1.481 . S
C80 C90 1.465 . S
C81 C80 1.264 . S
C81 C83 1.339 . S
C81 H108 0.931 . S
C82 C83 1.395 . S
C82 C84 1.320 1_554 S
C83 C81 1.339 . S
C83 C82 1.395 . S
C83 H109 0.929 . S
C84 C82 1.320 1_556 S
C84 C85 1.387 1_556 S
C84 H110 0.930 . S
C85 C80 1.481 . S
C85 C84 1.387 1_554 S
C85 H111 0.947 1_554 S
U86 O87 2.454 1_554 S
U86 O88 2.458 1_554 S
U86 C89 2.984 1_554 S
U86 C90 2.847 . S
U86 C103 2.882 . S
U86 O104 2.441 . S
U86 O105 2.420 . S
U86 O106 2.455 . S
U86 O107 2.449 . S
O87 U86 2.454 1_556 S
O87 C89 1.353 . S
O88 U86 2.458 1_556 S
O88 C89 1.286 . S
C89 U86 2.984 1_556 S
C89 O87 1.353 . S
C89 O88 1.286 . S
C89 C91 1.363 . S
C90 C80 1.465 . S
C90 U86 2.847 . S
C90 O104 1.249 . S
C90 O105 1.202 . S
C91 C89 1.363 . S
C91 C93 1.408 . S
C91 C96 1.342 . S
C92 C93 1.310 1_545 S
C92 C95 1.461 . S
C92 H112 0.932 . S
C93 C91 1.408 . S
C93 C92 1.310 1_565 S
C93 H113 0.930 . S
C94 C95 1.474 . S
C94 C96 1.285 1_545 S
C94 H114 0.929 . S
C95 C92 1.461 . S
C95 C94 1.474 . S
C96 C91 1.342 . S
C96 C94 1.285 1_565 S
C96 H115 0.930 . S
C97 C100 1.424 . S
C97 C102 1.245 . S
C97 C103 1.428 . S
C98 C101 1.260 . S
C98 C102 1.477 . S
C98 H116 0.932 . S
C99 C100 1.384 . S
C99 C101 1.479 . S
C99 H117 0.929 . S
C100 C97 1.424 . S
C100 C99 1.384 . S
C100 H118 0.928 . S
C101 C98 1.260 . S
C101 C99 1.479 . S
C102 C97 1.245 . S
C102 C98 1.477 . S
C102 H119 0.932 . S
C103 U86 2.882 . S
C103 C97 1.428 . S
C103 O106 1.301 . S
C103 O107 1.282 . S
O104 U86 2.441 . S
O104 C90 1.249 . S
O105 U86 2.420 . S
O105 C90 1.202 . S
O106 U86 2.455 . S
O106 C103 1.301 . S
O107 U86 2.449 . S
O107 C103 1.282 . S
H108 C81 0.931 . S
H109 C83 0.929 . S
H110 C84 0.930 . S
H111 C85 0.947 1_556 S
H112 C92 0.932 . S
H113 C93 0.930 . S
H114 C94 0.929 . S
H115 C96 0.930 . S
H116 C98 0.932 . S
H117 C99 0.929 . S
H118 C100 0.928 . S
H119 C102 0.932 . S
C120 C121 1.264 . S
C120 C125 1.479 . S
C120 C130 1.465 . S
C121 C120 1.264 . S
C121 C123 1.339 . S
C121 H148 0.931 . S
C122 C123 1.395 . S
C122 C124 1.320 . S
C123 C121 1.339 . S
C123 C122 1.395 . S
C123 H149 0.929 . S
C124 C122 1.320 . S
C124 C125 1.405 . S
C124 H150 0.930 . S
C125 C120 1.479 . S
C125 C124 1.405 . S
C125 H151 0.931 . S
U126 O127 2.454 . S
U126 O128 2.458 1_554 S
U126 C129 2.984 . S
U126 C130 2.847 . S
U126 C143 2.882 1_554 S
U126 O144 2.441 . S
U126 O145 2.420 . S
U126 O146 2.455 1_554 S
U126 O147 2.449 . S
O127 U126 2.454 . S
O127 C129 1.353 . S
O128 U126 2.458 1_556 S
O128 C129 1.286 1_556 S
C129 U126 2.984 . S
C129 O127 1.353 . S
C129 O128 1.286 1_554 S
C129 C131 1.363 1_554 S
C130 C120 1.465 . S
C130 U126 2.847 . S
C130 O144 1.249 . S
C130 O145 1.202 . S
C131 C129 1.363 1_556 S
C131 C133 1.408 1_556 S
C131 C136 1.342 . S
C132 C133 1.310 . S
C132 C135 1.461 1_554 S
C132 H152 0.932 . S
C133 C131 1.408 1_554 S
C133 C132 1.310 . S
C133 H153 0.930 . S
C134 C135 1.474 . S
C134 C136 1.285 . S
C134 H154 0.929 . S
C135 C132 1.461 1_556 S
C135 C134 1.474 . S
C136 C131 1.342 . S
C136 C134 1.285 . S
C136 H155 0.930 . S
C137 C140 1.424 . S
C137 C142 1.245 . S
C137 C143 1.428 . S
C138 C141 1.260 . S
C138 C142 1.477 . S
C138 H156 0.932 . S
C139 C140 1.384 . S
C139 C141 1.479 . S
C139 H157 0.929 . S
C140 C137 1.424 . S
C140 C139 1.384 . S
C140 H158 0.928 . S
C141 C138 1.260 . S
C141 C139 1.479 . S
C142 C137 1.245 . S
C142 C138 1.477 . S
C142 H159 0.932 . S
C143 U126 2.882 1_556 S
C143 C137 1.428 . S
C143 O146 1.301 . S
C143 O147 1.282 1_556 S
O144 U126 2.441 . S
O144 C130 1.249 . S
O145 U126 2.420 . S
O145 C130 1.202 . S
O146 U126 2.455 1_556 S
O146 C143 1.301 . S
O147 U126 2.449 . S
O147 C143 1.282 1_554 S
H148 C121 0.931 . S
H149 C123 0.929 . S
H150 C124 0.930 . S
H151 C125 0.931 . S
H152 C132 0.932 . S
H153 C133 0.930 . S
H154 C134 0.929 . S
H155 C136 0.930 . S
H156 C138 0.932 . S
H157 C139 0.929 . S
H158 C140 0.928 . S
H159 C142 0.932 . S
C160 C161 1.264 . S
C160 C165 1.479 . S
C160 C170 1.465 . S
C161 C160 1.264 . S
C161 C163 1.339 . S
C161 H188 0.931 . S
C162 C163 1.395 . S
C162 C164 1.320 . S
C163 C161 1.339 . S
C163 C162 1.395 . S
C163 H189 0.929 . S
C164 C162 1.320 . S
C164 C165 1.405 . S
C164 H190 0.930 . S
C165 C160 1.479 . S
C165 C164 1.405 . S
C165 H191 0.931 . S
U166 O167 2.454 . S
U166 O168 2.458 . S
U166 C169 2.984 . S
U166 C170 2.847 . S
U166 C183 2.882 . S
U166 O184 2.441 . S
U166 O185 2.420 . S
U166 O186 2.455 . S
U166 O187 2.449 . S
O167 U166 2.454 . S
O167 C169 1.353 . S
O168 U166 2.458 . S
O168 C169 1.286 . S
C169 U166 2.984 . S
C169 O167 1.353 . S
C169 O168 1.286 . S
C169 C171 1.363 . S
C170 C160 1.465 . S
C170 U166 2.847 . S
C170 O184 1.249 . S
C170 O185 1.202 . S
C171 C169 1.363 . S
C171 C173 1.408 . S
C171 C176 1.342 . S
C172 C173 1.310 . S
C172 C175 1.461 . S
C172 H192 0.932 . S
C173 C171 1.408 . S
C173 C172 1.310 . S
C173 H193 0.930 . S
C174 C175 1.474 . S
C174 C176 1.285 . S
C174 H194 0.929 . S
C175 C172 1.461 . S
C175 C174 1.474 . S
C176 C171 1.342 . S
C176 C174 1.285 . S
C176 H195 0.930 . S
C177 C180 1.424 . S
C177 C182 1.245 . S
C177 C183 1.428 . S
C178 C181 1.260 . S
C178 C182 1.477 . S
C178 H196 0.932 . S
C179 C180 1.384 . S
C179 C181 1.479 . S
C179 H197 0.929 . S
C180 C177 1.424 . S
C180 C179 1.384 . S
C180 H198 0.928 . S
C181 C178 1.260 . S
C181 C179 1.479 . S
C182 C177 1.245 . S
C182 C178 1.477 . S
C182 H199 0.932 . S
C183 U166 2.882 . S
C183 C177 1.428 . S
C183 O186 1.301 . S
C183 O187 1.282 . S
O184 U166 2.441 . S
O184 C170 1.249 . S
O185 U166 2.420 . S
O185 C170 1.202 . S
O186 U166 2.455 . S
O186 C183 1.301 . S
O187 U166 2.449 . S
O187 C183 1.282 . S
H188 C161 0.931 . S
H189 C163 0.929 . S
H190 C164 0.930 . S
H191 C165 0.931 . S
H192 C172 0.932 . S
H193 C173 0.930 . S
H194 C174 0.929 . S
H195 C176 0.930 . S
H196 C178 0.932 . S
H197 C179 0.929 . S
H198 C180 0.928 . S
H199 C182 0.932 . S
C200 C201 1.264 . S
C200 C205 1.479 1_554 S
C200 C210 1.465 . S
C201 C200 1.264 . S
C201 C203 1.339 . S
C201 H228 0.931 . S
C202 C203 1.368 1_556 S
C202 C204 1.348 . S
C203 C201 1.339 . S
C203 C202 1.368 1_554 S
C203 H229 0.929 . S
C204 C202 1.348 . S
C204 C205 1.405 . S
C204 H230 0.930 . S
C205 C200 1.479 1_556 S
C205 C204 1.405 . S
C205 H231 0.931 . S
U206 O207 2.454 1_554 S
U206 O208 2.458 1_554 S
U206 C209 2.984 1_554 S
U206 C210 2.847 . S
U206 C223 2.882 . S
U206 O224 2.452 . S
U206 O225 2.420 . S
U206 O226 2.455 . S
U206 O227 2.449 . S
O207 U206 2.454 1_556 S
O207 C209 1.353 . S
O208 U206 2.458 1_556 S
O208 C209 1.286 . S
C209 U206 2.984 1_556 S
C209 O207 1.353 . S
C209 O208 1.286 . S
C209 C211 1.363 . S
C210 C200 1.465 . S
C210 U206 2.847 . S
C210 O224 1.272 . S
C210 O225 1.202 . S
C211 C209 1.363 . S
C211 C213 1.408 . S
C211 C216 1.342 . S
C212 C213 1.310 . S
C212 C215 1.461 . S
C212 H232 0.932 . S
C213 C211 1.408 . S
C213 C212 1.310 . S
C213 H233 0.930 . S
C214 C215 1.474 . S
C214 C216 1.285 . S
C214 H234 0.929 . S
C215 C212 1.461 . S
C215 C214 1.474 . S
C216 C211 1.342 . S
C216 C214 1.285 . S
C216 H235 0.930 . S
C217 C220 1.424 . S
C217 C222 1.245 . S
C217 C223 1.428 . S
C218 C221 1.260 . S
C218 C222 1.477 . S
C218 H236 0.932 . S
C219 C220 1.384 . S
C219 C221 1.479 . S
C219 H237 0.929 . S
C220 C217 1.424 . S
C220 C219 1.384 . S
C220 H238 0.928 . S
C221 C218 1.260 . S
C221 C219 1.479 . S
C222 C217 1.245 . S
C222 C218 1.477 . S
C222 H239 0.932 . S
C223 U206 2.882 . S
C223 C217 1.428 . S
C223 O226 1.301 . S
C223 O227 1.282 . S
O224 U206 2.452 . S
O224 C210 1.272 . S
O225 U206 2.420 . S
O225 C210 1.202 . S
O226 U206 2.455 . S
O226 C223 1.301 . S
O227 U206 2.449 . S
O227 C223 1.282 . S
H228 C201 0.931 . S
H229 C203 0.929 . S
H230 C204 0.930 . S
H231 C205 0.931 . S
H232 C212 0.932 . S
H233 C213 0.930 . S
H234 C214 0.929 . S
H235 C216 0.930 . S
H236 C218 0.932 . S
H237 C219 0.929 . S
H238 C220 0.928 . S
H239 C222 0.932 . S
C240 C241 1.264 . S
C240 C245 1.479 . S
C240 C250 1.465 . S
C241 C240 1.264 . S
C241 C243 1.339 . S
C241 H268 0.931 . S
C242 C243 1.395 . S
C242 C244 1.320 . S
C243 C241 1.339 . S
C243 C242 1.395 . S
C243 H269 0.929 . S
C244 C242 1.320 . S
C244 C245 1.405 . S
C244 H270 0.930 . S
C245 C240 1.479 . S
C245 C244 1.405 . S
C245 H271 0.931 . S
U246 O247 2.454 . S
U246 O248 2.458 . S
U246 C249 2.984 . S
U246 C250 2.847 . S
U246 C263 2.882 . S
U246 O264 2.441 . S
U246 O265 2.420 . S
U246 O266 2.455 . S
U246 O267 2.449 . S
O247 U246 2.454 . S
O247 C249 1.353 . S
O248 U246 2.458 . S
O248 C249 1.286 . S
C249 U246 2.984 . S
C249 O247 1.353 . S
C249 O248 1.286 . S
C249 C251 1.363 . S
C250 C240 1.465 . S
C250 U246 2.847 . S
C250 O264 1.249 . S
C250 O265 1.202 . S
C251 C249 1.363 . S
C251 C253 1.408 . S
C251 C256 1.342 . S
C252 C253 1.310 . S
C252 C255 1.461 . S
C252 H272 0.932 . S
C253 C251 1.408 . S
C253 C252 1.310 . S
C253 H273 0.930 . S
C254 C255 1.474 . S
C254 C256 1.285 . S
C254 H274 0.929 . S
C255 C252 1.461 . S
C255 C254 1.474 . S
C256 C251 1.342 . S
C256 C254 1.285 . S
C256 H275 0.930 . S
C257 C260 1.424 . S
C257 C262 1.245 . S
C257 C263 1.428 . S
C258 C261 1.260 . S
C258 C262 1.477 . S
C258 H276 0.932 . S
C259 C260 1.384 . S
C259 C261 1.479 . S
C259 H277 0.929 . S
C260 C257 1.424 . S
C260 C259 1.384 . S
C260 H278 0.928 . S
C261 C258 1.260 . S
C261 C259 1.479 . S
C262 C257 1.245 . S
C262 C258 1.477 . S
C262 H279 0.932 . S
C263 U246 2.882 . S
C263 C257 1.428 . S
C263 O266 1.301 . S
C263 O267 1.282 . S
O264 U246 2.441 . S
O264 C250 1.249 . S
O265 U246 2.420 . S
O265 C250 1.202 . S
O266 U246 2.455 . S
O266 C263 1.301 . S
O267 U246 2.449 . S
O267 C263 1.282 . S
H268 C241 0.931 . S
H269 C243 0.929 . S
H270 C244 0.930 . S
H271 C245 0.931 . S
H272 C252 0.932 . S
H273 C253 0.930 . S
H274 C254 0.929 . S
H275 C256 0.930 . S
H276 C258 0.932 . S
H277 C259 0.929 . S
H278 C260 0.928 . S
H279 C262 0.932 . S
C280 C281 1.264 . S
C280 C285 1.479 . S
C280 C290 1.465 . S
C281 C280 1.264 . S
C281 C283 1.339 . S
C281 H308 0.931 . S
C282 C283 1.395 . S
C282 C284 1.320 . S
C283 C281 1.339 . S
C283 C282 1.395 . S
C283 H309 0.929 . S
C284 C282 1.320 . S
C284 C285 1.405 . S
C284 H310 0.930 . S
C285 C280 1.479 . S
C285 C284 1.405 . S
C285 H311 0.931 . S
U286 O287 2.454 1_655 S
U286 O288 2.458 1_655 S
U286 C289 2.984 1_655 S
U286 C290 2.847 . S
U286 C303 2.882 1_655 S
U286 O304 2.441 . S
U286 O305 2.420 . S
U286 O306 2.455 1_655 S
U286 O307 2.449 . S
O287 U286 2.454 1_455 S
O287 C289 1.353 . S
O288 U286 2.458 1_455 S
O288 C289 1.286 . S
C289 U286 2.984 1_455 S
C289 O287 1.353 . S
C289 O288 1.286 . S
C289 C291 1.363 . S
C290 C280 1.465 . S
C290 U286 2.847 . S
C290 O304 1.249 . S
C290 O305 1.202 . S
C291 C289 1.363 . S
C291 C293 1.408 . S
C291 C296 1.342 . S
C292 C293 1.310 . S
C292 C295 1.461 . S
C292 H312 0.932 . S
C293 C291 1.408 . S
C293 C292 1.310 . S
C293 H313 0.930 . S
C294 C295 1.474 . S
C294 C296 1.285 . S
C294 H314 0.929 . S
C295 C292 1.461 . S
C295 C294 1.474 . S
C296 C291 1.342 . S
C296 C294 1.285 . S
C296 H315 0.930 . S
C297 C300 1.424 . S
C297 C302 1.245 . S
C297 C303 1.428 . S
C298 C301 1.260 . S
C298 C302 1.477 . S
C298 H316 0.932 . S
C299 C300 1.384 . S
C299 C301 1.479 . S
C299 H317 0.929 . S
C300 C297 1.424 . S
C300 C299 1.384 . S
C300 H318 0.928 1_455 S
C301 C298 1.260 . S
C301 C299 1.479 . S
C302 C297 1.245 . S
C302 C298 1.477 . S
C302 H319 0.932 . S
C303 U286 2.882 1_455 S
C303 C297 1.428 . S
C303 O306 1.301 . S
C303 O307 1.282 1_455 S
O304 U286 2.441 . S
O304 C290 1.249 . S
O305 U286 2.420 . S
O305 C290 1.202 . S
O306 U286 2.455 1_455 S
O306 C303 1.301 . S
O307 U286 2.449 . S
O307 C303 1.282 1_655 S
H308 C281 0.931 . S
H309 C283 0.929 . S
H310 C284 0.930 . S
H311 C285 0.931 . S
H312 C292 0.932 . S
H313 C293 0.930 . S
H314 C294 0.929 . S
H315 C296 0.930 . S
H316 C298 0.932 . S
H317 C299 0.929 . S
H318 C300 0.928 1_655 S
H319 C302 0.932 . S
C320 C321 1.264 . S
C320 C325 1.479 . S
C320 C330 1.465 . S
C321 C320 1.264 . S
C321 C323 1.339 . S
C321 H348 0.931 . S
C322 C323 1.395 . S
C322 C324 1.320 . S
C323 C321 1.339 . S
C323 C322 1.395 . S
C323 H349 0.929 . S
C324 C322 1.320 . S
C324 C325 1.405 . S
C324 H350 0.930 . S
C325 C320 1.479 . S
C325 C324 1.405 . S
C325 H351 0.931 . S
U326 O327 2.454 . S
U326 O328 2.458 . S
U326 C329 2.984 . S
U326 C330 2.847 . S
U326 C343 2.882 . S
U326 O344 2.441 . S
U326 O345 2.420 . S
U326 O346 2.455 . S
U326 O347 2.449 . S
O327 U326 2.454 . S
O327 C329 1.353 . S
O328 U326 2.458 . S
O328 C329 1.286 . S
C329 U326 2.984 . S
C329 O327 1.353 . S
C329 O328 1.286 . S
C329 C331 1.363 . S
C330 C320 1.465 . S
C330 U326 2.847 . S
C330 O344 1.249 . S
C330 O345 1.202 . S
C331 C329 1.363 . S
C331 C333 1.408 . S
C331 C336 1.342 . S
C332 C333 1.310 . S
C332 C335 1.461 . S
C332 H352 0.932 . S
C333 C331 1.408 . S
C333 C332 1.310 . S
C333 H353 0.930 . S
C334 C335 1.474 . S
C334 C336 1.285 . S
C334 H354 0.929 . S
C335 C332 1.461 . S
C335 C334 1.474 . S
C336 C331 1.342 . S
C336 C334 1.285 . S
C336 H355 0.930 . S
C337 C340 1.424 . S
C337 C342 1.245 . S
C337 C343 1.428 . S
C338 C341 1.260 . S
C338 C342 1.477 . S
C338 H356 0.932 . S
C339 C340 1.384 . S
C339 C341 1.479 . S
C339 H357 0.929 . S
C340 C337 1.424 . S
C340 C339 1.384 . S
C340 H358 0.928 . S
C341 C338 1.260 . S
C341 C339 1.479 . S
C342 C337 1.245 . S
C342 C338 1.477 . S
C342 H359 0.932 . S
C343 U326 2.882 . S
C343 C337 1.428 . S
C343 O346 1.301 . S
C343 O347 1.282 . S
O344 U326 2.441 . S
O344 C330 1.249 . S
O345 U326 2.420 . S
O345 C330 1.202 . S
O346 U326 2.455 . S
O346 C343 1.301 . S
O347 U326 2.449 . S
O347 C343 1.282 . S
H348 C321 0.931 . S
H349 C323 0.929 . S
H350 C324 0.930 . S
H351 C325 0.931 . S
H352 C332 0.932 . S
H353 C333 0.930 . S
H354 C334 0.929 . S
H355 C336 0.930 . S
H356 C338 0.932 . S
H357 C339 0.929 . S
H358 C340 0.928 . S
H359 C342 0.932 . S
C360 C361 1.264 . S
C360 C365 1.479 . S
C360 C370 1.465 . S
C361 C360 1.264 . S
C361 C363 1.339 . S
C361 H388 0.931 . S
C362 C363 1.395 . S
C362 C364 1.320 . S
C363 C361 1.339 . S
C363 C362 1.395 . S
C363 H389 0.929 . S
C364 C362 1.320 . S
C364 C365 1.405 . S
C364 H390 0.930 . S
C365 C360 1.479 . S
C365 C364 1.405 . S
C365 H391 0.931 . S
U366 O367 2.454 . S
U366 O368 2.458 . S
U366 C369 2.984 . S
U366 C370 2.847 . S
U366 C383 2.882 . S
U366 O384 2.441 . S
U366 O385 2.420 . S
U366 O386 2.455 . S
U366 O387 2.449 . S
O367 U366 2.454 . S
O367 C369 1.353 . S
O368 U366 2.458 . S
O368 C369 1.286 . S
C369 U366 2.984 . S
C369 O367 1.353 . S
C369 O368 1.286 . S
C369 C371 1.363 . S
C370 C360 1.465 . S
C370 U366 2.847 . S
C370 O384 1.249 . S
C370 O385 1.202 . S
C371 C369 1.363 . S
C371 C373 1.408 . S
C371 C376 1.342 . S
C372 C373 1.310 . S
C372 C375 1.461 . S
C372 H392 0.932 . S
C373 C371 1.408 . S
C373 C372 1.310 . S
C373 H393 0.930 . S
C374 C375 1.474 . S
C374 C376 1.285 . S
C374 H394 0.929 . S
C375 C372 1.461 . S
C375 C374 1.474 . S
C376 C371 1.342 . S
C376 C374 1.285 . S
C376 H395 0.930 . S
C377 C380 1.424 . S
C377 C382 1.245 . S
C377 C383 1.428 . S
C378 C381 1.260 . S
C378 C382 1.477 . S
C378 H396 0.932 . S
C379 C380 1.384 . S
C379 C381 1.479 . S
C379 H397 0.929 . S
C380 C377 1.424 . S
C380 C379 1.384 . S
C380 H398 0.928 . S
C381 C378 1.260 . S
C381 C379 1.479 . S
C382 C377 1.245 . S
C382 C378 1.477 . S
C382 H399 0.932 . S
C383 U366 2.882 . S
C383 C377 1.428 . S
C383 O386 1.301 . S
C383 O387 1.282 . S
O384 U366 2.441 . S
O384 C370 1.249 . S
O385 U366 2.420 . S
O385 C370 1.202 . S
O386 U366 2.455 . S
O386 C383 1.301 . S
O387 U366 2.449 . S
O387 C383 1.282 . S
H388 C361 0.931 . S
H389 C363 0.929 . S
H390 C364 0.930 . S
H391 C365 0.931 . S
H392 C372 0.932 . S
H393 C373 0.930 . S
H394 C374 0.929 . S
H395 C376 0.930 . S
H396 C378 0.932 . S
H397 C379 0.929 . S
H398 C380 0.928 . S
H399 C382 0.932 . S
C400 C401 1.264 . S
C400 C405 1.479 . S
C400 C410 1.465 . S
C401 C400 1.264 . S
C401 C403 1.339 . S
C401 H428 0.931 . S
C402 C403 1.395 . S
C402 C404 1.320 . S
C403 C401 1.339 . S
C403 C402 1.395 . S
C403 H429 0.929 . S
C404 C402 1.320 . S
C404 C405 1.405 . S
C404 H430 0.930 . S
C405 C400 1.479 . S
C405 C404 1.405 . S
C405 H431 0.931 . S
U406 O407 2.454 . S
U406 O408 2.458 . S
U406 C409 2.984 . S
U406 C410 2.847 . S
U406 C423 2.882 . S
U406 O424 2.441 . S
U406 O425 2.420 . S
U406 O426 2.455 . S
U406 O427 2.449 . S
O407 U406 2.454 . S
O407 C409 1.353 . S
O408 U406 2.458 . S
O408 C409 1.286 . S
C409 U406 2.984 . S
C409 O407 1.353 . S
C409 O408 1.286 . S
C409 C411 1.363 . S
C410 C400 1.465 . S
C410 U406 2.847 . S
C410 O424 1.249 . S
C410 O425 1.202 . S
C411 C409 1.363 . S
C411 C413 1.408 . S
C411 C416 1.342 . S
C412 C413 1.310 . S
C412 C415 1.461 . S
C412 H432 0.932 . S
C413 C411 1.408 . S
C413 C412 1.310 . S
C413 H433 0.930 . S
C414 C415 1.474 . S
C414 C416 1.285 . S
C414 H434 0.929 . S
C415 C412 1.461 . S
C415 C414 1.474 . S
C416 C411 1.342 . S
C416 C414 1.285 . S
C416 H435 0.930 . S
C417 C420 1.424 . S
C417 C422 1.245 . S
C417 C423 1.428 . S
C418 C421 1.260 . S
C418 C422 1.477 . S
C418 H436 0.932 . S
C419 C420 1.384 . S
C419 C421 1.479 . S
C419 H437 0.929 . S
C420 C417 1.424 . S
C420 C419 1.384 . S
C420 H438 0.928 . S
C421 C418 1.260 . S
C421 C419 1.479 . S
C422 C417 1.245 . S
C422 C418 1.477 . S
C422 H439 0.932 . S
C423 U406 2.882 . S
C423 C417 1.428 . S
C423 O426 1.301 . S
C423 O427 1.282 . S
O424 U406 2.441 . S
O424 C410 1.249 . S
O425 U406 2.420 . S
O425 C410 1.202 . S
O426 U406 2.455 . S
O426 C423 1.301 . S
O427 U406 2.449 . S
O427 C423 1.282 . S
H428 C401 0.931 . S
H429 C403 0.929 . S
H430 C404 0.930 . S
H431 C405 0.931 . S
H432 C412 0.932 . S
H433 C413 0.930 . S
H434 C414 0.929 . S
H435 C416 0.930 . S
H436 C418 0.932 . S
H437 C419 0.929 . S
H438 C420 0.928 . S
H439 C422 0.932 . S
C440 C441 1.264 . S
C440 C445 1.479 . S
C440 C450 1.465 . S
C441 C440 1.264 . S
C441 C443 1.339 . S
C441 H468 0.931 . S
C442 C443 1.395 . S
C442 C444 1.320 . S
C443 C441 1.339 . S
C443 C442 1.395 . S
C443 H469 0.929 . S
C444 C442 1.320 . S
C444 C445 1.405 . S
C444 H470 0.930 . S
C445 C440 1.479 . S
C445 C444 1.405 . S
C445 H471 0.931 . S
U446 O447 2.454 . S
U446 O448 2.458 . S
U446 C449 2.984 . S
U446 C450 2.847 1_554 S
U446 C463 2.882 . S
U446 O464 2.441 1_554 S
U446 O465 2.420 1_554 S
U446 O466 2.455 . S
U446 O467 2.449 1_554 S
O447 U446 2.454 . S
O447 C449 1.353 . S
O448 U446 2.458 . S
O448 C449 1.286 . S
C449 U446 2.984 . S
C449 O447 1.353 . S
C449 O448 1.286 . S
C449 C451 1.363 . S
C450 C440 1.465 . S
C450 U446 2.847 1_556 S
C450 O464 1.249 . S
C450 O465 1.202 . S
C451 C449 1.363 . S
C451 C453 1.408 . S
C451 C456 1.342 . S
C452 C453 1.310 . S
C452 C455 1.461 . S
C452 H472 0.932 . S
C453 C451 1.408 . S
C453 C452 1.310 . S
C453 H473 0.930 . S
C454 C455 1.474 . S
C454 C456 1.285 . S
C454 H474 0.929 . S
C455 C452 1.461 . S
C455 C454 1.474 . S
C456 C451 1.342 . S
C456 C454 1.285 . S
C456 H475 0.930 . S
C457 C460 1.424 1_554 S
C457 C462 1.245 . S
C457 C463 1.428 . S
C458 C461 1.260 1_554 S
C458 C462 1.477 . S
C458 H476 0.932 . S
C459 C460 1.384 . S
C459 C461 1.479 . S
C459 H477 0.929 . S
C460 C457 1.424 1_556 S
C460 C459 1.384 . S
C460 H478 0.928 . S
C461 C458 1.260 1_556 S
C461 C459 1.479 . S
C462 C457 1.245 . S
C462 C458 1.477 . S
C462 H479 0.932 . S
C463 U446 2.882 . S
C463 C457 1.428 . S
C463 O466 1.301 . S
C463 O467 1.282 1_554 S
O464 U446 2.441 1_556 S
O464 C450 1.249 . S
O465 U446 2.420 1_556 S
O465 C450 1.202 . S
O466 U446 2.455 . S
O466 C463 1.301 . S
O467 U446 2.449 1_556 S
O467 C463 1.282 1_556 S
H468 C441 0.931 . S
H469 C443 0.929 . S
H470 C444 0.930 . S
H471 C445 0.931 . S
H472 C452 0.932 . S
H473 C453 0.930 . S
H474 C454 0.929 . S
H475 C456 0.930 . S
H476 C458 0.932 . S
H477 C459 0.929 . S
H478 C460 0.928 . S
H479 C462 0.932 . S
C480 C481 1.264 . S
C480 C485 1.479 . S
C480 C490 1.465 1_556 S
C481 C480 1.264 . S
C481 C483 1.339 . S
C481 H508 0.931 . S
C482 C483 1.395 . S
C482 C484 1.320 . S
C483 C481 1.339 . S
C483 C482 1.395 . S
C483 H509 0.929 . S
C484 C482 1.320 . S
C484 C485 1.405 . S
C484 H510 0.930 . S
C485 C480 1.479 . S
C485 C484 1.405 . S
C485 H511 0.931 1_556 S
U486 O487 2.454 . S
U486 O488 2.458 . S
U486 C489 2.984 . S
U486 C490 2.847 . S
U486 C503 2.850 1_554 S
U486 O504 2.441 . S
U486 O505 2.420 1_554 S
U486 O506 2.455 . S
U486 O507 2.449 1_554 S
O487 U486 2.454 . S
O487 C489 1.353 . S
O488 U486 2.458 . S
O488 C489 1.286 . S
C489 U486 2.984 . S
C489 O487 1.353 . S
C489 O488 1.286 . S
C489 C491 1.363 . S
C490 C480 1.465 1_554 S
C490 U486 2.847 . S
C490 O504 1.249 . S
C490 O505 1.202 1_554 S
C491 C489 1.363 . S
C491 C493 1.408 . S
C491 C496 1.342 . S
C492 C493 1.310 . S
C492 C495 1.461 . S
C492 H512 0.932 . S
C493 C491 1.408 . S
C493 C492 1.310 . S
C493 H513 0.930 . S
C494 C495 1.474 . S
C494 C496 1.285 . S
C494 H514 0.929 . S
C495 C492 1.461 . S
C495 C494 1.474 . S
C496 C491 1.342 . S
C496 C494 1.285 . S
C496 H515 0.930 . S
C497 C500 1.424 . S
C497 C502 1.245 . S
C497 C503 1.463 . S
C498 C501 1.260 . S
C498 C502 1.477 . S
C498 H516 0.932 . S
C499 C500 1.384 . S
C499 C501 1.479 . S
C499 H517 0.929 . S
C500 C497 1.424 . S
C500 C499 1.384 . S
C500 H518 0.928 . S
C501 C498 1.260 . S
C501 C499 1.479 . S
C502 C497 1.245 . S
C502 C498 1.477 . S
C502 H519 0.931 1_556 S
C503 U486 2.850 1_556 S
C503 C497 1.463 . S
C503 O506 1.277 1_556 S
C503 O507 1.268 . S
O504 U486 2.441 . S
O504 C490 1.249 . S
O505 U486 2.420 1_556 S
O505 C490 1.202 1_556 S
O506 U486 2.455 . S
O506 C503 1.277 1_554 S
O507 U486 2.449 1_556 S
O507 C503 1.268 . S
H508 C481 0.931 . S
H509 C483 0.929 . S
H510 C484 0.930 . S
H511 C485 0.931 1_554 S
H512 C492 0.932 . S
H513 C493 0.930 . S
H514 C494 0.929 . S
H515 C496 0.930 . S
H516 C498 0.932 . S
H517 C499 0.929 . S
H518 C500 0.928 . S
H519 C502 0.931 1_554 S
C520 C521 1.264 . S
C520 C525 1.479 . S
C520 C530 1.465 . S
C521 C520 1.264 . S
C521 C523 1.339 . S
C521 H548 0.931 . S
C522 C523 1.395 . S
C522 C524 1.320 . S
C523 C521 1.339 . S
C523 C522 1.395 . S
C523 H549 0.929 . S
C524 C522 1.320 . S
C524 C525 1.405 . S
C524 H550 0.930 . S
C525 C520 1.479 . S
C525 C524 1.405 . S
C525 H551 0.931 . S
U526 O527 2.454 . S
U526 O528 2.458 . S
U526 C529 2.984 . S
U526 C530 2.847 . S
U526 C543 2.882 . S
U526 O544 2.441 . S
U526 O545 2.420 . S
U526 O546 2.455 . S
U526 O547 2.449 . S
O527 U526 2.454 . S
O527 C529 1.353 . S
O528 U526 2.458 . S
O528 C529 1.286 . S
C529 U526 2.984 . S
C529 O527 1.353 . S
C529 O528 1.286 . S
C529 C531 1.363 . S
C530 C520 1.465 . S
C530 U526 2.847 . S
C530 O544 1.249 . S
C530 O545 1.202 . S
C531 C529 1.363 . S
C531 C533 1.408 . S
C531 C536 1.342 . S
C532 C533 1.310 . S
C532 C535 1.461 . S
C532 H552 0.932 . S
C533 C531 1.408 . S
C533 C532 1.310 . S
C533 H553 0.930 . S
C534 C535 1.474 . S
C534 C536 1.285 . S
C534 H554 0.929 . S
C535 C532 1.461 . S
C535 C534 1.474 . S
C536 C531 1.342 . S
C536 C534 1.285 . S
C536 H555 0.930 . S
C537 C540 1.424 . S
C537 C542 1.245 . S
C537 C543 1.428 . S
C538 C541 1.260 . S
C538 C542 1.477 . S
C538 H556 0.932 . S
C539 C540 1.384 . S
C539 C541 1.479 . S
C539 H557 0.929 . S
C540 C537 1.424 . S
C540 C539 1.384 . S
C540 H558 0.928 . S
C541 C538 1.260 . S
C541 C539 1.479 . S
C542 C537 1.245 . S
C542 C538 1.477 . S
C542 H559 0.932 . S
C543 U526 2.882 . S
C543 C537 1.428 . S
C543 O546 1.301 . S
C543 O547 1.282 . S
O544 U526 2.441 . S
O544 C530 1.249 . S
O545 U526 2.420 . S
O545 C530 1.202 . S
O546 U526 2.455 . S
O546 C543 1.301 . S
O547 U526 2.449 . S
O547 C543 1.282 . S
H548 C521 0.931 . S
H549 C523 0.929 . S
H550 C524 0.930 . S
H551 C525 0.931 . S
H552 C532 0.932 . S
H553 C533 0.930 . S
H554 C534 0.929 . S
H555 C536 0.930 . S
H556 C538 0.932 . S
H557 C539 0.929 . S
H558 C540 0.928 . S
H559 C542 0.932 . S
C560 C561 1.264 . S
C560 C565 1.479 . S
C560 C570 1.465 . S
C561 C560 1.264 . S
C561 C563 1.339 . S
C561 H588 0.931 . S
C562 C563 1.395 . S
C562 C564 1.320 . S
C563 C561 1.339 . S
C563 C562 1.395 . S
C563 H589 0.929 . S
C564 C562 1.320 . S
C564 C565 1.405 . S
C564 H590 0.930 . S
C565 C560 1.479 . S
C565 C564 1.405 . S
C565 H591 0.931 . S
U566 O567 2.454 . S
U566 O568 2.458 . S
U566 C569 2.984 . S
U566 C570 2.847 . S
U566 C583 2.882 . S
U566 O584 2.441 . S
U566 O585 2.420 . S
U566 O586 2.455 . S
U566 O587 2.449 . S
O567 U566 2.454 . S
O567 C569 1.353 . S
O568 U566 2.458 . S
O568 C569 1.286 . S
C569 U566 2.984 . S
C569 O567 1.353 . S
C569 O568 1.286 . S
C569 C571 1.363 . S
C570 C560 1.465 . S
C570 U566 2.847 . S
C570 O584 1.249 . S
C570 O585 1.202 . S
C571 C569 1.363 . S
C571 C573 1.408 . S
C571 C576 1.342 . S
C572 C573 1.310 . S
C572 C575 1.461 . S
C572 H592 0.932 . S
C573 C571 1.408 . S
C573 C572 1.310 . S
C573 H593 0.930 . S
C574 C575 1.474 . S
C574 C576 1.285 . S
C574 H594 0.929 . S
C575 C572 1.461 . S
C575 C574 1.474 . S
C576 C571 1.342 . S
C576 C574 1.285 . S
C576 H595 0.930 . S
C577 C580 1.424 . S
C577 C582 1.245 . S
C577 C583 1.428 . S
C578 C581 1.260 . S
C578 C582 1.477 . S
C578 H596 0.932 . S
C579 C580 1.384 . S
C579 C581 1.479 . S
C579 H597 0.929 . S
C580 C577 1.424 . S
C580 C579 1.384 . S
C580 H598 0.928 . S
C581 C578 1.260 . S
C581 C579 1.479 . S
C582 C577 1.245 . S
C582 C578 1.477 . S
C582 H599 0.932 . S
C583 U566 2.882 . S
C583 C577 1.428 . S
C583 O586 1.301 . S
C583 O587 1.282 . S
O584 U566 2.441 . S
O584 C570 1.249 . S
O585 U566 2.420 . S
O585 C570 1.202 . S
O586 U566 2.455 . S
O586 C583 1.301 . S
O587 U566 2.449 . S
O587 C583 1.282 . S
H588 C561 0.931 . S
H589 C563 0.929 . S
H590 C564 0.930 . S
H591 C565 0.931 . S
H592 C572 0.932 . S
H593 C573 0.930 . S
H594 C574 0.929 . S
H595 C576 0.930 . S
H596 C578 0.932 . S
H597 C579 0.929 . S
H598 C580 0.928 . S
H599 C582 0.932 . S
C600 C601 1.264 . S
C600 C605 1.479 . S
C600 C610 1.465 . S
C601 C600 1.264 . S
C601 C603 1.339 . S
C601 H628 0.931 . S
C602 C603 1.395 . S
C602 C604 1.320 . S
C603 C601 1.339 . S
C603 C602 1.395 . S
C603 H629 0.929 . S
C604 C602 1.320 . S
C604 C605 1.405 . S
C604 H630 0.930 . S
C605 C600 1.479 . S
C605 C604 1.405 . S
C605 H631 0.931 . S
U606 O607 2.454 . S
U606 O608 2.458 . S
U606 C609 2.984 . S
U606 C610 2.847 . S
U606 C623 2.882 . S
U606 O624 2.441 . S
U606 O625 2.420 . S
U606 O626 2.455 . S
U606 O627 2.449 . S
O607 U606 2.454 . S
O607 C609 1.353 . S
O608 U606 2.458 . S
O608 C609 1.286 . S
C609 U606 2.984 . S
C609 O607 1.353 . S
C609 O608 1.286 . S
C609 C611 1.363 . S
C610 C600 1.465 . S
C610 U606 2.847 . S
C610 O624 1.249 . S
C610 O625 1.202 . S
C611 C609 1.363 . S
C611 C613 1.408 . S
C611 C616 1.342 . S
C612 C613 1.310 . S
C612 C615 1.461 . S
C612 H632 0.932 . S
C613 C611 1.408 . S
C613 C612 1.310 . S
C613 H633 0.930 . S
C614 C615 1.474 . S
C614 C616 1.285 . S
C614 H634 0.929 . S
C615 C612 1.461 . S
C615 C614 1.474 . S
C616 C611 1.342 . S
C616 C614 1.285 . S
C616 H635 0.930 . S
C617 C620 1.424 . S
C617 C622 1.245 . S
C617 C623 1.428 . S
C618 C621 1.260 . S
C618 C622 1.477 . S
C618 H636 0.932 . S
C619 C620 1.384 . S
C619 C621 1.479 . S
C619 H637 0.929 . S
C620 C617 1.424 . S
C620 C619 1.384 . S
C620 H638 0.928 . S
C621 C618 1.260 . S
C621 C619 1.479 . S
C622 C617 1.245 . S
C622 C618 1.477 . S
C622 H639 0.932 . S
C623 U606 2.882 . S
C623 C617 1.428 . S
C623 O626 1.301 . S
C623 O627 1.282 . S
O624 U606 2.441 . S
O624 C610 1.249 . S
O625 U606 2.420 . S
O625 C610 1.202 . S
O626 U606 2.455 . S
O626 C623 1.301 . S
O627 U606 2.449 . S
O627 C623 1.282 . S
H628 C601 0.931 . S
H629 C603 0.929 . S
H630 C604 0.930 . S
H631 C605 0.931 . S
H632 C612 0.932 . S
H633 C613 0.930 . S
H634 C614 0.929 . S
H635 C616 0.930 . S
H636 C618 0.932 . S
H637 C619 0.929 . S
H638 C620 0.928 . S
H639 C622 0.932 . S
C640 C641 1.264 . S
C640 C645 1.479 . S
C640 C650 1.465 . S
C641 C640 1.264 . S
C641 C643 1.339 . S
C641 H668 0.931 . S
C642 C643 1.395 . S
C642 C644 1.320 . S
C643 C641 1.339 . S
C643 C642 1.395 . S
C643 H669 0.929 . S
C644 C642 1.320 . S
C644 C645 1.405 . S
C644 H670 0.930 . S
C645 C640 1.479 . S
C645 C644 1.405 . S
C645 H671 0.931 . S
U646 O647 2.454 . S
U646 O648 2.458 . S
U646 C649 2.984 . S
U646 C650 2.847 1_545 S
U646 C663 2.882 . S
U646 O664 2.441 1_545 S
U646 O665 2.420 1_545 S
U646 O666 2.455 . S
U646 O667 2.449 . S
O647 U646 2.454 . S
O647 C649 1.353 . S
O648 U646 2.458 . S
O648 C649 1.286 . S
C649 U646 2.984 . S
C649 O647 1.353 . S
C649 O648 1.286 . S
C649 C651 1.363 . S
C650 C640 1.465 . S
C650 U646 2.847 1_565 S
C650 O664 1.249 . S
C650 O665 1.202 . S
C651 C649 1.363 . S
C651 C653 1.408 . S
C651 C656 1.342 . S
C652 C653 1.310 . S
C652 C655 1.461 . S
C652 H672 0.932 . S
C653 C651 1.408 . S
C653 C652 1.310 . S
C653 H673 0.930 . S
C654 C655 1.474 . S
C654 C656 1.285 . S
C654 H674 0.929 . S
C655 C652 1.461 . S
C655 C654 1.474 . S
C656 C651 1.342 . S
C656 C654 1.285 . S
C656 H675 0.930 . S
C657 C660 1.424 . S
C657 C662 1.245 . S
C657 C663 1.428 . S
C658 C661 1.260 . S
C658 C662 1.477 . S
C658 H676 0.932 . S
C659 C660 1.384 . S
C659 C661 1.479 . S
C659 H677 0.929 . S
C660 C657 1.424 . S
C660 C659 1.384 . S
C660 H678 0.928 . S
C661 C658 1.260 . S
C661 C659 1.479 . S
C662 C657 1.245 . S
C662 C658 1.477 . S
C662 H679 0.932 . S
C663 U646 2.882 . S
C663 C657 1.428 . S
C663 O666 1.301 . S
C663 O667 1.282 . S
O664 U646 2.441 1_565 S
O664 C650 1.249 . S
O665 U646 2.420 1_565 S
O665 C650 1.202 . S
O666 U646 2.455 . S
O666 C663 1.301 . S
O667 U646 2.449 . S
O667 C663 1.282 . S
H668 C641 0.931 . S
H669 C643 0.929 . S
H670 C644 0.930 . S
H671 C645 0.931 . S
H672 C652 0.932 . S
H673 C653 0.930 . S
H674 C654 0.929 . S
H675 C656 0.930 . S
H676 C658 0.932 . S
H677 C659 0.929 . S
H678 C660 0.928 . S
H679 C662 0.932 . S
C680 C681 1.264 . S
C680 C685 1.479 . S
C680 C690 1.465 . S
C681 C680 1.264 . S
C681 C683 1.339 . S
C681 H708 0.931 . S
C682 C683 1.395 . S
C682 C684 1.320 . S
C683 C681 1.339 . S
C683 C682 1.395 . S
C683 H709 0.929 . S
C684 C682 1.320 . S
C684 C685 1.405 . S
C684 H710 0.930 . S
C685 C680 1.479 . S
C685 C684 1.405 . S
C685 H711 0.931 . S
U686 O687 2.454 . S
U686 O688 2.458 . S
U686 C689 2.984 . S
U686 C690 2.847 . S
U686 C703 2.882 . S
U686 O704 2.441 . S
U686 O705 2.420 . S
U686 O706 2.455 . S
U686 O707 2.449 . S
O687 U686 2.454 . S
O687 C689 1.353 . S
O688 U686 2.458 . S
O688 C689 1.286 . S
C689 U686 2.984 . S
C689 O687 1.353 . S
C689 O688 1.286 . S
C689 C691 1.363 . S
C690 C680 1.465 . S
C690 U686 2.847 . S
C690 O704 1.249 . S
C690 O705 1.202 . S
C691 C689 1.363 . S
C691 C693 1.408 . S
C691 C696 1.342 . S
C692 C693 1.310 . S
C692 C695 1.461 . S
C692 H712 0.932 . S
C693 C691 1.408 . S
C693 C692 1.310 . S
C693 H713 0.930 . S
C694 C695 1.474 . S
C694 C696 1.285 . S
C694 H714 0.929 . S
C695 C692 1.461 . S
C695 C694 1.474 . S
C696 C691 1.342 . S
C696 C694 1.285 . S
C696 H715 0.930 . S
C697 C700 1.424 . S
C697 C702 1.245 1_565 S
C697 C703 1.428 . S
C698 C701 1.260 . S
C698 C702 1.477 . S
C698 H716 0.932 . S
C699 C700 1.384 1_545 S
C699 C701 1.479 . S
C699 H717 0.929 . S
C700 C697 1.424 . S
C700 C699 1.384 1_565 S
C700 H718 0.928 . S
C701 C698 1.260 . S
C701 C699 1.479 . S
C702 C697 1.245 1_545 S
C702 C698 1.477 . S
C702 H719 0.932 1_545 S
C703 U686 2.882 . S
C703 C697 1.428 . S
C703 O706 1.301 . S
C703 O707 1.282 . S
O704 U686 2.441 . S
O704 C690 1.249 . S
O705 U686 2.420 . S
O705 C690 1.202 . S
O706 U686 2.455 . S
O706 C703 1.301 . S
O707 U686 2.449 . S
O707 C703 1.282 . S
H708 C681 0.931 . S
H709 C683 0.929 . S
H710 C684 0.930 . S
H711 C685 0.931 . S
H712 C692 0.932 . S
H713 C693 0.930 . S
H714 C694 0.929 . S
H715 C696 0.930 . S
H716 C698 0.932 . S
H717 C699 0.929 . S
H718 C700 0.928 . S
H719 C702 0.932 1_565 S
C720 C721 1.264 . S
C720 C725 1.479 . S
C720 C730 1.465 . S
C721 C720 1.264 . S
C721 C723 1.339 . S
C721 H748 0.931 . S
C722 C723 1.395 . S
C722 C724 1.320 . S
C723 C721 1.339 . S
C723 C722 1.395 . S
C723 H749 0.929 . S
C724 C722 1.320 . S
C724 C725 1.405 . S
C724 H750 0.930 . S
C725 C720 1.479 . S
C725 C724 1.405 . S
C725 H751 0.931 . S
U726 O727 2.454 . S
U726 O728 2.458 . S
U726 C729 2.984 . S
U726 C730 2.847 . S
U726 C743 2.882 1_655 S
U726 O744 2.441 . S
U726 O745 2.420 . S
U726 O746 2.455 1_655 S
U726 O747 2.449 1_655 S
O727 U726 2.454 . S
O727 C729 1.353 . S
O728 U726 2.458 . S
O728 C729 1.286 . S
C729 U726 2.984 . S
C729 O727 1.353 . S
C729 O728 1.286 . S
C729 C731 1.363 . S
C730 C720 1.465 . S
C730 U726 2.847 . S
C730 O744 1.249 . S
C730 O745 1.202 . S
C731 C729 1.363 . S
C731 C733 1.408 1_556 S
C731 C736 1.342 . S
C732 C733 1.310 . S
C732 C735 1.461 . S
C732 H752 0.932 . S
C733 C731 1.408 1_554 S
C733 C732 1.310 . S
C733 H753 0.930 . S
C734 C735 1.474 . S
C734 C736 1.285 1_554 S
C734 H754 0.929 . S
C735 C732 1.461 . S
C735 C734 1.474 . S
C736 C731 1.342 . S
C736 C734 1.285 1_556 S
C736 H755 0.930 . S
C737 C740 1.424 . S
C737 C742 1.245 . S
C737 C743 1.428 . S
C738 C741 1.260 . S
C738 C742 1.477 . S
C738 H756 0.932 . S
C739 C740 1.384 . S
C739 C741 1.479 . S
C739 H757 0.929 . S
C740 C737 1.424 . S
C740 C739 1.384 . S
C740 H758 0.928 . S
C741 C738 1.260 . S
C741 C739 1.479 . S
C742 C737 1.245 . S
C742 C738 1.477 . S
C742 H759 0.932 . S
C743 U726 2.882 1_455 S
C743 C737 1.428 . S
C743 O746 1.301 . S
C743 O747 1.282 . S
O744 U726 2.441 . S
O744 C730 1.249 . S
O745 U726 2.420 . S
O745 C730 1.202 . S
O746 U726 2.455 1_455 S
O746 C743 1.301 . S
O747 U726 2.449 1_455 S
O747 C743 1.282 . S
H748 C721 0.931 . S
H749 C723 0.929 . S
H750 C724 0.930 . S
H751 C725 0.931 . S
H752 C732 0.932 . S
H753 C733 0.930 . S
H754 C734 0.929 . S
H755 C736 0.930 . S
H756 C738 0.932 . S
H757 C739 0.929 . S
H758 C740 0.928 . S
H759 C742 0.932 . S
C760 C761 1.264 . S
C760 C765 1.479 . S
C760 C770 1.465 . S
C761 C760 1.264 . S
C761 C763 1.339 . S
C761 H788 0.931 . S
C762 C763 1.395 . S
C762 C764 1.320 . S
C763 C761 1.339 . S
C763 C762 1.395 . S
C763 H789 0.929 . S
C764 C762 1.320 . S
C764 C765 1.405 . S
C764 H790 0.930 . S
C765 C760 1.479 . S
C765 C764 1.405 . S
C765 H791 0.931 . S
U766 O767 2.454 1_565 S
U766 O768 2.458 1_565 S
U766 C769 2.984 1_565 S
U766 C770 2.847 1_565 S
U766 C783 2.882 1_655 S
U766 O784 2.441 1_565 S
U766 O785 2.420 . S
U766 O786 2.455 1_655 S
U766 O787 2.449 1_655 S
O767 U766 2.454 1_545 S
O767 C769 1.353 . S
O768 U766 2.458 1_545 S
O768 C769 1.286 . S
C769 U766 2.984 1_545 S
C769 O767 1.353 . S
C769 O768 1.286 . S
C769 C771 1.363 . S
C770 C760 1.465 . S
C770 U766 2.847 1_545 S
C770 O784 1.249 . S
C770 O785 1.202 1_545 S
C771 C769 1.363 . S
C771 C773 1.408 . S
C771 C776 1.342 . S
C772 C773 1.310 . S
C772 C775 1.461 . S
C772 H792 0.932 . S
C773 C771 1.408 . S
C773 C772 1.310 . S
C773 H793 0.930 . S
C774 C775 1.474 . S
C774 C776 1.285 . S
C774 H794 0.929 . S
C775 C772 1.461 . S
C775 C774 1.474 . S
C776 C771 1.342 . S
C776 C774 1.285 . S
C776 H795 0.930 . S
C777 C780 1.424 . S
C777 C782 1.245 . S
C777 C783 1.428 . S
C778 C781 1.260 . S
C778 C782 1.477 . S
C778 H796 0.932 . S
C779 C780 1.384 . S
C779 C781 1.479 . S
C779 H797 0.929 . S
C780 C777 1.424 . S
C780 C779 1.384 . S
C780 H798 0.928 . S
C781 C778 1.260 . S
C781 C779 1.479 . S
C782 C777 1.245 . S
C782 C778 1.477 . S
C782 H799 0.932 . S
C783 U766 2.882 1_455 S
C783 C777 1.428 . S
C783 O786 1.301 . S
C783 O787 1.282 . S
O784 U766 2.441 1_545 S
O784 C770 1.249 . S
O785 U766 2.420 . S
O785 C770 1.202 1_565 S
O786 U766 2.455 1_455 S
O786 C783 1.301 . S
O787 U766 2.449 1_455 S
O787 C783 1.282 . S
H788 C761 0.931 . S
H789 C763 0.929 . S
H790 C764 0.930 . S
H791 C765 0.931 . S
H792 C772 0.932 . S
H793 C773 0.930 . S
H794 C774 0.929 . S
H795 C776 0.930 . S
H796 C778 0.932 . S
H797 C779 0.929 . S
H798 C780 0.928 . S
H799 C782 0.932 . S
C800 C801 1.264 . S
C800 C805 1.479 . S
C800 C810 1.465 . S
C801 C800 1.264 . S
C801 C803 1.339 . S
C801 H828 0.931 1_545 S
C802 C803 1.395 . S
C802 C804 1.320 . S
C803 C801 1.339 . S
C803 C802 1.395 . S
C803 H829 0.929 . S
C804 C802 1.320 . S
C804 C805 1.405 . S
C804 H830 0.930 . S
C805 C800 1.479 . S
C805 C804 1.405 . S
C805 H831 0.931 . S
U806 O807 2.454 1_565 S
U806 O808 2.458 . S
U806 C809 2.984 1_565 S
U806 C810 2.847 1_566 S
U806 C823 2.882 1_556 S
U806 O824 2.441 1_565 S
U806 O825 2.431 1_556 S
U806 O826 2.455 . S
U806 O827 2.449 1_556 S
O807 U806 2.454 1_545 S
O807 C809 1.353 . S
O808 U806 2.458 . S
O808 C809 1.286 1_565 S
C809 U806 2.984 1_545 S
C809 O807 1.353 . S
C809 O808 1.286 1_545 S
C809 C811 1.363 . S
C810 C800 1.465 . S
C810 U806 2.847 1_544 S
C810 O824 1.249 1_554 S
C810 O825 1.195 1_545 S
C811 C809 1.363 . S
C811 C813 1.408 . S
C811 C816 1.342 . S
C812 C813 1.310 . S
C812 C815 1.461 . S
C812 H832 0.932 . S
C813 C811 1.408 . S
C813 C812 1.310 . S
C813 H833 0.930 . S
C814 C815 1.474 . S
C814 C816 1.285 . S
C814 H834 0.929 . S
C815 C812 1.461 . S
C815 C814 1.474 . S
C816 C811 1.342 . S
C816 C814 1.285 . S
C816 H835 0.930 1_545 S
C817 C820 1.424 . S
C817 C822 1.245 . S
C817 C823 1.428 . S
C818 C821 1.260 . S
C818 C822 1.477 . S
C818 H836 0.932 . S
C819 C820 1.384 . S
C819 C821 1.479 . S
C819 H837 0.929 . S
C820 C817 1.424 . S
C820 C819 1.384 . S
C820 H838 0.928 . S
C821 C818 1.260 . S
C821 C819 1.479 . S
C822 C817 1.245 . S
C822 C818 1.477 . S
C822 H839 0.932 . S
C823 U806 2.882 1_554 S
C823 C817 1.428 . S
C823 O826 1.301 1_554 S
C823 O827 1.282 . S
O824 U806 2.441 1_545 S
O824 C810 1.249 1_556 S
O825 U806 2.431 1_554 S
O825 C810 1.195 1_565 S
O826 U806 2.455 . S
O826 C823 1.301 1_556 S
O827 U806 2.449 1_554 S
O827 C823 1.282 . S
H828 C801 0.931 1_565 S
H829 C803 0.929 . S
H830 C804 0.930 . S
H831 C805 0.931 . S
H832 C812 0.932 . S
H833 C813 0.930 . S
H834 C814 0.929 . S
H835 C816 0.930 1_565 S
H836 C818 0.932 . S
H837 C819 0.929 . S
H838 C820 0.928 . S
H839 C822 0.932 . S
C840 C841 1.264 . S
C840 C845 1.479 1_565 S
C840 C850 1.465 . S
C841 C840 1.264 . S
C841 C843 1.339 . S
C841 H868 0.931 1_655 S
C842 C843 1.395 . S
C842 C844 1.320 1_565 S
C843 C841 1.339 . S
C843 C842 1.395 . S
C843 H869 0.929 . S
C844 C842 1.320 1_545 S
C844 C845 1.405 . S
C844 H870 0.930 . S
C845 C840 1.479 1_545 S
C845 C844 1.405 . S
C845 H871 0.931 . S
U846 O847 2.454 1_455 S
U846 O848 2.458 1_455 S
U846 C849 2.984 1_455 S
U846 C850 2.847 1_455 S
U846 C863 2.882 . S
U846 O864 2.441 1_455 S
U846 O865 2.420 . S
U846 O866 2.455 . S
U846 O867 2.449 . S
O847 U846 2.454 1_655 S
O847 C849 1.353 . S
O848 U846 2.458 1_655 S
O848 C849 1.286 . S
C849 U846 2.984 1_655 S
C849 O847 1.353 . S
C849 O848 1.286 . S
C849 C851 1.363 . S
C850 C840 1.465 . S
C850 U846 2.847 1_655 S
C850 O864 1.249 . S
C850 O865 1.202 1_655 S
C851 C849 1.363 . S
C851 C853 1.408 1_565 S
C851 C856 1.342 . S
C852 C853 1.310 . S
C852 C855 1.461 . S
C852 H872 0.932 . S
C853 C851 1.408 1_545 S
C853 C852 1.310 . S
C853 H873 0.930 . S
C854 C855 1.474 1_565 S
C854 C856 1.285 . S
C854 H874 0.929 . S
C855 C852 1.461 . S
C855 C854 1.474 1_545 S
C856 C851 1.342 . S
C856 C854 1.285 . S
C856 H875 0.930 . S
C857 C860 1.424 . S
C857 C862 1.245 . S
C857 C863 1.428 . S
C858 C861 1.260 . S
C858 C862 1.477 . S
C858 H876 0.932 . S
C859 C860 1.384 . S
C859 C861 1.479 . S
C859 H877 0.929 . S
C860 C857 1.424 . S
C860 C859 1.384 . S
C860 H878 0.928 . S
C861 C858 1.260 . S
C861 C859 1.479 . S
C862 C857 1.245 . S
C862 C858 1.477 . S
C862 H879 0.932 . S
C863 U846 2.882 . S
C863 C857 1.428 . S
C863 O866 1.301 . S
C863 O867 1.282 . S
O864 U846 2.441 1_655 S
O864 C850 1.249 . S
O865 U846 2.420 . S
O865 C850 1.202 1_455 S
O866 U846 2.455 . S
O866 C863 1.301 . S
O867 U846 2.449 . S
O867 C863 1.282 . S
H868 C841 0.931 1_455 S
H869 C843 0.929 . S
H870 C844 0.930 . S
H871 C845 0.931 . S
H872 C852 0.932 . S
H873 C853 0.930 . S
H874 C854 0.929 . S
H875 C856 0.930 . S
H876 C858 0.932 . S
H877 C859 0.929 . S
H878 C860 0.928 . S
H879 C862 0.932 . S
C880 C881 1.264 1_545 S
C880 C885 1.479 . S
C880 C890 1.465 . S
C881 C880 1.264 1_565 S
C881 C883 1.339 1_565 S
C881 H908 0.931 . S
C882 C883 1.395 . S
C882 C884 1.320 . S
C883 C881 1.339 1_545 S
C883 C882 1.395 . S
C883 H909 0.929 1_545 S
C884 C882 1.320 . S
C884 C885 1.405 . S
C884 H910 0.930 . S
C885 C880 1.479 . S
C885 C884 1.405 . S
C885 H911 0.931 . S
U886 O887 2.454 1_565 S
U886 O888 2.458 1_565 S
U886 C889 2.984 1_565 S
U886 C890 2.847 1_565 S
U886 C903 2.882 . S
U886 O904 2.441 1_565 S
U886 O905 2.420 . S
U886 O906 2.455 . S
U886 O907 2.449 . S
O887 U886 2.454 1_545 S
O887 C889 1.353 . S
O888 U886 2.458 1_545 S
O888 C889 1.286 . S
C889 U886 2.984 1_545 S
C889 O887 1.353 . S
C889 O888 1.286 . S
C889 C891 1.363 . S
C890 C880 1.465 . S
C890 U886 2.847 1_545 S
C890 O904 1.249 . S
C890 O905 1.202 1_545 S
C891 C889 1.363 . S
C891 C893 1.408 . S
C891 C896 1.342 . S
C892 C893 1.310 . S
C892 C895 1.461 . S
C892 H912 0.932 . S
C893 C891 1.408 . S
C893 C892 1.310 . S
C893 H913 0.930 . S
C894 C895 1.474 . S
C894 C896 1.285 . S
C894 H914 0.929 . S
C895 C892 1.461 . S
C895 C894 1.474 . S
C896 C891 1.342 . S
C896 C894 1.285 . S
C896 H915 0.930 . S
C897 C900 1.424 . S
C897 C902 1.245 . S
C897 C903 1.428 . S
C898 C901 1.260 . S
C898 C902 1.477 . S
C898 H916 0.932 . S
C899 C900 1.384 . S
C899 C901 1.479 . S
C899 H917 0.929 . S
C900 C897 1.424 . S
C900 C899 1.384 . S
C900 H918 0.928 . S
C901 C898 1.260 . S
C901 C899 1.479 . S
C902 C897 1.245 . S
C902 C898 1.477 . S
C902 H919 0.932 . S
C903 U886 2.882 . S
C903 C897 1.428 . S
C903 O906 1.301 . S
C903 O907 1.282 . S
O904 U886 2.441 1_545 S
O904 C890 1.249 . S
O905 U886 2.420 . S
O905 C890 1.202 1_565 S
O906 U886 2.455 . S
O906 C903 1.301 . S
O907 U886 2.449 . S
O907 C903 1.282 . S
H908 C881 0.931 . S
H909 C883 0.929 1_565 S
H910 C884 0.930 . S
H911 C885 0.931 . S
H912 C892 0.932 . S
H913 C893 0.930 . S
H914 C894 0.929 . S
H915 C896 0.930 . S
H916 C898 0.932 . S
H917 C899 0.929 . S
H918 C900 0.928 . S
H919 C902 0.932 . S
C920 C921 1.264 . S
C920 C925 1.479 . S
C920 C930 1.465 . S
C921 C920 1.264 . S
C921 C923 1.339 . S
C921 H948 0.931 . S
C922 C923 1.395 . S
C922 C924 1.320 . S
C923 C921 1.339 . S
C923 C922 1.395 . S
C923 H949 0.929 . S
C924 C922 1.320 . S
C924 C925 1.405 . S
C924 H950 0.930 . S
C925 C920 1.479 . S
C925 C924 1.405 . S
C925 H951 0.931 . S
U926 O927 2.454 . S
U926 O928 2.458 . S
U926 C929 2.984 . S
U926 C930 2.847 . S
U926 C943 2.882 . S
U926 O944 2.441 . S
U926 O945 2.420 . S
U926 O946 2.455 . S
U926 O947 2.449 . S
O927 U926 2.454 . S
O927 C929 1.353 . S
O928 U926 2.458 . S
O928 C929 1.286 . S
C929 U926 2.984 . S
C929 O927 1.353 . S
C929 O928 1.286 . S
C929 C931 1.363 . S
C930 C920 1.465 . S
C930 U926 2.847 . S
C930 O944 1.249 . S
C930 O945 1.202 . S
C931 C929 1.363 . S
C931 C933 1.408 . S
C931 C936 1.342 . S
C932 C933 1.310 . S
C932 C935 1.461 . S
C932 H952 0.932 . S
C933 C931 1.408 . S
C933 C932 1.310 . S
C933 H953 0.930 . S
C934 C935 1.474 . S
C934 C936 1.285 . S
C934 H954 0.929 . S
C935 C932 1.461 . S
C935 C934 1.474 . S
C936 C931 1.342 . S
C936 C934 1.285 . S
C936 H955 0.930 . S
C937 C940 1.424 . S
C937 C942 1.245 . S
C937 C943 1.428 . S
C938 C941 1.260 . S
C938 C942 1.477 . S
C938 H956 0.932 . S
C939 C940 1.384 . S
C939 C941 1.479 . S
C939 H957 0.929 . S
C940 C937 1.424 . S
C940 C939 1.384 . S
C940 H958 0.928 . S
C941 C938 1.260 . S
C941 C939 1.479 . S
C942 C937 1.245 . S
C942 C938 1.477 . S
C942 H959 0.932 . S
C943 U926 2.882 . S
C943 C937 1.428 . S
C943 O946 1.301 . S
C943 O947 1.282 . S
O944 U926 2.441 . S
O944 C930 1.249 . S
O945 U926 2.420 . S
O945 C930 1.202 . S
O946 U926 2.455 . S
O946 C943 1.301 . S
O947 U926 2.449 . S
O947 C943 1.282 . S
H948 C921 0.931 . S
H949 C923 0.929 . S
H950 C924 0.930 . S
H951 C925 0.931 . S
H952 C932 0.932 . S
H953 C933 0.930 . S
H954 C934 0.929 . S
H955 C936 0.930 . S
H956 C938 0.932 . S
H957 C939 0.929 . S
H958 C940 0.928 . S
H959 C942 0.932 . S
C301 C21 2.299 . S
C181 C61 2.578 . S
C101 C221 2.282 . S
C261 C141 2.225 . S
C661 C341 3.848 . S
C381 C701 3.811 . S
C421 C941 2.709 . S
C461 C501 2.731 . S
C821 C541 3.682 . S
C581 C861 2.977 . S
C901 C621 3.739 . S
C781 C741 2.397 . S
C575 C15 5.039 . S
C602 C55 4.036 . S
C82 C735 3.378 . S
C522 C122 3.181 . S
C175 C562 2.777 . S
C615 C215 3.034 . S
C242 C722 3.015 . S
C282 C535 3.681 . S
C375 C322 4.003 . S
C362 C402 2.886 . S
C415 C442 5.090 . S
C455 C335 5.431 . S
C482 C135 2.619 . S
C642 C162 3.010 . S
C42 C682 3.668 . S
C935 C95 4.689 . S
C655 C2 3.391 . S
C255 C922 3.045 . S
C295 C495 4.293 . S
C695 C202 2.998 . S
C762 C815 4.144 . S
C842 C802 3.083 1_565 S
C855 C882 3.351 . S
C775 C895 3.758 . S
