# Generated by pormake.
# Topology ukh, (4)-cn, num edge types: 1
# Building blocks:
#     Node 0, Type 0, BuildingBlock: QUQFOY_clean_sbu_3, # of connection points: 4
#     Node 1, Type 0, BuildingBlock: QUQFOY_clean_sbu_3, # of connection points: 4
#     Node 2, Type 0, BuildingBlock: QUQFOY_clean_sbu_3, # of connection points: 4
#     Node 3, Type 0, BuildingBlock: QUQFOY_clean_sbu_3, # of connection points: 4
#     Node 4, Type 0, BuildingBlock: QUQFOY_clean_sbu_3, # of connection points: 4
#     Node 5, Type 0, BuildingBlock: QUQFOY_clean_sbu_3, # of connection points: 4
#     Node 6, Type 0, BuildingBlock: QUQFOY_clean_sbu_3, # of connection points: 4
#     Node 7, Type 0, BuildingBlock: QUQFOY_clean_sbu_3, # of connection points: 4
#     Node 8, Type 0, BuildingBlock: QUQFOY_clean_sbu_3, # of connection points: 4
#     Node 9, Type 0, BuildingBlock: QUQFOY_clean_sbu_3, # of connection points: 4
#     Node 10, Type 0, BuildingBlock: QUQFOY_clean_sbu_3, # of connection points: 4
#     Node 11, Type 0, BuildingBlock: QUQFOY_clean_sbu_3, # of connection points: 4
#     Edge 12, Type (0, 0), BuildingBlock: OJICUG_clean_linker_0, # of connection points: 2
#     Edge 13, Type (0, 0), BuildingBlock: OJICUG_clean_linker_0, # of connection points: 2
#     Edge 14, Type (0, 0), BuildingBlock: OJICUG_clean_linker_0, # of connection points: 2
#     Edge 15, Type (0, 0), BuildingBlock: OJICUG_clean_linker_0, # of connection points: 2
#     Edge 16, Type (0, 0), BuildingBlock: OJICUG_clean_linker_0, # of connection points: 2
#     Edge 17, Type (0, 0), BuildingBlock: OJICUG_clean_linker_0, # of connection points: 2
#     Edge 18, Type (0, 0), BuildingBlock: OJICUG_clean_linker_0, # of connection points: 2
#     Edge 19, Type (0, 0), BuildingBlock: OJICUG_clean_linker_0, # of connection points: 2
#     Edge 20, Type (0, 0), BuildingBlock: OJICUG_clean_linker_0, # of connection points: 2
#     Edge 21, Type (0, 0), BuildingBlock: OJICUG_clean_linker_0, # of connection points: 2
#     Edge 22, Type (0, 0), BuildingBlock: OJICUG_clean_linker_0, # of connection points: 2
#     Edge 23, Type (0, 0), BuildingBlock: OJICUG_clean_linker_0, # of connection points: 2
#     Edge 24, Type (0, 0), BuildingBlock: OJICUG_clean_linker_0, # of connection points: 2
#     Edge 25, Type (0, 0), BuildingBlock: OJICUG_clean_linker_0, # of connection points: 2
#     Edge 26, Type (0, 0), BuildingBlock: OJICUG_clean_linker_0, # of connection points: 2
#     Edge 27, Type (0, 0), BuildingBlock: OJICUG_clean_linker_0, # of connection points: 2
#     Edge 28, Type (0, 0), BuildingBlock: OJICUG_clean_linker_0, # of connection points: 2
#     Edge 29, Type (0, 0), BuildingBlock: OJICUG_clean_linker_0, # of connection points: 2
#     Edge 30, Type (0, 0), BuildingBlock: OJICUG_clean_linker_0, # of connection points: 2
#     Edge 31, Type (0, 0), BuildingBlock: OJICUG_clean_linker_0, # of connection points: 2
#     Edge 32, Type (0, 0), BuildingBlock: OJICUG_clean_linker_0, # of connection points: 2
#     Edge 33, Type (0, 0), BuildingBlock: OJICUG_clean_linker_0, # of connection points: 2
#     Edge 34, Type (0, 0), BuildingBlock: OJICUG_clean_linker_0, # of connection points: 2
#     Edge 35, Type (0, 0), BuildingBlock: OJICUG_clean_linker_0, # of connection points: 2
# Relax obj value: 0.081
# Max RMSD: 0.104
# Mean RMSD: 0.099
data_MOF--net-ukh--node1-QUQFOY_clean_sbu_3--edge1-OJICUG_clean_linker_0
_symmetry_space_group_name_H-M    P1
_symmetry_Int_Tables_number       1
_symmetry_cell_setting            triclinic
loop_
_symmetry_equiv_pos_as_xyz
'x, y, z'
_cell_length_a     24.673847
_cell_length_b     25.159275
_cell_length_c     49.173276
_cell_angle_alpha  90.080525
_cell_angle_beta   90.023548
_cell_angle_gamma 119.46659
loop_
_atom_site_label
_atom_site_type_symbol
_atom_site_fract_x
_atom_site_fract_y
_atom_site_fract_z
_atom_type_partial_charge
C0 C 0.13301 0.15651 0.01854 0.0
O1 O 0.11276 0.11456 0.03637 0.0
Cd2 Cd 0.17429 0.0953 0.06852 0.0
O3 O 0.19102 0.19423 0.01624 0.0
Cd4 Cd 0.29189 0.2155 0.03684 0.0
C5 C 0.25486 0.06901 0.01782 0.0
O6 O 0.25342 0.19216 0.08268 0.0
O7 O 0.34633 0.20683 0.07746 0.0
O8 O 0.31677 0.32183 0.03198 0.0
C9 C 0.30106 0.19411 0.09331 0.0
O10 O 0.21869 0.0506 0.03834 0.0
C11 C 0.37197 0.34212 0.02336 0.0
O12 O 0.28433 0.12568 0.01135 0.0
O13 O 0.39005 0.30307 0.01997 0.0
C14 C 0.16367 0.31498 0.32373 0.0
O15 O 0.14709 0.33768 0.3046 0.0
Cd16 Cd 0.05603 0.34913 0.31017 0.0
O17 O 0.13507 0.3025 0.34633 0.0
Cd18 Cd 0.04954 0.3094 0.36896 0.0
C19 C 0.94679 0.20285 0.32626 0.0
O20 O 0.05523 0.40334 0.35096 0.0
O21 O -0.03148 0.33753 0.36979 0.0
O22 O 0.11123 0.35588 0.40968 0.0
C23 C 0.00148 0.39024 0.35967 0.0
O24 O -0.03226 0.24509 0.3085 0.0
C25 C 0.08108 0.30974 0.42484 0.0
O26 O -0.02993 0.21273 0.35007 0.0
O27 O 0.0349 0.26361 0.41423 0.0
C28 C 0.82256 0.18021 0.65737 0.0
O29 O 0.78225 0.16609 0.63871 0.0
Cd30 Cd 0.68105 0.0775 0.64485 0.0
O31 O 0.80745 0.15146 0.6798 0.0
Cd32 Cd 0.71528 0.07159 0.70357 0.0
C33 C 0.72241 0.96984 0.66234 0.0
O34 O 0.62534 0.07803 0.68528 0.0
O35 O 0.60752 -0.00686 0.70411 0.0
O36 O 0.74853 0.14673 0.73993 0.0
C37 C 0.58602 0.02513 0.69387 0.0
O38 O 0.69966 -0.00943 0.64475 0.0
C39 C 0.74582 0.11089 0.75865 0.0
O40 O 0.73686 -0.00677 0.68604 0.0
O41 O 0.72809 0.05591 0.75195 0.0
C42 C 0.77591 0.78999 0.0198 0.0
O43 O 0.79575 0.83135 0.03797 0.0
Cd44 Cd 0.73357 0.85021 0.06984 0.0
O45 O 0.71795 0.75236 0.01711 0.0
Cd46 Cd 0.61652 0.73011 0.03732 0.0
C47 C 0.65453 0.87672 0.01843 0.0
O48 O 0.65404 0.75321 0.08329 0.0
O49 O 0.56137 0.73894 0.07768 0.0
O50 O 0.59197 0.62386 0.03237 0.0
C51 C 0.60634 0.75147 0.09373 0.0
O52 O 0.69011 0.89493 0.03918 0.0
C53 C 0.53689 0.6035 0.02353 0.0
O54 O 0.62498 0.82009 0.01181 0.0
O55 O 0.51879 0.64249 0.02003 0.0
C56 C 0.7449 0.63478 0.32402 0.0
O57 O 0.76129 0.6118 0.30491 0.0
Cd58 Cd 0.85235 0.60037 0.31048 0.0
O59 O 0.77364 0.64749 0.34662 0.0
Cd60 Cd 0.85907 0.64065 0.36939 0.0
C61 C -0.03835 0.74684 0.32671 0.0
O62 O 0.85327 0.54663 0.35131 0.0
O63 O 0.93998 0.61234 0.37031 0.0
O64 O 0.79689 0.59419 0.40987 0.0
C65 C 0.90701 0.55967 0.36006 0.0
O66 O 0.94053 0.70444 0.30895 0.0
C67 C 0.82697 0.6402 0.42519 0.0
O68 O 0.93856 0.73719 0.35053 0.0
O69 O 0.87339 0.68631 0.41479 0.0
C70 C 0.08509 0.76309 0.65598 0.0
O71 O 0.12488 0.77954 0.63699 0.0
Cd72 Cd 0.22602 0.869 0.6429 0.0
O73 O 0.09996 0.79108 0.67863 0.0
Cd74 Cd 0.19003 0.87444 0.70191 0.0
C75 C 0.18514 -0.02319 0.6597 0.0
O76 O 0.28154 0.87166 0.68398 0.0
O77 O 0.29693 0.95569 0.70317 0.0
O78 O 0.17896 0.81252 0.74174 0.0
C79 C 0.31974 0.92486 0.69277 0.0
O80 O 0.20748 0.95581 0.64204 0.0
C81 C 0.15979 0.8398 0.75744 0.0
O82 O 0.17092 0.95361 0.68341 0.0
O83 O 0.15612 0.88457 0.74754 0.0
C84 C 0.8228 0.63267 0.63642 0.0
O85 O 0.78342 0.60954 0.6555 0.0
Cd86 Cd 0.6811 0.59867 0.65014 0.0
O87 O 0.80687 0.64591 0.61396 0.0
Cd88 Cd 0.71507 0.6401 0.59129 0.0
C89 C 0.71955 0.74568 0.63476 0.0
O90 O 0.6266 0.54598 0.609 0.0
O91 O 0.60585 0.61195 0.59034 0.0
O92 O 0.73051 0.5939 0.55064 0.0
C93 C 0.58598 0.55916 0.60036 0.0
O94 O 0.69794 0.70294 0.65229 0.0
C95 C 0.74677 0.64006 0.53547 0.0
O96 O 0.73284 0.73638 0.61084 0.0
O97 O 0.74679 0.68619 0.54604 0.0
C98 C 0.94909 0.79077 0.94111 0.0
O99 O -0.02922 0.83241 0.92314 0.0
Cd100 Cd 0.0513 0.85115 0.89095 0.0
O101 O -0.03091 0.75292 0.94349 0.0
Cd102 Cd 0.04778 0.73064 0.92287 0.0
C103 C 0.15825 0.87709 0.9417 0.0
O104 O 0.03274 0.75401 0.87708 0.0
O105 O 0.11065 0.73887 0.88222 0.0
O106 O -0.03445 0.62441 0.92775 0.0
C107 C 0.07828 0.75188 0.86641 0.0
O108 O 0.14054 0.89554 0.92119 0.0
C109 C 0.0002 0.60403 0.93653 0.0
O110 O 0.13074 0.82044 0.94821 0.0
O111 O 0.05748 0.64297 0.93998 0.0
C112 C 0.29628 0.18537 0.30409 0.0
O113 O 0.31987 0.16928 0.3231 0.0
Cd114 Cd 0.33236 0.08042 0.31719 0.0
O115 O 0.28352 0.15747 0.28142 0.0
Cd116 Cd 0.29143 0.07461 0.25831 0.0
C117 C 0.18378 0.97174 0.30035 0.0
O118 O 0.38627 0.07817 0.27636 0.0
O119 O 0.31756 -0.00615 0.25731 0.0
O120 O 0.34202 0.13634 0.21835 0.0
C121 C 0.37136 0.02499 0.26762 0.0
O122 O 0.22707 -0.00701 0.31808 0.0
C123 C 0.29554 0.10846 0.20266 0.0
O124 O 0.1929 -0.00509 0.27664 0.0
O125 O 0.24724 0.06352 0.21263 0.0
C126 C 0.08488 0.31249 0.63695 0.0
O127 O 0.1247 0.33588 0.6559 0.0
Cd128 Cd 0.22753 0.34851 0.64992 0.0
O129 O 0.10062 0.30016 0.61421 0.0
Cd130 Cd 0.1927 0.30817 0.59088 0.0
C131 C 0.18953 0.20205 0.63334 0.0
O132 O 0.28106 0.40219 0.60891 0.0
O133 O 0.30199 0.33675 0.58972 0.0
O134 O 0.17614 0.35472 0.55065 0.0
C135 C 0.32176 0.38936 0.60002 0.0
O136 O 0.21127 0.24445 0.6511 0.0
C137 C 0.16048 0.309 0.53519 0.0
O138 O 0.17578 0.21169 0.60958 0.0
O139 O 0.16119 0.263 0.54543 0.0
C140 C -0.03982 0.15968 0.94069 0.0
O141 O 0.93965 0.12013 0.92179 0.0
Cd142 Cd 0.85723 0.10472 0.8915 0.0
O143 O 0.93848 0.19581 0.94427 0.0
Cd144 Cd 0.858 0.21593 0.92393 0.0
C145 C 0.7515 0.07089 0.94311 0.0
O146 O 0.87275 0.20092 0.87632 0.0
O147 O 0.78436 0.19386 0.88617 0.0
O148 O 0.93827 0.32284 0.928 0.0
C149 C 0.82176 0.19568 0.86805 0.0
O150 O 0.76788 0.05434 0.92157 0.0
C151 C 0.90337 0.34273 0.93695 0.0
O152 O 0.77917 0.127 0.95045 0.0
O153 O 0.84647 0.30323 0.94083 0.0
C154 C 0.61203 0.76405 0.30426 0.0
O155 O 0.58862 0.78041 0.32326 0.0
Cd156 Cd 0.57603 0.86915 0.31723 0.0
O157 O 0.62452 0.7916 0.28155 0.0
Cd158 Cd 0.6163 0.87404 0.25832 0.0
C159 C 0.7244 -0.0224 0.30017 0.0
O160 O 0.52165 0.87072 0.27642 0.0
O161 O 0.59009 0.95472 0.2572 0.0
O162 O 0.56537 0.81166 0.21844 0.0
C163 C 0.53642 0.92375 0.26759 0.0
O164 O 0.68132 0.95659 0.31795 0.0
C165 C 0.61179 0.83927 0.20275 0.0
O166 O 0.71501 0.95408 0.27649 0.0
O167 O 0.66014 0.88437 0.21268 0.0
C168 C 0.5189 0.49648 0.01927 0.0
C169 C 0.49479 0.53688 0.0197 0.0
H170 H 0.49914 0.40336 0.01953 0.0
C171 C 0.4299 0.51246 0.0188 0.0
H172 H 0.5687 0.51381 0.01985 0.0
C173 C 0.39005 0.44912 0.01899 0.0
C174 C 0.41415 0.40872 0.01963 0.0
H175 H 0.4098 0.54223 0.01917 0.0
H176 H 0.34024 0.43179 0.01936 0.0
C177 C 0.47905 0.43314 0.019 0.0
C178 C 0.01856 0.49689 0.35768 0.0
C179 C -0.02246 0.4337 0.35804 0.0
H180 H 0.02821 0.58632 0.35848 0.0
C181 C 0.91302 0.41217 0.35789 0.0
H182 H 0.06846 0.51472 0.35786 0.0
C183 C 0.88995 0.45306 0.35763 0.0
C184 C 0.93097 0.51624 0.35825 0.0
H185 H 0.8803 0.36362 0.35804 0.0
H186 H 0.84005 0.43522 0.35776 0.0
C187 C -0.0045 0.53778 0.35814 0.0
C188 C 0.41378 0.91201 0.69001 0.0
C189 C 0.38781 0.95057 0.69097 0.0
H190 H 0.49717 0.90568 0.69054 0.0
C191 C 0.42759 0.0142 0.69137 0.0
H192 H 0.38423 0.86286 0.68972 0.0
C193 C 0.49227 0.03882 0.69125 0.0
C194 C 0.51815 0.00014 0.69143 0.0
H195 H 0.4087 0.045 0.69196 0.0
H196 H 0.5219 0.08793 0.69195 0.0
C197 C 0.47836 0.93656 0.69058 0.0
C198 C 0.47548 0.53705 0.60219 0.0
C199 C 0.51849 0.51563 0.60197 0.0
H200 H 0.37933 0.51377 0.60238 0.0
C201 C 0.49628 0.45247 0.60229 0.0
H202 H 0.49137 0.58558 0.60207 0.0
C203 C 0.43224 0.41149 0.60185 0.0
C204 C 0.38923 0.4329 0.60181 0.0
H205 H 0.52837 0.43474 0.60206 0.0
H206 H 0.41636 0.36296 0.60148 0.0
C207 C 0.41143 0.49605 0.60247 0.0
C208 C 0.88716 0.43361 0.94108 0.0
C209 C 0.92767 0.40931 0.9406 0.0
H210 H 0.87833 0.51424 0.94005 0.0
C211 C -0.00773 0.4498 0.94129 0.0
H212 H 0.83721 0.40373 0.9405 0.0
C213 C 0.01587 0.51311 0.94141 0.0
C214 C -0.02457 0.53743 0.94038 0.0
H215 H 0.02477 0.43256 0.94105 0.0
H216 H 0.06584 0.54292 0.94111 0.0
C217 C 0.91078 0.49697 0.94074 0.0
C218 C 0.47848 0.03782 0.27007 0.0
C219 C 0.41375 -0.00062 0.26958 0.0
H220 H 0.5681 0.04374 0.2694 0.0
C221 C 0.38953 0.93574 0.26982 0.0
H222 H 0.49833 0.08698 0.26985 0.0
C223 C 0.42935 0.91096 0.27017 0.0
C224 C 0.49407 0.94939 0.26957 0.0
H225 H 0.33971 0.90503 0.2696 0.0
H226 H 0.40949 0.8618 0.27002 0.0
C227 C 0.51829 0.01304 0.26971 0.0
C228 C 0.35412 0.16634 0.16143 0.0
C229 C 0.29702 0.12908 0.17444 0.0
H230 H 0.40012 0.21564 0.12534 0.0
C231 C 0.24138 0.11359 0.16061 0.0
H232 H 0.39774 0.179 0.17164 0.0
C233 C 0.24279 0.13567 0.13442 0.0
C234 C 0.29987 0.17256 0.12133 0.0
H235 H 0.19672 0.08529 0.17022 0.0
H236 H 0.19913 0.1232 0.1243 0.0
C237 C 0.35551 0.18733 0.13499 0.0
C238 C 0.08278 0.25393 0.46663 0.0
C239 C 0.10031 0.30934 0.45323 0.0
H240 H 0.08934 0.21042 0.50296 0.0
C241 C 0.13816 0.36453 0.4669 0.0
H242 H 0.05398 0.21072 0.45649 0.0
C243 C 0.15758 0.36435 0.49357 0.0
C244 C 0.14071 0.30898 0.50686 0.0
H245 H 0.15239 0.40791 0.45705 0.0
H246 H 0.18632 0.40759 0.50369 0.0
C247 C 0.10338 0.25376 0.49311 0.0
C248 C 0.81051 0.19343 0.79164 0.0
C249 C 0.76392 0.13287 0.78676 0.0
H250 H 0.86639 0.26045 0.82159 0.0
C251 C 0.73541 0.0937 0.80888 0.0
H252 H 0.83341 0.22437 0.77488 0.0
C253 C 0.75293 0.11497 0.83549 0.0
C254 C 0.80036 0.17507 0.84024 0.0
H255 H 0.69928 0.0469 0.8056 0.0
H256 H 0.73056 0.08411 0.85234 0.0
C257 C 0.82935 0.21407 0.81822 0.0
C258 C 0.6645 0.81049 0.13483 0.0
C259 C 0.60745 0.77354 0.12166 0.0
H260 H 0.71056 0.86144 0.1706 0.0
C261 C 0.55179 0.75925 0.13516 0.0
H262 H 0.70818 0.82258 0.12484 0.0
C263 C 0.55317 0.78078 0.16153 0.0
C264 C 0.61027 0.81811 0.1746 0.0
H265 H 0.5072 0.7309 0.12545 0.0
H266 H 0.50956 0.76848 0.17162 0.0
C267 C 0.66591 0.83312 0.16093 0.0
C268 C 0.80442 0.69571 0.49363 0.0
C269 C 0.76653 0.64037 0.50711 0.0
H270 H 0.85449 0.73902 0.45725 0.0
C271 C 0.74929 0.58511 0.49356 0.0
H272 H 0.81876 0.73897 0.50368 0.0
C273 C 0.76896 0.58514 0.46693 0.0
C274 C 0.8074 0.64042 0.45354 0.0
H275 H 0.72014 0.54178 0.50347 0.0
H276 H 0.75447 0.54183 0.45689 0.0
C277 C 0.82523 0.69573 0.46718 0.0
C278 C 0.14016 0.75973 0.82483 0.0
C279 C 0.09895 0.77396 0.83848 0.0
H280 H 0.19135 0.76907 0.78828 0.0
C281 C 0.07879 0.8109 0.82548 0.0
H282 H 0.15646 0.7314 0.8344 0.0
C283 C 0.09981 0.83355 0.79939 0.0
C284 C 0.14031 0.81862 0.78557 0.0
H285 H 0.04733 0.82295 0.83559 0.0
H286 H 0.08345 0.86186 0.78985 0.0
C287 C 0.16013 0.78132 0.79848 0.0
C288 C 0.20016 0.91232 -0.01134 0.0
C289 C 0.20237 0.92463 0.96073 0.0
H290 H 0.21668 0.94926 0.02895 0.0
C291 C 0.2368 -0.01424 0.95199 0.0
H292 H 0.1745 0.86589 -0.00389 0.0
C293 C 0.2611 0.03376 0.97084 0.0
C294 C 0.25112 0.02145 -0.00123 0.0
H295 H 0.24027 -0.00319 0.93055 0.0
H296 H 0.28203 0.08019 0.96338 0.0
C297 C 0.22419 0.96031 0.0075 0.0
C298 C 0.22438 0.28581 0.29212 0.0
C299 C 0.20984 0.29453 0.31879 0.0
H300 H 0.26356 0.24453 0.26653 0.0
C301 C 0.23303 0.27549 0.34063 0.0
H302 H 0.20743 0.30006 0.27484 0.0
C303 C 0.26577 0.24412 0.33586 0.0
C304 C 0.27527 0.23048 0.30917 0.0
H305 H 0.22312 0.28201 0.36144 0.0
H306 H 0.27986 0.22705 0.35312 0.0
C307 C 0.25641 0.25377 0.28735 0.0
C308 C 0.9314 0.24772 0.67398 0.0
C309 C 0.88879 0.22506 0.65225 0.0
H310 H 0.02706 0.29459 0.68619 0.0
C311 C 0.91135 0.23992 0.62553 0.0
H312 H 0.91542 0.23756 0.69483 0.0
C313 C -0.02458 0.27216 0.62058 0.0
C314 C 0.01816 0.2909 0.64226 0.0
H315 H 0.87976 0.22335 0.60835 0.0
H316 H -0.00852 0.27974 0.5997 0.0
C317 C -0.00457 0.2807 0.66904 0.0
C318 C 0.68497 -0.01464 0.0084 0.0
C319 C 0.65906 0.92446 -0.00063 0.0
H320 H 0.73374 0.08002 -0.00242 0.0
C321 C 0.65081 0.91268 0.97133 0.0
H322 H 0.69121 -0.00402 0.02992 0.0
C323 C 0.67543 0.96105 0.95275 0.0
C324 C 0.70843 0.02208 0.96187 0.0
H325 H 0.63082 0.86643 0.96366 0.0
H326 H 0.67299 0.95045 0.93128 0.0
C327 C 0.70928 0.03371 -0.01017 0.0
C328 C 0.65184 0.6955 0.28759 0.0
C329 C 0.63315 0.71906 0.30938 0.0
H330 H 0.70074 0.64908 0.27511 0.0
C331 C 0.64291 0.7058 0.33609 0.0
H332 H 0.64449 0.70444 0.26676 0.0
C333 C 0.67571 0.67452 0.34088 0.0
C334 C 0.69871 0.6552 0.31906 0.0
H335 H 0.62895 0.72309 0.35334 0.0
H336 H 0.68581 0.66829 0.3617 0.0
C337 C 0.68393 0.66355 0.29238 0.0
C338 C -0.00416 0.70384 0.6242 0.0
C339 C 0.01904 0.71745 0.6509 0.0
H340 H 0.91511 0.66581 0.59865 0.0
C341 C -0.02306 0.69374 0.67272 0.0
H342 H 0.02699 0.72123 0.60694 0.0
C343 C 0.91277 0.66143 0.66797 0.0
C344 C 0.88942 0.65291 0.64131 0.0
H345 H -0.0066 0.70292 0.69354 0.0
H346 H 0.88157 0.64696 0.68526 0.0
C347 C 0.93164 0.67221 0.61946 0.0
C348 C 0.0533 0.21488 0.97097 0.0
C349 C 0.00569 0.15995 0.96016 0.0
H350 H 0.13249 0.25693 -0.00233 0.0
C351 C 0.0001 0.10434 0.96882 0.0
H352 H 0.05832 0.25827 0.9646 0.0
C353 C 0.04077 0.1035 -0.0117 0.0
C354 C 0.08901 0.15832 -0.00117 0.0
H355 H -0.03664 0.06137 0.96096 0.0
H356 H 0.0352 0.05993 -0.00523 0.0
C357 C 0.0955 0.21411 -0.01018 0.0
C358 C 0.82296 0.07025 0.28595 0.0
C359 C 0.78446 0.0322 0.30675 0.0
H360 H 0.90431 0.15447 0.27582 0.0
C361 C 0.80191 0.0489 0.33398 0.0
H362 H 0.81064 0.05866 0.26477 0.0
C363 C 0.85592 0.10332 0.3403 0.0
C364 C 0.89298 0.14269 0.31952 0.0
H365 H 0.77332 0.02032 0.35045 0.0
H366 H 0.86745 0.11548 0.36149 0.0
C367 C 0.87642 0.12524 0.29227 0.0
C368 C 0.72882 0.8457 0.6214 0.0
C369 C 0.72627 0.80573 0.64191 0.0
H370 H 0.72934 0.92888 0.61182 0.0
C371 C 0.72707 0.82239 0.66928 0.0
H372 H 0.72826 0.83417 0.60013 0.0
C373 C 0.72865 0.87715 0.67598 0.0
C374 C 0.7283 0.91573 0.65544 0.0
H375 H 0.72556 0.79268 0.68554 0.0
H376 H 0.72774 0.8881 0.69723 0.0
C377 C 0.72926 0.89987 0.6281 0.0
C378 C 0.81312 0.73386 -0.01014 0.0
C379 C 0.82031 0.78915 5e-05 0.0
H380 H 0.84967 0.69098 0.96344 0.0
C381 C 0.86943 0.84451 -0.00949 0.0
H382 H 0.77544 0.69064 -0.00309 0.0
C383 C 0.9102 0.84472 0.97083 0.0
C384 C 0.90379 0.78956 0.96093 0.0
H385 H 0.87556 0.88775 -0.00212 0.0
H386 H 0.94755 0.8881 0.96373 0.0
C387 C 0.85536 0.73406 0.97078 0.0
C388 C 0.05275 0.84648 0.34066 0.0
C389 C 0.01539 0.80693 0.31992 0.0
H390 H 0.13554 0.92955 0.3507 0.0
C391 C 0.0316 0.82409 0.29266 0.0
H392 H 0.0415 0.83453 0.36186 0.0
C393 C 0.08498 0.879 0.28626 0.0
C394 C 0.12379 0.91724 0.30702 0.0
H395 H 0.00347 0.79472 0.27623 0.0
H396 H 0.09702 0.89036 0.26507 0.0
C397 C 0.1067 0.90082 0.33427 0.0
C398 C 0.17936 0.04778 0.62577 0.0
C399 C 0.17982 0.03129 0.65302 0.0
H400 H 0.1811 0.11429 0.59817 0.0
C401 C 0.17951 0.06958 0.67377 0.0
H402 H 0.1793 0.01902 0.60934 0.0
C403 C 0.18152 0.12462 0.66738 0.0
C404 C 0.18274 0.14187 0.64011 0.0
H405 H 0.18006 0.05816 0.69497 0.0
H406 H 0.18296 0.15403 0.6838 0.0
C407 C 0.18023 0.10226 0.61937 0.0
loop_
_geom_bond_atom_site_label_1
_geom_bond_atom_site_label_2
_geom_bond_distance
_geom_bond_site_symmetry_2
_ccdc_geom_bond_type
C0 O1 1.306 . S
C0 O3 1.160 . S
O1 C0 1.306 . S
O1 Cd2 2.228 . S
Cd2 O1 2.228 . S
Cd2 O6 2.273 . S
Cd2 O10 2.277 . S
O3 C0 1.160 . S
O3 Cd4 2.203 . S
Cd4 O3 2.203 . S
Cd4 O6 2.411 . S
Cd4 O7 2.333 . S
Cd4 O8 2.352 . S
Cd4 O12 2.277 . S
Cd4 O13 2.356 . S
C5 O10 1.209 . S
C5 O12 1.226 . S
O6 Cd2 2.273 . S
O6 Cd4 2.411 . S
O6 C9 1.320 . S
O7 Cd4 2.333 . S
O7 C9 1.214 . S
O8 Cd4 2.352 . S
O8 C11 1.258 . S
C9 O6 1.320 . S
C9 O7 1.214 . S
O10 Cd2 2.277 . S
O10 C5 1.209 . S
C11 O8 1.258 . S
C11 O13 1.282 . S
O12 Cd4 2.277 . S
O12 C5 1.226 . S
O13 Cd4 2.356 . S
O13 C11 1.282 . S
C14 O15 1.306 . S
C14 O17 1.160 . S
O15 C14 1.306 . S
O15 Cd16 2.228 . S
Cd16 O15 2.228 . S
Cd16 O20 2.273 . S
Cd16 O24 2.277 . S
O17 C14 1.160 . S
O17 Cd18 2.203 . S
Cd18 O17 2.203 . S
Cd18 O20 2.411 . S
Cd18 O21 2.333 . S
Cd18 O22 2.352 . S
Cd18 O26 2.277 1_455 S
Cd18 O27 2.356 . S
C19 O24 1.209 1_655 S
C19 O26 1.226 . S
O20 Cd16 2.273 . S
O20 Cd18 2.411 . S
O20 C23 1.320 . S
O21 Cd18 2.333 . S
O21 C23 1.214 . S
O22 Cd18 2.352 . S
O22 C25 1.258 . S
C23 O20 1.320 . S
C23 O21 1.214 . S
O24 Cd16 2.277 . S
O24 C19 1.209 1_455 S
C25 O22 1.258 . S
C25 O27 1.282 . S
O26 Cd18 2.277 1_655 S
O26 C19 1.226 . S
O27 Cd18 2.356 . S
O27 C25 1.282 . S
C28 O29 1.306 . S
C28 O31 1.160 . S
O29 C28 1.306 . S
O29 Cd30 2.228 . S
Cd30 O29 2.228 . S
Cd30 O34 2.273 . S
Cd30 O38 2.277 . S
O31 C28 1.160 . S
O31 Cd32 2.203 . S
Cd32 O31 2.203 . S
Cd32 O34 2.411 . S
Cd32 O35 2.333 . S
Cd32 O36 2.352 . S
Cd32 O40 2.277 1_545 S
Cd32 O41 2.356 . S
C33 O38 1.209 1_565 S
C33 O40 1.226 . S
O34 Cd30 2.273 . S
O34 Cd32 2.411 . S
O34 C37 1.320 . S
O35 Cd32 2.333 . S
O35 C37 1.214 . S
O36 Cd32 2.352 . S
O36 C39 1.258 . S
C37 O34 1.320 . S
C37 O35 1.214 . S
O38 Cd30 2.277 . S
O38 C33 1.209 1_545 S
C39 O36 1.258 . S
C39 O41 1.282 . S
O40 Cd32 2.277 1_565 S
O40 C33 1.226 . S
O41 Cd32 2.356 . S
O41 C39 1.282 . S
C42 O43 1.306 . S
C42 O45 1.160 . S
O43 C42 1.306 . S
O43 Cd44 2.228 . S
Cd44 O43 2.228 . S
Cd44 O48 2.273 . S
Cd44 O52 2.277 . S
O45 C42 1.160 . S
O45 Cd46 2.203 . S
Cd46 O45 2.203 . S
Cd46 O48 2.411 . S
Cd46 O49 2.333 . S
Cd46 O50 2.352 . S
Cd46 O54 2.277 . S
Cd46 O55 2.356 . S
C47 O52 1.209 . S
C47 O54 1.226 . S
O48 Cd44 2.273 . S
O48 Cd46 2.411 . S
O48 C51 1.320 . S
O49 Cd46 2.333 . S
O49 C51 1.214 . S
O50 Cd46 2.352 . S
O50 C53 1.258 . S
C51 O48 1.320 . S
C51 O49 1.214 . S
O52 Cd44 2.277 . S
O52 C47 1.209 . S
C53 O50 1.258 . S
C53 O55 1.282 . S
O54 Cd46 2.277 . S
O54 C47 1.226 . S
O55 Cd46 2.356 . S
O55 C53 1.282 . S
C56 O57 1.306 . S
C56 O59 1.160 . S
O57 C56 1.306 . S
O57 Cd58 2.228 . S
Cd58 O57 2.228 . S
Cd58 O62 2.273 . S
Cd58 O66 2.277 . S
O59 C56 1.160 . S
O59 Cd60 2.203 . S
Cd60 O59 2.203 . S
Cd60 O62 2.411 . S
Cd60 O63 2.333 . S
Cd60 O64 2.352 . S
Cd60 O68 2.277 1_655 S
Cd60 O69 2.356 . S
C61 O66 1.209 1_455 S
C61 O68 1.226 . S
O62 Cd58 2.273 . S
O62 Cd60 2.411 . S
O62 C65 1.320 . S
O63 Cd60 2.333 . S
O63 C65 1.214 . S
O64 Cd60 2.352 . S
O64 C67 1.258 . S
C65 O62 1.320 . S
C65 O63 1.214 . S
O66 Cd58 2.277 . S
O66 C61 1.209 1_655 S
C67 O64 1.258 . S
C67 O69 1.282 . S
O68 Cd60 2.277 1_455 S
O68 C61 1.226 . S
O69 Cd60 2.356 . S
O69 C67 1.282 . S
C70 O71 1.306 . S
C70 O73 1.160 . S
O71 C70 1.306 . S
O71 Cd72 2.228 . S
Cd72 O71 2.228 . S
Cd72 O76 2.273 . S
Cd72 O80 2.277 . S
O73 C70 1.160 . S
O73 Cd74 2.203 . S
Cd74 O73 2.203 . S
Cd74 O76 2.411 . S
Cd74 O77 2.333 . S
Cd74 O78 2.352 . S
Cd74 O82 2.277 1_565 S
Cd74 O83 2.356 . S
C75 O80 1.209 1_545 S
C75 O82 1.226 . S
O76 Cd72 2.273 . S
O76 Cd74 2.411 . S
O76 C79 1.320 . S
O77 Cd74 2.333 . S
O77 C79 1.214 . S
O78 Cd74 2.352 . S
O78 C81 1.258 . S
C79 O76 1.320 . S
C79 O77 1.214 . S
O80 Cd72 2.277 . S
O80 C75 1.209 1_565 S
C81 O78 1.258 . S
C81 O83 1.282 . S
O82 Cd74 2.277 1_545 S
O82 C75 1.226 . S
O83 Cd74 2.356 . S
O83 C81 1.282 . S
C84 O85 1.306 . S
C84 O87 1.160 . S
O85 C84 1.306 . S
O85 Cd86 2.228 . S
Cd86 O85 2.228 . S
Cd86 O90 2.273 . S
Cd86 O94 2.277 . S
O87 C84 1.160 . S
O87 Cd88 2.203 . S
Cd88 O87 2.203 . S
Cd88 O90 2.411 . S
Cd88 O91 2.333 . S
Cd88 O92 2.352 . S
Cd88 O96 2.277 . S
Cd88 O97 2.356 . S
C89 O94 1.209 . S
C89 O96 1.226 . S
O90 Cd86 2.273 . S
O90 Cd88 2.411 . S
O90 C93 1.320 . S
O91 Cd88 2.333 . S
O91 C93 1.214 . S
O92 Cd88 2.352 . S
O92 C95 1.258 . S
C93 O90 1.320 . S
C93 O91 1.214 . S
O94 Cd86 2.277 . S
O94 C89 1.209 . S
C95 O92 1.258 . S
C95 O97 1.282 . S
O96 Cd88 2.277 . S
O96 C89 1.226 . S
O97 Cd88 2.356 . S
O97 C95 1.282 . S
C98 O99 1.307 1_655 S
C98 O101 1.160 1_655 S
O99 C98 1.307 1_455 S
O99 Cd100 2.230 . S
Cd100 O99 2.230 . S
Cd100 O104 2.273 . S
Cd100 O108 2.277 . S
O101 C98 1.160 1_455 S
O101 Cd102 2.203 . S
Cd102 O101 2.203 . S
Cd102 O104 2.411 . S
Cd102 O105 2.333 . S
Cd102 O106 2.352 . S
Cd102 O110 2.277 . S
Cd102 O111 2.356 . S
C103 O108 1.209 . S
C103 O110 1.226 . S
O104 Cd100 2.273 . S
O104 Cd102 2.411 . S
O104 C107 1.320 . S
O105 Cd102 2.333 . S
O105 C107 1.214 . S
O106 Cd102 2.352 . S
O106 C109 1.258 . S
C107 O104 1.320 . S
C107 O105 1.214 . S
O108 Cd100 2.277 . S
O108 C103 1.209 . S
C109 O106 1.258 . S
C109 O111 1.282 . S
O110 Cd102 2.277 . S
O110 C103 1.226 . S
O111 Cd102 2.356 . S
O111 C109 1.282 . S
C112 O113 1.306 . S
C112 O115 1.160 . S
O113 C112 1.306 . S
O113 Cd114 2.228 . S
Cd114 O113 2.228 . S
Cd114 O118 2.273 . S
Cd114 O122 2.277 . S
O115 C112 1.160 . S
O115 Cd116 2.203 . S
Cd116 O115 2.203 . S
Cd116 O118 2.411 . S
Cd116 O119 2.333 . S
Cd116 O120 2.352 . S
Cd116 O124 2.277 1_545 S
Cd116 O125 2.356 . S
C117 O122 1.209 1_565 S
C117 O124 1.226 . S
O118 Cd114 2.273 . S
O118 Cd116 2.411 . S
O118 C121 1.320 . S
O119 Cd116 2.333 . S
O119 C121 1.214 . S
O120 Cd116 2.352 . S
O120 C123 1.258 . S
C121 O118 1.320 . S
C121 O119 1.214 . S
O122 Cd114 2.277 . S
O122 C117 1.209 1_545 S
C123 O120 1.258 . S
C123 O125 1.282 . S
O124 Cd116 2.277 1_565 S
O124 C117 1.226 . S
O125 Cd116 2.356 . S
O125 C123 1.282 . S
C126 O127 1.306 . S
C126 O129 1.160 . S
O127 C126 1.306 . S
O127 Cd128 2.228 . S
Cd128 O127 2.228 . S
Cd128 O132 2.273 . S
Cd128 O136 2.277 . S
O129 C126 1.160 . S
O129 Cd130 2.203 . S
Cd130 O129 2.203 . S
Cd130 O132 2.411 . S
Cd130 O133 2.333 . S
Cd130 O134 2.352 . S
Cd130 O138 2.277 . S
Cd130 O139 2.356 . S
C131 O136 1.209 . S
C131 O138 1.226 . S
O132 Cd128 2.273 . S
O132 Cd130 2.411 . S
O132 C135 1.320 . S
O133 Cd130 2.333 . S
O133 C135 1.214 . S
O134 Cd130 2.352 . S
O134 C137 1.258 . S
C135 O132 1.320 . S
C135 O133 1.214 . S
O136 Cd128 2.277 . S
O136 C131 1.209 . S
C137 O134 1.258 . S
C137 O139 1.282 . S
O138 Cd130 2.277 . S
O138 C131 1.226 . S
O139 Cd130 2.356 . S
O139 C137 1.282 . S
C140 O141 1.307 1_455 S
C140 O143 1.160 1_455 S
O141 C140 1.307 1_655 S
O141 Cd142 2.230 . S
Cd142 O141 2.230 . S
Cd142 O146 2.273 . S
Cd142 O150 2.277 . S
O143 C140 1.160 1_655 S
O143 Cd144 2.203 . S
Cd144 O143 2.203 . S
Cd144 O146 2.411 . S
Cd144 O147 2.333 . S
Cd144 O148 2.352 . S
Cd144 O152 2.277 . S
Cd144 O153 2.356 . S
C145 O150 1.209 . S
C145 O152 1.226 . S
O146 Cd142 2.273 . S
O146 Cd144 2.411 . S
O146 C149 1.320 . S
O147 Cd144 2.333 . S
O147 C149 1.214 . S
O148 Cd144 2.352 . S
O148 C151 1.258 . S
C149 O146 1.320 . S
C149 O147 1.214 . S
O150 Cd142 2.277 . S
O150 C145 1.209 . S
C151 O148 1.258 . S
C151 O153 1.282 . S
O152 Cd144 2.277 . S
O152 C145 1.226 . S
O153 Cd144 2.356 . S
O153 C151 1.282 . S
C154 O155 1.306 . S
C154 O157 1.160 . S
O155 C154 1.306 . S
O155 Cd156 2.228 . S
Cd156 O155 2.228 . S
Cd156 O160 2.273 . S
Cd156 O164 2.277 . S
O157 C154 1.160 . S
O157 Cd158 2.203 . S
Cd158 O157 2.203 . S
Cd158 O160 2.411 . S
Cd158 O161 2.333 . S
Cd158 O162 2.352 . S
Cd158 O166 2.277 1_565 S
Cd158 O167 2.356 . S
C159 O164 1.209 1_545 S
C159 O166 1.226 . S
O160 Cd156 2.273 . S
O160 Cd158 2.411 . S
O160 C163 1.320 . S
O161 Cd158 2.333 . S
O161 C163 1.214 . S
O162 Cd158 2.352 . S
O162 C165 1.258 . S
C163 O160 1.320 . S
C163 O161 1.214 . S
O164 Cd156 2.277 . S
O164 C159 1.209 1_565 S
C165 O162 1.258 . S
C165 O167 1.282 . S
O166 Cd158 2.277 1_545 S
O166 C159 1.226 . S
O167 Cd158 2.356 . S
O167 C165 1.282 . S
C168 C169 1.387 . S
C168 H172 0.923 1_554 S
C168 C177 1.390 . S
C169 C168 1.387 . S
C169 C171 1.387 . S
H170 C177 0.923 1_556 S
C171 C169 1.387 . S
C171 C173 1.390 . S
C171 H175 0.950 . S
H172 C168 0.923 1_556 S
C173 C171 1.390 . S
C173 C174 1.387 . S
C173 H176 0.950 . S
C174 C173 1.387 . S
C174 C177 1.387 . S
H175 C171 0.950 . S
H176 C173 0.950 . S
C177 C168 1.390 . S
C177 H170 0.923 1_554 S
C177 C174 1.387 . S
C178 C179 1.387 . S
C178 H182 0.950 . S
C178 C187 1.390 1_455 S
C179 C178 1.387 . S
C179 C181 1.387 . S
H180 C187 0.950 . S
C181 C179 1.387 . S
C181 C183 1.390 1_455 S
C181 H185 0.950 . S
H182 C178 0.950 . S
C183 C181 1.390 1_655 S
C183 C184 1.387 . S
C183 H186 0.950 . S
C184 C183 1.387 . S
C184 C187 1.387 . S
H185 C181 0.950 . S
H186 C183 0.950 . S
C187 C178 1.390 1_655 S
C187 H180 0.950 . S
C187 C184 1.387 . S
C188 C189 1.387 . S
C188 H192 0.950 . S
C188 C197 1.390 1_565 S
C189 C188 1.387 . S
C189 C191 1.387 . S
H190 C197 0.950 . S
C191 C189 1.387 . S
C191 C193 1.390 1_565 S
C191 H195 0.950 . S
H192 C188 0.950 . S
C193 C191 1.390 1_545 S
C193 C194 1.387 . S
C193 H196 0.950 . S
C194 C193 1.387 . S
C194 C197 1.387 . S
H195 C191 0.950 . S
H196 C193 0.950 . S
C197 C188 1.390 1_545 S
C197 H190 0.950 . S
C197 C194 1.387 . S
C198 C199 1.387 . S
C198 H202 0.950 . S
C198 C207 1.390 . S
C199 C198 1.387 . S
C199 C201 1.387 . S
H200 C207 0.950 . S
C201 C199 1.387 . S
C201 C203 1.390 . S
C201 H205 0.950 . S
H202 C198 0.950 . S
C203 C201 1.390 . S
C203 C204 1.387 . S
C203 H206 0.950 . S
C204 C203 1.387 . S
C204 C207 1.387 . S
H205 C201 0.950 . S
H206 C203 0.950 . S
C207 C198 1.390 . S
C207 H200 0.950 . S
C207 C204 1.387 . S
C208 C209 1.387 . S
C208 H212 0.950 . S
C208 C217 1.390 1_655 S
C209 C208 1.387 . S
C209 C211 1.387 . S
H210 C217 0.950 . S
C211 C209 1.387 . S
C211 C213 1.390 1_655 S
C211 H215 0.923 1_556 S
H212 C208 0.950 . S
C213 C211 1.390 1_455 S
C213 C214 1.387 . S
C213 H216 0.923 1_556 S
C214 C213 1.387 . S
C214 C217 1.387 . S
H215 C211 0.923 1_554 S
H216 C213 0.923 1_554 S
C217 C208 1.390 1_455 S
C217 H210 0.950 . S
C217 C214 1.387 . S
C218 C219 1.387 . S
C218 H222 0.950 . S
C218 C227 1.390 1_545 S
C219 C218 1.387 . S
C219 C221 1.387 . S
H220 C227 0.950 . S
C221 C219 1.387 . S
C221 C223 1.390 1_545 S
C221 H225 0.950 . S
H222 C218 0.950 . S
C223 C221 1.390 1_565 S
C223 C224 1.387 . S
C223 H226 0.950 . S
C224 C223 1.387 . S
C224 C227 1.387 . S
H225 C221 0.950 . S
H226 C223 0.950 . S
C227 C218 1.390 1_565 S
C227 H220 0.950 . S
C227 C224 1.387 . S
C228 C229 1.387 . S
C228 H232 0.950 . S
C228 C237 1.390 . S
C229 C228 1.387 . S
C229 C231 1.387 . S
H230 C237 0.950 . S
C231 C229 1.387 . S
C231 C233 1.390 . S
C231 H235 0.950 . S
H232 C228 0.950 . S
C233 C231 1.390 . S
C233 C234 1.387 . S
C233 H236 0.950 . S
C234 C233 1.387 . S
C234 C237 1.387 . S
H235 C231 0.950 . S
H236 C233 0.950 . S
C237 C228 1.390 . S
C237 H230 0.950 . S
C237 C234 1.387 . S
C238 C239 1.387 . S
C238 H242 0.950 . S
C238 C247 1.390 . S
C239 C238 1.387 . S
C239 C241 1.387 . S
H240 C247 0.950 . S
C241 C239 1.387 . S
C241 C243 1.390 . S
C241 H245 0.950 . S
H242 C238 0.950 . S
C243 C241 1.390 . S
C243 C244 1.387 . S
C243 H246 0.950 . S
C244 C243 1.387 . S
C244 C247 1.387 . S
H245 C241 0.950 . S
H246 C243 0.950 . S
C247 C238 1.390 . S
C247 H240 0.950 . S
C247 C244 1.387 . S
C248 C249 1.387 . S
C248 H252 0.950 . S
C248 C257 1.390 . S
C249 C248 1.387 . S
C249 C251 1.387 . S
H250 C257 0.950 . S
C251 C249 1.387 . S
C251 C253 1.390 . S
C251 H255 0.950 . S
H252 C248 0.950 . S
C253 C251 1.390 . S
C253 C254 1.387 . S
C253 H256 0.950 . S
C254 C253 1.387 . S
C254 C257 1.387 . S
H255 C251 0.950 . S
H256 C253 0.950 . S
C257 C248 1.390 . S
C257 H250 0.950 . S
C257 C254 1.387 . S
C258 C259 1.387 . S
C258 H262 0.950 . S
C258 C267 1.390 . S
C259 C258 1.387 . S
C259 C261 1.387 . S
H260 C267 0.950 . S
C261 C259 1.387 . S
C261 C263 1.390 . S
C261 H265 0.950 . S
H262 C258 0.950 . S
C263 C261 1.390 . S
C263 C264 1.387 . S
C263 H266 0.950 . S
C264 C263 1.387 . S
C264 C267 1.387 . S
H265 C261 0.950 . S
H266 C263 0.950 . S
C267 C258 1.390 . S
C267 H260 0.950 . S
C267 C264 1.387 . S
C268 C269 1.387 . S
C268 H272 0.950 . S
C268 C277 1.390 . S
C269 C268 1.387 . S
C269 C271 1.387 . S
H270 C277 0.950 . S
C271 C269 1.387 . S
C271 C273 1.390 . S
C271 H275 0.950 . S
H272 C268 0.950 . S
C273 C271 1.390 . S
C273 C274 1.387 . S
C273 H276 0.950 . S
C274 C273 1.387 . S
C274 C277 1.387 . S
H275 C271 0.950 . S
H276 C273 0.950 . S
C277 C268 1.390 . S
C277 H270 0.950 . S
C277 C274 1.387 . S
C278 C279 1.387 . S
C278 H282 0.950 . S
C278 C287 1.390 . S
C279 C278 1.387 . S
C279 C281 1.387 . S
H280 C287 0.950 . S
C281 C279 1.387 . S
C281 C283 1.390 . S
C281 H285 0.950 . S
H282 C278 0.950 . S
C283 C281 1.390 . S
C283 C284 1.387 . S
C283 H286 0.950 . S
C284 C283 1.387 . S
C284 C287 1.387 . S
H285 C281 0.950 . S
H286 C283 0.950 . S
C287 C278 1.390 . S
C287 H280 0.950 . S
C287 C284 1.387 . S
C288 C289 1.387 . S
C288 H292 0.950 . S
C288 C297 1.390 1_566 S
C289 C288 1.387 . S
C289 C291 1.387 . S
H290 C297 0.950 . S
C291 C289 1.387 . S
C291 C293 1.390 1_566 S
C291 H295 0.950 . S
H292 C288 0.950 . S
C293 C291 1.390 1_544 S
C293 C294 1.387 . S
C293 H296 0.950 . S
C294 C293 1.387 . S
C294 C297 1.387 . S
H295 C291 0.950 . S
H296 C293 0.950 . S
C297 C288 1.390 1_544 S
C297 H290 0.950 . S
C297 C294 1.387 . S
C298 C299 1.387 . S
C298 H302 0.950 . S
C298 C307 1.390 . S
C299 C298 1.387 . S
C299 C301 1.387 . S
H300 C307 0.950 . S
C301 C299 1.387 . S
C301 C303 1.390 . S
C301 H305 0.950 . S
H302 C298 0.950 . S
C303 C301 1.390 . S
C303 C304 1.387 . S
C303 H306 0.950 . S
C304 C303 1.387 . S
C304 C307 1.387 . S
H305 C301 0.950 . S
H306 C303 0.950 . S
C307 C298 1.390 . S
C307 H300 0.950 . S
C307 C304 1.387 . S
C308 C309 1.387 . S
C308 H312 0.950 . S
C308 C317 1.390 1_655 S
C309 C308 1.387 . S
C309 C311 1.387 . S
H310 C317 0.950 . S
C311 C309 1.387 . S
C311 C313 1.390 1_655 S
C311 H315 0.950 . S
H312 C308 0.950 . S
C313 C311 1.390 1_455 S
C313 C314 1.387 . S
C313 H316 0.950 . S
C314 C313 1.387 . S
C314 C317 1.387 . S
H315 C311 0.950 . S
H316 C313 0.950 . S
C317 C308 1.390 1_455 S
C317 H310 0.950 . S
C317 C314 1.387 . S
C318 C319 1.387 . S
C318 H322 0.950 . S
C318 C327 1.390 1_564 S
C319 C318 1.387 . S
C319 C321 1.387 . S
H320 C327 0.950 . S
C321 C319 1.387 . S
C321 C323 1.390 1_564 S
C321 H325 0.950 . S
H322 C318 0.950 . S
C323 C321 1.390 1_546 S
C323 C324 1.387 . S
C323 H326 0.950 . S
C324 C323 1.387 . S
C324 C327 1.387 . S
H325 C321 0.950 . S
H326 C323 0.950 . S
C327 C318 1.390 1_546 S
C327 H320 0.950 . S
C327 C324 1.387 . S
C328 C329 1.387 . S
C328 H332 0.950 . S
C328 C337 1.390 . S
C329 C328 1.387 . S
C329 C331 1.387 . S
H330 C337 0.950 . S
C331 C329 1.387 . S
C331 C333 1.390 . S
C331 H335 0.950 . S
H332 C328 0.950 . S
C333 C331 1.390 . S
C333 C334 1.387 . S
C333 H336 0.950 . S
C334 C333 1.387 . S
C334 C337 1.387 . S
H335 C331 0.950 . S
H336 C333 0.950 . S
C337 C328 1.390 . S
C337 H330 0.950 . S
C337 C334 1.387 . S
C338 C339 1.387 . S
C338 H342 0.950 . S
C338 C347 1.390 1_455 S
C339 C338 1.387 . S
C339 C341 1.387 . S
H340 C347 0.950 . S
C341 C339 1.387 . S
C341 C343 1.390 1_455 S
C341 H345 0.950 . S
H342 C338 0.950 . S
C343 C341 1.390 1_655 S
C343 C344 1.387 . S
C343 H346 0.950 . S
C344 C343 1.387 . S
C344 C347 1.387 . S
H345 C341 0.950 . S
H346 C343 0.950 . S
C347 C338 1.390 1_655 S
C347 H340 0.950 . S
C347 C344 1.387 . S
C348 C349 1.387 . S
C348 H352 0.950 . S
C348 C357 1.390 1_556 S
C349 C348 1.387 . S
C349 C351 1.387 . S
H350 C357 0.950 . S
C351 C349 1.387 . S
C351 C353 1.390 1_556 S
C351 H355 0.950 . S
H352 C348 0.950 . S
C353 C351 1.390 1_554 S
C353 C354 1.387 . S
C353 H356 0.950 . S
C354 C353 1.387 . S
C354 C357 1.387 . S
H355 C351 0.950 . S
H356 C353 0.950 . S
C357 C348 1.390 1_554 S
C357 H350 0.950 . S
C357 C354 1.387 . S
C358 C359 1.387 . S
C358 H362 0.950 . S
C358 C367 1.390 . S
C359 C358 1.387 . S
C359 C361 1.387 . S
H360 C367 0.950 . S
C361 C359 1.387 . S
C361 C363 1.390 . S
C361 H365 0.950 . S
H362 C358 0.950 . S
C363 C361 1.390 . S
C363 C364 1.387 . S
C363 H366 0.950 . S
C364 C363 1.387 . S
C364 C367 1.387 . S
H365 C361 0.950 . S
H366 C363 0.950 . S
C367 C358 1.390 . S
C367 H360 0.950 . S
C367 C364 1.387 . S
C368 C369 1.387 . S
C368 H372 0.950 . S
C368 C377 1.390 . S
C369 C368 1.387 . S
C369 C371 1.387 . S
H370 C377 0.950 . S
C371 C369 1.387 . S
C371 C373 1.390 . S
C371 H375 0.950 . S
H372 C368 0.950 . S
C373 C371 1.390 . S
C373 C374 1.387 . S
C373 H376 0.950 . S
C374 C373 1.387 . S
C374 C377 1.387 . S
H375 C371 0.950 . S
H376 C373 0.950 . S
C377 C368 1.390 . S
C377 H370 0.950 . S
C377 C374 1.387 . S
C378 C379 1.387 . S
C378 H382 0.950 . S
C378 C387 1.390 1_554 S
C379 C378 1.387 . S
C379 C381 1.387 . S
H380 C387 0.950 . S
C381 C379 1.387 . S
C381 C383 1.390 1_554 S
C381 H385 0.950 . S
H382 C378 0.950 . S
C383 C381 1.390 1_556 S
C383 C384 1.387 . S
C383 H386 0.950 . S
C384 C383 1.387 . S
C384 C387 1.387 . S
H385 C381 0.950 . S
H386 C383 0.950 . S
C387 C378 1.390 1_556 S
C387 H380 0.950 . S
C387 C384 1.387 . S
C388 C389 1.387 . S
C388 H392 0.950 . S
C388 C397 1.390 . S
C389 C388 1.387 . S
C389 C391 1.387 . S
H390 C397 0.950 . S
C391 C389 1.387 . S
C391 C393 1.390 . S
C391 H395 0.950 . S
H392 C388 0.950 . S
C393 C391 1.390 . S
C393 C394 1.387 . S
C393 H396 0.950 . S
C394 C393 1.387 . S
C394 C397 1.387 . S
H395 C391 0.950 . S
H396 C393 0.950 . S
C397 C388 1.390 . S
C397 H390 0.950 . S
C397 C394 1.387 . S
C398 C399 1.387 . S
C398 H402 0.950 . S
C398 C407 1.390 . S
C399 C398 1.387 . S
C399 C401 1.387 . S
H400 C407 0.950 . S
C401 C399 1.387 . S
C401 C403 1.390 . S
C401 H405 0.950 . S
H402 C398 0.950 . S
C403 C401 1.390 . S
C403 C404 1.387 . S
C403 H406 0.950 . S
C404 C403 1.387 . S
C404 C407 1.387 . S
H405 C401 0.950 . S
H406 C403 0.950 . S
C407 C398 1.390 . S
C407 H400 0.950 . S
C407 C404 1.387 . S
C169 C53 1.442 . S
C174 C11 1.442 . S
C179 C23 1.498 . S
C184 C65 1.498 . S
C189 C79 1.418 . S
C194 C37 1.418 . S
C199 C93 1.499 . S
C204 C135 1.499 . S
C209 C151 1.439 . S
C214 C109 1.439 . S
C219 C121 1.414 . S
C224 C163 1.414 . S
C229 C123 1.595 . S
C234 C9 1.604 . S
C239 C25 1.618 . S
C244 C137 1.618 . S
C249 C39 1.594 . S
C254 C149 1.604 . S
C259 C51 1.604 . S
C264 C165 1.595 . S
C269 C95 1.618 . S
C274 C67 1.619 . S
C279 C107 1.605 . S
C284 C81 1.595 . S
C289 C103 1.310 . S
C294 C5 1.310 . S
C299 C14 1.446 . S
C304 C112 1.457 . S
C309 C28 1.458 . S
C314 C126 1.445 . S
C319 C47 1.310 . S
C324 C145 1.310 . S
C329 C154 1.458 . S
C334 C56 1.445 . S
C339 C70 1.456 . S
C344 C84 1.447 . S
C349 C140 1.364 . S
C354 C0 1.364 . S
C359 C159 1.500 . S
C364 C19 1.498 . S
C369 C89 1.497 . S
C374 C33 1.501 . S
C379 C42 1.364 . S
C384 C98 1.364 . S
C389 C61 1.497 . S
C394 C117 1.501 . S
C399 C75 1.501 . S
C404 C131 1.497 . S
