# Generated by pormake.
# Topology uns, (4)-cn, num edge types: 1
# Building blocks:
#     Node 0, Type 0, BuildingBlock: CEKHIL_clean_sbu_0, # of connection points: 4
#     Node 1, Type 0, BuildingBlock: CEKHIL_clean_sbu_0, # of connection points: 4
#     Node 2, Type 0, BuildingBlock: CEKHIL_clean_sbu_0, # of connection points: 4
#     Node 3, Type 0, BuildingBlock: CEKHIL_clean_sbu_0, # of connection points: 4
#     Node 4, Type 0, BuildingBlock: CEKHIL_clean_sbu_0, # of connection points: 4
#     Node 5, Type 0, BuildingBlock: CEKHIL_clean_sbu_0, # of connection points: 4
#     Node 6, Type 0, BuildingBlock: CEKHIL_clean_sbu_0, # of connection points: 4
#     Node 7, Type 0, BuildingBlock: CEKHIL_clean_sbu_0, # of connection points: 4
#     Node 8, Type 0, BuildingBlock: CEKHIL_clean_sbu_0, # of connection points: 4
#     Node 9, Type 0, BuildingBlock: CEKHIL_clean_sbu_0, # of connection points: 4
#     Node 10, Type 0, BuildingBlock: CEKHIL_clean_sbu_0, # of connection points: 4
#     Node 11, Type 0, BuildingBlock: CEKHIL_clean_sbu_0, # of connection points: 4
#     Node 12, Type 0, BuildingBlock: CEKHIL_clean_sbu_0, # of connection points: 4
#     Node 13, Type 0, BuildingBlock: CEKHIL_clean_sbu_0, # of connection points: 4
#     Node 14, Type 0, BuildingBlock: CEKHIL_clean_sbu_0, # of connection points: 4
#     Node 15, Type 0, BuildingBlock: CEKHIL_clean_sbu_0, # of connection points: 4
#     Node 16, Type 0, BuildingBlock: CEKHIL_clean_sbu_0, # of connection points: 4
#     Node 17, Type 0, BuildingBlock: CEKHIL_clean_sbu_0, # of connection points: 4
#     Node 18, Type 0, BuildingBlock: CEKHIL_clean_sbu_0, # of connection points: 4
#     Node 19, Type 0, BuildingBlock: CEKHIL_clean_sbu_0, # of connection points: 4
#     Node 20, Type 0, BuildingBlock: CEKHIL_clean_sbu_0, # of connection points: 4
#     Node 21, Type 0, BuildingBlock: CEKHIL_clean_sbu_0, # of connection points: 4
#     Node 22, Type 0, BuildingBlock: CEKHIL_clean_sbu_0, # of connection points: 4
#     Node 23, Type 0, BuildingBlock: CEKHIL_clean_sbu_0, # of connection points: 4
#     Node 24, Type 0, BuildingBlock: CEKHIL_clean_sbu_0, # of connection points: 4
#     Node 25, Type 0, BuildingBlock: CEKHIL_clean_sbu_0, # of connection points: 4
#     Node 26, Type 0, BuildingBlock: CEKHIL_clean_sbu_0, # of connection points: 4
#     Node 27, Type 0, BuildingBlock: CEKHIL_clean_sbu_0, # of connection points: 4
#     Node 28, Type 0, BuildingBlock: CEKHIL_clean_sbu_0, # of connection points: 4
#     Node 29, Type 0, BuildingBlock: CEKHIL_clean_sbu_0, # of connection points: 4
#     Node 30, Type 0, BuildingBlock: CEKHIL_clean_sbu_0, # of connection points: 4
#     Node 31, Type 0, BuildingBlock: CEKHIL_clean_sbu_0, # of connection points: 4
#     Node 32, Type 0, BuildingBlock: CEKHIL_clean_sbu_0, # of connection points: 4
#     Node 33, Type 0, BuildingBlock: CEKHIL_clean_sbu_0, # of connection points: 4
#     Node 34, Type 0, BuildingBlock: CEKHIL_clean_sbu_0, # of connection points: 4
#     Node 35, Type 0, BuildingBlock: CEKHIL_clean_sbu_0, # of connection points: 4
#     Edge 36, Type (0, 0), BuildingBlock: AJUNOK_clean_linker_0, # of connection points: 2
#     Edge 37, Type (0, 0), BuildingBlock: AJUNOK_clean_linker_0, # of connection points: 2
#     Edge 38, Type (0, 0), BuildingBlock: AJUNOK_clean_linker_0, # of connection points: 2
#     Edge 39, Type (0, 0), BuildingBlock: AJUNOK_clean_linker_0, # of connection points: 2
#     Edge 40, Type (0, 0), BuildingBlock: AJUNOK_clean_linker_0, # of connection points: 2
#     Edge 41, Type (0, 0), BuildingBlock: AJUNOK_clean_linker_0, # of connection points: 2
#     Edge 42, Type (0, 0), BuildingBlock: AJUNOK_clean_linker_0, # of connection points: 2
#     Edge 43, Type (0, 0), BuildingBlock: AJUNOK_clean_linker_0, # of connection points: 2
#     Edge 44, Type (0, 0), BuildingBlock: AJUNOK_clean_linker_0, # of connection points: 2
#     Edge 45, Type (0, 0), BuildingBlock: AJUNOK_clean_linker_0, # of connection points: 2
#     Edge 46, Type (0, 0), BuildingBlock: AJUNOK_clean_linker_0, # of connection points: 2
#     Edge 47, Type (0, 0), BuildingBlock: AJUNOK_clean_linker_0, # of connection points: 2
#     Edge 48, Type (0, 0), BuildingBlock: AJUNOK_clean_linker_0, # of connection points: 2
#     Edge 49, Type (0, 0), BuildingBlock: AJUNOK_clean_linker_0, # of connection points: 2
#     Edge 50, Type (0, 0), BuildingBlock: AJUNOK_clean_linker_0, # of connection points: 2
#     Edge 51, Type (0, 0), BuildingBlock: AJUNOK_clean_linker_0, # of connection points: 2
#     Edge 52, Type (0, 0), BuildingBlock: AJUNOK_clean_linker_0, # of connection points: 2
#     Edge 53, Type (0, 0), BuildingBlock: AJUNOK_clean_linker_0, # of connection points: 2
#     Edge 54, Type (0, 0), BuildingBlock: AJUNOK_clean_linker_0, # of connection points: 2
#     Edge 55, Type (0, 0), BuildingBlock: AJUNOK_clean_linker_0, # of connection points: 2
#     Edge 56, Type (0, 0), BuildingBlock: AJUNOK_clean_linker_0, # of connection points: 2
#     Edge 57, Type (0, 0), BuildingBlock: AJUNOK_clean_linker_0, # of connection points: 2
#     Edge 58, Type (0, 0), BuildingBlock: AJUNOK_clean_linker_0, # of connection points: 2
#     Edge 59, Type (0, 0), BuildingBlock: AJUNOK_clean_linker_0, # of connection points: 2
#     Edge 60, Type (0, 0), BuildingBlock: AJUNOK_clean_linker_0, # of connection points: 2
#     Edge 61, Type (0, 0), BuildingBlock: AJUNOK_clean_linker_0, # of connection points: 2
#     Edge 62, Type (0, 0), BuildingBlock: AJUNOK_clean_linker_0, # of connection points: 2
#     Edge 63, Type (0, 0), BuildingBlock: AJUNOK_clean_linker_0, # of connection points: 2
#     Edge 64, Type (0, 0), BuildingBlock: AJUNOK_clean_linker_0, # of connection points: 2
#     Edge 65, Type (0, 0), BuildingBlock: AJUNOK_clean_linker_0, # of connection points: 2
#     Edge 66, Type (0, 0), BuildingBlock: AJUNOK_clean_linker_0, # of connection points: 2
#     Edge 67, Type (0, 0), BuildingBlock: AJUNOK_clean_linker_0, # of connection points: 2
#     Edge 68, Type (0, 0), BuildingBlock: AJUNOK_clean_linker_0, # of connection points: 2
#     Edge 69, Type (0, 0), BuildingBlock: AJUNOK_clean_linker_0, # of connection points: 2
#     Edge 70, Type (0, 0), BuildingBlock: AJUNOK_clean_linker_0, # of connection points: 2
#     Edge 71, Type (0, 0), BuildingBlock: AJUNOK_clean_linker_0, # of connection points: 2
#     Edge 72, Type (0, 0), BuildingBlock: AJUNOK_clean_linker_0, # of connection points: 2
#     Edge 73, Type (0, 0), BuildingBlock: AJUNOK_clean_linker_0, # of connection points: 2
#     Edge 74, Type (0, 0), BuildingBlock: AJUNOK_clean_linker_0, # of connection points: 2
#     Edge 75, Type (0, 0), BuildingBlock: AJUNOK_clean_linker_0, # of connection points: 2
#     Edge 76, Type (0, 0), BuildingBlock: AJUNOK_clean_linker_0, # of connection points: 2
#     Edge 77, Type (0, 0), BuildingBlock: AJUNOK_clean_linker_0, # of connection points: 2
#     Edge 78, Type (0, 0), BuildingBlock: AJUNOK_clean_linker_0, # of connection points: 2
#     Edge 79, Type (0, 0), BuildingBlock: AJUNOK_clean_linker_0, # of connection points: 2
#     Edge 80, Type (0, 0), BuildingBlock: AJUNOK_clean_linker_0, # of connection points: 2
#     Edge 81, Type (0, 0), BuildingBlock: AJUNOK_clean_linker_0, # of connection points: 2
#     Edge 82, Type (0, 0), BuildingBlock: AJUNOK_clean_linker_0, # of connection points: 2
#     Edge 83, Type (0, 0), BuildingBlock: AJUNOK_clean_linker_0, # of connection points: 2
#     Edge 84, Type (0, 0), BuildingBlock: AJUNOK_clean_linker_0, # of connection points: 2
#     Edge 85, Type (0, 0), BuildingBlock: AJUNOK_clean_linker_0, # of connection points: 2
#     Edge 86, Type (0, 0), BuildingBlock: AJUNOK_clean_linker_0, # of connection points: 2
#     Edge 87, Type (0, 0), BuildingBlock: AJUNOK_clean_linker_0, # of connection points: 2
#     Edge 88, Type (0, 0), BuildingBlock: AJUNOK_clean_linker_0, # of connection points: 2
#     Edge 89, Type (0, 0), BuildingBlock: AJUNOK_clean_linker_0, # of connection points: 2
#     Edge 90, Type (0, 0), BuildingBlock: AJUNOK_clean_linker_0, # of connection points: 2
#     Edge 91, Type (0, 0), BuildingBlock: AJUNOK_clean_linker_0, # of connection points: 2
#     Edge 92, Type (0, 0), BuildingBlock: AJUNOK_clean_linker_0, # of connection points: 2
#     Edge 93, Type (0, 0), BuildingBlock: AJUNOK_clean_linker_0, # of connection points: 2
#     Edge 94, Type (0, 0), BuildingBlock: AJUNOK_clean_linker_0, # of connection points: 2
#     Edge 95, Type (0, 0), BuildingBlock: AJUNOK_clean_linker_0, # of connection points: 2
#     Edge 96, Type (0, 0), BuildingBlock: AJUNOK_clean_linker_0, # of connection points: 2
#     Edge 97, Type (0, 0), BuildingBlock: AJUNOK_clean_linker_0, # of connection points: 2
#     Edge 98, Type (0, 0), BuildingBlock: AJUNOK_clean_linker_0, # of connection points: 2
#     Edge 99, Type (0, 0), BuildingBlock: AJUNOK_clean_linker_0, # of connection points: 2
#     Edge 100, Type (0, 0), BuildingBlock: AJUNOK_clean_linker_0, # of connection points: 2
#     Edge 101, Type (0, 0), BuildingBlock: AJUNOK_clean_linker_0, # of connection points: 2
#     Edge 102, Type (0, 0), BuildingBlock: AJUNOK_clean_linker_0, # of connection points: 2
#     Edge 103, Type (0, 0), BuildingBlock: AJUNOK_clean_linker_0, # of connection points: 2
#     Edge 104, Type (0, 0), BuildingBlock: AJUNOK_clean_linker_0, # of connection points: 2
#     Edge 105, Type (0, 0), BuildingBlock: AJUNOK_clean_linker_0, # of connection points: 2
#     Edge 106, Type (0, 0), BuildingBlock: AJUNOK_clean_linker_0, # of connection points: 2
#     Edge 107, Type (0, 0), BuildingBlock: AJUNOK_clean_linker_0, # of connection points: 2
# Relax obj value: 0.115
# Max RMSD: 0.265
# Mean RMSD: 0.246
data_MOF--net-uns--node1-CEKHIL_clean_sbu_0--edge1-AJUNOK_clean_linker_0
_symmetry_space_group_name_H-M    P1
_symmetry_Int_Tables_number       1
_symmetry_cell_setting            triclinic
loop_
_symmetry_equiv_pos_as_xyz
'x, y, z'
_cell_length_a     40.430182
_cell_length_b     39.694313
_cell_length_c     40.811475
_cell_angle_alpha  91.575707
_cell_angle_beta   90.03103
_cell_angle_gamma 120.6506
loop_
_atom_site_label
_atom_site_type_symbol
_atom_site_fract_x
_atom_site_fract_y
_atom_site_fract_z
_atom_type_partial_charge
Co0 Co 0.28497 0.18781 0.06406 0.0
O1 O 0.31221 0.16815 0.08766 0.0
O2 O 0.28119 0.19469 0.11114 0.0
C3 C 0.25506 0.13812 0.02696 0.0
O4 O 0.25356 0.21088 0.04581 0.0
Co5 Co 0.31262 0.2131 0.99482 0.0
O6 O 0.27158 0.22658 0.99352 0.0
C7 C 0.36222 0.25922 0.04895 0.0
C8 C 0.30467 0.18143 0.11419 0.0
C9 C 0.25094 0.22422 0.01796 0.0
O10 O 0.33249 0.24011 0.06627 0.0
O11 O 0.36237 0.2516 0.01834 0.0
O12 O 0.24099 0.13605 0.05598 0.0
O13 O 0.28948 0.16767 0.02292 0.0
Co14 Co 0.83335 0.09286 0.06965 0.0
O15 O 0.88615 0.11192 0.05915 0.0
O16 O 0.84172 0.10263 0.02266 0.0
C17 C 0.84353 0.13354 0.11304 0.0
O18 O 0.77627 0.07533 0.07419 0.0
Co19 Co 0.80531 0.05225 0.13624 0.0
O20 O 0.76424 0.06421 0.12794 0.0
C21 C 0.80539 0.00539 0.07899 0.0
C22 C 0.87776 0.11496 0.02921 0.0
C23 C 0.75482 0.06932 0.09952 0.0
O24 O 0.8192 0.0363 0.06173 0.0
O25 O 0.79964 0.00609 0.10979 0.0
O26 O 0.84597 0.14523 0.08335 0.0
O27 O 0.84179 0.10014 0.11549 0.0
Co28 Co 0.90444 0.72249 0.05812 0.0
O29 O 0.88741 0.75854 0.04841 0.0
O30 O 0.89061 0.71861 0.01159 0.0
C31 C 0.86823 0.69503 0.10263 0.0
O32 O 0.92039 0.68106 0.06149 0.0
Co33 Co 0.95212 0.7392 0.12149 0.0
O34 O 0.93611 0.68348 0.11473 0.0
C35 C 0.99236 0.78055 0.06272 0.0
C36 C 0.88217 0.74565 0.01828 0.0
C37 C 0.92846 0.66678 0.08641 0.0
O38 O 0.95935 0.76355 0.04803 0.0
O39 O 0.99626 0.77579 0.09309 0.0
O40 O 0.85402 0.68439 0.07319 0.0
O41 O 0.90199 0.72682 0.10451 0.0
Co42 Co 0.18469 0.27863 0.44579 0.0
O43 O 0.13191 0.243 0.45664 0.0
O44 O 0.17621 0.28312 0.49263 0.0
C45 C 0.17285 0.3048 0.40187 0.0
O46 O 0.24211 0.31966 0.44124 0.0
Co47 Co 0.21321 0.26151 0.38169 0.0
O48 O 0.25371 0.31696 0.38773 0.0
C49 C 0.21399 0.2204 0.43997 0.0
C50 C 0.14045 0.25626 0.48659 0.0
C51 C 0.26402 0.33345 0.41604 0.0
O52 O 0.19832 0.23736 0.45519 0.0
O53 O 0.22195 0.2252 0.40947 0.0
O54 O 0.17212 0.31671 0.43154 0.0
O55 O 0.17545 0.27342 0.39946 0.0
Co56 Co 0.74186 0.90584 0.4335 0.0
O57 O 0.77906 0.89115 0.4437 0.0
O58 O 0.7409 0.89507 0.48021 0.0
C59 C 0.7149 0.8656 0.3891 0.0
O60 O 0.69919 0.91914 0.4296 0.0
Co61 Co 0.75379 0.94936 0.3689 0.0
O62 O 0.7002 0.93552 0.37705 0.0
C63 C 0.79913 0.99457 0.42698 0.0
C64 C 0.76773 0.88697 0.47373 0.0
C65 C 0.68419 0.92664 0.40485 0.0
O66 O 0.78121 0.96285 0.44298 0.0
O67 O 0.7939 0.99542 0.39613 0.0
O68 O 0.70545 0.85298 0.41853 0.0
O69 O 0.7445 0.90078 0.38737 0.0
Co70 Co 0.09598 0.81186 0.4407 0.0
O71 O 0.14241 0.83117 0.41647 0.0
O72 O 0.08491 0.80806 0.39375 0.0
C73 C 0.11882 0.8599 0.47967 0.0
O74 O 0.04192 0.78973 0.45975 0.0
Co75 Co 0.0977 0.78193 0.50778 0.0
O76 O 0.04369 0.76995 0.51061 0.0
C77 C 0.1009 0.73944 0.45087 0.0
C78 C 0.12137 0.82021 0.39003 0.0
C79 C 0.0258 0.77486 0.48721 0.0
O80 O 0.08879 0.75869 0.43556 0.0
O81 O 0.10983 0.74585 0.48136 0.0
O82 O 0.10619 0.86408 0.45167 0.0
O83 O 0.12188 0.82903 0.48167 0.0
Co84 Co 0.72887 0.81602 0.93743 0.0
O85 O 0.69094 0.82798 0.92313 0.0
O86 O 0.74983 0.85612 0.90426 0.0
C87 C 0.68967 0.75104 0.92921 0.0
O88 O 0.77408 0.80733 0.94786 0.0
Co89 Co 0.71072 0.76937 1.00008 0.0
O90 O 0.74867 0.75679 0.98203 0.0
C91 C 0.74287 0.85483 0.00621 0.0
C92 C 0.71527 0.85094 0.90222 0.0
C93 C 0.77526 0.77971 0.96314 0.0
O94 O 0.74505 0.85622 0.97475 0.0
O95 O 0.72814 0.82248 0.02121 0.0
O96 O 0.70955 0.7731 0.90572 0.0
O97 O 0.6913 0.76924 0.95668 0.0
Co98 Co 0.17301 0.92544 0.95072 0.0
O99 O 0.11949 0.90137 0.96129 0.0
O100 O 0.15721 0.8806 0.97901 0.0
C101 C 0.18804 0.98756 0.96329 0.0
O102 O 0.23042 0.94547 0.94393 0.0
Co103 Co 0.19904 0.98267 0.89222 0.0
O104 O 0.24936 0.98829 0.90275 0.0
C105 C 0.16403 0.89756 0.8787 0.0
C106 C 0.1234 0.8773 0.97925 0.0
C107 C 0.25604 0.96941 0.92398 0.0
O108 O 0.16099 0.89099 0.90962 0.0
O109 O 0.175 0.93133 0.86724 0.0
O110 O 0.18633 0.96464 0.98597 0.0
O111 O 0.17594 0.97107 0.93464 0.0
Co112 Co 0.08158 0.24921 0.9437 0.0
O113 O 0.10287 0.21859 0.95864 0.0
O114 O 0.13059 0.28252 0.96715 0.0
C115 C 0.02088 0.20866 0.96183 0.0
O116 O 0.06542 0.28889 0.93198 0.0
Co117 Co 0.01983 0.21016 0.8887 0.0
O118 O 0.01855 0.25909 0.89317 0.0
C119 C 0.10134 0.25521 0.87053 0.0
C120 C 0.13113 0.25037 0.97152 0.0
C121 C 0.04086 0.28867 0.9115 0.0
O122 O 0.1107 0.26086 0.90114 0.0
O123 O 0.06651 0.23358 0.86038 0.0
O124 O 0.04798 0.23436 0.98114 0.0
O125 O 0.03239 0.20434 0.93318 0.0
Co126 Co 0.83334 0.7536 0.56296 0.0
O127 O 0.88596 0.78271 0.54937 0.0
O128 O 0.84723 0.71966 0.53813 0.0
C129 C 0.81749 0.79795 0.54662 0.0
O130 O 0.77641 0.71578 0.57305 0.0
Co131 Co 0.81216 0.79209 0.6195 0.0
O132 O 0.76039 0.74576 0.61246 0.0
C133 C 0.8475 0.74571 0.63578 0.0
C134 C 0.88098 0.75099 0.53511 0.0
C135 C 0.75197 0.71677 0.59297 0.0
O136 O 0.84825 0.73828 0.60502 0.0
O137 O 0.83675 0.7691 0.64667 0.0
O138 O 0.81775 0.77264 0.52611 0.0
O139 O 0.8318 0.79942 0.57541 0.0
Co140 Co 0.25159 0.0762 0.5513 0.0
O141 O 0.22095 0.09841 0.53927 0.0
O142 O 0.28046 0.12147 0.5233 0.0
C143 C 0.20667 0.01328 0.53827 0.0
O144 O 0.29009 0.05811 0.55986 0.0
Co145 Co 0.21951 0.0194 0.60995 0.0
O146 O 0.26516 0.01494 0.60072 0.0
C147 C 0.26707 0.10455 0.62349 0.0
C148 C 0.24922 0.12343 0.5221 0.0
C149 C 0.29154 0.0345 0.5803 0.0
O150 O 0.2718 0.11089 0.59255 0.0
O151 O 0.24458 0.07074 0.63496 0.0
O152 O 0.22827 0.0366 0.51593 0.0
O153 O 0.20914 0.02979 0.56658 0.0
Co154 Co 0.91717 0.18434 0.56933 0.0
O155 O 0.86757 0.17112 0.58563 0.0
O156 O 0.90101 0.14507 0.60285 0.0
C157 C 0.94148 0.2491 0.57637 0.0
O158 O 0.97114 0.1943 0.55738 0.0
Co159 Co 0.94215 0.22898 0.50558 0.0
O160 O 0.99396 0.2437 0.52222 0.0
C161 C 0.8897 0.14345 0.50144 0.0
C162 C 0.87113 0.14918 0.60632 0.0
C163 C 0.99906 0.22194 0.54139 0.0
O164 O 0.89228 0.14321 0.53285 0.0
O165 O 0.90588 0.17525 0.4856 0.0
O166 O 0.94118 0.22814 0.6001 0.0
O167 O 0.92408 0.22991 0.54943 0.0
Co168 Co 0.95873 0.52579 0.39491 0.0
O169 O 0.98596 0.50523 0.41731 0.0
O170 O 0.95534 0.53112 0.44232 0.0
C171 C 0.92878 0.4765 0.35739 0.0
O172 O 0.92679 0.54919 0.37811 0.0
Co173 Co 0.98418 0.55211 0.32541 0.0
O174 O 0.9423 0.56432 0.32534 0.0
C175 C 0.03505 0.59875 0.37899 0.0
C176 C 0.97829 0.51711 0.44452 0.0
C177 C 0.92269 0.56205 0.35049 0.0
O178 O 0.00663 0.57813 0.39735 0.0
O179 O 0.03377 0.5923 0.34803 0.0
O180 O 0.91466 0.47415 0.38642 0.0
O181 O 0.96287 0.50651 0.35324 0.0
Co182 Co 0.50443 0.42619 0.40444 0.0
O183 O 0.55673 0.44121 0.3951 0.0
O184 O 0.51516 0.43689 0.3578 0.0
C185 C 0.51492 0.46581 0.44866 0.0
O186 O 0.44816 0.41246 0.40745 0.0
Co187 Co 0.47169 0.38367 0.46967 0.0
O188 O 0.4328 0.39845 0.46044 0.0
C189 C 0.47174 0.33741 0.41208 0.0
C190 C 0.54999 0.44501 0.36484 0.0
C191 C 0.42562 0.40601 0.43205 0.0
O192 O 0.48673 0.36882 0.39541 0.0
O193 O 0.4655 0.33755 0.44282 0.0
O194 O 0.52016 0.4792 0.41934 0.0
O195 O 0.51093 0.43137 0.45049 0.0
Co196 Co 0.57091 0.05452 0.39011 0.0
O197 O 0.55278 0.08949 0.37997 0.0
O198 O 0.55668 0.04954 0.3436 0.0
C199 C 0.5355 0.02736 0.4349 0.0
O200 O 0.58818 0.01423 0.39408 0.0
Co201 Co 0.61985 0.07454 0.45301 0.0
O202 O 0.60521 0.01905 0.44723 0.0
C203 C 0.65841 0.11515 0.39364 0.0
C204 C 0.54751 0.0761 0.35 0.0
C205 C 0.59756 0.00147 0.41925 0.0
O206 O 0.62522 0.09603 0.37944 0.0
O207 O 0.66308 0.11206 0.42423 0.0
O208 O 0.52101 0.01596 0.40561 0.0
O209 O 0.56882 0.05973 0.43641 0.0
Co210 Co 0.8501 0.61357 0.78014 0.0
O211 O 0.79682 0.57815 0.78958 0.0
O212 O 0.8404 0.61625 0.8269 0.0
C213 C 0.84213 0.64296 0.73676 0.0
O214 O 0.90787 0.65405 0.77704 0.0
Co215 Co 0.88001 0.59819 0.71543 0.0
O216 O 0.92029 0.65348 0.7234 0.0
C217 C 0.87914 0.55526 0.7731 0.0
C218 C 0.80464 0.59016 0.8199 0.0
C219 C 0.93022 0.66873 0.75219 0.0
O220 O 0.8628 0.57139 0.78859 0.0
O221 O 0.888 0.56124 0.74285 0.0
O222 O 0.83892 0.65302 0.76649 0.0
O223 O 0.84308 0.61071 0.73389 0.0
Co224 Co 0.40886 0.23728 0.76847 0.0
O225 O 0.44604 0.22236 0.77865 0.0
O226 O 0.40845 0.22713 0.81529 0.0
C227 C 0.37979 0.19705 0.72448 0.0
O228 O 0.3664 0.25102 0.76457 0.0
Co229 Co 0.41915 0.27881 0.70259 0.0
O230 O 0.36543 0.26423 0.71129 0.0
C231 C 0.4651 0.32596 0.76009 0.0
C232 C 0.43517 0.21889 0.80879 0.0
C233 C 0.35051 0.25714 0.73961 0.0
O234 O 0.44858 0.29481 0.77711 0.0
O235 O 0.45891 0.32529 0.72925 0.0
O236 O 0.37156 0.18408 0.75391 0.0
O237 O 0.41038 0.2314 0.7225 0.0
Co238 Co 0.76344 0.13718 0.77552 0.0
O239 O 0.8111 0.15681 0.75311 0.0
O240 O 0.75471 0.13121 0.72798 0.0
C241 C 0.78467 0.18826 0.8118 0.0
O242 O 0.70813 0.1148 0.7924 0.0
Co243 Co 0.76237 0.11195 0.84436 0.0
O244 O 0.70822 0.09914 0.84498 0.0
C245 C 0.76644 0.06433 0.7921 0.0
C246 C 0.79164 0.14495 0.72588 0.0
C247 C 0.69097 0.10159 0.81988 0.0
O248 O 0.75825 0.08454 0.77365 0.0
O249 O 0.77197 0.07137 0.82295 0.0
O250 O 0.77174 0.18895 0.78284 0.0
O251 O 0.78819 0.15807 0.81703 0.0
Co252 Co 0.3959 0.14836 0.2693 0.0
O253 O 0.35866 0.16092 0.2542 0.0
O254 O 0.41776 0.18798 0.23589 0.0
C255 C 0.35594 0.08331 0.26215 0.0
O256 O 0.44057 0.13902 0.28009 0.0
Co257 Co 0.37744 0.10211 0.33245 0.0
O258 O 0.41471 0.08855 0.3143 0.0
C259 C 0.4097 0.18771 0.33785 0.0
C260 C 0.38341 0.18321 0.23317 0.0
C261 C 0.44126 0.11107 0.2952 0.0
O262 O 0.41243 0.18911 0.30638 0.0
O263 O 0.39458 0.15538 0.35288 0.0
O264 O 0.3757 0.10453 0.23816 0.0
O265 O 0.3582 0.10247 0.28916 0.0
Co266 Co 0.84143 0.26106 0.28455 0.0
O267 O 0.78827 0.23844 0.29565 0.0
O268 O 0.82508 0.21624 0.31296 0.0
C269 C 0.85869 0.32395 0.2965 0.0
O270 O 0.89831 0.27942 0.2769 0.0
Co271 Co 0.86682 0.31651 0.22494 0.0
O272 O 0.91611 0.31882 0.23336 0.0
C273 C 0.82901 0.23121 0.21286 0.0
C274 C 0.79153 0.21353 0.31299 0.0
C275 C 0.92315 0.30105 0.2554 0.0
O276 O 0.82765 0.22576 0.24389 0.0
O277 O 0.8399 0.26465 0.20079 0.0
O278 O 0.85651 0.30108 0.31943 0.0
O279 O 0.84554 0.30702 0.26814 0.0
Co280 Co 0.74938 0.58034 0.27709 0.0
O281 O 0.77402 0.55236 0.29083 0.0
O282 O 0.79679 0.61508 0.30232 0.0
C283 C 0.68925 0.53472 0.29292 0.0
O284 O 0.72889 0.61697 0.2669 0.0
Co285 Co 0.69022 0.54063 0.22017 0.0
O286 O 0.6834 0.58606 0.22711 0.0
C287 C 0.77196 0.59055 0.2043 0.0
C288 C 0.80014 0.5843 0.30531 0.0
C289 C 0.70341 0.61525 0.2466 0.0
O290 O 0.78008 0.59683 0.23516 0.0
O291 O 0.73795 0.56659 0.1933 0.0
O292 O 0.71428 0.56019 0.3137 0.0
O293 O 0.70272 0.53383 0.26431 0.0
Co294 Co 0.50004 0.08379 0.89511 0.0
O295 O 0.55275 0.11203 0.88143 0.0
O296 O 0.51279 0.04951 0.86934 0.0
C297 C 0.48541 0.1296 0.8801 0.0
O298 O 0.44287 0.04687 0.90506 0.0
Co299 Co 0.48025 0.1224 0.95267 0.0
O300 O 0.42802 0.07693 0.94535 0.0
C301 C 0.51218 0.07234 0.9677 0.0
C302 C 0.54702 0.08027 0.86666 0.0
C303 C 0.41898 0.0481 0.92549 0.0
O304 O 0.51415 0.06657 0.93675 0.0
O305 O 0.50204 0.09607 0.97904 0.0
O306 O 0.48508 0.10458 0.8589 0.0
O307 O 0.49976 0.13001 0.90859 0.0
Co308 Co 0.91908 0.40993 0.88002 0.0
O309 O 0.88708 0.43076 0.86861 0.0
O310 O 0.94762 0.45721 0.8543 0.0
C311 C 0.87687 0.34705 0.86386 0.0
O312 O 0.95917 0.39377 0.88818 0.0
Co313 Co 0.88702 0.34963 0.93604 0.0
O314 O 0.93453 0.34847 0.92748 0.0
C315 C 0.93257 0.43422 0.95303 0.0
C316 C 0.91558 0.45762 0.8528 0.0
C317 C 0.96115 0.36976 0.90783 0.0
O318 O 0.93657 0.44224 0.92243 0.0
O319 O 0.91122 0.39947 0.96325 0.0
O320 O 0.89861 0.37284 0.84302 0.0
O321 O 0.87728 0.36126 0.89286 0.0
Co322 Co 0.58034 0.51755 0.90068 0.0
O323 O 0.53074 0.50562 0.9159 0.0
O324 O 0.56267 0.47864 0.93469 0.0
C325 C 0.6061 0.58274 0.90727 0.0
O326 O 0.63416 0.52634 0.88975 0.0
Co327 Co 0.60749 0.56248 0.83698 0.0
O328 O 0.65851 0.5758 0.85451 0.0
C329 C 0.55359 0.47696 0.83261 0.0
C330 C 0.53319 0.48357 0.93716 0.0
C331 C 0.66266 0.55371 0.87402 0.0
O332 O 0.55543 0.47616 0.86409 0.0
O333 O 0.57076 0.509 0.81715 0.0
O334 O 0.60458 0.56166 0.93138 0.0
O335 O 0.58875 0.56341 0.8804 0.0
Co336 Co 0.61397 0.85132 0.73396 0.0
O337 O 0.64116 0.83204 0.75812 0.0
O338 O 0.60836 0.85689 0.78095 0.0
C339 C 0.58667 0.80221 0.69592 0.0
O340 O 0.58242 0.87383 0.71487 0.0
Co341 Co 0.64469 0.87883 0.66588 0.0
O342 O 0.60387 0.89264 0.66376 0.0
C343 C 0.6917 0.92262 0.72193 0.0
C344 C 0.63233 0.8443 0.78452 0.0
C345 C 0.58164 0.88882 0.68733 0.0
O346 O 0.66059 0.90416 0.73768 0.0
O347 O 0.69358 0.91528 0.69152 0.0
O348 O 0.57106 0.79917 0.72439 0.0
O349 O 0.62079 0.83261 0.69304 0.0
Co350 Co 0.16967 0.76226 0.73396 0.0
O351 O 0.22144 0.77792 0.72192 0.0
O352 O 0.17691 0.77198 0.68698 0.0
C353 C 0.18253 0.80304 0.77781 0.0
O354 O 0.11345 0.74761 0.74 0.0
Co355 Co 0.14225 0.7213 0.80046 0.0
O356 O 0.10188 0.73462 0.79358 0.0
C357 C 0.13984 0.67415 0.74258 0.0
C358 C 0.2124 0.78113 0.69223 0.0
C359 C 0.09246 0.74122 0.76573 0.0
O360 O 0.1526 0.70497 0.72536 0.0
O361 O 0.13582 0.67502 0.77365 0.0
O362 O 0.1854 0.81534 0.74829 0.0
O363 O 0.1793 0.7689 0.77966 0.0
Co364 Co 0.23746 0.38529 0.72479 0.0
O365 O 0.21981 0.42067 0.71472 0.0
O366 O 0.22478 0.38175 0.67796 0.0
C367 C 0.19998 0.35703 0.7685 0.0
O368 O 0.25457 0.34479 0.72882 0.0
Co369 Co 0.28337 0.40257 0.78922 0.0
O370 O 0.2681 0.34705 0.78255 0.0
C371 C 0.32495 0.44458 0.73115 0.0
C372 C 0.21557 0.40826 0.68453 0.0
C373 C 0.26241 0.33086 0.75411 0.0
O374 O 0.29233 0.42725 0.71582 0.0
O375 O 0.32815 0.43972 0.76163 0.0
O376 O 0.18684 0.34627 0.73878 0.0
O377 O 0.23344 0.38914 0.771 0.0
Co378 Co 0.51248 0.93914 0.11317 0.0
O379 O 0.45927 0.90393 0.12308 0.0
O380 O 0.50304 0.94335 0.15977 0.0
C381 C 0.50404 0.96716 0.06878 0.0
O382 O 0.5701 0.9796 0.10962 0.0
Co383 Co 0.54216 0.92158 0.04953 0.0
O384 O 0.58237 0.97713 0.05618 0.0
C385 C 0.54166 0.88063 0.10843 0.0
C386 C 0.4673 0.91687 0.15318 0.0
C387 C 0.59233 0.99344 0.08462 0.0
O388 O 0.52545 0.89741 0.12312 0.0
O389 O 0.55027 0.88545 0.07806 0.0
O390 O 0.50108 0.97798 0.09831 0.0
O391 O 0.50526 0.93497 0.06676 0.0
Co392 Co 0.07278 0.57046 0.09904 0.0
O393 O 0.10934 0.55454 0.10764 0.0
O394 O 0.07331 0.55947 0.14569 0.0
C395 C 0.04311 0.53096 0.0549 0.0
O396 O 0.03115 0.5855 0.09609 0.0
Co397 Co 0.0847 0.61421 0.03439 0.0
O398 O 0.0308 0.5991 0.04286 0.0
C399 C 0.13038 0.65922 0.09237 0.0
C400 C 0.0994 0.55065 0.13801 0.0
C401 C 0.01581 0.59244 0.07116 0.0
O402 O 0.1132 0.6273 0.10824 0.0
O403 O 0.12452 0.66023 0.06167 0.0
O404 O 0.03475 0.5178 0.08427 0.0
O405 O 0.07384 0.5653 0.05304 0.0
Co406 Co 0.43037 0.47412 0.10756 0.0
O407 O 0.47727 0.49565 0.08366 0.0
O408 O 0.41969 0.4701 0.06054 0.0
C409 C 0.45043 0.522 0.14639 0.0
O410 O 0.37573 0.45001 0.1261 0.0
Co411 Co 0.43223 0.44546 0.17528 0.0
O412 O 0.37815 0.43305 0.1779 0.0
C413 C 0.43543 0.40124 0.1194 0.0
C414 C 0.45656 0.48445 0.05701 0.0
C415 C 0.35984 0.43612 0.15386 0.0
O416 O 0.42608 0.42191 0.1027 0.0
O417 O 0.44212 0.40698 0.15027 0.0
O418 O 0.43778 0.52528 0.11807 0.0
O419 O 0.45549 0.49238 0.14889 0.0
Co420 Co 0.0658 0.48249 0.60243 0.0
O421 O 0.02941 0.49559 0.58597 0.0
O422 O 0.08879 0.5212 0.56851 0.0
C423 C 0.02513 0.41752 0.59599 0.0
O424 O 0.10979 0.47249 0.6144 0.0
Co425 Co 0.04624 0.43751 0.66624 0.0
O426 O 0.08308 0.42271 0.64923 0.0
C427 C 0.07909 0.52328 0.67029 0.0
C428 C 0.05475 0.51695 0.56492 0.0
C429 C 0.10995 0.44462 0.63012 0.0
O430 O 0.08234 0.52407 0.63885 0.0
O431 O 0.06349 0.49122 0.68575 0.0
O432 O 0.04547 0.43811 0.57195 0.0
O433 O 0.02731 0.43724 0.62263 0.0
Co434 Co 0.50691 0.58927 0.62009 0.0
O435 O 0.45358 0.56595 0.631 0.0
O436 O 0.49092 0.54481 0.64893 0.0
C437 C 0.52297 0.65189 0.63189 0.0
O438 O 0.56412 0.60869 0.61294 0.0
Co439 Co 0.53188 0.64445 0.56039 0.0
O440 O 0.58176 0.64832 0.56953 0.0
C441 C 0.49488 0.55925 0.5484 0.0
C442 C 0.45726 0.54188 0.64914 0.0
C443 C 0.58896 0.63074 0.59162 0.0
O444 O 0.49405 0.5539 0.57946 0.0
O445 O 0.50527 0.59253 0.53625 0.0
O446 O 0.52106 0.62918 0.65485 0.0
O447 O 0.51024 0.63488 0.60347 0.0
Co448 Co 0.4137 0.91293 0.60833 0.0
O449 O 0.43635 0.88303 0.62199 0.0
O450 O 0.46051 0.94575 0.63469 0.0
C451 C 0.35249 0.86847 0.6222 0.0
O452 O 0.39557 0.95148 0.59862 0.0
Co453 Co 0.35588 0.87709 0.54987 0.0
O454 O 0.35127 0.92383 0.55758 0.0
C455 C 0.43849 0.92419 0.53615 0.0
C456 C 0.46275 0.91426 0.63717 0.0
C457 C 0.37126 0.95178 0.57817 0.0
O458 O 0.44575 0.92988 0.56717 0.0
O459 O 0.40462 0.90135 0.52435 0.0
O460 O 0.37714 0.89247 0.64398 0.0
O461 O 0.36672 0.8681 0.59386 0.0
Co462 Co 0.1679 0.41892 0.2283 0.0
O463 O 0.22133 0.4472 0.21667 0.0
O464 O 0.18227 0.38436 0.2051 0.0
C465 C 0.15392 0.464 0.20967 0.0
O466 O 0.11034 0.38183 0.23652 0.0
Co467 Co 0.14448 0.45968 0.28199 0.0
O468 O 0.09346 0.41224 0.27496 0.0
C469 C 0.17307 0.40779 0.30192 0.0
C470 C 0.21645 0.41529 0.20287 0.0
C471 C 0.08566 0.38296 0.25603 0.0
O472 O 0.17953 0.40293 0.27177 0.0
O473 O 0.16198 0.43156 0.31094 0.0
O474 O 0.15502 0.43851 0.18995 0.0
O475 O 0.16633 0.4651 0.23915 0.0
Co476 Co 0.57925 0.7366 0.2198 0.0
O477 O 0.55005 0.7611 0.20988 0.0
O478 O 0.60835 0.78181 0.19179 0.0
C479 C 0.53184 0.67456 0.20663 0.0
O480 O 0.6162 0.71607 0.2262 0.0
Co481 Co 0.54635 0.67763 0.27742 0.0
O482 O 0.59179 0.67302 0.26724 0.0
C483 C 0.59998 0.76209 0.29189 0.0
C484 C 0.5779 0.78522 0.19186 0.0
C485 C 0.61765 0.69211 0.24626 0.0
O486 O 0.60255 0.7703 0.26129 0.0
O487 O 0.57566 0.72847 0.30272 0.0
O488 O 0.55317 0.69775 0.18414 0.0
O489 O 0.53628 0.69083 0.23531 0.0
Co490 Co 0.24458 0.84981 0.2346 0.0
O491 O 0.19506 0.83839 0.24958 0.0
O492 O 0.22619 0.8107 0.26855 0.0
C493 C 0.27074 0.91491 0.24135 0.0
O494 O 0.29815 0.85795 0.22375 0.0
Co495 Co 0.27161 0.8939 0.17071 0.0
O496 O 0.32261 0.90701 0.18815 0.0
C497 C 0.2182 0.80858 0.16669 0.0
C498 C 0.19688 0.81596 0.2708 0.0
C499 C 0.32665 0.88488 0.20771 0.0
O500 O 0.21968 0.80857 0.19819 0.0
O501 O 0.23535 0.84021 0.15068 0.0
O502 O 0.26901 0.89358 0.26531 0.0
O503 O 0.25349 0.89596 0.21428 0.0
C504 C 0.31246 0.18789 0.17568 0.0
C505 C 0.32715 0.18694 0.14476 0.0
C506 C 0.33279 0.19044 0.20452 0.0
C507 C 0.36893 0.19293 0.20354 0.0
H508 H 0.28435 0.18486 0.17766 0.0
H509 H 0.31916 0.18845 0.22781 0.0
S510 S 0.42305 0.19888 0.12853 0.0
N511 N 0.38232 0.19387 0.11481 0.0
N512 N 0.42037 0.19905 0.16888 0.0
C513 C 0.3853 0.19536 0.17277 0.0
C514 C 0.36439 0.19212 0.14343 0.0
C515 C 0.82374 0.18062 0.13193 0.0
C516 C 0.83502 0.15363 0.14005 0.0
C517 C 0.81834 0.20294 0.15602 0.0
C518 C 0.8242 0.19959 0.18944 0.0
H519 H 0.81994 0.18546 0.10656 0.0
H520 H 0.81136 0.22448 0.14817 0.0
S521 S 0.84911 0.12951 0.22405 0.0
N522 N 0.84791 0.12166 0.18398 0.0
N523 N 0.83836 0.16419 0.22966 0.0
C524 C 0.83278 0.17065 0.19816 0.0
C525 C 0.83814 0.14762 0.17339 0.0
C526 C 0.79426 0.60485 0.1465 0.0
C527 C 0.80159 0.61549 0.18001 0.0
C528 C 0.81678 0.63056 0.12228 0.0
C529 C 0.84798 0.66838 0.13012 0.0
H530 H 0.76993 0.57678 0.13867 0.0
H531 H 0.80884 0.6207 0.09696 0.0
S532 S 0.88241 0.70969 0.21411 0.0
N533 N 0.8446 0.66587 0.21992 0.0
N534 N 0.88713 0.71406 0.17398 0.0
C535 C 0.85728 0.67881 0.16347 0.0
C536 C 0.83412 0.65244 0.18844 0.0
C537 C 0.19143 0.33385 0.34541 0.0
C538 C 0.16976 0.32665 0.37409 0.0
C539 C 0.19297 0.36044 0.32219 0.0
C540 C 0.17307 0.38089 0.32696 0.0
H541 H 0.20821 0.31992 0.34135 0.0
H542 H 0.21026 0.36541 0.30061 0.0
S543 S 0.10727 0.36706 0.39573 0.0
N544 N 0.12469 0.33862 0.40405 0.0
N545 N 0.12745 0.38797 0.36118 0.0
C546 C 0.14993 0.37224 0.35493 0.0
C547 C 0.14829 0.34529 0.3782 0.0
C548 C 0.65117 0.83056 0.31186 0.0
C549 C 0.63091 0.78959 0.31536 0.0
C550 C 0.68065 0.85576 0.33442 0.0
C551 C 0.6907 0.84066 0.36102 0.0
H552 H 0.64366 0.84321 0.29209 0.0
H553 H 0.69452 0.88706 0.3316 0.0
S554 S 0.65261 0.73571 0.37695 0.0
N555 N 0.62777 0.73537 0.34477 0.0
N556 N 0.68213 0.78237 0.38665 0.0
C557 C 0.67256 0.79985 0.36326 0.0
C558 C 0.64291 0.77442 0.34063 0.0
C559 C 0.1727 0.81533 0.35989 0.0
C560 C 0.13775 0.81533 0.35879 0.0
C561 C 0.18976 0.8111 0.33135 0.0
C562 C 0.17288 0.80718 0.30038 0.0
H563 H 0.18753 0.81925 0.38304 0.0
H564 H 0.21765 0.8136 0.33347 0.0
S565 S 0.0795 0.80093 0.28393 0.0
N566 N 0.08514 0.80716 0.32417 0.0
N567 N 0.11767 0.80029 0.27035 0.0
C568 C 0.13696 0.80501 0.29898 0.0
C569 C 0.1193 0.80883 0.32817 0.0
C570 C 0.6893 0.84955 0.81363 0.0
C571 C 0.65468 0.85015 0.81532 0.0
C572 C 0.71155 0.85456 0.84174 0.0
C573 C 0.69989 0.85988 0.87285 0.0
H574 H 0.69917 0.84448 0.79036 0.0
H575 H 0.73652 0.85139 0.83926 0.0
S576 S 0.61433 0.86843 0.89065 0.0
N577 N 0.61214 0.86063 0.85052 0.0
N578 N 0.65329 0.86887 0.90358 0.0
C579 C 0.66659 0.8628 0.87477 0.0
C580 C 0.64415 0.8582 0.84601 0.0
C581 C 0.1563 0.87148 0.8213 0.0
C582 C 0.16076 0.86696 0.85477 0.0
C583 C 0.16278 0.85008 0.79705 0.0
C584 C 0.17375 0.82281 0.80499 0.0
H585 H 0.14941 0.89313 0.81357 0.0
H586 H 0.15983 0.85572 0.77172 0.0
S587 S 0.18493 0.79612 0.88887 0.0
N588 N 0.17378 0.83049 0.89472 0.0
N589 N 0.18524 0.78959 0.84874 0.0
C590 C 0.17574 0.81581 0.83829 0.0
C591 C 0.16933 0.83795 0.86325 0.0
C592 C 0.12218 0.26916 0.81233 0.0
C593 C 0.13095 0.27892 0.84583 0.0
C594 C 0.14529 0.29439 0.78807 0.0
C595 C 0.17848 0.33085 0.7959 0.0
H596 H 0.09639 0.24224 0.8046 0.0
H597 H 0.1363 0.28529 0.76278 0.0
S598 S 0.21662 0.36942 0.87977 0.0
N599 N 0.17705 0.32697 0.88562 0.0
N600 N 0.22055 0.37428 0.83965 0.0
C601 C 0.18889 0.34037 0.82918 0.0
C602 C 0.16521 0.31446 0.85416 0.0
C603 C 0.84169 0.68227 0.65245 0.0
C604 C 0.85373 0.72192 0.65991 0.0
C605 C 0.83958 0.65689 0.67697 0.0
C606 C 0.84939 0.6703 0.70976 0.0
H607 H 0.83167 0.67015 0.62791 0.0
H608 H 0.82842 0.62627 0.67052 0.0
S609 S 0.88986 0.77315 0.74069 0.0
N610 N 0.88047 0.77427 0.70151 0.0
N611 N 0.87708 0.72728 0.74727 0.0
C612 C 0.86431 0.71056 0.71689 0.0
C613 C 0.86632 0.73617 0.69207 0.0
C614 C 0.36082 0.18088 0.66468 0.0
C615 C 0.35038 0.17833 0.69777 0.0
C616 C 0.33296 0.1596 0.63988 0.0
C617 C 0.29376 0.13545 0.6474 0.0
H618 H 0.39082 0.19772 0.65812 0.0
H619 H 0.34257 0.16002 0.61505 0.0
S620 S 0.25074 0.12595 0.72928 0.0
N621 N 0.2974 0.15476 0.73595 0.0
N622 N 0.24554 0.11525 0.68956 0.0
C623 C 0.28277 0.13561 0.68 0.0
C624 C 0.31094 0.15688 0.70513 0.0
C625 C 0.81149 0.13611 0.6355 0.0
C626 C 0.84786 0.13918 0.63646 0.0
C627 C 0.79298 0.13728 0.66436 0.0
C628 C 0.81062 0.14266 0.69526 0.0
H629 H 0.79788 0.13433 0.61213 0.0
H630 H 0.76532 0.13529 0.66234 0.0
S631 S 0.90441 0.14908 0.71132 0.0
N632 N 0.89939 0.1449 0.67104 0.0
N633 N 0.86562 0.14819 0.72507 0.0
C634 C 0.84642 0.14434 0.69655 0.0
C635 C 0.86467 0.14214 0.66724 0.0
C636 C 0.98792 0.52664 0.50589 0.0
C637 C 0.99956 0.51971 0.47524 0.0
C638 C 0.00799 0.52898 0.53487 0.0
C639 C 0.04109 0.5256 0.53429 0.0
H640 H 0.96252 0.52912 0.50764 0.0
H641 H 0.99665 0.53204 0.55809 0.0
S642 S 0.08596 0.51131 0.46013 0.0
N643 N 0.04807 0.51201 0.44603 0.0
N644 N 0.08588 0.51749 0.50027 0.0
C645 C 0.05424 0.52086 0.5037 0.0
C646 C 0.03337 0.51746 0.47429 0.0
C647 C 0.51341 0.48331 0.50827 0.0
C648 C 0.50401 0.4843 0.47529 0.0
C649 C 0.50704 0.50496 0.53281 0.0
C650 C 0.49071 0.52791 0.52511 0.0
H651 H 0.52766 0.46753 0.51486 0.0
H652 H 0.5174 0.50587 0.55749 0.0
S653 S 0.45297 0.53279 0.4437 0.0
N654 N 0.47185 0.50491 0.4372 0.0
N655 N 0.4598 0.54507 0.48314 0.0
C656 C 0.47802 0.52606 0.49274 0.0
C657 C 0.48473 0.50443 0.46787 0.0
C658 C 0.48657 0.96215 0.45504 0.0
C659 C 0.51594 0.00098 0.46264 0.0
C660 C 0.46377 0.93674 0.47929 0.0
C661 C 0.46909 0.94873 0.51254 0.0
H662 H 0.48013 0.95129 0.42982 0.0
H663 H 0.44064 0.90785 0.47164 0.0
S664 S 0.54515 0.0459 0.54624 0.0
N665 N 0.55163 0.04909 0.50621 0.0
N666 N 0.50857 0.00135 0.55221 0.0
C667 C 0.50012 0.98665 0.52091 0.0
C668 C 0.52354 0.01275 0.4959 0.0
C669 C 0.52076 0.05774 0.02526 0.0
C670 C 0.51687 0.04713 0.99172 0.0
C671 C 0.51761 0.03189 0.04934 0.0
C672 C 0.51041 0.99391 0.04133 0.0
H673 H 0.52496 0.08594 0.03324 0.0
H674 H 0.52001 0.04179 0.07469 0.0
S675 S 0.50185 0.95253 0.95711 0.0
N676 N 0.50833 0.99657 0.95155 0.0
N677 N 0.50269 0.94807 0.9972 0.0
C678 C 0.50868 0.98347 0.00791 0.0
C679 C 0.51188 0.01001 0.98308 0.0
C680 C 0.95009 0.45782 0.01116 0.0
C681 C 0.9584 0.46476 0.97774 0.0
C682 C 0.97753 0.48006 0.03553 0.0
C683 C 0.01462 0.51052 0.02777 0.0
H684 H 0.92263 0.43377 0.01867 0.0
H685 H 0.96963 0.4725 0.06078 0.0
S686 S 0.04994 0.54408 0.94431 0.0
N687 N 1.00571 0.50682 0.9382 0.0
N688 N 0.05718 0.54899 0.98443 0.0
C689 C 0.02269 0.5197 0.99466 0.0
C690 C 0.99461 0.49682 0.96957 0.0
C691 C 0.52821 0.48228 0.99785 0.0
C692 C 0.50993 0.47522 0.96711 0.0
C693 C 0.51087 0.48604 0.02638 0.0
C694 C 0.4741 0.48211 0.02557 0.0
H695 H 0.55713 0.4873 0.99971 0.0
H696 H 0.52663 0.49211 0.04934 0.0
S697 S 0.41282 0.46027 0.95127 0.0
N698 N 0.4524 0.46276 0.93748 0.0
N699 N 0.41911 0.46822 0.99136 0.0
C700 C 0.45477 0.47329 0.99513 0.0
C701 C 0.4728 0.47017 0.96591 0.0
C702 C 0.2417 0.05688 0.96758 0.0
C703 C 0.20246 0.02918 0.97098 0.0
C704 C 0.25834 0.09398 0.98351 0.0
C705 C 0.23621 0.10401 0.00371 0.0
H706 H 0.26013 0.04887 0.95448 0.0
H707 H 0.28912 0.11359 0.98203 0.0
S708 S 0.13115 0.04325 0.01669 0.0
N709 N 0.1413 0.01541 0.993 0.0
N710 N 0.17219 0.08488 0.02284 0.0
C711 C 0.19639 0.07749 0.00511 0.0
C712 C 0.1796 0.04001 0.98885 0.0
C713 C 0.97142 0.19996 0.00217 0.0
C714 C 0.9808 0.18553 0.97396 0.0
C715 C 0.9368 0.17737 0.01835 0.0
C716 C 0.90958 0.13938 0.00699 0.0
H717 H 0.9917 0.22862 0.01274 0.0
H718 H 0.9319 0.1893 0.04081 0.0
S719 S 0.91801 0.08847 0.93284 0.0
N720 N 0.95856 0.13133 0.93407 0.0
N721 N 0.8929 0.08878 0.96471 0.0
C722 C 0.9172 0.1251 0.97779 0.0
C723 C 0.95293 0.14825 0.96118 0.0
C724 C 0.83256 0.73061 0.97453 0.0
C725 C 0.86316 0.75848 0.99455 0.0
C726 C 0.80633 0.73949 0.9602 0.0
C727 C 0.81035 0.77679 0.96456 0.0
H728 H 0.8265 0.7007 0.9727 0.0
H729 H 0.78067 0.71595 0.94825 0.0
S730 S 0.88962 0.86193 0.00977 0.0
N731 N 0.8989 0.82632 0.0144 0.0
N732 N 0.85018 0.84303 0.98673 0.0
C733 C 0.84328 0.80605 0.98132 0.0
C734 C 0.86951 0.79685 0.99654 0.0
C735 C 0.07047 0.26391 0.54301 0.0
C736 C 0.03761 0.22607 0.53976 0.0
C737 C 0.10576 0.2727 0.52907 0.0
C738 C 0.10909 0.24414 0.51068 0.0
H739 H 0.06796 0.2877 0.55391 0.0
H740 H 0.12922 0.30285 0.52985 0.0
S741 S 0.03345 0.13952 0.49891 0.0
N742 N 0.01231 0.15892 0.52044 0.0
N743 N 0.07806 0.17546 0.49355 0.0
C744 C 0.07753 0.20548 0.50988 0.0
C745 C 0.04192 0.1964 0.52465 0.0
C746 C 0.82946 0.8491 0.50739 0.0
C747 C 0.80906 0.82762 0.53451 0.0
C748 C 0.81718 0.87048 0.48957 0.0
C749 C 0.78352 0.8709 0.49775 0.0
H750 H 0.85419 0.84781 0.49885 0.0
H751 H 0.8333 0.88524 0.46812 0.0
S752 S 0.72122 0.82147 0.56833 0.0
N753 N 0.75504 0.80987 0.57026 0.0
N754 N 0.73146 0.84992 0.53654 0.0
C755 C 0.76405 0.85143 0.52612 0.0
C756 C 0.77688 0.82971 0.5445 0.0
C757 C 0.14332 0.95268 0.52756 0.0
C758 C 0.18339 0.97081 0.53139 0.0
C759 C 0.1218 0.91508 0.51274 0.0
C760 C 0.13961 0.8942 0.50221 0.0
H761 H 0.12899 0.96873 0.53381 0.0
H762 H 0.09137 0.90305 0.50803 0.0
S763 S 0.24347 0.92814 0.50883 0.0
N764 N 0.23981 0.96481 0.52472 0.0
N765 N 0.19925 0.89358 0.49826 0.0
C766 C 0.17926 0.91106 0.50796 0.0
C767 C 0.20123 0.94962 0.5222 0.0
C768 C 0.77952 0.92865 0.00993 0.0
C769 C 0.75935 0.89263 0.02577 0.0
C770 C 0.79544 0.96467 0.02742 0.0
C771 C 0.79202 0.96662 0.06171 0.0
H772 H 0.78299 0.92923 0.9836 0.0
H773 H 0.80998 0.99124 0.01368 0.0
S774 S 0.74295 0.88091 0.11545 0.0
N775 N 0.73766 0.86138 0.07822 0.0
N776 N 0.76747 0.92875 0.111 0.0
C777 C 0.77255 0.9308 0.07803 0.0
C778 C 0.75627 0.89404 0.06016 0.0
C779 C 0.05375 0.84313 0.99311 0.0
C780 C 0.09089 0.85015 1.00029 0.0
C781 C 0.02261 0.82115 0.01359 0.0
C782 C 0.02699 0.80539 0.04263 0.0
H783 H 0.04854 0.855 0.97142 0.0
H784 H 0.9948 0.81681 0.00662 0.0
S785 S 0.11798 0.814 0.07248 0.0
N786 N 0.13012 0.83864 0.03829 0.0
N787 N 0.07161 0.79742 0.07704 0.0
C788 C 0.06394 0.81182 0.05012 0.0
C789 C 0.09577 0.834 0.02889 0.0
C790 C 0.20102 0.27464 0.98224 0.0
C791 C 0.16225 0.24868 0.98932 0.0
C792 C 0.23 0.26771 0.99325 0.0
C793 C 0.22136 0.23523 0.01245 0.0
H794 H 0.20872 0.29884 0.96628 0.0
H795 H 0.25926 0.2871 0.9856 0.0
S796 S 0.12462 0.1609 0.04032 0.0
N797 N 0.11698 0.19074 0.01841 0.0
N798 N 0.17149 0.17862 0.03985 0.0
C799 C 0.18304 0.21072 0.02153 0.0
C800 C 0.15349 0.2172 0.00972 0.0
C801 C 0.92583 0.72586 0.52403 0.0
C802 C 0.91327 0.752 0.51696 0.0
C803 C 0.96152 0.73237 0.51281 0.0
C804 C 0.98549 0.76469 0.49345 0.0
H805 H 0.90928 0.7018 0.54011 0.0
H806 H 0.9711 0.71272 0.52034 0.0
S807 S 0.96357 0.83938 0.46557 0.0
N808 N 0.92622 0.80992 0.48779 0.0
N809 N 0.99243 0.82132 0.46591 0.0
C810 C 0.97189 0.78941 0.48443 0.0
C811 C 0.93605 0.78331 0.49644 0.0
C812 C 0.20361 0.1788 0.4883 0.0
C813 C 0.22402 0.19544 0.45956 0.0
C814 C 0.21299 0.15677 0.50847 0.0
C815 C 0.24362 0.15057 0.5013 0.0
H816 H 0.17977 0.18252 0.49526 0.0
H817 H 0.19572 0.14425 0.52994 0.0
S818 S 0.3077 0.18921 0.42985 0.0
N819 N 0.27737 0.20513 0.42542 0.0
N820 N 0.29513 0.16382 0.46365 0.0
C821 C 0.26493 0.1676 0.47301 0.0
C822 C 0.25503 0.18983 0.45206 0.0
C823 C 0.83776 0.06848 0.43113 0.0
C824 C 0.82462 0.03213 0.4458 0.0
C825 C 0.8588 0.10411 0.44915 0.0
C826 C 0.86764 0.10513 0.48273 0.0
H827 H 0.83109 0.06955 0.40561 0.0
H828 H 0.8677 0.13106 0.43663 0.0
S829 S 0.84258 0.01834 0.53246 0.0
N830 N 0.82405 0.99971 0.49579 0.0
N831 N 0.86317 0.06623 0.52946 0.0
C832 C 0.85548 0.06901 0.49753 0.0
C833 C 0.83418 0.03275 0.47917 0.0
C834 C 0.87067 0.41596 0.33608 0.0
C835 C 0.91061 0.44201 0.33452 0.0
C836 C 0.85331 0.3786 0.32089 0.0
C837 C 0.87523 0.3661 0.30348 0.0
H838 H 0.853 0.42366 0.35074 0.0
H839 H 0.82293 0.35849 0.32452 0.0
S840 S 0.98034 0.42334 0.29069 0.0
N841 N 0.97126 0.45324 0.31261 0.0
N842 N 0.93842 0.38275 0.28439 0.0
C843 C 0.91472 0.39249 0.3001 0.0
C844 C 0.93249 0.43068 0.31543 0.0
C845 C 0.58391 0.48516 0.31561 0.0
C846 C 0.58201 0.4608 0.34096 0.0
C847 C 0.61799 0.50697 0.29773 0.0
C848 C 0.65092 0.50462 0.30437 0.0
H849 H 0.55996 0.4895 0.3111 0.0
H850 H 0.61935 0.52759 0.28016 0.0
S851 S 0.65928 0.44132 0.36478 0.0
N852 N 0.61504 0.43273 0.36902 0.0
N853 N 0.67843 0.4736 0.33567 0.0
C854 C 0.64841 0.47842 0.32793 0.0
C855 C 0.61409 0.45645 0.3461 0.0
C856 C 0.5336 0.12642 0.32948 0.0
C857 C 0.52828 0.08849 0.3261 0.0
C858 C 0.50811 0.13591 0.31462 0.0
C859 C 0.476 0.10759 0.29631 0.0
H860 H 0.55595 0.1481 0.34577 0.0
H861 H 0.51117 0.16415 0.32058 0.0
S862 S 0.45212 0.00588 0.27619 0.0
N863 N 0.49136 0.02417 0.29943 0.0
N864 N 0.44276 0.04155 0.27246 0.0
C865 C 0.47251 0.07081 0.29017 0.0
C866 C 0.49886 0.06136 0.30481 0.0
C867 C 0.70485 0.52938 0.8541 0.0
C868 C 0.70089 0.55719 0.87302 0.0
C869 C 0.74003 0.53926 0.83942 0.0
C870 C 0.77269 0.57708 0.84355 0.0
H871 H 0.67969 0.50131 0.84761 0.0
H872 H 0.74084 0.51804 0.82268 0.0
S873 S 0.77856 0.6585 0.89476 0.0
N874 N 0.73346 0.62269 0.8979 0.0
N875 N 0.79979 0.64077 0.87128 0.0
C876 C 0.77014 0.60367 0.8653 0.0
C877 C 0.73414 0.59383 0.87976 0.0
C878 C 0.4274 0.17646 0.85665 0.0
C879 C 0.45107 0.20327 0.83313 0.0
C880 C 0.4398 0.15462 0.87431 0.0
C881 C 0.47644 0.15947 0.86939 0.0
H882 H 0.3982 0.1702 0.85968 0.0
H883 H 0.41976 0.13211 0.89028 0.0
S884 S 0.55108 0.22954 0.81421 0.0
N885 N 0.5143 0.23608 0.80863 0.0
N886 N 0.53724 0.19535 0.84173 0.0
C887 C 0.50116 0.18808 0.84779 0.0
C888 C 0.4886 0.20998 0.82975 0.0
C889 C 0.86239 0.29358 0.82322 0.0
C890 C 0.85482 0.30487 0.854 0.0
C891 C 0.84041 0.2552 0.8108 0.0
C892 C 0.81003 0.22628 0.82863 0.0
H893 H 0.88499 0.31477 0.80801 0.0
H894 H 0.84662 0.24832 0.78651 0.0
S895 S 0.77964 0.23914 0.9113 0.0
N896 N 0.81585 0.28313 0.90294 0.0
N897 N 0.77435 0.21035 0.87921 0.0
C898 C 0.80297 0.23629 0.86003 0.0
C899 C 0.82546 0.27578 0.87283 0.0
C900 C 0.44486 0.26158 0.34195 0.0
C901 C 0.42583 0.22538 0.3576 0.0
C902 C 0.46057 0.2974 0.35978 0.0
C903 C 0.45804 0.29891 0.39421 0.0
H904 H 0.44761 0.26244 0.31555 0.0
H905 H 0.47429 0.32414 0.34622 0.0
S906 S 0.4122 0.21261 0.44753 0.0
N907 N 0.40619 0.19354 0.41005 0.0
N908 N 0.4356 0.26049 0.44337 0.0
C909 C 0.43961 0.26293 0.4103 0.0
C910 C 0.42356 0.2264 0.39211 0.0
C911 C 0.73051 0.15468 0.38468 0.0
C912 C 0.69254 0.13987 0.37281 0.0
C913 C 0.76271 0.17671 0.36478 0.0
C914 C 0.75819 0.18509 0.33236 0.0
H915 H 0.73549 0.14926 0.40954 0.0
H916 H 0.79128 0.1884 0.37522 0.0
S917 S 0.66568 0.15177 0.28842 0.0
N918 N 0.65304 0.13434 0.32544 0.0
N919 N 0.7131 0.17546 0.28876 0.0
C920 C 0.7206 0.16985 0.31999 0.0
C921 C 0.68796 0.14738 0.33998 0.0
C922 C 0.90015 0.6048 0.32685 0.0
C923 C 0.89252 0.57257 0.34603 0.0
C924 C 0.87047 0.6108 0.31611 0.0
C925 C 0.83194 0.58419 0.32346 0.0
H926 H 0.92916 0.62458 0.31885 0.0
H927 H 0.87741 0.63471 0.3 0.0
S928 S 0.79673 0.49683 0.37462 0.0
N929 N 0.84376 0.51556 0.37381 0.0
N930 N 0.78796 0.52597 0.35282 0.0
C931 C 0.82417 0.55306 0.34394 0.0
C932 C 0.85444 0.54749 0.35549 0.0
C933 C 0.60502 0.11431 0.83155 0.0
C934 C 0.57908 0.08056 0.84851 0.0
C935 C 0.63977 0.11933 0.81934 0.0
C936 C 0.65037 0.09121 0.82437 0.0
H937 H 0.59913 0.13785 0.82886 0.0
H938 H 0.65967 0.14667 0.80807 0.0
S939 S 0.59166 0.99647 0.8651 0.0
N940 N 0.56524 0.01731 0.86739 0.0
N941 N 0.63105 0.02725 0.84563 0.0
C942 C 0.62386 0.05649 0.83985 0.0
C943 C 0.58806 0.05098 0.85158 0.0
C944 C 0.87763 0.48928 0.83965 0.0
C945 C 0.90948 0.48497 0.83284 0.0
C946 C 0.86799 0.51151 0.81999 0.0
C947 C 0.88934 0.53012 0.79215 0.0
H948 H 0.85965 0.47513 0.86043 0.0
H949 H 0.84325 0.51383 0.82661 0.0
S950 S 0.97632 0.52933 0.76383 0.0
N951 N 0.96311 0.50215 0.79661 0.0
N952 N 0.94485 0.54377 0.75931 0.0
C953 C 0.92154 0.5264 0.78505 0.0
C954 C 0.93171 0.50403 0.80549 0.0
C955 C 0.51528 0.403 0.82933 0.0
C956 C 0.53163 0.43895 0.81333 0.0
C957 C 0.49497 0.36688 0.8119 0.0
C958 C 0.4899 0.3648 0.77755 0.0
H959 H 0.51805 0.40257 0.85569 0.0
H960 H 0.48268 0.34035 0.82571 0.0
S961 S 0.52746 0.45028 0.72347 0.0
N962 N 0.5416 0.46993 0.76068 0.0
N963 N 0.50373 0.40248 0.72811 0.0
C964 C 0.5065 0.40055 0.76113 0.0
C965 C 0.52717 0.43737 0.7789 0.0
C966 C 0.5144 0.70357 0.65823 0.0
C967 C 0.53729 0.69358 0.63934 0.0
C968 C 0.53027 0.74031 0.67431 0.0
C969 C 0.56973 0.76827 0.67235 0.0
H970 H 0.48453 0.68192 0.66232 0.0
H971 H 0.51187 0.74596 0.68996 0.0
S972 S 0.6414 0.75676 0.62425 0.0
N973 N 0.60069 0.71482 0.61801 0.0
N974 N 0.6308 0.78417 0.64808 0.0
C975 C 0.59243 0.75953 0.65171 0.0
C976 C 0.57614 0.72197 0.63534 0.0
C977 C 0.2716 0.7873 0.66784 0.0
C978 C 0.24278 0.79724 0.66709 0.0
C979 C 0.30579 0.8084 0.65043 0.0
C980 C 0.3126 0.84037 0.63166 0.0
H981 H 0.2686 0.76432 0.6835 0.0
H982 H 0.32813 0.80124 0.6534 0.0
S983 S 0.24634 0.87803 0.62068 0.0
N984 N 0.22285 0.84041 0.64478 0.0
N985 N 0.28754 0.88049 0.61251 0.0
C986 C 0.28341 0.84955 0.62933 0.0
C987 C 0.24829 0.82777 0.64685 0.0
C988 C 0.16529 0.39321 0.64153 0.0
C989 C 0.19687 0.42116 0.66061 0.0
C990 C 0.13918 0.40255 0.62761 0.0
C991 C 0.14428 0.44036 0.63159 0.0
H992 H 0.15847 0.36303 0.64017 0.0
H993 H 0.113 0.37913 0.61618 0.0
S994 S 0.22614 0.52558 0.67441 0.0
N995 N 0.2345 0.48935 0.67916 0.0
N996 N 0.18601 0.50694 0.65233 0.0
C997 C 0.17805 0.46952 0.6474 0.0
C998 C 0.20419 0.45988 0.66213 0.0
C999 C 0.39803 0.92506 0.21021 0.0
C1000 C 0.36462 0.88773 0.2064 0.0
C1001 C 0.4331 0.93335 0.19614 0.0
C1002 C 0.43563 0.90482 0.17694 0.0
H1003 H 0.39609 0.94899 0.22153 0.0
H1004 H 0.45707 0.96324 0.19748 0.0
S1005 S 0.35818 0.80121 0.16336 0.0
N1006 N 0.33784 0.8209 0.18564 0.0
N1007 N 0.40317 0.83652 0.15841 0.0
C1008 C 0.40345 0.86653 0.17551 0.0
C1009 C 0.36808 0.85793 0.19048 0.0
C1010 C 0.16132 0.511 0.16774 0.0
C1011 C 0.144 0.49239 0.19683 0.0
C1012 C 0.14806 0.53187 0.15045 0.0
C1013 C 0.11626 0.53455 0.16103 0.0
H1014 H 0.18455 0.50816 0.15751 0.0
H1015 H 0.162 0.54456 0.12765 0.0
S1016 S 0.06214 0.49291 0.23716 0.0
N1017 N 0.09497 0.47982 0.2369 0.0
N1018 N 0.06927 0.51861 0.20398 0.0
C1019 C 0.09982 0.51779 0.19113 0.0
C1020 C 0.11382 0.49674 0.20909 0.0
C1021 C 0.52612 0.6101 0.19475 0.0
C1022 C 0.50812 0.63215 0.19981 0.0
C1023 C 0.50594 0.5722 0.18034 0.0
C1024 C 0.46751 0.55582 0.16978 0.0
H1025 H 0.55653 0.62308 0.20024 0.0
H1026 H 0.5214 0.55709 0.17499 0.0
S1027 S 0.40673 0.60033 0.1804 0.0
N1028 N 0.44909 0.63374 0.19596 0.0
N1029 N 0.41139 0.56301 0.16792 0.0
C1030 C 0.4487 0.57672 0.17651 0.0
C1031 C 0.46901 0.61488 0.19175 0.0
C1032 C 0.1284 0.63327 0.69071 0.0
C1033 C 0.12635 0.63541 0.72515 0.0
C1034 C 0.11313 0.59717 0.67336 0.0
C1035 C 0.09498 0.56129 0.68953 0.0
H1036 H 0.14148 0.65973 0.67678 0.0
H1037 H 0.11547 0.59755 0.64692 0.0
S1038 S 0.08271 0.55019 0.77971 0.0
N1039 N 0.10519 0.59793 0.77487 0.0
N1040 N 0.07661 0.53047 0.74247 0.0
C1041 C 0.09316 0.56295 0.72406 0.0
C1042 C 0.10879 0.59977 0.74175 0.0
C1043 C 0.35601 0.48562 0.68245 0.0
C1044 C 0.35997 0.46984 0.71165 0.0
C1045 C 0.38746 0.50772 0.66233 0.0
C1046 C 0.42453 0.51485 0.67003 0.0
H1047 H 0.32826 0.48113 0.67505 0.0
H1048 H 0.38255 0.51952 0.64045 0.0
S1049 S 0.45065 0.479 0.743 0.0
N1050 N 0.40416 0.46218 0.7469 0.0
N1051 N 0.46329 0.50362 0.70879 0.0
C1052 C 0.42903 0.49879 0.69885 0.0
C1053 C 0.39686 0.47649 0.71973 0.0
C1054 C 0.51314 0.87249 0.68547 0.0
C1055 C 0.55224 0.89983 0.68098 0.0
C1056 C 0.48437 0.87857 0.67263 0.0
C1057 C 0.49357 0.91268 0.65563 0.0
H1058 H 0.50468 0.84502 0.69696 0.0
H1059 H 0.45459 0.85566 0.67498 0.0
S1060 S 0.59171 0.99509 0.64039 0.0
N1061 N 0.59875 0.96346 0.66021 0.0
N1062 N 0.5446 0.9754 0.63726 0.0
C1063 C 0.5325 0.94146 0.65303 0.0
C1064 C 0.56184 0.93485 0.66536 0.0
C1065 C 0.27458 0.44947 0.16799 0.0
C1066 C 0.24895 0.41587 0.18525 0.0
C1067 C 0.30902 0.45432 0.15525 0.0
C1068 C 0.31966 0.42617 0.16002 0.0
H1069 H 0.26856 0.47291 0.16522 0.0
H1070 H 0.3286 0.48145 0.14355 0.0
S1071 S 0.26179 0.33189 0.20158 0.0
N1072 N 0.23546 0.35281 0.20432 0.0
N1073 N 0.30083 0.36248 0.1816 0.0
C1074 C 0.29358 0.39172 0.17604 0.0
C1075 C 0.25803 0.38637 0.18829 0.0
C1076 C 0.53241 0.84075 0.15788 0.0
C1077 C 0.55198 0.85618 0.12854 0.0
C1078 C 0.54213 0.8192 0.17837 0.0
C1079 C 0.57226 0.81229 0.17092 0.0
H1080 H 0.50896 0.84499 0.16507 0.0
H1081 H 0.52545 0.80752 0.20028 0.0
S1082 S 0.63422 0.84783 0.09795 0.0
N1083 N 0.60414 0.86407 0.09362 0.0
N1084 N 0.62244 0.82365 0.13238 0.0
C1085 C 0.59277 0.82818 0.14206 0.0
C1086 C 0.58255 0.84993 0.12082 0.0
C1087 C 0.18814 0.76886 0.11442 0.0
C1088 C 0.19664 0.77015 0.1481 0.0
C1089 C 0.16792 0.73313 0.09644 0.0
C1090 C 0.15532 0.69692 0.11121 0.0
H1091 H 0.19666 0.79567 0.10181 0.0
H1092 H 0.16144 0.73401 0.07083 0.0
S1093 S 0.17256 0.68394 0.19828 0.0
N1094 N 0.19236 0.73173 0.19514 0.0
N1095 N 0.15474 0.665 0.16151 0.0
C1096 C 0.16451 0.69784 0.14472 0.0
C1097 C 0.18496 0.73421 0.16307 0.0
C1098 C 0.39676 0.29504 0.1002 0.0
C1099 C 0.39443 0.29409 0.06559 0.0
C1100 C 0.41497 0.33055 0.11829 0.0
C1101 C 0.43165 0.36614 0.10222 0.0
H1102 H 0.38091 0.2683 0.11356 0.0
H1103 H 0.41211 0.32992 0.14469 0.0
S1104 S 0.44499 0.37921 0.01246 0.0
N1105 N 0.41847 0.33134 0.01627 0.0
N1106 N 0.45379 0.3983 0.05017 0.0
C1107 C 0.43524 0.36538 0.06783 0.0
C1108 C 0.4164 0.32919 0.04944 0.0
C1109 C 0.65754 0.03464 0.06111 0.0
C1110 C 0.63355 0.0242 0.08876 0.0
C1111 C 0.69751 0.05283 0.06449 0.0
C1112 C 0.71512 0.06194 0.09562 0.0
H1113 H 0.64537 0.02582 0.03656 0.0
H1114 H 0.7142 0.05681 0.04266 0.0
S1115 S 0.66667 0.05352 0.17506 0.0
N1116 N 0.63119 0.03289 0.1477 0.0
N1117 N 0.70652 0.06866 0.15418 0.0
C1118 C 0.69205 0.05735 0.12314 0.0
C1119 C 0.65119 0.03815 0.11969 0.0
C1120 C 0.94775 0.6279 0.05072 0.0
C1121 C 0.93768 0.63524 0.08181 0.0
C1122 C 0.96969 0.6099 0.04736 0.0
C1123 C 0.98295 0.5991 0.07502 0.0
H1124 H 0.94181 0.63924 0.02907 0.0
H1125 H 0.97892 0.60755 0.02293 0.0
S1126 S 0.95312 0.60001 0.16071 0.0
N1127 N 0.93357 0.62078 0.13991 0.0
N1128 N 0.97626 0.58842 0.13357 0.0
C1129 C 0.96828 0.60104 0.10568 0.0
C1130 C 0.94526 0.61876 0.10906 0.0
C1131 C 0.32951 0.37292 0.39237 0.0
C1132 C 0.30541 0.36405 0.41987 0.0
C1133 C 0.36943 0.39063 0.39599 0.0
C1134 C 0.38687 0.40079 0.42719 0.0
H1135 H 0.3174 0.36306 0.36789 0.0
H1136 H 0.38611 0.39307 0.37447 0.0
S1137 S 0.33859 0.39736 0.50563 0.0
N1138 N 0.3031 0.37586 0.47833 0.0
N1139 N 0.37839 0.41078 0.48512 0.0
C1140 C 0.36389 0.3981 0.45424 0.0
C1141 C 0.32307 0.37935 0.4506 0.0
C1142 C 0.62127 0.96031 0.44342 0.0
C1143 C 0.6073 0.97014 0.41565 0.0
C1144 C 0.64288 0.94193 0.44019 0.0
C1145 C 0.65076 0.93209 0.40911 0.0
H1146 H 0.61857 0.96995 0.46784 0.0
H1147 H 0.65631 0.9388 0.46195 0.0
S1148 S 0.60896 0.93812 0.32982 0.0
N1149 N 0.59476 0.95958 0.35691 0.0
N1150 N 0.63408 0.92354 0.35081 0.0
C1151 C 0.63154 0.93571 0.38168 0.0
C1152 C 0.61005 0.95507 0.38494 0.0
C1153 C 0.09681 0.70549 0.39764 0.0
C1154 C 0.09878 0.70588 0.43227 0.0
C1155 C 0.0809 0.67038 0.37908 0.0
C1156 C 0.06681 0.63472 0.39464 0.0
H1157 H 0.10405 0.73195 0.38496 0.0
H1158 H 0.07559 0.67087 0.35312 0.0
S1159 S 0.07797 0.62162 0.48288 0.0
N1160 N 0.09446 0.66898 0.48016 0.0
N1161 N 0.06538 0.6029 0.44518 0.0
C1162 C 0.07488 0.63562 0.4284 0.0
C1163 C 0.09076 0.67134 0.44734 0.0
C1164 C 0.63587 0.64239 0.94391 0.0
C1165 C 0.62529 0.62567 0.91188 0.0
C1166 C 0.65557 0.68301 0.94961 0.0
C1167 C 0.66585 0.70833 0.92344 0.0
H1168 H 0.62916 0.62399 0.9649 0.0
H1169 H 0.66374 0.69458 0.97453 0.0
S1170 S 0.64293 0.67955 0.83514 0.0
N1171 N 0.6249 0.6376 0.85392 0.0
N1172 N 0.6623 0.71405 0.86434 0.0
C1173 C 0.65464 0.69205 0.89133 0.0
C1174 C 0.63423 0.65066 0.88561 0.0
C1175 C 0.31668 0.9853 0.89577 0.0
C1176 C 0.29613 0.97775 0.92528 0.0
C1177 C 0.35697 0.0043 0.89579 0.0
C1178 C 0.37804 0.01674 0.92537 0.0
H1179 H 0.30162 0.97895 0.87239 0.0
H1180 H 0.37165 0.01247 0.87261 0.0
S1181 S 0.33795 0.99776 0.00917 0.0
N1182 N 0.29972 0.97918 0.98466 0.0
N1183 N 0.37548 0.01506 0.98491 0.0
C1184 C 0.3577 0.00575 0.95499 0.0
C1185 C 0.31667 0.98612 0.95492 0.0
C1186 C 0.02733 0.3371 0.93886 0.0
C1187 C 0.03468 0.32224 0.91 0.0
C1188 C 0.0072 0.35726 0.93763 0.0
C1189 C 0.99416 0.36346 0.90754 0.0
H1190 H 0.03338 0.32955 0.96254 0.0
H1191 H 0.99873 0.36489 0.96054 0.0
S1192 S 0.01392 0.33784 0.82494 0.0
N1193 N 0.03346 0.32091 0.85036 0.0
N1194 N 0.99566 0.35884 0.84825 0.0
C1195 C 1.00574 0.35321 0.87849 0.0
C1196 C 0.02598 0.33248 0.8797 0.0
C1197 C 0.69068 0.67717 0.6227 0.0
C1198 C 0.71131 0.68445 0.59325 0.0
C1199 C 0.65035 0.65527 0.62281 0.0
C1200 C 0.62931 0.64015 0.59341 0.0
H1201 H 0.70573 0.69085 0.64562 0.0
H1202 H 0.6357 0.65343 0.6455 0.0
S1203 S 0.66925 0.64477 0.51067 0.0
N1204 N 0.70756 0.66999 0.53474 0.0
N1205 N 0.63174 0.62893 0.53481 0.0
C1206 C 0.64958 0.64375 0.56435 0.0
C1207 C 0.69064 0.66583 0.56429 0.0
C1208 C 0.33352 0.01571 0.54989 0.0
C1209 C 0.32328 0.02623 0.5796 0.0
C1210 C 0.35275 0.99461 0.54968 0.0
C1211 C 0.36291 0.98399 0.57912 0.0
H1212 H 0.3234 0.02035 0.52682 0.0
H1213 H 0.35719 0.98405 0.52628 0.0
S1214 S 0.34938 0.01186 0.66315 0.0
N1215 N 0.32986 0.03002 0.63905 0.0
N1216 N 0.36631 0.99069 0.63849 0.0
C1217 C 0.35686 0.99841 0.60881 0.0
C1218 C 0.33692 0.01949 0.60906 0.0
C1219 C 0.99502 0.35729 0.56001 0.0
C1220 C 1.001 0.37458 0.5918 0.0
C1221 C 0.97431 0.31658 0.55486 0.0
C1222 C 0.95933 0.29177 0.58137 0.0
H1223 H 0.00686 0.37531 0.53883 0.0
H1224 H 0.9712 0.30453 0.53015 0.0
S1225 S 0.96411 0.32209 0.6691 0.0
N1226 N 0.98803 0.36368 0.64982 0.0
N1227 N 0.94943 0.28708 0.64039 0.0
C1228 C 0.96393 0.30861 0.61318 0.0
C1229 C 0.98467 0.35007 0.61835 0.0
C1230 C 0.9954 0.71092 0.72889 0.0
C1231 C 0.97157 0.69908 0.75668 0.0
C1232 C 0.03533 0.72823 0.7319 0.0
C1233 C 0.05311 0.73512 0.76283 0.0
H1234 H 0.98304 0.70376 0.70434 0.0
H1235 H 0.0518 0.73324 0.70978 0.0
S1236 S 1.00536 0.72271 0.84323 0.0
N1237 N 0.96971 0.70427 0.81601 0.0
N1238 N 0.04499 0.73852 0.8219 0.0
C1239 C 0.03031 0.72932 0.7908 0.0
C1240 C 0.98947 0.71096 0.78769 0.0
C1241 C 0.28759 0.29091 0.77822 0.0
C1242 C 0.27305 0.30018 0.75048 0.0
C1243 C 0.30952 0.27287 0.77498 0.0
C1244 C 0.31716 0.26275 0.74393 0.0
H1245 H 0.28504 0.30067 0.80264 0.0
H1246 H 0.32324 0.27011 0.79672 0.0
S1247 S 0.27395 0.2672 0.66484 0.0
N1248 N 0.25988 0.28884 0.69187 0.0
N1249 N 0.29965 0.25326 0.68576 0.0
C1250 C 0.29748 0.26585 0.71657 0.0
C1251 C 0.27573 0.28496 0.71983 0.0
C1252 C 0.72279 0.95744 0.77457 0.0
C1253 C 0.72358 0.9565 0.7399 0.0
C1254 C 0.74178 0.99288 0.79271 0.0
C1255 C 0.76243 0.02833 0.77669 0.0
H1256 H 0.70416 0.93108 0.78762 0.0
H1257 H 0.73648 0.99269 0.81875 0.0
S1258 S 0.78465 0.04032 0.68802 0.0
N1259 N 0.75455 0.99287 0.6914 0.0
N1260 N 0.79132 0.05956 0.72556 0.0
C1261 C 0.76898 0.02701 0.74283 0.0
C1262 C 0.74929 0.99095 0.72432 0.0
C1263 C 0.30589 0.98267 0.22028 0.0
C1264 C 0.28941 0.95766 0.24649 0.0
C1265 C 0.32709 0.02334 0.22575 0.0
C1266 C 0.33208 0.04038 0.25756 0.0
H1267 H 0.30346 0.97078 0.19559 0.0
H1268 H 0.33995 0.04153 0.20481 0.0
S1269 S 0.29158 0.98732 0.33407 0.0
N1270 N 0.27735 0.95256 0.3052 0.0
N1271 N 0.31692 0.02902 0.31522 0.0
C1272 C 0.31452 0.01567 0.28378 0.0
C1273 C 0.29324 0.97428 0.27829 0.0
C1274 C 0.98364 0.31649 0.22711 0.0
C1275 C 0.96329 0.30952 0.25669 0.0
C1276 C 0.02398 0.33655 0.22691 0.0
C1277 C 0.04523 0.35052 0.25632 0.0
H1278 H 0.96834 0.30906 0.20378 0.0
H1279 H 0.03843 0.34437 0.20362 0.0
S1280 S 0.00601 0.33358 0.3404 0.0
N1281 N 0.96751 0.31319 0.31612 0.0
N1282 N 0.0433 0.35083 0.3159 0.0
C1283 C 0.02522 0.33998 0.2861 0.0
C1284 C 0.98419 0.31939 0.28628 0.0
C1285 C 0.68431 0.65856 0.27573 0.0
C1286 C 0.69365 0.64643 0.24638 0.0
C1287 C 0.66251 0.67698 0.27529 0.0
C1288 C 0.64968 0.6842 0.24552 0.0
H1289 H 0.69065 0.65053 0.29907 0.0
H1290 H 0.65331 0.68314 0.29849 0.0
S1291 S 0.67319 0.6648 0.16213 0.0
N1292 N 0.69356 0.64806 0.18683 0.0
N1293 N 0.65272 0.68285 0.18619 0.0
C1294 C 0.66254 0.67617 0.21613 0.0
C1295 C 0.68447 0.65715 0.21654 0.0
loop_
_geom_bond_atom_site_label_1
_geom_bond_atom_site_label_2
_geom_bond_distance
_geom_bond_site_symmetry_2
_ccdc_geom_bond_type
Co0 O1 2.216 . S
Co0 O2 2.091 . S
Co0 O4 2.004 . S
Co0 O10 2.021 . S
Co0 O12 2.137 . S
Co0 O13 2.244 . S
O1 Co0 2.216 . S
O1 C8 1.247 . S
O2 Co0 2.091 . S
O2 C8 1.261 . S
C3 O12 1.247 . S
C3 O13 1.272 . S
O4 Co0 2.004 . S
O4 C9 1.259 . S
Co5 O6 2.061 1_556 S
Co5 O11 2.052 1_556 S
Co5 O13 2.135 1_556 S
O6 Co5 2.061 1_554 S
O6 C9 1.235 . S
C7 O10 1.238 . S
C7 O11 1.241 . S
C8 O1 1.247 . S
C8 O2 1.261 . S
C9 O4 1.259 . S
C9 O6 1.235 . S
O10 Co0 2.021 . S
O10 C7 1.238 . S
O11 Co5 2.052 1_554 S
O11 C7 1.241 . S
O12 Co0 2.137 . S
O12 C3 1.247 . S
O13 Co0 2.244 . S
O13 C3 1.272 . S
O13 Co5 2.135 1_554 S
Co14 O15 2.216 . S
Co14 O16 2.091 . S
Co14 O18 2.004 . S
Co14 O24 2.021 . S
Co14 O26 2.137 . S
Co14 O27 2.244 . S
O15 Co14 2.216 . S
O15 C22 1.247 . S
O16 Co14 2.091 . S
O16 C22 1.261 . S
C17 O26 1.247 . S
C17 O27 1.272 . S
O18 Co14 2.004 . S
O18 C23 1.259 . S
Co19 O20 2.061 . S
Co19 O25 2.052 . S
Co19 O27 2.135 . S
O20 Co19 2.061 . S
O20 C23 1.235 . S
C21 O24 1.238 . S
C21 O25 1.241 . S
C22 O15 1.247 . S
C22 O16 1.261 . S
C23 O18 1.259 . S
C23 O20 1.235 . S
O24 Co14 2.021 . S
O24 C21 1.238 . S
O25 Co19 2.052 . S
O25 C21 1.241 . S
O26 Co14 2.137 . S
O26 C17 1.247 . S
O27 Co14 2.244 . S
O27 C17 1.272 . S
O27 Co19 2.135 . S
Co28 O29 2.216 . S
Co28 O30 2.091 . S
Co28 O32 2.004 . S
Co28 O38 2.021 . S
Co28 O40 2.137 . S
Co28 O41 2.244 . S
O29 Co28 2.216 . S
O29 C36 1.247 . S
O30 Co28 2.091 . S
O30 C36 1.261 . S
C31 O40 1.247 . S
C31 O41 1.272 . S
O32 Co28 2.004 . S
O32 C37 1.259 . S
Co33 O34 2.061 . S
Co33 O39 2.052 . S
Co33 O41 2.135 . S
O34 Co33 2.061 . S
O34 C37 1.235 . S
C35 O38 1.238 . S
C35 O39 1.241 . S
C36 O29 1.247 . S
C36 O30 1.261 . S
C37 O32 1.259 . S
C37 O34 1.235 . S
O38 Co28 2.021 . S
O38 C35 1.238 . S
O39 Co33 2.052 . S
O39 C35 1.241 . S
O40 Co28 2.137 . S
O40 C31 1.247 . S
O41 Co28 2.244 . S
O41 C31 1.272 . S
O41 Co33 2.135 . S
Co42 O43 2.216 . S
Co42 O44 2.091 . S
Co42 O46 2.004 . S
Co42 O52 2.021 . S
Co42 O54 2.137 . S
Co42 O55 2.244 . S
O43 Co42 2.216 . S
O43 C50 1.247 . S
O44 Co42 2.091 . S
O44 C50 1.261 . S
C45 O54 1.247 . S
C45 O55 1.272 . S
O46 Co42 2.004 . S
O46 C51 1.259 . S
Co47 O48 2.061 . S
Co47 O53 2.052 . S
Co47 O55 2.135 . S
O48 Co47 2.061 . S
O48 C51 1.235 . S
C49 O52 1.238 . S
C49 O53 1.241 . S
C50 O43 1.247 . S
C50 O44 1.261 . S
C51 O46 1.259 . S
C51 O48 1.235 . S
O52 Co42 2.021 . S
O52 C49 1.238 . S
O53 Co47 2.052 . S
O53 C49 1.241 . S
O54 Co42 2.137 . S
O54 C45 1.247 . S
O55 Co42 2.244 . S
O55 C45 1.272 . S
O55 Co47 2.135 . S
Co56 O57 2.216 . S
Co56 O58 2.091 . S
Co56 O60 2.004 . S
Co56 O66 2.021 . S
Co56 O68 2.137 . S
Co56 O69 2.244 . S
O57 Co56 2.216 . S
O57 C64 1.247 . S
O58 Co56 2.091 . S
O58 C64 1.261 . S
C59 O68 1.247 . S
C59 O69 1.272 . S
O60 Co56 2.004 . S
O60 C65 1.259 . S
Co61 O62 2.061 . S
Co61 O67 2.052 . S
Co61 O69 2.135 . S
O62 Co61 2.061 . S
O62 C65 1.235 . S
C63 O66 1.238 . S
C63 O67 1.241 . S
C64 O57 1.247 . S
C64 O58 1.261 . S
C65 O60 1.259 . S
C65 O62 1.235 . S
O66 Co56 2.021 . S
O66 C63 1.238 . S
O67 Co61 2.052 . S
O67 C63 1.241 . S
O68 Co56 2.137 . S
O68 C59 1.247 . S
O69 Co56 2.244 . S
O69 C59 1.272 . S
O69 Co61 2.135 . S
Co70 O71 2.216 . S
Co70 O72 2.091 . S
Co70 O74 2.004 . S
Co70 O80 2.021 . S
Co70 O82 2.137 . S
Co70 O83 2.244 . S
O71 Co70 2.216 . S
O71 C78 1.247 . S
O72 Co70 2.091 . S
O72 C78 1.261 . S
C73 O82 1.247 . S
C73 O83 1.272 . S
O74 Co70 2.004 . S
O74 C79 1.259 . S
Co75 O76 2.061 . S
Co75 O81 2.052 . S
Co75 O83 2.135 . S
O76 Co75 2.061 . S
O76 C79 1.235 . S
C77 O80 1.238 . S
C77 O81 1.241 . S
C78 O71 1.247 . S
C78 O72 1.261 . S
C79 O74 1.259 . S
C79 O76 1.235 . S
O80 Co70 2.021 . S
O80 C77 1.238 . S
O81 Co75 2.052 . S
O81 C77 1.241 . S
O82 Co70 2.137 . S
O82 C73 1.247 . S
O83 Co70 2.244 . S
O83 C73 1.272 . S
O83 Co75 2.135 . S
Co84 O85 2.216 . S
Co84 O86 2.091 . S
Co84 O88 2.004 . S
Co84 O94 2.021 . S
Co84 O96 2.137 . S
Co84 O97 2.244 . S
O85 Co84 2.216 . S
O85 C92 1.247 . S
O86 Co84 2.091 . S
O86 C92 1.261 . S
C87 O96 1.247 . S
C87 O97 1.272 . S
O88 Co84 2.004 . S
O88 C93 1.259 . S
Co89 O90 2.061 1_554 S
Co89 O95 2.052 1_554 S
Co89 O97 2.135 1_554 S
O90 Co89 2.061 1_556 S
O90 C93 1.235 . S
C91 O94 1.238 . S
C91 O95 1.241 . S
C92 O85 1.247 . S
C92 O86 1.261 . S
C93 O88 1.259 . S
C93 O90 1.235 . S
O94 Co84 2.021 . S
O94 C91 1.238 . S
O95 Co89 2.052 1_556 S
O95 C91 1.241 . S
O96 Co84 2.137 . S
O96 C87 1.247 . S
O97 Co84 2.244 . S
O97 C87 1.272 . S
O97 Co89 2.135 1_556 S
Co98 O99 2.216 . S
Co98 O100 2.091 . S
Co98 O102 2.004 . S
Co98 O108 2.021 . S
Co98 O110 2.137 . S
Co98 O111 2.244 . S
O99 Co98 2.216 . S
O99 C106 1.247 . S
O100 Co98 2.091 . S
O100 C106 1.261 . S
C101 O110 1.247 . S
C101 O111 1.272 . S
O102 Co98 2.004 . S
O102 C107 1.259 . S
Co103 O104 2.061 . S
Co103 O109 2.052 . S
Co103 O111 2.135 . S
O104 Co103 2.061 . S
O104 C107 1.235 . S
C105 O108 1.238 . S
C105 O109 1.241 . S
C106 O99 1.247 . S
C106 O100 1.261 . S
C107 O102 1.259 . S
C107 O104 1.235 . S
O108 Co98 2.021 . S
O108 C105 1.238 . S
O109 Co103 2.052 . S
O109 C105 1.241 . S
O110 Co98 2.137 . S
O110 C101 1.247 . S
O111 Co98 2.244 . S
O111 C101 1.272 . S
O111 Co103 2.135 . S
Co112 O113 2.216 . S
Co112 O114 2.091 . S
Co112 O116 2.004 . S
Co112 O122 2.021 . S
Co112 O124 2.137 . S
Co112 O125 2.244 . S
O113 Co112 2.216 . S
O113 C120 1.247 . S
O114 Co112 2.091 . S
O114 C120 1.261 . S
C115 O124 1.247 . S
C115 O125 1.272 . S
O116 Co112 2.004 . S
O116 C121 1.259 . S
Co117 O118 2.061 . S
Co117 O123 2.052 . S
Co117 O125 2.135 . S
O118 Co117 2.061 . S
O118 C121 1.235 . S
C119 O122 1.238 . S
C119 O123 1.241 . S
C120 O113 1.247 . S
C120 O114 1.261 . S
C121 O116 1.259 . S
C121 O118 1.235 . S
O122 Co112 2.021 . S
O122 C119 1.238 . S
O123 Co117 2.052 . S
O123 C119 1.241 . S
O124 Co112 2.137 . S
O124 C115 1.247 . S
O125 Co112 2.244 . S
O125 C115 1.272 . S
O125 Co117 2.135 . S
Co126 O127 2.216 . S
Co126 O128 2.091 . S
Co126 O130 2.004 . S
Co126 O136 2.021 . S
Co126 O138 2.137 . S
Co126 O139 2.244 . S
O127 Co126 2.216 . S
O127 C134 1.247 . S
O128 Co126 2.091 . S
O128 C134 1.261 . S
C129 O138 1.247 . S
C129 O139 1.272 . S
O130 Co126 2.004 . S
O130 C135 1.259 . S
Co131 O132 2.061 . S
Co131 O137 2.052 . S
Co131 O139 2.135 . S
O132 Co131 2.061 . S
O132 C135 1.235 . S
C133 O136 1.238 . S
C133 O137 1.241 . S
C134 O127 1.247 . S
C134 O128 1.261 . S
C135 O130 1.259 . S
C135 O132 1.235 . S
O136 Co126 2.021 . S
O136 C133 1.238 . S
O137 Co131 2.052 . S
O137 C133 1.241 . S
O138 Co126 2.137 . S
O138 C129 1.247 . S
O139 Co126 2.244 . S
O139 C129 1.272 . S
O139 Co131 2.135 . S
Co140 O141 2.216 . S
Co140 O142 2.091 . S
Co140 O144 2.004 . S
Co140 O150 2.021 . S
Co140 O152 2.137 . S
Co140 O153 2.244 . S
O141 Co140 2.216 . S
O141 C148 1.247 . S
O142 Co140 2.091 . S
O142 C148 1.261 . S
C143 O152 1.247 . S
C143 O153 1.272 . S
O144 Co140 2.004 . S
O144 C149 1.259 . S
Co145 O146 2.061 . S
Co145 O151 2.052 . S
Co145 O153 2.135 . S
O146 Co145 2.061 . S
O146 C149 1.235 . S
C147 O150 1.238 . S
C147 O151 1.241 . S
C148 O141 1.247 . S
C148 O142 1.261 . S
C149 O144 1.259 . S
C149 O146 1.235 . S
O150 Co140 2.021 . S
O150 C147 1.238 . S
O151 Co145 2.052 . S
O151 C147 1.241 . S
O152 Co140 2.137 . S
O152 C143 1.247 . S
O153 Co140 2.244 . S
O153 C143 1.272 . S
O153 Co145 2.135 . S
Co154 O155 2.216 . S
Co154 O156 2.091 . S
Co154 O158 2.004 . S
Co154 O164 2.021 . S
Co154 O166 2.137 . S
Co154 O167 2.244 . S
O155 Co154 2.216 . S
O155 C162 1.247 . S
O156 Co154 2.091 . S
O156 C162 1.261 . S
C157 O166 1.247 . S
C157 O167 1.272 . S
O158 Co154 2.004 . S
O158 C163 1.259 . S
Co159 O160 2.061 . S
Co159 O165 2.052 . S
Co159 O167 2.135 . S
O160 Co159 2.061 . S
O160 C163 1.235 . S
C161 O164 1.238 . S
C161 O165 1.241 . S
C162 O155 1.247 . S
C162 O156 1.261 . S
C163 O158 1.259 . S
C163 O160 1.235 . S
O164 Co154 2.021 . S
O164 C161 1.238 . S
O165 Co159 2.052 . S
O165 C161 1.241 . S
O166 Co154 2.137 . S
O166 C157 1.247 . S
O167 Co154 2.244 . S
O167 C157 1.272 . S
O167 Co159 2.135 . S
Co168 O169 2.216 . S
Co168 O170 2.091 . S
Co168 O172 2.004 . S
Co168 O178 2.021 . S
Co168 O180 2.137 . S
Co168 O181 2.244 . S
O169 Co168 2.216 . S
O169 C176 1.247 . S
O170 Co168 2.091 . S
O170 C176 1.261 . S
C171 O180 1.247 . S
C171 O181 1.272 . S
O172 Co168 2.004 . S
O172 C177 1.259 . S
Co173 O174 2.061 . S
Co173 O179 2.052 . S
Co173 O181 2.135 . S
O174 Co173 2.061 . S
O174 C177 1.235 . S
C175 O178 1.238 . S
C175 O179 1.241 . S
C176 O169 1.247 . S
C176 O170 1.261 . S
C177 O172 1.259 . S
C177 O174 1.235 . S
O178 Co168 2.021 . S
O178 C175 1.238 . S
O179 Co173 2.052 . S
O179 C175 1.241 . S
O180 Co168 2.137 . S
O180 C171 1.247 . S
O181 Co168 2.244 . S
O181 C171 1.272 . S
O181 Co173 2.135 . S
Co182 O183 2.216 . S
Co182 O184 2.091 . S
Co182 O186 2.004 . S
Co182 O192 2.021 . S
Co182 O194 2.137 . S
Co182 O195 2.244 . S
O183 Co182 2.216 . S
O183 C190 1.247 . S
O184 Co182 2.091 . S
O184 C190 1.261 . S
C185 O194 1.247 . S
C185 O195 1.272 . S
O186 Co182 2.004 . S
O186 C191 1.259 . S
Co187 O188 2.061 . S
Co187 O193 2.052 . S
Co187 O195 2.135 . S
O188 Co187 2.061 . S
O188 C191 1.235 . S
C189 O192 1.238 . S
C189 O193 1.241 . S
C190 O183 1.247 . S
C190 O184 1.261 . S
C191 O186 1.259 . S
C191 O188 1.235 . S
O192 Co182 2.021 . S
O192 C189 1.238 . S
O193 Co187 2.052 . S
O193 C189 1.241 . S
O194 Co182 2.137 . S
O194 C185 1.247 . S
O195 Co182 2.244 . S
O195 C185 1.272 . S
O195 Co187 2.135 . S
Co196 O197 2.216 . S
Co196 O198 2.091 . S
Co196 O200 2.004 . S
Co196 O206 2.021 . S
Co196 O208 2.137 . S
Co196 O209 2.244 . S
O197 Co196 2.216 . S
O197 C204 1.247 . S
O198 Co196 2.091 . S
O198 C204 1.261 . S
C199 O208 1.247 . S
C199 O209 1.272 . S
O200 Co196 2.004 . S
O200 C205 1.259 . S
Co201 O202 2.061 . S
Co201 O207 2.052 . S
Co201 O209 2.135 . S
O202 Co201 2.061 . S
O202 C205 1.235 . S
C203 O206 1.238 . S
C203 O207 1.241 . S
C204 O197 1.247 . S
C204 O198 1.261 . S
C205 O200 1.259 . S
C205 O202 1.235 . S
O206 Co196 2.021 . S
O206 C203 1.238 . S
O207 Co201 2.052 . S
O207 C203 1.241 . S
O208 Co196 2.137 . S
O208 C199 1.247 . S
O209 Co196 2.244 . S
O209 C199 1.272 . S
O209 Co201 2.135 . S
Co210 O211 2.216 . S
Co210 O212 2.091 . S
Co210 O214 2.004 . S
Co210 O220 2.021 . S
Co210 O222 2.137 . S
Co210 O223 2.244 . S
O211 Co210 2.216 . S
O211 C218 1.247 . S
O212 Co210 2.091 . S
O212 C218 1.261 . S
C213 O222 1.247 . S
C213 O223 1.272 . S
O214 Co210 2.004 . S
O214 C219 1.259 . S
Co215 O216 2.061 . S
Co215 O221 2.052 . S
Co215 O223 2.135 . S
O216 Co215 2.061 . S
O216 C219 1.235 . S
C217 O220 1.238 . S
C217 O221 1.241 . S
C218 O211 1.247 . S
C218 O212 1.261 . S
C219 O214 1.259 . S
C219 O216 1.235 . S
O220 Co210 2.021 . S
O220 C217 1.238 . S
O221 Co215 2.052 . S
O221 C217 1.241 . S
O222 Co210 2.137 . S
O222 C213 1.247 . S
O223 Co210 2.244 . S
O223 C213 1.272 . S
O223 Co215 2.135 . S
Co224 O225 2.216 . S
Co224 O226 2.091 . S
Co224 O228 2.004 . S
Co224 O234 2.021 . S
Co224 O236 2.137 . S
Co224 O237 2.244 . S
O225 Co224 2.216 . S
O225 C232 1.247 . S
O226 Co224 2.091 . S
O226 C232 1.261 . S
C227 O236 1.247 . S
C227 O237 1.272 . S
O228 Co224 2.004 . S
O228 C233 1.259 . S
Co229 O230 2.061 . S
Co229 O235 2.052 . S
Co229 O237 2.135 . S
O230 Co229 2.061 . S
O230 C233 1.235 . S
C231 O234 1.238 . S
C231 O235 1.241 . S
C232 O225 1.247 . S
C232 O226 1.261 . S
C233 O228 1.259 . S
C233 O230 1.235 . S
O234 Co224 2.021 . S
O234 C231 1.238 . S
O235 Co229 2.052 . S
O235 C231 1.241 . S
O236 Co224 2.137 . S
O236 C227 1.247 . S
O237 Co224 2.244 . S
O237 C227 1.272 . S
O237 Co229 2.135 . S
Co238 O239 2.216 . S
Co238 O240 2.091 . S
Co238 O242 2.004 . S
Co238 O248 2.021 . S
Co238 O250 2.137 . S
Co238 O251 2.244 . S
O239 Co238 2.216 . S
O239 C246 1.247 . S
O240 Co238 2.091 . S
O240 C246 1.261 . S
C241 O250 1.247 . S
C241 O251 1.272 . S
O242 Co238 2.004 . S
O242 C247 1.259 . S
Co243 O244 2.061 . S
Co243 O249 2.052 . S
Co243 O251 2.135 . S
O244 Co243 2.061 . S
O244 C247 1.235 . S
C245 O248 1.238 . S
C245 O249 1.241 . S
C246 O239 1.247 . S
C246 O240 1.261 . S
C247 O242 1.259 . S
C247 O244 1.235 . S
O248 Co238 2.021 . S
O248 C245 1.238 . S
O249 Co243 2.052 . S
O249 C245 1.241 . S
O250 Co238 2.137 . S
O250 C241 1.247 . S
O251 Co238 2.244 . S
O251 C241 1.272 . S
O251 Co243 2.135 . S
Co252 O253 2.216 . S
Co252 O254 2.091 . S
Co252 O256 2.004 . S
Co252 O262 2.021 . S
Co252 O264 2.137 . S
Co252 O265 2.244 . S
O253 Co252 2.216 . S
O253 C260 1.247 . S
O254 Co252 2.091 . S
O254 C260 1.261 . S
C255 O264 1.247 . S
C255 O265 1.272 . S
O256 Co252 2.004 . S
O256 C261 1.259 . S
Co257 O258 2.061 . S
Co257 O263 2.052 . S
Co257 O265 2.135 . S
O258 Co257 2.061 . S
O258 C261 1.235 . S
C259 O262 1.238 . S
C259 O263 1.241 . S
C260 O253 1.247 . S
C260 O254 1.261 . S
C261 O256 1.259 . S
C261 O258 1.235 . S
O262 Co252 2.021 . S
O262 C259 1.238 . S
O263 Co257 2.052 . S
O263 C259 1.241 . S
O264 Co252 2.137 . S
O264 C255 1.247 . S
O265 Co252 2.244 . S
O265 C255 1.272 . S
O265 Co257 2.135 . S
Co266 O267 2.216 . S
Co266 O268 2.091 . S
Co266 O270 2.004 . S
Co266 O276 2.021 . S
Co266 O278 2.137 . S
Co266 O279 2.244 . S
O267 Co266 2.216 . S
O267 C274 1.247 . S
O268 Co266 2.091 . S
O268 C274 1.261 . S
C269 O278 1.247 . S
C269 O279 1.272 . S
O270 Co266 2.004 . S
O270 C275 1.259 . S
Co271 O272 2.061 . S
Co271 O277 2.052 . S
Co271 O279 2.135 . S
O272 Co271 2.061 . S
O272 C275 1.235 . S
C273 O276 1.238 . S
C273 O277 1.241 . S
C274 O267 1.247 . S
C274 O268 1.261 . S
C275 O270 1.259 . S
C275 O272 1.235 . S
O276 Co266 2.021 . S
O276 C273 1.238 . S
O277 Co271 2.052 . S
O277 C273 1.241 . S
O278 Co266 2.137 . S
O278 C269 1.247 . S
O279 Co266 2.244 . S
O279 C269 1.272 . S
O279 Co271 2.135 . S
Co280 O281 2.216 . S
Co280 O282 2.091 . S
Co280 O284 2.004 . S
Co280 O290 2.021 . S
Co280 O292 2.137 . S
Co280 O293 2.244 . S
O281 Co280 2.216 . S
O281 C288 1.247 . S
O282 Co280 2.091 . S
O282 C288 1.261 . S
C283 O292 1.247 . S
C283 O293 1.272 . S
O284 Co280 2.004 . S
O284 C289 1.259 . S
Co285 O286 2.061 . S
Co285 O291 2.052 . S
Co285 O293 2.135 . S
O286 Co285 2.061 . S
O286 C289 1.235 . S
C287 O290 1.238 . S
C287 O291 1.241 . S
C288 O281 1.247 . S
C288 O282 1.261 . S
C289 O284 1.259 . S
C289 O286 1.235 . S
O290 Co280 2.021 . S
O290 C287 1.238 . S
O291 Co285 2.052 . S
O291 C287 1.241 . S
O292 Co280 2.137 . S
O292 C283 1.247 . S
O293 Co280 2.244 . S
O293 C283 1.272 . S
O293 Co285 2.135 . S
Co294 O295 2.216 . S
Co294 O296 2.091 . S
Co294 O298 2.004 . S
Co294 O304 2.021 . S
Co294 O306 2.137 . S
Co294 O307 2.244 . S
O295 Co294 2.216 . S
O295 C302 1.247 . S
O296 Co294 2.091 . S
O296 C302 1.261 . S
C297 O306 1.247 . S
C297 O307 1.272 . S
O298 Co294 2.004 . S
O298 C303 1.259 . S
Co299 O300 2.061 . S
Co299 O305 2.052 . S
Co299 O307 2.135 . S
O300 Co299 2.061 . S
O300 C303 1.235 . S
C301 O304 1.238 . S
C301 O305 1.241 . S
C302 O295 1.247 . S
C302 O296 1.261 . S
C303 O298 1.259 . S
C303 O300 1.235 . S
O304 Co294 2.021 . S
O304 C301 1.238 . S
O305 Co299 2.052 . S
O305 C301 1.241 . S
O306 Co294 2.137 . S
O306 C297 1.247 . S
O307 Co294 2.244 . S
O307 C297 1.272 . S
O307 Co299 2.135 . S
Co308 O309 2.216 . S
Co308 O310 2.091 . S
Co308 O312 2.004 . S
Co308 O318 2.021 . S
Co308 O320 2.137 . S
Co308 O321 2.244 . S
O309 Co308 2.216 . S
O309 C316 1.247 . S
O310 Co308 2.091 . S
O310 C316 1.261 . S
C311 O320 1.247 . S
C311 O321 1.272 . S
O312 Co308 2.004 . S
O312 C317 1.259 . S
Co313 O314 2.061 . S
Co313 O319 2.052 . S
Co313 O321 2.135 . S
O314 Co313 2.061 . S
O314 C317 1.235 . S
C315 O318 1.238 . S
C315 O319 1.241 . S
C316 O309 1.247 . S
C316 O310 1.261 . S
C317 O312 1.259 . S
C317 O314 1.235 . S
O318 Co308 2.021 . S
O318 C315 1.238 . S
O319 Co313 2.052 . S
O319 C315 1.241 . S
O320 Co308 2.137 . S
O320 C311 1.247 . S
O321 Co308 2.244 . S
O321 C311 1.272 . S
O321 Co313 2.135 . S
Co322 O323 2.216 . S
Co322 O324 2.091 . S
Co322 O326 2.004 . S
Co322 O332 2.021 . S
Co322 O334 2.137 . S
Co322 O335 2.244 . S
O323 Co322 2.216 . S
O323 C330 1.247 . S
O324 Co322 2.091 . S
O324 C330 1.261 . S
C325 O334 1.247 . S
C325 O335 1.272 . S
O326 Co322 2.004 . S
O326 C331 1.259 . S
Co327 O328 2.061 . S
Co327 O333 2.052 . S
Co327 O335 2.135 . S
O328 Co327 2.061 . S
O328 C331 1.235 . S
C329 O332 1.238 . S
C329 O333 1.241 . S
C330 O323 1.247 . S
C330 O324 1.261 . S
C331 O326 1.259 . S
C331 O328 1.235 . S
O332 Co322 2.021 . S
O332 C329 1.238 . S
O333 Co327 2.052 . S
O333 C329 1.241 . S
O334 Co322 2.137 . S
O334 C325 1.247 . S
O335 Co322 2.244 . S
O335 C325 1.272 . S
O335 Co327 2.135 . S
Co336 O337 2.216 . S
Co336 O338 2.091 . S
Co336 O340 2.004 . S
Co336 O346 2.021 . S
Co336 O348 2.137 . S
Co336 O349 2.244 . S
O337 Co336 2.216 . S
O337 C344 1.247 . S
O338 Co336 2.091 . S
O338 C344 1.261 . S
C339 O348 1.247 . S
C339 O349 1.272 . S
O340 Co336 2.004 . S
O340 C345 1.259 . S
Co341 O342 2.061 . S
Co341 O347 2.052 . S
Co341 O349 2.135 . S
O342 Co341 2.061 . S
O342 C345 1.235 . S
C343 O346 1.238 . S
C343 O347 1.241 . S
C344 O337 1.247 . S
C344 O338 1.261 . S
C345 O340 1.259 . S
C345 O342 1.235 . S
O346 Co336 2.021 . S
O346 C343 1.238 . S
O347 Co341 2.052 . S
O347 C343 1.241 . S
O348 Co336 2.137 . S
O348 C339 1.247 . S
O349 Co336 2.244 . S
O349 C339 1.272 . S
O349 Co341 2.135 . S
Co350 O351 2.216 . S
Co350 O352 2.091 . S
Co350 O354 2.004 . S
Co350 O360 2.021 . S
Co350 O362 2.137 . S
Co350 O363 2.244 . S
O351 Co350 2.216 . S
O351 C358 1.247 . S
O352 Co350 2.091 . S
O352 C358 1.261 . S
C353 O362 1.247 . S
C353 O363 1.272 . S
O354 Co350 2.004 . S
O354 C359 1.259 . S
Co355 O356 2.061 . S
Co355 O361 2.052 . S
Co355 O363 2.135 . S
O356 Co355 2.061 . S
O356 C359 1.235 . S
C357 O360 1.238 . S
C357 O361 1.241 . S
C358 O351 1.247 . S
C358 O352 1.261 . S
C359 O354 1.259 . S
C359 O356 1.235 . S
O360 Co350 2.021 . S
O360 C357 1.238 . S
O361 Co355 2.052 . S
O361 C357 1.241 . S
O362 Co350 2.137 . S
O362 C353 1.247 . S
O363 Co350 2.244 . S
O363 C353 1.272 . S
O363 Co355 2.135 . S
Co364 O365 2.216 . S
Co364 O366 2.091 . S
Co364 O368 2.004 . S
Co364 O374 2.021 . S
Co364 O376 2.137 . S
Co364 O377 2.244 . S
O365 Co364 2.216 . S
O365 C372 1.247 . S
O366 Co364 2.091 . S
O366 C372 1.261 . S
C367 O376 1.247 . S
C367 O377 1.272 . S
O368 Co364 2.004 . S
O368 C373 1.259 . S
Co369 O370 2.061 . S
Co369 O375 2.052 . S
Co369 O377 2.135 . S
O370 Co369 2.061 . S
O370 C373 1.235 . S
C371 O374 1.238 . S
C371 O375 1.241 . S
C372 O365 1.247 . S
C372 O366 1.261 . S
C373 O368 1.259 . S
C373 O370 1.235 . S
O374 Co364 2.021 . S
O374 C371 1.238 . S
O375 Co369 2.052 . S
O375 C371 1.241 . S
O376 Co364 2.137 . S
O376 C367 1.247 . S
O377 Co364 2.244 . S
O377 C367 1.272 . S
O377 Co369 2.135 . S
Co378 O379 2.216 . S
Co378 O380 2.091 . S
Co378 O382 2.004 . S
Co378 O388 2.021 . S
Co378 O390 2.137 . S
Co378 O391 2.244 . S
O379 Co378 2.216 . S
O379 C386 1.247 . S
O380 Co378 2.091 . S
O380 C386 1.261 . S
C381 O390 1.247 . S
C381 O391 1.272 . S
O382 Co378 2.004 . S
O382 C387 1.259 . S
Co383 O384 2.061 . S
Co383 O389 2.052 . S
Co383 O391 2.135 . S
O384 Co383 2.061 . S
O384 C387 1.235 . S
C385 O388 1.238 . S
C385 O389 1.241 . S
C386 O379 1.247 . S
C386 O380 1.261 . S
C387 O382 1.259 . S
C387 O384 1.235 . S
O388 Co378 2.021 . S
O388 C385 1.238 . S
O389 Co383 2.052 . S
O389 C385 1.241 . S
O390 Co378 2.137 . S
O390 C381 1.247 . S
O391 Co378 2.244 . S
O391 C381 1.272 . S
O391 Co383 2.135 . S
Co392 O393 2.216 . S
Co392 O394 2.091 . S
Co392 O396 2.004 . S
Co392 O402 2.021 . S
Co392 O404 2.137 . S
Co392 O405 2.244 . S
O393 Co392 2.216 . S
O393 C400 1.247 . S
O394 Co392 2.091 . S
O394 C400 1.261 . S
C395 O404 1.247 . S
C395 O405 1.272 . S
O396 Co392 2.004 . S
O396 C401 1.259 . S
Co397 O398 2.061 . S
Co397 O403 2.052 . S
Co397 O405 2.135 . S
O398 Co397 2.061 . S
O398 C401 1.235 . S
C399 O402 1.238 . S
C399 O403 1.241 . S
C400 O393 1.247 . S
C400 O394 1.261 . S
C401 O396 1.259 . S
C401 O398 1.235 . S
O402 Co392 2.021 . S
O402 C399 1.238 . S
O403 Co397 2.052 . S
O403 C399 1.241 . S
O404 Co392 2.137 . S
O404 C395 1.247 . S
O405 Co392 2.244 . S
O405 C395 1.272 . S
O405 Co397 2.135 . S
Co406 O407 2.216 . S
Co406 O408 2.091 . S
Co406 O410 2.004 . S
Co406 O416 2.021 . S
Co406 O418 2.137 . S
Co406 O419 2.244 . S
O407 Co406 2.216 . S
O407 C414 1.247 . S
O408 Co406 2.091 . S
O408 C414 1.261 . S
C409 O418 1.247 . S
C409 O419 1.272 . S
O410 Co406 2.004 . S
O410 C415 1.259 . S
Co411 O412 2.061 . S
Co411 O417 2.052 . S
Co411 O419 2.135 . S
O412 Co411 2.061 . S
O412 C415 1.235 . S
C413 O416 1.238 . S
C413 O417 1.241 . S
C414 O407 1.247 . S
C414 O408 1.261 . S
C415 O410 1.259 . S
C415 O412 1.235 . S
O416 Co406 2.021 . S
O416 C413 1.238 . S
O417 Co411 2.052 . S
O417 C413 1.241 . S
O418 Co406 2.137 . S
O418 C409 1.247 . S
O419 Co406 2.244 . S
O419 C409 1.272 . S
O419 Co411 2.135 . S
Co420 O421 2.216 . S
Co420 O422 2.091 . S
Co420 O424 2.004 . S
Co420 O430 2.021 . S
Co420 O432 2.137 . S
Co420 O433 2.244 . S
O421 Co420 2.216 . S
O421 C428 1.247 . S
O422 Co420 2.091 . S
O422 C428 1.261 . S
C423 O432 1.247 . S
C423 O433 1.272 . S
O424 Co420 2.004 . S
O424 C429 1.259 . S
Co425 O426 2.061 . S
Co425 O431 2.052 . S
Co425 O433 2.135 . S
O426 Co425 2.061 . S
O426 C429 1.235 . S
C427 O430 1.238 . S
C427 O431 1.241 . S
C428 O421 1.247 . S
C428 O422 1.261 . S
C429 O424 1.259 . S
C429 O426 1.235 . S
O430 Co420 2.021 . S
O430 C427 1.238 . S
O431 Co425 2.052 . S
O431 C427 1.241 . S
O432 Co420 2.137 . S
O432 C423 1.247 . S
O433 Co420 2.244 . S
O433 C423 1.272 . S
O433 Co425 2.135 . S
Co434 O435 2.216 . S
Co434 O436 2.091 . S
Co434 O438 2.004 . S
Co434 O444 2.021 . S
Co434 O446 2.137 . S
Co434 O447 2.244 . S
O435 Co434 2.216 . S
O435 C442 1.247 . S
O436 Co434 2.091 . S
O436 C442 1.261 . S
C437 O446 1.247 . S
C437 O447 1.272 . S
O438 Co434 2.004 . S
O438 C443 1.259 . S
Co439 O440 2.061 . S
Co439 O445 2.052 . S
Co439 O447 2.135 . S
O440 Co439 2.061 . S
O440 C443 1.235 . S
C441 O444 1.238 . S
C441 O445 1.241 . S
C442 O435 1.247 . S
C442 O436 1.261 . S
C443 O438 1.259 . S
C443 O440 1.235 . S
O444 Co434 2.021 . S
O444 C441 1.238 . S
O445 Co439 2.052 . S
O445 C441 1.241 . S
O446 Co434 2.137 . S
O446 C437 1.247 . S
O447 Co434 2.244 . S
O447 C437 1.272 . S
O447 Co439 2.135 . S
Co448 O449 2.216 . S
Co448 O450 2.091 . S
Co448 O452 2.004 . S
Co448 O458 2.021 . S
Co448 O460 2.137 . S
Co448 O461 2.244 . S
O449 Co448 2.216 . S
O449 C456 1.247 . S
O450 Co448 2.091 . S
O450 C456 1.261 . S
C451 O460 1.247 . S
C451 O461 1.272 . S
O452 Co448 2.004 . S
O452 C457 1.259 . S
Co453 O454 2.061 . S
Co453 O459 2.052 . S
Co453 O461 2.135 . S
O454 Co453 2.061 . S
O454 C457 1.235 . S
C455 O458 1.238 . S
C455 O459 1.241 . S
C456 O449 1.247 . S
C456 O450 1.261 . S
C457 O452 1.259 . S
C457 O454 1.235 . S
O458 Co448 2.021 . S
O458 C455 1.238 . S
O459 Co453 2.052 . S
O459 C455 1.241 . S
O460 Co448 2.137 . S
O460 C451 1.247 . S
O461 Co448 2.244 . S
O461 C451 1.272 . S
O461 Co453 2.135 . S
Co462 O463 2.216 . S
Co462 O464 2.091 . S
Co462 O466 2.004 . S
Co462 O472 2.021 . S
Co462 O474 2.137 . S
Co462 O475 2.244 . S
O463 Co462 2.216 . S
O463 C470 1.247 . S
O464 Co462 2.091 . S
O464 C470 1.261 . S
C465 O474 1.247 . S
C465 O475 1.272 . S
O466 Co462 2.004 . S
O466 C471 1.259 . S
Co467 O468 2.061 . S
Co467 O473 2.052 . S
Co467 O475 2.135 . S
O468 Co467 2.061 . S
O468 C471 1.235 . S
C469 O472 1.238 . S
C469 O473 1.241 . S
C470 O463 1.247 . S
C470 O464 1.261 . S
C471 O466 1.259 . S
C471 O468 1.235 . S
O472 Co462 2.021 . S
O472 C469 1.238 . S
O473 Co467 2.052 . S
O473 C469 1.241 . S
O474 Co462 2.137 . S
O474 C465 1.247 . S
O475 Co462 2.244 . S
O475 C465 1.272 . S
O475 Co467 2.135 . S
Co476 O477 2.216 . S
Co476 O478 2.091 . S
Co476 O480 2.004 . S
Co476 O486 2.021 . S
Co476 O488 2.137 . S
Co476 O489 2.244 . S
O477 Co476 2.216 . S
O477 C484 1.247 . S
O478 Co476 2.091 . S
O478 C484 1.261 . S
C479 O488 1.247 . S
C479 O489 1.272 . S
O480 Co476 2.004 . S
O480 C485 1.259 . S
Co481 O482 2.061 . S
Co481 O487 2.052 . S
Co481 O489 2.135 . S
O482 Co481 2.061 . S
O482 C485 1.235 . S
C483 O486 1.238 . S
C483 O487 1.241 . S
C484 O477 1.247 . S
C484 O478 1.261 . S
C485 O480 1.259 . S
C485 O482 1.235 . S
O486 Co476 2.021 . S
O486 C483 1.238 . S
O487 Co481 2.052 . S
O487 C483 1.241 . S
O488 Co476 2.137 . S
O488 C479 1.247 . S
O489 Co476 2.244 . S
O489 C479 1.272 . S
O489 Co481 2.135 . S
Co490 O491 2.216 . S
Co490 O492 2.091 . S
Co490 O494 2.004 . S
Co490 O500 2.021 . S
Co490 O502 2.137 . S
Co490 O503 2.244 . S
O491 Co490 2.216 . S
O491 C498 1.247 . S
O492 Co490 2.091 . S
O492 C498 1.261 . S
C493 O502 1.247 . S
C493 O503 1.272 . S
O494 Co490 2.004 . S
O494 C499 1.259 . S
Co495 O496 2.061 . S
Co495 O501 2.052 . S
Co495 O503 2.135 . S
O496 Co495 2.061 . S
O496 C499 1.235 . S
C497 O500 1.238 . S
C497 O501 1.241 . S
C498 O491 1.247 . S
C498 O492 1.261 . S
C499 O494 1.259 . S
C499 O496 1.235 . S
O500 Co490 2.021 . S
O500 C497 1.238 . S
O501 Co495 2.052 . S
O501 C497 1.241 . S
O502 Co490 2.137 . S
O502 C493 1.247 . S
O503 Co490 2.244 . S
O503 C493 1.272 . S
O503 Co495 2.135 . S
C504 C505 1.369 . S
C504 C506 1.419 . S
C504 H508 0.930 . S
C505 C504 1.369 . S
C505 C514 1.429 . S
C506 C504 1.419 . S
C506 C507 1.363 . S
C506 H509 0.929 . S
C507 C506 1.363 . S
C507 C513 1.428 . S
H508 C504 0.930 . S
H509 C506 0.929 . S
S510 N511 1.613 . S
S510 N512 1.610 . S
N511 S510 1.613 . S
N511 C514 1.350 . S
N512 S510 1.610 . S
N512 C513 1.351 . S
C513 C507 1.428 . S
C513 N512 1.351 . S
C513 C514 1.434 . S
C514 C505 1.429 . S
C514 N511 1.350 . S
C514 C513 1.434 . S
C515 C516 1.369 . S
C515 C517 1.419 . S
C515 H519 0.930 . S
C516 C515 1.369 . S
C516 C525 1.429 . S
C517 C515 1.419 . S
C517 C518 1.363 . S
C517 H520 0.929 . S
C518 C517 1.363 . S
C518 C524 1.428 . S
H519 C515 0.930 . S
H520 C517 0.929 . S
S521 N522 1.613 . S
S521 N523 1.610 . S
N522 S521 1.613 . S
N522 C525 1.350 . S
N523 S521 1.610 . S
N523 C524 1.351 . S
C524 C518 1.428 . S
C524 N523 1.351 . S
C524 C525 1.434 . S
C525 C516 1.429 . S
C525 N522 1.350 . S
C525 C524 1.434 . S
C526 C527 1.369 . S
C526 C528 1.419 . S
C526 H530 0.930 . S
C527 C526 1.369 . S
C527 C536 1.429 . S
C528 C526 1.419 . S
C528 C529 1.363 . S
C528 H531 0.929 . S
C529 C528 1.363 . S
C529 C535 1.428 . S
H530 C526 0.930 . S
H531 C528 0.929 . S
S532 N533 1.613 . S
S532 N534 1.610 . S
N533 S532 1.613 . S
N533 C536 1.350 . S
N534 S532 1.610 . S
N534 C535 1.351 . S
C535 C529 1.428 . S
C535 N534 1.351 . S
C535 C536 1.434 . S
C536 C527 1.429 . S
C536 N533 1.350 . S
C536 C535 1.434 . S
C537 C538 1.369 . S
C537 C539 1.419 . S
C537 H541 0.930 . S
C538 C537 1.369 . S
C538 C547 1.429 . S
C539 C537 1.419 . S
C539 C540 1.363 . S
C539 H542 0.929 . S
C540 C539 1.363 . S
C540 C546 1.428 . S
H541 C537 0.930 . S
H542 C539 0.929 . S
S543 N544 1.613 . S
S543 N545 1.610 . S
N544 S543 1.613 . S
N544 C547 1.350 . S
N545 S543 1.610 . S
N545 C546 1.351 . S
C546 C540 1.428 . S
C546 N545 1.351 . S
C546 C547 1.434 . S
C547 C538 1.429 . S
C547 N544 1.350 . S
C547 C546 1.434 . S
C548 C549 1.369 . S
C548 C550 1.419 . S
C548 H552 0.930 . S
C549 C548 1.369 . S
C549 C558 1.429 . S
C550 C548 1.419 . S
C550 C551 1.363 . S
C550 H553 0.929 . S
C551 C550 1.363 . S
C551 C557 1.428 . S
H552 C548 0.930 . S
H553 C550 0.929 . S
S554 N555 1.613 . S
S554 N556 1.610 . S
N555 S554 1.613 . S
N555 C558 1.350 . S
N556 S554 1.610 . S
N556 C557 1.351 . S
C557 C551 1.428 . S
C557 N556 1.351 . S
C557 C558 1.434 . S
C558 C549 1.429 . S
C558 N555 1.350 . S
C558 C557 1.434 . S
C559 C560 1.369 . S
C559 C561 1.419 . S
C559 H563 0.930 . S
C560 C559 1.369 . S
C560 C569 1.429 . S
C561 C559 1.419 . S
C561 C562 1.363 . S
C561 H564 0.929 . S
C562 C561 1.363 . S
C562 C568 1.428 . S
H563 C559 0.930 . S
H564 C561 0.929 . S
S565 N566 1.613 . S
S565 N567 1.610 . S
N566 S565 1.613 . S
N566 C569 1.350 . S
N567 S565 1.610 . S
N567 C568 1.351 . S
C568 C562 1.428 . S
C568 N567 1.351 . S
C568 C569 1.434 . S
C569 C560 1.429 . S
C569 N566 1.350 . S
C569 C568 1.434 . S
C570 C571 1.369 . S
C570 C572 1.419 . S
C570 H574 0.930 . S
C571 C570 1.369 . S
C571 C580 1.429 . S
C572 C570 1.419 . S
C572 C573 1.363 . S
C572 H575 0.929 . S
C573 C572 1.363 . S
C573 C579 1.428 . S
H574 C570 0.930 . S
H575 C572 0.929 . S
S576 N577 1.613 . S
S576 N578 1.610 . S
N577 S576 1.613 . S
N577 C580 1.350 . S
N578 S576 1.610 . S
N578 C579 1.351 . S
C579 C573 1.428 . S
C579 N578 1.351 . S
C579 C580 1.434 . S
C580 C571 1.429 . S
C580 N577 1.350 . S
C580 C579 1.434 . S
C581 C582 1.369 . S
C581 C583 1.419 . S
C581 H585 0.930 . S
C582 C581 1.369 . S
C582 C591 1.429 . S
C583 C581 1.419 . S
C583 C584 1.363 . S
C583 H586 0.929 . S
C584 C583 1.363 . S
C584 C590 1.428 . S
H585 C581 0.930 . S
H586 C583 0.929 . S
S587 N588 1.613 . S
S587 N589 1.610 . S
N588 S587 1.613 . S
N588 C591 1.350 . S
N589 S587 1.610 . S
N589 C590 1.351 . S
C590 C584 1.428 . S
C590 N589 1.351 . S
C590 C591 1.434 . S
C591 C582 1.429 . S
C591 N588 1.350 . S
C591 C590 1.434 . S
C592 C593 1.369 . S
C592 C594 1.419 . S
C592 H596 0.930 . S
C593 C592 1.369 . S
C593 C602 1.429 . S
C594 C592 1.419 . S
C594 C595 1.363 . S
C594 H597 0.929 . S
C595 C594 1.363 . S
C595 C601 1.428 . S
H596 C592 0.930 . S
H597 C594 0.929 . S
S598 N599 1.613 . S
S598 N600 1.610 . S
N599 S598 1.613 . S
N599 C602 1.350 . S
N600 S598 1.610 . S
N600 C601 1.351 . S
C601 C595 1.428 . S
C601 N600 1.351 . S
C601 C602 1.434 . S
C602 C593 1.429 . S
C602 N599 1.350 . S
C602 C601 1.434 . S
C603 C604 1.369 . S
C603 C605 1.419 . S
C603 H607 0.930 . S
C604 C603 1.369 . S
C604 C613 1.429 . S
C605 C603 1.419 . S
C605 C606 1.363 . S
C605 H608 0.929 . S
C606 C605 1.363 . S
C606 C612 1.428 . S
H607 C603 0.930 . S
H608 C605 0.929 . S
S609 N610 1.613 . S
S609 N611 1.610 . S
N610 S609 1.613 . S
N610 C613 1.350 . S
N611 S609 1.610 . S
N611 C612 1.351 . S
C612 C606 1.428 . S
C612 N611 1.351 . S
C612 C613 1.434 . S
C613 C604 1.429 . S
C613 N610 1.350 . S
C613 C612 1.434 . S
C614 C615 1.369 . S
C614 C616 1.419 . S
C614 H618 0.930 . S
C615 C614 1.369 . S
C615 C624 1.429 . S
C616 C614 1.419 . S
C616 C617 1.363 . S
C616 H619 0.929 . S
C617 C616 1.363 . S
C617 C623 1.428 . S
H618 C614 0.930 . S
H619 C616 0.929 . S
S620 N621 1.613 . S
S620 N622 1.610 . S
N621 S620 1.613 . S
N621 C624 1.350 . S
N622 S620 1.610 . S
N622 C623 1.351 . S
C623 C617 1.428 . S
C623 N622 1.351 . S
C623 C624 1.434 . S
C624 C615 1.429 . S
C624 N621 1.350 . S
C624 C623 1.434 . S
C625 C626 1.369 . S
C625 C627 1.419 . S
C625 H629 0.930 . S
C626 C625 1.369 . S
C626 C635 1.429 . S
C627 C625 1.419 . S
C627 C628 1.363 . S
C627 H630 0.929 . S
C628 C627 1.363 . S
C628 C634 1.428 . S
H629 C625 0.930 . S
H630 C627 0.929 . S
S631 N632 1.613 . S
S631 N633 1.610 . S
N632 S631 1.613 . S
N632 C635 1.350 . S
N633 S631 1.610 . S
N633 C634 1.351 . S
C634 C628 1.428 . S
C634 N633 1.351 . S
C634 C635 1.434 . S
C635 C626 1.429 . S
C635 N632 1.350 . S
C635 C634 1.434 . S
C636 C637 1.369 1_455 S
C636 C638 1.419 . S
C636 H640 0.930 . S
C637 C636 1.369 1_655 S
C637 C646 1.429 . S
C638 C636 1.419 . S
C638 C639 1.363 . S
C638 H641 0.929 . S
C639 C638 1.363 . S
C639 C645 1.438 . S
H640 C636 0.930 . S
H641 C638 0.929 . S
S642 N643 1.613 . S
S642 N644 1.610 . S
N643 S642 1.613 . S
N643 C646 1.350 . S
N644 S642 1.610 . S
N644 C645 1.358 1_655 S
C645 C639 1.438 . S
C645 N644 1.358 1_455 S
C645 C646 1.416 1_455 S
C646 C637 1.429 . S
C646 N643 1.350 . S
C646 C645 1.416 1_655 S
C647 C648 1.369 . S
C647 C649 1.419 . S
C647 H651 0.930 . S
C648 C647 1.369 . S
C648 C657 1.429 . S
C649 C647 1.419 . S
C649 C650 1.363 . S
C649 H652 0.929 . S
C650 C649 1.363 . S
C650 C656 1.428 . S
H651 C647 0.930 . S
H652 C649 0.929 . S
S653 N654 1.613 . S
S653 N655 1.610 . S
N654 S653 1.613 . S
N654 C657 1.350 . S
N655 S653 1.610 . S
N655 C656 1.351 . S
C656 C650 1.428 . S
C656 N655 1.351 . S
C656 C657 1.434 . S
C657 C648 1.429 . S
C657 N654 1.350 . S
C657 C656 1.434 . S
C658 C659 1.369 1_565 S
C658 C660 1.419 . S
C658 H662 0.930 . S
C659 C658 1.369 1_545 S
C659 C668 1.429 . S
C660 C658 1.419 . S
C660 C661 1.363 . S
C660 H663 0.929 . S
C661 C660 1.363 . S
C661 C667 1.428 1_565 S
H662 C658 0.930 . S
H663 C660 0.929 . S
S664 N665 1.613 . S
S664 N666 1.610 . S
N665 S664 1.613 . S
N665 C668 1.350 . S
N666 S664 1.610 . S
N666 C667 1.351 . S
C667 C661 1.428 1_545 S
C667 N666 1.351 . S
C667 C668 1.434 . S
C668 C659 1.429 . S
C668 N665 1.350 . S
C668 C667 1.434 . S
C669 C670 1.369 1_554 S
C669 C671 1.419 . S
C669 H673 0.930 . S
C670 C669 1.369 1_556 S
C670 C679 1.429 1_545 S
C671 C669 1.419 . S
C671 C672 1.363 1_545 S
C671 H674 0.929 . S
C672 C671 1.363 1_565 S
C672 C678 1.428 1_554 S
H673 C669 0.930 . S
H674 C671 0.929 . S
S675 N676 1.613 . S
S675 N677 1.610 . S
N676 S675 1.613 . S
N676 C679 1.350 . S
N677 S675 1.610 . S
N677 C678 1.351 . S
C678 C672 1.428 1_556 S
C678 N677 1.351 . S
C678 C679 1.434 . S
C679 C670 1.429 1_565 S
C679 N676 1.350 . S
C679 C678 1.434 . S
C680 C681 1.369 . S
C680 C682 1.419 1_656 S
C680 H684 0.930 . S
C681 C680 1.369 . S
C681 C690 1.429 . S
C682 C680 1.419 1_454 S
C682 C683 1.363 . S
C682 H685 0.929 . S
C683 C682 1.363 . S
C683 C689 1.428 . S
H684 C680 0.930 . S
H685 C682 0.929 . S
S686 N687 1.613 . S
S686 N688 1.610 1_656 S
N687 S686 1.613 . S
N687 C690 1.350 . S
N688 S686 1.610 1_454 S
N688 C689 1.351 . S
C689 C683 1.428 . S
C689 N688 1.351 . S
C689 C690 1.434 1_454 S
C690 C681 1.429 . S
C690 N687 1.350 . S
C690 C689 1.434 1_656 S
C691 C692 1.369 1_554 S
C691 C693 1.419 . S
C691 H695 0.930 . S
C692 C691 1.369 1_556 S
C692 C701 1.429 . S
C693 C691 1.419 . S
C693 C694 1.363 . S
C693 H696 0.929 . S
C694 C693 1.363 . S
C694 C700 1.428 . S
H695 C691 0.930 . S
H696 C693 0.929 . S
S697 N698 1.613 . S
S697 N699 1.610 . S
N698 S697 1.613 . S
N698 C701 1.350 . S
N699 S697 1.610 . S
N699 C700 1.351 1_556 S
C700 C694 1.428 . S
C700 N699 1.351 1_554 S
C700 C701 1.434 1_554 S
C701 C692 1.429 . S
C701 N698 1.350 . S
C701 C700 1.434 1_556 S
C702 C703 1.369 . S
C702 C704 1.419 . S
C702 H706 0.930 . S
C703 C702 1.369 . S
C703 C712 1.429 . S
C704 C702 1.419 . S
C704 C705 1.363 . S
C704 H707 0.929 . S
C705 C704 1.363 . S
C705 C711 1.428 . S
H706 C702 0.930 . S
H707 C704 0.929 . S
S708 N709 1.613 . S
S708 N710 1.610 . S
N709 S708 1.613 . S
N709 C712 1.350 . S
N710 S708 1.610 . S
N710 C711 1.351 . S
C711 C705 1.428 . S
C711 N710 1.351 . S
C711 C712 1.434 . S
C712 C703 1.429 . S
C712 N709 1.350 . S
C712 C711 1.434 . S
C713 C714 1.369 . S
C713 C715 1.431 . S
C713 H717 0.930 . S
C714 C713 1.369 . S
C714 C723 1.429 . S
C715 C713 1.431 . S
C715 C716 1.365 . S
C715 H718 0.915 1_556 S
C716 C715 1.365 . S
C716 C722 1.428 . S
H717 C713 0.930 . S
H718 C715 0.915 1_554 S
S719 N720 1.613 . S
S719 N721 1.610 . S
N720 S719 1.613 . S
N720 C723 1.350 . S
N721 S719 1.610 . S
N721 C722 1.351 . S
C722 C716 1.428 . S
C722 N721 1.351 . S
C722 C723 1.434 . S
C723 C714 1.429 . S
C723 N720 1.350 . S
C723 C722 1.434 . S
C724 C725 1.369 . S
C724 C726 1.419 1_554 S
C724 H728 0.930 . S
C725 C724 1.369 . S
C725 C734 1.429 1_554 S
C726 C724 1.419 1_556 S
C726 C727 1.363 . S
C726 H729 0.921 1_556 S
C727 C726 1.363 . S
C727 C733 1.428 . S
H728 C724 0.930 . S
H729 C726 0.921 1_554 S
S730 N731 1.613 . S
S730 N732 1.610 . S
N731 S730 1.613 . S
N731 C734 1.350 . S
N732 S730 1.610 . S
N732 C733 1.351 . S
C733 C727 1.428 . S
C733 N732 1.351 . S
C733 C734 1.434 . S
C734 C725 1.429 1_556 S
C734 N731 1.350 . S
C734 C733 1.434 . S
C735 C736 1.369 . S
C735 C737 1.419 . S
C735 H739 0.930 . S
C736 C735 1.369 . S
C736 C745 1.429 . S
C737 C735 1.419 . S
C737 C738 1.363 . S
C737 H740 0.929 . S
C738 C737 1.363 . S
C738 C744 1.428 . S
H739 C735 0.930 . S
H740 C737 0.929 . S
S741 N742 1.613 . S
S741 N743 1.610 . S
N742 S741 1.613 . S
N742 C745 1.350 . S
N743 S741 1.610 . S
N743 C744 1.351 . S
C744 C738 1.428 . S
C744 N743 1.351 . S
C744 C745 1.434 . S
C745 C736 1.429 . S
C745 N742 1.350 . S
C745 C744 1.434 . S
C746 C747 1.369 . S
C746 C748 1.419 . S
C746 H750 0.930 . S
C747 C746 1.369 . S
C747 C756 1.429 . S
C748 C746 1.419 . S
C748 C749 1.363 . S
C748 H751 0.929 . S
C749 C748 1.363 . S
C749 C755 1.428 . S
H750 C746 0.930 . S
H751 C748 0.929 . S
S752 N753 1.613 . S
S752 N754 1.610 . S
N753 S752 1.613 . S
N753 C756 1.350 . S
N754 S752 1.610 . S
N754 C755 1.351 . S
C755 C749 1.428 . S
C755 N754 1.351 . S
C755 C756 1.434 . S
C756 C747 1.429 . S
C756 N753 1.350 . S
C756 C755 1.434 . S
C757 C758 1.369 . S
C757 C759 1.419 . S
C757 H761 0.930 . S
C758 C757 1.369 . S
C758 C767 1.429 . S
C759 C757 1.419 . S
C759 C760 1.363 . S
C759 H762 0.929 . S
C760 C759 1.363 . S
C760 C766 1.428 . S
H761 C757 0.930 . S
H762 C759 0.929 . S
S763 N764 1.613 . S
S763 N765 1.610 . S
N764 S763 1.613 . S
N764 C767 1.350 . S
N765 S763 1.610 . S
N765 C766 1.351 . S
C766 C760 1.428 . S
C766 N765 1.351 . S
C766 C767 1.434 . S
C767 C758 1.429 . S
C767 N764 1.350 . S
C767 C766 1.434 . S
C768 C769 1.369 . S
C768 C770 1.419 . S
C768 H772 0.930 . S
C769 C768 1.369 . S
C769 C778 1.429 1_556 S
C770 C768 1.419 . S
C770 C771 1.363 1_556 S
C770 H773 0.929 . S
C771 C770 1.363 1_554 S
C771 C777 1.428 . S
H772 C768 0.930 . S
H773 C770 0.929 . S
S774 N775 1.613 . S
S774 N776 1.610 . S
N775 S774 1.613 . S
N775 C778 1.350 . S
N776 S774 1.610 . S
N776 C777 1.351 . S
C777 C771 1.428 . S
C777 N776 1.351 . S
C777 C778 1.434 . S
C778 C769 1.429 1_554 S
C778 N775 1.350 . S
C778 C777 1.434 . S
C779 C780 1.369 . S
C779 C781 1.409 1_556 S
C779 H783 0.930 . S
C780 C779 1.369 . S
C780 C789 1.429 1_556 S
C781 C779 1.409 1_554 S
C781 C782 1.379 . S
C781 H784 0.923 1_454 S
C782 C781 1.379 . S
C782 C788 1.428 . S
H783 C779 0.930 . S
H784 C781 0.923 1_656 S
S785 N786 1.613 . S
S785 N787 1.610 . S
N786 S785 1.613 . S
N786 C789 1.350 . S
N787 S785 1.610 . S
N787 C788 1.351 . S
C788 C782 1.428 . S
C788 N787 1.351 . S
C788 C789 1.434 . S
C789 C780 1.429 1_554 S
C789 N786 1.350 . S
C789 C788 1.434 . S
C790 C791 1.369 . S
C790 C792 1.419 1_556 S
C790 H794 0.930 . S
C791 C790 1.369 . S
C791 C800 1.429 . S
C792 C790 1.419 1_554 S
C792 C793 1.363 . S
C792 H795 0.929 . S
C793 C792 1.363 . S
C793 C799 1.428 . S
H794 C790 0.930 . S
H795 C792 0.929 . S
S796 N797 1.613 . S
S796 N798 1.610 1_556 S
N797 S796 1.613 . S
N797 C800 1.350 . S
N798 S796 1.610 1_554 S
N798 C799 1.351 . S
C799 C793 1.428 . S
C799 N798 1.351 . S
C799 C800 1.434 1_554 S
C800 C791 1.429 . S
C800 N797 1.350 . S
C800 C799 1.434 1_556 S
C801 C802 1.369 . S
C801 C803 1.419 . S
C801 H805 0.930 . S
C802 C801 1.369 . S
C802 C811 1.429 . S
C803 C801 1.419 . S
C803 C804 1.363 . S
C803 H806 0.929 . S
C804 C803 1.363 . S
C804 C810 1.428 . S
H805 C801 0.930 . S
H806 C803 0.929 . S
S807 N808 1.613 . S
S807 N809 1.610 . S
N808 S807 1.613 . S
N808 C811 1.350 . S
N809 S807 1.610 . S
N809 C810 1.351 . S
C810 C804 1.428 . S
C810 N809 1.351 . S
C810 C811 1.434 . S
C811 C802 1.429 . S
C811 N808 1.350 . S
C811 C810 1.434 . S
C812 C813 1.369 . S
C812 C814 1.419 . S
C812 H816 0.930 . S
C813 C812 1.369 . S
C813 C822 1.429 . S
C814 C812 1.419 . S
C814 C815 1.363 . S
C814 H817 0.929 . S
C815 C814 1.363 . S
C815 C821 1.428 . S
H816 C812 0.930 . S
H817 C814 0.929 . S
S818 N819 1.613 . S
S818 N820 1.610 . S
N819 S818 1.613 . S
N819 C822 1.350 . S
N820 S818 1.610 . S
N820 C821 1.351 . S
C821 C815 1.428 . S
C821 N820 1.351 . S
C821 C822 1.434 . S
C822 C813 1.429 . S
C822 N819 1.350 . S
C822 C821 1.434 . S
C823 C824 1.369 . S
C823 C825 1.419 . S
C823 H827 0.930 . S
C824 C823 1.369 . S
C824 C833 1.429 . S
C825 C823 1.419 . S
C825 C826 1.363 . S
C825 H828 0.929 . S
C826 C825 1.363 . S
C826 C832 1.428 . S
H827 C823 0.930 . S
H828 C825 0.929 . S
S829 N830 1.616 . S
S829 N831 1.610 . S
N830 S829 1.616 . S
N830 C833 1.351 . S
N831 S829 1.610 . S
N831 C832 1.351 . S
C832 C826 1.428 . S
C832 N831 1.351 . S
C832 C833 1.434 . S
C833 C824 1.429 . S
C833 N830 1.351 . S
C833 C832 1.434 . S
C834 C835 1.369 . S
C834 C836 1.419 . S
C834 H838 0.930 . S
C835 C834 1.369 . S
C835 C844 1.429 . S
C836 C834 1.419 . S
C836 C837 1.363 . S
C836 H839 0.929 . S
C837 C836 1.363 . S
C837 C843 1.428 . S
H838 C834 0.930 . S
H839 C836 0.929 . S
S840 N841 1.613 . S
S840 N842 1.610 . S
N841 S840 1.613 . S
N841 C844 1.350 . S
N842 S840 1.610 . S
N842 C843 1.351 . S
C843 C837 1.428 . S
C843 N842 1.351 . S
C843 C844 1.434 . S
C844 C835 1.429 . S
C844 N841 1.350 . S
C844 C843 1.434 . S
C845 C846 1.369 . S
C845 C847 1.419 . S
C845 H849 0.930 . S
C846 C845 1.369 . S
C846 C855 1.429 . S
C847 C845 1.419 . S
C847 C848 1.363 . S
C847 H850 0.929 . S
C848 C847 1.363 . S
C848 C854 1.428 . S
H849 C845 0.930 . S
H850 C847 0.929 . S
S851 N852 1.613 . S
S851 N853 1.610 . S
N852 S851 1.613 . S
N852 C855 1.350 . S
N853 S851 1.610 . S
N853 C854 1.351 . S
C854 C848 1.428 . S
C854 N853 1.351 . S
C854 C855 1.434 . S
C855 C846 1.429 . S
C855 N852 1.350 . S
C855 C854 1.434 . S
C856 C857 1.369 . S
C856 C858 1.419 . S
C856 H860 0.930 . S
C857 C856 1.369 . S
C857 C866 1.429 . S
C858 C856 1.419 . S
C858 C859 1.363 . S
C858 H861 0.929 . S
C859 C858 1.363 . S
C859 C865 1.428 . S
H860 C856 0.930 . S
H861 C858 0.929 . S
S862 N863 1.613 . S
S862 N864 1.610 . S
N863 S862 1.613 . S
N863 C866 1.350 . S
N864 S862 1.610 . S
N864 C865 1.351 . S
C865 C859 1.428 . S
C865 N864 1.351 . S
C865 C866 1.434 . S
C866 C857 1.429 . S
C866 N863 1.350 . S
C866 C865 1.434 . S
C867 C868 1.369 . S
C867 C869 1.419 . S
C867 H871 0.930 . S
C868 C867 1.369 . S
C868 C877 1.429 . S
C869 C867 1.419 . S
C869 C870 1.363 . S
C869 H872 0.929 . S
C870 C869 1.363 . S
C870 C876 1.428 . S
H871 C867 0.930 . S
H872 C869 0.929 . S
S873 N874 1.613 . S
S873 N875 1.610 . S
N874 S873 1.613 . S
N874 C877 1.350 . S
N875 S873 1.610 . S
N875 C876 1.351 . S
C876 C870 1.428 . S
C876 N875 1.351 . S
C876 C877 1.434 . S
C877 C868 1.429 . S
C877 N874 1.350 . S
C877 C876 1.434 . S
C878 C879 1.369 . S
C878 C880 1.419 . S
C878 H882 0.930 . S
C879 C878 1.369 . S
C879 C888 1.429 . S
C880 C878 1.419 . S
C880 C881 1.363 . S
C880 H883 0.929 . S
C881 C880 1.363 . S
C881 C887 1.428 . S
H882 C878 0.930 . S
H883 C880 0.929 . S
S884 N885 1.613 . S
S884 N886 1.610 . S
N885 S884 1.613 . S
N885 C888 1.350 . S
N886 S884 1.610 . S
N886 C887 1.351 . S
C887 C881 1.428 . S
C887 N886 1.351 . S
C887 C888 1.434 . S
C888 C879 1.429 . S
C888 N885 1.350 . S
C888 C887 1.434 . S
C889 C890 1.369 . S
C889 C891 1.419 . S
C889 H893 0.930 . S
C890 C889 1.369 . S
C890 C899 1.429 . S
C891 C889 1.419 . S
C891 C892 1.363 . S
C891 H894 0.929 . S
C892 C891 1.363 . S
C892 C898 1.428 . S
H893 C889 0.930 . S
H894 C891 0.929 . S
S895 N896 1.613 . S
S895 N897 1.610 . S
N896 S895 1.613 . S
N896 C899 1.350 . S
N897 S895 1.610 . S
N897 C898 1.351 . S
C898 C892 1.428 . S
C898 N897 1.351 . S
C898 C899 1.434 . S
C899 C890 1.429 . S
C899 N896 1.350 . S
C899 C898 1.434 . S
C900 C901 1.369 . S
C900 C902 1.419 . S
C900 H904 0.930 . S
C901 C900 1.369 . S
C901 C910 1.429 . S
C902 C900 1.419 . S
C902 C903 1.363 . S
C902 H905 0.929 . S
C903 C902 1.363 . S
C903 C909 1.428 . S
H904 C900 0.930 . S
H905 C902 0.929 . S
S906 N907 1.613 . S
S906 N908 1.610 . S
N907 S906 1.613 . S
N907 C910 1.350 . S
N908 S906 1.610 . S
N908 C909 1.351 . S
C909 C903 1.428 . S
C909 N908 1.351 . S
C909 C910 1.434 . S
C910 C901 1.429 . S
C910 N907 1.350 . S
C910 C909 1.434 . S
C911 C912 1.369 . S
C911 C913 1.419 . S
C911 H915 0.930 . S
C912 C911 1.369 . S
C912 C921 1.429 . S
C913 C911 1.419 . S
C913 C914 1.363 . S
C913 H916 0.929 . S
C914 C913 1.363 . S
C914 C920 1.428 . S
H915 C911 0.930 . S
H916 C913 0.929 . S
S917 N918 1.613 . S
S917 N919 1.610 . S
N918 S917 1.613 . S
N918 C921 1.350 . S
N919 S917 1.610 . S
N919 C920 1.351 . S
C920 C914 1.428 . S
C920 N919 1.351 . S
C920 C921 1.434 . S
C921 C912 1.429 . S
C921 N918 1.350 . S
C921 C920 1.434 . S
C922 C923 1.369 . S
C922 C924 1.419 . S
C922 H926 0.930 . S
C923 C922 1.369 . S
C923 C932 1.429 . S
C924 C922 1.419 . S
C924 C925 1.363 . S
C924 H927 0.929 . S
C925 C924 1.363 . S
C925 C931 1.428 . S
H926 C922 0.930 . S
H927 C924 0.929 . S
S928 N929 1.613 . S
S928 N930 1.610 . S
N929 S928 1.613 . S
N929 C932 1.350 . S
N930 S928 1.610 . S
N930 C931 1.351 . S
C931 C925 1.428 . S
C931 N930 1.351 . S
C931 C932 1.434 . S
C932 C923 1.429 . S
C932 N929 1.350 . S
C932 C931 1.434 . S
C933 C934 1.369 . S
C933 C935 1.419 . S
C933 H937 0.930 . S
C934 C933 1.369 . S
C934 C943 1.429 . S
C935 C933 1.419 . S
C935 C936 1.363 . S
C935 H938 0.929 . S
C936 C935 1.363 . S
C936 C942 1.428 . S
H937 C933 0.930 . S
H938 C935 0.929 . S
S939 N940 1.613 . S
S939 N941 1.610 . S
N940 S939 1.613 . S
N940 C943 1.350 . S
N941 S939 1.610 . S
N941 C942 1.351 . S
C942 C936 1.428 . S
C942 N941 1.351 . S
C942 C943 1.434 . S
C943 C934 1.429 . S
C943 N940 1.350 . S
C943 C942 1.434 . S
C944 C945 1.369 . S
C944 C946 1.419 . S
C944 H948 0.930 . S
C945 C944 1.369 . S
C945 C954 1.429 . S
C946 C944 1.419 . S
C946 C947 1.363 . S
C946 H949 0.929 . S
C947 C946 1.363 . S
C947 C953 1.428 . S
H948 C944 0.930 . S
H949 C946 0.929 . S
S950 N951 1.613 . S
S950 N952 1.610 . S
N951 S950 1.613 . S
N951 C954 1.350 . S
N952 S950 1.610 . S
N952 C953 1.351 . S
C953 C947 1.428 . S
C953 N952 1.351 . S
C953 C954 1.434 . S
C954 C945 1.429 . S
C954 N951 1.350 . S
C954 C953 1.434 . S
C955 C956 1.369 . S
C955 C957 1.419 . S
C955 H959 0.930 . S
C956 C955 1.369 . S
C956 C965 1.429 . S
C957 C955 1.419 . S
C957 C958 1.363 . S
C957 H960 0.929 . S
C958 C957 1.363 . S
C958 C964 1.428 . S
H959 C955 0.930 . S
H960 C957 0.929 . S
S961 N962 1.613 . S
S961 N963 1.610 . S
N962 S961 1.613 . S
N962 C965 1.350 . S
N963 S961 1.610 . S
N963 C964 1.351 . S
C964 C958 1.428 . S
C964 N963 1.351 . S
C964 C965 1.434 . S
C965 C956 1.429 . S
C965 N962 1.350 . S
C965 C964 1.434 . S
C966 C967 1.369 . S
C966 C968 1.419 . S
C966 H970 0.930 . S
C967 C966 1.369 . S
C967 C976 1.429 . S
C968 C966 1.419 . S
C968 C969 1.363 . S
C968 H971 0.929 . S
C969 C968 1.363 . S
C969 C975 1.428 . S
H970 C966 0.930 . S
H971 C968 0.929 . S
S972 N973 1.613 . S
S972 N974 1.610 . S
N973 S972 1.613 . S
N973 C976 1.350 . S
N974 S972 1.610 . S
N974 C975 1.351 . S
C975 C969 1.428 . S
C975 N974 1.351 . S
C975 C976 1.434 . S
C976 C967 1.429 . S
C976 N973 1.350 . S
C976 C975 1.434 . S
C977 C978 1.369 . S
C977 C979 1.419 . S
C977 H981 0.930 . S
C978 C977 1.369 . S
C978 C987 1.429 . S
C979 C977 1.419 . S
C979 C980 1.363 . S
C979 H982 0.929 . S
C980 C979 1.363 . S
C980 C986 1.428 . S
H981 C977 0.930 . S
H982 C979 0.929 . S
S983 N984 1.613 . S
S983 N985 1.610 . S
N984 S983 1.613 . S
N984 C987 1.350 . S
N985 S983 1.610 . S
N985 C986 1.351 . S
C986 C980 1.428 . S
C986 N985 1.351 . S
C986 C987 1.434 . S
C987 C978 1.429 . S
C987 N984 1.350 . S
C987 C986 1.434 . S
C988 C989 1.369 . S
C988 C990 1.419 . S
C988 H992 0.930 . S
C989 C988 1.369 . S
C989 C998 1.429 . S
C990 C988 1.419 . S
C990 C991 1.363 . S
C990 H993 0.929 . S
C991 C990 1.363 . S
C991 C997 1.428 . S
H992 C988 0.930 . S
H993 C990 0.929 . S
S994 N995 1.613 . S
S994 N996 1.610 . S
N995 S994 1.613 . S
N995 C998 1.350 . S
N996 S994 1.610 . S
N996 C997 1.351 . S
C997 C991 1.428 . S
C997 N996 1.351 . S
C997 C998 1.434 . S
C998 C989 1.429 . S
C998 N995 1.350 . S
C998 C997 1.434 . S
C999 C1000 1.369 . S
C999 C1001 1.419 . S
C999 H1003 0.930 . S
C1000 C999 1.369 . S
C1000 C1009 1.429 . S
C1001 C999 1.419 . S
C1001 C1002 1.363 . S
C1001 H1004 0.929 . S
C1002 C1001 1.363 . S
C1002 C1008 1.428 . S
H1003 C999 0.930 . S
H1004 C1001 0.929 . S
S1005 N1006 1.613 . S
S1005 N1007 1.610 . S
N1006 S1005 1.613 . S
N1006 C1009 1.350 . S
N1007 S1005 1.610 . S
N1007 C1008 1.351 . S
C1008 C1002 1.428 . S
C1008 N1007 1.351 . S
C1008 C1009 1.434 . S
C1009 C1000 1.429 . S
C1009 N1006 1.350 . S
C1009 C1008 1.434 . S
C1010 C1011 1.369 . S
C1010 C1012 1.419 . S
C1010 H1014 0.930 . S
C1011 C1010 1.369 . S
C1011 C1020 1.429 . S
C1012 C1010 1.419 . S
C1012 C1013 1.363 . S
C1012 H1015 0.929 . S
C1013 C1012 1.363 . S
C1013 C1019 1.428 . S
H1014 C1010 0.930 . S
H1015 C1012 0.929 . S
S1016 N1017 1.613 . S
S1016 N1018 1.610 . S
N1017 S1016 1.613 . S
N1017 C1020 1.350 . S
N1018 S1016 1.610 . S
N1018 C1019 1.351 . S
C1019 C1013 1.428 . S
C1019 N1018 1.351 . S
C1019 C1020 1.434 . S
C1020 C1011 1.429 . S
C1020 N1017 1.350 . S
C1020 C1019 1.434 . S
C1021 C1022 1.369 . S
C1021 C1023 1.419 . S
C1021 H1025 0.930 . S
C1022 C1021 1.369 . S
C1022 C1031 1.429 . S
C1023 C1021 1.419 . S
C1023 C1024 1.363 . S
C1023 H1026 0.929 . S
C1024 C1023 1.363 . S
C1024 C1030 1.428 . S
H1025 C1021 0.930 . S
H1026 C1023 0.929 . S
S1027 N1028 1.613 . S
S1027 N1029 1.610 . S
N1028 S1027 1.613 . S
N1028 C1031 1.350 . S
N1029 S1027 1.610 . S
N1029 C1030 1.351 . S
C1030 C1024 1.428 . S
C1030 N1029 1.351 . S
C1030 C1031 1.434 . S
C1031 C1022 1.429 . S
C1031 N1028 1.350 . S
C1031 C1030 1.434 . S
C1032 C1033 1.369 . S
C1032 C1034 1.419 . S
C1032 H1036 0.930 . S
C1033 C1032 1.369 . S
C1033 C1042 1.429 . S
C1034 C1032 1.419 . S
C1034 C1035 1.363 . S
C1034 H1037 0.929 . S
C1035 C1034 1.363 . S
C1035 C1041 1.428 . S
H1036 C1032 0.930 . S
H1037 C1034 0.929 . S
S1038 N1039 1.613 . S
S1038 N1040 1.610 . S
N1039 S1038 1.613 . S
N1039 C1042 1.350 . S
N1040 S1038 1.610 . S
N1040 C1041 1.351 . S
C1041 C1035 1.428 . S
C1041 N1040 1.351 . S
C1041 C1042 1.434 . S
C1042 C1033 1.429 . S
C1042 N1039 1.350 . S
C1042 C1041 1.434 . S
C1043 C1044 1.369 . S
C1043 C1045 1.419 . S
C1043 H1047 0.930 . S
C1044 C1043 1.369 . S
C1044 C1053 1.429 . S
C1045 C1043 1.419 . S
C1045 C1046 1.363 . S
C1045 H1048 0.929 . S
C1046 C1045 1.363 . S
C1046 C1052 1.428 . S
H1047 C1043 0.930 . S
H1048 C1045 0.929 . S
S1049 N1050 1.613 . S
S1049 N1051 1.610 . S
N1050 S1049 1.613 . S
N1050 C1053 1.350 . S
N1051 S1049 1.610 . S
N1051 C1052 1.351 . S
C1052 C1046 1.428 . S
C1052 N1051 1.351 . S
C1052 C1053 1.434 . S
C1053 C1044 1.429 . S
C1053 N1050 1.350 . S
C1053 C1052 1.434 . S
C1054 C1055 1.369 . S
C1054 C1056 1.419 . S
C1054 H1058 0.930 . S
C1055 C1054 1.369 . S
C1055 C1064 1.429 . S
C1056 C1054 1.419 . S
C1056 C1057 1.363 . S
C1056 H1059 0.929 . S
C1057 C1056 1.363 . S
C1057 C1063 1.428 . S
H1058 C1054 0.930 . S
H1059 C1056 0.929 . S
S1060 N1061 1.613 . S
S1060 N1062 1.610 . S
N1061 S1060 1.613 . S
N1061 C1064 1.350 . S
N1062 S1060 1.610 . S
N1062 C1063 1.351 . S
C1063 C1057 1.428 . S
C1063 N1062 1.351 . S
C1063 C1064 1.434 . S
C1064 C1055 1.429 . S
C1064 N1061 1.350 . S
C1064 C1063 1.434 . S
C1065 C1066 1.369 . S
C1065 C1067 1.419 . S
C1065 H1069 0.930 . S
C1066 C1065 1.369 . S
C1066 C1075 1.429 . S
C1067 C1065 1.419 . S
C1067 C1068 1.363 . S
C1067 H1070 0.929 . S
C1068 C1067 1.363 . S
C1068 C1074 1.428 . S
H1069 C1065 0.930 . S
H1070 C1067 0.929 . S
S1071 N1072 1.613 . S
S1071 N1073 1.610 . S
N1072 S1071 1.613 . S
N1072 C1075 1.350 . S
N1073 S1071 1.610 . S
N1073 C1074 1.351 . S
C1074 C1068 1.428 . S
C1074 N1073 1.351 . S
C1074 C1075 1.434 . S
C1075 C1066 1.429 . S
C1075 N1072 1.350 . S
C1075 C1074 1.434 . S
C1076 C1077 1.369 . S
C1076 C1078 1.419 . S
C1076 H1080 0.930 . S
C1077 C1076 1.369 . S
C1077 C1086 1.429 . S
C1078 C1076 1.419 . S
C1078 C1079 1.363 . S
C1078 H1081 0.929 . S
C1079 C1078 1.363 . S
C1079 C1085 1.428 . S
H1080 C1076 0.930 . S
H1081 C1078 0.929 . S
S1082 N1083 1.613 . S
S1082 N1084 1.610 . S
N1083 S1082 1.613 . S
N1083 C1086 1.350 . S
N1084 S1082 1.610 . S
N1084 C1085 1.351 . S
C1085 C1079 1.428 . S
C1085 N1084 1.351 . S
C1085 C1086 1.434 . S
C1086 C1077 1.429 . S
C1086 N1083 1.350 . S
C1086 C1085 1.434 . S
C1087 C1088 1.369 . S
C1087 C1089 1.419 . S
C1087 H1091 0.930 . S
C1088 C1087 1.369 . S
C1088 C1097 1.429 . S
C1089 C1087 1.419 . S
C1089 C1090 1.363 . S
C1089 H1092 0.929 . S
C1090 C1089 1.363 . S
C1090 C1096 1.428 . S
H1091 C1087 0.930 . S
H1092 C1089 0.929 . S
S1093 N1094 1.613 . S
S1093 N1095 1.610 . S
N1094 S1093 1.613 . S
N1094 C1097 1.350 . S
N1095 S1093 1.610 . S
N1095 C1096 1.351 . S
C1096 C1090 1.428 . S
C1096 N1095 1.351 . S
C1096 C1097 1.434 . S
C1097 C1088 1.429 . S
C1097 N1094 1.350 . S
C1097 C1096 1.434 . S
C1098 C1099 1.369 . S
C1098 C1100 1.419 . S
C1098 H1102 0.930 . S
C1099 C1098 1.369 . S
C1099 C1108 1.429 . S
C1100 C1098 1.419 . S
C1100 C1101 1.363 . S
C1100 H1103 0.929 . S
C1101 C1100 1.363 . S
C1101 C1107 1.428 . S
H1102 C1098 0.930 . S
H1103 C1100 0.929 . S
S1104 N1105 1.613 . S
S1104 N1106 1.610 . S
N1105 S1104 1.613 . S
N1105 C1108 1.350 . S
N1106 S1104 1.610 . S
N1106 C1107 1.351 . S
C1107 C1101 1.428 . S
C1107 N1106 1.351 . S
C1107 C1108 1.434 . S
C1108 C1099 1.429 . S
C1108 N1105 1.350 . S
C1108 C1107 1.434 . S
C1109 C1110 1.369 . S
C1109 C1111 1.419 . S
C1109 H1113 0.930 . S
C1110 C1109 1.369 . S
C1110 C1119 1.429 1_545 S
C1111 C1109 1.419 . S
C1111 C1112 1.363 . S
C1111 H1114 0.929 . S
C1112 C1111 1.363 . S
C1112 C1118 1.428 . S
H1113 C1109 0.930 . S
H1114 C1111 0.929 . S
S1115 N1116 1.613 . S
S1115 N1117 1.610 1_565 S
N1116 S1115 1.613 . S
N1116 C1119 1.350 . S
N1117 S1115 1.610 1_545 S
N1117 C1118 1.351 . S
C1118 C1112 1.428 . S
C1118 N1117 1.351 . S
C1118 C1119 1.434 1_545 S
C1119 C1110 1.429 1_565 S
C1119 N1116 1.350 . S
C1119 C1118 1.434 1_565 S
C1120 C1121 1.369 . S
C1120 C1122 1.419 1_655 S
C1120 H1124 0.930 1_655 S
C1121 C1120 1.369 . S
C1121 C1130 1.429 . S
C1122 C1120 1.419 1_455 S
C1122 C1123 1.363 1_455 S
C1122 H1125 0.929 . S
C1123 C1122 1.363 1_655 S
C1123 C1129 1.428 . S
H1124 C1120 0.930 1_455 S
H1125 C1122 0.929 . S
S1126 N1127 1.613 . S
S1126 N1128 1.610 . S
N1127 S1126 1.613 . S
N1127 C1130 1.350 . S
N1128 S1126 1.610 . S
N1128 C1129 1.351 . S
C1129 C1123 1.428 . S
C1129 N1128 1.351 . S
C1129 C1130 1.434 . S
C1130 C1121 1.429 . S
C1130 N1127 1.350 . S
C1130 C1129 1.434 . S
C1131 C1132 1.369 . S
C1131 C1133 1.419 . S
C1131 H1135 0.930 . S
C1132 C1131 1.369 . S
C1132 C1141 1.429 . S
C1133 C1131 1.419 . S
C1133 C1134 1.363 . S
C1133 H1136 0.929 . S
C1134 C1133 1.363 . S
C1134 C1140 1.428 . S
H1135 C1131 0.930 . S
H1136 C1133 0.929 . S
S1137 N1138 1.613 . S
S1137 N1139 1.610 . S
N1138 S1137 1.613 . S
N1138 C1141 1.350 . S
N1139 S1137 1.610 . S
N1139 C1140 1.351 . S
C1140 C1134 1.428 . S
C1140 N1139 1.351 . S
C1140 C1141 1.434 . S
C1141 C1132 1.429 . S
C1141 N1138 1.350 . S
C1141 C1140 1.434 . S
C1142 C1143 1.369 1_545 S
C1142 C1144 1.419 1_545 S
C1142 H1146 0.930 . S
C1143 C1142 1.369 1_565 S
C1143 C1152 1.429 . S
C1144 C1142 1.419 1_565 S
C1144 C1145 1.363 . S
C1144 H1147 0.929 1_565 S
C1145 C1144 1.363 . S
C1145 C1151 1.428 . S
H1146 C1142 0.930 . S
H1147 C1144 0.929 1_545 S
S1148 N1149 1.613 . S
S1148 N1150 1.610 . S
N1149 S1148 1.613 . S
N1149 C1152 1.350 . S
N1150 S1148 1.610 . S
N1150 C1151 1.351 . S
C1151 C1145 1.428 . S
C1151 N1150 1.351 . S
C1151 C1152 1.434 . S
C1152 C1143 1.429 . S
C1152 N1149 1.350 . S
C1152 C1151 1.434 . S
C1153 C1154 1.369 . S
C1153 C1155 1.419 . S
C1153 H1157 0.930 . S
C1154 C1153 1.369 . S
C1154 C1163 1.429 . S
C1155 C1153 1.419 . S
C1155 C1156 1.363 . S
C1155 H1158 0.929 . S
C1156 C1155 1.363 . S
C1156 C1162 1.428 . S
H1157 C1153 0.930 . S
H1158 C1155 0.929 . S
S1159 N1160 1.613 . S
S1159 N1161 1.610 . S
N1160 S1159 1.613 . S
N1160 C1163 1.350 . S
N1161 S1159 1.610 . S
N1161 C1162 1.351 . S
C1162 C1156 1.428 . S
C1162 N1161 1.351 . S
C1162 C1163 1.434 . S
C1163 C1154 1.429 . S
C1163 N1160 1.350 . S
C1163 C1162 1.434 . S
C1164 C1165 1.369 . S
C1164 C1166 1.419 . S
C1164 H1168 0.930 . S
C1165 C1164 1.369 . S
C1165 C1174 1.429 . S
C1166 C1164 1.419 . S
C1166 C1167 1.363 . S
C1166 H1169 0.929 . S
C1167 C1166 1.363 . S
C1167 C1173 1.428 . S
H1168 C1164 0.930 . S
H1169 C1166 0.929 . S
S1170 N1171 1.613 . S
S1170 N1172 1.610 . S
N1171 S1170 1.613 . S
N1171 C1174 1.350 . S
N1172 S1170 1.610 . S
N1172 C1173 1.351 . S
C1173 C1167 1.428 . S
C1173 N1172 1.351 . S
C1173 C1174 1.434 . S
C1174 C1165 1.429 . S
C1174 N1171 1.350 . S
C1174 C1173 1.434 . S
C1175 C1176 1.369 . S
C1175 C1177 1.419 1_565 S
C1175 H1179 0.930 1_565 S
C1176 C1175 1.369 . S
C1176 C1185 1.429 . S
C1177 C1175 1.419 1_545 S
C1177 C1178 1.363 . S
C1177 H1180 0.929 . S
C1178 C1177 1.363 . S
C1178 C1184 1.428 1_545 S
H1179 C1175 0.930 1_545 S
H1180 C1177 0.929 . S
S1181 N1182 1.613 . S
S1181 N1183 1.610 . S
N1182 S1181 1.613 . S
N1182 C1185 1.350 . S
N1183 S1181 1.610 . S
N1183 C1184 1.351 . S
C1184 C1178 1.428 1_565 S
C1184 N1183 1.351 . S
C1184 C1185 1.434 . S
C1185 C1176 1.429 . S
C1185 N1182 1.350 . S
C1185 C1184 1.434 . S
C1186 C1187 1.369 . S
C1186 C1188 1.419 . S
C1186 H1190 0.930 . S
C1187 C1186 1.369 . S
C1187 C1196 1.429 . S
C1188 C1186 1.419 . S
C1188 C1189 1.363 1_455 S
C1188 H1191 0.929 . S
C1189 C1188 1.363 1_655 S
C1189 C1195 1.428 . S
H1190 C1186 0.930 . S
H1191 C1188 0.929 . S
S1192 N1193 1.613 1_655 S
S1192 N1194 1.610 . S
N1193 S1192 1.613 1_455 S
N1193 C1196 1.350 . S
N1194 S1192 1.610 . S
N1194 C1195 1.351 . S
C1195 C1189 1.428 . S
C1195 N1194 1.351 . S
C1195 C1196 1.434 1_655 S
C1196 C1187 1.429 . S
C1196 N1193 1.350 . S
C1196 C1195 1.434 1_455 S
C1197 C1198 1.369 . S
C1197 C1199 1.419 . S
C1197 H1201 0.930 . S
C1198 C1197 1.369 . S
C1198 C1207 1.429 . S
C1199 C1197 1.419 . S
C1199 C1200 1.363 . S
C1199 H1202 0.929 . S
C1200 C1199 1.363 . S
C1200 C1206 1.428 . S
H1201 C1197 0.930 . S
H1202 C1199 0.929 . S
S1203 N1204 1.613 . S
S1203 N1205 1.610 . S
N1204 S1203 1.613 . S
N1204 C1207 1.350 . S
N1205 S1203 1.610 . S
N1205 C1206 1.351 . S
C1206 C1200 1.428 . S
C1206 N1205 1.351 . S
C1206 C1207 1.434 . S
C1207 C1198 1.429 . S
C1207 N1204 1.350 . S
C1207 C1206 1.434 . S
C1208 C1209 1.352 1_565 S
C1208 C1210 1.433 . S
C1208 H1212 0.932 . S
C1209 C1208 1.352 1_545 S
C1209 C1218 1.429 . S
C1210 C1208 1.433 . S
C1210 C1211 1.363 . S
C1210 H1213 0.929 . S
C1211 C1210 1.363 . S
C1211 C1217 1.428 1_565 S
H1212 C1208 0.932 . S
H1213 C1210 0.929 . S
S1214 N1215 1.613 . S
S1214 N1216 1.610 . S
N1215 S1214 1.613 . S
N1215 C1218 1.350 . S
N1216 S1214 1.610 . S
N1216 C1217 1.351 . S
C1217 C1211 1.428 1_545 S
C1217 N1216 1.351 . S
C1217 C1218 1.434 . S
C1218 C1209 1.429 . S
C1218 N1215 1.350 . S
C1218 C1217 1.434 . S
C1219 C1220 1.369 1_655 S
C1219 C1221 1.419 . S
C1219 H1223 0.930 . S
C1220 C1219 1.369 1_455 S
C1220 C1229 1.429 . S
C1221 C1219 1.419 . S
C1221 C1222 1.363 . S
C1221 H1224 0.929 . S
C1222 C1221 1.363 . S
C1222 C1228 1.428 1_655 S
H1223 C1219 0.930 . S
H1224 C1221 0.929 . S
S1225 N1226 1.613 . S
S1225 N1227 1.610 . S
N1226 S1225 1.613 . S
N1226 C1229 1.350 . S
N1227 S1225 1.610 . S
N1227 C1228 1.351 . S
C1228 C1222 1.428 1_455 S
C1228 N1227 1.351 . S
C1228 C1229 1.434 . S
C1229 C1220 1.429 . S
C1229 N1226 1.350 . S
C1229 C1228 1.434 . S
C1230 C1231 1.369 . S
C1230 C1232 1.419 1_655 S
C1230 H1234 0.930 . S
C1231 C1230 1.369 . S
C1231 C1240 1.429 . S
C1232 C1230 1.419 1_455 S
C1232 C1233 1.363 . S
C1232 H1235 0.929 . S
C1233 C1232 1.363 . S
C1233 C1239 1.428 . S
H1234 C1230 0.930 . S
H1235 C1232 0.929 . S
S1236 N1237 1.613 1_455 S
S1236 N1238 1.610 . S
N1237 S1236 1.613 1_655 S
N1237 C1240 1.350 . S
N1238 S1236 1.610 . S
N1238 C1239 1.351 . S
C1239 C1233 1.428 . S
C1239 N1238 1.351 . S
C1239 C1240 1.434 1_455 S
C1240 C1231 1.429 . S
C1240 N1237 1.350 . S
C1240 C1239 1.434 1_655 S
C1241 C1242 1.369 . S
C1241 C1243 1.419 . S
C1241 H1245 0.930 . S
C1242 C1241 1.369 . S
C1242 C1251 1.429 . S
C1243 C1241 1.419 . S
C1243 C1244 1.363 . S
C1243 H1246 0.929 . S
C1244 C1243 1.363 . S
C1244 C1250 1.428 . S
H1245 C1241 0.930 . S
H1246 C1243 0.929 . S
S1247 N1248 1.613 . S
S1247 N1249 1.610 . S
N1248 S1247 1.613 . S
N1248 C1251 1.350 . S
N1249 S1247 1.610 . S
N1249 C1250 1.351 . S
C1250 C1244 1.428 . S
C1250 N1249 1.351 . S
C1250 C1251 1.434 . S
C1251 C1242 1.429 . S
C1251 N1248 1.350 . S
C1251 C1250 1.434 . S
C1252 C1253 1.369 . S
C1252 C1254 1.419 1_565 S
C1252 H1256 0.930 . S
C1253 C1252 1.369 . S
C1253 C1262 1.429 . S
C1254 C1252 1.419 1_545 S
C1254 C1255 1.363 . S
C1254 H1257 0.929 . S
C1255 C1254 1.363 . S
C1255 C1261 1.428 . S
H1256 C1252 0.930 . S
H1257 C1254 0.929 . S
S1258 N1259 1.613 1_545 S
S1258 N1260 1.610 . S
N1259 S1258 1.613 1_565 S
N1259 C1262 1.350 . S
N1260 S1258 1.610 . S
N1260 C1261 1.351 . S
C1261 C1255 1.428 . S
C1261 N1260 1.351 . S
C1261 C1262 1.434 1_545 S
C1262 C1253 1.429 . S
C1262 N1259 1.350 . S
C1262 C1261 1.434 1_565 S
C1263 C1264 1.369 . S
C1263 C1265 1.419 1_565 S
C1263 H1267 0.930 . S
C1264 C1263 1.369 . S
C1264 C1273 1.429 . S
C1265 C1263 1.419 1_545 S
C1265 C1266 1.363 . S
C1265 H1268 0.929 . S
C1266 C1265 1.363 . S
C1266 C1272 1.428 . S
H1267 C1263 0.930 . S
H1268 C1265 0.929 . S
S1269 N1270 1.613 . S
S1269 N1271 1.610 1_565 S
N1270 S1269 1.613 . S
N1270 C1273 1.350 . S
N1271 S1269 1.610 1_545 S
N1271 C1272 1.351 . S
C1272 C1266 1.428 . S
C1272 N1271 1.351 . S
C1272 C1273 1.434 1_545 S
C1273 C1264 1.429 . S
C1273 N1270 1.350 . S
C1273 C1272 1.434 1_565 S
C1274 C1275 1.369 . S
C1274 C1276 1.419 1_655 S
C1274 H1278 0.930 . S
C1275 C1274 1.369 . S
C1275 C1284 1.429 . S
C1276 C1274 1.419 1_455 S
C1276 C1277 1.363 . S
C1276 H1279 0.929 . S
C1277 C1276 1.363 . S
C1277 C1283 1.428 . S
H1278 C1274 0.930 . S
H1279 C1276 0.929 . S
S1280 N1281 1.613 1_455 S
S1280 N1282 1.610 . S
N1281 S1280 1.613 1_655 S
N1281 C1284 1.350 . S
N1282 S1280 1.610 . S
N1282 C1283 1.351 . S
C1283 C1277 1.428 . S
C1283 N1282 1.351 . S
C1283 C1284 1.434 1_455 S
C1284 C1275 1.429 . S
C1284 N1281 1.350 . S
C1284 C1283 1.434 1_655 S
C1285 C1286 1.369 . S
C1285 C1287 1.419 . S
C1285 H1289 0.930 . S
C1286 C1285 1.369 . S
C1286 C1295 1.429 . S
C1287 C1285 1.419 . S
C1287 C1288 1.363 . S
C1287 H1290 0.929 . S
C1288 C1287 1.363 . S
C1288 C1294 1.428 . S
H1289 C1285 0.930 . S
H1290 C1287 0.929 . S
S1291 N1292 1.613 . S
S1291 N1293 1.610 . S
N1292 S1291 1.613 . S
N1292 C1295 1.350 . S
N1293 S1291 1.610 . S
N1293 C1294 1.351 . S
C1294 C1288 1.428 . S
C1294 N1293 1.351 . S
C1294 C1295 1.434 . S
C1295 C1286 1.429 . S
C1295 N1292 1.350 . S
C1295 C1294 1.434 . S
C505 C8 1.458 . S
C507 C260 1.444 . S
C516 C17 1.548 . S
C518 C273 1.565 . S
C527 C287 1.598 . S
C529 C31 1.552 . S
C538 C45 1.547 . S
C540 C469 1.601 . S
C549 C483 1.564 . S
C551 C59 1.543 . S
C560 C78 1.455 . S
C562 C498 1.447 . S
C571 C344 1.458 . S
C573 C92 1.444 . S
C582 C105 1.563 . S
C584 C353 1.547 . S
C593 C119 1.599 . S
C595 C367 1.549 . S
C604 C133 1.606 . S
C606 C213 1.543 . S
C615 C227 1.545 . S
C617 C147 1.564 . S
C626 C162 1.452 . S
C628 C246 1.452 . S
C637 C176 1.458 . S
C639 C428 1.443 . S
C648 C185 1.537 . S
C650 C441 1.570 . S
C659 C199 1.553 . S
C661 C455 1.601 . S
C670 C301 1.599 . S
C672 C381 1.552 . S
C681 C315 1.570 . S
C683 C395 1.543 . S
C692 C330 1.443 . S
C694 C414 1.457 . S
C703 C101 1.419 1_545 S
C705 C3 1.421 1_556 S
C714 C115 1.461 1_655 S
C716 C22 1.527 1_556 S
C725 C36 1.417 . S
C727 C93 1.336 . S
C736 C163 1.338 1_455 S
C738 C50 1.418 . S
C747 C129 1.457 . S
C749 C64 1.529 . S
C758 C143 1.413 1_565 S
C760 C73 1.420 . S
C769 C91 1.433 . S
C771 C21 1.395 1_565 S
C780 C106 1.524 . S
C782 C35 1.468 1_455 S
C791 C120 1.412 . S
C793 C9 1.356 . S
C802 C134 1.415 . S
C804 C79 1.355 1_655 S
C813 C49 1.475 . S
C815 C148 1.520 . S
C824 C63 1.395 1_545 S
C826 C161 1.435 . S
C835 C171 1.427 . S
C837 C269 1.410 . S
C846 C190 1.526 . S
C848 C283 1.455 . S
C857 C204 1.423 . S
C859 C261 1.327 . S
C868 C331 1.324 . S
C870 C218 1.421 . S
C879 C232 1.525 . S
C881 C297 1.459 . S
C890 C311 1.416 . S
C892 C241 1.425 . S
C901 C259 1.428 . S
C903 C189 1.400 . S
C912 C203 1.465 . S
C914 C274 1.525 . S
C923 C177 1.355 . S
C925 C288 1.413 . S
C934 C302 1.418 . S
C936 C247 1.350 . S
C945 C316 1.521 . S
C947 C217 1.472 . S
C956 C329 1.430 . S
C958 C231 1.398 . S
C967 C437 1.409 . S
C969 C339 1.423 . S
C978 C358 1.529 . S
C980 C451 1.452 . S
C989 C372 1.418 . S
C991 C429 1.329 . S
C1000 C499 1.330 . S
C1002 C386 1.418 . S
C1011 C465 1.453 . S
C1013 C400 1.530 . S
C1022 C479 1.419 . S
C1024 C409 1.421 . S
C1033 C357 1.403 . S
C1035 C427 1.428 . S
C1044 C371 1.466 . S
C1046 C442 1.524 . S
C1055 C345 1.355 . S
C1057 C456 1.416 . S
C1066 C470 1.419 . S
C1068 C415 1.349 . S
C1077 C385 1.469 . S
C1079 C484 1.523 . S
C1088 C497 1.436 . S
C1090 C399 1.397 . S
C1099 C7 1.241 . S
C1101 C413 1.238 . S
C1110 C387 1.131 1_545 S
C1112 C23 1.122 . S
C1121 C37 1.127 . S
C1123 C401 1.133 1_655 S
C1132 C51 1.131 . S
C1134 C191 1.122 . S
C1143 C205 1.133 1_565 S
C1145 C65 1.128 . S
C1154 C77 1.243 . S
C1156 C175 1.240 1_455 S
C1165 C325 1.166 . S
C1167 C87 1.165 . S
C1176 C107 1.136 . S
C1178 C303 1.126 . S
C1187 C121 1.122 . S
C1189 C317 1.133 . S
C1198 C135 1.128 . S
C1200 C443 1.124 . S
C1209 C149 1.133 . S
C1211 C457 1.132 . S
C1220 C423 1.162 . S
C1222 C157 1.170 . S
C1231 C219 1.129 . S
C1233 C359 1.122 . S
C1242 C373 1.130 . S
C1244 C233 1.131 . S
C1253 C343 1.243 . S
C1255 C245 1.241 . S
C1264 C493 1.169 . S
C1266 C255 1.172 . S
C1275 C275 1.136 . S
C1277 C471 1.126 . S
C1286 C289 1.121 . S
C1288 C485 1.131 . S
