# Generated by pormake.
# Topology nov, (5)-cn, num edge types: 1
# Building blocks:
#     Node 0, Type 0, BuildingBlock: XOMCOT_clean_sbu_0, # of connection points: 5
#     Node 1, Type 0, BuildingBlock: XOMCOT_clean_sbu_0, # of connection points: 5
#     Node 2, Type 0, BuildingBlock: XOMCOT_clean_sbu_0, # of connection points: 5
#     Node 3, Type 0, BuildingBlock: XOMCOT_clean_sbu_0, # of connection points: 5
#     Node 4, Type 0, BuildingBlock: XOMCOT_clean_sbu_0, # of connection points: 5
#     Node 5, Type 0, BuildingBlock: XOMCOT_clean_sbu_0, # of connection points: 5
#     Node 6, Type 0, BuildingBlock: XOMCOT_clean_sbu_0, # of connection points: 5
#     Node 7, Type 0, BuildingBlock: XOMCOT_clean_sbu_0, # of connection points: 5
#     Edge 8, Type (0, 0), BuildingBlock: AJUNOK_clean_linker_0, # of connection points: 2
#     Edge 9, Type (0, 0), BuildingBlock: AJUNOK_clean_linker_0, # of connection points: 2
#     Edge 10, Type (0, 0), BuildingBlock: AJUNOK_clean_linker_0, # of connection points: 2
#     Edge 11, Type (0, 0), BuildingBlock: AJUNOK_clean_linker_0, # of connection points: 2
#     Edge 12, Type (0, 0), BuildingBlock: AJUNOK_clean_linker_0, # of connection points: 2
#     Edge 13, Type (0, 0), BuildingBlock: AJUNOK_clean_linker_0, # of connection points: 2
#     Edge 14, Type (0, 0), BuildingBlock: AJUNOK_clean_linker_0, # of connection points: 2
#     Edge 15, Type (0, 0), BuildingBlock: AJUNOK_clean_linker_0, # of connection points: 2
#     Edge 16, Type (0, 0), BuildingBlock: AJUNOK_clean_linker_0, # of connection points: 2
#     Edge 17, Type (0, 0), BuildingBlock: AJUNOK_clean_linker_0, # of connection points: 2
#     Edge 18, Type (0, 0), BuildingBlock: AJUNOK_clean_linker_0, # of connection points: 2
#     Edge 19, Type (0, 0), BuildingBlock: AJUNOK_clean_linker_0, # of connection points: 2
#     Edge 20, Type (0, 0), BuildingBlock: AJUNOK_clean_linker_0, # of connection points: 2
#     Edge 21, Type (0, 0), BuildingBlock: AJUNOK_clean_linker_0, # of connection points: 2
#     Edge 22, Type (0, 0), BuildingBlock: AJUNOK_clean_linker_0, # of connection points: 2
#     Edge 23, Type (0, 0), BuildingBlock: AJUNOK_clean_linker_0, # of connection points: 2
#     Edge 24, Type (0, 0), BuildingBlock: AJUNOK_clean_linker_0, # of connection points: 2
#     Edge 25, Type (0, 0), BuildingBlock: AJUNOK_clean_linker_0, # of connection points: 2
#     Edge 26, Type (0, 0), BuildingBlock: AJUNOK_clean_linker_0, # of connection points: 2
#     Edge 27, Type (0, 0), BuildingBlock: AJUNOK_clean_linker_0, # of connection points: 2
# Relax obj value: 0.153
# Max RMSD: 0.185
# Mean RMSD: 0.185
data_MOF--net-nov--node1-XOMCOT_clean_sbu_0--edge1-AJUNOK_clean_linker_0
_symmetry_space_group_name_H-M    P1
_symmetry_Int_Tables_number       1
_symmetry_cell_setting            triclinic
loop_
_symmetry_equiv_pos_as_xyz
'x, y, z'
_cell_length_a     19.756035
_cell_length_b     41.153111
_cell_length_c     21.971104
_cell_angle_alpha  89.884423
_cell_angle_beta   89.813414
_cell_angle_gamma 90.315085
loop_
_atom_site_label
_atom_site_type_symbol
_atom_site_fract_x
_atom_site_fract_y
_atom_site_fract_z
_atom_type_partial_charge
Co0 Co 0.05185 0.17596 0.16226 0.0
C1 C 0.04775 0.11333 0.09128 0.0
C2 C 0.10833 0.11101 0.17191 0.0
C3 C 0.10825 0.08098 0.14532 0.0
N4 N 0.07118 0.13159 0.13802 0.0
N5 N 0.0696 0.08221 0.09505 0.0
H6 H 1.01429 0.1221 0.05621 0.0
H7 H 0.13297 0.11695 0.21414 0.0
C8 C 0.16971 0.17627 0.24702 0.0
O9 O 0.1283 0.16816 0.29143 0.0
N10 N 0.03346 0.21985 0.18989 0.0
C11 C 1.01607 0.24646 0.15776 0.0
C12 C 1.00967 0.27234 0.19746 0.0
C13 C 0.03577 0.22973 0.24832 0.0
N14 N 1.02281 0.26174 0.25437 0.0
C15 C 0.03769 0.18962 0.03491 0.0
C16 C 0.15342 0.22706 0.02218 0.0
C17 C 0.10812 0.22518 0.97338 0.0
C18 C 0.05049 0.20548 0.97975 0.0
C19 C 0.13847 0.21111 0.0768 0.0
N20 N 0.08079 0.1928 0.08308 0.0
H21 H 0.99111 0.17607 0.03955 0.0
H22 H 0.17214 0.21523 0.11447 0.0
H23 H 1.00894 0.24726 0.10902 0.0
H24 H 0.04511 0.21356 0.28599 0.0
O25 O 0.95712 0.16983 0.14535 0.0
O26 O 1.00522 0.15911 0.23373 0.0
O27 O 0.14704 0.17982 0.19325 0.0
C28 C 0.95028 0.16004 0.20113 0.0
H29 H 0.13564 0.05996 0.16139 0.0
H30 H 0.99775 0.29714 0.18522 0.0
H31 H 0.19919 0.24157 0.0189 0.0
H32 H 1.01382 0.20354 0.94337 0.0
Co33 Co 0.58908 0.88325 0.66331 0.0
C34 C 0.58793 0.94392 0.58919 0.0
C35 C 0.53034 0.94771 0.67192 0.0
C36 C 0.52878 0.97718 0.64258 0.0
N37 N 0.56679 0.92682 0.6383 0.0
N38 N 0.56499 0.97492 0.59059 0.0
H39 H 0.62113 0.93416 0.55461 0.0
H40 H 0.5079 0.94213 0.71565 0.0
C41 C 0.45604 0.85318 0.70323 0.0
O42 O 0.47588 0.82551 0.67954 0.0
N43 N 0.61186 0.83999 0.69176 0.0
C44 C 0.64542 0.81554 0.66426 0.0
C45 C 0.65213 0.79023 0.70507 0.0
C46 C 0.60079 0.82954 0.74916 0.0
N47 N 0.62328 0.79904 0.75813 0.0
C48 C 0.6129 0.85807 0.54402 0.0
C49 C 0.48003 0.84961 0.50865 0.0
C50 C 0.53194 0.8384 0.47056 0.0
C51 C 0.59896 0.84358 0.4882 0.0
C52 C 0.49639 0.86467 0.56411 0.0
N53 N 0.56221 0.86672 0.58315 0.0
H54 H 0.66525 0.86127 0.55629 0.0
H55 H 0.45589 0.87452 0.59123 0.0
H56 H 0.66507 0.81575 0.61851 0.0
H57 H 0.57718 0.84431 0.78386 0.0
O58 O 0.68345 0.89152 0.64601 0.0
O59 O 0.6347 0.90069 0.73475 0.0
O60 O 0.49407 0.87842 0.69884 0.0
C61 C 0.68983 0.9009 0.70197 0.0
H62 H 0.5028 0.99868 0.65838 0.0
H63 H 0.67588 0.76706 0.69627 0.0
H64 H 0.42751 0.84701 0.49543 0.0
H65 H 0.64057 0.83569 0.45966 0.0
Co66 Co 0.05531 0.88555 0.8535 0.0
C67 C 0.05362 0.9464 0.92577 0.0
C68 C 0.11585 0.95007 0.84572 0.0
C69 C 0.11607 0.97965 0.87453 0.0
N70 N 0.07736 0.92921 0.87811 0.0
N71 N 0.07695 0.97744 0.92487 0.0
H72 H 1.01833 0.93663 0.95888 0.0
H73 H 0.14057 0.94441 0.80314 0.0
C74 C 0.1893 0.8552 0.82117 0.0
O75 O 0.16768 0.82823 0.84703 0.0
N76 N 0.03258 0.84215 0.82529 0.0
C77 C 0.99029 0.81952 0.84909 0.0
C78 C 0.9808 0.79517 0.80695 0.0
C79 C 0.04649 0.83153 0.7686 0.0
N80 N 1.01569 0.80299 0.7562 0.0
C81 C 1.02726 0.85885 0.9713 0.0
C82 C 0.15888 0.85445 0.01216 0.0
C83 C 0.10675 0.83998 0.04625 0.0
C84 C 0.04017 0.84329 0.02638 0.0
C85 C 0.14357 0.86976 0.95672 0.0
N86 N 0.07883 0.86952 0.93469 0.0
H87 H 0.97529 0.86147 0.95756 0.0
H88 H 0.184 0.88132 0.93147 0.0
H89 H 0.96456 0.82092 0.89222 0.0
H90 H 0.07802 0.8449 0.73683 0.0
O91 O 0.96035 0.89385 0.86746 0.0
O92 O 1.01336 0.90247 0.78021 0.0
O93 O 0.15155 0.88043 0.82137 0.0
C94 C 0.95674 0.90266 0.81082 0.0
H95 H 0.14318 1.00117 0.85958 0.0
H96 H 0.94822 0.7741 0.81217 0.0
H97 H 0.21085 0.85331 0.02752 0.0
H98 H 0.99844 0.83342 0.05281 0.0
Co99 Co 0.5865 0.17531 0.35692 0.0
C100 C 0.5909 0.11135 0.42448 0.0
C101 C 0.52724 0.11053 0.34576 0.0
C102 C 0.52686 0.0801 0.37118 0.0
N103 N 0.56659 0.13045 0.3793 0.0
N104 N 0.56735 0.08044 0.42034 0.0
H105 H 0.62613 0.11933 0.45881 0.0
H106 H 0.50115 0.11727 0.30466 0.0
C107 C 0.46306 0.17769 0.27917 0.0
O108 O 0.50146 0.17148 0.23175 0.0
N109 N 0.60577 0.21972 0.33155 0.0
C110 C 0.62833 0.24483 0.3655 0.0
C111 C 0.63765 0.27155 0.32821 0.0
C112 C 0.60336 0.23135 0.27403 0.0
N113 N 0.62257 0.26283 0.27074 0.0
C114 C 0.60856 0.18544 0.48448 0.0
C115 C 0.49922 0.22576 0.50405 0.0
C116 C 0.54598 0.22124 0.55096 0.0
C117 C 0.60031 0.20018 0.54117 0.0
C118 C 0.5093 0.21059 0.44794 0.0
N119 N 0.56363 0.19069 0.43841 0.0
H120 H 0.65336 0.17117 0.4769 0.0
H121 H 0.47561 0.21693 0.4114 0.0
H122 H 0.63817 0.24389 0.41383 0.0
H123 H 0.58804 0.21712 0.23514 0.0
O124 O 0.68179 0.1683 0.3684 0.0
O125 O 0.62745 0.15981 0.28203 0.0
O126 O 0.48952 0.18017 0.3317 0.0
C127 C 0.68449 0.15981 0.31165 0.0
H128 H 0.49777 0.05947 0.35524 0.0
H129 H 0.65524 0.29537 0.342 0.0
H130 H 0.45724 0.24235 0.50953 0.0
H131 H 0.63745 0.19595 0.57643 0.0
Co132 Co 0.55357 0.67377 0.16927 0.0
C133 C 0.55312 0.61152 0.09999 0.0
C134 C 0.61998 0.61044 0.17669 0.0
C135 C 0.62266 0.58081 0.148 0.0
N136 N 0.577 0.62984 0.14624 0.0
N137 N 0.58086 0.58149 0.09961 0.0
H138 H 0.51502 0.61965 0.06839 0.0
H139 H 0.64733 0.61721 0.21732 0.0
C140 C 0.6821 0.70282 0.22386 0.0
O141 O 0.65975 0.73265 0.21905 0.0
N142 N 0.52874 0.71753 0.19409 0.0
C143 C 0.51039 0.74273 0.1585 0.0
C144 C 0.49783 0.76928 0.19487 0.0
C145 C 0.52443 0.72885 0.25179 0.0
N146 N 0.50739 0.7606 0.2534 0.0
C147 C 0.53175 0.68694 0.04318 0.0
C148 C 0.64994 0.72094 0.02026 0.0
C149 C 0.59897 0.72076 0.97613 0.0
C150 C 0.54067 0.70223 0.98709 0.0
C151 C 0.63936 0.70492 0.07579 0.0
N152 N 0.57932 0.68944 0.08805 0.0
H153 H 0.48471 0.67425 0.05094 0.0
H154 H 0.67922 0.70612 0.10863 0.0
H155 H 0.50686 0.74226 0.10949 0.0
H156 H 0.53752 0.71469 0.29158 0.0
O157 O 0.4593 0.6649 0.15424 0.0
O158 O 0.51059 0.65692 0.24224 0.0
O159 O 0.64845 0.67873 0.20282 0.0
C160 C 0.45493 0.65588 0.21073 0.0
H161 H 0.65388 0.56047 0.16122 0.0
H162 H 0.48344 0.79324 0.17935 0.0
H163 H 0.69647 0.73447 0.01299 0.0
H164 H 0.50108 0.7004 0.95325 0.0
Co165 Co 0.0847 0.38794 0.66522 0.0
C166 C 0.07478 0.44904 0.59216 0.0
C167 C 1.02392 0.45165 0.67864 0.0
C168 C 1.01491 0.48063 0.6487 0.0
N169 N 0.0606 0.43174 0.64305 0.0
N170 N 0.04682 0.47894 0.59457 0.0
H171 H 0.10356 0.43987 0.55395 0.0
H172 H 1.00502 0.44546 0.72344 0.0
C173 C 0.9528 0.35574 0.70445 0.0
O174 O 0.9749 0.32806 0.68256 0.0
N175 N 0.10911 0.34437 0.69053 0.0
C176 C 0.14074 0.3204 0.65993 0.0
C177 C 0.15173 0.29482 0.69938 0.0
C178 C 0.10279 0.33331 0.74808 0.0
N179 N 0.12827 0.30319 0.75481 0.0
C180 C 0.11355 0.36811 0.54343 0.0
C181 C 0.98479 0.34974 0.50895 0.0
C182 C 0.03981 0.34127 0.47173 0.0
C183 C 0.1041 0.35249 0.488 0.0
C184 C 0.99645 0.36613 0.56416 0.0
N185 N 0.06106 0.37267 0.58317 0.0
H186 H 0.16455 0.37475 0.55532 0.0
H187 H 0.95339 0.37286 0.59138 0.0
H188 H 0.15635 0.32125 0.61292 0.0
H189 H 0.07872 0.34701 0.78405 0.0
O190 O 0.17924 0.39757 0.65077 0.0
O191 O 0.12819 0.40424 0.73906 0.0
O192 O 0.98901 0.38154 0.69879 0.0
C193 C 0.18418 0.40548 0.70757 0.0
H194 H 0.98711 0.50144 0.6653 0.0
H195 H 0.17631 0.27211 0.68849 0.0
H196 H 0.93369 0.34279 0.49666 0.0
H197 H 0.14761 0.34811 0.45908 0.0
Co198 Co 0.55146 0.38488 0.85858 0.0
C199 C 0.55457 0.44642 0.93041 0.0
C200 C 0.60894 0.44953 0.84575 0.0
C201 C 0.61157 0.47934 0.87348 0.0
N202 N 0.57367 0.42886 0.88141 0.0
N203 N 0.57677 0.47757 0.92632 0.0
H204 H 0.52409 0.43686 0.96743 0.0
H205 H 0.63034 0.44343 0.80193 0.0
C206 C 0.6857 0.35498 0.82271 0.0
O207 O 0.66569 0.32768 0.84836 0.0
N208 N 0.52908 0.34116 0.83211 0.0
C209 C 0.49204 0.31757 0.85939 0.0
C210 C 0.4863 0.2916 0.82003 0.0
C211 C 0.54323 0.32957 0.77616 0.0
N212 N 0.51931 0.29915 0.76812 0.0
C213 C 0.52497 0.36096 0.97879 0.0
C214 C 0.65709 0.35262 0.01587 0.0
C215 C 0.60441 0.34114 0.05323 0.0
C216 C 0.53778 0.34659 0.03507 0.0
C217 C 0.64186 0.36769 0.96014 0.0
N218 N 0.57645 0.36946 0.94007 0.0
H219 H 0.4729 0.36417 0.96579 0.0
H220 H 0.68294 0.3776 0.93344 0.0
H221 H 0.469 0.31897 0.90379 0.0
H222 H 0.56979 0.34348 0.74161 0.0
O223 O 0.4564 0.39305 0.87354 0.0
O224 O 0.50754 0.40117 0.78544 0.0
O225 O 0.64735 0.38 0.82477 0.0
C226 C 0.45151 0.40164 0.81691 0.0
H227 H 0.63796 0.5006 0.85633 0.0
H228 H 0.45999 0.26892 0.82888 0.0
H229 H 0.70937 0.34997 0.02963 0.0
H230 H 0.49564 0.33874 0.06327 0.0
Co231 Co 0.08762 0.67415 0.34986 0.0
C232 C 0.07424 0.61206 0.42382 0.0
C233 C 1.02617 0.61022 0.33654 0.0
C234 C 1.01686 0.58071 0.36465 0.0
N235 N 0.06055 0.63034 0.37399 0.0
N236 N 0.04711 0.58194 0.4193 0.0
H237 H 0.10327 0.62 0.46247 0.0
H238 H 1.00915 0.61661 0.29136 0.0
C239 C 0.93822 0.67376 0.33772 0.0
O240 O 0.93574 0.66143 0.39288 0.0
N241 N 0.11481 0.71697 0.32239 0.0
C242 C 0.15812 0.73762 0.34975 0.0
C243 C 0.16858 0.76402 0.31198 0.0
C244 C 0.09984 0.73083 0.26847 0.0
N245 N 0.1317 0.75975 0.26091 0.0
C246 C 0.09613 0.6866 0.47822 0.0
C247 C 1.00083 0.73547 0.48114 0.0
C248 C 0.03699 0.7284 0.53424 0.0
C249 C 0.08482 0.70342 0.5324 0.0
C250 C 1.01475 0.71851 0.42768 0.0
N251 N 0.0599 0.69342 0.427 0.0
H252 H 0.13728 0.66957 0.47673 0.0
H253 H 0.99111 0.72667 0.38622 0.0
H254 H 0.18203 0.7333 0.39322 0.0
H255 H 0.0671 0.71966 0.23501 0.0
O256 O 0.17996 0.66489 0.37033 0.0
O257 O 0.1336 0.65576 0.28023 0.0
O258 O 0.99507 0.68079 0.31285 0.0
C259 C 0.18726 0.65503 0.31462 0.0
H260 H 0.99054 0.5598 0.34626 0.0
H261 H 0.20298 0.78403 0.32049 0.0
H262 H 0.96336 0.75456 0.48024 0.0
H263 H 0.11565 0.69793 0.57174 0.0
C264 C 0.06524 0.03595 0.94817 0.0
C265 C 0.06482 1.0033 0.9679 0.0
C266 C 0.06259 0.06177 0.98973 0.0
C267 C 0.05957 0.05592 0.05264 0.0
H268 H 0.06946 0.04165 0.90019 0.0
H269 H 0.06647 0.08642 0.97269 0.0
S270 S 0.04841 0.9752 0.12791 0.0
N271 N 0.05581 0.9668 0.05477 0.0
N272 N 0.04823 1.01524 0.13249 0.0
C273 C 0.05451 1.02348 0.07281 0.0
C274 C 0.05765 0.99719 0.03058 0.0
C275 C 0.57836 0.05937 0.52512 0.0
C276 C 0.57739 0.05376 0.4621 0.0
C277 C 0.57721 0.03344 0.56668 0.0
C278 C 0.57528 1.00084 0.54694 0.0
H279 H 0.57669 0.08396 0.54245 0.0
H280 H 0.57619 0.03901 0.61479 0.0
S281 S 0.58075 0.97319 0.38638 0.0
N282 N 0.58198 1.01324 0.38178 0.0
N283 N 0.57761 0.96458 0.45976 0.0
C284 C 0.57824 0.99492 0.484 0.0
C285 C 0.57967 1.02135 0.44166 0.0
C286 C 0.57622 0.52287 0.07473 0.0
C287 C 0.57139 0.55558 0.05605 0.0
C288 C 0.57465 0.49731 0.03246 0.0
C289 C 0.56869 0.50351 0.96982 0.0
H290 H 0.58256 0.51698 0.1224 0.0
H291 H 0.58108 0.47266 0.04865 0.0
S292 S 0.54802 0.58441 0.89735 0.0
N293 N 0.55663 0.59243 0.9705 0.0
N294 N 0.55161 0.54446 0.89155 0.0
C295 C 0.56043 0.53594 0.95076 0.0
C296 C 0.56216 0.56194 0.99371 0.0
C297 C 0.10823 0.51726 0.52708 0.0
C298 C 0.04704 0.5038 0.54856 0.0
C299 C 0.10828 0.54349 0.48578 0.0
C300 C 0.04717 0.55637 0.46394 0.0
H301 H 0.15598 0.50791 0.5434 0.0
H302 H 0.15609 0.55347 0.4701 0.0
S303 S 0.87412 0.52922 0.50559 0.0
N304 N 0.9244 0.5052 0.54507 0.0
N305 N 0.92455 0.55371 0.4664 0.0
C306 C 0.98602 0.54278 0.48458 0.0
C307 C 0.98594 0.51667 0.52722 0.0
C308 C 0.3589 0.17944 0.21448 0.0
C309 C 0.38813 0.17882 0.27273 0.0
C310 C 0.28848 0.17918 0.20686 0.0
C311 C 0.24402 0.1781 0.25718 0.0
H312 H 0.39059 0.17991 0.17416 0.0
H313 H 0.26893 0.17926 0.16086 0.0
S314 S 0.29428 0.17709 0.41982 0.0
N315 N 0.36659 0.17767 0.38204 0.0
N316 N 0.23453 0.17736 0.36753 0.0
C317 C 0.27242 0.17797 0.31578 0.0
C318 C 0.34426 0.17831 0.32361 0.0
C319 C 0.35572 0.82607 0.7524 0.0
C320 C 0.38847 0.8549 0.73368 0.0
C321 C 0.29208 0.82657 0.78101 0.0
C322 C 0.25763 0.85592 0.79174 0.0
H323 H 0.3796 0.80274 0.74531 0.0
H324 H 0.2695 0.80357 0.79427 0.0
S325 S 0.3209 0.93841 0.75142 0.0
N326 N 0.38127 0.9138 0.728 0.0
N327 N 0.26185 0.91476 0.7815 0.0
C328 C 0.28976 0.885 0.77329 0.0
C329 C 0.35499 0.88449 0.74447 0.0
C330 C 0.83092 0.90863 0.81797 0.0
C331 C 0.88994 0.90819 0.78174 0.0
C332 C 0.76618 0.90828 0.79181 0.0
C333 C 0.7578 0.90732 0.72832 0.0
H334 H 0.83455 0.90791 0.86714 0.0
H335 H 0.72255 0.90714 0.82173 0.0
S336 S 0.89576 0.90962 0.61291 0.0
N337 N 0.93554 0.90962 0.67885 0.0
N338 N 0.81424 0.90902 0.62965 0.0
C339 C 0.81635 0.90889 0.69148 0.0
C340 C 0.88229 0.90933 0.71817 0.0
C341 C 0.80965 0.15298 0.31771 0.0
C342 C 0.7507 0.15408 0.28186 0.0
C343 C 0.87418 0.15292 0.29113 0.0
C344 C 0.8823 0.15412 0.22763 0.0
H345 H 0.80619 0.15344 0.36692 0.0
H346 H 0.9179 0.15355 0.32075 0.0
S347 S 0.74427 0.15302 0.11316 0.0
N348 N 0.7046 0.15323 0.1794 0.0
N349 N 0.82583 0.15305 0.12927 0.0
C350 C 0.82378 0.15312 0.19112 0.0
C351 C 0.75798 0.15309 0.21826 0.0
C352 C 0.85638 0.66787 0.25238 0.0
C353 C 0.87479 0.68265 0.30747 0.0
C354 C 0.79367 0.67453 0.2253 0.0
C355 C 0.74874 0.69696 0.25157 0.0
H356 H 0.88977 0.65042 0.23109 0.0
H357 H 0.78033 0.66215 0.1835 0.0
S358 S 0.7749 0.74263 0.39488 0.0
N359 N 0.84389 0.72047 0.3874 0.0
N360 N 0.72748 0.7342 0.33509 0.0
C361 C 0.76759 0.71247 0.30583 0.0
C362 C 0.83035 0.70496 0.33423 0.0
C363 C 0.85192 0.32759 0.75088 0.0
C364 C 0.88455 0.35681 0.73414 0.0
C365 C 0.78824 0.32742 0.7795 0.0
C366 C 0.75356 0.35645 0.79234 0.0
H367 H 0.87593 0.30444 0.74231 0.0
H368 H 0.7659 0.30414 0.79125 0.0
S369 S 0.81592 0.43978 0.75729 0.0
N370 N 0.87658 0.41577 0.73225 0.0
N371 N 0.75708 0.41545 0.78577 0.0
C372 C 0.78529 0.38592 0.77555 0.0
C373 C 0.85058 0.38611 0.74667 0.0
C374 C 0.32497 0.40523 0.82497 0.0
C375 C 0.38414 0.40802 0.78911 0.0
C376 C 0.26015 0.40652 0.79888 0.0
C377 C 0.25178 0.41058 0.73581 0.0
H378 H 0.32855 0.40071 0.87343 0.0
H379 H 0.21652 0.40264 0.82805 0.0
S380 S 0.38966 0.42311 0.62257 0.0
N381 N 0.42953 0.41804 0.68778 0.0
N382 N 0.30817 0.4205 0.63883 0.0
C383 C 0.31034 0.41532 0.69992 0.0
C384 C 0.37633 0.41405 0.7265 0.0
C385 C 0.2651 0.64744 0.22634 0.0
C386 C 0.25527 0.64811 0.28968 0.0
C387 C 0.33031 0.64786 0.20125 0.0
C388 C 0.38814 0.64885 0.23852 0.0
H389 H 0.22229 0.6485 0.19574 0.0
H390 H 0.33519 0.64899 0.15216 0.0
S391 S 0.38982 0.64558 0.40727 0.0
N392 N 0.30877 0.64572 0.38928 0.0
N393 N 0.43135 0.6466 0.34197 0.0
C394 C 0.3791 0.64687 0.30189 0.0
C395 C 0.31261 0.6465 0.3275 0.0
C396 C 0.11443 0.2502 0.8065 0.0
C397 C 0.12818 0.28373 0.80943 0.0
C398 C 0.10923 0.2313 0.85959 0.0
C399 C 0.11824 0.24518 0.91755 0.0
H400 H 0.10569 0.23869 0.76294 0.0
H401 H 0.09756 0.20566 0.85525 0.0
S402 S 0.15891 0.33168 0.94952 0.0
N403 N 0.15455 0.32968 0.87461 0.0
N404 N 0.14278 0.29455 0.97438 0.0
C405 C 0.13362 0.27858 0.92091 0.0
C406 C 0.13898 0.29775 0.86689 0.0
C407 C 0.48428 0.79053 0.41419 0.0
C408 C 0.51784 0.82079 0.41299 0.0
C409 C 0.48002 0.77114 0.36163 0.0
C410 C 0.50808 0.78161 0.30592 0.0
H411 H 0.46372 0.78122 0.45658 0.0
H412 H 0.45534 0.74762 0.36461 0.0
S413 S 0.59965 0.85931 0.27885 0.0
N414 N 0.5782 0.86059 0.3515 0.0
N415 N 0.56993 0.82441 0.25294 0.0
C416 C 0.53999 0.81225 0.30392 0.0
C417 C 0.54494 0.83175 0.35741 0.0
C418 C 0.1171 0.78617 0.09718 0.0
C419 C 0.12045 0.8202 0.10107 0.0
C420 C 0.12193 0.76665 0.14938 0.0
C421 C 0.12975 0.78044 0.20761 0.0
H422 H 0.10951 0.7746 0.05345 0.0
H423 H 0.11925 0.74054 0.14407 0.0
S424 S 0.13883 0.86875 0.24166 0.0
N425 N 0.13133 0.8671 0.16687 0.0
N426 N 0.13925 0.83065 0.26552 0.0
C427 C 0.13371 0.81459 0.21182 0.0
C428 C 0.12918 0.83442 0.15843 0.0
C429 C 0.47307 0.26001 0.69373 0.0
C430 C 0.52731 0.27909 0.71498 0.0
C431 C 0.47947 0.24118 0.64081 0.0
C432 C 0.54072 0.24037 0.60797 0.0
H433 H 0.42497 0.26021 0.71748 0.0
H434 H 0.43626 0.22713 0.6255 0.0
S435 S 0.69841 0.28533 0.64575 0.0
N436 N 0.64465 0.29534 0.70015 0.0
N437 N 0.65657 0.26034 0.60055 0.0
C438 C 0.59556 0.25904 0.62927 0.0
C439 C 0.58887 0.27833 0.68277 0.0
C440 C 0.66925 0.759 0.83097 0.0
C441 C 0.6166 0.7797 0.8126 0.0
C442 C 0.66362 0.74015 0.88412 0.0
C443 C 0.60475 0.74102 0.92029 0.0
H444 H 0.71541 0.7577 0.80442 0.0
H445 H 0.70528 0.72451 0.89663 0.0
S446 S 0.45218 0.79103 0.89169 0.0
N447 N 0.50332 0.79945 0.83418 0.0
N448 N 0.49332 0.76479 0.93457 0.0
C449 C 0.55182 0.76167 0.90237 0.0
C450 C 0.5576 0.78082 0.84845 0.0
C451 C 0.98478 0.32625 0.37188 0.0
C452 C 0.03235 0.31965 0.41775 0.0
C453 C 0.98173 0.30724 0.31866 0.0
C454 C 1.02567 0.28077 0.30968 0.0
H455 H 0.95086 0.3467 0.37646 0.0
H456 H 0.94466 0.31326 0.28433 0.0
S457 S 0.15802 0.25287 0.41732 0.0
N458 N 0.12222 0.28392 0.45193 0.0
N459 N 0.11847 0.24927 0.35165 0.0
C460 C 0.07275 0.27373 0.35579 0.0
C461 C 0.07554 0.29287 0.40982 0.0
C462 C 0.59058 0.33343 0.16583 0.0
C463 C 0.61734 0.32257 0.11005 0.0
C464 C 0.59464 0.31427 0.21869 0.0
C465 C 0.62403 0.28323 0.21729 0.0
H466 H 0.56515 0.35665 0.16827 0.0
H467 H 0.57233 0.32321 0.26046 0.0
S468 S 0.7039 0.24415 0.08343 0.0
N469 N 0.67667 0.2794 0.05725 0.0
N470 N 0.68315 0.24316 0.15633 0.0
C471 C 0.65226 0.2724 0.16219 0.0
C472 C 0.64928 0.29215 0.10866 0.0
C473 C 1.02406 0.73272 0.6475 0.0
C474 C 0.02831 0.74813 0.59034 0.0
C475 C 1.01886 0.75079 0.70132 0.0
C476 C 1.01803 0.78495 0.7001 0.0
H477 H 1.02494 0.70646 0.65071 0.0
H478 H 1.01693 0.73795 0.74435 0.0
S479 S 1.02501 0.83714 0.56223 0.0
N480 N 0.03089 0.79972 0.53592 0.0
N481 N 1.01795 0.83349 0.63679 0.0
C482 C 1.02069 0.80068 0.64324 0.0
C483 C 1.02648 0.78232 0.58846 0.0
loop_
_geom_bond_atom_site_label_1
_geom_bond_atom_site_label_2
_geom_bond_distance
_geom_bond_site_symmetry_2
_ccdc_geom_bond_type
Co0 N4 2.148 . S
Co0 N10 2.128 . S
Co0 N20 2.194 . S
Co0 O25 2.351 1_455 S
Co0 O26 2.155 1_455 S
Co0 O27 2.096 . S
C1 N4 1.295 1_655 S
C1 N5 1.325 1_655 S
C1 H6 0.938 . S
C2 C3 1.333 . S
C2 N4 1.317 . S
C2 H7 0.930 . S
C3 C2 1.333 . S
C3 N5 1.350 . S
C3 H29 0.931 . S
N4 Co0 2.148 . S
N4 C1 1.295 1_455 S
N4 C2 1.317 . S
N5 C1 1.325 1_455 S
N5 C3 1.350 . S
H6 C1 0.938 . S
H7 C2 0.930 . S
C8 O9 1.224 . S
C8 O27 1.247 . S
O9 C8 1.224 . S
N10 Co0 2.128 . S
N10 C11 1.355 1_455 S
N10 C13 1.311 . S
C11 N10 1.355 1_655 S
C11 C12 1.363 . S
C11 H23 0.929 . S
C12 C11 1.363 . S
C12 N14 1.375 1_655 S
C12 H30 0.931 . S
C13 N10 1.311 . S
C13 N14 1.347 . S
C13 H24 0.929 . S
N14 C12 1.375 1_455 S
N14 C13 1.347 . S
C15 C18 1.365 . S
C15 N20 1.328 1_655 S
C15 H21 0.929 . S
C16 C17 1.362 1_554 S
C16 C19 1.378 . S
C16 H31 0.929 . S
C17 C16 1.362 1_556 S
C17 C18 1.366 1_456 S
C18 C15 1.365 . S
C18 C17 1.366 1_654 S
C18 H32 0.930 1_554 S
C19 C16 1.378 . S
C19 N20 1.315 . S
C19 H22 0.930 . S
N20 Co0 2.194 . S
N20 C15 1.328 1_455 S
N20 C19 1.315 . S
H21 C15 0.929 . S
H22 C19 0.930 . S
H23 C11 0.929 . S
H24 C13 0.929 . S
O25 Co0 2.351 1_655 S
O25 C28 1.244 . S
O26 Co0 2.155 1_655 S
O26 C28 1.240 . S
O27 Co0 2.096 . S
O27 C8 1.247 . S
C28 O25 1.244 . S
C28 O26 1.240 . S
H29 C3 0.931 . S
H30 C12 0.931 . S
H31 C16 0.929 . S
H32 C18 0.930 1_556 S
Co33 N37 2.148 . S
Co33 N43 2.128 . S
Co33 N53 2.194 . S
Co33 O58 2.351 . S
Co33 O59 2.155 . S
Co33 O60 2.096 . S
C34 N37 1.301 . S
C34 N38 1.328 . S
C34 H39 0.930 . S
C35 C36 1.333 . S
C35 N37 1.317 . S
C35 H40 0.930 . S
C36 C35 1.333 . S
C36 N38 1.350 . S
C36 H62 0.931 . S
N37 Co33 2.148 . S
N37 C34 1.301 . S
N37 C35 1.317 . S
N38 C34 1.328 . S
N38 C36 1.350 . S
H39 C34 0.930 . S
H40 C35 0.930 . S
C41 O42 1.224 . S
C41 O60 1.247 . S
O42 C41 1.224 . S
N43 Co33 2.128 . S
N43 C44 1.355 . S
N43 C46 1.311 . S
C44 N43 1.355 . S
C44 C45 1.363 . S
C44 H56 0.929 . S
C45 C44 1.363 . S
C45 N47 1.375 . S
C45 H63 0.931 . S
C46 N43 1.311 . S
C46 N47 1.347 . S
C46 H57 0.929 . S
N47 C45 1.375 . S
N47 C46 1.347 . S
C48 C51 1.365 . S
C48 N53 1.328 . S
C48 H54 0.929 . S
C49 C50 1.362 . S
C49 C52 1.378 . S
C49 H64 0.929 . S
C50 C49 1.362 . S
C50 C51 1.366 . S
C51 C48 1.365 . S
C51 C50 1.366 . S
C51 H65 0.930 . S
C52 C49 1.378 . S
C52 N53 1.315 . S
C52 H55 0.930 . S
N53 Co33 2.194 . S
N53 C48 1.328 . S
N53 C52 1.315 . S
H54 C48 0.929 . S
H55 C52 0.930 . S
H56 C44 0.929 . S
H57 C46 0.929 . S
O58 Co33 2.351 . S
O58 C61 1.244 . S
O59 Co33 2.155 . S
O59 C61 1.240 . S
O60 Co33 2.096 . S
O60 C41 1.247 . S
C61 O58 1.244 . S
C61 O59 1.240 . S
H62 C36 0.931 . S
H63 C45 0.931 . S
H64 C49 0.929 . S
H65 C51 0.930 . S
Co66 N70 2.148 . S
Co66 N76 2.128 . S
Co66 N86 2.194 . S
Co66 O91 2.351 1_455 S
Co66 O92 2.155 1_455 S
Co66 O93 2.096 . S
C67 N70 1.295 1_655 S
C67 N71 1.325 1_655 S
C67 H72 0.938 . S
C68 C69 1.333 . S
C68 N70 1.317 . S
C68 H73 0.930 . S
C69 C68 1.333 . S
C69 N71 1.350 . S
C69 H95 0.931 . S
N70 Co66 2.148 . S
N70 C67 1.295 1_455 S
N70 C68 1.317 . S
N71 C67 1.325 1_455 S
N71 C69 1.350 . S
H72 C67 0.938 . S
H73 C68 0.930 . S
C74 O75 1.224 . S
C74 O93 1.247 . S
O75 C74 1.224 . S
N76 Co66 2.128 . S
N76 C77 1.355 1_455 S
N76 C79 1.311 . S
C77 N76 1.355 1_655 S
C77 C78 1.363 . S
C77 H89 0.929 . S
C78 C77 1.363 . S
C78 N80 1.375 1_655 S
C78 H96 0.931 . S
C79 N76 1.311 . S
C79 N80 1.347 . S
C79 H90 0.929 . S
N80 C78 1.375 1_455 S
N80 C79 1.347 . S
C81 C84 1.365 . S
C81 N86 1.328 1_655 S
C81 H87 0.929 . S
C82 C83 1.362 1_556 S
C82 C85 1.378 . S
C82 H97 0.929 . S
C83 C82 1.362 1_554 S
C83 C84 1.366 1_454 S
C84 C81 1.365 . S
C84 C83 1.366 1_656 S
C84 H98 0.930 1_556 S
C85 C82 1.378 . S
C85 N86 1.315 . S
C85 H88 0.930 . S
N86 Co66 2.194 . S
N86 C81 1.328 1_455 S
N86 C85 1.315 . S
H87 C81 0.929 . S
H88 C85 0.930 . S
H89 C77 0.929 . S
H90 C79 0.929 . S
O91 Co66 2.351 1_655 S
O91 C94 1.244 . S
O92 Co66 2.155 1_655 S
O92 C94 1.240 . S
O93 Co66 2.096 . S
O93 C74 1.247 . S
C94 O91 1.244 . S
C94 O92 1.240 . S
H95 C69 0.931 . S
H96 C78 0.931 . S
H97 C82 0.929 . S
H98 C84 0.930 1_554 S
Co99 N103 2.148 . S
Co99 N109 2.128 . S
Co99 N119 2.194 . S
Co99 O124 2.351 . S
Co99 O125 2.155 . S
Co99 O126 2.096 . S
C100 N103 1.301 . S
C100 N104 1.328 . S
C100 H105 0.930 . S
C101 C102 1.333 . S
C101 N103 1.317 . S
C101 H106 0.930 . S
C102 C101 1.333 . S
C102 N104 1.350 . S
C102 H128 0.931 . S
N103 Co99 2.148 . S
N103 C100 1.301 . S
N103 C101 1.317 . S
N104 C100 1.328 . S
N104 C102 1.350 . S
H105 C100 0.930 . S
H106 C101 0.930 . S
C107 O108 1.224 . S
C107 O126 1.247 . S
O108 C107 1.224 . S
N109 Co99 2.128 . S
N109 C110 1.355 . S
N109 C112 1.311 . S
C110 N109 1.355 . S
C110 C111 1.363 . S
C110 H122 0.929 . S
C111 C110 1.363 . S
C111 N113 1.375 . S
C111 H129 0.931 . S
C112 N109 1.311 . S
C112 N113 1.347 . S
C112 H123 0.929 . S
N113 C111 1.375 . S
N113 C112 1.347 . S
C114 C117 1.365 . S
C114 N119 1.328 . S
C114 H120 0.929 . S
C115 C116 1.362 . S
C115 C118 1.378 . S
C115 H130 0.929 . S
C116 C115 1.362 . S
C116 C117 1.366 . S
C117 C114 1.365 . S
C117 C116 1.366 . S
C117 H131 0.930 . S
C118 C115 1.378 . S
C118 N119 1.315 . S
C118 H121 0.930 . S
N119 Co99 2.194 . S
N119 C114 1.328 . S
N119 C118 1.315 . S
H120 C114 0.929 . S
H121 C118 0.930 . S
H122 C110 0.929 . S
H123 C112 0.929 . S
O124 Co99 2.351 . S
O124 C127 1.244 . S
O125 Co99 2.155 . S
O125 C127 1.240 . S
O126 Co99 2.096 . S
O126 C107 1.247 . S
C127 O124 1.244 . S
C127 O125 1.240 . S
H128 C102 0.931 . S
H129 C111 0.931 . S
H130 C115 0.929 . S
H131 C117 0.930 . S
Co132 N136 2.148 . S
Co132 N142 2.128 . S
Co132 N152 2.194 . S
Co132 O157 2.351 . S
Co132 O158 2.155 . S
Co132 O159 2.096 . S
C133 N136 1.301 . S
C133 N137 1.328 . S
C133 H138 0.930 . S
C134 C135 1.333 . S
C134 N136 1.317 . S
C134 H139 0.930 . S
C135 C134 1.333 . S
C135 N137 1.350 . S
C135 H161 0.931 . S
N136 Co132 2.148 . S
N136 C133 1.301 . S
N136 C134 1.317 . S
N137 C133 1.328 . S
N137 C135 1.350 . S
H138 C133 0.930 . S
H139 C134 0.930 . S
C140 O141 1.224 . S
C140 O159 1.247 . S
O141 C140 1.224 . S
N142 Co132 2.128 . S
N142 C143 1.355 . S
N142 C145 1.311 . S
C143 N142 1.355 . S
C143 C144 1.363 . S
C143 H155 0.929 . S
C144 C143 1.363 . S
C144 N146 1.375 . S
C144 H162 0.931 . S
C145 N142 1.311 . S
C145 N146 1.347 . S
C145 H156 0.929 . S
N146 C144 1.375 . S
N146 C145 1.347 . S
C147 C150 1.365 . S
C147 N152 1.328 . S
C147 H153 0.929 . S
C148 C149 1.362 1_554 S
C148 C151 1.378 . S
C148 H163 0.929 . S
C149 C148 1.362 1_556 S
C149 C150 1.366 1_556 S
C150 C147 1.365 . S
C150 C149 1.366 1_554 S
C150 H164 0.930 1_554 S
C151 C148 1.378 . S
C151 N152 1.315 . S
C151 H154 0.930 . S
N152 Co132 2.194 . S
N152 C147 1.328 . S
N152 C151 1.315 . S
H153 C147 0.929 . S
H154 C151 0.930 . S
H155 C143 0.929 . S
H156 C145 0.929 . S
O157 Co132 2.351 . S
O157 C160 1.244 . S
O158 Co132 2.155 . S
O158 C160 1.240 . S
O159 Co132 2.096 . S
O159 C140 1.247 . S
C160 O157 1.244 . S
C160 O158 1.240 . S
H161 C135 0.931 . S
H162 C144 0.931 . S
H163 C148 0.929 . S
H164 C150 0.930 1_556 S
Co165 N169 2.148 . S
Co165 N175 2.128 . S
Co165 N185 2.194 . S
Co165 O190 2.351 . S
Co165 O191 2.155 . S
Co165 O192 2.096 1_455 S
C166 N169 1.301 . S
C166 N170 1.328 . S
C166 H171 0.930 . S
C167 C168 1.333 1_655 S
C167 N169 1.317 1_655 S
C167 H172 0.930 . S
C168 C167 1.333 1_455 S
C168 N170 1.350 . S
C168 H194 0.931 1_455 S
N169 Co165 2.148 . S
N169 C166 1.301 . S
N169 C167 1.317 1_455 S
N170 C166 1.328 . S
N170 C168 1.350 . S
H171 C166 0.930 . S
H172 C167 0.930 . S
C173 O174 1.224 . S
C173 O192 1.247 . S
O174 C173 1.224 . S
N175 Co165 2.128 . S
N175 C176 1.355 . S
N175 C178 1.311 . S
C176 N175 1.355 . S
C176 C177 1.363 . S
C176 H188 0.929 . S
C177 C176 1.363 . S
C177 N179 1.375 . S
C177 H195 0.931 . S
C178 N175 1.311 . S
C178 N179 1.347 . S
C178 H189 0.922 1_455 S
N179 C177 1.375 . S
N179 C178 1.347 . S
C180 C183 1.365 . S
C180 N185 1.328 . S
C180 H186 0.929 . S
C181 C182 1.362 1_655 S
C181 C184 1.378 1_655 S
C181 H196 0.929 . S
C182 C181 1.362 1_455 S
C182 C183 1.366 . S
C183 C180 1.365 . S
C183 C182 1.366 . S
C183 H197 0.930 . S
C184 C181 1.378 1_455 S
C184 N185 1.315 . S
C184 H187 0.930 1_455 S
N185 Co165 2.194 . S
N185 C180 1.328 . S
N185 C184 1.315 . S
H186 C180 0.929 . S
H187 C184 0.930 1_655 S
H188 C176 0.929 . S
H189 C178 0.922 1_655 S
O190 Co165 2.351 . S
O190 C193 1.244 . S
O191 Co165 2.155 . S
O191 C193 1.240 . S
O192 Co165 2.096 1_655 S
O192 C173 1.247 . S
C193 O190 1.244 . S
C193 O191 1.240 . S
H194 C168 0.931 1_655 S
H195 C177 0.931 . S
H196 C181 0.929 . S
H197 C183 0.930 . S
Co198 N202 2.148 . S
Co198 N208 2.128 . S
Co198 N218 2.194 . S
Co198 O223 2.351 . S
Co198 O224 2.155 . S
Co198 O225 2.096 . S
C199 N202 1.301 . S
C199 N203 1.328 . S
C199 H204 0.930 . S
C200 C201 1.333 . S
C200 N202 1.317 . S
C200 H205 0.930 . S
C201 C200 1.333 . S
C201 N203 1.350 . S
C201 H227 0.931 . S
N202 Co198 2.148 . S
N202 C199 1.301 . S
N202 C200 1.317 . S
N203 C199 1.328 . S
N203 C201 1.350 . S
H204 C199 0.930 . S
H205 C200 0.930 . S
C206 O207 1.224 . S
C206 O225 1.247 . S
O207 C206 1.224 . S
N208 Co198 2.128 . S
N208 C209 1.355 . S
N208 C211 1.311 . S
C209 N208 1.355 . S
C209 C210 1.363 . S
C209 H221 0.929 . S
C210 C209 1.363 . S
C210 N212 1.375 . S
C210 H228 0.931 . S
C211 N208 1.311 . S
C211 N212 1.347 . S
C211 H222 0.929 . S
N212 C210 1.375 . S
N212 C211 1.347 . S
C213 C216 1.365 . S
C213 N218 1.328 . S
C213 H219 0.929 . S
C214 C215 1.362 1_556 S
C214 C217 1.378 . S
C214 H229 0.929 . S
C215 C214 1.362 1_554 S
C215 C216 1.366 1_554 S
C216 C213 1.365 . S
C216 C215 1.366 1_556 S
C216 H230 0.930 1_556 S
C217 C214 1.378 . S
C217 N218 1.315 . S
C217 H220 0.930 . S
N218 Co198 2.194 . S
N218 C213 1.328 . S
N218 C217 1.315 . S
H219 C213 0.929 . S
H220 C217 0.930 . S
H221 C209 0.929 . S
H222 C211 0.929 . S
O223 Co198 2.351 . S
O223 C226 1.244 . S
O224 Co198 2.155 . S
O224 C226 1.240 . S
O225 Co198 2.096 . S
O225 C206 1.247 . S
C226 O223 1.244 . S
C226 O224 1.240 . S
H227 C201 0.931 . S
H228 C210 0.931 . S
H229 C214 0.929 . S
H230 C216 0.930 1_554 S
Co231 N235 2.148 . S
Co231 N241 2.128 . S
Co231 N251 2.194 . S
Co231 O256 2.351 . S
Co231 O257 2.155 . S
Co231 O258 2.096 1_455 S
C232 N235 1.301 . S
C232 N236 1.328 . S
C232 H237 0.930 . S
C233 C234 1.333 1_655 S
C233 N235 1.317 1_655 S
C233 H238 0.930 . S
C234 C233 1.333 1_455 S
C234 N236 1.350 . S
C234 H260 0.931 1_455 S
N235 Co231 2.148 . S
N235 C232 1.301 . S
N235 C233 1.317 1_455 S
N236 C232 1.328 . S
N236 C234 1.350 . S
H237 C232 0.930 . S
H238 C233 0.930 . S
C239 O240 1.224 . S
C239 O258 1.247 . S
O240 C239 1.224 . S
N241 Co231 2.128 . S
N241 C242 1.355 . S
N241 C244 1.311 . S
C242 N241 1.355 . S
C242 C243 1.363 . S
C242 H254 0.929 . S
C243 C242 1.363 . S
C243 N245 1.375 . S
C243 H261 0.931 . S
C244 N241 1.311 . S
C244 N245 1.347 . S
C244 H255 0.922 1_455 S
N245 C243 1.375 . S
N245 C244 1.347 . S
C246 C249 1.365 . S
C246 N251 1.328 . S
C246 H252 0.929 . S
C247 C248 1.362 1_655 S
C247 C250 1.378 1_655 S
C247 H262 0.929 . S
C248 C247 1.362 1_455 S
C248 C249 1.366 . S
C249 C246 1.365 . S
C249 C248 1.366 . S
C249 H263 0.930 . S
C250 C247 1.378 1_455 S
C250 N251 1.315 . S
C250 H253 0.930 1_455 S
N251 Co231 2.194 . S
N251 C246 1.328 . S
N251 C250 1.315 . S
H252 C246 0.929 . S
H253 C250 0.930 1_655 S
H254 C242 0.929 . S
H255 C244 0.922 1_655 S
O256 Co231 2.351 . S
O256 C259 1.244 . S
O257 Co231 2.155 . S
O257 C259 1.240 . S
O258 Co231 2.096 1_655 S
O258 C239 1.247 . S
C259 O256 1.244 . S
C259 O257 1.240 . S
H260 C234 0.931 1_655 S
H261 C243 0.931 . S
H262 C247 0.929 . S
H263 C249 0.930 . S
C264 C265 1.369 . S
C264 C266 1.419 1_565 S
C264 H268 0.930 . S
C265 C264 1.369 . S
C265 C274 1.429 1_456 S
C266 C264 1.419 1_545 S
C266 C267 1.363 1_556 S
C266 H269 0.929 . S
C267 C266 1.363 1_554 S
C267 C273 1.428 1_455 S
H268 C264 0.930 . S
H269 C266 0.929 . S
S270 N271 1.613 . S
S270 N272 1.610 1_565 S
N271 S270 1.613 . S
N271 C274 1.350 . S
N272 S270 1.610 1_545 S
N272 C273 1.351 . S
C273 C267 1.428 1_655 S
C273 N272 1.351 . S
C273 C274 1.434 1_545 S
C274 C265 1.429 1_654 S
C274 N271 1.350 . S
C274 C273 1.434 1_565 S
C275 C276 1.369 . S
C275 C277 1.419 1_545 S
C275 H279 0.930 . S
C276 C275 1.369 . S
C276 C285 1.429 . S
C277 C275 1.419 1_565 S
C277 C278 1.363 . S
C277 H280 0.929 . S
C278 C277 1.363 . S
C278 C284 1.428 . S
H279 C275 0.930 . S
H280 C277 0.929 . S
S281 N282 1.613 1_565 S
S281 N283 1.610 . S
N282 S281 1.613 1_545 S
N282 C285 1.350 . S
N283 S281 1.610 . S
N283 C284 1.351 . S
C284 C278 1.428 . S
C284 N283 1.351 . S
C284 C285 1.434 1_565 S
C285 C276 1.429 . S
C285 N282 1.350 . S
C285 C284 1.434 1_545 S
C286 C287 1.369 . S
C286 C288 1.419 . S
C286 H290 0.930 . S
C287 C286 1.369 . S
C287 C296 1.429 1_554 S
C288 C286 1.419 . S
C288 C289 1.363 1_554 S
C288 H291 0.929 . S
C289 C288 1.363 1_556 S
C289 C295 1.428 . S
H290 C286 0.930 . S
H291 C288 0.929 . S
S292 N293 1.613 . S
S292 N294 1.610 . S
N293 S292 1.613 . S
N293 C296 1.350 . S
N294 S292 1.610 . S
N294 C295 1.351 . S
C295 C289 1.428 . S
C295 N294 1.351 . S
C295 C296 1.434 . S
C296 C287 1.429 1_556 S
C296 N293 1.350 . S
C296 C295 1.434 . S
C297 C298 1.369 . S
C297 C299 1.419 . S
C297 H301 0.930 . S
C298 C297 1.369 . S
C298 C307 1.429 . S
C299 C297 1.419 . S
C299 C300 1.363 . S
C299 H302 0.929 . S
C300 C299 1.363 . S
C300 C306 1.428 . S
H301 C297 0.930 . S
H302 C299 0.929 . S
S303 N304 1.613 . S
S303 N305 1.610 . S
N304 S303 1.613 . S
N304 C307 1.350 1_655 S
N305 S303 1.610 . S
N305 C306 1.351 1_655 S
C306 C300 1.428 . S
C306 N305 1.351 1_455 S
C306 C307 1.434 . S
C307 C298 1.429 . S
C307 N304 1.350 1_455 S
C307 C306 1.434 . S
C308 C309 1.369 . S
C308 C310 1.419 . S
C308 H312 0.930 . S
C309 C308 1.369 . S
C309 C318 1.429 . S
C310 C308 1.419 . S
C310 C311 1.363 . S
C310 H313 0.929 . S
C311 C310 1.363 . S
C311 C317 1.428 . S
H312 C308 0.930 . S
H313 C310 0.929 . S
S314 N315 1.613 . S
S314 N316 1.610 . S
N315 S314 1.613 . S
N315 C318 1.350 . S
N316 S314 1.610 . S
N316 C317 1.351 . S
C317 C311 1.428 . S
C317 N316 1.351 . S
C317 C318 1.434 . S
C318 C309 1.429 . S
C318 N315 1.350 . S
C318 C317 1.434 . S
C319 C320 1.369 . S
C319 C321 1.419 . S
C319 H323 0.930 . S
C320 C319 1.369 . S
C320 C329 1.429 . S
C321 C319 1.419 . S
C321 C322 1.363 . S
C321 H324 0.929 . S
C322 C321 1.363 . S
C322 C328 1.428 . S
H323 C319 0.930 . S
H324 C321 0.929 . S
S325 N326 1.613 . S
S325 N327 1.610 . S
N326 S325 1.613 . S
N326 C329 1.350 . S
N327 S325 1.610 . S
N327 C328 1.351 . S
C328 C322 1.428 . S
C328 N327 1.351 . S
C328 C329 1.434 . S
C329 C320 1.429 . S
C329 N326 1.350 . S
C329 C328 1.434 . S
C330 C331 1.369 . S
C330 C332 1.419 . S
C330 H334 0.930 . S
C331 C330 1.369 . S
C331 C340 1.429 . S
C332 C330 1.419 . S
C332 C333 1.363 . S
C332 H335 0.929 . S
C333 C332 1.363 . S
C333 C339 1.428 . S
H334 C330 0.930 . S
H335 C332 0.929 . S
S336 N337 1.613 . S
S336 N338 1.610 . S
N337 S336 1.613 . S
N337 C340 1.350 . S
N338 S336 1.610 . S
N338 C339 1.351 . S
C339 C333 1.428 . S
C339 N338 1.351 . S
C339 C340 1.434 . S
C340 C331 1.429 . S
C340 N337 1.350 . S
C340 C339 1.434 . S
C341 C342 1.369 . S
C341 C343 1.419 . S
C341 H345 0.930 . S
C342 C341 1.369 . S
C342 C351 1.429 . S
C343 C341 1.419 . S
C343 C344 1.363 . S
C343 H346 0.929 . S
C344 C343 1.363 . S
C344 C350 1.428 . S
H345 C341 0.930 . S
H346 C343 0.929 . S
S347 N348 1.613 . S
S347 N349 1.610 . S
N348 S347 1.613 . S
N348 C351 1.350 . S
N349 S347 1.610 . S
N349 C350 1.351 . S
C350 C344 1.428 . S
C350 N349 1.351 . S
C350 C351 1.434 . S
C351 C342 1.429 . S
C351 N348 1.350 . S
C351 C350 1.434 . S
C352 C353 1.369 . S
C352 C354 1.419 . S
C352 H356 0.930 . S
C353 C352 1.369 . S
C353 C362 1.429 . S
C354 C352 1.419 . S
C354 C355 1.363 . S
C354 H357 0.929 . S
C355 C354 1.363 . S
C355 C361 1.428 . S
H356 C352 0.930 . S
H357 C354 0.929 . S
S358 N359 1.613 . S
S358 N360 1.610 . S
N359 S358 1.613 . S
N359 C362 1.350 . S
N360 S358 1.610 . S
N360 C361 1.351 . S
C361 C355 1.428 . S
C361 N360 1.351 . S
C361 C362 1.434 . S
C362 C353 1.429 . S
C362 N359 1.350 . S
C362 C361 1.434 . S
C363 C364 1.369 . S
C363 C365 1.419 . S
C363 H367 0.930 . S
C364 C363 1.369 . S
C364 C373 1.429 . S
C365 C363 1.419 . S
C365 C366 1.363 . S
C365 H368 0.929 . S
C366 C365 1.363 . S
C366 C372 1.428 . S
H367 C363 0.930 . S
H368 C365 0.929 . S
S369 N370 1.613 . S
S369 N371 1.610 . S
N370 S369 1.613 . S
N370 C373 1.350 . S
N371 S369 1.610 . S
N371 C372 1.351 . S
C372 C366 1.428 . S
C372 N371 1.351 . S
C372 C373 1.434 . S
C373 C364 1.429 . S
C373 N370 1.350 . S
C373 C372 1.434 . S
C374 C375 1.369 . S
C374 C376 1.419 . S
C374 H378 0.930 . S
C375 C374 1.369 . S
C375 C384 1.429 . S
C376 C374 1.419 . S
C376 C377 1.363 . S
C376 H379 0.929 . S
C377 C376 1.363 . S
C377 C383 1.428 . S
H378 C374 0.930 . S
H379 C376 0.929 . S
S380 N381 1.613 . S
S380 N382 1.610 . S
N381 S380 1.613 . S
N381 C384 1.350 . S
N382 S380 1.610 . S
N382 C383 1.351 . S
C383 C377 1.428 . S
C383 N382 1.351 . S
C383 C384 1.434 . S
C384 C375 1.429 . S
C384 N381 1.350 . S
C384 C383 1.434 . S
C385 C386 1.369 . S
C385 C387 1.419 . S
C385 H389 0.930 . S
C386 C385 1.369 . S
C386 C395 1.429 . S
C387 C385 1.419 . S
C387 C388 1.363 . S
C387 H390 0.929 . S
C388 C387 1.363 . S
C388 C394 1.428 . S
H389 C385 0.930 . S
H390 C387 0.929 . S
S391 N392 1.613 . S
S391 N393 1.610 . S
N392 S391 1.613 . S
N392 C395 1.350 . S
N393 S391 1.610 . S
N393 C394 1.351 . S
C394 C388 1.428 . S
C394 N393 1.351 . S
C394 C395 1.434 . S
C395 C386 1.429 . S
C395 N392 1.350 . S
C395 C394 1.434 . S
C396 C397 1.369 . S
C396 C398 1.419 . S
C396 H400 0.930 . S
C397 C396 1.369 . S
C397 C406 1.429 . S
C398 C396 1.419 . S
C398 C399 1.363 . S
C398 H401 0.929 . S
C399 C398 1.363 . S
C399 C405 1.428 . S
H400 C396 0.930 . S
H401 C398 0.929 . S
S402 N403 1.613 . S
S402 N404 1.610 . S
N403 S402 1.613 . S
N403 C406 1.350 . S
N404 S402 1.610 . S
N404 C405 1.351 . S
C405 C399 1.428 . S
C405 N404 1.351 . S
C405 C406 1.434 . S
C406 C397 1.429 . S
C406 N403 1.350 . S
C406 C405 1.434 . S
C407 C408 1.369 . S
C407 C409 1.419 . S
C407 H411 0.930 . S
C408 C407 1.369 . S
C408 C417 1.429 . S
C409 C407 1.419 . S
C409 C410 1.363 . S
C409 H412 0.929 . S
C410 C409 1.363 . S
C410 C416 1.428 . S
H411 C407 0.930 . S
H412 C409 0.929 . S
S413 N414 1.613 . S
S413 N415 1.610 . S
N414 S413 1.613 . S
N414 C417 1.350 . S
N415 S413 1.610 . S
N415 C416 1.351 . S
C416 C410 1.428 . S
C416 N415 1.351 . S
C416 C417 1.434 . S
C417 C408 1.429 . S
C417 N414 1.350 . S
C417 C416 1.434 . S
C418 C419 1.369 . S
C418 C420 1.419 . S
C418 H422 0.930 1_455 S
C419 C418 1.369 . S
C419 C428 1.429 . S
C420 C418 1.419 . S
C420 C421 1.364 . S
C420 H423 0.928 1_455 S
C421 C420 1.364 . S
C421 C427 1.428 . S
H422 C418 0.930 1_655 S
H423 C420 0.928 1_655 S
S424 N425 1.613 . S
S424 N426 1.610 . S
N425 S424 1.613 . S
N425 C428 1.350 . S
N426 S424 1.610 . S
N426 C427 1.351 . S
C427 C421 1.428 . S
C427 N426 1.351 . S
C427 C428 1.434 . S
C428 C419 1.429 . S
C428 N425 1.350 . S
C428 C427 1.434 . S
C429 C430 1.369 . S
C429 C431 1.419 . S
C429 H433 0.930 . S
C430 C429 1.369 . S
C430 C439 1.429 . S
C431 C429 1.419 . S
C431 C432 1.363 . S
C431 H434 0.929 . S
C432 C431 1.363 . S
C432 C438 1.428 . S
H433 C429 0.930 . S
H434 C431 0.929 . S
S435 N436 1.613 . S
S435 N437 1.610 . S
N436 S435 1.613 . S
N436 C439 1.350 . S
N437 S435 1.610 . S
N437 C438 1.351 . S
C438 C432 1.428 . S
C438 N437 1.351 . S
C438 C439 1.434 . S
C439 C430 1.429 . S
C439 N436 1.350 . S
C439 C438 1.434 . S
C440 C441 1.369 . S
C440 C442 1.419 . S
C440 H444 0.930 . S
C441 C440 1.369 . S
C441 C450 1.429 . S
C442 C440 1.419 . S
C442 C443 1.363 . S
C442 H445 0.929 . S
C443 C442 1.363 . S
C443 C449 1.428 . S
H444 C440 0.930 . S
H445 C442 0.929 . S
S446 N447 1.613 . S
S446 N448 1.610 . S
N447 S446 1.613 . S
N447 C450 1.350 . S
N448 S446 1.610 . S
N448 C449 1.351 . S
C449 C443 1.428 . S
C449 N448 1.351 . S
C449 C450 1.434 . S
C450 C441 1.429 . S
C450 N447 1.350 . S
C450 C449 1.434 . S
C451 C452 1.369 . S
C451 C453 1.419 . S
C451 H455 0.930 1_455 S
C452 C451 1.369 . S
C452 C461 1.429 . S
C453 C451 1.419 . S
C453 C454 1.363 . S
C453 H456 0.929 1_455 S
C454 C453 1.363 . S
C454 C460 1.428 . S
H455 C451 0.930 1_655 S
H456 C453 0.929 1_655 S
S457 N458 1.613 . S
S457 N459 1.610 . S
N458 S457 1.613 . S
N458 C461 1.350 . S
N459 S457 1.610 . S
N459 C460 1.351 . S
C460 C454 1.428 . S
C460 N459 1.351 . S
C460 C461 1.434 . S
C461 C452 1.429 . S
C461 N458 1.350 . S
C461 C460 1.434 . S
C462 C463 1.369 . S
C462 C464 1.419 . S
C462 H466 0.930 . S
C463 C462 1.369 . S
C463 C472 1.429 . S
C464 C462 1.419 . S
C464 C465 1.363 . S
C464 H467 0.929 . S
C465 C464 1.363 . S
C465 C471 1.428 . S
H466 C462 0.930 . S
H467 C464 0.929 . S
S468 N469 1.613 . S
S468 N470 1.610 . S
N469 S468 1.613 . S
N469 C472 1.350 . S
N470 S468 1.610 . S
N470 C471 1.351 . S
C471 C465 1.428 . S
C471 N470 1.351 . S
C471 C472 1.434 . S
C472 C463 1.429 . S
C472 N469 1.350 . S
C472 C471 1.434 . S
C473 C474 1.369 . S
C473 C475 1.419 . S
C473 H477 0.930 . S
C474 C473 1.369 . S
C474 C483 1.429 . S
C475 C473 1.419 . S
C475 C476 1.363 . S
C475 H478 0.929 . S
C476 C475 1.363 . S
C476 C482 1.428 . S
H477 C473 0.930 . S
H478 C475 0.929 . S
S479 N480 1.613 . S
S479 N481 1.610 . S
N480 S479 1.613 . S
N480 C483 1.350 1_655 S
N481 S479 1.610 . S
N481 C482 1.351 1_655 S
C482 C476 1.428 . S
C482 N481 1.351 1_455 S
C482 C483 1.434 . S
C483 C474 1.429 . S
C483 N480 1.350 1_455 S
C483 C482 1.434 . S
C265 N71 1.412 . S
C267 N5 1.408 . S
C276 N104 1.402 . S
C278 N38 1.408 . S
C287 N137 1.410 . S
C289 N203 1.404 . S
C298 N170 1.403 . S
C300 N236 1.404 . S
C309 C107 1.599 . S
C311 C8 1.604 . S
C320 C41 1.603 . S
C322 C74 1.605 . S
C331 C94 1.222 . S
C333 C61 1.223 . S
C342 C127 1.230 . S
C344 C28 1.229 . S
C353 C239 1.599 . S
C355 C140 1.603 . S
C364 C173 1.600 . S
C366 C206 1.605 . S
C375 C226 1.230 . S
C377 C193 1.229 . S
C386 C259 1.222 . S
C388 C160 1.223 . S
C397 N179 1.535 . S
C399 C17 1.584 . S
C408 C50 1.582 . S
C410 N146 1.539 . S
C419 C83 1.583 . S
C421 N245 1.534 . S
C430 N212 1.538 . S
C432 C116 1.584 . S
C441 N47 1.538 . S
C443 C149 1.584 . S
C452 C182 1.583 . S
C454 N14 1.539 . S
C463 C215 1.584 . S
C465 N113 1.534 . S
C474 C248 1.584 . S
C476 N80 1.534 . S
