# Generated by pormake.
# Topology tzs, (4)-cn, num edge types: 1
# Building blocks:
#     Node 0, Type 0, BuildingBlock: QUQFOY_clean_sbu_3, # of connection points: 4
#     Node 1, Type 0, BuildingBlock: QUQFOY_clean_sbu_3, # of connection points: 4
#     Node 2, Type 0, BuildingBlock: QUQFOY_clean_sbu_3, # of connection points: 4
#     Node 3, Type 0, BuildingBlock: QUQFOY_clean_sbu_3, # of connection points: 4
#     Node 4, Type 0, BuildingBlock: QUQFOY_clean_sbu_3, # of connection points: 4
#     Node 5, Type 0, BuildingBlock: QUQFOY_clean_sbu_3, # of connection points: 4
#     Node 6, Type 0, BuildingBlock: QUQFOY_clean_sbu_3, # of connection points: 4
#     Node 7, Type 0, BuildingBlock: QUQFOY_clean_sbu_3, # of connection points: 4
#     Node 8, Type 0, BuildingBlock: QUQFOY_clean_sbu_3, # of connection points: 4
#     Node 9, Type 0, BuildingBlock: QUQFOY_clean_sbu_3, # of connection points: 4
#     Node 10, Type 0, BuildingBlock: QUQFOY_clean_sbu_3, # of connection points: 4
#     Node 11, Type 0, BuildingBlock: QUQFOY_clean_sbu_3, # of connection points: 4
#     Node 12, Type 0, BuildingBlock: QUQFOY_clean_sbu_3, # of connection points: 4
#     Node 13, Type 0, BuildingBlock: QUQFOY_clean_sbu_3, # of connection points: 4
#     Node 14, Type 0, BuildingBlock: QUQFOY_clean_sbu_3, # of connection points: 4
#     Node 15, Type 0, BuildingBlock: QUQFOY_clean_sbu_3, # of connection points: 4
#     Edge 16, Type (0, 0), BuildingBlock: UVAHIK_clean_linker_0, # of connection points: 2
#     Edge 17, Type (0, 0), BuildingBlock: UVAHIK_clean_linker_0, # of connection points: 2
#     Edge 18, Type (0, 0), BuildingBlock: UVAHIK_clean_linker_0, # of connection points: 2
#     Edge 19, Type (0, 0), BuildingBlock: UVAHIK_clean_linker_0, # of connection points: 2
#     Edge 20, Type (0, 0), BuildingBlock: UVAHIK_clean_linker_0, # of connection points: 2
#     Edge 21, Type (0, 0), BuildingBlock: UVAHIK_clean_linker_0, # of connection points: 2
#     Edge 22, Type (0, 0), BuildingBlock: UVAHIK_clean_linker_0, # of connection points: 2
#     Edge 23, Type (0, 0), BuildingBlock: UVAHIK_clean_linker_0, # of connection points: 2
#     Edge 24, Type (0, 0), BuildingBlock: UVAHIK_clean_linker_0, # of connection points: 2
#     Edge 25, Type (0, 0), BuildingBlock: UVAHIK_clean_linker_0, # of connection points: 2
#     Edge 26, Type (0, 0), BuildingBlock: UVAHIK_clean_linker_0, # of connection points: 2
#     Edge 27, Type (0, 0), BuildingBlock: UVAHIK_clean_linker_0, # of connection points: 2
#     Edge 28, Type (0, 0), BuildingBlock: UVAHIK_clean_linker_0, # of connection points: 2
#     Edge 29, Type (0, 0), BuildingBlock: UVAHIK_clean_linker_0, # of connection points: 2
#     Edge 30, Type (0, 0), BuildingBlock: UVAHIK_clean_linker_0, # of connection points: 2
#     Edge 31, Type (0, 0), BuildingBlock: UVAHIK_clean_linker_0, # of connection points: 2
#     Edge 32, Type (0, 0), BuildingBlock: UVAHIK_clean_linker_0, # of connection points: 2
#     Edge 33, Type (0, 0), BuildingBlock: UVAHIK_clean_linker_0, # of connection points: 2
#     Edge 34, Type (0, 0), BuildingBlock: UVAHIK_clean_linker_0, # of connection points: 2
#     Edge 35, Type (0, 0), BuildingBlock: UVAHIK_clean_linker_0, # of connection points: 2
#     Edge 36, Type (0, 0), BuildingBlock: UVAHIK_clean_linker_0, # of connection points: 2
#     Edge 37, Type (0, 0), BuildingBlock: UVAHIK_clean_linker_0, # of connection points: 2
#     Edge 38, Type (0, 0), BuildingBlock: UVAHIK_clean_linker_0, # of connection points: 2
#     Edge 39, Type (0, 0), BuildingBlock: UVAHIK_clean_linker_0, # of connection points: 2
#     Edge 40, Type (0, 0), BuildingBlock: UVAHIK_clean_linker_0, # of connection points: 2
#     Edge 41, Type (0, 0), BuildingBlock: UVAHIK_clean_linker_0, # of connection points: 2
#     Edge 42, Type (0, 0), BuildingBlock: UVAHIK_clean_linker_0, # of connection points: 2
#     Edge 43, Type (0, 0), BuildingBlock: UVAHIK_clean_linker_0, # of connection points: 2
#     Edge 44, Type (0, 0), BuildingBlock: UVAHIK_clean_linker_0, # of connection points: 2
#     Edge 45, Type (0, 0), BuildingBlock: UVAHIK_clean_linker_0, # of connection points: 2
#     Edge 46, Type (0, 0), BuildingBlock: UVAHIK_clean_linker_0, # of connection points: 2
#     Edge 47, Type (0, 0), BuildingBlock: UVAHIK_clean_linker_0, # of connection points: 2
# Relax obj value: 0.119
# Max RMSD: 0.119
# Mean RMSD: 0.119
data_MOF--net-tzs--node1-QUQFOY_clean_sbu_3--edge1-UVAHIK_clean_linker_0
_symmetry_space_group_name_H-M    P1
_symmetry_Int_Tables_number       1
_symmetry_cell_setting            triclinic
loop_
_symmetry_equiv_pos_as_xyz
'x, y, z'
_cell_length_a     64.197046
_cell_length_b     64.029025
_cell_length_c     52.344676
_cell_angle_alpha  89.798895
_cell_angle_beta   89.837114
_cell_angle_gamma 89.969263
loop_
_atom_site_label
_atom_site_type_symbol
_atom_site_fract_x
_atom_site_fract_y
_atom_site_fract_z
_atom_type_partial_charge
C0 C 0.08162 0.33713 0.17055 0.0
O1 O 0.08384 0.34599 0.14898 0.0
Cd2 Cd 0.11691 0.35523 0.13148 0.0
O3 O 0.09744 0.33238 0.18405 0.0
Cd4 Cd 0.13587 0.3346 0.17993 0.0
C5 C 0.13528 0.38719 0.1787 0.0
O6 O 0.13703 0.32394 0.13577 0.0
O7 O 0.16571 0.33665 0.15017 0.0
O8 O 0.1378 0.30044 0.20048 0.0
C9 C 0.15633 0.32692 0.13259 0.0
O10 O 0.1295 0.38551 0.15554 0.0
C11 C 0.15325 0.30503 0.21444 0.0
O12 O 0.13743 0.37104 0.19268 0.0
O13 O 0.15959 0.3238 0.21358 0.0
C14 C 0.63015 0.09031 0.17509 0.0
O15 O 0.62042 0.08655 0.15453 0.0
Cd16 Cd 0.60756 0.11332 0.12731 0.0
O17 O 0.63399 0.10904 0.18182 0.0
Cd18 Cd 0.62885 0.1446 0.16365 0.0
C19 C 0.57651 0.14035 0.16886 0.0
O20 O 0.63827 0.13421 0.1212 0.0
O21 O 0.62609 0.16555 0.12385 0.0
O22 O 0.66364 0.15334 0.17806 0.0
C23 C 0.63575 0.1519 0.11091 0.0
O24 O 0.57741 0.12802 0.14988 0.0
C25 C 0.65839 0.17004 0.18933 0.0
O26 O 0.59305 0.14822 0.17798 0.0
O27 O 0.63913 0.17453 0.18964 0.0
C28 C 0.9027 0.64998 0.17079 0.0
O29 O 0.90108 0.64097 0.14932 0.0
Cd30 Cd 0.86871 0.63217 0.13023 0.0
O31 O 0.88653 0.65539 0.18336 0.0
Cd32 Cd 0.84816 0.65474 0.17703 0.0
C33 C 0.84687 0.60187 0.17735 0.0
O34 O 0.84995 0.66448 0.13272 0.0
O35 O 0.8195 0.65478 0.14546 0.0
O36 O 0.84555 0.68968 0.19478 0.0
C37 C 0.83066 0.66314 0.12823 0.0
O38 O 0.85498 0.60268 0.15514 0.0
C39 C 0.83133 0.68516 0.21075 0.0
O40 O 0.84343 0.61852 0.18985 0.0
O41 O 0.82571 0.66617 0.21195 0.0
C42 C 0.3597 0.90697 0.17134 0.0
O43 O 0.37043 0.91218 0.15193 0.0
Cd44 Cd 0.37814 0.88933 0.11735 0.0
O45 O 0.35263 0.88847 0.17366 0.0
Cd46 Cd 0.35514 0.85608 0.14806 0.0
C47 C 0.40811 0.85525 0.14999 0.0
O48 O 0.34501 0.87306 0.10839 0.0
O49 O 0.35385 0.84069 0.10522 0.0
O50 O 0.32155 0.84619 0.16664 0.0
C51 C 0.34518 0.85651 0.09527 0.0
O52 O 0.40798 0.86915 0.1326 0.0
C53 C 0.3268 0.82737 0.17089 0.0
O54 O 0.39108 0.8486 0.15939 0.0
O55 O 0.34541 0.82234 0.1655 0.0
C56 C 0.10297 0.64726 0.28562 0.0
O57 O 0.10217 0.63927 0.30783 0.0
Cd58 Cd 0.13198 0.62746 0.33054 0.0
O59 O 0.12039 0.65 0.27432 0.0
Cd60 Cd 0.15798 0.64503 0.284 0.0
C61 C 0.15111 0.59279 0.28631 0.0
O62 O 0.15498 0.6567 0.32727 0.0
O63 O 0.184 0.64138 0.31876 0.0
O64 O 0.16395 0.67818 0.26252 0.0
C65 C 0.17323 0.6521 0.33425 0.0
O66 O 0.14309 0.59556 0.30833 0.0
C67 C 0.17998 0.67218 0.25036 0.0
O68 O 0.15688 0.6083 0.27277 0.0
O69 O 0.18526 0.65318 0.25301 0.0
C70 C 0.34207 0.08438 0.32832 0.0
O71 O 0.35247 0.08644 0.34875 0.0
Cd72 Cd 0.36092 0.11944 0.36664 0.0
O73 O 0.33529 0.10038 0.31635 0.0
Cd74 Cd 0.33588 0.13889 0.32216 0.0
C75 C 0.38842 0.14045 0.31691 0.0
O76 O 0.32795 0.13739 0.36709 0.0
O77 O 0.33695 0.16782 0.35325 0.0
O78 O 0.30077 0.14038 0.30429 0.0
C79 C 0.32906 0.15683 0.37096 0.0
O80 O 0.38911 0.13308 0.3395 0.0
C81 C 0.30452 0.15606 0.2901 0.0
O82 O 0.37103 0.14329 0.30589 0.0
O83 O 0.3231 0.16283 0.28986 0.0
C84 C 0.88656 0.34719 0.29395 0.0
O85 O 0.88966 0.35553 0.31557 0.0
Cd86 Cd 0.86249 0.36802 0.34216 0.0
O87 O 0.86811 0.34442 0.28561 0.0
Cd88 Cd 0.83189 0.3495 0.30182 0.0
C89 C 0.83799 0.40179 0.30073 0.0
O90 O 0.83995 0.33831 0.34421 0.0
O91 O 0.80999 0.35325 0.34088 0.0
O92 O 0.82366 0.31516 0.28569 0.0
C93 C 0.82247 0.34236 0.35411 0.0
O94 O 0.84928 0.39934 0.32047 0.0
C95 C 0.80732 0.32061 0.27386 0.0
O96 O 0.83011 0.3861 0.28951 0.0
O97 O 0.80273 0.33991 0.27405 0.0
C98 C 0.63657 0.9027 0.31565 0.0
O99 O 0.62526 0.90266 0.33558 0.0
Cd100 Cd 0.61373 0.87134 0.3554 0.0
O101 O 0.64287 0.88562 0.30581 0.0
Cd102 Cd 0.64085 0.84775 0.31641 0.0
C103 C 0.58915 0.84731 0.30542 0.0
O104 O 0.64596 0.85288 0.36121 0.0
O105 O 0.636 0.82175 0.35138 0.0
O106 O 0.67743 0.84458 0.30494 0.0
C107 C 0.64375 0.83402 0.36777 0.0
O108 O 0.58728 0.85671 0.32669 0.0
C109 C 0.67504 0.82877 0.29074 0.0
O110 O 0.60708 0.84272 0.29676 0.0
O111 O 0.65653 0.82234 0.28751 0.0
C112 C 0.8414 0.58149 0.82513 0.0
O113 O 0.85239 0.58242 0.84521 0.0
Cd114 Cd 0.86367 0.61478 0.86242 0.0
O115 O 0.83564 0.59812 0.81367 0.0
Cd116 Cd 0.83848 0.6364 0.82056 0.0
C117 C 0.89063 0.63563 0.81209 0.0
O118 O 0.83129 0.63375 0.86537 0.0
O119 O 0.84145 0.66435 0.8532 0.0
O120 O 0.80266 0.63962 0.80616 0.0
C121 C 0.8329 0.653 0.87011 0.0
O122 O 0.89174 0.6273 0.83416 0.0
C123 C 0.80616 0.65457 0.79079 0.0
O124 O 0.87303 0.63995 0.8024 0.0
O125 O 0.82495 0.66042 0.78833 0.0
C126 C 0.37792 0.83052 0.80886 0.0
O127 O 0.37679 0.84006 0.83004 0.0
Cd128 Cd 0.34577 0.85627 0.8451 0.0
O129 O 0.3619 0.82863 0.79468 0.0
Cd130 Cd 0.32425 0.83772 0.79646 0.0
C131 C 0.33548 0.88898 0.79436 0.0
O132 O 0.32025 0.82932 0.84079 0.0
O133 O 0.29498 0.84739 0.82537 0.0
O134 O 0.31726 0.80383 0.77755 0.0
C135 C 0.30216 0.83669 0.84376 0.0
O136 O 0.34029 0.88724 0.81788 0.0
C137 C 0.30371 0.81052 0.76192 0.0
O138 O 0.33033 0.87301 0.78146 0.0
O139 O 0.3003 0.83006 0.76173 0.0
C140 C 0.15572 0.40604 0.81949 0.0
O141 O 0.14715 0.40757 0.84128 0.0
Cd142 Cd 0.13608 0.37797 0.86516 0.0
O143 O 0.15954 0.38819 0.8098 0.0
Cd144 Cd 0.15609 0.3511 0.82341 0.0
C145 C 0.10369 0.35486 0.82194 0.0
O146 O 0.16727 0.35704 0.86664 0.0
O147 O 0.15383 0.3267 0.86002 0.0
O148 O 0.18956 0.34415 0.80288 0.0
C149 C 0.16437 0.33856 0.87438 0.0
O150 O 0.10496 0.3649 0.84283 0.0
C151 C 0.18367 0.32726 0.79253 0.0
O152 O 0.12007 0.34871 0.8106 0.0
O153 O 0.16473 0.32216 0.79554 0.0
C154 C 0.59877 0.14451 0.79697 0.0
O155 O 0.59715 0.13781 0.81975 0.0
Cd156 Cd 0.62525 0.12597 0.84506 0.0
O157 O 0.61652 0.14588 0.78599 0.0
Cd158 Cd 0.6536 0.13992 0.79873 0.0
C159 C 0.64476 0.0881 0.80527 0.0
O160 O 0.64842 0.15497 0.84024 0.0
O161 O 0.67788 0.13954 0.83558 0.0
O162 O 0.6622 0.1698 0.77144 0.0
C163 C 0.66634 0.15127 0.84898 0.0
O164 O 0.63528 0.09233 0.82601 0.0
C165 C 0.67953 0.16231 0.76413 0.0
O166 O 0.65224 0.10262 0.79141 0.0
O167 O 0.68411 0.14407 0.77183 0.0
C168 C 0.85265 0.39716 0.68796 0.0
O169 O 0.86286 0.40311 0.66845 0.0
Cd170 Cd 0.87964 0.37973 0.64003 0.0
O171 O 0.85054 0.37779 0.69309 0.0
Cd172 Cd 0.86056 0.34418 0.67262 0.0
C173 C 0.91162 0.35376 0.68178 0.0
O174 O 0.85134 0.35665 0.63042 0.0
O175 O 0.86641 0.32662 0.63136 0.0
O176 O 0.82771 0.3324 0.69143 0.0
C177 C 0.85617 0.34007 0.61881 0.0
O178 O 0.91015 0.36663 0.66329 0.0
C179 C 0.83345 0.31353 0.69373 0.0
O180 O 0.89566 0.34392 0.68967 0.0
O181 O 0.85207 0.30922 0.68751 0.0
C182 C 0.57297 0.83099 0.69261 0.0
O183 O 0.57042 0.84119 0.67201 0.0
Cd184 Cd 0.59835 0.85514 0.64732 0.0
O185 O 0.59119 0.82712 0.70098 0.0
Cd186 Cd 0.62759 0.83285 0.68655 0.0
C187 C 0.62328 0.88525 0.69197 0.0
O188 O 0.62092 0.82572 0.64209 0.0
O189 O 0.65139 0.83822 0.65007 0.0
O190 O 0.63512 0.79728 0.69939 0.0
C191 C 0.63912 0.82977 0.63423 0.0
O192 O 0.61239 0.8845 0.6717 0.0
C193 C 0.651 0.80174 0.71264 0.0
O194 O 0.63015 0.86856 0.70218 0.0
O195 O 0.65553 0.82097 0.71478 0.0
C196 C 0.12815 0.5826 0.66274 0.0
O197 O 0.11751 0.57744 0.64334 0.0
Cd198 Cd 0.10384 0.6025 0.61426 0.0
O199 O 0.13209 0.60174 0.6673 0.0
Cd200 Cd 0.12551 0.63601 0.64653 0.0
C201 C 0.07338 0.63132 0.65437 0.0
O202 O 0.13474 0.62257 0.605 0.0
O203 O 0.12347 0.65429 0.60497 0.0
O204 O 0.15927 0.64495 0.66469 0.0
C205 C 0.13266 0.63968 0.59318 0.0
O206 O 0.07385 0.61809 0.6363 0.0
C207 C 0.15431 0.66361 0.67008 0.0
O208 O 0.09012 0.63972 0.66213 0.0
O209 O 0.13573 0.66913 0.66536 0.0
C210 C 0.40252 0.14156 0.67237 0.0
O211 O 0.40221 0.13256 0.6508 0.0
Cd212 Cd 0.37052 0.12403 0.62976 0.0
O213 O 0.38557 0.14635 0.68369 0.0
Cd214 Cd 0.34777 0.14351 0.67474 0.0
C215 C 0.34948 0.09088 0.67365 0.0
O216 O 0.35127 0.15636 0.63177 0.0
O217 O 0.32112 0.14332 0.64052 0.0
O218 O 0.34404 0.17643 0.6975 0.0
C219 C 0.33231 0.15447 0.62588 0.0
O220 O 0.35696 0.0926 0.6512 0.0
C221 C 0.32726 0.17132 0.70876 0.0
O222 O 0.3458 0.10707 0.68689 0.0
O223 O 0.32076 0.15283 0.70528 0.0
C224 C 0.2918 0.18713 0.26607 0.0
C225 C 0.28768 0.16755 0.27706 0.0
C226 C 0.27553 0.19981 0.2577 0.0
C227 C 0.21941 0.20845 0.26904 0.0
H228 H 0.2269 0.24898 0.21458 0.0
C229 C 0.15796 0.268 0.22875 0.0
C230 C 0.16535 0.28866 0.22762 0.0
C231 C 0.17121 0.25175 0.2362 0.0
C232 C 0.22467 0.23772 0.22985 0.0
H233 H 0.26339 0.14522 0.28634 0.0
H234 H 0.23492 0.16712 0.27085 0.0
H235 H 0.253 0.22185 0.221 0.0
H236 H 0.19191 0.30869 0.23503 0.0
H237 H 0.21505 0.28025 0.24756 0.0
H238 H 0.19072 0.22437 0.27734 0.0
C239 C 0.25071 0.17295 0.26942 0.0
C240 C 0.2396 0.22223 0.23361 0.0
C241 C 0.26703 0.16032 0.27807 0.0
C242 C 0.18576 0.29295 0.23568 0.0
C243 C 0.19904 0.2767 0.24269 0.0
C244 C 0.20425 0.22378 0.26494 0.0
C245 C 0.25474 0.19309 0.25981 0.0
C246 C 0.23746 0.20773 0.25368 0.0
C247 C 0.19205 0.25596 0.24223 0.0
C248 C 0.20708 0.23881 0.24573 0.0
H249 H 0.30754 0.19319 0.26511 0.0
H250 H 0.27929 0.21531 0.25077 0.0
H251 H 0.21735 0.19771 0.28487 0.0
H252 H 0.14229 0.26425 0.22268 0.0
H253 H 0.16555 0.23582 0.23579 0.0
C254 C 0.77733 0.31087 0.24583 0.0
C255 C 0.79344 0.3049 0.26243 0.0
C256 C 0.76313 0.29603 0.23697 0.0
C257 C 0.73799 0.24833 0.25618 0.0
H258 H 0.72702 0.23847 0.18438 0.0
C259 C 0.66843 0.20033 0.2167 0.0
C260 C 0.67415 0.18437 0.19972 0.0
C261 C 0.6832 0.21484 0.22489 0.0
C262 C 0.72997 0.24114 0.20448 0.0
H263 H 0.8076 0.27876 0.28242 0.0
H264 H 0.78248 0.25303 0.26739 0.0
H265 H 0.75281 0.26481 0.19679 0.0
H266 H 0.69973 0.17094 0.17812 0.0
H267 H 0.72539 0.19665 0.19201 0.0
H268 H 0.71489 0.22494 0.26389 0.0
C269 C 0.78098 0.26911 0.26114 0.0
C270 C 0.74458 0.25619 0.21152 0.0
C271 C 0.79538 0.28381 0.26958 0.0
C272 C 0.69492 0.18301 0.19132 0.0
C273 C 0.70955 0.19776 0.19909 0.0
C274 C 0.72308 0.23359 0.24914 0.0
C275 C 0.76464 0.27514 0.24501 0.0
C276 C 0.74881 0.25973 0.23742 0.0
C277 C 0.70376 0.21385 0.21577 0.0
C278 C 0.71911 0.22977 0.22325 0.0
H279 H 0.7755 0.32702 0.24002 0.0
H280 H 0.75058 0.30096 0.22453 0.0
H281 H 0.74098 0.25095 0.27628 0.0
H282 H 0.65252 0.20171 0.22344 0.0
H283 H 0.67845 0.22718 0.23776 0.0
C284 C 0.82168 0.72252 0.21693 0.0
C285 C 0.81998 0.70158 0.22473 0.0
C286 C 0.80803 0.73755 0.22655 0.0
C287 C 0.78048 0.76852 0.25427 0.0
H288 H 0.72368 0.74879 0.2614 0.0
C289 C 0.71309 0.82076 0.29043 0.0
C290 C 0.69307 0.81714 0.28061 0.0
C291 C 0.72969 0.8078 0.28367 0.0
C292 C 0.7394 0.75465 0.25917 0.0
H293 H 0.80397 0.68024 0.25032 0.0
H294 H 0.78068 0.70663 0.26791 0.0
H295 H 0.75117 0.72413 0.25171 0.0
H296 H 0.67496 0.79802 0.2548 0.0
H297 H 0.70408 0.77588 0.2422 0.0
H298 H 0.76841 0.79924 0.26054 0.0
C299 C 0.79201 0.71133 0.25365 0.0
C300 C 0.75529 0.7404 0.25414 0.0
C301 C 0.80547 0.69624 0.24376 0.0
C302 C 0.69019 0.80105 0.26284 0.0
C303 C 0.70684 0.78825 0.25583 0.0
C304 C 0.76451 0.78284 0.25906 0.0
C305 C 0.79258 0.73199 0.24441 0.0
C306 C 0.77603 0.74714 0.25154 0.0
C307 C 0.72666 0.7911 0.26672 0.0
C308 C 0.74375 0.77607 0.26142 0.0
H309 H 0.8327 0.7271 0.20224 0.0
H310 H 0.80886 0.75324 0.21883 0.0
H311 H 0.7963 0.77424 0.25262 0.0
H312 H 0.71576 0.83301 0.30426 0.0
H313 H 0.74466 0.81035 0.29259 0.0
C314 C 0.29097 0.81731 0.18537 0.0
C315 C 0.31165 0.81165 0.1799 0.0
C316 C 0.27628 0.80207 0.1918 0.0
C317 C 0.27155 0.74746 0.21438 0.0
H318 H 0.21597 0.75143 0.18585 0.0
C319 C 0.21267 0.681 0.22669 0.0
C320 C 0.19311 0.68716 0.23614 0.0
C321 C 0.22654 0.69586 0.21704 0.0
C322 C 0.23142 0.75018 0.194 0.0
H323 H 0.33323 0.78566 0.17723 0.0
H324 H 0.30762 0.75911 0.1881 0.0
H325 H 0.24165 0.77847 0.17606 0.0
H326 H 0.17221 0.71345 0.24137 0.0
H327 H 0.19645 0.73936 0.22446 0.0
H328 H 0.26136 0.71918 0.23227 0.0
C329 C 0.30277 0.77531 0.1878 0.0
C330 C 0.24608 0.7657 0.18853 0.0
C331 C 0.31744 0.79054 0.18149 0.0
C332 C 0.1872 0.70824 0.23429 0.0
C333 C 0.20105 0.72308 0.22453 0.0
C334 C 0.25696 0.73192 0.21971 0.0
C335 C 0.28198 0.78087 0.19281 0.0
C336 C 0.2663 0.76453 0.19873 0.0
C337 C 0.22108 0.7171 0.21654 0.0
C338 C 0.23674 0.73313 0.20963 0.0
H339 H 0.28605 0.83348 0.18433 0.0
H340 H 0.26046 0.80689 0.19597 0.0
H341 H 0.28687 0.74626 0.22288 0.0
H342 H 0.21763 0.66485 0.22775 0.0
H343 H 0.24178 0.69079 0.21061 0.0
C344 C 0.66243 0.76457 0.71447 0.0
C345 C 0.66461 0.78522 0.72299 0.0
C346 C 0.6768 0.74931 0.72164 0.0
C347 C 0.70432 0.71734 0.74738 0.0
H348 H 0.76203 0.73456 0.7525 0.0
C349 C 0.76851 0.66371 0.78771 0.0
C350 C 0.78896 0.66612 0.77861 0.0
C351 C 0.7527 0.67695 0.77921 0.0
C352 C 0.74605 0.72937 0.75075 0.0
H353 H 0.68286 0.80592 0.74674 0.0
H354 H 0.70752 0.77909 0.76015 0.0
H355 H 0.73556 0.76026 0.74228 0.0
H356 H 0.80868 0.68326 0.7522 0.0
H357 H 0.7809 0.70584 0.73652 0.0
H358 H 0.71498 0.68628 0.7548 0.0
C359 C 0.69512 0.7748 0.74722 0.0
C360 C 0.73077 0.74423 0.74539 0.0
C361 C 0.68089 0.79014 0.73975 0.0
C362 C 0.79307 0.68118 0.75971 0.0
C363 C 0.77719 0.69423 0.75092 0.0
C364 C 0.71965 0.70242 0.75242 0.0
C365 C 0.69353 0.75431 0.73777 0.0
C366 C 0.7097 0.73844 0.74381 0.0
C367 C 0.75695 0.6927 0.76115 0.0
C368 C 0.7407 0.70827 0.75432 0.0
H369 H 0.65009 0.76033 0.70139 0.0
H370 H 0.6752 0.7338 0.71372 0.0
H371 H 0.68824 0.71233 0.74654 0.0
H372 H 0.76489 0.65229 0.80239 0.0
H373 H 0.73739 0.67542 0.78774 0.0
C374 C 0.1651 0.7 0.68059 0.0
C375 C 0.16979 0.67859 0.67981 0.0
C376 C 0.18022 0.71442 0.68787 0.0
C377 C 0.23733 0.7205 0.69438 0.0
H378 H 0.22167 0.76859 0.73497 0.0
C379 C 0.29531 0.77449 0.74696 0.0
C380 C 0.29101 0.79601 0.74668 0.0
C381 C 0.2815 0.76041 0.7358 0.0
C382 C 0.22621 0.75538 0.72334 0.0
H383 H 0.19377 0.6554 0.68666 0.0
H384 H 0.22002 0.68053 0.70018 0.0
H385 H 0.19528 0.74314 0.72322 0.0
H386 H 0.26953 0.81978 0.73323 0.0
H387 H 0.24536 0.79511 0.71384 0.0
H388 H 0.26846 0.73261 0.69527 0.0
C389 C 0.20483 0.68624 0.69452 0.0
C390 C 0.21111 0.74078 0.7166 0.0
C391 C 0.18975 0.67182 0.68701 0.0
C392 C 0.27322 0.80328 0.73384 0.0
C393 C 0.25933 0.78918 0.72288 0.0
C394 C 0.2525 0.73503 0.70136 0.0
C395 C 0.20031 0.70774 0.69477 0.0
C396 C 0.21647 0.72317 0.70203 0.0
C397 C 0.26308 0.7676 0.72435 0.0
C398 C 0.24705 0.7526 0.71587 0.0
H399 H 0.1499 0.7057 0.67495 0.0
H400 H 0.17628 0.73087 0.68749 0.0
H401 H 0.24193 0.7073 0.68279 0.0
H402 H 0.30894 0.76845 0.75666 0.0
H403 H 0.28471 0.74383 0.73727 0.0
C404 C 0.21961 0.31873 0.77719 0.0
C405 C 0.19859 0.31307 0.77997 0.0
C406 C 0.23423 0.30418 0.76859 0.0
C407 C 0.23926 0.25224 0.73769 0.0
H408 H 0.29199 0.25043 0.77368 0.0
C409 C 0.29397 0.18205 0.72956 0.0
C410 C 0.31451 0.1869 0.72239 0.0
C411 C 0.28054 0.19771 0.73803 0.0
C412 C 0.27737 0.25085 0.76343 0.0
H413 H 0.17623 0.28802 0.77499 0.0
H414 H 0.20168 0.2626 0.76051 0.0
H415 H 0.26695 0.27806 0.78331 0.0
H416 H 0.33756 0.21162 0.72016 0.0
H417 H 0.31408 0.23896 0.73535 0.0
H418 H 0.24953 0.22476 0.71825 0.0
C419 C 0.20693 0.27831 0.76456 0.0
C420 C 0.26309 0.26673 0.76876 0.0
C421 C 0.19232 0.29289 0.77296 0.0
C422 C 0.32178 0.20743 0.7255 0.0
C423 C 0.30838 0.22307 0.73421 0.0
C424 C 0.25343 0.23628 0.73257 0.0
C425 C 0.22812 0.28365 0.76275 0.0
C426 C 0.24381 0.26754 0.75604 0.0
C427 C 0.28747 0.21845 0.73972 0.0
C428 C 0.27254 0.23537 0.7455 0.0
H429 H 0.22488 0.33422 0.78234 0.0
H430 H 0.25037 0.30891 0.76692 0.0
H431 H 0.22474 0.25261 0.7272 0.0
H432 H 0.28792 0.16636 0.72745 0.0
H433 H 0.26456 0.19371 0.74257 0.0
C434 C 0.6886 0.19285 0.73634 0.0
C435 C 0.69486 0.17519 0.75028 0.0
C436 C 0.70347 0.20662 0.72639 0.0
C437 C 0.76126 0.2135 0.71762 0.0
H438 H 0.74616 0.27205 0.71881 0.0
C439 C 0.82042 0.27722 0.68956 0.0
C440 C 0.81858 0.29701 0.70069 0.0
C441 C 0.80518 0.26207 0.69374 0.0
C442 C 0.75083 0.25581 0.7188 0.0
H443 H 0.72142 0.15772 0.76426 0.0
H444 H 0.74717 0.1821 0.74844 0.0
H445 H 0.72011 0.24601 0.72856 0.0
H446 H 0.79995 0.31642 0.72563 0.0
H447 H 0.77414 0.28951 0.73473 0.0
H448 H 0.79237 0.22333 0.71016 0.0
C449 C 0.73098 0.18514 0.74406 0.0
C450 C 0.73565 0.24073 0.7238 0.0
C451 C 0.71617 0.17112 0.75334 0.0
C452 C 0.80163 0.30124 0.71678 0.0
C453 C 0.7867 0.28585 0.72166 0.0
C454 C 0.77657 0.22859 0.71341 0.0
C455 C 0.72487 0.20332 0.73086 0.0
C456 C 0.74066 0.21934 0.72347 0.0
C457 C 0.78804 0.26614 0.70983 0.0
C458 C 0.77163 0.25 0.71405 0.0
H459 H 0.67223 0.19623 0.73359 0.0
H460 H 0.6981 0.22007 0.7157 0.0
H461 H 0.76575 0.19723 0.71657 0.0
H462 H 0.83321 0.27372 0.6767 0.0
H463 H 0.80666 0.24738 0.68374 0.0
C464 C 0.16254 0.31528 0.91277 0.0
C465 C 0.17202 0.33183 0.89954 0.0
C466 C 0.16861 0.31054 0.93774 0.0
C467 C 0.19149 0.33738 -0.0073 0.0
H468 H 0.18399 0.28327 0.02488 0.0
C469 C 0.15621 0.30857 0.09086 0.0
C470 C 0.16641 0.32178 0.10812 0.0
C471 C 0.16419 0.30559 0.06638 0.0
C472 C 0.18641 0.29842 0.01609 0.0
H473 H 0.19643 0.35519 0.90091 0.0
H474 H 0.20751 0.34648 0.94405 0.0
H475 H 0.18479 0.28589 0.97829 0.0
H476 H 0.19373 0.34104 0.1141 0.0
H477 H 0.20755 0.33612 0.07088 0.0
H478 H 0.19226 0.35003 0.03034 0.0
C479 C 0.19489 0.33764 0.93567 0.0
C480 C 0.18674 0.29995 -0.01054 0.0
C481 C 0.18857 0.34262 0.91095 0.0
C482 C 0.18547 0.33091 0.10106 0.0
C483 C 0.19337 0.32809 0.0764 0.0
C484 C 0.19135 0.33581 0.01924 0.0
C485 C 0.1845 0.32205 0.94971 0.0
C486 C 0.1884 0.31958 0.97749 0.0
C487 C 0.18245 0.31589 0.05862 0.0
C488 C 0.18792 0.31646 0.03117 0.0
H489 H 0.1498 0.30668 0.9043 0.0
H490 H 0.16008 0.29859 0.94805 0.0
H491 H 0.19254 0.3528 0.98426 0.0
H492 H 0.14161 0.30113 0.09592 0.0
H493 H 0.15529 0.2963 0.05303 0.0
C494 C 0.65909 0.1718 0.88819 0.0
C495 C 0.67162 0.15723 0.87532 0.0
C496 C 0.66176 0.1753 0.91422 0.0
C497 C 0.67644 0.14539 0.96953 0.0
H498 H 0.66603 0.19714 0.00572 0.0
C499 C 0.66142 0.14411 0.07681 0.0
C500 C 0.6447 0.15629 0.08556 0.0
C501 C 0.66964 0.14722 0.05248 0.0
C502 C 0.6689 0.18257 -0.00414 0.0
H503 H 0.69789 0.13615 0.87897 0.0
H504 H 0.70245 0.14213 0.92478 0.0
H505 H 0.67311 0.19796 0.95977 0.0
H506 H 0.62392 0.18183 0.07626 0.0
H507 H 0.63762 0.18669 0.03296 0.0
H508 H 0.67107 0.12978 0.0049 0.0
C509 C 0.69048 0.15073 0.91467 0.0
C510 C 0.67308 0.18306 0.96964 0.0
C511 C 0.68789 0.14733 0.88851 0.0
C512 C 0.63676 0.17218 0.06985 0.0
C513 C 0.64476 0.17506 0.04519 0.0
C514 C 0.67212 0.14487 -0.00441 0.0
C515 C 0.67695 0.16421 0.92791 0.0
C516 C 0.67643 0.16441 0.95615 0.0
C517 C 0.66104 0.16231 0.03608 0.0
C518 C 0.66786 0.1634 0.00899 0.0
H519 H 0.64657 0.17985 0.8784 0.0
H520 H 0.65099 0.18564 0.9239 0.0
H521 H 0.67853 0.13072 0.95959 0.0
H522 H 0.66816 0.13203 0.08877 0.0
H523 H 0.68253 0.13751 0.04637 0.0
C524 C 0.80668 0.65243 0.90477 0.0
C525 C 0.82467 0.66139 0.89416 0.0
C526 C 0.79987 0.65822 0.92899 0.0
C527 C 0.81009 0.69435 0.98352 0.0
H528 H 0.79759 0.64463 0.02322 0.0
C529 C 0.83462 0.6816 0.08671 0.0
C530 C 0.82236 0.66927 0.1031 0.0
C531 C 0.82822 0.68558 0.06178 0.0
C532 C 0.80047 0.65881 0.01243 0.0
H533 H 0.84902 0.68427 0.89955 0.0
H534 H 0.8379 0.69366 0.94274 0.0
H535 H 0.79899 0.64248 0.97719 0.0
H536 H 0.79312 0.65263 0.10698 0.0
H537 H 0.78202 0.65931 0.06295 0.0
H538 H 0.81304 0.71019 0.01933 0.0
C539 C 0.82861 0.68259 0.93211 0.0
C540 C 0.80129 0.65761 0.98591 0.0
C541 C 0.83513 0.67713 0.90749 0.0
C542 C 0.80294 0.66204 0.09463 0.0
C543 C 0.7966 0.66587 0.06951 0.0
C544 C 0.80943 0.69549 0.01017 0.0
C545 C 0.81128 0.67266 0.94346 0.0
C546 C 0.8068 0.67518 0.97113 0.0
C547 C 0.80949 0.67718 0.05266 0.0
C548 C 0.80534 0.67753 0.02487 0.0
H549 H 0.79811 0.64054 0.89452 0.0
H550 H 0.78612 0.65073 0.93678 0.0
H551 H 0.81397 0.70826 0.97269 0.0
H552 H 0.84956 0.6876 0.09285 0.0
H553 H 0.83861 0.69413 0.0492 0.0
C554 C 0.33364 0.83657 0.05686 0.0
C555 C 0.33401 0.85528 0.07074 0.0
C556 C 0.32228 0.83521 0.03423 0.0
C557 C 0.30216 0.86781 0.98239 0.0
H558 H 0.27568 0.81599 0.9623 0.0
C559 C 0.28196 0.85459 0.87822 0.0
C560 C 0.2929 0.83703 0.86945 0.0
C561 C 0.27808 0.85701 0.90437 0.0
C562 C 0.28275 0.83067 0.96777 0.0
H563 H 0.32258 0.88717 0.07201 0.0
H564 H 0.30275 0.88477 0.0325 0.0
H565 H 0.28745 0.82042 0.00629 0.0
H566 H 0.30623 0.80721 0.88024 0.0
H567 H 0.29937 0.81126 0.92556 0.0
H568 H 0.29851 0.87766 0.94365 0.0
C569 C 0.31135 0.87121 0.039 0.0
C570 C 0.28962 0.83314 -0.00714 0.0
C571 C 0.32274 0.87258 0.06161 0.0
C572 C 0.29791 0.82098 0.88665 0.0
C573 C 0.29381 0.82324 0.9126 0.0
C574 C 0.29527 0.86534 0.95734 0.0
C575 C 0.31102 0.85252 0.02504 0.0
C576 C 0.30022 0.85138 0.0001 0.0
C577 C 0.28484 0.84174 0.92189 0.0
C578 C 0.28636 0.84639 0.9495 0.0
H579 H 0.34213 0.82297 0.06345 0.0
H580 H 0.32271 0.82072 0.02364 0.0
H581 H 0.31035 0.88202 0.98731 0.0
H582 H 0.27793 0.86718 0.86526 0.0
H583 H 0.27098 0.87135 0.91104 0.0
C584 C 0.13791 0.66055 0.55309 0.0
C585 C 0.1423 0.64277 0.56786 0.0
C586 C 0.14741 0.66329 0.52925 0.0
C587 C 0.1725 0.63273 0.4782 0.0
H588 H 0.18523 0.68755 0.45062 0.0
C589 C 0.1936 0.64192 0.37305 0.0
C590 C 0.17944 0.65539 0.36096 0.0
C591 C 0.19596 0.64256 0.39959 0.0
C592 C 0.18196 0.67213 0.45821 0.0
H593 H 0.16064 0.61431 0.56981 0.0
H594 H 0.1775 0.61932 0.52868 0.0
H595 H 0.17514 0.68399 0.49549 0.0
H596 H 0.15832 0.68143 0.36643 0.0
H597 H 0.16248 0.68262 0.41252 0.0
H598 H 0.17865 0.62094 0.44084 0.0
C599 C 0.16635 0.63089 0.53506 0.0
C600 C 0.17602 0.6701 0.48379 0.0
C601 C 0.15668 0.62803 0.55866 0.0
C602 C 0.16918 0.67072 0.37538 0.0
C603 C 0.17171 0.67153 0.40176 0.0
C604 C 0.17858 0.63474 0.45275 0.0
C605 C 0.16166 0.64841 0.51991 0.0
C606 C 0.17059 0.65044 0.49384 0.0
C607 C 0.18441 0.65688 0.41424 0.0
C608 C 0.18272 0.65452 0.44228 0.0
H609 H 0.12693 0.67218 0.55978 0.0
H610 H 0.14319 0.6768 0.5179 0.0
H611 H 0.16818 0.61738 0.48516 0.0
H612 H 0.20176 0.63001 0.36229 0.0
H613 H 0.20598 0.6312 0.40879 0.0
C614 C 0.33349 0.18231 0.59294 0.0
C615 C 0.32437 0.16388 0.60223 0.0
C616 C 0.32809 0.19013 0.569 0.0
C617 C 0.29325 0.18136 0.51276 0.0
H618 H 0.34401 0.1936 0.47526 0.0
C619 C 0.30994 0.1538 0.4121 0.0
C620 C 0.32244 0.16574 0.39556 0.0
C621 C 0.30505 0.16109 0.43639 0.0
C622 C 0.32954 0.19083 0.48542 0.0
H623 H 0.3015 0.13986 0.59484 0.0
H624 H 0.29284 0.15274 0.55225 0.0
H625 H 0.34474 0.19258 0.52138 0.0
H626 H 0.33856 0.19524 0.39073 0.0
H627 H 0.33039 0.20786 0.43379 0.0
H628 H 0.27861 0.17794 0.47627 0.0
C629 C 0.30372 0.16161 0.56365 0.0
C630 C 0.32992 0.19024 0.51201 0.0
C631 C 0.30879 0.15406 0.58794 0.0
C632 C 0.32904 0.18566 0.40323 0.0
C633 C 0.32433 0.19288 0.42776 0.0
C634 C 0.29294 0.18177 0.48608 0.0
C635 C 0.31387 0.17933 0.55354 0.0
C636 C 0.31201 0.18459 0.52598 0.0
C637 C 0.31271 0.18041 0.44476 0.0
C638 C 0.31132 0.1856 0.4722 0.0
H639 H 0.34525 0.19041 0.60394 0.0
H640 H 0.33577 0.20414 0.56215 0.0
H641 H 0.27907 0.17747 0.52296 0.0
H642 H 0.30441 0.13849 0.40655 0.0
H643 H 0.29632 0.15099 0.44916 0.0
C644 C 0.80758 0.35013 0.39725 0.0
C645 C 0.81852 0.33672 0.38089 0.0
C646 C 0.80757 0.34642 0.42361 0.0
C647 C 0.84167 0.32127 0.47067 0.0
H648 H 0.79879 0.33767 0.51885 0.0
C649 C 0.85526 0.31828 0.57921 0.0
C650 C 0.84962 0.33659 0.59221 0.0
C651 C 0.84878 0.31511 0.55407 0.0
C652 C 0.81088 0.33301 0.50556 0.0
H653 H 0.83611 0.30791 0.37848 0.0
H654 H 0.83537 0.30094 0.42418 0.0
H655 H 0.79097 0.33717 0.47315 0.0
H656 H 0.83247 0.36573 0.58932 0.0
H657 H 0.82142 0.36029 0.54545 0.0
H658 H 0.86171 0.31759 0.50286 0.0
C659 C 0.82753 0.31475 0.41701 0.0
C660 C 0.80641 0.33275 0.47945 0.0
C661 C 0.82787 0.31866 0.39086 0.0
C662 C 0.83715 0.35149 0.57977 0.0
C663 C 0.83061 0.34829 0.55473 0.0
C664 C 0.84608 0.32144 0.49669 0.0
C665 C 0.81826 0.32908 0.43381 0.0
C666 C 0.82189 0.32722 0.46169 0.0
C667 C 0.83646 0.33014 0.54157 0.0
C668 C 0.83087 0.32769 0.51436 0.0
H669 H 0.80028 0.36417 0.3899 0.0
H670 H 0.80034 0.35782 0.43603 0.0
H671 H 0.85413 0.31737 0.45754 0.0
H672 H 0.86474 0.30646 0.5884 0.0
H673 H 0.85342 0.30092 0.54438 0.0
C674 C 0.63191 0.81385 0.59187 0.0
C675 C 0.64515 0.82563 0.60755 0.0
C676 C 0.63681 0.8107 0.56624 0.0
C677 C 0.66318 0.83689 0.51438 0.0
H678 H 0.65239 0.78563 0.47739 0.0
C679 C 0.666 0.83728 0.40597 0.0
C680 C 0.64934 0.82738 0.39371 0.0
C681 C 0.67013 0.83328 0.4316 0.0
C682 C 0.65541 0.80006 0.48745 0.0
H683 H 0.67431 0.84264 0.60905 0.0
H684 H 0.68275 0.83739 0.56388 0.0
H685 H 0.65139 0.78556 0.52412 0.0
H686 H 0.62457 0.80471 0.39789 0.0
H687 H 0.63104 0.79839 0.44333 0.0
H688 H 0.66601 0.85178 0.47814 0.0
C689 C 0.66859 0.83062 0.57155 0.0
C690 C 0.65494 0.79999 0.51415 0.0
C691 C 0.66376 0.83362 0.59733 0.0
C692 C 0.6375 0.81252 0.40706 0.0
C693 C 0.64132 0.80885 0.433 0.0
C694 C 0.66347 0.83702 0.48779 0.0
C695 C 0.65498 0.81939 0.55571 0.0
C696 C 0.65844 0.81851 0.52781 0.0
C697 C 0.6573 0.81971 0.44573 0.0
C698 C 0.65922 0.8187 0.47396 0.0
H699 H 0.61753 0.80735 0.59928 0.0
H700 H 0.62591 0.80222 0.5544 0.0
H701 H 0.66557 0.85147 0.5244 0.0
H702 H 0.6756 0.84852 0.39584 0.0
H703 H 0.68294 0.84142 0.44056 0.0
C704 C 0.14902 0.55385 0.29129 0.0
C705 C 0.15262 0.57143 0.27571 0.0
C706 C 0.1491 0.53379 0.28083 0.0
C707 C 0.13927 0.50674 0.22093 0.0
H708 H 0.16773 0.46 0.25268 0.0
C709 C 0.14089 0.42571 0.17362 0.0
C710 C 0.13908 0.40813 0.18962 0.0
C711 C 0.14398 0.44555 0.18397 0.0
C712 C 0.15947 0.47282 0.24373 0.0
H713 H 0.15955 0.58166 0.23702 0.0
H714 H 0.15945 0.54666 0.21881 0.0
H715 H 0.17056 0.49476 0.27141 0.0
H716 H 0.13914 0.39761 0.22906 0.0
H717 H 0.14386 0.43224 0.24714 0.0
H718 H 0.12761 0.48492 0.19373 0.0
C719 C 0.15655 0.54845 0.23908 0.0
C720 C 0.16118 0.49272 0.25443 0.0
C721 C 0.15672 0.56847 0.24957 0.0
C722 C 0.14058 0.41082 0.21619 0.0
C723 C 0.14342 0.43069 0.22655 0.0
C724 C 0.13736 0.48683 0.21041 0.0
C725 C 0.15253 0.53094 0.25455 0.0
C726 C 0.1511 0.50987 0.2431 0.0
C727 C 0.14507 0.44834 0.21059 0.0
C728 C 0.14744 0.46959 0.22165 0.0
H729 H 0.14587 0.55559 0.31151 0.0
H730 H 0.14584 0.52055 0.29315 0.0
H731 H 0.13108 0.51963 0.21203 0.0
H732 H 0.14 0.42415 0.15305 0.0
H733 H 0.14558 0.45869 0.17104 0.0
C734 C 0.55475 0.15947 0.20102 0.0
C735 C 0.55631 0.14437 0.18167 0.0
C736 C 0.53625 0.16191 0.2148 0.0
C737 C 0.50122 0.15355 0.25229 0.0
H738 H 0.44715 0.14546 0.22114 0.0
C739 C 0.4271 0.13693 0.31161 0.0
C740 C 0.40795 0.14463 0.30267 0.0
C741 C 0.44521 0.13925 0.29697 0.0
C742 C 0.46208 0.14806 0.23015 0.0
H743 H 0.53943 0.12035 0.16121 0.0
H744 H 0.50735 0.12427 0.18556 0.0
H745 H 0.47819 0.14602 0.19443 0.0
H746 H 0.39299 0.16167 0.27186 0.0
H747 H 0.42461 0.16621 0.24671 0.0
H748 H 0.48507 0.156 0.28795 0.0
C749 C 0.52029 0.13452 0.18983 0.0
C750 C 0.47994 0.14808 0.21483 0.0
C751 C 0.53874 0.1322 0.1759 0.0
C752 C 0.40745 0.15537 0.27921 0.0
C753 C 0.42558 0.15786 0.26469 0.0
C754 C 0.48335 0.15367 0.26759 0.0
C755 C 0.5189 0.1492 0.20971 0.0
C756 C 0.49976 0.15057 0.22574 0.0
C757 C 0.44462 0.1495 0.27315 0.0
C758 C 0.46357 0.15068 0.25676 0.0
H759 H 0.56795 0.16922 0.20582 0.0
H760 H 0.53561 0.17365 0.22962 0.0
H761 H 0.51624 0.15526 0.26143 0.0
H762 H 0.42802 0.12849 0.32954 0.0
H763 H 0.45952 0.13238 0.30398 0.0
C764 C 0.85002 0.56286 0.17847 0.0
C765 C 0.84221 0.58136 0.18922 0.0
C766 C 0.84679 0.54365 0.19059 0.0
C767 C 0.83446 0.52117 0.25407 0.0
H768 H 0.82805 0.47021 0.21513 0.0
C769 C 0.82099 0.42637 0.26971 0.0
C770 C 0.83503 0.42297 0.28986 0.0
C771 C 0.81935 0.44605 0.25824 0.0
C772 C 0.82952 0.4843 0.22637 0.0
H773 H 0.82419 0.5941 0.22066 0.0
H774 H 0.8181 0.56056 0.24142 0.0
H775 H 0.82897 0.50366 0.19301 0.0
H776 H 0.85807 0.43773 0.31408 0.0
H777 H 0.8556 0.4718 0.29373 0.0
H778 H 0.83457 0.50185 0.28747 0.0
C779 C 0.82719 0.56092 0.22397 0.0
C780 C 0.83035 0.50349 0.21362 0.0
C781 C 0.83059 0.58016 0.21197 0.0
C782 C 0.84702 0.43981 0.29868 0.0
C783 C 0.84551 0.45942 0.28707 0.0
C784 C 0.83346 0.502 0.26683 0.0
C785 C 0.8355 0.54245 0.21363 0.0
C786 C 0.83314 0.52215 0.22728 0.0
C787 C 0.83183 0.46274 0.26651 0.0
C788 C 0.83129 0.48328 0.25312 0.0
H789 H 0.85912 0.56324 0.16102 0.0
H790 H 0.8537 0.52982 0.18224 0.0
H791 H 0.83684 0.53517 0.26524 0.0
H792 H 0.8114 0.41376 0.26258 0.0
H793 H 0.80837 0.44812 0.24277 0.0
C794 C 0.5509 0.85085 0.29687 0.0
C795 C 0.57046 0.84284 0.28982 0.0
C796 C 0.53366 0.84825 0.28096 0.0
C797 C 0.49722 0.83331 0.24936 0.0
H798 H 0.50615 0.84147 0.1767 0.0
C799 C 0.42842 0.83216 0.17956 0.0
C800 C 0.42806 0.84844 0.16147 0.0
C801 C 0.44653 0.82781 0.19332 0.0
C802 C 0.50338 0.83918 0.19693 0.0
H803 H 0.58703 0.82502 0.26099 0.0
H804 H 0.55686 0.82015 0.23352 0.0
H805 H 0.53586 0.84115 0.20552 0.0
H806 H 0.44679 0.87219 0.14272 0.0
H807 H 0.47821 0.86489 0.16701 0.0
H808 H 0.46469 0.83244 0.24099 0.0
C809 C 0.55495 0.82885 0.25107 0.0
C810 C 0.52044 0.83874 0.21345 0.0
C811 C 0.57222 0.83154 0.26692 0.0
C812 C 0.44653 0.85952 0.15647 0.0
C813 C 0.4646 0.85526 0.17037 0.0
C814 C 0.48016 0.83385 0.23287 0.0
C815 C 0.53553 0.83746 0.25769 0.0
C816 C 0.51755 0.83613 0.23992 0.0
C817 C 0.46466 0.83972 0.18945 0.0
C818 C 0.483 0.83711 0.20649 0.0
H819 H 0.54899 0.8597 0.31432 0.0
H820 H 0.51902 0.85534 0.28653 0.0
H821 H 0.49444 0.83097 0.26958 0.0
H822 H 0.4145 0.82318 0.1837 0.0
H823 H 0.44616 0.81542 0.20746 0.0
C824 C 0.83673 0.54299 0.83042 0.0
C825 C 0.83545 0.5609 0.81493 0.0
C826 C 0.83224 0.52333 0.82044 0.0
C827 C 0.81039 0.49641 0.76326 0.0
H828 H 0.85093 0.4539 0.78109 0.0
C829 C 0.8396 0.43323 0.69545 0.0
C830 C 0.84346 0.41305 0.7049 0.0
C831 C 0.83266 0.44893 0.71173 0.0
C832 C 0.83917 0.46541 0.77633 0.0
H833 H 0.8278 0.5724 0.7771 0.0
H834 H 0.8208 0.53809 0.75934 0.0
H835 H 0.85013 0.48643 0.80477 0.0
H836 H 0.84225 0.39317 0.73849 0.0
H837 H 0.83062 0.42099 0.76728 0.0
H838 H 0.80056 0.47573 0.73353 0.0
C839 C 0.82472 0.53918 0.7794 0.0
C840 C 0.83867 0.48409 0.78991 0.0
C841 C 0.82893 0.55887 0.78949 0.0
C842 C 0.83944 0.40862 0.73075 0.0
C843 C 0.83281 0.42448 0.74718 0.0
C844 C 0.81108 0.4778 0.74947 0.0
C845 C 0.82666 0.52113 0.79464 0.0
C846 C 0.82473 0.5001 0.78301 0.0
C847 C 0.8297 0.44484 0.73784 0.0
C848 C 0.82591 0.46243 0.75541 0.0
H849 H 0.8414 0.54411 0.85024 0.0
H850 H 0.83349 0.50982 0.83284 0.0
H851 H 0.79912 0.5082 0.75784 0.0
H852 H 0.84238 0.43703 0.67555 0.0
H853 H 0.83063 0.46455 0.7041 0.0
C854 C 0.55605 0.818 0.73282 0.0
C855 C 0.55453 0.82365 0.70692 0.0
C856 C 0.53822 0.81242 0.74662 0.0
C857 C 0.48351 0.79581 0.74013 0.0
H858 H 0.47364 0.83062 0.79938 0.0
C859 C 0.40163 0.8177 0.77435 0.0
C860 C 0.39825 0.82238 0.80021 0.0
C861 C 0.42149 0.81224 0.76573 0.0
C862 C 0.47624 0.82032 0.78332 0.0
H863 H 0.53342 0.82686 0.67484 0.0
H864 H 0.50242 0.81702 0.69887 0.0
H865 H 0.50774 0.83066 0.77918 0.0
H866 H 0.41259 0.8235 0.83766 0.0
H867 H 0.4471 0.81342 0.82275 0.0
H868 H 0.45186 0.78581 0.74388 0.0
C869 C 0.51733 0.81691 0.7085 0.0
C870 C 0.49582 0.8204 0.77172 0.0
C871 C 0.53505 0.82276 0.69483 0.0
C872 C 0.41481 0.82031 0.81753 0.0
C873 C 0.4346 0.81459 0.80897 0.0
C874 C 0.46397 0.79554 0.7519 0.0
C875 C 0.51868 0.81206 0.73461 0.0
C876 C 0.4994 0.80872 0.74953 0.0
C877 C 0.43832 0.81109 0.78286 0.0
C878 C 0.45989 0.80838 0.77308 0.0
H879 H 0.57088 0.8185 0.74262 0.0
H880 H 0.53962 0.80873 0.76676 0.0
H881 H 0.48601 0.78647 0.72318 0.0
H882 H 0.38917 0.81916 0.76055 0.0
H883 H 0.4238 0.80995 0.74544 0.0
C884 C 0.16161 0.44452 0.81739 0.0
C885 C 0.16033 0.42521 0.80486 0.0
C886 C 0.16378 0.46298 0.80341 0.0
C887 C 0.17361 0.48403 0.73786 0.0
H888 H 0.13697 0.52838 0.76089 0.0
C889 C 0.13689 0.54532 0.67163 0.0
C890 C 0.13632 0.56618 0.67982 0.0
C891 C 0.14429 0.52965 0.68777 0.0
C892 C 0.14756 0.5163 0.75445 0.0
H893 H 0.16122 0.40992 0.768 0.0
H894 H 0.16418 0.44213 0.74348 0.0
H895 H 0.14224 0.49785 0.78781 0.0
H896 H 0.14335 0.58706 0.7112 0.0
H897 H 0.15586 0.55943 0.73972 0.0
H898 H 0.17781 0.50216 0.70374 0.0
C899 C 0.16403 0.44309 0.76413 0.0
C900 C 0.15067 0.4988 0.7699 0.0
C901 C 0.16219 0.4246 0.77816 0.0
C902 C 0.14357 0.57111 0.70439 0.0
C903 C 0.15071 0.55535 0.72069 0.0
C904 C 0.17028 0.50144 0.72227 0.0
C905 C 0.16436 0.46254 0.77657 0.0
C906 C 0.16337 0.48223 0.76156 0.0
C907 C 0.15103 0.53449 0.71252 0.0
C908 C 0.15688 0.5175 0.73024 0.0
H909 H 0.16054 0.44543 0.83802 0.0
H910 H 0.16449 0.47763 0.81364 0.0
H911 H 0.18381 0.47176 0.73107 0.0
H912 H 0.13155 0.54104 0.65274 0.0
H913 H 0.14414 0.51363 0.68115 0.0
C914 C 0.44145 0.14297 0.67112 0.0
C915 C 0.42271 0.14637 0.68445 0.0
C916 C 0.46057 0.14676 0.68284 0.0
C917 C 0.48404 0.14746 0.74587 0.0
H918 H 0.53101 0.17342 0.71145 0.0
C919 C 0.56172 0.15578 0.79716 0.0
C920 C 0.57961 0.15028 0.78323 0.0
C921 C 0.54285 0.15911 0.78475 0.0
C922 C 0.51807 0.16602 0.72123 0.0
H923 H 0.40933 0.15698 0.72026 0.0
H924 H 0.44278 0.16343 0.74074 0.0
H925 H 0.49712 0.17212 0.69025 0.0
H926 H 0.5921 0.14491 0.74533 0.0
H927 H 0.55884 0.15003 0.72356 0.0
H928 H 0.50488 0.14062 0.77639 0.0
C929 C 0.44261 0.15775 0.72128 0.0
C930 C 0.4987 0.16533 0.70914 0.0
C931 C 0.42348 0.15409 0.70952 0.0
C932 C 0.57852 0.14912 0.7565 0.0
C933 C 0.55949 0.15216 0.74406 0.0
C934 C 0.50337 0.14801 0.75785 0.0
C935 C 0.46132 0.15388 0.70814 0.0
C936 C 0.48155 0.15593 0.72132 0.0
C937 C 0.54134 0.15665 0.75817 0.0
C938 C 0.52065 0.1572 0.74565 0.0
H939 H 0.4414 0.13713 0.65173 0.0
H940 H 0.47476 0.14344 0.67237 0.0
H941 H 0.4712 0.13976 0.75551 0.0
H942 H 0.5622 0.15717 0.81777 0.0
H943 H 0.52931 0.16313 0.79611 0.0
C944 C 0.63386 0.05051 0.80769 0.0
C945 C 0.64601 0.06623 0.79625 0.0
C946 C 0.63352 0.03035 0.79749 0.0
C947 C 0.64329 0.00285 0.73676 0.0
H948 H 0.63748 0.95319 0.77876 0.0
C949 C 0.64073 0.90714 0.72538 0.0
C950 C 0.62757 0.9057 0.70402 0.0
C951 C 0.64441 0.92643 0.73698 0.0
C952 C 0.63933 0.96687 0.76675 0.0
H953 H 0.6682 0.07282 0.76592 0.0
H954 H 0.66798 0.03763 0.74855 0.0
H955 H 0.64241 0.98706 0.79905 0.0
H956 H 0.60793 0.92346 0.67817 0.0
H957 H 0.61405 0.95692 0.6986 0.0
H958 H 0.64059 0.9827 0.70448 0.0
C959 C 0.65826 0.04098 0.76498 0.0
C960 C 0.6419 0.98632 0.77839 0.0
C961 C 0.65848 0.06114 0.77504 0.0
C962 C 0.61825 0.92399 0.69449 0.0
C963 C 0.62186 0.94323 0.70614 0.0
C964 C 0.6408 0.98343 0.72514 0.0
C965 C 0.64545 0.02545 0.77574 0.0
C966 C 0.64375 0.00457 0.76353 0.0
C967 C 0.63498 0.9447 0.72752 0.0
C968 C 0.63858 0.96522 0.73998 0.0
H969 H 0.62403 0.05392 0.824 0.0
H970 H 0.62332 0.01885 0.80612 0.0
H971 H 0.64438 0.01658 0.7247 0.0
H972 H 0.64822 0.89337 0.73317 0.0
H973 H 0.65481 0.92704 0.75321 0.0
C974 C 0.90879 0.65016 0.77354 0.0
C975 C 0.90977 0.63921 0.79683 0.0
C976 C 0.92641 0.65209 0.758 0.0
C977 C 0.96121 0.64102 0.72138 0.0
H978 H 0.01663 0.64738 0.74948 0.0
C979 C 0.03576 0.62359 0.66332 0.0
C980 C 0.05358 0.63575 0.6679 0.0
C981 C 0.0178 0.62626 0.67812 0.0
C982 C 0.00125 0.64587 0.74124 0.0
H983 H 0.93024 0.62215 0.82236 0.0
H984 H 0.9609 0.62517 0.79506 0.0
H985 H 0.9865 0.64864 0.77779 0.0
H986 H 0.06613 0.66096 0.69081 0.0
H987 H 0.03468 0.66588 0.71619 0.0
H988 H 0.97593 0.63855 0.68479 0.0
C989 C 0.94657 0.63257 0.78895 0.0
C990 C 0.98398 0.64631 0.75755 0.0
C991 C 0.92895 0.63074 0.80459 0.0
C992 C 0.05273 0.6512 0.6869 0.0
C993 C 0.03475 0.65394 0.70159 0.0
C994 C 0.97847 0.64066 0.70506 0.0
C995 C 0.94543 0.64301 0.7653 0.0
C996 C 0.96376 0.64368 0.74786 0.0
C997 C 0.0172 0.64122 0.69773 0.0
C998 C -0.00128 0.64287 0.71482 0.0
H999 H 0.89429 0.65704 0.76707 0.0
H1000 H 0.92507 0.66059 0.74016 0.0
H1001 H 0.94589 0.63869 0.71326 0.0
H1002 H 0.03589 0.61151 0.64891 0.0
H1003 H 0.00466 0.61603 0.67478 0.0
C1004 C 0.34773 0.05178 0.67027 0.0
C1005 C 0.34609 0.06998 0.68511 0.0
C1006 C 0.34566 0.03207 0.68162 0.0
C1007 C 0.35246 0.00542 0.74283 0.0
H1008 H 0.31746 0.9622 0.71407 0.0
C1009 C 0.33744 0.92804 0.79626 0.0
C1010 C 0.33614 0.90969 0.78175 0.0
C1011 C 0.33813 0.94756 0.78426 0.0
C1012 C 0.32755 0.97398 0.72218 0.0
H1013 H 0.34066 0.08171 0.72344 0.0
H1014 H 0.33727 0.04737 0.74314 0.0
H1015 H 0.31967 -0.00379 0.69302 0.0
H1016 H 0.33477 0.89741 0.7432 0.0
H1017 H 0.33661 0.93133 0.72228 0.0
H1018 H 0.3608 0.98325 0.77162 0.0
C1019 C 0.3402 0.04837 0.72278 0.0
C1020 C 0.32873 -0.00653 0.71014 0.0
C1021 C 0.34202 0.06804 0.71142 0.0
C1022 C 0.33561 0.91127 0.75496 0.0
C1023 C 0.33654 0.93076 0.74295 0.0
C1024 C 0.35147 0.98589 0.75471 0.0
C1025 C 0.34218 0.0302 0.70805 0.0
C1026 C 0.3411 0.0094 0.72045 0.0
C1027 C 0.3378 0.94917 0.75743 0.0
C1028 C 0.33892 0.96994 0.74462 0.0
H1029 H 0.35083 0.05274 0.64995 0.0
H1030 H 0.34734 0.01828 0.66986 0.0
H1031 H 0.36236 0.01735 0.75097 0.0
H1032 H 0.33773 0.92737 0.81694 0.0
H1033 H 0.33871 0.9614 0.79606 0.0
C1034 C 0.06521 0.36156 0.81872 0.0
C1035 C 0.0832 0.3514 0.80972 0.0
C1036 C 0.04638 0.35983 0.80551 0.0
C1037 C 0.00606 0.34617 0.77988 0.0
H1038 H 0.00947 0.3492 0.70596 0.0
C1039 C 0.93351 0.33717 0.71589 0.0
C1040 C 0.93174 0.35117 0.69524 0.0
C1041 C 0.95205 0.33577 0.72973 0.0
C1042 C 0.00823 0.34844 0.72658 0.0
H1043 H 0.09522 0.33063 0.78048 0.0
H1044 H 0.06239 0.32735 0.75782 0.0
H1045 H 0.04128 0.34953 0.73113 0.0
H1046 H 0.94824 0.37439 0.67268 0.0
H1047 H 0.98045 0.37208 0.69695 0.0
H1048 H 0.97294 0.34575 0.7753 0.0
C1049 C 0.06292 0.33705 0.77471 0.0
C1050 C 0.02648 0.34836 0.74102 0.0
C1051 C 0.08173 0.33884 0.78782 0.0
C1052 C 0.94907 0.3634 0.68841 0.0
C1053 C 0.96759 0.36201 0.70228 0.0
C1054 C 0.98778 0.34626 0.76542 0.0
C1055 C 0.04512 0.34785 0.78309 0.0
C1056 C 0.02563 0.3473 0.76785 0.0
C1057 C 0.96923 0.34832 0.72325 0.0
C1058 C 0.98866 0.34751 0.7386 0.0
H1059 H 0.06582 0.37139 0.8355 0.0
H1060 H 0.033 0.36849 0.81238 0.0
H1061 H 0.00486 0.34516 0.80049 0.0
H1062 H 0.9205 0.32746 0.72162 0.0
H1063 H 0.95291 0.32484 0.74553 0.0
C1064 C 0.34747 0.04573 0.32996 0.0
C1065 C 0.33883 0.06328 0.31771 0.0
C1066 C 0.34649 0.02609 0.31859 0.0
C1067 C 0.32184 -0.00474 0.26733 0.0
H1068 H 0.37658 0.97001 0.26132 0.0
C1069 C 0.33956 0.9197 0.20936 0.0
C1070 C 0.3557 0.92255 0.19146 0.0
C1071 C 0.33576 0.9348 0.22806 0.0
C1072 C 0.36117 0.97678 0.26306 0.0
H1073 H 0.32119 0.07372 0.28473 0.0
H1074 H 0.31966 0.0394 0.26478 0.0
H1075 H 0.37172 0.00019 0.28891 0.0
H1076 H 0.38066 0.9432 0.1793 0.0
H1077 H 0.37421 0.96927 0.21209 0.0
H1078 H 0.31157 0.97214 0.24061 0.0
C1079 C 0.3271 0.04086 0.28324 0.0
C1080 C 0.35834 -0.00607 0.27898 0.0
C1081 C 0.32814 0.06054 0.29457 0.0
C1082 C 0.36808 0.94058 0.19277 0.0
C1083 C 0.36449 0.95544 0.21163 0.0
C1084 C 0.32465 0.97791 0.25155 0.0
C1085 C 0.33679 0.02358 0.29481 0.0
C1086 C 0.33878 0.00367 0.28078 0.0
C1087 C 0.3483 0.95271 0.22938 0.0
C1088 C 0.34448 0.96894 0.24877 0.0
H1089 H 0.35563 0.04723 0.34794 0.0
H1090 H 0.35387 0.01297 0.32804 0.0
H1091 H 0.30658 0.00243 0.26853 0.0
H1092 H 0.32973 0.90597 0.20873 0.0
H1093 H 0.32318 0.93242 0.2416 0.0
C1094 C 0.92414 0.33795 0.29032 0.0
C1095 C 0.90467 0.34061 0.27856 0.0
C1096 C 0.94161 0.33267 0.27589 0.0
C1097 C 0.96341 0.33996 0.21314 0.0
H1098 H 0.00483 0.30011 0.23637 0.0
C1099 C 0.04321 0.33394 0.16376 0.0
C1100 C 0.06045 0.33266 0.18019 0.0
C1101 C 0.02308 0.33077 0.17311 0.0
C1102 C -0.00654 0.31136 0.22969 0.0
H1103 H 0.88809 0.33932 0.24255 0.0
H1104 H 0.91896 0.33051 0.2171 0.0
H1105 H 0.97103 0.30184 0.25778 0.0
H1106 H 0.07015 0.32653 0.21915 0.0
H1107 H 0.03504 0.32167 0.23565 0.0
H1108 H 0.98607 0.35039 0.18604 0.0
C1109 C 0.92052 0.3324 0.23756 0.0
C1110 C 0.97411 0.31224 0.24184 0.0
C1111 C 0.90292 0.3374 0.2521 0.0
C1112 C 0.05719 0.32759 0.20601 0.0
C1113 C 0.03704 0.32464 0.21541 0.0
C1114 C 0.98283 0.33924 0.20114 0.0
C1115 C 0.94003 0.33016 0.24935 0.0
C1116 C 0.95912 0.32689 0.23406 0.0
C1117 C 0.01972 0.32645 0.19914 0.0
C1118 C -0.00173 0.32529 0.2097 0.0
H1119 H 0.92596 0.34016 0.3107 0.0
H1120 H 0.95652 0.33128 0.28539 0.0
H1121 H 0.9522 0.35157 0.20697 0.0
H1122 H 0.04524 0.33756 0.14368 0.0
H1123 H 0.01013 0.33192 0.15996 0.0
C1124 C 0.64747 0.92389 0.27771 0.0
C1125 C 0.64215 0.92281 0.3037 0.0
C1126 C 0.65105 0.94321 0.26604 0.0
C1127 C 0.63795 -0.00112 0.2747 0.0
H1128 H 0.6741 0.00575 0.21579 0.0
C1129 C 0.64148 0.0757 0.21726 0.0
C1130 C 0.63693 0.07271 0.19129 0.0
C1131 C 0.64647 0.05866 0.23283 0.0
C1132 C 0.66407 0.00404 0.23235 0.0
H1133 H 0.63774 0.94086 0.33828 0.0
H1134 H 0.64473 0.97445 0.3182 0.0
H1135 H 0.67535 0.9733 0.24044 0.0
H1136 H 0.63508 0.04977 0.16094 0.0
H1137 H 0.64399 0.02012 0.18808 0.0
H1138 H 0.62659 0.02956 0.2664 0.0
C1139 C 0.6454 0.96053 0.30654 0.0
C1140 C 0.66466 0.98545 0.24636 0.0
C1141 C 0.64147 0.94127 0.31809 0.0
C1142 C 0.63833 0.05253 0.18094 0.0
C1143 C 0.64363 0.03559 0.19639 0.0
C1144 C 0.63759 0.01754 0.26091 0.0
C1145 C 0.64971 0.9618 0.28024 0.0
C1146 C 0.65118 0.98243 0.26729 0.0
C1147 C 0.64736 0.03845 0.22254 0.0
C1148 C 0.65024 0.02006 0.23925 0.0
H1149 H 0.64807 0.90989 0.26617 0.0
H1150 H 0.65402 0.94357 0.24567 0.0
H1151 H 0.62709 -0.00296 0.2904 0.0
H1152 H 0.64055 0.09109 0.22572 0.0
H1153 H 0.64932 0.0612 0.25297 0.0
C1154 C 0.08299 0.65635 0.24609 0.0
C1155 C 0.08337 0.65286 0.2726 0.0
C1156 C 0.06411 0.65995 0.23362 0.0
C1157 C 0.00941 0.67524 0.24335 0.0
H1158 H -0.00161 0.63786 0.18688 0.0
C1159 C 0.92642 0.65829 0.20725 0.0
C1160 C 0.92363 0.65416 0.18116 0.0
C1161 C 0.9464 0.66115 0.21711 0.0
C1162 C 0.00129 0.64875 0.20224 0.0
H1163 H 0.06445 0.65144 0.30701 0.0
H1164 H 0.03158 0.65785 0.28521 0.0
H1165 H 0.0328 0.63839 0.20611 0.0
H1166 H 0.93943 0.65081 0.1447 0.0
H1167 H 0.97415 0.65642 0.16172 0.0
H1168 H 0.97787 0.68556 0.2396 0.0
C1169 C 0.04584 0.65777 0.27411 0.0
C1170 C 0.02102 0.64901 0.21327 0.0
C1171 C 0.06465 0.65392 0.28653 0.0
C1172 C 0.94111 0.65366 0.16498 0.0
C1173 C 0.96103 0.6568 0.17475 0.0
C1174 C 0.9897 0.67516 0.23213 0.0
C1175 C 0.04536 0.66041 0.24749 0.0
C1176 C 0.02516 0.66198 0.23418 0.0
C1177 C 0.96397 0.6602 0.20101 0.0
C1178 C 0.98531 0.66165 0.21171 0.0
H1179 H 0.09717 0.65567 0.23486 0.0
H1180 H 0.06412 0.66208 0.21307 0.0
H1181 H 0.01231 0.68551 0.25935 0.0
H1182 H 0.91322 0.65873 0.22018 0.0
H1183 H 0.9481 0.66345 0.23748 0.0
loop_
_geom_bond_atom_site_label_1
_geom_bond_atom_site_label_2
_geom_bond_distance
_geom_bond_site_symmetry_2
_ccdc_geom_bond_type
C0 O1 1.306 . S
C0 O3 1.160 . S
O1 C0 1.306 . S
O1 Cd2 2.228 . S
Cd2 O1 2.228 . S
Cd2 O6 2.273 . S
Cd2 O10 2.277 . S
O3 C0 1.160 . S
O3 Cd4 2.203 . S
Cd4 O3 2.203 . S
Cd4 O6 2.411 . S
Cd4 O7 2.333 . S
Cd4 O8 2.352 . S
Cd4 O12 2.277 . S
Cd4 O13 2.356 . S
C5 O10 1.209 . S
C5 O12 1.226 . S
O6 Cd2 2.273 . S
O6 Cd4 2.411 . S
O6 C9 1.320 . S
O7 Cd4 2.333 . S
O7 C9 1.214 . S
O8 Cd4 2.352 . S
O8 C11 1.258 . S
C9 O6 1.320 . S
C9 O7 1.214 . S
O10 Cd2 2.277 . S
O10 C5 1.209 . S
C11 O8 1.258 . S
C11 O13 1.282 . S
O12 Cd4 2.277 . S
O12 C5 1.226 . S
O13 Cd4 2.356 . S
O13 C11 1.282 . S
C14 O15 1.306 . S
C14 O17 1.160 . S
O15 C14 1.306 . S
O15 Cd16 2.228 . S
Cd16 O15 2.228 . S
Cd16 O20 2.273 . S
Cd16 O24 2.277 . S
O17 C14 1.160 . S
O17 Cd18 2.203 . S
Cd18 O17 2.203 . S
Cd18 O20 2.411 . S
Cd18 O21 2.333 . S
Cd18 O22 2.352 . S
Cd18 O26 2.277 . S
Cd18 O27 2.356 . S
C19 O24 1.209 . S
C19 O26 1.226 . S
O20 Cd16 2.273 . S
O20 Cd18 2.411 . S
O20 C23 1.320 . S
O21 Cd18 2.333 . S
O21 C23 1.214 . S
O22 Cd18 2.352 . S
O22 C25 1.258 . S
C23 O20 1.320 . S
C23 O21 1.214 . S
O24 Cd16 2.277 . S
O24 C19 1.209 . S
C25 O22 1.258 . S
C25 O27 1.282 . S
O26 Cd18 2.277 . S
O26 C19 1.226 . S
O27 Cd18 2.356 . S
O27 C25 1.282 . S
C28 O29 1.306 . S
C28 O31 1.160 . S
O29 C28 1.306 . S
O29 Cd30 2.228 . S
Cd30 O29 2.228 . S
Cd30 O34 2.273 . S
Cd30 O38 2.277 . S
O31 C28 1.160 . S
O31 Cd32 2.203 . S
Cd32 O31 2.203 . S
Cd32 O34 2.411 . S
Cd32 O35 2.333 . S
Cd32 O36 2.352 . S
Cd32 O40 2.277 . S
Cd32 O41 2.356 . S
C33 O38 1.209 . S
C33 O40 1.226 . S
O34 Cd30 2.273 . S
O34 Cd32 2.411 . S
O34 C37 1.320 . S
O35 Cd32 2.333 . S
O35 C37 1.214 . S
O36 Cd32 2.352 . S
O36 C39 1.258 . S
C37 O34 1.320 . S
C37 O35 1.214 . S
O38 Cd30 2.277 . S
O38 C33 1.209 . S
C39 O36 1.258 . S
C39 O41 1.282 . S
O40 Cd32 2.277 . S
O40 C33 1.226 . S
O41 Cd32 2.356 . S
O41 C39 1.282 . S
C42 O43 1.306 . S
C42 O45 1.160 . S
O43 C42 1.306 . S
O43 Cd44 2.228 . S
Cd44 O43 2.228 . S
Cd44 O48 2.273 . S
Cd44 O52 2.277 . S
O45 C42 1.160 . S
O45 Cd46 2.203 . S
Cd46 O45 2.203 . S
Cd46 O48 2.411 . S
Cd46 O49 2.333 . S
Cd46 O50 2.352 . S
Cd46 O54 2.277 . S
Cd46 O55 2.356 . S
C47 O52 1.209 . S
C47 O54 1.226 . S
O48 Cd44 2.273 . S
O48 Cd46 2.411 . S
O48 C51 1.320 . S
O49 Cd46 2.333 . S
O49 C51 1.214 . S
O50 Cd46 2.352 . S
O50 C53 1.258 . S
C51 O48 1.320 . S
C51 O49 1.214 . S
O52 Cd44 2.277 . S
O52 C47 1.209 . S
C53 O50 1.258 . S
C53 O55 1.282 . S
O54 Cd46 2.277 . S
O54 C47 1.226 . S
O55 Cd46 2.356 . S
O55 C53 1.282 . S
C56 O57 1.306 . S
C56 O59 1.160 . S
O57 C56 1.306 . S
O57 Cd58 2.228 . S
Cd58 O57 2.228 . S
Cd58 O62 2.273 . S
Cd58 O66 2.277 . S
O59 C56 1.160 . S
O59 Cd60 2.203 . S
Cd60 O59 2.203 . S
Cd60 O62 2.411 . S
Cd60 O63 2.333 . S
Cd60 O64 2.352 . S
Cd60 O68 2.277 . S
Cd60 O69 2.356 . S
C61 O66 1.209 . S
C61 O68 1.226 . S
O62 Cd58 2.273 . S
O62 Cd60 2.411 . S
O62 C65 1.320 . S
O63 Cd60 2.333 . S
O63 C65 1.214 . S
O64 Cd60 2.352 . S
O64 C67 1.258 . S
C65 O62 1.320 . S
C65 O63 1.214 . S
O66 Cd58 2.277 . S
O66 C61 1.209 . S
C67 O64 1.258 . S
C67 O69 1.282 . S
O68 Cd60 2.277 . S
O68 C61 1.226 . S
O69 Cd60 2.356 . S
O69 C67 1.282 . S
C70 O71 1.306 . S
C70 O73 1.160 . S
O71 C70 1.306 . S
O71 Cd72 2.228 . S
Cd72 O71 2.228 . S
Cd72 O76 2.273 . S
Cd72 O80 2.277 . S
O73 C70 1.160 . S
O73 Cd74 2.203 . S
Cd74 O73 2.203 . S
Cd74 O76 2.411 . S
Cd74 O77 2.333 . S
Cd74 O78 2.352 . S
Cd74 O82 2.277 . S
Cd74 O83 2.356 . S
C75 O80 1.209 . S
C75 O82 1.226 . S
O76 Cd72 2.273 . S
O76 Cd74 2.411 . S
O76 C79 1.320 . S
O77 Cd74 2.333 . S
O77 C79 1.214 . S
O78 Cd74 2.352 . S
O78 C81 1.258 . S
C79 O76 1.320 . S
C79 O77 1.214 . S
O80 Cd72 2.277 . S
O80 C75 1.209 . S
C81 O78 1.258 . S
C81 O83 1.282 . S
O82 Cd74 2.277 . S
O82 C75 1.226 . S
O83 Cd74 2.356 . S
O83 C81 1.282 . S
C84 O85 1.306 . S
C84 O87 1.160 . S
O85 C84 1.306 . S
O85 Cd86 2.228 . S
Cd86 O85 2.228 . S
Cd86 O90 2.273 . S
Cd86 O94 2.277 . S
O87 C84 1.160 . S
O87 Cd88 2.203 . S
Cd88 O87 2.203 . S
Cd88 O90 2.411 . S
Cd88 O91 2.333 . S
Cd88 O92 2.352 . S
Cd88 O96 2.277 . S
Cd88 O97 2.356 . S
C89 O94 1.209 . S
C89 O96 1.226 . S
O90 Cd86 2.273 . S
O90 Cd88 2.411 . S
O90 C93 1.320 . S
O91 Cd88 2.333 . S
O91 C93 1.214 . S
O92 Cd88 2.352 . S
O92 C95 1.258 . S
C93 O90 1.320 . S
C93 O91 1.214 . S
O94 Cd86 2.277 . S
O94 C89 1.209 . S
C95 O92 1.258 . S
C95 O97 1.282 . S
O96 Cd88 2.277 . S
O96 C89 1.226 . S
O97 Cd88 2.356 . S
O97 C95 1.282 . S
C98 O99 1.306 . S
C98 O101 1.160 . S
O99 C98 1.306 . S
O99 Cd100 2.228 . S
Cd100 O99 2.228 . S
Cd100 O104 2.273 . S
Cd100 O108 2.277 . S
O101 C98 1.160 . S
O101 Cd102 2.203 . S
Cd102 O101 2.203 . S
Cd102 O104 2.411 . S
Cd102 O105 2.333 . S
Cd102 O106 2.352 . S
Cd102 O110 2.277 . S
Cd102 O111 2.356 . S
C103 O108 1.209 . S
C103 O110 1.226 . S
O104 Cd100 2.273 . S
O104 Cd102 2.411 . S
O104 C107 1.320 . S
O105 Cd102 2.333 . S
O105 C107 1.214 . S
O106 Cd102 2.352 . S
O106 C109 1.258 . S
C107 O104 1.320 . S
C107 O105 1.214 . S
O108 Cd100 2.277 . S
O108 C103 1.209 . S
C109 O106 1.258 . S
C109 O111 1.282 . S
O110 Cd102 2.277 . S
O110 C103 1.226 . S
O111 Cd102 2.356 . S
O111 C109 1.282 . S
C112 O113 1.306 . S
C112 O115 1.160 . S
O113 C112 1.306 . S
O113 Cd114 2.228 . S
Cd114 O113 2.228 . S
Cd114 O118 2.273 . S
Cd114 O122 2.277 . S
O115 C112 1.160 . S
O115 Cd116 2.203 . S
Cd116 O115 2.203 . S
Cd116 O118 2.411 . S
Cd116 O119 2.333 . S
Cd116 O120 2.352 . S
Cd116 O124 2.277 . S
Cd116 O125 2.356 . S
C117 O122 1.209 . S
C117 O124 1.226 . S
O118 Cd114 2.273 . S
O118 Cd116 2.411 . S
O118 C121 1.320 . S
O119 Cd116 2.333 . S
O119 C121 1.214 . S
O120 Cd116 2.352 . S
O120 C123 1.258 . S
C121 O118 1.320 . S
C121 O119 1.214 . S
O122 Cd114 2.277 . S
O122 C117 1.209 . S
C123 O120 1.258 . S
C123 O125 1.282 . S
O124 Cd116 2.277 . S
O124 C117 1.226 . S
O125 Cd116 2.356 . S
O125 C123 1.282 . S
C126 O127 1.306 . S
C126 O129 1.160 . S
O127 C126 1.306 . S
O127 Cd128 2.228 . S
Cd128 O127 2.228 . S
Cd128 O132 2.273 . S
Cd128 O136 2.277 . S
O129 C126 1.160 . S
O129 Cd130 2.203 . S
Cd130 O129 2.203 . S
Cd130 O132 2.411 . S
Cd130 O133 2.333 . S
Cd130 O134 2.352 . S
Cd130 O138 2.277 . S
Cd130 O139 2.356 . S
C131 O136 1.209 . S
C131 O138 1.226 . S
O132 Cd128 2.273 . S
O132 Cd130 2.411 . S
O132 C135 1.320 . S
O133 Cd130 2.333 . S
O133 C135 1.214 . S
O134 Cd130 2.352 . S
O134 C137 1.258 . S
C135 O132 1.320 . S
C135 O133 1.214 . S
O136 Cd128 2.277 . S
O136 C131 1.209 . S
C137 O134 1.258 . S
C137 O139 1.282 . S
O138 Cd130 2.277 . S
O138 C131 1.226 . S
O139 Cd130 2.356 . S
O139 C137 1.282 . S
C140 O141 1.306 . S
C140 O143 1.160 . S
O141 C140 1.306 . S
O141 Cd142 2.228 . S
Cd142 O141 2.228 . S
Cd142 O146 2.273 . S
Cd142 O150 2.277 . S
O143 C140 1.160 . S
O143 Cd144 2.203 . S
Cd144 O143 2.203 . S
Cd144 O146 2.411 . S
Cd144 O147 2.333 . S
Cd144 O148 2.352 . S
Cd144 O152 2.277 . S
Cd144 O153 2.356 . S
C145 O150 1.209 . S
C145 O152 1.226 . S
O146 Cd142 2.273 . S
O146 Cd144 2.411 . S
O146 C149 1.320 . S
O147 Cd144 2.333 . S
O147 C149 1.214 . S
O148 Cd144 2.352 . S
O148 C151 1.258 . S
C149 O146 1.320 . S
C149 O147 1.214 . S
O150 Cd142 2.277 . S
O150 C145 1.209 . S
C151 O148 1.258 . S
C151 O153 1.282 . S
O152 Cd144 2.277 . S
O152 C145 1.226 . S
O153 Cd144 2.356 . S
O153 C151 1.282 . S
C154 O155 1.306 . S
C154 O157 1.160 . S
O155 C154 1.306 . S
O155 Cd156 2.228 . S
Cd156 O155 2.228 . S
Cd156 O160 2.273 . S
Cd156 O164 2.277 . S
O157 C154 1.160 . S
O157 Cd158 2.203 . S
Cd158 O157 2.203 . S
Cd158 O160 2.411 . S
Cd158 O161 2.333 . S
Cd158 O162 2.352 . S
Cd158 O166 2.277 . S
Cd158 O167 2.356 . S
C159 O164 1.209 . S
C159 O166 1.226 . S
O160 Cd156 2.273 . S
O160 Cd158 2.411 . S
O160 C163 1.320 . S
O161 Cd158 2.333 . S
O161 C163 1.214 . S
O162 Cd158 2.352 . S
O162 C165 1.258 . S
C163 O160 1.320 . S
C163 O161 1.214 . S
O164 Cd156 2.277 . S
O164 C159 1.209 . S
C165 O162 1.258 . S
C165 O167 1.282 . S
O166 Cd158 2.277 . S
O166 C159 1.226 . S
O167 Cd158 2.356 . S
O167 C165 1.282 . S
C168 O169 1.306 . S
C168 O171 1.160 . S
O169 C168 1.306 . S
O169 Cd170 2.228 . S
Cd170 O169 2.228 . S
Cd170 O174 2.273 . S
Cd170 O178 2.277 . S
O171 C168 1.160 . S
O171 Cd172 2.203 . S
Cd172 O171 2.203 . S
Cd172 O174 2.411 . S
Cd172 O175 2.333 . S
Cd172 O176 2.352 . S
Cd172 O180 2.277 . S
Cd172 O181 2.356 . S
C173 O178 1.209 . S
C173 O180 1.226 . S
O174 Cd170 2.273 . S
O174 Cd172 2.411 . S
O174 C177 1.320 . S
O175 Cd172 2.333 . S
O175 C177 1.214 . S
O176 Cd172 2.352 . S
O176 C179 1.258 . S
C177 O174 1.320 . S
C177 O175 1.214 . S
O178 Cd170 2.277 . S
O178 C173 1.209 . S
C179 O176 1.258 . S
C179 O181 1.282 . S
O180 Cd172 2.277 . S
O180 C173 1.226 . S
O181 Cd172 2.356 . S
O181 C179 1.282 . S
C182 O183 1.306 . S
C182 O185 1.160 . S
O183 C182 1.306 . S
O183 Cd184 2.228 . S
Cd184 O183 2.228 . S
Cd184 O188 2.273 . S
Cd184 O192 2.277 . S
O185 C182 1.160 . S
O185 Cd186 2.203 . S
Cd186 O185 2.203 . S
Cd186 O188 2.411 . S
Cd186 O189 2.333 . S
Cd186 O190 2.352 . S
Cd186 O194 2.277 . S
Cd186 O195 2.356 . S
C187 O192 1.209 . S
C187 O194 1.226 . S
O188 Cd184 2.273 . S
O188 Cd186 2.411 . S
O188 C191 1.320 . S
O189 Cd186 2.333 . S
O189 C191 1.214 . S
O190 Cd186 2.352 . S
O190 C193 1.258 . S
C191 O188 1.320 . S
C191 O189 1.214 . S
O192 Cd184 2.277 . S
O192 C187 1.209 . S
C193 O190 1.258 . S
C193 O195 1.282 . S
O194 Cd186 2.277 . S
O194 C187 1.226 . S
O195 Cd186 2.356 . S
O195 C193 1.282 . S
C196 O197 1.306 . S
C196 O199 1.160 . S
O197 C196 1.306 . S
O197 Cd198 2.228 . S
Cd198 O197 2.228 . S
Cd198 O202 2.273 . S
Cd198 O206 2.277 . S
O199 C196 1.160 . S
O199 Cd200 2.203 . S
Cd200 O199 2.203 . S
Cd200 O202 2.411 . S
Cd200 O203 2.333 . S
Cd200 O204 2.352 . S
Cd200 O208 2.277 . S
Cd200 O209 2.356 . S
C201 O206 1.209 . S
C201 O208 1.226 . S
O202 Cd198 2.273 . S
O202 Cd200 2.411 . S
O202 C205 1.320 . S
O203 Cd200 2.333 . S
O203 C205 1.214 . S
O204 Cd200 2.352 . S
O204 C207 1.258 . S
C205 O202 1.320 . S
C205 O203 1.214 . S
O206 Cd198 2.277 . S
O206 C201 1.209 . S
C207 O204 1.258 . S
C207 O209 1.282 . S
O208 Cd200 2.277 . S
O208 C201 1.226 . S
O209 Cd200 2.356 . S
O209 C207 1.282 . S
C210 O211 1.306 . S
C210 O213 1.160 . S
O211 C210 1.306 . S
O211 Cd212 2.228 . S
Cd212 O211 2.228 . S
Cd212 O216 2.273 . S
Cd212 O220 2.277 . S
O213 C210 1.160 . S
O213 Cd214 2.203 . S
Cd214 O213 2.203 . S
Cd214 O216 2.411 . S
Cd214 O217 2.333 . S
Cd214 O218 2.352 . S
Cd214 O222 2.277 . S
Cd214 O223 2.356 . S
C215 O220 1.209 . S
C215 O222 1.226 . S
O216 Cd212 2.273 . S
O216 Cd214 2.411 . S
O216 C219 1.320 . S
O217 Cd214 2.333 . S
O217 C219 1.214 . S
O218 Cd214 2.352 . S
O218 C221 1.258 . S
C219 O216 1.320 . S
C219 O217 1.214 . S
O220 Cd212 2.277 . S
O220 C215 1.209 . S
C221 O218 1.258 . S
C221 O223 1.282 . S
O222 Cd214 2.277 . S
O222 C215 1.226 . S
O223 Cd214 2.356 . S
O223 C221 1.282 . S
C224 C225 1.349 . S
C224 C226 1.327 . S
C224 H249 0.950 . S
C225 C224 1.349 . S
C225 C241 1.349 . S
C226 C224 1.327 . S
C226 C245 1.429 . S
C226 H250 0.950 . S
C227 C244 1.574 . S
C227 C246 1.368 . S
C227 H251 0.949 . S
H228 C232 0.949 . S
C229 C230 1.349 . S
C229 C231 1.327 . S
C229 H252 0.950 . S
C230 C229 1.349 . S
C230 C242 1.349 . S
C231 C229 1.327 . S
C231 C247 1.429 . S
C231 H253 0.950 . S
C232 H228 0.949 . S
C232 C240 1.574 . S
C232 C248 1.368 . S
H233 C241 0.950 . S
H234 C239 0.950 . S
H235 C240 0.949 . S
H236 C242 0.950 . S
H237 C243 0.950 . S
H238 C244 0.949 . S
C239 H234 0.950 . S
C239 C241 1.327 . S
C239 C245 1.429 . S
C240 C232 1.574 . S
C240 H235 0.949 . S
C240 C246 1.368 . S
C241 C225 1.349 . S
C241 H233 0.950 . S
C241 C239 1.327 . S
C242 C230 1.349 . S
C242 H236 0.950 . S
C242 C243 1.327 . S
C243 H237 0.950 . S
C243 C242 1.327 . S
C243 C247 1.429 . S
C244 C227 1.574 . S
C244 H238 0.949 . S
C244 C248 1.368 . S
C245 C226 1.429 . S
C245 C239 1.429 . S
C245 C246 1.523 . S
C246 C227 1.368 . S
C246 C240 1.368 . S
C246 C245 1.523 . S
C247 C231 1.429 . S
C247 C243 1.429 . S
C247 C248 1.523 . S
C248 C232 1.368 . S
C248 C244 1.368 . S
C248 C247 1.523 . S
H249 C224 0.950 . S
H250 C226 0.950 . S
H251 C227 0.949 . S
H252 C229 0.950 . S
H253 C231 0.950 . S
C254 C255 1.349 . S
C254 C256 1.327 . S
C254 H279 0.950 . S
C255 C254 1.349 . S
C255 C271 1.349 . S
C256 C254 1.327 . S
C256 C275 1.429 . S
C256 H280 0.950 . S
C257 C274 1.574 . S
C257 C276 1.368 . S
C257 H281 0.949 . S
H258 C262 0.949 . S
C259 C260 1.349 . S
C259 C261 1.327 . S
C259 H282 0.950 . S
C260 C259 1.349 . S
C260 C272 1.349 . S
C261 C259 1.327 . S
C261 C277 1.429 . S
C261 H283 0.950 . S
C262 H258 0.949 . S
C262 C270 1.574 . S
C262 C278 1.368 . S
H263 C271 0.950 . S
H264 C269 0.950 . S
H265 C270 0.949 . S
H266 C272 0.950 . S
H267 C273 0.950 . S
H268 C274 0.949 . S
C269 H264 0.950 . S
C269 C271 1.327 . S
C269 C275 1.429 . S
C270 C262 1.574 . S
C270 H265 0.949 . S
C270 C276 1.368 . S
C271 C255 1.349 . S
C271 H263 0.950 . S
C271 C269 1.327 . S
C272 C260 1.349 . S
C272 H266 0.950 . S
C272 C273 1.327 . S
C273 H267 0.950 . S
C273 C272 1.327 . S
C273 C277 1.429 . S
C274 C257 1.574 . S
C274 H268 0.949 . S
C274 C278 1.368 . S
C275 C256 1.429 . S
C275 C269 1.429 . S
C275 C276 1.523 . S
C276 C257 1.368 . S
C276 C270 1.368 . S
C276 C275 1.523 . S
C277 C261 1.429 . S
C277 C273 1.429 . S
C277 C278 1.523 . S
C278 C262 1.368 . S
C278 C274 1.368 . S
C278 C277 1.523 . S
H279 C254 0.950 . S
H280 C256 0.950 . S
H281 C257 0.949 . S
H282 C259 0.950 . S
H283 C261 0.950 . S
C284 C285 1.349 . S
C284 C286 1.327 . S
C284 H309 0.950 . S
C285 C284 1.349 . S
C285 C301 1.349 . S
C286 C284 1.327 . S
C286 C305 1.429 . S
C286 H310 0.950 . S
C287 C304 1.574 . S
C287 C306 1.368 . S
C287 H311 0.949 . S
H288 C292 0.949 . S
C289 C290 1.349 . S
C289 C291 1.327 . S
C289 H312 0.950 . S
C290 C289 1.349 . S
C290 C302 1.349 . S
C291 C289 1.327 . S
C291 C307 1.429 . S
C291 H313 0.950 . S
C292 H288 0.949 . S
C292 C300 1.574 . S
C292 C308 1.368 . S
H293 C301 0.950 . S
H294 C299 0.950 . S
H295 C300 0.949 . S
H296 C302 0.950 . S
H297 C303 0.950 . S
H298 C304 0.949 . S
C299 H294 0.950 . S
C299 C301 1.327 . S
C299 C305 1.429 . S
C300 C292 1.574 . S
C300 H295 0.949 . S
C300 C306 1.368 . S
C301 C285 1.349 . S
C301 H293 0.950 . S
C301 C299 1.327 . S
C302 C290 1.349 . S
C302 H296 0.950 . S
C302 C303 1.327 . S
C303 H297 0.950 . S
C303 C302 1.327 . S
C303 C307 1.429 . S
C304 C287 1.574 . S
C304 H298 0.949 . S
C304 C308 1.368 . S
C305 C286 1.429 . S
C305 C299 1.429 . S
C305 C306 1.523 . S
C306 C287 1.368 . S
C306 C300 1.368 . S
C306 C305 1.523 . S
C307 C291 1.429 . S
C307 C303 1.429 . S
C307 C308 1.523 . S
C308 C292 1.368 . S
C308 C304 1.368 . S
C308 C307 1.523 . S
H309 C284 0.950 . S
H310 C286 0.950 . S
H311 C287 0.949 . S
H312 C289 0.950 . S
H313 C291 0.950 . S
C314 C315 1.349 . S
C314 C316 1.327 . S
C314 H339 0.950 . S
C315 C314 1.349 . S
C315 C331 1.349 . S
C316 C314 1.327 . S
C316 C335 1.429 . S
C316 H340 0.950 . S
C317 C334 1.574 . S
C317 C336 1.368 . S
C317 H341 0.949 . S
H318 C322 0.949 . S
C319 C320 1.349 . S
C319 C321 1.327 . S
C319 H342 0.950 . S
C320 C319 1.349 . S
C320 C332 1.349 . S
C321 C319 1.327 . S
C321 C337 1.429 . S
C321 H343 0.950 . S
C322 H318 0.949 . S
C322 C330 1.574 . S
C322 C338 1.368 . S
H323 C331 0.950 . S
H324 C329 0.950 . S
H325 C330 0.949 . S
H326 C332 0.950 . S
H327 C333 0.950 . S
H328 C334 0.949 . S
C329 H324 0.950 . S
C329 C331 1.327 . S
C329 C335 1.429 . S
C330 C322 1.574 . S
C330 H325 0.949 . S
C330 C336 1.368 . S
C331 C315 1.349 . S
C331 H323 0.950 . S
C331 C329 1.327 . S
C332 C320 1.349 . S
C332 H326 0.950 . S
C332 C333 1.327 . S
C333 H327 0.950 . S
C333 C332 1.327 . S
C333 C337 1.429 . S
C334 C317 1.574 . S
C334 H328 0.949 . S
C334 C338 1.368 . S
C335 C316 1.429 . S
C335 C329 1.429 . S
C335 C336 1.523 . S
C336 C317 1.368 . S
C336 C330 1.368 . S
C336 C335 1.523 . S
C337 C321 1.429 . S
C337 C333 1.429 . S
C337 C338 1.523 . S
C338 C322 1.368 . S
C338 C334 1.368 . S
C338 C337 1.523 . S
H339 C314 0.950 . S
H340 C316 0.950 . S
H341 C317 0.949 . S
H342 C319 0.950 . S
H343 C321 0.950 . S
C344 C345 1.349 . S
C344 C346 1.327 . S
C344 H369 0.950 . S
C345 C344 1.349 . S
C345 C361 1.349 . S
C346 C344 1.327 . S
C346 C365 1.429 . S
C346 H370 0.950 . S
C347 C364 1.574 . S
C347 C366 1.368 . S
C347 H371 0.949 . S
H348 C352 0.949 . S
C349 C350 1.349 . S
C349 C351 1.327 . S
C349 H372 0.950 . S
C350 C349 1.349 . S
C350 C362 1.349 . S
C351 C349 1.327 . S
C351 C367 1.429 . S
C351 H373 0.950 . S
C352 H348 0.949 . S
C352 C360 1.574 . S
C352 C368 1.368 . S
H353 C361 0.950 . S
H354 C359 0.950 . S
H355 C360 0.949 . S
H356 C362 0.950 . S
H357 C363 0.950 . S
H358 C364 0.949 . S
C359 H354 0.950 . S
C359 C361 1.327 . S
C359 C365 1.429 . S
C360 C352 1.574 . S
C360 H355 0.949 . S
C360 C366 1.368 . S
C361 C345 1.349 . S
C361 H353 0.950 . S
C361 C359 1.327 . S
C362 C350 1.349 . S
C362 H356 0.950 . S
C362 C363 1.327 . S
C363 H357 0.950 . S
C363 C362 1.327 . S
C363 C367 1.429 . S
C364 C347 1.574 . S
C364 H358 0.949 . S
C364 C368 1.368 . S
C365 C346 1.429 . S
C365 C359 1.429 . S
C365 C366 1.523 . S
C366 C347 1.368 . S
C366 C360 1.368 . S
C366 C365 1.523 . S
C367 C351 1.429 . S
C367 C363 1.429 . S
C367 C368 1.523 . S
C368 C352 1.368 . S
C368 C364 1.368 . S
C368 C367 1.523 . S
H369 C344 0.950 . S
H370 C346 0.950 . S
H371 C347 0.949 . S
H372 C349 0.950 . S
H373 C351 0.950 . S
C374 C375 1.349 . S
C374 C376 1.327 . S
C374 H399 0.950 . S
C375 C374 1.349 . S
C375 C391 1.349 . S
C376 C374 1.327 . S
C376 C395 1.429 . S
C376 H400 0.950 . S
C377 C394 1.574 . S
C377 C396 1.368 . S
C377 H401 0.949 . S
H378 C382 0.949 . S
C379 C380 1.349 . S
C379 C381 1.327 . S
C379 H402 0.950 . S
C380 C379 1.349 . S
C380 C392 1.349 . S
C381 C379 1.327 . S
C381 C397 1.429 . S
C381 H403 0.950 . S
C382 H378 0.949 . S
C382 C390 1.574 . S
C382 C398 1.368 . S
H383 C391 0.950 . S
H384 C389 0.950 . S
H385 C390 0.949 . S
H386 C392 0.950 . S
H387 C393 0.950 . S
H388 C394 0.949 . S
C389 H384 0.950 . S
C389 C391 1.327 . S
C389 C395 1.429 . S
C390 C382 1.574 . S
C390 H385 0.949 . S
C390 C396 1.368 . S
C391 C375 1.349 . S
C391 H383 0.950 . S
C391 C389 1.327 . S
C392 C380 1.349 . S
C392 H386 0.950 . S
C392 C393 1.327 . S
C393 H387 0.950 . S
C393 C392 1.327 . S
C393 C397 1.429 . S
C394 C377 1.574 . S
C394 H388 0.949 . S
C394 C398 1.368 . S
C395 C376 1.429 . S
C395 C389 1.429 . S
C395 C396 1.523 . S
C396 C377 1.368 . S
C396 C390 1.368 . S
C396 C395 1.523 . S
C397 C381 1.429 . S
C397 C393 1.429 . S
C397 C398 1.523 . S
C398 C382 1.368 . S
C398 C394 1.368 . S
C398 C397 1.523 . S
H399 C374 0.950 . S
H400 C376 0.950 . S
H401 C377 0.949 . S
H402 C379 0.950 . S
H403 C381 0.950 . S
C404 C405 1.349 . S
C404 C406 1.327 . S
C404 H429 0.950 . S
C405 C404 1.349 . S
C405 C421 1.349 . S
C406 C404 1.327 . S
C406 C425 1.429 . S
C406 H430 0.950 . S
C407 C424 1.574 . S
C407 C426 1.368 . S
C407 H431 0.949 . S
H408 C412 0.949 . S
C409 C410 1.349 . S
C409 C411 1.327 . S
C409 H432 0.950 . S
C410 C409 1.349 . S
C410 C422 1.349 . S
C411 C409 1.327 . S
C411 C427 1.429 . S
C411 H433 0.950 . S
C412 H408 0.949 . S
C412 C420 1.574 . S
C412 C428 1.368 . S
H413 C421 0.950 . S
H414 C419 0.950 . S
H415 C420 0.949 . S
H416 C422 0.950 . S
H417 C423 0.950 . S
H418 C424 0.949 . S
C419 H414 0.950 . S
C419 C421 1.327 . S
C419 C425 1.429 . S
C420 C412 1.574 . S
C420 H415 0.949 . S
C420 C426 1.368 . S
C421 C405 1.349 . S
C421 H413 0.950 . S
C421 C419 1.327 . S
C422 C410 1.349 . S
C422 H416 0.950 . S
C422 C423 1.327 . S
C423 H417 0.950 . S
C423 C422 1.327 . S
C423 C427 1.429 . S
C424 C407 1.574 . S
C424 H418 0.949 . S
C424 C428 1.368 . S
C425 C406 1.429 . S
C425 C419 1.429 . S
C425 C426 1.523 . S
C426 C407 1.368 . S
C426 C420 1.368 . S
C426 C425 1.523 . S
C427 C411 1.429 . S
C427 C423 1.429 . S
C427 C428 1.523 . S
C428 C412 1.368 . S
C428 C424 1.368 . S
C428 C427 1.523 . S
H429 C404 0.950 . S
H430 C406 0.950 . S
H431 C407 0.949 . S
H432 C409 0.950 . S
H433 C411 0.950 . S
C434 C435 1.349 . S
C434 C436 1.327 . S
C434 H459 0.950 . S
C435 C434 1.349 . S
C435 C451 1.349 . S
C436 C434 1.327 . S
C436 C455 1.429 . S
C436 H460 0.950 . S
C437 C454 1.574 . S
C437 C456 1.368 . S
C437 H461 0.949 . S
H438 C442 0.949 . S
C439 C440 1.349 . S
C439 C441 1.327 . S
C439 H462 0.950 . S
C440 C439 1.349 . S
C440 C452 1.349 . S
C441 C439 1.327 . S
C441 C457 1.429 . S
C441 H463 0.950 . S
C442 H438 0.949 . S
C442 C450 1.574 . S
C442 C458 1.368 . S
H443 C451 0.950 . S
H444 C449 0.950 . S
H445 C450 0.949 . S
H446 C452 0.950 . S
H447 C453 0.950 . S
H448 C454 0.949 . S
C449 H444 0.950 . S
C449 C451 1.327 . S
C449 C455 1.429 . S
C450 C442 1.574 . S
C450 H445 0.949 . S
C450 C456 1.368 . S
C451 C435 1.349 . S
C451 H443 0.950 . S
C451 C449 1.327 . S
C452 C440 1.349 . S
C452 H446 0.950 . S
C452 C453 1.327 . S
C453 H447 0.950 . S
C453 C452 1.327 . S
C453 C457 1.429 . S
C454 C437 1.574 . S
C454 H448 0.949 . S
C454 C458 1.368 . S
C455 C436 1.429 . S
C455 C449 1.429 . S
C455 C456 1.523 . S
C456 C437 1.368 . S
C456 C450 1.368 . S
C456 C455 1.523 . S
C457 C441 1.429 . S
C457 C453 1.429 . S
C457 C458 1.523 . S
C458 C442 1.368 . S
C458 C454 1.368 . S
C458 C457 1.523 . S
H459 C434 0.950 . S
H460 C436 0.950 . S
H461 C437 0.949 . S
H462 C439 0.950 . S
H463 C441 0.950 . S
C464 C465 1.349 . S
C464 C466 1.327 . S
C464 H489 0.950 . S
C465 C464 1.349 . S
C465 C481 1.349 . S
C466 C464 1.327 . S
C466 C485 1.429 . S
C466 H490 0.950 . S
C467 C484 1.574 1_556 S
C467 C486 1.368 . S
C467 H491 0.949 . S
H468 C472 0.949 . S
C469 C470 1.349 . S
C469 C471 1.327 . S
C469 H492 0.950 . S
C470 C469 1.349 . S
C470 C482 1.349 . S
C471 C469 1.327 . S
C471 C487 1.429 . S
C471 H493 0.950 . S
C472 H468 0.949 . S
C472 C480 1.574 1_554 S
C472 C488 1.368 . S
H473 C481 0.950 . S
H474 C479 0.950 . S
H475 C480 0.949 . S
H476 C482 0.950 . S
H477 C483 0.950 . S
H478 C484 0.949 . S
C479 H474 0.950 . S
C479 C481 1.327 . S
C479 C485 1.429 . S
C480 C472 1.574 1_556 S
C480 H475 0.949 . S
C480 C486 1.368 . S
C481 C465 1.349 . S
C481 H473 0.950 . S
C481 C479 1.327 . S
C482 C470 1.349 . S
C482 H476 0.950 . S
C482 C483 1.327 . S
C483 H477 0.950 . S
C483 C482 1.327 . S
C483 C487 1.429 . S
C484 C467 1.574 1_554 S
C484 H478 0.949 . S
C484 C488 1.368 . S
C485 C466 1.429 . S
C485 C479 1.429 . S
C485 C486 1.523 . S
C486 C467 1.368 . S
C486 C480 1.368 . S
C486 C485 1.523 . S
C487 C471 1.429 . S
C487 C483 1.429 . S
C487 C488 1.523 . S
C488 C472 1.368 . S
C488 C484 1.368 . S
C488 C487 1.523 . S
H489 C464 0.950 . S
H490 C466 0.950 . S
H491 C467 0.949 . S
H492 C469 0.950 . S
H493 C471 0.950 . S
C494 C495 1.349 . S
C494 C496 1.327 . S
C494 H519 0.950 . S
C495 C494 1.349 . S
C495 C511 1.349 . S
C496 C494 1.327 . S
C496 C515 1.429 . S
C496 H520 0.950 . S
C497 C514 1.574 1_556 S
C497 C516 1.368 . S
C497 H521 0.949 . S
H498 C502 0.949 . S
C499 C500 1.349 . S
C499 C501 1.327 . S
C499 H522 0.950 . S
C500 C499 1.349 . S
C500 C512 1.349 . S
C501 C499 1.327 . S
C501 C517 1.429 . S
C501 H523 0.950 . S
C502 H498 0.949 . S
C502 C510 1.574 1_554 S
C502 C518 1.368 . S
H503 C511 0.950 . S
H504 C509 0.950 . S
H505 C510 0.949 . S
H506 C512 0.950 . S
H507 C513 0.950 . S
H508 C514 0.949 . S
C509 H504 0.950 . S
C509 C511 1.327 . S
C509 C515 1.429 . S
C510 C502 1.574 1_556 S
C510 H505 0.949 . S
C510 C516 1.368 . S
C511 C495 1.349 . S
C511 H503 0.950 . S
C511 C509 1.327 . S
C512 C500 1.349 . S
C512 H506 0.950 . S
C512 C513 1.327 . S
C513 H507 0.950 . S
C513 C512 1.327 . S
C513 C517 1.429 . S
C514 C497 1.574 1_554 S
C514 H508 0.949 . S
C514 C518 1.368 . S
C515 C496 1.429 . S
C515 C509 1.429 . S
C515 C516 1.523 . S
C516 C497 1.368 . S
C516 C510 1.368 . S
C516 C515 1.523 . S
C517 C501 1.429 . S
C517 C513 1.429 . S
C517 C518 1.523 . S
C518 C502 1.368 . S
C518 C514 1.368 . S
C518 C517 1.523 . S
H519 C494 0.950 . S
H520 C496 0.950 . S
H521 C497 0.949 . S
H522 C499 0.950 . S
H523 C501 0.950 . S
C524 C525 1.349 . S
C524 C526 1.327 . S
C524 H549 0.950 . S
C525 C524 1.349 . S
C525 C541 1.349 . S
C526 C524 1.327 . S
C526 C545 1.429 . S
C526 H550 0.950 . S
C527 C544 1.574 1_556 S
C527 C546 1.368 . S
C527 H551 0.949 . S
H528 C532 0.949 . S
C529 C530 1.349 . S
C529 C531 1.327 . S
C529 H552 0.950 . S
C530 C529 1.349 . S
C530 C542 1.349 . S
C531 C529 1.327 . S
C531 C547 1.429 . S
C531 H553 0.950 . S
C532 H528 0.949 . S
C532 C540 1.574 1_554 S
C532 C548 1.368 . S
H533 C541 0.950 . S
H534 C539 0.950 . S
H535 C540 0.949 . S
H536 C542 0.950 . S
H537 C543 0.950 . S
H538 C544 0.949 . S
C539 H534 0.950 . S
C539 C541 1.327 . S
C539 C545 1.429 . S
C540 C532 1.574 1_556 S
C540 H535 0.949 . S
C540 C546 1.368 . S
C541 C525 1.349 . S
C541 H533 0.950 . S
C541 C539 1.327 . S
C542 C530 1.349 . S
C542 H536 0.950 . S
C542 C543 1.327 . S
C543 H537 0.950 . S
C543 C542 1.327 . S
C543 C547 1.429 . S
C544 C527 1.574 1_554 S
C544 H538 0.949 . S
C544 C548 1.368 . S
C545 C526 1.429 . S
C545 C539 1.429 . S
C545 C546 1.523 . S
C546 C527 1.368 . S
C546 C540 1.368 . S
C546 C545 1.523 . S
C547 C531 1.429 . S
C547 C543 1.429 . S
C547 C548 1.523 . S
C548 C532 1.368 . S
C548 C544 1.368 . S
C548 C547 1.523 . S
H549 C524 0.950 . S
H550 C526 0.950 . S
H551 C527 0.949 . S
H552 C529 0.950 . S
H553 C531 0.950 . S
C554 C555 1.349 . S
C554 C556 1.327 . S
C554 H579 0.950 . S
C555 C554 1.349 . S
C555 C571 1.349 . S
C556 C554 1.327 . S
C556 C575 1.429 . S
C556 H580 0.950 . S
C557 C574 1.574 1_554 S
C557 C576 1.368 . S
C557 H581 0.949 . S
H558 C562 0.949 . S
C559 C560 1.349 . S
C559 C561 1.327 . S
C559 H582 0.950 . S
C560 C559 1.349 . S
C560 C572 1.349 . S
C561 C559 1.327 . S
C561 C577 1.429 . S
C561 H583 0.950 . S
C562 H558 0.949 . S
C562 C570 1.574 1_556 S
C562 C578 1.368 . S
H563 C571 0.950 . S
H564 C569 0.950 . S
H565 C570 0.949 . S
H566 C572 0.950 . S
H567 C573 0.950 . S
H568 C574 0.949 . S
C569 H564 0.950 . S
C569 C571 1.327 . S
C569 C575 1.429 . S
C570 C562 1.574 1_554 S
C570 H565 0.949 . S
C570 C576 1.368 . S
C571 C555 1.349 . S
C571 H563 0.950 . S
C571 C569 1.327 . S
C572 C560 1.349 . S
C572 H566 0.950 . S
C572 C573 1.327 . S
C573 H567 0.950 . S
C573 C572 1.327 . S
C573 C577 1.429 . S
C574 C557 1.574 1_556 S
C574 H568 0.949 . S
C574 C578 1.368 . S
C575 C556 1.429 . S
C575 C569 1.429 . S
C575 C576 1.523 . S
C576 C557 1.368 . S
C576 C570 1.368 . S
C576 C575 1.523 . S
C577 C561 1.429 . S
C577 C573 1.429 . S
C577 C578 1.523 . S
C578 C562 1.368 . S
C578 C574 1.368 . S
C578 C577 1.523 . S
H579 C554 0.950 . S
H580 C556 0.950 . S
H581 C557 0.949 . S
H582 C559 0.950 . S
H583 C561 0.950 . S
C584 C585 1.349 . S
C584 C586 1.327 . S
C584 H609 0.950 . S
C585 C584 1.349 . S
C585 C601 1.349 . S
C586 C584 1.327 . S
C586 C605 1.429 . S
C586 H610 0.950 . S
C587 C604 1.574 . S
C587 C606 1.368 . S
C587 H611 0.949 . S
H588 C592 0.949 . S
C589 C590 1.349 . S
C589 C591 1.327 . S
C589 H612 0.950 . S
C590 C589 1.349 . S
C590 C602 1.349 . S
C591 C589 1.327 . S
C591 C607 1.429 . S
C591 H613 0.950 . S
C592 H588 0.949 . S
C592 C600 1.574 . S
C592 C608 1.368 . S
H593 C601 0.950 . S
H594 C599 0.950 . S
H595 C600 0.949 . S
H596 C602 0.950 . S
H597 C603 0.950 . S
H598 C604 0.949 . S
C599 H594 0.950 . S
C599 C601 1.327 . S
C599 C605 1.429 . S
C600 C592 1.574 . S
C600 H595 0.949 . S
C600 C606 1.368 . S
C601 C585 1.349 . S
C601 H593 0.950 . S
C601 C599 1.327 . S
C602 C590 1.349 . S
C602 H596 0.950 . S
C602 C603 1.327 . S
C603 H597 0.950 . S
C603 C602 1.327 . S
C603 C607 1.429 . S
C604 C587 1.574 . S
C604 H598 0.949 . S
C604 C608 1.368 . S
C605 C586 1.429 . S
C605 C599 1.429 . S
C605 C606 1.523 . S
C606 C587 1.368 . S
C606 C600 1.368 . S
C606 C605 1.523 . S
C607 C591 1.429 . S
C607 C603 1.429 . S
C607 C608 1.523 . S
C608 C592 1.368 . S
C608 C604 1.368 . S
C608 C607 1.523 . S
H609 C584 0.950 . S
H610 C586 0.950 . S
H611 C587 0.949 . S
H612 C589 0.950 . S
H613 C591 0.950 . S
C614 C615 1.349 . S
C614 C616 1.327 . S
C614 H639 0.950 . S
C615 C614 1.349 . S
C615 C631 1.349 . S
C616 C614 1.327 . S
C616 C635 1.429 . S
C616 H640 0.950 . S
C617 C634 1.574 . S
C617 C636 1.368 . S
C617 H641 0.949 . S
H618 C622 0.949 . S
C619 C620 1.349 . S
C619 C621 1.327 . S
C619 H642 0.950 . S
C620 C619 1.349 . S
C620 C632 1.349 . S
C621 C619 1.327 . S
C621 C637 1.429 . S
C621 H643 0.950 . S
C622 H618 0.949 . S
C622 C630 1.574 . S
C622 C638 1.368 . S
H623 C631 0.950 . S
H624 C629 0.950 . S
H625 C630 0.949 . S
H626 C632 0.950 . S
H627 C633 0.950 . S
H628 C634 0.949 . S
C629 H624 0.950 . S
C629 C631 1.327 . S
C629 C635 1.429 . S
C630 C622 1.574 . S
C630 H625 0.949 . S
C630 C636 1.368 . S
C631 C615 1.349 . S
C631 H623 0.950 . S
C631 C629 1.327 . S
C632 C620 1.349 . S
C632 H626 0.950 . S
C632 C633 1.327 . S
C633 H627 0.950 . S
C633 C632 1.327 . S
C633 C637 1.429 . S
C634 C617 1.574 . S
C634 H628 0.949 . S
C634 C638 1.368 . S
C635 C616 1.429 . S
C635 C629 1.429 . S
C635 C636 1.523 . S
C636 C617 1.368 . S
C636 C630 1.368 . S
C636 C635 1.523 . S
C637 C621 1.429 . S
C637 C633 1.429 . S
C637 C638 1.523 . S
C638 C622 1.368 . S
C638 C634 1.368 . S
C638 C637 1.523 . S
H639 C614 0.950 . S
H640 C616 0.950 . S
H641 C617 0.949 . S
H642 C619 0.950 . S
H643 C621 0.950 . S
C644 C645 1.349 . S
C644 C646 1.327 . S
C644 H669 0.950 . S
C645 C644 1.349 . S
C645 C661 1.349 . S
C646 C644 1.327 . S
C646 C665 1.429 . S
C646 H670 0.950 . S
C647 C664 1.574 . S
C647 C666 1.368 . S
C647 H671 0.949 . S
H648 C652 0.949 . S
C649 C650 1.349 . S
C649 C651 1.327 . S
C649 H672 0.950 . S
C650 C649 1.349 . S
C650 C662 1.349 . S
C651 C649 1.327 . S
C651 C667 1.429 . S
C651 H673 0.950 . S
C652 H648 0.949 . S
C652 C660 1.574 . S
C652 C668 1.368 . S
H653 C661 0.950 . S
H654 C659 0.950 . S
H655 C660 0.949 . S
H656 C662 0.950 . S
H657 C663 0.950 . S
H658 C664 0.949 . S
C659 H654 0.950 . S
C659 C661 1.327 . S
C659 C665 1.429 . S
C660 C652 1.574 . S
C660 H655 0.949 . S
C660 C666 1.368 . S
C661 C645 1.349 . S
C661 H653 0.950 . S
C661 C659 1.327 . S
C662 C650 1.349 . S
C662 H656 0.950 . S
C662 C663 1.327 . S
C663 H657 0.950 . S
C663 C662 1.327 . S
C663 C667 1.429 . S
C664 C647 1.574 . S
C664 H658 0.949 . S
C664 C668 1.368 . S
C665 C646 1.429 . S
C665 C659 1.429 . S
C665 C666 1.523 . S
C666 C647 1.368 . S
C666 C660 1.368 . S
C666 C665 1.523 . S
C667 C651 1.429 . S
C667 C663 1.429 . S
C667 C668 1.523 . S
C668 C652 1.368 . S
C668 C664 1.368 . S
C668 C667 1.523 . S
H669 C644 0.950 . S
H670 C646 0.950 . S
H671 C647 0.949 . S
H672 C649 0.950 . S
H673 C651 0.950 . S
C674 C675 1.349 . S
C674 C676 1.327 . S
C674 H699 0.950 . S
C675 C674 1.349 . S
C675 C691 1.349 . S
C676 C674 1.327 . S
C676 C695 1.429 . S
C676 H700 0.950 . S
C677 C694 1.574 . S
C677 C696 1.368 . S
C677 H701 0.949 . S
H678 C682 0.949 . S
C679 C680 1.349 . S
C679 C681 1.327 . S
C679 H702 0.950 . S
C680 C679 1.349 . S
C680 C692 1.349 . S
C681 C679 1.327 . S
C681 C697 1.429 . S
C681 H703 0.950 . S
C682 H678 0.949 . S
C682 C690 1.574 . S
C682 C698 1.368 . S
H683 C691 0.950 . S
H684 C689 0.950 . S
H685 C690 0.949 . S
H686 C692 0.950 . S
H687 C693 0.950 . S
H688 C694 0.949 . S
C689 H684 0.950 . S
C689 C691 1.327 . S
C689 C695 1.429 . S
C690 C682 1.574 . S
C690 H685 0.949 . S
C690 C696 1.368 . S
C691 C675 1.349 . S
C691 H683 0.950 . S
C691 C689 1.327 . S
C692 C680 1.349 . S
C692 H686 0.950 . S
C692 C693 1.327 . S
C693 H687 0.950 . S
C693 C692 1.327 . S
C693 C697 1.429 . S
C694 C677 1.574 . S
C694 H688 0.949 . S
C694 C698 1.368 . S
C695 C676 1.429 . S
C695 C689 1.429 . S
C695 C696 1.523 . S
C696 C677 1.368 . S
C696 C690 1.368 . S
C696 C695 1.523 . S
C697 C681 1.429 . S
C697 C693 1.429 . S
C697 C698 1.523 . S
C698 C682 1.368 . S
C698 C694 1.368 . S
C698 C697 1.523 . S
H699 C674 0.950 . S
H700 C676 0.950 . S
H701 C677 0.949 . S
H702 C679 0.950 . S
H703 C681 0.950 . S
C704 C705 1.349 . S
C704 C706 1.327 . S
C704 H729 0.950 . S
C705 C704 1.349 . S
C705 C721 1.349 . S
C706 C704 1.327 . S
C706 C725 1.429 . S
C706 H730 0.950 . S
C707 C724 1.574 . S
C707 C726 1.368 . S
C707 H731 0.949 . S
H708 C712 0.949 . S
C709 C710 1.349 . S
C709 C711 1.327 . S
C709 H732 0.950 . S
C710 C709 1.349 . S
C710 C722 1.349 . S
C711 C709 1.327 . S
C711 C727 1.429 . S
C711 H733 0.950 . S
C712 H708 0.949 . S
C712 C720 1.574 . S
C712 C728 1.368 . S
H713 C721 0.950 . S
H714 C719 0.950 . S
H715 C720 0.949 . S
H716 C722 0.950 . S
H717 C723 0.950 . S
H718 C724 0.949 . S
C719 H714 0.950 . S
C719 C721 1.327 . S
C719 C725 1.429 . S
C720 C712 1.574 . S
C720 H715 0.949 . S
C720 C726 1.368 . S
C721 C705 1.349 . S
C721 H713 0.950 . S
C721 C719 1.327 . S
C722 C710 1.349 . S
C722 H716 0.950 . S
C722 C723 1.327 . S
C723 H717 0.950 . S
C723 C722 1.327 . S
C723 C727 1.429 . S
C724 C707 1.574 . S
C724 H718 0.949 . S
C724 C728 1.368 . S
C725 C706 1.429 . S
C725 C719 1.429 . S
C725 C726 1.523 . S
C726 C707 1.368 . S
C726 C720 1.368 . S
C726 C725 1.523 . S
C727 C711 1.429 . S
C727 C723 1.429 . S
C727 C728 1.523 . S
C728 C712 1.368 . S
C728 C724 1.368 . S
C728 C727 1.523 . S
H729 C704 0.950 . S
H730 C706 0.950 . S
H731 C707 0.949 . S
H732 C709 0.950 . S
H733 C711 0.950 . S
C734 C735 1.349 . S
C734 C736 1.327 . S
C734 H759 0.950 . S
C735 C734 1.349 . S
C735 C751 1.349 . S
C736 C734 1.327 . S
C736 C755 1.429 . S
C736 H760 0.950 . S
C737 C754 1.574 . S
C737 C756 1.368 . S
C737 H761 0.949 . S
H738 C742 0.949 . S
C739 C740 1.349 . S
C739 C741 1.327 . S
C739 H762 0.950 . S
C740 C739 1.349 . S
C740 C752 1.349 . S
C741 C739 1.327 . S
C741 C757 1.429 . S
C741 H763 0.950 . S
C742 H738 0.949 . S
C742 C750 1.574 . S
C742 C758 1.368 . S
H743 C751 0.950 . S
H744 C749 0.950 . S
H745 C750 0.949 . S
H746 C752 0.950 . S
H747 C753 0.950 . S
H748 C754 0.949 . S
C749 H744 0.950 . S
C749 C751 1.327 . S
C749 C755 1.429 . S
C750 C742 1.574 . S
C750 H745 0.949 . S
C750 C756 1.368 . S
C751 C735 1.349 . S
C751 H743 0.950 . S
C751 C749 1.327 . S
C752 C740 1.349 . S
C752 H746 0.950 . S
C752 C753 1.327 . S
C753 H747 0.950 . S
C753 C752 1.327 . S
C753 C757 1.429 . S
C754 C737 1.574 . S
C754 H748 0.949 . S
C754 C758 1.368 . S
C755 C736 1.429 . S
C755 C749 1.429 . S
C755 C756 1.523 . S
C756 C737 1.368 . S
C756 C750 1.368 . S
C756 C755 1.523 . S
C757 C741 1.429 . S
C757 C753 1.429 . S
C757 C758 1.523 . S
C758 C742 1.368 . S
C758 C754 1.368 . S
C758 C757 1.523 . S
H759 C734 0.950 . S
H760 C736 0.950 . S
H761 C737 0.949 . S
H762 C739 0.950 . S
H763 C741 0.950 . S
C764 C765 1.349 . S
C764 C766 1.327 . S
C764 H789 0.950 . S
C765 C764 1.349 . S
C765 C781 1.349 . S
C766 C764 1.327 . S
C766 C785 1.429 . S
C766 H790 0.950 . S
C767 C784 1.574 . S
C767 C786 1.368 . S
C767 H791 0.949 . S
H768 C772 0.949 . S
C769 C770 1.349 . S
C769 C771 1.327 . S
C769 H792 0.950 . S
C770 C769 1.349 . S
C770 C782 1.349 . S
C771 C769 1.327 . S
C771 C787 1.429 . S
C771 H793 0.950 . S
C772 H768 0.949 . S
C772 C780 1.574 . S
C772 C788 1.368 . S
H773 C781 0.950 . S
H774 C779 0.950 . S
H775 C780 0.949 . S
H776 C782 0.950 . S
H777 C783 0.950 . S
H778 C784 0.949 . S
C779 H774 0.950 . S
C779 C781 1.327 . S
C779 C785 1.429 . S
C780 C772 1.574 . S
C780 H775 0.949 . S
C780 C786 1.368 . S
C781 C765 1.349 . S
C781 H773 0.950 . S
C781 C779 1.327 . S
C782 C770 1.349 . S
C782 H776 0.950 . S
C782 C783 1.327 . S
C783 H777 0.950 . S
C783 C782 1.327 . S
C783 C787 1.429 . S
C784 C767 1.574 . S
C784 H778 0.949 . S
C784 C788 1.368 . S
C785 C766 1.429 . S
C785 C779 1.429 . S
C785 C786 1.523 . S
C786 C767 1.368 . S
C786 C780 1.368 . S
C786 C785 1.523 . S
C787 C771 1.429 . S
C787 C783 1.429 . S
C787 C788 1.523 . S
C788 C772 1.368 . S
C788 C784 1.368 . S
C788 C787 1.523 . S
H789 C764 0.950 . S
H790 C766 0.950 . S
H791 C767 0.949 . S
H792 C769 0.950 . S
H793 C771 0.950 . S
C794 C795 1.349 . S
C794 C796 1.327 . S
C794 H819 0.950 . S
C795 C794 1.349 . S
C795 C811 1.349 . S
C796 C794 1.327 . S
C796 C815 1.429 . S
C796 H820 0.950 . S
C797 C814 1.574 . S
C797 C816 1.368 . S
C797 H821 0.949 . S
H798 C802 0.949 . S
C799 C800 1.349 . S
C799 C801 1.327 . S
C799 H822 0.950 . S
C800 C799 1.349 . S
C800 C812 1.349 . S
C801 C799 1.327 . S
C801 C817 1.429 . S
C801 H823 0.950 . S
C802 H798 0.949 . S
C802 C810 1.574 . S
C802 C818 1.368 . S
H803 C811 0.950 . S
H804 C809 0.950 . S
H805 C810 0.949 . S
H806 C812 0.950 . S
H807 C813 0.950 . S
H808 C814 0.949 . S
C809 H804 0.950 . S
C809 C811 1.327 . S
C809 C815 1.429 . S
C810 C802 1.574 . S
C810 H805 0.949 . S
C810 C816 1.368 . S
C811 C795 1.349 . S
C811 H803 0.950 . S
C811 C809 1.327 . S
C812 C800 1.349 . S
C812 H806 0.950 . S
C812 C813 1.327 . S
C813 H807 0.950 . S
C813 C812 1.327 . S
C813 C817 1.429 . S
C814 C797 1.574 . S
C814 H808 0.949 . S
C814 C818 1.368 . S
C815 C796 1.429 . S
C815 C809 1.429 . S
C815 C816 1.523 . S
C816 C797 1.368 . S
C816 C810 1.368 . S
C816 C815 1.523 . S
C817 C801 1.429 . S
C817 C813 1.429 . S
C817 C818 1.523 . S
C818 C802 1.368 . S
C818 C814 1.368 . S
C818 C817 1.523 . S
H819 C794 0.950 . S
H820 C796 0.950 . S
H821 C797 0.949 . S
H822 C799 0.950 . S
H823 C801 0.950 . S
C824 C825 1.349 . S
C824 C826 1.327 . S
C824 H849 0.950 . S
C825 C824 1.349 . S
C825 C841 1.349 . S
C826 C824 1.327 . S
C826 C845 1.429 . S
C826 H850 0.950 . S
C827 C844 1.574 . S
C827 C846 1.368 . S
C827 H851 0.949 . S
H828 C832 0.949 . S
C829 C830 1.349 . S
C829 C831 1.327 . S
C829 H852 0.950 . S
C830 C829 1.349 . S
C830 C842 1.349 . S
C831 C829 1.327 . S
C831 C847 1.429 . S
C831 H853 0.950 . S
C832 H828 0.949 . S
C832 C840 1.574 . S
C832 C848 1.368 . S
H833 C841 0.950 . S
H834 C839 0.950 . S
H835 C840 0.949 . S
H836 C842 0.950 . S
H837 C843 0.950 . S
H838 C844 0.949 . S
C839 H834 0.950 . S
C839 C841 1.327 . S
C839 C845 1.429 . S
C840 C832 1.574 . S
C840 H835 0.949 . S
C840 C846 1.368 . S
C841 C825 1.349 . S
C841 H833 0.950 . S
C841 C839 1.327 . S
C842 C830 1.349 . S
C842 H836 0.950 . S
C842 C843 1.327 . S
C843 H837 0.950 . S
C843 C842 1.327 . S
C843 C847 1.429 . S
C844 C827 1.574 . S
C844 H838 0.949 . S
C844 C848 1.368 . S
C845 C826 1.429 . S
C845 C839 1.429 . S
C845 C846 1.523 . S
C846 C827 1.368 . S
C846 C840 1.368 . S
C846 C845 1.523 . S
C847 C831 1.429 . S
C847 C843 1.429 . S
C847 C848 1.523 . S
C848 C832 1.368 . S
C848 C844 1.368 . S
C848 C847 1.523 . S
H849 C824 0.950 . S
H850 C826 0.950 . S
H851 C827 0.949 . S
H852 C829 0.950 . S
H853 C831 0.950 . S
C854 C855 1.349 . S
C854 C856 1.327 . S
C854 H879 0.950 . S
C855 C854 1.349 . S
C855 C871 1.349 . S
C856 C854 1.327 . S
C856 C875 1.429 . S
C856 H880 0.950 . S
C857 C874 1.574 . S
C857 C876 1.368 . S
C857 H881 0.949 . S
H858 C862 0.949 . S
C859 C860 1.349 . S
C859 C861 1.327 . S
C859 H882 0.950 . S
C860 C859 1.349 . S
C860 C872 1.349 . S
C861 C859 1.327 . S
C861 C877 1.429 . S
C861 H883 0.950 . S
C862 H858 0.949 . S
C862 C870 1.574 . S
C862 C878 1.368 . S
H863 C871 0.950 . S
H864 C869 0.950 . S
H865 C870 0.949 . S
H866 C872 0.950 . S
H867 C873 0.950 . S
H868 C874 0.949 . S
C869 H864 0.950 . S
C869 C871 1.327 . S
C869 C875 1.429 . S
C870 C862 1.574 . S
C870 H865 0.949 . S
C870 C876 1.368 . S
C871 C855 1.349 . S
C871 H863 0.950 . S
C871 C869 1.327 . S
C872 C860 1.349 . S
C872 H866 0.950 . S
C872 C873 1.327 . S
C873 H867 0.950 . S
C873 C872 1.327 . S
C873 C877 1.429 . S
C874 C857 1.574 . S
C874 H868 0.949 . S
C874 C878 1.368 . S
C875 C856 1.429 . S
C875 C869 1.429 . S
C875 C876 1.523 . S
C876 C857 1.368 . S
C876 C870 1.368 . S
C876 C875 1.523 . S
C877 C861 1.429 . S
C877 C873 1.429 . S
C877 C878 1.523 . S
C878 C862 1.368 . S
C878 C874 1.368 . S
C878 C877 1.523 . S
H879 C854 0.950 . S
H880 C856 0.950 . S
H881 C857 0.949 . S
H882 C859 0.950 . S
H883 C861 0.950 . S
C884 C885 1.349 . S
C884 C886 1.327 . S
C884 H909 0.950 . S
C885 C884 1.349 . S
C885 C901 1.349 . S
C886 C884 1.327 . S
C886 C905 1.429 . S
C886 H910 0.950 . S
C887 C904 1.574 . S
C887 C906 1.368 . S
C887 H911 0.949 . S
H888 C892 0.949 . S
C889 C890 1.349 . S
C889 C891 1.327 . S
C889 H912 0.950 . S
C890 C889 1.349 . S
C890 C902 1.349 . S
C891 C889 1.327 . S
C891 C907 1.429 . S
C891 H913 0.950 . S
C892 H888 0.949 . S
C892 C900 1.574 . S
C892 C908 1.368 . S
H893 C901 0.950 . S
H894 C899 0.950 . S
H895 C900 0.949 . S
H896 C902 0.950 . S
H897 C903 0.950 . S
H898 C904 0.949 . S
C899 H894 0.950 . S
C899 C901 1.327 . S
C899 C905 1.429 . S
C900 C892 1.574 . S
C900 H895 0.949 . S
C900 C906 1.368 . S
C901 C885 1.349 . S
C901 H893 0.950 . S
C901 C899 1.327 . S
C902 C890 1.349 . S
C902 H896 0.950 . S
C902 C903 1.327 . S
C903 H897 0.950 . S
C903 C902 1.327 . S
C903 C907 1.429 . S
C904 C887 1.574 . S
C904 H898 0.949 . S
C904 C908 1.368 . S
C905 C886 1.429 . S
C905 C899 1.429 . S
C905 C906 1.523 . S
C906 C887 1.368 . S
C906 C900 1.368 . S
C906 C905 1.523 . S
C907 C891 1.429 . S
C907 C903 1.429 . S
C907 C908 1.523 . S
C908 C892 1.368 . S
C908 C904 1.368 . S
C908 C907 1.523 . S
H909 C884 0.950 . S
H910 C886 0.950 . S
H911 C887 0.949 . S
H912 C889 0.950 . S
H913 C891 0.950 . S
C914 C915 1.349 . S
C914 C916 1.327 . S
C914 H939 0.950 . S
C915 C914 1.349 . S
C915 C931 1.349 . S
C916 C914 1.327 . S
C916 C935 1.429 . S
C916 H940 0.950 . S
C917 C934 1.574 . S
C917 C936 1.368 . S
C917 H941 0.949 . S
H918 C922 0.949 . S
C919 C920 1.349 . S
C919 C921 1.327 . S
C919 H942 0.950 . S
C920 C919 1.349 . S
C920 C932 1.349 . S
C921 C919 1.327 . S
C921 C937 1.429 . S
C921 H943 0.950 . S
C922 H918 0.949 . S
C922 C930 1.574 . S
C922 C938 1.368 . S
H923 C931 0.950 . S
H924 C929 0.950 . S
H925 C930 0.949 . S
H926 C932 0.950 . S
H927 C933 0.950 . S
H928 C934 0.949 . S
C929 H924 0.950 . S
C929 C931 1.327 . S
C929 C935 1.429 . S
C930 C922 1.574 . S
C930 H925 0.949 . S
C930 C936 1.368 . S
C931 C915 1.349 . S
C931 H923 0.950 . S
C931 C929 1.327 . S
C932 C920 1.349 . S
C932 H926 0.950 . S
C932 C933 1.327 . S
C933 H927 0.950 . S
C933 C932 1.327 . S
C933 C937 1.429 . S
C934 C917 1.574 . S
C934 H928 0.949 . S
C934 C938 1.368 . S
C935 C916 1.429 . S
C935 C929 1.429 . S
C935 C936 1.523 . S
C936 C917 1.368 . S
C936 C930 1.368 . S
C936 C935 1.523 . S
C937 C921 1.429 . S
C937 C933 1.429 . S
C937 C938 1.523 . S
C938 C922 1.368 . S
C938 C934 1.368 . S
C938 C937 1.523 . S
H939 C914 0.950 . S
H940 C916 0.950 . S
H941 C917 0.949 . S
H942 C919 0.950 . S
H943 C921 0.950 . S
C944 C945 1.349 . S
C944 C946 1.327 . S
C944 H969 0.950 . S
C945 C944 1.349 . S
C945 C961 1.349 . S
C946 C944 1.327 . S
C946 C965 1.429 . S
C946 H970 0.950 . S
C947 C964 1.574 1_545 S
C947 C966 1.368 . S
C947 H971 0.949 . S
H948 C952 0.949 . S
C949 C950 1.349 . S
C949 C951 1.327 . S
C949 H972 0.950 . S
C950 C949 1.349 . S
C950 C962 1.349 . S
C951 C949 1.327 . S
C951 C967 1.429 . S
C951 H973 0.950 . S
C952 H948 0.949 . S
C952 C960 1.574 1_565 S
C952 C968 1.368 . S
H953 C961 0.950 . S
H954 C959 0.950 . S
H955 C960 0.949 . S
H956 C962 0.950 . S
H957 C963 0.950 . S
H958 C964 0.949 . S
C959 H954 0.950 . S
C959 C961 1.327 . S
C959 C965 1.429 . S
C960 C952 1.574 1_545 S
C960 H955 0.949 . S
C960 C966 1.368 . S
C961 C945 1.349 . S
C961 H953 0.950 . S
C961 C959 1.327 . S
C962 C950 1.349 . S
C962 H956 0.950 . S
C962 C963 1.327 . S
C963 H957 0.950 . S
C963 C962 1.327 . S
C963 C967 1.429 . S
C964 C947 1.574 1_565 S
C964 H958 0.949 . S
C964 C968 1.368 . S
C965 C946 1.429 . S
C965 C959 1.429 . S
C965 C966 1.523 . S
C966 C947 1.368 . S
C966 C960 1.368 . S
C966 C965 1.523 . S
C967 C951 1.429 . S
C967 C963 1.429 . S
C967 C968 1.523 . S
C968 C952 1.368 . S
C968 C964 1.368 . S
C968 C967 1.523 . S
H969 C944 0.950 . S
H970 C946 0.950 . S
H971 C947 0.949 . S
H972 C949 0.950 . S
H973 C951 0.950 . S
C974 C975 1.349 . S
C974 C976 1.327 . S
C974 H999 0.950 . S
C975 C974 1.349 . S
C975 C991 1.349 . S
C976 C974 1.327 . S
C976 C995 1.429 . S
C976 H1000 0.950 . S
C977 C994 1.574 1_655 S
C977 C996 1.368 . S
C977 H1001 0.949 . S
H978 C982 0.949 . S
C979 C980 1.349 . S
C979 C981 1.327 . S
C979 H1002 0.950 . S
C980 C979 1.349 . S
C980 C992 1.349 . S
C981 C979 1.327 . S
C981 C997 1.429 . S
C981 H1003 0.950 . S
C982 H978 0.949 . S
C982 C990 1.574 1_455 S
C982 C998 1.368 . S
H983 C991 0.950 . S
H984 C989 0.950 . S
H985 C990 0.949 . S
H986 C992 0.950 . S
H987 C993 0.950 . S
H988 C994 0.949 . S
C989 H984 0.950 . S
C989 C991 1.327 . S
C989 C995 1.429 . S
C990 C982 1.574 1_655 S
C990 H985 0.949 . S
C990 C996 1.368 . S
C991 C975 1.349 . S
C991 H983 0.950 . S
C991 C989 1.327 . S
C992 C980 1.349 . S
C992 H986 0.950 . S
C992 C993 1.327 . S
C993 H987 0.950 . S
C993 C992 1.327 . S
C993 C997 1.429 . S
C994 C977 1.574 1_455 S
C994 H988 0.949 . S
C994 C998 1.368 . S
C995 C976 1.429 . S
C995 C989 1.429 . S
C995 C996 1.523 . S
C996 C977 1.368 . S
C996 C990 1.368 . S
C996 C995 1.523 . S
C997 C981 1.429 . S
C997 C993 1.429 . S
C997 C998 1.523 . S
C998 C982 1.368 . S
C998 C994 1.368 . S
C998 C997 1.523 . S
H999 C974 0.950 . S
H1000 C976 0.950 . S
H1001 C977 0.949 . S
H1002 C979 0.950 . S
H1003 C981 0.950 . S
C1004 C1005 1.349 . S
C1004 C1006 1.327 . S
C1004 H1029 0.950 . S
C1005 C1004 1.349 . S
C1005 C1021 1.349 . S
C1006 C1004 1.327 . S
C1006 C1025 1.429 . S
C1006 H1030 0.950 . S
C1007 C1024 1.574 1_545 S
C1007 C1026 1.368 . S
C1007 H1031 0.949 . S
H1008 C1012 0.949 . S
C1009 C1010 1.349 . S
C1009 C1011 1.327 . S
C1009 H1032 0.950 . S
C1010 C1009 1.349 . S
C1010 C1022 1.349 . S
C1011 C1009 1.327 . S
C1011 C1027 1.429 . S
C1011 H1033 0.950 . S
C1012 H1008 0.949 . S
C1012 C1020 1.574 1_565 S
C1012 C1028 1.368 . S
H1013 C1021 0.950 . S
H1014 C1019 0.950 . S
H1015 C1020 0.949 . S
H1016 C1022 0.950 . S
H1017 C1023 0.950 . S
H1018 C1024 0.949 . S
C1019 H1014 0.950 . S
C1019 C1021 1.327 . S
C1019 C1025 1.429 . S
C1020 C1012 1.574 1_545 S
C1020 H1015 0.949 . S
C1020 C1026 1.368 . S
C1021 C1005 1.349 . S
C1021 H1013 0.950 . S
C1021 C1019 1.327 . S
C1022 C1010 1.349 . S
C1022 H1016 0.950 . S
C1022 C1023 1.327 . S
C1023 H1017 0.950 . S
C1023 C1022 1.327 . S
C1023 C1027 1.429 . S
C1024 C1007 1.574 1_565 S
C1024 H1018 0.949 . S
C1024 C1028 1.368 . S
C1025 C1006 1.429 . S
C1025 C1019 1.429 . S
C1025 C1026 1.523 . S
C1026 C1007 1.368 . S
C1026 C1020 1.368 . S
C1026 C1025 1.523 . S
C1027 C1011 1.429 . S
C1027 C1023 1.429 . S
C1027 C1028 1.523 . S
C1028 C1012 1.368 . S
C1028 C1024 1.368 . S
C1028 C1027 1.523 . S
H1029 C1004 0.950 . S
H1030 C1006 0.950 . S
H1031 C1007 0.949 . S
H1032 C1009 0.950 . S
H1033 C1011 0.950 . S
C1034 C1035 1.349 . S
C1034 C1036 1.327 . S
C1034 H1059 0.950 . S
C1035 C1034 1.349 . S
C1035 C1051 1.349 . S
C1036 C1034 1.327 . S
C1036 C1055 1.429 . S
C1036 H1060 0.950 . S
C1037 C1054 1.574 1_455 S
C1037 C1056 1.368 . S
C1037 H1061 0.949 . S
H1038 C1042 0.949 . S
C1039 C1040 1.349 . S
C1039 C1041 1.327 . S
C1039 H1062 0.950 . S
C1040 C1039 1.349 . S
C1040 C1052 1.349 . S
C1041 C1039 1.327 . S
C1041 C1057 1.429 . S
C1041 H1063 0.950 . S
C1042 H1038 0.949 . S
C1042 C1050 1.574 1_655 S
C1042 C1058 1.368 . S
H1043 C1051 0.950 . S
H1044 C1049 0.950 . S
H1045 C1050 0.949 . S
H1046 C1052 0.950 . S
H1047 C1053 0.950 . S
H1048 C1054 0.949 . S
C1049 H1044 0.950 . S
C1049 C1051 1.327 . S
C1049 C1055 1.429 . S
C1050 C1042 1.574 1_455 S
C1050 H1045 0.949 . S
C1050 C1056 1.368 . S
C1051 C1035 1.349 . S
C1051 H1043 0.950 . S
C1051 C1049 1.327 . S
C1052 C1040 1.349 . S
C1052 H1046 0.950 . S
C1052 C1053 1.327 . S
C1053 H1047 0.950 . S
C1053 C1052 1.327 . S
C1053 C1057 1.429 . S
C1054 C1037 1.574 1_655 S
C1054 H1048 0.949 . S
C1054 C1058 1.368 . S
C1055 C1036 1.429 . S
C1055 C1049 1.429 . S
C1055 C1056 1.523 . S
C1056 C1037 1.368 . S
C1056 C1050 1.368 . S
C1056 C1055 1.523 . S
C1057 C1041 1.429 . S
C1057 C1053 1.429 . S
C1057 C1058 1.523 . S
C1058 C1042 1.368 . S
C1058 C1054 1.368 . S
C1058 C1057 1.523 . S
H1059 C1034 0.950 . S
H1060 C1036 0.950 . S
H1061 C1037 0.949 . S
H1062 C1039 0.950 . S
H1063 C1041 0.950 . S
C1064 C1065 1.349 . S
C1064 C1066 1.327 . S
C1064 H1089 0.950 . S
C1065 C1064 1.349 . S
C1065 C1081 1.349 . S
C1066 C1064 1.327 . S
C1066 C1085 1.429 . S
C1066 H1090 0.950 . S
C1067 C1084 1.574 1_545 S
C1067 C1086 1.368 . S
C1067 H1091 0.949 . S
H1068 C1072 0.949 . S
C1069 C1070 1.349 . S
C1069 C1071 1.327 . S
C1069 H1092 0.950 . S
C1070 C1069 1.349 . S
C1070 C1082 1.349 . S
C1071 C1069 1.327 . S
C1071 C1087 1.429 . S
C1071 H1093 0.950 . S
C1072 H1068 0.949 . S
C1072 C1080 1.574 1_565 S
C1072 C1088 1.368 . S
H1073 C1081 0.950 . S
H1074 C1079 0.950 . S
H1075 C1080 0.949 . S
H1076 C1082 0.950 . S
H1077 C1083 0.950 . S
H1078 C1084 0.949 . S
C1079 H1074 0.950 . S
C1079 C1081 1.327 . S
C1079 C1085 1.429 . S
C1080 C1072 1.574 1_545 S
C1080 H1075 0.949 . S
C1080 C1086 1.368 . S
C1081 C1065 1.349 . S
C1081 H1073 0.950 . S
C1081 C1079 1.327 . S
C1082 C1070 1.349 . S
C1082 H1076 0.950 . S
C1082 C1083 1.327 . S
C1083 H1077 0.950 . S
C1083 C1082 1.327 . S
C1083 C1087 1.429 . S
C1084 C1067 1.574 1_565 S
C1084 H1078 0.949 . S
C1084 C1088 1.368 . S
C1085 C1066 1.429 . S
C1085 C1079 1.429 . S
C1085 C1086 1.523 . S
C1086 C1067 1.368 . S
C1086 C1080 1.368 . S
C1086 C1085 1.523 . S
C1087 C1071 1.429 . S
C1087 C1083 1.429 . S
C1087 C1088 1.523 . S
C1088 C1072 1.368 . S
C1088 C1084 1.368 . S
C1088 C1087 1.523 . S
H1089 C1064 0.950 . S
H1090 C1066 0.950 . S
H1091 C1067 0.949 . S
H1092 C1069 0.950 . S
H1093 C1071 0.950 . S
C1094 C1095 1.349 . S
C1094 C1096 1.327 . S
C1094 H1119 0.950 . S
C1095 C1094 1.349 . S
C1095 C1111 1.349 . S
C1096 C1094 1.327 . S
C1096 C1115 1.429 . S
C1096 H1120 0.950 . S
C1097 C1114 1.574 1_655 S
C1097 C1116 1.368 . S
C1097 H1121 0.949 . S
H1098 C1102 0.949 . S
C1099 C1100 1.349 . S
C1099 C1101 1.327 . S
C1099 H1122 0.950 . S
C1100 C1099 1.349 . S
C1100 C1112 1.349 . S
C1101 C1099 1.327 . S
C1101 C1117 1.429 . S
C1101 H1123 0.950 . S
C1102 H1098 0.949 . S
C1102 C1110 1.574 1_455 S
C1102 C1118 1.368 . S
H1103 C1111 0.950 . S
H1104 C1109 0.950 . S
H1105 C1110 0.949 . S
H1106 C1112 0.950 . S
H1107 C1113 0.950 . S
H1108 C1114 0.949 . S
C1109 H1104 0.950 . S
C1109 C1111 1.327 . S
C1109 C1115 1.429 . S
C1110 C1102 1.574 1_655 S
C1110 H1105 0.949 . S
C1110 C1116 1.368 . S
C1111 C1095 1.349 . S
C1111 H1103 0.950 . S
C1111 C1109 1.327 . S
C1112 C1100 1.349 . S
C1112 H1106 0.950 . S
C1112 C1113 1.327 . S
C1113 H1107 0.950 . S
C1113 C1112 1.327 . S
C1113 C1117 1.429 . S
C1114 C1097 1.574 1_455 S
C1114 H1108 0.949 . S
C1114 C1118 1.368 . S
C1115 C1096 1.429 . S
C1115 C1109 1.429 . S
C1115 C1116 1.523 . S
C1116 C1097 1.368 . S
C1116 C1110 1.368 . S
C1116 C1115 1.523 . S
C1117 C1101 1.429 . S
C1117 C1113 1.429 . S
C1117 C1118 1.523 . S
C1118 C1102 1.368 . S
C1118 C1114 1.368 . S
C1118 C1117 1.523 . S
H1119 C1094 0.950 . S
H1120 C1096 0.950 . S
H1121 C1097 0.949 . S
H1122 C1099 0.950 . S
H1123 C1101 0.950 . S
C1124 C1125 1.349 . S
C1124 C1126 1.327 . S
C1124 H1149 0.950 . S
C1125 C1124 1.349 . S
C1125 C1141 1.349 . S
C1126 C1124 1.327 . S
C1126 C1145 1.429 . S
C1126 H1150 0.950 . S
C1127 C1144 1.574 1_565 S
C1127 C1146 1.368 . S
C1127 H1151 0.949 . S
H1128 C1132 0.949 . S
C1129 C1130 1.349 . S
C1129 C1131 1.327 . S
C1129 H1152 0.950 . S
C1130 C1129 1.349 . S
C1130 C1142 1.349 . S
C1131 C1129 1.327 . S
C1131 C1147 1.429 . S
C1131 H1153 0.950 . S
C1132 H1128 0.949 . S
C1132 C1140 1.574 1_545 S
C1132 C1148 1.368 . S
H1133 C1141 0.950 . S
H1134 C1139 0.950 . S
H1135 C1140 0.949 . S
H1136 C1142 0.950 . S
H1137 C1143 0.950 . S
H1138 C1144 0.949 . S
C1139 H1134 0.950 . S
C1139 C1141 1.327 . S
C1139 C1145 1.429 . S
C1140 C1132 1.574 1_565 S
C1140 H1135 0.949 . S
C1140 C1146 1.368 . S
C1141 C1125 1.349 . S
C1141 H1133 0.950 . S
C1141 C1139 1.327 . S
C1142 C1130 1.349 . S
C1142 H1136 0.950 . S
C1142 C1143 1.327 . S
C1143 H1137 0.950 . S
C1143 C1142 1.327 . S
C1143 C1147 1.429 . S
C1144 C1127 1.574 1_545 S
C1144 H1138 0.949 . S
C1144 C1148 1.368 . S
C1145 C1126 1.429 . S
C1145 C1139 1.429 . S
C1145 C1146 1.523 . S
C1146 C1127 1.368 . S
C1146 C1140 1.368 . S
C1146 C1145 1.523 . S
C1147 C1131 1.429 . S
C1147 C1143 1.429 . S
C1147 C1148 1.523 . S
C1148 C1132 1.368 . S
C1148 C1144 1.368 . S
C1148 C1147 1.523 . S
H1149 C1124 0.950 . S
H1150 C1126 0.950 . S
H1151 C1127 0.949 . S
H1152 C1129 0.950 . S
H1153 C1131 0.950 . S
C1154 C1155 1.349 . S
C1154 C1156 1.327 . S
C1154 H1179 0.950 . S
C1155 C1154 1.349 . S
C1155 C1171 1.349 . S
C1156 C1154 1.327 . S
C1156 C1175 1.429 . S
C1156 H1180 0.950 . S
C1157 C1174 1.574 1_455 S
C1157 C1176 1.368 . S
C1157 H1181 0.949 . S
H1158 C1162 0.949 . S
C1159 C1160 1.349 . S
C1159 C1161 1.327 . S
C1159 H1182 0.950 . S
C1160 C1159 1.349 . S
C1160 C1172 1.349 . S
C1161 C1159 1.327 . S
C1161 C1177 1.429 . S
C1161 H1183 0.950 . S
C1162 H1158 0.949 . S
C1162 C1170 1.574 1_655 S
C1162 C1178 1.368 . S
H1163 C1171 0.950 . S
H1164 C1169 0.950 . S
H1165 C1170 0.949 . S
H1166 C1172 0.950 . S
H1167 C1173 0.950 . S
H1168 C1174 0.949 . S
C1169 H1164 0.950 . S
C1169 C1171 1.327 . S
C1169 C1175 1.429 . S
C1170 C1162 1.574 1_455 S
C1170 H1165 0.949 . S
C1170 C1176 1.368 . S
C1171 C1155 1.349 . S
C1171 H1163 0.950 . S
C1171 C1169 1.327 . S
C1172 C1160 1.349 . S
C1172 H1166 0.950 . S
C1172 C1173 1.327 . S
C1173 H1167 0.950 . S
C1173 C1172 1.327 . S
C1173 C1177 1.429 . S
C1174 C1157 1.574 1_655 S
C1174 H1168 0.949 . S
C1174 C1178 1.368 . S
C1175 C1156 1.429 . S
C1175 C1169 1.429 . S
C1175 C1176 1.523 . S
C1176 C1157 1.368 . S
C1176 C1170 1.368 . S
C1176 C1175 1.523 . S
C1177 C1161 1.429 . S
C1177 C1173 1.429 . S
C1177 C1178 1.523 . S
C1178 C1162 1.368 . S
C1178 C1174 1.368 . S
C1178 C1177 1.523 . S
H1179 C1154 0.950 . S
H1180 C1156 0.950 . S
H1181 C1157 0.949 . S
H1182 C1159 0.950 . S
H1183 C1161 0.950 . S
C225 C81 1.370 . S
C230 C11 1.370 . S
C255 C95 1.370 . S
C260 C25 1.370 . S
C285 C39 1.370 . S
C290 C109 1.370 . S
C315 C53 1.370 . S
C320 C67 1.370 . S
C345 C193 1.370 . S
C350 C123 1.370 . S
C375 C207 1.370 . S
C380 C137 1.370 . S
C405 C151 1.370 . S
C410 C221 1.370 . S
C435 C165 1.370 . S
C440 C179 1.370 . S
C465 C149 1.544 . S
C470 C9 1.544 . S
C495 C163 1.544 . S
C500 C23 1.544 . S
C525 C121 1.544 . S
C530 C37 1.544 . S
C555 C51 1.544 . S
C560 C135 1.544 . S
C585 C205 1.544 . S
C590 C65 1.544 . S
C615 C219 1.544 . S
C620 C79 1.544 . S
C645 C93 1.544 . S
C650 C177 1.544 . S
C675 C191 1.544 . S
C680 C107 1.544 . S
C705 C61 2.044 . S
C710 C5 2.044 . S
C735 C19 2.044 . S
C740 C75 2.044 . S
C765 C33 2.044 . S
C770 C89 2.044 . S
C795 C103 2.044 . S
C800 C47 2.044 . S
C825 C112 0.747 . S
C830 C168 0.747 . S
C855 C182 0.747 . S
C860 C126 0.747 . S
C885 C140 0.747 . S
C890 C196 0.747 . S
C915 C210 0.747 . S
C920 C154 0.747 . S
C945 C159 2.044 . S
C950 C187 2.044 . S
C975 C117 2.044 . S
C980 C201 2.044 . S
C1005 C215 2.044 . S
C1010 C131 2.044 . S
C1035 C145 2.044 . S
C1040 C173 2.044 . S
C1065 C70 0.747 . S
C1070 C42 0.747 . S
C1095 C84 0.747 . S
C1100 C0 0.747 . S
C1125 C98 0.747 . S
C1130 C14 0.747 . S
C1155 C56 0.747 . S
C1160 C28 0.747 . S
