# Generated by pormake.
# Topology ato, (4)-cn, num edge types: 1
# Building blocks:
#     Node 0, Type 0, BuildingBlock: CEKHIL_clean_sbu_0, # of connection points: 4
#     Node 1, Type 0, BuildingBlock: CEKHIL_clean_sbu_0, # of connection points: 4
#     Node 2, Type 0, BuildingBlock: CEKHIL_clean_sbu_0, # of connection points: 4
#     Node 3, Type 0, BuildingBlock: CEKHIL_clean_sbu_0, # of connection points: 4
#     Node 4, Type 0, BuildingBlock: CEKHIL_clean_sbu_0, # of connection points: 4
#     Node 5, Type 0, BuildingBlock: CEKHIL_clean_sbu_0, # of connection points: 4
#     Node 6, Type 0, BuildingBlock: CEKHIL_clean_sbu_0, # of connection points: 4
#     Node 7, Type 0, BuildingBlock: CEKHIL_clean_sbu_0, # of connection points: 4
#     Node 8, Type 0, BuildingBlock: CEKHIL_clean_sbu_0, # of connection points: 4
#     Node 9, Type 0, BuildingBlock: CEKHIL_clean_sbu_0, # of connection points: 4
#     Node 10, Type 0, BuildingBlock: CEKHIL_clean_sbu_0, # of connection points: 4
#     Node 11, Type 0, BuildingBlock: CEKHIL_clean_sbu_0, # of connection points: 4
#     Node 12, Type 0, BuildingBlock: CEKHIL_clean_sbu_0, # of connection points: 4
#     Node 13, Type 0, BuildingBlock: CEKHIL_clean_sbu_0, # of connection points: 4
#     Node 14, Type 0, BuildingBlock: CEKHIL_clean_sbu_0, # of connection points: 4
#     Node 15, Type 0, BuildingBlock: CEKHIL_clean_sbu_0, # of connection points: 4
#     Node 16, Type 0, BuildingBlock: CEKHIL_clean_sbu_0, # of connection points: 4
#     Node 17, Type 0, BuildingBlock: CEKHIL_clean_sbu_0, # of connection points: 4
#     Node 18, Type 0, BuildingBlock: CEKHIL_clean_sbu_0, # of connection points: 4
#     Node 19, Type 0, BuildingBlock: CEKHIL_clean_sbu_0, # of connection points: 4
#     Node 20, Type 0, BuildingBlock: CEKHIL_clean_sbu_0, # of connection points: 4
#     Node 21, Type 0, BuildingBlock: CEKHIL_clean_sbu_0, # of connection points: 4
#     Node 22, Type 0, BuildingBlock: CEKHIL_clean_sbu_0, # of connection points: 4
#     Node 23, Type 0, BuildingBlock: CEKHIL_clean_sbu_0, # of connection points: 4
#     Node 24, Type 0, BuildingBlock: CEKHIL_clean_sbu_0, # of connection points: 4
#     Node 25, Type 0, BuildingBlock: CEKHIL_clean_sbu_0, # of connection points: 4
#     Node 26, Type 0, BuildingBlock: CEKHIL_clean_sbu_0, # of connection points: 4
#     Node 27, Type 0, BuildingBlock: CEKHIL_clean_sbu_0, # of connection points: 4
#     Node 28, Type 0, BuildingBlock: CEKHIL_clean_sbu_0, # of connection points: 4
#     Node 29, Type 0, BuildingBlock: CEKHIL_clean_sbu_0, # of connection points: 4
#     Node 30, Type 0, BuildingBlock: CEKHIL_clean_sbu_0, # of connection points: 4
#     Node 31, Type 0, BuildingBlock: CEKHIL_clean_sbu_0, # of connection points: 4
#     Node 32, Type 0, BuildingBlock: CEKHIL_clean_sbu_0, # of connection points: 4
#     Node 33, Type 0, BuildingBlock: CEKHIL_clean_sbu_0, # of connection points: 4
#     Node 34, Type 0, BuildingBlock: CEKHIL_clean_sbu_0, # of connection points: 4
#     Node 35, Type 0, BuildingBlock: CEKHIL_clean_sbu_0, # of connection points: 4
#     Edge 36, Type (0, 0), None
#     Edge 37, Type (0, 0), None
#     Edge 38, Type (0, 0), None
#     Edge 39, Type (0, 0), None
#     Edge 40, Type (0, 0), None
#     Edge 41, Type (0, 0), None
#     Edge 42, Type (0, 0), None
#     Edge 43, Type (0, 0), None
#     Edge 44, Type (0, 0), None
#     Edge 45, Type (0, 0), None
#     Edge 46, Type (0, 0), None
#     Edge 47, Type (0, 0), None
#     Edge 48, Type (0, 0), None
#     Edge 49, Type (0, 0), None
#     Edge 50, Type (0, 0), None
#     Edge 51, Type (0, 0), None
#     Edge 52, Type (0, 0), None
#     Edge 53, Type (0, 0), None
#     Edge 54, Type (0, 0), None
#     Edge 55, Type (0, 0), None
#     Edge 56, Type (0, 0), None
#     Edge 57, Type (0, 0), None
#     Edge 58, Type (0, 0), None
#     Edge 59, Type (0, 0), None
#     Edge 60, Type (0, 0), None
#     Edge 61, Type (0, 0), None
#     Edge 62, Type (0, 0), None
#     Edge 63, Type (0, 0), None
#     Edge 64, Type (0, 0), None
#     Edge 65, Type (0, 0), None
#     Edge 66, Type (0, 0), None
#     Edge 67, Type (0, 0), None
#     Edge 68, Type (0, 0), None
#     Edge 69, Type (0, 0), None
#     Edge 70, Type (0, 0), None
#     Edge 71, Type (0, 0), None
#     Edge 72, Type (0, 0), None
#     Edge 73, Type (0, 0), None
#     Edge 74, Type (0, 0), None
#     Edge 75, Type (0, 0), None
#     Edge 76, Type (0, 0), None
#     Edge 77, Type (0, 0), None
#     Edge 78, Type (0, 0), None
#     Edge 79, Type (0, 0), None
#     Edge 80, Type (0, 0), None
#     Edge 81, Type (0, 0), None
#     Edge 82, Type (0, 0), None
#     Edge 83, Type (0, 0), None
#     Edge 84, Type (0, 0), None
#     Edge 85, Type (0, 0), None
#     Edge 86, Type (0, 0), None
#     Edge 87, Type (0, 0), None
#     Edge 88, Type (0, 0), None
#     Edge 89, Type (0, 0), None
#     Edge 90, Type (0, 0), None
#     Edge 91, Type (0, 0), None
#     Edge 92, Type (0, 0), None
#     Edge 93, Type (0, 0), None
#     Edge 94, Type (0, 0), None
#     Edge 95, Type (0, 0), None
#     Edge 96, Type (0, 0), None
#     Edge 97, Type (0, 0), None
#     Edge 98, Type (0, 0), None
#     Edge 99, Type (0, 0), None
#     Edge 100, Type (0, 0), None
#     Edge 101, Type (0, 0), None
#     Edge 102, Type (0, 0), None
#     Edge 103, Type (0, 0), None
#     Edge 104, Type (0, 0), None
#     Edge 105, Type (0, 0), None
#     Edge 106, Type (0, 0), None
#     Edge 107, Type (0, 0), None
# Relax obj value: 0.088
# Max RMSD: 0.101
# Mean RMSD: 0.101
data_MOF--net-ato--node1-CEKHIL_clean_sbu_0--edge1-none
_symmetry_space_group_name_H-M    P1
_symmetry_Int_Tables_number       1
_symmetry_cell_setting            triclinic
loop_
_symmetry_equiv_pos_as_xyz
'x, y, z'
_cell_length_a     44.272774
_cell_length_b     44.273405
_cell_length_c     10.259514
_cell_angle_alpha  89.99668
_cell_angle_beta   90.005561
_cell_angle_gamma 120.00038
loop_
_atom_site_label
_atom_site_type_symbol
_atom_site_fract_x
_atom_site_fract_y
_atom_site_fract_z
_atom_type_partial_charge
Co0 Co 0.26681 0.0697 0.31443 0.0
O1 O 0.22398 0.03846 0.40792 0.0
O2 O 0.27545 0.04235 0.4366 0.0
C3 C 0.26284 0.11841 0.32838 0.0
O4 O 0.31729 0.09866 0.25542 0.0
Co5 Co 0.27193 0.10645 0.05447 0.0
O6 O 0.32275 0.13362 0.0883 0.0
C7 C 0.24751 0.03139 0.05161 0.0
C8 C 0.24291 0.02803 0.46908 0.0
C9 C 0.33586 0.12375 0.17709 0.0
O10 O 0.25446 0.03282 0.17437 0.0
O11 O 0.25124 0.05762 0.98622 0.0
O12 O 0.27425 0.10842 0.42671 0.0
O13 O 0.25164 0.09754 0.22934 0.0
Co14 Co 0.96605 0.20426 0.31444 0.0
O15 O 0.9973 0.19267 0.40796 0.0
O16 O 0.9934 0.24025 0.43661 0.0
C17 C 0.91735 0.15158 0.32839 0.0
O18 O 0.9371 0.22578 0.25541 0.0
Co19 Co 0.92931 0.17264 0.05448 0.0
O20 O 0.90213 0.19627 0.08832 0.0
C21 C 1.00437 0.22327 0.05163 0.0
C22 C 1.00773 0.22204 0.4691 0.0
C23 C 0.912 0.21926 0.17711 0.0
O24 O 1.00293 0.22879 0.17439 0.0
O25 O 0.97813 0.20077 0.98624 0.0
O26 O 0.92733 0.17297 0.42671 0.0
O27 O 0.93821 0.16125 0.22935 0.0
Co28 Co 0.83149 0.76894 0.31445 0.0
O29 O 0.84308 0.81178 0.40795 0.0
O30 O 0.7955 0.7603 0.43662 0.0
C31 C 0.88417 0.77291 0.32839 0.0
O32 O 0.80997 0.71846 0.25544 0.0
Co33 Co 0.86311 0.76382 0.05449 0.0
O34 O 0.83947 0.713 0.08835 0.0
C35 C 0.81248 0.78824 0.05162 0.0
C36 C 0.81371 0.79284 0.46909 0.0
C37 C 0.81649 0.69989 0.17714 0.0
O38 O 0.80696 0.78129 0.17438 0.0
O39 O 0.83498 0.78451 0.98625 0.0
O40 O 0.86278 0.76151 0.42673 0.0
O41 O 0.8745 0.78411 0.22935 0.0
Co42 Co 0.07685 0.25966 0.72317 0.0
O43 O 0.0456 0.21682 0.62968 0.0
O44 O 0.04949 0.2683 0.60101 0.0
C45 C 0.12556 0.25569 0.70921 0.0
O46 O 0.10581 0.31014 0.78218 0.0
Co47 Co 0.1136 0.26478 0.98312 0.0
O48 O 0.14078 0.3156 0.94928 0.0
C49 C 0.03855 0.24037 0.98601 0.0
C50 C 0.03517 0.23576 0.56853 0.0
C51 C 0.1309 0.32871 0.86049 0.0
O52 O 0.03997 0.24731 0.86324 0.0
O53 O 0.06478 0.2441 0.05138 0.0
O54 O 0.11557 0.2671 0.61088 0.0
O55 O 0.10469 0.24449 0.80825 0.0
Co56 Co 0.77609 0.82434 0.72314 0.0
O57 O 0.81893 0.83593 0.62965 0.0
O58 O 0.76745 0.78834 0.60098 0.0
C59 C 0.78006 0.87702 0.70918 0.0
O60 O 0.72561 0.80282 0.78214 0.0
Co61 Co 0.77097 0.85597 0.98309 0.0
O62 O 0.72015 0.83232 0.94924 0.0
C63 C 0.79538 0.80532 0.98599 0.0
C64 C 0.79999 0.80656 0.56851 0.0
C65 C 0.70704 0.80934 0.86045 0.0
O66 O 0.78844 0.79981 0.86322 0.0
O67 O 0.79165 0.82783 0.05135 0.0
O68 O 0.76866 0.85563 0.61085 0.0
O69 O 0.79127 0.86735 0.80823 0.0
Co70 Co 0.21141 0.9589 0.72314 0.0
O71 O 0.19982 0.99015 0.62963 0.0
O72 O 0.24741 0.98626 0.60099 0.0
C73 C 0.15873 0.9102 0.70918 0.0
O74 O 0.23293 0.92995 0.78217 0.0
Co75 Co 0.17978 0.92215 0.9831 0.0
O76 O 0.20342 0.89498 0.94924 0.0
C77 C 0.23042 0.99721 0.98598 0.0
C78 C 0.22919 1.00058 0.5685 0.0
C79 C 0.22641 0.90485 0.86046 0.0
O80 O 0.23594 0.99578 0.86321 0.0
O81 O 0.20792 0.97098 0.05135 0.0
O82 O 0.18012 0.92018 0.61086 0.0
O83 O 0.1684 0.93107 0.80822 0.0
Co84 Co 0.77609 0.9589 0.72314 0.0
O85 O 0.81893 0.99014 0.62965 0.0
O86 O 0.76745 0.98625 0.60097 0.0
C87 C 0.78006 0.91019 0.70919 0.0
O88 O 0.72561 0.92994 0.78215 0.0
Co89 Co 0.77098 0.92215 0.9831 0.0
O90 O 0.72015 0.89498 0.94928 0.0
C91 C 0.79539 0.99721 0.98597 0.0
C92 C 0.79999 1.00057 0.56849 0.0
C93 C 0.70704 0.90486 0.86048 0.0
O94 O 0.78844 0.99578 0.8632 0.0
O95 O 0.79166 0.97098 0.05135 0.0
O96 O 0.76865 0.92018 0.61086 0.0
O97 O 0.79126 0.93106 0.80823 0.0
Co98 Co 0.07685 0.82434 0.72313 0.0
O99 O 0.0456 0.83593 0.62961 0.0
O100 O 0.0495 0.78835 0.60096 0.0
C101 C 0.12556 0.87702 0.70919 0.0
O102 O 0.10581 0.80282 0.78216 0.0
Co103 Co 0.11359 0.85596 0.98309 0.0
O104 O 0.14077 0.83233 0.94926 0.0
C105 C 0.03854 0.80533 0.98594 0.0
C106 C 0.03518 0.80656 0.56847 0.0
C107 C 0.1309 0.80934 0.86047 0.0
O108 O 0.03997 0.79981 0.86318 0.0
O109 O 0.06477 0.82783 0.05133 0.0
O110 O 0.11557 0.85563 0.61086 0.0
O111 O 0.10469 0.86735 0.80822 0.0
Co112 Co 0.21141 0.25966 0.72312 0.0
O113 O 0.19982 0.21682 0.62963 0.0
O114 O 0.2474 0.2683 0.60096 0.0
C115 C 0.15873 0.25569 0.70918 0.0
O116 O 0.23293 0.31014 0.78213 0.0
Co117 Co 0.17979 0.26478 0.98309 0.0
O118 O 0.20343 0.3156 0.94923 0.0
C119 C 0.23043 0.24036 0.98595 0.0
C120 C 0.22919 0.23576 0.56848 0.0
C121 C 0.22641 0.32871 0.86044 0.0
O122 O 0.23595 0.24731 0.86319 0.0
O123 O 0.20793 0.24409 0.05133 0.0
O124 O 0.18012 0.26709 0.61084 0.0
O125 O 0.1684 0.24449 0.80822 0.0
Co126 Co 0.96605 0.76894 0.3144 0.0
O127 O 0.9973 0.81178 0.40789 0.0
O128 O 0.99341 0.7603 0.43656 0.0
C129 C 0.91734 0.77291 0.32837 0.0
O130 O 0.9371 0.71846 0.25539 0.0
Co131 Co 0.9293 0.76382 0.05445 0.0
O132 O 0.90213 0.713 0.08829 0.0
C133 C 1.00435 0.78823 0.05156 0.0
C134 C 1.00773 0.79284 0.46904 0.0
C135 C 0.912 0.69989 0.17708 0.0
O136 O 1.00293 0.78129 0.17433 0.0
O137 O 0.97812 0.7845 0.98619 0.0
O138 O 0.92733 0.7615 0.42669 0.0
O139 O 0.93821 0.78411 0.22932 0.0
Co140 Co 0.26681 0.20426 0.31444 0.0
O141 O 0.22397 0.19267 0.40792 0.0
O142 O 0.27545 0.24025 0.4366 0.0
C143 C 0.26284 0.15158 0.32839 0.0
O144 O 0.31729 0.22578 0.25543 0.0
Co145 Co 0.27193 0.17263 0.05448 0.0
O146 O 0.32275 0.19628 0.08834 0.0
C147 C 0.24752 0.22328 0.05158 0.0
C148 C 0.24291 0.22204 0.46906 0.0
C149 C 0.33586 0.21926 0.17712 0.0
O150 O 0.25446 0.22879 0.17436 0.0
O151 O 0.25125 0.20077 0.98622 0.0
O152 O 0.27425 0.17297 0.42672 0.0
O153 O 0.25164 0.16125 0.22934 0.0
Co154 Co 0.83149 0.0697 0.31443 0.0
O155 O 0.84308 0.03845 0.40794 0.0
O156 O 0.7955 0.04234 0.43658 0.0
C157 C 0.88417 0.1184 0.32839 0.0
O158 O 0.80997 0.09865 0.25541 0.0
Co159 Co 0.86312 0.10645 0.05448 0.0
O160 O 0.83948 0.13362 0.08833 0.0
C161 C 0.81248 0.03139 0.05159 0.0
C162 C 0.81371 0.02802 0.46907 0.0
C163 C 0.81649 0.12375 0.17711 0.0
O164 O 0.80696 0.03282 0.17436 0.0
O165 O 0.83498 0.05762 0.98622 0.0
O166 O 0.86278 0.10842 0.42671 0.0
O167 O 0.8745 0.09753 0.22935 0.0
Co168 Co 0.93348 0.40303 0.64777 0.0
O169 O 0.89064 0.37179 0.74126 0.0
O170 O 0.94212 0.37568 0.76994 0.0
C171 C 0.92951 0.45174 0.66172 0.0
O172 O 0.98396 0.43199 0.58875 0.0
Co173 Co 0.93859 0.43978 0.38781 0.0
O174 O 0.98941 0.46695 0.42164 0.0
C175 C 0.91418 0.36472 0.38494 0.0
C176 C 0.90958 0.36136 0.80241 0.0
C177 C 1.00252 0.45708 0.51043 0.0
O178 O 0.92113 0.36615 0.50771 0.0
O179 O 0.9179 0.39095 0.31956 0.0
O180 O 0.94092 0.44176 0.76005 0.0
O181 O 0.9183 0.43087 0.56268 0.0
Co182 Co 0.63272 0.53759 0.64778 0.0
O183 O 0.66396 0.526 0.74129 0.0
O184 O 0.66007 0.57359 0.76994 0.0
C185 C 0.58401 0.48492 0.66172 0.0
O186 O 0.60376 0.55912 0.58875 0.0
Co187 Co 0.59597 0.50597 0.38781 0.0
O188 O 0.56879 0.52961 0.42165 0.0
C189 C 0.67103 0.5566 0.38496 0.0
C190 C 0.67439 0.55537 0.80243 0.0
C191 C 0.57867 0.55259 0.51044 0.0
O192 O 0.6696 0.56213 0.50772 0.0
O193 O 0.6448 0.53411 0.31958 0.0
O194 O 0.59399 0.50631 0.76005 0.0
O195 O 0.60488 0.49458 0.56268 0.0
Co196 Co 0.49816 0.10228 0.64779 0.0
O197 O 0.50975 0.14511 0.74128 0.0
O198 O 0.46217 0.09363 0.76995 0.0
C199 C 0.55084 0.10625 0.66173 0.0
O200 O 0.47664 0.0518 0.58878 0.0
Co201 Co 0.52978 0.09715 0.38782 0.0
O202 O 0.50614 0.04634 0.42168 0.0
C203 C 0.47915 0.12157 0.38496 0.0
C204 C 0.48038 0.12617 0.80243 0.0
C205 C 0.48316 0.03323 0.51047 0.0
O206 O 0.47363 0.11462 0.50772 0.0
O207 O 0.50165 0.11784 0.31958 0.0
O208 O 0.52945 0.09484 0.76006 0.0
O209 O 0.54117 0.11745 0.56269 0.0
Co210 Co 0.74351 0.59299 0.0565 0.0
O211 O 0.71227 0.55016 0.96301 0.0
O212 O 0.71616 0.60163 0.93435 0.0
C213 C 0.79222 0.58902 0.04254 0.0
O214 O 0.77247 0.64347 0.11552 0.0
Co215 Co 0.78027 0.59811 0.31646 0.0
O216 O 0.80744 0.64893 0.28263 0.0
C217 C 0.70521 0.5737 0.31934 0.0
C218 C 0.70184 0.5691 0.90186 0.0
C219 C 0.79756 0.66204 0.19384 0.0
O220 O 0.70664 0.58064 0.19657 0.0
O221 O 0.73144 0.57743 0.38471 0.0
O222 O 0.78224 0.60043 0.94421 0.0
O223 O 0.77136 0.57782 0.14158 0.0
Co224 Co 0.44276 0.15768 0.05647 0.0
O225 O 0.4856 0.16926 0.96299 0.0
O226 O 0.43412 0.12168 0.93431 0.0
C227 C 0.44673 0.21035 0.04251 0.0
O228 O 0.39228 0.13616 0.11548 0.0
Co229 Co 0.43765 0.18931 0.31643 0.0
O230 O 0.38683 0.16566 0.28258 0.0
C231 C 0.46205 0.13866 0.31932 0.0
C232 C 0.46666 0.13989 0.90184 0.0
C233 C 0.37371 0.14267 0.1938 0.0
O234 O 0.45511 0.13314 0.19655 0.0
O235 O 0.45833 0.16117 0.38469 0.0
O236 O 0.43533 0.18896 0.94418 0.0
O237 O 0.45794 0.20069 0.14156 0.0
Co238 Co 0.87808 0.29224 0.05648 0.0
O239 O 0.86649 0.32348 0.96297 0.0
O240 O 0.91407 0.31959 0.93433 0.0
C241 C 0.8254 0.24353 0.04252 0.0
O242 O 0.8996 0.26328 0.11551 0.0
Co243 Co 0.84645 0.25549 0.31643 0.0
O244 O 0.87009 0.22831 0.28258 0.0
C245 C 0.89709 0.33054 0.31932 0.0
C246 C 0.89586 0.33391 0.90184 0.0
C247 C 0.89308 0.23819 0.19381 0.0
O248 O 0.90261 0.32911 0.19655 0.0
O249 O 0.87459 0.30431 0.38468 0.0
O250 O 0.84679 0.25351 0.94419 0.0
O251 O 0.83507 0.2644 0.14156 0.0
Co252 Co 0.44276 0.29223 0.05647 0.0
O253 O 0.48559 0.32348 0.96298 0.0
O254 O 0.43412 0.31959 0.9343 0.0
C255 C 0.44673 0.24353 0.04252 0.0
O256 O 0.39228 0.26328 0.11549 0.0
Co257 Co 0.43765 0.25549 0.31644 0.0
O258 O 0.38683 0.22832 0.28262 0.0
C259 C 0.46206 0.33054 0.3193 0.0
C260 C 0.46665 0.33391 0.90183 0.0
C261 C 0.37372 0.23819 0.19383 0.0
O262 O 0.45511 0.32911 0.19653 0.0
O263 O 0.45833 0.30431 0.38468 0.0
O264 O 0.43532 0.25351 0.94419 0.0
O265 O 0.45794 0.2644 0.14156 0.0
Co266 Co 0.74352 0.15767 0.05647 0.0
O267 O 0.71227 0.16926 0.96295 0.0
O268 O 0.71617 0.12168 0.9343 0.0
C269 C 0.79223 0.21035 0.04252 0.0
O270 O 0.77247 0.13615 0.1155 0.0
Co271 Co 0.78026 0.1893 0.31643 0.0
O272 O 0.80744 0.16566 0.2826 0.0
C273 C 0.70521 0.13866 0.31928 0.0
C274 C 0.70184 0.13989 0.90181 0.0
C275 C 0.79756 0.14267 0.19382 0.0
O276 O 0.70664 0.13314 0.19652 0.0
O277 O 0.73144 0.16116 0.38466 0.0
O278 O 0.78224 0.18896 0.94419 0.0
O279 O 0.77136 0.20068 0.14156 0.0
Co280 Co 0.87807 0.59299 0.05646 0.0
O281 O 0.86649 0.55015 0.96296 0.0
O282 O 0.91407 0.60163 0.93429 0.0
C283 C 0.8254 0.58902 0.04252 0.0
O284 O 0.8996 0.64347 0.11547 0.0
Co285 Co 0.84645 0.59811 0.31642 0.0
O286 O 0.87009 0.64893 0.28258 0.0
C287 C 0.89709 0.57369 0.31929 0.0
C288 C 0.89585 0.56909 0.90181 0.0
C289 C 0.89308 0.66204 0.19379 0.0
O290 O 0.90261 0.58064 0.19653 0.0
O291 O 0.87459 0.57742 0.38466 0.0
O292 O 0.84678 0.60042 0.94418 0.0
O293 O 0.83507 0.57782 0.14155 0.0
Co294 Co 0.63272 0.10228 0.64774 0.0
O295 O 0.66397 0.14511 0.74123 0.0
O296 O 0.66008 0.09363 0.7699 0.0
C297 C 0.58401 0.10624 0.6617 0.0
O298 O 0.60376 0.0518 0.58872 0.0
Co299 Co 0.59597 0.09715 0.38778 0.0
O300 O 0.56879 0.04633 0.42163 0.0
C301 C 0.67102 0.12156 0.3849 0.0
C302 C 0.6744 0.12617 0.80238 0.0
C303 C 0.57867 0.03323 0.51042 0.0
O304 O 0.6696 0.11462 0.50767 0.0
O305 O 0.64479 0.11784 0.31953 0.0
O306 O 0.594 0.09483 0.76003 0.0
O307 O 0.60488 0.11745 0.56266 0.0
Co308 Co 0.93347 0.53759 0.64777 0.0
O309 O 0.89064 0.526 0.74125 0.0
O310 O 0.94212 0.57359 0.76993 0.0
C311 C 0.92951 0.48492 0.66173 0.0
O312 O 0.98395 0.55911 0.58877 0.0
Co313 Co 0.93859 0.50596 0.38782 0.0
O314 O 0.98941 0.52961 0.42167 0.0
C315 C 0.91419 0.55661 0.38492 0.0
C316 C 0.90958 0.55537 0.8024 0.0
C317 C 1.00252 0.55259 0.51046 0.0
O318 O 0.92113 0.56212 0.50769 0.0
O319 O 0.91791 0.5341 0.31956 0.0
O320 O 0.94091 0.5063 0.76006 0.0
O321 O 0.9183 0.49458 0.56268 0.0
Co322 Co 0.49816 0.40303 0.64776 0.0
O323 O 0.50975 0.37179 0.74127 0.0
O324 O 0.46216 0.37568 0.76991 0.0
C325 C 0.55083 0.45174 0.66172 0.0
O326 O 0.47663 0.43199 0.58874 0.0
Co327 Co 0.52978 0.43978 0.38781 0.0
O328 O 0.50615 0.46696 0.42167 0.0
C329 C 0.47914 0.36473 0.38492 0.0
C330 C 0.48038 0.36135 0.8024 0.0
C331 C 0.48316 0.45708 0.51045 0.0
O332 O 0.47363 0.36615 0.50769 0.0
O333 O 0.50165 0.39096 0.31956 0.0
O334 O 0.52944 0.44175 0.76005 0.0
O335 O 0.54117 0.43087 0.56268 0.0
Co336 Co 0.60014 0.73637 0.9811 0.0
O337 O 0.55731 0.70512 0.0746 0.0
O338 O 0.60879 0.70901 0.10327 0.0
C339 C 0.59617 0.78507 0.99505 0.0
O340 O 0.65062 0.76532 0.92208 0.0
Co341 Co 0.60525 0.77311 0.72114 0.0
O342 O 0.65607 0.80028 0.75495 0.0
C343 C 0.58084 0.69806 0.71827 0.0
C344 C 0.57625 0.69469 0.13575 0.0
C345 C 0.66919 0.79041 0.84374 0.0
O346 O 0.58779 0.69949 0.84104 0.0
O347 O 0.58457 0.72429 0.65289 0.0
O348 O 0.60758 0.77509 0.09338 0.0
O349 O 0.58497 0.7642 0.89601 0.0
Co350 Co 0.29938 0.87093 0.98111 0.0
O351 O 0.33063 0.85934 0.07463 0.0
O352 O 0.32674 0.90692 0.10327 0.0
C353 C 0.25068 0.81825 0.99506 0.0
O354 O 0.27043 0.89245 0.92207 0.0
Co355 Co 0.26264 0.8393 0.72114 0.0
O356 O 0.23546 0.86294 0.75497 0.0
C357 C 0.3377 0.88994 0.71829 0.0
C358 C 0.34106 0.88871 0.13577 0.0
C359 C 0.24534 0.88593 0.84375 0.0
O360 O 0.33627 0.89546 0.84105 0.0
O361 O 0.31146 0.86744 0.65291 0.0
O362 O 0.26066 0.83964 0.09338 0.0
O363 O 0.27155 0.82792 0.89602 0.0
Co364 Co 0.16483 0.43561 0.98112 0.0
O365 O 0.17641 0.47844 0.07461 0.0
O366 O 0.12883 0.42697 0.10328 0.0
C367 C 0.2175 0.43958 0.99506 0.0
O368 O 0.14331 0.38513 0.9221 0.0
Co369 Co 0.19645 0.43049 0.72115 0.0
O370 O 0.17281 0.37967 0.755 0.0
C371 C 0.14581 0.45491 0.71829 0.0
C372 C 0.14705 0.45951 0.13576 0.0
C373 C 0.14982 0.36656 0.84378 0.0
O374 O 0.14029 0.44796 0.84105 0.0
O375 O 0.16831 0.45118 0.65291 0.0
O376 O 0.19612 0.42818 0.0934 0.0
O377 O 0.20783 0.45078 0.89602 0.0
Co378 Co 0.41018 0.92632 0.38984 0.0
O379 O 0.37893 0.88349 0.29634 0.0
O380 O 0.38282 0.93497 0.26768 0.0
C381 C 0.45889 0.92236 0.37587 0.0
O382 O 0.43914 0.9768 0.44886 0.0
Co383 Co 0.44693 0.93144 0.64979 0.0
O384 O 0.47411 0.98226 0.61596 0.0
C385 C 0.37188 0.90703 0.65268 0.0
C386 C 0.3685 0.90243 0.2352 0.0
C387 C 0.46423 0.99537 0.52718 0.0
O388 O 0.3733 0.91398 0.5299 0.0
O389 O 0.39811 0.91076 0.71805 0.0
O390 O 0.4489 0.93377 0.27755 0.0
O391 O 0.43802 0.91115 0.47491 0.0
Co392 Co 0.10943 0.49101 0.3898 0.0
O393 O 0.15226 0.5026 0.29632 0.0
O394 O 0.10078 0.45501 0.26764 0.0
C395 C 0.1134 0.54369 0.37584 0.0
O396 O 0.05895 0.46949 0.44881 0.0
Co397 Co 0.10431 0.52264 0.64976 0.0
O398 O 0.05349 0.49899 0.61592 0.0
C399 C 0.12872 0.47199 0.65265 0.0
C400 C 0.13332 0.47323 0.23517 0.0
C401 C 0.04038 0.47601 0.52714 0.0
O402 O 0.12177 0.46648 0.52988 0.0
O403 O 0.12499 0.4945 0.71802 0.0
O404 O 0.10199 0.5223 0.27751 0.0
O405 O 0.1246 0.53402 0.47489 0.0
Co406 Co 0.54474 0.62557 0.38981 0.0
O407 O 0.53315 0.65682 0.2963 0.0
O408 O 0.58074 0.65292 0.26766 0.0
C409 C 0.49207 0.57686 0.37585 0.0
O410 O 0.56627 0.59662 0.44884 0.0
Co411 Co 0.51311 0.58882 0.64976 0.0
O412 O 0.53675 0.56164 0.61592 0.0
C413 C 0.56376 0.66387 0.65265 0.0
C414 C 0.56252 0.66725 0.23517 0.0
C415 C 0.55974 0.57152 0.52715 0.0
O416 O 0.56927 0.66245 0.52988 0.0
O417 O 0.54125 0.63764 0.71801 0.0
O418 O 0.51346 0.58685 0.27753 0.0
O419 O 0.50173 0.59773 0.47489 0.0
Co420 Co 0.10943 0.62557 0.3898 0.0
O421 O 0.15226 0.65681 0.29631 0.0
O422 O 0.10078 0.65292 0.26764 0.0
C423 C 0.11339 0.57686 0.37585 0.0
O424 O 0.05895 0.59661 0.44883 0.0
Co425 Co 0.10431 0.58882 0.64977 0.0
O426 O 0.05349 0.56165 0.61595 0.0
C427 C 0.12873 0.66388 0.65263 0.0
C428 C 0.13332 0.66724 0.23516 0.0
C429 C 0.04038 0.57153 0.52716 0.0
O430 O 0.12178 0.66245 0.52987 0.0
O431 O 0.125 0.63765 0.71801 0.0
O432 O 0.10198 0.58684 0.27752 0.0
O433 O 0.1246 0.59773 0.47489 0.0
Co434 Co 0.41018 0.49101 0.3898 0.0
O435 O 0.37894 0.5026 0.29628 0.0
O436 O 0.38283 0.45501 0.26764 0.0
C437 C 0.45889 0.54368 0.37585 0.0
O438 O 0.43914 0.46949 0.44883 0.0
Co439 Co 0.44693 0.52263 0.64976 0.0
O440 O 0.47411 0.49899 0.61593 0.0
C441 C 0.37187 0.472 0.65261 0.0
C442 C 0.36851 0.47323 0.23514 0.0
C443 C 0.46423 0.47601 0.52715 0.0
O444 O 0.3733 0.46648 0.52985 0.0
O445 O 0.3981 0.4945 0.71799 0.0
O446 O 0.44891 0.52229 0.27753 0.0
O447 O 0.43802 0.53402 0.47489 0.0
Co448 Co 0.54474 0.92632 0.38979 0.0
O449 O 0.53315 0.88349 0.29629 0.0
O450 O 0.58073 0.93497 0.26762 0.0
C451 C 0.49206 0.92235 0.37585 0.0
O452 O 0.56626 0.9768 0.4488 0.0
Co453 Co 0.51312 0.93144 0.64975 0.0
O454 O 0.53676 0.98226 0.61591 0.0
C455 C 0.56375 0.90702 0.65262 0.0
C456 C 0.56252 0.90243 0.23514 0.0
C457 C 0.55975 0.99537 0.52712 0.0
O458 O 0.56928 0.91398 0.52986 0.0
O459 O 0.54125 0.91075 0.71799 0.0
O460 O 0.51345 0.93376 0.27751 0.0
O461 O 0.50173 0.91115 0.47488 0.0
Co462 Co 0.29939 0.43561 0.98107 0.0
O463 O 0.33063 0.47844 0.07457 0.0
O464 O 0.32674 0.42697 0.10323 0.0
C465 C 0.25068 0.43958 0.99504 0.0
O466 O 0.27043 0.38513 0.92205 0.0
Co467 Co 0.26263 0.43049 0.72112 0.0
O468 O 0.23546 0.37967 0.75495 0.0
C469 C 0.33769 0.4549 0.71823 0.0
C470 C 0.34107 0.45951 0.13571 0.0
C471 C 0.24534 0.36656 0.84373 0.0
O472 O 0.33626 0.44796 0.841 0.0
O473 O 0.31146 0.45118 0.65286 0.0
O474 O 0.26067 0.42817 0.09336 0.0
O475 O 0.27154 0.45078 0.89599 0.0
Co476 Co 0.60014 0.87092 0.9811 0.0
O477 O 0.5573 0.85934 0.07459 0.0
O478 O 0.60878 0.90692 0.10326 0.0
C479 C 0.59617 0.81825 0.99506 0.0
O480 O 0.65062 0.89245 0.92209 0.0
Co481 Co 0.60526 0.83929 0.72115 0.0
O482 O 0.65608 0.86294 0.75499 0.0
C483 C 0.58085 0.88994 0.71825 0.0
C484 C 0.57624 0.88871 0.13573 0.0
C485 C 0.66919 0.88593 0.84377 0.0
O486 O 0.58779 0.89546 0.84102 0.0
O487 O 0.58457 0.86743 0.65289 0.0
O488 O 0.60758 0.83964 0.09339 0.0
O489 O 0.58497 0.82792 0.89601 0.0
Co490 Co 0.16483 0.73636 0.98109 0.0
O491 O 0.17641 0.70512 0.07461 0.0
O492 O 0.12883 0.70901 0.10324 0.0
C493 C 0.2175 0.78507 0.99506 0.0
O494 O 0.1433 0.76532 0.92206 0.0
Co495 Co 0.19645 0.77311 0.72114 0.0
O496 O 0.17281 0.80029 0.75499 0.0
C497 C 0.14581 0.69806 0.71826 0.0
C498 C 0.14704 0.69469 0.13573 0.0
C499 C 0.14982 0.79041 0.84376 0.0
O500 O 0.14029 0.69949 0.84102 0.0
O501 O 0.16832 0.72429 0.65289 0.0
O502 O 0.19611 0.77509 0.09338 0.0
O503 O 0.20783 0.7642 0.89602 0.0
loop_
_geom_bond_atom_site_label_1
_geom_bond_atom_site_label_2
_geom_bond_distance
_geom_bond_site_symmetry_2
_ccdc_geom_bond_type
Co0 O1 2.216 . S
Co0 O2 2.091 . S
Co0 O4 2.004 . S
Co0 O10 2.021 . S
Co0 O12 2.137 . S
Co0 O13 2.244 . S
O1 Co0 2.216 . S
O1 C8 1.247 . S
O2 Co0 2.091 . S
O2 C8 1.261 . S
C3 O12 1.247 . S
C3 O13 1.272 . S
O4 Co0 2.004 . S
O4 C9 1.259 . S
Co5 O6 2.061 1_556 S
Co5 O11 2.052 . S
Co5 O13 2.135 1_556 S
O6 Co5 2.061 1_554 S
O6 C9 1.235 . S
C7 O10 1.238 . S
C7 O11 1.241 1_554 S
C8 O1 1.247 . S
C8 O2 1.261 . S
C9 O4 1.259 . S
C9 O6 1.235 . S
O10 Co0 2.021 . S
O10 C7 1.238 . S
O11 Co5 2.052 . S
O11 C7 1.241 1_556 S
O12 Co0 2.137 . S
O12 C3 1.247 . S
O13 Co0 2.244 . S
O13 C3 1.272 . S
O13 Co5 2.135 1_554 S
Co14 O15 2.216 . S
Co14 O16 2.091 . S
Co14 O18 2.004 . S
Co14 O24 2.021 . S
Co14 O26 2.137 . S
Co14 O27 2.244 . S
O15 Co14 2.216 . S
O15 C22 1.247 . S
O16 Co14 2.091 . S
O16 C22 1.261 . S
C17 O26 1.247 . S
C17 O27 1.272 . S
O18 Co14 2.004 . S
O18 C23 1.259 . S
Co19 O20 2.061 1_556 S
Co19 O25 2.052 . S
Co19 O27 2.135 1_556 S
O20 Co19 2.061 1_554 S
O20 C23 1.235 . S
C21 O24 1.238 . S
C21 O25 1.241 1_554 S
C22 O15 1.247 . S
C22 O16 1.261 . S
C23 O18 1.259 . S
C23 O20 1.235 . S
O24 Co14 2.021 . S
O24 C21 1.238 . S
O25 Co19 2.052 . S
O25 C21 1.241 1_556 S
O26 Co14 2.137 . S
O26 C17 1.247 . S
O27 Co14 2.244 . S
O27 C17 1.272 . S
O27 Co19 2.135 1_554 S
Co28 O29 2.216 . S
Co28 O30 2.091 . S
Co28 O32 2.004 . S
Co28 O38 2.021 . S
Co28 O40 2.137 . S
Co28 O41 2.244 . S
O29 Co28 2.216 . S
O29 C36 1.247 . S
O30 Co28 2.091 . S
O30 C36 1.261 . S
C31 O40 1.247 . S
C31 O41 1.272 . S
O32 Co28 2.004 . S
O32 C37 1.259 . S
Co33 O34 2.061 1_556 S
Co33 O39 2.052 . S
Co33 O41 2.135 1_556 S
O34 Co33 2.061 1_554 S
O34 C37 1.235 . S
C35 O38 1.238 . S
C35 O39 1.241 1_554 S
C36 O29 1.247 . S
C36 O30 1.261 . S
C37 O32 1.259 . S
C37 O34 1.235 . S
O38 Co28 2.021 . S
O38 C35 1.238 . S
O39 Co33 2.052 . S
O39 C35 1.241 1_556 S
O40 Co28 2.137 . S
O40 C31 1.247 . S
O41 Co28 2.244 . S
O41 C31 1.272 . S
O41 Co33 2.135 1_554 S
Co42 O43 2.216 . S
Co42 O44 2.091 . S
Co42 O46 2.004 . S
Co42 O52 2.021 . S
Co42 O54 2.137 . S
Co42 O55 2.244 . S
O43 Co42 2.216 . S
O43 C50 1.247 . S
O44 Co42 2.091 . S
O44 C50 1.261 . S
C45 O54 1.247 . S
C45 O55 1.272 . S
O46 Co42 2.004 . S
O46 C51 1.259 . S
Co47 O48 2.061 1_554 S
Co47 O53 2.052 . S
Co47 O55 2.135 1_554 S
O48 Co47 2.061 1_556 S
O48 C51 1.235 . S
C49 O52 1.238 . S
C49 O53 1.241 1_556 S
C50 O43 1.247 . S
C50 O44 1.261 . S
C51 O46 1.259 . S
C51 O48 1.235 . S
O52 Co42 2.021 . S
O52 C49 1.238 . S
O53 Co47 2.052 . S
O53 C49 1.241 1_554 S
O54 Co42 2.137 . S
O54 C45 1.247 . S
O55 Co42 2.244 . S
O55 C45 1.272 . S
O55 Co47 2.135 1_556 S
Co56 O57 2.216 . S
Co56 O58 2.091 . S
Co56 O60 2.004 . S
Co56 O66 2.021 . S
Co56 O68 2.137 . S
Co56 O69 2.244 . S
O57 Co56 2.216 . S
O57 C64 1.247 . S
O58 Co56 2.091 . S
O58 C64 1.261 . S
C59 O68 1.247 . S
C59 O69 1.272 . S
O60 Co56 2.004 . S
O60 C65 1.259 . S
Co61 O62 2.061 1_554 S
Co61 O67 2.052 . S
Co61 O69 2.135 1_554 S
O62 Co61 2.061 1_556 S
O62 C65 1.235 . S
C63 O66 1.238 . S
C63 O67 1.241 1_556 S
C64 O57 1.247 . S
C64 O58 1.261 . S
C65 O60 1.259 . S
C65 O62 1.235 . S
O66 Co56 2.021 . S
O66 C63 1.238 . S
O67 Co61 2.052 . S
O67 C63 1.241 1_554 S
O68 Co56 2.137 . S
O68 C59 1.247 . S
O69 Co56 2.244 . S
O69 C59 1.272 . S
O69 Co61 2.135 1_556 S
Co70 O71 2.216 . S
Co70 O72 2.091 . S
Co70 O74 2.004 . S
Co70 O80 2.021 . S
Co70 O82 2.137 . S
Co70 O83 2.244 . S
O71 Co70 2.216 . S
O71 C78 1.247 . S
O72 Co70 2.091 . S
O72 C78 1.261 . S
C73 O82 1.247 . S
C73 O83 1.272 . S
O74 Co70 2.004 . S
O74 C79 1.259 . S
Co75 O76 2.061 1_554 S
Co75 O81 2.052 . S
Co75 O83 2.135 1_554 S
O76 Co75 2.061 1_556 S
O76 C79 1.235 . S
C77 O80 1.238 . S
C77 O81 1.241 1_556 S
C78 O71 1.247 . S
C78 O72 1.261 . S
C79 O74 1.259 . S
C79 O76 1.235 . S
O80 Co70 2.021 . S
O80 C77 1.238 . S
O81 Co75 2.052 . S
O81 C77 1.241 1_554 S
O82 Co70 2.137 . S
O82 C73 1.247 . S
O83 Co70 2.244 . S
O83 C73 1.272 . S
O83 Co75 2.135 1_556 S
Co84 O85 2.216 . S
Co84 O86 2.091 . S
Co84 O88 2.004 . S
Co84 O94 2.021 . S
Co84 O96 2.137 . S
Co84 O97 2.244 . S
O85 Co84 2.216 . S
O85 C92 1.247 . S
O86 Co84 2.091 . S
O86 C92 1.261 . S
C87 O96 1.247 . S
C87 O97 1.272 . S
O88 Co84 2.004 . S
O88 C93 1.259 . S
Co89 O90 2.061 1_554 S
Co89 O95 2.052 . S
Co89 O97 2.135 1_554 S
O90 Co89 2.061 1_556 S
O90 C93 1.235 . S
C91 O94 1.238 . S
C91 O95 1.241 1_556 S
C92 O85 1.247 . S
C92 O86 1.261 . S
C93 O88 1.259 . S
C93 O90 1.235 . S
O94 Co84 2.021 . S
O94 C91 1.238 . S
O95 Co89 2.052 . S
O95 C91 1.241 1_554 S
O96 Co84 2.137 . S
O96 C87 1.247 . S
O97 Co84 2.244 . S
O97 C87 1.272 . S
O97 Co89 2.135 1_556 S
Co98 O99 2.216 . S
Co98 O100 2.091 . S
Co98 O102 2.004 . S
Co98 O108 2.021 . S
Co98 O110 2.137 . S
Co98 O111 2.244 . S
O99 Co98 2.216 . S
O99 C106 1.247 . S
O100 Co98 2.091 . S
O100 C106 1.261 . S
C101 O110 1.247 . S
C101 O111 1.272 . S
O102 Co98 2.004 . S
O102 C107 1.259 . S
Co103 O104 2.061 1_554 S
Co103 O109 2.052 . S
Co103 O111 2.135 1_554 S
O104 Co103 2.061 1_556 S
O104 C107 1.235 . S
C105 O108 1.238 . S
C105 O109 1.241 1_556 S
C106 O99 1.247 . S
C106 O100 1.261 . S
C107 O102 1.259 . S
C107 O104 1.235 . S
O108 Co98 2.021 . S
O108 C105 1.238 . S
O109 Co103 2.052 . S
O109 C105 1.241 1_554 S
O110 Co98 2.137 . S
O110 C101 1.247 . S
O111 Co98 2.244 . S
O111 C101 1.272 . S
O111 Co103 2.135 1_556 S
Co112 O113 2.216 . S
Co112 O114 2.091 . S
Co112 O116 2.004 . S
Co112 O122 2.021 . S
Co112 O124 2.137 . S
Co112 O125 2.244 . S
O113 Co112 2.216 . S
O113 C120 1.247 . S
O114 Co112 2.091 . S
O114 C120 1.261 . S
C115 O124 1.247 . S
C115 O125 1.272 . S
O116 Co112 2.004 . S
O116 C121 1.259 . S
Co117 O118 2.061 1_554 S
Co117 O123 2.052 . S
Co117 O125 2.135 1_554 S
O118 Co117 2.061 1_556 S
O118 C121 1.235 . S
C119 O122 1.238 . S
C119 O123 1.241 1_556 S
C120 O113 1.247 . S
C120 O114 1.261 . S
C121 O116 1.259 . S
C121 O118 1.235 . S
O122 Co112 2.021 . S
O122 C119 1.238 . S
O123 Co117 2.052 . S
O123 C119 1.241 1_554 S
O124 Co112 2.137 . S
O124 C115 1.247 . S
O125 Co112 2.244 . S
O125 C115 1.272 . S
O125 Co117 2.135 1_556 S
Co126 O127 2.216 . S
Co126 O128 2.091 . S
Co126 O130 2.004 . S
Co126 O136 2.021 . S
Co126 O138 2.137 . S
Co126 O139 2.244 . S
O127 Co126 2.216 . S
O127 C134 1.247 . S
O128 Co126 2.091 . S
O128 C134 1.261 . S
C129 O138 1.247 . S
C129 O139 1.272 . S
O130 Co126 2.004 . S
O130 C135 1.259 . S
Co131 O132 2.061 1_556 S
Co131 O137 2.052 . S
Co131 O139 2.135 1_556 S
O132 Co131 2.061 1_554 S
O132 C135 1.235 . S
C133 O136 1.238 . S
C133 O137 1.241 1_554 S
C134 O127 1.247 . S
C134 O128 1.261 . S
C135 O130 1.259 . S
C135 O132 1.235 . S
O136 Co126 2.021 . S
O136 C133 1.238 . S
O137 Co131 2.052 . S
O137 C133 1.241 1_556 S
O138 Co126 2.137 . S
O138 C129 1.247 . S
O139 Co126 2.244 . S
O139 C129 1.272 . S
O139 Co131 2.135 1_554 S
Co140 O141 2.216 . S
Co140 O142 2.091 . S
Co140 O144 2.004 . S
Co140 O150 2.021 . S
Co140 O152 2.137 . S
Co140 O153 2.244 . S
O141 Co140 2.216 . S
O141 C148 1.247 . S
O142 Co140 2.091 . S
O142 C148 1.261 . S
C143 O152 1.247 . S
C143 O153 1.272 . S
O144 Co140 2.004 . S
O144 C149 1.259 . S
Co145 O146 2.061 1_556 S
Co145 O151 2.052 . S
Co145 O153 2.135 1_556 S
O146 Co145 2.061 1_554 S
O146 C149 1.235 . S
C147 O150 1.238 . S
C147 O151 1.241 1_554 S
C148 O141 1.247 . S
C148 O142 1.261 . S
C149 O144 1.259 . S
C149 O146 1.235 . S
O150 Co140 2.021 . S
O150 C147 1.238 . S
O151 Co145 2.052 . S
O151 C147 1.241 1_556 S
O152 Co140 2.137 . S
O152 C143 1.247 . S
O153 Co140 2.244 . S
O153 C143 1.272 . S
O153 Co145 2.135 1_554 S
Co154 O155 2.216 . S
Co154 O156 2.091 . S
Co154 O158 2.004 . S
Co154 O164 2.021 . S
Co154 O166 2.137 . S
Co154 O167 2.244 . S
O155 Co154 2.216 . S
O155 C162 1.247 . S
O156 Co154 2.091 . S
O156 C162 1.261 . S
C157 O166 1.247 . S
C157 O167 1.272 . S
O158 Co154 2.004 . S
O158 C163 1.259 . S
Co159 O160 2.061 1_556 S
Co159 O165 2.052 . S
Co159 O167 2.135 1_556 S
O160 Co159 2.061 1_554 S
O160 C163 1.235 . S
C161 O164 1.238 . S
C161 O165 1.241 1_554 S
C162 O155 1.247 . S
C162 O156 1.261 . S
C163 O158 1.259 . S
C163 O160 1.235 . S
O164 Co154 2.021 . S
O164 C161 1.238 . S
O165 Co159 2.052 . S
O165 C161 1.241 1_556 S
O166 Co154 2.137 . S
O166 C157 1.247 . S
O167 Co154 2.244 . S
O167 C157 1.272 . S
O167 Co159 2.135 1_554 S
Co168 O169 2.216 . S
Co168 O170 2.091 . S
Co168 O172 2.004 . S
Co168 O178 2.021 . S
Co168 O180 2.137 . S
Co168 O181 2.244 . S
O169 Co168 2.216 . S
O169 C176 1.247 . S
O170 Co168 2.091 . S
O170 C176 1.261 . S
C171 O180 1.247 . S
C171 O181 1.272 . S
O172 Co168 2.004 . S
O172 C177 1.259 . S
Co173 O174 2.061 . S
Co173 O179 2.052 . S
Co173 O181 2.135 . S
O174 Co173 2.061 . S
O174 C177 1.235 . S
C175 O178 1.238 . S
C175 O179 1.241 . S
C176 O169 1.247 . S
C176 O170 1.261 . S
C177 O172 1.259 . S
C177 O174 1.235 . S
O178 Co168 2.021 . S
O178 C175 1.238 . S
O179 Co173 2.052 . S
O179 C175 1.241 . S
O180 Co168 2.137 . S
O180 C171 1.247 . S
O181 Co168 2.244 . S
O181 C171 1.272 . S
O181 Co173 2.135 . S
Co182 O183 2.216 . S
Co182 O184 2.091 . S
Co182 O186 2.004 . S
Co182 O192 2.021 . S
Co182 O194 2.137 . S
Co182 O195 2.244 . S
O183 Co182 2.216 . S
O183 C190 1.247 . S
O184 Co182 2.091 . S
O184 C190 1.261 . S
C185 O194 1.247 . S
C185 O195 1.272 . S
O186 Co182 2.004 . S
O186 C191 1.259 . S
Co187 O188 2.061 . S
Co187 O193 2.052 . S
Co187 O195 2.135 . S
O188 Co187 2.061 . S
O188 C191 1.235 . S
C189 O192 1.238 . S
C189 O193 1.241 . S
C190 O183 1.247 . S
C190 O184 1.261 . S
C191 O186 1.259 . S
C191 O188 1.235 . S
O192 Co182 2.021 . S
O192 C189 1.238 . S
O193 Co187 2.052 . S
O193 C189 1.241 . S
O194 Co182 2.137 . S
O194 C185 1.247 . S
O195 Co182 2.244 . S
O195 C185 1.272 . S
O195 Co187 2.135 . S
Co196 O197 2.216 . S
Co196 O198 2.091 . S
Co196 O200 2.004 . S
Co196 O206 2.021 . S
Co196 O208 2.137 . S
Co196 O209 2.244 . S
O197 Co196 2.216 . S
O197 C204 1.247 . S
O198 Co196 2.091 . S
O198 C204 1.261 . S
C199 O208 1.247 . S
C199 O209 1.272 . S
O200 Co196 2.004 . S
O200 C205 1.259 . S
Co201 O202 2.061 . S
Co201 O207 2.052 . S
Co201 O209 2.135 . S
O202 Co201 2.061 . S
O202 C205 1.235 . S
C203 O206 1.238 . S
C203 O207 1.241 . S
C204 O197 1.247 . S
C204 O198 1.261 . S
C205 O200 1.259 . S
C205 O202 1.235 . S
O206 Co196 2.021 . S
O206 C203 1.238 . S
O207 Co201 2.052 . S
O207 C203 1.241 . S
O208 Co196 2.137 . S
O208 C199 1.247 . S
O209 Co196 2.244 . S
O209 C199 1.272 . S
O209 Co201 2.135 . S
Co210 O211 2.216 1_554 S
Co210 O212 2.091 1_554 S
Co210 O214 2.004 . S
Co210 O220 2.021 . S
Co210 O222 2.137 1_554 S
Co210 O223 2.244 . S
O211 Co210 2.216 1_556 S
O211 C218 1.247 . S
O212 Co210 2.091 1_556 S
O212 C218 1.261 . S
C213 O222 1.247 1_554 S
C213 O223 1.272 . S
O214 Co210 2.004 . S
O214 C219 1.259 . S
Co215 O216 2.061 . S
Co215 O221 2.052 . S
Co215 O223 2.135 . S
O216 Co215 2.061 . S
O216 C219 1.235 . S
C217 O220 1.238 . S
C217 O221 1.241 . S
C218 O211 1.247 . S
C218 O212 1.261 . S
C219 O214 1.259 . S
C219 O216 1.235 . S
O220 Co210 2.021 . S
O220 C217 1.238 . S
O221 Co215 2.052 . S
O221 C217 1.241 . S
O222 Co210 2.137 1_556 S
O222 C213 1.247 1_556 S
O223 Co210 2.244 . S
O223 C213 1.272 . S
O223 Co215 2.135 . S
Co224 O225 2.216 1_554 S
Co224 O226 2.091 1_554 S
Co224 O228 2.004 . S
Co224 O234 2.021 . S
Co224 O236 2.137 1_554 S
Co224 O237 2.244 . S
O225 Co224 2.216 1_556 S
O225 C232 1.247 . S
O226 Co224 2.091 1_556 S
O226 C232 1.261 . S
C227 O236 1.247 1_554 S
C227 O237 1.272 . S
O228 Co224 2.004 . S
O228 C233 1.259 . S
Co229 O230 2.061 . S
Co229 O235 2.052 . S
Co229 O237 2.135 . S
O230 Co229 2.061 . S
O230 C233 1.235 . S
C231 O234 1.238 . S
C231 O235 1.241 . S
C232 O225 1.247 . S
C232 O226 1.261 . S
C233 O228 1.259 . S
C233 O230 1.235 . S
O234 Co224 2.021 . S
O234 C231 1.238 . S
O235 Co229 2.052 . S
O235 C231 1.241 . S
O236 Co224 2.137 1_556 S
O236 C227 1.247 1_556 S
O237 Co224 2.244 . S
O237 C227 1.272 . S
O237 Co229 2.135 . S
Co238 O239 2.216 1_554 S
Co238 O240 2.091 1_554 S
Co238 O242 2.004 . S
Co238 O248 2.021 . S
Co238 O250 2.137 1_554 S
Co238 O251 2.244 . S
O239 Co238 2.216 1_556 S
O239 C246 1.247 . S
O240 Co238 2.091 1_556 S
O240 C246 1.261 . S
C241 O250 1.247 1_554 S
C241 O251 1.272 . S
O242 Co238 2.004 . S
O242 C247 1.259 . S
Co243 O244 2.061 . S
Co243 O249 2.052 . S
Co243 O251 2.135 . S
O244 Co243 2.061 . S
O244 C247 1.235 . S
C245 O248 1.238 . S
C245 O249 1.241 . S
C246 O239 1.247 . S
C246 O240 1.261 . S
C247 O242 1.259 . S
C247 O244 1.235 . S
O248 Co238 2.021 . S
O248 C245 1.238 . S
O249 Co243 2.052 . S
O249 C245 1.241 . S
O250 Co238 2.137 1_556 S
O250 C241 1.247 1_556 S
O251 Co238 2.244 . S
O251 C241 1.272 . S
O251 Co243 2.135 . S
Co252 O253 2.216 1_554 S
Co252 O254 2.091 1_554 S
Co252 O256 2.004 . S
Co252 O262 2.021 . S
Co252 O264 2.137 1_554 S
Co252 O265 2.244 . S
O253 Co252 2.216 1_556 S
O253 C260 1.247 . S
O254 Co252 2.091 1_556 S
O254 C260 1.261 . S
C255 O264 1.247 1_554 S
C255 O265 1.272 . S
O256 Co252 2.004 . S
O256 C261 1.259 . S
Co257 O258 2.061 . S
Co257 O263 2.052 . S
Co257 O265 2.135 . S
O258 Co257 2.061 . S
O258 C261 1.235 . S
C259 O262 1.238 . S
C259 O263 1.241 . S
C260 O253 1.247 . S
C260 O254 1.261 . S
C261 O256 1.259 . S
C261 O258 1.235 . S
O262 Co252 2.021 . S
O262 C259 1.238 . S
O263 Co257 2.052 . S
O263 C259 1.241 . S
O264 Co252 2.137 1_556 S
O264 C255 1.247 1_556 S
O265 Co252 2.244 . S
O265 C255 1.272 . S
O265 Co257 2.135 . S
Co266 O267 2.216 1_554 S
Co266 O268 2.091 1_554 S
Co266 O270 2.004 . S
Co266 O276 2.021 . S
Co266 O278 2.137 1_554 S
Co266 O279 2.244 . S
O267 Co266 2.216 1_556 S
O267 C274 1.247 . S
O268 Co266 2.091 1_556 S
O268 C274 1.261 . S
C269 O278 1.247 1_554 S
C269 O279 1.272 . S
O270 Co266 2.004 . S
O270 C275 1.259 . S
Co271 O272 2.061 . S
Co271 O277 2.052 . S
Co271 O279 2.135 . S
O272 Co271 2.061 . S
O272 C275 1.235 . S
C273 O276 1.238 . S
C273 O277 1.241 . S
C274 O267 1.247 . S
C274 O268 1.261 . S
C275 O270 1.259 . S
C275 O272 1.235 . S
O276 Co266 2.021 . S
O276 C273 1.238 . S
O277 Co271 2.052 . S
O277 C273 1.241 . S
O278 Co266 2.137 1_556 S
O278 C269 1.247 1_556 S
O279 Co266 2.244 . S
O279 C269 1.272 . S
O279 Co271 2.135 . S
Co280 O281 2.216 1_554 S
Co280 O282 2.091 1_554 S
Co280 O284 2.004 . S
Co280 O290 2.021 . S
Co280 O292 2.137 1_554 S
Co280 O293 2.244 . S
O281 Co280 2.216 1_556 S
O281 C288 1.247 . S
O282 Co280 2.091 1_556 S
O282 C288 1.261 . S
C283 O292 1.247 1_554 S
C283 O293 1.272 . S
O284 Co280 2.004 . S
O284 C289 1.259 . S
Co285 O286 2.061 . S
Co285 O291 2.052 . S
Co285 O293 2.135 . S
O286 Co285 2.061 . S
O286 C289 1.235 . S
C287 O290 1.238 . S
C287 O291 1.241 . S
C288 O281 1.247 . S
C288 O282 1.261 . S
C289 O284 1.259 . S
C289 O286 1.235 . S
O290 Co280 2.021 . S
O290 C287 1.238 . S
O291 Co285 2.052 . S
O291 C287 1.241 . S
O292 Co280 2.137 1_556 S
O292 C283 1.247 1_556 S
O293 Co280 2.244 . S
O293 C283 1.272 . S
O293 Co285 2.135 . S
Co294 O295 2.216 . S
Co294 O296 2.091 . S
Co294 O298 2.004 . S
Co294 O304 2.021 . S
Co294 O306 2.137 . S
Co294 O307 2.244 . S
O295 Co294 2.216 . S
O295 C302 1.247 . S
O296 Co294 2.091 . S
O296 C302 1.261 . S
C297 O306 1.247 . S
C297 O307 1.272 . S
O298 Co294 2.004 . S
O298 C303 1.259 . S
Co299 O300 2.061 . S
Co299 O305 2.052 . S
Co299 O307 2.135 . S
O300 Co299 2.061 . S
O300 C303 1.235 . S
C301 O304 1.238 . S
C301 O305 1.241 . S
C302 O295 1.247 . S
C302 O296 1.261 . S
C303 O298 1.259 . S
C303 O300 1.235 . S
O304 Co294 2.021 . S
O304 C301 1.238 . S
O305 Co299 2.052 . S
O305 C301 1.241 . S
O306 Co294 2.137 . S
O306 C297 1.247 . S
O307 Co294 2.244 . S
O307 C297 1.272 . S
O307 Co299 2.135 . S
Co308 O309 2.216 . S
Co308 O310 2.091 . S
Co308 O312 2.004 . S
Co308 O318 2.021 . S
Co308 O320 2.137 . S
Co308 O321 2.244 . S
O309 Co308 2.216 . S
O309 C316 1.247 . S
O310 Co308 2.091 . S
O310 C316 1.261 . S
C311 O320 1.247 . S
C311 O321 1.272 . S
O312 Co308 2.004 . S
O312 C317 1.259 . S
Co313 O314 2.061 . S
Co313 O319 2.052 . S
Co313 O321 2.135 . S
O314 Co313 2.061 . S
O314 C317 1.235 . S
C315 O318 1.238 . S
C315 O319 1.241 . S
C316 O309 1.247 . S
C316 O310 1.261 . S
C317 O312 1.259 . S
C317 O314 1.235 . S
O318 Co308 2.021 . S
O318 C315 1.238 . S
O319 Co313 2.052 . S
O319 C315 1.241 . S
O320 Co308 2.137 . S
O320 C311 1.247 . S
O321 Co308 2.244 . S
O321 C311 1.272 . S
O321 Co313 2.135 . S
Co322 O323 2.216 . S
Co322 O324 2.091 . S
Co322 O326 2.004 . S
Co322 O332 2.021 . S
Co322 O334 2.137 . S
Co322 O335 2.244 . S
O323 Co322 2.216 . S
O323 C330 1.247 . S
O324 Co322 2.091 . S
O324 C330 1.261 . S
C325 O334 1.247 . S
C325 O335 1.272 . S
O326 Co322 2.004 . S
O326 C331 1.259 . S
Co327 O328 2.061 . S
Co327 O333 2.052 . S
Co327 O335 2.135 . S
O328 Co327 2.061 . S
O328 C331 1.235 . S
C329 O332 1.238 . S
C329 O333 1.241 . S
C330 O323 1.247 . S
C330 O324 1.261 . S
C331 O326 1.259 . S
C331 O328 1.235 . S
O332 Co322 2.021 . S
O332 C329 1.238 . S
O333 Co327 2.052 . S
O333 C329 1.241 . S
O334 Co322 2.137 . S
O334 C325 1.247 . S
O335 Co322 2.244 . S
O335 C325 1.272 . S
O335 Co327 2.135 . S
Co336 O337 2.216 1_556 S
Co336 O338 2.091 1_556 S
Co336 O340 2.004 . S
Co336 O346 2.021 . S
Co336 O348 2.137 1_556 S
Co336 O349 2.244 . S
O337 Co336 2.216 1_554 S
O337 C344 1.247 . S
O338 Co336 2.091 1_554 S
O338 C344 1.261 . S
C339 O348 1.247 1_556 S
C339 O349 1.272 . S
O340 Co336 2.004 . S
O340 C345 1.259 . S
Co341 O342 2.061 . S
Co341 O347 2.052 . S
Co341 O349 2.135 . S
O342 Co341 2.061 . S
O342 C345 1.235 . S
C343 O346 1.238 . S
C343 O347 1.241 . S
C344 O337 1.247 . S
C344 O338 1.261 . S
C345 O340 1.259 . S
C345 O342 1.235 . S
O346 Co336 2.021 . S
O346 C343 1.238 . S
O347 Co341 2.052 . S
O347 C343 1.241 . S
O348 Co336 2.137 1_554 S
O348 C339 1.247 1_554 S
O349 Co336 2.244 . S
O349 C339 1.272 . S
O349 Co341 2.135 . S
Co350 O351 2.216 1_556 S
Co350 O352 2.091 1_556 S
Co350 O354 2.004 . S
Co350 O360 2.021 . S
Co350 O362 2.137 1_556 S
Co350 O363 2.244 . S
O351 Co350 2.216 1_554 S
O351 C358 1.247 . S
O352 Co350 2.091 1_554 S
O352 C358 1.261 . S
C353 O362 1.247 1_556 S
C353 O363 1.272 . S
O354 Co350 2.004 . S
O354 C359 1.259 . S
Co355 O356 2.061 . S
Co355 O361 2.052 . S
Co355 O363 2.135 . S
O356 Co355 2.061 . S
O356 C359 1.235 . S
C357 O360 1.238 . S
C357 O361 1.241 . S
C358 O351 1.247 . S
C358 O352 1.261 . S
C359 O354 1.259 . S
C359 O356 1.235 . S
O360 Co350 2.021 . S
O360 C357 1.238 . S
O361 Co355 2.052 . S
O361 C357 1.241 . S
O362 Co350 2.137 1_554 S
O362 C353 1.247 1_554 S
O363 Co350 2.244 . S
O363 C353 1.272 . S
O363 Co355 2.135 . S
Co364 O365 2.216 1_556 S
Co364 O366 2.091 1_556 S
Co364 O368 2.004 . S
Co364 O374 2.021 . S
Co364 O376 2.137 1_556 S
Co364 O377 2.244 . S
O365 Co364 2.216 1_554 S
O365 C372 1.247 . S
O366 Co364 2.091 1_554 S
O366 C372 1.261 . S
C367 O376 1.247 1_556 S
C367 O377 1.272 . S
O368 Co364 2.004 . S
O368 C373 1.259 . S
Co369 O370 2.061 . S
Co369 O375 2.052 . S
Co369 O377 2.135 . S
O370 Co369 2.061 . S
O370 C373 1.235 . S
C371 O374 1.238 . S
C371 O375 1.241 . S
C372 O365 1.247 . S
C372 O366 1.261 . S
C373 O368 1.259 . S
C373 O370 1.235 . S
O374 Co364 2.021 . S
O374 C371 1.238 . S
O375 Co369 2.052 . S
O375 C371 1.241 . S
O376 Co364 2.137 1_554 S
O376 C367 1.247 1_554 S
O377 Co364 2.244 . S
O377 C367 1.272 . S
O377 Co369 2.135 . S
Co378 O379 2.216 . S
Co378 O380 2.091 . S
Co378 O382 2.004 . S
Co378 O388 2.021 . S
Co378 O390 2.137 . S
Co378 O391 2.244 . S
O379 Co378 2.216 . S
O379 C386 1.247 . S
O380 Co378 2.091 . S
O380 C386 1.261 . S
C381 O390 1.247 . S
C381 O391 1.272 . S
O382 Co378 2.004 . S
O382 C387 1.259 . S
Co383 O384 2.061 . S
Co383 O389 2.052 . S
Co383 O391 2.135 . S
O384 Co383 2.061 . S
O384 C387 1.235 . S
C385 O388 1.238 . S
C385 O389 1.241 . S
C386 O379 1.247 . S
C386 O380 1.261 . S
C387 O382 1.259 . S
C387 O384 1.235 . S
O388 Co378 2.021 . S
O388 C385 1.238 . S
O389 Co383 2.052 . S
O389 C385 1.241 . S
O390 Co378 2.137 . S
O390 C381 1.247 . S
O391 Co378 2.244 . S
O391 C381 1.272 . S
O391 Co383 2.135 . S
Co392 O393 2.216 . S
Co392 O394 2.091 . S
Co392 O396 2.004 . S
Co392 O402 2.021 . S
Co392 O404 2.137 . S
Co392 O405 2.244 . S
O393 Co392 2.216 . S
O393 C400 1.247 . S
O394 Co392 2.091 . S
O394 C400 1.261 . S
C395 O404 1.247 . S
C395 O405 1.272 . S
O396 Co392 2.004 . S
O396 C401 1.259 . S
Co397 O398 2.061 . S
Co397 O403 2.052 . S
Co397 O405 2.135 . S
O398 Co397 2.061 . S
O398 C401 1.235 . S
C399 O402 1.238 . S
C399 O403 1.241 . S
C400 O393 1.247 . S
C400 O394 1.261 . S
C401 O396 1.259 . S
C401 O398 1.235 . S
O402 Co392 2.021 . S
O402 C399 1.238 . S
O403 Co397 2.052 . S
O403 C399 1.241 . S
O404 Co392 2.137 . S
O404 C395 1.247 . S
O405 Co392 2.244 . S
O405 C395 1.272 . S
O405 Co397 2.135 . S
Co406 O407 2.216 . S
Co406 O408 2.091 . S
Co406 O410 2.004 . S
Co406 O416 2.021 . S
Co406 O418 2.137 . S
Co406 O419 2.244 . S
O407 Co406 2.216 . S
O407 C414 1.247 . S
O408 Co406 2.091 . S
O408 C414 1.261 . S
C409 O418 1.247 . S
C409 O419 1.272 . S
O410 Co406 2.004 . S
O410 C415 1.259 . S
Co411 O412 2.061 . S
Co411 O417 2.052 . S
Co411 O419 2.135 . S
O412 Co411 2.061 . S
O412 C415 1.235 . S
C413 O416 1.238 . S
C413 O417 1.241 . S
C414 O407 1.247 . S
C414 O408 1.261 . S
C415 O410 1.259 . S
C415 O412 1.235 . S
O416 Co406 2.021 . S
O416 C413 1.238 . S
O417 Co411 2.052 . S
O417 C413 1.241 . S
O418 Co406 2.137 . S
O418 C409 1.247 . S
O419 Co406 2.244 . S
O419 C409 1.272 . S
O419 Co411 2.135 . S
Co420 O421 2.216 . S
Co420 O422 2.091 . S
Co420 O424 2.004 . S
Co420 O430 2.021 . S
Co420 O432 2.137 . S
Co420 O433 2.244 . S
O421 Co420 2.216 . S
O421 C428 1.247 . S
O422 Co420 2.091 . S
O422 C428 1.261 . S
C423 O432 1.247 . S
C423 O433 1.272 . S
O424 Co420 2.004 . S
O424 C429 1.259 . S
Co425 O426 2.061 . S
Co425 O431 2.052 . S
Co425 O433 2.135 . S
O426 Co425 2.061 . S
O426 C429 1.235 . S
C427 O430 1.238 . S
C427 O431 1.241 . S
C428 O421 1.247 . S
C428 O422 1.261 . S
C429 O424 1.259 . S
C429 O426 1.235 . S
O430 Co420 2.021 . S
O430 C427 1.238 . S
O431 Co425 2.052 . S
O431 C427 1.241 . S
O432 Co420 2.137 . S
O432 C423 1.247 . S
O433 Co420 2.244 . S
O433 C423 1.272 . S
O433 Co425 2.135 . S
Co434 O435 2.216 . S
Co434 O436 2.091 . S
Co434 O438 2.004 . S
Co434 O444 2.021 . S
Co434 O446 2.137 . S
Co434 O447 2.244 . S
O435 Co434 2.216 . S
O435 C442 1.247 . S
O436 Co434 2.091 . S
O436 C442 1.261 . S
C437 O446 1.247 . S
C437 O447 1.272 . S
O438 Co434 2.004 . S
O438 C443 1.259 . S
Co439 O440 2.061 . S
Co439 O445 2.052 . S
Co439 O447 2.135 . S
O440 Co439 2.061 . S
O440 C443 1.235 . S
C441 O444 1.238 . S
C441 O445 1.241 . S
C442 O435 1.247 . S
C442 O436 1.261 . S
C443 O438 1.259 . S
C443 O440 1.235 . S
O444 Co434 2.021 . S
O444 C441 1.238 . S
O445 Co439 2.052 . S
O445 C441 1.241 . S
O446 Co434 2.137 . S
O446 C437 1.247 . S
O447 Co434 2.244 . S
O447 C437 1.272 . S
O447 Co439 2.135 . S
Co448 O449 2.216 . S
Co448 O450 2.091 . S
Co448 O452 2.004 . S
Co448 O458 2.021 . S
Co448 O460 2.137 . S
Co448 O461 2.244 . S
O449 Co448 2.216 . S
O449 C456 1.247 . S
O450 Co448 2.091 . S
O450 C456 1.261 . S
C451 O460 1.247 . S
C451 O461 1.272 . S
O452 Co448 2.004 . S
O452 C457 1.259 . S
Co453 O454 2.061 . S
Co453 O459 2.052 . S
Co453 O461 2.135 . S
O454 Co453 2.061 . S
O454 C457 1.235 . S
C455 O458 1.238 . S
C455 O459 1.241 . S
C456 O449 1.247 . S
C456 O450 1.261 . S
C457 O452 1.259 . S
C457 O454 1.235 . S
O458 Co448 2.021 . S
O458 C455 1.238 . S
O459 Co453 2.052 . S
O459 C455 1.241 . S
O460 Co448 2.137 . S
O460 C451 1.247 . S
O461 Co448 2.244 . S
O461 C451 1.272 . S
O461 Co453 2.135 . S
Co462 O463 2.216 1_556 S
Co462 O464 2.091 1_556 S
Co462 O466 2.004 . S
Co462 O472 2.021 . S
Co462 O474 2.137 1_556 S
Co462 O475 2.244 . S
O463 Co462 2.216 1_554 S
O463 C470 1.247 . S
O464 Co462 2.091 1_554 S
O464 C470 1.261 . S
C465 O474 1.247 1_556 S
C465 O475 1.272 . S
O466 Co462 2.004 . S
O466 C471 1.259 . S
Co467 O468 2.061 . S
Co467 O473 2.052 . S
Co467 O475 2.135 . S
O468 Co467 2.061 . S
O468 C471 1.235 . S
C469 O472 1.238 . S
C469 O473 1.241 . S
C470 O463 1.247 . S
C470 O464 1.261 . S
C471 O466 1.259 . S
C471 O468 1.235 . S
O472 Co462 2.021 . S
O472 C469 1.238 . S
O473 Co467 2.052 . S
O473 C469 1.241 . S
O474 Co462 2.137 1_554 S
O474 C465 1.247 1_554 S
O475 Co462 2.244 . S
O475 C465 1.272 . S
O475 Co467 2.135 . S
Co476 O477 2.216 1_556 S
Co476 O478 2.091 1_556 S
Co476 O480 2.004 . S
Co476 O486 2.021 . S
Co476 O488 2.137 1_556 S
Co476 O489 2.244 . S
O477 Co476 2.216 1_554 S
O477 C484 1.247 . S
O478 Co476 2.091 1_554 S
O478 C484 1.261 . S
C479 O488 1.247 1_556 S
C479 O489 1.272 . S
O480 Co476 2.004 . S
O480 C485 1.259 . S
Co481 O482 2.061 . S
Co481 O487 2.052 . S
Co481 O489 2.135 . S
O482 Co481 2.061 . S
O482 C485 1.235 . S
C483 O486 1.238 . S
C483 O487 1.241 . S
C484 O477 1.247 . S
C484 O478 1.261 . S
C485 O480 1.259 . S
C485 O482 1.235 . S
O486 Co476 2.021 . S
O486 C483 1.238 . S
O487 Co481 2.052 . S
O487 C483 1.241 . S
O488 Co476 2.137 1_554 S
O488 C479 1.247 1_554 S
O489 Co476 2.244 . S
O489 C479 1.272 . S
O489 Co481 2.135 . S
Co490 O491 2.216 1_556 S
Co490 O492 2.091 1_556 S
Co490 O494 2.004 . S
Co490 O500 2.021 . S
Co490 O502 2.137 1_556 S
Co490 O503 2.244 . S
O491 Co490 2.216 1_554 S
O491 C498 1.247 . S
O492 Co490 2.091 1_554 S
O492 C498 1.261 . S
C493 O502 1.247 1_556 S
C493 O503 1.272 . S
O494 Co490 2.004 . S
O494 C499 1.259 . S
Co495 O496 2.061 . S
Co495 O501 2.052 . S
Co495 O503 2.135 . S
O496 Co495 2.061 . S
O496 C499 1.235 . S
C497 O500 1.238 . S
C497 O501 1.241 . S
C498 O491 1.247 . S
C498 O492 1.261 . S
C499 O494 1.259 . S
C499 O496 1.235 . S
O500 Co490 2.021 . S
O500 C497 1.238 . S
O501 Co495 2.052 . S
O501 C497 1.241 . S
O502 Co490 2.137 1_554 S
O502 C493 1.247 1_554 S
O503 Co490 2.244 . S
O503 C493 1.272 . S
O503 Co495 2.135 . S
C78 C8 1.541 1_565 S
C50 C22 1.541 1_455 S
C36 C64 1.541 . S
C92 C162 1.541 1_565 S
C106 C134 1.541 1_455 S
C148 C120 1.541 . S
C176 C246 1.541 . S
C190 C218 1.541 . S
C204 C232 1.541 . S
C330 C260 1.541 . S
C274 C302 1.541 . S
C316 C288 1.541 . S
C414 C344 1.541 . S
C386 C358 1.541 . S
C400 C372 1.541 . S
C428 C498 1.541 . S
C442 C470 1.541 . S
C456 C484 1.541 . S
C77 C7 1.541 1_566 S
C21 C49 1.541 1_654 S
C63 C35 1.541 1_556 S
C91 C161 1.541 1_566 S
C105 C133 1.541 1_456 S
C147 C119 1.541 1_554 S
C175 C245 1.541 . S
C217 C189 1.541 . S
C231 C203 1.541 . S
C259 C329 1.541 . S
C273 C301 1.541 . S
C315 C287 1.541 . S
C413 C343 1.541 . S
C357 C385 1.541 . S
C371 C399 1.541 . S
C497 C427 1.541 . S
C469 C441 1.541 . S
C483 C455 1.541 . S
C233 C9 1.781 . S
C247 C23 1.781 . S
C219 C37 1.781 . S
C51 C373 1.781 . S
C65 C345 1.781 . S
C79 C359 1.781 . S
C93 C485 1.781 . S
C107 C499 1.781 . S
C121 C471 1.781 . S
C135 C289 1.781 . S
C261 C149 1.781 . S
C275 C163 1.781 . S
C401 C177 1.781 1_455 S
C191 C415 1.781 . S
C205 C387 1.781 1_545 S
C303 C457 1.781 1_545 S
C317 C429 1.781 1_655 S
C443 C331 1.781 . S
C3 C143 1.363 . S
C157 C17 1.363 . S
C129 C31 1.363 . S
C45 C115 1.363 . S
C59 C87 1.363 . S
C73 C101 1.363 . S
C171 C311 1.364 . S
C325 C185 1.364 . S
C297 C199 1.364 . S
C213 C283 1.364 . S
C227 C255 1.364 . S
C269 C241 1.363 . S
C339 C479 1.364 . S
C493 C353 1.363 . S
C367 C465 1.363 . S
C381 C451 1.364 . S
C423 C395 1.364 . S
C409 C437 1.364 . S
