# Generated by pormake.
# Topology wjh, (4)-cn, num edge types: 1
# Building blocks:
#     Node 0, Type 0, BuildingBlock: GALJAG_clean_sbu_0, # of connection points: 4
#     Node 1, Type 0, BuildingBlock: GALJAG_clean_sbu_0, # of connection points: 4
#     Node 2, Type 0, BuildingBlock: GALJAG_clean_sbu_0, # of connection points: 4
#     Node 3, Type 0, BuildingBlock: GALJAG_clean_sbu_0, # of connection points: 4
#     Node 4, Type 0, BuildingBlock: GALJAG_clean_sbu_0, # of connection points: 4
#     Node 5, Type 0, BuildingBlock: GALJAG_clean_sbu_0, # of connection points: 4
#     Node 6, Type 0, BuildingBlock: GALJAG_clean_sbu_0, # of connection points: 4
#     Node 7, Type 0, BuildingBlock: GALJAG_clean_sbu_0, # of connection points: 4
#     Node 8, Type 0, BuildingBlock: GALJAG_clean_sbu_0, # of connection points: 4
#     Node 9, Type 0, BuildingBlock: GALJAG_clean_sbu_0, # of connection points: 4
#     Node 10, Type 0, BuildingBlock: GALJAG_clean_sbu_0, # of connection points: 4
#     Node 11, Type 0, BuildingBlock: GALJAG_clean_sbu_0, # of connection points: 4
#     Edge 12, Type (0, 0), BuildingBlock: XIVTED_clean_linker_0, # of connection points: 2
#     Edge 13, Type (0, 0), BuildingBlock: XIVTED_clean_linker_0, # of connection points: 2
#     Edge 14, Type (0, 0), BuildingBlock: XIVTED_clean_linker_0, # of connection points: 2
#     Edge 15, Type (0, 0), BuildingBlock: XIVTED_clean_linker_0, # of connection points: 2
#     Edge 16, Type (0, 0), BuildingBlock: XIVTED_clean_linker_0, # of connection points: 2
#     Edge 17, Type (0, 0), BuildingBlock: XIVTED_clean_linker_0, # of connection points: 2
#     Edge 18, Type (0, 0), BuildingBlock: XIVTED_clean_linker_0, # of connection points: 2
#     Edge 19, Type (0, 0), BuildingBlock: XIVTED_clean_linker_0, # of connection points: 2
#     Edge 20, Type (0, 0), BuildingBlock: XIVTED_clean_linker_0, # of connection points: 2
#     Edge 21, Type (0, 0), BuildingBlock: XIVTED_clean_linker_0, # of connection points: 2
#     Edge 22, Type (0, 0), BuildingBlock: XIVTED_clean_linker_0, # of connection points: 2
#     Edge 23, Type (0, 0), BuildingBlock: XIVTED_clean_linker_0, # of connection points: 2
#     Edge 24, Type (0, 0), BuildingBlock: XIVTED_clean_linker_0, # of connection points: 2
#     Edge 25, Type (0, 0), BuildingBlock: XIVTED_clean_linker_0, # of connection points: 2
#     Edge 26, Type (0, 0), BuildingBlock: XIVTED_clean_linker_0, # of connection points: 2
#     Edge 27, Type (0, 0), BuildingBlock: XIVTED_clean_linker_0, # of connection points: 2
#     Edge 28, Type (0, 0), BuildingBlock: XIVTED_clean_linker_0, # of connection points: 2
#     Edge 29, Type (0, 0), BuildingBlock: XIVTED_clean_linker_0, # of connection points: 2
#     Edge 30, Type (0, 0), BuildingBlock: XIVTED_clean_linker_0, # of connection points: 2
#     Edge 31, Type (0, 0), BuildingBlock: XIVTED_clean_linker_0, # of connection points: 2
#     Edge 32, Type (0, 0), BuildingBlock: XIVTED_clean_linker_0, # of connection points: 2
#     Edge 33, Type (0, 0), BuildingBlock: XIVTED_clean_linker_0, # of connection points: 2
#     Edge 34, Type (0, 0), BuildingBlock: XIVTED_clean_linker_0, # of connection points: 2
#     Edge 35, Type (0, 0), BuildingBlock: XIVTED_clean_linker_0, # of connection points: 2
# Relax obj value: 0.053
# Max RMSD: 0.092
# Mean RMSD: 0.092
data_MOF--net-wjh--node1-GALJAG_clean_sbu_0--edge1-XIVTED_clean_linker_0
_symmetry_space_group_name_H-M    P1
_symmetry_Int_Tables_number       1
_symmetry_cell_setting            triclinic
loop_
_symmetry_equiv_pos_as_xyz
'x, y, z'
_cell_length_a     60.704236
_cell_length_b     60.581204
_cell_length_c     28.004895
_cell_angle_alpha  89.985733
_cell_angle_beta   90.052367
_cell_angle_gamma 119.9871
loop_
_atom_site_label
_atom_site_type_symbol
_atom_site_fract_x
_atom_site_fract_y
_atom_site_fract_z
_atom_type_partial_charge
In0 In 0.51224 0.14022 0.05781 0.0
O1 O 0.54727 0.16049 0.00932 0.0
O2 O 0.5108 0.1449 0.97732 0.0
C3 C 0.54388 0.15084 0.13314 0.0
C4 C 0.48318 0.08924 0.04924 0.0
C5 C 0.4855 0.16216 0.08712 0.0
O6 O 0.53992 0.16747 0.11431 0.0
O7 O 0.53312 0.12956 0.11234 0.0
O8 O 0.48666 0.14507 0.11079 0.0
O9 O 0.49711 0.16761 0.04767 0.0
C10 C 0.53456 0.15639 0.97137 0.0
O11 O 0.47359 0.10319 0.05698 0.0
O12 O 0.50702 0.10106 0.04514 0.0
In13 In 0.37451 0.52483 0.20596 0.0
O14 O 0.39801 0.55809 0.1556 0.0
O15 O 0.36599 0.52512 0.12684 0.0
C16 C 0.3949 0.54194 0.29307 0.0
C17 C 0.39161 0.49244 0.19019 0.0
C18 C 0.32841 0.51726 0.22925 0.0
O19 O 0.3985 0.55702 0.25883 0.0
O20 O 0.38178 0.51863 0.28274 0.0
O21 O 0.3319 0.49881 0.21987 0.0
O22 O 0.34772 0.53905 0.22427 0.0
C23 C 0.38474 0.54704 0.11913 0.0
O24 O 0.36818 0.48461 0.19637 0.0
O25 O 0.40593 0.51632 0.1915 0.0
In26 In 0.84888 0.36351 0.36994 0.0
O27 O 0.83374 0.38404 0.32306 0.0
O28 O 0.84117 0.35666 0.29054 0.0
C29 C 0.84396 0.387 0.44829 0.0
C30 C 0.89839 0.37935 0.35501 0.0
C31 C 0.81892 0.31382 0.39083 0.0
O32 O 0.82528 0.36832 0.42867 0.0
O33 O 0.86477 0.3947 0.42695 0.0
O34 O 0.83947 0.32765 0.41289 0.0
O35 O 0.81449 0.32478 0.35699 0.0
C36 C 0.83389 0.37272 0.28521 0.0
O37 O 0.88398 0.35856 0.37599 0.0
O38 O 0.88767 0.39145 0.34133 0.0
In39 In 0.47211 0.85567 0.53837 0.0
O40 O 0.43769 0.84213 0.48964 0.0
O41 O 0.47281 0.8502 0.45796 0.0
C42 C 0.45271 0.85369 0.62557 0.0
C43 C 0.50065 0.90667 0.53248 0.0
C44 C 0.48281 0.81848 0.55545 0.0
O45 O 0.43919 0.84802 0.58824 0.0
O46 O 0.47576 0.86052 0.61857 0.0
O47 O 0.50021 0.8409 0.54559 0.0
O48 O 0.46051 0.81498 0.55397 0.0
C49 C 0.44958 0.84315 0.45196 0.0
O50 O 0.5107 0.89277 0.53513 0.0
O51 O 0.47669 0.89473 0.53146 0.0
In52 In 0.60454 0.46558 0.70715 0.0
O53 O 0.57542 0.43373 0.65903 0.0
O54 O 0.60692 0.46531 0.626 0.0
C55 C 0.58991 0.44298 0.79336 0.0
C56 C 0.59113 0.50177 0.71068 0.0
C57 C 0.65145 0.47182 0.71348 0.0
O58 O 0.57913 0.43149 0.75514 0.0
O59 O 0.60765 0.46563 0.7878 0.0
O60 O 0.64732 0.49009 0.71986 0.0
O61 O 0.63215 0.45096 0.70205 0.0
C62 C 0.58679 0.44418 0.62065 0.0
O63 O 0.61219 0.50623 0.69354 0.0
O64 O 0.57704 0.47926 0.72499 0.0
In65 In 0.12701 0.61546 0.88633 0.0
O66 O 0.13591 0.59116 0.83665 0.0
O67 O 0.12439 0.61583 0.80526 0.0
C68 C 0.1387 0.60337 0.9715 0.0
C69 C 0.07618 0.59327 0.89411 0.0
C70 C 0.16414 0.66444 0.88817 0.0
O71 O 0.14031 0.59333 0.93304 0.0
O72 O 0.1313 0.61934 0.96668 0.0
O73 O 0.14148 0.65791 0.89916 0.0
O74 O 0.16746 0.64649 0.8745 0.0
C75 C 0.13119 0.59945 0.79886 0.0
O76 O 0.08958 0.6163 0.88147 0.0
O77 O 0.08844 0.58192 0.902 0.0
In78 In 0.83781 0.45692 0.87276 0.0
O79 O 0.87119 0.49754 0.88218 0.0
O80 O 0.87773 0.46625 0.89015 0.0
C81 C 0.79898 0.46419 0.84999 0.0
C82 C 0.82554 0.43355 0.95851 0.0
C83 C 0.8416 0.44007 0.78575 0.0
O84 O 0.82068 0.48268 0.86048 0.0
O85 O 0.79692 0.44249 0.85332 0.0
O86 O 0.82963 0.42491 0.81951 0.0
O87 O 0.85207 0.46335 0.79649 0.0
C88 C 0.88694 0.4901 0.89053 0.0
O89 O 0.82913 0.4235 0.92197 0.0
O90 O 0.82752 0.45506 0.95141 0.0
In91 In 0.36711 0.84804 0.04169 0.0
O92 O 0.36393 0.88404 0.05074 0.0
O93 O 0.40062 0.88757 0.04814 0.0
C94 C 0.31988 0.81028 0.02274 0.0
C95 C 0.37813 0.83604 0.12771 0.0
C96 C 0.38528 0.84815 0.95416 0.0
O97 O 0.32439 0.83261 0.03198 0.0
O98 O 0.33883 0.80707 0.02581 0.0
O99 O 0.39281 0.84158 0.9908 0.0
O100 O 0.36893 0.85474 0.962 0.0
C101 C 0.3878 0.89865 0.0515 0.0
O102 O 0.38943 0.83589 0.08996 0.0
O103 O 0.36084 0.84161 0.12182 0.0
In104 In 0.50174 0.36194 0.20443 0.0
O105 O 0.46516 0.36409 0.20841 0.0
O106 O 0.49973 0.39762 0.19059 0.0
C107 C 0.48241 0.31124 0.20218 0.0
C108 C 0.52176 0.3759 0.29282 0.0
C109 C 0.5258 0.37346 0.11918 0.0
O110 O 0.46978 0.3216 0.18928 0.0
O111 O 0.50451 0.32639 0.21752 0.0
O112 O 0.5374 0.38375 0.15756 0.0
O113 O 0.50261 0.35727 0.1243 0.0
C114 C 0.47612 0.38739 0.1973 0.0
O115 O 0.53547 0.38161 0.25583 0.0
O116 O 0.49814 0.36291 0.28513 0.0
In117 In 0.13646 0.51774 0.38317 0.0
O118 O 0.10201 0.47726 0.38889 0.0
O119 O 0.09625 0.50744 0.36562 0.0
C120 C 0.17643 0.51034 0.37801 0.0
C121 C 0.13855 0.53713 0.47084 0.0
C122 C 0.14513 0.5413 0.29806 0.0
O123 O 0.15393 0.49241 0.37138 0.0
O124 O 0.17841 0.5314 0.38952 0.0
O125 O 0.14579 0.55246 0.33666 0.0
O126 O 0.14023 0.51859 0.30275 0.0
C127 C 0.08654 0.48401 0.37439 0.0
O128 O 0.14128 0.54964 0.43308 0.0
O129 O 0.13499 0.51496 0.46435 0.0
In130 In 0.61284 0.14718 0.55932 0.0
O131 O 0.58799 0.15699 0.60593 0.0
O132 O 0.6187 0.15545 0.63911 0.0
C133 C 0.59799 0.14909 0.46934 0.0
C134 C 0.59188 0.09641 0.56707 0.0
C135 C 0.66141 0.18281 0.54359 0.0
O136 O 0.5935 0.15987 0.50364 0.0
O137 O 0.60927 0.13718 0.48092 0.0
O138 O 0.6554 0.16042 0.55603 0.0
O139 O 0.64321 0.18724 0.54206 0.0
C140 C 0.60004 0.159 0.644 0.0
O141 O 0.61572 0.1111 0.56761 0.0
O142 O 0.57899 0.10747 0.56416 0.0
In143 In 0.47703 0.62433 0.70798 0.0
O144 O 0.4971 0.60699 0.74807 0.0
O145 O 0.51367 0.62542 0.68272 0.0
C146 C 0.49308 0.67427 0.6967 0.0
C147 C 0.45197 0.61104 0.79198 0.0
C148 C 0.44899 0.60094 0.62906 0.0
O149 O 0.50595 0.66457 0.68146 0.0
O150 O 0.4731 0.65905 0.71875 0.0
O151 O 0.45794 0.59057 0.65572 0.0
O152 O 0.4529 0.62221 0.64373 0.0
C153 C 0.51447 0.6128 0.71787 0.0
O154 O 0.44217 0.59855 0.75405 0.0
O155 O 0.47398 0.63007 0.78702 0.0
H156 H 0.55555 0.18845 0.19931 0.0
H157 H 0.60217 0.12357 0.39333 0.0
H158 H 0.56054 0.12089 0.1733 0.0
H159 H 0.5796 0.17853 0.43073 0.0
H160 H 0.59252 0.12664 0.30999 0.0
H161 H 0.57055 0.18978 0.28127 0.0
C162 C 0.56027 0.1742 0.21057 0.0
C163 C 0.55677 0.15449 0.17958 0.0
C164 C 0.58965 0.13805 0.33633 0.0
C165 C 0.57362 0.15576 0.27306 0.0
C166 C 0.59513 0.13629 0.38399 0.0
C167 C 0.59151 0.1507 0.41907 0.0
C168 C 0.58059 0.15446 0.32335 0.0
C169 C 0.58246 0.16694 0.40481 0.0
C170 C 0.56859 0.17484 0.25741 0.0
C171 C 0.56291 0.13637 0.19608 0.0
N172 N 0.57731 0.16841 0.35794 0.0
N173 N 0.57094 0.1374 0.24169 0.0
H174 H 0.3953 0.51328 0.36768 0.0
H175 H 0.43579 0.62418 0.56046 0.0
H176 H 0.41382 0.58982 0.33085 0.0
H177 H 0.43802 0.5553 0.58881 0.0
H178 H 0.4227 0.60985 0.47841 0.0
H179 H 0.40687 0.52673 0.45058 0.0
C180 C 0.40196 0.53298 0.37702 0.0
C181 C 0.40368 0.55051 0.34235 0.0
C182 C 0.42593 0.59782 0.50263 0.0
C183 C 0.41658 0.56591 0.4373 0.0
C184 C 0.4332 0.60587 0.54959 0.0
C185 C 0.43801 0.59089 0.58149 0.0
C186 C 0.42326 0.57452 0.48749 0.0
C187 C 0.43449 0.56742 0.56538 0.0
C188 C 0.40852 0.54062 0.42436 0.0
C189 C 0.41236 0.57575 0.35643 0.0
N190 N 0.42735 0.55996 0.51945 0.0
N191 N 0.41835 0.58267 0.40293 0.0
H192 H 0.81178 0.39271 0.74658 0.0
H193 H 0.87966 0.4306 0.49202 0.0
H194 H 0.87227 0.46851 0.71278 0.0
H195 H 0.80513 0.36508 0.51291 0.0
H196 H 0.87903 0.44363 0.57446 0.0
H197 H 0.81124 0.38044 0.66288 0.0
C198 C 0.82507 0.40668 0.72163 0.0
C199 C 0.84211 0.43163 0.73653 0.0
C200 C 0.86271 0.42653 0.56087 0.0
C201 C 0.84155 0.41783 0.64109 0.0
C202 C 0.86303 0.41914 0.51382 0.0
C203 C 0.84239 0.39679 0.49565 0.0
C204 C 0.84177 0.41123 0.5902 0.0
C205 C 0.82138 0.38255 0.52548 0.0
C206 C 0.82462 0.39974 0.67388 0.0
C207 C 0.8588 0.44907 0.70274 0.0
N208 N 0.8217 0.38987 0.5715 0.0
N209 N 0.85816 0.44182 0.65665 0.0
H210 H 0.47638 0.85736 0.71024 0.0
H211 H 0.36627 0.85409 0.87008 0.0
H212 H 0.40602 0.84662 0.65101 0.0
H213 H 0.42546 0.84218 0.92781 0.0
H214 H 0.38214 0.85466 0.7897 0.0
H215 H 0.45965 0.85515 0.79046 0.0
C216 C 0.45739 0.85456 0.71415 0.0
C217 C 0.44254 0.85221 0.67398 0.0
C218 C 0.39161 0.85183 0.81992 0.0
C219 C 0.42336 0.84977 0.76563 0.0
C220 C 0.38263 0.85159 0.8658 0.0
C221 C 0.39463 0.84813 0.9056 0.0
C222 C 0.41293 0.84888 0.8138 0.0
C223 C 0.41566 0.84489 0.89804 0.0
C224 C 0.44784 0.8532 0.75994 0.0
C225 C 0.41806 0.8485 0.68108 0.0
N226 N 0.42425 0.84549 0.85298 0.0
N227 N 0.40926 0.84753 0.7261 0.0
H228 H 0.50547 0.35044 0.03413 0.0
H229 H 0.61296 0.46327 0.87853 0.0
H230 H 0.57241 0.41398 0.09527 0.0
H231 H 0.54977 0.3961 0.81715 0.0
H232 H 0.59948 0.44467 0.9579 0.0
H233 H 0.52255 0.36569 0.95444 0.0
C234 C 0.52391 0.3675 0.03077 0.0
C235 C 0.53749 0.38107 0.07137 0.0
C236 C 0.58862 0.4339 0.92712 0.0
C237 C 0.55706 0.39881 0.98008 0.0
C238 C 0.59626 0.44454 0.88176 0.0
C239 C 0.58234 0.43126 0.8412 0.0
C240 C 0.56676 0.40985 0.9321 0.0
C241 C 0.56098 0.40702 0.84748 0.0
C242 C 0.53364 0.3762 0.98521 0.0
C243 C 0.56131 0.40297 0.06491 0.0
N244 N 0.55374 0.39716 0.89212 0.0
N245 N 0.57024 0.4113 0.02008 0.0
H246 H 0.14966 0.58749 0.27598 0.0
H247 H 0.14957 0.56577 0.99356 0.0
H248 H 0.14818 0.52193 0.21217 0.0
H249 H 0.13954 0.62501 0.05729 0.0
H250 H 0.15496 0.55269 0.07344 0.0
H251 H 0.15183 0.60484 0.19597 0.0
C252 C 0.15001 0.57687 0.24516 0.0
C253 C 0.14852 0.55316 0.25061 0.0
C254 C 0.15173 0.56865 0.06991 0.0
C255 C 0.15096 0.57279 0.15921 0.0
C256 C 0.1487 0.57614 0.02434 0.0
C257 C 0.14389 0.59634 0.01891 0.0
C258 C 0.15 0.58153 0.11022 0.0
C259 C 0.14302 0.60918 0.05994 0.0
C260 C 0.15119 0.58673 0.19953 0.0
C261 C 0.14909 0.5402 0.20953 0.0
N262 N 0.14592 0.60149 0.10388 0.0
N263 N 0.15015 0.55012 0.16557 0.0
H264 H 0.44843 0.28031 0.13521 0.0
H265 H 0.47688 0.16705 0.18083 0.0
H266 H 0.49724 0.28113 0.24808 0.0
H267 H 0.4712 0.19246 0.03977 0.0
H268 H 0.4682 0.19912 0.21519 0.0
H269 H 0.44092 0.23823 0.11039 0.0
C270 C 0.45697 0.2713 0.15557 0.0
C271 C 0.47368 0.28418 0.19339 0.0
C272 C 0.46828 0.1972 0.17674 0.0
C273 C 0.46495 0.23632 0.16568 0.0
C274 C 0.4731 0.1789 0.15709 0.0
C275 C 0.47506 0.17741 0.10742 0.0
C276 C 0.46492 0.2137 0.14642 0.0
C277 C 0.47011 0.19325 0.07826 0.0
C278 C 0.45277 0.24744 0.14126 0.0
C279 C 0.48443 0.27184 0.21843 0.0
N280 N 0.46543 0.21093 0.09824 0.0
N281 N 0.47998 0.24858 0.20395 0.0
H282 H 0.28322 0.47285 0.24533 0.0
H283 H 0.22602 0.54632 0.39029 0.0
H284 H 0.32009 0.55452 0.26203 0.0
H285 H 0.17801 0.47016 0.33616 0.0
H286 H 0.26285 0.54636 0.35593 0.0
H287 H 0.24584 0.46882 0.28763 0.0
C288 C 0.28335 0.48988 0.2575 0.0
C289 C 0.3047 0.51405 0.25008 0.0
C290 C 0.2443 0.52953 0.35184 0.0
C291 C 0.26263 0.50956 0.29913 0.0
C292 C 0.22329 0.52943 0.37179 0.0
C293 C 0.19893 0.50832 0.36558 0.0
C294 C 0.24098 0.50839 0.32544 0.0
C295 C 0.19651 0.48687 0.34153 0.0
C296 C 0.26214 0.48757 0.28176 0.0
C297 C 0.30403 0.53552 0.2668 0.0
N298 N 0.21731 0.48752 0.32182 0.0
N299 N 0.28343 0.53274 0.29073 0.0
H300 H 0.67334 0.22474 0.49118 0.0
H301 H 0.81937 0.28878 0.47254 0.0
H302 H 0.7066 0.18252 0.55176 0.0
H303 H 0.77275 0.28272 0.35117 0.0
H304 H 0.78167 0.2537 0.51118 0.0
H305 H 0.71336 0.2526 0.45113 0.0
C306 C 0.6892 0.22153 0.49662 0.0
C307 C 0.68668 0.20128 0.52476 0.0
C308 C 0.78002 0.25975 0.4756 0.0
C309 C 0.73248 0.23312 0.47881 0.0
C310 C 0.80143 0.27963 0.45349 0.0
C311 C 0.79902 0.28891 0.40894 0.0
C312 C 0.75628 0.24969 0.45316 0.0
C313 C 0.77539 0.27643 0.38581 0.0
C314 C 0.7119 0.23726 0.4733 0.0
C315 C 0.70786 0.19796 0.53024 0.0
N316 N 0.7548 0.25786 0.40867 0.0
N317 N 0.73012 0.21391 0.50758 0.0
H318 H 0.52768 0.81714 0.55513 0.0
H319 H 0.47017 0.69916 0.73264 0.0
H320 H 0.44914 0.77488 0.59959 0.0
H321 H 0.52699 0.70749 0.63037 0.0
H322 H 0.47112 0.73672 0.69925 0.0
H323 H 0.53493 0.78468 0.59408 0.0
C324 C 0.51201 0.80102 0.57271 0.0
C325 C 0.48776 0.7986 0.57404 0.0
C326 C 0.48363 0.73052 0.6845 0.0
C327 C 0.4961 0.7624 0.61946 0.0
C328 C 0.48322 0.7092 0.70369 0.0
C329 C 0.49821 0.69999 0.68367 0.0
C330 C 0.49916 0.74283 0.64504 0.0
C331 C 0.515 0.71394 0.64654 0.0
C332 C 0.51618 0.78267 0.59492 0.0
C333 C 0.4681 0.77748 0.59742 0.0
N334 N 0.51483 0.73463 0.62783 0.0
N335 N 0.47278 0.76039 0.61954 0.0
H336 H 0.66434 0.43537 0.69968 0.0
H337 H 0.79711 0.50839 0.83841 0.0
H338 H 0.69379 0.51159 0.75462 0.0
H339 H 0.75373 0.42705 0.81594 0.0
H340 H 0.76291 0.51243 0.79957 0.0
H341 H 0.7016 0.43504 0.73083 0.0
C342 C 0.67885 0.45219 0.71779 0.0
C343 C 0.67588 0.47344 0.72503 0.0
C344 C 0.76097 0.49375 0.80337 0.0
C345 C 0.71846 0.47306 0.76151 0.0
C346 C 0.78036 0.49142 0.82564 0.0
C347 C 0.77817 0.46735 0.83051 0.0
C348 C 0.73955 0.47187 0.78549 0.0
C349 C 0.75619 0.44598 0.81313 0.0
C350 C 0.70005 0.45194 0.73587 0.0
C351 C 0.69536 0.49479 0.74848 0.0
N352 N 0.73784 0.44878 0.79125 0.0
N353 N 0.7158 0.49399 0.76636 0.0
H354 H 0.21278 0.68307 0.85889 0.0
H355 H 0.2741 0.80947 0.017 0.0
H356 H 0.16528 0.70343 0.94052 0.0
H357 H 0.31032 0.76559 0.98333 0.0
H358 H 0.23499 0.77654 0.97773 0.0
H359 H 0.25027 0.72081 0.88915 0.0
C360 C 0.21023 0.69576 0.88257 0.0
C361 C 0.18595 0.68995 0.89783 0.0
C362 C 0.25157 0.77426 0.97922 0.0
C363 C 0.22881 0.73298 0.9332 0.0
C364 C 0.27376 0.79289 0.0017 0.0
C365 C 0.29539 0.79014 0.00359 0.0
C366 C 0.25143 0.75323 0.95782 0.0
C367 C 0.29407 0.76844 0.983 0.0
C368 C 0.23164 0.7172 0.90009 0.0
C369 C 0.18374 0.70721 0.92815 0.0
N370 N 0.27257 0.75096 0.96074 0.0
N371 N 0.20501 0.72791 0.94547 0.0
H372 H 0.55705 0.16086 0.66594 0.0
H373 H 0.58434 0.17377 0.94766 0.0
H374 H 0.62475 0.16717 0.72945 0.0
H375 H 0.51118 0.15207 0.8857 0.0
H376 H 0.60197 0.17856 0.86719 0.0
H377 H 0.5425 0.1646 0.74547 0.0
C378 C 0.56896 0.16328 0.69657 0.0
C379 C 0.59204 0.16351 0.69115 0.0
C380 C 0.58211 0.17297 0.87122 0.0
C381 C 0.57553 0.16778 0.7822 0.0
C382 C 0.57208 0.17033 0.91713 0.0
C383 C 0.54622 0.16233 0.92334 0.0
C384 C 0.5662 0.16766 0.83127 0.0
C385 C 0.53119 0.15812 0.88252 0.0
C386 C 0.56062 0.16535 0.74196 0.0
C387 C 0.60674 0.16673 0.73206 0.0
N388 N 0.54136 0.16071 0.83825 0.0
N389 N 0.59819 0.16863 0.77587 0.0
H390 H 0.46903 0.63667 0.87603 0.0
H391 H 0.36084 0.52554 0.03473 0.0
H392 H 0.40704 0.5681 0.8159 0.0
H393 H 0.42469 0.5933 0.09292 0.0
H394 H 0.37499 0.54235 0.95418 0.0
H395 H 0.45064 0.62268 0.95521 0.0
C396 C 0.45142 0.61871 0.87946 0.0
C397 C 0.43963 0.60344 0.83932 0.0
C398 C 0.3858 0.55363 0.98456 0.0
C399 C 0.41847 0.58718 0.93022 0.0
C400 C 0.37771 0.54407 0.03057 0.0
C401 C 0.3917 0.558 0.07059 0.0
C402 C 0.40807 0.57728 0.97851 0.0
C403 C 0.41338 0.58189 0.06309 0.0
C404 C 0.44092 0.61072 0.92477 0.0
C405 C 0.41678 0.58042 0.84593 0.0
N406 N 0.42097 0.59069 0.01799 0.0
N407 N 0.40702 0.57289 0.8906 0.0
H408 H 0.81872 0.45226 0.0427 0.0
H409 H 0.83032 0.34868 0.20089 0.0
H410 H 0.8236 0.38901 0.98393 0.0
H411 H 0.82365 0.41061 0.26118 0.0
H412 H 0.824 0.36108 0.12141 0.0
H413 H 0.81658 0.4353 0.12291 0.0
C414 C 0.81907 0.43465 0.04665 0.0
C415 C 0.82152 0.42211 0.00661 0.0
C416 C 0.82371 0.37188 0.15198 0.0
C417 C 0.81927 0.40269 0.09832 0.0
C418 C 0.82732 0.3648 0.19742 0.0
C419 C 0.8277 0.37876 0.23766 0.0
C420 C 0.82063 0.39322 0.14657 0.0
C421 C 0.82358 0.39938 0.23106 0.0
C422 C 0.81789 0.425 0.09247 0.0
C423 C 0.82183 0.39936 0.01381 0.0
N424 N 0.82043 0.40613 0.1863 0.0
N425 N 0.82093 0.39049 0.05877 0.0
H426 H 0.4704 0.84169 0.36626 0.0
H427 H 0.35533 0.83313 0.21342 0.0
H428 H 0.40155 0.83279 0.42913 0.0
H429 H 0.41896 0.83061 0.1508 0.0
H430 H 0.37106 0.83118 0.29279 0.0
H431 H 0.45123 0.83601 0.2871 0.0
C432 C 0.45118 0.83836 0.3634 0.0
C433 C 0.43759 0.83786 0.40426 0.0
C434 C 0.38147 0.83081 0.26171 0.0
C435 C 0.41559 0.83151 0.31383 0.0
C436 C 0.37249 0.83191 0.21639 0.0
C437 C 0.38595 0.83218 0.17551 0.0
C438 C 0.40422 0.83021 0.26622 0.0
C439 C 0.40803 0.83051 0.18141 0.0
C440 C 0.44022 0.83509 0.31822 0.0
C441 C 0.41272 0.8334 0.39853 0.0
N442 N 0.41661 0.82984 0.22594 0.0
N443 N 0.4026 0.83061 0.35413 0.0
H444 H 0.54139 0.40176 0.59833 0.0
H445 H 0.5711 0.40939 0.31801 0.0
H446 H 0.61078 0.46054 0.53467 0.0
H447 H 0.49635 0.36217 0.37783 0.0
H448 H 0.58749 0.42507 0.39831 0.0
H449 H 0.52599 0.38379 0.51877 0.0
C450 C 0.5534 0.41083 0.56762 0.0
C451 C 0.57735 0.43273 0.57306 0.0
C452 C 0.56752 0.41122 0.39386 0.0
C453 C 0.55993 0.41224 0.48205 0.0
C454 C 0.55818 0.4022 0.34807 0.0
C455 C 0.53231 0.38453 0.34125 0.0
C456 C 0.5509 0.40235 0.43314 0.0
C457 C 0.51641 0.37588 0.38147 0.0
C458 C 0.5446 0.40061 0.52224 0.0
C459 C 0.59214 0.4437 0.53207 0.0
N460 N 0.52595 0.38488 0.42566 0.0
N461 N 0.58321 0.43334 0.48832 0.0
H462 H 0.14024 0.58184 0.49375 0.0
H463 H 0.14066 0.56107 0.77611 0.0
H464 H 0.13753 0.51561 0.5572 0.0
H465 H 0.12671 0.61782 0.7124 0.0
H466 H 0.14359 0.54643 0.69618 0.0
H467 H 0.1394 0.59769 0.57373 0.0
C468 C 0.13957 0.57069 0.52453 0.0
C469 C 0.13889 0.54735 0.51888 0.0
C470 C 0.13989 0.56209 0.69969 0.0
C471 C 0.13796 0.56536 0.6104 0.0
C472 C 0.13826 0.57048 0.74528 0.0
C473 C 0.13336 0.59064 0.75085 0.0
C474 C 0.13679 0.57407 0.65936 0.0
C475 C 0.13043 0.60215 0.7097 0.0
C476 C 0.13902 0.57971 0.57015 0.0
C477 C 0.138 0.53367 0.55996 0.0
N478 N 0.13222 0.59372 0.66568 0.0
N479 N 0.13759 0.54289 0.60399 0.0
H480 H 0.50096 0.05666 0.03521 0.0
H481 H 0.36582 0.92895 0.05441 0.0
H482 H 0.4315 0.0581 0.05987 0.0
H483 H 0.43843 0.93205 0.05279 0.0
H484 H 0.38826 0.97584 0.05315 0.0
H485 H 0.47701 0.01042 0.03656 0.0
C486 C 0.48058 0.0472 0.04073 0.0
C487 C 0.46819 0.0612 0.04755 0.0
C488 C 0.39918 0.96615 0.05327 0.0
C489 C 0.44052 0.00804 0.04945 0.0
C490 C 0.38642 0.93948 0.05407 0.0
C491 C 0.40031 0.92665 0.05359 0.0
C492 C 0.4259 0.97987 0.05173 0.0
C493 C 0.42693 0.94111 0.05307 0.0
C494 C 0.46689 0.02074 0.04168 0.0
C495 C 0.44174 0.04793 0.0545 0.0
N496 N 0.4388 0.96687 0.05197 0.0
N497 N 0.42871 0.02198 0.05534 0.0
H498 H 0.49625 0.43674 0.17004 0.0
H499 H 0.36709 0.44042 0.20111 0.0
H500 H 0.42552 0.37095 0.21243 0.0
H501 H 0.44006 0.5056 0.16735 0.0
H502 H 0.38664 0.4134 0.19882 0.0
H503 H 0.47453 0.46111 0.16273 0.0
C504 C 0.47609 0.42741 0.17781 0.0
C505 C 0.46268 0.40185 0.19218 0.0
C506 C 0.39827 0.43359 0.19161 0.0
C507 C 0.43759 0.4297 0.1839 0.0
C508 C 0.38713 0.44896 0.19275 0.0
C509 C 0.40206 0.47527 0.18473 0.0
C510 C 0.42443 0.4447 0.18225 0.0
C511 C 0.42789 0.48543 0.1741 0.0
C512 C 0.46366 0.44134 0.17356 0.0
C513 C 0.43655 0.39068 0.20146 0.0
N514 N 0.43825 0.47016 0.17338 0.0
N515 N 0.42482 0.40474 0.19736 0.0
H516 H 0.05346 0.49346 0.32641 0.0
H517 H 0.9292 0.36405 0.39871 0.0
H518 H 0.05763 0.43426 0.40461 0.0
H519 H 0.93055 0.41991 0.30127 0.0
H520 H 0.97598 0.38734 0.39887 0.0
H521 H 0.00819 0.46518 0.31526 0.0
C522 C 0.04478 0.47441 0.34126 0.0
C523 C 0.05923 0.46622 0.36682 0.0
C524 C 0.96596 0.39423 0.377 0.0
C525 C 0.00712 0.43356 0.35427 0.0
C526 C 0.93933 0.38094 0.37678 0.0
C527 C 0.92608 0.39029 0.35039 0.0
C528 C 0.97918 0.41695 0.35073 0.0
C529 C 0.94002 0.41221 0.3226 0.0
C530 C 0.01889 0.45818 0.33468 0.0
C531 C 0.04705 0.44127 0.38483 0.0
N532 N 0.96575 0.42488 0.32387 0.0
N533 N 0.02154 0.42581 0.37861 0.0
H534 H 0.48197 0.93883 0.52419 0.0
H535 H 0.61469 0.06696 0.56558 0.0
H536 H 0.55217 0.93836 0.54545 0.0
H537 H 0.54133 0.06217 0.56397 0.0
H538 H 0.59337 0.02046 0.55571 0.0
H539 H 0.50476 0.98478 0.53387 0.0
C540 C 0.50229 0.94846 0.53062 0.0
C541 C 0.5152 0.93475 0.53417 0.0
C542 C 0.58201 0.02965 0.55779 0.0
C543 C 0.54152 0.98762 0.54581 0.0
C544 C 0.59413 0.05611 0.56359 0.0
C545 C 0.57973 0.06839 0.56553 0.0
C546 C 0.55538 0.01555 0.55368 0.0
C547 C 0.55319 0.05352 0.56259 0.0
C548 C 0.5153 0.97475 0.53638 0.0
C549 C 0.54154 0.94827 0.54244 0.0
N550 N 0.54192 0.02795 0.55662 0.0
N551 N 0.55389 0.97405 0.54815 0.0
H552 H 0.55483 0.50026 0.76882 0.0
H553 H 0.54951 0.61607 0.65178 0.0
H554 H 0.60983 0.54726 0.66259 0.0
H555 H 0.51847 0.58542 0.79061 0.0
H556 H 0.5722 0.59195 0.65295 0.0
H557 H 0.54064 0.53128 0.77467 0.0
C558 C 0.56396 0.5172 0.74674 0.0
C559 C 0.58342 0.52119 0.715 0.0
C560 C 0.56075 0.59092 0.68342 0.0
C561 C 0.56717 0.5568 0.72129 0.0
C562 C 0.54787 0.60468 0.68282 0.0
C563 C 0.53186 0.60246 0.7209 0.0
C564 C 0.55727 0.57472 0.7221 0.0
C565 C 0.53037 0.58746 0.76025 0.0
C566 C 0.55596 0.535 0.75031 0.0
C567 C 0.59473 0.54355 0.68749 0.0
N568 N 0.5426 0.5739 0.75951 0.0
N569 N 0.58621 0.56046 0.69081 0.0
H570 H 0.04594 0.54615 0.93052 0.0
H571 H 0.91456 0.54183 0.87473 0.0
H572 H 0.04303 0.61014 0.86982 0.0
H573 H 0.92164 0.47793 0.92255 0.0
H574 H 0.96103 0.56909 0.88056 0.0
H575 H -8e-05 0.52288 0.93587 0.0
C576 C 0.03557 0.55535 0.91834 0.0
C577 C 0.0483 0.58002 0.89924 0.0
C578 C 0.95231 0.54914 0.89009 0.0
C579 C -0.00471 0.55331 0.90507 0.0
C580 C 0.92586 0.53364 0.88693 0.0
C581 C 0.91435 0.50759 0.89783 0.0
C582 C 0.96712 0.53842 0.90449 0.0
C583 C 0.92976 0.49787 0.91339 0.0
C584 C 0.00921 0.54203 0.92145 0.0
C585 C 0.03387 0.59107 0.88453 0.0
N586 N 0.9553 0.51325 0.91606 0.0
N587 N 0.00801 0.57753 0.88742 0.0
loop_
_geom_bond_atom_site_label_1
_geom_bond_atom_site_label_2
_geom_bond_distance
_geom_bond_site_symmetry_2
_ccdc_geom_bond_type
In0 O1 2.279 1_554 S
In0 O2 2.326 1_554 S
In0 O6 2.266 . S
In0 O7 2.326 . S
In0 O8 2.266 . S
In0 O9 2.326 . S
In0 O11 2.294 . S
In0 O12 2.326 . S
O1 In0 2.279 1_556 S
O1 C10 1.257 . S
O2 In0 2.326 1_556 S
O2 C10 1.252 . S
C3 O6 1.252 . S
C3 O7 1.260 . S
C4 O11 1.240 . S
C4 O12 1.252 . S
C5 O8 1.252 . S
C5 O9 1.260 . S
O6 In0 2.266 . S
O6 C3 1.252 . S
O7 In0 2.326 . S
O7 C3 1.260 . S
O8 In0 2.266 . S
O8 C5 1.252 . S
O9 In0 2.326 . S
O9 C5 1.260 . S
C10 O1 1.257 . S
C10 O2 1.252 . S
O11 In0 2.294 . S
O11 C4 1.240 . S
O12 In0 2.326 . S
O12 C4 1.252 . S
In13 O14 2.294 . S
In13 O15 2.326 . S
In13 O19 2.266 . S
In13 O20 2.326 . S
In13 O21 2.266 . S
In13 O22 2.326 . S
In13 O24 2.294 . S
In13 O25 2.326 . S
O14 In13 2.294 . S
O14 C23 1.240 . S
O15 In13 2.326 . S
O15 C23 1.252 . S
C16 O19 1.252 . S
C16 O20 1.260 . S
C17 O24 1.240 . S
C17 O25 1.252 . S
C18 O21 1.252 . S
C18 O22 1.260 . S
O19 In13 2.266 . S
O19 C16 1.252 . S
O20 In13 2.326 . S
O20 C16 1.260 . S
O21 In13 2.266 . S
O21 C18 1.252 . S
O22 In13 2.326 . S
O22 C18 1.260 . S
C23 O14 1.240 . S
C23 O15 1.252 . S
O24 In13 2.294 . S
O24 C17 1.240 . S
O25 In13 2.326 . S
O25 C17 1.252 . S
In26 O27 2.294 . S
In26 O28 2.326 . S
In26 O32 2.266 . S
In26 O33 2.326 . S
In26 O34 2.266 . S
In26 O35 2.326 . S
In26 O37 2.294 . S
In26 O38 2.326 . S
O27 In26 2.294 . S
O27 C36 1.240 . S
O28 In26 2.326 . S
O28 C36 1.252 . S
C29 O32 1.252 . S
C29 O33 1.260 . S
C30 O37 1.240 . S
C30 O38 1.252 . S
C31 O34 1.252 . S
C31 O35 1.260 . S
O32 In26 2.266 . S
O32 C29 1.252 . S
O33 In26 2.326 . S
O33 C29 1.260 . S
O34 In26 2.266 . S
O34 C31 1.252 . S
O35 In26 2.326 . S
O35 C31 1.260 . S
C36 O27 1.240 . S
C36 O28 1.252 . S
O37 In26 2.294 . S
O37 C30 1.240 . S
O38 In26 2.326 . S
O38 C30 1.252 . S
In39 O40 2.294 . S
In39 O41 2.326 . S
In39 O45 2.266 . S
In39 O46 2.326 . S
In39 O47 2.266 . S
In39 O48 2.326 . S
In39 O50 2.294 . S
In39 O51 2.326 . S
O40 In39 2.294 . S
O40 C49 1.240 . S
O41 In39 2.326 . S
O41 C49 1.252 . S
C42 O45 1.252 . S
C42 O46 1.260 . S
C43 O50 1.240 . S
C43 O51 1.252 . S
C44 O47 1.252 . S
C44 O48 1.260 . S
O45 In39 2.266 . S
O45 C42 1.252 . S
O46 In39 2.326 . S
O46 C42 1.260 . S
O47 In39 2.266 . S
O47 C44 1.252 . S
O48 In39 2.326 . S
O48 C44 1.260 . S
C49 O40 1.240 . S
C49 O41 1.252 . S
O50 In39 2.294 . S
O50 C43 1.240 . S
O51 In39 2.326 . S
O51 C43 1.252 . S
In52 O53 2.294 . S
In52 O54 2.326 . S
In52 O58 2.266 . S
In52 O59 2.326 . S
In52 O60 2.266 . S
In52 O61 2.326 . S
In52 O63 2.294 . S
In52 O64 2.326 . S
O53 In52 2.294 . S
O53 C62 1.240 . S
O54 In52 2.326 . S
O54 C62 1.252 . S
C55 O58 1.252 . S
C55 O59 1.260 . S
C56 O63 1.240 . S
C56 O64 1.252 . S
C57 O60 1.252 . S
C57 O61 1.260 . S
O58 In52 2.266 . S
O58 C55 1.252 . S
O59 In52 2.326 . S
O59 C55 1.260 . S
O60 In52 2.266 . S
O60 C57 1.252 . S
O61 In52 2.326 . S
O61 C57 1.260 . S
C62 O53 1.240 . S
C62 O54 1.252 . S
O63 In52 2.294 . S
O63 C56 1.240 . S
O64 In52 2.326 . S
O64 C56 1.252 . S
In65 O66 2.294 . S
In65 O67 2.326 . S
In65 O71 2.266 . S
In65 O72 2.326 . S
In65 O73 2.266 . S
In65 O74 2.326 . S
In65 O76 2.294 . S
In65 O77 2.326 . S
O66 In65 2.294 . S
O66 C75 1.240 . S
O67 In65 2.326 . S
O67 C75 1.252 . S
C68 O71 1.252 . S
C68 O72 1.260 . S
C69 O76 1.240 . S
C69 O77 1.252 . S
C70 O73 1.252 . S
C70 O74 1.260 . S
O71 In65 2.266 . S
O71 C68 1.252 . S
O72 In65 2.326 . S
O72 C68 1.260 . S
O73 In65 2.266 . S
O73 C70 1.252 . S
O74 In65 2.326 . S
O74 C70 1.260 . S
C75 O66 1.240 . S
C75 O67 1.252 . S
O76 In65 2.294 . S
O76 C69 1.240 . S
O77 In65 2.326 . S
O77 C69 1.252 . S
In78 O79 2.294 . S
In78 O80 2.326 . S
In78 O84 2.266 . S
In78 O85 2.326 . S
In78 O86 2.266 . S
In78 O87 2.326 . S
In78 O89 2.294 . S
In78 O90 2.326 . S
O79 In78 2.294 . S
O79 C88 1.240 . S
O80 In78 2.326 . S
O80 C88 1.252 . S
C81 O84 1.252 . S
C81 O85 1.260 . S
C82 O89 1.240 . S
C82 O90 1.252 . S
C83 O86 1.252 . S
C83 O87 1.260 . S
O84 In78 2.266 . S
O84 C81 1.252 . S
O85 In78 2.326 . S
O85 C81 1.260 . S
O86 In78 2.266 . S
O86 C83 1.252 . S
O87 In78 2.326 . S
O87 C83 1.260 . S
C88 O79 1.240 . S
C88 O80 1.252 . S
O89 In78 2.294 . S
O89 C82 1.240 . S
O90 In78 2.326 . S
O90 C82 1.252 . S
In91 O92 2.294 . S
In91 O93 2.326 . S
In91 O97 2.266 . S
In91 O98 2.326 . S
In91 O99 2.266 1_554 S
In91 O100 2.326 1_554 S
In91 O102 2.294 . S
In91 O103 2.326 . S
O92 In91 2.294 . S
O92 C101 1.240 . S
O93 In91 2.326 . S
O93 C101 1.252 . S
C94 O97 1.252 . S
C94 O98 1.260 . S
C95 O102 1.240 . S
C95 O103 1.252 . S
C96 O99 1.252 . S
C96 O100 1.260 . S
O97 In91 2.266 . S
O97 C94 1.252 . S
O98 In91 2.326 . S
O98 C94 1.260 . S
O99 In91 2.266 1_556 S
O99 C96 1.252 . S
O100 In91 2.326 1_556 S
O100 C96 1.260 . S
C101 O92 1.240 . S
C101 O93 1.252 . S
O102 In91 2.294 . S
O102 C95 1.240 . S
O103 In91 2.326 . S
O103 C95 1.252 . S
In104 O105 2.294 . S
In104 O106 2.326 . S
In104 O110 2.266 . S
In104 O111 2.326 . S
In104 O112 2.266 . S
In104 O113 2.326 . S
In104 O115 2.294 . S
In104 O116 2.326 . S
O105 In104 2.294 . S
O105 C114 1.240 . S
O106 In104 2.326 . S
O106 C114 1.252 . S
C107 O110 1.252 . S
C107 O111 1.260 . S
C108 O115 1.240 . S
C108 O116 1.252 . S
C109 O112 1.252 . S
C109 O113 1.260 . S
O110 In104 2.266 . S
O110 C107 1.252 . S
O111 In104 2.326 . S
O111 C107 1.260 . S
O112 In104 2.266 . S
O112 C109 1.252 . S
O113 In104 2.326 . S
O113 C109 1.260 . S
C114 O105 1.240 . S
C114 O106 1.252 . S
O115 In104 2.294 . S
O115 C108 1.240 . S
O116 In104 2.326 . S
O116 C108 1.252 . S
In117 O118 2.294 . S
In117 O119 2.326 . S
In117 O123 2.266 . S
In117 O124 2.326 . S
In117 O125 2.266 . S
In117 O126 2.326 . S
In117 O128 2.294 . S
In117 O129 2.326 . S
O118 In117 2.294 . S
O118 C127 1.240 . S
O119 In117 2.326 . S
O119 C127 1.252 . S
C120 O123 1.252 . S
C120 O124 1.260 . S
C121 O128 1.240 . S
C121 O129 1.252 . S
C122 O125 1.252 . S
C122 O126 1.260 . S
O123 In117 2.266 . S
O123 C120 1.252 . S
O124 In117 2.326 . S
O124 C120 1.260 . S
O125 In117 2.266 . S
O125 C122 1.252 . S
O126 In117 2.326 . S
O126 C122 1.260 . S
C127 O118 1.240 . S
C127 O119 1.252 . S
O128 In117 2.294 . S
O128 C121 1.240 . S
O129 In117 2.326 . S
O129 C121 1.252 . S
In130 O131 2.294 . S
In130 O132 2.326 . S
In130 O136 2.266 . S
In130 O137 2.326 . S
In130 O138 2.266 . S
In130 O139 2.326 . S
In130 O141 2.294 . S
In130 O142 2.326 . S
O131 In130 2.294 . S
O131 C140 1.240 . S
O132 In130 2.326 . S
O132 C140 1.252 . S
C133 O136 1.252 . S
C133 O137 1.260 . S
C134 O141 1.240 . S
C134 O142 1.252 . S
C135 O138 1.252 . S
C135 O139 1.260 . S
O136 In130 2.266 . S
O136 C133 1.252 . S
O137 In130 2.326 . S
O137 C133 1.260 . S
O138 In130 2.266 . S
O138 C135 1.252 . S
O139 In130 2.326 . S
O139 C135 1.260 . S
C140 O131 1.240 . S
C140 O132 1.252 . S
O141 In130 2.294 . S
O141 C134 1.240 . S
O142 In130 2.326 . S
O142 C134 1.252 . S
In143 O144 2.294 . S
In143 O145 2.326 . S
In143 O149 2.266 . S
In143 O150 2.326 . S
In143 O151 2.266 . S
In143 O152 2.326 . S
In143 O154 2.294 . S
In143 O155 2.326 . S
O144 In143 2.294 . S
O144 C153 1.240 . S
O145 In143 2.326 . S
O145 C153 1.252 . S
C146 O149 1.252 . S
C146 O150 1.260 . S
C147 O154 1.240 . S
C147 O155 1.252 . S
C148 O151 1.252 . S
C148 O152 1.260 . S
O149 In143 2.266 . S
O149 C146 1.252 . S
O150 In143 2.326 . S
O150 C146 1.260 . S
O151 In143 2.266 . S
O151 C148 1.252 . S
O152 In143 2.326 . S
O152 C148 1.260 . S
C153 O144 1.240 . S
C153 O145 1.252 . S
O154 In143 2.294 . S
O154 C147 1.240 . S
O155 In143 2.326 . S
O155 C147 1.252 . S
H156 C162 0.930 . S
H157 C166 0.930 . S
H158 C171 0.929 . S
H159 C169 0.929 . S
H160 C164 0.929 . S
H161 C170 0.929 . S
C162 H156 0.930 . S
C162 C163 1.367 . S
C162 C170 1.378 . S
C163 C162 1.367 . S
C163 C171 1.433 . S
C164 H160 0.929 . S
C164 C166 1.378 . S
C164 C168 1.350 . S
C165 C168 1.463 . S
C165 C170 1.350 . S
C165 N173 1.427 . S
C166 H157 0.930 . S
C166 C164 1.378 . S
C166 C167 1.367 . S
C167 C166 1.367 . S
C167 C169 1.433 . S
C168 C164 1.350 . S
C168 C165 1.463 . S
C168 N172 1.427 . S
C169 H159 0.929 . S
C169 C167 1.433 . S
C169 N172 1.384 . S
C170 H161 0.929 . S
C170 C162 1.378 . S
C170 C165 1.350 . S
C171 H158 0.929 . S
C171 C163 1.433 . S
C171 N173 1.384 . S
N172 C168 1.427 . S
N172 C169 1.384 . S
N173 C165 1.427 . S
N173 C171 1.384 . S
H174 C180 0.930 . S
H175 C184 0.930 . S
H176 C189 0.929 . S
H177 C187 0.929 . S
H178 C182 0.929 . S
H179 C188 0.929 . S
C180 H174 0.930 . S
C180 C181 1.367 . S
C180 C188 1.378 . S
C181 C180 1.367 . S
C181 C189 1.433 . S
C182 H178 0.929 . S
C182 C184 1.378 . S
C182 C186 1.350 . S
C183 C186 1.463 . S
C183 C188 1.350 . S
C183 N191 1.427 . S
C184 H175 0.930 . S
C184 C182 1.378 . S
C184 C185 1.367 . S
C185 C184 1.367 . S
C185 C187 1.433 . S
C186 C182 1.350 . S
C186 C183 1.463 . S
C186 N190 1.427 . S
C187 H177 0.929 . S
C187 C185 1.433 . S
C187 N190 1.384 . S
C188 H179 0.929 . S
C188 C180 1.378 . S
C188 C183 1.350 . S
C189 H176 0.929 . S
C189 C181 1.433 . S
C189 N191 1.384 . S
N190 C186 1.427 . S
N190 C187 1.384 . S
N191 C183 1.427 . S
N191 C189 1.384 . S
H192 C198 0.930 . S
H193 C202 0.930 . S
H194 C207 0.929 . S
H195 C205 0.929 . S
H196 C200 0.929 . S
H197 C206 0.929 . S
C198 H192 0.930 . S
C198 C199 1.367 . S
C198 C206 1.378 . S
C199 C198 1.367 . S
C199 C207 1.433 . S
C200 H196 0.929 . S
C200 C202 1.378 . S
C200 C204 1.350 . S
C201 C204 1.463 . S
C201 C206 1.350 . S
C201 N209 1.427 . S
C202 H193 0.930 . S
C202 C200 1.378 . S
C202 C203 1.367 . S
C203 C202 1.367 . S
C203 C205 1.433 . S
C204 C200 1.350 . S
C204 C201 1.463 . S
C204 N208 1.427 . S
C205 H195 0.929 . S
C205 C203 1.433 . S
C205 N208 1.384 . S
C206 H197 0.929 . S
C206 C198 1.378 . S
C206 C201 1.350 . S
C207 H194 0.929 . S
C207 C199 1.433 . S
C207 N209 1.384 . S
N208 C204 1.427 . S
N208 C205 1.384 . S
N209 C201 1.427 . S
N209 C207 1.384 . S
H210 C216 0.930 . S
H211 C220 0.930 . S
H212 C225 0.929 . S
H213 C223 0.929 . S
H214 C218 0.929 . S
H215 C224 0.929 . S
C216 H210 0.930 . S
C216 C217 1.367 . S
C216 C224 1.378 . S
C217 C216 1.367 . S
C217 C225 1.433 . S
C218 H214 0.929 . S
C218 C220 1.378 . S
C218 C222 1.350 . S
C219 C222 1.463 . S
C219 C224 1.350 . S
C219 N227 1.427 . S
C220 H211 0.930 . S
C220 C218 1.378 . S
C220 C221 1.367 . S
C221 C220 1.367 . S
C221 C223 1.433 . S
C222 C218 1.350 . S
C222 C219 1.463 . S
C222 N226 1.427 . S
C223 H213 0.929 . S
C223 C221 1.433 . S
C223 N226 1.384 . S
C224 H215 0.929 . S
C224 C216 1.378 . S
C224 C219 1.350 . S
C225 H212 0.929 . S
C225 C217 1.433 . S
C225 N227 1.384 . S
N226 C222 1.427 . S
N226 C223 1.384 . S
N227 C219 1.427 . S
N227 C225 1.384 . S
H228 C234 0.930 . S
H229 C238 0.930 . S
H230 C243 0.929 . S
H231 C241 0.929 . S
H232 C236 0.929 . S
H233 C242 0.929 . S
C234 H228 0.930 . S
C234 C235 1.367 . S
C234 C242 1.378 1_554 S
C235 C234 1.367 . S
C235 C243 1.433 . S
C236 H232 0.929 . S
C236 C238 1.378 . S
C236 C240 1.350 . S
C237 C240 1.463 . S
C237 C242 1.350 . S
C237 N245 1.427 1_556 S
C238 H229 0.930 . S
C238 C236 1.378 . S
C238 C239 1.367 . S
C239 C238 1.367 . S
C239 C241 1.433 . S
C240 C236 1.350 . S
C240 C237 1.463 . S
C240 N244 1.427 . S
C241 H231 0.929 . S
C241 C239 1.433 . S
C241 N244 1.384 . S
C242 H233 0.929 . S
C242 C234 1.378 1_556 S
C242 C237 1.350 . S
C243 H230 0.929 . S
C243 C235 1.433 . S
C243 N245 1.384 . S
N244 C240 1.427 . S
N244 C241 1.384 . S
N245 C237 1.427 1_554 S
N245 C243 1.384 . S
H246 C252 0.930 . S
H247 C256 0.930 1_556 S
H248 C261 0.929 . S
H249 C259 0.929 . S
H250 C254 0.929 . S
H251 C260 0.929 . S
C252 H246 0.930 . S
C252 C253 1.367 . S
C252 C260 1.378 . S
C253 C252 1.367 . S
C253 C261 1.433 . S
C254 H250 0.929 . S
C254 C256 1.378 . S
C254 C258 1.350 . S
C255 C258 1.463 . S
C255 C260 1.350 . S
C255 N263 1.427 . S
C256 H247 0.930 1_554 S
C256 C254 1.378 . S
C256 C257 1.367 . S
C257 C256 1.367 . S
C257 C259 1.433 . S
C258 C254 1.350 . S
C258 C255 1.463 . S
C258 N262 1.427 . S
C259 H249 0.929 . S
C259 C257 1.433 . S
C259 N262 1.384 . S
C260 H251 0.929 . S
C260 C252 1.378 . S
C260 C255 1.350 . S
C261 H248 0.929 . S
C261 C253 1.433 . S
C261 N263 1.384 . S
N262 C258 1.427 . S
N262 C259 1.384 . S
N263 C255 1.427 . S
N263 C261 1.384 . S
H264 C270 0.930 . S
H265 C274 0.930 . S
H266 C279 0.929 . S
H267 C277 0.929 . S
H268 C272 0.929 . S
H269 C278 0.929 . S
C270 H264 0.930 . S
C270 C271 1.367 . S
C270 C278 1.378 . S
C271 C270 1.367 . S
C271 C279 1.433 . S
C272 H268 0.929 . S
C272 C274 1.378 . S
C272 C276 1.350 . S
C273 C276 1.463 . S
C273 C278 1.350 . S
C273 N281 1.427 . S
C274 H265 0.930 . S
C274 C272 1.378 . S
C274 C275 1.367 . S
C275 C274 1.367 . S
C275 C277 1.433 . S
C276 C272 1.350 . S
C276 C273 1.463 . S
C276 N280 1.427 . S
C277 H267 0.929 . S
C277 C275 1.433 . S
C277 N280 1.384 . S
C278 H269 0.929 . S
C278 C270 1.378 . S
C278 C273 1.350 . S
C279 H266 0.929 . S
C279 C271 1.433 . S
C279 N281 1.384 . S
N280 C276 1.427 . S
N280 C277 1.384 . S
N281 C273 1.427 . S
N281 C279 1.384 . S
H282 C288 0.930 . S
H283 C292 0.930 . S
H284 C297 0.929 . S
H285 C295 0.929 . S
H286 C290 0.929 . S
H287 C296 0.929 . S
C288 H282 0.930 . S
C288 C289 1.367 . S
C288 C296 1.378 . S
C289 C288 1.367 . S
C289 C297 1.433 . S
C290 H286 0.929 . S
C290 C292 1.378 . S
C290 C294 1.350 . S
C291 C294 1.463 . S
C291 C296 1.350 . S
C291 N299 1.427 . S
C292 H283 0.930 . S
C292 C290 1.378 . S
C292 C293 1.367 . S
C293 C292 1.367 . S
C293 C295 1.433 . S
C294 C290 1.350 . S
C294 C291 1.463 . S
C294 N298 1.427 . S
C295 H285 0.929 . S
C295 C293 1.433 . S
C295 N298 1.384 . S
C296 H287 0.929 . S
C296 C288 1.378 . S
C296 C291 1.350 . S
C297 H284 0.929 . S
C297 C289 1.433 . S
C297 N299 1.384 . S
N298 C294 1.427 . S
N298 C295 1.384 . S
N299 C291 1.427 . S
N299 C297 1.384 . S
H300 C306 0.930 . S
H301 C310 0.930 . S
H302 C315 0.929 . S
H303 C313 0.929 . S
H304 C308 0.929 . S
H305 C314 0.929 . S
C306 H300 0.930 . S
C306 C307 1.367 . S
C306 C314 1.378 . S
C307 C306 1.367 . S
C307 C315 1.433 . S
C308 H304 0.929 . S
C308 C310 1.378 . S
C308 C312 1.350 . S
C309 C312 1.463 . S
C309 C314 1.350 . S
C309 N317 1.427 . S
C310 H301 0.930 . S
C310 C308 1.378 . S
C310 C311 1.367 . S
C311 C310 1.367 . S
C311 C313 1.433 . S
C312 C308 1.350 . S
C312 C309 1.463 . S
C312 N316 1.427 . S
C313 H303 0.929 . S
C313 C311 1.433 . S
C313 N316 1.384 . S
C314 H305 0.929 . S
C314 C306 1.378 . S
C314 C309 1.350 . S
C315 H302 0.929 . S
C315 C307 1.433 . S
C315 N317 1.384 . S
N316 C312 1.427 . S
N316 C313 1.384 . S
N317 C309 1.427 . S
N317 C315 1.384 . S
H318 C324 0.930 . S
H319 C328 0.930 . S
H320 C333 0.929 . S
H321 C331 0.929 . S
H322 C326 0.929 . S
H323 C332 0.929 . S
C324 H318 0.930 . S
C324 C325 1.367 . S
C324 C332 1.378 . S
C325 C324 1.367 . S
C325 C333 1.433 . S
C326 H322 0.929 . S
C326 C328 1.378 . S
C326 C330 1.350 . S
C327 C330 1.463 . S
C327 C332 1.350 . S
C327 N335 1.427 . S
C328 H319 0.930 . S
C328 C326 1.378 . S
C328 C329 1.367 . S
C329 C328 1.367 . S
C329 C331 1.433 . S
C330 C326 1.350 . S
C330 C327 1.463 . S
C330 N334 1.427 . S
C331 H321 0.929 . S
C331 C329 1.433 . S
C331 N334 1.384 . S
C332 H323 0.929 . S
C332 C324 1.378 . S
C332 C327 1.350 . S
C333 H320 0.929 . S
C333 C325 1.433 . S
C333 N335 1.384 . S
N334 C330 1.427 . S
N334 C331 1.384 . S
N335 C327 1.427 . S
N335 C333 1.384 . S
H336 C342 0.930 . S
H337 C346 0.930 . S
H338 C351 0.929 . S
H339 C349 0.929 . S
H340 C344 0.929 . S
H341 C350 0.929 . S
C342 H336 0.930 . S
C342 C343 1.367 . S
C342 C350 1.378 . S
C343 C342 1.367 . S
C343 C351 1.433 . S
C344 H340 0.929 . S
C344 C346 1.378 . S
C344 C348 1.350 . S
C345 C348 1.463 . S
C345 C350 1.350 . S
C345 N353 1.427 . S
C346 H337 0.930 . S
C346 C344 1.378 . S
C346 C347 1.367 . S
C347 C346 1.367 . S
C347 C349 1.433 . S
C348 C344 1.350 . S
C348 C345 1.463 . S
C348 N352 1.427 . S
C349 H339 0.929 . S
C349 C347 1.433 . S
C349 N352 1.384 . S
C350 H341 0.929 . S
C350 C342 1.378 . S
C350 C345 1.350 . S
C351 H338 0.929 . S
C351 C343 1.433 . S
C351 N353 1.384 . S
N352 C348 1.427 . S
N352 C349 1.384 . S
N353 C345 1.427 . S
N353 C351 1.384 . S
H354 C360 0.930 . S
H355 C364 0.930 . S
H356 C369 0.929 . S
H357 C367 0.929 . S
H358 C362 0.929 . S
H359 C368 0.929 . S
C360 H354 0.930 . S
C360 C361 1.367 . S
C360 C368 1.378 . S
C361 C360 1.367 . S
C361 C369 1.433 . S
C362 H358 0.929 . S
C362 C364 1.378 . S
C362 C366 1.350 1_554 S
C363 C366 1.463 . S
C363 C368 1.350 . S
C363 N371 1.427 . S
C364 H355 0.930 . S
C364 C362 1.378 . S
C364 C365 1.367 . S
C365 C364 1.367 . S
C365 C367 1.433 1_554 S
C366 C362 1.350 1_556 S
C366 C363 1.463 . S
C366 N370 1.427 . S
C367 H357 0.929 . S
C367 C365 1.433 1_556 S
C367 N370 1.384 . S
C368 H359 0.929 . S
C368 C360 1.378 . S
C368 C363 1.350 . S
C369 H356 0.929 . S
C369 C361 1.433 . S
C369 N371 1.384 . S
N370 C366 1.427 . S
N370 C367 1.384 . S
N371 C363 1.427 . S
N371 C369 1.384 . S
H372 C378 0.930 . S
H373 C382 0.930 . S
H374 C387 0.929 . S
H375 C385 0.929 . S
H376 C380 0.929 . S
H377 C386 0.929 . S
C378 H372 0.930 . S
C378 C379 1.367 . S
C378 C386 1.378 . S
C379 C378 1.367 . S
C379 C387 1.433 . S
C380 H376 0.929 . S
C380 C382 1.378 . S
C380 C384 1.350 . S
C381 C384 1.463 . S
C381 C386 1.350 . S
C381 N389 1.427 . S
C382 H373 0.930 . S
C382 C380 1.378 . S
C382 C383 1.367 . S
C383 C382 1.367 . S
C383 C385 1.433 . S
C384 C380 1.350 . S
C384 C381 1.463 . S
C384 N388 1.427 . S
C385 H375 0.929 . S
C385 C383 1.433 . S
C385 N388 1.384 . S
C386 H377 0.929 . S
C386 C378 1.378 . S
C386 C381 1.350 . S
C387 H374 0.929 . S
C387 C379 1.433 . S
C387 N389 1.384 . S
N388 C384 1.427 . S
N388 C385 1.384 . S
N389 C381 1.427 . S
N389 C387 1.384 . S
H390 C396 0.930 . S
H391 C400 0.930 . S
H392 C405 0.929 . S
H393 C403 0.929 . S
H394 C398 0.919 1_556 S
H395 C404 0.929 . S
C396 H390 0.930 . S
C396 C397 1.367 . S
C396 C404 1.378 . S
C397 C396 1.367 . S
C397 C405 1.433 . S
C398 H394 0.919 1_554 S
C398 C400 1.393 . S
C398 C402 1.344 1_554 S
C399 C402 1.463 . S
C399 C404 1.350 . S
C399 N407 1.427 . S
C400 H391 0.930 . S
C400 C398 1.393 . S
C400 C401 1.367 . S
C401 C400 1.367 . S
C401 C403 1.433 . S
C402 C398 1.344 1_556 S
C402 C399 1.463 . S
C402 N406 1.427 1_556 S
C403 H393 0.929 . S
C403 C401 1.433 . S
C403 N406 1.384 . S
C404 H395 0.929 . S
C404 C396 1.378 . S
C404 C399 1.350 . S
C405 H392 0.929 . S
C405 C397 1.433 . S
C405 N407 1.384 . S
N406 C402 1.427 1_554 S
N406 C403 1.384 . S
N407 C399 1.427 . S
N407 C405 1.384 . S
H408 C414 0.930 . S
H409 C418 0.930 . S
H410 C423 0.929 . S
H411 C421 0.929 . S
H412 C416 0.929 . S
H413 C422 0.929 . S
C414 H408 0.930 . S
C414 C415 1.367 . S
C414 C422 1.378 . S
C415 C414 1.367 . S
C415 C423 1.433 . S
C416 H412 0.929 . S
C416 C418 1.378 . S
C416 C420 1.350 . S
C417 C420 1.463 . S
C417 C422 1.350 . S
C417 N425 1.427 . S
C418 H409 0.930 . S
C418 C416 1.378 . S
C418 C419 1.367 . S
C419 C418 1.367 . S
C419 C421 1.433 . S
C420 C416 1.350 . S
C420 C417 1.463 . S
C420 N424 1.427 . S
C421 H411 0.929 . S
C421 C419 1.433 . S
C421 N424 1.384 . S
C422 H413 0.929 . S
C422 C414 1.378 . S
C422 C417 1.350 . S
C423 H410 0.929 . S
C423 C415 1.433 . S
C423 N425 1.384 . S
N424 C420 1.427 . S
N424 C421 1.384 . S
N425 C417 1.427 . S
N425 C423 1.384 . S
H426 C432 0.930 . S
H427 C436 0.930 . S
H428 C441 0.929 . S
H429 C439 0.929 . S
H430 C434 0.929 . S
H431 C440 0.929 . S
C432 H426 0.930 . S
C432 C433 1.367 . S
C432 C440 1.378 . S
C433 C432 1.367 . S
C433 C441 1.433 . S
C434 H430 0.929 . S
C434 C436 1.378 . S
C434 C438 1.350 . S
C435 C438 1.463 . S
C435 C440 1.350 . S
C435 N443 1.427 . S
C436 H427 0.930 . S
C436 C434 1.378 . S
C436 C437 1.367 . S
C437 C436 1.367 . S
C437 C439 1.433 . S
C438 C434 1.350 . S
C438 C435 1.463 . S
C438 N442 1.427 . S
C439 H429 0.929 . S
C439 C437 1.433 . S
C439 N442 1.384 . S
C440 H431 0.929 . S
C440 C432 1.378 . S
C440 C435 1.350 . S
C441 H428 0.929 . S
C441 C433 1.433 . S
C441 N443 1.384 . S
N442 C438 1.427 . S
N442 C439 1.384 . S
N443 C435 1.427 . S
N443 C441 1.384 . S
H444 C450 0.930 . S
H445 C454 0.930 . S
H446 C459 0.929 . S
H447 C457 0.929 . S
H448 C452 0.929 . S
H449 C458 0.929 . S
C450 H444 0.930 . S
C450 C451 1.367 . S
C450 C458 1.378 . S
C451 C450 1.367 . S
C451 C459 1.433 . S
C452 H448 0.929 . S
C452 C454 1.378 . S
C452 C456 1.350 . S
C453 C456 1.463 . S
C453 C458 1.350 . S
C453 N461 1.427 . S
C454 H445 0.930 . S
C454 C452 1.378 . S
C454 C455 1.367 . S
C455 C454 1.367 . S
C455 C457 1.433 . S
C456 C452 1.350 . S
C456 C453 1.463 . S
C456 N460 1.427 . S
C457 H447 0.929 . S
C457 C455 1.433 . S
C457 N460 1.384 . S
C458 H449 0.929 . S
C458 C450 1.378 . S
C458 C453 1.350 . S
C459 H446 0.929 . S
C459 C451 1.433 . S
C459 N461 1.384 . S
N460 C456 1.427 . S
N460 C457 1.384 . S
N461 C453 1.427 . S
N461 C459 1.384 . S
H462 C468 0.930 . S
H463 C472 0.930 . S
H464 C477 0.929 . S
H465 C475 0.929 . S
H466 C470 0.929 . S
H467 C476 0.929 . S
C468 H462 0.930 . S
C468 C469 1.367 . S
C468 C476 1.378 . S
C469 C468 1.367 . S
C469 C477 1.433 . S
C470 H466 0.929 . S
C470 C472 1.378 . S
C470 C474 1.350 . S
C471 C474 1.463 . S
C471 C476 1.350 . S
C471 N479 1.427 . S
C472 H463 0.930 . S
C472 C470 1.378 . S
C472 C473 1.367 . S
C473 C472 1.367 . S
C473 C475 1.433 . S
C474 C470 1.350 . S
C474 C471 1.463 . S
C474 N478 1.427 . S
C475 H465 0.929 . S
C475 C473 1.433 . S
C475 N478 1.384 . S
C476 H467 0.929 . S
C476 C468 1.378 . S
C476 C471 1.350 . S
C477 H464 0.929 . S
C477 C469 1.433 . S
C477 N479 1.384 . S
N478 C474 1.427 . S
N478 C475 1.384 . S
N479 C471 1.427 . S
N479 C477 1.384 . S
H480 C486 0.930 . S
H481 C490 0.930 . S
H482 C495 0.929 . S
H483 C493 0.929 . S
H484 C488 0.929 . S
H485 C494 0.929 . S
C486 H480 0.930 . S
C486 C487 1.367 . S
C486 C494 1.378 . S
C487 C486 1.367 . S
C487 C495 1.433 . S
C488 H484 0.929 . S
C488 C490 1.378 . S
C488 C492 1.350 . S
C489 C492 1.463 1_545 S
C489 C494 1.350 . S
C489 N497 1.427 . S
C490 H481 0.930 . S
C490 C488 1.378 . S
C490 C491 1.367 . S
C491 C490 1.367 . S
C491 C493 1.433 . S
C492 C488 1.350 . S
C492 C489 1.463 1_565 S
C492 N496 1.427 . S
C493 H483 0.929 . S
C493 C491 1.433 . S
C493 N496 1.384 . S
C494 H485 0.929 . S
C494 C486 1.378 . S
C494 C489 1.350 . S
C495 H482 0.929 . S
C495 C487 1.433 . S
C495 N497 1.384 . S
N496 C492 1.427 . S
N496 C493 1.384 . S
N497 C489 1.427 . S
N497 C495 1.384 . S
H498 C504 0.930 . S
H499 C508 0.930 . S
H500 C513 0.929 . S
H501 C511 0.929 . S
H502 C506 0.929 . S
H503 C512 0.929 . S
C504 H498 0.930 . S
C504 C505 1.367 . S
C504 C512 1.378 . S
C505 C504 1.367 . S
C505 C513 1.433 . S
C506 H502 0.929 . S
C506 C508 1.378 . S
C506 C510 1.350 . S
C507 C510 1.463 . S
C507 C512 1.350 . S
C507 N515 1.427 . S
C508 H499 0.930 . S
C508 C506 1.378 . S
C508 C509 1.367 . S
C509 C508 1.367 . S
C509 C511 1.433 . S
C510 C506 1.350 . S
C510 C507 1.463 . S
C510 N514 1.427 . S
C511 H501 0.929 . S
C511 C509 1.433 . S
C511 N514 1.384 . S
C512 H503 0.929 . S
C512 C504 1.378 . S
C512 C507 1.350 . S
C513 H500 0.929 . S
C513 C505 1.433 . S
C513 N515 1.384 . S
N514 C510 1.427 . S
N514 C511 1.384 . S
N515 C507 1.427 . S
N515 C513 1.384 . S
H516 C522 0.930 . S
H517 C526 0.930 . S
H518 C531 0.929 . S
H519 C529 0.929 . S
H520 C524 0.929 . S
H521 C530 0.929 . S
C522 H516 0.930 . S
C522 C523 1.367 . S
C522 C530 1.378 . S
C523 C522 1.367 . S
C523 C531 1.433 . S
C524 H520 0.929 . S
C524 C526 1.378 . S
C524 C528 1.350 . S
C525 C528 1.463 1_455 S
C525 C530 1.350 . S
C525 N533 1.427 . S
C526 H517 0.930 . S
C526 C524 1.378 . S
C526 C527 1.367 . S
C527 C526 1.367 . S
C527 C529 1.433 . S
C528 C524 1.350 . S
C528 C525 1.463 1_655 S
C528 N532 1.427 . S
C529 H519 0.929 . S
C529 C527 1.433 . S
C529 N532 1.384 . S
C530 H521 0.929 . S
C530 C522 1.378 . S
C530 C525 1.350 . S
C531 H518 0.929 . S
C531 C523 1.433 . S
C531 N533 1.384 . S
N532 C528 1.427 . S
N532 C529 1.384 . S
N533 C525 1.427 . S
N533 C531 1.384 . S
H534 C540 0.930 . S
H535 C544 0.930 . S
H536 C549 0.929 . S
H537 C547 0.929 . S
H538 C542 0.929 . S
H539 C548 0.929 . S
C540 H534 0.930 . S
C540 C541 1.367 . S
C540 C548 1.378 . S
C541 C540 1.367 . S
C541 C549 1.433 . S
C542 H538 0.929 . S
C542 C544 1.378 . S
C542 C546 1.350 . S
C543 C546 1.463 1_565 S
C543 C548 1.350 . S
C543 N551 1.427 . S
C544 H535 0.930 . S
C544 C542 1.378 . S
C544 C545 1.367 . S
C545 C544 1.367 . S
C545 C547 1.433 . S
C546 C542 1.350 . S
C546 C543 1.463 1_545 S
C546 N550 1.427 . S
C547 H537 0.929 . S
C547 C545 1.433 . S
C547 N550 1.384 . S
C548 H539 0.929 . S
C548 C540 1.378 . S
C548 C543 1.350 . S
C549 H536 0.929 . S
C549 C541 1.433 . S
C549 N551 1.384 . S
N550 C546 1.427 . S
N550 C547 1.384 . S
N551 C543 1.427 . S
N551 C549 1.384 . S
H552 C558 0.930 . S
H553 C562 0.930 . S
H554 C567 0.929 . S
H555 C565 0.929 . S
H556 C560 0.929 . S
H557 C566 0.929 . S
C558 H552 0.930 . S
C558 C559 1.367 . S
C558 C566 1.378 . S
C559 C558 1.367 . S
C559 C567 1.433 . S
C560 H556 0.929 . S
C560 C562 1.378 . S
C560 C564 1.350 . S
C561 C564 1.463 . S
C561 C566 1.350 . S
C561 N569 1.427 . S
C562 H553 0.930 . S
C562 C560 1.378 . S
C562 C563 1.367 . S
C563 C562 1.367 . S
C563 C565 1.433 . S
C564 C560 1.350 . S
C564 C561 1.463 . S
C564 N568 1.427 . S
C565 H555 0.929 . S
C565 C563 1.433 . S
C565 N568 1.384 . S
C566 H557 0.929 . S
C566 C558 1.378 . S
C566 C561 1.350 . S
C567 H554 0.929 . S
C567 C559 1.433 . S
C567 N569 1.384 . S
N568 C564 1.427 . S
N568 C565 1.384 . S
N569 C561 1.427 . S
N569 C567 1.384 . S
H570 C576 0.930 . S
H571 C580 0.930 . S
H572 C585 0.929 . S
H573 C583 0.929 . S
H574 C578 0.929 . S
H575 C584 0.929 . S
C576 H570 0.930 . S
C576 C577 1.367 . S
C576 C584 1.378 . S
C577 C576 1.367 . S
C577 C585 1.433 . S
C578 H574 0.929 . S
C578 C580 1.378 . S
C578 C582 1.350 . S
C579 C582 1.463 1_455 S
C579 C584 1.350 . S
C579 N587 1.427 . S
C580 H571 0.930 . S
C580 C578 1.378 . S
C580 C581 1.367 . S
C581 C580 1.367 . S
C581 C583 1.433 . S
C582 C578 1.350 . S
C582 C579 1.463 1_655 S
C582 N586 1.427 . S
C583 H573 0.929 . S
C583 C581 1.433 . S
C583 N586 1.384 . S
C584 H575 0.929 . S
C584 C576 1.378 . S
C584 C579 1.350 . S
C585 H572 0.929 . S
C585 C577 1.433 . S
C585 N587 1.384 . S
N586 C582 1.427 . S
N586 C583 1.384 . S
N587 C579 1.427 . S
N587 C585 1.384 . S
C163 C3 1.135 . S
C167 C133 1.131 . S
C181 C16 1.131 . S
C185 C148 1.132 . S
C199 C83 1.135 . S
C203 C29 1.131 . S
C217 C42 1.134 . S
C221 C96 1.131 . S
C235 C109 1.131 . S
C239 C55 1.132 . S
C253 C122 1.136 . S
C257 C68 1.134 1_554 S
C271 C107 1.343 . S
C275 C5 1.343 . S
C289 C18 1.348 . S
C293 C120 1.344 . S
C307 C135 1.343 . S
C311 C31 1.345 . S
C325 C44 1.349 . S
C329 C146 1.347 . S
C343 C57 1.347 . S
C347 C81 1.349 . S
C361 C70 1.347 . S
C365 C94 1.349 . S
C379 C140 1.711 . S
C383 C10 1.708 . S
C397 C147 1.711 . S
C401 C23 1.708 . S
C415 C82 1.708 1_554 S
C419 C36 1.711 . S
C433 C49 1.708 . S
C437 C95 1.711 . S
C451 C62 1.708 . S
C455 C108 1.710 . S
C469 C121 1.708 . S
C473 C75 1.710 . S
C487 C4 1.425 . S
C491 C101 1.430 . S
C505 C114 1.424 . S
C509 C17 1.426 . S
C523 C127 1.426 . S
C527 C30 1.430 . S
C541 C43 1.427 . S
C545 C134 1.430 . S
C559 C56 1.425 . S
C563 C153 1.424 . S
C577 C69 1.427 . S
C581 C88 1.430 . S
