# Generated by pormake.
# Topology ske, (6)-cn, num edge types: 1
# Building blocks:
#     Node 0, Type 0, BuildingBlock: BETGAK_clean_sbu_0, # of connection points: 6
#     Node 1, Type 0, BuildingBlock: BETGAK_clean_sbu_0, # of connection points: 6
#     Node 2, Type 0, BuildingBlock: BETGAK_clean_sbu_0, # of connection points: 6
#     Node 3, Type 0, BuildingBlock: BETGAK_clean_sbu_0, # of connection points: 6
#     Node 4, Type 0, BuildingBlock: BETGAK_clean_sbu_0, # of connection points: 6
#     Node 5, Type 0, BuildingBlock: BETGAK_clean_sbu_0, # of connection points: 6
#     Node 6, Type 0, BuildingBlock: BETGAK_clean_sbu_0, # of connection points: 6
#     Node 7, Type 0, BuildingBlock: BETGAK_clean_sbu_0, # of connection points: 6
#     Edge 8, Type (0, 0), None
#     Edge 9, Type (0, 0), None
#     Edge 10, Type (0, 0), None
#     Edge 11, Type (0, 0), None
#     Edge 12, Type (0, 0), None
#     Edge 13, Type (0, 0), None
#     Edge 14, Type (0, 0), None
#     Edge 15, Type (0, 0), None
#     Edge 16, Type (0, 0), None
#     Edge 17, Type (0, 0), None
#     Edge 18, Type (0, 0), None
#     Edge 19, Type (0, 0), None
#     Edge 20, Type (0, 0), None
#     Edge 21, Type (0, 0), None
#     Edge 22, Type (0, 0), None
#     Edge 23, Type (0, 0), None
#     Edge 24, Type (0, 0), None
#     Edge 25, Type (0, 0), None
#     Edge 26, Type (0, 0), None
#     Edge 27, Type (0, 0), None
#     Edge 28, Type (0, 0), None
#     Edge 29, Type (0, 0), None
#     Edge 30, Type (0, 0), None
#     Edge 31, Type (0, 0), None
# Relax obj value: 0.178
# Max RMSD: 0.217
# Mean RMSD: 0.211
data_MOF--net-ske--node1-BETGAK_clean_sbu_0--edge1-none
_symmetry_space_group_name_H-M    P1
_symmetry_Int_Tables_number       1
_symmetry_cell_setting            triclinic
loop_
_symmetry_equiv_pos_as_xyz
'x, y, z'
_cell_length_a     70.665918
_cell_length_b     12.225897
_cell_length_c     6.8288672
_cell_angle_alpha  89.999881
_cell_angle_beta   89.977673
_cell_angle_gamma 84.664989
loop_
_atom_site_label
_atom_site_type_symbol
_atom_site_fract_x
_atom_site_fract_y
_atom_site_fract_z
_atom_type_partial_charge
La0 La 0.18456 0.28837 0.53249 0.0
La1 La 0.14084 0.32151 0.53256 0.0
C2 C 0.21944 0.31518 0.5035 0.0
C3 C 0.23792 0.30381 0.60894 0.0
C4 C 0.24878 0.20198 0.62859 0.0
C5 C 0.26703 0.19608 0.71129 0.0
C6 C 0.27485 0.2918 0.77556 0.0
C7 C 0.26385 0.39316 0.75754 0.0
C8 C 0.24569 0.39903 0.67484 0.0
C9 C 0.16713 0.10697 0.58283 0.0
C10 C 0.1627 0.30246 0.93277 0.0
C11 C 0.10587 0.30596 0.50627 0.0
C12 C 0.08508 0.30128 0.49378 0.0
C13 C 0.07271 0.39347 0.5431 0.0
C14 C 0.05301 0.38812 0.54117 0.0
C15 C 0.04511 0.29114 0.48585 0.0
C16 C 0.05764 0.19915 0.43368 0.0
C17 C 0.0774 0.20397 0.43937 0.0
C18 C 0.15861 0.50218 0.58631 0.0
C19 C 0.16265 0.30229 0.12662 0.0
O20 O 0.21205 0.22641 0.44289 0.0
O21 O 0.20651 0.39006 0.56977 0.0
O22 O 0.18361 0.12217 0.65633 0.0
O23 O 0.1618 0.18798 0.47614 0.0
O24 O 0.17863 0.31988 0.84124 0.0
O25 O 0.14681 0.2859 0.84003 0.0
O26 O 0.11404 0.39064 0.43967 0.0
O27 O 0.1175 0.22851 0.5862 0.0
O28 O 0.14225 0.48669 0.66132 0.0
O29 O 0.16361 0.42161 0.47781 0.0
O30 O 0.14626 0.29853 0.21911 0.0
O31 O 0.17904 0.30627 0.21873 0.0
H32 H 0.24333 0.1271 0.57756 0.0
H33 H 0.275 0.11641 0.72496 0.0
H34 H 0.26947 0.46868 0.80253 0.0
H35 H 0.23785 0.47896 0.65822 0.0
H36 H 0.07831 0.46904 0.58764 0.0
H37 H 0.04399 0.45939 0.58759 0.0
H38 H 0.05222 0.12349 0.38674 0.0
H39 H 0.0867 0.13195 0.39954 0.0
La40 La 0.88453 0.28851 0.53223 0.0
La41 La 0.92825 0.25541 0.53196 0.0
C42 C 0.84965 0.26168 0.50338 0.0
C43 C 0.83117 0.27307 0.60886 0.0
C44 C 0.82033 0.37493 0.62873 0.0
C45 C 0.80207 0.38085 0.71148 0.0
C46 C 0.79424 0.28512 0.77555 0.0
C47 C 0.80522 0.18374 0.75731 0.0
C48 C 0.82339 0.17784 0.67457 0.0
C49 C 0.90196 0.46993 0.58247 0.0
C50 C 0.90639 0.27444 0.93234 0.0
C51 C 0.96322 0.27102 0.50562 0.0
C52 C 0.98402 0.27565 0.49319 0.0
C53 C 0.99637 0.18347 0.54275 0.0
C54 C 1.01608 0.18881 0.54103 0.0
C55 C 1.02398 0.28576 0.48571 0.0
C56 C 1.01146 0.37773 0.43328 0.0
C57 C 0.9917 0.37292 0.43875 0.0
C58 C 0.91048 0.07472 0.58582 0.0
C59 C 0.90644 0.27461 0.1262 0.0
O60 O 0.85705 0.35044 0.44269 0.0
O61 O 0.86258 0.18683 0.56969 0.0
O62 O 0.88547 0.45471 0.65608 0.0
O63 O 0.90729 0.38893 0.47572 0.0
O64 O 0.89046 0.25701 0.84094 0.0
O65 O 0.92228 0.29101 0.83947 0.0
O66 O 0.95505 0.18634 0.43898 0.0
O67 O 0.95158 0.34846 0.58559 0.0
O68 O 0.92684 0.09022 0.66072 0.0
O69 O 0.90548 0.1553 0.47737 0.0
O70 O 0.92284 0.27838 0.21854 0.0
O71 O 0.89006 0.27062 0.21844 0.0
H72 H 0.82578 0.44982 0.57786 0.0
H73 H 0.7941 0.46054 0.72532 0.0
H74 H 0.79959 0.10822 0.80216 0.0
H75 H 0.83122 0.0979 0.65777 0.0
H76 H 0.99076 0.10793 0.58734 0.0
H77 H 1.02508 0.11756 0.58764 0.0
H78 H 1.01689 0.45337 0.38634 0.0
H79 H 0.98241 0.44494 0.39877 0.0
La80 La 0.14078 0.82011 0.64074 0.0
La81 La 0.18461 0.79064 0.64131 0.0
C82 C 0.10587 0.8033 0.66986 0.0
C83 C 0.08506 0.79957 0.68208 0.0
C84 C 0.0728 0.89171 0.63002 0.0
C85 C 0.05308 0.88707 0.63212 0.0
C86 C 0.04509 0.79084 0.68975 0.0
C87 C 0.0575 0.69889 0.74438 0.0
C88 C 0.07727 0.70307 0.73915 0.0
C89 C 0.15813 1.00224 0.58933 0.0
C90 C 0.16262 0.80256 1.04685 0.0
C91 C 0.21934 0.82251 0.66403 0.0
C92 C 0.23804 0.80457 0.56298 0.0
C93 C 0.25201 0.7254 0.63469 0.0
C94 C 0.27048 0.71665 0.55805 0.0
C95 C 0.27556 0.78772 0.40867 0.0
C96 C 0.26148 0.86595 0.33457 0.0
C97 C 0.24298 0.87448 0.41095 0.0
C98 C 0.16761 0.6071 0.59211 0.0
C99 C 0.16262 0.80221 0.24082 0.0
O100 O 0.11401 0.88868 0.73383 0.0
O101 O 0.11751 0.72562 0.59057 0.0
O102 O 0.1419 0.98564 0.51258 0.0
O103 O 0.16332 0.92178 0.69711 0.0
O104 O 0.14631 0.79621 0.95398 0.0
O105 O 0.17894 0.80993 0.95492 0.0
O106 O 0.21211 0.73734 0.74217 0.0
O107 O 0.20628 0.89197 0.58408 0.0
O108 O 0.18421 0.62257 0.52144 0.0
O109 O 0.16212 0.68868 0.69655 0.0
O110 O 0.17846 0.821 0.33253 0.0
O111 O 0.14678 0.78414 0.33344 0.0
H112 H 0.0785 0.96665 0.58339 0.0
H113 H 0.04413 0.95817 0.58398 0.0
H114 H 0.05197 0.6238 0.79274 0.0
H115 H 0.08649 0.63114 0.7811 0.0
H116 H 0.24883 0.67206 0.75459 0.0
H117 H 0.28095 0.65625 0.62049 0.0
H118 H 0.26476 0.92097 0.21759 0.0
H119 H 0.2327 0.93759 0.35356 0.0
La120 La 0.92829 0.75682 0.64018 0.0
La121 La 0.88446 0.78632 0.64107 0.0
C122 C 0.9632 0.77355 0.66918 0.0
C123 C 0.98401 0.77735 0.68149 0.0
C124 C 0.99628 0.68522 0.62953 0.0
C125 C 1.01599 0.68989 0.63183 0.0
C126 C 1.02397 0.78612 0.6896 0.0
C127 C 1.01155 0.87806 0.7441 0.0
C128 C 0.99178 0.87387 0.73865 0.0
C129 C 0.91094 0.57469 0.58885 0.0
C130 C 0.90645 0.77438 1.04646 0.0
C131 C 0.84973 0.75452 0.66401 0.0
C132 C 0.83103 0.77242 0.56297 0.0
C133 C 0.81705 0.85155 0.63473 0.0
C134 C 0.79858 0.86025 0.55808 0.0
C135 C 0.79352 0.7892 0.40865 0.0
C136 C 0.80761 0.71101 0.33452 0.0
C137 C 0.82611 0.70252 0.41089 0.0
C138 C 0.90147 0.96983 0.59175 0.0
C139 C 0.90645 0.77472 0.24042 0.0
O140 O 0.95506 0.68818 0.73315 0.0
O141 O 0.95157 0.85125 0.58995 0.0
O142 O 0.92718 0.59131 0.51199 0.0
O143 O 0.90575 0.65515 0.6967 0.0
O144 O 0.92276 0.78072 0.95345 0.0
O145 O 0.89013 0.76703 0.95465 0.0
O146 O 0.85696 0.83972 0.74195 0.0
O147 O 0.86278 0.68499 0.58415 0.0
O148 O 0.88487 0.95437 0.52115 0.0
O149 O 0.90695 0.88825 0.69616 0.0
O150 O 0.89061 0.75593 0.33226 0.0
O151 O 0.92229 0.79279 0.33292 0.0
H152 H 0.99059 0.61027 0.58284 0.0
H153 H 1.02496 0.61879 0.58377 0.0
H154 H 1.01707 0.95315 0.79256 0.0
H155 H 0.98255 0.94579 0.78054 0.0
H156 H 0.82022 0.90488 0.75465 0.0
H157 H 0.78811 0.92062 0.62056 0.0
H158 H 0.80435 0.656 0.2175 0.0
H159 H 0.8364 0.63944 0.35346 0.0
La160 La 0.68375 0.79442 1.03114 0.0
La161 La 0.64056 0.82693 1.04224 0.0
C162 C 0.7187 0.82284 1.05255 0.0
C163 C 0.73653 0.81137 0.16853 0.0
C164 C 0.74657 0.70826 0.20258 0.0
C165 C 0.76489 0.70093 0.28346 0.0
C166 C 0.77364 0.79643 0.33132 0.0
C167 C 0.76332 0.89922 0.30198 0.0
C168 C 0.74504 0.90647 0.22133 0.0
C169 C 0.66656 0.61098 1.01772 0.0
C170 C 0.66192 0.80803 0.44055 0.0
C171 C 0.6055 0.81095 1.01726 0.0
C172 C 0.58472 0.80456 1.00437 0.0
C173 C 0.57214 0.89149 1.07446 0.0
C174 C 0.5525 0.88532 1.06827 0.0
C175 C 0.54498 0.79206 0.99203 0.0
C176 C 0.55753 0.70477 0.92181 0.0
C177 C 0.57723 0.71109 0.92751 0.0
C178 C 0.6579 1.00968 1.05431 0.0
C179 C 0.66219 0.80847 0.63328 0.0
O180 O 0.71215 0.73407 0.98261 0.0
O181 O 0.70506 0.89647 0.1072 0.0
O182 O 0.68332 0.62077 0.94733 0.0
O183 O 0.66137 0.69625 0.11418 0.0
O184 O 0.67802 0.81733 0.34522 0.0
O185 O 0.64575 0.79478 0.35088 0.0
O186 O 0.61271 0.90163 1.06746 0.0
O187 O 0.61816 0.7287 0.97773 0.0
O188 O 0.64202 0.99668 0.14141 0.0
O189 O 0.66286 0.92501 0.95486 0.0
O190 O 0.64615 0.79953 0.72928 0.0
O191 O 0.67831 0.82318 0.72221 0.0
H192 H 0.74053 0.63325 0.16188 0.0
H193 H 0.77225 0.62031 0.30699 0.0
H194 H 0.76963 0.97456 0.33472 0.0
H195 H 0.73781 0.98704 0.19327 0.0
H196 H 0.57748 0.96381 0.13687 0.0
H197 H 0.54319 0.95221 0.12797 0.0
H198 H 0.5521 0.63198 0.86146 0.0
H199 H 0.58659 0.64287 0.87211 0.0
La200 La 0.38534 0.78246 1.0309 0.0
La201 La 0.42853 0.75001 1.04169 0.0
C202 C 0.3504 0.75394 1.05252 0.0
C203 C 0.33256 0.76544 0.16852 0.0
C204 C 0.32253 0.86856 0.20273 0.0
C205 C 0.30421 0.87592 0.28361 0.0
C206 C 0.29544 0.78045 0.33134 0.0
C207 C 0.30575 0.67763 0.30188 0.0
C208 C 0.32404 0.67035 0.22121 0.0
C209 C 0.40252 0.96594 1.01739 0.0
C210 C 0.40717 0.76889 0.44014 0.0
C211 C 0.4636 0.76589 1.01643 0.0
C212 C 0.48438 0.7724 1.00397 0.0
C213 C 0.49695 0.68541 1.07397 0.0
C214 C 0.51658 0.69159 1.06798 0.0
C215 C 0.52412 0.78487 0.9919 0.0
C216 C 0.51157 0.87215 0.9216 0.0
C217 C 0.49187 0.86583 0.92707 0.0
C218 C 0.41119 0.56723 1.05384 0.0
C219 C 0.4069 0.76845 0.63288 0.0
O220 O 0.35694 0.84268 0.98234 0.0
O221 O 0.36404 0.68039 0.10731 0.0
O222 O 0.38575 0.95613 0.94718 0.0
O223 O 0.40772 0.88066 0.11377 0.0
O224 O 0.39107 0.75957 0.34495 0.0
O225 O 0.42334 0.78216 0.35034 0.0
O226 O 0.45638 0.6753 1.06678 0.0
O227 O 0.45094 0.84823 0.97714 0.0
O228 O 0.42707 0.58024 0.14084 0.0
O229 O 0.40623 0.6519 0.95445 0.0
O230 O 0.42294 0.77741 0.72874 0.0
O231 O 0.39078 0.7537 0.72194 0.0
H232 H 0.32859 0.94356 0.16212 0.0
H233 H 0.29685 0.95656 0.30726 0.0
H234 H 0.29944 0.6023 0.33452 0.0
H235 H 0.33126 0.58977 0.19304 0.0
H236 H 0.49159 0.61309 0.1363 0.0
H237 H 0.52589 0.62469 0.12774 0.0
H238 H 0.51701 0.94496 0.86135 0.0
H239 H 0.48253 0.93405 0.87165 0.0
La240 La 0.64037 0.32693 0.09822 0.0
La241 La 0.68426 0.29548 0.09674 0.0
C242 C 0.60554 0.30973 0.12821 0.0
C243 C 0.58482 0.30464 0.14205 0.0
C244 C 0.57232 0.39536 0.08784 0.0
C245 C 0.55265 0.38891 0.09138 0.0
C246 C 0.54503 0.29216 0.15256 0.0
C247 C 0.55767 0.20207 0.21041 0.0
C248 C 0.57737 0.20808 0.20379 0.0
C249 C 0.65776 0.50647 1.03126 0.0
C250 C 0.66223 0.30999 0.50319 0.0
C251 C 0.71916 0.32059 0.12846 0.0
C252 C 0.73765 0.30401 1.02437 0.0
C253 C 0.75239 0.23255 0.10362 0.0
C254 C 0.77063 0.22537 1.0217 0.0
C255 C 0.77464 0.29039 0.85928 0.0
C256 C 0.75977 0.36055 0.77792 0.0
C257 C 0.74151 0.36736 0.85941 0.0
C258 C 0.66686 0.11408 1.05065 0.0
C259 C 0.66233 0.30906 0.69713 0.0
O260 O 0.61365 0.39455 0.19525 0.0
O261 O 0.61714 0.23311 1.04512 0.0
O262 O 0.64093 0.4917 0.96827 0.0
O263 O 0.66312 0.42828 0.14382 0.0
O264 O 0.64586 0.30497 0.41137 0.0
O265 O 0.67855 0.31561 0.41038 0.0
O266 O 0.71153 0.23348 0.1929 0.0
O267 O 0.70642 0.39546 1.05854 0.0
O268 O 0.68332 0.12827 0.9755 0.0
O269 O 0.66167 0.1958 0.15575 0.0
O270 O 0.67831 0.32623 0.78803 0.0
O271 O 0.64647 0.29139 0.79036 0.0
H272 H 0.5778 0.47034 1.03818 0.0
H273 H 0.54342 0.4588 1.04146 0.0
H274 H 0.55234 0.12714 0.26232 0.0
H275 H 0.58682 0.13768 0.24842 0.0
H276 H 0.74994 0.18429 0.23273 0.0
H277 H 0.78174 0.17118 0.08952 0.0
H278 H 0.76225 0.41043 0.65102 0.0
H279 H 0.73054 0.42399 0.79516 0.0
La280 La 0.42871 0.24999 0.09767 0.0
La281 La 0.38481 0.28148 0.09654 0.0
C282 C 0.46353 0.26709 0.12756 0.0
C283 C 0.48425 0.27226 0.14149 0.0
C284 C 0.49676 0.18151 0.08761 0.0
C285 C 0.51644 0.18797 0.09135 0.0
C286 C 0.52404 0.28477 0.15242 0.0
C287 C 0.51138 0.3749 0.20994 0.0
C288 C 0.49169 0.36887 0.2031 0.0
C289 C 0.41131 0.07047 1.03083 0.0
C290 C 0.40684 0.26696 0.50281 0.0
C291 C 0.34991 0.25641 0.1284 0.0
C292 C 0.33143 0.27298 1.02433 0.0
C293 C 0.31667 0.34436 0.1037 0.0
C294 C 0.29844 0.35152 1.02179 0.0
C295 C 0.29444 0.28656 0.85928 0.0
C296 C 0.30932 0.21648 0.77781 0.0
C297 C 0.32758 0.20969 0.85927 0.0
C298 C 0.40223 0.46286 1.05032 0.0
C299 C 0.40674 0.26788 0.69676 0.0
O300 O 0.45542 0.18228 0.19457 0.0
O301 O 0.45194 0.34374 1.04455 0.0
O302 O 0.42814 0.08524 0.9677 0.0
O303 O 0.40595 0.14865 0.14345 0.0
O304 O 0.42321 0.27196 0.41086 0.0
O305 O 0.39052 0.26136 0.41014 0.0
O306 O 0.35754 0.34353 0.19276 0.0
O307 O 0.36265 0.18152 1.05849 0.0
O308 O 0.38576 0.44869 0.97528 0.0
O309 O 0.40741 0.38113 0.15537 0.0
O310 O 0.39076 0.25072 0.78779 0.0
O311 O 0.4226 0.28554 0.78986 0.0
H312 H 0.4913 0.10647 1.03807 0.0
H313 H 0.52567 0.11806 1.04168 0.0
H314 H 0.5167 0.44987 0.26177 0.0
H315 H 0.48223 0.43928 0.24751 0.0
H316 H 0.31911 0.39257 0.23287 0.0
H317 H 0.28732 0.40566 0.0897 0.0
H318 H 0.30686 0.16665 0.65082 0.0
H319 H 0.33855 0.15312 0.79493 0.0
loop_
_geom_bond_atom_site_label_1
_geom_bond_atom_site_label_2
_geom_bond_distance
_geom_bond_site_symmetry_2
_ccdc_geom_bond_type
La0 C2 2.928 . S
La0 O20 2.521 . S
La0 O21 2.628 . S
La0 O22 2.554 . S
La0 O23 2.757 . S
La0 O24 2.470 . S
La0 O29 2.482 . S
La0 O31 2.503 . S
La1 C11 2.928 . S
La1 O23 2.482 . S
La1 O25 2.503 . S
La1 O26 2.521 . S
La1 O27 2.628 . S
La1 O28 2.554 . S
La1 O29 2.757 . S
La1 O30 2.470 . S
C2 La0 2.928 . S
C2 C3 1.503 . S
C2 O20 1.261 . S
C2 O21 1.243 . S
C3 C2 1.503 . S
C3 C4 1.394 . S
C3 C8 1.373 . S
C4 C3 1.394 . S
C4 C5 1.380 . S
C4 H32 0.930 . S
C5 C4 1.380 . S
C5 C6 1.376 . S
C5 H33 0.930 . S
C6 C5 1.376 . S
C6 C7 1.370 . S
C7 C6 1.370 . S
C7 C8 1.396 . S
C7 H34 0.929 . S
C8 C3 1.373 . S
C8 C7 1.396 . S
C8 H35 0.929 . S
C9 O22 1.240 . S
C9 O23 1.289 . S
C10 O24 1.258 . S
C10 O25 1.256 . S
C11 La1 2.928 . S
C11 C12 1.503 . S
C11 O26 1.261 . S
C11 O27 1.243 . S
C12 C11 1.503 . S
C12 C13 1.394 . S
C12 C17 1.373 . S
C13 C12 1.394 . S
C13 C14 1.380 . S
C13 H36 0.930 . S
C14 C13 1.380 . S
C14 C15 1.376 1_554 S
C14 H37 0.930 . S
C15 C14 1.376 1_556 S
C15 C16 1.370 . S
C16 C15 1.370 . S
C16 C17 1.396 1_556 S
C16 H38 0.929 . S
C17 C12 1.373 . S
C17 C16 1.396 1_554 S
C17 H39 0.929 . S
C18 O28 1.240 . S
C18 O29 1.289 . S
C19 O30 1.258 . S
C19 O31 1.256 . S
O20 La0 2.521 . S
O20 C2 1.261 . S
O21 La0 2.628 . S
O21 C2 1.243 . S
O22 La0 2.554 . S
O22 C9 1.240 . S
O23 La0 2.757 . S
O23 La1 2.482 . S
O23 C9 1.289 . S
O24 La0 2.470 . S
O24 C10 1.258 . S
O25 La1 2.503 . S
O25 C10 1.256 . S
O26 La1 2.521 . S
O26 C11 1.261 . S
O27 La1 2.628 . S
O27 C11 1.243 . S
O28 La1 2.554 . S
O28 C18 1.240 . S
O29 La0 2.482 . S
O29 La1 2.757 . S
O29 C18 1.289 . S
O30 La1 2.470 . S
O30 C19 1.258 . S
O31 La0 2.503 . S
O31 C19 1.256 . S
H32 C4 0.930 . S
H33 C5 0.930 . S
H34 C7 0.929 . S
H35 C8 0.929 . S
H36 C13 0.930 . S
H37 C14 0.930 . S
H38 C16 0.929 . S
H39 C17 0.929 . S
La40 C42 2.928 . S
La40 O60 2.521 . S
La40 O61 2.628 . S
La40 O62 2.554 . S
La40 O63 2.757 . S
La40 O64 2.470 . S
La40 O69 2.482 . S
La40 O71 2.503 . S
La41 C51 2.928 . S
La41 O63 2.482 . S
La41 O65 2.503 . S
La41 O66 2.521 . S
La41 O67 2.628 . S
La41 O68 2.554 . S
La41 O69 2.757 . S
La41 O70 2.470 . S
C42 La40 2.928 . S
C42 C43 1.503 . S
C42 O60 1.261 . S
C42 O61 1.243 . S
C43 C42 1.503 . S
C43 C44 1.394 . S
C43 C48 1.373 . S
C44 C43 1.394 . S
C44 C45 1.380 . S
C44 H72 0.930 . S
C45 C44 1.380 . S
C45 C46 1.376 . S
C45 H73 0.930 . S
C46 C45 1.376 . S
C46 C47 1.370 . S
C47 C46 1.370 . S
C47 C48 1.396 . S
C47 H74 0.929 . S
C48 C43 1.373 . S
C48 C47 1.396 . S
C48 H75 0.929 . S
C49 O62 1.240 . S
C49 O63 1.289 . S
C50 O64 1.258 . S
C50 O65 1.256 . S
C51 La41 2.928 . S
C51 C52 1.503 . S
C51 O66 1.261 . S
C51 O67 1.243 . S
C52 C51 1.503 . S
C52 C53 1.394 . S
C52 C57 1.373 . S
C53 C52 1.394 . S
C53 C54 1.380 . S
C53 H76 0.930 . S
C54 C53 1.380 . S
C54 C55 1.376 1_554 S
C54 H77 0.930 . S
C55 C54 1.376 1_556 S
C55 C56 1.370 . S
C56 C55 1.370 . S
C56 C57 1.396 1_556 S
C56 H78 0.929 . S
C57 C52 1.373 . S
C57 C56 1.396 1_554 S
C57 H79 0.929 . S
C58 O68 1.240 . S
C58 O69 1.289 . S
C59 O70 1.258 . S
C59 O71 1.256 . S
O60 La40 2.521 . S
O60 C42 1.261 . S
O61 La40 2.628 . S
O61 C42 1.243 . S
O62 La40 2.554 . S
O62 C49 1.240 . S
O63 La40 2.757 . S
O63 La41 2.482 . S
O63 C49 1.289 . S
O64 La40 2.470 . S
O64 C50 1.258 . S
O65 La41 2.503 . S
O65 C50 1.256 . S
O66 La41 2.521 . S
O66 C51 1.261 . S
O67 La41 2.628 . S
O67 C51 1.243 . S
O68 La41 2.554 . S
O68 C58 1.240 . S
O69 La40 2.482 . S
O69 La41 2.757 . S
O69 C58 1.289 . S
O70 La41 2.470 . S
O70 C59 1.258 . S
O71 La40 2.503 . S
O71 C59 1.256 . S
H72 C44 0.930 . S
H73 C45 0.930 . S
H74 C47 0.929 . S
H75 C48 0.929 . S
H76 C53 0.930 . S
H77 C54 0.930 . S
H78 C56 0.929 . S
H79 C57 0.929 . S
La80 C82 2.928 . S
La80 O100 2.521 . S
La80 O101 2.628 . S
La80 O102 2.554 . S
La80 O103 2.757 . S
La80 O104 2.470 . S
La80 O109 2.482 . S
La80 O111 2.503 . S
La81 C91 2.928 . S
La81 O103 2.482 . S
La81 O105 2.503 . S
La81 O106 2.521 . S
La81 O107 2.628 . S
La81 O108 2.554 . S
La81 O109 2.757 . S
La81 O110 2.470 . S
C82 La80 2.928 . S
C82 C83 1.503 . S
C82 O100 1.261 . S
C82 O101 1.243 . S
C83 C82 1.503 . S
C83 C84 1.394 . S
C83 C88 1.373 . S
C84 C83 1.394 . S
C84 C85 1.380 . S
C84 H112 0.930 . S
C85 C84 1.380 . S
C85 C86 1.376 1_556 S
C85 H113 0.930 . S
C86 C85 1.376 1_554 S
C86 C87 1.370 . S
C87 C86 1.370 . S
C87 C88 1.396 1_554 S
C87 H114 0.929 . S
C88 C83 1.373 . S
C88 C87 1.396 1_556 S
C88 H115 0.929 . S
C89 O102 1.240 . S
C89 O103 1.289 . S
C90 O104 1.258 . S
C90 O105 1.256 . S
C91 La81 2.928 . S
C91 C92 1.503 . S
C91 O106 1.261 . S
C91 O107 1.243 . S
C92 C91 1.503 . S
C92 C93 1.394 . S
C92 C97 1.373 . S
C93 C92 1.394 . S
C93 C94 1.380 . S
C93 H116 0.930 . S
C94 C93 1.380 . S
C94 C95 1.376 . S
C94 H117 0.930 . S
C95 C94 1.376 . S
C95 C96 1.370 . S
C96 C95 1.370 . S
C96 C97 1.396 . S
C96 H118 0.929 . S
C97 C92 1.373 . S
C97 C96 1.396 . S
C97 H119 0.929 . S
C98 O108 1.240 . S
C98 O109 1.289 . S
C99 O110 1.258 . S
C99 O111 1.256 . S
O100 La80 2.521 . S
O100 C82 1.261 . S
O101 La80 2.628 . S
O101 C82 1.243 . S
O102 La80 2.554 . S
O102 C89 1.240 . S
O103 La80 2.757 . S
O103 La81 2.482 . S
O103 C89 1.289 . S
O104 La80 2.470 . S
O104 C90 1.258 . S
O105 La81 2.503 . S
O105 C90 1.256 . S
O106 La81 2.521 . S
O106 C91 1.261 . S
O107 La81 2.628 . S
O107 C91 1.243 . S
O108 La81 2.554 . S
O108 C98 1.240 . S
O109 La80 2.482 . S
O109 La81 2.757 . S
O109 C98 1.289 . S
O110 La81 2.470 . S
O110 C99 1.258 . S
O111 La80 2.503 . S
O111 C99 1.256 . S
H112 C84 0.930 . S
H113 C85 0.930 . S
H114 C87 0.929 . S
H115 C88 0.929 . S
H116 C93 0.930 . S
H117 C94 0.930 . S
H118 C96 0.929 . S
H119 C97 0.929 . S
La120 C122 2.928 . S
La120 O140 2.521 . S
La120 O141 2.628 . S
La120 O142 2.554 . S
La120 O143 2.757 . S
La120 O144 2.470 . S
La120 O149 2.482 . S
La120 O151 2.503 . S
La121 C131 2.928 . S
La121 O143 2.482 . S
La121 O145 2.503 . S
La121 O146 2.521 . S
La121 O147 2.628 . S
La121 O148 2.554 . S
La121 O149 2.757 . S
La121 O150 2.470 . S
C122 La120 2.928 . S
C122 C123 1.503 . S
C122 O140 1.261 . S
C122 O141 1.243 . S
C123 C122 1.503 . S
C123 C124 1.394 . S
C123 C128 1.373 . S
C124 C123 1.394 . S
C124 C125 1.380 . S
C124 H152 0.930 . S
C125 C124 1.380 . S
C125 C126 1.376 1_556 S
C125 H153 0.930 . S
C126 C125 1.376 1_554 S
C126 C127 1.370 . S
C127 C126 1.370 . S
C127 C128 1.396 1_554 S
C127 H154 0.929 . S
C128 C123 1.373 . S
C128 C127 1.396 1_556 S
C128 H155 0.929 . S
C129 O142 1.240 . S
C129 O143 1.289 . S
C130 O144 1.258 . S
C130 O145 1.256 . S
C131 La121 2.928 . S
C131 C132 1.503 . S
C131 O146 1.261 . S
C131 O147 1.243 . S
C132 C131 1.503 . S
C132 C133 1.394 . S
C132 C137 1.373 . S
C133 C132 1.394 . S
C133 C134 1.380 . S
C133 H156 0.930 . S
C134 C133 1.380 . S
C134 C135 1.376 . S
C134 H157 0.930 . S
C135 C134 1.376 . S
C135 C136 1.370 . S
C136 C135 1.370 . S
C136 C137 1.396 . S
C136 H158 0.929 . S
C137 C132 1.373 . S
C137 C136 1.396 . S
C137 H159 0.929 . S
C138 O148 1.240 . S
C138 O149 1.289 . S
C139 O150 1.258 . S
C139 O151 1.256 . S
O140 La120 2.521 . S
O140 C122 1.261 . S
O141 La120 2.628 . S
O141 C122 1.243 . S
O142 La120 2.554 . S
O142 C129 1.240 . S
O143 La120 2.757 . S
O143 La121 2.482 . S
O143 C129 1.289 . S
O144 La120 2.470 . S
O144 C130 1.258 . S
O145 La121 2.503 . S
O145 C130 1.256 . S
O146 La121 2.521 . S
O146 C131 1.261 . S
O147 La121 2.628 . S
O147 C131 1.243 . S
O148 La121 2.554 . S
O148 C138 1.240 . S
O149 La120 2.482 . S
O149 La121 2.757 . S
O149 C138 1.289 . S
O150 La121 2.470 . S
O150 C139 1.258 . S
O151 La120 2.503 . S
O151 C139 1.256 . S
H152 C124 0.930 . S
H153 C125 0.930 . S
H154 C127 0.929 . S
H155 C128 0.929 . S
H156 C133 0.930 . S
H157 C134 0.930 . S
H158 C136 0.929 . S
H159 C137 0.929 . S
La160 C162 2.928 1_556 S
La160 O180 2.521 1_556 S
La160 O181 2.628 1_556 S
La160 O182 2.554 . S
La160 O183 2.757 . S
La160 O184 2.470 1_556 S
La160 O189 2.482 1_556 S
La160 O191 2.503 . S
La161 C171 2.928 1_554 S
La161 O183 2.482 1_554 S
La161 O185 2.503 . S
La161 O186 2.521 1_554 S
La161 O187 2.628 1_554 S
La161 O188 2.554 . S
La161 O189 2.757 . S
La161 O190 2.470 1_554 S
C162 La160 2.928 1_554 S
C162 C163 1.503 . S
C162 O180 1.261 . S
C162 O181 1.243 . S
C163 C162 1.503 . S
C163 C164 1.394 . S
C163 C168 1.373 . S
C164 C163 1.394 . S
C164 C165 1.380 . S
C164 H192 0.930 . S
C165 C164 1.380 . S
C165 C166 1.376 . S
C165 H193 0.930 . S
C166 C165 1.376 . S
C166 C167 1.370 . S
C167 C166 1.370 . S
C167 C168 1.396 . S
C167 H194 0.929 . S
C168 C163 1.373 . S
C168 C167 1.396 . S
C168 H195 0.929 . S
C169 O182 1.240 . S
C169 O183 1.289 . S
C170 O184 1.258 . S
C170 O185 1.256 . S
C171 La161 2.928 1_556 S
C171 C172 1.503 . S
C171 O186 1.261 . S
C171 O187 1.243 . S
C172 C171 1.503 . S
C172 C173 1.394 . S
C172 C177 1.373 . S
C173 C172 1.394 . S
C173 C174 1.380 . S
C173 H196 0.930 . S
C174 C173 1.380 . S
C174 C175 1.376 . S
C174 H197 0.930 . S
C175 C174 1.376 . S
C175 C176 1.370 . S
C176 C175 1.370 . S
C176 C177 1.396 . S
C176 H198 0.929 . S
C177 C172 1.373 . S
C177 C176 1.396 . S
C177 H199 0.929 . S
C178 O188 1.240 . S
C178 O189 1.289 . S
C179 O190 1.258 . S
C179 O191 1.256 . S
O180 La160 2.521 1_554 S
O180 C162 1.261 . S
O181 La160 2.628 1_554 S
O181 C162 1.243 . S
O182 La160 2.554 . S
O182 C169 1.240 . S
O183 La160 2.757 . S
O183 La161 2.482 1_556 S
O183 C169 1.289 . S
O184 La160 2.470 1_554 S
O184 C170 1.258 . S
O185 La161 2.503 . S
O185 C170 1.256 . S
O186 La161 2.521 1_556 S
O186 C171 1.261 . S
O187 La161 2.628 1_556 S
O187 C171 1.243 . S
O188 La161 2.554 . S
O188 C178 1.240 . S
O189 La160 2.482 1_554 S
O189 La161 2.757 . S
O189 C178 1.289 . S
O190 La161 2.470 1_556 S
O190 C179 1.258 . S
O191 La160 2.503 . S
O191 C179 1.256 . S
H192 C164 0.930 . S
H193 C165 0.930 . S
H194 C167 0.929 . S
H195 C168 0.929 . S
H196 C173 0.930 . S
H197 C174 0.930 . S
H198 C176 0.929 . S
H199 C177 0.929 . S
La200 C202 2.928 1_556 S
La200 O220 2.521 1_556 S
La200 O221 2.628 1_556 S
La200 O222 2.554 . S
La200 O223 2.757 . S
La200 O224 2.470 1_556 S
La200 O229 2.482 1_556 S
La200 O231 2.503 . S
La201 C211 2.928 1_554 S
La201 O223 2.482 1_554 S
La201 O225 2.503 . S
La201 O226 2.521 1_554 S
La201 O227 2.628 1_554 S
La201 O228 2.554 . S
La201 O229 2.757 . S
La201 O230 2.470 1_554 S
C202 La200 2.928 1_554 S
C202 C203 1.503 . S
C202 O220 1.261 . S
C202 O221 1.243 . S
C203 C202 1.503 . S
C203 C204 1.394 . S
C203 C208 1.373 . S
C204 C203 1.394 . S
C204 C205 1.380 . S
C204 H232 0.930 . S
C205 C204 1.380 . S
C205 C206 1.376 . S
C205 H233 0.930 . S
C206 C205 1.376 . S
C206 C207 1.370 . S
C207 C206 1.370 . S
C207 C208 1.396 . S
C207 H234 0.929 . S
C208 C203 1.373 . S
C208 C207 1.396 . S
C208 H235 0.929 . S
C209 O222 1.240 . S
C209 O223 1.289 . S
C210 O224 1.258 . S
C210 O225 1.256 . S
C211 La201 2.928 1_556 S
C211 C212 1.503 . S
C211 O226 1.261 . S
C211 O227 1.243 . S
C212 C211 1.503 . S
C212 C213 1.394 . S
C212 C217 1.373 . S
C213 C212 1.394 . S
C213 C214 1.380 . S
C213 H236 0.930 . S
C214 C213 1.380 . S
C214 C215 1.376 . S
C214 H237 0.930 . S
C215 C214 1.376 . S
C215 C216 1.370 . S
C216 C215 1.370 . S
C216 C217 1.396 . S
C216 H238 0.929 . S
C217 C212 1.373 . S
C217 C216 1.396 . S
C217 H239 0.929 . S
C218 O228 1.240 . S
C218 O229 1.289 . S
C219 O230 1.258 . S
C219 O231 1.256 . S
O220 La200 2.521 1_554 S
O220 C202 1.261 . S
O221 La200 2.628 1_554 S
O221 C202 1.243 . S
O222 La200 2.554 . S
O222 C209 1.240 . S
O223 La200 2.757 . S
O223 La201 2.482 1_556 S
O223 C209 1.289 . S
O224 La200 2.470 1_554 S
O224 C210 1.258 . S
O225 La201 2.503 . S
O225 C210 1.256 . S
O226 La201 2.521 1_556 S
O226 C211 1.261 . S
O227 La201 2.628 1_556 S
O227 C211 1.243 . S
O228 La201 2.554 . S
O228 C218 1.240 . S
O229 La200 2.482 1_554 S
O229 La201 2.757 . S
O229 C218 1.289 . S
O230 La201 2.470 1_556 S
O230 C219 1.258 . S
O231 La200 2.503 . S
O231 C219 1.256 . S
H232 C204 0.930 . S
H233 C205 0.930 . S
H234 C207 0.929 . S
H235 C208 0.929 . S
H236 C213 0.930 . S
H237 C214 0.930 . S
H238 C216 0.929 . S
H239 C217 0.929 . S
La240 C242 2.928 1_556 S
La240 O260 2.521 1_556 S
La240 O261 2.628 1_556 S
La240 O262 2.554 . S
La240 O263 2.757 . S
La240 O264 2.470 1_556 S
La240 O269 2.482 1_556 S
La240 O271 2.503 . S
La241 C251 2.928 1_554 S
La241 O263 2.482 1_554 S
La241 O265 2.503 . S
La241 O266 2.521 1_554 S
La241 O267 2.628 1_554 S
La241 O268 2.554 . S
La241 O269 2.757 . S
La241 O270 2.470 1_554 S
C242 La240 2.928 1_554 S
C242 C243 1.503 . S
C242 O260 1.261 . S
C242 O261 1.243 . S
C243 C242 1.503 . S
C243 C244 1.394 . S
C243 C248 1.373 . S
C244 C243 1.394 . S
C244 C245 1.380 . S
C244 H272 0.930 . S
C245 C244 1.380 . S
C245 C246 1.376 . S
C245 H273 0.930 . S
C246 C245 1.376 . S
C246 C247 1.370 . S
C247 C246 1.370 . S
C247 C248 1.396 . S
C247 H274 0.929 . S
C248 C243 1.373 . S
C248 C247 1.396 . S
C248 H275 0.929 . S
C249 O262 1.240 . S
C249 O263 1.289 . S
C250 O264 1.258 . S
C250 O265 1.256 . S
C251 La241 2.928 1_556 S
C251 C252 1.503 . S
C251 O266 1.261 . S
C251 O267 1.243 . S
C252 C251 1.503 . S
C252 C253 1.394 . S
C252 C257 1.373 . S
C253 C252 1.394 . S
C253 C254 1.380 . S
C253 H276 0.930 . S
C254 C253 1.380 . S
C254 C255 1.376 . S
C254 H277 0.930 . S
C255 C254 1.376 . S
C255 C256 1.370 . S
C256 C255 1.370 . S
C256 C257 1.396 . S
C256 H278 0.929 . S
C257 C252 1.373 . S
C257 C256 1.396 . S
C257 H279 0.929 . S
C258 O268 1.240 . S
C258 O269 1.289 . S
C259 O270 1.258 . S
C259 O271 1.256 . S
O260 La240 2.521 1_554 S
O260 C242 1.261 . S
O261 La240 2.628 1_554 S
O261 C242 1.243 . S
O262 La240 2.554 . S
O262 C249 1.240 . S
O263 La240 2.757 . S
O263 La241 2.482 1_556 S
O263 C249 1.289 . S
O264 La240 2.470 1_554 S
O264 C250 1.258 . S
O265 La241 2.503 . S
O265 C250 1.256 . S
O266 La241 2.521 1_556 S
O266 C251 1.261 . S
O267 La241 2.628 1_556 S
O267 C251 1.243 . S
O268 La241 2.554 . S
O268 C258 1.240 . S
O269 La240 2.482 1_554 S
O269 La241 2.757 . S
O269 C258 1.289 . S
O270 La241 2.470 1_556 S
O270 C259 1.258 . S
O271 La240 2.503 . S
O271 C259 1.256 . S
H272 C244 0.930 . S
H273 C245 0.930 . S
H274 C247 0.929 . S
H275 C248 0.929 . S
H276 C253 0.930 . S
H277 C254 0.930 . S
H278 C256 0.929 . S
H279 C257 0.929 . S
La280 C282 2.928 1_556 S
La280 O300 2.521 1_556 S
La280 O301 2.628 1_556 S
La280 O302 2.554 . S
La280 O303 2.757 . S
La280 O304 2.470 1_556 S
La280 O309 2.482 1_556 S
La280 O311 2.503 . S
La281 C291 2.928 1_554 S
La281 O303 2.482 1_554 S
La281 O305 2.503 . S
La281 O306 2.521 1_554 S
La281 O307 2.628 1_554 S
La281 O308 2.554 . S
La281 O309 2.757 . S
La281 O310 2.470 1_554 S
C282 La280 2.928 1_554 S
C282 C283 1.503 . S
C282 O300 1.261 . S
C282 O301 1.243 . S
C283 C282 1.503 . S
C283 C284 1.394 . S
C283 C288 1.373 . S
C284 C283 1.394 . S
C284 C285 1.380 . S
C284 H312 0.930 . S
C285 C284 1.380 . S
C285 C286 1.376 . S
C285 H313 0.930 . S
C286 C285 1.376 . S
C286 C287 1.370 . S
C287 C286 1.370 . S
C287 C288 1.396 . S
C287 H314 0.929 . S
C288 C283 1.373 . S
C288 C287 1.396 . S
C288 H315 0.929 . S
C289 O302 1.240 . S
C289 O303 1.289 . S
C290 O304 1.258 . S
C290 O305 1.256 . S
C291 La281 2.928 1_556 S
C291 C292 1.503 . S
C291 O306 1.261 . S
C291 O307 1.243 . S
C292 C291 1.503 . S
C292 C293 1.394 . S
C292 C297 1.373 . S
C293 C292 1.394 . S
C293 C294 1.380 . S
C293 H316 0.930 . S
C294 C293 1.380 . S
C294 C295 1.376 . S
C294 H317 0.930 . S
C295 C294 1.376 . S
C295 C296 1.370 . S
C296 C295 1.370 . S
C296 C297 1.396 . S
C296 H318 0.929 . S
C297 C292 1.373 . S
C297 C296 1.396 . S
C297 H319 0.929 . S
C298 O308 1.240 . S
C298 O309 1.289 . S
C299 O310 1.258 . S
C299 O311 1.256 . S
O300 La280 2.521 1_554 S
O300 C282 1.261 . S
O301 La280 2.628 1_554 S
O301 C282 1.243 . S
O302 La280 2.554 . S
O302 C289 1.240 . S
O303 La280 2.757 . S
O303 La281 2.482 1_556 S
O303 C289 1.289 . S
O304 La280 2.470 1_554 S
O304 C290 1.258 . S
O305 La281 2.503 . S
O305 C290 1.256 . S
O306 La281 2.521 1_556 S
O306 C291 1.261 . S
O307 La281 2.628 1_556 S
O307 C291 1.243 . S
O308 La281 2.554 . S
O308 C298 1.240 . S
O309 La280 2.482 1_554 S
O309 La281 2.757 . S
O309 C298 1.289 . S
O310 La281 2.470 1_556 S
O310 C299 1.258 . S
O311 La280 2.503 . S
O311 C299 1.256 . S
H312 C284 0.930 . S
H313 C285 0.930 . S
H314 C287 0.929 . S
H315 C288 0.929 . S
H316 C293 0.930 . S
H317 C294 0.930 . S
H318 C296 0.929 . S
H319 C297 0.929 . S
C6 C295 2.594 . S
C255 C46 2.594 . S
C206 C95 2.594 . S
C166 C135 2.594 . S
C89 C9 2.319 1_565 S
C49 C129 2.319 . S
C138 C58 2.319 1_565 S
C98 C18 2.318 . S
C169 C249 1.463 . S
C209 C289 1.462 1_565 S
C298 C218 1.463 . S
C258 C178 1.462 1_545 S
C19 C10 2.701 1_554 S
C59 C50 2.701 1_554 S
C99 C90 2.701 1_554 S
C130 C139 2.701 1_556 S
C170 C179 2.699 . S
C219 C210 2.699 . S
C250 C259 2.698 . S
C290 C299 2.699 . S
C15 C55 2.766 1_455 S
C126 C86 2.766 1_655 S
C175 C215 2.770 . S
C286 C246 2.771 . S
