# Generated by pormake.
# Topology wmc, (6)-cn, num edge types: 1
# Building blocks:
#     Node 0, Type 0, BuildingBlock: MIDCAF_clean_sbu_0, # of connection points: 6
#     Node 1, Type 0, BuildingBlock: MIDCAF_clean_sbu_0, # of connection points: 6
#     Node 2, Type 0, BuildingBlock: MIDCAF_clean_sbu_0, # of connection points: 6
#     Node 3, Type 0, BuildingBlock: MIDCAF_clean_sbu_0, # of connection points: 6
#     Node 4, Type 0, BuildingBlock: MIDCAF_clean_sbu_0, # of connection points: 6
#     Node 5, Type 0, BuildingBlock: MIDCAF_clean_sbu_0, # of connection points: 6
#     Node 6, Type 0, BuildingBlock: MIDCAF_clean_sbu_0, # of connection points: 6
#     Node 7, Type 0, BuildingBlock: MIDCAF_clean_sbu_0, # of connection points: 6
#     Node 8, Type 0, BuildingBlock: MIDCAF_clean_sbu_0, # of connection points: 6
#     Node 9, Type 0, BuildingBlock: MIDCAF_clean_sbu_0, # of connection points: 6
#     Node 10, Type 0, BuildingBlock: MIDCAF_clean_sbu_0, # of connection points: 6
#     Node 11, Type 0, BuildingBlock: MIDCAF_clean_sbu_0, # of connection points: 6
#     Node 12, Type 0, BuildingBlock: MIDCAF_clean_sbu_0, # of connection points: 6
#     Node 13, Type 0, BuildingBlock: MIDCAF_clean_sbu_0, # of connection points: 6
#     Node 14, Type 0, BuildingBlock: MIDCAF_clean_sbu_0, # of connection points: 6
#     Node 15, Type 0, BuildingBlock: MIDCAF_clean_sbu_0, # of connection points: 6
#     Node 16, Type 0, BuildingBlock: MIDCAF_clean_sbu_0, # of connection points: 6
#     Node 17, Type 0, BuildingBlock: MIDCAF_clean_sbu_0, # of connection points: 6
#     Edge 18, Type (0, 0), BuildingBlock: XIVTED_clean_linker_0, # of connection points: 2
#     Edge 19, Type (0, 0), BuildingBlock: XIVTED_clean_linker_0, # of connection points: 2
#     Edge 20, Type (0, 0), BuildingBlock: XIVTED_clean_linker_0, # of connection points: 2
#     Edge 21, Type (0, 0), BuildingBlock: XIVTED_clean_linker_0, # of connection points: 2
#     Edge 22, Type (0, 0), BuildingBlock: XIVTED_clean_linker_0, # of connection points: 2
#     Edge 23, Type (0, 0), BuildingBlock: XIVTED_clean_linker_0, # of connection points: 2
#     Edge 24, Type (0, 0), BuildingBlock: XIVTED_clean_linker_0, # of connection points: 2
#     Edge 25, Type (0, 0), BuildingBlock: XIVTED_clean_linker_0, # of connection points: 2
#     Edge 26, Type (0, 0), BuildingBlock: XIVTED_clean_linker_0, # of connection points: 2
#     Edge 27, Type (0, 0), BuildingBlock: XIVTED_clean_linker_0, # of connection points: 2
#     Edge 28, Type (0, 0), BuildingBlock: XIVTED_clean_linker_0, # of connection points: 2
#     Edge 29, Type (0, 0), BuildingBlock: XIVTED_clean_linker_0, # of connection points: 2
#     Edge 30, Type (0, 0), BuildingBlock: XIVTED_clean_linker_0, # of connection points: 2
#     Edge 31, Type (0, 0), BuildingBlock: XIVTED_clean_linker_0, # of connection points: 2
#     Edge 32, Type (0, 0), BuildingBlock: XIVTED_clean_linker_0, # of connection points: 2
#     Edge 33, Type (0, 0), BuildingBlock: XIVTED_clean_linker_0, # of connection points: 2
#     Edge 34, Type (0, 0), BuildingBlock: XIVTED_clean_linker_0, # of connection points: 2
#     Edge 35, Type (0, 0), BuildingBlock: XIVTED_clean_linker_0, # of connection points: 2
#     Edge 36, Type (0, 0), BuildingBlock: XIVTED_clean_linker_0, # of connection points: 2
#     Edge 37, Type (0, 0), BuildingBlock: XIVTED_clean_linker_0, # of connection points: 2
#     Edge 38, Type (0, 0), BuildingBlock: XIVTED_clean_linker_0, # of connection points: 2
#     Edge 39, Type (0, 0), BuildingBlock: XIVTED_clean_linker_0, # of connection points: 2
#     Edge 40, Type (0, 0), BuildingBlock: XIVTED_clean_linker_0, # of connection points: 2
#     Edge 41, Type (0, 0), BuildingBlock: XIVTED_clean_linker_0, # of connection points: 2
#     Edge 42, Type (0, 0), BuildingBlock: XIVTED_clean_linker_0, # of connection points: 2
#     Edge 43, Type (0, 0), BuildingBlock: XIVTED_clean_linker_0, # of connection points: 2
#     Edge 44, Type (0, 0), BuildingBlock: XIVTED_clean_linker_0, # of connection points: 2
#     Edge 45, Type (0, 0), BuildingBlock: XIVTED_clean_linker_0, # of connection points: 2
#     Edge 46, Type (0, 0), BuildingBlock: XIVTED_clean_linker_0, # of connection points: 2
#     Edge 47, Type (0, 0), BuildingBlock: XIVTED_clean_linker_0, # of connection points: 2
#     Edge 48, Type (0, 0), BuildingBlock: XIVTED_clean_linker_0, # of connection points: 2
#     Edge 49, Type (0, 0), BuildingBlock: XIVTED_clean_linker_0, # of connection points: 2
#     Edge 50, Type (0, 0), BuildingBlock: XIVTED_clean_linker_0, # of connection points: 2
#     Edge 51, Type (0, 0), BuildingBlock: XIVTED_clean_linker_0, # of connection points: 2
#     Edge 52, Type (0, 0), BuildingBlock: XIVTED_clean_linker_0, # of connection points: 2
#     Edge 53, Type (0, 0), BuildingBlock: XIVTED_clean_linker_0, # of connection points: 2
#     Edge 54, Type (0, 0), BuildingBlock: XIVTED_clean_linker_0, # of connection points: 2
#     Edge 55, Type (0, 0), BuildingBlock: XIVTED_clean_linker_0, # of connection points: 2
#     Edge 56, Type (0, 0), BuildingBlock: XIVTED_clean_linker_0, # of connection points: 2
#     Edge 57, Type (0, 0), BuildingBlock: XIVTED_clean_linker_0, # of connection points: 2
#     Edge 58, Type (0, 0), BuildingBlock: XIVTED_clean_linker_0, # of connection points: 2
#     Edge 59, Type (0, 0), BuildingBlock: XIVTED_clean_linker_0, # of connection points: 2
#     Edge 60, Type (0, 0), BuildingBlock: XIVTED_clean_linker_0, # of connection points: 2
#     Edge 61, Type (0, 0), BuildingBlock: XIVTED_clean_linker_0, # of connection points: 2
#     Edge 62, Type (0, 0), BuildingBlock: XIVTED_clean_linker_0, # of connection points: 2
#     Edge 63, Type (0, 0), BuildingBlock: XIVTED_clean_linker_0, # of connection points: 2
#     Edge 64, Type (0, 0), BuildingBlock: XIVTED_clean_linker_0, # of connection points: 2
#     Edge 65, Type (0, 0), BuildingBlock: XIVTED_clean_linker_0, # of connection points: 2
#     Edge 66, Type (0, 0), BuildingBlock: XIVTED_clean_linker_0, # of connection points: 2
#     Edge 67, Type (0, 0), BuildingBlock: XIVTED_clean_linker_0, # of connection points: 2
#     Edge 68, Type (0, 0), BuildingBlock: XIVTED_clean_linker_0, # of connection points: 2
#     Edge 69, Type (0, 0), BuildingBlock: XIVTED_clean_linker_0, # of connection points: 2
#     Edge 70, Type (0, 0), BuildingBlock: XIVTED_clean_linker_0, # of connection points: 2
#     Edge 71, Type (0, 0), BuildingBlock: XIVTED_clean_linker_0, # of connection points: 2
# Relax obj value: 0.258
# Max RMSD: 0.170
# Mean RMSD: 0.170
data_MOF--net-wmc--node1-MIDCAF_clean_sbu_0--edge1-XIVTED_clean_linker_0
_symmetry_space_group_name_H-M    P1
_symmetry_Int_Tables_number       1
_symmetry_cell_setting            triclinic
loop_
_symmetry_equiv_pos_as_xyz
'x, y, z'
_cell_length_a     46.230666
_cell_length_b     46.300563
_cell_length_c     29.532031
_cell_angle_alpha  89.910486
_cell_angle_beta   90.00992
_cell_angle_gamma 120.10597
loop_
_atom_site_label
_atom_site_type_symbol
_atom_site_fract_x
_atom_site_fract_y
_atom_site_fract_z
_atom_type_partial_charge
Zn0 Zn 0.6277 0.17409 0.94656 0.0
Zn1 Zn 0.59631 0.06202 0.03046 0.0
Zn2 Zn 0.61169 0.12328 0.99124 0.0
C3 C 0.56987 0.09679 0.08165 0.0
C4 C 0.66664 0.10393 0.02407 0.0
O5 O 0.59859 0.11143 0.91922 0.0
O6 O 0.63332 0.15913 0.88582 0.0
C7 C 0.5734 0.16208 0.00029 0.0
O8 O 0.58127 0.11797 0.04896 0.0
O9 O 0.57436 0.07196 0.0825 0.0
O10 O 0.64456 0.07422 0.03344 0.0
O11 O 0.65821 0.12519 0.01063 0.0
O12 O 0.5851 0.17351 0.96149 0.0
O13 O 0.58406 0.14532 0.02239 0.0
O14 O 0.6656 0.15793 0.0025 0.0
O15 O 0.66859 0.20491 0.98019 0.0
C16 C 0.68163 0.19 -0.00028 0.0
O17 O 0.57973 0.08234 0.94589 0.0
O18 O 0.56615 0.03453 0.98041 0.0
C19 C 0.61271 0.1283 0.88309 0.0
C20 C 0.56269 0.05019 0.94778 0.0
Zn21 Zn 0.81969 0.44977 0.96441 0.0
Zn22 Zn 0.93428 0.53061 0.04027 0.0
Zn23 Zn 0.87464 0.48488 0.0061 0.0
C24 C 0.90883 0.46834 0.08686 0.0
C25 C 0.89275 0.55689 0.04784 0.0
O26 O 0.88417 0.48346 0.93376 0.0
O27 O 0.83471 0.46517 0.90199 0.0
C28 C 0.83183 0.40704 0.01876 0.0
O29 O 0.88458 0.45846 0.05849 0.0
O30 O 0.93218 0.49847 0.08723 0.0
O31 O 0.92307 0.56556 0.0536 0.0
O32 O 0.87168 0.52766 0.03255 0.0
O33 O 0.81485 0.4066 0.985 0.0
O34 O 0.85467 0.4349 0.03534 0.0
O35 O 0.83847 0.50308 0.02155 0.0
O36 O 0.79064 0.46382 0.99251 0.0
C37 C 0.80664 0.49011 0.01538 0.0
O38 O 0.91558 0.49802 0.95629 0.0
O39 O 0.96271 0.53655 0.98782 0.0
C40 C 0.86582 0.47733 0.89832 0.0
C41 C 0.94771 0.51702 0.95538 0.0
Zn42 Zn 0.55847 0.38256 0.97062 0.0
Zn43 Zn 0.4674 0.39645 0.03303 0.0
Zn44 Zn 0.51762 0.39267 0.0058 0.0
C45 C 0.51714 0.42145 0.10129 0.0
C46 C 0.4422 0.33115 0.02123 0.0
O47 O 0.52396 0.40842 0.93325 0.0
O48 O 0.54379 0.37735 0.90646 0.0
C49 C 0.59334 0.43629 0.02777 0.0
O50 O 0.53553 0.42127 0.06865 0.0
O51 O 0.4859 0.40835 0.09582 0.0
O52 O 0.43064 0.35069 0.02016 0.0
O53 O 0.47407 0.34282 0.01999 0.0
O54 O 0.59712 0.42569 0.99016 0.0
O55 O 0.56396 0.42357 0.04537 0.0
O56 O 0.50153 0.33876 0.01213 0.0
O57 O 0.55044 0.34198 0.00313 0.0
C58 C 0.52005 0.32532 0.01412 0.0
O59 O 0.50895 0.42307 0.95642 0.0
O60 O 0.47448 0.43405 -0.00542 0.0
C61 C 0.53162 0.39596 0.89944 0.0
C62 C 0.49377 0.43976 0.96138 0.0
Zn63 Zn 0.81613 0.37852 0.46051 0.0
Zn64 Zn 0.92693 0.39654 0.52034 0.0
Zn65 Zn 0.87229 0.39211 0.49542 0.0
C66 C 0.89937 0.42092 0.58743 0.0
C67 C 0.88713 0.33087 0.51452 0.0
O68 O 0.88284 0.40534 0.42405 0.0
O69 O 0.83188 0.38766 0.39797 0.0
C70 C 0.82905 0.42648 0.52627 0.0
O71 O 0.88164 0.42174 0.55461 0.0
O72 O 0.91768 0.40806 0.58216 0.0
O73 O 0.9182 0.35028 0.51023 0.0
O74 O 0.86707 0.34273 0.51366 0.0
O75 O 0.80902 0.41101 0.49444 0.0
O76 O 0.85426 0.42235 0.53373 0.0
O77 O 0.83498 0.33779 0.50483 0.0
O78 O 0.78783 0.33134 0.47635 0.0
C79 C 0.80348 0.31929 0.49626 0.0
O80 O 0.91382 0.42394 0.44578 0.0
O81 O 0.9596 0.43346 0.48169 0.0
C82 C 0.86266 0.39934 0.39078 0.0
C83 C 0.9461 0.43973 0.44892 0.0
Zn84 Zn 0.59687 0.51383 0.52361 0.0
Zn85 Zn 0.65697 0.42028 0.41348 0.0
Zn86 Zn 0.6165 0.48046 0.48822 0.0
C87 C 0.6864 0.47516 0.47194 0.0
C88 C 0.60692 0.40483 0.47916 0.0
O89 O 0.57591 0.48021 0.44846 0.0
O90 O 0.58091 0.52751 0.47081 0.0
C91 C 0.66269 0.55217 0.53118 0.0
O92 O 0.65621 0.46977 0.46671 0.0
O93 O 0.69511 0.45773 0.44862 0.0
O94 O 0.61917 0.38961 0.45774 0.0
O95 O 0.62036 0.43659 0.47274 0.0
O96 O 0.63752 0.5495 0.55155 0.0
O97 O 0.65903 0.52944 0.5033 0.0
O98 O 0.59626 0.45781 0.55284 0.0
O99 O 0.56335 0.47844 0.56457 0.0
C100 C 0.57319 0.45846 0.57572 0.0
O101 O 0.62857 0.45908 0.42972 0.0
O102 O 0.63796 0.43909 0.36736 0.0
C103 C 0.56737 0.5025 0.44513 0.0
C104 C 0.62586 0.45535 0.38622 0.0
Zn105 Zn 0.46607 0.07584 0.52034 0.0
Zn106 Zn 0.5588 0.18733 0.46819 0.0
Zn107 Zn 0.51579 0.1306 0.49647 0.0
C108 C 0.512 0.19972 0.50068 0.0
C109 C 0.59215 0.1708 0.53074 0.0
O110 O 0.50732 0.0923 0.44372 0.0
O111 O 0.46752 0.04611 0.47518 0.0
C112 C 0.44066 0.11548 0.52393 0.0
O113 O 0.49832 0.16795 0.50757 0.0
O114 O 0.54066 0.21573 0.48334 0.0
O115 O 0.59734 0.1937 0.50321 0.0
O116 O 0.56279 0.14489 0.53456 0.0
O117 O 0.42863 0.08438 0.52101 0.0
O118 O 0.47234 0.13558 0.51833 0.0
O119 O 0.53521 0.11543 0.55303 0.0
O120 O 0.48709 0.07447 0.57869 0.0
C121 C 0.51845 0.09262 0.58259 0.0
O122 O 0.52067 0.12437 0.42351 0.0
O123 O 0.55697 0.17636 0.4041 0.0
C124 C 0.48978 0.06012 0.44529 0.0
C125 C 0.53765 0.14639 0.39306 0.0
Zn126 Zn 0.29193 0.50951 0.30094 0.0
Zn127 Zn 0.26836 0.39933 0.36182 0.0
Zn128 Zn 0.27823 0.45839 0.33264 0.0
C129 C 0.23482 0.42267 0.42011 0.0
C130 C 0.33681 0.44325 0.35956 0.0
O131 O 0.26448 0.45242 0.25982 0.0
O132 O 0.26318 0.4987 0.24786 0.0
C133 C 0.25871 0.50848 0.37581 0.0
O134 O 0.24407 0.44566 0.3898 0.0
O135 O 0.24445 0.40147 0.41781 0.0
O136 O 0.31645 0.4123 0.36238 0.0
O137 O 0.32635 0.46387 0.35218 0.0
O138 O 0.28262 0.53042 0.35286 0.0
O139 O 0.25034 0.47762 0.37111 0.0
O140 O 0.33355 0.49725 0.34009 0.0
O141 O 0.33904 0.53063 0.28369 0.0
C142 C 0.35224 0.523 0.31522 0.0
O143 O 0.24973 0.41978 0.2803 0.0
O144 O 0.23998 0.37213 0.31094 0.0
C145 C 0.25955 0.47157 0.23304 0.0
C146 C 0.23546 0.38765 0.2791 0.0
Zn147 Zn 0.50032 0.82072 0.2822 0.0
Zn148 Zn 0.59363 0.86442 0.37094 0.0
Zn149 Zn 0.5426 0.83109 0.32884 0.0
C150 C 0.5472 0.80551 0.42212 0.0
C151 C 0.56595 0.90502 0.35126 0.0
O152 O 0.55218 0.82221 0.25957 0.0
O153 O 0.52932 0.84999 0.23148 0.0
C154 C 0.49104 0.75935 0.31771 0.0
O155 O 0.52705 0.79978 0.38889 0.0
O156 O 0.57607 0.83118 0.422 0.0
O157 O 0.59018 0.90607 0.37266 0.0
O158 O 0.54513 0.87827 0.33109 0.0
O159 O 0.48827 0.77083 0.27996 0.0
O160 O 0.50505 0.78013 0.3506 0.0
O161 O 0.49656 0.80552 0.37159 0.0
O162 O 0.47909 0.83404 0.33187 0.0
C163 C 0.47717 0.81796 0.36758 0.0
O164 O 0.57941 0.82377 0.29196 0.0
O165 O 0.62485 0.85956 0.3291 0.0
C166 C 0.54663 0.83607 0.22553 0.0
C167 C 0.61114 0.83824 0.29796 0.0
Zn168 Zn 0.2202 0.73466 0.28582 0.0
Zn169 Zn 0.12978 0.72026 0.36437 0.0
Zn170 Zn 0.17649 0.71837 0.33033 0.0
C171 C 0.1762 0.72119 0.4334 0.0
C172 C 0.10422 0.65774 0.31974 0.0
O173 O 0.16124 0.69267 0.26276 0.0
O174 O 0.1968 0.74169 0.23434 0.0
C175 C 0.25267 0.75993 0.361 0.0
O176 O 0.19096 0.71613 0.39983 0.0
O177 O 0.15099 0.72459 0.42645 0.0
O178 O 0.09529 0.67453 0.34374 0.0
O179 O 0.13484 0.67082 0.30713 0.0
O180 O 0.25621 0.77255 0.32199 0.0
O181 O 0.22412 0.7344 0.37152 0.0
O182 O 0.20139 0.69678 0.36636 0.0
O183 O 0.21143 0.68607 0.2978 0.0
C184 C 0.2056 0.67746 0.33912 0.0
O185 O 0.18672 0.7661 0.31184 0.0
O186 O 0.13842 0.76148 0.32922 0.0
C187 C 0.17223 0.71269 0.22851 0.0
C188 C 0.16709 0.77781 0.31133 0.0
Zn189 Zn 0.44577 0.67098 0.78042 0.0
Zn190 Zn 0.59612 0.73557 0.87018 0.0
Zn191 Zn 0.53836 0.71513 0.82987 0.0
C192 C 0.55137 0.75008 0.92172 0.0
C193 C 0.57044 0.66871 0.86098 0.0
O194 O 0.54627 0.73455 0.7615 0.0
O195 O 0.4921 0.70399 0.75309 0.0
C196 C 0.46805 0.71631 0.86401 0.0
O197 O 0.53164 0.73861 0.88774 0.0
O198 O 0.57871 0.75003 0.92244 0.0
O199 O 0.59726 0.69348 0.87474 0.0
O200 O 0.54664 0.67279 0.84555 0.0
O201 O 0.44552 0.69517 0.83751 0.0
O202 O 0.49935 0.72444 0.86188 0.0
O203 O 0.51492 0.66172 0.83003 0.0
O204 O 0.48653 0.66701 0.77648 0.0
C205 C 0.48911 0.64824 0.80497 0.0
O206 O 0.5767 0.7525 0.78486 0.0
O207 O 0.62358 0.7685 0.823 0.0
C208 C 0.52046 0.72422 0.73628 0.0
C209 C 0.6086 0.77109 0.78883 0.0
Zn210 Zn 0.26823 0.85923 0.89203 0.0
Zn211 Zn 0.307 0.81343 0.78687 0.0
Zn212 Zn 0.27861 0.82464 0.83902 0.0
C213 C 0.33584 0.81446 0.8674 0.0
C214 C 0.25939 0.75397 0.83021 0.0
O215 O 0.23371 0.81906 0.80855 0.0
O216 O 0.22829 0.85293 0.8557 0.0
C217 C 0.33335 0.89795 0.85542 0.0
O218 O 0.30464 0.80257 0.87729 0.0
O219 O 0.34636 0.82839 0.82921 0.0
O220 O 0.27017 0.76355 0.79041 0.0
O221 O 0.26837 0.77603 0.86174 0.0
O222 O 0.31376 0.90031 0.88317 0.0
O223 O 0.32385 0.87065 0.83462 0.0
O224 O 0.26472 0.79331 0.90093 0.0
O225 O 0.25884 0.82826 0.94567 0.0
C226 C 0.25732 0.80043 0.93985 0.0
O227 O 0.25432 0.81186 0.77162 0.0
O228 O 0.30207 0.8387 0.73498 0.0
C229 C 0.21781 0.8336 0.82178 0.0
C230 C 0.27038 0.82283 0.73404 0.0
Zn231 Zn 0.13501 0.40369 0.86898 0.0
Zn232 Zn 0.21728 0.51672 0.78891 0.0
Zn233 Zn 0.17987 0.46365 0.82964 0.0
C234 C 0.17449 0.52974 0.83514 0.0
C235 C 0.25947 0.50689 0.84331 0.0
O236 O 0.16737 0.42337 0.78163 0.0
O237 O 0.13469 0.37593 0.81804 0.0
C238 C 0.10722 0.44499 0.87156 0.0
O239 O 0.16044 0.49807 0.84194 0.0
O240 O 0.20211 0.5452 0.81486 0.0
O241 O 0.26081 0.5241 0.80942 0.0
O242 O 0.23103 0.4839 0.85854 0.0
O243 O 0.09861 0.41463 0.87678 0.0
O244 O 0.13673 0.4662 0.85703 0.0
O245 O 0.20734 0.45693 0.88427 0.0
O246 O 0.16778 0.41153 0.91847 0.0
C247 C 0.19775 0.43523 0.91637 0.0
O248 O 0.17792 0.45259 0.75532 0.0
O249 O 0.20382 0.50322 0.72612 0.0
C250 C 0.15186 0.39122 0.78372 0.0
C251 C 0.18697 0.47208 0.72046 0.0
Zn252 Zn 0.96148 0.85382 0.60627 0.0
Zn253 Zn 0.94167 0.75138 0.65632 0.0
Zn254 Zn 0.94657 0.80343 0.64393 0.0
C255 C 0.93843 0.78033 0.73923 0.0
C256 C 0.00522 0.7933 0.67421 0.0
O257 O 0.96012 0.79408 0.57784 0.0
O258 O 0.97008 0.84086 0.54536 0.0
C259 C 0.89504 0.82701 0.6397 0.0
O260 O 0.95963 0.80567 0.71554 0.0
O261 O 0.92366 0.75198 0.72026 0.0
O262 O 0.99093 0.76815 0.64852 0.0
O263 O 0.98916 0.80828 0.68578 0.0
O264 O 0.91788 0.85134 0.61806 0.0
O265 O 0.89942 0.80313 0.65314 0.0
O266 O 0.98546 0.83927 0.6913 0.0
O267 O 0.99889 0.88287 0.64708 0.0
C268 C 0.00346 0.87085 0.68299 0.0
O269 O 0.89334 0.76644 0.64123 0.0
O270 O 0.90866 0.73423 0.60666 0.0
C271 C 0.96709 0.81225 0.54241 0.0
C272 C 0.88628 0.74157 0.61507 0.0
Zn273 Zn 0.16722 0.15087 0.62132 0.0
Zn274 Zn 0.26065 0.21193 0.70764 0.0
Zn275 Zn 0.21061 0.16924 0.66834 0.0
C276 C 0.2184 0.15498 0.76616 0.0
C277 C 0.22503 0.24205 0.67602 0.0
O278 O 0.22187 0.15802 0.60118 0.0
O279 O 0.19358 0.1786 0.56807 0.0
C280 C 0.16329 0.09511 0.66686 0.0
O281 O 0.19975 0.1425 0.73115 0.0
O282 O 0.24385 0.18404 0.76472 0.0
O283 O 0.25208 0.24982 0.69627 0.0
O284 O 0.20603 0.21216 0.66309 0.0
O285 O 0.15937 0.10226 0.62667 0.0
O286 O 0.17686 0.11912 0.69588 0.0
O287 O 0.16511 0.14306 0.71145 0.0
O288 O 0.14238 0.16368 0.66592 0.0
C289 C 0.14267 0.15126 0.70402 0.0
O290 O 0.25007 0.16512 0.63568 0.0
O291 O 0.29364 0.20635 0.66986 0.0
C292 C 0.21409 0.16817 0.5651 0.0
C293 C 0.28177 0.18258 0.64171 0.0
Zn294 Zn 0.9092 0.02791 0.59479 0.0
Zn295 Zn 0.7994 0.07125 0.71821 0.0
Zn296 Zn 0.84035 0.05718 0.67745 0.0
C297 C 0.86147 0.0962 0.76794 0.0
C298 C 0.76754 0.00097 0.70658 0.0
O299 O 0.84862 0.07452 0.60932 0.0
O300 O 0.87924 0.05091 0.60452 0.0
C301 C 0.90855 0.06742 0.68631 0.0
O302 O 0.86971 0.0838 0.73502 0.0
O303 O 0.83277 0.09341 0.76919 0.0
O304 O 0.76175 0.02319 0.72158 0.0
O305 O 0.79647 0.00925 0.69042 0.0
O306 O 0.89738 0.05112 0.64929 0.0
O307 O 0.88918 0.07489 0.70788 0.0
O308 O 0.82155 0.00328 0.67344 0.0
O309 O 0.86607 0.01836 0.63257 0.0
C310 C 0.84008 0.99483 0.65166 0.0
O311 O 0.83367 0.09071 0.6305 0.0
O312 O 0.7992 0.10126 0.66935 0.0
C313 C 0.86566 0.06579 0.58467 0.0
C314 C 0.81712 0.10613 0.63464 0.0
Zn315 Zn 0.25784 0.06378 0.20133 0.0
Zn316 Zn 0.1603 0.03833 0.12475 0.0
Zn317 Zn 0.20726 0.0534 0.16494 0.0
C318 C 0.14116 0.9868 0.17881 0.0
C319 C 0.17267 0.09435 0.16794 0.0
O320 O 0.24804 0.08685 0.11961 0.0
O321 O 0.2897 0.10418 0.1684 0.0
C322 C 0.22916 0.9992 0.18553 0.0
O323 O 0.17289 0.99922 0.17379 0.0
O324 O 0.12773 0.00331 0.16608 0.0
O325 O 0.16543 0.08372 0.12785 0.0
O326 O 0.18471 0.08114 0.19483 0.0
O327 O 0.2589 0.0227 0.18942 0.0
O328 O 0.20532 0.00578 0.18062 0.0
O329 O 0.2078 0.08053 0.22543 0.0
O330 O 0.24217 0.06871 0.26193 0.0
C331 C 0.22196 0.07953 0.26232 0.0
O332 O 0.21952 0.06715 0.09303 0.0
O333 O 0.17307 0.02453 0.06761 0.0
C334 C 0.27868 0.10699 0.13059 0.0
C335 C 0.20217 0.04836 0.0598 0.0
Zn336 Zn 0.93114 0.07215 0.09742 0.0
Zn337 Zn 0.93538 0.2076 0.21252 0.0
Zn338 Zn 0.94263 0.15678 0.17492 0.0
C339 C 0.91028 0.14957 0.27094 0.0
C340 C 0.00517 0.22623 0.19422 0.0
O341 O 0.92742 0.15916 0.1055 0.0
O342 O 0.92439 0.11161 0.10382 0.0
C343 C 0.90454 0.0846 0.18498 0.0
O344 O 0.91671 0.1363 0.23723 0.0
O345 O 0.91719 0.17973 0.26956 0.0
O346 O 0.98535 0.237 0.20276 0.0
O347 O 0.99366 0.19516 0.18638 0.0
O348 O 0.91245 0.09197 0.14381 0.0
O349 O 0.9134 0.10916 0.21194 0.0
O350 O 0.97865 0.14107 0.15608 0.0
O351 O 0.98061 0.10002 0.1168 0.0
C352 C 0.99451 0.12693 0.14058 0.0
O353 O 0.91027 0.16903 0.13467 0.0
O354 O 0.90149 0.20655 0.1685 0.0
C355 C 0.92621 0.13578 0.0815 0.0
C356 C 0.89503 0.18584 0.13688 0.0
Zn357 Zn 0.80483 0.73705 0.19081 0.0
Zn358 Zn 0.88534 0.83813 0.11856 0.0
Zn359 Zn 0.84849 0.79094 0.15537 0.0
C360 C 0.85381 0.85932 0.1737 0.0
C361 C 0.92435 0.8226 0.16627 0.0
O362 O 0.83924 0.75261 0.10529 0.0
O363 O 0.80523 0.70715 0.14417 0.0
C364 C 0.77417 0.77435 0.1853 0.0
O365 O 0.83215 0.82824 0.16744 0.0
O366 O 0.88338 0.87052 0.16019 0.0
O367 O 0.92445 0.83169 0.126 0.0
O368 O 0.89702 0.80962 0.18932 0.0
O369 O 0.76696 0.74468 0.19294 0.0
O370 O 0.80413 0.79627 0.17298 0.0
O371 O 0.87215 0.7823 0.21612 0.0
O372 O 0.82853 0.7397 0.24836 0.0
C373 C 0.85924 0.76141 0.24924 0.0
O374 O 0.85435 0.78283 0.08019 0.0
O375 O 0.86737 0.83284 0.05629 0.0
C376 C 0.82296 0.7206 0.10956 0.0
C377 C 0.85988 0.8033 0.047 0.0
H378 H 0.57844 0.19474 0.07917 0.0
H379 H 0.47958 0.26902 0.96627 0.0
H380 H 0.51544 0.15127 0.96259 0.0
H381 H 0.53298 0.3036 0.09213 0.0
H382 H 0.47658 0.21513 0.97759 0.0
H383 H 0.54715 0.22235 0.09867 0.0
C384 C 0.55681 0.18951 0.0591 0.0
C385 C 0.54917 0.17035 0.01966 0.0
C386 C 0.48793 0.23401 0.00362 0.0
C387 C 0.51477 0.20401 0.03952 0.0
C388 C 0.48941 0.26465 -0.00279 0.0
C389 C 0.50698 0.29059 0.02807 0.0
C390 C 0.50483 0.22993 0.04058 0.0
C391 C 0.51958 0.28409 0.06742 0.0
C392 C 0.53923 0.20584 0.06968 0.0
C393 C 0.52208 0.16602 -0.00673 0.0
N394 N 0.51891 0.25462 0.07214 0.0
N395 N 0.5063 0.18333 0.00308 0.0
H396 H 0.69638 0.21131 0.08647 0.0
H397 H 0.85718 0.36903 0.98917 0.0
H398 H 0.74121 0.21775 0.95637 0.0
H399 H 0.78916 0.37129 0.0867 0.0
H400 H 0.83142 0.30861 0.00091 0.0
H401 H 0.7467 0.26315 0.10923 0.0
C402 C 0.71758 0.22276 0.06364 0.0
C403 C 0.71488 0.21058 0.01955 0.0
C404 C 0.823 0.32252 0.02105 0.0
C405 C 0.7717 0.26984 0.04463 0.0
C406 C 0.83776 0.35692 0.0145 0.0
C407 C 0.82509 0.37479 0.03701 0.0
C408 C 0.79512 0.30607 0.04975 0.0
C409 C 0.79954 0.35814 0.06886 0.0
C410 C 0.74611 0.25242 0.07644 0.0
C411 C 0.74256 0.2265 0.99072 0.0
N412 N 0.78494 0.32451 0.07378 0.0
N413 N 0.76967 0.25571 0.00346 0.0
H414 H 0.63503 0.49941 -2e-05 0.0
H415 H 0.78049 0.47722 0.09988 0.0
H416 H 0.62255 0.42859 0.10357 0.0
H417 H 0.78532 0.52953 0.977 0.0
H418 H 0.73 0.47847 0.122 0.0
H419 H 0.69529 0.52933 0.0135 0.0
C420 C 0.64488 0.49118 0.02725 0.0
C421 C 0.62394 0.46149 0.0506 0.0
C422 C 0.74277 0.4908 0.091 0.0
C423 C 0.69298 0.49455 0.06476 0.0
C424 C 0.77176 0.49039 0.07863 0.0
C425 C 0.78693 0.50332 0.03664 0.0
C426 C 0.7287 0.5038 0.06074 0.0
C427 C 0.77436 0.51946 0.00977 0.0
C428 C 0.67936 0.508 0.03456 0.0
C429 C 0.63793 0.45149 0.08499 0.0
N430 N 0.74559 0.5187 0.02185 0.0
N431 N 0.67176 0.46747 0.09024 0.0
H432 H 0.67809 0.46 0.56139 0.0
H433 H 0.85833 0.49365 0.51582 0.0
H434 H 0.74781 0.53062 0.46568 0.0
H435 H 0.78177 0.41085 0.59086 0.0
H436 H 0.82825 0.52409 0.52715 0.0
H437 H 0.72462 0.46092 0.60202 0.0
C438 C 0.7034 0.47753 0.55066 0.0
C439 C 0.70903 0.49435 0.50918 0.0
C440 C 0.8187 0.49985 0.54291 0.0
C441 C 0.76231 0.4947 0.5544 0.0
C442 C 0.83619 0.48266 0.53699 0.0
C443 C 0.82246 0.4497 0.55237 0.0
C444 C 0.78703 0.48366 0.56375 0.0
C445 C 0.79322 0.4363 0.57858 0.0
C446 C 0.73001 0.47745 0.57332 0.0
C447 C 0.74235 0.51666 0.49704 0.0
N448 N 0.77602 0.45293 0.58246 0.0
N449 N 0.76767 0.51519 0.51834 0.0
H450 H 0.47786 0.2217 0.45004 0.0
H451 H 0.59932 0.3824 0.5658 0.0
H452 H 0.51676 0.22615 0.58371 0.0
H453 H 0.54422 0.37825 0.44629 0.0
H454 H 0.55392 0.32739 0.58806 0.0
H455 H 0.48386 0.27663 0.46166 0.0
C456 C 0.48585 0.23347 0.48289 0.0
C457 C 0.49719 0.21967 0.5158 0.0
C458 C 0.5509 0.33891 0.55786 0.0
C459 C 0.50624 0.28343 0.52847 0.0
C460 C 0.57674 0.37063 0.54554 0.0
C461 C 0.57556 0.38454 0.50395 0.0
C462 C 0.52449 0.32065 0.52734 0.0
C463 C 0.54603 0.36813 0.47857 0.0
C464 C 0.48978 0.26515 0.48941 0.0
C465 C 0.50791 0.23615 0.55743 0.0
N466 N 0.52215 0.3365 0.48976 0.0
N467 N 0.51326 0.26767 0.56209 0.0
H468 H 0.62546 0.14057 0.50155 0.0
H469 H 0.78687 0.30369 0.584 0.0
H470 H 0.62803 0.20892 0.60219 0.0
H471 H 0.77215 0.25997 0.45143 0.0
H472 H 0.73759 0.25268 0.61116 0.0
H473 H 0.68642 0.16705 0.50619 0.0
C474 C 0.63871 0.1598 0.5267 0.0
C475 C 0.62196 0.17285 0.55131 0.0
C476 C 0.74595 0.25369 0.57663 0.0
C477 C 0.69136 0.20365 0.55597 0.0
C478 C 0.77414 0.28264 0.56123 0.0
C479 C 0.78348 0.28573 0.51558 0.0
C480 C 0.72679 0.22803 0.54586 0.0
C481 C 0.76576 0.25827 0.48699 0.0
C482 C 0.67351 0.17519 0.52888 0.0
C483 C 0.64019 0.19823 0.58268 0.0
N484 N 0.73784 0.23068 0.50241 0.0
N485 N 0.6741 0.21339 0.58341 0.0
H486 H 0.2154 0.66239 0.42554 0.0
H487 H 0.19648 0.48919 0.34714 0.0
H488 H 0.1934 0.6232 0.28957 0.0
H489 H 0.27129 0.55357 0.44299 0.0
H490 H 0.17342 0.52659 0.34739 0.0
H491 H 0.21639 0.61203 0.45007 0.0
C492 C 0.21051 0.64309 0.40102 0.0
C493 C 0.20506 0.64714 0.35531 0.0
C494 C 0.19393 0.53168 0.36995 0.0
C495 C 0.20478 0.58946 0.38339 0.0
C496 C 0.20672 0.51007 0.37044 0.0
C497 C 0.23588 0.51857 0.39491 0.0
C498 C 0.2102 0.56151 0.3947 0.0
C499 C 0.24876 0.54632 0.42369 0.0
C500 C 0.21087 0.61442 0.41508 0.0
C501 C 0.1984 0.6213 0.32495 0.0
N502 N 0.23623 0.56731 0.42216 0.0
N503 N 0.19853 0.59356 0.33951 0.0
H504 H 0.48297 0.71527 0.25179 0.0
H505 H 0.37238 0.55442 0.39659 0.0
H506 H 0.47107 0.72108 0.39572 0.0
H507 H 0.40729 0.5532 0.26191 0.0
H508 H 0.41514 0.61358 0.40308 0.0
H509 H 0.46059 0.65543 0.25879 0.0
C510 C 0.47554 0.70386 0.28498 0.0
C511 C 0.47833 0.7231 0.3231 0.0
C512 C 0.41433 0.60009 0.37274 0.0
C513 C 0.45241 0.65406 0.33153 0.0
C514 C 0.39031 0.56608 0.36938 0.0
C515 C 0.38617 0.54902 0.32847 0.0
C516 C 0.43402 0.61688 0.33477 0.0
C517 C 0.40961 0.56552 0.29396 0.0
C518 C 0.46304 0.66963 0.28908 0.0
C519 C 0.469 0.70704 0.3654 0.0
N520 N 0.43191 0.59869 0.2974 0.0
N521 N 0.45586 0.6733 0.36841 0.0
H522 H 0.42865 0.75563 0.39459 0.0
H523 H 0.30489 0.82247 0.37499 0.0
H524 H 0.45879 0.8598 0.40379 0.0
H525 H 0.27043 0.71915 0.40513 0.0
H526 H 0.36085 0.83689 0.39989 0.0
H527 H 0.3712 0.74115 0.41378 0.0
C528 C 0.42349 0.77539 0.40293 0.0
C529 C 0.44829 0.80893 0.39735 0.0
C530 C 0.341 0.81111 0.40227 0.0
C531 C 0.38275 0.79277 0.41768 0.0
C532 C 0.30899 0.80295 0.38816 0.0
C533 C 0.28313 0.76961 0.38787 0.0
C534 C 0.34756 0.78559 0.41471 0.0
C535 C 0.28975 0.7452 0.405 0.0
C536 C 0.39061 0.76717 0.41334 0.0
C537 C 0.44023 0.83363 0.40756 0.0
N538 N 0.32155 0.75353 0.4166 0.0
N539 N 0.40808 0.82509 0.41624 0.0
H540 H 0.41327 0.69057 0.91802 0.0
H541 H 0.40331 0.85261 0.87421 0.0
H542 H 0.49671 0.78393 0.87362 0.0
H543 H 0.3202 0.75891 0.91873 0.0
H544 H 0.44163 0.83314 0.8958 0.0
H545 H 0.3841 0.71981 0.94125 0.0
C546 C 0.42597 0.71751 0.91484 0.0
C547 C 0.45728 0.73485 0.89357 0.0
C548 C 0.41514 0.81708 0.90204 0.0
C549 C 0.42343 0.76838 0.91816 0.0
C550 C 0.39321 0.82824 0.88989 0.0
C551 C 0.35847 0.80706 0.89401 0.0
C552 C 0.40223 0.78427 0.91782 0.0
C553 C 0.34677 0.77594 0.91479 0.0
C554 C 0.40917 0.73419 0.92769 0.0
C555 C 0.47259 0.76966 0.88995 0.0
N556 N 0.36856 0.76515 0.92492 0.0
N557 N 0.45513 0.78521 0.90095 0.0
H558 H 0.13646 0.54885 0.78892 0.0
H559 H 0.25132 0.72056 0.90969 0.0
H560 H 0.185 0.55899 0.91699 0.0
H561 H 0.21449 0.7076 0.77274 0.0
H562 H 0.21197 0.66134 0.92444 0.0
H563 H 0.14546 0.60522 0.79733 0.0
C564 C 0.14724 0.5623 0.82011 0.0
C565 C 0.16068 0.54987 0.85191 0.0
C566 C 0.21215 0.67158 0.89138 0.0
C567 C 0.17282 0.61458 0.86059 0.0
C568 C 0.23469 0.70523 0.88293 0.0
C569 C 0.2363 0.71861 0.83985 0.0
C570 C 0.1913 0.65133 0.85633 0.0
C571 C 0.21441 0.69793 0.80619 0.0
C572 C 0.15299 0.59471 0.82455 0.0
C573 C 0.17469 0.56814 0.89154 0.0
N574 N 0.19298 0.66523 0.81505 0.0
N575 N 0.18152 0.60021 0.89415 0.0
H576 H 0.29821 0.54948 0.90979 0.0
H577 H 0.44076 0.60294 0.751 0.0
H578 H 0.29419 0.47914 0.81129 0.0
H579 H 0.46799 0.62525 0.89156 0.0
H580 H 0.38597 0.55739 0.77402 0.0
H581 H 0.3595 0.57648 0.91023 0.0
C582 C 0.31018 0.53858 0.89027 0.0
C583 C 0.29136 0.51196 0.86071 0.0
C584 C 0.40423 0.57163 0.79988 0.0
C585 C 0.36087 0.54358 0.85913 0.0
C586 C 0.43537 0.59765 0.78675 0.0
C587 C 0.45877 0.61762 0.81943 0.0
C588 C 0.39602 0.56621 0.84604 0.0
C589 C 0.45055 0.61013 0.8654 0.0
C590 C 0.3451 0.55415 0.89018 0.0
C591 C 0.30797 0.49941 0.83486 0.0
N592 N 0.41936 0.58545 0.87749 0.0
N593 N 0.34189 0.51599 0.83351 0.0
H594 H 0.84749 0.96211 0.58082 0.0
H595 H 0.87867 0.84247 0.72089 0.0
H596 H 0.81989 0.94992 0.72183 0.0
H597 H 0.84733 0.82135 0.58181 0.0
H598 H 0.85183 0.87654 0.72654 0.0
H599 H 0.84456 0.90796 0.58207 0.0
C600 C 0.84028 0.94767 0.61188 0.0
C601 C 0.83388 0.96032 0.6512 0.0
C602 C 0.84945 0.86319 0.6954 0.0
C603 C 0.83129 0.89867 0.65338 0.0
C604 C 0.86432 0.84329 0.69239 0.0
C605 C 0.86523 0.82922 0.65074 0.0
C606 C 0.83613 0.86934 0.65619 0.0
C607 C 0.84712 0.83183 0.6145 0.0
C608 C 0.83841 0.91668 0.61259 0.0
C609 C 0.82484 0.94079 0.69075 0.0
N610 N 0.83421 0.85242 0.61757 0.0
N611 N 0.82456 0.91118 0.69119 0.0
H612 H 0.1534 0.04213 0.61551 0.0
H613 H 0.00879 0.91171 0.75244 0.0
H614 H 0.13888 0.06801 0.75047 0.0
H615 H 0.06595 0.88344 0.66724 0.0
H616 H 0.05805 0.96738 0.76074 0.0
H617 H 0.12308 0.98315 0.63702 0.0
C618 C 0.14413 0.03537 0.64984 0.0
C619 C 0.14828 0.05988 0.68111 0.0
C620 C 0.0603 0.94856 0.74189 0.0
C621 C 0.11327 0.9925 0.70587 0.0
C622 C 0.03231 0.91662 0.73776 0.0
C623 C 0.03343 0.89315 0.70905 0.0
C624 C 0.08894 0.95702 0.71588 0.0
C625 C 0.06424 0.90096 0.68979 0.0
C626 C 0.12712 0.00175 0.66227 0.0
C627 C 0.13604 0.04982 0.72529 0.0
N628 N 0.09048 0.93266 0.69208 0.0
N629 N 0.11834 0.01679 0.73611 0.0
H630 H 0.94338 0.03515 0.67207 0.0
H631 H 0.1145 0.18601 0.73656 0.0
H632 H 0.94947 0.12038 0.74006 0.0
H633 H 0.09984 0.0868 0.72664 0.0
H634 H 0.05435 0.16215 0.74748 0.0
H635 H 0.00023 0.05256 0.69718 0.0
C636 C 0.95668 0.05743 0.69257 0.0
C637 C 0.94195 0.07656 0.70373 0.0
C638 C 0.06435 0.14549 0.74476 0.0
C639 C 0.00695 0.09671 0.73243 0.0
C640 C 0.09874 0.15913 0.73912 0.0
C641 C 0.11202 0.13826 0.73102 0.0
C642 C 0.04319 0.11083 0.74079 0.0
C643 C 0.09057 0.10365 0.73344 0.0
C644 C 0.98896 0.06716 0.70732 0.0
C645 C 0.96002 0.10497 0.73079 0.0
N646 N 0.057 0.09096 0.73673 0.0
N647 N 0.99186 0.11457 0.74357 0.0
H648 H 0.18491 0.15103 0.1257 0.0
H649 H 0.016 0.12808 0.22609 0.0
H650 H 0.13532 0.08992 0.24216 0.0
H651 H 0.04975 0.15172 0.08796 0.0
H652 H 0.07095 0.13597 0.24761 0.0
H653 H 0.14881 0.17532 0.13051 0.0
C654 C 0.16734 0.14385 0.15355 0.0
C655 C 0.16254 0.11813 0.18313 0.0
C656 C 0.06664 0.14052 0.21295 0.0
C657 C 0.12043 0.14467 0.18767 0.0
C658 C 0.03551 0.13614 0.20074 0.0
C659 C 0.02881 0.13924 0.1553 0.0
C660 C 0.09099 0.1484 0.17937 0.0
C661 C 0.05426 0.1491 0.12331 0.0
C662 C 0.14657 0.15747 0.15603 0.0
C663 C 0.13953 0.1096 0.21859 0.0
N664 N 0.08425 0.15311 0.13591 0.0
N665 N 0.11845 0.12213 0.21911 0.0
H666 H 0.80946 0.87776 0.144 0.0
H667 H 0.92242 0.05611 0.25365 0.0
H668 H 0.88319 0.89791 0.24682 0.0
H669 H 0.84951 0.03354 0.14859 0.0
H670 H 0.89892 0.99581 0.26638 0.0
H671 H 0.81226 0.93059 0.16183 0.0
C672 C 0.82486 0.89244 0.17201 0.0
C673 C 0.84574 0.88331 0.1944 0.0
C674 C 0.88755 0.00407 0.2413 0.0
C675 C 0.85109 0.945 0.21287 0.0
C676 C 0.90092 0.03843 0.2342 0.0
C677 C 0.88803 0.0495 0.19969 0.0
C678 C 0.86111 0.98097 0.21376 0.0
C679 C 0.8604 0.02579 0.17505 0.0
C680 C 0.8271 0.92307 0.18161 0.0
C681 C 0.86661 0.90417 0.22893 0.0
N682 N 0.84806 0.9927 0.18226 0.0
N683 N 0.86931 0.93438 0.2365 0.0
H684 H 0.10927 0.96727 0.25944 0.0
H685 H 0.97031 0.80804 0.1341 0.0
H686 H 0.12044 0.93008 0.13099 0.0
H687 H 0.95217 0.85934 0.24217 0.0
H688 H 0.02979 0.8377 0.15332 0.0
H689 H 0.05778 0.91402 0.27297 0.0
C690 C 0.10168 0.9472 0.23519 0.0
C691 C 0.11914 0.95261 0.19443 0.0
C692 C 0.01269 0.84169 0.17385 0.0
C693 C 0.06007 0.89253 0.20867 0.0
C694 C 0.97881 0.8247 0.16297 0.0
C695 C 0.95666 0.8315 0.18658 0.0
C696 C 0.02444 0.86626 0.2077 0.0
C697 C 0.96868 0.85349 0.22334 0.0
C698 C 0.07225 0.91698 0.24271 0.0
C699 C 0.10799 0.92644 0.1633 0.0
N700 N 0.00198 0.87066 0.23228 0.0
N701 N 0.07883 0.89765 0.17075 0.0
H702 H 0.48522 0.09587 0.3459 0.0
H703 H 0.58759 0.15724 0.11553 0.0
H704 H 0.58611 0.17816 0.33079 0.0
H705 H 0.52152 0.05226 0.13963 0.0
H706 H 0.57081 0.16974 0.18756 0.0
H707 H 0.48493 0.08335 0.26448 0.0
C708 C 0.50717 0.11119 0.32549 0.0
C709 C 0.53597 0.13761 0.34501 0.0
C710 C 0.55934 0.14398 0.17662 0.0
C711 C 0.53516 0.1246 0.25292 0.0
C712 C 0.56843 0.13694 0.13516 0.0
C713 C 0.5555 0.10385 0.12146 0.0
C714 C 0.53774 0.11766 0.20508 0.0
C715 C 0.53212 0.07816 0.14938 0.0
C716 C 0.50688 0.1042 0.27933 0.0
C717 C 0.56348 0.15737 0.31719 0.0
N718 N 0.52421 0.08557 0.19047 0.0
N719 N 0.56239 0.15043 0.27263 0.0
H720 H 0.92343 0.41079 0.35727 0.0
H721 H 0.8562 0.40817 0.11148 0.0
H722 H 0.82719 0.39619 0.31648 0.0
H723 H 0.95903 0.47741 0.14503 0.0
H724 H 0.84994 0.3789 0.18166 0.0
H725 H 0.93952 0.41592 0.27685 0.0
C726 C 0.90585 0.40891 0.33166 0.0
C727 C 0.87421 0.40385 0.34361 0.0
C728 C 0.87424 0.39989 0.17301 0.0
C729 C 0.8915 0.40722 0.25279 0.0
C730 C 0.87791 0.41643 0.13248 0.0
C731 C 0.90781 0.44575 0.12271 0.0
C732 C 0.90018 0.41374 0.20481 0.0
C733 C 0.93504 0.45557 0.1522 0.0
C734 C 0.91483 0.41116 0.28603 0.0
C735 C 0.85191 0.40031 0.30907 0.0
N736 N 0.93029 0.44021 0.19297 0.0
N737 N 0.86102 0.40206 0.26537 0.0
H738 H 0.65013 0.50726 0.32769 0.0
H739 H 0.48367 0.41052 0.18118 0.0
H740 H 0.5591 0.42288 0.37625 0.0
H741 H 0.5829 0.46451 0.12395 0.0
H742 H 0.50746 0.4295 0.25643 0.0
H743 H 0.62115 0.50712 0.25798 0.0
C744 C 0.62355 0.48988 0.3246 0.0
C745 C 0.60665 0.46549 0.35787 0.0
C746 C 0.52395 0.43746 0.22731 0.0
C747 C 0.57404 0.46398 0.27781 0.0
C748 C 0.51048 0.42664 0.18431 0.0
C749 C 0.53147 0.43531 0.14623 0.0
C750 C 0.55866 0.45734 0.23234 0.0
C751 C 0.56592 0.45652 0.15244 0.0
C752 C 0.60724 0.48938 0.28457 0.0
C753 C 0.57268 0.44251 0.35165 0.0
N754 N 0.57851 0.46663 0.1948 0.0
N755 N 0.55759 0.44186 0.31189 0.0
H756 H 0.86932 0.51379 0.82367 0.0
H757 H 0.90003 0.39202 0.66606 0.0
H758 H 0.88758 0.43654 0.87163 0.0
H759 H 0.89111 0.47366 0.61136 0.0
H760 H 0.89633 0.4097 0.74203 0.0
H761 H 0.88007 0.50271 0.74574 0.0
C762 C 0.87673 0.49532 0.81773 0.0
C763 C 0.87896 0.47684 0.85374 0.0
C764 C 0.89557 0.42413 0.71364 0.0
C765 C 0.88981 0.46316 0.7658 0.0
C766 C 0.89767 0.414 0.67027 0.0
C767 C 0.89633 0.43176 0.63277 0.0
C768 C 0.89239 0.45248 0.71968 0.0
C769 C 0.89231 0.45947 0.63976 0.0
C770 C 0.88257 0.48882 0.77351 0.0
C771 C 0.88746 0.45244 0.84486 0.0
N772 N 0.89065 0.46919 0.68267 0.0
N773 N 0.89237 0.44615 0.80172 0.0
H774 H 0.61314 0.48449 0.64747 0.0
H775 H 0.49801 0.35416 0.83 0.0
H776 H 0.51551 0.40519 0.60867 0.0
H777 H 0.56222 0.45806 0.86235 0.0
H778 H 0.50497 0.3685 0.74904 0.0
H779 H 0.59793 0.47074 0.72721 0.0
C780 C 0.58878 0.46354 0.65596 0.0
C781 C 0.56577 0.4453 0.62192 0.0
C782 C 0.51693 0.3882 0.7739 0.0
C783 C 0.54797 0.42991 0.71261 0.0
C784 C 0.51289 0.38009 0.8199 0.0
C785 C 0.52937 0.40509 0.85249 0.0
C786 C 0.5386 0.42133 0.76068 0.0
C787 C 0.54882 0.43823 0.83806 0.0
C788 C 0.57992 0.45612 0.7013 0.0
C789 C 0.53408 0.41922 0.63428 0.0
N790 N 0.55344 0.44536 0.79306 0.0
N791 N 0.52613 0.41197 0.67887 0.0
H792 H 0.55109 0.08079 0.85823 0.0
H793 H 0.58554 0.11747 0.59775 0.0
H794 H 0.64958 0.14407 0.80477 0.0
H795 H 0.48864 0.05596 0.65826 0.0
H796 H 0.61181 0.1175 0.66964 0.0
H797 H 0.53059 0.05987 0.78321 0.0
C798 C 0.5687 0.0889 0.83092 0.0
C799 C 0.60202 0.1131 0.83808 0.0
C800 C 0.58481 0.10373 0.66697 0.0
C801 C 0.5785 0.09201 0.75055 0.0
C802 C 0.56985 0.10423 0.62616 0.0
C803 C 0.53495 0.08844 0.62278 0.0
C804 C 0.56453 0.08699 0.70437 0.0
C805 C 0.51568 0.06948 0.65967 0.0
C806 C 0.55693 0.07769 0.78761 0.0
C807 C 0.62354 0.12524 0.80059 0.0
N808 N 0.53073 0.06973 0.69912 0.0
N809 N 0.61126 0.11494 0.75815 0.0
H810 H 0.2017 0.45737 0.43225 0.0
H811 H 0.14986 0.40692 0.68904 0.0
H812 H 0.2205 0.3851 0.49769 0.0
H813 H 0.20782 0.50866 0.64276 0.0
H814 H 0.15214 0.38769 0.61217 0.0
H815 H 0.17875 0.46445 0.50319 0.0
C816 C 0.20109 0.44307 0.46142 0.0
C817 C 0.21488 0.42217 0.45969 0.0
C818 C 0.16399 0.41417 0.61917 0.0
C819 C 0.18666 0.42843 0.53992 0.0
C820 C 0.16345 0.42511 0.66315 0.0
C821 C 0.18099 0.4593 0.67333 0.0
C822 C 0.18042 0.43782 0.58486 0.0
C823 C 0.19507 0.48197 0.63717 0.0
C824 C 0.18743 0.44665 0.50159 0.0
C825 C 0.21111 0.40232 0.49783 0.0
N826 N 0.19467 0.47083 0.59467 0.0
N827 N 0.19776 0.40628 0.53674 0.0
H828 H 0.58551 0.78458 0.46264 0.0
H829 H 0.46972 0.71639 0.68182 0.0
H830 H 0.48855 0.77638 0.47048 0.0
H831 H 0.57556 0.75108 0.68085 0.0
H832 H 0.47215 0.7279 0.6008 0.0
H833 H 0.5767 0.75902 0.53741 0.0
C834 C 0.56208 0.77681 0.48002 0.0
C835 C 0.53792 0.78301 0.46112 0.0
C836 C 0.49479 0.73291 0.61829 0.0
C837 C 0.5281 0.75476 0.54691 0.0
C838 C 0.49352 0.72649 0.66452 0.0
C839 C 0.5226 0.73304 0.68806 0.0
C840 C 0.5253 0.74569 0.59534 0.0
C841 C 0.55267 0.74602 0.66405 0.0
C842 C 0.55718 0.76247 0.52271 0.0
C843 C 0.50779 0.7721 0.4843 0.0
N844 N 0.55323 0.75189 0.61888 0.0
N845 N 0.50391 0.75896 0.52663 0.0
H846 H 0.29227 0.84972 0.64993 0.0
H847 H 0.14583 0.69694 0.51482 0.0
H848 H 0.21208 0.76457 0.71767 0.0
H849 H 0.24009 0.76763 0.45478 0.0
H850 H 0.16778 0.72177 0.58933 0.0
H851 H 0.27048 0.82208 0.5771 0.0
C852 C 0.26963 0.82553 0.64941 0.0
C853 C 0.25361 0.80975 0.68995 0.0
C854 C 0.1839 0.73144 0.55995 0.0
C855 C 0.22901 0.77753 0.60675 0.0
C856 C 0.1715 0.71705 0.51759 0.0
C857 C 0.19151 0.72975 0.4788 0.0
C858 C 0.21619 0.75938 0.56324 0.0
C859 C 0.22428 0.75635 0.48393 0.0
C860 C 0.25743 0.80959 0.60788 0.0
C861 C 0.22466 0.77815 0.68726 0.0
N862 N 0.23547 0.77059 0.52523 0.0
N863 N 0.21333 0.76306 0.64642 0.0
H864 H 0.53094 0.71602 -0.00044 0.0
H865 H 0.5437 0.86576 0.14663 0.0
H866 H 0.55314 0.80905 0.93712 0.0
H867 H 0.56161 0.78887 0.1985 0.0
H868 H 0.54065 0.84429 0.06983 0.0
H869 H 0.53093 0.73931 0.07374 0.0
C870 C 0.53488 0.74112 0.00163 0.0
C871 C 0.54183 0.76073 0.96273 0.0
C872 C 0.5456 0.83244 0.09807 0.0
C873 C 0.54332 0.78798 0.04704 0.0
C874 C 0.5476 0.84478 0.14178 0.0
C875 C 0.55266 0.82889 0.17901 0.0
C876 C 0.54812 0.80377 0.0919 0.0
C877 C 0.55761 0.80187 0.17086 0.0
C878 C 0.53542 0.75457 0.04384 0.0
C879 C 0.54731 0.79322 0.9667 0.0
N880 N 0.55471 0.78986 0.12825 0.0
N881 N 0.54824 0.8061 0.00844 0.0
H882 H 0.20619 0.7356 0.93594 0.0
H883 H 0.14127 0.732 0.16805 0.0
H884 H 0.27469 0.81027 0.02881 0.0
H885 H 0.19204 0.67586 0.18028 0.0
H886 H 0.15987 0.74461 0.08911 0.0
H887 H 0.17525 0.69972 0.00101 0.0
C888 C 0.21556 0.74378 0.96987 0.0
C889 C 0.24349 0.77561 0.97705 0.0
C890 C 0.16546 0.72809 0.10844 0.0
C891 C 0.20786 0.73541 0.05098 0.0
C892 C 0.15434 0.72035 0.15325 0.0
C893 C 0.16468 0.70241 0.18072 0.0
C894 C 0.18722 0.71801 0.0911 0.0
C895 C 0.18296 0.68921 0.16008 0.0
C896 C 0.19765 0.72353 0.00683 0.0
C897 C 0.25355 0.78578 0.02181 0.0
N898 N 0.19476 0.69831 0.11697 0.0
N899 N 0.2356 0.76588 0.05706 0.0
H900 H 0.19765 0.38753 0.9707 0.0
H901 H 0.25304 0.51024 0.16932 0.0
H902 H 0.24763 0.49408 0.94995 0.0
H903 H 0.25694 0.41941 0.18453 0.0
H904 H 0.25088 0.50331 0.08789 0.0
H905 H 0.22188 0.39693 0.04666 0.0
C906 C 0.21452 0.41287 0.9817 0.0
C907 C 0.22002 0.44013 0.95469 0.0
C908 C 0.25241 0.48496 0.10898 0.0
C909 C 0.24686 0.45092 0.04128 0.0
C910 C 0.25309 0.48857 0.15563 0.0
C911 C 0.25448 0.46497 0.18402 0.0
C912 C 0.25233 0.45715 0.09028 0.0
C913 C 0.25499 0.43772 0.16403 0.0
C914 C 0.22834 0.4182 0.02493 0.0
C915 C 0.24247 0.47241 0.96995 0.0
N916 N 0.25341 0.43425 0.11821 0.0
N917 N 0.25434 0.47698 0.0129 0.0
H918 H 0.94486 0.8365 0.77936 0.0
H919 H 0.85394 0.74538 0.01078 0.0
H920 H 0.90885 0.73212 0.80459 0.0
H921 H 0.87551 0.84406 0.97297 0.0
H922 H 0.8737 0.73923 0.9364 0.0
H923 H 0.92143 0.83997 0.85215 0.0
C924 C 0.9326 0.81447 0.80062 0.0
C925 C 0.92901 0.78405 0.78598 0.0
C926 C 0.87391 0.76216 0.94434 0.0
C927 C 0.90164 0.78765 0.86926 0.0
C928 C 0.86268 0.76565 0.987 0.0
C929 C 0.86412 0.7956 -0.00082 0.0
C930 C 0.88652 0.78888 0.91337 0.0
C931 C 0.87454 0.82067 0.96584 0.0
C932 C 0.91884 0.81633 0.84197 0.0
C933 C 0.91225 0.75611 0.8146 0.0
N934 N 0.88567 0.8169 0.92488 0.0
N935 N 0.89926 0.75859 0.85485 0.0
H936 H 0.22658 0.17798 0.85169 0.0
H937 H 0.17438 0.01183 0.9825 0.0
H938 H 0.19844 0.08869 0.77465 0.0
H939 H 0.25113 0.10834 0.02856 0.0
H940 H 0.17846 0.03545 0.90671 0.0
H941 H 0.22706 0.14891 0.92032 0.0
C942 C 0.22003 0.15203 0.84948 0.0
C943 C 0.21225 0.13553 0.80781 0.0
C944 C 0.19482 0.05122 0.93338 0.0
C945 C 0.21366 0.10246 0.88567 0.0
C946 C 0.19268 0.03783 0.97651 0.0
C947 C 0.21183 0.05864 0.01234 0.0
C948 C 0.21577 0.08561 0.92678 0.0
C949 C 0.23548 0.09177 0.00246 0.0
C950 C 0.22071 0.13561 0.88841 0.0
C951 C 0.20382 0.1019 0.80652 0.0
N952 N 0.23621 0.10452 0.96093 0.0
N953 N 0.20482 0.08631 0.84511 0.0
H954 H 0.90536 0.07909 0.80314 0.0
H955 H 0.92982 0.18501 0.02672 0.0
H956 H 0.86886 0.14779 0.82008 0.0
H957 H 0.92756 0.09069 0.02319 0.0
H958 H 0.92764 0.18465 0.94383 0.0
H959 H 0.93425 0.09736 0.87604 0.0
C960 C 0.90422 0.09867 0.82165 0.0
C961 C 0.88424 0.11154 0.80636 0.0
C962 C 0.92811 0.16432 0.96134 0.0
C963 C 0.91684 0.13227 0.88918 0.0
C964 C 0.92919 0.1644 0.00852 0.0
C965 C 0.92802 0.13741 0.03178 0.0
C966 C 0.92587 0.13707 0.93751 0.0
C967 C 0.92785 0.11167 0.00663 0.0
C968 C 0.92054 0.10895 0.86322 0.0
C969 C 0.88346 0.13679 0.83144 0.0
N970 N 0.92636 0.11193 0.96077 0.0
N971 N 0.89921 0.14609 0.87201 0.0
H972 H 0.20947 0.13097 0.27687 0.0
H973 H 0.23174 0.1221 0.54425 0.0
H974 H 0.22267 0.05604 0.34547 0.0
H975 H 0.21175 0.19502 0.4834 0.0
H976 H 0.23317 0.10118 0.46965 0.0
H977 H 0.21084 0.15621 0.35079 0.0
C978 C 0.21206 0.11958 0.30752 0.0
C979 C 0.21644 0.09177 0.30537 0.0
C980 C 0.22889 0.12206 0.47233 0.0
C981 C 0.21855 0.12044 0.38905 0.0
C982 C 0.22884 0.1345 0.51506 0.0
C983 C 0.22204 0.16055 0.52004 0.0
C984 C 0.22177 0.13556 0.43415 0.0
C985 C 0.21704 0.17479 0.48091 0.0
C986 C 0.21319 0.13411 0.34951 0.0
C987 C 0.2198 0.07787 0.34576 0.0
N988 N 0.21672 0.16191 0.43946 0.0
N989 N 0.22097 0.09245 0.38585 0.0
H990 H 0.86912 0.15465 0.33214 0.0
H991 H 0.90491 0.057 0.52261 0.0
H992 H 0.92047 0.10044 0.30405 0.0
H993 H 0.82935 0.08529 0.53431 0.0
H994 H 0.90914 0.06968 0.44136 0.0
H995 H 0.85185 0.12659 0.4054 0.0
C996 C 0.87648 0.1366 0.34138 0.0
C997 C 0.8965 0.13006 0.31254 0.0
C998 C 0.89148 0.07285 0.46179 0.0
C999 C 0.8775 0.09836 0.39628 0.0
C1000 C 0.88922 0.06581 0.50811 0.0
C1001 C 0.8676 0.07123 0.53541 0.0
C1002 C 0.87214 0.08556 0.44313 0.0
C1003 C 0.84728 0.08196 0.51485 0.0
C1004 C 0.86655 0.12046 0.38302 0.0
C1005 C 0.90504 0.10613 0.32555 0.0
N1006 N 0.85035 0.08919 0.47008 0.0
N1007 N 0.89599 0.09152 0.36698 0.0
H1008 H 0.83639 0.72985 0.33083 0.0
H1009 H 0.99796 0.84455 0.46425 0.0
H1010 H 0.92755 0.79418 0.25928 0.0
H1011 H 0.92481 0.74799 0.5161 0.0
H1012 H 0.97549 0.82627 0.38803 0.0
H1013 H 0.869 0.73541 0.39858 0.0
C1014 C 0.86336 0.74522 0.32917 0.0
C1015 C 0.87929 0.76281 0.28945 0.0
C1016 C 0.96502 0.80871 0.41584 0.0
C1017 C 0.91681 0.76926 0.36729 0.0
C1018 C 0.97799 0.81905 0.45932 0.0
C1019 C 0.96303 0.79784 0.49663 0.0
C1020 C 0.93634 0.77729 0.40993 0.0
C1021 C 0.93708 0.76515 0.48836 0.0
C1022 C 0.88198 0.74819 0.3679 0.0
C1023 C 0.91428 0.78182 0.28954 0.0
N1024 N 0.92387 0.75618 0.44607 0.0
N1025 N 0.9319 0.78512 0.328 0.0
H1026 H 0.38663 0.8959 0.81818 0.0
H1027 H 0.51564 0.06719 0.9369 0.0
H1028 H 0.35995 0.96201 0.88546 0.0
H1029 H 0.54051 0.99247 0.89848 0.0
H1030 H 0.46165 0.03514 0.89962 0.0
H1031 H 0.44574 0.93745 0.82829 0.0
C1032 C 0.39316 0.91939 0.83425 0.0
C1033 C 0.36836 0.92521 0.85205 0.0
C1034 C 0.47903 0.02592 0.89857 0.0
C1035 C 0.43571 0.97261 0.86359 0.0
C1036 C 0.50983 0.04422 0.91971 0.0
C1037 C 0.53257 0.03259 0.91986 0.0
C1038 C 0.47044 0.99521 0.87853 0.0
C1039 C 0.52368 0.00235 0.89836 0.0
C1040 C 0.42689 0.94301 0.84013 0.0
C1041 C 0.37825 0.95622 0.87204 0.0
N1042 N 0.49307 0.98449 0.87864 0.0
N1043 N 0.41117 0.97859 0.87776 0.0
H1044 H 0.01127 0.55973 0.92607 0.0
H1045 H 0.04059 0.41017 0.85274 0.0
H1046 H 0.93213 0.45712 0.91952 0.0
H1047 H 0.11716 0.50309 0.90882 0.0
H1048 H 0.00036 0.42969 0.86059 0.0
H1049 H 0.05063 0.54282 0.89892 0.0
C1050 C 0.00188 0.53388 0.91694 0.0
C1051 C 0.96819 0.50984 0.92419 0.0
C1052 C 0.02612 0.44601 0.87054 0.0
C1053 C 0.01308 0.49024 0.89444 0.0
C1054 C 0.04895 0.43481 0.86643 0.0
C1055 C 0.08244 0.45564 0.87883 0.0
C1056 C 0.03694 0.47825 0.88714 0.0
C1057 C 0.09201 0.48717 0.89666 0.0
C1058 C 0.0244 0.52419 0.90207 0.0
C1059 C 0.95746 0.47661 0.91262 0.0
N1060 N 0.06941 0.49764 0.90016 0.0
N1061 N 0.97991 0.46769 0.89886 0.0
H1062 H 0.60296 0.64866 0.9183 0.0
H1063 H 0.49747 0.45377 0.86966 0.0
H1064 H 0.52695 0.61188 0.81446 0.0
H1065 H 0.52062 0.49849 0.0024 0.0
H1066 H 0.52209 0.51044 0.83603 0.0
H1067 H 0.58859 0.59132 0.93474 0.0
C1068 C 0.58365 0.6286 0.89842 0.0
C1069 C 0.56541 0.63487 0.86592 0.0
C1070 C 0.52175 0.50749 0.87245 0.0
C1071 C 0.54922 0.56959 0.88431 0.0
C1072 C 0.50781 0.47548 0.89143 0.0
C1073 C 0.50686 0.47191 0.9386 0.0
C1074 C 0.53549 0.53541 0.9012 0.0
C1075 C 0.52052 0.50042 0.96583 0.0
C1076 C 0.5755 0.59598 0.90784 0.0
C1077 C 0.54084 0.60794 0.84084 0.0
N1078 N 0.53444 0.53099 0.94673 0.0
N1079 N 0.53309 0.5762 0.85094 0.0
H1080 H 0.01348 0.46755 0.43792 0.0
H1081 H 0.03676 0.62669 0.30716 0.0
H1082 H 0.92953 0.47435 0.38732 0.0
H1083 H 0.11716 0.60659 0.3289 0.0
H1084 H 0.99651 0.56902 0.32829 0.0
H1085 H 0.05102 0.51634 0.39315 0.0
C1086 C 0.00279 0.47896 0.41678 0.0
C1087 C 0.96811 0.46664 0.41655 0.0
C1088 C 0.02285 0.57687 0.32731 0.0
C1089 C 0.01147 0.52319 0.36492 0.0
C1090 C 0.04585 0.60974 0.3148 0.0
C1091 C 0.08037 0.62144 0.31609 0.0
C1092 C 0.03447 0.55569 0.34228 0.0
C1093 C 0.09079 0.59854 0.32688 0.0
C1094 C 0.02437 0.50689 0.39103 0.0
C1095 C 0.95599 0.48276 0.38848 0.0
N1096 N 0.068 0.56702 0.34053 0.0
N1097 N 0.97765 0.51042 0.36425 0.0
H1098 H 0.54152 0.47903 0.35927 0.0
H1099 H 0.38282 0.49919 0.40332 0.0
H1100 H 0.52008 0.50979 0.48644 0.0
H1101 H 0.37189 0.41481 0.32733 0.0
H1102 H 0.44155 0.51638 0.41711 0.0
H1103 H 0.48583 0.46622 0.3314 0.0
C1104 C 0.525 0.48253 0.38132 0.0
C1105 C 0.5351 0.49491 0.42522 0.0
C1106 C 0.42634 0.49436 0.39686 0.0
C1107 C 0.47295 0.48215 0.39356 0.0
C1108 C 0.39302 0.48469 0.3889 0.0
C1109 C 0.3727 0.45548 0.36461 0.0
C1110 C 0.43941 0.47495 0.37978 0.0
C1111 C 0.38689 0.43727 0.34684 0.0
C1112 C 0.49361 0.47574 0.36538 0.0
C1113 C 0.51343 0.50059 0.45212 0.0
N1114 N 0.41954 0.44727 0.35484 0.0
N1115 N 0.4835 0.49426 0.43586 0.0
H1116 H 0.52381 0.91733 0.29954 0.0
H1117 H 0.48811 0.00598 0.48099 0.0
H1118 H 0.59407 0.95704 0.41033 0.0
H1119 H 0.51987 0.06721 0.36069 0.0
H1120 H 0.5113 0.97328 0.45034 0.0
H1121 H 0.50817 0.96011 0.31423 0.0
C1122 C 0.53639 0.93539 0.32626 0.0
C1123 C 0.56001 0.93345 0.35409 0.0
C1124 C 0.51261 0.99357 0.43039 0.0
C1125 C 0.54216 0.98165 0.3708 0.0
C1126 C 0.49914 0.01212 0.44747 0.0
C1127 C 0.50126 0.03911 0.42279 0.0
C1128 C 0.52765 0.00132 0.38777 0.0
C1129 C 0.51703 0.04639 0.3803 0.0
C1130 C 0.52763 0.95979 0.33427 0.0
C1131 C 0.57565 0.9575 0.38816 0.0
N1132 N 0.52939 0.02724 0.36362 0.0
N1133 N 0.5658 0.98008 0.39632 0.0
H1134 H 0.19405 0.40522 0.23583 0.0
H1135 H 0.05768 0.21389 0.18978 0.0
H1136 H 0.21364 0.32391 0.25058 0.0
H1137 H 0.03607 0.29428 0.19806 0.0
H1138 H 0.11754 0.25506 0.1953 0.0
H1139 H 0.13964 0.36649 0.20271 0.0
C1140 C 0.18747 0.37949 0.23062 0.0
C1141 C 0.20833 0.36774 0.24642 0.0
C1142 C 0.09964 0.26364 0.19545 0.0
C1143 C 0.14559 0.32299 0.20984 0.0
C1144 C 0.06547 0.24013 0.19236 0.0
C1145 C 0.0417 0.25049 0.19413 0.0
C1146 C 0.11012 0.29777 0.20011 0.0
C1147 C 0.05336 0.28495 0.19719 0.0
C1148 C 0.15614 0.35723 0.21227 0.0
C1149 C 0.19817 0.33395 0.23931 0.0
N1150 N 0.0866 0.30722 0.20039 0.0
N1151 N 0.16734 0.31267 0.22224 0.0
H1152 H 0.6342 0.80199 0.3371 0.0
H1153 H 0.76482 0.82391 0.1478 0.0
H1154 H 0.63421 0.84766 0.20988 0.0
H1155 H 0.72411 0.74409 0.24589 0.0
H1156 H 0.72213 0.83839 0.17061 0.0
H1157 H 0.67242 0.78559 0.30537 0.0
C1158 C 0.64205 0.80811 0.30211 0.0
C1159 C 0.63103 0.82578 0.27577 0.0
C1160 C 0.72263 0.81762 0.18674 0.0
C1161 C 0.67529 0.8078 0.23933 0.0
C1162 C 0.74721 0.80979 0.1743 0.0
C1163 C 0.74851 0.78342 0.19578 0.0
C1164 C 0.6997 0.79903 0.22112 0.0
C1165 C 0.72427 0.76481 0.2286 0.0
C1166 C 0.66385 0.79883 0.28399 0.0
C1167 C 0.64212 0.83369 0.23086 0.0
N1168 N 0.70118 0.77317 0.24049 0.0
N1169 N 0.66409 0.82487 0.21394 0.0
H1170 H 0.23018 0.82534 0.28691 0.0
H1171 H 0.172 0.94127 0.16518 0.0
H1172 H 0.12735 0.8023 0.28298 0.0
H1173 H 0.27048 0.97889 0.22101 0.0
H1174 H 0.15662 0.88523 0.19163 0.0
H1175 H 0.24668 0.87777 0.24731 0.0
C1176 C 0.21109 0.8313 0.27762 0.0
C1177 C 0.17739 0.80966 0.2884 0.0
C1178 C 0.18163 0.90581 0.19783 0.0
C1179 C 0.196 0.86898 0.24269 0.0
C1180 C 0.19019 0.93767 0.18315 0.0
C1181 C 0.22181 0.96478 0.19276 0.0
C1182 C 0.20531 0.90117 0.22144 0.0
C1183 C 0.24551 0.95871 0.21363 0.0
C1184 C 0.22052 0.86111 0.25503 0.0
C1185 C 0.15364 0.81849 0.27561 0.0
N1186 N 0.23665 0.92749 0.22776 0.0
N1187 N 0.16341 0.84755 0.25327 0.0
H1188 H 0.76812 0.94784 0.6666 0.0
H1189 H 0.58762 0.81074 0.75038 0.0
H1190 H 0.70554 0.97302 0.74615 0.0
H1191 H 0.67295 0.79686 0.76068 0.0
H1192 H 0.62421 0.8669 0.71948 0.0
H1193 H 0.72645 0.88899 0.67399 0.0
C1194 C 0.74585 0.94116 0.68593 0.0
C1195 C 0.74106 0.96547 0.70741 0.0
C1196 C 0.63456 0.85106 0.7274 0.0
C1197 C 0.69241 0.89821 0.71344 0.0
C1198 C 0.61377 0.81903 0.74448 0.0
C1199 C 0.62749 0.79945 0.75821 0.0
C1200 C 0.6689 0.8629 0.72313 0.0
C1201 C 0.66157 0.81139 0.75057 0.0
C1202 C 0.72187 0.90753 0.68944 0.0
C1203 C 0.71061 0.95512 0.72978 0.0
N1204 N 0.68126 0.84256 0.73374 0.0
N1205 N 0.68741 0.92212 0.73245 0.0
H1206 H 0.03621 0.83325 0.74771 0.0
H1207 H 0.18908 0.7978 0.74423 0.0
H1208 H 0.04891 0.77376 0.64585 0.0
H1209 H 0.17653 0.85739 0.8459 0.0
H1210 H 0.13864 0.78994 0.70635 0.0
H1211 H 0.08885 0.84432 0.78253 0.0
C1212 C 0.05027 0.82287 0.73236 0.0
C1213 C 0.03819 0.80261 0.6938 0.0
C1214 C 0.14697 0.8048 0.73691 0.0
C1215 C 0.09816 0.81473 0.73376 0.0
C1216 C 0.17582 0.80927 0.75852 0.0
C1217 C 0.18726 0.82838 0.79813 0.0
C1218 C 0.12928 0.81944 0.75521 0.0
C1219 C 0.16883 0.84257 0.81528 0.0
C1220 C 0.08021 0.82901 0.75239 0.0
C1221 C 0.05722 0.78943 0.67568 0.0
N1222 N 0.14079 0.83777 0.79379 0.0
N1223 N 0.08617 0.79563 0.69587 0.0
H1224 H 0.16162 0.22983 0.66045 0.0
H1225 H 0.20954 0.41328 0.73651 0.0
H1226 H 0.26236 0.30968 0.68565 0.0
H1227 H 0.11239 0.32626 0.75749 0.0
H1228 H 0.22647 0.37923 0.69356 0.0
H1229 H 0.14146 0.26901 0.67169 0.0
C1230 C 0.1796 0.25575 0.66725 0.0
C1231 C 0.21364 0.26646 0.67298 0.0
C1232 C 0.20122 0.36776 0.70672 0.0
C1233 C 0.19076 0.31116 0.68569 0.0
C1234 C 0.19147 0.38716 0.731 0.0
C1235 C 0.15953 0.37242 0.75055 0.0
C1236 C 0.17893 0.33341 0.70224 0.0
C1237 C 0.13727 0.33843 0.74301 0.0
C1238 C 0.16804 0.27801 0.67381 0.0
C1239 C 0.23584 0.30033 0.68166 0.0
N1240 N 0.14752 0.31991 0.71974 0.0
N1241 N 0.22394 0.32145 0.68829 0.0
H1242 H 0.72342 0.56787 0.4948 0.0
H1243 H 0.82578 0.73527 0.64068 0.0
H1244 H 0.67658 0.60494 0.58602 0.0
H1245 H 0.87013 0.69632 0.5481 0.0
H1246 H 0.77013 0.69081 0.6164 0.0
H1247 H 0.77742 0.61733 0.51074 0.0
C1248 C 0.72453 0.58634 0.51822 0.0
C1249 C 0.69559 0.58202 0.53952 0.0
C1250 C 0.79217 0.6923 0.60126 0.0
C1251 C 0.75705 0.639 0.55745 0.0
C1252 C 0.82382 0.71774 0.61493 0.0
C1253 C 0.85254 0.71915 0.59696 0.0
C1254 C 0.78956 0.66839 0.56954 0.0
C1255 C 0.84868 0.69592 0.56349 0.0
C1256 C 0.75529 0.61471 0.52716 0.0
C1257 C 0.69834 0.60707 0.56911 0.0
N1258 N 0.81788 0.67139 0.55128 0.0
N1259 N 0.72854 0.63443 0.57731 0.0
H1260 H 0.2667 0.1239 0.60071 0.0
H1261 H 0.45481 0.16981 0.57488 0.0
H1262 H 0.34902 0.22249 0.62928 0.0
H1263 H 0.3751 0.08875 0.50112 0.0
H1264 H 0.41657 0.1895 0.59618 0.0
H1265 H 0.3056 0.1099 0.56462 0.0
C1266 C 0.2928 0.14288 0.59823 0.0
C1267 C 0.30455 0.17457 0.61715 0.0
C1268 C 0.40757 0.16776 0.57464 0.0
C1269 C 0.34937 0.15832 0.57792 0.0
C1270 C 0.42952 0.15687 0.56198 0.0
C1271 C 0.41831 0.12839 0.53509 0.0
C1272 C 0.37393 0.14936 0.5613 0.0
C1273 C 0.3847 0.11103 0.52169 0.0
C1274 C 0.31506 0.13478 0.5781 0.0
C1275 C 0.33891 0.19775 0.61504 0.0
N1276 N 0.36356 0.12168 0.53518 0.0
N1277 N 0.36019 0.18906 0.5961 0.0
H1278 H 0.91115 0.29136 0.48202 0.0
H1279 H 0.77625 0.13196 0.62139 0.0
H1280 H 0.83565 0.28969 0.56894 0.0
H1281 H 0.87001 0.14254 0.57688 0.0
H1282 H 0.79047 0.18417 0.58319 0.0
H1283 H 0.89048 0.2323 0.5006 0.0
C1284 C 0.88979 0.27835 0.50431 0.0
C1285 C 0.87418 0.29497 0.52286 0.0
C1286 C 0.80774 0.17484 0.58118 0.0
C1287 C 0.85051 0.22783 0.54399 0.0
C1288 C 0.79957 0.14492 0.60278 0.0
C1289 C 0.82213 0.13301 0.60278 0.0
C1290 C 0.83881 0.19321 0.55952 0.0
C1291 C 0.85185 0.15077 0.57774 0.0
C1292 C 0.87802 0.24474 0.51478 0.0
C1293 C 0.84703 0.27724 0.55201 0.0
N1294 N 0.85958 0.18029 0.55759 0.0
N1295 N 0.83603 0.24469 0.56165 0.0
H1296 H 0.26449 0.15016 0.08685 0.0
H1297 H 0.4533 0.28743 0.06854 0.0
H1298 H 0.34388 0.12919 0.11296 0.0
H1299 H 0.37793 0.29428 0.99115 0.0
H1300 H 0.41363 0.2289 0.08395 0.0
H1301 H 0.30487 0.20257 0.04993 0.0
C1302 C 0.29026 0.15618 0.08341 0.0
C1303 C 0.30092 0.13518 0.10171 0.0
C1304 C 0.40592 0.24292 0.06269 0.0
C1305 C 0.34723 0.19534 0.06188 0.0
C1306 C 0.42876 0.27619 0.05335 0.0
C1307 C 0.41915 0.29527 0.02742 0.0
C1308 C 0.37292 0.22898 0.04707 0.0
C1309 C 0.38627 0.28021 0.01113 0.0
C1310 C 0.31328 0.18609 0.06272 0.0
C1311 C 0.33475 0.14463 0.09852 0.0
N1312 N 0.36413 0.24791 0.02162 0.0
N1313 N 0.35683 0.17424 0.07935 0.0
H1314 H 0.85642 0.1251 0.09894 0.0
H1315 H 0.72101 0.15728 0.98551 0.0
H1316 H 0.86619 0.22264 0.10975 0.0
H1317 H 0.69353 0.07412 0.07567 0.0
H1318 H 0.77985 0.17955 0.00589 0.0
H1319 H 0.80206 0.1043 0.06309 0.0
C1320 C 0.84765 0.14247 0.09253 0.0
C1321 C 0.86581 0.17573 0.10743 0.0
C1322 C 0.76079 0.15641 0.02096 0.0
C1323 C 0.80386 0.1519 0.06622 0.0
C1324 C 0.7273 0.14402 0.01006 0.0
C1325 C 0.70228 0.11483 0.03078 0.0
C1326 C 0.76925 0.13858 0.05119 0.0
C1327 C 0.71197 0.09706 0.05953 0.0
C1328 C 0.81652 0.1304 0.07245 0.0
C1329 C 0.85285 0.19684 0.09891 0.0
N1330 N 0.74482 0.10928 0.06901 0.0
N1331 N 0.82244 0.18452 0.07879 0.0
H1332 H 0.83645 0.54864 0.08866 0.0
H1333 H 0.88411 0.73639 0.07753 0.0
H1334 H 0.92663 0.62192 0.02234 0.0
H1335 H 0.78158 0.65639 0.08359 0.0
H1336 H 0.90112 0.69616 0.05606 0.0
H1337 H 0.81659 0.58875 0.08991 0.0
C1338 C 0.85159 0.57298 0.07352 0.0
C1339 C 0.88237 0.58173 0.05387 0.0
C1340 C 0.87479 0.68755 0.06074 0.0
C1341 C 0.861 0.62809 0.05677 0.0
C1342 C 0.86503 0.71054 0.07238 0.0
C1343 C 0.83135 0.69963 0.08178 0.0
C1344 C 0.85078 0.65345 0.05981 0.0
C1345 C 0.80776 0.66573 0.07626 0.0
C1346 C 0.84053 0.59592 0.07451 0.0
C1347 C 0.90252 0.6143 0.03752 0.0
N1348 N 0.81799 0.64365 0.06643 0.0
N1349 N 0.89149 0.63645 0.03937 0.0
loop_
_geom_bond_atom_site_label_1
_geom_bond_atom_site_label_2
_geom_bond_distance
_geom_bond_site_symmetry_2
_ccdc_geom_bond_type
Zn0 O6 1.920 . S
Zn0 O12 1.898 . S
Zn0 O15 1.905 . S
Zn1 O9 1.905 . S
Zn1 O10 1.898 . S
Zn1 O18 1.920 . S
Zn2 O5 2.080 1_554 S
Zn2 O8 2.114 . S
Zn2 O11 2.120 . S
Zn2 O13 2.120 1_554 S
Zn2 O14 2.114 . S
Zn2 O17 2.080 . S
C3 O8 1.166 . S
C3 O9 1.182 . S
C4 O10 1.167 . S
C4 O11 1.299 . S
O5 Zn2 2.080 1_556 S
O5 C19 1.305 . S
O6 Zn0 1.920 . S
O6 C19 1.234 . S
C7 O12 1.167 1_554 S
C7 O13 1.299 1_554 S
O8 Zn2 2.114 . S
O8 C3 1.166 . S
O9 Zn1 1.905 . S
O9 C3 1.182 . S
O10 Zn1 1.898 . S
O10 C4 1.167 . S
O11 Zn2 2.120 . S
O11 C4 1.299 . S
O12 Zn0 1.898 . S
O12 C7 1.167 1_556 S
O13 Zn2 2.120 1_556 S
O13 C7 1.299 1_556 S
O14 Zn2 2.114 . S
O14 C16 1.166 1_554 S
O15 Zn0 1.905 . S
O15 C16 1.182 . S
C16 O14 1.166 1_556 S
C16 O15 1.182 . S
O17 Zn2 2.080 . S
O17 C20 1.305 . S
O18 Zn1 1.920 . S
O18 C20 1.234 . S
C19 O5 1.305 . S
C19 O6 1.234 . S
C20 O17 1.305 . S
C20 O18 1.234 . S
Zn21 O27 1.920 . S
Zn21 O33 1.898 . S
Zn21 O36 1.905 . S
Zn22 O30 1.905 . S
Zn22 O31 1.898 . S
Zn22 O39 1.920 . S
Zn23 O26 2.080 1_554 S
Zn23 O29 2.114 . S
Zn23 O32 2.120 . S
Zn23 O34 2.120 1_554 S
Zn23 O35 2.114 . S
Zn23 O38 2.080 . S
C24 O29 1.166 . S
C24 O30 1.182 . S
C25 O31 1.167 . S
C25 O32 1.299 . S
O26 Zn23 2.080 1_556 S
O26 C40 1.305 . S
O27 Zn21 1.920 . S
O27 C40 1.234 . S
C28 O33 1.167 1_554 S
C28 O34 1.299 1_554 S
O29 Zn23 2.114 . S
O29 C24 1.166 . S
O30 Zn22 1.905 . S
O30 C24 1.182 . S
O31 Zn22 1.898 . S
O31 C25 1.167 . S
O32 Zn23 2.120 . S
O32 C25 1.299 . S
O33 Zn21 1.898 . S
O33 C28 1.167 1_556 S
O34 Zn23 2.120 1_556 S
O34 C28 1.299 1_556 S
O35 Zn23 2.114 . S
O35 C37 1.166 1_554 S
O36 Zn21 1.905 . S
O36 C37 1.182 . S
C37 O35 1.166 1_556 S
C37 O36 1.182 . S
O38 Zn23 2.080 . S
O38 C41 1.305 . S
O39 Zn22 1.920 . S
O39 C41 1.234 . S
C40 O26 1.305 . S
C40 O27 1.234 . S
C41 O38 1.305 . S
C41 O39 1.234 . S
Zn42 O48 1.920 . S
Zn42 O54 1.898 . S
Zn42 O57 1.905 . S
Zn43 O51 1.905 . S
Zn43 O52 1.898 . S
Zn43 O60 1.920 . S
Zn44 O47 2.080 1_554 S
Zn44 O50 2.114 . S
Zn44 O53 2.120 . S
Zn44 O55 2.120 1_554 S
Zn44 O56 2.114 . S
Zn44 O59 2.080 . S
C45 O50 1.166 . S
C45 O51 1.182 . S
C46 O52 1.167 . S
C46 O53 1.299 . S
O47 Zn44 2.080 1_556 S
O47 C61 1.305 . S
O48 Zn42 1.920 . S
O48 C61 1.234 . S
C49 O54 1.167 1_554 S
C49 O55 1.299 1_554 S
O50 Zn44 2.114 . S
O50 C45 1.166 . S
O51 Zn43 1.905 . S
O51 C45 1.182 . S
O52 Zn43 1.898 . S
O52 C46 1.167 . S
O53 Zn44 2.120 . S
O53 C46 1.299 . S
O54 Zn42 1.898 . S
O54 C49 1.167 1_556 S
O55 Zn44 2.120 1_556 S
O55 C49 1.299 1_556 S
O56 Zn44 2.114 . S
O56 C58 1.166 1_554 S
O57 Zn42 1.905 . S
O57 C58 1.182 . S
C58 O56 1.166 1_556 S
C58 O57 1.182 . S
O59 Zn44 2.080 . S
O59 C62 1.305 . S
O60 Zn43 1.920 . S
O60 C62 1.234 . S
C61 O47 1.305 . S
C61 O48 1.234 . S
C62 O59 1.305 . S
C62 O60 1.234 . S
Zn63 O69 1.920 . S
Zn63 O75 1.898 . S
Zn63 O78 1.905 . S
Zn64 O72 1.905 . S
Zn64 O73 1.898 . S
Zn64 O81 1.920 . S
Zn65 O68 2.080 . S
Zn65 O71 2.114 . S
Zn65 O74 2.120 . S
Zn65 O76 2.120 . S
Zn65 O77 2.114 . S
Zn65 O80 2.080 . S
C66 O71 1.166 . S
C66 O72 1.182 . S
C67 O73 1.167 . S
C67 O74 1.299 . S
O68 Zn65 2.080 . S
O68 C82 1.305 . S
O69 Zn63 1.920 . S
O69 C82 1.234 . S
C70 O75 1.167 . S
C70 O76 1.299 . S
O71 Zn65 2.114 . S
O71 C66 1.166 . S
O72 Zn64 1.905 . S
O72 C66 1.182 . S
O73 Zn64 1.898 . S
O73 C67 1.167 . S
O74 Zn65 2.120 . S
O74 C67 1.299 . S
O75 Zn63 1.898 . S
O75 C70 1.167 . S
O76 Zn65 2.120 . S
O76 C70 1.299 . S
O77 Zn65 2.114 . S
O77 C79 1.166 . S
O78 Zn63 1.905 . S
O78 C79 1.182 . S
C79 O77 1.166 . S
C79 O78 1.182 . S
O80 Zn65 2.080 . S
O80 C83 1.305 . S
O81 Zn64 1.920 . S
O81 C83 1.234 . S
C82 O68 1.305 . S
C82 O69 1.234 . S
C83 O80 1.305 . S
C83 O81 1.234 . S
Zn84 O90 1.920 . S
Zn84 O96 1.898 . S
Zn84 O99 1.905 . S
Zn85 O93 1.905 . S
Zn85 O94 1.898 . S
Zn85 O102 1.920 . S
Zn86 O89 2.080 . S
Zn86 O92 2.114 . S
Zn86 O95 2.120 . S
Zn86 O97 2.120 . S
Zn86 O98 2.114 . S
Zn86 O101 2.080 . S
C87 O92 1.166 . S
C87 O93 1.182 . S
C88 O94 1.167 . S
C88 O95 1.299 . S
O89 Zn86 2.080 . S
O89 C103 1.305 . S
O90 Zn84 1.920 . S
O90 C103 1.234 . S
C91 O96 1.167 . S
C91 O97 1.299 . S
O92 Zn86 2.114 . S
O92 C87 1.166 . S
O93 Zn85 1.905 . S
O93 C87 1.182 . S
O94 Zn85 1.898 . S
O94 C88 1.167 . S
O95 Zn86 2.120 . S
O95 C88 1.299 . S
O96 Zn84 1.898 . S
O96 C91 1.167 . S
O97 Zn86 2.120 . S
O97 C91 1.299 . S
O98 Zn86 2.114 . S
O98 C100 1.166 . S
O99 Zn84 1.905 . S
O99 C100 1.182 . S
C100 O98 1.166 . S
C100 O99 1.182 . S
O101 Zn86 2.080 . S
O101 C104 1.305 . S
O102 Zn85 1.920 . S
O102 C104 1.234 . S
C103 O89 1.305 . S
C103 O90 1.234 . S
C104 O101 1.305 . S
C104 O102 1.234 . S
Zn105 O111 1.920 . S
Zn105 O117 1.898 . S
Zn105 O120 1.905 . S
Zn106 O114 1.905 . S
Zn106 O115 1.898 . S
Zn106 O123 1.920 . S
Zn107 O110 2.080 . S
Zn107 O113 2.114 . S
Zn107 O116 2.120 . S
Zn107 O118 2.120 . S
Zn107 O119 2.114 . S
Zn107 O122 2.080 . S
C108 O113 1.166 . S
C108 O114 1.182 . S
C109 O115 1.167 . S
C109 O116 1.299 . S
O110 Zn107 2.080 . S
O110 C124 1.305 . S
O111 Zn105 1.920 . S
O111 C124 1.234 . S
C112 O117 1.167 . S
C112 O118 1.299 . S
O113 Zn107 2.114 . S
O113 C108 1.166 . S
O114 Zn106 1.905 . S
O114 C108 1.182 . S
O115 Zn106 1.898 . S
O115 C109 1.167 . S
O116 Zn107 2.120 . S
O116 C109 1.299 . S
O117 Zn105 1.898 . S
O117 C112 1.167 . S
O118 Zn107 2.120 . S
O118 C112 1.299 . S
O119 Zn107 2.114 . S
O119 C121 1.166 . S
O120 Zn105 1.905 . S
O120 C121 1.182 . S
C121 O119 1.166 . S
C121 O120 1.182 . S
O122 Zn107 2.080 . S
O122 C125 1.305 . S
O123 Zn106 1.920 . S
O123 C125 1.234 . S
C124 O110 1.305 . S
C124 O111 1.234 . S
C125 O122 1.305 . S
C125 O123 1.234 . S
Zn126 O132 1.920 . S
Zn126 O138 1.898 . S
Zn126 O141 1.905 . S
Zn127 O135 1.905 . S
Zn127 O136 1.898 . S
Zn127 O144 1.920 . S
Zn128 O131 2.080 . S
Zn128 O134 2.114 . S
Zn128 O137 2.120 . S
Zn128 O139 2.120 . S
Zn128 O140 2.114 . S
Zn128 O143 2.080 . S
C129 O134 1.166 . S
C129 O135 1.182 . S
C130 O136 1.167 . S
C130 O137 1.299 . S
O131 Zn128 2.080 . S
O131 C145 1.305 . S
O132 Zn126 1.920 . S
O132 C145 1.234 . S
C133 O138 1.167 . S
C133 O139 1.299 . S
O134 Zn128 2.114 . S
O134 C129 1.166 . S
O135 Zn127 1.905 . S
O135 C129 1.182 . S
O136 Zn127 1.898 . S
O136 C130 1.167 . S
O137 Zn128 2.120 . S
O137 C130 1.299 . S
O138 Zn126 1.898 . S
O138 C133 1.167 . S
O139 Zn128 2.120 . S
O139 C133 1.299 . S
O140 Zn128 2.114 . S
O140 C142 1.166 . S
O141 Zn126 1.905 . S
O141 C142 1.182 . S
C142 O140 1.166 . S
C142 O141 1.182 . S
O143 Zn128 2.080 . S
O143 C146 1.305 . S
O144 Zn127 1.920 . S
O144 C146 1.234 . S
C145 O131 1.305 . S
C145 O132 1.234 . S
C146 O143 1.305 . S
C146 O144 1.234 . S
Zn147 O153 1.920 . S
Zn147 O159 1.898 . S
Zn147 O162 1.905 . S
Zn148 O156 1.905 . S
Zn148 O157 1.898 . S
Zn148 O165 1.920 . S
Zn149 O152 2.080 . S
Zn149 O155 2.114 . S
Zn149 O158 2.120 . S
Zn149 O160 2.120 . S
Zn149 O161 2.114 . S
Zn149 O164 2.080 . S
C150 O155 1.166 . S
C150 O156 1.182 . S
C151 O157 1.167 . S
C151 O158 1.299 . S
O152 Zn149 2.080 . S
O152 C166 1.305 . S
O153 Zn147 1.920 . S
O153 C166 1.234 . S
C154 O159 1.167 . S
C154 O160 1.299 . S
O155 Zn149 2.114 . S
O155 C150 1.166 . S
O156 Zn148 1.905 . S
O156 C150 1.182 . S
O157 Zn148 1.898 . S
O157 C151 1.167 . S
O158 Zn149 2.120 . S
O158 C151 1.299 . S
O159 Zn147 1.898 . S
O159 C154 1.167 . S
O160 Zn149 2.120 . S
O160 C154 1.299 . S
O161 Zn149 2.114 . S
O161 C163 1.166 . S
O162 Zn147 1.905 . S
O162 C163 1.182 . S
C163 O161 1.166 . S
C163 O162 1.182 . S
O164 Zn149 2.080 . S
O164 C167 1.305 . S
O165 Zn148 1.920 . S
O165 C167 1.234 . S
C166 O152 1.305 . S
C166 O153 1.234 . S
C167 O164 1.305 . S
C167 O165 1.234 . S
Zn168 O174 1.920 . S
Zn168 O180 1.898 . S
Zn168 O183 1.905 . S
Zn169 O177 1.905 . S
Zn169 O178 1.898 . S
Zn169 O186 1.920 . S
Zn170 O173 2.080 . S
Zn170 O176 2.114 . S
Zn170 O179 2.120 . S
Zn170 O181 2.120 . S
Zn170 O182 2.114 . S
Zn170 O185 2.080 . S
C171 O176 1.166 . S
C171 O177 1.182 . S
C172 O178 1.167 . S
C172 O179 1.299 . S
O173 Zn170 2.080 . S
O173 C187 1.305 . S
O174 Zn168 1.920 . S
O174 C187 1.234 . S
C175 O180 1.167 . S
C175 O181 1.299 . S
O176 Zn170 2.114 . S
O176 C171 1.166 . S
O177 Zn169 1.905 . S
O177 C171 1.182 . S
O178 Zn169 1.898 . S
O178 C172 1.167 . S
O179 Zn170 2.120 . S
O179 C172 1.299 . S
O180 Zn168 1.898 . S
O180 C175 1.167 . S
O181 Zn170 2.120 . S
O181 C175 1.299 . S
O182 Zn170 2.114 . S
O182 C184 1.166 . S
O183 Zn168 1.905 . S
O183 C184 1.182 . S
C184 O182 1.166 . S
C184 O183 1.182 . S
O185 Zn170 2.080 . S
O185 C188 1.305 . S
O186 Zn169 1.920 . S
O186 C188 1.234 . S
C187 O173 1.305 . S
C187 O174 1.234 . S
C188 O185 1.305 . S
C188 O186 1.234 . S
Zn189 O195 1.920 . S
Zn189 O201 1.898 . S
Zn189 O204 1.905 . S
Zn190 O198 1.905 . S
Zn190 O199 1.898 . S
Zn190 O207 1.920 . S
Zn191 O194 2.080 . S
Zn191 O197 2.114 . S
Zn191 O200 2.120 . S
Zn191 O202 2.120 . S
Zn191 O203 2.114 . S
Zn191 O206 2.080 . S
C192 O197 1.166 . S
C192 O198 1.182 . S
C193 O199 1.167 . S
C193 O200 1.299 . S
O194 Zn191 2.080 . S
O194 C208 1.305 . S
O195 Zn189 1.920 . S
O195 C208 1.234 . S
C196 O201 1.167 . S
C196 O202 1.299 . S
O197 Zn191 2.114 . S
O197 C192 1.166 . S
O198 Zn190 1.905 . S
O198 C192 1.182 . S
O199 Zn190 1.898 . S
O199 C193 1.167 . S
O200 Zn191 2.120 . S
O200 C193 1.299 . S
O201 Zn189 1.898 . S
O201 C196 1.167 . S
O202 Zn191 2.120 . S
O202 C196 1.299 . S
O203 Zn191 2.114 . S
O203 C205 1.166 . S
O204 Zn189 1.905 . S
O204 C205 1.182 . S
C205 O203 1.166 . S
C205 O204 1.182 . S
O206 Zn191 2.080 . S
O206 C209 1.305 . S
O207 Zn190 1.920 . S
O207 C209 1.234 . S
C208 O194 1.305 . S
C208 O195 1.234 . S
C209 O206 1.305 . S
C209 O207 1.234 . S
Zn210 O216 1.920 . S
Zn210 O222 1.898 . S
Zn210 O225 1.905 . S
Zn211 O219 1.905 . S
Zn211 O220 1.898 . S
Zn211 O228 1.920 . S
Zn212 O215 2.080 . S
Zn212 O218 2.114 . S
Zn212 O221 2.120 . S
Zn212 O223 2.120 . S
Zn212 O224 2.114 . S
Zn212 O227 2.080 . S
C213 O218 1.166 . S
C213 O219 1.182 . S
C214 O220 1.167 . S
C214 O221 1.299 . S
O215 Zn212 2.080 . S
O215 C229 1.305 . S
O216 Zn210 1.920 . S
O216 C229 1.234 . S
C217 O222 1.167 . S
C217 O223 1.299 . S
O218 Zn212 2.114 . S
O218 C213 1.166 . S
O219 Zn211 1.905 . S
O219 C213 1.182 . S
O220 Zn211 1.898 . S
O220 C214 1.167 . S
O221 Zn212 2.120 . S
O221 C214 1.299 . S
O222 Zn210 1.898 . S
O222 C217 1.167 . S
O223 Zn212 2.120 . S
O223 C217 1.299 . S
O224 Zn212 2.114 . S
O224 C226 1.166 . S
O225 Zn210 1.905 . S
O225 C226 1.182 . S
C226 O224 1.166 . S
C226 O225 1.182 . S
O227 Zn212 2.080 . S
O227 C230 1.305 . S
O228 Zn211 1.920 . S
O228 C230 1.234 . S
C229 O215 1.305 . S
C229 O216 1.234 . S
C230 O227 1.305 . S
C230 O228 1.234 . S
Zn231 O237 1.920 . S
Zn231 O243 1.898 . S
Zn231 O246 1.905 . S
Zn232 O240 1.905 . S
Zn232 O241 1.898 . S
Zn232 O249 1.920 . S
Zn233 O236 2.080 . S
Zn233 O239 2.114 . S
Zn233 O242 2.120 . S
Zn233 O244 2.120 . S
Zn233 O245 2.114 . S
Zn233 O248 2.080 . S
C234 O239 1.166 . S
C234 O240 1.182 . S
C235 O241 1.167 . S
C235 O242 1.299 . S
O236 Zn233 2.080 . S
O236 C250 1.305 . S
O237 Zn231 1.920 . S
O237 C250 1.234 . S
C238 O243 1.167 . S
C238 O244 1.299 . S
O239 Zn233 2.114 . S
O239 C234 1.166 . S
O240 Zn232 1.905 . S
O240 C234 1.182 . S
O241 Zn232 1.898 . S
O241 C235 1.167 . S
O242 Zn233 2.120 . S
O242 C235 1.299 . S
O243 Zn231 1.898 . S
O243 C238 1.167 . S
O244 Zn233 2.120 . S
O244 C238 1.299 . S
O245 Zn233 2.114 . S
O245 C247 1.166 . S
O246 Zn231 1.905 . S
O246 C247 1.182 . S
C247 O245 1.166 . S
C247 O246 1.182 . S
O248 Zn233 2.080 . S
O248 C251 1.305 . S
O249 Zn232 1.920 . S
O249 C251 1.234 . S
C250 O236 1.305 . S
C250 O237 1.234 . S
C251 O248 1.305 . S
C251 O249 1.234 . S
Zn252 O258 1.920 . S
Zn252 O264 1.898 . S
Zn252 O267 1.905 . S
Zn253 O261 1.905 . S
Zn253 O262 1.898 . S
Zn253 O270 1.920 . S
Zn254 O257 2.080 . S
Zn254 O260 2.114 . S
Zn254 O263 2.120 . S
Zn254 O265 2.120 . S
Zn254 O266 2.114 . S
Zn254 O269 2.080 . S
C255 O260 1.166 . S
C255 O261 1.182 . S
C256 O262 1.167 . S
C256 O263 1.299 . S
O257 Zn254 2.080 . S
O257 C271 1.305 . S
O258 Zn252 1.920 . S
O258 C271 1.234 . S
C259 O264 1.167 . S
C259 O265 1.299 . S
O260 Zn254 2.114 . S
O260 C255 1.166 . S
O261 Zn253 1.905 . S
O261 C255 1.182 . S
O262 Zn253 1.898 . S
O262 C256 1.167 . S
O263 Zn254 2.120 . S
O263 C256 1.299 . S
O264 Zn252 1.898 . S
O264 C259 1.167 . S
O265 Zn254 2.120 . S
O265 C259 1.299 . S
O266 Zn254 2.114 . S
O266 C268 1.166 . S
O267 Zn252 1.905 . S
O267 C268 1.182 . S
C268 O266 1.166 . S
C268 O267 1.182 . S
O269 Zn254 2.080 . S
O269 C272 1.305 . S
O270 Zn253 1.920 . S
O270 C272 1.234 . S
C271 O257 1.305 . S
C271 O258 1.234 . S
C272 O269 1.305 . S
C272 O270 1.234 . S
Zn273 O279 1.920 . S
Zn273 O285 1.898 . S
Zn273 O288 1.905 . S
Zn274 O282 1.905 . S
Zn274 O283 1.898 . S
Zn274 O291 1.920 . S
Zn275 O278 2.080 . S
Zn275 O281 2.114 . S
Zn275 O284 2.120 . S
Zn275 O286 2.120 . S
Zn275 O287 2.114 . S
Zn275 O290 2.080 . S
C276 O281 1.166 . S
C276 O282 1.182 . S
C277 O283 1.167 . S
C277 O284 1.299 . S
O278 Zn275 2.080 . S
O278 C292 1.305 . S
O279 Zn273 1.920 . S
O279 C292 1.234 . S
C280 O285 1.167 . S
C280 O286 1.299 . S
O281 Zn275 2.114 . S
O281 C276 1.166 . S
O282 Zn274 1.905 . S
O282 C276 1.182 . S
O283 Zn274 1.898 . S
O283 C277 1.167 . S
O284 Zn275 2.120 . S
O284 C277 1.299 . S
O285 Zn273 1.898 . S
O285 C280 1.167 . S
O286 Zn275 2.120 . S
O286 C280 1.299 . S
O287 Zn275 2.114 . S
O287 C289 1.166 . S
O288 Zn273 1.905 . S
O288 C289 1.182 . S
C289 O287 1.166 . S
C289 O288 1.182 . S
O290 Zn275 2.080 . S
O290 C293 1.305 . S
O291 Zn274 1.920 . S
O291 C293 1.234 . S
C292 O278 1.305 . S
C292 O279 1.234 . S
C293 O290 1.305 . S
C293 O291 1.234 . S
Zn294 O300 1.920 . S
Zn294 O306 1.898 . S
Zn294 O309 1.905 . S
Zn295 O303 1.905 . S
Zn295 O304 1.898 . S
Zn295 O312 1.920 . S
Zn296 O299 2.080 . S
Zn296 O302 2.114 . S
Zn296 O305 2.120 . S
Zn296 O307 2.120 . S
Zn296 O308 2.114 . S
Zn296 O311 2.080 . S
C297 O302 1.166 . S
C297 O303 1.182 . S
C298 O304 1.167 . S
C298 O305 1.299 . S
O299 Zn296 2.080 . S
O299 C313 1.305 . S
O300 Zn294 1.920 . S
O300 C313 1.234 . S
C301 O306 1.167 . S
C301 O307 1.299 . S
O302 Zn296 2.114 . S
O302 C297 1.166 . S
O303 Zn295 1.905 . S
O303 C297 1.182 . S
O304 Zn295 1.898 . S
O304 C298 1.167 . S
O305 Zn296 2.120 . S
O305 C298 1.299 . S
O306 Zn294 1.898 . S
O306 C301 1.167 . S
O307 Zn296 2.120 . S
O307 C301 1.299 . S
O308 Zn296 2.114 . S
O308 C310 1.166 . S
O309 Zn294 1.905 . S
O309 C310 1.182 . S
C310 O308 1.166 . S
C310 O309 1.182 . S
O311 Zn296 2.080 . S
O311 C314 1.305 . S
O312 Zn295 1.920 . S
O312 C314 1.234 . S
C313 O299 1.305 . S
C313 O300 1.234 . S
C314 O311 1.305 . S
C314 O312 1.234 . S
Zn315 O321 1.920 . S
Zn315 O327 1.898 . S
Zn315 O330 1.905 . S
Zn316 O324 1.905 . S
Zn316 O325 1.898 . S
Zn316 O333 1.920 . S
Zn317 O320 2.080 . S
Zn317 O323 2.114 . S
Zn317 O326 2.120 . S
Zn317 O328 2.120 . S
Zn317 O329 2.114 . S
Zn317 O332 2.080 . S
C318 O323 1.166 . S
C318 O324 1.182 . S
C319 O325 1.167 . S
C319 O326 1.299 . S
O320 Zn317 2.080 . S
O320 C334 1.305 . S
O321 Zn315 1.920 . S
O321 C334 1.234 . S
C322 O327 1.167 . S
C322 O328 1.299 . S
O323 Zn317 2.114 . S
O323 C318 1.166 . S
O324 Zn316 1.905 . S
O324 C318 1.182 . S
O325 Zn316 1.898 . S
O325 C319 1.167 . S
O326 Zn317 2.120 . S
O326 C319 1.299 . S
O327 Zn315 1.898 . S
O327 C322 1.167 . S
O328 Zn317 2.120 . S
O328 C322 1.299 . S
O329 Zn317 2.114 . S
O329 C331 1.166 . S
O330 Zn315 1.905 . S
O330 C331 1.182 . S
C331 O329 1.166 . S
C331 O330 1.182 . S
O332 Zn317 2.080 . S
O332 C335 1.305 . S
O333 Zn316 1.920 . S
O333 C335 1.234 . S
C334 O320 1.305 . S
C334 O321 1.234 . S
C335 O332 1.305 . S
C335 O333 1.234 . S
Zn336 O342 1.920 . S
Zn336 O348 1.898 . S
Zn336 O351 1.905 . S
Zn337 O345 1.905 . S
Zn337 O346 1.898 . S
Zn337 O354 1.920 . S
Zn338 O341 2.080 . S
Zn338 O344 2.114 . S
Zn338 O347 2.120 . S
Zn338 O349 2.120 . S
Zn338 O350 2.114 . S
Zn338 O353 2.080 . S
C339 O344 1.166 . S
C339 O345 1.182 . S
C340 O346 1.167 . S
C340 O347 1.299 . S
O341 Zn338 2.080 . S
O341 C355 1.305 . S
O342 Zn336 1.920 . S
O342 C355 1.234 . S
C343 O348 1.167 . S
C343 O349 1.299 . S
O344 Zn338 2.114 . S
O344 C339 1.166 . S
O345 Zn337 1.905 . S
O345 C339 1.182 . S
O346 Zn337 1.898 . S
O346 C340 1.167 . S
O347 Zn338 2.120 . S
O347 C340 1.299 . S
O348 Zn336 1.898 . S
O348 C343 1.167 . S
O349 Zn338 2.120 . S
O349 C343 1.299 . S
O350 Zn338 2.114 . S
O350 C352 1.166 . S
O351 Zn336 1.905 . S
O351 C352 1.182 . S
C352 O350 1.166 . S
C352 O351 1.182 . S
O353 Zn338 2.080 . S
O353 C356 1.305 . S
O354 Zn337 1.920 . S
O354 C356 1.234 . S
C355 O341 1.305 . S
C355 O342 1.234 . S
C356 O353 1.305 . S
C356 O354 1.234 . S
Zn357 O363 1.920 . S
Zn357 O369 1.898 . S
Zn357 O372 1.905 . S
Zn358 O366 1.905 . S
Zn358 O367 1.898 . S
Zn358 O375 1.920 . S
Zn359 O362 2.080 . S
Zn359 O365 2.114 . S
Zn359 O368 2.120 . S
Zn359 O370 2.120 . S
Zn359 O371 2.114 . S
Zn359 O374 2.080 . S
C360 O365 1.166 . S
C360 O366 1.182 . S
C361 O367 1.167 . S
C361 O368 1.299 . S
O362 Zn359 2.080 . S
O362 C376 1.305 . S
O363 Zn357 1.920 . S
O363 C376 1.234 . S
C364 O369 1.167 . S
C364 O370 1.299 . S
O365 Zn359 2.114 . S
O365 C360 1.166 . S
O366 Zn358 1.905 . S
O366 C360 1.182 . S
O367 Zn358 1.898 . S
O367 C361 1.167 . S
O368 Zn359 2.120 . S
O368 C361 1.299 . S
O369 Zn357 1.898 . S
O369 C364 1.167 . S
O370 Zn359 2.120 . S
O370 C364 1.299 . S
O371 Zn359 2.114 . S
O371 C373 1.166 . S
O372 Zn357 1.905 . S
O372 C373 1.182 . S
C373 O371 1.166 . S
C373 O372 1.182 . S
O374 Zn359 2.080 . S
O374 C377 1.305 . S
O375 Zn358 1.920 . S
O375 C377 1.234 . S
C376 O362 1.305 . S
C376 O363 1.234 . S
C377 O374 1.305 . S
C377 O375 1.234 . S
H378 C384 0.930 . S
H379 C388 0.930 . S
H380 C393 0.929 . S
H381 C391 0.929 . S
H382 C386 0.929 . S
H383 C392 0.929 . S
C384 H378 0.930 . S
C384 C385 1.367 . S
C384 C392 1.378 . S
C385 C384 1.367 . S
C385 C393 1.433 1_554 S
C386 H382 0.929 . S
C386 C388 1.378 . S
C386 C390 1.350 1_556 S
C387 C390 1.463 . S
C387 C392 1.350 . S
C387 N395 1.427 1_554 S
C388 H379 0.930 . S
C388 C386 1.378 . S
C388 C389 1.367 . S
C389 C388 1.367 . S
C389 C391 1.433 1_556 S
C390 C386 1.350 1_554 S
C390 C387 1.463 . S
C390 N394 1.427 . S
C391 H381 0.929 . S
C391 C389 1.433 1_554 S
C391 N394 1.384 . S
C392 H383 0.929 . S
C392 C384 1.378 . S
C392 C387 1.350 . S
C393 H380 0.929 . S
C393 C385 1.433 1_556 S
C393 N395 1.384 . S
N394 C390 1.427 . S
N394 C391 1.384 . S
N395 C387 1.427 1_556 S
N395 C393 1.384 . S
H396 C402 0.930 . S
H397 C406 0.930 . S
H398 C411 0.929 . S
H399 C409 0.929 . S
H400 C404 0.929 . S
H401 C410 0.929 . S
C402 H396 0.930 . S
C402 C403 1.349 1_554 S
C402 C410 1.378 . S
C403 C402 1.349 1_556 S
C403 C411 1.450 . S
C404 H400 0.929 . S
C404 C406 1.378 . S
C404 C408 1.350 1_556 S
C405 C408 1.463 . S
C405 C410 1.350 . S
C405 N413 1.427 1_554 S
C406 H397 0.930 . S
C406 C404 1.378 . S
C406 C407 1.367 1_556 S
C407 C406 1.367 1_554 S
C407 C409 1.433 . S
C408 C404 1.350 1_554 S
C408 C405 1.463 . S
C408 N412 1.427 . S
C409 H399 0.929 . S
C409 C407 1.433 . S
C409 N412 1.384 . S
C410 H401 0.929 . S
C410 C402 1.378 . S
C410 C405 1.350 . S
C411 H398 0.929 . S
C411 C403 1.450 . S
C411 N413 1.384 . S
N412 C408 1.427 . S
N412 C409 1.384 . S
N413 C405 1.427 1_556 S
N413 C411 1.384 . S
H414 C420 0.930 . S
H415 C424 0.930 . S
H416 C429 0.929 . S
H417 C427 0.929 . S
H418 C422 0.929 . S
H419 C428 0.929 . S
C420 H414 0.930 . S
C420 C421 1.367 1_556 S
C420 C428 1.378 . S
C421 C420 1.367 1_554 S
C421 C429 1.433 . S
C422 H418 0.929 . S
C422 C424 1.378 . S
C422 C426 1.350 . S
C423 C426 1.463 . S
C423 C428 1.350 1_554 S
C423 N431 1.427 . S
C424 H415 0.930 . S
C424 C422 1.378 . S
C424 C425 1.349 1_554 S
C425 C424 1.349 1_556 S
C425 C427 1.449 . S
C426 C422 1.350 . S
C426 C423 1.463 . S
C426 N430 1.427 1_554 S
C427 H417 0.929 . S
C427 C425 1.449 . S
C427 N430 1.384 . S
C428 H419 0.929 . S
C428 C420 1.378 . S
C428 C423 1.350 1_556 S
C429 H416 0.929 . S
C429 C421 1.433 . S
C429 N431 1.384 . S
N430 C426 1.427 1_556 S
N430 C427 1.384 . S
N431 C423 1.427 . S
N431 C429 1.384 . S
H432 C438 0.930 . S
H433 C442 0.930 . S
H434 C447 0.929 . S
H435 C445 0.929 . S
H436 C440 0.929 . S
H437 C446 0.929 . S
C438 H432 0.930 . S
C438 C439 1.367 . S
C438 C446 1.378 . S
C439 C438 1.367 . S
C439 C447 1.433 . S
C440 H436 0.929 . S
C440 C442 1.378 . S
C440 C444 1.350 . S
C441 C444 1.463 . S
C441 C446 1.350 . S
C441 N449 1.427 . S
C442 H433 0.930 . S
C442 C440 1.378 . S
C442 C443 1.367 . S
C443 C442 1.367 . S
C443 C445 1.433 . S
C444 C440 1.350 . S
C444 C441 1.463 . S
C444 N448 1.427 . S
C445 H435 0.929 . S
C445 C443 1.433 . S
C445 N448 1.384 . S
C446 H437 0.929 . S
C446 C438 1.378 . S
C446 C441 1.350 . S
C447 H434 0.929 . S
C447 C439 1.433 . S
C447 N449 1.384 . S
N448 C444 1.427 . S
N448 C445 1.384 . S
N449 C441 1.427 . S
N449 C447 1.384 . S
H450 C456 0.930 . S
H451 C460 0.930 . S
H452 C465 0.929 . S
H453 C463 0.929 . S
H454 C458 0.929 . S
H455 C464 0.929 . S
C456 H450 0.930 . S
C456 C457 1.367 . S
C456 C464 1.378 . S
C457 C456 1.367 . S
C457 C465 1.433 . S
C458 H454 0.929 . S
C458 C460 1.378 . S
C458 C462 1.350 . S
C459 C462 1.463 . S
C459 C464 1.350 . S
C459 N467 1.427 . S
C460 H451 0.930 . S
C460 C458 1.378 . S
C460 C461 1.367 . S
C461 C460 1.367 . S
C461 C463 1.433 . S
C462 C458 1.350 . S
C462 C459 1.463 . S
C462 N466 1.427 . S
C463 H453 0.929 . S
C463 C461 1.433 . S
C463 N466 1.384 . S
C464 H455 0.929 . S
C464 C456 1.378 . S
C464 C459 1.350 . S
C465 H452 0.929 . S
C465 C457 1.433 . S
C465 N467 1.384 . S
N466 C462 1.427 . S
N466 C463 1.384 . S
N467 C459 1.427 . S
N467 C465 1.384 . S
H468 C474 0.930 . S
H469 C478 0.930 . S
H470 C483 0.929 . S
H471 C481 0.929 . S
H472 C476 0.929 . S
H473 C482 0.929 . S
C474 H468 0.930 . S
C474 C475 1.367 . S
C474 C482 1.378 . S
C475 C474 1.367 . S
C475 C483 1.433 . S
C476 H472 0.929 . S
C476 C478 1.378 . S
C476 C480 1.350 . S
C477 C480 1.463 . S
C477 C482 1.350 . S
C477 N485 1.427 . S
C478 H469 0.930 . S
C478 C476 1.378 . S
C478 C479 1.367 . S
C479 C478 1.367 . S
C479 C481 1.433 . S
C480 C476 1.350 . S
C480 C477 1.463 . S
C480 N484 1.427 . S
C481 H471 0.929 . S
C481 C479 1.433 . S
C481 N484 1.384 . S
C482 H473 0.929 . S
C482 C474 1.378 . S
C482 C477 1.350 . S
C483 H470 0.929 . S
C483 C475 1.433 . S
C483 N485 1.384 . S
N484 C480 1.427 . S
N484 C481 1.384 . S
N485 C477 1.427 . S
N485 C483 1.384 . S
H486 C492 0.930 . S
H487 C496 0.930 . S
H488 C501 0.929 . S
H489 C499 0.929 . S
H490 C494 0.929 . S
H491 C500 0.929 . S
C492 H486 0.930 . S
C492 C493 1.367 . S
C492 C500 1.378 . S
C493 C492 1.367 . S
C493 C501 1.433 . S
C494 H490 0.929 . S
C494 C496 1.378 . S
C494 C498 1.350 . S
C495 C498 1.463 . S
C495 C500 1.350 . S
C495 N503 1.427 . S
C496 H487 0.930 . S
C496 C494 1.378 . S
C496 C497 1.367 . S
C497 C496 1.367 . S
C497 C499 1.433 . S
C498 C494 1.350 . S
C498 C495 1.463 . S
C498 N502 1.427 . S
C499 H489 0.929 . S
C499 C497 1.433 . S
C499 N502 1.384 . S
C500 H491 0.929 . S
C500 C492 1.378 . S
C500 C495 1.350 . S
C501 H488 0.929 . S
C501 C493 1.433 . S
C501 N503 1.384 . S
N502 C498 1.427 . S
N502 C499 1.384 . S
N503 C495 1.427 . S
N503 C501 1.384 . S
H504 C510 0.930 . S
H505 C514 0.930 . S
H506 C519 0.929 . S
H507 C517 0.929 . S
H508 C512 0.929 . S
H509 C518 0.929 . S
C510 H504 0.930 . S
C510 C511 1.367 . S
C510 C518 1.378 . S
C511 C510 1.367 . S
C511 C519 1.433 . S
C512 H508 0.929 . S
C512 C514 1.378 . S
C512 C516 1.350 . S
C513 C516 1.463 . S
C513 C518 1.350 . S
C513 N521 1.427 . S
C514 H505 0.930 . S
C514 C512 1.378 . S
C514 C515 1.367 . S
C515 C514 1.367 . S
C515 C517 1.433 . S
C516 C512 1.350 . S
C516 C513 1.463 . S
C516 N520 1.427 . S
C517 H507 0.929 . S
C517 C515 1.433 . S
C517 N520 1.384 . S
C518 H509 0.929 . S
C518 C510 1.378 . S
C518 C513 1.350 . S
C519 H506 0.929 . S
C519 C511 1.433 . S
C519 N521 1.384 . S
N520 C516 1.427 . S
N520 C517 1.384 . S
N521 C513 1.427 . S
N521 C519 1.384 . S
H522 C528 0.930 . S
H523 C532 0.930 . S
H524 C537 0.929 . S
H525 C535 0.929 . S
H526 C530 0.929 . S
H527 C536 0.929 . S
C528 H522 0.930 . S
C528 C529 1.367 . S
C528 C536 1.378 . S
C529 C528 1.367 . S
C529 C537 1.433 . S
C530 H526 0.929 . S
C530 C532 1.378 . S
C530 C534 1.350 . S
C531 C534 1.463 . S
C531 C536 1.350 . S
C531 N539 1.427 . S
C532 H523 0.930 . S
C532 C530 1.378 . S
C532 C533 1.367 . S
C533 C532 1.367 . S
C533 C535 1.433 . S
C534 C530 1.350 . S
C534 C531 1.463 . S
C534 N538 1.427 . S
C535 H525 0.929 . S
C535 C533 1.433 . S
C535 N538 1.384 . S
C536 H527 0.929 . S
C536 C528 1.378 . S
C536 C531 1.350 . S
C537 H524 0.929 . S
C537 C529 1.433 . S
C537 N539 1.384 . S
N538 C534 1.427 . S
N538 C535 1.384 . S
N539 C531 1.427 . S
N539 C537 1.384 . S
H540 C546 0.930 . S
H541 C550 0.930 . S
H542 C555 0.929 . S
H543 C553 0.929 . S
H544 C548 0.929 . S
H545 C554 0.929 . S
C546 H540 0.930 . S
C546 C547 1.367 . S
C546 C554 1.378 . S
C547 C546 1.367 . S
C547 C555 1.433 . S
C548 H544 0.929 . S
C548 C550 1.378 . S
C548 C552 1.350 . S
C549 C552 1.463 . S
C549 C554 1.350 . S
C549 N557 1.427 . S
C550 H541 0.930 . S
C550 C548 1.378 . S
C550 C551 1.367 . S
C551 C550 1.367 . S
C551 C553 1.433 . S
C552 C548 1.350 . S
C552 C549 1.463 . S
C552 N556 1.427 . S
C553 H543 0.929 . S
C553 C551 1.433 . S
C553 N556 1.384 . S
C554 H545 0.929 . S
C554 C546 1.378 . S
C554 C549 1.350 . S
C555 H542 0.929 . S
C555 C547 1.433 . S
C555 N557 1.384 . S
N556 C552 1.427 . S
N556 C553 1.384 . S
N557 C549 1.427 . S
N557 C555 1.384 . S
H558 C564 0.930 . S
H559 C568 0.930 . S
H560 C573 0.929 . S
H561 C571 0.929 . S
H562 C566 0.929 . S
H563 C572 0.929 . S
C564 H558 0.930 . S
C564 C565 1.367 . S
C564 C572 1.378 . S
C565 C564 1.367 . S
C565 C573 1.433 . S
C566 H562 0.929 . S
C566 C568 1.378 . S
C566 C570 1.350 . S
C567 C570 1.463 . S
C567 C572 1.350 . S
C567 N575 1.427 . S
C568 H559 0.930 . S
C568 C566 1.378 . S
C568 C569 1.367 . S
C569 C568 1.367 . S
C569 C571 1.433 . S
C570 C566 1.350 . S
C570 C567 1.463 . S
C570 N574 1.427 . S
C571 H561 0.929 . S
C571 C569 1.433 . S
C571 N574 1.384 . S
C572 H563 0.929 . S
C572 C564 1.378 . S
C572 C567 1.350 . S
C573 H560 0.929 . S
C573 C565 1.433 . S
C573 N575 1.384 . S
N574 C570 1.427 . S
N574 C571 1.384 . S
N575 C567 1.427 . S
N575 C573 1.384 . S
H576 C582 0.930 . S
H577 C586 0.930 . S
H578 C591 0.929 . S
H579 C589 0.929 . S
H580 C584 0.929 . S
H581 C590 0.929 . S
C582 H576 0.930 . S
C582 C583 1.367 . S
C582 C590 1.378 . S
C583 C582 1.367 . S
C583 C591 1.433 . S
C584 H580 0.929 . S
C584 C586 1.378 . S
C584 C588 1.350 . S
C585 C588 1.463 . S
C585 C590 1.350 . S
C585 N593 1.427 . S
C586 H577 0.930 . S
C586 C584 1.378 . S
C586 C587 1.367 . S
C587 C586 1.367 . S
C587 C589 1.433 . S
C588 C584 1.350 . S
C588 C585 1.463 . S
C588 N592 1.427 . S
C589 H579 0.929 . S
C589 C587 1.433 . S
C589 N592 1.384 . S
C590 H581 0.929 . S
C590 C582 1.378 . S
C590 C585 1.350 . S
C591 H578 0.929 . S
C591 C583 1.433 . S
C591 N593 1.384 . S
N592 C588 1.427 . S
N592 C589 1.384 . S
N593 C585 1.427 . S
N593 C591 1.384 . S
H594 C600 0.930 . S
H595 C604 0.930 . S
H596 C609 0.929 . S
H597 C607 0.929 . S
H598 C602 0.929 . S
H599 C608 0.929 . S
C600 H594 0.930 . S
C600 C601 1.367 . S
C600 C608 1.378 . S
C601 C600 1.367 . S
C601 C609 1.433 . S
C602 H598 0.929 . S
C602 C604 1.378 . S
C602 C606 1.350 . S
C603 C606 1.463 . S
C603 C608 1.350 . S
C603 N611 1.427 . S
C604 H595 0.930 . S
C604 C602 1.378 . S
C604 C605 1.367 . S
C605 C604 1.367 . S
C605 C607 1.433 . S
C606 C602 1.350 . S
C606 C603 1.463 . S
C606 N610 1.427 . S
C607 H597 0.929 . S
C607 C605 1.433 . S
C607 N610 1.384 . S
C608 H599 0.929 . S
C608 C600 1.378 . S
C608 C603 1.350 . S
C609 H596 0.929 . S
C609 C601 1.433 . S
C609 N611 1.384 . S
N610 C606 1.427 . S
N610 C607 1.384 . S
N611 C603 1.427 . S
N611 C609 1.384 . S
H612 C618 0.930 . S
H613 C622 0.909 1_655 S
H614 C627 0.929 . S
H615 C625 0.929 . S
H616 C620 0.929 . S
H617 C626 0.929 . S
C618 H612 0.930 . S
C618 C619 1.367 . S
C618 C626 1.378 1_545 S
C619 C618 1.367 . S
C619 C627 1.433 . S
C620 H616 0.929 . S
C620 C622 1.378 . S
C620 C624 1.350 . S
C621 C624 1.463 . S
C621 C626 1.350 . S
C621 N629 1.427 . S
C622 H613 0.909 1_455 S
C622 C620 1.378 . S
C622 C623 1.367 . S
C623 C622 1.367 . S
C623 C625 1.433 . S
C624 C620 1.350 . S
C624 C621 1.463 . S
C624 N628 1.427 . S
C625 H615 0.929 . S
C625 C623 1.433 . S
C625 N628 1.384 . S
C626 H617 0.929 . S
C626 C618 1.378 1_565 S
C626 C621 1.350 . S
C627 H614 0.929 . S
C627 C619 1.433 . S
C627 N629 1.384 1_545 S
N628 C624 1.427 . S
N628 C625 1.384 . S
N629 C621 1.427 . S
N629 C627 1.384 1_565 S
H630 C636 0.930 . S
H631 C640 0.930 . S
H632 C645 0.929 . S
H633 C643 0.929 . S
H634 C638 0.929 . S
H635 C644 0.929 1_455 S
C636 H630 0.930 . S
C636 C637 1.367 . S
C636 C644 1.378 . S
C637 C636 1.367 . S
C637 C645 1.433 . S
C638 H634 0.929 . S
C638 C640 1.378 . S
C638 C642 1.350 . S
C639 C642 1.463 . S
C639 C644 1.350 1_455 S
C639 N647 1.427 . S
C640 H631 0.930 . S
C640 C638 1.378 . S
C640 C641 1.367 . S
C641 C640 1.367 . S
C641 C643 1.433 . S
C642 C638 1.350 . S
C642 C639 1.463 . S
C642 N646 1.427 . S
C643 H633 0.929 . S
C643 C641 1.433 . S
C643 N646 1.384 . S
C644 H635 0.929 1_655 S
C644 C636 1.378 . S
C644 C639 1.350 1_655 S
C645 H632 0.929 . S
C645 C637 1.433 . S
C645 N647 1.384 1_655 S
N646 C642 1.427 . S
N646 C643 1.384 . S
N647 C639 1.427 . S
N647 C645 1.384 1_455 S
H648 C654 0.930 . S
H649 C658 0.930 . S
H650 C663 0.929 . S
H651 C661 0.929 . S
H652 C656 0.929 . S
H653 C662 0.929 . S
C654 H648 0.930 . S
C654 C655 1.367 . S
C654 C662 1.378 . S
C655 C654 1.367 . S
C655 C663 1.433 . S
C656 H652 0.929 . S
C656 C658 1.378 . S
C656 C660 1.350 . S
C657 C660 1.463 . S
C657 C662 1.350 . S
C657 N665 1.427 . S
C658 H649 0.930 . S
C658 C656 1.378 . S
C658 C659 1.367 . S
C659 C658 1.367 . S
C659 C661 1.433 . S
C660 C656 1.350 . S
C660 C657 1.463 . S
C660 N664 1.427 . S
C661 H651 0.929 . S
C661 C659 1.433 . S
C661 N664 1.384 . S
C662 H653 0.929 . S
C662 C654 1.378 . S
C662 C657 1.350 . S
C663 H650 0.929 . S
C663 C655 1.433 . S
C663 N665 1.384 . S
N664 C660 1.427 . S
N664 C661 1.384 . S
N665 C657 1.427 . S
N665 C663 1.384 . S
H666 C672 0.930 . S
H667 C676 0.930 . S
H668 C681 0.929 . S
H669 C679 0.929 . S
H670 C674 0.929 1_565 S
H671 C680 0.929 . S
C672 H666 0.930 . S
C672 C673 1.367 . S
C672 C680 1.378 . S
C673 C672 1.367 . S
C673 C681 1.433 . S
C674 H670 0.929 1_545 S
C674 C676 1.378 . S
C674 C678 1.350 1_545 S
C675 C678 1.463 . S
C675 C680 1.350 . S
C675 N683 1.427 . S
C676 H667 0.930 . S
C676 C674 1.378 . S
C676 C677 1.367 . S
C677 C676 1.367 . S
C677 C679 1.433 . S
C678 C674 1.350 1_565 S
C678 C675 1.463 . S
C678 N682 1.427 . S
C679 H669 0.929 . S
C679 C677 1.433 . S
C679 N682 1.384 1_545 S
C680 H671 0.929 . S
C680 C672 1.378 . S
C680 C675 1.350 . S
C681 H668 0.929 . S
C681 C673 1.433 . S
C681 N683 1.384 . S
N682 C678 1.427 . S
N682 C679 1.384 1_565 S
N683 C675 1.427 . S
N683 C681 1.384 . S
H684 C690 0.930 . S
H685 C694 0.930 . S
H686 C699 0.929 . S
H687 C697 0.929 . S
H688 C692 0.929 . S
H689 C698 0.929 . S
C690 H684 0.930 . S
C690 C691 1.367 . S
C690 C698 1.378 . S
C691 C690 1.367 . S
C691 C699 1.433 . S
C692 H688 0.929 . S
C692 C694 1.378 1_455 S
C692 C696 1.350 . S
C693 C696 1.463 . S
C693 C698 1.350 . S
C693 N701 1.427 . S
C694 H685 0.930 . S
C694 C692 1.378 1_655 S
C694 C695 1.367 . S
C695 C694 1.367 . S
C695 C697 1.433 . S
C696 C692 1.350 . S
C696 C693 1.463 . S
C696 N700 1.427 . S
C697 H687 0.929 . S
C697 C695 1.433 . S
C697 N700 1.384 1_655 S
C698 H689 0.929 . S
C698 C690 1.378 . S
C698 C693 1.350 . S
C699 H686 0.929 . S
C699 C691 1.433 . S
C699 N701 1.384 . S
N700 C696 1.427 . S
N700 C697 1.384 1_455 S
N701 C693 1.427 . S
N701 C699 1.384 . S
H702 C708 0.930 . S
H703 C712 0.930 . S
H704 C717 0.929 . S
H705 C715 0.929 . S
H706 C710 0.929 . S
H707 C716 0.929 . S
C708 H702 0.930 . S
C708 C709 1.367 . S
C708 C716 1.378 . S
C709 C708 1.367 . S
C709 C717 1.433 . S
C710 H706 0.929 . S
C710 C712 1.378 . S
C710 C714 1.350 . S
C711 C714 1.463 . S
C711 C716 1.350 . S
C711 N719 1.427 . S
C712 H703 0.930 . S
C712 C710 1.378 . S
C712 C713 1.367 . S
C713 C712 1.367 . S
C713 C715 1.433 . S
C714 C710 1.350 . S
C714 C711 1.463 . S
C714 N718 1.427 . S
C715 H705 0.929 . S
C715 C713 1.433 . S
C715 N718 1.384 . S
C716 H707 0.929 . S
C716 C708 1.378 . S
C716 C711 1.350 . S
C717 H704 0.929 . S
C717 C709 1.433 . S
C717 N719 1.384 . S
N718 C714 1.427 . S
N718 C715 1.384 . S
N719 C711 1.427 . S
N719 C717 1.384 . S
H720 C726 0.930 . S
H721 C730 0.930 . S
H722 C735 0.929 . S
H723 C733 0.929 . S
H724 C728 0.929 . S
H725 C734 0.929 . S
C726 H720 0.930 . S
C726 C727 1.367 . S
C726 C734 1.378 . S
C727 C726 1.367 . S
C727 C735 1.433 . S
C728 H724 0.929 . S
C728 C730 1.378 . S
C728 C732 1.350 . S
C729 C732 1.463 . S
C729 C734 1.350 . S
C729 N737 1.427 . S
C730 H721 0.930 . S
C730 C728 1.378 . S
C730 C731 1.367 . S
C731 C730 1.367 . S
C731 C733 1.433 . S
C732 C728 1.350 . S
C732 C729 1.463 . S
C732 N736 1.427 . S
C733 H723 0.929 . S
C733 C731 1.433 . S
C733 N736 1.384 . S
C734 H725 0.929 . S
C734 C726 1.378 . S
C734 C729 1.350 . S
C735 H722 0.929 . S
C735 C727 1.433 . S
C735 N737 1.384 . S
N736 C732 1.427 . S
N736 C733 1.384 . S
N737 C729 1.427 . S
N737 C735 1.384 . S
H738 C744 0.930 . S
H739 C748 0.930 . S
H740 C753 0.929 . S
H741 C751 0.929 . S
H742 C746 0.929 . S
H743 C752 0.929 . S
C744 H738 0.930 . S
C744 C745 1.367 . S
C744 C752 1.378 . S
C745 C744 1.367 . S
C745 C753 1.433 . S
C746 H742 0.929 . S
C746 C748 1.378 . S
C746 C750 1.350 . S
C747 C750 1.463 . S
C747 C752 1.350 . S
C747 N755 1.427 . S
C748 H739 0.930 . S
C748 C746 1.378 . S
C748 C749 1.367 . S
C749 C748 1.367 . S
C749 C751 1.433 . S
C750 C746 1.350 . S
C750 C747 1.463 . S
C750 N754 1.427 . S
C751 H741 0.929 . S
C751 C749 1.433 . S
C751 N754 1.384 . S
C752 H743 0.929 . S
C752 C744 1.378 . S
C752 C747 1.350 . S
C753 H740 0.929 . S
C753 C745 1.433 . S
C753 N755 1.384 . S
N754 C750 1.427 . S
N754 C751 1.384 . S
N755 C747 1.427 . S
N755 C753 1.384 . S
H756 C762 0.930 . S
H757 C766 0.930 . S
H758 C771 0.929 . S
H759 C769 0.929 . S
H760 C764 0.929 . S
H761 C770 0.929 . S
C762 H756 0.930 . S
C762 C763 1.367 . S
C762 C770 1.378 . S
C763 C762 1.367 . S
C763 C771 1.433 . S
C764 H760 0.929 . S
C764 C766 1.378 . S
C764 C768 1.350 . S
C765 C768 1.463 . S
C765 C770 1.350 . S
C765 N773 1.427 . S
C766 H757 0.930 . S
C766 C764 1.378 . S
C766 C767 1.367 . S
C767 C766 1.367 . S
C767 C769 1.433 . S
C768 C764 1.350 . S
C768 C765 1.463 . S
C768 N772 1.427 . S
C769 H759 0.929 . S
C769 C767 1.433 . S
C769 N772 1.384 . S
C770 H761 0.929 . S
C770 C762 1.378 . S
C770 C765 1.350 . S
C771 H758 0.929 . S
C771 C763 1.433 . S
C771 N773 1.384 . S
N772 C768 1.427 . S
N772 C769 1.384 . S
N773 C765 1.427 . S
N773 C771 1.384 . S
H774 C780 0.930 . S
H775 C784 0.930 . S
H776 C789 0.929 . S
H777 C787 0.929 . S
H778 C782 0.929 . S
H779 C788 0.929 . S
C780 H774 0.930 . S
C780 C781 1.367 . S
C780 C788 1.378 . S
C781 C780 1.367 . S
C781 C789 1.433 . S
C782 H778 0.929 . S
C782 C784 1.378 . S
C782 C786 1.350 . S
C783 C786 1.463 . S
C783 C788 1.350 . S
C783 N791 1.427 . S
C784 H775 0.930 . S
C784 C782 1.378 . S
C784 C785 1.367 . S
C785 C784 1.367 . S
C785 C787 1.433 . S
C786 C782 1.350 . S
C786 C783 1.463 . S
C786 N790 1.427 . S
C787 H777 0.929 . S
C787 C785 1.433 . S
C787 N790 1.384 . S
C788 H779 0.929 . S
C788 C780 1.378 . S
C788 C783 1.350 . S
C789 H776 0.929 . S
C789 C781 1.433 . S
C789 N791 1.384 . S
N790 C786 1.427 . S
N790 C787 1.384 . S
N791 C783 1.427 . S
N791 C789 1.384 . S
H792 C798 0.930 . S
H793 C802 0.930 . S
H794 C807 0.929 . S
H795 C805 0.929 . S
H796 C800 0.929 . S
H797 C806 0.929 . S
C798 H792 0.930 . S
C798 C799 1.367 . S
C798 C806 1.378 . S
C799 C798 1.367 . S
C799 C807 1.433 . S
C800 H796 0.929 . S
C800 C802 1.378 . S
C800 C804 1.350 . S
C801 C804 1.463 . S
C801 C806 1.350 . S
C801 N809 1.427 . S
C802 H793 0.930 . S
C802 C800 1.378 . S
C802 C803 1.367 . S
C803 C802 1.367 . S
C803 C805 1.433 . S
C804 C800 1.350 . S
C804 C801 1.463 . S
C804 N808 1.427 . S
C805 H795 0.929 . S
C805 C803 1.433 . S
C805 N808 1.384 . S
C806 H797 0.929 . S
C806 C798 1.378 . S
C806 C801 1.350 . S
C807 H794 0.929 . S
C807 C799 1.433 . S
C807 N809 1.384 . S
N808 C804 1.427 . S
N808 C805 1.384 . S
N809 C801 1.427 . S
N809 C807 1.384 . S
H810 C816 0.930 . S
H811 C820 0.930 . S
H812 C825 0.929 . S
H813 C823 0.929 . S
H814 C818 0.929 . S
H815 C824 0.929 . S
C816 H810 0.930 . S
C816 C817 1.367 . S
C816 C824 1.378 . S
C817 C816 1.367 . S
C817 C825 1.433 . S
C818 H814 0.929 . S
C818 C820 1.378 . S
C818 C822 1.350 . S
C819 C822 1.463 . S
C819 C824 1.350 . S
C819 N827 1.427 . S
C820 H811 0.930 . S
C820 C818 1.378 . S
C820 C821 1.367 . S
C821 C820 1.367 . S
C821 C823 1.433 . S
C822 C818 1.350 . S
C822 C819 1.463 . S
C822 N826 1.427 . S
C823 H813 0.929 . S
C823 C821 1.433 . S
C823 N826 1.384 . S
C824 H815 0.929 . S
C824 C816 1.378 . S
C824 C819 1.350 . S
C825 H812 0.929 . S
C825 C817 1.433 . S
C825 N827 1.384 . S
N826 C822 1.427 . S
N826 C823 1.384 . S
N827 C819 1.427 . S
N827 C825 1.384 . S
H828 C834 0.930 . S
H829 C838 0.930 . S
H830 C843 0.929 . S
H831 C841 0.929 . S
H832 C836 0.929 . S
H833 C842 0.929 . S
C834 H828 0.930 . S
C834 C835 1.367 . S
C834 C842 1.378 . S
C835 C834 1.367 . S
C835 C843 1.433 . S
C836 H832 0.929 . S
C836 C838 1.378 . S
C836 C840 1.350 . S
C837 C840 1.463 . S
C837 C842 1.350 . S
C837 N845 1.427 . S
C838 H829 0.930 . S
C838 C836 1.378 . S
C838 C839 1.367 . S
C839 C838 1.367 . S
C839 C841 1.433 . S
C840 C836 1.350 . S
C840 C837 1.463 . S
C840 N844 1.427 . S
C841 H831 0.929 . S
C841 C839 1.433 . S
C841 N844 1.384 . S
C842 H833 0.929 . S
C842 C834 1.378 . S
C842 C837 1.350 . S
C843 H830 0.929 . S
C843 C835 1.433 . S
C843 N845 1.384 . S
N844 C840 1.427 . S
N844 C841 1.384 . S
N845 C837 1.427 . S
N845 C843 1.384 . S
H846 C852 0.930 . S
H847 C856 0.930 . S
H848 C861 0.929 . S
H849 C859 0.929 . S
H850 C854 0.929 . S
H851 C860 0.929 . S
C852 H846 0.930 . S
C852 C853 1.367 . S
C852 C860 1.378 . S
C853 C852 1.367 . S
C853 C861 1.433 . S
C854 H850 0.929 . S
C854 C856 1.378 . S
C854 C858 1.350 . S
C855 C858 1.463 . S
C855 C860 1.350 . S
C855 N863 1.427 . S
C856 H847 0.930 . S
C856 C854 1.378 . S
C856 C857 1.367 . S
C857 C856 1.367 . S
C857 C859 1.433 . S
C858 C854 1.350 . S
C858 C855 1.463 . S
C858 N862 1.427 . S
C859 H849 0.929 . S
C859 C857 1.433 . S
C859 N862 1.384 . S
C860 H851 0.929 . S
C860 C852 1.378 . S
C860 C855 1.350 . S
C861 H848 0.929 . S
C861 C853 1.433 . S
C861 N863 1.384 . S
N862 C858 1.427 . S
N862 C859 1.384 . S
N863 C855 1.427 . S
N863 C861 1.384 . S
H864 C870 0.930 1_556 S
H865 C874 0.930 . S
H866 C879 0.929 . S
H867 C877 0.929 . S
H868 C872 0.929 . S
H869 C878 0.929 . S
C870 H864 0.930 1_554 S
C870 C871 1.367 1_554 S
C870 C878 1.378 . S
C871 C870 1.367 1_556 S
C871 C879 1.433 . S
C872 H868 0.929 . S
C872 C874 1.378 . S
C872 C876 1.350 . S
C873 C876 1.463 . S
C873 C878 1.350 . S
C873 N881 1.427 . S
C874 H865 0.930 . S
C874 C872 1.378 . S
C874 C875 1.367 . S
C875 C874 1.367 . S
C875 C877 1.433 . S
C876 C872 1.350 . S
C876 C873 1.463 . S
C876 N880 1.427 . S
C877 H867 0.929 . S
C877 C875 1.433 . S
C877 N880 1.384 . S
C878 H869 0.929 . S
C878 C870 1.378 . S
C878 C873 1.350 . S
C879 H866 0.929 . S
C879 C871 1.433 . S
C879 N881 1.384 1_556 S
N880 C876 1.427 . S
N880 C877 1.384 . S
N881 C873 1.427 . S
N881 C879 1.384 1_554 S
H882 C888 0.930 . S
H883 C892 0.930 . S
H884 C897 0.929 1_556 S
H885 C895 0.929 . S
H886 C890 0.929 . S
H887 C896 0.929 . S
C888 H882 0.930 . S
C888 C889 1.367 . S
C888 C896 1.378 1_556 S
C889 C888 1.367 . S
C889 C897 1.433 1_556 S
C890 H886 0.929 . S
C890 C892 1.378 . S
C890 C894 1.350 . S
C891 C894 1.463 . S
C891 C896 1.350 . S
C891 N899 1.427 . S
C892 H883 0.930 . S
C892 C890 1.378 . S
C892 C893 1.367 . S
C893 C892 1.367 . S
C893 C895 1.433 . S
C894 C890 1.350 . S
C894 C891 1.463 . S
C894 N898 1.427 . S
C895 H885 0.929 . S
C895 C893 1.433 . S
C895 N898 1.384 . S
C896 H887 0.929 . S
C896 C888 1.378 1_554 S
C896 C891 1.350 . S
C897 H884 0.929 1_554 S
C897 C889 1.433 1_554 S
C897 N899 1.384 . S
N898 C894 1.427 . S
N898 C895 1.384 . S
N899 C891 1.427 . S
N899 C897 1.384 . S
H900 C906 0.930 . S
H901 C910 0.930 . S
H902 C915 0.929 . S
H903 C913 0.929 . S
H904 C908 0.929 . S
H905 C914 0.929 . S
C906 H900 0.930 . S
C906 C907 1.367 . S
C906 C914 1.378 1_556 S
C907 C906 1.367 . S
C907 C915 1.433 . S
C908 H904 0.929 . S
C908 C910 1.378 . S
C908 C912 1.350 . S
C909 C912 1.463 . S
C909 C914 1.350 . S
C909 N917 1.427 . S
C910 H901 0.930 . S
C910 C908 1.378 . S
C910 C911 1.367 . S
C911 C910 1.367 . S
C911 C913 1.433 . S
C912 C908 1.350 . S
C912 C909 1.463 . S
C912 N916 1.427 . S
C913 H903 0.929 . S
C913 C911 1.433 . S
C913 N916 1.384 . S
C914 H905 0.929 . S
C914 C906 1.378 1_554 S
C914 C909 1.350 . S
C915 H902 0.929 . S
C915 C907 1.433 . S
C915 N917 1.384 1_556 S
N916 C912 1.427 . S
N916 C913 1.384 . S
N917 C909 1.427 . S
N917 C915 1.384 1_554 S
H918 C924 0.930 . S
H919 C928 0.930 . S
H920 C933 0.929 . S
H921 C931 0.929 . S
H922 C926 0.929 . S
H923 C932 0.929 . S
C924 H918 0.930 . S
C924 C925 1.367 . S
C924 C932 1.378 . S
C925 C924 1.367 . S
C925 C933 1.433 . S
C926 H922 0.929 . S
C926 C928 1.378 1_556 S
C926 C930 1.350 . S
C927 C930 1.463 . S
C927 C932 1.350 . S
C927 N935 1.427 . S
C928 H919 0.930 . S
C928 C926 1.378 1_554 S
C928 C929 1.367 . S
C929 C928 1.367 . S
C929 C931 1.433 . S
C930 C926 1.350 . S
C930 C927 1.463 . S
C930 N934 1.427 . S
C931 H921 0.929 . S
C931 C929 1.433 . S
C931 N934 1.384 1_554 S
C932 H923 0.929 . S
C932 C924 1.378 . S
C932 C927 1.350 . S
C933 H920 0.929 . S
C933 C925 1.433 . S
C933 N935 1.384 . S
N934 C930 1.427 . S
N934 C931 1.384 1_556 S
N935 C927 1.427 . S
N935 C933 1.384 . S
H936 C942 0.930 . S
H937 C946 0.930 . S
H938 C951 0.929 . S
H939 C949 0.929 . S
H940 C944 0.929 . S
H941 C950 0.929 . S
C942 H936 0.930 . S
C942 C943 1.367 . S
C942 C950 1.378 . S
C943 C942 1.367 . S
C943 C951 1.433 . S
C944 H940 0.929 . S
C944 C946 1.378 1_556 S
C944 C948 1.350 . S
C945 C948 1.463 . S
C945 C950 1.350 . S
C945 N953 1.427 . S
C946 H937 0.930 . S
C946 C944 1.378 1_554 S
C946 C947 1.367 . S
C947 C946 1.367 . S
C947 C949 1.433 . S
C948 C944 1.350 . S
C948 C945 1.463 . S
C948 N952 1.427 . S
C949 H939 0.929 . S
C949 C947 1.433 . S
C949 N952 1.384 1_554 S
C950 H941 0.929 . S
C950 C942 1.378 . S
C950 C945 1.350 . S
C951 H938 0.929 . S
C951 C943 1.433 . S
C951 N953 1.384 . S
N952 C948 1.427 . S
N952 C949 1.384 1_556 S
N953 C945 1.427 . S
N953 C951 1.384 . S
H954 C960 0.930 . S
H955 C964 0.930 . S
H956 C969 0.929 . S
H957 C967 0.929 . S
H958 C962 0.929 . S
H959 C968 0.929 . S
C960 H954 0.930 . S
C960 C961 1.367 . S
C960 C968 1.378 . S
C961 C960 1.367 . S
C961 C969 1.433 . S
C962 H958 0.929 . S
C962 C964 1.378 1_556 S
C962 C966 1.350 . S
C963 C966 1.463 . S
C963 C968 1.350 . S
C963 N971 1.427 . S
C964 H955 0.930 . S
C964 C962 1.378 1_554 S
C964 C965 1.367 . S
C965 C964 1.367 . S
C965 C967 1.433 . S
C966 C962 1.350 . S
C966 C963 1.463 . S
C966 N970 1.427 . S
C967 H957 0.929 . S
C967 C965 1.433 . S
C967 N970 1.384 1_554 S
C968 H959 0.929 . S
C968 C960 1.378 . S
C968 C963 1.350 . S
C969 H956 0.929 . S
C969 C961 1.433 . S
C969 N971 1.384 . S
N970 C966 1.427 . S
N970 C967 1.384 1_556 S
N971 C963 1.427 . S
N971 C969 1.384 . S
H972 C978 0.930 . S
H973 C982 0.930 . S
H974 C987 0.929 . S
H975 C985 0.929 . S
H976 C980 0.929 . S
H977 C986 0.929 . S
C978 H972 0.930 . S
C978 C979 1.367 . S
C978 C986 1.378 . S
C979 C978 1.367 . S
C979 C987 1.433 . S
C980 H976 0.929 . S
C980 C982 1.378 . S
C980 C984 1.350 . S
C981 C984 1.463 . S
C981 C986 1.350 . S
C981 N989 1.427 . S
C982 H973 0.930 . S
C982 C980 1.378 . S
C982 C983 1.367 . S
C983 C982 1.367 . S
C983 C985 1.433 . S
C984 C980 1.350 . S
C984 C981 1.463 . S
C984 N988 1.427 . S
C985 H975 0.929 . S
C985 C983 1.433 . S
C985 N988 1.384 . S
C986 H977 0.929 . S
C986 C978 1.378 . S
C986 C981 1.350 . S
C987 H974 0.929 . S
C987 C979 1.433 . S
C987 N989 1.384 . S
N988 C984 1.427 . S
N988 C985 1.384 . S
N989 C981 1.427 . S
N989 C987 1.384 . S
H990 C996 0.930 . S
H991 C1000 0.930 . S
H992 C1005 0.929 . S
H993 C1003 0.929 . S
H994 C998 0.929 . S
H995 C1004 0.929 . S
C996 H990 0.930 . S
C996 C997 1.367 . S
C996 C1004 1.378 . S
C997 C996 1.367 . S
C997 C1005 1.433 . S
C998 H994 0.929 . S
C998 C1000 1.378 . S
C998 C1002 1.350 . S
C999 C1002 1.463 . S
C999 C1004 1.350 . S
C999 N1007 1.427 . S
C1000 H991 0.930 . S
C1000 C998 1.378 . S
C1000 C1001 1.367 . S
C1001 C1000 1.367 . S
C1001 C1003 1.433 . S
C1002 C998 1.350 . S
C1002 C999 1.463 . S
C1002 N1006 1.427 . S
C1003 H993 0.929 . S
C1003 C1001 1.433 . S
C1003 N1006 1.384 . S
C1004 H995 0.929 . S
C1004 C996 1.378 . S
C1004 C999 1.350 . S
C1005 H992 0.929 . S
C1005 C997 1.433 . S
C1005 N1007 1.384 . S
N1006 C1002 1.427 . S
N1006 C1003 1.384 . S
N1007 C999 1.427 . S
N1007 C1005 1.384 . S
H1008 C1014 0.930 . S
H1009 C1018 0.930 . S
H1010 C1023 0.929 . S
H1011 C1021 0.929 . S
H1012 C1016 0.929 . S
H1013 C1022 0.929 . S
C1014 H1008 0.930 . S
C1014 C1015 1.367 . S
C1014 C1022 1.378 . S
C1015 C1014 1.367 . S
C1015 C1023 1.433 . S
C1016 H1012 0.929 . S
C1016 C1018 1.378 . S
C1016 C1020 1.350 . S
C1017 C1020 1.463 . S
C1017 C1022 1.350 . S
C1017 N1025 1.427 . S
C1018 H1009 0.930 . S
C1018 C1016 1.378 . S
C1018 C1019 1.367 . S
C1019 C1018 1.367 . S
C1019 C1021 1.433 . S
C1020 C1016 1.350 . S
C1020 C1017 1.463 . S
C1020 N1024 1.427 . S
C1021 H1011 0.929 . S
C1021 C1019 1.433 . S
C1021 N1024 1.384 . S
C1022 H1013 0.929 . S
C1022 C1014 1.378 . S
C1022 C1017 1.350 . S
C1023 H1010 0.929 . S
C1023 C1015 1.433 . S
C1023 N1025 1.384 . S
N1024 C1020 1.427 . S
N1024 C1021 1.384 . S
N1025 C1017 1.427 . S
N1025 C1023 1.384 . S
H1026 C1032 0.930 . S
H1027 C1036 0.930 1_554 S
H1028 C1041 0.929 . S
H1029 C1039 0.929 . S
H1030 C1034 0.931 1_565 S
H1031 C1040 0.929 . S
C1032 H1026 0.930 . S
C1032 C1033 1.367 . S
C1032 C1040 1.378 . S
C1033 C1032 1.367 . S
C1033 C1041 1.433 . S
C1034 H1030 0.931 1_545 S
C1034 C1036 1.381 . S
C1034 C1038 1.344 1_545 S
C1035 C1038 1.463 . S
C1035 C1040 1.350 . S
C1035 N1043 1.427 . S
C1036 H1027 0.930 1_556 S
C1036 C1034 1.381 . S
C1036 C1037 1.367 . S
C1037 C1036 1.367 . S
C1037 C1039 1.433 . S
C1038 C1034 1.344 1_565 S
C1038 C1035 1.463 . S
C1038 N1042 1.427 . S
C1039 H1029 0.929 . S
C1039 C1037 1.433 . S
C1039 N1042 1.384 1_545 S
C1040 H1031 0.929 . S
C1040 C1032 1.378 . S
C1040 C1035 1.350 . S
C1041 H1028 0.929 . S
C1041 C1033 1.433 . S
C1041 N1043 1.384 . S
N1042 C1038 1.427 . S
N1042 C1039 1.384 1_565 S
N1043 C1035 1.427 . S
N1043 C1041 1.384 . S
H1044 C1050 0.930 1_455 S
H1045 C1054 0.930 . S
H1046 C1059 0.929 . S
H1047 C1057 0.929 . S
H1048 C1052 0.929 . S
H1049 C1058 0.929 . S
C1050 H1044 0.930 1_655 S
C1050 C1051 1.367 . S
C1050 C1058 1.378 1_655 S
C1051 C1050 1.367 . S
C1051 C1059 1.433 . S
C1052 H1048 0.929 . S
C1052 C1054 1.378 . S
C1052 C1056 1.350 . S
C1053 C1056 1.463 . S
C1053 C1058 1.350 . S
C1053 N1061 1.427 1_455 S
C1054 H1045 0.930 . S
C1054 C1052 1.378 . S
C1054 C1055 1.367 . S
C1055 C1054 1.367 . S
C1055 C1057 1.433 . S
C1056 C1052 1.350 . S
C1056 C1053 1.463 . S
C1056 N1060 1.427 . S
C1057 H1047 0.929 . S
C1057 C1055 1.433 . S
C1057 N1060 1.384 . S
C1058 H1049 0.929 . S
C1058 C1050 1.378 1_455 S
C1058 C1053 1.350 . S
C1059 H1046 0.929 . S
C1059 C1051 1.433 . S
C1059 N1061 1.384 . S
N1060 C1056 1.427 . S
N1060 C1057 1.384 . S
N1061 C1053 1.427 1_655 S
N1061 C1059 1.384 . S
H1062 C1068 0.930 . S
H1063 C1072 0.930 . S
H1064 C1077 0.929 . S
H1065 C1075 0.929 1_554 S
H1066 C1070 0.929 . S
H1067 C1076 0.929 . S
C1068 H1062 0.930 . S
C1068 C1069 1.367 . S
C1068 C1076 1.378 . S
C1069 C1068 1.367 . S
C1069 C1077 1.433 . S
C1070 H1066 0.929 . S
C1070 C1072 1.378 . S
C1070 C1074 1.350 . S
C1071 C1074 1.463 . S
C1071 C1076 1.350 . S
C1071 N1079 1.427 . S
C1072 H1063 0.930 . S
C1072 C1070 1.378 . S
C1072 C1073 1.367 . S
C1073 C1072 1.367 . S
C1073 C1075 1.433 . S
C1074 C1070 1.350 . S
C1074 C1071 1.463 . S
C1074 N1078 1.427 . S
C1075 H1065 0.929 1_556 S
C1075 C1073 1.433 . S
C1075 N1078 1.384 . S
C1076 H1067 0.929 . S
C1076 C1068 1.378 . S
C1076 C1071 1.350 . S
C1077 H1064 0.929 . S
C1077 C1069 1.433 . S
C1077 N1079 1.384 . S
N1078 C1074 1.427 . S
N1078 C1075 1.384 . S
N1079 C1071 1.427 . S
N1079 C1077 1.384 . S
H1080 C1086 0.930 . S
H1081 C1090 0.930 . S
H1082 C1095 0.929 . S
H1083 C1093 0.929 . S
H1084 C1088 0.929 . S
H1085 C1094 0.929 . S
C1086 H1080 0.930 . S
C1086 C1087 1.367 . S
C1086 C1094 1.378 1_655 S
C1087 C1086 1.367 . S
C1087 C1095 1.433 . S
C1088 H1084 0.929 . S
C1088 C1090 1.378 . S
C1088 C1092 1.350 . S
C1089 C1092 1.463 . S
C1089 C1094 1.350 . S
C1089 N1097 1.427 1_455 S
C1090 H1081 0.930 . S
C1090 C1088 1.378 . S
C1090 C1091 1.367 . S
C1091 C1090 1.367 . S
C1091 C1093 1.433 . S
C1092 C1088 1.350 . S
C1092 C1089 1.463 . S
C1092 N1096 1.427 . S
C1093 H1083 0.929 . S
C1093 C1091 1.433 . S
C1093 N1096 1.384 . S
C1094 H1085 0.929 . S
C1094 C1086 1.378 1_455 S
C1094 C1089 1.350 . S
C1095 H1082 0.929 . S
C1095 C1087 1.433 . S
C1095 N1097 1.384 . S
N1096 C1092 1.427 . S
N1096 C1093 1.384 . S
N1097 C1089 1.427 1_655 S
N1097 C1095 1.384 . S
H1098 C1104 0.930 . S
H1099 C1108 0.930 . S
H1100 C1113 0.929 . S
H1101 C1111 0.929 . S
H1102 C1106 0.929 . S
H1103 C1112 0.929 . S
C1104 H1098 0.930 . S
C1104 C1105 1.367 . S
C1104 C1112 1.378 . S
C1105 C1104 1.367 . S
C1105 C1113 1.433 . S
C1106 H1102 0.929 . S
C1106 C1108 1.378 . S
C1106 C1110 1.350 . S
C1107 C1110 1.463 . S
C1107 C1112 1.350 . S
C1107 N1115 1.427 . S
C1108 H1099 0.930 . S
C1108 C1106 1.378 . S
C1108 C1109 1.367 . S
C1109 C1108 1.367 . S
C1109 C1111 1.433 . S
C1110 C1106 1.350 . S
C1110 C1107 1.463 . S
C1110 N1114 1.427 . S
C1111 H1101 0.929 . S
C1111 C1109 1.433 . S
C1111 N1114 1.384 . S
C1112 H1103 0.929 . S
C1112 C1104 1.378 . S
C1112 C1107 1.350 . S
C1113 H1100 0.929 . S
C1113 C1105 1.433 . S
C1113 N1115 1.384 . S
N1114 C1110 1.427 . S
N1114 C1111 1.384 . S
N1115 C1107 1.427 . S
N1115 C1113 1.384 . S
H1116 C1122 0.930 . S
H1117 C1126 0.930 . S
H1118 C1131 0.929 . S
H1119 C1129 0.929 . S
H1120 C1124 0.929 . S
H1121 C1130 0.929 . S
C1122 H1116 0.930 . S
C1122 C1123 1.367 . S
C1122 C1130 1.378 . S
C1123 C1122 1.367 . S
C1123 C1131 1.433 . S
C1124 H1120 0.929 . S
C1124 C1126 1.378 1_565 S
C1124 C1128 1.350 . S
C1125 C1128 1.463 . S
C1125 C1130 1.350 . S
C1125 N1133 1.427 . S
C1126 H1117 0.930 . S
C1126 C1124 1.378 1_545 S
C1126 C1127 1.367 . S
C1127 C1126 1.367 . S
C1127 C1129 1.433 . S
C1128 C1124 1.350 . S
C1128 C1125 1.463 . S
C1128 N1132 1.427 1_565 S
C1129 H1119 0.929 . S
C1129 C1127 1.433 . S
C1129 N1132 1.384 . S
C1130 H1121 0.929 . S
C1130 C1122 1.378 . S
C1130 C1125 1.350 . S
C1131 H1118 0.929 . S
C1131 C1123 1.433 . S
C1131 N1133 1.384 . S
N1132 C1128 1.427 1_545 S
N1132 C1129 1.384 . S
N1133 C1125 1.427 . S
N1133 C1131 1.384 . S
H1134 C1140 0.930 . S
H1135 C1144 0.930 . S
H1136 C1149 0.929 . S
H1137 C1147 0.929 . S
H1138 C1142 0.929 . S
H1139 C1148 0.929 . S
C1140 H1134 0.930 . S
C1140 C1141 1.367 . S
C1140 C1148 1.378 . S
C1141 C1140 1.367 . S
C1141 C1149 1.433 . S
C1142 H1138 0.929 . S
C1142 C1144 1.378 . S
C1142 C1146 1.350 . S
C1143 C1146 1.463 . S
C1143 C1148 1.350 . S
C1143 N1151 1.427 . S
C1144 H1135 0.930 . S
C1144 C1142 1.378 . S
C1144 C1145 1.367 . S
C1145 C1144 1.367 . S
C1145 C1147 1.433 . S
C1146 C1142 1.350 . S
C1146 C1143 1.463 . S
C1146 N1150 1.427 . S
C1147 H1137 0.929 . S
C1147 C1145 1.433 . S
C1147 N1150 1.384 . S
C1148 H1139 0.929 . S
C1148 C1140 1.378 . S
C1148 C1143 1.350 . S
C1149 H1136 0.929 . S
C1149 C1141 1.433 . S
C1149 N1151 1.384 . S
N1150 C1146 1.427 . S
N1150 C1147 1.384 . S
N1151 C1143 1.427 . S
N1151 C1149 1.384 . S
H1152 C1158 0.930 . S
H1153 C1162 0.930 . S
H1154 C1167 0.929 . S
H1155 C1165 0.929 . S
H1156 C1160 0.929 . S
H1157 C1166 0.929 . S
C1158 H1152 0.930 . S
C1158 C1159 1.367 . S
C1158 C1166 1.378 . S
C1159 C1158 1.367 . S
C1159 C1167 1.433 . S
C1160 H1156 0.929 . S
C1160 C1162 1.378 . S
C1160 C1164 1.350 . S
C1161 C1164 1.463 . S
C1161 C1166 1.350 . S
C1161 N1169 1.427 . S
C1162 H1153 0.930 . S
C1162 C1160 1.378 . S
C1162 C1163 1.367 . S
C1163 C1162 1.367 . S
C1163 C1165 1.433 . S
C1164 C1160 1.350 . S
C1164 C1161 1.463 . S
C1164 N1168 1.427 . S
C1165 H1155 0.929 . S
C1165 C1163 1.433 . S
C1165 N1168 1.384 . S
C1166 H1157 0.929 . S
C1166 C1158 1.378 . S
C1166 C1161 1.350 . S
C1167 H1154 0.929 . S
C1167 C1159 1.433 . S
C1167 N1169 1.384 . S
N1168 C1164 1.427 . S
N1168 C1165 1.384 . S
N1169 C1161 1.427 . S
N1169 C1167 1.384 . S
H1170 C1176 0.930 . S
H1171 C1180 0.930 . S
H1172 C1185 0.929 . S
H1173 C1183 0.929 . S
H1174 C1178 0.929 . S
H1175 C1184 0.929 . S
C1176 H1170 0.930 . S
C1176 C1177 1.367 . S
C1176 C1184 1.378 . S
C1177 C1176 1.367 . S
C1177 C1185 1.433 . S
C1178 H1174 0.929 . S
C1178 C1180 1.378 . S
C1178 C1182 1.350 . S
C1179 C1182 1.463 . S
C1179 C1184 1.350 . S
C1179 N1187 1.427 . S
C1180 H1171 0.930 . S
C1180 C1178 1.378 . S
C1180 C1181 1.367 . S
C1181 C1180 1.367 . S
C1181 C1183 1.433 . S
C1182 C1178 1.350 . S
C1182 C1179 1.463 . S
C1182 N1186 1.427 . S
C1183 H1173 0.929 . S
C1183 C1181 1.433 . S
C1183 N1186 1.384 . S
C1184 H1175 0.929 . S
C1184 C1176 1.378 . S
C1184 C1179 1.350 . S
C1185 H1172 0.929 . S
C1185 C1177 1.433 . S
C1185 N1187 1.384 . S
N1186 C1182 1.427 . S
N1186 C1183 1.384 . S
N1187 C1179 1.427 . S
N1187 C1185 1.384 . S
H1188 C1194 0.930 . S
H1189 C1198 0.930 . S
H1190 C1203 0.929 . S
H1191 C1201 0.929 . S
H1192 C1196 0.929 . S
H1193 C1202 0.929 . S
C1194 H1188 0.930 . S
C1194 C1195 1.367 . S
C1194 C1202 1.378 . S
C1195 C1194 1.367 . S
C1195 C1203 1.433 . S
C1196 H1192 0.929 . S
C1196 C1198 1.378 . S
C1196 C1200 1.350 . S
C1197 C1200 1.463 . S
C1197 C1202 1.350 . S
C1197 N1205 1.427 . S
C1198 H1189 0.930 . S
C1198 C1196 1.378 . S
C1198 C1199 1.367 . S
C1199 C1198 1.367 . S
C1199 C1201 1.433 . S
C1200 C1196 1.350 . S
C1200 C1197 1.463 . S
C1200 N1204 1.427 . S
C1201 H1191 0.929 . S
C1201 C1199 1.433 . S
C1201 N1204 1.384 . S
C1202 H1193 0.929 . S
C1202 C1194 1.378 . S
C1202 C1197 1.350 . S
C1203 H1190 0.929 . S
C1203 C1195 1.433 . S
C1203 N1205 1.384 . S
N1204 C1200 1.427 . S
N1204 C1201 1.384 . S
N1205 C1197 1.427 . S
N1205 C1203 1.384 . S
H1206 C1212 0.930 . S
H1207 C1216 0.930 . S
H1208 C1221 0.929 . S
H1209 C1219 0.929 . S
H1210 C1214 0.929 . S
H1211 C1220 0.929 . S
C1212 H1206 0.930 . S
C1212 C1213 1.367 . S
C1212 C1220 1.378 . S
C1213 C1212 1.367 . S
C1213 C1221 1.433 . S
C1214 H1210 0.929 . S
C1214 C1216 1.378 . S
C1214 C1218 1.350 . S
C1215 C1218 1.463 . S
C1215 C1220 1.350 . S
C1215 N1223 1.427 . S
C1216 H1207 0.930 . S
C1216 C1214 1.378 . S
C1216 C1217 1.367 . S
C1217 C1216 1.367 . S
C1217 C1219 1.433 . S
C1218 C1214 1.350 . S
C1218 C1215 1.463 . S
C1218 N1222 1.427 . S
C1219 H1209 0.929 . S
C1219 C1217 1.433 . S
C1219 N1222 1.384 . S
C1220 H1211 0.929 . S
C1220 C1212 1.378 . S
C1220 C1215 1.350 . S
C1221 H1208 0.929 . S
C1221 C1213 1.433 . S
C1221 N1223 1.384 . S
N1222 C1218 1.427 . S
N1222 C1219 1.384 . S
N1223 C1215 1.427 . S
N1223 C1221 1.384 . S
H1224 C1230 0.930 . S
H1225 C1234 0.930 . S
H1226 C1239 0.929 . S
H1227 C1237 0.929 . S
H1228 C1232 0.929 . S
H1229 C1238 0.929 . S
C1230 H1224 0.930 . S
C1230 C1231 1.367 . S
C1230 C1238 1.378 . S
C1231 C1230 1.367 . S
C1231 C1239 1.433 . S
C1232 H1228 0.929 . S
C1232 C1234 1.378 . S
C1232 C1236 1.350 . S
C1233 C1236 1.463 . S
C1233 C1238 1.350 . S
C1233 N1241 1.427 . S
C1234 H1225 0.930 . S
C1234 C1232 1.378 . S
C1234 C1235 1.367 . S
C1235 C1234 1.367 . S
C1235 C1237 1.433 . S
C1236 C1232 1.350 . S
C1236 C1233 1.463 . S
C1236 N1240 1.427 . S
C1237 H1227 0.929 . S
C1237 C1235 1.433 . S
C1237 N1240 1.384 . S
C1238 H1229 0.929 . S
C1238 C1230 1.378 . S
C1238 C1233 1.350 . S
C1239 H1226 0.929 . S
C1239 C1231 1.433 . S
C1239 N1241 1.384 . S
N1240 C1236 1.427 . S
N1240 C1237 1.384 . S
N1241 C1233 1.427 . S
N1241 C1239 1.384 . S
H1242 C1248 0.930 . S
H1243 C1252 0.930 . S
H1244 C1257 0.929 . S
H1245 C1255 0.929 . S
H1246 C1250 0.929 . S
H1247 C1256 0.929 . S
C1248 H1242 0.930 . S
C1248 C1249 1.367 . S
C1248 C1256 1.378 . S
C1249 C1248 1.367 . S
C1249 C1257 1.433 . S
C1250 H1246 0.929 . S
C1250 C1252 1.378 . S
C1250 C1254 1.350 . S
C1251 C1254 1.463 . S
C1251 C1256 1.350 . S
C1251 N1259 1.427 . S
C1252 H1243 0.930 . S
C1252 C1250 1.378 . S
C1252 C1253 1.367 . S
C1253 C1252 1.367 . S
C1253 C1255 1.433 . S
C1254 C1250 1.350 . S
C1254 C1251 1.463 . S
C1254 N1258 1.427 . S
C1255 H1245 0.929 . S
C1255 C1253 1.433 . S
C1255 N1258 1.384 . S
C1256 H1247 0.929 . S
C1256 C1248 1.378 . S
C1256 C1251 1.350 . S
C1257 H1244 0.929 . S
C1257 C1249 1.433 . S
C1257 N1259 1.384 . S
N1258 C1254 1.427 . S
N1258 C1255 1.384 . S
N1259 C1251 1.427 . S
N1259 C1257 1.384 . S
H1260 C1266 0.930 . S
H1261 C1270 0.930 . S
H1262 C1275 0.929 . S
H1263 C1273 0.929 . S
H1264 C1268 0.929 . S
H1265 C1274 0.929 . S
C1266 H1260 0.930 . S
C1266 C1267 1.367 . S
C1266 C1274 1.378 . S
C1267 C1266 1.367 . S
C1267 C1275 1.433 . S
C1268 H1264 0.929 . S
C1268 C1270 1.378 . S
C1268 C1272 1.350 . S
C1269 C1272 1.463 . S
C1269 C1274 1.350 . S
C1269 N1277 1.427 . S
C1270 H1261 0.930 . S
C1270 C1268 1.378 . S
C1270 C1271 1.367 . S
C1271 C1270 1.367 . S
C1271 C1273 1.433 . S
C1272 C1268 1.350 . S
C1272 C1269 1.463 . S
C1272 N1276 1.427 . S
C1273 H1263 0.929 . S
C1273 C1271 1.433 . S
C1273 N1276 1.384 . S
C1274 H1265 0.929 . S
C1274 C1266 1.378 . S
C1274 C1269 1.350 . S
C1275 H1262 0.929 . S
C1275 C1267 1.433 . S
C1275 N1277 1.384 . S
N1276 C1272 1.427 . S
N1276 C1273 1.384 . S
N1277 C1269 1.427 . S
N1277 C1275 1.384 . S
H1278 C1284 0.930 . S
H1279 C1288 0.930 . S
H1280 C1293 0.929 . S
H1281 C1291 0.929 . S
H1282 C1286 0.929 . S
H1283 C1292 0.929 . S
C1284 H1278 0.930 . S
C1284 C1285 1.367 . S
C1284 C1292 1.378 . S
C1285 C1284 1.367 . S
C1285 C1293 1.433 . S
C1286 H1282 0.929 . S
C1286 C1288 1.378 . S
C1286 C1290 1.350 . S
C1287 C1290 1.463 . S
C1287 C1292 1.350 . S
C1287 N1295 1.427 . S
C1288 H1279 0.930 . S
C1288 C1286 1.378 . S
C1288 C1289 1.367 . S
C1289 C1288 1.367 . S
C1289 C1291 1.433 . S
C1290 C1286 1.350 . S
C1290 C1287 1.463 . S
C1290 N1294 1.427 . S
C1291 H1281 0.929 . S
C1291 C1289 1.433 . S
C1291 N1294 1.384 . S
C1292 H1283 0.929 . S
C1292 C1284 1.378 . S
C1292 C1287 1.350 . S
C1293 H1280 0.929 . S
C1293 C1285 1.433 . S
C1293 N1295 1.384 . S
N1294 C1290 1.427 . S
N1294 C1291 1.384 . S
N1295 C1287 1.427 . S
N1295 C1293 1.384 . S
H1296 C1302 0.930 . S
H1297 C1306 0.930 . S
H1298 C1311 0.929 . S
H1299 C1309 0.929 . S
H1300 C1304 0.929 . S
H1301 C1310 0.929 . S
C1302 H1296 0.930 . S
C1302 C1303 1.367 . S
C1302 C1310 1.378 . S
C1303 C1302 1.367 . S
C1303 C1311 1.433 . S
C1304 H1300 0.929 . S
C1304 C1306 1.378 . S
C1304 C1308 1.350 . S
C1305 C1308 1.463 . S
C1305 C1310 1.350 . S
C1305 N1313 1.427 . S
C1306 H1297 0.930 . S
C1306 C1304 1.378 . S
C1306 C1307 1.367 . S
C1307 C1306 1.367 . S
C1307 C1309 1.433 . S
C1308 C1304 1.350 . S
C1308 C1305 1.463 . S
C1308 N1312 1.427 . S
C1309 H1299 0.929 . S
C1309 C1307 1.433 . S
C1309 N1312 1.384 . S
C1310 H1301 0.929 . S
C1310 C1302 1.378 . S
C1310 C1305 1.350 . S
C1311 H1298 0.929 . S
C1311 C1303 1.433 . S
C1311 N1313 1.384 . S
N1312 C1308 1.427 . S
N1312 C1309 1.384 . S
N1313 C1305 1.427 . S
N1313 C1311 1.384 . S
H1314 C1320 0.930 . S
H1315 C1324 0.930 . S
H1316 C1329 0.929 . S
H1317 C1327 0.929 . S
H1318 C1322 0.929 . S
H1319 C1328 0.929 . S
C1320 H1314 0.930 . S
C1320 C1321 1.367 . S
C1320 C1328 1.378 . S
C1321 C1320 1.367 . S
C1321 C1329 1.433 . S
C1322 H1318 0.929 . S
C1322 C1324 1.378 . S
C1322 C1326 1.350 . S
C1323 C1326 1.463 . S
C1323 C1328 1.350 . S
C1323 N1331 1.427 . S
C1324 H1315 0.930 . S
C1324 C1322 1.378 . S
C1324 C1325 1.367 . S
C1325 C1324 1.367 . S
C1325 C1327 1.433 . S
C1326 C1322 1.350 . S
C1326 C1323 1.463 . S
C1326 N1330 1.427 . S
C1327 H1317 0.929 . S
C1327 C1325 1.433 . S
C1327 N1330 1.384 . S
C1328 H1319 0.929 . S
C1328 C1320 1.378 . S
C1328 C1323 1.350 . S
C1329 H1316 0.929 . S
C1329 C1321 1.433 . S
C1329 N1331 1.384 . S
N1330 C1326 1.427 . S
N1330 C1327 1.384 . S
N1331 C1323 1.427 . S
N1331 C1329 1.384 . S
H1332 C1338 0.930 . S
H1333 C1342 0.930 . S
H1334 C1347 0.929 . S
H1335 C1345 0.929 . S
H1336 C1340 0.929 . S
H1337 C1346 0.929 . S
C1338 H1332 0.930 . S
C1338 C1339 1.367 . S
C1338 C1346 1.378 . S
C1339 C1338 1.367 . S
C1339 C1347 1.433 . S
C1340 H1336 0.929 . S
C1340 C1342 1.378 . S
C1340 C1344 1.350 . S
C1341 C1344 1.463 . S
C1341 C1346 1.350 . S
C1341 N1349 1.427 . S
C1342 H1333 0.930 . S
C1342 C1340 1.378 . S
C1342 C1343 1.367 . S
C1343 C1342 1.367 . S
C1343 C1345 1.433 . S
C1344 C1340 1.350 . S
C1344 C1341 1.463 . S
C1344 N1348 1.427 . S
C1345 H1335 0.929 . S
C1345 C1343 1.433 . S
C1345 N1348 1.384 . S
C1346 H1337 0.929 . S
C1346 C1338 1.378 . S
C1346 C1341 1.350 . S
C1347 H1334 0.929 . S
C1347 C1339 1.433 . S
C1347 N1349 1.384 . S
N1348 C1344 1.427 . S
N1348 C1345 1.384 . S
N1349 C1341 1.427 . S
N1349 C1347 1.384 . S
C385 C7 0.769 . S
C389 C58 0.769 . S
C403 C16 0.789 . S
C407 C28 0.738 . S
C421 C49 0.745 . S
C425 C37 0.780 . S
C439 C87 0.772 . S
C443 C70 0.745 . S
C457 C108 0.777 . S
C461 C88 0.760 . S
C475 C109 0.740 . S
C479 C79 0.777 . S
C493 C184 0.783 . S
C497 C133 0.736 . S
C511 C154 0.749 . S
C515 C142 0.767 . S
C529 C163 0.743 . S
C533 C175 0.784 . S
C547 C196 0.746 . S
C551 C213 0.786 . S
C565 C234 0.783 . S
C569 C214 0.750 . S
C583 C235 0.786 . S
C587 C205 0.745 . S
C601 C310 0.747 1_565 S
C605 C259 0.786 . S
C619 C280 0.753 . S
C623 C268 0.764 1_455 S
C637 C301 0.739 . S
C641 C289 0.788 . S
C655 C319 0.738 . S
C659 C352 0.780 1_455 S
C673 C360 0.786 . S
C677 C343 0.745 . S
C691 C318 0.766 1_565 S
C695 C361 0.751 . S
C709 C125 1.075 . S
C713 C3 1.094 . S
C727 C82 1.078 . S
C731 C24 1.103 . S
C745 C104 1.064 . S
C749 C45 1.083 . S
C763 C40 1.065 . S
C767 C66 1.084 . S
C781 C100 1.080 . S
C785 C61 1.055 . S
C799 C19 1.073 . S
C803 C121 1.107 . S
C817 C129 1.107 . S
C821 C251 1.072 . S
C835 C150 1.088 . S
C839 C208 1.047 . S
C853 C230 1.071 . S
C857 C171 1.089 . S
C871 C192 1.084 . S
C875 C166 1.064 . S
C889 C226 1.105 . S
C893 C187 1.066 . S
C907 C247 1.088 . S
C911 C145 1.047 . S
C925 C255 1.107 . S
C929 C377 1.072 . S
C943 C276 1.080 . S
C947 C335 1.056 . S
C961 C297 1.101 . S
C965 C355 1.078 . S
C979 C331 1.101 . S
C983 C292 1.059 . S
C997 C339 1.082 . S
C1001 C313 1.047 . S
C1015 C373 1.079 . S
C1019 C271 1.052 . S
C1033 C217 1.925 . S
C1037 C20 1.954 1_556 S
C1051 C41 1.957 1_556 S
C1055 C238 1.914 . S
C1069 C193 1.912 . S
C1073 C62 1.962 1_556 S
C1087 C83 1.951 . S
C1091 C172 1.923 . S
C1105 C103 1.962 . S
C1109 C130 1.914 . S
C1123 C151 1.925 . S
C1127 C124 1.951 . S
C1141 C146 1.959 . S
C1145 C340 1.920 1_455 S
C1159 C167 1.952 . S
C1163 C364 1.925 . S
C1177 C188 1.956 . S
C1181 C322 1.924 1_565 S
C1195 C298 1.923 1_565 S
C1199 C209 1.956 . S
C1213 C256 1.913 1_455 S
C1217 C229 1.962 . S
C1231 C277 1.920 . S
C1235 C250 1.959 . S
C1249 C91 1.922 . S
C1253 C272 1.957 . S
C1267 C293 1.958 . S
C1271 C112 1.921 . S
C1285 C67 1.918 . S
C1289 C314 1.954 . S
C1303 C334 1.961 . S
C1307 C46 1.916 . S
C1321 C356 1.956 . S
C1325 C4 1.924 . S
C1339 C25 1.919 . S
C1343 C376 1.960 . S
