# Generated by pormake.
# Topology uki, (4)-cn, num edge types: 1
# Building blocks:
#     Node 0, Type 0, BuildingBlock: ICAMEG_clean_sbu_1, # of connection points: 4
#     Node 1, Type 0, BuildingBlock: ICAMEG_clean_sbu_1, # of connection points: 4
#     Node 2, Type 0, BuildingBlock: ICAMEG_clean_sbu_1, # of connection points: 4
#     Node 3, Type 0, BuildingBlock: ICAMEG_clean_sbu_1, # of connection points: 4
#     Node 4, Type 0, BuildingBlock: ICAMEG_clean_sbu_1, # of connection points: 4
#     Node 5, Type 0, BuildingBlock: ICAMEG_clean_sbu_1, # of connection points: 4
#     Node 6, Type 0, BuildingBlock: ICAMEG_clean_sbu_1, # of connection points: 4
#     Node 7, Type 0, BuildingBlock: ICAMEG_clean_sbu_1, # of connection points: 4
#     Node 8, Type 0, BuildingBlock: ICAMEG_clean_sbu_1, # of connection points: 4
#     Node 9, Type 0, BuildingBlock: ICAMEG_clean_sbu_1, # of connection points: 4
#     Node 10, Type 0, BuildingBlock: ICAMEG_clean_sbu_1, # of connection points: 4
#     Node 11, Type 0, BuildingBlock: ICAMEG_clean_sbu_1, # of connection points: 4
#     Node 12, Type 0, BuildingBlock: ICAMEG_clean_sbu_1, # of connection points: 4
#     Node 13, Type 0, BuildingBlock: ICAMEG_clean_sbu_1, # of connection points: 4
#     Node 14, Type 0, BuildingBlock: ICAMEG_clean_sbu_1, # of connection points: 4
#     Node 15, Type 0, BuildingBlock: ICAMEG_clean_sbu_1, # of connection points: 4
#     Edge 16, Type (0, 0), BuildingBlock: OJICUG_clean_linker_0, # of connection points: 2
#     Edge 17, Type (0, 0), BuildingBlock: OJICUG_clean_linker_0, # of connection points: 2
#     Edge 18, Type (0, 0), BuildingBlock: OJICUG_clean_linker_0, # of connection points: 2
#     Edge 19, Type (0, 0), BuildingBlock: OJICUG_clean_linker_0, # of connection points: 2
#     Edge 20, Type (0, 0), BuildingBlock: OJICUG_clean_linker_0, # of connection points: 2
#     Edge 21, Type (0, 0), BuildingBlock: OJICUG_clean_linker_0, # of connection points: 2
#     Edge 22, Type (0, 0), BuildingBlock: OJICUG_clean_linker_0, # of connection points: 2
#     Edge 23, Type (0, 0), BuildingBlock: OJICUG_clean_linker_0, # of connection points: 2
#     Edge 24, Type (0, 0), BuildingBlock: OJICUG_clean_linker_0, # of connection points: 2
#     Edge 25, Type (0, 0), BuildingBlock: OJICUG_clean_linker_0, # of connection points: 2
#     Edge 26, Type (0, 0), BuildingBlock: OJICUG_clean_linker_0, # of connection points: 2
#     Edge 27, Type (0, 0), BuildingBlock: OJICUG_clean_linker_0, # of connection points: 2
#     Edge 28, Type (0, 0), BuildingBlock: OJICUG_clean_linker_0, # of connection points: 2
#     Edge 29, Type (0, 0), BuildingBlock: OJICUG_clean_linker_0, # of connection points: 2
#     Edge 30, Type (0, 0), BuildingBlock: OJICUG_clean_linker_0, # of connection points: 2
#     Edge 31, Type (0, 0), BuildingBlock: OJICUG_clean_linker_0, # of connection points: 2
#     Edge 32, Type (0, 0), BuildingBlock: OJICUG_clean_linker_0, # of connection points: 2
#     Edge 33, Type (0, 0), BuildingBlock: OJICUG_clean_linker_0, # of connection points: 2
#     Edge 34, Type (0, 0), BuildingBlock: OJICUG_clean_linker_0, # of connection points: 2
#     Edge 35, Type (0, 0), BuildingBlock: OJICUG_clean_linker_0, # of connection points: 2
#     Edge 36, Type (0, 0), BuildingBlock: OJICUG_clean_linker_0, # of connection points: 2
#     Edge 37, Type (0, 0), BuildingBlock: OJICUG_clean_linker_0, # of connection points: 2
#     Edge 38, Type (0, 0), BuildingBlock: OJICUG_clean_linker_0, # of connection points: 2
#     Edge 39, Type (0, 0), BuildingBlock: OJICUG_clean_linker_0, # of connection points: 2
#     Edge 40, Type (0, 0), BuildingBlock: OJICUG_clean_linker_0, # of connection points: 2
#     Edge 41, Type (0, 0), BuildingBlock: OJICUG_clean_linker_0, # of connection points: 2
#     Edge 42, Type (0, 0), BuildingBlock: OJICUG_clean_linker_0, # of connection points: 2
#     Edge 43, Type (0, 0), BuildingBlock: OJICUG_clean_linker_0, # of connection points: 2
#     Edge 44, Type (0, 0), BuildingBlock: OJICUG_clean_linker_0, # of connection points: 2
#     Edge 45, Type (0, 0), BuildingBlock: OJICUG_clean_linker_0, # of connection points: 2
#     Edge 46, Type (0, 0), BuildingBlock: OJICUG_clean_linker_0, # of connection points: 2
#     Edge 47, Type (0, 0), BuildingBlock: OJICUG_clean_linker_0, # of connection points: 2
# Relax obj value: 0.014
# Max RMSD: 0.103
# Mean RMSD: 0.103
data_MOF--net-uki--node1-ICAMEG_clean_sbu_1--edge1-OJICUG_clean_linker_0
_symmetry_space_group_name_H-M    P1
_symmetry_Int_Tables_number       1
_symmetry_cell_setting            triclinic
loop_
_symmetry_equiv_pos_as_xyz
'x, y, z'
_cell_length_a     24.796246
_cell_length_b     24.796113
_cell_length_c     58.663735
_cell_angle_alpha  89.999732
_cell_angle_beta   89.995375
_cell_angle_gamma 90.004445
loop_
_atom_site_label
_atom_site_type_symbol
_atom_site_fract_x
_atom_site_fract_y
_atom_site_fract_z
_atom_type_partial_charge
Co0 Co 0.10336 0.1994 0.26549 0.0
Co1 Co 0.08162 0.27782 0.31346 0.0
O2 O 0.10175 0.20988 0.29866 0.0
C3 C 0.03513 0.1114 0.28326 0.0
O4 O 0.01418 0.14638 0.2975 0.0
C5 C 0.1866 0.24701 0.33431 0.0
O6 O 0.20207 0.22778 0.31454 0.0
O7 O 0.13258 0.31854 0.2938 0.0
O8 O 0.13415 0.27318 0.26064 0.0
H9 H 0.0403 0.4758 0.31501 0.0
H10 H 0.15331 0.11598 0.29492 0.0
O11 O 0.07165 0.12562 0.26923 0.0
H12 H 0.30077 0.18409 0.24642 0.0
H13 H 0.13387 0.09186 0.19383 0.0
H14 H 0.0751 0.26655 0.22538 0.0
H15 H 0.20856 0.22015 0.2424 0.0
H16 H 0.13315 0.10718 0.23538 0.0
O17 O 0.14026 0.26829 0.33666 0.0
H18 H 0.05412 0.3872 0.29684 0.0
H19 H 0.07055 0.31345 0.36182 0.0
H20 H 0.07559 0.25315 0.18373 0.0
H21 H 0.24477 0.07827 0.29929 0.0
H22 H 0.10513 0.16524 0.1677 0.0
H23 H 0.31931 0.11253 0.27499 0.0
O24 O 0.02967 0.2293 0.26238 0.0
H25 H 0.02798 0.12606 0.36548 0.0
H26 H 0.96688 0.29249 0.32745 0.0
H27 H 0.90314 0.24133 0.35142 0.0
H28 H 0.93366 0.15749 0.37068 0.0
H29 H 0.09012 0.17816 0.34112 0.0
H30 H 0.05605 0.40111 0.3807 0.0
H31 H 0.04228 0.48324 0.35726 0.0
O32 O 0.02177 0.28955 0.29086 0.0
C33 C 0.1456 0.31416 0.27287 0.0
C34 C 0.04614 0.44027 0.32543 0.0
C35 C 0.05522 0.39837 0.36229 0.0
N36 N 0.06292 0.3452 0.32824 0.0
C37 C 0.05389 0.38998 0.31523 0.0
C38 C 0.06325 0.34883 0.3515 0.0
C39 C 0.04719 0.44442 0.34912 0.0
C40 C 0.18539 0.13063 0.2841 0.0
N41 N 0.17557 0.17011 0.26839 0.0
C42 C 0.23716 0.10933 0.28674 0.0
C43 C 0.27899 0.12865 0.27313 0.0
C44 C 0.26862 0.16885 0.25711 0.0
C45 C 0.21637 0.18927 0.25498 0.0
C46 C 0.12108 0.13039 0.20061 0.0
C47 C 0.08847 0.22838 0.21853 0.0
C48 C 0.12053 0.13929 0.22412 0.0
N49 N 0.10467 0.18794 0.23278 0.0
C50 C 0.08845 0.22094 0.19493 0.0
C51 C 0.10496 0.17159 0.18595 0.0
C52 C 0.00451 0.26691 0.27267 0.0
C53 C 0.01422 0.16256 0.35721 0.0
C54 C 0.98028 0.25583 0.33561 0.0
C55 C 0.94411 0.22716 0.34925 0.0
C56 C 0.96128 0.18017 0.36008 0.0
N57 N 0.03209 0.23825 0.33284 0.0
C58 C 0.04929 0.19235 0.34347 0.0
Co59 Co 0.19832 0.8965 0.73721 0.0
Co60 Co 0.27622 0.91818 0.68908 0.0
O61 O 0.20851 0.89791 0.70403 0.0
C62 C 0.11021 0.96463 0.71952 0.0
O63 O 0.1451 0.98549 0.70522 0.0
C64 C 0.24566 0.81285 0.66843 0.0
O65 O 0.22639 0.79754 0.6882 0.0
O66 O 0.31735 0.86761 0.70876 0.0
O67 O 0.27213 0.86576 0.74196 0.0
H68 H 0.47401 0.96032 0.68708 0.0
H69 H 0.11465 0.84634 0.70797 0.0
O70 O 0.12451 0.92818 0.73356 0.0
H71 H 0.1832 0.69922 0.75653 0.0
H72 H 0.09144 0.86645 0.80908 0.0
H73 H 0.26585 0.925 0.77718 0.0
H74 H 0.21929 0.79146 0.76038 0.0
H75 H 0.10638 0.86689 0.76751 0.0
O76 O 0.26679 0.85925 0.66599 0.0
H77 H 0.38567 0.94627 0.70545 0.0
H78 H 0.31131 0.92899 0.64063 0.0
H79 H 0.25282 0.92479 0.81886 0.0
H80 H 0.0769 0.75485 0.70377 0.0
H81 H 0.16506 0.89537 0.83507 0.0
H82 H 0.11137 0.68048 0.7281 0.0
O83 O 0.22822 0.97023 0.74021 0.0
H84 H 0.12371 0.97058 0.63723 0.0
H85 H 0.29021 0.03287 0.67487 0.0
H86 H 0.2385 0.09613 0.6509 0.0
H87 H 0.15462 0.06501 0.63183 0.0
H88 H 0.17636 0.90892 0.66159 0.0
H89 H 0.39869 0.94375 0.62156 0.0
H90 H 0.48101 0.95805 0.64482 0.0
O91 O 0.28791 0.97832 0.71154 0.0
C92 C 0.3131 0.8545 0.72969 0.0
C93 C 0.4384 0.95426 0.67675 0.0
C94 C 0.39614 0.94471 0.63998 0.0
N95 N 0.34337 0.93704 0.67414 0.0
C96 C 0.38825 0.94637 0.68705 0.0
C97 C 0.34675 0.93654 0.65088 0.0
C98 C 0.44229 0.95304 0.65305 0.0
C99 C 0.1294 0.81433 0.7188 0.0
N100 N 0.16902 0.82427 0.73443 0.0
C101 C 0.10807 0.76254 0.71626 0.0
C102 C 0.12751 0.72081 0.72989 0.0
C103 C 0.16786 0.73129 0.74583 0.0
C104 C 0.18829 0.78356 0.74786 0.0
C105 C 0.12991 0.87919 0.80223 0.0
C106 C 0.22774 0.91168 0.78411 0.0
C107 C 0.13859 0.87958 0.77871 0.0
N108 N 0.18717 0.89539 0.76994 0.0
C109 C 0.22051 0.91186 0.80772 0.0
C110 C 0.17124 0.89541 0.8168 0.0
C111 C 0.26552 0.99553 0.72978 0.0
C112 C 0.16023 0.98459 0.64541 0.0
C113 C 0.25354 0.0192 0.66679 0.0
C114 C 0.22455 0.05511 0.65314 0.0
C115 C 0.17754 0.0376 0.64243 0.0
N116 N 0.23625 0.96732 0.66968 0.0
C117 C 0.19032 0.9498 0.65915 0.0
Co118 Co 0.89597 0.80269 0.26427 0.0
Co119 Co 0.91569 0.72408 0.31234 0.0
O120 O 0.89661 0.79233 0.29752 0.0
C121 C 0.96297 0.89103 0.28238 0.0
O122 O 0.9845 0.8557 0.2963 0.0
C123 C 0.82184 0.76997 0.3393 0.0
O124 O 0.81994 0.81324 0.32651 0.0
O125 O 0.86382 0.68485 0.29265 0.0
O126 O 0.86645 0.72842 0.25913 0.0
H127 H 0.95334 0.52536 0.31262 0.0
H128 H 0.84375 0.88722 0.2925 0.0
O129 O 0.9266 0.87688 0.26828 0.0
H130 H 0.69918 0.81445 0.24367 0.0
H131 H 0.86733 0.90999 0.19241 0.0
H132 H 0.9262 0.73571 0.22432 0.0
H133 H 0.79191 0.77935 0.2407 0.0
H134 H 0.86657 0.89463 0.23396 0.0
O135 O 0.85642 0.73288 0.33565 0.0
H136 H 0.94153 0.61491 0.29507 0.0
H137 H 0.92553 0.68637 0.36053 0.0
H138 H 0.92724 0.74917 0.18268 0.0
H139 H 0.75171 0.92404 0.2958 0.0
H140 H 0.89767 0.83687 0.16646 0.0
H141 H 0.67859 0.88744 0.27134 0.0
O142 O 0.97003 0.77374 0.26173 0.0
H143 H 0.97911 0.87521 0.36345 0.0
H144 H 0.02838 0.70311 0.32702 0.0
H145 H 0.09498 0.75011 0.35098 0.0
H146 H 0.07043 0.83673 0.36953 0.0
H147 H 0.91437 0.82754 0.33907 0.0
H148 H 0.93796 0.59766 0.37881 0.0
H149 H 0.95042 0.51623 0.35479 0.0
O150 O 0.97554 0.7119 0.28968 0.0
C151 C 0.85302 0.68829 0.27148 0.0
C152 C 0.94802 0.56057 0.32328 0.0
C153 C 0.93915 0.60114 0.36042 0.0
N154 N 0.93307 0.65583 0.32675 0.0
C155 C 0.94144 0.61141 0.31344 0.0
C156 C 0.93225 0.65127 0.34998 0.0
C157 C 0.94647 0.55548 0.34693 0.0
C158 C 0.81226 0.87132 0.28169 0.0
N159 N 0.82319 0.83095 0.26654 0.0
C160 C 0.76016 0.89222 0.28368 0.0
C161 C 0.71914 0.87162 0.26998 0.0
C162 C 0.73065 0.83061 0.25448 0.0
C163 C 0.78321 0.81067 0.25297 0.0
C164 C 0.88017 0.87155 0.19927 0.0
C165 C 0.91285 0.77381 0.21739 0.0
C166 C 0.87989 0.86264 0.22278 0.0
N167 N 0.89584 0.81412 0.23155 0.0
C168 C 0.91371 0.78127 0.1938 0.0
C169 C 0.89718 0.83051 0.18471 0.0
C170 C 0.99407 0.73523 0.27187 0.0
C171 C 0.99015 0.83725 0.35563 0.0
C172 C 0.01732 0.74082 0.33494 0.0
C173 C 0.05523 0.76721 0.34855 0.0
C174 C 0.04143 0.81575 0.35897 0.0
N175 N 0.96686 0.76188 0.33183 0.0
C176 C 0.95326 0.80965 0.34192 0.0
Co177 Co 0.80185 0.10463 0.73835 0.0
Co178 Co 0.72377 0.0842 0.69014 0.0
O179 O 0.79179 0.10356 0.70508 0.0
C180 C 0.88993 0.03696 0.72053 0.0
O181 O 0.85452 0.01533 0.70667 0.0
C182 C 0.76965 0.17807 0.6632 0.0
O183 O 0.8127 0.1803 0.67611 0.0
O184 O 0.68412 0.13603 0.70972 0.0
O185 O 0.72767 0.13453 0.74326 0.0
H186 H 0.5252 0.04591 0.68946 0.0
H187 H 0.88692 0.15603 0.71012 0.0
O188 O 0.87593 0.07362 0.73452 0.0
H189 H 0.81427 0.30171 0.75839 0.0
H190 H 0.90859 0.13414 0.81028 0.0
H191 H 0.73439 0.07531 0.77827 0.0
H192 H 0.7787 0.20919 0.76155 0.0
H193 H 0.89364 0.13416 0.76871 0.0
O194 O 0.73266 0.14336 0.6668 0.0
H195 H 0.61448 0.05811 0.7072 0.0
H196 H 0.68671 0.07396 0.64188 0.0
H197 H 0.74744 0.07503 0.81994 0.0
H198 H 0.92421 0.24784 0.70664 0.0
H199 H 0.8351 0.10459 0.83621 0.0
H200 H 0.88767 0.32152 0.73081 0.0
O201 O 0.77254 0.03072 0.74107 0.0
H202 H 0.87587 0.02108 0.63949 0.0
H203 H 0.70336 0.97139 0.67548 0.0
H204 H 0.75097 0.90483 0.65171 0.0
H205 H 0.8378 0.92959 0.63339 0.0
H206 H 0.82759 0.08578 0.66367 0.0
H207 H 0.59827 0.0611 0.62342 0.0
H208 H 0.51658 0.04852 0.64727 0.0
O209 O 0.71152 0.02446 0.71283 0.0
C210 C 0.6875 0.14745 0.73083 0.0
C211 C 0.56052 0.05126 0.67887 0.0
C212 C 0.60152 0.06004 0.64182 0.0
N213 N 0.65577 0.06652 0.6756 0.0
C214 C 0.61121 0.05808 0.68883 0.0
C215 C 0.65149 0.06718 0.65237 0.0
C216 C 0.55572 0.05264 0.65521 0.0
C217 C 0.87105 0.18776 0.72082 0.0
N218 N 0.83045 0.17726 0.73591 0.0
C219 C 0.89222 0.23973 0.71871 0.0
C220 C 0.87165 0.28106 0.73226 0.0
C221 C 0.8304 0.26999 0.7477 0.0
C222 C 0.81019 0.21755 0.74932 0.0
C223 C 0.87017 0.12131 0.80341 0.0
C224 C 0.77248 0.08865 0.78522 0.0
C225 C 0.86149 0.12117 0.77988 0.0
N226 N 0.81299 0.10525 0.77108 0.0
C227 C 0.77971 0.08821 0.80883 0.0
C228 C 0.82891 0.10474 0.81794 0.0
C229 C 0.73441 0.00635 0.73081 0.0
C230 C 0.83783 0.00995 0.64721 0.0
C231 C 0.74116 0.98254 0.66766 0.0
C232 C 0.7679 0.94465 0.65415 0.0
C233 C 0.81655 0.95857 0.64385 0.0
N234 N 0.762 0.03308 0.67078 0.0
C235 C 0.80988 0.04681 0.6608 0.0
Co236 Co 0.10335 0.30072 0.98693 0.0
Co237 Co 0.0816 0.22125 0.93931 0.0
O238 O 0.1017 0.2895 0.95382 0.0
C239 C 0.03558 0.38855 0.96873 0.0
O240 O 0.01439 0.35325 0.9547 0.0
C241 C 0.18664 0.25133 0.91843 0.0
O242 O 0.20224 0.27009 0.93826 0.0
O243 O 0.13275 0.18113 0.95907 0.0
O244 O 0.13369 0.22686 0.99214 0.0
H245 H 0.0408 0.02315 0.93863 0.0
H246 H 0.15379 0.38309 0.95712 0.0
O247 O 0.07202 0.37455 0.98283 0.0
H248 H 0.30081 0.31543 0.00596 0.0
H249 H 0.13405 0.41007 0.05808 0.0
H250 H 0.07498 0.23465 0.02737 0.0
H251 H 0.20838 0.28005 0.01015 0.0
H252 H 0.13336 0.39363 0.01661 0.0
O253 O 0.14011 0.23048 0.91602 0.0
H254 H 0.05434 0.11224 0.95641 0.0
H255 H 0.07045 0.18444 0.89111 0.0
H256 H 0.07543 0.24918 0.06895 0.0
H257 H 0.24549 0.42012 0.95256 0.0
H258 H 0.10511 0.33746 0.08456 0.0
H259 H 0.31981 0.38608 0.97703 0.0
O260 O 0.02955 0.2712 0.99015 0.0
H261 H 0.02735 0.37162 0.88669 0.0
H262 H 0.96683 0.20598 0.9255 0.0
H263 H 0.90285 0.25639 0.90137 0.0
H264 H 0.93308 0.33983 0.88172 0.0
H265 H 0.08973 0.32028 0.91122 0.0
H266 H 0.05624 0.09626 0.87262 0.0
H267 H 0.04282 0.01466 0.89643 0.0
O268 O 0.02191 0.20991 0.96205 0.0
C269 C 0.14534 0.18576 0.98003 0.0
C270 C 0.04652 0.05844 0.92806 0.0
C271 C 0.05541 0.09946 0.89102 0.0
N272 N 0.06297 0.15349 0.92482 0.0
C273 C 0.0541 0.10901 0.93804 0.0
C274 C 0.06328 0.1493 0.90158 0.0
C275 C 0.04759 0.05371 0.90439 0.0
C276 C 0.18578 0.36856 0.96802 0.0
N277 N 0.17571 0.32957 0.98392 0.0
C278 C 0.23768 0.38946 0.96527 0.0
C279 C 0.27938 0.37027 0.97898 0.0
C280 C 0.26876 0.33058 0.99519 0.0
C281 C 0.21638 0.31054 0.99743 0.0
C282 C 0.12118 0.37138 0.05149 0.0
C283 C 0.0884 0.27298 0.03404 0.0
C284 C 0.12065 0.36186 0.02802 0.0
N285 N 0.10467 0.31301 0.01959 0.0
C286 C 0.08837 0.28106 0.0576 0.0
C287 C 0.10495 0.33062 0.06634 0.0
C288 C 0.00457 0.23311 0.9801 0.0
C289 C 0.01371 0.33529 0.89514 0.0
C290 C 0.98009 0.24248 0.91718 0.0
C291 C 0.94379 0.27072 0.90344 0.0
C292 C 0.9608 0.31749 0.89239 0.0
N293 N 0.03187 0.26026 0.91983 0.0
C294 C 0.04892 0.30594 0.90897 0.0
Co295 Co 0.30191 0.8969 0.01464 0.0
Co296 Co 0.22176 0.91557 0.06224 0.0
O297 O 0.29074 0.89732 0.04786 0.0
C298 C 0.39048 0.96298 0.03326 0.0
O299 O 0.35517 0.98459 0.04717 0.0
C300 C 0.26851 0.82308 0.08977 0.0
O301 O 0.31223 0.82186 0.07724 0.0
O302 O 0.18415 0.86265 0.04252 0.0
O303 O 0.22755 0.86795 0.00905 0.0
H304 H 0.02243 0.94971 0.06114 0.0
H305 H 0.38533 0.8437 0.04312 0.0
O306 O 0.37621 0.92693 0.01903 0.0
H307 H 0.31282 0.70032 0.99361 0.0
H308 H 0.41087 0.86872 0.9432 0.0
H309 H 0.2361 0.92807 0.97448 0.0
H310 H 0.27851 0.79335 0.99068 0.0
H311 H 0.39441 0.86732 0.98467 0.0
O312 O 0.23085 0.85685 0.0858 0.0
H313 H 0.11284 0.9394 0.04421 0.0
H314 H 0.18211 0.9254 0.11017 0.0
H315 H 0.25069 0.92976 0.9329 0.0
H316 H 0.42132 0.75132 0.0464 0.0
H317 H 0.33864 0.89996 0.91701 0.0
H318 H 0.38485 0.6788 0.02159 0.0
O319 O 0.27349 0.97112 0.01222 0.0
H320 H 0.36982 0.98261 0.11414 0.0
H321 H 0.1982 0.02805 0.07645 0.0
H322 H 0.24299 0.09586 0.10055 0.0
H323 H 0.32935 0.07324 0.11975 0.0
H324 H 0.32434 0.91665 0.0896 0.0
H325 H 0.09248 0.93629 0.12782 0.0
H326 H 0.01174 0.94696 0.10324 0.0
O327 O 0.20934 0.97489 0.03929 0.0
C328 C 0.18764 0.85319 0.02125 0.0
C329 C 0.05733 0.94512 0.07204 0.0
C330 C 0.09664 0.93736 0.10946 0.0
N331 N 0.15272 0.932 0.07618 0.0
C332 C 0.10865 0.93941 0.06255 0.0
C333 C 0.14729 0.93134 0.09937 0.0
C334 C 0.05136 0.94366 0.09566 0.0
C335 C 0.36947 0.81246 0.03218 0.0
N336 N 0.3296 0.82389 0.01686 0.0
C337 C 0.38991 0.76017 0.03415 0.0
C338 C 0.36938 0.71949 0.02025 0.0
C339 C 0.32891 0.73152 0.00457 0.0
C340 C 0.30941 0.78425 0.00309 0.0
C341 C 0.37233 0.88167 0.94991 0.0
C342 C 0.27431 0.91462 0.96769 0.0
C343 C 0.3628 0.88103 0.97338 0.0
N344 N 0.31415 0.89714 0.98197 0.0
C345 C 0.28241 0.91585 0.94413 0.0
C346 C 0.33178 0.89919 0.93523 0.0
C347 C 0.23375 0.99426 0.02189 0.0
C348 C 0.33196 0.99281 0.10604 0.0
C349 C 0.23583 0.01784 0.08464 0.0
C350 C 0.26095 0.05643 0.09834 0.0
C351 C 0.30934 0.0437 0.10912 0.0
N352 N 0.25796 0.96776 0.08179 0.0
C353 C 0.3056 0.95522 0.09223 0.0
Co354 Co 0.89786 0.69782 0.98708 0.0
Co355 Co 0.91641 0.77744 0.9393 0.0
O356 O 0.898 0.70867 0.95386 0.0
C357 C 0.96391 0.60907 0.96861 0.0
O358 O 0.98526 0.64411 0.95451 0.0
C359 C 0.82311 0.73097 0.91218 0.0
O360 O 0.82173 0.68745 0.92483 0.0
O361 O 0.86401 0.81566 0.95909 0.0
O362 O 0.86882 0.77213 0.99254 0.0
H363 H 0.95144 0.97664 0.9397 0.0
H364 H 0.84458 0.61399 0.95885 0.0
O365 O 0.92796 0.62353 0.98284 0.0
H366 H 0.70145 0.6868 0.00842 0.0
H367 H 0.87012 0.58988 0.05884 0.0
H368 H 0.92963 0.76406 0.02702 0.0
H369 H 0.79444 0.72134 0.01113 0.0
H370 H 0.8684 0.60575 0.01733 0.0
O371 O 0.85727 0.76839 0.91593 0.0
H372 H 0.94092 0.88659 0.95695 0.0
H373 H 0.92597 0.81616 0.89125 0.0
H374 H 0.93166 0.75007 0.06863 0.0
H375 H 0.75225 0.57775 0.95579 0.0
H376 H 0.90177 0.66242 0.0848 0.0
H377 H 0.67986 0.61438 0.98063 0.0
O378 O 0.97209 0.7263 0.98934 0.0
H379 H 0.98159 0.62844 0.88746 0.0
H380 H 0.029 0.79988 0.92489 0.0
H381 H 0.09617 0.75429 0.90073 0.0
H382 H 0.07256 0.66802 0.88167 0.0
H383 H 0.91628 0.6747 0.91206 0.0
H384 H 0.93715 0.90539 0.87327 0.0
H385 H 0.94841 0.98654 0.89756 0.0
O386 O 0.97612 0.78988 0.96205 0.0
C387 C 0.8543 0.81213 0.98034 0.0
C388 C 0.94663 0.94156 0.92892 0.0
C389 C 0.93837 0.90158 0.89165 0.0
N390 N 0.93303 0.84616 0.92513 0.0
C391 C 0.94078 0.89044 0.93859 0.0
C392 C 0.93219 0.85116 0.90192 0.0
C393 C 0.94499 0.94708 0.90529 0.0
C394 C 0.81339 0.62991 0.96981 0.0
N395 N 0.82488 0.66998 0.98503 0.0
C396 C 0.76114 0.60933 0.96796 0.0
C397 C 0.72053 0.62995 0.98188 0.0
C398 C 0.7326 0.67064 0.99745 0.0
C399 C 0.7853 0.69027 0.99881 0.0
C400 C 0.8831 0.6283 0.05201 0.0
C401 C 0.91613 0.72599 0.03393 0.0
C402 C 0.88227 0.6375 0.02852 0.0
N403 N 0.89839 0.686 0.01978 0.0
C404 C 0.91756 0.71822 0.05751 0.0
C405 C 0.90085 0.66902 0.06656 0.0
C406 C 0.99545 0.76568 0.97951 0.0
C407 C 0.99223 0.66625 0.89551 0.0
C408 C 0.01835 0.7623 0.91676 0.0
C409 C 0.05658 0.73672 0.90303 0.0
C410 C 0.0433 0.68837 0.89232 0.0
N411 N 0.96808 0.74065 0.9197 0.0
C412 C 0.955 0.69306 0.90934 0.0
Co413 Co 0.69907 0.10221 0.01589 0.0
Co414 Co 0.77874 0.08086 0.06348 0.0
O415 O 0.71037 0.10074 0.049 0.0
C416 C 0.6111 0.03446 0.03411 0.0
O417 O 0.64611 0.01362 0.04836 0.0
C418 C 0.74877 0.18613 0.08414 0.0
O419 O 0.73007 0.20147 0.06426 0.0
O420 O 0.8188 0.13188 0.04363 0.0
O421 O 0.77278 0.13281 0.01065 0.0
H422 H 0.97684 0.03988 0.06415 0.0
H423 H 0.61667 0.15254 0.0457 0.0
O424 O 0.62531 0.07071 0.01997 0.0
H425 H 0.68369 0.29954 0.99668 0.0
H426 H 0.58981 0.13243 0.94468 0.0
H427 H 0.76516 0.07351 0.97551 0.0
H428 H 0.71935 0.2072 0.99255 0.0
H429 H 0.60619 0.13203 0.98615 0.0
O430 O 0.76953 0.1396 0.08667 0.0
H431 H 0.88776 0.05351 0.04638 0.0
H432 H 0.81567 0.07019 0.11168 0.0
H433 H 0.75069 0.07369 0.93392 0.0
H434 H 0.5794 0.24414 0.05021 0.0
H435 H 0.66245 0.10329 0.91825 0.0
H436 H 0.61311 0.31845 0.02564 0.0
O437 O 0.72876 0.02845 0.01275 0.0
H438 H 0.62878 0.02693 0.11638 0.0
H439 H 0.79406 0.96614 0.07737 0.0
H440 H 0.74385 0.90233 0.10165 0.0
H441 H 0.6606 0.93269 0.12141 0.0
H442 H 0.67992 0.08915 0.09169 0.0
H443 H 0.90385 0.05593 0.13016 0.0
H444 H 0.98538 0.04211 0.10635 0.0
O445 O 0.79009 0.02099 0.04083 0.0
C446 C 0.81396 0.14457 0.02269 0.0
C447 C 0.94158 0.04577 0.07472 0.0
C448 C 0.90062 0.05501 0.11177 0.0
N449 N 0.84656 0.06242 0.07797 0.0
C450 C 0.89101 0.0534 0.06475 0.0
C451 C 0.85079 0.0629 0.1012 0.0
C452 C 0.94634 0.04698 0.09839 0.0
C453 C 0.63107 0.18452 0.03477 0.0
N454 N 0.67002 0.1745 0.01884 0.0
C455 C 0.61002 0.23638 0.03748 0.0
C456 C 0.62903 0.27807 0.02372 0.0
C457 C 0.66869 0.2675 0.00749 0.0
C458 C 0.68887 0.21517 0.00528 0.0
C459 C 0.62849 0.11961 0.95129 0.0
C460 C 0.72684 0.08692 0.96881 0.0
C461 C 0.63798 0.11924 0.97476 0.0
N462 N 0.68681 0.10333 0.98323 0.0
C463 C 0.7188 0.08672 0.94525 0.0
C464 C 0.66927 0.10327 0.93647 0.0
C465 C 0.76685 0.00352 0.02282 0.0
C466 C 0.66503 0.01324 0.10789 0.0
C467 C 0.75765 0.97947 0.08574 0.0
C468 C 0.72951 0.94326 0.09956 0.0
C469 C 0.68285 0.96034 0.11067 0.0
N470 N 0.73986 0.03124 0.08306 0.0
C471 C 0.69427 0.04836 0.09397 0.0
Co472 Co 0.60412 0.69902 0.7643 0.0
Co473 Co 0.58163 0.77692 0.81236 0.0
O474 O 0.60224 0.70933 0.79746 0.0
C475 C 0.53559 0.61123 0.78196 0.0
O476 O 0.5145 0.64642 0.79607 0.0
C477 C 0.6873 0.74751 0.83286 0.0
O478 O 0.7028 0.7291 0.81296 0.0
O479 O 0.63207 0.81823 0.7927 0.0
O480 O 0.63501 0.77281 0.75957 0.0
H481 H 0.53899 0.97457 0.81428 0.0
H482 H 0.65373 0.61564 0.79385 0.0
O483 O 0.57227 0.62525 0.76798 0.0
H484 H 0.8017 0.68363 0.74559 0.0
H485 H 0.63513 0.59159 0.69265 0.0
H486 H 0.57659 0.7664 0.72415 0.0
H487 H 0.70953 0.71965 0.74137 0.0
H488 H 0.63395 0.6068 0.73421 0.0
O489 O 0.64056 0.76774 0.83546 0.0
H490 H 0.55318 0.88622 0.79595 0.0
H491 H 0.57053 0.812 0.86079 0.0
H492 H 0.57755 0.75311 0.68249 0.0
H493 H 0.74516 0.578 0.79843 0.0
H494 H 0.60697 0.66514 0.66648 0.0
H495 H 0.81996 0.61219 0.77425 0.0
O496 O 0.53049 0.72906 0.76103 0.0
H497 H 0.52972 0.62417 0.86418 0.0
H498 H 0.46686 0.79043 0.82652 0.0
H499 H 0.40372 0.7384 0.85044 0.0
H500 H 0.43513 0.65464 0.86951 0.0
H501 H 0.59125 0.67714 0.83987 0.0
H502 H 0.55556 0.89939 0.87983 0.0
H503 H 0.54119 0.98164 0.85654 0.0
O504 O 0.52158 0.78829 0.78984 0.0
C505 C 0.64572 0.81391 0.77185 0.0
C506 C 0.54506 0.93898 0.82463 0.0
C507 C 0.55462 0.8968 0.86142 0.0
N508 N 0.56245 0.844 0.82728 0.0
C509 C 0.55304 0.88883 0.81434 0.0
C510 C 0.5629 0.84742 0.85054 0.0
C511 C 0.54624 0.94292 0.84833 0.0
C512 C 0.68593 0.63026 0.78308 0.0
N513 N 0.67627 0.66966 0.76732 0.0
C514 C 0.73768 0.609 0.78584 0.0
C515 C 0.77965 0.62828 0.77229 0.0
C516 C 0.76945 0.66841 0.75623 0.0
C517 C 0.71721 0.68879 0.75398 0.0
C518 C 0.62238 0.63015 0.69941 0.0
C519 C 0.5899 0.7282 0.71731 0.0
C520 C 0.62157 0.63898 0.72293 0.0
N521 N 0.60576 0.68766 0.73158 0.0
C522 C 0.59015 0.72082 0.69371 0.0
C523 C 0.60659 0.67144 0.68474 0.0
C524 C 0.50486 0.76612 0.77147 0.0
C525 C 0.51558 0.66064 0.85599 0.0
C526 C 0.48064 0.75381 0.8346 0.0
C527 C 0.44481 0.72465 0.84822 0.0
C528 C 0.46248 0.6777 0.85894 0.0
N529 N 0.53261 0.73675 0.83175 0.0
C530 C 0.5503 0.69091 0.84228 0.0
Co531 Co 0.69784 0.39727 0.23811 0.0
Co532 Co 0.77633 0.41674 0.18997 0.0
O533 O 0.70812 0.39765 0.20486 0.0
C534 C 0.60928 0.46409 0.22002 0.0
O535 O 0.64435 0.48535 0.2059 0.0
C536 C 0.73084 0.32219 0.16332 0.0
O537 O 0.68765 0.3202 0.17616 0.0
O538 O 0.81578 0.3652 0.20974 0.0
O539 O 0.77207 0.36773 0.24322 0.0
H540 H 0.97503 0.45442 0.18939 0.0
H541 H 0.61318 0.34488 0.21002 0.0
O542 O 0.62364 0.42789 0.23416 0.0
H543 H 0.68605 0.20062 0.25897 0.0
H544 H 0.591 0.36899 0.31013 0.0
H545 H 0.76496 0.42802 0.27793 0.0
H546 H 0.72122 0.29336 0.2618 0.0
H547 H 0.60611 0.36794 0.26857 0.0
O548 O 0.76766 0.35714 0.1668 0.0
H549 H 0.88559 0.44285 0.20708 0.0
H550 H 0.81366 0.42635 0.14174 0.0
H551 H 0.75175 0.42935 0.31959 0.0
H552 H 0.57627 0.25284 0.20687 0.0
H553 H 0.66422 0.39969 0.33595 0.0
H554 H 0.61293 0.17987 0.2314 0.0
O555 O 0.7268 0.47135 0.24052 0.0
H556 H 0.62502 0.47883 0.13869 0.0
H557 H 0.79665 0.52949 0.17519 0.0
H558 H 0.7493 0.59562 0.15113 0.0
H559 H 0.66292 0.57038 0.13254 0.0
H560 H 0.67304 0.41455 0.16318 0.0
H561 H 0.90224 0.43866 0.12333 0.0
H562 H 0.98385 0.45124 0.14721 0.0
O563 O 0.78847 0.47687 0.21251 0.0
C564 C 0.81227 0.35437 0.2309 0.0
C565 C 0.93974 0.44909 0.17878 0.0
C566 C 0.89889 0.43998 0.14171 0.0
N567 N 0.84445 0.43415 0.17547 0.0
C568 C 0.88897 0.44262 0.18871 0.0
C569 C 0.84885 0.43317 0.15224 0.0
C570 C 0.94466 0.44737 0.15513 0.0
C571 C 0.62909 0.31346 0.22086 0.0
N572 N 0.66953 0.32448 0.23596 0.0
C573 C 0.60815 0.26136 0.21895 0.0
C574 C 0.62878 0.22043 0.23269 0.0
C575 C 0.66987 0.23202 0.24814 0.0
C576 C 0.68985 0.28458 0.24956 0.0
C577 C 0.62937 0.38186 0.30321 0.0
C578 C 0.72693 0.41463 0.28493 0.0
C579 C 0.63814 0.38141 0.27969 0.0
N580 N 0.68658 0.39739 0.27084 0.0
C581 C 0.71961 0.41566 0.30853 0.0
C582 C 0.67047 0.39908 0.31769 0.0
C583 C 0.76519 0.49546 0.23032 0.0
C584 C 0.66287 0.49018 0.14653 0.0
C585 C 0.75905 0.51812 0.16726 0.0
C586 C 0.73246 0.55577 0.15358 0.0
C587 C 0.68405 0.54158 0.14315 0.0
N588 N 0.7383 0.46755 0.1704 0.0
C589 C 0.69066 0.45356 0.1603 0.0
Co590 Co 0.39599 0.3025 0.76392 0.0
Co591 Co 0.41577 0.22418 0.8121 0.0
O592 O 0.39657 0.29232 0.79719 0.0
C593 C 0.46312 0.39094 0.78189 0.0
O594 O 0.48445 0.35583 0.79597 0.0
C595 C 0.32136 0.26965 0.83885 0.0
O596 O 0.31928 0.31287 0.82603 0.0
O597 O 0.36421 0.18461 0.79238 0.0
O598 O 0.36629 0.22831 0.75889 0.0
H599 H 0.45357 0.02554 0.81269 0.0
H600 H 0.34396 0.38726 0.79208 0.0
O601 O 0.42677 0.37666 0.76781 0.0
H602 H 0.19921 0.31458 0.74332 0.0
H603 H 0.36733 0.40923 0.69191 0.0
H604 H 0.42631 0.23524 0.72408 0.0
H605 H 0.29186 0.27925 0.74038 0.0
H606 H 0.36659 0.39422 0.73348 0.0
O607 O 0.35626 0.23282 0.83531 0.0
H608 H 0.44195 0.11495 0.795 0.0
H609 H 0.42552 0.1869 0.86034 0.0
H610 H 0.42732 0.24836 0.68242 0.0
H611 H 0.252 0.42432 0.79534 0.0
H612 H 0.39768 0.33591 0.66607 0.0
H613 H 0.17879 0.38776 0.77092 0.0
O614 O 0.47003 0.27341 0.76141 0.0
H615 H 0.47798 0.37586 0.86317 0.0
H616 H 0.52848 0.20389 0.82692 0.0
H617 H 0.59466 0.25139 0.85092 0.0
H618 H 0.56949 0.33794 0.86938 0.0
H619 H 0.41366 0.32768 0.83876 0.0
H620 H 0.43788 0.09834 0.87876 0.0
H621 H 0.45044 0.01672 0.85487 0.0
O622 O 0.47585 0.21209 0.78955 0.0
C623 C 0.35311 0.1881 0.77124 0.0
C624 C 0.44826 0.06082 0.8233 0.0
C625 C 0.43919 0.10168 0.86037 0.0
N626 N 0.43328 0.15611 0.82662 0.0
C627 C 0.44176 0.11159 0.81337 0.0
C628 C 0.43234 0.15172 0.84985 0.0
C629 C 0.44657 0.05591 0.84695 0.0
C630 C 0.31243 0.3714 0.78128 0.0
N631 N 0.32327 0.33093 0.76617 0.0
C632 C 0.26038 0.39242 0.78326 0.0
C633 C 0.21931 0.37184 0.76957 0.0
C634 C 0.23072 0.33072 0.75411 0.0
C635 C 0.28323 0.31066 0.75262 0.0
C636 C 0.38019 0.37086 0.69882 0.0
C637 C 0.41293 0.27328 0.71709 0.0
C638 C 0.37992 0.36214 0.72235 0.0
N639 N 0.39588 0.31369 0.73119 0.0
C640 C 0.41378 0.28055 0.69349 0.0
C641 C 0.39722 0.3297 0.68433 0.0
C642 C 0.49427 0.2352 0.77167 0.0
C643 C 0.48929 0.33793 0.85539 0.0
C644 C 0.51715 0.24157 0.8348 0.0
C645 C 0.55483 0.26824 0.84844 0.0
C646 C 0.54068 0.31674 0.85881 0.0
N647 N 0.4666 0.26232 0.83163 0.0
C648 C 0.45265 0.31005 0.84167 0.0
Co649 Co 0.30125 0.60485 0.23795 0.0
Co650 Co 0.22266 0.58265 0.19007 0.0
O651 O 0.29053 0.60308 0.2048 0.0
C652 C 0.38898 0.53654 0.22006 0.0
O653 O 0.35373 0.51546 0.20597 0.0
C654 C 0.25215 0.68815 0.16939 0.0
O655 O 0.27087 0.70372 0.18923 0.0
O656 O 0.18185 0.63332 0.20979 0.0
O657 O 0.22746 0.63561 0.24289 0.0
H658 H 0.02482 0.54085 0.18876 0.0
H659 H 0.3842 0.65472 0.20825 0.0
O660 O 0.37501 0.57314 0.23409 0.0
H661 H 0.31665 0.80237 0.25678 0.0
H662 H 0.40959 0.63563 0.30937 0.0
H663 H 0.23441 0.57709 0.27823 0.0
H664 H 0.28077 0.71014 0.261 0.0
H665 H 0.39382 0.63467 0.26785 0.0
O666 O 0.23173 0.64146 0.16691 0.0
H667 H 0.11354 0.55464 0.20682 0.0
H668 H 0.18674 0.57156 0.14174 0.0
H669 H 0.24826 0.57782 0.31986 0.0
H670 H 0.4217 0.74621 0.20366 0.0
H671 H 0.33642 0.60724 0.33568 0.0
H672 H 0.38773 0.82085 0.22798 0.0
O673 O 0.27134 0.53118 0.24122 0.0
H674 H 0.37442 0.53002 0.13787 0.0
H675 H 0.20845 0.46792 0.17599 0.0
H676 H 0.25983 0.40453 0.15194 0.0
H677 H 0.34344 0.43555 0.13264 0.0
H678 H 0.3221 0.5918 0.16231 0.0
H679 H 0.09895 0.55702 0.12298 0.0
H680 H 0.01702 0.54309 0.14653 0.0
O681 O 0.21139 0.52269 0.21266 0.0
C682 C 0.18634 0.64666 0.23068 0.0
C683 C 0.06026 0.54675 0.1783 0.0
C684 C 0.10185 0.55607 0.14138 0.0
N685 N 0.15527 0.56367 0.17536 0.0
C686 C 0.11062 0.55449 0.18843 0.0
C687 C 0.15147 0.56412 0.15211 0.0
C688 C 0.05591 0.54794 0.15462 0.0
C689 C 0.36968 0.68685 0.21908 0.0
N690 N 0.33047 0.67706 0.23491 0.0
C691 C 0.39086 0.73863 0.21632 0.0
C692 C 0.3717 0.78051 0.22994 0.0
C693 C 0.33177 0.77019 0.24608 0.0
C694 C 0.31146 0.71791 0.24834 0.0
C695 C 0.37095 0.62288 0.30268 0.0
C696 C 0.27269 0.59039 0.285 0.0
C697 C 0.3618 0.62219 0.27919 0.0
N698 N 0.31302 0.60637 0.27064 0.0
C699 C 0.28038 0.59052 0.30858 0.0
C700 C 0.32987 0.60696 0.31744 0.0
C701 C 0.23393 0.50575 0.23092 0.0
C702 C 0.33802 0.51604 0.14616 0.0
C703 C 0.24501 0.48153 0.16782 0.0
C704 C 0.27381 0.44556 0.15412 0.0
C705 C 0.32067 0.46302 0.14327 0.0
N706 N 0.26235 0.53342 0.17061 0.0
C707 C 0.30812 0.5509 0.15995 0.0
Co708 Co 0.60356 0.80011 0.48767 0.0
Co709 Co 0.5813 0.72283 0.43939 0.0
O710 O 0.60183 0.79027 0.45448 0.0
C711 C 0.53494 0.88812 0.47028 0.0
O712 O 0.514 0.85323 0.456 0.0
C713 C 0.68684 0.75298 0.41885 0.0
O714 O 0.70226 0.77177 0.4387 0.0
O715 O 0.6317 0.68123 0.45898 0.0
O716 O 0.63454 0.72634 0.49219 0.0
H717 H 0.53848 0.52523 0.43691 0.0
H718 H 0.65316 0.88413 0.45843 0.0
O719 O 0.57164 0.87388 0.48421 0.0
H720 H 0.80105 0.81551 0.50655 0.0
H721 H 0.63434 0.90629 0.55967 0.0
H722 H 0.57572 0.7321 0.52757 0.0
H723 H 0.70893 0.77921 0.51058 0.0
H724 H 0.63332 0.89181 0.51806 0.0
O725 O 0.64027 0.73231 0.41633 0.0
H726 H 0.55284 0.61325 0.4555 0.0
H727 H 0.57025 0.6885 0.39087 0.0
H728 H 0.57651 0.74465 0.56928 0.0
H729 H 0.74453 0.92207 0.45405 0.0
H730 H 0.60598 0.8323 0.58558 0.0
H731 H 0.81928 0.88757 0.47816 0.0
O732 O 0.52994 0.76996 0.49079 0.0
H733 H 0.52952 0.87631 0.38794 0.0
H734 H 0.46653 0.70955 0.42518 0.0
H735 H 0.40345 0.76192 0.40137 0.0
H736 H 0.43492 0.84593 0.38252 0.0
H737 H 0.59098 0.823 0.41214 0.0
H738 H 0.55514 0.60146 0.37158 0.0
H739 H 0.5406 0.51886 0.39463 0.0
O740 O 0.52116 0.71111 0.46185 0.0
C741 C 0.64533 0.68537 0.47985 0.0
C742 C 0.54461 0.56097 0.42666 0.0
C743 C 0.55422 0.60374 0.39 0.0
N744 N 0.56215 0.65597 0.4243 0.0
C745 C 0.55269 0.61094 0.4371 0.0
C746 C 0.56259 0.65293 0.40103 0.0
C747 C 0.54575 0.55742 0.40296 0.0
C748 C 0.68534 0.86937 0.46917 0.0
N749 N 0.67568 0.82963 0.48478 0.0
C750 C 0.73705 0.8908 0.46653 0.0
C751 C 0.779 0.87135 0.48003 0.0
C752 C 0.76881 0.83087 0.49594 0.0
C753 C 0.71661 0.81032 0.49808 0.0
C754 C 0.62158 0.86786 0.55277 0.0
C755 C 0.58905 0.77016 0.53455 0.0
C756 C 0.62086 0.85944 0.52923 0.0
N757 N 0.60505 0.81092 0.52041 0.0
C758 C 0.58921 0.77712 0.55817 0.0
C759 C 0.60568 0.82633 0.5673 0.0
C760 C 0.50433 0.73305 0.48025 0.0
C761 C 0.51535 0.83973 0.39604 0.0
C762 C 0.48035 0.74627 0.41719 0.0
C763 C 0.44455 0.77563 0.40364 0.0
C764 C 0.46225 0.82271 0.39304 0.0
N765 N 0.53231 0.76327 0.42009 0.0
C766 C 0.55003 0.80927 0.40968 0.0
Co767 Co 0.80082 0.39396 0.51424 0.0
Co768 Co 0.7232 0.41684 0.56237 0.0
O769 O 0.79072 0.39615 0.54742 0.0
C770 C 0.88837 0.46303 0.53167 0.0
O771 O 0.85311 0.48419 0.54573 0.0
C772 C 0.75333 0.31165 0.58322 0.0
O773 O 0.77252 0.29602 0.56347 0.0
O774 O 0.68182 0.36621 0.54283 0.0
O775 O 0.7271 0.36276 0.50967 0.0
H776 H 0.5256 0.45963 0.56432 0.0
H777 H 0.88472 0.345 0.54373 0.0
O778 O 0.87449 0.42611 0.51778 0.0
H779 H 0.81681 0.19623 0.4959 0.0
H780 H 0.90792 0.36247 0.44254 0.0
H781 H 0.7331 0.42079 0.47411 0.0
H782 H 0.78033 0.28819 0.49159 0.0
H783 H 0.89296 0.36411 0.48411 0.0
O784 O 0.73245 0.35817 0.58557 0.0
H785 H 0.61388 0.44516 0.54598 0.0
H786 H 0.68824 0.42836 0.61081 0.0
H787 H 0.74614 0.41936 0.43244 0.0
H788 H 0.92284 0.25379 0.5484 0.0
H789 H 0.83411 0.39005 0.4164 0.0
H790 H 0.88869 0.1786 0.52444 0.0
O791 O 0.77051 0.46746 0.51084 0.0
H792 H 0.87636 0.46929 0.61387 0.0
H793 H 0.70959 0.53164 0.57647 0.0
H794 H 0.76174 0.595 0.60024 0.0
H795 H 0.84576 0.56385 0.61917 0.0
H796 H 0.82326 0.40755 0.58971 0.0
H797 H 0.60091 0.44356 0.62987 0.0
H798 H 0.51862 0.45781 0.60659 0.0
O799 O 0.71172 0.47671 0.53979 0.0
C800 C 0.68607 0.35221 0.52201 0.0
C801 C 0.5612 0.45361 0.57467 0.0
C802 C 0.60345 0.44434 0.61145 0.0
N803 N 0.65617 0.43615 0.5773 0.0
C804 C 0.61131 0.44547 0.56438 0.0
C805 C 0.65281 0.43591 0.60056 0.0
C806 C 0.55731 0.45266 0.59837 0.0
C807 C 0.87011 0.31263 0.53306 0.0
N808 N 0.83046 0.32195 0.51737 0.0
C809 C 0.89165 0.261 0.53586 0.0
C810 C 0.87239 0.21881 0.52244 0.0
C811 C 0.83201 0.22866 0.50645 0.0
C812 C 0.81136 0.28078 0.50414 0.0
C813 C 0.86936 0.37517 0.44932 0.0
C814 C 0.77131 0.40754 0.46726 0.0
C815 C 0.86067 0.37624 0.47284 0.0
N816 N 0.81199 0.39198 0.48152 0.0
C817 C 0.77854 0.40701 0.44365 0.0
C818 C 0.82792 0.39063 0.43466 0.0
C819 C 0.73364 0.49322 0.52133 0.0
C820 C 0.83978 0.48333 0.60573 0.0
C821 C 0.74632 0.51798 0.58449 0.0
C822 C 0.77555 0.55393 0.59802 0.0
C823 C 0.82264 0.5364 0.60867 0.0
N824 N 0.76345 0.46604 0.58165 0.0
C825 C 0.80944 0.44849 0.59211 0.0
Co826 Co 0.39461 0.19639 0.48917 0.0
Co827 Co 0.41512 0.27403 0.44081 0.0
O828 O 0.39547 0.20625 0.45588 0.0
C829 C 0.46225 0.10828 0.47137 0.0
O830 O 0.48375 0.14367 0.45746 0.0
C831 C 0.32047 0.22884 0.41414 0.0
O832 O 0.31803 0.18582 0.42706 0.0
O833 O 0.36386 0.31419 0.46047 0.0
O834 O 0.36469 0.27059 0.49401 0.0
H835 H 0.45466 0.47233 0.43979 0.0
H836 H 0.34309 0.11123 0.46104 0.0
O837 O 0.42565 0.12229 0.48539 0.0
H838 H 0.19767 0.18394 0.50943 0.0
H839 H 0.36558 0.09004 0.56125 0.0
H840 H 0.42406 0.26411 0.52899 0.0
H841 H 0.29019 0.21958 0.51246 0.0
H842 H 0.36531 0.10475 0.51966 0.0
O843 O 0.35559 0.26549 0.41763 0.0
H844 H 0.44211 0.38326 0.45767 0.0
H845 H 0.42512 0.31065 0.39248 0.0
H846 H 0.42459 0.2513 0.57067 0.0
H847 H 0.25127 0.07386 0.45769 0.0
H848 H 0.39521 0.16371 0.58706 0.0
H849 H 0.17773 0.11043 0.48193 0.0
O850 O 0.46855 0.22571 0.49182 0.0
H851 H 0.47635 0.12106 0.39022 0.0
H852 H 0.52792 0.29343 0.42587 0.0
H853 H 0.59379 0.24507 0.40202 0.0
H854 H 0.56809 0.15831 0.38387 0.0
H855 H 0.41235 0.17009 0.41447 0.0
H856 H 0.43837 0.39887 0.37388 0.0
H857 H 0.4517 0.48065 0.39759 0.0
O858 O 0.47523 0.28601 0.46332 0.0
C859 C 0.35215 0.31083 0.48155 0.0
C860 C 0.44901 0.43697 0.42926 0.0
C861 C 0.43961 0.39575 0.39227 0.0
N862 N 0.43312 0.3418 0.42614 0.0
C863 C 0.44198 0.3864 0.43929 0.0
C864 C 0.43225 0.3459 0.4029 0.0
C865 C 0.44743 0.4416 0.40559 0.0
C866 C 0.31141 0.1271 0.47176 0.0
N867 N 0.32199 0.16775 0.48682 0.0
C868 C 0.25944 0.1059 0.46973 0.0
C869 C 0.21819 0.12648 0.48332 0.0
C870 C 0.22933 0.16779 0.49872 0.0
C871 C 0.28177 0.18803 0.50026 0.0
C872 C 0.37833 0.12843 0.55432 0.0
C873 C 0.4108 0.22606 0.53599 0.0
C874 C 0.37833 0.13698 0.53078 0.0
N875 N 0.39416 0.18544 0.52191 0.0
C876 C 0.41137 0.21896 0.55961 0.0
C877 C 0.39495 0.16979 0.56879 0.0
C878 C 0.4932 0.26342 0.48139 0.0
C879 C 0.4879 0.15908 0.39787 0.0
C880 C 0.51636 0.25567 0.41812 0.0
C881 C 0.55386 0.22851 0.40456 0.0
C882 C 0.53941 0.17989 0.39437 0.0
N883 N 0.46568 0.23529 0.42137 0.0
C884 C 0.45143 0.18744 0.4115 0.0
Co885 Co 0.19718 0.60279 0.51396 0.0
Co886 Co 0.27452 0.58301 0.56244 0.0
O887 O 0.20678 0.60238 0.54725 0.0
C888 C 0.1086 0.53561 0.53172 0.0
O889 O 0.1436 0.51433 0.54585 0.0
C890 C 0.2289 0.67784 0.58887 0.0
O891 O 0.18601 0.68007 0.57586 0.0
O892 O 0.31478 0.63419 0.54275 0.0
O893 O 0.27143 0.63252 0.50917 0.0
H894 H 0.47292 0.54389 0.56394 0.0
H895 H 0.11185 0.65488 0.5418 0.0
O896 O 0.12299 0.57196 0.51765 0.0
H897 H 0.18531 0.79945 0.49315 0.0
H898 H 0.09177 0.63104 0.44158 0.0
H899 H 0.2652 0.57235 0.47437 0.0
H900 H 0.2208 0.70682 0.49042 0.0
H901 H 0.106 0.63196 0.4832 0.0
O902 O 0.26564 0.64275 0.58552 0.0
H903 H 0.38405 0.55615 0.54583 0.0
H904 H 0.31059 0.57346 0.61083 0.0
H905 H 0.25286 0.57116 0.43266 0.0
H906 H 0.07462 0.74682 0.54484 0.0
H907 H 0.1656 0.60065 0.41601 0.0
H908 H 0.11157 0.81993 0.52047 0.0
O909 O 0.22635 0.52876 0.51159 0.0
H910 H 0.12143 0.52198 0.61301 0.0
H911 H 0.29388 0.47028 0.57747 0.0
H912 H 0.24549 0.40452 0.60136 0.0
H913 H 0.15869 0.43029 0.61946 0.0
H914 H 0.17048 0.58587 0.58871 0.0
H915 H 0.39857 0.56048 0.62966 0.0
H916 H 0.48068 0.5471 0.60616 0.0
O917 O 0.28685 0.52269 0.54003 0.0
C918 C 0.31157 0.64544 0.52161 0.0
C919 C 0.43741 0.54955 0.57438 0.0
C920 C 0.3957 0.55913 0.61126 0.0
N921 N 0.34218 0.56529 0.57725 0.0
C922 C 0.38696 0.55642 0.56422 0.0
C923 C 0.34599 0.56632 0.6005 0.0
C924 C 0.44173 0.55128 0.59805 0.0
C925 C 0.12789 0.68637 0.53102 0.0
N926 N 0.16866 0.6755 0.51606 0.0
C927 C 0.10677 0.73841 0.53287 0.0
C928 C 0.12756 0.77942 0.51922 0.0
C929 C 0.16899 0.76798 0.50391 0.0
C930 C 0.18915 0.71548 0.50254 0.0
C931 C 0.13002 0.61825 0.44863 0.0
C932 C 0.22728 0.58567 0.46725 0.0
C933 C 0.1383 0.61862 0.47218 0.0
N934 N 0.18659 0.60274 0.48119 0.0
C935 C 0.22046 0.58471 0.44362 0.0
C936 C 0.17147 0.6012 0.43429 0.0
C937 C 0.26417 0.50435 0.52204 0.0
C938 C 0.15946 0.51041 0.60539 0.0
C939 C 0.2561 0.48188 0.5852 0.0
C940 C 0.22892 0.44444 0.59878 0.0
C941 C 0.18028 0.45893 0.60894 0.0
N942 N 0.23571 0.53253 0.58189 0.0
C943 C 0.18784 0.54681 0.59174 0.0
C944 C 0.16501 0.37026 0.23834 0.0
C945 C 0.17207 0.36075 0.26178 0.0
H946 H 0.17793 0.42388 0.2103 0.0
C947 C 0.20158 0.39812 0.27474 0.0
H948 H 0.14213 0.34244 0.22791 0.0
C949 C 0.22303 0.44431 0.26454 0.0
C950 C 0.21434 0.45485 0.24125 0.0
H951 H 0.20773 0.39187 0.29284 0.0
H952 H 0.24516 0.47249 0.27509 0.0
C953 C 0.18534 0.41711 0.22825 0.0
C954 C 0.44357 0.77752 0.73783 0.0
C955 C 0.45394 0.78574 0.76116 0.0
H956 H 0.39121 0.79318 0.70955 0.0
C957 C 0.41602 0.8143 0.77425 0.0
H958 H 0.47189 0.75575 0.72722 0.0
C959 C 0.36914 0.83466 0.76419 0.0
C960 C 0.35979 0.82806 0.74071 0.0
H961 H 0.42266 0.82133 0.79223 0.0
H962 H 0.34117 0.85717 0.77469 0.0
C963 C 0.39734 0.79899 0.72767 0.0
C964 C 0.8163 0.58278 0.22742 0.0
C965 C 0.78499 0.54669 0.24032 0.0
H966 H 0.8612 0.65654 0.22701 0.0
C967 C 0.77388 0.55925 0.26324 0.0
H968 H 0.82562 0.57443 0.20975 0.0
C969 C 0.79511 0.60577 0.27324 0.0
C970 C 0.82687 0.6415 0.26042 0.0
H971 H 0.74992 0.53244 0.27371 0.0
H972 H 0.78698 0.61354 0.29109 0.0
C973 C 0.83648 0.63002 0.23729 0.0
C974 C 0.5579 0.2259 0.73871 0.0
C975 C 0.54556 0.21546 0.76171 0.0
H976 H 0.61214 0.21227 0.71089 0.0
C977 C 0.58196 0.18487 0.77475 0.0
H978 H 0.53082 0.24929 0.72813 0.0
C979 C 0.62929 0.16475 0.76496 0.0
C980 C 0.64058 0.17366 0.74177 0.0
H981 H 0.5738 0.17609 0.79249 0.0
H982 H 0.65606 0.1406 0.77537 0.0
C983 C 0.60453 0.2047 0.72879 0.0
C984 C 0.22567 0.0578 0.98885 0.0
C985 C 0.21369 0.04514 0.01169 0.0
H986 H 0.21298 0.1119 0.96088 0.0
C987 C 0.1813 0.08078 0.02432 0.0
H988 H 0.25049 0.03132 0.9786 0.0
C989 C 0.16102 0.12775 0.01428 0.0
C990 C 0.17153 0.1393 0.99124 0.0
H991 H 0.17126 0.07232 0.0419 0.0
H992 H 0.1355 0.15397 0.02435 0.0
C993 C 0.20422 0.10398 0.97866 0.0
C994 C 0.12883 0.83888 0.98707 0.0
C995 C 0.14114 0.8272 0.00994 0.0
H996 H 0.07263 0.82972 0.95963 0.0
C997 C 0.1064 0.79353 0.02236 0.0
H998 H 0.15459 0.86515 0.97712 0.0
C999 C 0.06002 0.77242 0.01223 0.0
C1000 C 0.04658 0.78553 0.98958 0.0
H1001 H 0.11485 0.78381 0.04001 0.0
H1002 H 0.034 0.74691 0.0224 0.0
C1003 C 0.08169 0.81879 0.97708 0.0
C1004 C 0.83791 0.86921 0.01488 0.0
C1005 C 0.82824 0.85859 0.99169 0.0
H1006 H 0.82714 0.92371 0.0428 0.0
C1007 C 0.79642 0.8948 0.97913 0.0
H1008 H 0.86264 0.84232 0.02499 0.0
C1009 C 0.77524 0.94094 0.98945 0.0
C1010 C 0.7864 0.95262 0.01245 0.0
H1011 H 0.78824 0.8877 0.96123 0.0
H1012 H 0.75128 0.96819 0.97917 0.0
C1013 C 0.81774 0.91604 0.02508 0.0
C1014 C 0.86993 0.16284 0.98803 0.0
C1015 C 0.86022 0.17103 0.01139 0.0
H1016 H 0.92357 0.17493 0.95992 0.0
C1017 C 0.8971 0.20171 0.0241 0.0
H1018 H 0.84247 0.13901 0.97781 0.0
C1019 C 0.94304 0.22324 0.01374 0.0
C1020 C 0.95384 0.21344 0.99055 0.0
H1021 H 0.89065 0.20874 0.04213 0.0
H1022 H 0.97083 0.24631 0.0241 0.0
C1023 C 0.91658 0.18324 0.97779 0.0
C1024 C 0.66466 0.87107 0.73759 0.0
C1025 C 0.67217 0.8607 0.76094 0.0
H1026 H 0.67731 0.92566 0.70986 0.0
C1027 C 0.70208 0.89744 0.77404 0.0
H1028 H 0.64143 0.84372 0.72708 0.0
C1029 C 0.72357 0.94387 0.76406 0.0
C1030 C 0.71448 0.9553 0.74088 0.0
H1031 H 0.70857 0.8905 0.79207 0.0
H1032 H 0.7461 0.97151 0.77471 0.0
C1033 C 0.685 0.91821 0.72773 0.0
C1034 C 0.94204 0.27642 0.23933 0.0
C1035 C 0.95349 0.28649 0.26244 0.0
H1036 H 0.88872 0.29027 0.21121 0.0
C1037 C 0.91649 0.31671 0.27534 0.0
H1038 H 0.96962 0.25336 0.22885 0.0
C1039 C 0.86945 0.33683 0.26531 0.0
C1040 C 0.85902 0.32827 0.24203 0.0
H1041 H 0.92398 0.32524 0.29315 0.0
H1042 H 0.84222 0.36066 0.27564 0.0
C1043 C 0.89566 0.29759 0.22918 0.0
C1044 C 0.31497 0.08373 0.72693 0.0
C1045 C 0.28507 0.04667 0.73993 0.0
H1046 H 0.35874 0.15812 0.72649 0.0
C1047 C 0.2753 0.05816 0.76306 0.0
H1048 H 0.32326 0.07622 0.7091 0.0
C1049 C 0.29648 0.10462 0.77313 0.0
C1050 C 0.3269 0.14131 0.76019 0.0
H1051 H 0.25247 0.03054 0.77361 0.0
H1052 H 0.28942 0.11158 0.79112 0.0
C1053 C 0.33512 0.13085 0.73689 0.0
C1054 C 0.05709 0.72541 0.23874 0.0
C1055 C 0.04516 0.71533 0.26181 0.0
H1056 H 0.1108 0.7112 0.21078 0.0
C1057 C 0.08175 0.6849 0.27482 0.0
H1058 H 0.02987 0.7487 0.22819 0.0
C1059 C 0.12887 0.66458 0.26493 0.0
C1060 C 0.1397 0.67309 0.24168 0.0
H1061 H 0.07388 0.67641 0.2926 0.0
H1062 H 0.15581 0.64057 0.27531 0.0
C1063 C 0.10348 0.70395 0.22873 0.0
C1064 C 0.72153 0.55429 0.48766 0.0
C1065 C 0.71402 0.54415 0.51105 0.0
H1066 H 0.70532 0.60659 0.45941 0.0
C1067 C 0.68622 0.58239 0.52426 0.0
H1068 H 0.74271 0.5257 0.47696 0.0
C1069 C 0.66591 0.62936 0.51428 0.0
C1070 C 0.67178 0.63852 0.49075 0.0
H1071 H 0.67976 0.57594 0.5423 0.0
H1072 H 0.64401 0.65759 0.52488 0.0
C1073 C 0.70009 0.60063 0.47758 0.0
C1074 C 0.60233 0.29617 0.52446 0.0
C1075 C 0.63922 0.32558 0.51122 0.0
H1076 H 0.52802 0.25258 0.52534 0.0
C1077 C 0.62891 0.3325 0.48784 0.0
H1078 H 0.60923 0.29014 0.54252 0.0
C1079 C 0.58167 0.31213 0.47807 0.0
C1080 C 0.54441 0.28323 0.49136 0.0
H1081 H 0.65637 0.35532 0.47721 0.0
H1082 H 0.57425 0.31939 0.46016 0.0
C1083 C 0.55579 0.27466 0.51458 0.0
C1084 C 0.27396 0.44065 0.48915 0.0
C1085 C 0.28396 0.45299 0.51218 0.0
H1086 H 0.28796 0.38635 0.46139 0.0
C1087 C 0.31418 0.41651 0.52534 0.0
H1088 H 0.25086 0.46778 0.47848 0.0
C1089 C 0.33437 0.3691 0.51563 0.0
C1090 C 0.32589 0.35783 0.49241 0.0
H1091 H 0.32261 0.42467 0.54311 0.0
H1092 H 0.35822 0.34226 0.52613 0.0
C1093 C 0.29521 0.39395 0.47932 0.0
C1094 C 0.44216 0.72239 0.51365 0.0
C1095 C 0.45323 0.71346 0.49042 0.0
H1096 H 0.38903 0.70762 0.54175 0.0
C1097 C 0.41576 0.68433 0.47732 0.0
H1098 H 0.47012 0.7446 0.52428 0.0
C1099 C 0.36863 0.66416 0.48726 0.0
C1100 C 0.35855 0.67157 0.51065 0.0
H1101 H 0.42293 0.67672 0.45941 0.0
H1102 H 0.34102 0.64121 0.47676 0.0
C1103 C 0.39567 0.70118 0.5237 0.0
C1104 C 0.28018 0.18921 0.37893 0.0
C1105 C 0.28562 0.23304 0.39391 0.0
H1106 H 0.24577 0.16007 0.34764 0.0
C1107 C 0.25923 0.28169 0.38895 0.0
H1108 H 0.30072 0.1515 0.38235 0.0
C1109 C 0.2267 0.28604 0.36958 0.0
C1110 C 0.22193 0.24254 0.35438 0.0
H1111 H 0.26313 0.31603 0.40026 0.0
H1112 H 0.2058 0.32363 0.36629 0.0
C1113 C 0.24929 0.19424 0.35906 0.0
C1114 C 0.18868 0.71856 0.62388 0.0
C1115 C 0.23277 0.71293 0.60904 0.0
H1116 H 0.15898 0.75343 0.65498 0.0
C1117 C 0.28132 0.73941 0.61408 0.0
H1118 H 0.15103 0.69796 0.62039 0.0
C1119 C 0.28532 0.77224 0.63339 0.0
C1120 C 0.24155 0.77722 0.64843 0.0
H1121 H 0.31586 0.73537 0.60289 0.0
H1122 H 0.32284 0.79321 0.63673 0.0
C1123 C 0.19335 0.74975 0.64368 0.0
C1124 C 0.72702 0.71359 0.38367 0.0
C1125 C 0.72258 0.75708 0.39889 0.0
H1126 H 0.76343 0.68331 0.35303 0.0
C1127 C 0.75068 0.80502 0.39434 0.0
H1128 H 0.70556 0.67627 0.38686 0.0
C1129 C 0.78191 0.80976 0.37455 0.0
C1130 C 0.78694 0.76596 0.35952 0.0
H1131 H 0.74744 0.83917 0.40578 0.0
H1132 H 0.80296 0.84723 0.37121 0.0
C1133 C 0.75987 0.71762 0.36437 0.0
C1134 C 0.81 0.218 0.62806 0.0
C1135 C 0.76584 0.21268 0.64289 0.0
H1136 H 0.83986 0.25231 0.59688 0.0
C1137 C 0.71732 0.23908 0.63772 0.0
H1138 H 0.84762 0.19746 0.63165 0.0
C1139 C 0.71343 0.27155 0.61831 0.0
C1140 C 0.75729 0.27625 0.60329 0.0
H1141 H 0.68273 0.23528 0.6489 0.0
H1142 H 0.67595 0.2925 0.61487 0.0
C1143 C 0.80544 0.24883 0.60816 0.0
C1144 C 0.25025 0.30381 0.89399 0.0
C1145 C 0.22209 0.25583 0.89839 0.0
H1146 H 0.30256 0.34637 0.87099 0.0
C1147 C 0.22632 0.21267 0.88299 0.0
H1148 H 0.24718 0.33772 0.90557 0.0
C1149 C 0.2591 0.21703 0.86369 0.0
C1150 C 0.2863 0.2654 0.85901 0.0
H1151 H 0.20483 0.17531 0.88607 0.0
H1152 H 0.26258 0.18295 0.85222 0.0
C1153 C 0.2814 0.3089 0.8742 0.0
C1154 C 0.21272 0.72766 0.13407 0.0
C1155 C 0.25602 0.72391 0.14942 0.0
H1156 H 0.18242 0.76351 0.10331 0.0
C1157 C 0.30358 0.75277 0.14501 0.0
H1158 H 0.17568 0.70563 0.13715 0.0
C1159 C 0.30817 0.78403 0.12523 0.0
C1160 C 0.26457 0.78835 0.11005 0.0
H1161 H 0.33758 0.7501 0.15656 0.0
H1162 H 0.34537 0.80564 0.12199 0.0
C1163 C 0.21657 0.76054 0.11477 0.0
C1164 C 0.76029 0.78295 0.88735 0.0
C1165 C 0.78807 0.73491 0.892 0.0
H1166 H 0.70522 0.82392 0.86508 0.0
C1167 C 0.7835 0.6913 0.87684 0.0
H1168 H 0.76348 0.8171 0.89879 0.0
C1169 C 0.75203 0.69594 0.85713 0.0
C1170 C 0.72322 0.74355 0.85277 0.0
H1171 H 0.80508 0.65407 0.88003 0.0
H1172 H 0.74916 0.66194 0.84558 0.0
C1173 C 0.7272 0.78684 0.86812 0.0
C1174 C 0.69636 0.25001 0.10847 0.0
C1175 C 0.74439 0.22193 0.10407 0.0
H1176 H 0.65387 0.3026 0.13137 0.0
C1177 C 0.78771 0.22662 0.11936 0.0
H1178 H 0.66234 0.24659 0.09697 0.0
C1179 C 0.78346 0.25977 0.13855 0.0
C1180 C 0.73505 0.28689 0.14324 0.0
H1181 H 0.8251 0.20519 0.11628 0.0
H1182 H 0.81766 0.26358 0.14994 0.0
C1183 C 0.69139 0.28153 0.12816 0.0
C1184 C 0.99075 0.97379 0.30355 0.0
C1185 C 0.98133 0.94736 0.28276 0.0
H1186 H 0.01369 0.04777 0.31996 0.0
C1187 C 0.9893 0.97525 0.26222 0.0
H1188 H 0.98459 0.95295 0.31958 0.0
C1189 C 0.00758 0.02851 0.26244 0.0
C1190 C 0.01612 0.05528 0.2832 0.0
H1191 H 0.98235 0.9555 0.24601 0.0
H1192 H 0.01426 0.04907 0.24638 0.0
C1193 C 0.00707 0.02781 0.30377 0.0
C1194 C 0.97423 0.01073 0.74065 0.0
C1195 C 0.94623 0.01852 0.72013 0.0
H1196 H 0.04814 0.98586 0.75644 0.0
C1197 C 0.97251 0.00887 0.69933 0.0
H1198 H 0.95459 0.01787 0.75688 0.0
C1199 C 0.02651 0.99251 0.69907 0.0
C1200 C 0.0541 0.98365 0.71962 0.0
H1201 H 0.95158 0.0149 0.68331 0.0
H1202 H 0.04637 0.98573 0.68286 0.0
C1203 C 0.02747 0.9924 0.7404 0.0
C1204 C 0.00751 0.47159 0.94782 0.0
C1205 C 0.01682 0.44475 0.96851 0.0
H1206 H 0.98491 0.54601 0.93166 0.0
C1207 C 0.00872 0.47219 0.98915 0.0
H1208 H 0.01379 0.4511 0.93172 0.0
C1209 C 0.99058 0.52549 0.98912 0.0
C1210 C 0.9823 0.55274 0.96845 0.0
H1211 H 0.01561 0.45212 0.0053 0.0
H1212 H 0.98394 0.54575 0.00525 0.0
C1213 C 0.99132 0.52566 0.94778 0.0
C1214 C 0.47334 0.99049 0.05446 0.0
C1215 C 0.44689 0.98112 0.03367 0.0
H1216 H 0.54742 0.01323 0.07086 0.0
C1217 C 0.47483 0.98892 0.01313 0.0
H1218 H 0.45247 0.98445 0.07048 0.0
C1219 C 0.52815 0.00699 0.01334 0.0
C1220 C 0.55494 0.01551 0.0341 0.0
H1221 H 0.45507 0.982 0.99691 0.0
H1222 H 0.54873 0.01356 0.99728 0.0
C1223 C 0.52744 0.00661 0.05467 0.0
C1224 C 0.49094 0.47413 0.80275 0.0
C1225 C 0.4817 0.44721 0.78206 0.0
H1226 H 0.51378 0.54848 0.81888 0.0
C1227 C 0.48998 0.47457 0.76142 0.0
H1228 H 0.48454 0.45371 0.81886 0.0
C1229 C 0.50835 0.5278 0.76143 0.0
C1230 C 0.51666 0.55508 0.78209 0.0
H1231 H 0.48316 0.45443 0.74528 0.0
H1232 H 0.51524 0.54797 0.7453 0.0
C1233 C 0.50734 0.52812 0.80276 0.0
C1234 C 0.52603 0.49186 0.19919 0.0
C1235 C 0.553 0.48265 0.21987 0.0
H1236 H 0.45162 0.51467 0.18309 0.0
C1237 C 0.52571 0.49096 0.24053 0.0
H1238 H 0.5464 0.48543 0.18308 0.0
C1239 C 0.47247 0.50933 0.24053 0.0
C1240 C 0.44513 0.51761 0.21989 0.0
H1241 H 0.54589 0.48418 0.25666 0.0
H1242 H 0.45236 0.51624 0.25667 0.0
C1243 C 0.47203 0.50825 0.1992 0.0
C1244 C 0.49022 0.02571 0.45015 0.0
C1245 C 0.48074 0.052 0.47096 0.0
H1246 H 0.51334 0.95189 0.43366 0.0
C1247 C 0.48879 0.02404 0.49147 0.0
H1248 H 0.48398 0.0466 0.43414 0.0
C1249 C 0.50724 0.97083 0.4912 0.0
C1250 C 0.51583 0.9442 0.47041 0.0
H1251 H 0.48179 0.0437 0.50771 0.0
H1252 H 0.51399 0.95019 0.50724 0.0
C1253 C 0.50668 0.97174 0.44987 0.0
C1254 C 0.97186 0.49024 0.51117 0.0
C1255 C 0.94449 0.48203 0.53182 0.0
H1256 H 0.0453 0.51538 0.49505 0.0
C1257 C 0.97134 0.49149 0.5525 0.0
H1258 H 0.95177 0.48324 0.49503 0.0
C1259 C 0.02532 0.50791 0.55252 0.0
C1260 C 0.05233 0.51705 0.53184 0.0
H1261 H 0.95091 0.48512 0.56861 0.0
H1262 H 0.04566 0.51442 0.56863 0.0
C1263 C 0.02508 0.50865 0.51118 0.0
loop_
_geom_bond_atom_site_label_1
_geom_bond_atom_site_label_2
_geom_bond_distance
_geom_bond_site_symmetry_2
_ccdc_geom_bond_type
Co0 O2 2.143 . S
Co0 O8 2.074 . S
Co0 O11 2.093 . S
Co0 O24 2.097 . S
Co0 N41 2.151 . S
Co0 N49 2.214 . S
Co1 O2 2.160 . S
Co1 O7 2.058 . S
Co1 O17 2.057 . S
Co1 O32 2.037 . S
Co1 N36 2.145 . S
Co1 N57 2.257 . S
O2 Co0 2.143 . S
O2 Co1 2.160 . S
C3 O4 1.278 . S
C3 O11 1.224 . S
O4 C3 1.278 . S
C5 O6 1.245 . S
C5 O17 1.232 . S
O6 C5 1.245 . S
O7 Co1 2.058 . S
O7 C33 1.269 . S
O8 Co0 2.074 . S
O8 C33 1.257 . S
H9 C34 0.930 . S
H10 C40 0.930 . S
O11 Co0 2.093 . S
O11 C3 1.224 . S
H12 C44 0.929 . S
H13 C46 0.930 . S
H14 C47 0.930 . S
H15 C45 0.929 . S
H16 C48 0.928 . S
O17 Co1 2.057 . S
O17 C5 1.232 . S
H18 C37 0.929 . S
H19 C38 0.929 . S
H20 C50 0.931 . S
H21 C42 0.929 . S
H22 C51 0.930 . S
H23 C43 0.931 . S
O24 Co0 2.097 . S
O24 C52 1.214 1_455 S
H25 C53 0.932 . S
H26 C54 0.929 . S
H27 C55 0.930 . S
H28 C56 0.929 . S
H29 C58 0.930 . S
H30 C35 0.930 . S
H31 C39 0.930 . S
O32 Co1 2.037 . S
O32 C52 1.234 1_455 S
C33 O7 1.269 . S
C33 O8 1.257 . S
C34 H9 0.930 . S
C34 C37 1.388 . S
C34 C39 1.418 . S
C35 H30 0.930 . S
C35 C38 1.404 . S
C35 C39 1.353 . S
N36 Co1 2.145 . S
N36 C37 1.397 . S
N36 C38 1.334 . S
C37 H18 0.929 . S
C37 C34 1.388 . S
C37 N36 1.397 . S
C38 H19 0.929 . S
C38 C35 1.404 . S
C38 N36 1.334 . S
C39 H31 0.930 . S
C39 C34 1.418 . S
C39 C35 1.353 . S
C40 H10 0.930 . S
C40 N41 1.330 . S
C40 C42 1.446 . S
N41 Co0 2.151 . S
N41 C40 1.330 . S
N41 C45 1.418 . S
C42 H21 0.929 . S
C42 C40 1.446 . S
C42 C43 1.332 . S
C43 H23 0.931 . S
C43 C42 1.332 . S
C43 C44 1.267 . S
C44 H12 0.929 . S
C44 C43 1.267 . S
C44 C45 1.251 . S
C45 H15 0.929 . S
C45 N41 1.418 . S
C45 C44 1.251 . S
C46 H13 0.930 . S
C46 C48 1.406 . S
C46 C51 1.261 . S
C47 H14 0.930 . S
C47 N49 1.325 . S
C47 C50 1.357 . S
C48 H16 0.928 . S
C48 C46 1.406 . S
C48 N49 1.261 . S
N49 Co0 2.214 . S
N49 C47 1.325 . S
N49 C48 1.261 . S
C50 H20 0.931 . S
C50 C47 1.357 . S
C50 C51 1.312 . S
C51 H22 0.930 . S
C51 C46 1.261 . S
C51 C50 1.312 . S
C52 O24 1.214 1_655 S
C52 O32 1.234 1_655 S
C53 H25 0.932 . S
C53 C56 1.391 . S
C53 C58 1.391 1_655 S
C54 H26 0.929 . S
C54 C55 1.390 . S
C54 N57 1.391 1_655 S
C55 H27 0.930 . S
C55 C54 1.390 . S
C55 C56 1.392 . S
C56 H28 0.929 . S
C56 C53 1.391 . S
C56 C55 1.392 . S
N57 Co1 2.257 . S
N57 C54 1.391 1_455 S
N57 C58 1.388 . S
C58 H29 0.930 . S
C58 C53 1.391 1_455 S
C58 N57 1.388 . S
Co59 O61 2.143 . S
Co59 O67 2.074 . S
Co59 O70 2.093 . S
Co59 O83 2.097 . S
Co59 N100 2.151 . S
Co59 N108 2.214 . S
Co60 O61 2.160 . S
Co60 O66 2.058 . S
Co60 O76 2.057 . S
Co60 O91 2.037 . S
Co60 N95 2.145 . S
Co60 N116 2.257 . S
O61 Co59 2.143 . S
O61 Co60 2.160 . S
C62 O63 1.278 . S
C62 O70 1.224 . S
O63 C62 1.278 . S
C64 O65 1.245 . S
C64 O76 1.232 . S
O65 C64 1.245 . S
O66 Co60 2.058 . S
O66 C92 1.269 . S
O67 Co59 2.074 . S
O67 C92 1.257 . S
H68 C93 0.930 . S
H69 C99 0.930 . S
O70 Co59 2.093 . S
O70 C62 1.224 . S
H71 C103 0.929 . S
H72 C105 0.930 . S
H73 C106 0.930 . S
H74 C104 0.929 . S
H75 C107 0.928 . S
O76 Co60 2.057 . S
O76 C64 1.232 . S
H77 C96 0.929 . S
H78 C97 0.929 . S
H79 C109 0.931 . S
H80 C101 0.929 . S
H81 C110 0.930 . S
H82 C102 0.931 . S
O83 Co59 2.097 . S
O83 C111 1.214 1_565 S
H84 C112 0.932 . S
H85 C113 0.929 . S
H86 C114 0.930 . S
H87 C115 0.929 . S
H88 C117 0.930 . S
H89 C94 0.930 . S
H90 C98 0.930 . S
O91 Co60 2.037 . S
O91 C111 1.234 1_565 S
C92 O66 1.269 . S
C92 O67 1.257 . S
C93 H68 0.930 . S
C93 C96 1.388 . S
C93 C98 1.418 . S
C94 H89 0.930 . S
C94 C97 1.404 . S
C94 C98 1.353 . S
N95 Co60 2.145 . S
N95 C96 1.397 . S
N95 C97 1.334 . S
C96 H77 0.929 . S
C96 C93 1.388 . S
C96 N95 1.397 . S
C97 H78 0.929 . S
C97 C94 1.404 . S
C97 N95 1.334 . S
C98 H90 0.930 . S
C98 C93 1.418 . S
C98 C94 1.353 . S
C99 H69 0.930 . S
C99 N100 1.330 . S
C99 C101 1.446 . S
N100 Co59 2.151 . S
N100 C99 1.330 . S
N100 C104 1.418 . S
C101 H80 0.929 . S
C101 C99 1.446 . S
C101 C102 1.332 . S
C102 H82 0.931 . S
C102 C101 1.332 . S
C102 C103 1.267 . S
C103 H71 0.929 . S
C103 C102 1.267 . S
C103 C104 1.251 . S
C104 H74 0.929 . S
C104 N100 1.418 . S
C104 C103 1.251 . S
C105 H72 0.930 . S
C105 C107 1.406 . S
C105 C110 1.261 . S
C106 H73 0.930 . S
C106 N108 1.325 . S
C106 C109 1.357 . S
C107 H75 0.928 . S
C107 C105 1.406 . S
C107 N108 1.261 . S
N108 Co59 2.214 . S
N108 C106 1.325 . S
N108 C107 1.261 . S
C109 H79 0.931 . S
C109 C106 1.357 . S
C109 C110 1.312 . S
C110 H81 0.930 . S
C110 C105 1.261 . S
C110 C109 1.312 . S
C111 O83 1.214 1_545 S
C111 O91 1.234 1_545 S
C112 H84 0.932 . S
C112 C115 1.391 . S
C112 C117 1.391 1_545 S
C113 H85 0.929 . S
C113 C114 1.390 . S
C113 N116 1.391 1_545 S
C114 H86 0.930 . S
C114 C113 1.390 . S
C114 C115 1.392 . S
C115 H87 0.929 . S
C115 C112 1.391 . S
C115 C114 1.392 . S
N116 Co60 2.257 . S
N116 C113 1.391 1_565 S
N116 C117 1.388 . S
C117 H88 0.930 . S
C117 C112 1.391 1_565 S
C117 N116 1.388 . S
Co118 O120 2.143 . S
Co118 O126 2.074 . S
Co118 O129 2.093 . S
Co118 O142 2.097 . S
Co118 N159 2.151 . S
Co118 N167 2.214 . S
Co119 O120 2.160 . S
Co119 O125 2.058 . S
Co119 O135 2.057 . S
Co119 O150 2.037 . S
Co119 N154 2.145 . S
Co119 N175 2.257 . S
O120 Co118 2.143 . S
O120 Co119 2.160 . S
C121 O122 1.278 . S
C121 O129 1.224 . S
O122 C121 1.278 . S
C123 O124 1.245 . S
C123 O135 1.232 . S
O124 C123 1.245 . S
O125 Co119 2.058 . S
O125 C151 1.269 . S
O126 Co118 2.074 . S
O126 C151 1.257 . S
H127 C152 0.930 . S
H128 C158 0.930 . S
O129 Co118 2.093 . S
O129 C121 1.224 . S
H130 C162 0.929 . S
H131 C164 0.930 . S
H132 C165 0.930 . S
H133 C163 0.929 . S
H134 C166 0.928 . S
O135 Co119 2.057 . S
O135 C123 1.232 . S
H136 C155 0.929 . S
H137 C156 0.929 . S
H138 C168 0.931 . S
H139 C160 0.929 . S
H140 C169 0.930 . S
H141 C161 0.931 . S
O142 Co118 2.097 . S
O142 C170 1.214 1_655 S
H143 C171 0.932 . S
H144 C172 0.929 . S
H145 C173 0.930 . S
H146 C174 0.929 . S
H147 C176 0.930 . S
H148 C153 0.930 . S
H149 C157 0.930 . S
O150 Co119 2.037 . S
O150 C170 1.234 1_655 S
C151 O125 1.269 . S
C151 O126 1.257 . S
C152 H127 0.930 . S
C152 C155 1.388 . S
C152 C157 1.418 . S
C153 H148 0.930 . S
C153 C156 1.404 . S
C153 C157 1.353 . S
N154 Co119 2.145 . S
N154 C155 1.397 . S
N154 C156 1.334 . S
C155 H136 0.929 . S
C155 C152 1.388 . S
C155 N154 1.397 . S
C156 H137 0.929 . S
C156 C153 1.404 . S
C156 N154 1.334 . S
C157 H149 0.930 . S
C157 C152 1.418 . S
C157 C153 1.353 . S
C158 H128 0.930 . S
C158 N159 1.330 . S
C158 C160 1.446 . S
N159 Co118 2.151 . S
N159 C158 1.330 . S
N159 C163 1.418 . S
C160 H139 0.929 . S
C160 C158 1.446 . S
C160 C161 1.332 . S
C161 H141 0.931 . S
C161 C160 1.332 . S
C161 C162 1.267 . S
C162 H130 0.929 . S
C162 C161 1.267 . S
C162 C163 1.251 . S
C163 H133 0.929 . S
C163 N159 1.418 . S
C163 C162 1.251 . S
C164 H131 0.930 . S
C164 C166 1.406 . S
C164 C169 1.261 . S
C165 H132 0.930 . S
C165 N167 1.325 . S
C165 C168 1.357 . S
C166 H134 0.928 . S
C166 C164 1.406 . S
C166 N167 1.261 . S
N167 Co118 2.214 . S
N167 C165 1.325 . S
N167 C166 1.261 . S
C168 H138 0.931 . S
C168 C165 1.357 . S
C168 C169 1.312 . S
C169 H140 0.930 . S
C169 C164 1.261 . S
C169 C168 1.312 . S
C170 O142 1.214 1_455 S
C170 O150 1.234 1_455 S
C171 H143 0.932 . S
C171 C174 1.391 . S
C171 C176 1.391 1_455 S
C172 H144 0.929 . S
C172 C173 1.390 . S
C172 N175 1.391 1_455 S
C173 H145 0.930 . S
C173 C172 1.390 . S
C173 C174 1.392 . S
C174 H146 0.929 . S
C174 C171 1.391 . S
C174 C173 1.392 . S
N175 Co119 2.257 . S
N175 C172 1.391 1_655 S
N175 C176 1.388 . S
C176 H147 0.930 . S
C176 C171 1.391 1_655 S
C176 N175 1.388 . S
Co177 O179 2.143 . S
Co177 O185 2.074 . S
Co177 O188 2.093 . S
Co177 O201 2.097 . S
Co177 N218 2.151 . S
Co177 N226 2.214 . S
Co178 O179 2.160 . S
Co178 O184 2.058 . S
Co178 O194 2.057 . S
Co178 O209 2.037 . S
Co178 N213 2.145 . S
Co178 N234 2.257 . S
O179 Co177 2.143 . S
O179 Co178 2.160 . S
C180 O181 1.278 . S
C180 O188 1.224 . S
O181 C180 1.278 . S
C182 O183 1.245 . S
C182 O194 1.232 . S
O183 C182 1.245 . S
O184 Co178 2.058 . S
O184 C210 1.269 . S
O185 Co177 2.074 . S
O185 C210 1.257 . S
H186 C211 0.930 . S
H187 C217 0.930 . S
O188 Co177 2.093 . S
O188 C180 1.224 . S
H189 C221 0.929 . S
H190 C223 0.930 . S
H191 C224 0.930 . S
H192 C222 0.929 . S
H193 C225 0.928 . S
O194 Co178 2.057 . S
O194 C182 1.232 . S
H195 C214 0.929 . S
H196 C215 0.929 . S
H197 C227 0.931 . S
H198 C219 0.929 . S
H199 C228 0.930 . S
H200 C220 0.931 . S
O201 Co177 2.097 . S
O201 C229 1.214 1_545 S
H202 C230 0.932 . S
H203 C231 0.929 . S
H204 C232 0.930 . S
H205 C233 0.929 . S
H206 C235 0.930 . S
H207 C212 0.930 . S
H208 C216 0.930 . S
O209 Co178 2.037 . S
O209 C229 1.234 1_545 S
C210 O184 1.269 . S
C210 O185 1.257 . S
C211 H186 0.930 . S
C211 C214 1.388 . S
C211 C216 1.418 . S
C212 H207 0.930 . S
C212 C215 1.404 . S
C212 C216 1.353 . S
N213 Co178 2.145 . S
N213 C214 1.397 . S
N213 C215 1.334 . S
C214 H195 0.929 . S
C214 C211 1.388 . S
C214 N213 1.397 . S
C215 H196 0.929 . S
C215 C212 1.404 . S
C215 N213 1.334 . S
C216 H208 0.930 . S
C216 C211 1.418 . S
C216 C212 1.353 . S
C217 H187 0.930 . S
C217 N218 1.330 . S
C217 C219 1.446 . S
N218 Co177 2.151 . S
N218 C217 1.330 . S
N218 C222 1.418 . S
C219 H198 0.929 . S
C219 C217 1.446 . S
C219 C220 1.332 . S
C220 H200 0.931 . S
C220 C219 1.332 . S
C220 C221 1.267 . S
C221 H189 0.929 . S
C221 C220 1.267 . S
C221 C222 1.251 . S
C222 H192 0.929 . S
C222 N218 1.418 . S
C222 C221 1.251 . S
C223 H190 0.930 . S
C223 C225 1.406 . S
C223 C228 1.261 . S
C224 H191 0.930 . S
C224 N226 1.325 . S
C224 C227 1.357 . S
C225 H193 0.928 . S
C225 C223 1.406 . S
C225 N226 1.261 . S
N226 Co177 2.214 . S
N226 C224 1.325 . S
N226 C225 1.261 . S
C227 H197 0.931 . S
C227 C224 1.357 . S
C227 C228 1.312 . S
C228 H199 0.930 . S
C228 C223 1.261 . S
C228 C227 1.312 . S
C229 O201 1.214 1_565 S
C229 O209 1.234 1_565 S
C230 H202 0.932 . S
C230 C233 1.391 . S
C230 C235 1.391 1_565 S
C231 H203 0.929 . S
C231 C232 1.390 . S
C231 N234 1.391 1_565 S
C232 H204 0.930 . S
C232 C231 1.390 . S
C232 C233 1.392 . S
C233 H205 0.929 . S
C233 C230 1.391 . S
C233 C232 1.392 . S
N234 Co178 2.257 . S
N234 C231 1.391 1_545 S
N234 C235 1.388 . S
C235 H206 0.930 . S
C235 C230 1.391 1_545 S
C235 N234 1.388 . S
Co236 O238 2.143 . S
Co236 O244 2.074 . S
Co236 O247 2.093 . S
Co236 O260 2.097 . S
Co236 N277 2.151 . S
Co236 N285 2.214 1_556 S
Co237 O238 2.160 . S
Co237 O243 2.058 . S
Co237 O253 2.057 . S
Co237 O268 2.037 . S
Co237 N272 2.145 . S
Co237 N293 2.257 . S
O238 Co236 2.143 . S
O238 Co237 2.160 . S
C239 O240 1.278 . S
C239 O247 1.224 . S
O240 C239 1.278 . S
C241 O242 1.245 . S
C241 O253 1.232 . S
O242 C241 1.245 . S
O243 Co237 2.058 . S
O243 C269 1.269 . S
O244 Co236 2.074 . S
O244 C269 1.257 . S
H245 C270 0.930 . S
H246 C276 0.930 . S
O247 Co236 2.093 . S
O247 C239 1.224 . S
H248 C280 0.929 . S
H249 C282 0.930 . S
H250 C283 0.930 . S
H251 C281 0.929 . S
H252 C284 0.928 . S
O253 Co237 2.057 . S
O253 C241 1.232 . S
H254 C273 0.929 . S
H255 C274 0.929 . S
H256 C286 0.931 . S
H257 C278 0.929 . S
H258 C287 0.930 . S
H259 C279 0.931 . S
O260 Co236 2.097 . S
O260 C288 1.214 1_455 S
H261 C289 0.932 . S
H262 C290 0.929 . S
H263 C291 0.930 . S
H264 C292 0.929 . S
H265 C294 0.930 . S
H266 C271 0.930 . S
H267 C275 0.930 . S
O268 Co237 2.037 . S
O268 C288 1.234 1_455 S
C269 O243 1.269 . S
C269 O244 1.257 . S
C270 H245 0.930 . S
C270 C273 1.388 . S
C270 C275 1.418 . S
C271 H266 0.930 . S
C271 C274 1.404 . S
C271 C275 1.353 . S
N272 Co237 2.145 . S
N272 C273 1.397 . S
N272 C274 1.334 . S
C273 H254 0.929 . S
C273 C270 1.388 . S
C273 N272 1.397 . S
C274 H255 0.929 . S
C274 C271 1.404 . S
C274 N272 1.334 . S
C275 H267 0.930 . S
C275 C270 1.418 . S
C275 C271 1.353 . S
C276 H246 0.930 . S
C276 N277 1.330 . S
C276 C278 1.446 . S
N277 Co236 2.151 . S
N277 C276 1.330 . S
N277 C281 1.418 1_556 S
C278 H257 0.929 . S
C278 C276 1.446 . S
C278 C279 1.332 1_556 S
C279 H259 0.931 . S
C279 C278 1.332 1_554 S
C279 C280 1.267 . S
C280 H248 0.929 . S
C280 C279 1.267 . S
C280 C281 1.251 . S
C281 H251 0.929 . S
C281 N277 1.418 1_554 S
C281 C280 1.251 . S
C282 H249 0.930 . S
C282 C284 1.406 . S
C282 C287 1.261 . S
C283 H250 0.930 . S
C283 N285 1.325 . S
C283 C286 1.357 . S
C284 H252 0.928 . S
C284 C282 1.406 . S
C284 N285 1.261 . S
N285 Co236 2.214 1_554 S
N285 C283 1.325 . S
N285 C284 1.261 . S
C286 H256 0.931 . S
C286 C283 1.357 . S
C286 C287 1.312 . S
C287 H258 0.930 . S
C287 C282 1.261 . S
C287 C286 1.312 . S
C288 O260 1.214 1_655 S
C288 O268 1.234 1_655 S
C289 H261 0.932 . S
C289 C292 1.391 . S
C289 C294 1.391 1_655 S
C290 H262 0.929 . S
C290 C291 1.390 . S
C290 N293 1.391 1_655 S
C291 H263 0.930 . S
C291 C290 1.390 . S
C291 C292 1.392 . S
C292 H264 0.929 . S
C292 C289 1.391 . S
C292 C291 1.392 . S
N293 Co237 2.257 . S
N293 C290 1.391 1_455 S
N293 C294 1.388 . S
C294 H265 0.930 . S
C294 C289 1.391 1_455 S
C294 N293 1.388 . S
Co295 O297 2.143 . S
Co295 O303 2.074 . S
Co295 O306 2.093 . S
Co295 O319 2.097 . S
Co295 N336 2.151 . S
Co295 N344 2.214 1_554 S
Co296 O297 2.160 . S
Co296 O302 2.058 . S
Co296 O312 2.057 . S
Co296 O327 2.037 . S
Co296 N331 2.145 . S
Co296 N352 2.257 . S
O297 Co295 2.143 . S
O297 Co296 2.160 . S
C298 O299 1.278 . S
C298 O306 1.224 . S
O299 C298 1.278 . S
C300 O301 1.245 . S
C300 O312 1.232 . S
O301 C300 1.245 . S
O302 Co296 2.058 . S
O302 C328 1.269 . S
O303 Co295 2.074 . S
O303 C328 1.257 . S
H304 C329 0.930 . S
H305 C335 0.930 . S
O306 Co295 2.093 . S
O306 C298 1.224 . S
H307 C339 0.929 . S
H308 C341 0.930 . S
H309 C342 0.930 . S
H310 C340 0.929 . S
H311 C343 0.928 . S
O312 Co296 2.057 . S
O312 C300 1.232 . S
H313 C332 0.929 . S
H314 C333 0.929 . S
H315 C345 0.931 . S
H316 C337 0.929 . S
H317 C346 0.930 . S
H318 C338 0.931 . S
O319 Co295 2.097 . S
O319 C347 1.214 1_565 S
H320 C348 0.932 . S
H321 C349 0.929 . S
H322 C350 0.930 . S
H323 C351 0.929 . S
H324 C353 0.930 . S
H325 C330 0.930 . S
H326 C334 0.930 . S
O327 Co296 2.037 . S
O327 C347 1.234 1_565 S
C328 O302 1.269 . S
C328 O303 1.257 . S
C329 H304 0.930 . S
C329 C332 1.388 . S
C329 C334 1.418 . S
C330 H325 0.930 . S
C330 C333 1.404 . S
C330 C334 1.353 . S
N331 Co296 2.145 . S
N331 C332 1.397 . S
N331 C333 1.334 . S
C332 H313 0.929 . S
C332 C329 1.388 . S
C332 N331 1.397 . S
C333 H314 0.929 . S
C333 C330 1.404 . S
C333 N331 1.334 . S
C334 H326 0.930 . S
C334 C329 1.418 . S
C334 C330 1.353 . S
C335 H305 0.930 . S
C335 N336 1.330 . S
C335 C337 1.446 . S
N336 Co295 2.151 . S
N336 C335 1.330 . S
N336 C340 1.418 1_554 S
C337 H316 0.929 . S
C337 C335 1.446 . S
C337 C338 1.332 1_554 S
C338 H318 0.931 . S
C338 C337 1.332 1_556 S
C338 C339 1.267 . S
C339 H307 0.929 . S
C339 C338 1.267 . S
C339 C340 1.251 . S
C340 H310 0.929 . S
C340 N336 1.418 1_556 S
C340 C339 1.251 . S
C341 H308 0.930 . S
C341 C343 1.406 . S
C341 C346 1.261 . S
C342 H309 0.930 . S
C342 N344 1.325 . S
C342 C345 1.357 . S
C343 H311 0.928 . S
C343 C341 1.406 . S
C343 N344 1.261 . S
N344 Co295 2.214 1_556 S
N344 C342 1.325 . S
N344 C343 1.261 . S
C345 H315 0.931 . S
C345 C342 1.357 . S
C345 C346 1.312 . S
C346 H317 0.930 . S
C346 C341 1.261 . S
C346 C345 1.312 . S
C347 O319 1.214 1_545 S
C347 O327 1.234 1_545 S
C348 H320 0.932 . S
C348 C351 1.391 . S
C348 C353 1.391 1_545 S
C349 H321 0.929 . S
C349 C350 1.390 . S
C349 N352 1.391 1_545 S
C350 H322 0.930 . S
C350 C349 1.390 . S
C350 C351 1.392 . S
C351 H323 0.929 . S
C351 C348 1.391 . S
C351 C350 1.392 . S
N352 Co296 2.257 . S
N352 C349 1.391 1_565 S
N352 C353 1.388 . S
C353 H324 0.930 . S
C353 C348 1.391 1_565 S
C353 N352 1.388 . S
Co354 O356 2.143 . S
Co354 O362 2.074 . S
Co354 O365 2.093 . S
Co354 O378 2.097 . S
Co354 N395 2.151 . S
Co354 N403 2.214 1_556 S
Co355 O356 2.160 . S
Co355 O361 2.058 . S
Co355 O371 2.057 . S
Co355 O386 2.037 . S
Co355 N390 2.145 . S
Co355 N411 2.257 . S
O356 Co354 2.143 . S
O356 Co355 2.160 . S
C357 O358 1.278 . S
C357 O365 1.224 . S
O358 C357 1.278 . S
C359 O360 1.245 . S
C359 O371 1.232 . S
O360 C359 1.245 . S
O361 Co355 2.058 . S
O361 C387 1.269 . S
O362 Co354 2.074 . S
O362 C387 1.257 . S
H363 C388 0.930 . S
H364 C394 0.930 . S
O365 Co354 2.093 . S
O365 C357 1.224 . S
H366 C398 0.929 . S
H367 C400 0.930 . S
H368 C401 0.930 . S
H369 C399 0.929 . S
H370 C402 0.928 . S
O371 Co355 2.057 . S
O371 C359 1.232 . S
H372 C391 0.929 . S
H373 C392 0.929 . S
H374 C404 0.931 . S
H375 C396 0.929 . S
H376 C405 0.930 . S
H377 C397 0.931 . S
O378 Co354 2.097 . S
O378 C406 1.214 1_655 S
H379 C407 0.932 . S
H380 C408 0.929 . S
H381 C409 0.930 . S
H382 C410 0.929 . S
H383 C412 0.930 . S
H384 C389 0.930 . S
H385 C393 0.930 . S
O386 Co355 2.037 . S
O386 C406 1.234 1_655 S
C387 O361 1.269 . S
C387 O362 1.257 . S
C388 H363 0.930 . S
C388 C391 1.388 . S
C388 C393 1.418 . S
C389 H384 0.930 . S
C389 C392 1.404 . S
C389 C393 1.353 . S
N390 Co355 2.145 . S
N390 C391 1.397 . S
N390 C392 1.334 . S
C391 H372 0.929 . S
C391 C388 1.388 . S
C391 N390 1.397 . S
C392 H373 0.929 . S
C392 C389 1.404 . S
C392 N390 1.334 . S
C393 H385 0.930 . S
C393 C388 1.418 . S
C393 C389 1.353 . S
C394 H364 0.930 . S
C394 N395 1.330 . S
C394 C396 1.446 . S
N395 Co354 2.151 . S
N395 C394 1.330 . S
N395 C399 1.418 1_556 S
C396 H375 0.929 . S
C396 C394 1.446 . S
C396 C397 1.332 1_556 S
C397 H377 0.931 . S
C397 C396 1.332 1_554 S
C397 C398 1.267 . S
C398 H366 0.929 . S
C398 C397 1.267 . S
C398 C399 1.251 . S
C399 H369 0.929 . S
C399 N395 1.418 1_554 S
C399 C398 1.251 . S
C400 H367 0.930 . S
C400 C402 1.406 . S
C400 C405 1.261 . S
C401 H368 0.930 . S
C401 N403 1.325 . S
C401 C404 1.357 . S
C402 H370 0.928 . S
C402 C400 1.406 . S
C402 N403 1.261 . S
N403 Co354 2.214 1_554 S
N403 C401 1.325 . S
N403 C402 1.261 . S
C404 H374 0.931 . S
C404 C401 1.357 . S
C404 C405 1.312 . S
C405 H376 0.930 . S
C405 C400 1.261 . S
C405 C404 1.312 . S
C406 O378 1.214 1_455 S
C406 O386 1.234 1_455 S
C407 H379 0.932 . S
C407 C410 1.391 . S
C407 C412 1.391 1_455 S
C408 H380 0.929 . S
C408 C409 1.390 . S
C408 N411 1.391 1_455 S
C409 H381 0.930 . S
C409 C408 1.390 . S
C409 C410 1.392 . S
C410 H382 0.929 . S
C410 C407 1.391 . S
C410 C409 1.392 . S
N411 Co355 2.257 . S
N411 C408 1.391 1_655 S
N411 C412 1.388 . S
C412 H383 0.930 . S
C412 C407 1.391 1_655 S
C412 N411 1.388 . S
Co413 O415 2.143 . S
Co413 O421 2.074 . S
Co413 O424 2.093 . S
Co413 O437 2.097 . S
Co413 N454 2.151 . S
Co413 N462 2.214 1_554 S
Co414 O415 2.160 . S
Co414 O420 2.058 . S
Co414 O430 2.057 . S
Co414 O445 2.037 . S
Co414 N449 2.145 . S
Co414 N470 2.257 . S
O415 Co413 2.143 . S
O415 Co414 2.160 . S
C416 O417 1.278 . S
C416 O424 1.224 . S
O417 C416 1.278 . S
C418 O419 1.245 . S
C418 O430 1.232 . S
O419 C418 1.245 . S
O420 Co414 2.058 . S
O420 C446 1.269 . S
O421 Co413 2.074 . S
O421 C446 1.257 . S
H422 C447 0.930 . S
H423 C453 0.930 . S
O424 Co413 2.093 . S
O424 C416 1.224 . S
H425 C457 0.929 . S
H426 C459 0.930 . S
H427 C460 0.930 . S
H428 C458 0.929 . S
H429 C461 0.928 . S
O430 Co414 2.057 . S
O430 C418 1.232 . S
H431 C450 0.929 . S
H432 C451 0.929 . S
H433 C463 0.931 . S
H434 C455 0.929 . S
H435 C464 0.930 . S
H436 C456 0.931 . S
O437 Co413 2.097 . S
O437 C465 1.214 1_545 S
H438 C466 0.932 . S
H439 C467 0.929 . S
H440 C468 0.930 . S
H441 C469 0.929 . S
H442 C471 0.930 . S
H443 C448 0.930 . S
H444 C452 0.930 . S
O445 Co414 2.037 . S
O445 C465 1.234 1_545 S
C446 O420 1.269 . S
C446 O421 1.257 . S
C447 H422 0.930 . S
C447 C450 1.388 . S
C447 C452 1.418 . S
C448 H443 0.930 . S
C448 C451 1.404 . S
C448 C452 1.353 . S
N449 Co414 2.145 . S
N449 C450 1.397 . S
N449 C451 1.334 . S
C450 H431 0.929 . S
C450 C447 1.388 . S
C450 N449 1.397 . S
C451 H432 0.929 . S
C451 C448 1.404 . S
C451 N449 1.334 . S
C452 H444 0.930 . S
C452 C447 1.418 . S
C452 C448 1.353 . S
C453 H423 0.930 . S
C453 N454 1.330 . S
C453 C455 1.446 . S
N454 Co413 2.151 . S
N454 C453 1.330 . S
N454 C458 1.418 1_554 S
C455 H434 0.929 . S
C455 C453 1.446 . S
C455 C456 1.332 1_554 S
C456 H436 0.931 . S
C456 C455 1.332 1_556 S
C456 C457 1.267 . S
C457 H425 0.929 . S
C457 C456 1.267 . S
C457 C458 1.251 . S
C458 H428 0.929 . S
C458 N454 1.418 1_556 S
C458 C457 1.251 . S
C459 H426 0.930 . S
C459 C461 1.406 . S
C459 C464 1.261 . S
C460 H427 0.930 . S
C460 N462 1.325 . S
C460 C463 1.357 . S
C461 H429 0.928 . S
C461 C459 1.406 . S
C461 N462 1.261 . S
N462 Co413 2.214 1_556 S
N462 C460 1.325 . S
N462 C461 1.261 . S
C463 H433 0.931 . S
C463 C460 1.357 . S
C463 C464 1.312 . S
C464 H435 0.930 . S
C464 C459 1.261 . S
C464 C463 1.312 . S
C465 O437 1.214 1_565 S
C465 O445 1.234 1_565 S
C466 H438 0.932 . S
C466 C469 1.391 . S
C466 C471 1.391 1_565 S
C467 H439 0.929 . S
C467 C468 1.390 . S
C467 N470 1.391 1_565 S
C468 H440 0.930 . S
C468 C467 1.390 . S
C468 C469 1.392 . S
C469 H441 0.929 . S
C469 C466 1.391 . S
C469 C468 1.392 . S
N470 Co414 2.257 . S
N470 C467 1.391 1_545 S
N470 C471 1.388 . S
C471 H442 0.930 . S
C471 C466 1.391 1_545 S
C471 N470 1.388 . S
Co472 O474 2.143 . S
Co472 O480 2.074 . S
Co472 O483 2.093 . S
Co472 O496 2.097 . S
Co472 N513 2.151 . S
Co472 N521 2.214 . S
Co473 O474 2.160 . S
Co473 O479 2.058 . S
Co473 O489 2.057 . S
Co473 O504 2.037 . S
Co473 N508 2.145 . S
Co473 N529 2.257 . S
O474 Co472 2.143 . S
O474 Co473 2.160 . S
C475 O476 1.278 . S
C475 O483 1.224 . S
O476 C475 1.278 . S
C477 O478 1.245 . S
C477 O489 1.232 . S
O478 C477 1.245 . S
O479 Co473 2.058 . S
O479 C505 1.269 . S
O480 Co472 2.074 . S
O480 C505 1.257 . S
H481 C506 0.930 . S
H482 C512 0.930 . S
O483 Co472 2.093 . S
O483 C475 1.224 . S
H484 C516 0.929 . S
H485 C518 0.930 . S
H486 C519 0.930 . S
H487 C517 0.929 . S
H488 C520 0.928 . S
O489 Co473 2.057 . S
O489 C477 1.232 . S
H490 C509 0.929 . S
H491 C510 0.929 . S
H492 C522 0.931 . S
H493 C514 0.929 . S
H494 C523 0.930 . S
H495 C515 0.931 . S
O496 Co472 2.097 . S
O496 C524 1.214 . S
H497 C525 0.929 . S
H498 C526 0.929 . S
H499 C527 0.930 . S
H500 C528 0.929 . S
H501 C530 0.930 . S
H502 C507 0.930 . S
H503 C511 0.930 . S
O504 Co473 2.037 . S
O504 C524 1.234 . S
C505 O479 1.269 . S
C505 O480 1.257 . S
C506 H481 0.930 . S
C506 C509 1.388 . S
C506 C511 1.418 . S
C507 H502 0.930 . S
C507 C510 1.404 . S
C507 C511 1.353 . S
N508 Co473 2.145 . S
N508 C509 1.397 . S
N508 C510 1.334 . S
C509 H490 0.929 . S
C509 C506 1.388 . S
C509 N508 1.397 . S
C510 H491 0.929 . S
C510 C507 1.404 . S
C510 N508 1.334 . S
C511 H503 0.930 . S
C511 C506 1.418 . S
C511 C507 1.353 . S
C512 H482 0.930 . S
C512 N513 1.330 . S
C512 C514 1.446 . S
N513 Co472 2.151 . S
N513 C512 1.330 . S
N513 C517 1.418 . S
C514 H493 0.929 . S
C514 C512 1.446 . S
C514 C515 1.332 . S
C515 H495 0.931 . S
C515 C514 1.332 . S
C515 C516 1.267 . S
C516 H484 0.929 . S
C516 C515 1.267 . S
C516 C517 1.251 . S
C517 H487 0.929 . S
C517 N513 1.418 . S
C517 C516 1.251 . S
C518 H485 0.930 . S
C518 C520 1.406 . S
C518 C523 1.261 . S
C519 H486 0.930 . S
C519 N521 1.325 . S
C519 C522 1.357 . S
C520 H488 0.928 . S
C520 C518 1.406 . S
C520 N521 1.261 . S
N521 Co472 2.214 . S
N521 C519 1.325 . S
N521 C520 1.261 . S
C522 H492 0.931 . S
C522 C519 1.357 . S
C522 C523 1.312 . S
C523 H494 0.930 . S
C523 C518 1.261 . S
C523 C522 1.312 . S
C524 O496 1.214 . S
C524 O504 1.234 . S
C525 H497 0.929 . S
C525 C528 1.391 . S
C525 C530 1.391 . S
C526 H498 0.929 . S
C526 C527 1.390 . S
C526 N529 1.391 . S
C527 H499 0.930 . S
C527 C526 1.390 . S
C527 C528 1.392 . S
C528 H500 0.929 . S
C528 C525 1.391 . S
C528 C527 1.392 . S
N529 Co473 2.257 . S
N529 C526 1.391 . S
N529 C530 1.388 . S
C530 H501 0.930 . S
C530 C525 1.391 . S
C530 N529 1.388 . S
Co531 O533 2.143 . S
Co531 O539 2.074 . S
Co531 O542 2.093 . S
Co531 O555 2.097 . S
Co531 N572 2.151 . S
Co531 N580 2.214 . S
Co532 O533 2.160 . S
Co532 O538 2.058 . S
Co532 O548 2.057 . S
Co532 O563 2.037 . S
Co532 N567 2.145 . S
Co532 N588 2.257 . S
O533 Co531 2.143 . S
O533 Co532 2.160 . S
C534 O535 1.278 . S
C534 O542 1.224 . S
O535 C534 1.278 . S
C536 O537 1.245 . S
C536 O548 1.232 . S
O537 C536 1.245 . S
O538 Co532 2.058 . S
O538 C564 1.269 . S
O539 Co531 2.074 . S
O539 C564 1.257 . S
H540 C565 0.930 . S
H541 C571 0.930 . S
O542 Co531 2.093 . S
O542 C534 1.224 . S
H543 C575 0.929 . S
H544 C577 0.930 . S
H545 C578 0.930 . S
H546 C576 0.929 . S
H547 C579 0.928 . S
O548 Co532 2.057 . S
O548 C536 1.232 . S
H549 C568 0.929 . S
H550 C569 0.929 . S
H551 C581 0.931 . S
H552 C573 0.929 . S
H553 C582 0.930 . S
H554 C574 0.931 . S
O555 Co531 2.097 . S
O555 C583 1.214 . S
H556 C584 0.929 . S
H557 C585 0.929 . S
H558 C586 0.930 . S
H559 C587 0.929 . S
H560 C589 0.930 . S
H561 C566 0.930 . S
H562 C570 0.930 . S
O563 Co532 2.037 . S
O563 C583 1.234 . S
C564 O538 1.269 . S
C564 O539 1.257 . S
C565 H540 0.930 . S
C565 C568 1.388 . S
C565 C570 1.418 . S
C566 H561 0.930 . S
C566 C569 1.404 . S
C566 C570 1.353 . S
N567 Co532 2.145 . S
N567 C568 1.397 . S
N567 C569 1.334 . S
C568 H549 0.929 . S
C568 C565 1.388 . S
C568 N567 1.397 . S
C569 H550 0.929 . S
C569 C566 1.404 . S
C569 N567 1.334 . S
C570 H562 0.930 . S
C570 C565 1.418 . S
C570 C566 1.353 . S
C571 H541 0.930 . S
C571 N572 1.330 . S
C571 C573 1.446 . S
N572 Co531 2.151 . S
N572 C571 1.330 . S
N572 C576 1.418 . S
C573 H552 0.929 . S
C573 C571 1.446 . S
C573 C574 1.332 . S
C574 H554 0.931 . S
C574 C573 1.332 . S
C574 C575 1.267 . S
C575 H543 0.929 . S
C575 C574 1.267 . S
C575 C576 1.251 . S
C576 H546 0.929 . S
C576 N572 1.418 . S
C576 C575 1.251 . S
C577 H544 0.930 . S
C577 C579 1.406 . S
C577 C582 1.261 . S
C578 H545 0.930 . S
C578 N580 1.325 . S
C578 C581 1.357 . S
C579 H547 0.928 . S
C579 C577 1.406 . S
C579 N580 1.261 . S
N580 Co531 2.214 . S
N580 C578 1.325 . S
N580 C579 1.261 . S
C581 H551 0.931 . S
C581 C578 1.357 . S
C581 C582 1.312 . S
C582 H553 0.930 . S
C582 C577 1.261 . S
C582 C581 1.312 . S
C583 O555 1.214 . S
C583 O563 1.234 . S
C584 H556 0.929 . S
C584 C587 1.391 . S
C584 C589 1.391 . S
C585 H557 0.929 . S
C585 C586 1.390 . S
C585 N588 1.391 . S
C586 H558 0.930 . S
C586 C585 1.390 . S
C586 C587 1.392 . S
C587 H559 0.929 . S
C587 C584 1.391 . S
C587 C586 1.392 . S
N588 Co532 2.257 . S
N588 C585 1.391 . S
N588 C589 1.388 . S
C589 H560 0.930 . S
C589 C584 1.391 . S
C589 N588 1.388 . S
Co590 O592 2.143 . S
Co590 O598 2.074 . S
Co590 O601 2.093 . S
Co590 O614 2.097 . S
Co590 N631 2.151 . S
Co590 N639 2.214 . S
Co591 O592 2.160 . S
Co591 O597 2.058 . S
Co591 O607 2.057 . S
Co591 O622 2.037 . S
Co591 N626 2.145 . S
Co591 N647 2.257 . S
O592 Co590 2.143 . S
O592 Co591 2.160 . S
C593 O594 1.278 . S
C593 O601 1.224 . S
O594 C593 1.278 . S
C595 O596 1.245 . S
C595 O607 1.232 . S
O596 C595 1.245 . S
O597 Co591 2.058 . S
O597 C623 1.269 . S
O598 Co590 2.074 . S
O598 C623 1.257 . S
H599 C624 0.930 . S
H600 C630 0.930 . S
O601 Co590 2.093 . S
O601 C593 1.224 . S
H602 C634 0.929 . S
H603 C636 0.930 . S
H604 C637 0.930 . S
H605 C635 0.929 . S
H606 C638 0.928 . S
O607 Co591 2.057 . S
O607 C595 1.232 . S
H608 C627 0.929 . S
H609 C628 0.929 . S
H610 C640 0.931 . S
H611 C632 0.929 . S
H612 C641 0.930 . S
H613 C633 0.931 . S
O614 Co590 2.097 . S
O614 C642 1.214 . S
H615 C643 0.929 . S
H616 C644 0.929 . S
H617 C645 0.930 . S
H618 C646 0.929 . S
H619 C648 0.930 . S
H620 C625 0.930 . S
H621 C629 0.930 . S
O622 Co591 2.037 . S
O622 C642 1.234 . S
C623 O597 1.269 . S
C623 O598 1.257 . S
C624 H599 0.930 . S
C624 C627 1.388 . S
C624 C629 1.418 . S
C625 H620 0.930 . S
C625 C628 1.404 . S
C625 C629 1.353 . S
N626 Co591 2.145 . S
N626 C627 1.397 . S
N626 C628 1.334 . S
C627 H608 0.929 . S
C627 C624 1.388 . S
C627 N626 1.397 . S
C628 H609 0.929 . S
C628 C625 1.404 . S
C628 N626 1.334 . S
C629 H621 0.930 . S
C629 C624 1.418 . S
C629 C625 1.353 . S
C630 H600 0.930 . S
C630 N631 1.330 . S
C630 C632 1.446 . S
N631 Co590 2.151 . S
N631 C630 1.330 . S
N631 C635 1.418 . S
C632 H611 0.929 . S
C632 C630 1.446 . S
C632 C633 1.332 . S
C633 H613 0.931 . S
C633 C632 1.332 . S
C633 C634 1.267 . S
C634 H602 0.929 . S
C634 C633 1.267 . S
C634 C635 1.251 . S
C635 H605 0.929 . S
C635 N631 1.418 . S
C635 C634 1.251 . S
C636 H603 0.930 . S
C636 C638 1.406 . S
C636 C641 1.261 . S
C637 H604 0.930 . S
C637 N639 1.325 . S
C637 C640 1.357 . S
C638 H606 0.928 . S
C638 C636 1.406 . S
C638 N639 1.261 . S
N639 Co590 2.214 . S
N639 C637 1.325 . S
N639 C638 1.261 . S
C640 H610 0.931 . S
C640 C637 1.357 . S
C640 C641 1.312 . S
C641 H612 0.930 . S
C641 C636 1.261 . S
C641 C640 1.312 . S
C642 O614 1.214 . S
C642 O622 1.234 . S
C643 H615 0.929 . S
C643 C646 1.391 . S
C643 C648 1.391 . S
C644 H616 0.929 . S
C644 C645 1.390 . S
C644 N647 1.391 . S
C645 H617 0.930 . S
C645 C644 1.390 . S
C645 C646 1.392 . S
C646 H618 0.929 . S
C646 C643 1.391 . S
C646 C645 1.392 . S
N647 Co591 2.257 . S
N647 C644 1.391 . S
N647 C648 1.388 . S
C648 H619 0.930 . S
C648 C643 1.391 . S
C648 N647 1.388 . S
Co649 O651 2.143 . S
Co649 O657 2.074 . S
Co649 O660 2.093 . S
Co649 O673 2.097 . S
Co649 N690 2.151 . S
Co649 N698 2.214 . S
Co650 O651 2.160 . S
Co650 O656 2.058 . S
Co650 O666 2.057 . S
Co650 O681 2.037 . S
Co650 N685 2.145 . S
Co650 N706 2.257 . S
O651 Co649 2.143 . S
O651 Co650 2.160 . S
C652 O653 1.278 . S
C652 O660 1.224 . S
O653 C652 1.278 . S
C654 O655 1.245 . S
C654 O666 1.232 . S
O655 C654 1.245 . S
O656 Co650 2.058 . S
O656 C682 1.269 . S
O657 Co649 2.074 . S
O657 C682 1.257 . S
H658 C683 0.930 . S
H659 C689 0.930 . S
O660 Co649 2.093 . S
O660 C652 1.224 . S
H661 C693 0.929 . S
H662 C695 0.930 . S
H663 C696 0.930 . S
H664 C694 0.929 . S
H665 C697 0.928 . S
O666 Co650 2.057 . S
O666 C654 1.232 . S
H667 C686 0.929 . S
H668 C687 0.929 . S
H669 C699 0.931 . S
H670 C691 0.929 . S
H671 C700 0.930 . S
H672 C692 0.931 . S
O673 Co649 2.097 . S
O673 C701 1.214 . S
H674 C702 0.929 . S
H675 C703 0.929 . S
H676 C704 0.930 . S
H677 C705 0.929 . S
H678 C707 0.930 . S
H679 C684 0.930 . S
H680 C688 0.930 . S
O681 Co650 2.037 . S
O681 C701 1.234 . S
C682 O656 1.269 . S
C682 O657 1.257 . S
C683 H658 0.930 . S
C683 C686 1.388 . S
C683 C688 1.418 . S
C684 H679 0.930 . S
C684 C687 1.404 . S
C684 C688 1.353 . S
N685 Co650 2.145 . S
N685 C686 1.397 . S
N685 C687 1.334 . S
C686 H667 0.929 . S
C686 C683 1.388 . S
C686 N685 1.397 . S
C687 H668 0.929 . S
C687 C684 1.404 . S
C687 N685 1.334 . S
C688 H680 0.930 . S
C688 C683 1.418 . S
C688 C684 1.353 . S
C689 H659 0.930 . S
C689 N690 1.330 . S
C689 C691 1.446 . S
N690 Co649 2.151 . S
N690 C689 1.330 . S
N690 C694 1.418 . S
C691 H670 0.929 . S
C691 C689 1.446 . S
C691 C692 1.332 . S
C692 H672 0.931 . S
C692 C691 1.332 . S
C692 C693 1.267 . S
C693 H661 0.929 . S
C693 C692 1.267 . S
C693 C694 1.251 . S
C694 H664 0.929 . S
C694 N690 1.418 . S
C694 C693 1.251 . S
C695 H662 0.930 . S
C695 C697 1.406 . S
C695 C700 1.261 . S
C696 H663 0.930 . S
C696 N698 1.325 . S
C696 C699 1.357 . S
C697 H665 0.928 . S
C697 C695 1.406 . S
C697 N698 1.261 . S
N698 Co649 2.214 . S
N698 C696 1.325 . S
N698 C697 1.261 . S
C699 H669 0.931 . S
C699 C696 1.357 . S
C699 C700 1.312 . S
C700 H671 0.930 . S
C700 C695 1.261 . S
C700 C699 1.312 . S
C701 O673 1.214 . S
C701 O681 1.234 . S
C702 H674 0.929 . S
C702 C705 1.391 . S
C702 C707 1.391 . S
C703 H675 0.929 . S
C703 C704 1.390 . S
C703 N706 1.391 . S
C704 H676 0.930 . S
C704 C703 1.390 . S
C704 C705 1.392 . S
C705 H677 0.929 . S
C705 C702 1.391 . S
C705 C704 1.392 . S
N706 Co650 2.257 . S
N706 C703 1.391 . S
N706 C707 1.388 . S
C707 H678 0.930 . S
C707 C702 1.391 . S
C707 N706 1.388 . S
Co708 O710 2.143 . S
Co708 O716 2.074 . S
Co708 O719 2.093 . S
Co708 O732 2.097 . S
Co708 N749 2.151 . S
Co708 N757 2.214 . S
Co709 O710 2.160 . S
Co709 O715 2.058 . S
Co709 O725 2.057 . S
Co709 O740 2.037 . S
Co709 N744 2.145 . S
Co709 N765 2.257 . S
O710 Co708 2.143 . S
O710 Co709 2.160 . S
C711 O712 1.278 . S
C711 O719 1.224 . S
O712 C711 1.278 . S
C713 O714 1.245 . S
C713 O725 1.232 . S
O714 C713 1.245 . S
O715 Co709 2.058 . S
O715 C741 1.269 . S
O716 Co708 2.074 . S
O716 C741 1.257 . S
H717 C742 0.930 . S
H718 C748 0.930 . S
O719 Co708 2.093 . S
O719 C711 1.224 . S
H720 C752 0.929 . S
H721 C754 0.930 . S
H722 C755 0.930 . S
H723 C753 0.929 . S
H724 C756 0.928 . S
O725 Co709 2.057 . S
O725 C713 1.232 . S
H726 C745 0.929 . S
H727 C746 0.929 . S
H728 C758 0.931 . S
H729 C750 0.929 . S
H730 C759 0.930 . S
H731 C751 0.931 . S
O732 Co708 2.097 . S
O732 C760 1.214 . S
H733 C761 0.929 . S
H734 C762 0.929 . S
H735 C763 0.930 . S
H736 C764 0.929 . S
H737 C766 0.930 . S
H738 C743 0.930 . S
H739 C747 0.930 . S
O740 Co709 2.037 . S
O740 C760 1.234 . S
C741 O715 1.269 . S
C741 O716 1.257 . S
C742 H717 0.930 . S
C742 C745 1.388 . S
C742 C747 1.418 . S
C743 H738 0.930 . S
C743 C746 1.404 . S
C743 C747 1.353 . S
N744 Co709 2.145 . S
N744 C745 1.397 . S
N744 C746 1.334 . S
C745 H726 0.929 . S
C745 C742 1.388 . S
C745 N744 1.397 . S
C746 H727 0.929 . S
C746 C743 1.404 . S
C746 N744 1.334 . S
C747 H739 0.930 . S
C747 C742 1.418 . S
C747 C743 1.353 . S
C748 H718 0.930 . S
C748 N749 1.330 . S
C748 C750 1.446 . S
N749 Co708 2.151 . S
N749 C748 1.330 . S
N749 C753 1.418 . S
C750 H729 0.929 . S
C750 C748 1.446 . S
C750 C751 1.332 . S
C751 H731 0.931 . S
C751 C750 1.332 . S
C751 C752 1.267 . S
C752 H720 0.929 . S
C752 C751 1.267 . S
C752 C753 1.251 . S
C753 H723 0.929 . S
C753 N749 1.418 . S
C753 C752 1.251 . S
C754 H721 0.930 . S
C754 C756 1.406 . S
C754 C759 1.261 . S
C755 H722 0.930 . S
C755 N757 1.325 . S
C755 C758 1.357 . S
C756 H724 0.928 . S
C756 C754 1.406 . S
C756 N757 1.261 . S
N757 Co708 2.214 . S
N757 C755 1.325 . S
N757 C756 1.261 . S
C758 H728 0.931 . S
C758 C755 1.357 . S
C758 C759 1.312 . S
C759 H730 0.930 . S
C759 C754 1.261 . S
C759 C758 1.312 . S
C760 O732 1.214 . S
C760 O740 1.234 . S
C761 H733 0.929 . S
C761 C764 1.391 . S
C761 C766 1.391 . S
C762 H734 0.929 . S
C762 C763 1.390 . S
C762 N765 1.391 . S
C763 H735 0.930 . S
C763 C762 1.390 . S
C763 C764 1.392 . S
C764 H736 0.929 . S
C764 C761 1.391 . S
C764 C763 1.392 . S
N765 Co709 2.257 . S
N765 C762 1.391 . S
N765 C766 1.388 . S
C766 H737 0.930 . S
C766 C761 1.391 . S
C766 N765 1.388 . S
Co767 O769 2.143 . S
Co767 O775 2.074 . S
Co767 O778 2.093 . S
Co767 O791 2.097 . S
Co767 N808 2.151 . S
Co767 N816 2.214 . S
Co768 O769 2.160 . S
Co768 O774 2.058 . S
Co768 O784 2.057 . S
Co768 O799 2.037 . S
Co768 N803 2.145 . S
Co768 N824 2.257 . S
O769 Co767 2.143 . S
O769 Co768 2.160 . S
C770 O771 1.278 . S
C770 O778 1.224 . S
O771 C770 1.278 . S
C772 O773 1.245 . S
C772 O784 1.232 . S
O773 C772 1.245 . S
O774 Co768 2.058 . S
O774 C800 1.269 . S
O775 Co767 2.074 . S
O775 C800 1.257 . S
H776 C801 0.930 . S
H777 C807 0.930 . S
O778 Co767 2.093 . S
O778 C770 1.224 . S
H779 C811 0.929 . S
H780 C813 0.930 . S
H781 C814 0.930 . S
H782 C812 0.929 . S
H783 C815 0.928 . S
O784 Co768 2.057 . S
O784 C772 1.232 . S
H785 C804 0.929 . S
H786 C805 0.929 . S
H787 C817 0.931 . S
H788 C809 0.929 . S
H789 C818 0.930 . S
H790 C810 0.931 . S
O791 Co767 2.097 . S
O791 C819 1.214 . S
H792 C820 0.929 . S
H793 C821 0.929 . S
H794 C822 0.930 . S
H795 C823 0.929 . S
H796 C825 0.930 . S
H797 C802 0.930 . S
H798 C806 0.930 . S
O799 Co768 2.037 . S
O799 C819 1.234 . S
C800 O774 1.269 . S
C800 O775 1.257 . S
C801 H776 0.930 . S
C801 C804 1.388 . S
C801 C806 1.418 . S
C802 H797 0.930 . S
C802 C805 1.404 . S
C802 C806 1.353 . S
N803 Co768 2.145 . S
N803 C804 1.397 . S
N803 C805 1.334 . S
C804 H785 0.929 . S
C804 C801 1.388 . S
C804 N803 1.397 . S
C805 H786 0.929 . S
C805 C802 1.404 . S
C805 N803 1.334 . S
C806 H798 0.930 . S
C806 C801 1.418 . S
C806 C802 1.353 . S
C807 H777 0.930 . S
C807 N808 1.330 . S
C807 C809 1.446 . S
N808 Co767 2.151 . S
N808 C807 1.330 . S
N808 C812 1.418 . S
C809 H788 0.929 . S
C809 C807 1.446 . S
C809 C810 1.332 . S
C810 H790 0.931 . S
C810 C809 1.332 . S
C810 C811 1.267 . S
C811 H779 0.929 . S
C811 C810 1.267 . S
C811 C812 1.251 . S
C812 H782 0.929 . S
C812 N808 1.418 . S
C812 C811 1.251 . S
C813 H780 0.930 . S
C813 C815 1.406 . S
C813 C818 1.261 . S
C814 H781 0.930 . S
C814 N816 1.325 . S
C814 C817 1.357 . S
C815 H783 0.928 . S
C815 C813 1.406 . S
C815 N816 1.261 . S
N816 Co767 2.214 . S
N816 C814 1.325 . S
N816 C815 1.261 . S
C817 H787 0.931 . S
C817 C814 1.357 . S
C817 C818 1.312 . S
C818 H789 0.930 . S
C818 C813 1.261 . S
C818 C817 1.312 . S
C819 O791 1.214 . S
C819 O799 1.234 . S
C820 H792 0.929 . S
C820 C823 1.391 . S
C820 C825 1.391 . S
C821 H793 0.929 . S
C821 C822 1.390 . S
C821 N824 1.391 . S
C822 H794 0.930 . S
C822 C821 1.390 . S
C822 C823 1.392 . S
C823 H795 0.929 . S
C823 C820 1.391 . S
C823 C822 1.392 . S
N824 Co768 2.257 . S
N824 C821 1.391 . S
N824 C825 1.388 . S
C825 H796 0.930 . S
C825 C820 1.391 . S
C825 N824 1.388 . S
Co826 O828 2.143 . S
Co826 O834 2.074 . S
Co826 O837 2.093 . S
Co826 O850 2.097 . S
Co826 N867 2.151 . S
Co826 N875 2.214 . S
Co827 O828 2.160 . S
Co827 O833 2.058 . S
Co827 O843 2.057 . S
Co827 O858 2.037 . S
Co827 N862 2.145 . S
Co827 N883 2.257 . S
O828 Co826 2.143 . S
O828 Co827 2.160 . S
C829 O830 1.278 . S
C829 O837 1.224 . S
O830 C829 1.278 . S
C831 O832 1.245 . S
C831 O843 1.232 . S
O832 C831 1.245 . S
O833 Co827 2.058 . S
O833 C859 1.269 . S
O834 Co826 2.074 . S
O834 C859 1.257 . S
H835 C860 0.930 . S
H836 C866 0.930 . S
O837 Co826 2.093 . S
O837 C829 1.224 . S
H838 C870 0.929 . S
H839 C872 0.930 . S
H840 C873 0.930 . S
H841 C871 0.929 . S
H842 C874 0.928 . S
O843 Co827 2.057 . S
O843 C831 1.232 . S
H844 C863 0.929 . S
H845 C864 0.929 . S
H846 C876 0.931 . S
H847 C868 0.929 . S
H848 C877 0.930 . S
H849 C869 0.931 . S
O850 Co826 2.097 . S
O850 C878 1.214 . S
H851 C879 0.929 . S
H852 C880 0.929 . S
H853 C881 0.930 . S
H854 C882 0.929 . S
H855 C884 0.930 . S
H856 C861 0.930 . S
H857 C865 0.930 . S
O858 Co827 2.037 . S
O858 C878 1.234 . S
C859 O833 1.269 . S
C859 O834 1.257 . S
C860 H835 0.930 . S
C860 C863 1.388 . S
C860 C865 1.418 . S
C861 H856 0.930 . S
C861 C864 1.404 . S
C861 C865 1.353 . S
N862 Co827 2.145 . S
N862 C863 1.397 . S
N862 C864 1.334 . S
C863 H844 0.929 . S
C863 C860 1.388 . S
C863 N862 1.397 . S
C864 H845 0.929 . S
C864 C861 1.404 . S
C864 N862 1.334 . S
C865 H857 0.930 . S
C865 C860 1.418 . S
C865 C861 1.353 . S
C866 H836 0.930 . S
C866 N867 1.330 . S
C866 C868 1.446 . S
N867 Co826 2.151 . S
N867 C866 1.330 . S
N867 C871 1.418 . S
C868 H847 0.929 . S
C868 C866 1.446 . S
C868 C869 1.332 . S
C869 H849 0.931 . S
C869 C868 1.332 . S
C869 C870 1.267 . S
C870 H838 0.929 . S
C870 C869 1.267 . S
C870 C871 1.251 . S
C871 H841 0.929 . S
C871 N867 1.418 . S
C871 C870 1.251 . S
C872 H839 0.930 . S
C872 C874 1.406 . S
C872 C877 1.261 . S
C873 H840 0.930 . S
C873 N875 1.325 . S
C873 C876 1.357 . S
C874 H842 0.928 . S
C874 C872 1.406 . S
C874 N875 1.261 . S
N875 Co826 2.214 . S
N875 C873 1.325 . S
N875 C874 1.261 . S
C876 H846 0.931 . S
C876 C873 1.357 . S
C876 C877 1.312 . S
C877 H848 0.930 . S
C877 C872 1.261 . S
C877 C876 1.312 . S
C878 O850 1.214 . S
C878 O858 1.234 . S
C879 H851 0.929 . S
C879 C882 1.391 . S
C879 C884 1.391 . S
C880 H852 0.929 . S
C880 C881 1.390 . S
C880 N883 1.391 . S
C881 H853 0.930 . S
C881 C880 1.390 . S
C881 C882 1.392 . S
C882 H854 0.929 . S
C882 C879 1.391 . S
C882 C881 1.392 . S
N883 Co827 2.257 . S
N883 C880 1.391 . S
N883 C884 1.388 . S
C884 H855 0.930 . S
C884 C879 1.391 . S
C884 N883 1.388 . S
Co885 O887 2.143 . S
Co885 O893 2.074 . S
Co885 O896 2.093 . S
Co885 O909 2.097 . S
Co885 N926 2.151 . S
Co885 N934 2.214 . S
Co886 O887 2.160 . S
Co886 O892 2.058 . S
Co886 O902 2.057 . S
Co886 O917 2.037 . S
Co886 N921 2.145 . S
Co886 N942 2.257 . S
O887 Co885 2.143 . S
O887 Co886 2.160 . S
C888 O889 1.278 . S
C888 O896 1.224 . S
O889 C888 1.278 . S
C890 O891 1.245 . S
C890 O902 1.232 . S
O891 C890 1.245 . S
O892 Co886 2.058 . S
O892 C918 1.269 . S
O893 Co885 2.074 . S
O893 C918 1.257 . S
H894 C919 0.930 . S
H895 C925 0.930 . S
O896 Co885 2.093 . S
O896 C888 1.224 . S
H897 C929 0.929 . S
H898 C931 0.930 . S
H899 C932 0.930 . S
H900 C930 0.929 . S
H901 C933 0.928 . S
O902 Co886 2.057 . S
O902 C890 1.232 . S
H903 C922 0.929 . S
H904 C923 0.929 . S
H905 C935 0.931 . S
H906 C927 0.929 . S
H907 C936 0.930 . S
H908 C928 0.931 . S
O909 Co885 2.097 . S
O909 C937 1.214 . S
H910 C938 0.929 . S
H911 C939 0.929 . S
H912 C940 0.930 . S
H913 C941 0.929 . S
H914 C943 0.930 . S
H915 C920 0.930 . S
H916 C924 0.930 . S
O917 Co886 2.037 . S
O917 C937 1.234 . S
C918 O892 1.269 . S
C918 O893 1.257 . S
C919 H894 0.930 . S
C919 C922 1.388 . S
C919 C924 1.418 . S
C920 H915 0.930 . S
C920 C923 1.404 . S
C920 C924 1.353 . S
N921 Co886 2.145 . S
N921 C922 1.397 . S
N921 C923 1.334 . S
C922 H903 0.929 . S
C922 C919 1.388 . S
C922 N921 1.397 . S
C923 H904 0.929 . S
C923 C920 1.404 . S
C923 N921 1.334 . S
C924 H916 0.930 . S
C924 C919 1.418 . S
C924 C920 1.353 . S
C925 H895 0.930 . S
C925 N926 1.330 . S
C925 C927 1.446 . S
N926 Co885 2.151 . S
N926 C925 1.330 . S
N926 C930 1.418 . S
C927 H906 0.929 . S
C927 C925 1.446 . S
C927 C928 1.332 . S
C928 H908 0.931 . S
C928 C927 1.332 . S
C928 C929 1.267 . S
C929 H897 0.929 . S
C929 C928 1.267 . S
C929 C930 1.251 . S
C930 H900 0.929 . S
C930 N926 1.418 . S
C930 C929 1.251 . S
C931 H898 0.930 . S
C931 C933 1.406 . S
C931 C936 1.261 . S
C932 H899 0.930 . S
C932 N934 1.325 . S
C932 C935 1.357 . S
C933 H901 0.928 . S
C933 C931 1.406 . S
C933 N934 1.261 . S
N934 Co885 2.214 . S
N934 C932 1.325 . S
N934 C933 1.261 . S
C935 H905 0.931 . S
C935 C932 1.357 . S
C935 C936 1.312 . S
C936 H907 0.930 . S
C936 C931 1.261 . S
C936 C935 1.312 . S
C937 O909 1.214 . S
C937 O917 1.234 . S
C938 H910 0.929 . S
C938 C941 1.391 . S
C938 C943 1.391 . S
C939 H911 0.929 . S
C939 C940 1.390 . S
C939 N942 1.391 . S
C940 H912 0.930 . S
C940 C939 1.390 . S
C940 C941 1.392 . S
C941 H913 0.929 . S
C941 C938 1.391 . S
C941 C940 1.392 . S
N942 Co886 2.257 . S
N942 C939 1.391 . S
N942 C943 1.388 . S
C943 H914 0.930 . S
C943 C938 1.391 . S
C943 N942 1.388 . S
C944 C945 1.387 . S
C944 H948 0.950 . S
C944 C953 1.390 . S
C945 C944 1.387 . S
C945 C947 1.387 . S
H946 C953 0.950 . S
C947 C945 1.387 . S
C947 C949 1.390 . S
C947 H951 0.950 . S
H948 C944 0.950 . S
C949 C947 1.390 . S
C949 C950 1.387 . S
C949 H952 0.950 . S
C950 C949 1.387 . S
C950 C953 1.387 . S
H951 C947 0.950 . S
H952 C949 0.950 . S
C953 C944 1.390 . S
C953 H946 0.950 . S
C953 C950 1.387 . S
C954 C955 1.387 . S
C954 H958 0.950 . S
C954 C963 1.390 . S
C955 C954 1.387 . S
C955 C957 1.387 . S
H956 C963 0.950 . S
C957 C955 1.387 . S
C957 C959 1.390 . S
C957 H961 0.950 . S
H958 C954 0.950 . S
C959 C957 1.390 . S
C959 C960 1.387 . S
C959 H962 0.950 . S
C960 C959 1.387 . S
C960 C963 1.387 . S
H961 C957 0.950 . S
H962 C959 0.950 . S
C963 C954 1.390 . S
C963 H956 0.950 . S
C963 C960 1.387 . S
C964 C965 1.387 . S
C964 H968 0.950 . S
C964 C973 1.390 . S
C965 C964 1.387 . S
C965 C967 1.387 . S
H966 C973 0.950 . S
C967 C965 1.387 . S
C967 C969 1.390 . S
C967 H971 0.950 . S
H968 C964 0.950 . S
C969 C967 1.390 . S
C969 C970 1.387 . S
C969 H972 0.950 . S
C970 C969 1.387 . S
C970 C973 1.387 . S
H971 C967 0.950 . S
H972 C969 0.950 . S
C973 C964 1.390 . S
C973 H966 0.950 . S
C973 C970 1.387 . S
C974 C975 1.387 . S
C974 H978 0.950 . S
C974 C983 1.390 . S
C975 C974 1.387 . S
C975 C977 1.387 . S
H976 C983 0.950 . S
C977 C975 1.387 . S
C977 C979 1.390 . S
C977 H981 0.950 . S
H978 C974 0.950 . S
C979 C977 1.390 . S
C979 C980 1.387 . S
C979 H982 0.950 . S
C980 C979 1.387 . S
C980 C983 1.387 . S
H981 C977 0.950 . S
H982 C979 0.950 . S
C983 C974 1.390 . S
C983 H976 0.950 . S
C983 C980 1.387 . S
C984 C985 1.387 . S
C984 H988 0.950 . S
C984 C993 1.390 . S
C985 C984 1.387 . S
C985 C987 1.393 . S
H986 C993 0.950 . S
C987 C985 1.393 . S
C987 C989 1.387 1_554 S
C987 H991 0.948 1_554 S
H988 C984 0.950 . S
C989 C987 1.387 1_556 S
C989 C990 1.387 . S
C989 H992 0.950 . S
C990 C989 1.387 . S
C990 C993 1.387 1_556 S
H991 C987 0.948 1_556 S
H992 C989 0.950 . S
C993 C984 1.390 . S
C993 H986 0.950 . S
C993 C990 1.387 1_554 S
C994 C995 1.387 1_556 S
C994 H998 0.950 . S
C994 C1003 1.390 . S
C995 C994 1.387 1_554 S
C995 C997 1.387 . S
H996 C1003 0.950 . S
C997 C995 1.387 . S
C997 C999 1.390 1_554 S
C997 H1001 0.950 . S
H998 C994 0.950 . S
C999 C997 1.390 1_556 S
C999 C1000 1.387 . S
C999 H1002 0.950 . S
C1000 C999 1.387 . S
C1000 C1003 1.387 . S
H1001 C997 0.950 . S
H1002 C999 0.950 . S
C1003 C994 1.390 . S
C1003 H996 0.950 . S
C1003 C1000 1.387 . S
C1004 C1005 1.387 . S
C1004 H1008 0.950 . S
C1004 C1013 1.390 1_556 S
C1005 C1004 1.387 . S
C1005 C1007 1.387 1_556 S
H1006 C1013 0.950 . S
C1007 C1005 1.387 1_554 S
C1007 C1009 1.390 . S
C1007 H1011 0.950 . S
H1008 C1004 0.950 . S
C1009 C1007 1.390 . S
C1009 C1010 1.387 . S
C1009 H1012 0.950 . S
C1010 C1009 1.387 . S
C1010 C1013 1.387 . S
H1011 C1007 0.950 . S
H1012 C1009 0.950 . S
C1013 C1004 1.390 1_554 S
C1013 H1006 0.950 . S
C1013 C1010 1.387 . S
C1014 C1015 1.387 1_556 S
C1014 H1018 0.950 . S
C1014 C1023 1.390 . S
C1015 C1014 1.387 1_554 S
C1015 C1017 1.387 . S
H1016 C1023 0.950 . S
C1017 C1015 1.387 . S
C1017 C1019 1.390 . S
C1017 H1021 0.950 . S
H1018 C1014 0.950 . S
C1019 C1017 1.390 . S
C1019 C1020 1.387 1_554 S
C1019 H1022 0.950 . S
C1020 C1019 1.387 1_556 S
C1020 C1023 1.387 . S
H1021 C1017 0.950 . S
H1022 C1019 0.950 . S
C1023 C1014 1.390 . S
C1023 H1016 0.950 . S
C1023 C1020 1.387 . S
C1024 C1025 1.387 . S
C1024 H1028 0.950 . S
C1024 C1033 1.390 . S
C1025 C1024 1.387 . S
C1025 C1027 1.387 . S
H1026 C1033 0.950 . S
C1027 C1025 1.387 . S
C1027 C1029 1.390 . S
C1027 H1031 0.950 . S
H1028 C1024 0.950 . S
C1029 C1027 1.390 . S
C1029 C1030 1.387 . S
C1029 H1032 0.950 . S
C1030 C1029 1.387 . S
C1030 C1033 1.387 . S
H1031 C1027 0.950 . S
H1032 C1029 0.950 . S
C1033 C1024 1.390 . S
C1033 H1026 0.950 . S
C1033 C1030 1.387 . S
C1034 C1035 1.387 . S
C1034 H1038 0.950 . S
C1034 C1043 1.390 . S
C1035 C1034 1.387 . S
C1035 C1037 1.387 . S
H1036 C1043 0.950 . S
C1037 C1035 1.387 . S
C1037 C1039 1.390 . S
C1037 H1041 0.950 . S
H1038 C1034 0.950 . S
C1039 C1037 1.390 . S
C1039 C1040 1.387 . S
C1039 H1042 0.950 . S
C1040 C1039 1.387 . S
C1040 C1043 1.387 . S
H1041 C1037 0.950 . S
H1042 C1039 0.950 . S
C1043 C1034 1.390 . S
C1043 H1036 0.950 . S
C1043 C1040 1.387 . S
C1044 C1045 1.387 . S
C1044 H1048 0.950 . S
C1044 C1053 1.390 . S
C1045 C1044 1.387 . S
C1045 C1047 1.387 . S
H1046 C1053 0.950 . S
C1047 C1045 1.387 . S
C1047 C1049 1.390 . S
C1047 H1051 0.950 . S
H1048 C1044 0.950 . S
C1049 C1047 1.390 . S
C1049 C1050 1.387 . S
C1049 H1052 0.950 . S
C1050 C1049 1.387 . S
C1050 C1053 1.387 . S
H1051 C1047 0.950 . S
H1052 C1049 0.950 . S
C1053 C1044 1.390 . S
C1053 H1046 0.950 . S
C1053 C1050 1.387 . S
C1054 C1055 1.387 . S
C1054 H1058 0.950 . S
C1054 C1063 1.390 . S
C1055 C1054 1.387 . S
C1055 C1057 1.387 . S
H1056 C1063 0.950 . S
C1057 C1055 1.387 . S
C1057 C1059 1.390 . S
C1057 H1061 0.950 . S
H1058 C1054 0.950 . S
C1059 C1057 1.390 . S
C1059 C1060 1.387 . S
C1059 H1062 0.950 . S
C1060 C1059 1.387 . S
C1060 C1063 1.387 . S
H1061 C1057 0.950 . S
H1062 C1059 0.950 . S
C1063 C1054 1.390 . S
C1063 H1056 0.950 . S
C1063 C1060 1.387 . S
C1064 C1065 1.387 . S
C1064 H1068 0.950 . S
C1064 C1073 1.390 . S
C1065 C1064 1.387 . S
C1065 C1067 1.387 . S
H1066 C1073 0.950 . S
C1067 C1065 1.387 . S
C1067 C1069 1.390 . S
C1067 H1071 0.950 . S
H1068 C1064 0.950 . S
C1069 C1067 1.390 . S
C1069 C1070 1.387 . S
C1069 H1072 0.950 . S
C1070 C1069 1.387 . S
C1070 C1073 1.387 . S
H1071 C1067 0.950 . S
H1072 C1069 0.950 . S
C1073 C1064 1.390 . S
C1073 H1066 0.950 . S
C1073 C1070 1.387 . S
C1074 C1075 1.387 . S
C1074 H1078 0.950 . S
C1074 C1083 1.390 . S
C1075 C1074 1.387 . S
C1075 C1077 1.387 . S
H1076 C1083 0.950 . S
C1077 C1075 1.387 . S
C1077 C1079 1.390 . S
C1077 H1081 0.950 . S
H1078 C1074 0.950 . S
C1079 C1077 1.390 . S
C1079 C1080 1.387 . S
C1079 H1082 0.950 . S
C1080 C1079 1.387 . S
C1080 C1083 1.387 . S
H1081 C1077 0.950 . S
H1082 C1079 0.950 . S
C1083 C1074 1.390 . S
C1083 H1076 0.950 . S
C1083 C1080 1.387 . S
C1084 C1085 1.387 . S
C1084 H1088 0.950 . S
C1084 C1093 1.390 . S
C1085 C1084 1.387 . S
C1085 C1087 1.387 . S
H1086 C1093 0.950 . S
C1087 C1085 1.387 . S
C1087 C1089 1.390 . S
C1087 H1091 0.950 . S
H1088 C1084 0.950 . S
C1089 C1087 1.390 . S
C1089 C1090 1.387 . S
C1089 H1092 0.950 . S
C1090 C1089 1.387 . S
C1090 C1093 1.387 . S
H1091 C1087 0.950 . S
H1092 C1089 0.950 . S
C1093 C1084 1.390 . S
C1093 H1086 0.950 . S
C1093 C1090 1.387 . S
C1094 C1095 1.387 . S
C1094 H1098 0.950 . S
C1094 C1103 1.390 . S
C1095 C1094 1.387 . S
C1095 C1097 1.387 . S
H1096 C1103 0.950 . S
C1097 C1095 1.387 . S
C1097 C1099 1.390 . S
C1097 H1101 0.950 . S
H1098 C1094 0.950 . S
C1099 C1097 1.390 . S
C1099 C1100 1.387 . S
C1099 H1102 0.950 . S
C1100 C1099 1.387 . S
C1100 C1103 1.387 . S
H1101 C1097 0.950 . S
H1102 C1099 0.950 . S
C1103 C1094 1.390 . S
C1103 H1096 0.950 . S
C1103 C1100 1.387 . S
C1104 C1105 1.387 . S
C1104 H1108 0.950 . S
C1104 C1113 1.390 . S
C1105 C1104 1.387 . S
C1105 C1107 1.387 . S
H1106 C1113 0.950 . S
C1107 C1105 1.387 . S
C1107 C1109 1.390 . S
C1107 H1111 0.950 . S
H1108 C1104 0.950 . S
C1109 C1107 1.390 . S
C1109 C1110 1.387 . S
C1109 H1112 0.950 . S
C1110 C1109 1.387 . S
C1110 C1113 1.387 . S
H1111 C1107 0.950 . S
H1112 C1109 0.950 . S
C1113 C1104 1.390 . S
C1113 H1106 0.950 . S
C1113 C1110 1.387 . S
C1114 C1115 1.387 . S
C1114 H1118 0.950 . S
C1114 C1123 1.390 . S
C1115 C1114 1.387 . S
C1115 C1117 1.387 . S
H1116 C1123 0.950 . S
C1117 C1115 1.387 . S
C1117 C1119 1.390 . S
C1117 H1121 0.950 . S
H1118 C1114 0.950 . S
C1119 C1117 1.390 . S
C1119 C1120 1.387 . S
C1119 H1122 0.950 . S
C1120 C1119 1.387 . S
C1120 C1123 1.387 . S
H1121 C1117 0.950 . S
H1122 C1119 0.950 . S
C1123 C1114 1.390 . S
C1123 H1116 0.950 . S
C1123 C1120 1.387 . S
C1124 C1125 1.387 . S
C1124 H1128 0.950 . S
C1124 C1133 1.390 . S
C1125 C1124 1.387 . S
C1125 C1127 1.387 . S
H1126 C1133 0.950 . S
C1127 C1125 1.387 . S
C1127 C1129 1.390 . S
C1127 H1131 0.950 . S
H1128 C1124 0.950 . S
C1129 C1127 1.390 . S
C1129 C1130 1.387 . S
C1129 H1132 0.950 . S
C1130 C1129 1.387 . S
C1130 C1133 1.387 . S
H1131 C1127 0.950 . S
H1132 C1129 0.950 . S
C1133 C1124 1.390 . S
C1133 H1126 0.950 . S
C1133 C1130 1.387 . S
C1134 C1135 1.387 . S
C1134 H1138 0.950 . S
C1134 C1143 1.390 . S
C1135 C1134 1.387 . S
C1135 C1137 1.387 . S
H1136 C1143 0.950 . S
C1137 C1135 1.387 . S
C1137 C1139 1.390 . S
C1137 H1141 0.950 . S
H1138 C1134 0.950 . S
C1139 C1137 1.390 . S
C1139 C1140 1.387 . S
C1139 H1142 0.950 . S
C1140 C1139 1.387 . S
C1140 C1143 1.387 . S
H1141 C1137 0.950 . S
H1142 C1139 0.950 . S
C1143 C1134 1.390 . S
C1143 H1136 0.950 . S
C1143 C1140 1.387 . S
C1144 C1145 1.387 . S
C1144 H1148 0.950 . S
C1144 C1153 1.390 . S
C1145 C1144 1.387 . S
C1145 C1147 1.387 . S
H1146 C1153 0.950 . S
C1147 C1145 1.387 . S
C1147 C1149 1.390 . S
C1147 H1151 0.950 . S
H1148 C1144 0.950 . S
C1149 C1147 1.390 . S
C1149 C1150 1.387 . S
C1149 H1152 0.950 . S
C1150 C1149 1.387 . S
C1150 C1153 1.387 . S
H1151 C1147 0.950 . S
H1152 C1149 0.950 . S
C1153 C1144 1.390 . S
C1153 H1146 0.950 . S
C1153 C1150 1.387 . S
C1154 C1155 1.387 . S
C1154 H1158 0.950 . S
C1154 C1163 1.390 . S
C1155 C1154 1.387 . S
C1155 C1157 1.387 . S
H1156 C1163 0.950 . S
C1157 C1155 1.387 . S
C1157 C1159 1.390 . S
C1157 H1161 0.950 . S
H1158 C1154 0.950 . S
C1159 C1157 1.390 . S
C1159 C1160 1.387 . S
C1159 H1162 0.950 . S
C1160 C1159 1.387 . S
C1160 C1163 1.387 . S
H1161 C1157 0.950 . S
H1162 C1159 0.950 . S
C1163 C1154 1.390 . S
C1163 H1156 0.950 . S
C1163 C1160 1.387 . S
C1164 C1165 1.387 . S
C1164 H1168 0.950 . S
C1164 C1173 1.390 . S
C1165 C1164 1.387 . S
C1165 C1167 1.387 . S
H1166 C1173 0.950 . S
C1167 C1165 1.387 . S
C1167 C1169 1.390 . S
C1167 H1171 0.950 . S
H1168 C1164 0.950 . S
C1169 C1167 1.390 . S
C1169 C1170 1.387 . S
C1169 H1172 0.950 . S
C1170 C1169 1.387 . S
C1170 C1173 1.387 . S
H1171 C1167 0.950 . S
H1172 C1169 0.950 . S
C1173 C1164 1.390 . S
C1173 H1166 0.950 . S
C1173 C1170 1.387 . S
C1174 C1175 1.387 . S
C1174 H1178 0.950 . S
C1174 C1183 1.390 . S
C1175 C1174 1.387 . S
C1175 C1177 1.387 . S
H1176 C1183 0.950 . S
C1177 C1175 1.387 . S
C1177 C1179 1.390 . S
C1177 H1181 0.950 . S
H1178 C1174 0.950 . S
C1179 C1177 1.390 . S
C1179 C1180 1.387 . S
C1179 H1182 0.950 . S
C1180 C1179 1.387 . S
C1180 C1183 1.387 . S
H1181 C1177 0.950 . S
H1182 C1179 0.950 . S
C1183 C1174 1.390 . S
C1183 H1176 0.950 . S
C1183 C1180 1.387 . S
C1184 C1185 1.387 . S
C1184 H1188 0.950 . S
C1184 C1193 1.390 1_665 S
C1185 C1184 1.387 . S
C1185 C1187 1.387 . S
H1186 C1193 0.950 . S
C1187 C1185 1.387 . S
C1187 C1189 1.390 1_665 S
C1187 H1191 0.950 . S
H1188 C1184 0.950 . S
C1189 C1187 1.390 1_445 S
C1189 C1190 1.387 . S
C1189 H1192 0.950 . S
C1190 C1189 1.387 . S
C1190 C1193 1.387 . S
H1191 C1187 0.950 . S
H1192 C1189 0.950 . S
C1193 C1184 1.390 1_445 S
C1193 H1186 0.950 . S
C1193 C1190 1.387 . S
C1194 C1195 1.387 . S
C1194 H1198 0.950 . S
C1194 C1203 1.390 1_645 S
C1195 C1194 1.387 . S
C1195 C1197 1.387 . S
H1196 C1203 0.950 . S
C1197 C1195 1.387 . S
C1197 C1199 1.390 1_645 S
C1197 H1201 0.950 . S
H1198 C1194 0.950 . S
C1199 C1197 1.390 1_465 S
C1199 C1200 1.387 . S
C1199 H1202 0.950 . S
C1200 C1199 1.387 . S
C1200 C1203 1.387 . S
H1201 C1197 0.950 . S
H1202 C1199 0.950 . S
C1203 C1194 1.390 1_465 S
C1203 H1196 0.950 . S
C1203 C1200 1.387 . S
C1204 C1205 1.387 . S
C1204 H1208 0.950 . S
C1204 C1213 1.390 1_455 S
C1205 C1204 1.387 . S
C1205 C1207 1.387 . S
H1206 C1213 0.950 . S
C1207 C1205 1.387 . S
C1207 C1209 1.390 1_455 S
C1207 H1211 0.950 . S
H1208 C1204 0.950 . S
C1209 C1207 1.390 1_655 S
C1209 C1210 1.387 . S
C1209 H1212 0.950 . S
C1210 C1209 1.387 . S
C1210 C1213 1.387 . S
H1211 C1207 0.950 . S
H1212 C1209 0.950 . S
C1213 C1204 1.390 1_655 S
C1213 H1206 0.950 . S
C1213 C1210 1.387 . S
C1214 C1215 1.387 . S
C1214 H1218 0.950 . S
C1214 C1223 1.390 1_565 S
C1215 C1214 1.387 . S
C1215 C1217 1.387 . S
H1216 C1223 0.950 . S
C1217 C1215 1.387 . S
C1217 C1219 1.390 1_565 S
C1217 H1221 0.950 . S
H1218 C1214 0.950 . S
C1219 C1217 1.390 1_545 S
C1219 C1220 1.387 . S
C1219 H1222 0.950 . S
C1220 C1219 1.387 . S
C1220 C1223 1.387 . S
H1221 C1217 0.950 . S
H1222 C1219 0.950 . S
C1223 C1214 1.390 1_545 S
C1223 H1216 0.950 . S
C1223 C1220 1.387 . S
C1224 C1225 1.387 . S
C1224 H1228 0.950 . S
C1224 C1233 1.390 . S
C1225 C1224 1.387 . S
C1225 C1227 1.387 . S
H1226 C1233 0.950 . S
C1227 C1225 1.387 . S
C1227 C1229 1.390 . S
C1227 H1231 0.950 . S
H1228 C1224 0.950 . S
C1229 C1227 1.390 . S
C1229 C1230 1.387 . S
C1229 H1232 0.950 . S
C1230 C1229 1.387 . S
C1230 C1233 1.387 . S
H1231 C1227 0.950 . S
H1232 C1229 0.950 . S
C1233 C1224 1.390 . S
C1233 H1226 0.950 . S
C1233 C1230 1.387 . S
C1234 C1235 1.387 . S
C1234 H1238 0.950 . S
C1234 C1243 1.390 . S
C1235 C1234 1.387 . S
C1235 C1237 1.387 . S
H1236 C1243 0.950 . S
C1237 C1235 1.387 . S
C1237 C1239 1.390 . S
C1237 H1241 0.950 . S
H1238 C1234 0.950 . S
C1239 C1237 1.390 . S
C1239 C1240 1.387 . S
C1239 H1242 0.950 . S
C1240 C1239 1.387 . S
C1240 C1243 1.387 . S
H1241 C1237 0.950 . S
H1242 C1239 0.950 . S
C1243 C1234 1.390 . S
C1243 H1236 0.950 . S
C1243 C1240 1.387 . S
C1244 C1245 1.387 . S
C1244 H1248 0.950 . S
C1244 C1253 1.390 1_545 S
C1245 C1244 1.387 . S
C1245 C1247 1.387 . S
H1246 C1253 0.950 . S
C1247 C1245 1.387 . S
C1247 C1249 1.390 1_545 S
C1247 H1251 0.950 . S
H1248 C1244 0.950 . S
C1249 C1247 1.390 1_565 S
C1249 C1250 1.387 . S
C1249 H1252 0.950 . S
C1250 C1249 1.387 . S
C1250 C1253 1.387 . S
H1251 C1247 0.950 . S
H1252 C1249 0.950 . S
C1253 C1244 1.390 1_565 S
C1253 H1246 0.950 . S
C1253 C1250 1.387 . S
C1254 C1255 1.387 . S
C1254 H1258 0.950 . S
C1254 C1263 1.390 1_655 S
C1255 C1254 1.387 . S
C1255 C1257 1.387 . S
H1256 C1263 0.950 . S
C1257 C1255 1.387 . S
C1257 C1259 1.390 1_655 S
C1257 H1261 0.950 . S
H1258 C1254 0.950 . S
C1259 C1257 1.390 1_455 S
C1259 C1260 1.387 . S
C1259 H1262 0.950 . S
C1260 C1259 1.387 . S
C1260 C1263 1.387 . S
H1261 C1257 0.950 . S
H1262 C1259 0.950 . S
C1263 C1254 1.390 1_455 S
C1263 H1256 0.950 . S
C1263 C1260 1.387 . S
C945 C33 1.366 . S
C950 C701 1.374 . S
C955 C524 1.374 . S
C960 C92 1.365 . S
C965 C583 1.374 . S
C970 C151 1.366 . S
C975 C642 1.374 . S
C980 C210 1.366 . S
C985 C347 1.375 . S
C990 C269 1.365 . S
C995 C328 1.364 . S
C1000 C406 1.374 . S
C1005 C387 1.365 . S
C1010 C465 1.374 . S
C1015 C446 1.364 . S
C1020 C288 1.374 . S
C1025 C505 1.365 . S
C1030 C229 1.375 . S
C1035 C52 1.374 . S
C1040 C564 1.365 . S
C1045 C111 1.374 . S
C1050 C623 1.365 . S
C1055 C170 1.374 . S
C1060 C682 1.365 . S
C1065 C819 1.374 . S
C1070 C741 1.364 . S
C1075 C800 1.366 . S
C1080 C878 1.374 . S
C1085 C937 1.374 . S
C1090 C859 1.364 . S
C1095 C760 1.374 . S
C1100 C918 1.366 . S
C1105 C831 1.513 . S
C1110 C5 1.513 . S
C1115 C890 1.511 . S
C1120 C64 1.511 . S
C1125 C713 1.511 . S
C1130 C123 1.511 . S
C1135 C182 1.511 . S
C1140 C772 1.511 . S
C1145 C241 1.513 . S
C1150 C595 1.513 . S
C1155 C654 1.513 . S
C1160 C300 1.513 . S
C1165 C359 1.511 . S
C1170 C477 1.511 . S
C1175 C418 1.511 . S
C1180 C536 1.511 . S
C1185 C121 1.415 . S
C1190 C3 1.415 . S
C1195 C180 1.415 . S
C1200 C62 1.415 . S
C1205 C239 1.415 . S
C1210 C357 1.415 . S
C1215 C298 1.412 . S
C1220 C416 1.412 . S
C1225 C593 1.415 . S
C1230 C475 1.415 . S
C1235 C534 1.412 . S
C1240 C652 1.412 . S
C1245 C829 1.415 . S
C1250 C711 1.415 . S
C1255 C770 1.415 . S
C1260 C888 1.415 . S
