# Generated by pormake.
# Topology cag, (4)-cn, num edge types: 1
# Building blocks:
#     Node 0, Type 0, BuildingBlock: KUFVIS_clean_sbu_0, # of connection points: 4
#     Node 1, Type 0, BuildingBlock: KUFVIS_clean_sbu_0, # of connection points: 4
#     Node 2, Type 0, BuildingBlock: KUFVIS_clean_sbu_0, # of connection points: 4
#     Node 3, Type 0, BuildingBlock: KUFVIS_clean_sbu_0, # of connection points: 4
#     Node 4, Type 0, BuildingBlock: KUFVIS_clean_sbu_0, # of connection points: 4
#     Node 5, Type 0, BuildingBlock: KUFVIS_clean_sbu_0, # of connection points: 4
#     Node 6, Type 0, BuildingBlock: KUFVIS_clean_sbu_0, # of connection points: 4
#     Node 7, Type 0, BuildingBlock: KUFVIS_clean_sbu_0, # of connection points: 4
#     Node 8, Type 0, BuildingBlock: KUFVIS_clean_sbu_0, # of connection points: 4
#     Node 9, Type 0, BuildingBlock: KUFVIS_clean_sbu_0, # of connection points: 4
#     Node 10, Type 0, BuildingBlock: KUFVIS_clean_sbu_0, # of connection points: 4
#     Node 11, Type 0, BuildingBlock: KUFVIS_clean_sbu_0, # of connection points: 4
#     Node 12, Type 0, BuildingBlock: KUFVIS_clean_sbu_0, # of connection points: 4
#     Node 13, Type 0, BuildingBlock: KUFVIS_clean_sbu_0, # of connection points: 4
#     Node 14, Type 0, BuildingBlock: KUFVIS_clean_sbu_0, # of connection points: 4
#     Node 15, Type 0, BuildingBlock: KUFVIS_clean_sbu_0, # of connection points: 4
#     Edge 16, Type (0, 0), BuildingBlock: AJUNOK_clean_linker_0, # of connection points: 2
#     Edge 17, Type (0, 0), BuildingBlock: AJUNOK_clean_linker_0, # of connection points: 2
#     Edge 18, Type (0, 0), BuildingBlock: AJUNOK_clean_linker_0, # of connection points: 2
#     Edge 19, Type (0, 0), BuildingBlock: AJUNOK_clean_linker_0, # of connection points: 2
#     Edge 20, Type (0, 0), BuildingBlock: AJUNOK_clean_linker_0, # of connection points: 2
#     Edge 21, Type (0, 0), BuildingBlock: AJUNOK_clean_linker_0, # of connection points: 2
#     Edge 22, Type (0, 0), BuildingBlock: AJUNOK_clean_linker_0, # of connection points: 2
#     Edge 23, Type (0, 0), BuildingBlock: AJUNOK_clean_linker_0, # of connection points: 2
#     Edge 24, Type (0, 0), BuildingBlock: AJUNOK_clean_linker_0, # of connection points: 2
#     Edge 25, Type (0, 0), BuildingBlock: AJUNOK_clean_linker_0, # of connection points: 2
#     Edge 26, Type (0, 0), BuildingBlock: AJUNOK_clean_linker_0, # of connection points: 2
#     Edge 27, Type (0, 0), BuildingBlock: AJUNOK_clean_linker_0, # of connection points: 2
#     Edge 28, Type (0, 0), BuildingBlock: AJUNOK_clean_linker_0, # of connection points: 2
#     Edge 29, Type (0, 0), BuildingBlock: AJUNOK_clean_linker_0, # of connection points: 2
#     Edge 30, Type (0, 0), BuildingBlock: AJUNOK_clean_linker_0, # of connection points: 2
#     Edge 31, Type (0, 0), BuildingBlock: AJUNOK_clean_linker_0, # of connection points: 2
#     Edge 32, Type (0, 0), BuildingBlock: AJUNOK_clean_linker_0, # of connection points: 2
#     Edge 33, Type (0, 0), BuildingBlock: AJUNOK_clean_linker_0, # of connection points: 2
#     Edge 34, Type (0, 0), BuildingBlock: AJUNOK_clean_linker_0, # of connection points: 2
#     Edge 35, Type (0, 0), BuildingBlock: AJUNOK_clean_linker_0, # of connection points: 2
#     Edge 36, Type (0, 0), BuildingBlock: AJUNOK_clean_linker_0, # of connection points: 2
#     Edge 37, Type (0, 0), BuildingBlock: AJUNOK_clean_linker_0, # of connection points: 2
#     Edge 38, Type (0, 0), BuildingBlock: AJUNOK_clean_linker_0, # of connection points: 2
#     Edge 39, Type (0, 0), BuildingBlock: AJUNOK_clean_linker_0, # of connection points: 2
#     Edge 40, Type (0, 0), BuildingBlock: AJUNOK_clean_linker_0, # of connection points: 2
#     Edge 41, Type (0, 0), BuildingBlock: AJUNOK_clean_linker_0, # of connection points: 2
#     Edge 42, Type (0, 0), BuildingBlock: AJUNOK_clean_linker_0, # of connection points: 2
#     Edge 43, Type (0, 0), BuildingBlock: AJUNOK_clean_linker_0, # of connection points: 2
#     Edge 44, Type (0, 0), BuildingBlock: AJUNOK_clean_linker_0, # of connection points: 2
#     Edge 45, Type (0, 0), BuildingBlock: AJUNOK_clean_linker_0, # of connection points: 2
#     Edge 46, Type (0, 0), BuildingBlock: AJUNOK_clean_linker_0, # of connection points: 2
#     Edge 47, Type (0, 0), BuildingBlock: AJUNOK_clean_linker_0, # of connection points: 2
# Relax obj value: 0.085
# Max RMSD: 0.121
# Mean RMSD: 0.117
data_MOF--net-cag--node1-KUFVIS_clean_sbu_0--edge1-AJUNOK_clean_linker_0
_symmetry_space_group_name_H-M    P1
_symmetry_Int_Tables_number       1
_symmetry_cell_setting            triclinic
loop_
_symmetry_equiv_pos_as_xyz
'x, y, z'
_cell_length_a     31.415829
_cell_length_b     35.694218
_cell_length_c     29.755225
_cell_angle_alpha  89.698365
_cell_angle_beta   90.021674
_cell_angle_gamma 90.127127
loop_
_atom_site_label
_atom_site_type_symbol
_atom_site_fract_x
_atom_site_fract_y
_atom_site_fract_z
_atom_type_partial_charge
Mn0 Mn 0.33156 0.15949 0.11142 0.0
Mn1 Mn 0.36543 0.23918 0.16 0.0
C2 C 0.40279 0.17782 0.10627 0.0
C3 C 0.31954 0.09659 0.09015 0.0
C4 C 0.30919 0.23853 0.07892 0.0
O5 O 0.28985 0.16385 0.16541 0.0
O6 O 0.31312 0.22055 0.19005 0.0
C7 C 0.37831 0.23291 0.25839 0.0
N8 N 0.39587 0.23875 0.21701 0.0
C9 C 0.45425 0.27927 0.25894 0.0
C10 C 0.43248 0.27102 0.29843 0.0
C11 C 0.3961 0.24802 0.29799 0.0
C12 C 0.43113 0.25993 0.21274 0.0
H13 H 0.34908 0.21725 0.26163 0.0
C14 C 0.28845 0.19178 0.19293 0.0
O15 O 0.29605 0.12382 0.07679 0.0
O16 O 0.34736 0.10463 0.12117 0.0
N17 N 0.41635 0.25536 0.1306 0.0
C18 C 0.42217 0.26162 0.08589 0.0
C19 C 0.4615 0.27298 0.06856 0.0
C20 C 0.49671 0.28064 0.09568 0.0
C21 C 0.49302 0.28105 0.14401 0.0
C22 C 0.44706 0.26149 0.16032 0.0
H23 H 0.39689 0.25608 0.06228 0.0
O24 O 0.38363 0.1619 0.0726 0.0
O25 O 0.37891 0.18693 0.14043 0.0
O26 O 0.3038 0.20358 0.07845 0.0
O27 O 0.33333 0.25374 0.10698 0.0
C28 C 0.53188 0.31096 0.21424 0.0
C29 C 0.50158 0.30312 0.26161 0.0
H30 H 0.44435 0.28143 0.33016 0.0
H31 H 0.38036 0.24219 0.32963 0.0
H32 H 0.4648 0.2758 0.03248 0.0
H33 H 0.52492 0.2885 0.07716 0.0
H34 H 0.56149 0.32684 0.21768 0.0
H35 H 0.51292 0.31324 0.29366 0.0
Mn36 Mn 0.14598 0.90604 0.60998 0.0
Mn37 Mn 0.11601 0.8253 0.65975 0.0
C38 C 0.07531 0.88591 0.60555 0.0
C39 C 0.15659 0.96935 0.58838 0.0
C40 C 0.1717 0.82791 0.5782 0.0
O41 O 0.18796 0.90282 0.66382 0.0
O42 O 0.16727 0.84566 0.69038 0.0
C43 C 0.10146 0.83152 0.75791 0.0
N44 N 0.08498 0.82467 0.71633 0.0
C45 C 0.02549 0.78528 0.7583 0.0
C46 C 0.04632 0.7943 0.79803 0.0
C47 C 0.0828 0.81716 0.79762 0.0
C48 C 0.05022 0.80297 0.71187 0.0
H49 H 0.1304 0.84753 0.76132 0.0
C50 C 0.19023 0.87558 0.69258 0.0
O51 O 0.18036 0.94252 0.57494 0.0
O52 O 0.12888 0.96067 0.61935 0.0
N53 N 0.06618 0.80727 0.62979 0.0
C54 C 0.06098 0.8006 0.58513 0.0
C55 C 0.02203 0.7885 0.56748 0.0
C56 C 0.98625 0.78132 0.59414 0.0
C57 C 0.9889 0.78203 0.64253 0.0
C58 C 0.03526 0.80078 0.65913 0.0
H59 H 0.08643 0.80632 0.56175 0.0
O60 O 0.09377 0.90244 0.57168 0.0
O61 O 0.09977 0.87723 0.63963 0.0
O62 O 0.17484 0.86303 0.57659 0.0
O63 O 0.14925 0.81197 0.60739 0.0
C64 C 0.94774 0.75483 0.71322 0.0
C65 C 0.97735 0.76283 0.76084 0.0
H66 H 0.03345 0.78483 0.82987 0.0
H67 H 0.09768 0.82376 0.82944 0.0
H68 H 0.01924 0.78547 0.53141 0.0
H69 H 0.95828 0.77333 0.57536 0.0
H70 H 0.91752 0.73982 0.71674 0.0
H71 H 0.96497 0.75382 0.79305 0.0
Mn72 Mn 0.32953 0.90752 0.94401 0.0
Mn73 Mn 0.36041 0.82775 0.89398 0.0
C74 C 0.40036 0.88834 0.94746 0.0
C75 C 0.31893 0.97039 0.96626 0.0
C76 C 0.30618 0.82855 0.97647 0.0
O77 O 0.28734 0.90446 0.89057 0.0
O78 O 0.30727 0.84688 0.86549 0.0
C79 C 0.37077 0.83505 0.79524 0.0
N80 N 0.38923 0.82845 0.83602 0.0
C81 C 0.44649 0.78886 0.79159 0.0
C82 C 0.4238 0.79771 0.75288 0.0
C83 C 0.38754 0.82064 0.75483 0.0
C84 C 0.42447 0.80722 0.83888 0.0
H85 H 0.34165 0.85084 0.7931 0.0
C86 C 0.28441 0.8768 0.86281 0.0
O87 O 0.29525 0.94324 0.97968 0.0
O88 O 0.3463 0.96234 0.93486 0.0
N89 N 0.41201 0.81092 0.92155 0.0
C90 C 0.41916 0.80423 0.96597 0.0
C91 C 0.45892 0.79261 0.98184 0.0
C92 C 0.49334 0.78528 0.95352 0.0
C93 C 0.48832 0.78555 0.90535 0.0
C94 C 0.44179 0.805 0.8908 0.0
H95 H 0.39463 0.80956 0.99047 0.0
O96 O 0.38211 0.90396 0.98184 0.0
O97 O 0.37564 0.87976 0.91366 0.0
O98 O 0.30109 0.86351 0.97672 0.0
O99 O 0.32979 0.81317 0.94809 0.0
C100 C 0.52541 0.75716 0.83328 0.0
C101 C 0.49384 0.76549 0.78702 0.0
H102 H 0.43492 0.78793 0.72059 0.0
H103 H 0.37112 0.82705 0.72374 0.0
H104 H 0.46323 0.78936 1.01776 0.0
H105 H 0.52205 0.77722 0.97101 0.0
H106 H 0.55502 0.74161 0.82857 0.0
H107 H 0.5044 0.75603 0.75442 0.0
Mn108 Mn 0.14869 0.16095 0.44447 0.0
Mn109 Mn 0.11714 0.2407 0.3938 0.0
C110 C 0.07755 0.17988 0.4481 0.0
C111 C 0.15898 0.09777 0.46623 0.0
C112 C 0.17347 0.23979 0.47495 0.0
O113 O 0.19121 0.16472 0.39094 0.0
O114 O 0.1684 0.22087 0.36353 0.0
C115 C 0.10289 0.23483 0.29566 0.0
N116 N 0.08611 0.24101 0.33724 0.0
C117 C 0.02682 0.28071 0.29559 0.0
C118 C 0.04779 0.27218 0.25583 0.0
C119 C 0.08433 0.24951 0.25608 0.0
C120 C 0.05132 0.26252 0.34184 0.0
H121 H 0.13205 0.21922 0.29221 0.0
C122 C 0.1929 0.19204 0.36219 0.0
O123 O 0.1828 0.12463 0.47997 0.0
O124 O 0.13181 0.10636 0.43474 0.0
N125 N 0.06728 0.25802 0.42385 0.0
C126 C 0.06216 0.26449 0.46855 0.0
C127 C 0.02317 0.27605 0.48634 0.0
C128 C 0.98738 0.2831 0.45971 0.0
C129 C -0.00992 0.28281 0.41129 0.0
C130 C 0.03629 0.26424 0.39456 0.0
H131 H 0.08771 0.25892 0.49186 0.0
O132 O 0.09603 0.16394 0.48231 0.0
O133 O 0.10211 0.18875 0.41422 0.0
O134 O 0.17711 0.20472 0.47773 0.0
O135 O 0.15022 0.25458 0.44576 0.0
C136 C 0.94913 0.31078 0.34096 0.0
C137 C 0.97879 0.30323 0.29325 0.0
H138 H 0.03507 0.28198 0.22408 0.0
H139 H 0.09942 0.24342 0.22425 0.0
H140 H 0.02038 0.27884 0.52244 0.0
H141 H 0.95939 0.29073 0.47857 0.0
H142 H 0.919 0.32584 0.33763 0.0
H143 H 0.96653 0.31261 0.26115 0.0
Mn144 Mn 0.65585 0.90648 0.94261 0.0
Mn145 Mn 0.62915 0.82676 0.89048 0.0
C146 C 0.58559 0.89605 0.92229 0.0
C147 C 0.66441 0.95589 0.99268 0.0
C148 C 0.68208 0.88667 0.84791 0.0
O149 O 0.70093 0.86993 0.96651 0.0
O150 O 0.68162 0.81813 0.92697 0.0
C151 C 0.61737 0.76152 0.95133 0.0
N152 N 0.59965 0.78645 0.92194 0.0
C153 C 0.54011 0.73523 0.90839 0.0
C154 C 0.56216 0.7128 0.93875 0.0
C155 C 0.5993 0.72593 0.95988 0.0
C156 C 0.56417 0.77736 0.89918 0.0
H157 H 0.64682 0.76827 0.96808 0.0
C158 C 0.70542 0.83516 0.95575 0.0
O159 O 0.68783 0.95187 0.95778 0.0
O160 O 0.63945 0.92794 1.00321 0.0
N161 N 0.5785 0.83659 0.85675 0.0
C162 C 0.57213 0.86387 0.82538 0.0
C163 C 0.53252 0.8691 0.80474 0.0
C164 C 0.49716 0.84638 0.81373 0.0
C165 C 0.50086 0.8133 0.84151 0.0
C166 C 0.54801 0.81254 0.86793 0.0
H167 H 0.59717 0.88344 0.81716 0.0
O168 O 0.60242 0.92929 0.91929 0.0
O169 O 0.61153 0.86837 0.93176 0.0
O170 O 0.68386 0.90716 0.88175 0.0
O171 O 0.66137 0.85668 0.84758 0.0
C172 C 0.46068 0.74898 0.85536 0.0
C173 C 0.49153 0.72067 0.88905 0.0
H174 H 0.54984 0.68539 0.94755 0.0
H175 H 0.61518 0.70759 0.98361 0.0
H176 H 0.52885 0.89241 0.78162 0.0
H177 H 0.4686 0.85476 0.79619 0.0
H178 H 0.43023 0.738 0.84335 0.0
H179 H 0.47969 0.69326 0.89848 0.0
Mn180 Mn 0.82094 0.15831 0.44816 0.0
Mn181 Mn 0.84906 0.24025 0.40104 0.0
C182 C 0.89171 0.16879 0.42942 0.0
C183 C 0.80987 0.10863 0.49809 0.0
C184 C 0.79605 0.18229 0.35423 0.0
O185 O 0.77557 0.19448 0.47194 0.0
O186 O 0.79733 0.24849 0.43812 0.0
C187 C 0.86245 0.30373 0.46317 0.0
N188 N 0.87955 0.27938 0.43303 0.0
C189 C 0.93713 0.33198 0.4166 0.0
C190 C 0.91581 0.35371 0.44799 0.0
C191 C 0.88001 0.33961 0.47092 0.0
C192 C 0.91385 0.28938 0.40874 0.0
H193 H 0.83379 0.29629 0.4811 0.0
C194 C 0.77246 0.23001 0.46459 0.0
O195 O 0.78764 0.11317 0.46233 0.0
O196 O 0.83596 0.13564 0.50866 0.0
N197 N 0.89896 0.23071 0.36641 0.0
C198 C 0.90465 0.2038 0.33479 0.0
C199 C 0.94369 0.19897 0.3131 0.0
C200 C 0.97888 0.22205 0.32078 0.0
C201 C 0.97538 0.25507 0.34828 0.0
C202 C 0.92951 0.25478 0.37683 0.0
H203 H 0.87953 0.1842 0.32723 0.0
O204 O 0.87463 0.13569 0.42582 0.0
O205 O 0.866 0.1964 0.43978 0.0
O206 O 0.79518 0.15881 0.38563 0.0
O207 O 0.81588 0.21258 0.35788 0.0
C208 C 0.01456 0.32006 0.3598 0.0
C209 C 0.98446 0.34765 0.39485 0.0
H210 H 0.92776 0.3813 0.45617 0.0
H211 H 0.86469 0.35744 0.49536 0.0
H212 H 0.94686 0.17605 0.28965 0.0
H213 H 0.00694 0.21415 0.30219 0.0
H214 H 0.04423 0.33163 0.34634 0.0
H215 H -0.004 0.37523 0.40361 0.0
Mn216 Mn 0.65827 0.15878 0.10719 0.0
Mn217 Mn 0.63408 0.24097 0.15483 0.0
C218 C 0.58833 0.17089 0.12684 0.0
C219 C 0.66567 0.10833 0.05859 0.0
C220 C 0.68674 0.18167 0.19971 0.0
O221 O 0.7049 0.1942 0.08259 0.0
O222 O 0.68473 0.24861 0.11596 0.0
C223 C 0.61992 0.30487 0.09279 0.0
N224 N 0.60328 0.28042 0.12349 0.0
C225 C 0.54437 0.33173 0.1382 0.0
C226 C 0.56527 0.35368 0.10638 0.0
C227 C 0.60159 0.34028 0.08409 0.0
C228 C 0.56889 0.28994 0.14767 0.0
H229 H 0.64876 0.2979 0.07508 0.0
C230 C 0.70888 0.22977 0.08942 0.0
O231 O 0.689 0.11246 0.09357 0.0
O232 O 0.64188 0.13667 0.04695 0.0
N233 N 0.58491 0.23168 0.19114 0.0
C234 C 0.57968 0.20495 0.22341 0.0
C235 C 0.54071 0.19975 0.24544 0.0
C236 C 0.50487 0.22191 0.2369 0.0
C237 C 0.50748 0.25448 0.2081 0.0
C238 C 0.55389 0.2552 0.18028 0.0
H239 H 0.60515 0.18583 0.23134 0.0
O240 O 0.60416 0.13739 0.13042 0.0
O241 O 0.61494 0.19794 0.1162 0.0
O242 O 0.68458 0.15794 0.1691 0.0
O243 O 0.66893 0.21294 0.19683 0.0
C244 C 0.46652 0.31822 0.1939 0.0
C245 C 0.49627 0.34622 0.15865 0.0
H246 H 0.55257 0.38085 0.0973 0.0
H247 H 0.61657 0.35823 0.05926 0.0
H248 H 0.53792 0.17687 0.26932 0.0
H249 H 0.47688 0.21359 0.25552 0.0
H250 H 0.43635 0.32917 0.20657 0.0
H251 H 0.48399 0.37336 0.14889 0.0
Mn252 Mn 0.81851 0.90405 0.60111 0.0
Mn253 Mn 0.84771 0.82447 0.65271 0.0
C254 C 0.88911 0.89554 0.622 0.0
C255 C 0.80838 0.95275 0.54972 0.0
C256 C 0.79364 0.88275 0.69628 0.0
O257 O 0.77458 0.86657 0.5771 0.0
O258 O 0.79522 0.81502 0.61661 0.0
C259 C 0.8605 0.76015 0.59161 0.0
N260 N 0.87782 0.78491 0.62122 0.0
C261 C 0.93566 0.73281 0.63791 0.0
C262 C 0.91406 0.71062 0.6071 0.0
C263 C 0.87804 0.72429 0.58427 0.0
C264 C 0.91256 0.77546 0.64512 0.0
H265 H 0.83172 0.76727 0.57377 0.0
C266 C 0.77089 0.83168 0.58793 0.0
O267 O 0.78482 0.94829 0.58456 0.0
O268 O 0.83513 0.92593 0.5407 0.0
N269 N 0.89818 0.83483 0.68624 0.0
C270 C 0.90435 0.86251 0.71682 0.0
C271 C 0.94336 0.86743 0.73859 0.0
C272 C 0.97816 0.84385 0.73187 0.0
C273 C 0.97433 0.81044 0.70509 0.0
C274 C 0.92847 0.81045 0.67643 0.0
H275 H 0.8797 0.88274 0.72327 0.0
O276 O 0.87117 0.92828 0.62455 0.0
O277 O 0.86416 0.86722 0.61214 0.0
O278 O 0.79053 0.90363 0.66247 0.0
O279 O 0.81556 0.85349 0.69574 0.0
C280 C 0.01314 0.7453 0.69461 0.0
C281 C 0.9829 0.71737 0.65994 0.0
H282 H 0.92589 0.68294 0.59935 0.0
H283 H 0.8625 0.7061 0.56029 0.0
H284 H 0.94683 0.89082 0.76133 0.0
H285 H 0.00623 0.85186 0.75046 0.0
H286 H 0.04274 0.73387 0.70826 0.0
H287 H -0.00573 0.68968 0.65166 0.0
Mn288 Mn 0.83008 0.66067 0.10796 0.0
Mn289 Mn 0.86016 0.74153 0.15644 0.0
C290 C 0.90089 0.68057 0.1042 0.0
C291 C 0.82106 0.5972 0.08786 0.0
C292 C 0.80582 0.73898 0.07408 0.0
O293 O 0.78732 0.66412 0.16102 0.0
O294 O 0.80777 0.72172 0.18541 0.0
C295 C 0.87135 0.735 0.2552 0.0
N296 N 0.88927 0.74176 0.21419 0.0
C297 C 0.94826 0.77988 0.25808 0.0
C298 C 0.92603 0.77102 0.29709 0.0
C299 C 0.88906 0.74883 0.29549 0.0
C300 C 0.92459 0.76292 0.21085 0.0
H301 H 0.84198 0.71947 0.2577 0.0
C302 C 0.78432 0.69215 0.18821 0.0
O303 O 0.79673 0.62337 0.07315 0.0
O304 O 0.84783 0.60663 0.11932 0.0
N305 N 0.9112 0.75907 0.1282 0.0
C306 C 0.91794 0.76585 0.08373 0.0
C307 C 0.95762 0.77758 0.06745 0.0
C308 C -0.00737 0.78424 0.09536 0.0
C309 C 0.98843 0.78334 0.14362 0.0
C310 C 0.94122 0.76519 0.15864 0.0
H311 H 0.89317 0.76051 0.05946 0.0
O312 O 0.88274 0.66415 0.07028 0.0
O313 O 0.87605 0.68949 0.13771 0.0
O314 O 0.80139 0.70389 0.07389 0.0
O315 O 0.82896 0.75488 0.10251 0.0
C316 C 0.02795 0.80939 0.21565 0.0
C317 C -0.00326 0.80153 0.26224 0.0
H318 H 0.93811 0.78009 0.32933 0.0
H319 H 0.87303 0.74235 0.32678 0.0
H320 H 0.96162 0.78073 0.03147 0.0
H321 H 0.02129 0.79198 0.07755 0.0
H322 H 0.05835 0.82388 0.2202 0.0
H323 H 0.00832 0.81013 0.29484 0.0
Mn324 Mn 0.64786 0.40539 0.61105 0.0
Mn325 Mn 0.61589 0.32603 0.66273 0.0
C326 C 0.57676 0.3863 0.60768 0.0
C327 C 0.65776 0.46828 0.58785 0.0
C328 C 0.67148 0.32613 0.58134 0.0
O329 O 0.69033 0.40233 0.66456 0.0
O330 O 0.66788 0.34593 0.69185 0.0
C331 C 0.60318 0.33344 0.76097 0.0
N332 N 0.58576 0.32662 0.71981 0.0
C333 C 0.52661 0.28795 0.76333 0.0
C334 C 0.54826 0.29705 0.80255 0.0
C335 C 0.58504 0.31953 0.80119 0.0
C336 C 0.55065 0.30521 0.71627 0.0
H337 H 0.63253 0.34901 0.76362 0.0
C338 C 0.69232 0.37492 0.69313 0.0
O339 O 0.68193 0.4415 0.57483 0.0
O340 O 0.63087 0.45994 0.61974 0.0
N341 N 0.56532 0.30852 0.63389 0.0
C342 C 0.55943 0.30136 0.58944 0.0
C343 C 0.52008 0.28954 0.57259 0.0
C344 C 0.48467 0.28295 0.59996 0.0
C345 C 0.48813 0.284 0.64829 0.0
C346 C 0.5348 0.30268 0.66384 0.0
H347 H 0.58462 0.30652 0.56556 0.0
O348 O 0.5953 0.40176 0.57316 0.0
O349 O 0.60124 0.37782 0.64173 0.0
O350 O 0.6762 0.36115 0.579 0.0
O351 O 0.64777 0.31154 0.61027 0.0
C352 C 0.44794 0.25747 0.71996 0.0
C353 C 0.47838 0.26571 0.76699 0.0
H354 H 0.53589 0.28787 0.83472 0.0
H355 H 0.60064 0.3261 0.83263 0.0
H356 H 0.5167 0.28619 0.53661 0.0
H357 H 0.45634 0.27506 0.58174 0.0
H358 H 0.4177 0.24262 0.72415 0.0
H359 H 0.4665 0.25696 0.7995 0.0
Mn360 Mn 0.83281 0.4069 0.94306 0.0
Mn361 Mn 0.86724 0.32867 0.89208 0.0
C362 C 0.90435 0.38932 0.94733 0.0
C363 C 0.82127 0.46951 0.96585 0.0
C364 C 0.81138 0.32669 0.97311 0.0
O365 O 0.79077 0.40324 0.88928 0.0
O366 O 0.81423 0.34708 0.86352 0.0
C367 C 0.8785 0.33794 0.79375 0.0
N368 N 0.89662 0.33085 0.83458 0.0
C369 C 0.95472 0.29239 0.78996 0.0
C370 C 0.93239 0.30173 0.75118 0.0
C371 C 0.89585 0.32432 0.75321 0.0
C372 C 0.93197 0.30978 0.8374 0.0
H373 H 0.84919 0.3535 0.79165 0.0
C374 C 0.78923 0.37556 0.86142 0.0
O375 O 0.79772 0.44206 0.9789 0.0
O376 O 0.84845 0.46189 0.93411 0.0
N377 N 0.91871 0.31236 0.92006 0.0
C378 C 0.9254 0.3052 0.96444 0.0
C379 C 0.96501 0.29346 0.98057 0.0
C380 C -0.00037 0.28635 0.95248 0.0
C381 C -0.00492 0.28723 0.90424 0.0
C382 C 0.94869 0.30674 0.88952 0.0
H383 H 0.90061 0.31023 0.98874 0.0
O384 O 0.88512 0.40421 0.98154 0.0
O385 O 0.88039 0.38061 0.91301 0.0
O386 O 0.80523 0.36157 0.97452 0.0
O387 O 0.83644 0.3127 0.94519 0.0
C388 C 0.03332 0.26036 0.832 0.0
C389 C 0.0023 0.26937 0.78549 0.0
H390 H 0.94397 0.29257 0.71881 0.0
H391 H 0.87968 0.33108 0.72208 0.0
H392 H 0.96898 0.28982 1.01648 0.0
H393 H 0.02813 0.27804 0.97015 0.0
H394 H 0.06313 0.2451 0.82732 0.0
H395 H 0.01336 0.26054 0.75281 0.0
Mn396 Mn 0.6457 0.65685 0.43919 0.0
Mn397 Mn 0.6128 0.73711 0.39091 0.0
C398 C 0.57467 0.67558 0.44459 0.0
C399 C 0.6563 0.59379 0.46114 0.0
C400 C 0.66857 0.73552 0.47203 0.0
O401 O 0.68718 0.66103 0.38499 0.0
O402 O 0.66573 0.71883 0.36199 0.0
C403 C 0.60168 0.73021 0.29227 0.0
N404 N 0.5836 0.73668 0.33317 0.0
C405 C 0.52584 0.77626 0.28898 0.0
C406 C 0.54817 0.76755 0.25012 0.0
C407 C 0.58452 0.7447 0.25191 0.0
C408 C 0.54837 0.75784 0.33622 0.0
H409 H 0.63078 0.71442 0.28996 0.0
C410 C 0.68958 0.6897 0.35831 0.0
O411 O 0.68068 0.62058 0.47395 0.0
O412 O 0.62869 0.60227 0.43 0.0
N413 N 0.56136 0.75336 0.41891 0.0
C414 C 0.55452 0.75959 0.46338 0.0
C415 C 0.51498 0.77138 0.47951 0.0
C416 C 0.48054 0.7794 0.45139 0.0
C417 C 0.48523 0.77946 0.40318 0.0
C418 C 0.53154 0.75994 0.38833 0.0
H419 H 0.57914 0.75381 0.48773 0.0
O420 O 0.59388 0.65963 0.47834 0.0
O421 O 0.59853 0.68476 0.41028 0.0
O422 O 0.67461 0.70067 0.47128 0.0
O423 O 0.6436 0.75109 0.44493 0.0
C424 C 0.44741 0.80794 0.3312 0.0
C425 C 0.47847 0.79964 0.28469 0.0
H426 H 0.53672 0.7774 0.21786 0.0
H427 H 0.60067 0.73841 0.22072 0.0
H428 H 0.51091 0.7743 0.51545 0.0
H429 H 0.45207 0.78761 0.46907 0.0
H430 H 0.41774 0.82348 0.32663 0.0
H431 H 0.46756 0.80916 0.2521 0.0
Mn432 Mn 0.15934 0.4078 0.9513 0.0
Mn433 Mn 0.13505 0.3302 0.89399 0.0
C434 C 0.09012 0.39838 0.92684 0.0
C435 C 0.16636 0.4551 1.00447 0.0
C436 C 0.1885 0.39172 0.85659 0.0
O437 O 0.20288 0.37057 0.97612 0.0
O438 O 0.187 0.321 0.93138 0.0
C439 C 0.12297 0.26334 0.9524 0.0
N440 N 0.10575 0.28854 0.92302 0.0
C441 C 0.04712 0.23712 0.90674 0.0
C442 C 0.06876 0.21433 0.93706 0.0
C443 C 0.10521 0.22741 0.95951 0.0
C444 C 0.07103 0.27951 0.89899 0.0
H445 H 0.1517 0.27018 0.97041 0.0
C446 C 0.20889 0.33668 0.96283 0.0
O447 O 0.19139 0.4519 0.97074 0.0
O448 O 0.13947 0.42778 1.01143 0.0
N449 N 0.08508 0.34016 0.85926 0.0
C450 C 0.07881 0.3682 0.82881 0.0
C451 C 0.03963 0.37329 0.80726 0.0
C452 C 0.00456 0.34986 0.81455 0.0
C453 C 0.00827 0.3162 0.8413 0.0
C454 C 0.05501 0.31522 0.86848 0.0
H455 H 0.10353 0.38847 0.82205 0.0
O456 O 0.10728 0.4316 0.92591 0.0
O457 O 0.11548 0.37031 0.93638 0.0
O458 O 0.19069 0.40999 0.89221 0.0
O459 O 0.16692 0.36237 0.85344 0.0
C460 C 0.96835 0.25146 0.85289 0.0
C461 C -0.00107 0.22269 0.88628 0.0
H462 H 0.05651 0.1867 0.94491 0.0
H463 H 0.1207 0.20884 0.98326 0.0
H464 H 0.03601 0.39711 0.7849 0.0
H465 H 0.97624 0.35828 0.7966 0.0
H466 H 0.93811 0.24056 0.8402 0.0
H467 H 0.98711 0.19508 0.89486 0.0
Mn468 Mn 0.31958 0.65982 0.44888 0.0
Mn469 Mn 0.34477 0.73769 0.3916 0.0
C470 C 0.38878 0.66868 0.42413 0.0
C471 C 0.31235 0.61238 0.50235 0.0
C472 C 0.29035 0.67716 0.35416 0.0
O473 O 0.2768 0.69716 0.47397 0.0
O474 O 0.29263 0.74684 0.42879 0.0
C475 C 0.3572 0.80347 0.45091 0.0
N476 N 0.37429 0.77868 0.42128 0.0
C477 C 0.4336 0.82987 0.4062 0.0
C478 C 0.41202 0.85229 0.43666 0.0
C479 C 0.3753 0.8391 0.45866 0.0
C480 C 0.40934 0.7878 0.39773 0.0
H481 H 0.32834 0.79653 0.46867 0.0
C482 C 0.27093 0.73113 0.46056 0.0
O483 O 0.28715 0.61586 0.46868 0.0
O484 O 0.33958 0.63944 0.50894 0.0
N485 N 0.39489 0.72796 0.35711 0.0
C486 C 0.40107 0.70044 0.32633 0.0
C487 C 0.44029 0.6955 0.30488 0.0
C488 C 0.47552 0.7186 0.31259 0.0
C489 C 0.47199 0.75178 0.33978 0.0
C490 C 0.42516 0.75255 0.3668 0.0
H491 H 0.37625 0.68042 0.31921 0.0
O492 O 0.37113 0.63567 0.4232 0.0
O493 O 0.36387 0.69694 0.43382 0.0
O494 O 0.28779 0.6588 0.38995 0.0
O495 O 0.31294 0.70596 0.35067 0.0
C496 C 0.51239 0.81604 0.35247 0.0
C497 C 0.48196 0.84436 0.38616 0.0
H498 H 0.42449 0.87969 0.44495 0.0
H499 H 0.35989 0.85736 0.48257 0.0
H500 H 0.4438 0.67206 0.28223 0.0
H501 H 0.50382 0.71035 0.29462 0.0
H502 H 0.54275 0.827 0.34006 0.0
H503 H 0.49397 0.87174 0.39516 0.0
Mn504 Mn 0.15669 0.65948 0.10591 0.0
Mn505 Mn 0.12813 0.73821 0.15822 0.0
C506 C 0.08626 0.66829 0.12635 0.0
C507 C 0.16637 0.61046 0.05554 0.0
C508 C 0.18083 0.67887 0.20158 0.0
O509 O 0.20053 0.69677 0.08147 0.0
O510 O 0.18193 0.74718 0.12353 0.0
C511 C 0.11853 0.80348 0.09689 0.0
N512 N 0.09996 0.77885 0.12611 0.0
C513 C 0.04277 0.83176 0.14078 0.0
C514 C 0.0657 0.85381 0.11066 0.0
C515 C 0.10201 0.8397 0.08898 0.0
C516 C 0.06477 0.7887 0.14888 0.0
H517 H 0.14745 0.79593 0.07975 0.0
C518 C 0.20535 0.73113 0.09366 0.0
O519 O 0.19015 0.61523 0.09008 0.0
O520 O 0.13968 0.63726 0.04594 0.0
N521 N 0.07648 0.72853 0.19013 0.0
C522 C 0.06861 0.70047 0.22011 0.0
C523 C 0.02892 0.69615 0.2407 0.0
C524 C -0.00495 0.72065 0.23323 0.0
C525 C 0.00048 0.75427 0.20671 0.0
C526 C 0.04719 0.75373 0.17965 0.0
H527 H 0.09233 0.67942 0.22678 0.0
O528 O 0.10397 0.63547 0.12977 0.0
O529 O 0.11147 0.69654 0.11672 0.0
O530 O 0.18545 0.65984 0.16674 0.0
O531 O 0.15792 0.70753 0.20221 0.0
C532 C 0.96336 0.82008 0.19476 0.0
C533 C -0.00481 0.84778 0.16112 0.0
H534 H 0.05468 0.88174 0.10248 0.0
H535 H 0.11855 0.85777 0.06541 0.0
H536 H 0.02416 0.67248 0.26305 0.0
H537 H 0.9663 0.71304 0.25097 0.0
H538 H 0.93357 0.83187 0.20731 0.0
H539 H 0.98464 0.8757 0.15238 0.0
Mn540 Mn 0.32133 0.40848 0.60821 0.0
Mn541 Mn 0.34798 0.32791 0.659 0.0
C542 C 0.39149 0.39833 0.62816 0.0
C543 C 0.31176 0.45752 0.55727 0.0
C544 C 0.2962 0.38752 0.7032 0.0
O545 O 0.27654 0.37212 0.58432 0.0
O546 O 0.29555 0.31925 0.62227 0.0
C547 C 0.35955 0.26273 0.5989 0.0
N548 N 0.37734 0.28756 0.62812 0.0
C549 C 0.43458 0.23498 0.64509 0.0
C550 C 0.41258 0.21279 0.61461 0.0
C551 C 0.3766 0.22663 0.59186 0.0
C552 C 0.41186 0.2778 0.65223 0.0
H553 H 0.33076 0.26996 0.58116 0.0
C554 C 0.27225 0.33701 0.59351 0.0
O555 O 0.28863 0.45332 0.59244 0.0
O556 O 0.33783 0.43033 0.54767 0.0
N557 N 0.39853 0.33767 0.69266 0.0
C558 C 0.4055 0.36583 0.7224 0.0
C559 C 0.44474 0.37054 0.74378 0.0
C560 C 0.47915 0.34652 0.73713 0.0
C561 C 0.4747 0.31291 0.71081 0.0
C562 C 0.4284 0.3129 0.68295 0.0
H563 H 0.38142 0.38668 0.72825 0.0
O564 O 0.37457 0.43147 0.63119 0.0
O565 O 0.36574 0.37048 0.61846 0.0
O566 O 0.29409 0.40887 0.6698 0.0
O567 O 0.31631 0.35731 0.70207 0.0
C568 C 0.51299 0.24755 0.70033 0.0
C569 C 0.48207 0.21949 0.66648 0.0
H570 H 0.42412 0.18499 0.60696 0.0
H571 H 0.36075 0.20843 0.56813 0.0
H572 H 0.44876 0.39423 0.76597 0.0
H573 H 0.5075 0.35448 0.75528 0.0
H574 H 0.54276 0.2361 0.71355 0.0
H575 H 0.49319 0.19171 0.65824 0.0
C576 C 0.27948 0.30117 0.05769 0.0
C577 C 0.28613 0.26325 0.04678 0.0
C578 C 0.25642 0.32515 0.02933 0.0
C579 C 0.23919 0.31244 0.98847 0.0
H580 H 0.29111 0.31231 0.08921 0.0
H581 H 0.2509 0.35357 0.04047 0.0
S582 S 0.25283 0.21678 0.94127 0.0
N583 N 0.27694 0.21489 0.99051 0.0
N584 N 0.23458 0.25994 0.93641 0.0
C585 C 0.24774 0.27501 0.97593 0.0
C586 C 0.27078 0.25044 1.00527 0.0
C587 C 0.22407 0.74205 0.52744 0.0
C588 C 0.24111 0.7553 0.48659 0.0
C589 C 0.20142 0.76568 0.55621 0.0
C590 C 0.19488 0.8038 0.54575 0.0
H591 H 0.22937 0.71341 0.53825 0.0
H592 H 0.18989 0.754 0.58762 0.0
S593 S 0.22814 0.85182 0.4406 0.0
N594 N 0.24601 0.80863 0.43516 0.0
N595 N 0.20423 0.85304 0.48995 0.0
C596 C 0.21014 0.81721 0.50428 0.0
C597 C 0.23286 0.79299 0.47455 0.0
C598 C 0.27822 0.76559 0.99996 0.0
C599 C 0.2833 0.80405 1.00924 0.0
C600 C 0.25501 0.74186 0.02862 0.0
C601 C 0.23601 0.75535 0.0682 0.0
H602 H 0.29115 0.75376 0.96943 0.0
H603 H 0.25073 0.71296 1.01863 0.0
S604 S 0.24503 0.85283 0.11126 0.0
N605 N 0.27071 0.85384 0.06289 0.0
N606 N 0.22806 0.80932 0.1175 0.0
C607 C 0.24303 0.79338 0.07926 0.0
C608 C 0.26626 0.81767 0.04962 0.0
C609 C 0.23582 0.27576 0.57612 0.0
C610 C 0.24251 0.31402 0.5657 0.0
C611 C 0.21355 0.25187 0.54691 0.0
C612 C 0.19668 0.26523 0.50614 0.0
H613 H 0.24883 0.26375 0.60666 0.0
H614 H 0.20975 0.22269 0.5563 0.0
S615 S 0.20434 0.36312 0.4629 0.0
N616 N 0.22936 0.36406 0.51159 0.0
N617 N 0.18774 0.31958 0.45704 0.0
C618 C 0.20217 0.30363 0.49577 0.0
C619 C 0.22485 0.32789 0.52544 0.0
C620 C 0.77631 0.80134 0.05115 0.0
C621 C 0.78282 0.76317 0.04124 0.0
C622 C 0.75337 0.82492 1.02218 0.0
C623 C 0.73604 0.81152 0.98172 0.0
H624 H 0.78795 0.81304 0.08237 0.0
H625 H 0.74786 0.85353 0.03261 0.0
S626 S 0.74928 0.71501 0.93692 0.0
N627 N 0.77345 0.71389 0.98617 0.0
N628 N 0.73116 0.75813 0.93103 0.0
C629 C 0.74444 0.77384 0.97014 0.0
C630 C 0.76743 0.74971 1.00005 0.0
C631 C 0.73821 0.29158 0.48318 0.0
C632 C 0.74178 0.25265 0.49138 0.0
C633 C 0.71522 0.31505 0.51194 0.0
C634 C 0.69429 0.30067 0.54999 0.0
H635 H 0.75438 0.30449 0.45491 0.0
H636 H 0.71432 0.34478 0.5045 0.0
S637 S 0.69067 0.20037 0.5852 0.0
N638 N 0.72021 0.20064 0.5394 0.0
N639 N 0.67671 0.24436 0.59313 0.0
C640 C 0.69597 0.26153 0.55762 0.0
C641 C 0.71962 0.23766 0.5284 0.0
C642 C 0.76827 0.31463 0.0428 0.0
C643 C 0.78836 0.30078 1.00421 0.0
C644 C 0.74492 0.29094 0.07137 0.0
C645 C 0.73996 0.25228 0.06242 0.0
H646 H 0.77018 0.34415 0.05088 0.0
H647 H 0.72957 0.30354 0.10015 0.0
S648 S 0.78819 0.2014 0.96667 0.0
N649 N 0.80359 0.24526 0.95957 0.0
N650 N 0.75919 0.20108 1.01289 0.0
C651 C 0.76119 0.23777 1.02476 0.0
C652 C 0.78535 0.26188 0.99577 0.0
C653 C 0.72046 0.8217 0.52346 0.0
C654 C 0.74022 0.80771 0.56254 0.0
C655 C 0.69678 0.79827 0.49514 0.0
C656 C 0.692 0.75968 0.50433 0.0
H657 H 0.72445 0.85075 0.51363 0.0
H658 H 0.6832 0.81043 0.46496 0.0
S659 S 0.73243 0.7096 0.60511 0.0
N660 N 0.7494 0.75306 0.61126 0.0
N661 N 0.7058 0.70918 0.5573 0.0
C662 C 0.70991 0.74555 0.54419 0.0
C663 C 0.73363 0.76949 0.57345 0.0
C664 C 0.35787 0.04714 0.04534 0.0
C665 C 0.31958 0.06164 0.06282 0.0
C666 C 0.35776 1.01955 1.01129 0.0
C667 C 0.31936 1.00533 0.99357 0.0
H668 H 0.38811 0.05801 0.05701 0.0
H669 H 0.38791 1.00845 0.99982 0.0
S670 S 0.21066 0.03388 1.02781 0.0
N671 N 0.24244 0.05982 0.05914 0.0
N672 N 0.24223 1.00772 0.99671 0.0
C673 C 0.28107 1.01955 1.01102 0.0
C674 C 0.28118 0.04771 0.0451 0.0
C675 C 0.1188 1.01981 0.54395 0.0
C676 C 0.15684 1.00487 0.5617 0.0
C677 C 0.11942 0.04803 0.5103 0.0
C678 C 0.15809 0.06245 0.49328 0.0
H679 H 0.0884 1.00879 0.55504 0.0
H680 H 0.08945 0.05942 0.49855 0.0
S681 S 0.26628 1.0329 0.5285 0.0
N682 N 0.23404 1.00654 0.55908 0.0
N683 N 0.23516 0.05974 0.49736 0.0
C684 C 0.19611 0.04781 0.51103 0.0
C685 C 0.1955 1.01904 0.54472 0.0
C686 C 0.66256 1.02487 0.98056 0.0
C687 C 0.66015 0.99418 1.01086 0.0
C688 C 0.66205 0.06209 0.9955 0.0
C689 C 0.65995 0.06988 0.04139 0.0
H690 H 0.66541 1.02006 0.94476 0.0
H691 H 0.66516 0.08469 0.97126 0.0
S692 S 0.6496 1.00013 0.13423 0.0
N693 N 0.65246 0.97439 0.08836 0.0
N694 N 0.65239 0.04418 0.11712 0.0
C695 C 0.65585 0.03953 0.07195 0.0
C696 C 0.65563 1.00169 0.05656 0.0
C697 C 0.77269 0.05018 0.51985 0.0
C698 C 0.81105 0.07048 0.51744 0.0
C699 C 0.77239 1.01135 0.52676 0.0
C700 C 0.81046 0.99089 0.53036 0.0
H701 H 0.74253 0.06445 0.51556 0.0
H702 H 0.74198 0.99722 0.53013 0.0
S703 S 0.91963 1.03047 0.52557 0.0
N704 N 0.88828 0.06717 0.5185 0.0
N705 N 0.88774 0.9939 0.53167 0.0
C706 C 0.84915 1.01069 0.52766 0.0
C707 C 0.84944 0.05053 0.52132 0.0
C708 C 0.78532 0.51386 1.01865 0.0
C709 C 0.82193 0.50431 0.99372 0.0
C710 C 0.78596 0.54246 0.05103 0.0
C711 C 0.8236 0.562 0.06135 0.0
H712 H 0.75571 0.49896 1.01314 0.0
H713 H 0.75654 0.54965 0.06786 0.0
S714 S 0.92815 0.54893 1.00562 0.0
N715 N 0.89693 0.51766 0.98136 0.0
N716 N 0.89821 0.57088 0.04274 0.0
C717 C 0.86051 0.55286 0.03687 0.0
C718 C 0.85965 0.52424 1.003 0.0
C719 C 0.69384 0.51707 0.54067 0.0
C720 C 0.6559 0.50288 0.55948 0.0
C721 C 0.69344 0.54494 0.50704 0.0
C722 C 0.65508 0.55902 0.48925 0.0
H723 H 0.72428 0.5063 0.55191 0.0
H724 H 0.72362 0.55583 0.49505 0.0
S725 S 0.54666 0.53081 0.52584 0.0
N726 N 0.57863 0.5049 0.55725 0.0
N727 N 0.57789 0.5568 0.49356 0.0
C728 C 0.6168 0.54481 0.50729 0.0
C729 C 0.61722 0.51697 0.54246 0.0
C730 C 0.20246 0.55121 0.03688 0.0
C731 C 0.16459 0.57216 0.03698 0.0
C732 C 0.20207 0.51241 0.03071 0.0
C733 C 0.16377 0.49258 1.02492 0.0
H734 H 0.23281 0.56493 0.04241 0.0
H735 H 0.23228 0.49785 0.02912 0.0
S736 S 0.05555 0.53385 1.0232 0.0
N737 N 0.0874 0.57005 0.0318 0.0
N738 N 0.08677 0.49679 1.01916 0.0
C739 C 0.1255 0.51297 1.0253 0.0
C740 C 0.1259 0.55282 0.03133 0.0
C741 C 0.27624 0.55524 0.52939 0.0
C742 C 0.31463 0.57492 0.52331 0.0
C743 C 0.27574 0.51652 0.53669 0.0
C744 C 0.31356 0.49553 0.53754 0.0
H745 H 0.24609 0.56985 0.52729 0.0
H746 H 0.24535 0.50289 0.54252 0.0
S747 S 0.42275 0.53346 0.52331 0.0
N748 N 0.39165 0.57053 0.51812 0.0
N749 N 0.39077 0.49741 0.53269 0.0
C750 C 0.35232 0.51472 0.53152 0.0
C751 C 0.35285 0.55448 0.52444 0.0
C752 C 0.51353 0.1613 0.155 0.0
C753 C 0.54127 0.17473 0.12151 0.0
C754 C 0.46905 0.16439 0.1506 0.0
C755 C 0.45026 0.17667 0.1102 0.0
H756 H 0.52629 0.14822 0.18492 0.0
H757 H 0.44917 0.15546 0.17842 0.0
S758 S 0.50892 0.20075 1.0057 0.0
N759 N 0.54676 0.19449 0.04358 0.0
N760 N 0.46336 0.19308 0.03203 0.0
C761 C 0.47767 0.18496 0.07403 0.0
C762 C 0.52303 0.18558 0.08027 0.0
C763 C 0.95582 0.8734 0.58338 0.0
C764 C 0.93665 0.89302 0.61895 0.0
C765 C 0.00045 0.87302 0.57775 0.0
C766 C 0.02791 0.88815 0.61036 0.0
H767 H 0.93613 0.85966 0.5585 0.0
H768 H 0.01355 0.86041 0.54786 0.0
S769 S -0.00563 0.95072 0.70275 0.0
N770 N 0.9491 0.93674 0.67993 0.0
N771 N 0.03255 0.9292 0.67486 0.0
C772 C 0.0092 0.90927 0.64486 0.0
C773 C 0.96379 0.91313 0.64785 0.0
C774 C 0.46563 0.90324 0.90191 0.0
C775 C 0.44776 0.88981 0.9423 0.0
C776 C 0.51003 0.90679 0.89655 0.0
C777 C 0.53854 0.89276 0.92891 0.0
H778 H 0.4451 0.91266 0.87488 0.0
H779 H 0.52211 0.9205 0.86669 0.0
S780 S 0.50882 0.86385 0.04457 0.0
N781 N 0.46267 0.87181 1.01959 0.0
N782 N 0.54578 0.87121 1.006 0.0
C783 C 0.52122 0.88082 0.97019 0.0
C784 C 0.47601 0.88095 0.97752 0.0
C785 C 0.00238 0.19153 0.4756 0.0
C786 C 0.03022 0.17727 0.44287 0.0
C787 C 0.95781 0.191 0.46939 0.0
C788 C 0.93912 0.17212 0.43289 0.0
H789 H 0.01514 0.20369 0.50598 0.0
H790 H 0.93778 0.20397 0.49449 0.0
S791 S -0.0021 0.11689 0.3478 0.0
N792 N 0.0357 0.13794 0.37693 0.0
N793 N 0.95237 0.13 0.37056 0.0
C794 C 0.96663 0.15294 0.40362 0.0
C795 C 0.01196 0.15697 0.40734 0.0
C796 C 0.02104 0.69136 0.08551 0.0
C797 C 0.03889 0.67109 0.12162 0.0
C798 C 0.97662 0.69243 0.07851 0.0
C799 C 0.94806 0.67735 0.11022 0.0
H800 H 0.04163 0.70515 0.06133 0.0
H801 H 0.96455 0.70558 0.0483 0.0
S802 S 0.97796 0.61329 0.20338 0.0
N803 N 0.02407 0.6269 0.18205 0.0
N804 N 0.94093 0.63561 0.17436 0.0
C805 C 0.96544 0.65552 0.14516 0.0
C806 C 0.01066 0.65102 0.14956 0.0
C807 C 0.5013 0.37454 0.5812 0.0
C808 C 0.52959 0.38946 0.61312 0.0
C809 C 0.45685 0.37531 0.58796 0.0
C810 C 0.43879 0.39506 0.62407 0.0
H811 H 0.51361 0.36163 0.5511 0.0
H812 H 0.43642 0.36176 0.56359 0.0
S813 S 0.49898 0.45232 0.70632 0.0
N814 N 0.53625 0.43045 0.67749 0.0
N815 N 0.45307 0.43876 0.68463 0.0
C816 C 0.46676 0.41497 0.65224 0.0
C817 C 0.51197 0.41074 0.64809 0.0
C818 C 0.01499 0.40939 0.89944 0.0
C819 C 0.0429 0.3952 0.93229 0.0
C820 C 0.9705 0.40544 0.90362 0.0
C821 C 0.95185 0.39138 0.94333 0.0
H822 H 0.02762 0.42352 0.87012 0.0
H823 H 0.95047 0.41498 0.87623 0.0
S824 S 0.01083 0.36479 0.04671 0.0
N825 N 0.04857 0.37291 1.00922 0.0
N826 N 0.96518 0.37262 1.02067 0.0
C827 C 0.97938 0.3824 0.97912 0.0
C828 C 0.02474 0.38274 0.97296 0.0
C829 C 0.50827 0.66081 0.40081 0.0
C830 C 0.52715 0.67397 0.44069 0.0
C831 C 0.46373 0.65736 0.39661 0.0
C832 C 0.43604 0.67124 0.42965 0.0
H833 H 0.52814 0.65158 0.37328 0.0
H834 H 0.4509 0.64389 0.36712 0.0
S835 S 0.46862 0.69912 0.5445 0.0
N836 N 0.51414 0.69136 0.51832 0.0
N837 N 0.43073 0.69209 0.50692 0.0
C838 C 0.4544 0.68274 0.47049 0.0
C839 C 0.49977 0.68252 0.47664 0.0
C840 C 0.24948 0.15712 0.2559 0.0
C841 C 0.26082 0.19095 0.23408 0.0
C842 C 0.22974 0.15701 0.29878 0.0
C843 C 0.22117 0.19071 0.3217 0.0
H844 H 0.25657 0.13056 0.24018 0.0
H845 H 0.22023 0.13048 0.31352 0.0
S846 S 0.24501 0.28685 0.27978 0.0
N847 N 0.26054 0.25907 0.23893 0.0
N848 N 0.22714 0.25865 0.31953 0.0
C849 C 0.23315 0.2245 0.30041 0.0
C850 C 0.25175 0.22469 0.2567 0.0
C851 C 0.2455 0.84547 0.80029 0.0
C852 C 0.25689 0.87913 0.82173 0.0
C853 C 0.22658 0.84509 0.75778 0.0
C854 C 0.21713 0.87837 0.73411 0.0
H855 H 0.252 0.8187 0.81619 0.0
H856 H 0.21874 0.81804 0.74361 0.0
S857 S 0.2398 0.97456 0.77483 0.0
N858 N 0.25765 0.9471 0.81555 0.0
N859 N 0.22029 0.94644 0.73591 0.0
C860 C 0.22798 0.91249 0.755 0.0
C861 C 0.24788 0.91287 0.7987 0.0
C862 C 0.69971 0.90698 0.76991 0.0
C863 C 0.71264 0.89274 0.81173 0.0
C864 C 0.7275 0.90636 0.73301 0.0
C865 C 0.76837 0.89048 0.73689 0.0
H866 H 0.66755 0.91723 0.76534 0.0
H867 H 0.71595 0.91612 0.7007 0.0
S868 S 0.81713 0.85154 0.84076 0.0
N869 N 0.76895 0.86462 0.85616 0.0
N870 N 0.82094 0.86242 0.78692 0.0
C871 C 0.78196 0.87767 0.77932 0.0
C872 C 0.75404 0.87898 0.81677 0.0
C873 C 0.77759 0.20189 0.27668 0.0
C874 C 0.77159 0.17635 0.31239 0.0
C875 C 0.7506 0.20212 0.23965 0.0
C876 C 0.7171 0.17639 0.23631 0.0
H877 H 0.80231 0.22308 0.27796 0.0
H878 H 0.75527 0.22334 0.21389 0.0
S879 S 0.6903 0.10071 0.31686 0.0
N880 N 0.73136 0.12239 0.3399 0.0
N881 N 0.68097 0.12259 0.26877 0.0
C882 C 0.71219 0.14894 0.2697 0.0
C883 C 0.73949 0.14891 0.30813 0.0
C884 C 0.72799 0.65595 0.29476 0.0
C885 C 0.71716 0.68945 0.31705 0.0
C886 C 0.74752 0.65646 0.25177 0.0
C887 C 0.75639 0.69047 0.2291 0.0
H888 H 0.72063 0.62917 0.31017 0.0
H889 H 0.75657 0.6301 0.2367 0.0
S890 S 0.7339 0.78604 0.27235 0.0
N891 N 0.71831 0.75765 0.31297 0.0
N892 N 0.75118 0.75842 0.23214 0.0
C893 C 0.74492 0.72398 0.25089 0.0
C894 C 0.72658 0.72352 0.29476 0.0
C895 C 0.72957 0.41011 0.75624 0.0
C896 C 0.72082 0.37636 0.73344 0.0
C897 C 0.74961 0.4101 0.79898 0.0
C898 C 0.76103 0.37632 0.82074 0.0
H899 H 0.72003 0.4366 0.74152 0.0
H900 H 0.75692 0.43669 0.81458 0.0
S901 S 0.74473 0.28032 0.77538 0.0
N902 N 0.72668 0.30842 0.73567 0.0
N903 N 0.76054 0.3082 0.81608 0.0
C904 C 0.7517 0.34253 0.79829 0.0
C905 C 0.73285 0.34261 0.7547 0.0
C906 C 0.23101 0.41141 0.74098 0.0
C907 C 0.27221 0.39624 0.74424 0.0
C908 C 0.20422 0.41243 0.77862 0.0
C909 C 0.21862 0.39959 0.82057 0.0
H910 H 0.21834 0.41994 0.70865 0.0
H911 H 0.17157 0.42156 0.77451 0.0
S912 S 0.32473 0.36095 0.84787 0.0
N913 N 0.32675 0.37038 0.79354 0.0
N914 N 0.27679 0.37381 0.86435 0.0
C915 C 0.26053 0.38697 0.82496 0.0
C916 C 0.28735 0.38497 0.78668 0.0
C917 C 0.27709 0.66191 0.27412 0.0
C918 C 0.26116 0.66885 0.31732 0.0
C919 C 0.24991 0.66194 0.2368 0.0
C920 C 0.20642 0.67029 0.24165 0.0
H921 H 0.31094 0.65805 0.26898 0.0
H922 H 0.26355 0.65816 0.20369 0.0
S923 S 0.14937 0.68833 0.34844 0.0
N924 N 0.19936 0.68162 0.36361 0.0
N925 N 0.1484 0.68333 0.29331 0.0
C926 C 0.18998 0.67559 0.28505 0.0
C927 C 0.21741 0.67448 0.32303 0.0
loop_
_geom_bond_atom_site_label_1
_geom_bond_atom_site_label_2
_geom_bond_distance
_geom_bond_site_symmetry_2
_ccdc_geom_bond_type
Mn0 O5 2.095 . S
Mn0 O15 2.162 . S
Mn0 O16 2.297 . S
Mn0 O24 2.385 . S
Mn0 O25 2.209 . S
Mn0 O26 2.094 . S
Mn1 O6 2.121 . S
Mn1 N8 2.257 . S
Mn1 N17 2.282 . S
Mn1 O25 2.215 . S
Mn1 O27 2.117 . S
C2 O24 1.234 . S
C2 O25 1.283 . S
C3 O15 1.281 . S
C3 O16 1.236 . S
C4 O26 1.240 . S
C4 O27 1.264 . S
O5 Mn0 2.095 . S
O5 C14 1.250 . S
O6 Mn1 2.121 . S
O6 C14 1.258 . S
C7 N8 1.326 . S
C7 C11 1.460 . S
C7 H13 0.929 . S
N8 Mn1 2.257 . S
N8 C7 1.326 . S
N8 C12 1.362 . S
C9 C10 1.258 . S
C9 C12 1.431 . S
C9 C29 1.449 . S
C10 C9 1.258 . S
C10 C11 1.477 . S
C10 H30 0.931 . S
C11 C7 1.460 . S
C11 C10 1.477 . S
C11 H31 0.930 . S
C12 N8 1.362 . S
C12 C9 1.431 . S
C12 C22 1.476 . S
H13 C7 0.929 . S
C14 O5 1.250 . S
C14 O6 1.258 . S
O15 Mn0 2.162 . S
O15 C3 1.281 . S
O16 Mn0 2.297 . S
O16 C3 1.236 . S
N17 Mn1 2.282 . S
N17 C18 1.328 . S
N17 C22 1.318 . S
C18 N17 1.328 . S
C18 C19 1.457 . S
C18 H23 0.929 . S
C19 C18 1.457 . S
C19 C20 1.291 . S
C19 H32 0.931 . S
C20 C19 1.291 . S
C20 C21 1.373 . S
C20 H33 0.929 . S
C21 C20 1.373 . S
C21 C22 1.396 . S
C21 C28 1.403 . S
C22 C12 1.476 . S
C22 N17 1.318 . S
C22 C21 1.396 . S
H23 C18 0.929 . S
O24 Mn0 2.385 . S
O24 C2 1.234 . S
O25 Mn0 2.209 . S
O25 Mn1 2.215 . S
O25 C2 1.283 . S
O26 Mn0 2.094 . S
O26 C4 1.240 . S
O27 Mn1 2.117 . S
O27 C4 1.264 . S
C28 C21 1.403 . S
C28 C29 1.399 . S
C28 H34 0.929 . S
C29 C9 1.449 . S
C29 C28 1.399 . S
C29 H35 0.930 . S
H30 C10 0.931 . S
H31 C11 0.930 . S
H32 C19 0.931 . S
H33 C20 0.929 . S
H34 C28 0.929 . S
H35 C29 0.930 . S
Mn36 O41 2.095 . S
Mn36 O51 2.162 . S
Mn36 O52 2.297 . S
Mn36 O60 2.385 . S
Mn36 O61 2.209 . S
Mn36 O62 2.094 . S
Mn37 O42 2.121 . S
Mn37 N44 2.257 . S
Mn37 N53 2.282 . S
Mn37 O61 2.215 . S
Mn37 O63 2.117 . S
C38 O60 1.234 . S
C38 O61 1.283 . S
C39 O51 1.281 . S
C39 O52 1.236 . S
C40 O62 1.240 . S
C40 O63 1.264 . S
O41 Mn36 2.095 . S
O41 C50 1.250 . S
O42 Mn37 2.121 . S
O42 C50 1.258 . S
C43 N44 1.326 . S
C43 C47 1.460 . S
C43 H49 0.929 . S
N44 Mn37 2.257 . S
N44 C43 1.326 . S
N44 C48 1.362 . S
C45 C46 1.258 . S
C45 C48 1.431 . S
C45 C65 1.449 1_455 S
C46 C45 1.258 . S
C46 C47 1.477 . S
C46 H66 0.931 1_455 S
C47 C43 1.460 . S
C47 C46 1.477 . S
C47 H67 0.930 . S
C48 N44 1.362 . S
C48 C45 1.431 . S
C48 C58 1.476 . S
H49 C43 0.929 . S
C50 O41 1.250 . S
C50 O42 1.258 . S
O51 Mn36 2.162 . S
O51 C39 1.281 . S
O52 Mn36 2.297 . S
O52 C39 1.236 . S
N53 Mn37 2.282 . S
N53 C54 1.328 . S
N53 C58 1.318 . S
C54 N53 1.328 . S
C54 C55 1.457 . S
C54 H59 0.929 . S
C55 C54 1.457 . S
C55 C56 1.291 . S
C55 H68 0.931 . S
C56 C55 1.291 . S
C56 C57 1.373 . S
C56 H69 0.929 1_455 S
C57 C56 1.373 . S
C57 C58 1.396 . S
C57 C64 1.403 1_455 S
C58 C48 1.476 . S
C58 N53 1.318 . S
C58 C57 1.396 . S
H59 C54 0.929 . S
O60 Mn36 2.385 . S
O60 C38 1.234 . S
O61 Mn36 2.209 . S
O61 Mn37 2.215 . S
O61 C38 1.283 . S
O62 Mn36 2.094 . S
O62 C40 1.240 . S
O63 Mn37 2.117 . S
O63 C40 1.264 . S
C64 C57 1.403 1_655 S
C64 C65 1.399 . S
C64 H70 0.929 . S
C65 C45 1.449 1_655 S
C65 C64 1.399 . S
C65 H71 0.930 . S
H66 C46 0.931 1_655 S
H67 C47 0.930 . S
H68 C55 0.931 . S
H69 C56 0.929 1_655 S
H70 C64 0.929 . S
H71 C65 0.930 . S
Mn72 O77 2.095 . S
Mn72 O87 2.162 . S
Mn72 O88 2.297 . S
Mn72 O96 2.385 . S
Mn72 O97 2.209 . S
Mn72 O98 2.094 . S
Mn73 O78 2.121 . S
Mn73 N80 2.257 . S
Mn73 N89 2.282 . S
Mn73 O97 2.215 . S
Mn73 O99 2.117 . S
C74 O96 1.234 . S
C74 O97 1.283 . S
C75 O87 1.281 . S
C75 O88 1.236 . S
C76 O98 1.240 . S
C76 O99 1.264 . S
O77 Mn72 2.095 . S
O77 C86 1.250 . S
O78 Mn73 2.121 . S
O78 C86 1.258 . S
C79 N80 1.326 . S
C79 C83 1.460 . S
C79 H85 0.929 . S
N80 Mn73 2.257 . S
N80 C79 1.326 . S
N80 C84 1.362 . S
C81 C82 1.258 . S
C81 C84 1.431 . S
C81 C101 1.449 . S
C82 C81 1.258 . S
C82 C83 1.477 . S
C82 H102 0.931 . S
C83 C79 1.460 . S
C83 C82 1.477 . S
C83 H103 0.930 . S
C84 N80 1.362 . S
C84 C81 1.431 . S
C84 C94 1.476 . S
H85 C79 0.929 . S
C86 O77 1.250 . S
C86 O78 1.258 . S
O87 Mn72 2.162 . S
O87 C75 1.281 . S
O88 Mn72 2.297 . S
O88 C75 1.236 . S
N89 Mn73 2.282 . S
N89 C90 1.328 . S
N89 C94 1.318 . S
C90 N89 1.328 . S
C90 C91 1.457 . S
C90 H95 0.929 . S
C91 C90 1.457 . S
C91 C92 1.291 . S
C91 H104 0.931 . S
C92 C91 1.291 . S
C92 C93 1.373 . S
C92 H105 0.929 . S
C93 C92 1.373 . S
C93 C94 1.396 . S
C93 C100 1.403 . S
C94 C84 1.476 . S
C94 N89 1.318 . S
C94 C93 1.396 . S
H95 C90 0.929 . S
O96 Mn72 2.385 . S
O96 C74 1.234 . S
O97 Mn72 2.209 . S
O97 Mn73 2.215 . S
O97 C74 1.283 . S
O98 Mn72 2.094 . S
O98 C76 1.240 . S
O99 Mn73 2.117 . S
O99 C76 1.264 . S
C100 C93 1.403 . S
C100 C101 1.399 . S
C100 H106 0.929 . S
C101 C81 1.449 . S
C101 C100 1.399 . S
C101 H107 0.930 . S
H102 C82 0.931 . S
H103 C83 0.930 . S
H104 C91 0.931 . S
H105 C92 0.929 . S
H106 C100 0.929 . S
H107 C101 0.930 . S
Mn108 O113 2.095 . S
Mn108 O123 2.162 . S
Mn108 O124 2.297 . S
Mn108 O132 2.385 . S
Mn108 O133 2.209 . S
Mn108 O134 2.094 . S
Mn109 O114 2.121 . S
Mn109 N116 2.257 . S
Mn109 N125 2.282 . S
Mn109 O133 2.215 . S
Mn109 O135 2.117 . S
C110 O132 1.234 . S
C110 O133 1.283 . S
C111 O123 1.281 . S
C111 O124 1.236 . S
C112 O134 1.240 . S
C112 O135 1.264 . S
O113 Mn108 2.095 . S
O113 C122 1.250 . S
O114 Mn109 2.121 . S
O114 C122 1.258 . S
C115 N116 1.326 . S
C115 C119 1.460 . S
C115 H121 0.929 . S
N116 Mn109 2.257 . S
N116 C115 1.326 . S
N116 C120 1.362 . S
C117 C118 1.258 . S
C117 C120 1.431 . S
C117 C137 1.449 1_455 S
C118 C117 1.258 . S
C118 C119 1.477 . S
C118 H138 0.931 1_455 S
C119 C115 1.460 . S
C119 C118 1.477 . S
C119 H139 0.930 . S
C120 N116 1.362 . S
C120 C117 1.431 . S
C120 C130 1.476 . S
H121 C115 0.929 . S
C122 O113 1.250 . S
C122 O114 1.258 . S
O123 Mn108 2.162 . S
O123 C111 1.281 . S
O124 Mn108 2.297 . S
O124 C111 1.236 . S
N125 Mn109 2.282 . S
N125 C126 1.328 . S
N125 C130 1.318 . S
C126 N125 1.328 . S
C126 C127 1.457 . S
C126 H131 0.929 . S
C127 C126 1.457 . S
C127 C128 1.291 . S
C127 H140 0.931 . S
C128 C127 1.291 . S
C128 C129 1.373 . S
C128 H141 0.929 1_455 S
C129 C128 1.373 . S
C129 C130 1.396 . S
C129 C136 1.403 1_455 S
C130 C120 1.476 . S
C130 N125 1.318 . S
C130 C129 1.396 . S
H131 C126 0.929 . S
O132 Mn108 2.385 . S
O132 C110 1.234 . S
O133 Mn108 2.209 . S
O133 Mn109 2.215 . S
O133 C110 1.283 . S
O134 Mn108 2.094 . S
O134 C112 1.240 . S
O135 Mn109 2.117 . S
O135 C112 1.264 . S
C136 C129 1.403 1_655 S
C136 C137 1.399 . S
C136 H142 0.929 . S
C137 C117 1.449 1_655 S
C137 C136 1.399 . S
C137 H143 0.930 . S
H138 C118 0.931 1_655 S
H139 C119 0.930 . S
H140 C127 0.931 . S
H141 C128 0.929 1_655 S
H142 C136 0.929 . S
H143 C137 0.930 . S
Mn144 O149 2.095 . S
Mn144 O159 2.162 . S
Mn144 O160 2.297 . S
Mn144 O168 2.385 . S
Mn144 O169 2.209 . S
Mn144 O170 2.094 . S
Mn145 O150 2.121 . S
Mn145 N152 2.257 . S
Mn145 N161 2.282 . S
Mn145 O169 2.215 . S
Mn145 O171 2.117 . S
C146 O168 1.234 . S
C146 O169 1.283 . S
C147 O159 1.281 . S
C147 O160 1.236 . S
C148 O170 1.240 . S
C148 O171 1.264 . S
O149 Mn144 2.095 . S
O149 C158 1.250 . S
O150 Mn145 2.121 . S
O150 C158 1.258 . S
C151 N152 1.326 . S
C151 C155 1.460 . S
C151 H157 0.929 . S
N152 Mn145 2.257 . S
N152 C151 1.326 . S
N152 C156 1.362 . S
C153 C154 1.258 . S
C153 C156 1.431 . S
C153 C173 1.449 . S
C154 C153 1.258 . S
C154 C155 1.477 . S
C154 H174 0.931 . S
C155 C151 1.460 . S
C155 C154 1.477 . S
C155 H175 0.930 . S
C156 N152 1.362 . S
C156 C153 1.431 . S
C156 C166 1.476 . S
H157 C151 0.929 . S
C158 O149 1.250 . S
C158 O150 1.258 . S
O159 Mn144 2.162 . S
O159 C147 1.281 . S
O160 Mn144 2.297 . S
O160 C147 1.236 . S
N161 Mn145 2.282 . S
N161 C162 1.328 . S
N161 C166 1.318 . S
C162 N161 1.328 . S
C162 C163 1.457 . S
C162 H167 0.929 . S
C163 C162 1.457 . S
C163 C164 1.291 . S
C163 H176 0.931 . S
C164 C163 1.291 . S
C164 C165 1.373 . S
C164 H177 0.929 . S
C165 C164 1.373 . S
C165 C166 1.396 . S
C165 C172 1.403 . S
C166 C156 1.476 . S
C166 N161 1.318 . S
C166 C165 1.396 . S
H167 C162 0.929 . S
O168 Mn144 2.385 . S
O168 C146 1.234 . S
O169 Mn144 2.209 . S
O169 Mn145 2.215 . S
O169 C146 1.283 . S
O170 Mn144 2.094 . S
O170 C148 1.240 . S
O171 Mn145 2.117 . S
O171 C148 1.264 . S
C172 C165 1.403 . S
C172 C173 1.399 . S
C172 H178 0.929 . S
C173 C153 1.449 . S
C173 C172 1.399 . S
C173 H179 0.930 . S
H174 C154 0.931 . S
H175 C155 0.930 . S
H176 C163 0.931 . S
H177 C164 0.929 . S
H178 C172 0.929 . S
H179 C173 0.930 . S
Mn180 O185 2.095 . S
Mn180 O195 2.162 . S
Mn180 O196 2.297 . S
Mn180 O204 2.385 . S
Mn180 O205 2.209 . S
Mn180 O206 2.094 . S
Mn181 O186 2.121 . S
Mn181 N188 2.257 . S
Mn181 N197 2.282 . S
Mn181 O205 2.215 . S
Mn181 O207 2.117 . S
C182 O204 1.234 . S
C182 O205 1.283 . S
C183 O195 1.281 . S
C183 O196 1.236 . S
C184 O206 1.240 . S
C184 O207 1.264 . S
O185 Mn180 2.095 . S
O185 C194 1.250 . S
O186 Mn181 2.121 . S
O186 C194 1.258 . S
C187 N188 1.326 . S
C187 C191 1.460 . S
C187 H193 0.929 . S
N188 Mn181 2.257 . S
N188 C187 1.326 . S
N188 C192 1.362 . S
C189 C190 1.258 . S
C189 C192 1.431 . S
C189 C209 1.449 1_655 S
C190 C189 1.258 . S
C190 C191 1.477 . S
C190 H210 0.931 . S
C191 C187 1.460 . S
C191 C190 1.477 . S
C191 H211 0.930 . S
C192 N188 1.362 . S
C192 C189 1.431 . S
C192 C202 1.476 . S
H193 C187 0.929 . S
C194 O185 1.250 . S
C194 O186 1.258 . S
O195 Mn180 2.162 . S
O195 C183 1.281 . S
O196 Mn180 2.297 . S
O196 C183 1.236 . S
N197 Mn181 2.282 . S
N197 C198 1.328 . S
N197 C202 1.318 . S
C198 N197 1.328 . S
C198 C199 1.457 . S
C198 H203 0.929 . S
C199 C198 1.457 . S
C199 C200 1.291 . S
C199 H212 0.931 . S
C200 C199 1.291 . S
C200 C201 1.373 . S
C200 H213 0.929 1_655 S
C201 C200 1.373 . S
C201 C202 1.396 . S
C201 C208 1.403 1_655 S
C202 C192 1.476 . S
C202 N197 1.318 . S
C202 C201 1.396 . S
H203 C198 0.929 . S
O204 Mn180 2.385 . S
O204 C182 1.234 . S
O205 Mn180 2.209 . S
O205 Mn181 2.215 . S
O205 C182 1.283 . S
O206 Mn180 2.094 . S
O206 C184 1.240 . S
O207 Mn181 2.117 . S
O207 C184 1.264 . S
C208 C201 1.403 1_455 S
C208 C209 1.399 . S
C208 H214 0.929 . S
C209 C189 1.449 1_455 S
C209 C208 1.399 . S
C209 H215 0.930 . S
H210 C190 0.931 . S
H211 C191 0.930 . S
H212 C199 0.931 . S
H213 C200 0.929 1_455 S
H214 C208 0.929 . S
H215 C209 0.930 . S
Mn216 O221 2.095 . S
Mn216 O231 2.162 . S
Mn216 O232 2.297 . S
Mn216 O240 2.385 . S
Mn216 O241 2.209 . S
Mn216 O242 2.094 . S
Mn217 O222 2.121 . S
Mn217 N224 2.257 . S
Mn217 N233 2.282 . S
Mn217 O241 2.215 . S
Mn217 O243 2.117 . S
C218 O240 1.234 . S
C218 O241 1.283 . S
C219 O231 1.281 . S
C219 O232 1.236 . S
C220 O242 1.240 . S
C220 O243 1.264 . S
O221 Mn216 2.095 . S
O221 C230 1.250 . S
O222 Mn217 2.121 . S
O222 C230 1.258 . S
C223 N224 1.326 . S
C223 C227 1.460 . S
C223 H229 0.929 . S
N224 Mn217 2.257 . S
N224 C223 1.326 . S
N224 C228 1.362 . S
C225 C226 1.258 . S
C225 C228 1.431 . S
C225 C245 1.449 . S
C226 C225 1.258 . S
C226 C227 1.477 . S
C226 H246 0.931 . S
C227 C223 1.460 . S
C227 C226 1.477 . S
C227 H247 0.930 . S
C228 N224 1.362 . S
C228 C225 1.431 . S
C228 C238 1.476 . S
H229 C223 0.929 . S
C230 O221 1.250 . S
C230 O222 1.258 . S
O231 Mn216 2.162 . S
O231 C219 1.281 . S
O232 Mn216 2.297 . S
O232 C219 1.236 . S
N233 Mn217 2.282 . S
N233 C234 1.328 . S
N233 C238 1.318 . S
C234 N233 1.328 . S
C234 C235 1.457 . S
C234 H239 0.929 . S
C235 C234 1.457 . S
C235 C236 1.291 . S
C235 H248 0.931 . S
C236 C235 1.291 . S
C236 C237 1.373 . S
C236 H249 0.929 . S
C237 C236 1.373 . S
C237 C238 1.396 . S
C237 C244 1.403 . S
C238 C228 1.476 . S
C238 N233 1.318 . S
C238 C237 1.396 . S
H239 C234 0.929 . S
O240 Mn216 2.385 . S
O240 C218 1.234 . S
O241 Mn216 2.209 . S
O241 Mn217 2.215 . S
O241 C218 1.283 . S
O242 Mn216 2.094 . S
O242 C220 1.240 . S
O243 Mn217 2.117 . S
O243 C220 1.264 . S
C244 C237 1.403 . S
C244 C245 1.399 . S
C244 H250 0.929 . S
C245 C225 1.449 . S
C245 C244 1.399 . S
C245 H251 0.930 . S
H246 C226 0.931 . S
H247 C227 0.930 . S
H248 C235 0.931 . S
H249 C236 0.929 . S
H250 C244 0.929 . S
H251 C245 0.930 . S
Mn252 O257 2.095 . S
Mn252 O267 2.162 . S
Mn252 O268 2.297 . S
Mn252 O276 2.385 . S
Mn252 O277 2.209 . S
Mn252 O278 2.094 . S
Mn253 O258 2.121 . S
Mn253 N260 2.257 . S
Mn253 N269 2.282 . S
Mn253 O277 2.215 . S
Mn253 O279 2.117 . S
C254 O276 1.234 . S
C254 O277 1.283 . S
C255 O267 1.281 . S
C255 O268 1.236 . S
C256 O278 1.240 . S
C256 O279 1.264 . S
O257 Mn252 2.095 . S
O257 C266 1.250 . S
O258 Mn253 2.121 . S
O258 C266 1.258 . S
C259 N260 1.326 . S
C259 C263 1.460 . S
C259 H265 0.929 . S
N260 Mn253 2.257 . S
N260 C259 1.326 . S
N260 C264 1.362 . S
C261 C262 1.258 . S
C261 C264 1.431 . S
C261 C281 1.449 1_655 S
C262 C261 1.258 . S
C262 C263 1.477 . S
C262 H282 0.931 . S
C263 C259 1.460 . S
C263 C262 1.477 . S
C263 H283 0.930 . S
C264 N260 1.362 . S
C264 C261 1.431 . S
C264 C274 1.476 . S
H265 C259 0.929 . S
C266 O257 1.250 . S
C266 O258 1.258 . S
O267 Mn252 2.162 . S
O267 C255 1.281 . S
O268 Mn252 2.297 . S
O268 C255 1.236 . S
N269 Mn253 2.282 . S
N269 C270 1.328 . S
N269 C274 1.318 . S
C270 N269 1.328 . S
C270 C271 1.457 . S
C270 H275 0.929 . S
C271 C270 1.457 . S
C271 C272 1.291 . S
C271 H284 0.931 . S
C272 C271 1.291 . S
C272 C273 1.373 . S
C272 H285 0.929 1_655 S
C273 C272 1.373 . S
C273 C274 1.396 . S
C273 C280 1.403 1_655 S
C274 C264 1.476 . S
C274 N269 1.318 . S
C274 C273 1.396 . S
H275 C270 0.929 . S
O276 Mn252 2.385 . S
O276 C254 1.234 . S
O277 Mn252 2.209 . S
O277 Mn253 2.215 . S
O277 C254 1.283 . S
O278 Mn252 2.094 . S
O278 C256 1.240 . S
O279 Mn253 2.117 . S
O279 C256 1.264 . S
C280 C273 1.403 1_455 S
C280 C281 1.399 . S
C280 H286 0.929 . S
C281 C261 1.449 1_455 S
C281 C280 1.399 . S
C281 H287 0.930 . S
H282 C262 0.931 . S
H283 C263 0.930 . S
H284 C271 0.931 . S
H285 C272 0.929 1_455 S
H286 C280 0.929 . S
H287 C281 0.930 . S
Mn288 O293 2.095 . S
Mn288 O303 2.162 . S
Mn288 O304 2.297 . S
Mn288 O312 2.385 . S
Mn288 O313 2.209 . S
Mn288 O314 2.094 . S
Mn289 O294 2.121 . S
Mn289 N296 2.257 . S
Mn289 N305 2.282 . S
Mn289 O313 2.215 . S
Mn289 O315 2.117 . S
C290 O312 1.234 . S
C290 O313 1.283 . S
C291 O303 1.281 . S
C291 O304 1.236 . S
C292 O314 1.240 . S
C292 O315 1.264 . S
O293 Mn288 2.095 . S
O293 C302 1.250 . S
O294 Mn289 2.121 . S
O294 C302 1.258 . S
C295 N296 1.326 . S
C295 C299 1.460 . S
C295 H301 0.929 . S
N296 Mn289 2.257 . S
N296 C295 1.326 . S
N296 C300 1.362 . S
C297 C298 1.258 . S
C297 C300 1.431 . S
C297 C317 1.449 1_655 S
C298 C297 1.258 . S
C298 C299 1.477 . S
C298 H318 0.931 1_655 S
C299 C295 1.460 . S
C299 C298 1.477 . S
C299 H319 0.930 . S
C300 N296 1.362 . S
C300 C297 1.431 . S
C300 C310 1.476 . S
H301 C295 0.929 . S
C302 O293 1.250 . S
C302 O294 1.258 . S
O303 Mn288 2.162 . S
O303 C291 1.281 . S
O304 Mn288 2.297 . S
O304 C291 1.236 . S
N305 Mn289 2.282 . S
N305 C306 1.328 . S
N305 C310 1.318 . S
C306 N305 1.328 . S
C306 C307 1.457 . S
C306 H311 0.929 . S
C307 C306 1.457 . S
C307 C308 1.291 . S
C307 H320 0.931 . S
C308 C307 1.291 . S
C308 C309 1.373 . S
C308 H321 0.929 1_655 S
C309 C308 1.373 . S
C309 C310 1.396 . S
C309 C316 1.403 1_655 S
C310 C300 1.476 . S
C310 N305 1.318 . S
C310 C309 1.396 . S
H311 C306 0.929 . S
O312 Mn288 2.385 . S
O312 C290 1.234 . S
O313 Mn288 2.209 . S
O313 Mn289 2.215 . S
O313 C290 1.283 . S
O314 Mn288 2.094 . S
O314 C292 1.240 . S
O315 Mn289 2.117 . S
O315 C292 1.264 . S
C316 C309 1.403 1_455 S
C316 C317 1.399 . S
C316 H322 0.929 . S
C317 C297 1.449 1_455 S
C317 C316 1.399 . S
C317 H323 0.930 . S
H318 C298 0.931 1_455 S
H319 C299 0.930 . S
H320 C307 0.931 . S
H321 C308 0.929 1_455 S
H322 C316 0.929 . S
H323 C317 0.930 . S
Mn324 O329 2.095 . S
Mn324 O339 2.162 . S
Mn324 O340 2.297 . S
Mn324 O348 2.385 . S
Mn324 O349 2.209 . S
Mn324 O350 2.094 . S
Mn325 O330 2.121 . S
Mn325 N332 2.257 . S
Mn325 N341 2.282 . S
Mn325 O349 2.215 . S
Mn325 O351 2.117 . S
C326 O348 1.234 . S
C326 O349 1.283 . S
C327 O339 1.281 . S
C327 O340 1.236 . S
C328 O350 1.240 . S
C328 O351 1.264 . S
O329 Mn324 2.095 . S
O329 C338 1.250 . S
O330 Mn325 2.121 . S
O330 C338 1.258 . S
C331 N332 1.326 . S
C331 C335 1.460 . S
C331 H337 0.929 . S
N332 Mn325 2.257 . S
N332 C331 1.326 . S
N332 C336 1.362 . S
C333 C334 1.258 . S
C333 C336 1.431 . S
C333 C353 1.449 . S
C334 C333 1.258 . S
C334 C335 1.477 . S
C334 H354 0.931 . S
C335 C331 1.460 . S
C335 C334 1.477 . S
C335 H355 0.930 . S
C336 N332 1.362 . S
C336 C333 1.431 . S
C336 C346 1.476 . S
H337 C331 0.929 . S
C338 O329 1.250 . S
C338 O330 1.258 . S
O339 Mn324 2.162 . S
O339 C327 1.281 . S
O340 Mn324 2.297 . S
O340 C327 1.236 . S
N341 Mn325 2.282 . S
N341 C342 1.328 . S
N341 C346 1.318 . S
C342 N341 1.328 . S
C342 C343 1.457 . S
C342 H347 0.929 . S
C343 C342 1.457 . S
C343 C344 1.291 . S
C343 H356 0.931 . S
C344 C343 1.291 . S
C344 C345 1.373 . S
C344 H357 0.929 . S
C345 C344 1.373 . S
C345 C346 1.396 . S
C345 C352 1.403 . S
C346 C336 1.476 . S
C346 N341 1.318 . S
C346 C345 1.396 . S
H347 C342 0.929 . S
O348 Mn324 2.385 . S
O348 C326 1.234 . S
O349 Mn324 2.209 . S
O349 Mn325 2.215 . S
O349 C326 1.283 . S
O350 Mn324 2.094 . S
O350 C328 1.240 . S
O351 Mn325 2.117 . S
O351 C328 1.264 . S
C352 C345 1.403 . S
C352 C353 1.399 . S
C352 H358 0.929 . S
C353 C333 1.449 . S
C353 C352 1.399 . S
C353 H359 0.930 . S
H354 C334 0.931 . S
H355 C335 0.930 . S
H356 C343 0.931 . S
H357 C344 0.929 . S
H358 C352 0.929 . S
H359 C353 0.930 . S
Mn360 O365 2.095 . S
Mn360 O375 2.162 . S
Mn360 O376 2.297 . S
Mn360 O384 2.385 . S
Mn360 O385 2.209 . S
Mn360 O386 2.094 . S
Mn361 O366 2.121 . S
Mn361 N368 2.257 . S
Mn361 N377 2.282 . S
Mn361 O385 2.215 . S
Mn361 O387 2.117 . S
C362 O384 1.234 . S
C362 O385 1.283 . S
C363 O375 1.281 . S
C363 O376 1.236 . S
C364 O386 1.240 . S
C364 O387 1.264 . S
O365 Mn360 2.095 . S
O365 C374 1.250 . S
O366 Mn361 2.121 . S
O366 C374 1.258 . S
C367 N368 1.326 . S
C367 C371 1.460 . S
C367 H373 0.929 . S
N368 Mn361 2.257 . S
N368 C367 1.326 . S
N368 C372 1.362 . S
C369 C370 1.258 . S
C369 C372 1.431 . S
C369 C389 1.449 1_655 S
C370 C369 1.258 . S
C370 C371 1.477 . S
C370 H390 0.931 1_655 S
C371 C367 1.460 . S
C371 C370 1.477 . S
C371 H391 0.930 . S
C372 N368 1.362 . S
C372 C369 1.431 . S
C372 C382 1.476 . S
H373 C367 0.929 . S
C374 O365 1.250 . S
C374 O366 1.258 . S
O375 Mn360 2.162 . S
O375 C363 1.281 . S
O376 Mn360 2.297 . S
O376 C363 1.236 . S
N377 Mn361 2.282 . S
N377 C378 1.328 . S
N377 C382 1.318 . S
C378 N377 1.328 . S
C378 C379 1.457 . S
C378 H383 0.929 . S
C379 C378 1.457 . S
C379 C380 1.291 . S
C379 H392 0.931 . S
C380 C379 1.291 . S
C380 C381 1.373 . S
C380 H393 0.929 1_655 S
C381 C380 1.373 . S
C381 C382 1.396 . S
C381 C388 1.403 1_655 S
C382 C372 1.476 . S
C382 N377 1.318 . S
C382 C381 1.396 . S
H383 C378 0.929 . S
O384 Mn360 2.385 . S
O384 C362 1.234 . S
O385 Mn360 2.209 . S
O385 Mn361 2.215 . S
O385 C362 1.283 . S
O386 Mn360 2.094 . S
O386 C364 1.240 . S
O387 Mn361 2.117 . S
O387 C364 1.264 . S
C388 C381 1.403 1_455 S
C388 C389 1.399 . S
C388 H394 0.929 . S
C389 C369 1.449 1_455 S
C389 C388 1.399 . S
C389 H395 0.930 . S
H390 C370 0.931 1_455 S
H391 C371 0.930 . S
H392 C379 0.931 . S
H393 C380 0.929 1_455 S
H394 C388 0.929 . S
H395 C389 0.930 . S
Mn396 O401 2.095 . S
Mn396 O411 2.162 . S
Mn396 O412 2.297 . S
Mn396 O420 2.385 . S
Mn396 O421 2.209 . S
Mn396 O422 2.094 . S
Mn397 O402 2.121 . S
Mn397 N404 2.257 . S
Mn397 N413 2.282 . S
Mn397 O421 2.215 . S
Mn397 O423 2.117 . S
C398 O420 1.234 . S
C398 O421 1.283 . S
C399 O411 1.281 . S
C399 O412 1.236 . S
C400 O422 1.240 . S
C400 O423 1.264 . S
O401 Mn396 2.095 . S
O401 C410 1.250 . S
O402 Mn397 2.121 . S
O402 C410 1.258 . S
C403 N404 1.326 . S
C403 C407 1.460 . S
C403 H409 0.929 . S
N404 Mn397 2.257 . S
N404 C403 1.326 . S
N404 C408 1.362 . S
C405 C406 1.258 . S
C405 C408 1.431 . S
C405 C425 1.449 . S
C406 C405 1.258 . S
C406 C407 1.477 . S
C406 H426 0.931 . S
C407 C403 1.460 . S
C407 C406 1.477 . S
C407 H427 0.930 . S
C408 N404 1.362 . S
C408 C405 1.431 . S
C408 C418 1.476 . S
H409 C403 0.929 . S
C410 O401 1.250 . S
C410 O402 1.258 . S
O411 Mn396 2.162 . S
O411 C399 1.281 . S
O412 Mn396 2.297 . S
O412 C399 1.236 . S
N413 Mn397 2.282 . S
N413 C414 1.328 . S
N413 C418 1.318 . S
C414 N413 1.328 . S
C414 C415 1.457 . S
C414 H419 0.929 . S
C415 C414 1.457 . S
C415 C416 1.291 . S
C415 H428 0.931 . S
C416 C415 1.291 . S
C416 C417 1.373 . S
C416 H429 0.929 . S
C417 C416 1.373 . S
C417 C418 1.396 . S
C417 C424 1.403 . S
C418 C408 1.476 . S
C418 N413 1.318 . S
C418 C417 1.396 . S
H419 C414 0.929 . S
O420 Mn396 2.385 . S
O420 C398 1.234 . S
O421 Mn396 2.209 . S
O421 Mn397 2.215 . S
O421 C398 1.283 . S
O422 Mn396 2.094 . S
O422 C400 1.240 . S
O423 Mn397 2.117 . S
O423 C400 1.264 . S
C424 C417 1.403 . S
C424 C425 1.399 . S
C424 H430 0.929 . S
C425 C405 1.449 . S
C425 C424 1.399 . S
C425 H431 0.930 . S
H426 C406 0.931 . S
H427 C407 0.930 . S
H428 C415 0.931 . S
H429 C416 0.929 . S
H430 C424 0.929 . S
H431 C425 0.930 . S
Mn432 O437 2.095 . S
Mn432 O447 2.162 . S
Mn432 O448 2.297 . S
Mn432 O456 2.385 . S
Mn432 O457 2.209 . S
Mn432 O458 2.094 . S
Mn433 O438 2.121 . S
Mn433 N440 2.257 . S
Mn433 N449 2.282 . S
Mn433 O457 2.215 . S
Mn433 O459 2.117 . S
C434 O456 1.234 . S
C434 O457 1.283 . S
C435 O447 1.281 . S
C435 O448 1.236 . S
C436 O458 1.240 . S
C436 O459 1.264 . S
O437 Mn432 2.095 . S
O437 C446 1.250 . S
O438 Mn433 2.121 . S
O438 C446 1.258 . S
C439 N440 1.326 . S
C439 C443 1.460 . S
C439 H445 0.929 . S
N440 Mn433 2.257 . S
N440 C439 1.326 . S
N440 C444 1.362 . S
C441 C442 1.258 . S
C441 C444 1.431 . S
C441 C461 1.449 1_455 S
C442 C441 1.258 . S
C442 C443 1.477 . S
C442 H462 0.931 . S
C443 C439 1.460 . S
C443 C442 1.477 . S
C443 H463 0.930 . S
C444 N440 1.362 . S
C444 C441 1.431 . S
C444 C454 1.476 . S
H445 C439 0.929 . S
C446 O437 1.250 . S
C446 O438 1.258 . S
O447 Mn432 2.162 . S
O447 C435 1.281 . S
O448 Mn432 2.297 . S
O448 C435 1.236 . S
N449 Mn433 2.282 . S
N449 C450 1.328 . S
N449 C454 1.318 . S
C450 N449 1.328 . S
C450 C451 1.457 . S
C450 H455 0.929 . S
C451 C450 1.457 . S
C451 C452 1.291 . S
C451 H464 0.931 . S
C452 C451 1.291 . S
C452 C453 1.373 . S
C452 H465 0.929 1_455 S
C453 C452 1.373 . S
C453 C454 1.396 . S
C453 C460 1.403 1_455 S
C454 C444 1.476 . S
C454 N449 1.318 . S
C454 C453 1.396 . S
H455 C450 0.929 . S
O456 Mn432 2.385 . S
O456 C434 1.234 . S
O457 Mn432 2.209 . S
O457 Mn433 2.215 . S
O457 C434 1.283 . S
O458 Mn432 2.094 . S
O458 C436 1.240 . S
O459 Mn433 2.117 . S
O459 C436 1.264 . S
C460 C453 1.403 1_655 S
C460 C461 1.399 . S
C460 H466 0.929 . S
C461 C441 1.449 1_655 S
C461 C460 1.399 . S
C461 H467 0.930 . S
H462 C442 0.931 . S
H463 C443 0.930 . S
H464 C451 0.931 . S
H465 C452 0.929 1_655 S
H466 C460 0.929 . S
H467 C461 0.930 . S
Mn468 O473 2.095 . S
Mn468 O483 2.162 . S
Mn468 O484 2.297 . S
Mn468 O492 2.385 . S
Mn468 O493 2.209 . S
Mn468 O494 2.094 . S
Mn469 O474 2.121 . S
Mn469 N476 2.257 . S
Mn469 N485 2.282 . S
Mn469 O493 2.215 . S
Mn469 O495 2.117 . S
C470 O492 1.234 . S
C470 O493 1.283 . S
C471 O483 1.281 . S
C471 O484 1.236 . S
C472 O494 1.240 . S
C472 O495 1.264 . S
O473 Mn468 2.095 . S
O473 C482 1.250 . S
O474 Mn469 2.121 . S
O474 C482 1.258 . S
C475 N476 1.326 . S
C475 C479 1.460 . S
C475 H481 0.929 . S
N476 Mn469 2.257 . S
N476 C475 1.326 . S
N476 C480 1.362 . S
C477 C478 1.258 . S
C477 C480 1.431 . S
C477 C497 1.449 . S
C478 C477 1.258 . S
C478 C479 1.477 . S
C478 H498 0.931 . S
C479 C475 1.460 . S
C479 C478 1.477 . S
C479 H499 0.930 . S
C480 N476 1.362 . S
C480 C477 1.431 . S
C480 C490 1.476 . S
H481 C475 0.929 . S
C482 O473 1.250 . S
C482 O474 1.258 . S
O483 Mn468 2.162 . S
O483 C471 1.281 . S
O484 Mn468 2.297 . S
O484 C471 1.236 . S
N485 Mn469 2.282 . S
N485 C486 1.328 . S
N485 C490 1.318 . S
C486 N485 1.328 . S
C486 C487 1.457 . S
C486 H491 0.929 . S
C487 C486 1.457 . S
C487 C488 1.291 . S
C487 H500 0.931 . S
C488 C487 1.291 . S
C488 C489 1.373 . S
C488 H501 0.929 . S
C489 C488 1.373 . S
C489 C490 1.396 . S
C489 C496 1.403 . S
C490 C480 1.476 . S
C490 N485 1.318 . S
C490 C489 1.396 . S
H491 C486 0.929 . S
O492 Mn468 2.385 . S
O492 C470 1.234 . S
O493 Mn468 2.209 . S
O493 Mn469 2.215 . S
O493 C470 1.283 . S
O494 Mn468 2.094 . S
O494 C472 1.240 . S
O495 Mn469 2.117 . S
O495 C472 1.264 . S
C496 C489 1.403 . S
C496 C497 1.399 . S
C496 H502 0.929 . S
C497 C477 1.449 . S
C497 C496 1.399 . S
C497 H503 0.930 . S
H498 C478 0.931 . S
H499 C479 0.930 . S
H500 C487 0.931 . S
H501 C488 0.929 . S
H502 C496 0.929 . S
H503 C497 0.930 . S
Mn504 O509 2.095 . S
Mn504 O519 2.162 . S
Mn504 O520 2.297 . S
Mn504 O528 2.385 . S
Mn504 O529 2.209 . S
Mn504 O530 2.094 . S
Mn505 O510 2.121 . S
Mn505 N512 2.257 . S
Mn505 N521 2.282 . S
Mn505 O529 2.215 . S
Mn505 O531 2.117 . S
C506 O528 1.234 . S
C506 O529 1.283 . S
C507 O519 1.281 . S
C507 O520 1.236 . S
C508 O530 1.240 . S
C508 O531 1.264 . S
O509 Mn504 2.095 . S
O509 C518 1.250 . S
O510 Mn505 2.121 . S
O510 C518 1.258 . S
C511 N512 1.326 . S
C511 C515 1.460 . S
C511 H517 0.929 . S
N512 Mn505 2.257 . S
N512 C511 1.326 . S
N512 C516 1.362 . S
C513 C514 1.258 . S
C513 C516 1.431 . S
C513 C533 1.449 1_455 S
C514 C513 1.258 . S
C514 C515 1.477 . S
C514 H534 0.931 . S
C515 C511 1.460 . S
C515 C514 1.477 . S
C515 H535 0.930 . S
C516 N512 1.362 . S
C516 C513 1.431 . S
C516 C526 1.476 . S
H517 C511 0.929 . S
C518 O509 1.250 . S
C518 O510 1.258 . S
O519 Mn504 2.162 . S
O519 C507 1.281 . S
O520 Mn504 2.297 . S
O520 C507 1.236 . S
N521 Mn505 2.282 . S
N521 C522 1.328 . S
N521 C526 1.318 . S
C522 N521 1.328 . S
C522 C523 1.457 . S
C522 H527 0.929 . S
C523 C522 1.457 . S
C523 C524 1.291 . S
C523 H536 0.931 . S
C524 C523 1.291 . S
C524 C525 1.373 . S
C524 H537 0.929 1_455 S
C525 C524 1.373 . S
C525 C526 1.396 . S
C525 C532 1.403 1_455 S
C526 C516 1.476 . S
C526 N521 1.318 . S
C526 C525 1.396 . S
H527 C522 0.929 . S
O528 Mn504 2.385 . S
O528 C506 1.234 . S
O529 Mn504 2.209 . S
O529 Mn505 2.215 . S
O529 C506 1.283 . S
O530 Mn504 2.094 . S
O530 C508 1.240 . S
O531 Mn505 2.117 . S
O531 C508 1.264 . S
C532 C525 1.403 1_655 S
C532 C533 1.399 . S
C532 H538 0.929 . S
C533 C513 1.449 1_655 S
C533 C532 1.399 . S
C533 H539 0.930 . S
H534 C514 0.931 . S
H535 C515 0.930 . S
H536 C523 0.931 . S
H537 C524 0.929 1_655 S
H538 C532 0.929 . S
H539 C533 0.930 . S
Mn540 O545 2.095 . S
Mn540 O555 2.162 . S
Mn540 O556 2.297 . S
Mn540 O564 2.385 . S
Mn540 O565 2.209 . S
Mn540 O566 2.094 . S
Mn541 O546 2.121 . S
Mn541 N548 2.257 . S
Mn541 N557 2.282 . S
Mn541 O565 2.215 . S
Mn541 O567 2.117 . S
C542 O564 1.234 . S
C542 O565 1.283 . S
C543 O555 1.281 . S
C543 O556 1.236 . S
C544 O566 1.240 . S
C544 O567 1.264 . S
O545 Mn540 2.095 . S
O545 C554 1.250 . S
O546 Mn541 2.121 . S
O546 C554 1.258 . S
C547 N548 1.326 . S
C547 C551 1.460 . S
C547 H553 0.929 . S
N548 Mn541 2.257 . S
N548 C547 1.326 . S
N548 C552 1.362 . S
C549 C550 1.258 . S
C549 C552 1.431 . S
C549 C569 1.449 . S
C550 C549 1.258 . S
C550 C551 1.477 . S
C550 H570 0.931 . S
C551 C547 1.460 . S
C551 C550 1.477 . S
C551 H571 0.930 . S
C552 N548 1.362 . S
C552 C549 1.431 . S
C552 C562 1.476 . S
H553 C547 0.929 . S
C554 O545 1.250 . S
C554 O546 1.258 . S
O555 Mn540 2.162 . S
O555 C543 1.281 . S
O556 Mn540 2.297 . S
O556 C543 1.236 . S
N557 Mn541 2.282 . S
N557 C558 1.328 . S
N557 C562 1.318 . S
C558 N557 1.328 . S
C558 C559 1.457 . S
C558 H563 0.929 . S
C559 C558 1.457 . S
C559 C560 1.291 . S
C559 H572 0.931 . S
C560 C559 1.291 . S
C560 C561 1.373 . S
C560 H573 0.929 . S
C561 C560 1.373 . S
C561 C562 1.396 . S
C561 C568 1.403 . S
C562 C552 1.476 . S
C562 N557 1.318 . S
C562 C561 1.396 . S
H563 C558 0.929 . S
O564 Mn540 2.385 . S
O564 C542 1.234 . S
O565 Mn540 2.209 . S
O565 Mn541 2.215 . S
O565 C542 1.283 . S
O566 Mn540 2.094 . S
O566 C544 1.240 . S
O567 Mn541 2.117 . S
O567 C544 1.264 . S
C568 C561 1.403 . S
C568 C569 1.399 . S
C568 H574 0.929 . S
C569 C549 1.449 . S
C569 C568 1.399 . S
C569 H575 0.930 . S
H570 C550 0.931 . S
H571 C551 0.930 . S
H572 C559 0.931 . S
H573 C560 0.929 . S
H574 C568 0.929 . S
H575 C569 0.930 . S
C576 C577 1.369 . S
C576 C578 1.419 . S
C576 H580 0.930 . S
C577 C576 1.369 . S
C577 C586 1.429 1_554 S
C578 C576 1.419 . S
C578 C579 1.363 1_554 S
C578 H581 0.929 . S
C579 C578 1.363 1_556 S
C579 C585 1.428 . S
H580 C576 0.930 . S
H581 C578 0.929 . S
S582 N583 1.613 . S
S582 N584 1.610 . S
N583 S582 1.613 . S
N583 C586 1.350 . S
N584 S582 1.610 . S
N584 C585 1.351 . S
C585 C579 1.428 . S
C585 N584 1.351 . S
C585 C586 1.434 . S
C586 C577 1.429 1_556 S
C586 N583 1.350 . S
C586 C585 1.434 . S
C587 C588 1.369 . S
C587 C589 1.419 . S
C587 H591 0.930 . S
C588 C587 1.369 . S
C588 C597 1.429 . S
C589 C587 1.419 . S
C589 C590 1.363 . S
C589 H592 0.929 . S
C590 C589 1.363 . S
C590 C596 1.428 . S
H591 C587 0.930 . S
H592 C589 0.929 . S
S593 N594 1.613 . S
S593 N595 1.610 . S
N594 S593 1.613 . S
N594 C597 1.350 . S
N595 S593 1.610 . S
N595 C596 1.351 . S
C596 C590 1.428 . S
C596 N595 1.351 . S
C596 C597 1.434 . S
C597 C588 1.429 . S
C597 N594 1.350 . S
C597 C596 1.434 . S
C598 C599 1.369 . S
C598 C600 1.419 . S
C598 H602 0.930 . S
C599 C598 1.369 . S
C599 C608 1.447 . S
C600 C598 1.419 . S
C600 C601 1.363 1_556 S
C600 H603 0.929 . S
C601 C600 1.363 1_554 S
C601 C607 1.428 . S
H602 C598 0.930 . S
H603 C600 0.929 . S
S604 N605 1.613 . S
S604 N606 1.610 . S
N605 S604 1.613 . S
N605 C608 1.343 1_554 S
N606 S604 1.610 . S
N606 C607 1.351 . S
C607 C601 1.428 . S
C607 N606 1.351 . S
C607 C608 1.420 1_554 S
C608 C599 1.447 . S
C608 N605 1.343 1_556 S
C608 C607 1.420 1_556 S
C609 C610 1.369 . S
C609 C611 1.419 . S
C609 H613 0.930 . S
C610 C609 1.369 . S
C610 C619 1.429 . S
C611 C609 1.419 . S
C611 C612 1.363 . S
C611 H614 0.929 . S
C612 C611 1.363 . S
C612 C618 1.428 . S
H613 C609 0.930 . S
H614 C611 0.929 . S
S615 N616 1.613 . S
S615 N617 1.610 . S
N616 S615 1.613 . S
N616 C619 1.350 . S
N617 S615 1.610 . S
N617 C618 1.351 . S
C618 C612 1.428 . S
C618 N617 1.351 . S
C618 C619 1.434 . S
C619 C610 1.429 . S
C619 N616 1.350 . S
C619 C618 1.434 . S
C620 C621 1.369 . S
C620 C622 1.419 . S
C620 H624 0.930 . S
C621 C620 1.369 . S
C621 C630 1.429 . S
C622 C620 1.419 . S
C622 C623 1.363 1_554 S
C622 H625 0.929 . S
C623 C622 1.363 1_556 S
C623 C629 1.428 . S
H624 C620 0.930 . S
H625 C622 0.929 . S
S626 N627 1.613 . S
S626 N628 1.610 . S
N627 S626 1.613 . S
N627 C630 1.350 1_556 S
N628 S626 1.610 . S
N628 C629 1.351 . S
C629 C623 1.428 . S
C629 N628 1.351 . S
C629 C630 1.434 1_556 S
C630 C621 1.429 . S
C630 N627 1.350 1_554 S
C630 C629 1.434 1_554 S
C631 C632 1.369 . S
C631 C633 1.419 . S
C631 H635 0.930 . S
C632 C631 1.369 . S
C632 C641 1.429 . S
C633 C631 1.419 . S
C633 C634 1.363 . S
C633 H636 0.929 . S
C634 C633 1.363 . S
C634 C640 1.428 . S
H635 C631 0.930 . S
H636 C633 0.929 . S
S637 N638 1.613 . S
S637 N639 1.610 . S
N638 S637 1.613 . S
N638 C641 1.350 . S
N639 S637 1.610 . S
N639 C640 1.351 . S
C640 C634 1.428 . S
C640 N639 1.351 . S
C640 C641 1.434 . S
C641 C632 1.429 . S
C641 N638 1.350 . S
C641 C640 1.434 . S
C642 C643 1.369 1_554 S
C642 C644 1.419 . S
C642 H646 0.930 . S
C643 C642 1.369 1_556 S
C643 C652 1.429 . S
C644 C642 1.419 . S
C644 C645 1.363 . S
C644 H647 0.929 . S
C645 C644 1.363 . S
C645 C651 1.428 1_554 S
H646 C642 0.930 . S
H647 C644 0.929 . S
S648 N649 1.613 . S
S648 N650 1.610 . S
N649 S648 1.613 . S
N649 C652 1.350 . S
N650 S648 1.610 . S
N650 C651 1.351 . S
C651 C645 1.428 1_556 S
C651 N650 1.351 . S
C651 C652 1.434 . S
C652 C643 1.429 . S
C652 N649 1.350 . S
C652 C651 1.434 . S
C653 C654 1.369 . S
C653 C655 1.419 . S
C653 H657 0.930 . S
C654 C653 1.369 . S
C654 C663 1.429 . S
C655 C653 1.419 . S
C655 C656 1.363 . S
C655 H658 0.929 . S
C656 C655 1.363 . S
C656 C662 1.428 . S
H657 C653 0.930 . S
H658 C655 0.929 . S
S659 N660 1.613 . S
S659 N661 1.610 . S
N660 S659 1.613 . S
N660 C663 1.350 . S
N661 S659 1.610 . S
N661 C662 1.351 . S
C662 C656 1.428 . S
C662 N661 1.351 . S
C662 C663 1.434 . S
C663 C654 1.429 . S
C663 N660 1.350 . S
C663 C662 1.434 . S
C664 C665 1.369 . S
C664 C666 1.419 1_544 S
C664 H668 0.930 . S
C665 C664 1.369 . S
C665 C674 1.429 . S
C666 C664 1.419 1_566 S
C666 C667 1.363 . S
C666 H669 0.929 . S
C667 C666 1.363 . S
C667 C673 1.428 . S
H668 C664 0.930 . S
H669 C666 0.929 . S
S670 N671 1.613 1_556 S
S670 N672 1.610 1_545 S
N671 S670 1.613 1_554 S
N671 C674 1.350 . S
N672 S670 1.610 1_565 S
N672 C673 1.351 . S
C673 C667 1.428 . S
C673 N672 1.351 . S
C673 C674 1.434 1_566 S
C674 C665 1.429 . S
C674 N671 1.350 . S
C674 C673 1.434 1_544 S
C675 C676 1.358 1_545 S
C675 C677 1.429 . S
C675 H679 0.931 . S
C676 C675 1.358 1_565 S
C676 C685 1.429 . S
C677 C675 1.429 . S
C677 C678 1.363 . S
C677 H680 0.929 . S
C678 C677 1.363 . S
C678 C684 1.428 1_545 S
H679 C675 0.931 . S
H680 C677 0.929 . S
S681 N682 1.613 . S
S681 N683 1.610 . S
N682 S681 1.613 . S
N682 C685 1.350 . S
N683 S681 1.610 . S
N683 C684 1.351 . S
C684 C678 1.428 1_565 S
C684 N683 1.351 . S
C684 C685 1.434 . S
C685 C676 1.429 . S
C685 N682 1.350 . S
C685 C684 1.434 . S
C686 C687 1.369 . S
C686 C688 1.419 1_565 S
C686 H690 0.930 . S
C687 C686 1.369 . S
C687 C696 1.429 1_556 S
C688 C686 1.419 1_545 S
C688 C689 1.363 1_556 S
C688 H691 0.929 . S
C689 C688 1.363 1_554 S
C689 C695 1.428 . S
H690 C686 0.930 . S
H691 C688 0.929 . S
S692 N693 1.613 . S
S692 N694 1.610 1_565 S
N693 S692 1.613 . S
N693 C696 1.350 . S
N694 S692 1.610 1_545 S
N694 C695 1.351 . S
C695 C689 1.428 . S
C695 N694 1.351 . S
C695 C696 1.434 1_545 S
C696 C687 1.429 1_554 S
C696 N693 1.350 . S
C696 C695 1.434 1_565 S
C697 C698 1.369 . S
C697 C699 1.419 1_545 S
C697 H701 0.930 . S
C698 C697 1.369 . S
C698 C707 1.429 . S
C699 C697 1.419 1_565 S
C699 C700 1.363 . S
C699 H702 0.929 . S
C700 C699 1.363 . S
C700 C706 1.428 . S
H701 C697 0.930 . S
H702 C699 0.929 . S
S703 N704 1.613 1_565 S
S703 N705 1.610 . S
N704 S703 1.613 1_545 S
N704 C707 1.350 . S
N705 S703 1.610 . S
N705 C706 1.351 . S
C706 C700 1.428 . S
C706 N705 1.351 . S
C706 C707 1.434 1_565 S
C707 C698 1.429 . S
C707 N704 1.350 . S
C707 C706 1.434 1_545 S
C708 C709 1.369 1_554 S
C708 C710 1.419 . S
C708 H712 0.930 . S
C709 C708 1.369 1_556 S
C709 C718 1.429 . S
C710 C708 1.419 . S
C710 C711 1.363 . S
C710 H713 0.929 . S
C711 C710 1.363 . S
C711 C717 1.428 1_554 S
H712 C708 0.930 . S
H713 C710 0.929 . S
S714 N715 1.613 . S
S714 N716 1.610 . S
N715 S714 1.613 . S
N715 C718 1.350 . S
N716 S714 1.610 . S
N716 C717 1.351 . S
C717 C711 1.428 1_556 S
C717 N716 1.351 . S
C717 C718 1.434 . S
C718 C709 1.429 . S
C718 N715 1.350 . S
C718 C717 1.434 . S
C719 C720 1.369 . S
C719 C721 1.419 . S
C719 H723 0.930 . S
C720 C719 1.369 . S
C720 C729 1.429 . S
C721 C719 1.419 . S
C721 C722 1.363 . S
C721 H724 0.929 . S
C722 C721 1.363 . S
C722 C728 1.428 . S
H723 C719 0.930 . S
H724 C721 0.929 . S
S725 N726 1.613 . S
S725 N727 1.610 . S
N726 S725 1.613 . S
N726 C729 1.350 . S
N727 S725 1.610 . S
N727 C728 1.351 . S
C728 C722 1.428 . S
C728 N727 1.351 . S
C728 C729 1.434 . S
C729 C720 1.429 . S
C729 N726 1.350 . S
C729 C728 1.434 . S
C730 C731 1.369 . S
C730 C732 1.419 . S
C730 H734 0.930 . S
C731 C730 1.369 . S
C731 C740 1.429 1_554 S
C732 C730 1.419 . S
C732 C733 1.363 1_554 S
C732 H735 0.929 . S
C733 C732 1.363 1_556 S
C733 C739 1.428 . S
H734 C730 0.930 . S
H735 C732 0.929 . S
S736 N737 1.613 . S
S736 N738 1.610 . S
N737 S736 1.613 . S
N737 C740 1.350 . S
N738 S736 1.610 . S
N738 C739 1.351 . S
C739 C733 1.428 . S
C739 N738 1.351 . S
C739 C740 1.434 . S
C740 C731 1.429 1_556 S
C740 N737 1.350 . S
C740 C739 1.434 . S
C741 C742 1.369 . S
C741 C743 1.419 . S
C741 H745 0.930 . S
C742 C741 1.369 . S
C742 C751 1.429 . S
C743 C741 1.419 . S
C743 C744 1.363 . S
C743 H746 0.929 . S
C744 C743 1.363 . S
C744 C750 1.428 . S
H745 C741 0.930 . S
H746 C743 0.929 . S
S747 N748 1.613 . S
S747 N749 1.610 . S
N748 S747 1.613 . S
N748 C751 1.350 . S
N749 S747 1.610 . S
N749 C750 1.351 . S
C750 C744 1.428 . S
C750 N749 1.351 . S
C750 C751 1.434 . S
C751 C742 1.429 . S
C751 N748 1.350 . S
C751 C750 1.434 . S
C752 C753 1.369 . S
C752 C754 1.419 . S
C752 H756 0.930 . S
C753 C752 1.369 . S
C753 C762 1.429 . S
C754 C752 1.419 . S
C754 C755 1.363 . S
C754 H757 0.929 . S
C755 C754 1.363 . S
C755 C761 1.428 . S
H756 C752 0.930 . S
H757 C754 0.929 . S
S758 N759 1.613 . S
S758 N760 1.610 . S
N759 S758 1.613 . S
N759 C762 1.350 . S
N760 S758 1.610 . S
N760 C761 1.351 . S
C761 C755 1.428 . S
C761 N760 1.351 . S
C761 C762 1.434 . S
C762 C753 1.429 . S
C762 N759 1.350 . S
C762 C761 1.434 . S
C763 C764 1.369 . S
C763 C765 1.419 1_655 S
C763 H767 0.930 . S
C764 C763 1.369 . S
C764 C773 1.429 . S
C765 C763 1.419 1_455 S
C765 C766 1.363 . S
C765 H768 0.929 . S
C766 C765 1.363 . S
C766 C772 1.428 . S
H767 C763 0.930 . S
H768 C765 0.929 . S
S769 N770 1.613 . S
S769 N771 1.610 1_655 S
N770 S769 1.613 . S
N770 C773 1.350 . S
N771 S769 1.610 1_455 S
N771 C772 1.351 . S
C772 C766 1.428 . S
C772 N771 1.351 . S
C772 C773 1.434 1_455 S
C773 C764 1.429 . S
C773 N770 1.350 . S
C773 C772 1.434 1_655 S
C774 C775 1.369 . S
C774 C776 1.419 . S
C774 H778 0.930 . S
C775 C774 1.369 . S
C775 C784 1.429 . S
C776 C774 1.419 . S
C776 C777 1.363 . S
C776 H779 0.929 . S
C777 C776 1.363 . S
C777 C783 1.428 . S
H778 C774 0.930 . S
H779 C776 0.929 . S
S780 N781 1.613 . S
S780 N782 1.610 . S
N781 S780 1.613 . S
N781 C784 1.350 . S
N782 S780 1.610 . S
N782 C783 1.351 . S
C783 C777 1.428 . S
C783 N782 1.351 . S
C783 C784 1.434 . S
C784 C775 1.429 . S
C784 N781 1.350 . S
C784 C783 1.434 . S
C785 C786 1.369 . S
C785 C787 1.419 1_455 S
C785 H789 0.930 . S
C786 C785 1.369 . S
C786 C795 1.429 . S
C787 C785 1.419 1_655 S
C787 C788 1.363 . S
C787 H790 0.929 . S
C788 C787 1.363 . S
C788 C794 1.428 . S
H789 C785 0.930 . S
H790 C787 0.929 . S
S791 N792 1.613 1_655 S
S791 N793 1.610 . S
N792 S791 1.613 1_455 S
N792 C795 1.350 . S
N793 S791 1.610 . S
N793 C794 1.351 . S
C794 C788 1.428 . S
C794 N793 1.351 . S
C794 C795 1.434 1_655 S
C795 C786 1.429 . S
C795 N792 1.350 . S
C795 C794 1.434 1_455 S
C796 C797 1.369 . S
C796 C798 1.419 1_455 S
C796 H800 0.930 . S
C797 C796 1.369 . S
C797 C806 1.429 . S
C798 C796 1.419 1_655 S
C798 C799 1.363 . S
C798 H801 0.929 . S
C799 C798 1.363 . S
C799 C805 1.428 . S
H800 C796 0.930 . S
H801 C798 0.929 . S
S802 N803 1.613 . S
S802 N804 1.610 1_455 S
N803 S802 1.613 . S
N803 C806 1.350 . S
N804 S802 1.610 1_655 S
N804 C805 1.351 . S
C805 C799 1.428 . S
C805 N804 1.351 . S
C805 C806 1.434 1_655 S
C806 C797 1.429 . S
C806 N803 1.350 . S
C806 C805 1.434 1_455 S
C807 C808 1.369 . S
C807 C809 1.419 . S
C807 H811 0.930 . S
C808 C807 1.369 . S
C808 C817 1.429 . S
C809 C807 1.419 . S
C809 C810 1.363 . S
C809 H812 0.929 . S
C810 C809 1.363 . S
C810 C816 1.428 . S
H811 C807 0.930 . S
H812 C809 0.929 . S
S813 N814 1.613 . S
S813 N815 1.610 . S
N814 S813 1.613 . S
N814 C817 1.350 . S
N815 S813 1.610 . S
N815 C816 1.351 . S
C816 C810 1.428 . S
C816 N815 1.351 . S
C816 C817 1.434 . S
C817 C808 1.429 . S
C817 N814 1.350 . S
C817 C816 1.434 . S
C818 C819 1.369 . S
C818 C820 1.419 1_455 S
C818 H822 0.930 . S
C819 C818 1.369 . S
C819 C828 1.429 . S
C820 C818 1.419 1_655 S
C820 C821 1.363 . S
C820 H823 0.929 . S
C821 C820 1.363 . S
C821 C827 1.428 . S
H822 C818 0.930 . S
H823 C820 0.929 . S
S824 N825 1.613 . S
S824 N826 1.610 1_455 S
N825 S824 1.613 . S
N825 C828 1.350 . S
N826 S824 1.610 1_655 S
N826 C827 1.351 . S
C827 C821 1.428 . S
C827 N826 1.351 . S
C827 C828 1.434 1_655 S
C828 C819 1.429 . S
C828 N825 1.350 . S
C828 C827 1.434 1_455 S
C829 C830 1.369 . S
C829 C831 1.419 . S
C829 H833 0.930 . S
C830 C829 1.369 . S
C830 C839 1.429 . S
C831 C829 1.419 . S
C831 C832 1.363 . S
C831 H834 0.929 . S
C832 C831 1.363 . S
C832 C838 1.428 . S
H833 C829 0.930 . S
H834 C831 0.929 . S
S835 N836 1.613 . S
S835 N837 1.610 . S
N836 S835 1.613 . S
N836 C839 1.350 . S
N837 S835 1.610 . S
N837 C838 1.351 . S
C838 C832 1.428 . S
C838 N837 1.351 . S
C838 C839 1.434 . S
C839 C830 1.429 . S
C839 N836 1.350 . S
C839 C838 1.434 . S
C840 C841 1.369 . S
C840 C842 1.419 . S
C840 H844 0.930 . S
C841 C840 1.369 . S
C841 C850 1.429 . S
C842 C840 1.419 . S
C842 C843 1.363 . S
C842 H845 0.929 . S
C843 C842 1.363 . S
C843 C849 1.428 . S
H844 C840 0.930 . S
H845 C842 0.929 . S
S846 N847 1.613 . S
S846 N848 1.610 . S
N847 S846 1.613 . S
N847 C850 1.350 . S
N848 S846 1.610 . S
N848 C849 1.351 . S
C849 C843 1.428 . S
C849 N848 1.351 . S
C849 C850 1.434 . S
C850 C841 1.429 . S
C850 N847 1.350 . S
C850 C849 1.434 . S
C851 C852 1.369 . S
C851 C853 1.419 . S
C851 H855 0.930 . S
C852 C851 1.369 . S
C852 C861 1.429 . S
C853 C851 1.419 . S
C853 C854 1.363 . S
C853 H856 0.929 . S
C854 C853 1.363 . S
C854 C860 1.428 . S
H855 C851 0.930 . S
H856 C853 0.929 . S
S857 N858 1.613 . S
S857 N859 1.610 . S
N858 S857 1.613 . S
N858 C861 1.350 . S
N859 S857 1.610 . S
N859 C860 1.351 . S
C860 C854 1.428 . S
C860 N859 1.351 . S
C860 C861 1.434 . S
C861 C852 1.429 . S
C861 N858 1.350 . S
C861 C860 1.434 . S
C862 C863 1.369 . S
C862 C864 1.419 . S
C862 H866 0.930 . S
C863 C862 1.369 . S
C863 C872 1.429 . S
C864 C862 1.419 . S
C864 C865 1.363 . S
C864 H867 0.929 . S
C865 C864 1.363 . S
C865 C871 1.428 . S
H866 C862 0.930 . S
H867 C864 0.929 . S
S868 N869 1.613 . S
S868 N870 1.610 . S
N869 S868 1.613 . S
N869 C872 1.350 . S
N870 S868 1.610 . S
N870 C871 1.351 . S
C871 C865 1.428 . S
C871 N870 1.351 . S
C871 C872 1.434 . S
C872 C863 1.429 . S
C872 N869 1.350 . S
C872 C871 1.434 . S
C873 C874 1.369 . S
C873 C875 1.419 . S
C873 H877 0.930 . S
C874 C873 1.369 . S
C874 C883 1.429 . S
C875 C873 1.419 . S
C875 C876 1.363 . S
C875 H878 0.929 . S
C876 C875 1.363 . S
C876 C882 1.428 . S
H877 C873 0.930 . S
H878 C875 0.929 . S
S879 N880 1.613 . S
S879 N881 1.610 . S
N880 S879 1.613 . S
N880 C883 1.350 . S
N881 S879 1.610 . S
N881 C882 1.351 . S
C882 C876 1.428 . S
C882 N881 1.351 . S
C882 C883 1.434 . S
C883 C874 1.429 . S
C883 N880 1.350 . S
C883 C882 1.434 . S
C884 C885 1.369 . S
C884 C886 1.419 . S
C884 H888 0.930 . S
C885 C884 1.369 . S
C885 C894 1.429 . S
C886 C884 1.419 . S
C886 C887 1.363 . S
C886 H889 0.929 . S
C887 C886 1.363 . S
C887 C893 1.428 . S
H888 C884 0.930 . S
H889 C886 0.929 . S
S890 N891 1.613 . S
S890 N892 1.610 . S
N891 S890 1.613 . S
N891 C894 1.350 . S
N892 S890 1.610 . S
N892 C893 1.351 . S
C893 C887 1.428 . S
C893 N892 1.351 . S
C893 C894 1.434 . S
C894 C885 1.429 . S
C894 N891 1.350 . S
C894 C893 1.434 . S
C895 C896 1.369 . S
C895 C897 1.419 . S
C895 H899 0.930 . S
C896 C895 1.369 . S
C896 C905 1.429 . S
C897 C895 1.419 . S
C897 C898 1.363 . S
C897 H900 0.929 . S
C898 C897 1.363 . S
C898 C904 1.428 . S
H899 C895 0.930 . S
H900 C897 0.929 . S
S901 N902 1.613 . S
S901 N903 1.610 . S
N902 S901 1.613 . S
N902 C905 1.350 . S
N903 S901 1.610 . S
N903 C904 1.351 . S
C904 C898 1.428 . S
C904 N903 1.351 . S
C904 C905 1.434 . S
C905 C896 1.429 . S
C905 N902 1.350 . S
C905 C904 1.434 . S
C906 C907 1.369 . S
C906 C908 1.419 . S
C906 H910 0.930 . S
C907 C906 1.369 . S
C907 C916 1.429 . S
C908 C906 1.419 . S
C908 C909 1.363 . S
C908 H911 0.929 . S
C909 C908 1.363 . S
C909 C915 1.428 . S
H910 C906 0.930 . S
H911 C908 0.929 . S
S912 N913 1.613 . S
S912 N914 1.610 . S
N913 S912 1.613 . S
N913 C916 1.350 . S
N914 S912 1.610 . S
N914 C915 1.351 . S
C915 C909 1.428 . S
C915 N914 1.351 . S
C915 C916 1.434 . S
C916 C907 1.429 . S
C916 N913 1.350 . S
C916 C915 1.434 . S
C917 C918 1.369 . S
C917 C919 1.419 . S
C917 H921 0.930 . S
C918 C917 1.369 . S
C918 C927 1.429 . S
C919 C917 1.419 . S
C919 C920 1.363 . S
C919 H922 0.929 . S
C920 C919 1.363 . S
C920 C926 1.428 . S
H921 C917 0.930 . S
H922 C919 0.929 . S
S923 N924 1.613 . S
S923 N925 1.610 . S
N924 S923 1.613 . S
N924 C927 1.350 . S
N925 S923 1.610 . S
N925 C926 1.351 . S
C926 C920 1.428 . S
C926 N925 1.351 . S
C926 C927 1.434 . S
C927 C918 1.429 . S
C927 N924 1.350 . S
C927 C926 1.434 . S
C577 C4 1.506 . S
C579 C446 1.447 . S
C588 C482 1.446 . S
C590 C40 1.506 . S
C599 C76 1.506 . S
C601 C518 1.447 . S
C610 C554 1.451 . S
C612 C112 1.507 . S
C621 C292 1.506 . S
C623 C158 1.447 . S
C632 C194 1.455 . S
C634 C328 1.506 . S
C643 C364 1.507 . S
C645 C230 1.453 . S
C654 C266 1.446 . S
C656 C400 1.506 . S
C665 C3 1.615 . S
C667 C75 1.613 . S
C676 C39 1.613 . S
C678 C111 1.615 . S
C687 C147 1.524 . S
C689 C219 1.517 . S
C698 C183 1.517 . S
C700 C255 1.522 . S
C709 C363 1.616 . S
C711 C291 1.612 . S
C720 C327 1.611 . S
C722 C399 1.616 . S
C731 C507 1.521 . S
C733 C435 1.519 . S
C742 C471 1.517 . S
C744 C543 1.522 . S
C753 C218 1.494 . S
C755 C2 1.487 . S
C764 C254 1.494 . S
C766 C38 1.488 . S
C775 C74 1.487 . S
C777 C146 1.494 . S
C786 C110 1.487 . S
C788 C182 1.494 . S
C797 C506 1.492 . S
C799 C290 1.485 . S
C808 C326 1.487 . S
C810 C542 1.493 . S
C819 C434 1.495 . S
C821 C362 1.488 . S
C830 C398 1.488 . S
C832 C470 1.494 . S
C841 C14 1.594 . S
C843 C122 1.593 . S
C852 C86 1.598 . S
C854 C50 1.600 . S
C863 C148 1.328 . S
C865 C256 1.328 . S
C874 C184 1.328 . S
C876 C220 1.328 . S
C885 C410 1.593 . S
C887 C302 1.596 . S
C896 C338 1.594 . S
C898 C374 1.593 . S
C907 C544 1.328 . S
C909 C436 1.328 . S
C918 C472 1.328 . S
C920 C508 1.328 . S
