# Generated by pormake.
# Topology npo, (4)-cn, num edge types: 1
# Building blocks:
#     Node 0, Type 0, BuildingBlock: ICAMEG_clean_sbu_1, # of connection points: 4
#     Node 1, Type 0, BuildingBlock: ICAMEG_clean_sbu_1, # of connection points: 4
#     Node 2, Type 0, BuildingBlock: ICAMEG_clean_sbu_1, # of connection points: 4
#     Node 3, Type 0, BuildingBlock: ICAMEG_clean_sbu_1, # of connection points: 4
#     Node 4, Type 0, BuildingBlock: ICAMEG_clean_sbu_1, # of connection points: 4
#     Node 5, Type 0, BuildingBlock: ICAMEG_clean_sbu_1, # of connection points: 4
#     Edge 6, Type (0, 0), None
#     Edge 7, Type (0, 0), None
#     Edge 8, Type (0, 0), None
#     Edge 9, Type (0, 0), None
#     Edge 10, Type (0, 0), None
#     Edge 11, Type (0, 0), None
#     Edge 12, Type (0, 0), None
#     Edge 13, Type (0, 0), None
#     Edge 14, Type (0, 0), None
#     Edge 15, Type (0, 0), None
#     Edge 16, Type (0, 0), None
#     Edge 17, Type (0, 0), None
# Relax obj value: 0.228
# Max RMSD: 0.250
# Mean RMSD: 0.249
data_MOF--net-npo--node1-ICAMEG_clean_sbu_1--edge1-none
_symmetry_space_group_name_H-M    P1
_symmetry_Int_Tables_number       1
_symmetry_cell_setting            triclinic
loop_
_symmetry_equiv_pos_as_xyz
'x, y, z'
_cell_length_a     22.360129
_cell_length_b     22.367907
_cell_length_c     13.641763
_cell_angle_alpha  90.053007
_cell_angle_beta   88.403619
_cell_angle_gamma 120.06599
loop_
_atom_site_label
_atom_site_type_symbol
_atom_site_fract_x
_atom_site_fract_y
_atom_site_fract_z
_atom_type_partial_charge
Co0 Co 0.5705 0.13389 0.1145 0.0
Co1 Co 0.54157 0.1447 0.36616 0.0
O2 O 0.53027 0.09349 0.24399 0.0
C3 C 0.43059 0.01422 0.04156 0.0
O4 O 0.40594 0.9803 0.12476 0.0
C5 C 0.55052 0.02145 0.44907 0.0
O6 O 0.53526 0.98666 0.3674 0.0
O7 O 0.64466 0.21621 0.32257 0.0
O8 O 0.66219 0.1881 0.17067 0.0
H9 H 0.51565 0.32075 0.54869 0.0
H10 H 0.50527 0.98316 0.17672 0.0
O11 O 0.47841 0.07833 0.04165 0.0
H12 H 0.73745 0.04917 0.04778 0.0
H13 H 0.62601 0.11196 0.76431 0.0
H14 H 0.68862 0.26997 0.04036 0.0
H15 H 0.69425 0.12893 0.03459 0.0
H16 H 0.5475 0.08442 0.90593 0.0
O17 O 0.56992 0.0858 0.44644 0.0
H18 H 0.57715 0.28899 0.4221 0.0
H19 H 0.51828 0.10501 0.58127 0.0
H20 H 0.77962 0.28425 0.91892 0.0
H21 H 0.54699 0.90171 0.18968 0.0
H22 H 0.74813 0.20408 0.77962 0.0
H23 H 0.66432 0.93447 0.12765 0.0
O24 O 0.55266 0.21612 0.14414 0.0
H25 H 0.30596 0.93901 0.30586 0.0
H26 H 0.42843 0.16462 0.45746 0.0
H27 H 0.30458 0.10444 0.45652 0.0
H28 H 0.2415 -0.00921 0.37694 0.0
H29 H 0.43346 -0.00194 0.31739 0.0
H30 H 0.48157 0.147 0.72085 0.0
H31 H 0.46523 0.24745 0.69687 0.0
O32 O 0.5137 0.20333 0.30132 0.0
C33 C 0.68261 0.22849 0.24153 0.0
C34 C 0.52033 0.27554 0.55737 0.0
C35 C 0.49945 0.17707 0.65343 0.0
N36 N 0.54777 0.19306 0.48886 0.0
C37 C 0.55271 0.25629 0.48475 0.0
C38 C 0.52498 0.15554 0.57503 0.0
C39 C 0.49132 0.23399 0.64062 0.0
C40 C 0.5539 -0.00308 0.14153 0.0
N41 N 0.59382 0.0603 0.09729 0.0
C42 C 0.57821 0.95065 0.15198 0.0
C43 C 0.6445 0.96936 0.11836 0.0
C44 C 0.68531 0.03346 0.07335 0.0
C45 C 0.65919 0.07812 0.06346 0.0
C46 C 0.64149 0.14516 0.82731 0.0
C47 C 0.67677 0.2326 0.98411 0.0
C48 C 0.59512 0.13197 0.90591 0.0
N49 N 0.61425 0.17323 -0.01355 0.0
C50 C 0.72735 0.24257 0.91318 0.0
C51 C 0.70975 0.19706 0.83555 0.0
C52 C 0.53276 0.23684 0.22228 0.0
C53 C 0.33387 0.9866 0.34496 0.0
C54 C 0.40405 0.11272 0.4323 0.0
C55 C 0.33229 0.07962 0.42825 0.0
C56 C 0.29706 0.01632 0.38329 0.0
N57 N 0.44147 0.08358 0.39558 0.0
C58 C 0.40605 0.02041 0.35277 0.0
Co59 Co 0.4248 0.58684 0.59313 0.0
Co60 Co 0.39281 0.54466 0.84372 0.0
O61 O 0.43449 0.5455 0.71487 0.0
C62 C 0.41427 0.45423 0.50893 0.0
O63 O 0.42853 0.43412 0.59083 0.0
C64 C 0.53228 0.56526 0.91868 0.0
O65 O 0.55723 0.55617 0.83559 0.0
O66 O 0.41048 0.64486 0.81478 0.0
O67 O 0.45274 0.67287 0.65941 0.0
H68 H 0.18214 0.48567 0.03631 0.0
H69 H 0.53179 0.54719 0.64224 0.0
O70 O 0.39665 0.50044 0.51105 0.0
H71 H 0.6631 0.78343 0.50659 0.0
H72 H 0.48937 0.65382 0.24029 0.0
H73 H 0.38875 0.69506 0.5379 0.0
H74 H 0.5392 0.72075 0.50544 0.0
H75 H 0.45166 0.57333 0.37831 0.0
O76 O 0.48413 0.58103 0.91842 0.0
H77 H 0.27417 0.56236 0.91598 0.0
H78 H 0.41329 0.51594 0.05212 0.0
H79 H 0.45123 0.79027 0.41416 0.0
H80 H 0.65947 0.61493 0.65485 0.0
H81 H 0.50399 0.76983 0.26633 0.0
H82 H 0.72502 0.7314 0.58507 0.0
O83 O 0.32134 0.55512 0.63529 0.0
H84 H 0.41749 0.33639 0.76892 0.0
H85 H 0.26873 0.41532 0.92157 0.0
H86 H 0.22633 0.29237 0.90926 0.0
H87 H 0.30025 0.25132 0.83065 0.0
H88 H 0.45866 0.45958 0.78158 0.0
H89 H 0.33337 0.46433 0.19235 0.0
H90 H 0.21179 0.43577 0.17554 0.0
O91 O 0.30168 0.50697 0.7857 0.0
C92 C 0.43145 0.68618 0.73735 0.0
C93 C 0.23422 0.49595 0.04272 0.0
C94 C 0.31867 0.48265 0.12925 0.0
N95 N 0.34771 0.53928 0.97103 0.0
C96 C 0.28542 0.53657 0.97249 0.0
C97 C 0.36584 0.51624 0.05158 0.0
C98 C 0.25071 0.46706 0.12016 0.0
C99 C 0.55981 0.59722 0.60768 0.0
N100 N 0.52506 0.62572 0.56529 0.0
C101 C 0.63199 0.6351 0.616 0.0
C102 C 0.66947 0.70182 0.57844 0.0
C103 C 0.63488 0.73069 0.53408 0.0
C104 C 0.56311 0.69262 0.52987 0.0
C105 C 0.47078 0.66506 0.30786 0.0
C106 C 0.41486 0.68835 0.47604 0.0
C107 C 0.44468 0.61703 0.38509 0.0
N108 N 0.42037 0.63043 0.47103 0.0
C109 C 0.44758 0.74085 0.40476 0.0
C110 C 0.47794 0.72969 0.32178 0.0
C111 C 0.28224 0.5281 0.71514 0.0
C112 C 0.386 0.35393 0.80621 0.0
C113 C 0.30415 0.39983 0.89339 0.0
C114 C 0.27849 0.32905 0.88398 0.0
C115 C 0.31973 0.30604 0.83965 0.0
N116 N 0.36962 0.44768 0.86017 0.0
C117 C 0.40993 0.42452 0.81642 0.0
Co118 Co 0.84385 0.415 0.34972 0.0
Co119 Co 0.8458 0.42534 0.09962 0.0
O120 O 0.88951 0.44355 0.22382 0.0
C121 C 0.93097 0.53634 0.4854 0.0
O122 O 0.87423 0.53457 0.51751 0.0
C123 C 0.94984 0.38114 0.01022 0.0
O124 O 0.9114 0.31411 0.02398 0.0
O125 O 0.78519 0.31969 0.13975 0.0
O126 O 0.76589 0.33307 0.29865 0.0
H127 H 0.7217 0.48453 0.85967 0.0
H128 H -0.01332 0.44272 0.3057 0.0
O129 O 0.92804 0.49971 0.41057 0.0
H130 H 0.85706 0.2003 0.42057 0.0
H131 H 0.85019 0.34781 0.69481 0.0
H132 H 0.69686 0.32639 0.43301 0.0
H133 H 0.80099 0.27046 0.41712 0.0
H134 H 0.89798 0.41012 0.53852 0.0
O135 O 0.92903 0.42221 0.04033 0.0
H136 H 0.72791 0.43455 0.01018 0.0
H137 H 0.88156 0.39717 0.8869 0.0
H138 H 0.64853 0.27663 0.59754 0.0
H139 H 0.0448 0.37328 0.30832 0.0
H140 H 0.72446 0.29491 0.73001 0.0
H141 H 0.97981 0.25152 0.3649 0.0
O142 O 0.78699 0.46418 0.31373 0.0
H143 H 0.05485 0.66107 0.12335 0.0
H144 H 0.80778 0.53844 0.05818 0.0
H145 H 0.86898 0.6626 0.06721 0.0
H146 H -0.00638 0.72581 0.10369 0.0
H147 H -0.00994 0.5332 0.11231 0.0
H148 H 0.88514 0.45861 0.74053 0.0
H149 H 0.80516 0.50118 0.72134 0.0
O150 O 0.76821 0.4318 0.1555 0.0
C151 C 0.75052 0.29614 0.22432 0.0
C152 C 0.75683 0.46477 0.86443 0.0
C153 C 0.84708 0.44888 0.79815 0.0
N154 N 0.80832 0.41543 0.96642 0.0
C155 C 0.75999 0.43453 0.95193 0.0
C156 C 0.84698 0.41675 0.88568 0.0
C157 C 0.80208 0.47332 0.78748 0.0
C158 C 0.95876 0.39037 0.3339 0.0
N159 N 0.89132 0.36221 0.36513 0.0
C160 C -0.00836 0.35115 0.33374 0.0
C161 C 0.95498 0.28244 0.365 0.0
C162 C 0.88624 0.25377 0.39641 0.0
C163 C 0.85495 0.29428 0.39505 0.0
C164 C 0.81646 0.34823 0.63998 0.0
C165 C 0.73115 0.33826 0.4925 0.0
C166 C 0.84319 0.38464 0.55207 0.0
N167 N 0.8008 0.38176 0.4796 0.0
C168 C 0.70294 0.30737 0.5837 0.0
C169 C 0.74604 0.31514 0.65861 0.0
C170 C 0.75702 0.45914 0.22906 0.0
C171 C 0.00079 0.63357 0.10699 0.0
C172 C 0.86236 0.56309 0.06733 0.0
C173 C 0.89674 0.63487 0.07522 0.0
C174 C 0.96634 0.67021 0.09636 0.0
N175 N 0.89605 0.52638 0.07885 0.0
C176 C 0.96464 0.56164 0.09804 0.0
Co177 Co 0.39972 0.83791 0.87224 0.0
Co178 Co 0.39461 0.85184 0.61773 0.0
O179 O 0.42297 0.89096 0.7482 0.0
C180 C 0.4108 0.97475 0.94677 0.0
O181 O 0.43128 0.00811 0.86259 0.0
C182 C 0.53035 0.98362 0.5466 0.0
O183 O 0.54736 0.0182 0.62848 0.0
O184 O 0.42799 0.78192 0.64938 0.0
O185 O 0.41349 0.7676 0.81303 0.0
H186 H 0.21735 0.68831 0.38907 0.0
H187 H 0.52215 0.98136 0.82849 0.0
O188 O 0.38383 0.90872 0.94944 0.0
H189 H 0.61919 0.8423 0.95136 0.0
H190 H 0.43025 0.82491 0.2308 0.0
H191 H 0.34259 0.6875 0.9353 0.0
H192 H 0.49511 0.79621 0.95763 0.0
H193 H 0.43536 0.88124 0.0756 0.0
O194 O 0.48825 0.91832 0.5489 0.0
H195 H 0.28923 0.71487 0.53504 0.0
H196 H 0.41991 0.91492 0.42326 0.0
H197 H 0.32905 0.6302 0.09637 0.0
H198 H 0.64769 0.02763 0.81836 0.0
H199 H 0.36224 0.69718 0.24417 0.0
H200 H 0.69686 0.95824 0.87795 0.0
O201 O 0.29651 0.7773 0.83124 0.0
H202 H 0.37315 0.06139 0.69306 0.0
H203 H 0.26332 0.83469 0.53849 0.0
H204 H 0.20109 0.8975 0.55243 0.0
H205 H 0.25524 0.01152 0.63262 0.0
H206 H 0.43633 -0.00163 0.67469 0.0
H207 H 0.36284 0.88454 0.2671 0.0
H208 H 0.25486 0.77629 0.25589 0.0
O209 O 0.30389 0.78276 0.66735 0.0
C210 C 0.42612 0.75048 0.73166 0.0
C211 C 0.2657 0.73608 0.39348 0.0
C212 C 0.34563 0.84742 0.32674 0.0
N213 N 0.36248 0.81556 0.48735 0.0
C214 C 0.30666 0.75137 0.47585 0.0
C215 C 0.38204 0.86265 0.41246 0.0
C216 C 0.28568 0.78498 0.31892 0.0
C217 C 0.5424 0.95163 0.86037 0.0
N218 N 0.49915 0.88697 0.89866 0.0
C219 C 0.61388 0.97798 0.85241 0.0
C220 C 0.64174 0.93855 0.88477 0.0
C221 C 0.59831 0.87382 0.92626 0.0
C222 C 0.5273 0.84877 0.93219 0.0
C223 C 0.40526 0.79428 0.16792 0.0
C224 C 0.35863 0.71829 0.00038 0.0
C225 C 0.40792 0.82581 0.07907 0.0
N226 N 0.38203 0.78774 -0.00355 0.0
C227 C 0.3512 0.68495 0.09017 0.0
C228 C 0.3714 0.72305 0.17452 0.0
C229 C 0.27029 0.7554 0.7446 0.0
C230 C 0.35071 0.01306 0.655 0.0
C231 C 0.29047 0.88601 0.56743 0.0
C232 C 0.25351 0.92077 0.57744 0.0
C233 C 0.28372 0.98448 0.62252 0.0
N234 N 0.35658 0.91365 0.60037 0.0
C235 C 0.38668 0.97717 0.64279 0.0
Co236 Co 0.56476 0.42076 0.08778 0.0
Co237 Co 0.56983 0.43919 0.34189 0.0
O238 O 0.54141 0.45015 0.2118 0.0
C239 C 0.55183 0.54556 0.01355 0.0
O240 O 0.53021 0.55748 0.09752 0.0
C241 C 0.43458 0.43641 0.41173 0.0
O242 O 0.41932 0.45552 0.32974 0.0
O243 O 0.53552 0.33567 0.31022 0.0
O244 O 0.55184 0.33672 0.14668 0.0
H245 H 0.74532 0.45105 0.57218 0.0
H246 H 0.44115 0.43987 0.13198 0.0
O247 O 0.5796 0.50722 0.01093 0.0
H248 H 0.34654 0.2045 0.00606 0.0
H249 H 0.5339 0.37689 0.72952 0.0
H250 H 0.62622 0.33177 0.02366 0.0
H251 H 0.47061 0.28331 0.00227 0.0
H252 H 0.52689 0.42652 0.88553 0.0
O253 O 0.47636 0.41292 0.41021 0.0
H254 H 0.67456 0.40701 0.42491 0.0
H255 H 0.54417 0.4769 0.53625 0.0
H256 H 0.64408 0.29217 0.86082 0.0
H257 H 0.31572 0.3599 0.13949 0.0
H258 H 0.60726 0.3229 0.71428 0.0
H259 H 0.26771 0.24172 0.07818 0.0
O260 O 0.66804 0.4644 0.12842 0.0
H261 H 0.59544 0.67208 0.26673 0.0
H262 H 0.70161 0.55234 0.42201 0.0
H263 H 0.76504 0.67746 0.41005 0.0
H264 H 0.71273 0.73885 0.32967 0.0
H265 H 0.53066 0.54576 0.28402 0.0
H266 H 0.60108 0.50369 0.69234 0.0
H267 H 0.70888 0.50339 0.70338 0.0
O268 O 0.66034 0.45981 0.29223 0.0
C269 C 0.53801 0.30642 0.22786 0.0
C270 C 0.69757 0.45135 0.56676 0.0
C271 C 0.61823 0.48368 0.63272 0.0
N272 N 0.60146 0.43469 0.47225 0.0
C273 C 0.65701 0.42602 0.48404 0.0
C274 C 0.58187 0.46233 0.54706 0.0
C275 C 0.67799 0.48102 0.64065 0.0
C276 C 0.42148 0.3901 0.09945 0.0
N277 N 0.46532 0.36936 0.06148 0.0
C278 C 0.35003 0.34455 0.10589 0.0
C279 C 0.32282 0.27748 0.07256 0.0
C280 C 0.3669 0.25676 0.0318 0.0
C281 C 0.43787 0.30312 0.02737 0.0
C282 C 0.55975 0.37231 0.79205 0.0
C283 C 0.60903 0.34537 0.95871 0.0
C284 C 0.55589 0.40013 0.88129 0.0
N285 N 0.58293 0.38908 0.96341 0.0
C286 C 0.61849 0.32148 0.86822 0.0
C287 C 0.59665 0.33802 0.7844 0.0
C288 C 0.69417 0.46743 0.21468 0.0
C289 C 0.61693 0.64554 0.30522 0.0
C290 C 0.67508 0.57709 0.39317 0.0
C291 C 0.7128 0.6489 0.38423 0.0
C292 C 0.68361 0.68324 0.33904 0.0
N293 N 0.60909 0.53932 0.35943 0.0
C294 C 0.58009 0.57358 0.31665 0.0
Co295 Co 0.12344 0.55497 0.60396 0.0
Co296 Co 0.11774 0.56014 0.85461 0.0
O297 O 0.07484 0.53672 0.72867 0.0
C298 C -0.00779 0.56528 0.552 0.0
O299 O -0.01244 0.58941 0.63775 0.0
C300 C 0.01235 0.41177 0.94258 0.0
O301 O 0.0514 0.38359 0.93286 0.0
O302 O 0.1778 0.51457 0.81461 0.0
O303 O 0.20067 0.55178 0.65841 0.0
H304 H 0.24881 0.73997 0.09828 0.0
H305 H 0.9815 0.43776 0.64632 0.0
O306 O 0.04302 0.55548 0.53281 0.0
H307 H 0.11467 0.32968 0.52772 0.0
H308 H 0.12214 0.48589 0.25803 0.0
H309 H 0.2721 0.61292 0.52549 0.0
H310 H 0.16892 0.45568 0.53439 0.0
H311 H 0.07244 0.50213 0.41058 0.0
O312 O 0.03353 0.47341 0.91113 0.0
H313 H 0.23943 0.68321 0.94592 0.0
H314 H 0.07667 0.4963 0.06685 0.0
H315 H 0.32209 0.61117 0.36216 0.0
H316 H 0.92522 0.31029 0.64088 0.0
H317 H 0.24864 0.55618 0.2275 0.0
H318 H -0.00802 0.25588 0.58228 0.0
O319 O 0.17856 0.66057 0.64267 0.0
H320 H 0.91002 0.59034 0.84191 0.0
H321 H 0.15784 0.7103 0.90264 0.0
H322 H 0.09834 0.77528 0.89943 0.0
H323 H 0.97335 0.71606 0.86534 0.0
H324 H 0.97312 0.52539 0.8448 0.0
H325 H 0.07803 0.55459 0.21457 0.0
H326 H 0.16349 0.67541 0.23534 0.0
O327 O 0.19603 0.64476 0.80064 0.0
C328 C 0.21418 0.5277 0.73145 0.0
C329 C 0.2111 0.68577 0.09205 0.0
C330 C 0.11624 0.58202 0.15663 0.0
N331 N 0.15458 0.58591 -0.01153 0.0
C332 C 0.20612 0.65203 0.00394 0.0
C333 C 0.11408 0.54966 0.06855 0.0
C334 C 0.16461 0.65043 0.16839 0.0
C335 C 0.01017 0.41439 0.61719 0.0
N336 N 0.07749 0.45492 0.58623 0.0
C337 C 0.97834 0.34232 0.6158 0.0
C338 C 0.01598 0.31159 0.58338 0.0
C339 C 0.08467 0.35293 0.5525 0.0
C340 C 0.11488 0.42465 0.55543 0.0
C341 C 0.15521 0.51967 0.31372 0.0
C342 C 0.23865 0.59145 0.46492 0.0
C343 C 0.12758 0.52985 0.40047 0.0
N344 N 0.16911 0.56658 0.47565 0.0
C345 C 0.26784 0.58901 0.37442 0.0
C346 C 0.22587 0.5552 0.29787 0.0
C347 C 0.20756 0.6844 0.72833 0.0
C348 C 0.96431 0.61596 0.85656 0.0
C349 C 0.10319 0.68152 0.89297 0.0
C350 C 0.06978 0.71997 0.88904 0.0
C351 C -5e-05 0.68695 0.86939 0.0
N352 N 0.06846 0.61143 0.87799 0.0
C353 C -0.00038 0.57913 0.86081 0.0
loop_
_geom_bond_atom_site_label_1
_geom_bond_atom_site_label_2
_geom_bond_distance
_geom_bond_site_symmetry_2
_ccdc_geom_bond_type
Co0 O2 2.143 . S
Co0 O8 2.074 . S
Co0 O11 2.093 . S
Co0 O24 2.097 . S
Co0 N41 2.151 . S
Co0 N49 2.214 1_554 S
Co1 O2 2.160 . S
Co1 O7 2.058 . S
Co1 O17 2.057 . S
Co1 O32 2.037 . S
Co1 N36 2.145 . S
Co1 N57 2.257 . S
O2 Co0 2.143 . S
O2 Co1 2.160 . S
C3 O4 1.278 . S
C3 O11 1.224 . S
O4 C3 1.278 . S
C5 O6 1.245 . S
C5 O17 1.232 . S
O6 C5 1.245 . S
O7 Co1 2.058 . S
O7 C33 1.269 . S
O8 Co0 2.074 . S
O8 C33 1.257 . S
H9 C34 0.930 . S
H10 C40 0.930 . S
O11 Co0 2.093 . S
O11 C3 1.224 . S
H12 C44 0.929 . S
H13 C46 0.930 . S
H14 C47 0.930 1_554 S
H15 C45 0.929 . S
H16 C48 0.928 . S
O17 Co1 2.057 . S
O17 C5 1.232 . S
H18 C37 0.929 . S
H19 C38 0.929 . S
H20 C50 0.931 . S
H21 C42 0.929 1_565 S
H22 C51 0.930 . S
H23 C43 0.931 . S
O24 Co0 2.097 . S
O24 C52 1.214 . S
H25 C53 0.929 . S
H26 C54 0.929 . S
H27 C55 0.930 . S
H28 C56 0.930 1_565 S
H29 C58 0.930 1_565 S
H30 C35 0.930 . S
H31 C39 0.930 . S
O32 Co1 2.037 . S
O32 C52 1.234 . S
C33 O7 1.269 . S
C33 O8 1.257 . S
C34 H9 0.930 . S
C34 C37 1.388 . S
C34 C39 1.418 . S
C35 H30 0.930 . S
C35 C38 1.404 . S
C35 C39 1.353 . S
N36 Co1 2.145 . S
N36 C37 1.397 . S
N36 C38 1.334 . S
C37 H18 0.929 . S
C37 C34 1.388 . S
C37 N36 1.397 . S
C38 H19 0.929 . S
C38 C35 1.404 . S
C38 N36 1.334 . S
C39 H31 0.930 . S
C39 C34 1.418 . S
C39 C35 1.353 . S
C40 H10 0.930 . S
C40 N41 1.330 . S
C40 C42 1.446 . S
N41 Co0 2.151 . S
N41 C40 1.330 . S
N41 C45 1.418 . S
C42 H21 0.929 1_545 S
C42 C40 1.446 . S
C42 C43 1.332 . S
C43 H23 0.931 . S
C43 C42 1.332 . S
C43 C44 1.267 . S
C44 H12 0.929 . S
C44 C43 1.267 . S
C44 C45 1.251 . S
C45 H15 0.929 . S
C45 N41 1.418 . S
C45 C44 1.251 . S
C46 H13 0.930 . S
C46 C48 1.406 . S
C46 C51 1.261 . S
C47 H14 0.930 1_556 S
C47 N49 1.325 . S
C47 C50 1.357 . S
C48 H16 0.928 . S
C48 C46 1.406 . S
C48 N49 1.261 . S
N49 Co0 2.214 1_556 S
N49 C47 1.325 . S
N49 C48 1.261 . S
C50 H20 0.931 . S
C50 C47 1.357 . S
C50 C51 1.312 . S
C51 H22 0.930 . S
C51 C46 1.261 . S
C51 C50 1.312 . S
C52 O24 1.214 . S
C52 O32 1.234 . S
C53 H25 0.929 . S
C53 C56 1.391 1_565 S
C53 C58 1.391 1_565 S
C54 H26 0.929 . S
C54 C55 1.390 . S
C54 N57 1.391 . S
C55 H27 0.930 . S
C55 C54 1.390 . S
C55 C56 1.392 . S
C56 H28 0.930 1_545 S
C56 C53 1.391 1_545 S
C56 C55 1.392 . S
N57 Co1 2.257 . S
N57 C54 1.391 . S
N57 C58 1.388 . S
C58 H29 0.930 1_545 S
C58 C53 1.391 1_545 S
C58 N57 1.388 . S
Co59 O61 2.143 . S
Co59 O67 2.074 . S
Co59 O70 2.093 . S
Co59 O83 2.097 . S
Co59 N100 2.151 . S
Co59 N108 2.214 . S
Co60 O61 2.160 . S
Co60 O66 2.058 . S
Co60 O76 2.057 . S
Co60 O91 2.037 . S
Co60 N95 2.145 1_556 S
Co60 N116 2.257 . S
O61 Co59 2.143 . S
O61 Co60 2.160 . S
C62 O63 1.278 . S
C62 O70 1.224 . S
O63 C62 1.278 . S
C64 O65 1.245 . S
C64 O76 1.232 . S
O65 C64 1.245 . S
O66 Co60 2.058 . S
O66 C92 1.269 . S
O67 Co59 2.074 . S
O67 C92 1.257 . S
H68 C93 0.930 . S
H69 C99 0.930 . S
O70 Co59 2.093 . S
O70 C62 1.224 . S
H71 C103 0.929 . S
H72 C105 0.930 . S
H73 C106 0.930 . S
H74 C104 0.929 . S
H75 C107 0.928 . S
O76 Co60 2.057 . S
O76 C64 1.232 . S
H77 C96 0.929 . S
H78 C97 0.929 . S
H79 C109 0.931 . S
H80 C101 0.929 . S
H81 C110 0.930 . S
H82 C102 0.931 . S
O83 Co59 2.097 . S
O83 C111 1.214 . S
H84 C112 0.929 . S
H85 C113 0.929 . S
H86 C114 0.930 . S
H87 C115 0.929 . S
H88 C117 0.930 . S
H89 C94 0.930 . S
H90 C98 0.930 . S
O91 Co60 2.037 . S
O91 C111 1.234 . S
C92 O66 1.269 . S
C92 O67 1.257 . S
C93 H68 0.930 . S
C93 C96 1.388 1_554 S
C93 C98 1.418 . S
C94 H89 0.930 . S
C94 C97 1.404 . S
C94 C98 1.353 . S
N95 Co60 2.145 1_554 S
N95 C96 1.397 1_554 S
N95 C97 1.334 . S
C96 H77 0.929 . S
C96 C93 1.388 1_556 S
C96 N95 1.397 1_556 S
C97 H78 0.929 . S
C97 C94 1.404 . S
C97 N95 1.334 . S
C98 H90 0.930 . S
C98 C93 1.418 . S
C98 C94 1.353 . S
C99 H69 0.930 . S
C99 N100 1.330 . S
C99 C101 1.446 . S
N100 Co59 2.151 . S
N100 C99 1.330 . S
N100 C104 1.418 . S
C101 H80 0.929 . S
C101 C99 1.446 . S
C101 C102 1.332 . S
C102 H82 0.931 . S
C102 C101 1.332 . S
C102 C103 1.267 . S
C103 H71 0.929 . S
C103 C102 1.267 . S
C103 C104 1.251 . S
C104 H74 0.929 . S
C104 N100 1.418 . S
C104 C103 1.251 . S
C105 H72 0.930 . S
C105 C107 1.406 . S
C105 C110 1.261 . S
C106 H73 0.930 . S
C106 N108 1.325 . S
C106 C109 1.357 . S
C107 H75 0.928 . S
C107 C105 1.406 . S
C107 N108 1.261 . S
N108 Co59 2.214 . S
N108 C106 1.325 . S
N108 C107 1.261 . S
C109 H79 0.931 . S
C109 C106 1.357 . S
C109 C110 1.312 . S
C110 H81 0.930 . S
C110 C105 1.261 . S
C110 C109 1.312 . S
C111 O83 1.214 . S
C111 O91 1.234 . S
C112 H84 0.929 . S
C112 C115 1.391 . S
C112 C117 1.391 . S
C113 H85 0.929 . S
C113 C114 1.390 . S
C113 N116 1.391 . S
C114 H86 0.930 . S
C114 C113 1.390 . S
C114 C115 1.392 . S
C115 H87 0.929 . S
C115 C112 1.391 . S
C115 C114 1.392 . S
N116 Co60 2.257 . S
N116 C113 1.391 . S
N116 C117 1.388 . S
C117 H88 0.930 . S
C117 C112 1.391 . S
C117 N116 1.388 . S
Co118 O120 2.143 . S
Co118 O126 2.074 . S
Co118 O129 2.093 . S
Co118 O142 2.097 . S
Co118 N159 2.151 . S
Co118 N167 2.214 . S
Co119 O120 2.160 . S
Co119 O125 2.058 . S
Co119 O135 2.057 . S
Co119 O150 2.037 . S
Co119 N154 2.145 1_554 S
Co119 N175 2.257 . S
O120 Co118 2.143 . S
O120 Co119 2.160 . S
C121 O122 1.278 . S
C121 O129 1.224 . S
O122 C121 1.278 . S
C123 O124 1.245 . S
C123 O135 1.232 . S
O124 C123 1.245 . S
O125 Co119 2.058 . S
O125 C151 1.269 . S
O126 Co118 2.074 . S
O126 C151 1.257 . S
H127 C152 0.930 . S
H128 C158 0.930 . S
O129 Co118 2.093 . S
O129 C121 1.224 . S
H130 C162 0.929 . S
H131 C164 0.930 . S
H132 C165 0.930 . S
H133 C163 0.929 . S
H134 C166 0.928 . S
O135 Co119 2.057 . S
O135 C123 1.232 . S
H136 C155 0.929 . S
H137 C156 0.929 . S
H138 C168 0.931 . S
H139 C160 0.929 1_455 S
H140 C169 0.930 . S
H141 C161 0.931 . S
O142 Co118 2.097 . S
O142 C170 1.214 . S
H143 C171 0.929 . S
H144 C172 0.929 . S
H145 C173 0.930 . S
H146 C174 0.930 1_455 S
H147 C176 0.930 1_455 S
H148 C153 0.930 . S
H149 C157 0.930 . S
O150 Co119 2.037 . S
O150 C170 1.234 . S
C151 O125 1.269 . S
C151 O126 1.257 . S
C152 H127 0.930 . S
C152 C155 1.388 1_556 S
C152 C157 1.418 . S
C153 H148 0.930 . S
C153 C156 1.404 . S
C153 C157 1.353 . S
N154 Co119 2.145 1_556 S
N154 C155 1.397 1_556 S
N154 C156 1.334 . S
C155 H136 0.929 . S
C155 C152 1.388 1_554 S
C155 N154 1.397 1_554 S
C156 H137 0.929 . S
C156 C153 1.404 . S
C156 N154 1.334 . S
C157 H149 0.930 . S
C157 C152 1.418 . S
C157 C153 1.353 . S
C158 H128 0.930 . S
C158 N159 1.330 . S
C158 C160 1.446 . S
N159 Co118 2.151 . S
N159 C158 1.330 . S
N159 C163 1.418 . S
C160 H139 0.929 1_655 S
C160 C158 1.446 . S
C160 C161 1.332 . S
C161 H141 0.931 . S
C161 C160 1.332 . S
C161 C162 1.267 . S
C162 H130 0.929 . S
C162 C161 1.267 . S
C162 C163 1.251 . S
C163 H133 0.929 . S
C163 N159 1.418 . S
C163 C162 1.251 . S
C164 H131 0.930 . S
C164 C166 1.406 . S
C164 C169 1.261 . S
C165 H132 0.930 . S
C165 N167 1.325 . S
C165 C168 1.357 . S
C166 H134 0.928 . S
C166 C164 1.406 . S
C166 N167 1.261 . S
N167 Co118 2.214 . S
N167 C165 1.325 . S
N167 C166 1.261 . S
C168 H138 0.931 . S
C168 C165 1.357 . S
C168 C169 1.312 . S
C169 H140 0.930 . S
C169 C164 1.261 . S
C169 C168 1.312 . S
C170 O142 1.214 . S
C170 O150 1.234 . S
C171 H143 0.929 . S
C171 C174 1.391 1_455 S
C171 C176 1.391 1_455 S
C172 H144 0.929 . S
C172 C173 1.390 . S
C172 N175 1.391 . S
C173 H145 0.930 . S
C173 C172 1.390 . S
C173 C174 1.392 . S
C174 H146 0.930 1_655 S
C174 C171 1.391 1_655 S
C174 C173 1.392 . S
N175 Co119 2.257 . S
N175 C172 1.391 . S
N175 C176 1.388 . S
C176 H147 0.930 1_655 S
C176 C171 1.391 1_655 S
C176 N175 1.388 . S
Co177 O179 2.143 . S
Co177 O185 2.074 . S
Co177 O188 2.093 . S
Co177 O201 2.097 . S
Co177 N218 2.151 . S
Co177 N226 2.214 1_556 S
Co178 O179 2.160 . S
Co178 O184 2.058 . S
Co178 O194 2.057 . S
Co178 O209 2.037 . S
Co178 N213 2.145 . S
Co178 N234 2.257 . S
O179 Co177 2.143 . S
O179 Co178 2.160 . S
C180 O181 1.278 . S
C180 O188 1.224 . S
O181 C180 1.278 . S
C182 O183 1.245 . S
C182 O194 1.232 . S
O183 C182 1.245 . S
O184 Co178 2.058 . S
O184 C210 1.269 . S
O185 Co177 2.074 . S
O185 C210 1.257 . S
H186 C211 0.930 . S
H187 C217 0.930 . S
O188 Co177 2.093 . S
O188 C180 1.224 . S
H189 C221 0.929 . S
H190 C223 0.930 . S
H191 C224 0.930 1_556 S
H192 C222 0.929 . S
H193 C225 0.928 . S
O194 Co178 2.057 . S
O194 C182 1.232 . S
H195 C214 0.929 . S
H196 C215 0.929 . S
H197 C227 0.931 . S
H198 C219 0.929 1_545 S
H199 C228 0.930 . S
H200 C220 0.931 . S
O201 Co177 2.097 . S
O201 C229 1.214 . S
H202 C230 0.929 . S
H203 C231 0.929 . S
H204 C232 0.930 . S
H205 C233 0.916 1_545 S
H206 C235 0.930 1_545 S
H207 C212 0.930 . S
H208 C216 0.930 . S
O209 Co178 2.037 . S
O209 C229 1.234 . S
C210 O184 1.269 . S
C210 O185 1.257 . S
C211 H186 0.930 . S
C211 C214 1.388 . S
C211 C216 1.418 . S
C212 H207 0.930 . S
C212 C215 1.404 . S
C212 C216 1.353 . S
N213 Co178 2.145 . S
N213 C214 1.397 . S
N213 C215 1.334 . S
C214 H195 0.929 . S
C214 C211 1.388 . S
C214 N213 1.397 . S
C215 H196 0.929 . S
C215 C212 1.404 . S
C215 N213 1.334 . S
C216 H208 0.930 . S
C216 C211 1.418 . S
C216 C212 1.353 . S
C217 H187 0.930 . S
C217 N218 1.330 . S
C217 C219 1.446 . S
N218 Co177 2.151 . S
N218 C217 1.330 . S
N218 C222 1.418 . S
C219 H198 0.929 1_565 S
C219 C217 1.446 . S
C219 C220 1.332 . S
C220 H200 0.931 . S
C220 C219 1.332 . S
C220 C221 1.267 . S
C221 H189 0.929 . S
C221 C220 1.267 . S
C221 C222 1.251 . S
C222 H192 0.929 . S
C222 N218 1.418 . S
C222 C221 1.251 . S
C223 H190 0.930 . S
C223 C225 1.406 . S
C223 C228 1.261 . S
C224 H191 0.930 1_554 S
C224 N226 1.325 . S
C224 C227 1.357 . S
C225 H193 0.928 . S
C225 C223 1.406 . S
C225 N226 1.261 . S
N226 Co177 2.214 1_554 S
N226 C224 1.325 . S
N226 C225 1.261 . S
C227 H197 0.931 . S
C227 C224 1.357 . S
C227 C228 1.312 . S
C228 H199 0.930 . S
C228 C223 1.261 . S
C228 C227 1.312 . S
C229 O201 1.214 . S
C229 O209 1.234 . S
C230 H202 0.929 . S
C230 C233 1.391 1_545 S
C230 C235 1.391 1_545 S
C231 H203 0.929 . S
C231 C232 1.390 . S
C231 N234 1.391 . S
C232 H204 0.930 . S
C232 C231 1.390 . S
C232 C233 1.392 . S
C233 H205 0.916 1_565 S
C233 C230 1.391 1_565 S
C233 C232 1.392 . S
N234 Co178 2.257 . S
N234 C231 1.391 . S
N234 C235 1.388 . S
C235 H206 0.930 1_565 S
C235 C230 1.391 1_565 S
C235 N234 1.388 . S
Co236 O238 2.143 . S
Co236 O244 2.074 . S
Co236 O247 2.093 . S
Co236 O260 2.097 . S
Co236 N277 2.151 . S
Co236 N285 2.214 1_554 S
Co237 O238 2.160 . S
Co237 O243 2.058 . S
Co237 O253 2.057 . S
Co237 O268 2.037 . S
Co237 N272 2.145 . S
Co237 N293 2.257 . S
O238 Co236 2.143 . S
O238 Co237 2.160 . S
C239 O240 1.278 . S
C239 O247 1.224 . S
O240 C239 1.278 . S
C241 O242 1.245 . S
C241 O253 1.232 . S
O242 C241 1.245 . S
O243 Co237 2.058 . S
O243 C269 1.269 . S
O244 Co236 2.074 . S
O244 C269 1.257 . S
H245 C270 0.930 . S
H246 C276 0.930 . S
O247 Co236 2.093 . S
O247 C239 1.224 . S
H248 C280 0.929 . S
H249 C282 0.930 . S
H250 C283 0.930 1_554 S
H251 C281 0.929 . S
H252 C284 0.928 . S
O253 Co237 2.057 . S
O253 C241 1.232 . S
H254 C273 0.929 . S
H255 C274 0.929 . S
H256 C286 0.931 . S
H257 C278 0.929 . S
H258 C287 0.930 . S
H259 C279 0.931 . S
O260 Co236 2.097 . S
O260 C288 1.214 . S
H261 C289 0.929 . S
H262 C290 0.929 . S
H263 C291 0.930 . S
H264 C292 0.929 . S
H265 C294 0.930 . S
H266 C271 0.930 . S
H267 C275 0.930 . S
O268 Co237 2.037 . S
O268 C288 1.234 . S
C269 O243 1.269 . S
C269 O244 1.257 . S
C270 H245 0.930 . S
C270 C273 1.388 . S
C270 C275 1.418 . S
C271 H266 0.930 . S
C271 C274 1.404 . S
C271 C275 1.353 . S
N272 Co237 2.145 . S
N272 C273 1.397 . S
N272 C274 1.334 . S
C273 H254 0.929 . S
C273 C270 1.388 . S
C273 N272 1.397 . S
C274 H255 0.929 . S
C274 C271 1.404 . S
C274 N272 1.334 . S
C275 H267 0.930 . S
C275 C270 1.418 . S
C275 C271 1.353 . S
C276 H246 0.930 . S
C276 N277 1.330 . S
C276 C278 1.446 . S
N277 Co236 2.151 . S
N277 C276 1.330 . S
N277 C281 1.418 . S
C278 H257 0.929 . S
C278 C276 1.446 . S
C278 C279 1.332 . S
C279 H259 0.931 . S
C279 C278 1.332 . S
C279 C280 1.267 . S
C280 H248 0.929 . S
C280 C279 1.267 . S
C280 C281 1.251 . S
C281 H251 0.929 . S
C281 N277 1.418 . S
C281 C280 1.251 . S
C282 H249 0.930 . S
C282 C284 1.406 . S
C282 C287 1.261 . S
C283 H250 0.930 1_556 S
C283 N285 1.325 . S
C283 C286 1.357 . S
C284 H252 0.928 . S
C284 C282 1.406 . S
C284 N285 1.261 . S
N285 Co236 2.214 1_556 S
N285 C283 1.325 . S
N285 C284 1.261 . S
C286 H256 0.931 . S
C286 C283 1.357 . S
C286 C287 1.312 . S
C287 H258 0.930 . S
C287 C282 1.261 . S
C287 C286 1.312 . S
C288 O260 1.214 . S
C288 O268 1.234 . S
C289 H261 0.929 . S
C289 C292 1.391 . S
C289 C294 1.391 . S
C290 H262 0.929 . S
C290 C291 1.390 . S
C290 N293 1.391 . S
C291 H263 0.930 . S
C291 C290 1.390 . S
C291 C292 1.392 . S
C292 H264 0.929 . S
C292 C289 1.391 . S
C292 C291 1.392 . S
N293 Co237 2.257 . S
N293 C290 1.391 . S
N293 C294 1.388 . S
C294 H265 0.930 . S
C294 C289 1.391 . S
C294 N293 1.388 . S
Co295 O297 2.143 . S
Co295 O303 2.074 . S
Co295 O306 2.093 . S
Co295 O319 2.097 . S
Co295 N336 2.151 . S
Co295 N344 2.214 . S
Co296 O297 2.160 . S
Co296 O302 2.058 . S
Co296 O312 2.057 . S
Co296 O327 2.037 . S
Co296 N331 2.145 1_556 S
Co296 N352 2.257 . S
O297 Co295 2.143 . S
O297 Co296 2.160 . S
C298 O299 1.278 . S
C298 O306 1.224 . S
O299 C298 1.278 . S
C300 O301 1.245 . S
C300 O312 1.232 . S
O301 C300 1.245 . S
O302 Co296 2.058 . S
O302 C328 1.269 . S
O303 Co295 2.074 . S
O303 C328 1.257 . S
H304 C329 0.930 . S
H305 C335 0.930 . S
O306 Co295 2.093 . S
O306 C298 1.224 . S
H307 C339 0.929 . S
H308 C341 0.930 . S
H309 C342 0.930 . S
H310 C340 0.929 . S
H311 C343 0.928 . S
O312 Co296 2.057 . S
O312 C300 1.232 . S
H313 C332 0.939 . S
H314 C333 0.929 . S
H315 C345 0.931 . S
H316 C337 0.929 1_655 S
H317 C346 0.930 . S
H318 C338 0.931 . S
O319 Co295 2.097 . S
O319 C347 1.214 . S
H320 C348 0.929 . S
H321 C349 0.929 . S
H322 C350 0.930 . S
H323 C351 0.914 1_655 S
H324 C353 0.930 1_655 S
H325 C330 0.930 . S
H326 C334 0.930 . S
O327 Co296 2.037 . S
O327 C347 1.234 . S
C328 O302 1.269 . S
C328 O303 1.257 . S
C329 H304 0.930 . S
C329 C332 1.378 1_554 S
C329 C334 1.418 . S
C330 H325 0.930 . S
C330 C333 1.404 . S
C330 C334 1.353 . S
N331 Co296 2.145 1_554 S
N331 C332 1.396 1_554 S
N331 C333 1.334 . S
C332 H313 0.939 . S
C332 C329 1.378 1_556 S
C332 N331 1.396 1_556 S
C333 H314 0.929 . S
C333 C330 1.404 . S
C333 N331 1.334 . S
C334 H326 0.930 . S
C334 C329 1.418 . S
C334 C330 1.353 . S
C335 H305 0.930 . S
C335 N336 1.330 . S
C335 C337 1.446 . S
N336 Co295 2.151 . S
N336 C335 1.330 . S
N336 C340 1.418 . S
C337 H316 0.929 1_455 S
C337 C335 1.446 . S
C337 C338 1.332 . S
C338 H318 0.931 . S
C338 C337 1.332 . S
C338 C339 1.267 . S
C339 H307 0.929 . S
C339 C338 1.267 . S
C339 C340 1.251 . S
C340 H310 0.929 . S
C340 N336 1.418 . S
C340 C339 1.251 . S
C341 H308 0.930 . S
C341 C343 1.406 . S
C341 C346 1.261 . S
C342 H309 0.930 . S
C342 N344 1.325 . S
C342 C345 1.357 . S
C343 H311 0.928 . S
C343 C341 1.406 . S
C343 N344 1.261 . S
N344 Co295 2.214 . S
N344 C342 1.325 . S
N344 C343 1.261 . S
C345 H315 0.931 . S
C345 C342 1.357 . S
C345 C346 1.312 . S
C346 H317 0.930 . S
C346 C341 1.261 . S
C346 C345 1.312 . S
C347 O319 1.214 . S
C347 O327 1.234 . S
C348 H320 0.929 . S
C348 C351 1.391 1_655 S
C348 C353 1.391 1_655 S
C349 H321 0.929 . S
C349 C350 1.390 . S
C349 N352 1.391 . S
C350 H322 0.930 . S
C350 C349 1.390 . S
C350 C351 1.392 . S
C351 H323 0.914 1_455 S
C351 C348 1.391 1_455 S
C351 C350 1.392 . S
N352 Co296 2.257 . S
N352 C349 1.391 . S
N352 C353 1.388 . S
C353 H324 0.930 1_455 S
C353 C348 1.391 1_455 S
C353 N352 1.388 . S
C52 C269 2.033 . S
C111 C328 2.031 . S
C33 C151 2.013 . S
C210 C92 2.014 . S
C288 C170 2.047 . S
C229 C347 2.048 . S
C180 C3 1.533 1_566 S
C241 C62 1.545 . S
C300 C123 1.563 1_456 S
C5 C182 1.564 1_545 S
C64 C239 1.544 1_556 S
C298 C121 1.532 1_455 S
