# Generated by pormake.
# Topology uob, (4)-cn, num edge types: 1
# Building blocks:
#     Node 0, Type 0, BuildingBlock: MUDLON_clean_sbu_0, # of connection points: 4
#     Node 1, Type 0, BuildingBlock: MUDLON_clean_sbu_0, # of connection points: 4
#     Node 2, Type 0, BuildingBlock: MUDLON_clean_sbu_0, # of connection points: 4
#     Node 3, Type 0, BuildingBlock: MUDLON_clean_sbu_0, # of connection points: 4
#     Node 4, Type 0, BuildingBlock: MUDLON_clean_sbu_0, # of connection points: 4
#     Node 5, Type 0, BuildingBlock: MUDLON_clean_sbu_0, # of connection points: 4
#     Node 6, Type 0, BuildingBlock: MUDLON_clean_sbu_0, # of connection points: 4
#     Node 7, Type 0, BuildingBlock: MUDLON_clean_sbu_0, # of connection points: 4
#     Node 8, Type 0, BuildingBlock: MUDLON_clean_sbu_0, # of connection points: 4
#     Node 9, Type 0, BuildingBlock: MUDLON_clean_sbu_0, # of connection points: 4
#     Node 10, Type 0, BuildingBlock: MUDLON_clean_sbu_0, # of connection points: 4
#     Node 11, Type 0, BuildingBlock: MUDLON_clean_sbu_0, # of connection points: 4
#     Node 12, Type 0, BuildingBlock: MUDLON_clean_sbu_0, # of connection points: 4
#     Node 13, Type 0, BuildingBlock: MUDLON_clean_sbu_0, # of connection points: 4
#     Node 14, Type 0, BuildingBlock: MUDLON_clean_sbu_0, # of connection points: 4
#     Node 15, Type 0, BuildingBlock: MUDLON_clean_sbu_0, # of connection points: 4
#     Edge 16, Type (0, 0), BuildingBlock: TEMPAE_clean_linker_10, # of connection points: 2
#     Edge 17, Type (0, 0), BuildingBlock: TEMPAE_clean_linker_10, # of connection points: 2
#     Edge 18, Type (0, 0), BuildingBlock: TEMPAE_clean_linker_10, # of connection points: 2
#     Edge 19, Type (0, 0), BuildingBlock: TEMPAE_clean_linker_10, # of connection points: 2
#     Edge 20, Type (0, 0), BuildingBlock: TEMPAE_clean_linker_10, # of connection points: 2
#     Edge 21, Type (0, 0), BuildingBlock: TEMPAE_clean_linker_10, # of connection points: 2
#     Edge 22, Type (0, 0), BuildingBlock: TEMPAE_clean_linker_10, # of connection points: 2
#     Edge 23, Type (0, 0), BuildingBlock: TEMPAE_clean_linker_10, # of connection points: 2
#     Edge 24, Type (0, 0), BuildingBlock: TEMPAE_clean_linker_10, # of connection points: 2
#     Edge 25, Type (0, 0), BuildingBlock: TEMPAE_clean_linker_10, # of connection points: 2
#     Edge 26, Type (0, 0), BuildingBlock: TEMPAE_clean_linker_10, # of connection points: 2
#     Edge 27, Type (0, 0), BuildingBlock: TEMPAE_clean_linker_10, # of connection points: 2
#     Edge 28, Type (0, 0), BuildingBlock: TEMPAE_clean_linker_10, # of connection points: 2
#     Edge 29, Type (0, 0), BuildingBlock: TEMPAE_clean_linker_10, # of connection points: 2
#     Edge 30, Type (0, 0), BuildingBlock: TEMPAE_clean_linker_10, # of connection points: 2
#     Edge 31, Type (0, 0), BuildingBlock: TEMPAE_clean_linker_10, # of connection points: 2
#     Edge 32, Type (0, 0), BuildingBlock: TEMPAE_clean_linker_10, # of connection points: 2
#     Edge 33, Type (0, 0), BuildingBlock: TEMPAE_clean_linker_10, # of connection points: 2
#     Edge 34, Type (0, 0), BuildingBlock: TEMPAE_clean_linker_10, # of connection points: 2
#     Edge 35, Type (0, 0), BuildingBlock: TEMPAE_clean_linker_10, # of connection points: 2
#     Edge 36, Type (0, 0), BuildingBlock: TEMPAE_clean_linker_10, # of connection points: 2
#     Edge 37, Type (0, 0), BuildingBlock: TEMPAE_clean_linker_10, # of connection points: 2
#     Edge 38, Type (0, 0), BuildingBlock: TEMPAE_clean_linker_10, # of connection points: 2
#     Edge 39, Type (0, 0), BuildingBlock: TEMPAE_clean_linker_10, # of connection points: 2
#     Edge 40, Type (0, 0), BuildingBlock: TEMPAE_clean_linker_10, # of connection points: 2
#     Edge 41, Type (0, 0), BuildingBlock: TEMPAE_clean_linker_10, # of connection points: 2
#     Edge 42, Type (0, 0), BuildingBlock: TEMPAE_clean_linker_10, # of connection points: 2
#     Edge 43, Type (0, 0), BuildingBlock: TEMPAE_clean_linker_10, # of connection points: 2
#     Edge 44, Type (0, 0), BuildingBlock: TEMPAE_clean_linker_10, # of connection points: 2
#     Edge 45, Type (0, 0), BuildingBlock: TEMPAE_clean_linker_10, # of connection points: 2
#     Edge 46, Type (0, 0), BuildingBlock: TEMPAE_clean_linker_10, # of connection points: 2
#     Edge 47, Type (0, 0), BuildingBlock: TEMPAE_clean_linker_10, # of connection points: 2
# Relax obj value: 0.172
# Max RMSD: 0.257
# Mean RMSD: 0.257
data_MOF--net-uob--node1-MUDLON_clean_sbu_0--edge1-TEMPAE_clean_linker_10
_symmetry_space_group_name_H-M    P1
_symmetry_Int_Tables_number       1
_symmetry_cell_setting            triclinic
loop_
_symmetry_equiv_pos_as_xyz
'x, y, z'
_cell_length_a     55.871633
_cell_length_b     55.854001
_cell_length_c     29.286889
_cell_angle_alpha  90.056094
_cell_angle_beta   90.019173
_cell_angle_gamma 90.054083
loop_
_atom_site_label
_atom_site_type_symbol
_atom_site_fract_x
_atom_site_fract_y
_atom_site_fract_z
_atom_type_partial_charge
Mg0 Mg 0.13294 0.0655 0.31705 0.0
C1 C 0.12835 0.07578 0.4129 0.0
O2 O 0.13176 0.05256 0.40964 0.0
C3 C 0.13134 0.07238 0.21682 0.0
O4 O 0.13024 0.04898 0.22119 0.0
C5 C 0.18512 0.06112 0.33393 0.0
O6 O 0.18333 0.08264 0.31615 0.0
O7 O 0.16659 0.04786 0.33459 0.0
O8 O 0.12786 0.0881 0.3764 0.0
O9 O 0.10128 0.04241 0.31424 0.0
C10 C 0.08187 0.05145 0.32927 0.0
O11 O 0.08228 0.07324 0.34614 0.0
O12 O 0.13381 0.08502 0.25268 0.0
Mg13 Mg 0.94431 0.6334 0.5636 0.0
C14 C 0.93187 0.61043 0.65205 0.0
O15 O 0.95379 0.60277 0.64528 0.0
C16 C 0.93708 0.63198 0.4624 0.0
O17 O 0.96052 0.63269 0.46589 0.0
C18 C 0.96781 0.6713 0.62144 0.0
O19 O 0.97292 0.65192 0.64485 0.0
O20 O 0.95743 0.66897 0.58293 0.0
O21 O 0.92201 0.62327 0.62149 0.0
O22 O 0.97134 0.60529 0.5579 0.0
C23 C 0.96377 0.58572 0.54079 0.0
O24 O 0.94153 0.58464 0.52633 0.0
O25 O 0.92467 0.63325 0.49881 0.0
Mg26 Mg 0.36617 0.44444 0.80702 0.0
C27 C 0.3635 0.43205 0.90388 0.0
O28 O 0.35182 0.45237 0.90072 0.0
C29 C 0.37183 0.43752 0.70718 0.0
O30 O 0.37032 0.46089 0.71143 0.0
C31 C 0.31386 0.44265 0.82182 0.0
O32 O 0.31983 0.42014 0.81547 0.0
O33 O 0.32995 0.45861 0.81677 0.0
O34 O 0.37222 0.42289 0.86771 0.0
O35 O 0.39559 0.47031 0.80792 0.0
C36 C 0.41579 0.46104 0.79815 0.0
O37 O 0.41654 0.43812 0.78812 0.0
O38 O 0.36967 0.42471 0.74288 0.0
Mg39 Mg 0.57126 0.87628 0.06885 0.0
C40 C 0.58756 0.87072 0.16449 0.0
O41 O 0.56799 0.8577 0.16348 0.0
C42 C 0.57725 0.88208 0.9689 0.0
O43 O 0.55394 0.88307 0.9745 0.0
C44 C 0.57034 0.82376 0.08086 0.0
O45 O 0.59288 0.8286 0.07186 0.0
O46 O 0.55523 0.8408 0.07875 0.0
O47 O 0.59429 0.8813 0.1282 0.0
O48 O 0.54714 0.90713 0.06932 0.0
C49 C 0.5573 0.9266 0.0575 0.0
O50 O 0.58012 0.926 0.04669 0.0
O51 O 0.59032 0.87824 1.00376 0.0
Mg52 Mg 0.12077 0.43402 0.04476 0.0
C53 C 0.13369 0.39876 0.97166 0.0
O54 O 0.15479 0.40202 0.99051 0.0
C55 C 0.12102 0.4316 0.1467 0.0
O56 O 0.12002 0.45478 0.13932 0.0
C57 C 0.15566 0.45847 0.98307 0.0
O58 O 0.1361 0.45849 0.95812 0.0
O59 O 0.15425 0.45125 0.02425 0.0
O60 O 0.11541 0.40817 0.99035 0.0
O61 O 0.08937 0.45735 0.04429 0.0
C62 C 0.07087 0.44932 0.0646 0.0
O63 O 0.07209 0.42824 0.08436 0.0
O64 O 0.12261 0.41764 0.11245 0.0
Mg65 Mg 0.57675 0.63071 0.30138 0.0
C66 C 0.60887 0.64215 0.22188 0.0
O67 O 0.60622 0.66385 0.23846 0.0
C68 C 0.57936 0.63105 0.4023 0.0
O69 O 0.55631 0.62954 0.39385 0.0
C70 C 0.55108 0.66564 0.24099 0.0
O71 O 0.55009 0.64607 0.21612 0.0
O72 O 0.55924 0.66416 0.28153 0.0
O73 O 0.60118 0.62445 0.24495 0.0
O74 O 0.55354 0.59926 0.30436 0.0
C75 C 0.55188 0.58493 0.27068 0.0
O76 O 0.56233 0.59059 0.23199 0.0
O77 O 0.59366 0.63284 0.36862 0.0
Mg78 Mg 0.37779 0.06472 0.56314 0.0
C79 C 0.38453 0.07432 0.46826 0.0
O80 O 0.38122 0.05113 0.47251 0.0
C81 C 0.384 0.07129 0.66282 0.0
O82 O 0.38783 0.04828 0.6569 0.0
C83 C 0.32558 0.0612 0.5451 0.0
O84 O 0.32767 0.0828 0.5625 0.0
O85 O 0.34389 0.04765 0.545 0.0
O86 O 0.38395 0.0872 0.5041 0.0
O87 O 0.40933 0.0417 0.56309 0.0
C88 C 0.42877 0.05364 0.56306 0.0
O89 O 0.42746 0.07713 0.56412 0.0
O90 O 0.37798 0.08377 0.62834 0.0
Mg91 Mg 0.9479 0.87907 0.80798 0.0
C92 C 0.93747 0.87965 0.71123 0.0
O93 O 0.95999 0.87309 0.71463 0.0
C94 C 0.94066 0.88264 0.90786 0.0
O95 O 0.96408 0.883 0.90366 0.0
C96 C 0.94885 0.82743 0.78915 0.0
O97 O 0.9262 0.83218 0.7972 0.0
O98 O 0.96412 0.84412 0.79482 0.0
O99 O 0.92584 0.88377 0.74773 0.0
O100 O 0.97199 0.91005 0.80904 0.0
C101 C 0.96321 0.92944 0.79339 0.0
O102 O 0.94132 0.92916 0.77704 0.0
O103 O 0.92804 0.88011 0.872 0.0
Mg104 Mg 0.62247 0.56868 0.81646 0.0
C105 C 0.60222 0.59936 0.89219 0.0
O106 O 0.58366 0.58533 0.88566 0.0
C107 C 0.62341 0.60135 0.7315 0.0
O108 O 0.62082 0.61846 0.76191 0.0
C109 C 0.65685 0.54855 0.88411 0.0
O110 O 0.63772 0.5523 0.90923 0.0
O111 O 0.6553 0.55174 0.84112 0.0
O112 O 0.61975 0.59812 0.86466 0.0
O113 O 0.59021 0.54649 0.82193 0.0
C114 C 0.57284 0.55177 0.79561 0.0
O115 O 0.57551 0.56954 0.7667 0.0
O116 O 0.6255 0.57982 0.74508 0.0
Mg117 Mg 0.45168 0.13398 0.06476 0.0
C118 C 0.44227 0.12826 0.16079 0.0
O119 O 0.46523 0.13304 0.15735 0.0
C120 C 0.44323 0.13501 0.96387 0.0
O121 O 0.46644 0.13861 0.96625 0.0
C122 C 0.45126 0.18515 0.08874 0.0
O123 O 0.42858 0.17964 0.083 0.0
O124 O 0.4669 0.16917 0.08031 0.0
O125 O 0.42989 0.12711 0.1244 0.0
O126 O 0.4768 0.10393 0.06355 0.0
C127 C 0.47008 0.08522 0.04214 0.0
O128 O 0.44956 0.08565 0.02025 0.0
O129 O 0.43143 0.13342 1.00091 0.0
Mg130 Mg 0.87351 0.94883 0.30956 0.0
C131 C 0.88605 0.9395 0.40446 0.0
O132 O 0.88729 0.96288 0.40027 0.0
C133 C 0.87835 0.94167 0.20992 0.0
O134 O 0.87767 0.96509 0.21417 0.0
C135 C 0.83224 0.97899 0.34934 0.0
O136 O 0.84974 0.99204 0.36607 0.0
O137 O 0.83721 0.96197 0.322 0.0
O138 O 0.8805 0.92709 0.36958 0.0
O139 O 0.90317 0.97446 0.30797 0.0
C140 C 0.92333 0.96439 0.31474 0.0
O141 O 0.92384 0.94111 0.32095 0.0
O142 O 0.87603 0.92895 0.24566 0.0
Mg143 Mg 0.07166 0.38049 0.56559 0.0
C144 C 0.10671 0.36806 0.63946 0.0
O145 O 0.10328 0.34673 0.62168 0.0
C146 C 0.07334 0.38047 0.46376 0.0
O147 O 0.05023 0.38132 0.47196 0.0
C148 C 0.04691 0.34615 0.6277 0.0
O149 O 0.04669 0.36597 0.65193 0.0
O150 O 0.0544 0.34714 0.58665 0.0
O151 O 0.09758 0.38617 0.61971 0.0
O152 O 0.04836 0.41183 0.56646 0.0
C153 C 0.0566 0.43041 0.54675 0.0
O154 O 0.07777 0.42921 0.52735 0.0
O155 O 0.08761 0.37879 0.4975 0.0
Mg156 Mg 0.63463 0.9468 0.56184 0.0
C157 C 0.64143 0.91364 0.48061 0.0
O158 O 0.66399 0.91506 0.49301 0.0
C159 C 0.63506 0.9407 0.66313 0.0
O160 O 0.63636 0.96409 0.65885 0.0
C161 C 0.6711 0.97253 0.50443 0.0
O162 O 0.65162 0.97603 0.48019 0.0
O163 O 0.66925 0.96208 0.54291 0.0
O164 O 0.62551 0.92347 0.50532 0.0
O165 O 0.60516 0.97233 0.56632 0.0
C166 C 0.59117 0.97521 0.53244 0.0
O167 O 0.59631 0.96464 0.49359 0.0
O168 O 0.63515 0.92793 0.6271 0.0
Mg169 Mg 0.0649 0.13872 0.8154 0.0
C170 C 0.07426 0.13471 0.71914 0.0
O171 O 0.05126 0.13919 0.72315 0.0
C172 C 0.07202 0.13429 0.91517 0.0
O173 O 0.0486 0.13417 0.91087 0.0
C174 C 0.06504 0.19013 0.79482 0.0
O175 O 0.08769 0.18464 0.80088 0.0
O176 O 0.04939 0.17398 0.80209 0.0
O177 O 0.08682 0.13344 0.75526 0.0
O178 O 0.04049 0.10799 0.81525 0.0
C179 C 0.05017 0.08839 0.80279 0.0
O180 O 0.07291 0.08853 0.79136 0.0
O181 O 0.08469 0.13702 0.87946 0.0
Mg182 Mg 0.86793 0.56283 0.0622 0.0
C183 C 0.86953 0.57191 0.96472 0.0
O184 O 0.85952 0.55074 0.96912 0.0
C185 C 0.87302 0.57078 0.16225 0.0
O186 O 0.87155 0.54736 0.15897 0.0
C187 C 0.8166 0.56591 0.03951 0.0
O188 O 0.82378 0.58831 0.04113 0.0
O189 O 0.8315 0.54961 0.0503 0.0
O190 O 0.87567 0.58315 1.00071 0.0
O191 O 0.8963 0.53591 0.06315 0.0
C192 C 0.91644 0.54362 0.07739 0.0
O193 O 0.91796 0.56592 0.09143 0.0
O194 O 0.87106 0.58316 0.12594 0.0
Mg195 Mg 0.44414 0.38021 0.30412 0.0
C196 C 0.42747 0.40032 0.21595 0.0
O197 O 0.44794 0.41141 0.22214 0.0
C198 C 0.43773 0.38216 0.40507 0.0
O199 O 0.46101 0.38458 0.40053 0.0
C200 C 0.46991 0.34405 0.246 0.0
O201 O 0.47129 0.36315 0.21999 0.0
O202 O 0.46145 0.34632 0.28617 0.0
O203 O 0.42 0.3861 0.24675 0.0
O204 O 0.46587 0.41268 0.30743 0.0
C205 C 0.48824 0.41605 0.30298 0.0
O206 O 0.50252 0.39761 0.29727 0.0
O207 O 0.4252 0.37875 0.36933 0.0
C208 C 0.3045 0.0374 0.48418 0.0
C209 C 0.30378 0.05495 0.51852 0.0
C210 C 0.28528 0.03445 0.45352 0.0
C211 C 0.2648 0.04926 0.45754 0.0
C212 C 0.26342 0.06593 0.49394 0.0
C213 C 0.28293 0.06864 0.52376 0.0
C214 C 0.28751 0.01649 0.41525 0.0
C215 C 0.24184 0.08189 0.49996 0.0
C216 C 0.22794 0.0681 0.35471 0.0
C217 C 0.20687 0.05477 0.36051 0.0
C218 C 0.24743 0.06544 0.38457 0.0
C219 C 0.24582 0.04918 0.42155 0.0
C220 C 0.22511 0.0347 0.42613 0.0
C221 C 0.20591 0.03759 0.39543 0.0
C222 C 0.26925 0.08104 0.37796 0.0
C223 C 0.22264 0.01718 0.46503 0.0
H224 H 0.32058 0.02681 0.47968 0.0
H225 H 0.28214 0.08212 0.55036 0.0
H226 H 0.27097 1.00558 0.41238 0.0
H227 H 0.28985 0.02609 0.3824 0.0
H228 H 0.30301 1.00431 0.42014 0.0
H229 H 0.24256 0.09228 0.5323 0.0
H230 H 0.24076 0.09468 0.47105 0.0
H231 H 0.22517 0.07108 0.49968 0.0
H232 H 0.22891 0.0813 0.32767 0.0
H233 H 0.18967 0.02729 0.40036 0.0
H234 H 0.28575 0.07002 0.37867 0.0
H235 H 0.27051 0.09414 0.40637 0.0
H236 H 0.26868 0.09106 0.34523 0.0
H237 H 0.23902 0.00611 0.46832 0.0
H238 H 0.20697 1.00513 0.46054 0.0
H239 H 0.22041 0.02716 0.49752 0.0
C240 C 0.93857 0.78557 0.76637 0.0
C241 C 0.95543 0.80419 0.76781 0.0
C242 C 0.94306 0.76435 0.74215 0.0
C243 C 0.96497 0.76158 0.71845 0.0
C244 C 0.98238 0.78003 0.72069 0.0
C245 C 0.97744 0.8011 0.74546 0.0
C246 C 0.92406 0.74509 0.74112 0.0
C247 C 0.00595 0.77776 0.6959 0.0
C248 C 0.97972 0.69709 0.68777 0.0
C249 C 0.97049 0.69525 0.64327 0.0
C250 C 0.97917 0.71887 0.71183 0.0
C251 C 0.96922 0.73943 0.69094 0.0
C252 C 0.96113 0.73803 0.64512 0.0
C253 C 0.96183 0.71598 0.62186 0.0
C254 C 0.988 0.71951 0.76055 0.0
C255 C 0.95055 0.75956 0.62144 0.0
H256 H 0.92154 0.78772 0.78361 0.0
H257 H 0.99051 0.81545 0.74609 0.0
H258 H 0.91793 0.74217 0.70551 0.0
H259 H 0.93159 0.7279 0.7535 0.0
H260 H 0.90828 0.74971 0.76244 0.0
H261 H 0.01806 0.79313 0.70282 0.0
H262 H 0.01513 0.76099 0.70608 0.0
H263 H 1.0027 0.7767 0.65857 0.0
H264 H 0.98657 0.68126 0.70466 0.0
H265 H 0.95473 0.71481 0.58748 0.0
H266 H 0.97259 0.7219 0.78398 0.0
H267 H 1.00022 0.73494 0.76583 0.0
H268 H 0.99754 0.70282 0.77018 0.0
H269 H 0.93319 0.76422 0.63757 0.0
H270 H 0.94744 0.75627 0.58449 0.0
H271 H 0.96252 0.77529 0.62523 0.0
C272 C 0.27255 0.43042 0.84506 0.0
C273 C 0.28991 0.44849 0.84108 0.0
C274 C 0.25076 0.43454 0.86763 0.0
C275 C 0.24609 0.45733 0.88687 0.0
C276 C 0.26318 0.47591 0.88176 0.0
C277 C 0.2849 0.47128 0.85892 0.0
C278 C 0.233 0.41424 0.87192 0.0
C279 C 0.25878 0.50049 0.90144 0.0
C280 C 0.18048 0.4684 0.91437 0.0
C281 C 0.17931 0.46195 0.96067 0.0
C282 C 0.20229 0.46816 0.89046 0.0
C283 C 0.22353 0.46125 0.91326 0.0
C284 C 0.22269 0.45591 0.96055 0.0
C285 C 0.20062 0.45637 0.9837 0.0
C286 C 0.20235 0.47409 0.84017 0.0
C287 C 0.2449 0.44842 0.98619 0.0
H288 H 0.27616 0.41277 0.8313 0.0
H289 H 0.2982 0.48533 0.85619 0.0
H290 H 0.23022 0.40984 0.90848 0.0
H291 H 0.21539 0.41968 0.8578 0.0
H292 H 0.239 0.3978 0.85388 0.0
H293 H 0.27316 0.51337 0.8923 0.0
H294 H 0.24141 0.5076 0.8891 0.0
H295 H 0.25766 0.49934 0.9392 0.0
H296 H 0.16417 0.47281 0.8962 0.0
H297 H 0.19996 0.45133 0.0194 0.0
H298 H 0.20567 0.45756 0.82012 0.0
H299 H 0.21696 0.48687 0.83211 0.0
H300 H 0.18507 0.48191 0.82881 0.0
H301 H 0.25104 0.43075 0.97339 0.0
H302 H 0.24172 0.44699 0.02353 0.0
H303 H 0.2596 0.4614 0.98022 0.0
C304 C 0.58145 0.78211 0.10388 0.0
C305 C 0.56385 0.79993 0.10002 0.0
C306 C 0.57677 0.76039 0.12628 0.0
C307 C 0.55386 0.75619 0.14533 0.0
C308 C 0.53573 0.77373 0.14026 0.0
C309 C 0.54094 0.79542 0.11775 0.0
C310 C 0.59665 0.74222 0.13078 0.0
C311 C 0.511 0.76979 0.15957 0.0
C312 C 0.54157 0.6907 0.17236 0.0
C313 C 0.54791 0.68938 0.21871 0.0
C314 C 0.54219 0.71255 0.14858 0.0
C315 C 0.54939 0.73367 0.17157 0.0
C316 C 0.55464 0.73269 0.21889 0.0
C317 C 0.55379 0.71059 0.2419 0.0
C318 C 0.53645 0.71272 0.0982 0.0
C319 C 0.5625 0.75475 0.24472 0.0
H320 H 0.5992 0.78532 0.0903 0.0
H321 H 0.52723 0.80905 0.11505 0.0
H322 H 0.60142 0.74001 0.16731 0.0
H323 H 0.59061 0.72451 0.11805 0.0
H324 H 0.61299 0.74753 0.1117 0.0
H325 H 0.4985 0.78449 0.15049 0.0
H326 H 0.50353 0.75262 0.14684 0.0
H327 H 0.51201 0.76849 0.19732 0.0
H328 H 0.53699 0.67447 0.15401 0.0
H329 H 0.55876 0.70982 0.27764 0.0
H330 H 0.55316 0.71547 0.07841 0.0
H331 H 0.5242 0.72771 0.08987 0.0
H332 H 0.5281 0.69567 0.0868 0.0
H333 H 0.58029 0.76061 0.23212 0.0
H334 H 0.5638 0.75151 0.28206 0.0
H335 H 0.54981 0.76969 0.23871 0.0
C336 C 0.70183 0.54635 0.88171 0.0
C337 C 0.68045 0.545 0.90672 0.0
C338 C 0.72419 0.54686 0.90389 0.0
C339 C 0.72523 0.54593 0.95224 0.0
C340 C 0.70379 0.54316 0.97744 0.0
C341 C 0.68171 0.54275 0.95444 0.0
C342 C 0.74661 0.5498 0.87569 0.0
C343 C 0.70402 0.54201 0.02895 0.0
C344 C 0.78587 0.53653 0.01012 0.0
C345 C 0.7926 0.56016 0.02032 0.0
C346 C 0.7639 0.5315 0.98837 0.0
C347 C 0.74833 0.55054 0.97654 0.0
C348 C 0.75485 0.57434 0.98765 0.0
C349 C 0.7768 0.57883 0.00934 0.0
C350 C 0.75753 0.50588 0.97738 0.0
C351 C 0.73879 0.59521 0.97591 0.0
H352 H 0.7011 0.54808 0.84488 0.0
H353 H 0.66535 0.54158 0.97417 0.0
H354 H 0.75426 0.56788 0.88162 0.0
H355 H 0.76032 0.53655 0.88614 0.0
H356 H 0.74309 0.54769 0.83856 0.0
H357 H 0.68627 0.53699 0.04313 0.0
H358 H 0.71752 0.5289 0.04094 0.0
H359 H 0.70911 0.55976 0.04298 0.0
H360 H 0.79796 0.52199 0.01828 0.0
H361 H 0.78174 0.59716 0.01709 0.0
H362 H 0.75589 0.50361 0.93987 0.0
H363 H 0.7399 0.50129 0.99247 0.0
H364 H 0.77111 0.49304 0.99029 0.0
H365 H 0.73597 0.59597 0.93843 0.0
H366 H 0.74634 0.61262 0.98735 0.0
H367 H 0.72097 0.59281 0.992 0.0
C368 C 0.46767 0.29908 0.24972 0.0
C369 C 0.47361 0.31993 0.2255 0.0
C370 C 0.46718 0.27659 0.22797 0.0
C371 C 0.47271 0.27488 0.18084 0.0
C372 C 0.48018 0.29561 0.15699 0.0
C373 C 0.48057 0.31783 0.17957 0.0
C374 C 0.45929 0.25492 0.2548 0.0
C375 C 0.48629 0.29465 0.1068 0.0
C376 C 0.48071 0.213 0.12691 0.0
C377 C 0.45775 0.20866 0.10921 0.0
C378 C 0.486 0.23453 0.15004 0.0
C379 C 0.46796 0.25214 0.15538 0.0
C380 C 0.44496 0.24804 0.13656 0.0
C381 C 0.44016 0.22642 0.11388 0.0
C382 C 0.51072 0.23821 0.1696 0.0
C383 C 0.42522 0.26637 0.14102 0.0
H384 H 0.46235 0.30043 0.28522 0.0
H385 H 0.48535 0.33375 0.1605 0.0
H386 H 0.44129 0.2492 0.24305 0.0
H387 H 0.4717 0.23973 0.24888 0.0
H388 H 0.45841 0.25859 0.29205 0.0
H389 H 0.49452 0.31159 0.0946 0.0
H390 H 0.49878 0.27968 0.0997 0.0
H391 H 0.46976 0.29131 0.08675 0.0
H392 H 0.49437 0.19935 0.12372 0.0
H393 H 0.42239 0.22333 0.10023 0.0
H394 H 0.50961 0.23982 0.2073 0.0
H395 H 0.51851 0.25516 0.15659 0.0
H396 H 0.52302 0.22326 0.16103 0.0
H397 H 0.42121 0.26955 0.17762 0.0
H398 H 0.40848 0.26066 0.12365 0.0
H399 H 0.43106 0.28369 0.12621 0.0
C400 C 0.80196 0.99992 0.39866 0.0
C401 C 0.8076 0.98136 0.36811 0.0
C402 C 0.77965 1.00073 0.42089 0.0
C403 C 0.7626 0.98244 0.41275 0.0
C404 C 0.76789 0.96407 0.38092 0.0
C405 C 0.79023 0.96383 0.35885 0.0
C406 C 0.77459 0.0208 0.45405 0.0
C407 C 0.75026 0.94417 0.37133 0.0
C408 C 0.71577 0.96753 0.50296 0.0
C409 C 0.69496 0.97738 0.48389 0.0
C410 C 0.738 0.96954 0.48071 0.0
C411 C 0.73954 0.98192 0.43858 0.0
C412 C 0.71877 0.99275 0.42014 0.0
C413 C 0.69675 0.99025 0.44286 0.0
C414 C 0.75966 0.95761 0.50144 0.0
C415 C 0.71967 0.00635 0.37564 0.0
H416 H 0.8152 0.01358 0.40602 0.0
H417 H 0.79436 0.94937 0.33546 0.0
H418 H 0.75742 0.02965 0.44532 0.0
H419 H 0.77271 0.01345 0.48905 0.0
H420 H 0.78901 0.03451 0.45429 0.0
H421 H 0.75676 0.93166 0.34457 0.0
H422 H 0.74692 0.93384 0.40305 0.0
H423 H 0.73287 0.95174 0.3602 0.0
H424 H 0.71459 0.95747 0.5345 0.0
H425 H 0.6808 0.998 0.4279 0.0
H426 H 0.77443 0.97074 0.50534 0.0
H427 H 0.76614 0.94325 0.47835 0.0
H428 H 0.75575 0.94962 0.53536 0.0
H429 H 0.73399 0.02011 0.37682 0.0
H430 H 0.70241 0.01528 0.36769 0.0
H431 H 0.72406 0.99389 0.34734 0.0
C432 C 0.03711 0.32199 0.6973 0.0
C433 C 0.04343 0.32271 0.6509 0.0
C434 C 0.0375 0.30043 0.72198 0.0
C435 C 0.04444 0.27898 0.69986 0.0
C436 C 0.04957 0.27935 0.65246 0.0
C437 C 0.04897 0.30118 0.62854 0.0
C438 C 0.03183 0.30089 0.77238 0.0
C439 C 0.05707 0.25691 0.62752 0.0
C440 C 0.07645 0.23126 0.76919 0.0
C441 C 0.05868 0.21368 0.77445 0.0
C442 C 0.07184 0.2527 0.74584 0.0
C443 C 0.04885 0.2568 0.72708 0.0
C444 C 0.03057 0.2395 0.73345 0.0
C445 C 0.03569 0.21814 0.75709 0.0
C446 C 0.09183 0.27071 0.74024 0.0
C447 C 1.00579 0.24332 0.71431 0.0
H448 H 0.03272 0.33847 0.71496 0.0
H449 H 0.05389 0.3015 0.59275 0.0
H450 H 0.01938 0.28613 0.78136 0.0
H451 H 0.04852 0.29815 0.79222 0.0
H452 H 0.02372 0.31815 0.78311 0.0
H453 H 0.05813 0.25966 0.59001 0.0
H454 H 0.07491 0.25113 0.63996 0.0
H455 H 0.04431 0.24214 0.63454 0.0
H456 H 0.09425 0.22809 0.78261 0.0
H457 H 0.02186 0.20466 0.76085 0.0
H458 H 0.08622 0.28841 0.75371 0.0
H459 H 0.09595 0.27309 0.70346 0.0
H460 H 0.10847 0.26518 0.75812 0.0
H461 H 0.99852 0.26073 0.72616 0.0
H462 H 0.9932 0.22886 0.72441 0.0
H463 H 0.00664 0.24402 0.67649 0.0
C464 C 0.05496 0.0204 0.29428 0.0
C465 C 0.05885 0.0383 0.32704 0.0
C466 C 0.03258 0.00895 0.29061 0.0
C467 C 0.01389 0.01516 0.32114 0.0
C468 C 0.01791 0.03298 0.3547 0.0
C469 C 0.04022 0.0445 0.35687 0.0
C470 C 0.02888 0.99033 0.25389 0.0
C471 C 0.99872 0.03969 0.38869 0.0
C472 C 0.94893 0.99969 0.2933 0.0
C473 C 0.94599 0.97813 0.31705 0.0
C474 C 0.97106 0.0118 0.29366 0.0
C475 C 0.99043 1.00239 0.31932 0.0
C476 C 0.9873 0.98089 0.34413 0.0
C477 C 0.96525 0.96891 0.34224 0.0
C478 C 0.97384 0.03446 0.26614 0.0
C479 C 0.00721 0.97056 0.3729 0.0
H480 H 0.06923 0.01573 0.27085 0.0
H481 H 0.04316 0.05825 0.38242 0.0
H482 H 0.02483 0.97275 0.26967 0.0
H483 H 0.01328 0.99524 0.23238 0.0
H484 H 0.04483 0.98831 0.23157 0.0
H485 H 1.00475 0.05382 0.41284 0.0
H486 H 0.98257 0.04619 0.37053 0.0
H487 H 0.99333 0.02369 0.40864 0.0
H488 H 0.93414 0.00676 0.27351 0.0
H489 H 0.96301 0.95233 0.361 0.0
H490 H 0.98874 0.03241 0.2414 0.0
H491 H 0.97851 0.04961 0.28898 0.0
H492 H 0.95728 0.0391 0.2471 0.0
H493 H 0.02289 0.96636 0.35111 0.0
H494 H 1.00168 0.95399 0.39102 0.0
H495 H 0.01314 0.98392 0.3986 0.0
C496 C 0.97206 0.54439 0.51249 0.0
C497 C 0.97874 0.56382 0.54011 0.0
C498 C 0.9849 0.52281 0.51331 0.0
C499 C 1.00476 0.52042 0.54296 0.0
C500 C 0.01176 0.54004 0.57067 0.0
C501 C 0.99876 0.56159 0.56867 0.0
C502 C 0.97708 0.5025 0.48263 0.0
C503 C 0.03271 0.53812 0.60301 0.0
C504 C 0.0233 0.45691 0.57459 0.0
C505 C 0.04305 0.45325 0.54587 0.0
C506 C 0.0109 0.47883 0.57456 0.0
C507 C 0.01822 0.49738 0.54465 0.0
C508 C 0.03802 0.4937 0.51538 0.0
C509 C 0.05026 0.47177 0.51655 0.0
C510 C 0.98998 0.48214 0.60655 0.0
C511 C 0.04617 0.51285 0.48248 0.0
H512 H 0.95666 0.54601 0.49017 0.0
H513 H 1.0039 0.57647 0.59038 0.0
H514 H 0.99213 0.4969 0.46036 0.0
H515 H 0.97197 0.48677 0.50357 0.0
H516 H 0.96164 0.50746 0.46069 0.0
H517 H 0.03588 0.55499 0.62223 0.0
H518 H 0.02949 0.52345 0.6278 0.0
H519 H 0.04919 0.53354 0.58381 0.0
H520 H 0.0177 0.44275 0.59751 0.0
H521 H 0.06543 0.46908 0.49407 0.0
H522 H 0.97344 0.48554 0.58665 0.0
H523 H 0.99303 0.49802 0.62863 0.0
H524 H 0.98701 0.46627 0.62867 0.0
H525 H 0.0314 0.51742 0.45872 0.0
H526 H 0.06195 0.50719 0.46208 0.0
H527 H 0.05086 0.52941 0.50143 0.0
C528 C 0.43938 0.49807 0.81837 0.0
C529 C 0.43833 0.4752 0.79859 0.0
C530 C 0.46105 0.51097 0.81997 0.0
C531 C 0.48208 0.50089 0.80084 0.0
C532 C 0.48102 0.47791 0.78056 0.0
C533 C 0.45926 0.46534 0.7799 0.0
C534 C 0.46148 0.53535 0.84221 0.0
C535 C 0.50288 0.46661 0.7592 0.0
C536 C 0.53272 0.54181 0.7627 0.0
C537 C 0.54968 0.53868 0.79757 0.0
C538 C 0.51061 0.52985 0.76366 0.0
C539 C 0.50509 0.51454 0.80068 0.0
C540 C 0.522 0.5115 0.83632 0.0
C541 C 0.54416 0.52348 0.83419 0.0
C542 C 0.49329 0.53333 0.7246 0.0
C543 C 0.51671 0.49549 0.87657 0.0
H544 H 0.42334 0.50576 0.83312 0.0
H545 H 0.45866 0.44773 0.76436 0.0
H546 H 0.47495 0.53565 0.87006 0.0
H547 H 0.46691 0.54909 0.8169 0.0
H548 H 0.4438 0.54042 0.85657 0.0
H549 H 0.49909 0.44857 0.74489 0.0
H550 H 0.50976 0.4782 0.73138 0.0
H551 H 0.51734 0.46495 0.78496 0.0
H552 H 0.53682 0.55347 0.73418 0.0
H553 H 0.55708 0.52109 0.86143 0.0
H554 H 0.47589 0.53996 0.73767 0.0
H555 H 0.48985 0.51592 0.70751 0.0
H556 H 0.5001 0.54619 0.69875 0.0
H557 H 0.49975 0.50107 0.89313 0.0
H558 H 0.53125 0.49586 0.90245 0.0
H559 H 0.51427 0.47677 0.86476 0.0
C560 C 0.55466 0.96946 0.03367 0.0
C561 C 0.54419 0.94972 0.05565 0.0
C562 C 0.54302 0.99169 0.03174 0.0
C563 C 0.52039 0.99446 0.05278 0.0
C564 C 0.50973 0.97466 0.07527 0.0
C565 C 0.52168 0.95246 0.07616 0.0
C566 C 0.55486 0.01217 1.00677 0.0
C567 C 0.48573 0.97696 0.09849 0.0
C568 C 0.50014 0.05817 0.07965 0.0
C569 C 0.48397 0.06261 0.04402 0.0
C570 C 0.51189 0.03596 0.08333 0.0
C571 C 0.5077 0.01795 0.05011 0.0
C572 C 0.49176 0.02257 0.01358 0.0
C573 C 0.47995 0.04471 0.01124 0.0
C574 C 0.52853 0.03165 0.12309 0.0
C575 C 0.48718 1.0041 0.97689 0.0
H576 H 0.572 0.96752 0.01749 0.0
H577 H 0.51353 0.93736 0.09339 0.0
H578 H 0.54312 0.01844 0.97866 0.0
H579 H 0.55754 0.02751 0.03032 0.0
H580 H 0.57248 0.00708 0.99214 0.0
H581 H 0.48018 0.96012 0.11565 0.0
H582 H 0.48638 0.99152 0.12428 0.0
H583 H 0.47185 0.98189 0.0731 0.0
H584 H 0.50315 0.07183 0.10535 0.0
H585 H 0.46755 0.04805 0.98349 0.0
H586 H 0.5468 0.02764 0.11043 0.0
H587 H 0.52241 0.01582 0.14278 0.0
H588 H 0.52951 0.04728 0.14649 0.0
H589 H 0.50426 0.99914 0.96007 0.0
H590 H 0.47453 0.01061 0.95039 0.0
H591 H 0.47971 0.98758 0.99232 0.0
C592 C 0.02993 0.45625 0.09637 0.0
C593 C 0.04813 0.46304 0.06598 0.0
C594 C 0.00813 0.46871 0.0982 0.0
C595 C 1.00422 0.48828 0.06848 0.0
C596 C 0.02244 0.49513 0.03741 0.0
C597 C 0.04425 0.48254 0.03676 0.0
C598 C 0.98938 0.46107 0.13238 0.0
C599 C 0.01888 0.51577 1.00487 0.0
C600 C 0.93979 0.50829 0.04825 0.0
C601 C 0.9383 0.52856 0.07641 0.0
C602 C 0.96119 0.49509 0.04501 0.0
C603 C 0.9814 0.50209 0.07113 0.0
C604 C 0.97976 0.52223 0.10032 0.0
C605 C 0.95834 0.53529 0.10233 0.0
C606 C 0.9623 0.47386 0.01314 0.0
C607 C 1.0007 0.53007 0.12941 0.0
H608 H 0.03279 0.44128 0.11924 0.0
H609 H 0.05816 0.48781 0.01301 0.0
H610 H 0.98539 0.4761 0.15599 0.0
H611 H 0.97248 0.45648 0.11451 0.0
H612 H 0.99513 0.44537 0.15287 0.0
H613 H 0.0344 0.51827 0.98166 0.0
H614 H 1.00259 0.51274 0.98394 0.0
H615 H 0.01608 0.53257 0.02438 0.0
H616 H 0.92444 0.5031 0.02788 0.0
H617 H 0.9573 0.55086 0.12437 0.0
H618 H 0.96688 0.45745 0.03254 0.0
H619 H 0.97664 0.47665 0.98748 0.0
H620 H 0.94511 0.47083 0.99495 0.0
H621 H 0.00644 0.51516 0.15188 0.0
H622 H 0.99635 0.54581 0.15107 0.0
H623 H 0.01614 0.53472 0.10732 0.0
C624 C 0.52221 0.44567 0.30045 0.0
C625 C 0.49754 0.44098 0.30088 0.0
C626 C 0.53093 0.46925 0.29691 0.0
C627 C 0.51461 0.48858 0.29319 0.0
C628 C 0.48971 0.48395 0.29391 0.0
C629 C 0.48151 0.46029 0.29798 0.0
C630 C 0.55762 0.47348 0.29674 0.0
C631 C 0.4717 0.50397 0.28957 0.0
C632 C 0.53579 0.55192 0.3201 0.0
C633 C 0.54084 0.56091 0.2764 0.0
C634 C 0.52732 0.52841 0.32611 0.0
C635 C 0.52352 0.51361 0.28748 0.0
C636 C 0.52804 0.52277 0.24324 0.0
C637 C 0.53677 0.54623 0.23826 0.0
C638 C 0.52284 0.51928 0.37385 0.0
C639 C 0.52385 0.50772 0.20111 0.0
H640 H 0.53473 0.43091 0.30279 0.0
H641 H 0.4624 0.45692 0.29805 0.0
H642 H 0.56307 0.48171 0.26389 0.0
H643 H 0.56254 0.48623 0.32428 0.0
H644 H 0.56792 0.45667 0.30159 0.0
H645 H 0.45295 0.49741 0.29136 0.0
H646 H 0.47449 0.51734 0.3171 0.0
H647 H 0.47425 0.51337 0.25657 0.0
H648 H 0.53903 0.56305 0.34981 0.0
H649 H 0.54057 0.55302 0.20437 0.0
H650 H 0.53426 0.50341 0.38054 0.0
H651 H 0.50395 0.51343 0.37735 0.0
H652 H 0.52663 0.53304 0.40031 0.0
H653 H 0.53536 0.49156 0.20218 0.0
H654 H 0.52772 0.51767 0.16913 0.0
H655 H 0.50499 0.5015 0.20013 0.0
C656 C 0.47325 0.05589 0.5555 0.0
C657 C 0.45255 0.04185 0.56043 0.0
C658 C 0.49598 0.0454 0.55186 0.0
C659 C 0.49819 0.02019 0.55349 0.0
C660 C 0.47743 1.00587 0.55903 0.0
C661 C 0.45482 0.01687 0.56227 0.0
C662 C 0.5176 0.06133 0.54566 0.0
C663 C 0.47909 0.97893 0.5612 0.0
C664 C 0.55347 0.99225 0.49964 0.0
C665 C 0.56801 0.98793 0.53784 0.0
C666 C 0.53076 1.00272 0.50428 0.0
C667 C 0.52222 0.0089 0.54825 0.0
C668 C 0.53687 1.00479 0.58695 0.0
C669 C 0.55962 0.99446 0.58128 0.0
C670 C 0.51584 0.00708 0.46208 0.0
C671 C 0.52839 0.01108 0.63441 0.0
H672 H 0.47174 0.07522 0.55394 0.0
H673 H 0.43895 1.00589 0.56619 0.0
H674 H 0.53075 0.05803 0.57333 0.0
H675 H 0.52658 0.05704 0.51288 0.0
H676 H 0.51287 0.08065 0.54572 0.0
H677 H 0.4614 0.97037 0.56699 0.0
H678 H 0.48668 0.97191 0.52885 0.0
H679 H 0.49138 0.97352 0.58911 0.0
H680 H 0.55978 0.98729 0.46594 0.0
H681 H 0.57064 0.99106 0.61104 0.0
H682 H 0.51148 0.02639 0.45922 0.0
H683 H 0.49864 0.99723 0.4647 0.0
H684 H 0.5251 1.00134 0.43035 0.0
H685 H 0.52443 0.03051 0.63654 0.0
H686 H 0.54182 0.00655 0.661 0.0
H687 H 0.51152 1.00139 0.64207 0.0
C688 C 0.04525 0.04655 0.77444 0.0
C689 C 0.03669 0.0655 0.80134 0.0
C690 C 0.0335 0.02434 0.77335 0.0
C691 C 0.01287 0.02075 0.80051 0.0
C692 C 1.00413 0.03979 0.82791 0.0
C693 C 0.01601 0.06205 0.82764 0.0
C694 C 0.04311 1.00476 0.74284 0.0
C695 C 0.98237 0.03656 0.8578 0.0
C696 C 0.96977 0.97121 0.76586 0.0
C697 C 0.97665 0.95235 0.79465 0.0
C698 C 0.98141 0.99347 0.76741 0.0
C699 C 1.00016 0.99722 0.79915 0.0
C700 C 0.00717 0.97828 0.82847 0.0
C701 C 0.99549 0.95597 0.82555 0.0
C702 C 0.97373 0.01295 0.73481 0.0
C703 C 0.02686 0.98167 0.86317 0.0
H704 H 0.06114 0.04913 0.75378 0.0
H705 H 0.00943 0.07656 0.84876 0.0
H706 H 0.0479 0.98886 0.76357 0.0
H707 H 0.02912 0.99906 0.71823 0.0
H708 H 0.05917 0.01054 0.72339 0.0
H709 H 0.97824 0.05286 0.87806 0.0
H710 H 0.96658 0.03206 0.83649 0.0
H711 H 0.98524 0.02138 0.88161 0.0
H712 H 0.9553 0.96851 0.74172 0.0
H713 H 1.00073 0.94155 0.84816 0.0
H714 H 0.98914 0.0186 0.71349 0.0
H715 H 0.96768 0.0289 0.75419 0.0
H716 H 0.95899 0.00709 0.7119 0.0
H717 H 0.04389 0.98609 0.84563 0.0
H718 H 0.02968 0.96545 0.88442 0.0
H719 H 0.0225 0.99693 0.88596 0.0
C720 C 0.10923 0.12711 0.66732 0.0
C721 C 0.08447 0.12953 0.67363 0.0
C722 C 0.11864 0.12078 0.62446 0.0
C723 C 0.10287 0.11643 0.5875 0.0
C724 C 0.07794 0.11954 0.59345 0.0
C725 C 0.06908 0.12621 0.63631 0.0
C726 C 0.14536 0.11802 0.6191 0.0
C727 C 0.06047 0.11473 0.5551 0.0
C728 C 0.12275 0.11156 0.46377 0.0
C729 C 0.12364 0.08665 0.45806 0.0
C730 C 0.11714 0.12166 0.50643 0.0
C731 C 0.11194 0.10644 0.5438 0.0
C732 C 0.11341 0.08131 0.53841 0.0
C733 C 0.1194 0.07175 0.49574 0.0
C734 C 0.11612 0.14854 0.51121 0.0
C735 C 0.10765 0.06445 0.57722 0.0
H736 H 0.12122 0.12986 0.69595 0.0
H737 H 0.04992 0.12807 0.64083 0.0
H738 H 0.14982 0.09885 0.61393 0.0
H739 H 0.15167 0.12787 0.5885 0.0
H740 H 0.15531 0.12464 0.64945 0.0
H741 H 0.04176 0.11923 0.56464 0.0
H742 H 0.06542 0.12525 0.52442 0.0
H743 H 0.06118 0.09552 0.54549 0.0
H744 H 0.12622 0.12315 0.43486 0.0
H745 H 0.12007 0.05248 0.49167 0.0
H746 H 0.12662 0.15442 0.54138 0.0
H747 H 0.09733 0.15425 0.51682 0.0
H748 H 0.12309 0.15784 0.48044 0.0
H749 H 0.11871 0.06882 0.60755 0.0
H750 H 0.11075 0.0454 0.56797 0.0
H751 H 0.08861 0.06657 0.58725 0.0
C752 C 0.93065 0.58997 0.72754 0.0
C753 C 0.92007 0.60585 0.69647 0.0
C754 C 0.92086 0.58631 0.77098 0.0
C755 C 0.89994 0.59888 0.78389 0.0
C756 C 0.88901 0.61483 0.75265 0.0
C757 C 0.89918 0.61809 0.70916 0.0
C758 C 0.93295 0.56895 0.80311 0.0
C759 C 0.86671 0.62854 0.76531 0.0
C760 C 0.86608 0.56899 0.88008 0.0
C761 C 0.87498 0.58114 0.91849 0.0
C762 C 0.87305 0.57546 0.83584 0.0
C763 C 0.88935 0.59457 0.82975 0.0
C764 C 0.89741 0.60777 0.86816 0.0
C765 C 0.8901 0.6009 0.91218 0.0
C766 C 0.86399 0.56096 0.79584 0.0
C767 C 0.91472 0.62835 0.86294 0.0
H768 H 0.94677 0.5804 0.71802 0.0
H769 H 0.891 0.63051 0.68543 0.0
H770 H 0.93816 0.57828 0.83508 0.0
H771 H 0.92033 0.55443 0.81257 0.0
H772 H 0.9492 0.56073 0.78791 0.0
H773 H 0.86044 0.64032 0.7372 0.0
H774 H 0.85212 0.6159 0.77425 0.0
H775 H 0.87019 0.63973 0.79593 0.0
H776 H 0.85413 0.55387 0.88457 0.0
H777 H 0.89696 0.61044 0.94167 0.0
H778 H 0.87896 0.5505 0.78096 0.0
H779 H 0.85708 0.57291 0.76866 0.0
H780 H 0.84956 0.54831 0.80585 0.0
H781 H 0.93242 0.6214 0.85203 0.0
H782 H 0.9171 0.63847 0.8953 0.0
H783 H 0.90844 0.64086 0.83608 0.0
C784 C 0.39665 0.38701 0.15873 0.0
C785 C 0.41483 0.40295 0.17185 0.0
C786 C 0.38604 0.38859 0.11526 0.0
C787 C 0.39374 0.4066 0.08457 0.0
C788 C 0.4118 0.42293 0.09803 0.0
C789 C 0.42211 0.42088 0.14139 0.0
C790 C 0.36685 0.37088 0.10195 0.0
C791 C 0.42037 0.44257 0.06652 0.0
C792 C 0.38649 0.40481 0.95594 0.0
C793 C 0.36849 0.42195 0.94958 0.0
C794 C 0.39381 0.39823 1.0001 0.0
C795 C 0.38281 0.40904 0.03853 0.0
C796 C 0.36343 0.42496 0.03219 0.0
C797 C 0.35652 0.43122 0.98781 0.0
C798 C 0.41443 0.38103 1.00553 0.0
C799 C 0.35113 0.4368 0.07219 0.0
H800 H 0.39107 0.37301 0.18202 0.0
H801 H 0.43608 0.43332 0.1513 0.0
H802 H 0.35025 0.38048 0.09222 0.0
H803 H 0.37272 0.36049 0.07165 0.0
H804 H 0.36262 0.35818 0.12998 0.0
H805 H 0.43459 0.45378 0.08226 0.0
H806 H 0.4275 0.43467 0.03452 0.0
H807 H 0.40518 0.45434 0.05702 0.0
H808 H 0.3957 0.39746 0.92654 0.0
H809 H 0.34231 0.44421 0.98316 0.0
H810 H 0.4104 0.36755 0.03223 0.0
H811 H 0.43059 0.39103 0.01664 0.0
H812 H 0.41865 0.37158 0.97313 0.0
H813 H 0.34676 0.42344 0.09893 0.0
H814 H 0.33439 0.44606 0.06187 0.0
H815 H 0.36336 0.4502 0.08771 0.0
C816 C 0.61226 0.90892 0.41663 0.0
C817 C 0.63496 0.90417 0.43499 0.0
C818 C 0.60654 0.90239 0.37172 0.0
C819 C 0.62379 0.89044 0.34464 0.0
C820 C 0.6465 0.88493 0.36333 0.0
C821 C 0.65189 0.89203 0.40823 0.0
C822 C 0.58217 0.90875 0.35295 0.0
C823 C 0.66517 0.87182 0.33572 0.0
C824 C 0.59671 0.85772 0.24381 0.0
C825 C 0.6 0.87433 0.20848 0.0
C826 C 0.60565 0.86209 0.28775 0.0
C827 C 0.61781 0.88381 0.29677 0.0
C828 C 0.62217 0.90016 0.26072 0.0
C829 C 0.61336 0.89512 0.21679 0.0
C830 C 0.60104 0.84398 0.325 0.0
C831 C 0.63488 0.92362 0.26912 0.0
H832 H 0.59911 0.91842 0.43691 0.0
H833 H 0.66946 0.88829 0.4222 0.0
H834 H 0.58418 0.92032 0.32241 0.0
H835 H 0.57264 0.89229 0.34198 0.0
H836 H 0.57089 0.91828 0.37835 0.0
H837 H 0.68156 0.86798 0.35589 0.0
H838 H 0.65775 0.85467 0.32282 0.0
H839 H 0.67025 0.88267 0.30552 0.0
H840 H 0.58662 0.84147 0.23737 0.0
H841 H 0.61588 0.90802 0.18957 0.0
H842 H 0.58786 0.85133 0.34961 0.0
H843 H 0.61773 0.84024 0.34421 0.0
H844 H 0.59391 0.82684 0.31128 0.0
H845 H 0.62363 0.93518 0.29122 0.0
H846 H 0.63868 0.93338 0.2369 0.0
H847 H 0.65199 0.92056 0.2874 0.0
C848 C 0.11943 0.39309 0.7061 0.0
C849 C 0.11622 0.3704 0.68651 0.0
C850 C 0.12457 0.39563 0.75276 0.0
C851 C 0.12648 0.37497 0.78054 0.0
C852 C 0.12458 0.35198 0.76051 0.0
C853 C 0.11948 0.34996 0.71371 0.0
C854 C 0.12671 0.42048 0.77275 0.0
C855 C 0.1266 0.32951 0.78884 0.0
C856 C 0.15269 0.38538 0.89861 0.0
C857 C 0.13192 0.38891 0.92477 0.0
C858 C 0.15126 0.37981 0.85193 0.0
C859 C 0.12853 0.37766 0.83096 0.0
C860 C 0.10754 0.37989 0.85773 0.0
C861 C 0.10948 0.38553 0.90429 0.0
C862 C 0.17406 0.37746 0.82466 0.0
C863 C 0.08295 0.37748 0.83673 0.0
H864 H 0.11705 0.40896 0.68531 0.0
H865 H 0.11696 0.33233 0.69897 0.0
H866 H 0.1116 0.42377 0.79653 0.0
H867 H 0.1435 0.42215 0.79274 0.0
H868 H 0.12653 0.4346 0.74606 0.0
H869 H 0.12885 0.31329 0.76727 0.0
H870 H 0.14191 0.33073 0.81285 0.0
H871 H 0.1101 0.32728 0.80951 0.0
H872 H 0.17013 0.38802 0.91406 0.0
H873 H 0.09337 0.38812 0.92429 0.0
H874 H 0.1762 0.39337 0.80237 0.0
H875 H 0.17333 0.36147 0.80221 0.0
H876 H 0.1901 0.37611 0.84695 0.0
H877 H 0.08 0.39224 0.81201 0.0
H878 H 0.0685 0.37807 0.86274 0.0
H879 H 0.08152 0.3604 0.81757 0.0
C880 C 0.61711 0.61572 0.15476 0.0
C881 C 0.61438 0.63882 0.17279 0.0
C882 C 0.61758 0.61185 0.10742 0.0
C883 C 0.61516 0.63155 0.07733 0.0
C884 C 0.61396 0.65507 0.09528 0.0
C885 C 0.61361 0.65842 0.14281 0.0
C886 C 0.61924 0.58651 0.08967 0.0
C887 C 0.61136 0.67665 0.06471 0.0
C888 C 0.628 0.61794 0.95259 0.0
C889 C 0.6051 0.61183 0.93654 0.0
C890 C 0.6315 0.62546 0.9979 0.0
C891 C 0.61161 0.62712 0.02764 0.0
C892 C 0.5883 0.62257 0.01071 0.0
C893 C 0.58534 0.61484 0.96544 0.0
C894 C 0.65659 0.63041 0.01458 0.0
C895 C 0.56656 0.62468 0.04109 0.0
H896 H 0.61783 0.60049 0.17766 0.0
H897 H 0.61136 0.67636 0.1563 0.0
H898 H 0.60204 0.58141 0.07337 0.0
H899 H 0.6334 0.58514 0.06324 0.0
H900 H 0.6232 0.57344 0.11723 0.0
H901 H 0.61787 0.69316 0.08185 0.0
H902 H 0.62125 0.67437 0.03216 0.0
H903 H 0.59214 0.67919 0.05642 0.0
H904 H 0.64341 0.61561 0.93055 0.0
H905 H 0.56759 0.61033 0.95317 0.0
H906 H 0.66193 0.61647 0.03955 0.0
H907 H 0.65731 0.64792 0.03246 0.0
H908 H 0.66983 0.63052 0.98628 0.0
H909 H 0.56743 0.61096 0.06842 0.0
H910 H 0.54958 0.62222 0.0219 0.0
H911 H 0.56624 0.64248 0.05792 0.0
C912 C 0.39117 0.10927 0.41573 0.0
C913 C 0.39007 0.08447 0.42284 0.0
C914 C 0.39743 0.11862 0.37278 0.0
C915 C 0.40303 0.10276 0.33654 0.0
C916 C 0.4014 0.07775 0.34336 0.0
C917 C 0.3948 0.06894 0.38626 0.0
C918 C 0.39864 0.14541 0.36646 0.0
C919 C 0.40754 0.0602 0.30583 0.0
C920 C 0.40687 0.12119 0.2119 0.0
C921 C 0.43168 0.12347 0.20618 0.0
C922 C 0.39708 0.11564 0.25483 0.0
C923 C 0.41252 0.11196 0.29254 0.0
C924 C 0.43751 0.11488 0.28713 0.0
C925 C 0.44675 0.12073 0.24413 0.0
C926 C 0.3703 0.11301 0.25954 0.0
C927 C 0.45463 0.11079 0.32631 0.0
H928 H 0.38735 0.12135 0.44377 0.0
H929 H 0.39397 0.04974 0.39138 0.0
H930 H 0.41749 0.15095 0.36098 0.0
H931 H 0.38838 0.15079 0.3357 0.0
H932 H 0.39151 0.15526 0.39649 0.0
H933 H 0.40435 0.04133 0.31613 0.0
H934 H 0.39677 0.06401 0.27487 0.0
H935 H 0.42666 0.06219 0.29633 0.0
H936 H 0.39512 0.12352 0.18279 0.0
H937 H 0.46595 0.12251 0.24008 0.0
H938 H 0.36377 0.12351 0.2892 0.0
H939 H 0.36574 0.09397 0.26597 0.0
H940 H 0.36064 0.11899 0.22842 0.0
H941 H 0.44943 0.12185 0.35615 0.0
H942 H 0.47343 0.11512 0.31708 0.0
H943 H 0.4538 0.09176 0.33709 0.0
C944 C 0.9411 0.88073 0.62651 0.0
C945 C 0.92699 0.88405 0.66562 0.0
C946 C 0.93272 0.88725 0.58322 0.0
C947 C 0.90955 0.89715 0.5788 0.0
C948 C 0.89464 0.89924 0.61772 0.0
C949 C 0.90359 0.89275 0.66082 0.0
C950 C 0.94925 0.88487 0.54265 0.0
C951 C 0.86971 0.90946 0.61417 0.0
C952 C 0.90233 0.9421 0.4833 0.0
C953 C 0.89149 0.92833 0.44899 0.0
C954 C 0.90789 0.9322 0.52585 0.0
C955 C 0.90225 0.90794 0.53461 0.0
C956 C 0.89093 0.89397 0.50046 0.0
C957 C 0.88582 0.90431 0.45779 0.0
C958 C 0.92029 0.94763 0.56112 0.0
C959 C 0.88444 0.86812 0.50889 0.0
H960 H 0.95914 0.87381 0.62979 0.0
H961 H 0.89251 0.89517 0.69084 0.0
H962 H 0.94003 0.87568 0.51403 0.0
H963 H 0.95445 0.90295 0.53045 0.0
H964 H 0.9658 0.87478 0.55106 0.0
H965 H 0.85933 0.90692 0.64615 0.0
H966 H 0.87081 0.92891 0.60688 0.0
H967 H 0.85983 0.90098 0.58554 0.0
H968 H 0.90684 0.96066 0.47673 0.0
H969 H 0.87728 0.89364 0.43147 0.0
H970 H 0.93801 0.93986 0.56962 0.0
H971 H 0.90964 0.94809 0.59307 0.0
H972 H 0.923 0.9663 0.54916 0.0
H973 H 0.90091 0.85749 0.51482 0.0
H974 H 0.87451 0.8601 0.47977 0.0
H975 H 0.8733 0.86661 0.54012 0.0
C976 C 0.10803 0.12733 0.96515 0.0
C977 C 0.0831 0.12899 0.96018 0.0
C978 C 0.11834 0.12021 1.00686 0.0
C979 C 0.10336 0.11451 0.04434 0.0
C980 C 0.07825 0.11699 0.03993 0.0
C981 C 0.06846 0.12426 0.99806 0.0
C982 C 0.1452 0.118 0.01035 0.0
C983 C 0.06159 0.11103 0.07893 0.0
C984 C 0.1224 0.06904 0.1334 0.0
C985 C 0.12699 0.08356 0.17155 0.0
C986 C 0.11565 0.07898 0.09136 0.0
C987 C 0.11353 0.10413 0.08706 0.0
C988 C 0.11922 0.11899 0.12478 0.0
C989 C 0.12582 0.10854 0.16665 0.0
C990 C 0.1097 0.06244 0.0521 0.0
C991 C 0.11741 0.14589 0.12144 0.0
H992 H 0.1195 0.13104 0.93616 0.0
H993 H 0.04919 0.12558 0.99474 0.0
H994 H 0.15183 0.12749 0.04116 0.0
H995 H 0.15017 0.09887 0.01401 0.0
H996 H 0.15444 0.12535 0.97984 0.0
H997 H 0.04262 0.11522 0.07085 0.0
H998 H 0.06294 0.09169 0.08711 0.0
H999 H 0.06682 0.12112 0.11002 0.0
H1000 H 0.12336 0.04973 0.13667 0.0
H1001 H 0.12943 0.11992 0.19584 0.0
H1002 H 0.11984 0.06771 0.02115 0.0
H1003 H 0.09037 0.0639 0.04378 0.0
H1004 H 0.11378 0.04343 0.06 0.0
H1005 H 0.12697 0.15243 0.09068 0.0
H1006 H 0.1249 0.155 0.15201 0.0
H1007 H 0.09836 0.15114 0.11782 0.0
C1008 C 0.94018 0.62234 0.37913 0.0
C1009 C 0.92575 0.62695 0.41739 0.0
C1010 C 0.93017 0.61519 0.33729 0.0
C1011 C 0.90504 0.61276 0.33321 0.0
C1012 C 0.89026 0.61838 0.37107 0.0
C1013 C 0.90079 0.62529 0.41278 0.0
C1014 C 0.94664 0.60923 0.29799 0.0
C1015 C 0.86338 0.61627 0.36799 0.0
C1016 C 0.8811 0.60695 0.21156 0.0
C1017 C 0.87917 0.58201 0.20685 0.0
C1018 C 0.88862 0.61735 0.25303 0.0
C1019 C 0.89457 0.60245 0.29051 0.0
C1020 C 0.89203 0.57732 0.28625 0.0
C1021 C 0.88428 0.56746 0.24469 0.0
C1022 C 0.89084 0.64422 0.25635 0.0
C1023 C 0.89833 0.56073 0.32514 0.0
H1024 H 0.95947 0.62359 0.38216 0.0
H1025 H 0.88947 0.6289 0.44202 0.0
H1026 H 0.94519 0.58989 0.28975 0.0
H1027 H 0.94128 0.61931 0.26702 0.0
H1028 H 0.96565 0.6134 0.30577 0.0
H1029 H 0.85431 0.62356 0.39875 0.0
H1030 H 0.85667 0.62588 0.33743 0.0
H1031 H 0.85828 0.59717 0.36414 0.0
H1032 H 0.87712 0.61836 0.18263 0.0
H1033 H 0.88284 0.54818 0.24158 0.0
H1034 H 0.90995 0.64925 0.26021 0.0
H1035 H 0.88128 0.65089 0.28702 0.0
H1036 H 0.88356 0.6534 0.22571 0.0
H1037 H 0.91768 0.56234 0.33314 0.0
H1038 H 0.89434 0.5417 0.31707 0.0
H1039 H 0.8883 0.56582 0.35634 0.0
C1040 C 0.38218 0.44177 0.62451 0.0
C1041 C 0.37819 0.42682 0.66226 0.0
C1042 C 0.39022 0.43252 0.58268 0.0
C1043 C 0.39429 0.40762 0.57813 0.0
C1044 C 0.38946 0.39226 0.61552 0.0
C1045 C 0.38154 0.40205 0.65721 0.0
C1046 C 0.39521 0.44958 0.54382 0.0
C1047 C 0.39338 0.3656 0.61193 0.0
C1048 C 0.4014 0.38563 0.45559 0.0
C1049 C 0.42638 0.38594 0.45045 0.0
C1050 C 0.39065 0.39159 0.49758 0.0
C1051 C 0.4052 0.39813 0.53523 0.0
C1052 C 0.43042 0.39754 0.53068 0.0
C1053 C 0.44067 0.39141 0.48851 0.0
C1054 C 0.3637 0.39179 0.50113 0.0
C1055 C 0.44664 0.40443 0.56984 0.0
H1056 H 0.3796 0.46092 0.62788 0.0
H1057 H 0.37844 0.39034 0.6861 0.0
H1058 H 0.41459 0.44934 0.53556 0.0
H1059 H 0.38543 0.44383 0.51271 0.0
H1060 H 0.38996 0.46827 0.55206 0.0
H1061 H 0.38675 0.35589 0.64251 0.0
H1062 H 0.38421 0.35839 0.58124 0.0
H1063 H 0.41276 0.36186 0.60794 0.0
H1064 H 0.39019 0.38135 0.42649 0.0
H1065 H 0.45998 0.3916 0.48509 0.0
H1066 H 0.35734 0.41049 0.50508 0.0
H1067 H 0.35781 0.38173 0.53179 0.0
H1068 H 0.355 0.38388 0.47051 0.0
H1069 H 0.44405 0.42363 0.57827 0.0
H1070 H 0.46584 0.4015 0.56177 0.0
H1071 H 0.44204 0.39396 0.60078 0.0
C1072 C 0.6266 0.90524 0.71368 0.0
C1073 C 0.63086 0.92989 0.70883 0.0
C1074 C 0.62008 0.89544 0.75617 0.0
C1075 C 0.61768 0.91063 0.79467 0.0
C1076 C 0.62298 0.93532 0.79037 0.0
C1077 C 0.62954 0.94461 0.74762 0.0
C1078 C 0.61477 0.86899 0.7594 0.0
C1079 C 0.62063 0.95219 0.83046 0.0
C1080 C 0.57294 0.89496 0.8876 0.0
C1081 C 0.58783 0.88754 0.92351 0.0
C1082 C 0.58243 0.90194 0.84531 0.0
C1083 C 0.6075 0.90133 0.83833 0.0
C1084 C 0.62263 0.89314 0.87388 0.0
C1085 C 0.61264 0.88645 0.91615 0.0
C1086 C 0.56562 0.91069 0.80853 0.0
C1087 C 0.64942 0.89202 0.86762 0.0
H1088 H 0.62766 0.89369 0.684 0.0
H1089 H 0.63292 0.96364 0.74442 0.0
H1090 H 0.62435 0.86101 0.78886 0.0
H1091 H 0.59534 0.86629 0.76523 0.0
H1092 H 0.61996 0.85921 0.72788 0.0
H1093 H 0.62715 0.9705 0.82239 0.0
H1094 H 0.60157 0.95338 0.84085 0.0
H1095 H 0.63081 0.94529 0.86017 0.0
H1096 H 0.55376 0.89589 0.89281 0.0
H1097 H 0.62429 0.88068 0.94361 0.0
H1098 H 0.56833 0.90029 0.77666 0.0
H1099 H 0.56955 0.92972 0.80061 0.0
H1100 H 0.54653 0.90921 0.81873 0.0
H1101 H 0.65387 0.88179 0.83626 0.0
H1102 H 0.65854 0.88353 0.89717 0.0
H1103 H 0.65666 0.91037 0.86321 0.0
C1104 C 0.0661 0.38755 0.38053 0.0
C1105 C 0.08236 0.38416 0.4165 0.0
C1106 C 0.07398 0.39342 0.33642 0.0
C1107 C 0.09879 0.39587 0.32775 0.0
C1108 C 0.11539 0.39154 0.3634 0.0
C1109 C 0.10698 0.38578 0.40738 0.0
C1110 C 0.05564 0.39791 0.2995 0.0
C1111 C 0.14198 0.39381 0.35548 0.0
C1112 C 0.1167 0.39739 0.20211 0.0
C1113 C 0.11775 0.42211 0.19374 0.0
C1114 C 0.11146 0.3885 0.24597 0.0
C1115 C 0.10705 0.4047 0.28227 0.0
C1116 C 0.10889 0.42964 0.27431 0.0
C1117 C 0.11426 0.43801 0.2303 0.0
C1118 C 0.10983 0.36179 0.25311 0.0
C1119 C 0.10429 0.44757 0.31194 0.0
H1120 H 0.04705 0.38627 0.38705 0.0
H1121 H 0.1197 0.38315 0.43486 0.0
H1122 H 0.05645 0.41694 0.28875 0.0
H1123 H 0.05964 0.38682 0.269 0.0
H1124 H 0.03713 0.39388 0.31101 0.0
H1125 H 0.15258 0.38773 0.38539 0.0
H1126 H 0.14739 0.3832 0.32515 0.0
H1127 H 0.14656 0.41278 0.3484 0.0
H1128 H 0.11942 0.38495 0.17417 0.0
H1129 H 0.11509 0.45714 0.22436 0.0
H1130 H 0.09104 0.35674 0.2607 0.0
H1131 H 0.12083 0.35636 0.2829 0.0
H1132 H 0.11587 0.35157 0.22266 0.0
H1133 H 0.08538 0.44623 0.32326 0.0
H1134 H 0.10778 0.46627 0.30089 0.0
H1135 H 0.11572 0.44359 0.34195 0.0
C1136 C 0.61971 0.63045 0.66648 0.0
C1137 C 0.62123 0.6067 0.6819 0.0
C1138 C 0.6153 0.63567 0.62025 0.0
C1139 C 0.61212 0.61671 0.58865 0.0
C1140 C 0.61455 0.59273 0.60369 0.0
C1141 C 0.61916 0.58803 0.65001 0.0
C1142 C 0.61308 0.66147 0.60559 0.0
C1143 C 0.61119 0.57197 0.57124 0.0
C1144 C 0.5717 0.62664 0.486 0.0
C1145 C 0.58818 0.62893 0.45008 0.0
C1146 C 0.57932 0.62306 0.53114 0.0
C1147 C 0.6041 0.62178 0.54096 0.0
C1148 C 0.6209 0.62461 0.5051 0.0
C1149 C 0.61275 0.62813 0.46005 0.0
C1150 C 0.56076 0.62015 0.56824 0.0
C1151 C 0.64746 0.62346 0.51421 0.0
H1152 H 0.62143 0.64502 0.69073 0.0
H1153 H 0.62031 0.56962 0.66146 0.0
H1154 H 0.62435 0.66491 0.57511 0.0
H1155 H 0.59427 0.66528 0.59586 0.0
H1156 H 0.6184 0.67411 0.6331 0.0
H1157 H 0.61548 0.55451 0.58741 0.0
H1158 H 0.59234 0.57146 0.55933 0.0
H1159 H 0.62266 0.57426 0.54066 0.0
H1160 H 0.55269 0.62729 0.47882 0.0
H1161 H 0.62563 0.62987 0.43259 0.0
H1162 H 0.56374 0.63359 0.59558 0.0
H1163 H 0.56247 0.60218 0.58405 0.0
H1164 H 0.54221 0.62218 0.55516 0.0
H1165 H 0.65245 0.63655 0.54111 0.0
H1166 H 0.65821 0.62721 0.48313 0.0
H1167 H 0.65227 0.60542 0.52709 0.0
C1168 C 0.38592 0.10713 0.71512 0.0
C1169 C 0.38897 0.08246 0.70796 0.0
C1170 C 0.39245 0.11787 0.75687 0.0
C1171 C 0.40244 0.10364 0.79209 0.0
C1172 C 0.4049 0.07865 0.78544 0.0
C1173 C 0.39807 0.0684 0.74367 0.0
C1174 C 0.38931 0.14452 0.76282 0.0
C1175 C 0.41557 0.0628 0.82192 0.0
C1176 C 0.44573 0.12951 0.87917 0.0
C1177 C 0.4318 0.12986 0.91904 0.0
C1178 C 0.43608 0.12202 0.83725 0.0
C1179 C 0.41181 0.1148 0.83487 0.0
C1180 C 0.39731 0.11624 0.87446 0.0
C1181 C 0.40748 0.12368 0.91611 0.0
C1182 C 0.45223 0.12072 0.79596 0.0
C1183 C 0.3713 0.10893 0.87327 0.0
H1184 H 0.37884 0.11814 0.68783 0.0
H1185 H 0.40047 0.04933 0.73866 0.0
H1186 H 0.37955 0.14837 0.79499 0.0
H1187 H 0.4071 0.15324 0.76545 0.0
H1188 H 0.3794 0.15272 0.73391 0.0
H1189 H 0.41531 0.04357 0.81218 0.0
H1190 H 0.43439 0.06818 0.82845 0.0
H1191 H 0.40562 0.06496 0.85443 0.0
H1192 H 0.4645 0.13435 0.88091 0.0
H1193 H 0.39652 0.12398 0.94664 0.0
H1194 H 0.44395 0.13017 0.76665 0.0
H1195 H 0.45466 0.10174 0.78575 0.0
H1196 H 0.47013 0.12867 0.80257 0.0
H1197 H 0.36202 0.11763 0.8442 0.0
H1198 H 0.3618 0.11363 0.90537 0.0
H1199 H 0.36996 0.08929 0.86809 0.0
C1200 C 0.88599 0.90584 0.15973 0.0
C1201 C 0.88388 0.93074 0.16486 0.0
C1202 C 0.89318 0.89571 0.11789 0.0
C1203 C 0.89855 0.91085 0.08046 0.0
C1204 C 0.89567 0.93591 0.08506 0.0
C1205 C 0.88831 0.94551 0.12704 0.0
C1206 C 0.89582 0.86889 0.1142 0.0
C1207 C 0.90128 0.95273 0.04612 0.0
C1208 C 0.94405 0.89231 0.99097 0.0
C1209 C 0.9295 0.8874 0.95301 0.0
C1210 C 0.93412 0.8991 0.03303 0.0
C1211 C 0.90896 0.90089 0.03755 0.0
C1212 C 0.89409 0.89498 0.99999 0.0
C1213 C 0.90453 0.88838 0.95808 0.0
C1214 C 0.95066 0.90533 0.07211 0.0
C1215 C 0.86719 0.89645 1.00359 0.0
H1216 H 0.88251 0.89427 0.18867 0.0
H1217 H 0.88666 0.96476 0.13049 0.0
H1218 H 0.8863 0.86214 0.08352 0.0
H1219 H 0.91501 0.86424 0.11017 0.0
H1220 H 0.88877 0.85948 0.14478 0.0
H1221 H 0.89683 0.97163 0.05438 0.0
H1222 H 0.92062 0.95168 0.03773 0.0
H1223 H 0.8912 0.94739 0.0151 0.0
H1224 H 0.96335 0.89153 0.98757 0.0
H1225 H 0.89314 0.88452 0.92904 0.0
H1226 H 0.94569 0.89503 0.10306 0.0
H1227 H 0.94885 0.92461 0.08058 0.0
H1228 H 0.96972 0.90162 0.06394 0.0
H1229 H 0.86085 0.88664 0.03422 0.0
H1230 H 0.85811 0.88899 0.97296 0.0
H1231 H 0.86171 0.91542 0.00764 0.0
loop_
_geom_bond_atom_site_label_1
_geom_bond_atom_site_label_2
_geom_bond_distance
_geom_bond_site_symmetry_2
_ccdc_geom_bond_type
Mg0 O7 2.141 . S
Mg0 O8 2.048 . S
Mg0 O9 2.048 . S
Mg0 O12 2.141 . S
C1 O2 1.313 . S
C1 O8 1.195 . S
O2 C1 1.313 . S
C3 O4 1.245 . S
C3 O12 1.289 . S
O4 C3 1.245 . S
C5 O6 1.245 . S
C5 O7 1.289 . S
O6 C5 1.245 . S
O7 Mg0 2.141 . S
O7 C5 1.289 . S
O8 Mg0 2.048 . S
O8 C1 1.195 . S
O9 Mg0 2.048 . S
O9 C10 1.195 . S
C10 O9 1.195 . S
C10 O11 1.313 . S
O11 C10 1.313 . S
O12 Mg0 2.141 . S
O12 C3 1.289 . S
Mg13 O20 2.141 . S
Mg13 O21 2.048 . S
Mg13 O22 2.048 . S
Mg13 O25 2.141 . S
C14 O15 1.313 . S
C14 O21 1.195 . S
O15 C14 1.313 . S
C16 O17 1.245 . S
C16 O25 1.289 . S
O17 C16 1.245 . S
C18 O19 1.245 . S
C18 O20 1.289 . S
O19 C18 1.245 . S
O20 Mg13 2.141 . S
O20 C18 1.289 . S
O21 Mg13 2.048 . S
O21 C14 1.195 . S
O22 Mg13 2.048 . S
O22 C23 1.195 . S
C23 O22 1.195 . S
C23 O24 1.313 . S
O24 C23 1.313 . S
O25 Mg13 2.141 . S
O25 C16 1.289 . S
Mg26 O33 2.141 . S
Mg26 O34 2.048 . S
Mg26 O35 2.048 . S
Mg26 O38 2.141 . S
C27 O28 1.313 . S
C27 O34 1.195 . S
O28 C27 1.313 . S
C29 O30 1.245 . S
C29 O38 1.289 . S
O30 C29 1.245 . S
C31 O32 1.245 . S
C31 O33 1.289 . S
O32 C31 1.245 . S
O33 Mg26 2.141 . S
O33 C31 1.289 . S
O34 Mg26 2.048 . S
O34 C27 1.195 . S
O35 Mg26 2.048 . S
O35 C36 1.195 . S
C36 O35 1.195 . S
C36 O37 1.313 . S
O37 C36 1.313 . S
O38 Mg26 2.141 . S
O38 C29 1.289 . S
Mg39 O46 2.141 . S
Mg39 O47 2.048 . S
Mg39 O48 2.048 . S
Mg39 O51 2.141 . S
C40 O41 1.313 . S
C40 O47 1.195 . S
O41 C40 1.313 . S
C42 O43 1.245 . S
C42 O51 1.289 1_556 S
O43 C42 1.245 . S
C44 O45 1.245 . S
C44 O46 1.289 . S
O45 C44 1.245 . S
O46 Mg39 2.141 . S
O46 C44 1.289 . S
O47 Mg39 2.048 . S
O47 C40 1.195 . S
O48 Mg39 2.048 . S
O48 C49 1.195 . S
C49 O48 1.195 . S
C49 O50 1.313 . S
O50 C49 1.313 . S
O51 Mg39 2.141 . S
O51 C42 1.289 1_554 S
Mg52 O59 2.141 . S
Mg52 O60 2.048 1_554 S
Mg52 O61 2.048 . S
Mg52 O64 2.141 . S
C53 O54 1.313 . S
C53 O60 1.195 . S
O54 C53 1.313 . S
C55 O56 1.245 . S
C55 O64 1.289 . S
O56 C55 1.245 . S
C57 O58 1.245 . S
C57 O59 1.289 . S
O58 C57 1.245 . S
O59 Mg52 2.141 . S
O59 C57 1.289 . S
O60 Mg52 2.048 1_556 S
O60 C53 1.195 . S
O61 Mg52 2.048 . S
O61 C62 1.195 . S
C62 O61 1.195 . S
C62 O63 1.313 . S
O63 C62 1.313 . S
O64 Mg52 2.141 . S
O64 C55 1.289 . S
Mg65 O72 2.141 . S
Mg65 O73 2.048 . S
Mg65 O74 2.048 . S
Mg65 O77 2.141 . S
C66 O67 1.313 . S
C66 O73 1.195 . S
O67 C66 1.313 . S
C68 O69 1.245 . S
C68 O77 1.289 . S
O69 C68 1.245 . S
C70 O71 1.245 . S
C70 O72 1.289 . S
O71 C70 1.245 . S
O72 Mg65 2.141 . S
O72 C70 1.289 . S
O73 Mg65 2.048 . S
O73 C66 1.195 . S
O74 Mg65 2.048 . S
O74 C75 1.195 . S
C75 O74 1.195 . S
C75 O76 1.313 . S
O76 C75 1.313 . S
O77 Mg65 2.141 . S
O77 C68 1.289 . S
Mg78 O85 2.141 . S
Mg78 O86 2.048 . S
Mg78 O87 2.048 . S
Mg78 O90 2.141 . S
C79 O80 1.313 . S
C79 O86 1.195 . S
O80 C79 1.313 . S
C81 O82 1.245 . S
C81 O90 1.289 . S
O82 C81 1.245 . S
C83 O84 1.245 . S
C83 O85 1.289 . S
O84 C83 1.245 . S
O85 Mg78 2.141 . S
O85 C83 1.289 . S
O86 Mg78 2.048 . S
O86 C79 1.195 . S
O87 Mg78 2.048 . S
O87 C88 1.195 . S
C88 O87 1.195 . S
C88 O89 1.313 . S
O89 C88 1.313 . S
O90 Mg78 2.141 . S
O90 C81 1.289 . S
Mg91 O98 2.141 . S
Mg91 O99 2.048 . S
Mg91 O100 2.048 . S
Mg91 O103 2.141 . S
C92 O93 1.313 . S
C92 O99 1.195 . S
O93 C92 1.313 . S
C94 O95 1.245 . S
C94 O103 1.289 . S
O95 C94 1.245 . S
C96 O97 1.245 . S
C96 O98 1.289 . S
O97 C96 1.245 . S
O98 Mg91 2.141 . S
O98 C96 1.289 . S
O99 Mg91 2.048 . S
O99 C92 1.195 . S
O100 Mg91 2.048 . S
O100 C101 1.195 . S
C101 O100 1.195 . S
C101 O102 1.313 . S
O102 C101 1.313 . S
O103 Mg91 2.141 . S
O103 C94 1.289 . S
Mg104 O111 2.141 . S
Mg104 O112 2.048 . S
Mg104 O113 2.048 . S
Mg104 O116 2.141 . S
C105 O106 1.313 . S
C105 O112 1.195 . S
O106 C105 1.313 . S
C107 O108 1.245 . S
C107 O116 1.289 . S
O108 C107 1.245 . S
C109 O110 1.245 . S
C109 O111 1.289 . S
O110 C109 1.245 . S
O111 Mg104 2.141 . S
O111 C109 1.289 . S
O112 Mg104 2.048 . S
O112 C105 1.195 . S
O113 Mg104 2.048 . S
O113 C114 1.195 . S
C114 O113 1.195 . S
C114 O115 1.313 . S
O115 C114 1.313 . S
O116 Mg104 2.141 . S
O116 C107 1.289 . S
Mg117 O124 2.141 . S
Mg117 O125 2.048 . S
Mg117 O126 2.048 . S
Mg117 O129 2.141 . S
C118 O119 1.313 . S
C118 O125 1.195 . S
O119 C118 1.313 . S
C120 O121 1.245 . S
C120 O129 1.289 1_556 S
O121 C120 1.245 . S
C122 O123 1.245 . S
C122 O124 1.289 . S
O123 C122 1.245 . S
O124 Mg117 2.141 . S
O124 C122 1.289 . S
O125 Mg117 2.048 . S
O125 C118 1.195 . S
O126 Mg117 2.048 . S
O126 C127 1.195 . S
C127 O126 1.195 . S
C127 O128 1.313 . S
O128 C127 1.313 . S
O129 Mg117 2.141 . S
O129 C120 1.289 1_554 S
Mg130 O137 2.141 . S
Mg130 O138 2.048 . S
Mg130 O139 2.048 . S
Mg130 O142 2.141 . S
C131 O132 1.313 . S
C131 O138 1.195 . S
O132 C131 1.313 . S
C133 O134 1.245 . S
C133 O142 1.289 . S
O134 C133 1.245 . S
C135 O136 1.245 . S
C135 O137 1.289 . S
O136 C135 1.245 . S
O137 Mg130 2.141 . S
O137 C135 1.289 . S
O138 Mg130 2.048 . S
O138 C131 1.195 . S
O139 Mg130 2.048 . S
O139 C140 1.195 . S
C140 O139 1.195 . S
C140 O141 1.313 . S
O141 C140 1.313 . S
O142 Mg130 2.141 . S
O142 C133 1.289 . S
Mg143 O150 2.141 . S
Mg143 O151 2.048 . S
Mg143 O152 2.048 . S
Mg143 O155 2.141 . S
C144 O145 1.313 . S
C144 O151 1.195 . S
O145 C144 1.313 . S
C146 O147 1.245 . S
C146 O155 1.289 . S
O147 C146 1.245 . S
C148 O149 1.245 . S
C148 O150 1.289 . S
O149 C148 1.245 . S
O150 Mg143 2.141 . S
O150 C148 1.289 . S
O151 Mg143 2.048 . S
O151 C144 1.195 . S
O152 Mg143 2.048 . S
O152 C153 1.195 . S
C153 O152 1.195 . S
C153 O154 1.313 . S
O154 C153 1.313 . S
O155 Mg143 2.141 . S
O155 C146 1.289 . S
Mg156 O163 2.141 . S
Mg156 O164 2.048 . S
Mg156 O165 2.048 . S
Mg156 O168 2.141 . S
C157 O158 1.313 . S
C157 O164 1.195 . S
O158 C157 1.313 . S
C159 O160 1.245 . S
C159 O168 1.289 . S
O160 C159 1.245 . S
C161 O162 1.245 . S
C161 O163 1.289 . S
O162 C161 1.245 . S
O163 Mg156 2.141 . S
O163 C161 1.289 . S
O164 Mg156 2.048 . S
O164 C157 1.195 . S
O165 Mg156 2.048 . S
O165 C166 1.195 . S
C166 O165 1.195 . S
C166 O167 1.313 . S
O167 C166 1.313 . S
O168 Mg156 2.141 . S
O168 C159 1.289 . S
Mg169 O176 2.141 . S
Mg169 O177 2.048 . S
Mg169 O178 2.048 . S
Mg169 O181 2.141 . S
C170 O171 1.313 . S
C170 O177 1.195 . S
O171 C170 1.313 . S
C172 O173 1.245 . S
C172 O181 1.289 . S
O173 C172 1.245 . S
C174 O175 1.245 . S
C174 O176 1.289 . S
O175 C174 1.245 . S
O176 Mg169 2.141 . S
O176 C174 1.289 . S
O177 Mg169 2.048 . S
O177 C170 1.195 . S
O178 Mg169 2.048 . S
O178 C179 1.195 . S
C179 O178 1.195 . S
C179 O180 1.313 . S
O180 C179 1.313 . S
O181 Mg169 2.141 . S
O181 C172 1.289 . S
Mg182 O189 2.141 . S
Mg182 O190 2.048 1_554 S
Mg182 O191 2.048 . S
Mg182 O194 2.141 . S
C183 O184 1.313 . S
C183 O190 1.195 . S
O184 C183 1.313 . S
C185 O186 1.245 . S
C185 O194 1.289 . S
O186 C185 1.245 . S
C187 O188 1.245 . S
C187 O189 1.289 . S
O188 C187 1.245 . S
O189 Mg182 2.141 . S
O189 C187 1.289 . S
O190 Mg182 2.048 1_556 S
O190 C183 1.195 . S
O191 Mg182 2.048 . S
O191 C192 1.195 . S
C192 O191 1.195 . S
C192 O193 1.313 . S
O193 C192 1.313 . S
O194 Mg182 2.141 . S
O194 C185 1.289 . S
Mg195 O202 2.141 . S
Mg195 O203 2.048 . S
Mg195 O204 2.048 . S
Mg195 O207 2.141 . S
C196 O197 1.313 . S
C196 O203 1.195 . S
O197 C196 1.313 . S
C198 O199 1.245 . S
C198 O207 1.289 . S
O199 C198 1.245 . S
C200 O201 1.245 . S
C200 O202 1.289 . S
O201 C200 1.245 . S
O202 Mg195 2.141 . S
O202 C200 1.289 . S
O203 Mg195 2.048 . S
O203 C196 1.195 . S
O204 Mg195 2.048 . S
O204 C205 1.195 . S
C205 O204 1.195 . S
C205 O206 1.313 . S
O206 C205 1.313 . S
O207 Mg195 2.141 . S
O207 C198 1.289 . S
C208 C209 1.391 . S
C208 C210 1.394 . S
C208 H224 0.931 . S
C209 C208 1.391 . S
C209 C213 1.376 . S
C210 C208 1.394 . S
C210 C211 1.369 . S
C210 C214 1.531 . S
C211 C210 1.369 . S
C211 C212 1.410 . S
C211 C219 1.503 . S
C212 C211 1.410 . S
C212 C213 1.392 . S
C212 C215 1.511 . S
C213 C209 1.376 . S
C213 C212 1.392 . S
C213 H225 0.929 . S
C214 C210 1.531 . S
C214 H226 0.960 . S
C214 H227 0.962 . S
C214 H228 0.960 . S
C215 C212 1.511 . S
C215 H229 0.961 . S
C215 H230 0.961 . S
C215 H231 0.961 . S
C216 C217 1.370 . S
C216 C218 1.363 . S
C216 H232 0.931 . S
C217 C216 1.370 . S
C217 C221 1.408 . S
C218 C216 1.363 . S
C218 C219 1.370 . S
C218 C222 1.524 . S
C219 C211 1.503 . S
C219 C218 1.370 . S
C219 C220 1.403 . S
C220 C219 1.403 . S
C220 C221 1.404 . S
C220 C223 1.539 . S
C221 C217 1.408 . S
C221 C220 1.404 . S
C221 H233 0.930 . S
C222 C218 1.524 . S
C222 H234 0.956 . S
C222 H235 0.961 . S
C222 H236 0.961 . S
C223 C220 1.539 . S
C223 H237 0.958 . S
C223 H238 0.961 . S
C223 H239 0.960 . S
H224 C208 0.931 . S
H225 C213 0.929 . S
H226 C214 0.960 . S
H227 C214 0.962 . S
H228 C214 0.960 . S
H229 C215 0.961 . S
H230 C215 0.961 . S
H231 C215 0.961 . S
H232 C216 0.931 . S
H233 C221 0.930 . S
H234 C222 0.956 . S
H235 C222 0.961 . S
H236 C222 0.961 . S
H237 C223 0.958 . S
H238 C223 0.961 . S
H239 C223 0.960 . S
C240 C241 1.391 . S
C240 C242 1.394 . S
C240 H256 0.931 . S
C241 C240 1.391 . S
C241 C245 1.376 . S
C242 C240 1.394 . S
C242 C243 1.369 . S
C242 C246 1.531 . S
C243 C242 1.369 . S
C243 C244 1.410 . S
C243 C251 1.503 . S
C244 C243 1.410 . S
C244 C245 1.392 . S
C244 C247 1.511 . S
C245 C241 1.376 . S
C245 C244 1.392 . S
C245 H257 0.929 . S
C246 C242 1.531 . S
C246 H258 0.960 . S
C246 H259 0.962 . S
C246 H260 0.960 . S
C247 C244 1.511 . S
C247 H261 0.961 . S
C247 H262 0.961 . S
C247 H263 0.961 . S
C248 C249 1.370 . S
C248 C250 1.363 . S
C248 H264 0.931 . S
C249 C248 1.370 . S
C249 C253 1.408 . S
C250 C248 1.363 . S
C250 C251 1.370 . S
C250 C254 1.524 . S
C251 C243 1.503 . S
C251 C250 1.370 . S
C251 C252 1.403 . S
C252 C251 1.403 . S
C252 C253 1.404 . S
C252 C255 1.539 . S
C253 C249 1.408 . S
C253 C252 1.404 . S
C253 H265 0.930 . S
C254 C250 1.524 . S
C254 H266 0.956 . S
C254 H267 0.961 . S
C254 H268 0.961 . S
C255 C252 1.539 . S
C255 H269 0.958 . S
C255 H270 0.961 . S
C255 H271 0.960 . S
H256 C240 0.931 . S
H257 C245 0.929 . S
H258 C246 0.960 . S
H259 C246 0.962 . S
H260 C246 0.960 . S
H261 C247 0.961 . S
H262 C247 0.961 . S
H263 C247 0.961 . S
H264 C248 0.931 . S
H265 C253 0.930 . S
H266 C254 0.956 . S
H267 C254 0.961 . S
H268 C254 0.961 . S
H269 C255 0.958 . S
H270 C255 0.961 . S
H271 C255 0.960 . S
C272 C273 1.391 . S
C272 C274 1.394 . S
C272 H288 0.931 . S
C273 C272 1.391 . S
C273 C277 1.376 . S
C274 C272 1.394 . S
C274 C275 1.369 . S
C274 C278 1.531 . S
C275 C274 1.369 . S
C275 C276 1.410 . S
C275 C283 1.503 . S
C276 C275 1.410 . S
C276 C277 1.392 . S
C276 C279 1.511 . S
C277 C273 1.376 . S
C277 C276 1.392 . S
C277 H289 0.929 . S
C278 C274 1.531 . S
C278 H290 0.960 . S
C278 H291 0.962 . S
C278 H292 0.960 . S
C279 C276 1.511 . S
C279 H293 0.961 . S
C279 H294 0.961 . S
C279 H295 0.961 1_556 S
C280 C281 1.370 . S
C280 C282 1.363 . S
C280 H296 0.931 . S
C281 C280 1.370 . S
C281 C285 1.408 . S
C282 C280 1.363 . S
C282 C283 1.370 . S
C282 C286 1.524 . S
C283 C275 1.503 . S
C283 C282 1.370 . S
C283 C284 1.403 . S
C284 C283 1.403 . S
C284 C285 1.404 . S
C284 C287 1.539 . S
C285 C281 1.408 . S
C285 C284 1.404 . S
C285 H297 0.930 1_556 S
C286 C282 1.524 . S
C286 H298 0.956 . S
C286 H299 0.961 . S
C286 H300 0.961 . S
C287 C284 1.539 . S
C287 H301 0.958 . S
C287 H302 0.961 1_556 S
C287 H303 0.960 . S
H288 C272 0.931 . S
H289 C277 0.929 . S
H290 C278 0.960 . S
H291 C278 0.962 . S
H292 C278 0.960 . S
H293 C279 0.961 . S
H294 C279 0.961 . S
H295 C279 0.961 1_554 S
H296 C280 0.931 . S
H297 C285 0.930 1_554 S
H298 C286 0.956 . S
H299 C286 0.961 . S
H300 C286 0.961 . S
H301 C287 0.958 . S
H302 C287 0.961 1_554 S
H303 C287 0.960 . S
C304 C305 1.391 . S
C304 C306 1.394 . S
C304 H320 0.931 . S
C305 C304 1.391 . S
C305 C309 1.376 . S
C306 C304 1.394 . S
C306 C307 1.369 . S
C306 C310 1.531 . S
C307 C306 1.369 . S
C307 C308 1.410 . S
C307 C315 1.503 . S
C308 C307 1.410 . S
C308 C309 1.392 . S
C308 C311 1.511 . S
C309 C305 1.376 . S
C309 C308 1.392 . S
C309 H321 0.929 . S
C310 C306 1.531 . S
C310 H322 0.960 . S
C310 H323 0.962 . S
C310 H324 0.960 . S
C311 C308 1.511 . S
C311 H325 0.961 . S
C311 H326 0.961 . S
C311 H327 0.961 . S
C312 C313 1.370 . S
C312 C314 1.363 . S
C312 H328 0.931 . S
C313 C312 1.370 . S
C313 C317 1.408 . S
C314 C312 1.363 . S
C314 C315 1.370 . S
C314 C318 1.524 . S
C315 C307 1.503 . S
C315 C314 1.370 . S
C315 C316 1.403 . S
C316 C315 1.403 . S
C316 C317 1.404 . S
C316 C319 1.539 . S
C317 C313 1.408 . S
C317 C316 1.404 . S
C317 H329 0.930 . S
C318 C314 1.524 . S
C318 H330 0.956 . S
C318 H331 0.961 . S
C318 H332 0.961 . S
C319 C316 1.539 . S
C319 H333 0.958 . S
C319 H334 0.961 . S
C319 H335 0.960 . S
H320 C304 0.931 . S
H321 C309 0.929 . S
H322 C310 0.960 . S
H323 C310 0.962 . S
H324 C310 0.960 . S
H325 C311 0.961 . S
H326 C311 0.961 . S
H327 C311 0.961 . S
H328 C312 0.931 . S
H329 C317 0.930 . S
H330 C318 0.956 . S
H331 C318 0.961 . S
H332 C318 0.961 . S
H333 C319 0.958 . S
H334 C319 0.961 . S
H335 C319 0.960 . S
C336 C337 1.391 . S
C336 C338 1.394 . S
C336 H352 0.931 . S
C337 C336 1.391 . S
C337 C341 1.376 . S
C338 C336 1.394 . S
C338 C339 1.369 . S
C338 C342 1.531 . S
C339 C338 1.369 . S
C339 C340 1.410 . S
C339 C347 1.503 . S
C340 C339 1.410 . S
C340 C341 1.392 . S
C340 C343 1.511 . S
C341 C337 1.376 . S
C341 C340 1.392 . S
C341 H353 0.929 . S
C342 C338 1.531 . S
C342 H354 0.960 . S
C342 H355 0.962 . S
C342 H356 0.960 . S
C343 C340 1.511 . S
C343 H357 0.961 . S
C343 H358 0.961 . S
C343 H359 0.961 . S
C344 C345 1.370 . S
C344 C346 1.363 . S
C344 H360 0.931 . S
C345 C344 1.370 . S
C345 C349 1.408 1_556 S
C346 C344 1.363 . S
C346 C347 1.370 . S
C346 C350 1.524 . S
C347 C339 1.503 . S
C347 C346 1.370 . S
C347 C348 1.403 . S
C348 C347 1.403 . S
C348 C349 1.404 1_556 S
C348 C351 1.539 1_556 S
C349 C345 1.408 1_554 S
C349 C348 1.404 1_554 S
C349 H361 0.930 . S
C350 C346 1.524 . S
C350 H362 0.956 . S
C350 H363 0.961 . S
C350 H364 0.961 . S
C351 C348 1.539 1_554 S
C351 H365 0.958 . S
C351 H366 0.961 . S
C351 H367 0.960 . S
H352 C336 0.931 . S
H353 C341 0.929 . S
H354 C342 0.960 . S
H355 C342 0.962 . S
H356 C342 0.960 . S
H357 C343 0.961 . S
H358 C343 0.961 . S
H359 C343 0.961 . S
H360 C344 0.931 . S
H361 C349 0.930 . S
H362 C350 0.956 . S
H363 C350 0.961 . S
H364 C350 0.961 . S
H365 C351 0.958 . S
H366 C351 0.961 . S
H367 C351 0.960 . S
C368 C369 1.391 . S
C368 C370 1.394 . S
C368 H384 0.931 . S
C369 C368 1.391 . S
C369 C373 1.376 . S
C370 C368 1.394 . S
C370 C371 1.369 . S
C370 C374 1.531 . S
C371 C370 1.369 . S
C371 C372 1.410 . S
C371 C379 1.503 . S
C372 C371 1.410 . S
C372 C373 1.392 . S
C372 C375 1.511 . S
C373 C369 1.376 . S
C373 C372 1.392 . S
C373 H385 0.929 . S
C374 C370 1.531 . S
C374 H386 0.960 . S
C374 H387 0.962 . S
C374 H388 0.960 . S
C375 C372 1.511 . S
C375 H389 0.961 . S
C375 H390 0.961 . S
C375 H391 0.961 . S
C376 C377 1.370 . S
C376 C378 1.363 . S
C376 H392 0.931 . S
C377 C376 1.370 . S
C377 C381 1.408 . S
C378 C376 1.363 . S
C378 C379 1.370 . S
C378 C382 1.524 . S
C379 C371 1.503 . S
C379 C378 1.370 . S
C379 C380 1.403 . S
C380 C379 1.403 . S
C380 C381 1.404 . S
C380 C383 1.539 . S
C381 C377 1.408 . S
C381 C380 1.404 . S
C381 H393 0.930 . S
C382 C378 1.524 . S
C382 H394 0.956 . S
C382 H395 0.961 . S
C382 H396 0.961 . S
C383 C380 1.539 . S
C383 H397 0.958 . S
C383 H398 0.961 . S
C383 H399 0.960 . S
H384 C368 0.931 . S
H385 C373 0.929 . S
H386 C374 0.960 . S
H387 C374 0.962 . S
H388 C374 0.960 . S
H389 C375 0.961 . S
H390 C375 0.961 . S
H391 C375 0.961 . S
H392 C376 0.931 . S
H393 C381 0.930 . S
H394 C382 0.956 . S
H395 C382 0.961 . S
H396 C382 0.961 . S
H397 C383 0.958 . S
H398 C383 0.961 . S
H399 C383 0.960 . S
C400 C401 1.391 . S
C400 C402 1.394 . S
C400 H416 0.931 . S
C401 C400 1.391 . S
C401 C405 1.376 . S
C402 C400 1.394 . S
C402 C403 1.369 . S
C402 C406 1.531 . S
C403 C402 1.369 . S
C403 C404 1.410 . S
C403 C411 1.503 . S
C404 C403 1.410 . S
C404 C405 1.392 . S
C404 C407 1.511 . S
C405 C401 1.376 . S
C405 C404 1.392 . S
C405 H417 0.929 . S
C406 C402 1.531 . S
C406 H418 0.960 . S
C406 H419 0.962 . S
C406 H420 0.960 . S
C407 C404 1.511 . S
C407 H421 0.961 . S
C407 H422 0.961 . S
C407 H423 0.961 . S
C408 C409 1.370 . S
C408 C410 1.363 . S
C408 H424 0.931 . S
C409 C408 1.370 . S
C409 C413 1.408 . S
C410 C408 1.363 . S
C410 C411 1.370 . S
C410 C414 1.524 . S
C411 C403 1.503 . S
C411 C410 1.370 . S
C411 C412 1.403 . S
C412 C411 1.403 . S
C412 C413 1.404 . S
C412 C415 1.539 . S
C413 C409 1.408 . S
C413 C412 1.404 . S
C413 H425 0.930 . S
C414 C410 1.524 . S
C414 H426 0.956 . S
C414 H427 0.961 . S
C414 H428 0.961 . S
C415 C412 1.539 . S
C415 H429 0.958 . S
C415 H430 0.961 . S
C415 H431 0.960 . S
H416 C400 0.931 . S
H417 C405 0.929 . S
H418 C406 0.960 . S
H419 C406 0.962 . S
H420 C406 0.960 . S
H421 C407 0.961 . S
H422 C407 0.961 . S
H423 C407 0.961 . S
H424 C408 0.931 . S
H425 C413 0.930 . S
H426 C414 0.956 . S
H427 C414 0.961 . S
H428 C414 0.961 . S
H429 C415 0.958 . S
H430 C415 0.961 . S
H431 C415 0.960 . S
C432 C433 1.391 . S
C432 C434 1.394 . S
C432 H448 0.931 . S
C433 C432 1.391 . S
C433 C437 1.376 . S
C434 C432 1.394 . S
C434 C435 1.369 . S
C434 C438 1.531 . S
C435 C434 1.369 . S
C435 C436 1.410 . S
C435 C443 1.503 . S
C436 C435 1.410 . S
C436 C437 1.392 . S
C436 C439 1.511 . S
C437 C433 1.376 . S
C437 C436 1.392 . S
C437 H449 0.929 . S
C438 C434 1.531 . S
C438 H450 0.960 . S
C438 H451 0.962 . S
C438 H452 0.960 . S
C439 C436 1.511 . S
C439 H453 0.961 . S
C439 H454 0.961 . S
C439 H455 0.961 . S
C440 C441 1.370 . S
C440 C442 1.363 . S
C440 H456 0.931 . S
C441 C440 1.370 . S
C441 C445 1.408 . S
C442 C440 1.363 . S
C442 C443 1.370 . S
C442 C446 1.524 . S
C443 C435 1.503 . S
C443 C442 1.370 . S
C443 C444 1.403 . S
C444 C443 1.403 . S
C444 C445 1.404 . S
C444 C447 1.539 . S
C445 C441 1.408 . S
C445 C444 1.404 . S
C445 H457 0.930 . S
C446 C442 1.524 . S
C446 H458 0.956 . S
C446 H459 0.961 . S
C446 H460 0.961 . S
C447 C444 1.539 . S
C447 H461 0.958 . S
C447 H462 0.961 . S
C447 H463 0.960 . S
H448 C432 0.931 . S
H449 C437 0.929 . S
H450 C438 0.960 . S
H451 C438 0.962 . S
H452 C438 0.960 . S
H453 C439 0.961 . S
H454 C439 0.961 . S
H455 C439 0.961 . S
H456 C440 0.931 . S
H457 C445 0.930 . S
H458 C446 0.956 . S
H459 C446 0.961 . S
H460 C446 0.961 . S
H461 C447 0.958 . S
H462 C447 0.961 . S
H463 C447 0.960 . S
C464 C465 1.391 . S
C464 C466 1.394 . S
C464 H480 0.931 . S
C465 C464 1.391 . S
C465 C469 1.376 . S
C466 C464 1.394 . S
C466 C467 1.369 . S
C466 C470 1.531 1_545 S
C467 C466 1.369 . S
C467 C468 1.410 . S
C467 C475 1.503 1_445 S
C468 C467 1.410 . S
C468 C469 1.392 . S
C468 C471 1.511 1_455 S
C469 C465 1.376 . S
C469 C468 1.392 . S
C469 H481 0.929 . S
C470 C466 1.531 1_565 S
C470 H482 0.960 . S
C470 H483 0.962 . S
C470 H484 0.960 . S
C471 C468 1.511 1_655 S
C471 H485 0.961 . S
C471 H486 0.961 . S
C471 H487 0.961 . S
C472 C473 1.370 . S
C472 C474 1.363 . S
C472 H488 0.931 . S
C473 C472 1.370 . S
C473 C477 1.408 . S
C474 C472 1.363 . S
C474 C475 1.370 . S
C474 C478 1.524 1_565 S
C475 C467 1.503 1_665 S
C475 C474 1.370 . S
C475 C476 1.403 . S
C476 C475 1.403 . S
C476 C477 1.404 . S
C476 C479 1.539 1_655 S
C477 C473 1.408 . S
C477 C476 1.404 . S
C477 H489 0.930 . S
C478 C474 1.524 1_545 S
C478 H490 0.956 . S
C478 H491 0.961 . S
C478 H492 0.961 . S
C479 C476 1.539 1_455 S
C479 H493 0.958 . S
C479 H494 0.961 . S
C479 H495 0.960 . S
H480 C464 0.931 . S
H481 C469 0.929 . S
H482 C470 0.960 . S
H483 C470 0.962 . S
H484 C470 0.960 . S
H485 C471 0.961 . S
H486 C471 0.961 . S
H487 C471 0.961 . S
H488 C472 0.931 . S
H489 C477 0.930 . S
H490 C478 0.956 . S
H491 C478 0.961 . S
H492 C478 0.961 . S
H493 C479 0.958 . S
H494 C479 0.961 . S
H495 C479 0.960 . S
C496 C497 1.391 . S
C496 C498 1.394 . S
C496 H512 0.931 . S
C497 C496 1.391 . S
C497 C501 1.376 . S
C498 C496 1.394 . S
C498 C499 1.369 . S
C498 C502 1.531 1_655 S
C499 C498 1.369 . S
C499 C500 1.410 . S
C499 C507 1.503 1_655 S
C500 C499 1.410 . S
C500 C501 1.392 . S
C500 C503 1.511 . S
C501 C497 1.376 . S
C501 C500 1.392 . S
C501 H513 0.929 . S
C502 C498 1.531 1_455 S
C502 H514 0.960 . S
C502 H515 0.962 . S
C502 H516 0.960 . S
C503 C500 1.511 . S
C503 H517 0.961 . S
C503 H518 0.961 . S
C503 H519 0.961 . S
C504 C505 1.370 . S
C504 C506 1.363 . S
C504 H520 0.931 . S
C505 C504 1.370 . S
C505 C509 1.408 . S
C506 C504 1.363 . S
C506 C507 1.370 . S
C506 C510 1.524 . S
C507 C499 1.503 1_455 S
C507 C506 1.370 . S
C507 C508 1.403 . S
C508 C507 1.403 . S
C508 C509 1.404 . S
C508 C511 1.539 . S
C509 C505 1.408 . S
C509 C508 1.404 . S
C509 H521 0.930 . S
C510 C506 1.524 . S
C510 H522 0.956 . S
C510 H523 0.961 1_455 S
C510 H524 0.961 . S
C511 C508 1.539 . S
C511 H525 0.958 . S
C511 H526 0.961 . S
C511 H527 0.960 1_455 S
H512 C496 0.931 . S
H513 C501 0.929 . S
H514 C502 0.960 . S
H515 C502 0.962 . S
H516 C502 0.960 . S
H517 C503 0.961 . S
H518 C503 0.961 . S
H519 C503 0.961 . S
H520 C504 0.931 . S
H521 C509 0.930 . S
H522 C510 0.956 . S
H523 C510 0.961 1_655 S
H524 C510 0.961 . S
H525 C511 0.958 . S
H526 C511 0.961 . S
H527 C511 0.960 1_655 S
C528 C529 1.391 . S
C528 C530 1.394 . S
C528 H544 0.931 . S
C529 C528 1.391 . S
C529 C533 1.376 . S
C530 C528 1.394 . S
C530 C531 1.369 . S
C530 C534 1.531 . S
C531 C530 1.369 . S
C531 C532 1.410 . S
C531 C539 1.503 . S
C532 C531 1.410 . S
C532 C533 1.392 . S
C532 C535 1.511 . S
C533 C529 1.376 . S
C533 C532 1.392 . S
C533 H545 0.929 . S
C534 C530 1.531 . S
C534 H546 0.960 . S
C534 H547 0.962 . S
C534 H548 0.960 . S
C535 C532 1.511 . S
C535 H549 0.961 . S
C535 H550 0.961 . S
C535 H551 0.961 . S
C536 C537 1.370 . S
C536 C538 1.363 . S
C536 H552 0.931 . S
C537 C536 1.370 . S
C537 C541 1.408 . S
C538 C536 1.363 . S
C538 C539 1.370 . S
C538 C542 1.524 . S
C539 C531 1.503 . S
C539 C538 1.370 . S
C539 C540 1.403 . S
C540 C539 1.403 . S
C540 C541 1.404 . S
C540 C543 1.539 . S
C541 C537 1.408 . S
C541 C540 1.404 . S
C541 H553 0.930 . S
C542 C538 1.524 . S
C542 H554 0.956 . S
C542 H555 0.961 . S
C542 H556 0.961 . S
C543 C540 1.539 . S
C543 H557 0.958 . S
C543 H558 0.961 . S
C543 H559 0.960 . S
H544 C528 0.931 . S
H545 C533 0.929 . S
H546 C534 0.960 . S
H547 C534 0.962 . S
H548 C534 0.960 . S
H549 C535 0.961 . S
H550 C535 0.961 . S
H551 C535 0.961 . S
H552 C536 0.931 . S
H553 C541 0.930 . S
H554 C542 0.956 . S
H555 C542 0.961 . S
H556 C542 0.961 . S
H557 C543 0.958 . S
H558 C543 0.961 . S
H559 C543 0.960 . S
C560 C561 1.391 . S
C560 C562 1.394 . S
C560 H576 0.931 . S
C561 C560 1.391 . S
C561 C565 1.376 . S
C562 C560 1.394 . S
C562 C563 1.369 . S
C562 C566 1.531 . S
C563 C562 1.369 . S
C563 C564 1.418 . S
C563 C571 1.503 1_565 S
C564 C563 1.418 . S
C564 C565 1.420 . S
C564 C567 1.478 1_565 S
C565 C561 1.376 . S
C565 C564 1.420 . S
C565 H577 0.929 . S
C566 C562 1.531 . S
C566 H578 0.960 . S
C566 H579 0.962 . S
C566 H580 0.960 . S
C567 C564 1.478 1_545 S
C567 H581 0.961 1_554 S
C567 H582 0.961 . S
C567 H583 0.961 . S
C568 C569 1.370 . S
C568 C570 1.363 . S
C568 H584 0.931 . S
C569 C568 1.370 . S
C569 C573 1.408 . S
C570 C568 1.363 . S
C570 C571 1.370 . S
C570 C574 1.524 1_545 S
C571 C563 1.503 1_545 S
C571 C570 1.370 . S
C571 C572 1.403 . S
C572 C571 1.403 . S
C572 C573 1.404 . S
C572 C575 1.539 . S
C573 C569 1.408 . S
C573 C572 1.404 . S
C573 H585 0.930 . S
C574 C570 1.524 1_565 S
C574 H586 0.956 . S
C574 H587 0.961 1_554 S
C574 H588 0.961 1_554 S
C575 C572 1.539 . S
C575 H589 0.958 . S
C575 H590 0.961 . S
C575 H591 0.960 . S
H576 C560 0.931 . S
H577 C565 0.929 . S
H578 C566 0.960 . S
H579 C566 0.962 . S
H580 C566 0.960 . S
H581 C567 0.961 1_556 S
H582 C567 0.961 . S
H583 C567 0.961 . S
H584 C568 0.931 . S
H585 C573 0.930 . S
H586 C574 0.956 . S
H587 C574 0.961 1_556 S
H588 C574 0.961 1_556 S
H589 C575 0.958 . S
H590 C575 0.961 . S
H591 C575 0.960 . S
C592 C593 1.391 . S
C592 C594 1.394 . S
C592 H608 0.931 1_554 S
C593 C592 1.391 . S
C593 C597 1.376 . S
C594 C592 1.394 . S
C594 C595 1.369 . S
C594 C598 1.531 1_554 S
C595 C594 1.369 . S
C595 C596 1.415 . S
C595 C603 1.503 1_455 S
C596 C595 1.415 . S
C596 C597 1.408 . S
C596 C599 1.491 1_455 S
C597 C593 1.376 . S
C597 C596 1.408 . S
C597 H609 0.929 . S
C598 C594 1.531 1_556 S
C598 H610 0.960 . S
C598 H611 0.962 . S
C598 H612 0.960 . S
C599 C596 1.491 1_655 S
C599 H613 0.961 . S
C599 H614 0.961 . S
C599 H615 0.961 . S
C600 C601 1.370 . S
C600 C602 1.363 . S
C600 H616 0.931 . S
C601 C600 1.370 . S
C601 C605 1.408 . S
C602 C600 1.363 . S
C602 C603 1.370 . S
C602 C606 1.524 1_655 S
C603 C595 1.503 1_655 S
C603 C602 1.370 . S
C603 C604 1.411 . S
C604 C603 1.411 . S
C604 C605 1.405 . S
C604 C607 1.530 1_554 S
C605 C601 1.408 . S
C605 C604 1.405 . S
C605 H617 0.930 1_554 S
C606 C602 1.524 1_455 S
C606 H618 0.956 . S
C606 H619 0.961 . S
C606 H620 0.961 . S
C607 C604 1.530 1_556 S
C607 H621 0.958 . S
C607 H622 0.961 . S
C607 H623 0.960 . S
H608 C592 0.931 1_556 S
H609 C597 0.929 . S
H610 C598 0.960 . S
H611 C598 0.962 . S
H612 C598 0.960 . S
H613 C599 0.961 . S
H614 C599 0.961 . S
H615 C599 0.961 . S
H616 C600 0.931 . S
H617 C605 0.930 1_556 S
H618 C606 0.956 . S
H619 C606 0.961 . S
H620 C606 0.961 . S
H621 C607 0.958 . S
H622 C607 0.961 . S
H623 C607 0.960 . S
C624 C625 1.391 . S
C624 C626 1.394 . S
C624 H640 0.931 . S
C625 C624 1.391 . S
C625 C629 1.376 . S
C626 C624 1.394 . S
C626 C627 1.369 . S
C626 C630 1.531 . S
C627 C626 1.369 . S
C627 C628 1.410 . S
C627 C635 1.503 . S
C628 C627 1.410 . S
C628 C629 1.392 . S
C628 C631 1.511 . S
C629 C625 1.376 . S
C629 C628 1.392 . S
C629 H641 0.929 . S
C630 C626 1.531 . S
C630 H642 0.960 . S
C630 H643 0.962 . S
C630 H644 0.960 . S
C631 C628 1.511 . S
C631 H645 0.961 . S
C631 H646 0.961 . S
C631 H647 0.961 . S
C632 C633 1.370 . S
C632 C634 1.363 . S
C632 H648 0.931 . S
C633 C632 1.370 . S
C633 C637 1.408 . S
C634 C632 1.363 . S
C634 C635 1.370 . S
C634 C638 1.524 . S
C635 C627 1.503 . S
C635 C634 1.370 . S
C635 C636 1.403 . S
C636 C635 1.403 . S
C636 C637 1.404 . S
C636 C639 1.539 . S
C637 C633 1.408 . S
C637 C636 1.404 . S
C637 H649 0.930 . S
C638 C634 1.524 . S
C638 H650 0.956 . S
C638 H651 0.961 . S
C638 H652 0.961 . S
C639 C636 1.539 . S
C639 H653 0.958 . S
C639 H654 0.961 . S
C639 H655 0.960 . S
H640 C624 0.931 . S
H641 C629 0.929 . S
H642 C630 0.960 . S
H643 C630 0.962 . S
H644 C630 0.960 . S
H645 C631 0.961 . S
H646 C631 0.961 . S
H647 C631 0.961 . S
H648 C632 0.931 . S
H649 C637 0.930 . S
H650 C638 0.956 . S
H651 C638 0.961 . S
H652 C638 0.961 . S
H653 C639 0.958 . S
H654 C639 0.961 . S
H655 C639 0.960 . S
C656 C657 1.391 . S
C656 C658 1.394 . S
C656 H672 0.931 . S
C657 C656 1.391 . S
C657 C661 1.376 . S
C658 C656 1.394 . S
C658 C659 1.369 . S
C658 C662 1.531 . S
C659 C658 1.369 . S
C659 C660 1.410 . S
C659 C667 1.503 1_545 S
C660 C659 1.410 . S
C660 C661 1.392 . S
C660 C663 1.511 1_545 S
C661 C657 1.376 . S
C661 C660 1.392 . S
C661 H673 0.929 . S
C662 C658 1.531 . S
C662 H674 0.960 . S
C662 H675 0.962 . S
C662 H676 0.960 . S
C663 C660 1.511 1_565 S
C663 H677 0.961 . S
C663 H678 0.961 . S
C663 H679 0.961 . S
C664 C665 1.370 . S
C664 C666 1.363 . S
C664 H680 0.931 . S
C665 C664 1.370 . S
C665 C669 1.408 . S
C666 C664 1.363 . S
C666 C667 1.370 . S
C666 C670 1.524 . S
C667 C659 1.503 1_565 S
C667 C666 1.370 . S
C667 C668 1.403 . S
C668 C667 1.403 . S
C668 C669 1.404 . S
C668 C671 1.539 . S
C669 C665 1.408 . S
C669 C668 1.404 . S
C669 H681 0.930 . S
C670 C666 1.524 . S
C670 H682 0.956 1_565 S
C670 H683 0.961 . S
C670 H684 0.961 . S
C671 C668 1.539 . S
C671 H685 0.958 . S
C671 H686 0.961 . S
C671 H687 0.960 . S
H672 C656 0.931 . S
H673 C661 0.929 . S
H674 C662 0.960 . S
H675 C662 0.962 . S
H676 C662 0.960 . S
H677 C663 0.961 . S
H678 C663 0.961 . S
H679 C663 0.961 . S
H680 C664 0.931 . S
H681 C669 0.930 . S
H682 C670 0.956 1_545 S
H683 C670 0.961 . S
H684 C670 0.961 . S
H685 C671 0.958 . S
H686 C671 0.961 . S
H687 C671 0.960 . S
C688 C689 1.391 . S
C688 C690 1.389 1_545 S
C688 H704 0.931 . S
C689 C688 1.391 . S
C689 C693 1.376 . S
C690 C688 1.389 1_565 S
C690 C691 1.366 1_565 S
C690 C694 1.537 . S
C691 C690 1.366 1_545 S
C691 C692 1.410 . S
C691 C699 1.503 1_445 S
C692 C691 1.410 . S
C692 C693 1.392 . S
C692 C695 1.511 1_455 S
C693 C689 1.376 . S
C693 C692 1.392 . S
C693 H705 0.929 . S
C694 C690 1.537 . S
C694 H706 0.960 . S
C694 H707 0.962 . S
C694 H708 0.960 . S
C695 C692 1.511 1_655 S
C695 H709 0.961 . S
C695 H710 0.961 . S
C695 H711 0.961 . S
C696 C697 1.370 . S
C696 C698 1.363 . S
C696 H712 0.931 . S
C697 C696 1.370 . S
C697 C701 1.408 . S
C698 C696 1.363 . S
C698 C699 1.370 . S
C698 C702 1.524 . S
C699 C691 1.503 1_665 S
C699 C698 1.370 . S
C699 C700 1.403 . S
C700 C699 1.403 . S
C700 C701 1.404 . S
C700 C703 1.539 . S
C701 C697 1.408 . S
C701 C700 1.404 . S
C701 H713 0.930 . S
C702 C698 1.524 . S
C702 H714 0.956 1_655 S
C702 H715 0.961 1_565 S
C702 H716 0.961 . S
C703 C700 1.539 . S
C703 H717 0.958 . S
C703 H718 0.961 . S
C703 H719 0.960 1_565 S
H704 C688 0.931 . S
H705 C693 0.929 . S
H706 C694 0.960 . S
H707 C694 0.962 . S
H708 C694 0.960 . S
H709 C695 0.961 . S
H710 C695 0.961 . S
H711 C695 0.961 . S
H712 C696 0.931 . S
H713 C701 0.930 . S
H714 C702 0.956 1_455 S
H715 C702 0.961 1_545 S
H716 C702 0.961 . S
H717 C703 0.958 . S
H718 C703 0.961 . S
H719 C703 0.960 1_545 S
C720 C721 1.391 . S
C720 C722 1.394 . S
C720 H736 0.931 . S
C721 C720 1.391 . S
C721 C725 1.376 . S
C722 C720 1.394 . S
C722 C723 1.369 . S
C722 C726 1.531 . S
C723 C722 1.369 . S
C723 C724 1.410 . S
C723 C731 1.503 . S
C724 C723 1.410 . S
C724 C725 1.392 . S
C724 C727 1.511 . S
C725 C721 1.376 . S
C725 C724 1.392 . S
C725 H737 0.929 . S
C726 C722 1.531 . S
C726 H738 0.960 . S
C726 H739 0.962 . S
C726 H740 0.960 . S
C727 C724 1.511 . S
C727 H741 0.961 . S
C727 H742 0.961 . S
C727 H743 0.961 . S
C728 C729 1.370 . S
C728 C730 1.363 . S
C728 H744 0.931 . S
C729 C728 1.370 . S
C729 C733 1.408 . S
C730 C728 1.363 . S
C730 C731 1.370 . S
C730 C734 1.524 . S
C731 C723 1.503 . S
C731 C730 1.370 . S
C731 C732 1.403 . S
C732 C731 1.403 . S
C732 C733 1.404 . S
C732 C735 1.539 . S
C733 C729 1.408 . S
C733 C732 1.404 . S
C733 H745 0.930 . S
C734 C730 1.524 . S
C734 H746 0.956 . S
C734 H747 0.961 . S
C734 H748 0.961 . S
C735 C732 1.539 . S
C735 H749 0.958 . S
C735 H750 0.961 . S
C735 H751 0.960 . S
H736 C720 0.931 . S
H737 C725 0.929 . S
H738 C726 0.960 . S
H739 C726 0.962 . S
H740 C726 0.960 . S
H741 C727 0.961 . S
H742 C727 0.961 . S
H743 C727 0.961 . S
H744 C728 0.931 . S
H745 C733 0.930 . S
H746 C734 0.956 . S
H747 C734 0.961 . S
H748 C734 0.961 . S
H749 C735 0.958 . S
H750 C735 0.961 . S
H751 C735 0.960 . S
C752 C753 1.391 . S
C752 C754 1.394 . S
C752 H768 0.931 . S
C753 C752 1.391 . S
C753 C757 1.376 . S
C754 C752 1.394 . S
C754 C755 1.369 . S
C754 C758 1.531 . S
C755 C754 1.369 . S
C755 C756 1.410 . S
C755 C763 1.503 . S
C756 C755 1.410 . S
C756 C757 1.392 . S
C756 C759 1.511 . S
C757 C753 1.376 . S
C757 C756 1.392 . S
C757 H769 0.929 . S
C758 C754 1.531 . S
C758 H770 0.960 . S
C758 H771 0.962 . S
C758 H772 0.960 . S
C759 C756 1.511 . S
C759 H773 0.961 . S
C759 H774 0.961 . S
C759 H775 0.961 . S
C760 C761 1.370 . S
C760 C762 1.363 . S
C760 H776 0.931 . S
C761 C760 1.370 . S
C761 C765 1.408 . S
C762 C760 1.363 . S
C762 C763 1.370 . S
C762 C766 1.524 . S
C763 C755 1.503 . S
C763 C762 1.370 . S
C763 C764 1.403 . S
C764 C763 1.403 . S
C764 C765 1.404 . S
C764 C767 1.539 . S
C765 C761 1.408 . S
C765 C764 1.404 . S
C765 H777 0.930 . S
C766 C762 1.524 . S
C766 H778 0.956 . S
C766 H779 0.961 . S
C766 H780 0.961 . S
C767 C764 1.539 . S
C767 H781 0.958 . S
C767 H782 0.961 . S
C767 H783 0.960 . S
H768 C752 0.931 . S
H769 C757 0.929 . S
H770 C758 0.960 . S
H771 C758 0.962 . S
H772 C758 0.960 . S
H773 C759 0.961 . S
H774 C759 0.961 . S
H775 C759 0.961 . S
H776 C760 0.931 . S
H777 C765 0.930 . S
H778 C766 0.956 . S
H779 C766 0.961 . S
H780 C766 0.961 . S
H781 C767 0.958 . S
H782 C767 0.961 . S
H783 C767 0.960 . S
C784 C785 1.391 . S
C784 C786 1.394 . S
C784 H800 0.931 . S
C785 C784 1.391 . S
C785 C789 1.376 . S
C786 C784 1.394 . S
C786 C787 1.369 . S
C786 C790 1.531 . S
C787 C786 1.369 . S
C787 C788 1.410 . S
C787 C795 1.503 . S
C788 C787 1.410 . S
C788 C789 1.392 . S
C788 C791 1.511 . S
C789 C785 1.376 . S
C789 C788 1.392 . S
C789 H801 0.929 . S
C790 C786 1.531 . S
C790 H802 0.960 . S
C790 H803 0.962 . S
C790 H804 0.960 . S
C791 C788 1.511 . S
C791 H805 0.961 . S
C791 H806 0.961 . S
C791 H807 0.961 . S
C792 C793 1.370 . S
C792 C794 1.363 1_556 S
C792 H808 0.931 . S
C793 C792 1.370 . S
C793 C797 1.408 . S
C794 C792 1.363 1_554 S
C794 C795 1.370 . S
C794 C798 1.524 . S
C795 C787 1.503 . S
C795 C794 1.370 . S
C795 C796 1.403 . S
C796 C795 1.403 . S
C796 C797 1.404 1_554 S
C796 C799 1.539 . S
C797 C793 1.408 . S
C797 C796 1.404 1_556 S
C797 H809 0.930 . S
C798 C794 1.524 . S
C798 H810 0.956 . S
C798 H811 0.961 . S
C798 H812 0.961 . S
C799 C796 1.539 . S
C799 H813 0.958 . S
C799 H814 0.961 . S
C799 H815 0.960 . S
H800 C784 0.931 . S
H801 C789 0.929 . S
H802 C790 0.960 . S
H803 C790 0.962 . S
H804 C790 0.960 . S
H805 C791 0.961 . S
H806 C791 0.961 . S
H807 C791 0.961 . S
H808 C792 0.931 . S
H809 C797 0.930 . S
H810 C798 0.956 . S
H811 C798 0.961 . S
H812 C798 0.961 . S
H813 C799 0.958 . S
H814 C799 0.961 . S
H815 C799 0.960 . S
C816 C817 1.391 . S
C816 C818 1.394 . S
C816 H832 0.931 . S
C817 C816 1.391 . S
C817 C821 1.376 . S
C818 C816 1.394 . S
C818 C819 1.369 . S
C818 C822 1.531 . S
C819 C818 1.369 . S
C819 C820 1.410 . S
C819 C827 1.503 . S
C820 C819 1.410 . S
C820 C821 1.392 . S
C820 C823 1.511 . S
C821 C817 1.376 . S
C821 C820 1.392 . S
C821 H833 0.929 . S
C822 C818 1.531 . S
C822 H834 0.960 . S
C822 H835 0.962 . S
C822 H836 0.960 . S
C823 C820 1.511 . S
C823 H837 0.961 . S
C823 H838 0.961 . S
C823 H839 0.961 . S
C824 C825 1.370 . S
C824 C826 1.363 . S
C824 H840 0.931 . S
C825 C824 1.370 . S
C825 C829 1.408 . S
C826 C824 1.363 . S
C826 C827 1.370 . S
C826 C830 1.524 . S
C827 C819 1.503 . S
C827 C826 1.370 . S
C827 C828 1.403 . S
C828 C827 1.403 . S
C828 C829 1.404 . S
C828 C831 1.539 . S
C829 C825 1.408 . S
C829 C828 1.404 . S
C829 H841 0.930 . S
C830 C826 1.524 . S
C830 H842 0.956 . S
C830 H843 0.961 . S
C830 H844 0.961 . S
C831 C828 1.539 . S
C831 H845 0.958 . S
C831 H846 0.961 . S
C831 H847 0.960 . S
H832 C816 0.931 . S
H833 C821 0.929 . S
H834 C822 0.960 . S
H835 C822 0.962 . S
H836 C822 0.960 . S
H837 C823 0.961 . S
H838 C823 0.961 . S
H839 C823 0.961 . S
H840 C824 0.931 . S
H841 C829 0.930 . S
H842 C830 0.956 . S
H843 C830 0.961 . S
H844 C830 0.961 . S
H845 C831 0.958 . S
H846 C831 0.961 . S
H847 C831 0.960 . S
C848 C849 1.391 . S
C848 C850 1.394 . S
C848 H864 0.931 . S
C849 C848 1.391 . S
C849 C853 1.376 . S
C850 C848 1.394 . S
C850 C851 1.369 . S
C850 C854 1.531 . S
C851 C850 1.369 . S
C851 C852 1.410 . S
C851 C859 1.503 . S
C852 C851 1.410 . S
C852 C853 1.392 . S
C852 C855 1.511 . S
C853 C849 1.376 . S
C853 C852 1.392 . S
C853 H865 0.929 . S
C854 C850 1.531 . S
C854 H866 0.960 . S
C854 H867 0.962 . S
C854 H868 0.960 . S
C855 C852 1.511 . S
C855 H869 0.961 . S
C855 H870 0.961 . S
C855 H871 0.961 . S
C856 C857 1.370 . S
C856 C858 1.363 . S
C856 H872 0.931 . S
C857 C856 1.370 . S
C857 C861 1.408 . S
C858 C856 1.363 . S
C858 C859 1.370 . S
C858 C862 1.524 . S
C859 C851 1.503 . S
C859 C858 1.370 . S
C859 C860 1.403 . S
C860 C859 1.403 . S
C860 C861 1.404 . S
C860 C863 1.539 . S
C861 C857 1.408 . S
C861 C860 1.404 . S
C861 H873 0.930 . S
C862 C858 1.524 . S
C862 H874 0.956 . S
C862 H875 0.961 . S
C862 H876 0.961 . S
C863 C860 1.539 . S
C863 H877 0.958 . S
C863 H878 0.961 . S
C863 H879 0.960 . S
H864 C848 0.931 . S
H865 C853 0.929 . S
H866 C854 0.960 . S
H867 C854 0.962 . S
H868 C854 0.960 . S
H869 C855 0.961 . S
H870 C855 0.961 . S
H871 C855 0.961 . S
H872 C856 0.931 . S
H873 C861 0.930 . S
H874 C862 0.956 . S
H875 C862 0.961 . S
H876 C862 0.961 . S
H877 C863 0.958 . S
H878 C863 0.961 . S
H879 C863 0.960 . S
C880 C881 1.391 . S
C880 C882 1.394 . S
C880 H896 0.931 . S
C881 C880 1.391 . S
C881 C885 1.376 . S
C882 C880 1.394 . S
C882 C883 1.369 . S
C882 C886 1.531 . S
C883 C882 1.369 . S
C883 C884 1.410 . S
C883 C891 1.503 . S
C884 C883 1.410 . S
C884 C885 1.392 . S
C884 C887 1.511 . S
C885 C881 1.376 . S
C885 C884 1.392 . S
C885 H897 0.929 . S
C886 C882 1.531 . S
C886 H898 0.960 . S
C886 H899 0.962 . S
C886 H900 0.960 . S
C887 C884 1.511 . S
C887 H901 0.961 . S
C887 H902 0.961 . S
C887 H903 0.961 . S
C888 C889 1.370 . S
C888 C890 1.363 1_556 S
C888 H904 0.931 . S
C889 C888 1.370 . S
C889 C893 1.408 . S
C890 C888 1.363 1_554 S
C890 C891 1.370 . S
C890 C894 1.524 . S
C891 C883 1.503 . S
C891 C890 1.370 . S
C891 C892 1.403 . S
C892 C891 1.403 . S
C892 C893 1.404 1_554 S
C892 C895 1.539 . S
C893 C889 1.408 . S
C893 C892 1.404 1_556 S
C893 H905 0.930 . S
C894 C890 1.524 . S
C894 H906 0.956 . S
C894 H907 0.961 . S
C894 H908 0.961 . S
C895 C892 1.539 . S
C895 H909 0.958 . S
C895 H910 0.961 . S
C895 H911 0.960 . S
H896 C880 0.931 . S
H897 C885 0.929 . S
H898 C886 0.960 . S
H899 C886 0.962 . S
H900 C886 0.960 . S
H901 C887 0.961 . S
H902 C887 0.961 . S
H903 C887 0.961 . S
H904 C888 0.931 . S
H905 C893 0.930 . S
H906 C894 0.956 . S
H907 C894 0.961 . S
H908 C894 0.961 . S
H909 C895 0.958 . S
H910 C895 0.961 . S
H911 C895 0.960 . S
C912 C913 1.391 . S
C912 C914 1.394 . S
C912 H928 0.931 . S
C913 C912 1.391 . S
C913 C917 1.376 . S
C914 C912 1.394 . S
C914 C915 1.369 . S
C914 C918 1.531 . S
C915 C914 1.369 . S
C915 C916 1.410 . S
C915 C923 1.503 . S
C916 C915 1.410 . S
C916 C917 1.392 . S
C916 C919 1.511 . S
C917 C913 1.376 . S
C917 C916 1.392 . S
C917 H929 0.929 . S
C918 C914 1.531 . S
C918 H930 0.960 . S
C918 H931 0.962 . S
C918 H932 0.960 . S
C919 C916 1.511 . S
C919 H933 0.961 . S
C919 H934 0.961 . S
C919 H935 0.961 . S
C920 C921 1.370 . S
C920 C922 1.363 . S
C920 H936 0.931 . S
C921 C920 1.370 . S
C921 C925 1.408 . S
C922 C920 1.363 . S
C922 C923 1.370 . S
C922 C926 1.524 . S
C923 C915 1.503 . S
C923 C922 1.370 . S
C923 C924 1.403 . S
C924 C923 1.403 . S
C924 C925 1.404 . S
C924 C927 1.539 . S
C925 C921 1.408 . S
C925 C924 1.404 . S
C925 H937 0.930 . S
C926 C922 1.524 . S
C926 H938 0.956 . S
C926 H939 0.961 . S
C926 H940 0.961 . S
C927 C924 1.539 . S
C927 H941 0.958 . S
C927 H942 0.961 . S
C927 H943 0.960 . S
H928 C912 0.931 . S
H929 C917 0.929 . S
H930 C918 0.960 . S
H931 C918 0.962 . S
H932 C918 0.960 . S
H933 C919 0.961 . S
H934 C919 0.961 . S
H935 C919 0.961 . S
H936 C920 0.931 . S
H937 C925 0.930 . S
H938 C926 0.956 . S
H939 C926 0.961 . S
H940 C926 0.961 . S
H941 C927 0.958 . S
H942 C927 0.961 . S
H943 C927 0.960 . S
C944 C945 1.391 . S
C944 C946 1.394 . S
C944 H960 0.931 . S
C945 C944 1.391 . S
C945 C949 1.376 . S
C946 C944 1.394 . S
C946 C947 1.369 . S
C946 C950 1.531 . S
C947 C946 1.369 . S
C947 C948 1.410 . S
C947 C955 1.503 . S
C948 C947 1.410 . S
C948 C949 1.392 . S
C948 C951 1.511 . S
C949 C945 1.376 . S
C949 C948 1.392 . S
C949 H961 0.929 . S
C950 C946 1.531 . S
C950 H962 0.960 . S
C950 H963 0.962 . S
C950 H964 0.960 . S
C951 C948 1.511 . S
C951 H965 0.961 . S
C951 H966 0.961 . S
C951 H967 0.961 . S
C952 C953 1.370 . S
C952 C954 1.363 . S
C952 H968 0.931 . S
C953 C952 1.370 . S
C953 C957 1.408 . S
C954 C952 1.363 . S
C954 C955 1.370 . S
C954 C958 1.524 . S
C955 C947 1.503 . S
C955 C954 1.370 . S
C955 C956 1.403 . S
C956 C955 1.403 . S
C956 C957 1.404 . S
C956 C959 1.539 . S
C957 C953 1.408 . S
C957 C956 1.404 . S
C957 H969 0.930 . S
C958 C954 1.524 . S
C958 H970 0.956 . S
C958 H971 0.961 . S
C958 H972 0.961 . S
C959 C956 1.539 . S
C959 H973 0.958 . S
C959 H974 0.961 . S
C959 H975 0.960 . S
H960 C944 0.931 . S
H961 C949 0.929 . S
H962 C950 0.960 . S
H963 C950 0.962 . S
H964 C950 0.960 . S
H965 C951 0.961 . S
H966 C951 0.961 . S
H967 C951 0.961 . S
H968 C952 0.931 . S
H969 C957 0.930 . S
H970 C958 0.956 . S
H971 C958 0.961 . S
H972 C958 0.961 . S
H973 C959 0.958 . S
H974 C959 0.961 . S
H975 C959 0.960 . S
C976 C977 1.391 . S
C976 C978 1.394 1_556 S
C976 H992 0.931 . S
C977 C976 1.391 . S
C977 C981 1.376 . S
C978 C976 1.394 1_554 S
C978 C979 1.369 . S
C978 C982 1.531 . S
C979 C978 1.369 . S
C979 C980 1.410 . S
C979 C987 1.503 . S
C980 C979 1.410 . S
C980 C981 1.392 1_554 S
C980 C983 1.511 . S
C981 C977 1.376 . S
C981 C980 1.392 1_556 S
C981 H993 0.929 . S
C982 C978 1.531 . S
C982 H994 0.960 . S
C982 H995 0.962 . S
C982 H996 0.960 . S
C983 C980 1.511 . S
C983 H997 0.961 . S
C983 H998 0.961 . S
C983 H999 0.961 . S
C984 C985 1.370 . S
C984 C986 1.363 . S
C984 H1000 0.931 . S
C985 C984 1.370 . S
C985 C989 1.408 . S
C986 C984 1.363 . S
C986 C987 1.370 . S
C986 C990 1.524 . S
C987 C979 1.503 . S
C987 C986 1.370 . S
C987 C988 1.403 . S
C988 C987 1.403 . S
C988 C989 1.404 . S
C988 C991 1.539 . S
C989 C985 1.408 . S
C989 C988 1.404 . S
C989 H1001 0.930 . S
C990 C986 1.524 . S
C990 H1002 0.956 . S
C990 H1003 0.961 . S
C990 H1004 0.961 . S
C991 C988 1.539 . S
C991 H1005 0.958 . S
C991 H1006 0.961 . S
C991 H1007 0.960 . S
H992 C976 0.931 . S
H993 C981 0.929 . S
H994 C982 0.960 . S
H995 C982 0.962 . S
H996 C982 0.960 . S
H997 C983 0.961 . S
H998 C983 0.961 . S
H999 C983 0.961 . S
H1000 C984 0.931 . S
H1001 C989 0.930 . S
H1002 C990 0.956 . S
H1003 C990 0.961 . S
H1004 C990 0.961 . S
H1005 C991 0.958 . S
H1006 C991 0.961 . S
H1007 C991 0.960 . S
C1008 C1009 1.391 . S
C1008 C1010 1.394 . S
C1008 H1024 0.931 . S
C1009 C1008 1.391 . S
C1009 C1013 1.376 . S
C1010 C1008 1.394 . S
C1010 C1011 1.369 . S
C1010 C1014 1.531 . S
C1011 C1010 1.369 . S
C1011 C1012 1.410 . S
C1011 C1019 1.503 . S
C1012 C1011 1.410 . S
C1012 C1013 1.392 . S
C1012 C1015 1.511 . S
C1013 C1009 1.376 . S
C1013 C1012 1.392 . S
C1013 H1025 0.929 . S
C1014 C1010 1.531 . S
C1014 H1026 0.960 . S
C1014 H1027 0.962 . S
C1014 H1028 0.960 . S
C1015 C1012 1.511 . S
C1015 H1029 0.961 . S
C1015 H1030 0.961 . S
C1015 H1031 0.961 . S
C1016 C1017 1.370 . S
C1016 C1018 1.363 . S
C1016 H1032 0.931 . S
C1017 C1016 1.370 . S
C1017 C1021 1.408 . S
C1018 C1016 1.363 . S
C1018 C1019 1.370 . S
C1018 C1022 1.524 . S
C1019 C1011 1.503 . S
C1019 C1018 1.370 . S
C1019 C1020 1.403 . S
C1020 C1019 1.403 . S
C1020 C1021 1.404 . S
C1020 C1023 1.539 . S
C1021 C1017 1.408 . S
C1021 C1020 1.404 . S
C1021 H1033 0.930 . S
C1022 C1018 1.524 . S
C1022 H1034 0.956 . S
C1022 H1035 0.961 . S
C1022 H1036 0.961 . S
C1023 C1020 1.539 . S
C1023 H1037 0.958 . S
C1023 H1038 0.961 . S
C1023 H1039 0.960 . S
H1024 C1008 0.931 . S
H1025 C1013 0.929 . S
H1026 C1014 0.960 . S
H1027 C1014 0.962 . S
H1028 C1014 0.960 . S
H1029 C1015 0.961 . S
H1030 C1015 0.961 . S
H1031 C1015 0.961 . S
H1032 C1016 0.931 . S
H1033 C1021 0.930 . S
H1034 C1022 0.956 . S
H1035 C1022 0.961 . S
H1036 C1022 0.961 . S
H1037 C1023 0.958 . S
H1038 C1023 0.961 . S
H1039 C1023 0.960 . S
C1040 C1041 1.391 . S
C1040 C1042 1.394 . S
C1040 H1056 0.931 . S
C1041 C1040 1.391 . S
C1041 C1045 1.376 . S
C1042 C1040 1.394 . S
C1042 C1043 1.369 . S
C1042 C1046 1.531 . S
C1043 C1042 1.369 . S
C1043 C1044 1.410 . S
C1043 C1051 1.503 . S
C1044 C1043 1.410 . S
C1044 C1045 1.392 . S
C1044 C1047 1.511 . S
C1045 C1041 1.376 . S
C1045 C1044 1.392 . S
C1045 H1057 0.929 . S
C1046 C1042 1.531 . S
C1046 H1058 0.960 . S
C1046 H1059 0.962 . S
C1046 H1060 0.960 . S
C1047 C1044 1.511 . S
C1047 H1061 0.961 . S
C1047 H1062 0.961 . S
C1047 H1063 0.961 . S
C1048 C1049 1.370 . S
C1048 C1050 1.363 . S
C1048 H1064 0.931 . S
C1049 C1048 1.370 . S
C1049 C1053 1.408 . S
C1050 C1048 1.363 . S
C1050 C1051 1.370 . S
C1050 C1054 1.524 . S
C1051 C1043 1.503 . S
C1051 C1050 1.370 . S
C1051 C1052 1.403 . S
C1052 C1051 1.403 . S
C1052 C1053 1.404 . S
C1052 C1055 1.539 . S
C1053 C1049 1.408 . S
C1053 C1052 1.404 . S
C1053 H1065 0.930 . S
C1054 C1050 1.524 . S
C1054 H1066 0.956 . S
C1054 H1067 0.961 . S
C1054 H1068 0.961 . S
C1055 C1052 1.539 . S
C1055 H1069 0.958 . S
C1055 H1070 0.961 . S
C1055 H1071 0.960 . S
H1056 C1040 0.931 . S
H1057 C1045 0.929 . S
H1058 C1046 0.960 . S
H1059 C1046 0.962 . S
H1060 C1046 0.960 . S
H1061 C1047 0.961 . S
H1062 C1047 0.961 . S
H1063 C1047 0.961 . S
H1064 C1048 0.931 . S
H1065 C1053 0.930 . S
H1066 C1054 0.956 . S
H1067 C1054 0.961 . S
H1068 C1054 0.961 . S
H1069 C1055 0.958 . S
H1070 C1055 0.961 . S
H1071 C1055 0.960 . S
C1072 C1073 1.391 . S
C1072 C1074 1.394 . S
C1072 H1088 0.931 . S
C1073 C1072 1.391 . S
C1073 C1077 1.376 . S
C1074 C1072 1.394 . S
C1074 C1075 1.369 . S
C1074 C1078 1.531 . S
C1075 C1074 1.369 . S
C1075 C1076 1.410 . S
C1075 C1083 1.503 . S
C1076 C1075 1.410 . S
C1076 C1077 1.392 . S
C1076 C1079 1.511 . S
C1077 C1073 1.376 . S
C1077 C1076 1.392 . S
C1077 H1089 0.929 . S
C1078 C1074 1.531 . S
C1078 H1090 0.960 . S
C1078 H1091 0.962 . S
C1078 H1092 0.960 . S
C1079 C1076 1.511 . S
C1079 H1093 0.961 . S
C1079 H1094 0.961 . S
C1079 H1095 0.961 . S
C1080 C1081 1.370 . S
C1080 C1082 1.363 . S
C1080 H1096 0.931 . S
C1081 C1080 1.370 . S
C1081 C1085 1.408 . S
C1082 C1080 1.363 . S
C1082 C1083 1.370 . S
C1082 C1086 1.524 . S
C1083 C1075 1.503 . S
C1083 C1082 1.370 . S
C1083 C1084 1.403 . S
C1084 C1083 1.403 . S
C1084 C1085 1.404 . S
C1084 C1087 1.539 . S
C1085 C1081 1.408 . S
C1085 C1084 1.404 . S
C1085 H1097 0.930 . S
C1086 C1082 1.524 . S
C1086 H1098 0.956 . S
C1086 H1099 0.961 . S
C1086 H1100 0.961 . S
C1087 C1084 1.539 . S
C1087 H1101 0.958 . S
C1087 H1102 0.961 . S
C1087 H1103 0.960 . S
H1088 C1072 0.931 . S
H1089 C1077 0.929 . S
H1090 C1078 0.960 . S
H1091 C1078 0.962 . S
H1092 C1078 0.960 . S
H1093 C1079 0.961 . S
H1094 C1079 0.961 . S
H1095 C1079 0.961 . S
H1096 C1080 0.931 . S
H1097 C1085 0.930 . S
H1098 C1086 0.956 . S
H1099 C1086 0.961 . S
H1100 C1086 0.961 . S
H1101 C1087 0.958 . S
H1102 C1087 0.961 . S
H1103 C1087 0.960 . S
C1104 C1105 1.391 . S
C1104 C1106 1.394 . S
C1104 H1120 0.931 . S
C1105 C1104 1.391 . S
C1105 C1109 1.376 . S
C1106 C1104 1.394 . S
C1106 C1107 1.369 . S
C1106 C1110 1.531 . S
C1107 C1106 1.369 . S
C1107 C1108 1.410 . S
C1107 C1115 1.503 . S
C1108 C1107 1.410 . S
C1108 C1109 1.392 . S
C1108 C1111 1.511 . S
C1109 C1105 1.376 . S
C1109 C1108 1.392 . S
C1109 H1121 0.929 . S
C1110 C1106 1.531 . S
C1110 H1122 0.960 . S
C1110 H1123 0.962 . S
C1110 H1124 0.960 . S
C1111 C1108 1.511 . S
C1111 H1125 0.961 . S
C1111 H1126 0.961 . S
C1111 H1127 0.961 . S
C1112 C1113 1.370 . S
C1112 C1114 1.363 . S
C1112 H1128 0.931 . S
C1113 C1112 1.370 . S
C1113 C1117 1.408 . S
C1114 C1112 1.363 . S
C1114 C1115 1.370 . S
C1114 C1118 1.524 . S
C1115 C1107 1.503 . S
C1115 C1114 1.370 . S
C1115 C1116 1.403 . S
C1116 C1115 1.403 . S
C1116 C1117 1.404 . S
C1116 C1119 1.539 . S
C1117 C1113 1.408 . S
C1117 C1116 1.404 . S
C1117 H1129 0.930 . S
C1118 C1114 1.524 . S
C1118 H1130 0.956 . S
C1118 H1131 0.961 . S
C1118 H1132 0.961 . S
C1119 C1116 1.539 . S
C1119 H1133 0.958 . S
C1119 H1134 0.961 . S
C1119 H1135 0.960 . S
H1120 C1104 0.931 . S
H1121 C1109 0.929 . S
H1122 C1110 0.960 . S
H1123 C1110 0.962 . S
H1124 C1110 0.960 . S
H1125 C1111 0.961 . S
H1126 C1111 0.961 . S
H1127 C1111 0.961 . S
H1128 C1112 0.931 . S
H1129 C1117 0.930 . S
H1130 C1118 0.956 . S
H1131 C1118 0.961 . S
H1132 C1118 0.961 . S
H1133 C1119 0.958 . S
H1134 C1119 0.961 . S
H1135 C1119 0.960 . S
C1136 C1137 1.391 . S
C1136 C1138 1.394 . S
C1136 H1152 0.931 . S
C1137 C1136 1.391 . S
C1137 C1141 1.376 . S
C1138 C1136 1.394 . S
C1138 C1139 1.369 . S
C1138 C1142 1.531 . S
C1139 C1138 1.369 . S
C1139 C1140 1.410 . S
C1139 C1147 1.503 . S
C1140 C1139 1.410 . S
C1140 C1141 1.392 . S
C1140 C1143 1.511 . S
C1141 C1137 1.376 . S
C1141 C1140 1.392 . S
C1141 H1153 0.929 . S
C1142 C1138 1.531 . S
C1142 H1154 0.960 . S
C1142 H1155 0.962 . S
C1142 H1156 0.960 . S
C1143 C1140 1.511 . S
C1143 H1157 0.961 . S
C1143 H1158 0.961 . S
C1143 H1159 0.961 . S
C1144 C1145 1.370 . S
C1144 C1146 1.363 . S
C1144 H1160 0.931 . S
C1145 C1144 1.370 . S
C1145 C1149 1.408 . S
C1146 C1144 1.363 . S
C1146 C1147 1.370 . S
C1146 C1150 1.524 . S
C1147 C1139 1.503 . S
C1147 C1146 1.370 . S
C1147 C1148 1.403 . S
C1148 C1147 1.403 . S
C1148 C1149 1.404 . S
C1148 C1151 1.539 . S
C1149 C1145 1.408 . S
C1149 C1148 1.404 . S
C1149 H1161 0.930 . S
C1150 C1146 1.524 . S
C1150 H1162 0.956 . S
C1150 H1163 0.961 . S
C1150 H1164 0.961 . S
C1151 C1148 1.539 . S
C1151 H1165 0.958 . S
C1151 H1166 0.961 . S
C1151 H1167 0.960 . S
H1152 C1136 0.931 . S
H1153 C1141 0.929 . S
H1154 C1142 0.960 . S
H1155 C1142 0.962 . S
H1156 C1142 0.960 . S
H1157 C1143 0.961 . S
H1158 C1143 0.961 . S
H1159 C1143 0.961 . S
H1160 C1144 0.931 . S
H1161 C1149 0.930 . S
H1162 C1150 0.956 . S
H1163 C1150 0.961 . S
H1164 C1150 0.961 . S
H1165 C1151 0.958 . S
H1166 C1151 0.961 . S
H1167 C1151 0.960 . S
C1168 C1169 1.391 . S
C1168 C1170 1.394 . S
C1168 H1184 0.931 . S
C1169 C1168 1.391 . S
C1169 C1173 1.376 . S
C1170 C1168 1.394 . S
C1170 C1171 1.369 . S
C1170 C1174 1.531 . S
C1171 C1170 1.369 . S
C1171 C1172 1.410 . S
C1171 C1179 1.503 . S
C1172 C1171 1.410 . S
C1172 C1173 1.392 . S
C1172 C1175 1.511 . S
C1173 C1169 1.376 . S
C1173 C1172 1.392 . S
C1173 H1185 0.929 . S
C1174 C1170 1.531 . S
C1174 H1186 0.960 . S
C1174 H1187 0.962 . S
C1174 H1188 0.960 . S
C1175 C1172 1.511 . S
C1175 H1189 0.961 . S
C1175 H1190 0.961 . S
C1175 H1191 0.961 . S
C1176 C1177 1.370 . S
C1176 C1178 1.363 . S
C1176 H1192 0.931 . S
C1177 C1176 1.370 . S
C1177 C1181 1.408 . S
C1178 C1176 1.363 . S
C1178 C1179 1.370 . S
C1178 C1182 1.524 . S
C1179 C1171 1.503 . S
C1179 C1178 1.370 . S
C1179 C1180 1.403 . S
C1180 C1179 1.403 . S
C1180 C1181 1.404 . S
C1180 C1183 1.539 . S
C1181 C1177 1.408 . S
C1181 C1180 1.404 . S
C1181 H1193 0.930 . S
C1182 C1178 1.524 . S
C1182 H1194 0.956 . S
C1182 H1195 0.961 . S
C1182 H1196 0.961 . S
C1183 C1180 1.539 . S
C1183 H1197 0.958 . S
C1183 H1198 0.961 . S
C1183 H1199 0.960 . S
H1184 C1168 0.931 . S
H1185 C1173 0.929 . S
H1186 C1174 0.960 . S
H1187 C1174 0.962 . S
H1188 C1174 0.960 . S
H1189 C1175 0.961 . S
H1190 C1175 0.961 . S
H1191 C1175 0.961 . S
H1192 C1176 0.931 . S
H1193 C1181 0.930 . S
H1194 C1182 0.956 . S
H1195 C1182 0.961 . S
H1196 C1182 0.961 . S
H1197 C1183 0.958 . S
H1198 C1183 0.961 . S
H1199 C1183 0.960 . S
C1200 C1201 1.391 . S
C1200 C1202 1.394 . S
C1200 H1216 0.931 . S
C1201 C1200 1.391 . S
C1201 C1205 1.376 . S
C1202 C1200 1.394 . S
C1202 C1203 1.369 . S
C1202 C1206 1.531 . S
C1203 C1202 1.369 . S
C1203 C1204 1.410 . S
C1203 C1211 1.503 . S
C1204 C1203 1.410 . S
C1204 C1205 1.392 . S
C1204 C1207 1.511 . S
C1205 C1201 1.376 . S
C1205 C1204 1.392 . S
C1205 H1217 0.929 . S
C1206 C1202 1.531 . S
C1206 H1218 0.960 . S
C1206 H1219 0.962 . S
C1206 H1220 0.960 . S
C1207 C1204 1.511 . S
C1207 H1221 0.961 . S
C1207 H1222 0.961 . S
C1207 H1223 0.961 . S
C1208 C1209 1.370 . S
C1208 C1210 1.363 1_556 S
C1208 H1224 0.931 . S
C1209 C1208 1.370 . S
C1209 C1213 1.408 . S
C1210 C1208 1.363 1_554 S
C1210 C1211 1.370 . S
C1210 C1214 1.524 . S
C1211 C1203 1.503 . S
C1211 C1210 1.370 . S
C1211 C1212 1.403 . S
C1212 C1211 1.403 . S
C1212 C1213 1.404 1_554 S
C1212 C1215 1.539 . S
C1213 C1209 1.408 . S
C1213 C1212 1.404 1_556 S
C1213 H1225 0.930 . S
C1214 C1210 1.524 . S
C1214 H1226 0.956 . S
C1214 H1227 0.961 . S
C1214 H1228 0.961 . S
C1215 C1212 1.539 . S
C1215 H1229 0.958 . S
C1215 H1230 0.961 . S
C1215 H1231 0.960 . S
H1216 C1200 0.931 . S
H1217 C1205 0.929 . S
H1218 C1206 0.960 . S
H1219 C1206 0.962 . S
H1220 C1206 0.960 . S
H1221 C1207 0.961 . S
H1222 C1207 0.961 . S
H1223 C1207 0.961 . S
H1224 C1208 0.931 . S
H1225 C1213 0.930 . S
H1226 C1214 0.956 . S
H1227 C1214 0.961 . S
H1228 C1214 0.961 . S
H1229 C1215 0.958 . S
H1230 C1215 0.961 . S
H1231 C1215 0.960 . S
C209 C83 2.093 . S
C217 C5 2.078 . S
C241 C96 2.086 . S
C249 C18 2.082 . S
C273 C31 2.082 . S
C281 C57 2.082 1_556 S
C305 C44 2.093 . S
C313 C70 2.078 . S
C337 C109 2.055 . S
C345 C187 2.076 1_556 S
C369 C200 2.060 . S
C377 C122 2.077 . S
C401 C135 2.040 . S
C409 C161 2.062 . S
C433 C148 2.075 . S
C441 C174 2.066 . S
C465 C10 1.948 . S
C473 C140 1.981 . S
C497 C23 1.972 . S
C505 C153 1.970 . S
C529 C36 1.953 . S
C537 C114 1.990 . S
C561 C49 1.988 . S
C569 C127 1.965 . S
C593 C62 1.987 . S
C601 C192 1.966 . S
C625 C205 1.998 . S
C633 C75 1.964 . S
C657 C88 1.977 . S
C665 C166 1.983 . S
C689 C179 1.977 . S
C697 C101 1.984 . S
C721 C170 0.429 . S
C729 C1 0.432 . S
C753 C14 0.457 . S
C761 C183 0.443 . S
C785 C196 0.429 . S
C793 C27 0.433 . S
C817 C157 0.441 . S
C825 C40 0.434 . S
C849 C144 0.436 . S
C857 C53 0.432 . S
C881 C66 0.429 . S
C889 C105 0.432 . S
C913 C79 0.444 . S
C921 C118 0.441 . S
C945 C92 0.456 . S
C953 C131 0.443 . S
C977 C172 1.846 . S
C985 C3 1.845 . S
C1009 C16 1.839 . S
C1017 C185 1.849 . S
C1041 C29 1.835 . S
C1049 C198 1.847 . S
C1073 C159 1.845 . S
C1081 C42 1.850 . S
C1105 C146 1.839 . S
C1113 C55 1.849 . S
C1137 C107 1.840 . S
C1145 C68 1.844 . S
C1169 C81 1.847 . S
C1177 C120 1.849 . S
C1201 C133 1.846 . S
C1209 C94 1.849 . S
