# Generated by pormake.
# Topology vmc, (5)-cn, num edge types: 1
# Building blocks:
#     Node 0, Type 0, BuildingBlock: BEQFEK_clean_sbu_0, # of connection points: 5
#     Node 1, Type 0, BuildingBlock: BEQFEK_clean_sbu_0, # of connection points: 5
#     Node 2, Type 0, BuildingBlock: BEQFEK_clean_sbu_0, # of connection points: 5
#     Node 3, Type 0, BuildingBlock: BEQFEK_clean_sbu_0, # of connection points: 5
#     Node 4, Type 0, BuildingBlock: BEQFEK_clean_sbu_0, # of connection points: 5
#     Node 5, Type 0, BuildingBlock: BEQFEK_clean_sbu_0, # of connection points: 5
#     Node 6, Type 0, BuildingBlock: BEQFEK_clean_sbu_0, # of connection points: 5
#     Node 7, Type 0, BuildingBlock: BEQFEK_clean_sbu_0, # of connection points: 5
#     Edge 8, Type (0, 0), BuildingBlock: KIFKEQ_clean_linker_1, # of connection points: 2
#     Edge 9, Type (0, 0), BuildingBlock: KIFKEQ_clean_linker_1, # of connection points: 2
#     Edge 10, Type (0, 0), BuildingBlock: KIFKEQ_clean_linker_1, # of connection points: 2
#     Edge 11, Type (0, 0), BuildingBlock: KIFKEQ_clean_linker_1, # of connection points: 2
#     Edge 12, Type (0, 0), BuildingBlock: KIFKEQ_clean_linker_1, # of connection points: 2
#     Edge 13, Type (0, 0), BuildingBlock: KIFKEQ_clean_linker_1, # of connection points: 2
#     Edge 14, Type (0, 0), BuildingBlock: KIFKEQ_clean_linker_1, # of connection points: 2
#     Edge 15, Type (0, 0), BuildingBlock: KIFKEQ_clean_linker_1, # of connection points: 2
#     Edge 16, Type (0, 0), BuildingBlock: KIFKEQ_clean_linker_1, # of connection points: 2
#     Edge 17, Type (0, 0), BuildingBlock: KIFKEQ_clean_linker_1, # of connection points: 2
#     Edge 18, Type (0, 0), BuildingBlock: KIFKEQ_clean_linker_1, # of connection points: 2
#     Edge 19, Type (0, 0), BuildingBlock: KIFKEQ_clean_linker_1, # of connection points: 2
#     Edge 20, Type (0, 0), BuildingBlock: KIFKEQ_clean_linker_1, # of connection points: 2
#     Edge 21, Type (0, 0), BuildingBlock: KIFKEQ_clean_linker_1, # of connection points: 2
#     Edge 22, Type (0, 0), BuildingBlock: KIFKEQ_clean_linker_1, # of connection points: 2
#     Edge 23, Type (0, 0), BuildingBlock: KIFKEQ_clean_linker_1, # of connection points: 2
#     Edge 24, Type (0, 0), BuildingBlock: KIFKEQ_clean_linker_1, # of connection points: 2
#     Edge 25, Type (0, 0), BuildingBlock: KIFKEQ_clean_linker_1, # of connection points: 2
#     Edge 26, Type (0, 0), BuildingBlock: KIFKEQ_clean_linker_1, # of connection points: 2
#     Edge 27, Type (0, 0), BuildingBlock: KIFKEQ_clean_linker_1, # of connection points: 2
# Relax obj value: 0.504
# Max RMSD: 0.272
# Mean RMSD: 0.272
data_MOF--net-vmc--node1-BEQFEK_clean_sbu_0--edge1-KIFKEQ_clean_linker_1
_symmetry_space_group_name_H-M    P1
_symmetry_Int_Tables_number       1
_symmetry_cell_setting            triclinic
loop_
_symmetry_equiv_pos_as_xyz
'x, y, z'
_cell_length_a     49.915139
_cell_length_b     48.236891
_cell_length_c     27.745113
_cell_angle_alpha  89.996971
_cell_angle_beta   106.16086
_cell_angle_gamma 89.972699
loop_
_atom_site_label
_atom_site_type_symbol
_atom_site_fract_x
_atom_site_fract_y
_atom_site_fract_z
_atom_type_partial_charge
Co0 Co 0.39101 0.45844 0.12769 0.0
Co1 Co 0.34553 0.41286 0.12362 0.0
C2 C 0.4052 0.40247 0.17653 0.0
O3 O 0.41054 0.4272 0.16725 0.0
O4 O 0.38071 0.39259 0.16057 0.0
C5 C 0.43621 0.46454 0.09416 0.0
O6 O 0.42967 0.43814 0.08803 0.0
C7 C 0.31464 0.36097 0.08907 0.0
C8 C 0.27277 0.37075 0.09651 0.0
C9 C 0.28775 0.35034 0.08008 0.0
N10 N 0.31525 0.3866 0.10878 0.0
N11 N 0.29016 0.39218 0.11344 0.0
C12 C 0.33964 0.34668 0.08066 0.0
H13 H 0.35911 0.35473 0.1063 0.0
H14 H 0.3405 0.35047 0.04172 0.0
H15 H 0.33852 0.32399 0.08643 0.0
C16 C 0.36419 0.45964 0.01948 0.0
N17 N 0.36705 0.44828 0.06494 0.0
N18 N 0.34798 0.42899 0.06148 0.0
C19 C 0.33249 0.42741 0.01284 0.0
C20 C 0.3427 0.44654 0.98492 0.0
C21 C 0.37954 0.48476 0.00963 0.0
H22 H 0.38456 0.49873 0.04262 0.0
H23 H 0.39907 0.47816 1.00136 0.0
H24 H 0.36694 0.49644 0.97658 0.0
O25 O 0.36902 0.47721 0.16639 0.0
O26 O 0.33832 0.4438 0.1688 0.0
H27 H 0.29332 0.41165 0.01812 0.0
H28 H 0.29592 0.41485 0.95457 0.0
C29 C 0.30741 0.4094 0.99374 0.0
H30 H 0.31406 0.38746 0.99473 0.0
H31 H 0.28476 0.41085 0.1273 0.0
O32 O 0.42183 0.48012 0.11449 0.0
C33 C 0.3486 0.46804 0.18106 0.0
Co34 Co 0.61198 0.45854 0.38728 0.0
Co35 Co 0.65705 0.41282 0.38958 0.0
C36 C 0.5963 0.40129 0.3462 0.0
O37 O 0.59097 0.42606 0.35555 0.0
O38 O 0.62123 0.39213 0.35724 0.0
C39 C 0.55842 0.48078 0.38572 0.0
O40 O 0.54857 0.4606 0.35397 0.0
C41 C 0.6872 0.36085 0.4214 0.0
C42 C 0.72988 0.37116 0.41879 0.0
C43 C 0.71407 0.35027 0.43159 0.0
N44 N 0.68716 0.38676 0.40346 0.0
N45 N 0.71267 0.39269 0.40145 0.0
C46 C 0.66264 0.34788 0.43357 0.0
H47 H 0.64842 0.36414 0.44054 0.0
H48 H 0.66947 0.33422 0.46694 0.0
H49 H 0.65101 0.33516 0.40118 0.0
C50 C 0.63925 0.45952 0.49498 0.0
N51 N 0.63667 0.44891 0.44916 0.0
N52 N 0.65609 0.43007 0.45172 0.0
C53 C 0.67193 0.42838 0.50005 0.0
C54 C 0.66151 0.44689 0.52877 0.0
C55 C 0.62149 0.48241 0.50577 0.0
H56 H 0.59972 0.47492 0.49847 0.0
H57 H 0.62889 0.48971 0.54516 0.0
H58 H 0.62168 0.50013 0.4804 0.0
O59 O 0.63289 0.475 0.3443 0.0
O60 O 0.66384 0.44209 0.34183 0.0
H61 H 0.71125 0.41295 0.4951 0.0
H62 H 0.70778 0.41418 0.55831 0.0
C63 C 0.69671 0.4099 0.51843 0.0
H64 H 0.68978 0.38798 0.51481 0.0
H65 H 0.71855 0.41177 0.3899 0.0
O66 O 0.58458 0.48494 0.40036 0.0
C67 C 0.653 0.46595 0.32881 0.0
Co68 Co 0.61137 0.55716 0.8828 0.0
Co69 Co 0.65735 0.60212 0.88865 0.0
C70 C 0.59801 0.61422 0.83759 0.0
O71 O 0.59239 0.58927 0.84502 0.0
O72 O 0.62263 0.62379 0.85422 0.0
C73 C 0.56197 0.54753 0.90619 0.0
O74 O 0.56311 0.57473 0.90701 0.0
C75 C 0.68839 0.65343 0.92106 0.0
C76 C 0.73133 0.6419 0.92187 0.0
C77 C 0.71551 0.66341 0.93274 0.0
N78 N 0.68819 0.6273 0.90407 0.0
N79 N 0.71388 0.62062 0.90413 0.0
C80 C 0.66358 0.66721 0.93098 0.0
H81 H 0.64884 0.65144 0.93769 0.0
H82 H 0.67003 0.68127 0.96384 0.0
H83 H 0.65266 0.67963 0.89763 0.0
C84 C 0.63705 0.55562 0.99135 0.0
N85 N 0.6349 0.56681 0.94605 0.0
N86 N 0.65452 0.58559 0.95004 0.0
C87 C 0.66973 0.58695 0.99878 0.0
C88 C 0.65885 0.56815 0.02628 0.0
C89 C 0.62022 0.53153 1.00063 0.0
H90 H 0.61718 0.51631 0.96966 0.0
H91 H 0.59959 0.53911 1.00262 0.0
H92 H 0.63053 0.52096 0.03654 0.0
O93 O 0.6335 0.5386 0.84422 0.0
O94 O 0.66426 0.57189 0.84235 0.0
H95 H 0.70997 0.60128 0.99701 0.0
H96 H 0.70468 0.6011 0.05895 0.0
C97 C 0.69465 0.60508 0.01853 0.0
H98 H 0.68816 0.62711 0.01355 0.0
H99 H 0.71966 0.60123 0.89365 0.0
O100 O 0.58099 0.53398 0.89401 0.0
C101 C 0.65397 0.54774 0.82983 0.0
Co102 Co 0.39325 0.55728 0.62828 0.0
Co103 Co 0.34712 0.60218 0.62452 0.0
C104 C 0.40674 0.6134 0.67677 0.0
O105 O 0.41237 0.58866 0.66808 0.0
O106 O 0.38215 0.62301 0.66042 0.0
C107 C 0.43967 0.55182 0.59722 0.0
O108 O 0.43402 0.57847 0.59363 0.0
C109 C 0.31555 0.65346 0.58874 0.0
C110 C 0.27439 0.64421 0.59995 0.0
C111 C 0.28878 0.66419 0.58117 0.0
N112 N 0.31663 0.62818 0.60996 0.0
N113 N 0.29198 0.6229 0.61683 0.0
C114 C 0.34003 0.66735 0.57766 0.0
H115 H 0.35988 0.65907 0.60169 0.0
H116 H 0.33964 0.66346 0.53811 0.0
H117 H 0.33932 0.69008 0.58346 0.0
C118 C 0.36643 0.55623 0.52003 0.0
N119 N 0.36917 0.56746 0.56555 0.0
N120 N 0.34945 0.58606 0.5624 0.0
C121 C 0.33348 0.58712 0.51405 0.0
C122 C 0.34417 0.56856 0.48584 0.0
C123 C 0.38264 0.5318 0.50996 0.0
H124 H 0.38733 0.51732 0.54223 0.0
H125 H 0.40242 0.53917 0.50363 0.0
H126 H 0.37091 0.5204 0.47586 0.0
O127 O 0.37143 0.53807 0.667 0.0
O128 O 0.3405 0.57117 0.66995 0.0
H129 H 0.29432 0.60169 0.5217 0.0
H130 H 0.29533 0.59732 0.45742 0.0
C131 C 0.30744 0.6039 0.4956 0.0
H132 H 0.313 0.62603 0.49415 0.0
H133 H 0.28701 0.60455 0.6323 0.0
O134 O 0.42424 0.53588 0.6146 0.0
C135 C 0.35101 0.54699 0.68197 0.0
Co136 Co 0.88614 0.96001 0.12424 0.0
Co137 Co 0.84382 0.91269 0.12626 0.0
C138 C 0.9046 0.90299 0.1664 0.0
O139 O 0.90811 0.9281 0.15655 0.0
O140 O 0.88026 0.89262 0.15677 0.0
C141 C 0.92844 0.96848 0.08422 0.0
O142 O 0.92086 0.94262 0.07347 0.0
C143 C 0.81528 0.86032 0.09493 0.0
C144 C 0.77561 0.86527 0.11449 0.0
C145 C 0.7903 0.84681 0.09295 0.0
N146 N 0.81515 0.88527 0.11647 0.0
N147 N 0.79146 0.88807 0.12839 0.0
C148 C 0.83823 0.85105 0.07356 0.0
H149 H 0.85075 0.86907 0.06758 0.0
H150 H 0.82962 0.84003 0.03746 0.0
H151 H 0.85229 0.83679 0.10046 0.0
C152 C 0.85447 0.96255 0.01876 0.0
N153 N 0.85973 0.95057 0.06414 0.0
N154 N 0.84222 0.92997 0.06254 0.0
C155 C 0.82548 0.92799 0.01481 0.0
C156 C 0.83303 0.94851 0.98586 0.0
C157 C 0.8686 0.98811 0.00721 0.0
H158 H 0.87461 1.00187 0.04045 0.0
H159 H 0.88751 0.98205 0.99619 0.0
H160 H 0.85475 0.99975 0.97542 0.0
O161 O 0.86671 0.97695 0.16922 0.0
O162 O 0.83772 0.94246 0.17426 0.0
H163 H 0.78992 0.90655 0.02532 0.0
H164 H 0.78788 0.91428 0.96051 0.0
C165 C 0.80197 0.90793 0.99735 0.0
H166 H 0.81051 0.88715 0.99318 0.0
H167 H 0.78594 0.90568 0.14528 0.0
O168 O 0.91501 0.98315 0.10781 0.0
C169 C 0.84758 0.96683 0.18637 0.0
Co170 Co 0.11423 0.96008 0.3892 0.0
Co171 Co 0.15573 0.91183 0.38738 0.0
C172 C 0.09482 0.90265 0.35027 0.0
O173 O 0.09183 0.92792 0.35972 0.0
O174 O 0.11899 0.89197 0.35874 0.0
C175 C 0.07493 0.96917 0.43547 0.0
O176 O 0.08417 0.94393 0.44803 0.0
C177 C 0.18507 0.85988 0.42134 0.0
C178 C 0.22249 0.86286 0.39396 0.0
C179 C 0.20917 0.84586 0.42033 0.0
N180 N 0.1843 0.88418 0.39719 0.0
N181 N 0.20672 0.88583 0.38084 0.0
C182 C 0.162 0.84954 0.44137 0.0
H183 H 0.1475 0.86665 0.44353 0.0
H184 H 0.1704 0.84018 0.47901 0.0
H185 H 0.15029 0.83318 0.41599 0.0
C186 C 0.14824 0.96461 0.49293 0.0
N187 N 0.14179 0.95154 0.44844 0.0
N188 N 0.15833 0.93004 0.45072 0.0
C189 C 0.17534 0.92836 0.4983 0.0
C190 C 0.16925 0.95025 0.5262 0.0
C191 C 0.13527 0.99113 0.50345 0.0
H192 H 0.12774 1.00356 0.46871 0.0
H193 H 0.11758 0.98633 0.51897 0.0
H194 H 0.15051 1.00365 0.53185 0.0
O195 O 0.13263 0.97604 0.342 0.0
O196 O 0.16141 0.94111 0.33786 0.0
H197 H 0.21004 0.90489 0.48916 0.0
H198 H 0.21181 0.9131 0.55367 0.0
C199 C 0.19773 0.90719 0.51657 0.0
H200 H 0.18803 0.88696 0.52039 0.0
H201 H 0.21124 0.90261 0.36067 0.0
O202 O 0.08578 0.9833 0.40693 0.0
C203 C 0.15153 0.96542 0.32482 0.0
Co204 Co 0.11436 0.0537 0.88955 0.0
Co205 Co 0.15567 0.10202 0.88747 0.0
C206 C 0.09475 0.11114 0.85079 0.0
O207 O 0.09186 0.08585 0.86023 0.0
O208 O 0.11888 0.12187 0.85916 0.0
C209 C 0.07525 0.04455 0.93616 0.0
O210 O 0.08452 0.06976 0.9488 0.0
C211 C 0.18421 0.15457 0.91903 0.0
C212 C 0.22378 0.14956 0.89919 0.0
C213 C 0.20925 0.16797 0.92111 0.0
N214 N 0.18417 0.12968 0.89711 0.0
N215 N 0.20781 0.12687 0.88502 0.0
C216 C 0.16141 0.16386 0.94076 0.0
H217 H 0.14883 0.14587 0.94666 0.0
H218 H 0.17019 0.17474 0.97695 0.0
H219 H 0.14739 0.17828 0.91414 0.0
C220 C 0.14857 0.04915 0.99316 0.0
N221 N 0.14201 0.06222 0.94866 0.0
N222 N 0.15846 0.08377 0.95086 0.0
C223 C 0.1755 0.0855 0.99839 0.0
C224 C 0.16955 0.06357 0.02636 0.0
C225 C 0.1357 0.0226 1.00378 0.0
H226 H 0.12811 0.0102 0.96905 0.0
H227 H 0.11807 0.02738 0.01948 0.0
H228 H 0.15102 0.01009 0.03207 0.0
O229 O 0.13266 0.03779 0.84217 0.0
O230 O 0.1613 0.07277 0.83783 0.0
H231 H 0.20998 0.10922 0.98907 0.0
H232 H 0.21194 0.10089 0.0536 0.0
C233 C 0.19776 0.10679 0.01657 0.0
H234 H 0.18795 0.12696 0.0205 0.0
H235 H 0.21323 0.10929 0.86791 0.0
O236 O 0.08601 0.03045 0.90744 0.0
C237 C 0.15147 0.04845 0.82485 0.0
Co238 Co 0.88631 0.05436 0.62442 0.0
Co239 Co 0.84377 0.10156 0.62633 0.0
C240 C 0.90454 0.11138 0.66667 0.0
O241 O 0.90815 0.08629 0.65682 0.0
O242 O 0.88015 0.1217 0.65693 0.0
C243 C 0.92881 0.04588 0.58477 0.0
O244 O 0.92137 0.07179 0.57418 0.0
C245 C 0.81492 0.1538 0.59464 0.0
C246 C 0.77548 0.14886 0.61499 0.0
C247 C 0.78994 0.16728 0.59292 0.0
N248 N 0.81499 0.12892 0.61653 0.0
N249 N 0.79144 0.12612 0.6289 0.0
C250 C 0.83772 0.16302 0.57287 0.0
H251 H 0.85036 0.14502 0.56722 0.0
H252 H 0.82894 0.17377 0.53653 0.0
H253 H 0.85171 0.17751 0.59936 0.0
C254 C 0.85476 0.05184 0.51887 0.0
N255 N 0.85993 0.06381 0.56425 0.0
N256 N 0.84227 0.0843 0.56263 0.0
C257 C 0.82549 0.08618 0.51492 0.0
C258 C 0.8332 0.06576 0.48598 0.0
C259 C 0.86905 0.02637 0.50734 0.0
H260 H 0.87501 0.01255 0.54053 0.0
H261 H 0.88799 0.03252 0.49657 0.0
H262 H 0.85532 0.01474 0.47541 0.0
O263 O 0.86685 0.03735 0.66929 0.0
O264 O 0.83773 0.07175 0.67428 0.0
H265 H 0.78986 0.10742 0.5257 0.0
H266 H 0.78758 0.09942 0.46089 0.0
C267 C 0.80175 0.10601 0.49749 0.0
H268 H 0.81004 0.12683 0.49279 0.0
H269 H 0.7861 0.10856 0.64616 0.0
O270 O 0.91524 0.03124 0.60812 0.0
C271 C 0.84767 0.0474 0.6864 0.0
H272 H 0.32578 0.56282 0.75378 0.0
H273 H 0.35312 0.4907 0.6884 0.0
H274 H 0.31665 0.53381 0.8196 0.0
H275 H 0.34286 0.46152 0.75253 0.0
H276 H 0.29747 0.4762 0.93172 0.0
H277 H 0.29215 0.49786 0.84946 0.0
H278 H 0.36616 0.45488 0.83777 0.0
H279 H 0.37066 0.43311 0.91854 0.0
C280 C 0.3291 0.54067 0.75268 0.0
C281 C 0.34065 0.52913 0.71646 0.0
C282 C 0.32372 0.52394 0.79029 0.0
C283 C 0.32943 0.49527 0.79203 0.0
C284 C 0.33891 0.48357 0.75331 0.0
C285 C 0.34469 0.5003 0.71634 0.0
C286 C 0.31172 0.47057 0.91017 0.0
C287 C 0.33414 0.45265 0.93066 0.0
C288 C 0.30902 0.48328 0.86355 0.0
C289 C 0.32883 0.47836 0.83688 0.0
C290 C 0.35017 0.45893 0.85642 0.0
C291 C 0.3528 0.44632 0.90276 0.0
H292 H 0.70596 0.47825 0.57851 0.0
H293 H 0.63634 0.43154 0.59849 0.0
H294 H 0.71219 0.5 0.66083 0.0
H295 H 0.64164 0.45348 0.67937 0.0
H296 H 0.65466 0.49146 0.82668 0.0
H297 H 0.66553 0.4621 0.76332 0.0
H298 H 0.68701 0.53483 0.69089 0.0
H299 H 0.67744 0.56401 0.75607 0.0
C300 C 0.69273 0.4719 0.60155 0.0
C301 C 0.67095 0.45302 0.5829 0.0
C302 C 0.69593 0.48464 0.64824 0.0
C303 C 0.67724 0.47882 0.67675 0.0
C304 C 0.65675 0.45831 0.6592 0.0
C305 C 0.65367 0.44559 0.61281 0.0
C306 C 0.66223 0.5011 0.79772 0.0
C307 C 0.6648 0.53006 0.79586 0.0
C308 C 0.66835 0.48428 0.76121 0.0
C309 C 0.67662 0.49603 0.7212 0.0
C310 C 0.68092 0.52492 0.72123 0.0
C311 C 0.67528 0.54174 0.75844 0.0
H312 H 0.67641 0.44987 0.25459 0.0
H313 H 0.65195 0.52213 0.3238 0.0
H314 H 0.68503 0.47915 0.18848 0.0
H315 H 0.66166 0.55148 0.25943 0.0
H316 H 0.70401 0.53784 0.07722 0.0
H317 H 0.70996 0.51537 0.15899 0.0
H318 H 0.63681 0.55843 0.17457 0.0
H319 H 0.6316 0.58092 0.09415 0.0
C320 C 0.6736 0.47208 0.25639 0.0
C321 C 0.66298 0.48364 0.29374 0.0
C322 C 0.6787 0.48893 0.21868 0.0
C323 C 0.67361 0.51771 0.21807 0.0
C324 C 0.6651 0.52937 0.25786 0.0
C325 C 0.65961 0.51254 0.2949 0.0
C326 C 0.69007 0.54327 0.09949 0.0
C327 C 0.66766 0.56139 0.08021 0.0
C328 C 0.69314 0.53011 0.14582 0.0
C329 C 0.67377 0.53489 0.1734 0.0
C330 C 0.65245 0.5545 0.1551 0.0
C331 C 0.64942 0.56752 0.10901 0.0
H332 H 0.32485 0.45166 0.25453 0.0
H333 H 0.34915 0.52432 0.18627 0.0
H334 H 0.31644 0.4805 0.32128 0.0
H335 H 0.33963 0.55329 0.25137 0.0
H336 H 0.29886 0.53814 0.43538 0.0
H337 H 0.29221 0.51629 0.35289 0.0
H338 H 0.36478 0.55983 0.336 0.0
H339 H 0.37066 0.58172 0.41709 0.0
C340 C 0.32758 0.47389 0.25299 0.0
C341 C 0.33814 0.48566 0.2157 0.0
C342 C 0.32264 0.4905 0.29114 0.0
C343 C 0.32782 0.51927 0.29235 0.0
C344 C 0.33614 0.53117 0.25253 0.0
C345 C 0.34148 0.51457 0.21501 0.0
C346 C 0.31252 0.5438 0.41272 0.0
C347 C 0.33494 0.56192 0.4318 0.0
C348 C 0.30904 0.53101 0.36593 0.0
C349 C 0.32804 0.5361 0.33767 0.0
C350 C 0.3494 0.55566 0.35592 0.0
C351 C 0.35282 0.56832 0.40244 0.0
H352 H 0.79031 0.98154 0.93466 0.0
H353 H 0.85741 0.92999 0.91725 0.0
H354 H 0.78669 1.00318 0.85317 0.0
H355 H 0.85492 0.95193 0.83743 0.0
H356 H 0.84655 0.99112 0.69127 0.0
H357 H 0.83401 0.96244 0.75371 0.0
H358 H 0.81401 0.03619 0.82535 0.0
H359 H 0.82517 0.06472 0.76092 0.0
C360 C 0.80342 0.97403 0.9122 0.0
C361 C 0.82374 0.95377 0.93142 0.0
C362 C 0.80181 0.98679 0.86607 0.0
C363 C 0.82079 0.97972 0.83874 0.0
C364 C 0.83963 0.95781 0.85662 0.0
C365 C 0.84105 0.94502 0.90239 0.0
C366 C 0.83912 1.00118 0.72001 0.0
C367 C 0.83724 0.03021 0.72163 0.0
C368 C 0.832 0.98472 0.75601 0.0
C369 C 0.82339 0.99686 0.79534 0.0
C370 C 0.82023 0.02593 0.79547 0.0
C371 C 0.82685 0.0424 0.75874 0.0
H372 H 0.17269 0.06675 0.74923 0.0
H373 H 0.15419 0.99232 0.8201 0.0
H374 H 0.18453 0.0387 0.6848 0.0
H375 H 0.16746 0.96419 0.75778 0.0
H376 H 0.14586 0.93051 0.59533 0.0
H377 H 0.14725 0.95267 0.6745 0.0
H378 H 0.21304 1.00689 0.65748 0.0
H379 H 0.21045 0.98506 0.57661 0.0
C380 C 0.17175 0.04437 0.75162 0.0
C381 C 0.162 0.03177 0.78911 0.0
C382 C 0.17878 0.02819 0.71492 0.0
C383 C 0.1767 0.99902 0.7155 0.0
C384 C 0.16863 0.98653 0.7551 0.0
C385 C 0.16109 1.00268 0.79103 0.0
C386 C 0.1615 0.94627 0.60981 0.0
C387 C 0.17837 0.95579 0.58056 0.0
C388 C 0.16226 0.95921 0.6552 0.0
C389 C 0.18003 0.98198 0.67247 0.0
C390 C 0.19869 0.98984 0.64502 0.0
C391 C 0.19771 0.97698 0.59925 0.0
H392 H 0.14608 0.08338 0.09535 0.0
H393 H 0.21079 0.02883 0.07698 0.0
H394 H 0.1474 0.06125 0.17451 0.0
H395 H 0.21333 1.00703 0.15786 0.0
H396 H 0.17295 0.94717 0.24944 0.0
H397 H 0.18486 0.97522 0.1851 0.0
H398 H 0.16745 0.04971 0.25781 0.0
H399 H 0.15411 0.02156 0.32002 0.0
C400 C 0.16174 0.06763 0.10992 0.0
C401 C 0.17866 0.05809 0.08075 0.0
C402 C 0.16246 0.05471 0.1553 0.0
C403 C 0.18024 0.03194 0.17267 0.0
C404 C 0.19896 0.02408 0.14532 0.0
C405 C 0.19801 0.03692 0.09955 0.0
C406 C 0.17195 0.96954 0.25179 0.0
C407 C 0.16209 0.98213 0.28917 0.0
C408 C 0.17901 0.98573 0.21514 0.0
C409 C 0.17686 0.0149 0.21566 0.0
C410 C 0.16868 0.02738 0.25516 0.0
C411 C 0.1611 0.01121 0.29103 0.0
H412 H 0.79056 0.03256 0.43517 0.0
H413 H 0.85735 0.08427 0.41706 0.0
H414 H 0.78684 0.01086 0.35369 0.0
H415 H 0.85475 0.06228 0.33724 0.0
H416 H 0.84616 0.0231 0.19105 0.0
H417 H 0.83365 0.05173 0.25359 0.0
H418 H 0.81421 0.97792 0.32569 0.0
H419 H 0.82534 0.94942 0.26116 0.0
C420 C 0.80357 0.04008 0.41256 0.0
C421 C 0.82384 0.06041 0.43157 0.0
C422 C 0.80191 0.0273 0.36643 0.0
C423 C 0.82077 0.03441 0.3389 0.0
C424 C 0.83956 0.05637 0.35658 0.0
C425 C 0.84103 0.06919 0.40235 0.0
C426 C 0.83885 0.01302 0.21992 0.0
C427 C 0.83713 0.98397 0.22164 0.0
C428 C 0.83175 0.02945 0.25597 0.0
C429 C 0.82331 0.01727 0.29546 0.0
C430 C 0.8203 0.9882 0.29569 0.0
C431 C 0.8269 0.97175 0.2589 0.0
H432 H 0.46184 0.43728 0.03379 0.0
H433 H 0.4557 0.51789 0.09801 0.0
H434 H 0.49103 0.45655 0.98563 0.0
H435 H 0.48619 0.53708 0.05117 0.0
H436 H 0.56482 0.49476 0.94304 0.0
H437 H 0.53576 0.47465 0.99138 0.0
H438 H 0.48471 0.54859 0.96682 0.0
H439 H 0.51449 0.56908 0.92035 0.0
C440 C 0.46714 0.45908 0.03835 0.0
C441 C 0.45641 0.47612 0.06968 0.0
C442 C 0.48402 0.4701 0.01077 0.0
C443 C 0.49088 0.49837 0.0143 0.0
C444 C 0.48083 0.5153 0.04684 0.0
C445 C 0.46362 0.50429 0.07409 0.0
C446 C 0.54716 0.50652 0.94742 0.0
C447 C 0.54198 0.53351 0.92818 0.0
C448 C 0.5305 0.49504 0.97517 0.0
C449 C 0.50809 0.51016 0.98354 0.0
C450 C 0.50223 0.53668 0.96226 0.0
C451 C 0.51909 0.54828 0.9351 0.0
H452 H 0.57245 0.52187 0.4559 0.0
H453 H 0.50375 0.46946 0.37809 0.0
H454 H 0.54555 0.53789 0.51122 0.0
H455 H 0.47643 0.48634 0.43241 0.0
H456 H 0.44719 0.49789 0.57232 0.0
H457 H 0.47625 0.48165 0.52013 0.0
H458 H 0.50563 0.56531 0.51178 0.0
H459 H 0.4775 0.58125 0.56481 0.0
C460 C 0.55144 0.51409 0.45006 0.0
C461 C 0.54036 0.49417 0.41294 0.0
C462 C 0.536 0.52333 0.48175 0.0
C463 C 0.50901 0.51306 0.47667 0.0
C464 C 0.49743 0.49411 0.43803 0.0
C465 C 0.51294 0.48476 0.40644 0.0
C466 C 0.46032 0.51263 0.56015 0.0
C467 C 0.46001 0.54082 0.57249 0.0
C468 C 0.47664 0.50344 0.52972 0.0
C469 C 0.49295 0.52228 0.51132 0.0
C470 C 0.49346 0.55023 0.52553 0.0
C471 C 0.47723 0.55938 0.55585 0.0
H472 H 0.04402 0.99754 0.90809 0.0
H473 H 0.05879 0.06543 0.01393 0.0
H474 H 0.00806 0.97962 0.94421 0.0
H475 H 0.02382 0.04716 0.0509 0.0
H476 H 0.93912 0.02308 0.07033 0.0
H477 H 0.97439 0.04141 0.03299 0.0
H478 H 0.00354 0.9581 0.01952 0.0
H479 H 0.96789 0.93989 0.05517 0.0
C480 C 0.03972 0.00847 0.93923 0.0
C481 C 0.05406 0.03289 0.95803 0.0
C482 C 0.01925 0.9982 0.96006 0.0
C483 C 0.01305 0.01206 1.00034 0.0
C484 C 0.02769 0.03631 0.0193 0.0
C485 C 0.04787 0.04667 0.99825 0.0
C486 C 0.95323 0.0088 0.05966 0.0
C487 C 0.95079 0.98013 0.06545 0.0
C488 C 0.97342 0.01923 0.03834 0.0
C489 C 0.99164 1.00115 0.02301 0.0
C490 C 0.98945 0.97252 0.02989 0.0
C491 C 0.96917 0.96212 0.05069 0.0
H492 H 0.93902 0.99125 0.57016 0.0
H493 H 0.96854 0.07424 0.55616 0.0
H494 H 0.97408 0.97274 0.53245 0.0
H495 H 0.00399 0.05585 0.52015 0.0
H496 H 0.04405 0.01649 0.40806 0.0
H497 H 0.00827 0.03456 0.44449 0.0
H498 H 0.02342 0.96649 0.55007 0.0
H499 H 0.0582 0.94807 0.51279 0.0
C500 C 0.95326 1.00544 0.55968 0.0
C501 C 0.95109 0.03411 0.5659 0.0
C502 C 0.97332 0.99491 0.53814 0.0
C503 C 0.99169 0.01289 0.52302 0.0
C504 C 0.98978 0.04151 0.53035 0.0
C505 C 0.96961 0.05201 0.55136 0.0
C506 C 0.03965 1.00547 0.43901 0.0
C507 C 0.05377 0.98086 0.45742 0.0
C508 C 0.01928 0.01582 0.46003 0.0
C509 C 0.01297 1.00187 0.50011 0.0
C510 C 0.02737 0.97742 0.51864 0.0
C511 C 0.04745 0.96697 0.49741 0.0
H512 H 0.30192 0.32118 1.00514 0.0
H513 H 0.24581 0.31979 0.09882 0.0
H514 H 0.28325 0.27706 0.96835 0.0
H515 H 0.22619 0.27602 0.05999 0.0
H516 H 0.17994 0.2154 0.9318 0.0
H517 H 0.19872 0.25885 0.9718 0.0
H518 H 0.28228 0.22683 0.99839 0.0
H519 H 0.26356 0.18277 0.96046 0.0
C520 C 0.28613 0.31123 0.01892 0.0
C521 C 0.27621 0.32359 0.05656 0.0
C522 C 0.27515 0.28604 0.99722 0.0
C523 C 0.25347 0.27295 0.01166 0.0
C524 C 0.2429 0.28566 0.04812 0.0
C525 C 0.25418 0.31068 0.07038 0.0
C526 C 0.20223 0.21711 0.94749 0.0
C527 C 0.22013 0.19506 0.94423 0.0
C528 C 0.21301 0.24223 0.96996 0.0
C529 C 0.24194 0.24616 0.98854 0.0
C530 C 0.25987 0.22443 0.98427 0.0
C531 C 0.2491 0.19918 0.96252 0.0
H532 H 0.69119 0.2987 0.40994 0.0
H533 H 0.76148 0.34175 0.50664 0.0
H534 H 0.70964 0.25475 0.44868 0.0
H535 H 0.77938 0.29822 0.54751 0.0
H536 H 0.81939 0.21424 0.5806 0.0
H537 H 0.80107 0.25711 0.53944 0.0
H538 H 0.71708 0.22709 0.51965 0.0
H539 H 0.73563 0.18298 0.55652 0.0
C540 C 0.71039 0.29874 0.44011 0.0
C541 C 0.72485 0.32358 0.45553 0.0
C542 C 0.72098 0.27356 0.46258 0.0
C543 C 0.74609 0.27268 0.50156 0.0
C544 C 0.76035 0.29777 0.51703 0.0
C545 C 0.75002 0.32283 0.49387 0.0
C546 C 0.79707 0.21621 0.56595 0.0
C547 C 0.77911 0.19449 0.57024 0.0
C548 C 0.78642 0.24132 0.54334 0.0
C549 C 0.75745 0.2458 0.52567 0.0
C550 C 0.73948 0.22435 0.53148 0.0
C551 C 0.75016 0.19906 0.55327 0.0
H552 H 0.73614 0.83119 0.05448 0.0
H553 H 0.82012 0.79973 0.0829 0.0
H554 H 0.71797 0.78698 0.01757 0.0
H555 H 0.80222 0.75664 0.04194 0.0
H556 H 0.76219 0.67196 0.00948 0.0
H557 H 0.77993 0.71566 0.0499 0.0
H558 H 0.71184 0.75916 0.94674 0.0
H559 H 0.69357 0.71513 0.90826 0.0
C560 C 0.75081 0.81502 0.05221 0.0
C561 C 0.7797 0.81955 0.07038 0.0
C562 C 0.74036 0.78968 0.03042 0.0
C563 C 0.75853 0.76813 0.02588 0.0
C564 C 0.78744 0.77255 0.04481 0.0
C565 C 0.79785 0.79774 0.06734 0.0
C566 C 0.75107 0.69093 0.99562 0.0
C567 C 0.72637 0.69018 0.95618 0.0
C568 C 0.76131 0.71607 0.01854 0.0
C569 C 0.74741 0.7412 1.00179 0.0
C570 C 0.72284 0.74032 0.96162 0.0
C571 C 0.71236 0.71509 0.93933 0.0
H572 H 0.225 0.80143 0.37476 0.0
H573 H 0.21786 0.8301 0.51779 0.0
H574 H 0.24295 0.75699 0.41239 0.0
H575 H 0.23662 0.78616 0.55626 0.0
H576 H 0.24812 0.69556 0.60244 0.0
H577 H 0.22754 0.73855 0.56259 0.0
H578 H 0.2821 0.73588 0.46593 0.0
H579 H 0.30088 0.69206 0.50294 0.0
C580 C 0.22729 0.79811 0.41432 0.0
C581 C 0.2195 0.81884 0.44316 0.0
C582 C 0.23778 0.77275 0.4361 0.0
C583 C 0.24127 0.76778 0.48756 0.0
C584 C 0.23364 0.78884 0.51637 0.0
C585 C 0.22283 0.81404 0.49437 0.0
C586 C 0.25566 0.70417 0.5726 0.0
C587 C 0.27686 0.69073 0.55717 0.0
C588 C 0.24403 0.72899 0.54998 0.0
C589 C 0.2533 0.74104 0.51124 0.0
C590 C 0.27424 0.7273 0.49539 0.0
C591 C 0.28561 0.70236 0.51763 0.0
H592 H 0.57366 0.39327 0.24674 0.0
H593 H 0.5632 0.3733 0.39167 0.0
H594 H 0.52504 0.38139 0.20719 0.0
H595 H 0.51458 0.36061 0.3524 0.0
H596 H 0.4291 0.40505 0.27613 0.0
H597 H 0.47696 0.39227 0.31881 0.0
H598 H 0.4842 0.35202 0.1838 0.0
H599 H 0.43605 0.36541 0.14108 0.0
C600 C 0.56131 0.38477 0.26973 0.0
C601 C 0.57219 0.38377 0.32204 0.0
C602 C 0.53333 0.37803 0.24717 0.0
C603 C 0.51564 0.37038 0.27664 0.0
C604 C 0.52745 0.36679 0.32861 0.0
C605 C 0.5554 0.37364 0.35111 0.0
C606 C 0.4405 0.39225 0.25648 0.0
C607 C 0.42883 0.38577 0.20573 0.0
C608 C 0.46805 0.38493 0.28084 0.0
C609 C 0.48469 0.37127 0.25469 0.0
C610 C 0.47212 0.36275 0.20495 0.0
C611 C 0.44443 0.37002 0.18064 0.0
H612 H 0.43665 0.64846 0.63584 0.0
H613 H 0.43175 0.61418 0.77645 0.0
H614 H 0.4852 0.6619 0.67469 0.0
H615 H 0.48006 0.62735 0.8155 0.0
H616 H 0.57336 0.61705 0.73793 0.0
H617 H 0.52482 0.62965 0.69951 0.0
H618 H 0.51878 0.66043 0.84234 0.0
H619 H 0.56757 0.64756 0.88053 0.0
C620 C 0.44555 0.64517 0.67574 0.0
C621 C 0.43041 0.63079 0.7035 0.0
C622 C 0.47345 0.6525 0.69785 0.0
C623 C 0.48668 0.6455 0.74813 0.0
C624 C 0.47055 0.63344 0.77694 0.0
C625 C 0.44278 0.62595 0.7547 0.0
C626 C 0.56208 0.62794 0.76034 0.0
C627 C 0.57427 0.63182 0.81186 0.0
C628 C 0.53416 0.63508 0.73845 0.0
C629 C 0.51773 0.64582 0.76795 0.0
C630 C 0.53077 0.65201 0.81865 0.0
C631 C 0.5588 0.64503 0.84041 0.0
H632 H 0.04986 0.90173 0.38561 0.0
H633 H 0.08099 0.86892 0.26705 0.0
H634 H 0.00277 0.8886 0.33999 0.0
H635 H 0.03338 0.85522 0.22075 0.0
H636 H 0.94939 0.89917 0.13091 0.0
H637 H 0.99627 0.88596 0.17765 0.0
H638 H 0.96523 0.85769 0.29985 0.0
H639 H 0.91786 0.87152 0.25241 0.0
C640 C 0.04668 0.89064 0.35049 0.0
C641 C 0.069 0.88653 0.32964 0.0
C642 C 0.0196 0.88292 0.32432 0.0
C643 C 0.01405 0.87115 0.2762 0.0
C644 C 0.03685 0.86458 0.25746 0.0
C645 C 0.06416 0.87215 0.28408 0.0
C646 C 0.95242 0.88916 0.167 0.0
C647 C 0.93007 0.88655 0.18824 0.0
C648 C 0.97937 0.8814 0.19383 0.0
C649 C 0.98477 0.87108 0.24299 0.0
C650 C 0.96188 0.86592 0.26232 0.0
C651 C 0.9347 0.87356 0.23507 0.0
H652 H 0.0809 0.14533 0.76815 0.0
H653 H 0.04967 0.11156 0.88585 0.0
H654 H 0.0333 0.15917 0.722 0.0
H655 H 0.00259 0.12485 0.84037 0.0
H656 H 0.91774 0.14233 0.75323 0.0
H657 H 0.9651 0.15596 0.80094 0.0
H658 H 0.99614 0.12874 0.67809 0.0
H659 H 0.94925 0.11574 0.63106 0.0
C660 C 0.06405 0.1419 0.78503 0.0
C661 C 0.06886 0.12722 0.83029 0.0
C662 C 0.03674 0.14956 0.75849 0.0
C663 C 0.01392 0.14279 0.77702 0.0
C664 C 0.01944 0.13068 0.82487 0.0
C665 C 0.04651 0.12288 0.85096 0.0
C666 C 0.93457 0.1405 0.73582 0.0
C667 C 0.92994 0.12786 0.68869 0.0
C668 C 0.96175 0.14801 0.76323 0.0
C669 C 0.98464 0.14306 0.74378 0.0
C670 C 0.97924 0.13312 0.69438 0.0
C671 C 0.95228 0.12549 0.66736 0.0
loop_
_geom_bond_atom_site_label_1
_geom_bond_atom_site_label_2
_geom_bond_distance
_geom_bond_site_symmetry_2
_ccdc_geom_bond_type
Co0 O3 1.970 . S
Co0 N17 1.989 1_554 S
Co0 O25 1.967 . S
Co0 O32 1.920 . S
Co1 O4 1.966 . S
Co1 N10 2.022 . S
Co1 N18 1.993 1_554 S
Co1 O26 1.941 . S
C2 O3 1.258 . S
C2 O4 1.263 . S
O3 Co0 1.970 . S
O3 C2 1.258 . S
O4 Co1 1.966 . S
O4 C2 1.263 . S
C5 O6 1.235 . S
C5 O32 1.289 . S
O6 C5 1.235 . S
C7 C9 1.400 . S
C7 N10 1.351 . S
C7 C12 1.501 . S
C8 C9 1.387 . S
C8 N11 1.341 . S
C9 C7 1.400 . S
C9 C8 1.387 . S
N10 Co1 2.022 . S
N10 C7 1.351 . S
N10 N11 1.365 . S
N11 C8 1.341 . S
N11 N10 1.365 . S
N11 H31 0.862 . S
C12 C7 1.501 . S
C12 H13 0.961 . S
C12 H14 0.961 . S
C12 H15 0.960 . S
H13 C12 0.961 . S
H14 C12 0.961 . S
H15 C12 0.960 . S
C16 N17 1.342 . S
C16 C20 1.401 . S
C16 C21 1.499 . S
N17 Co0 1.989 1_556 S
N17 C16 1.342 . S
N17 N18 1.388 . S
N18 Co1 1.993 1_556 S
N18 N17 1.388 . S
N18 C19 1.346 . S
C19 N18 1.346 . S
C19 C20 1.396 . S
C19 C29 1.510 . S
C20 C16 1.401 . S
C20 C19 1.396 . S
C21 C16 1.499 . S
C21 H22 0.959 . S
C21 H23 0.960 . S
C21 H24 0.961 . S
H22 C21 0.959 . S
H23 C21 0.960 . S
H24 C21 0.961 . S
O25 Co0 1.967 . S
O25 C33 1.258 . S
O26 Co1 1.941 . S
O26 C33 1.266 . S
H27 C29 0.959 . S
H28 C29 0.961 . S
C29 C19 1.510 . S
C29 H27 0.959 . S
C29 H28 0.961 . S
C29 H30 0.960 . S
H30 C29 0.960 . S
H31 N11 0.862 . S
O32 Co0 1.920 . S
O32 C5 1.289 . S
C33 O25 1.258 . S
C33 O26 1.266 . S
Co34 O37 1.970 . S
Co34 N51 1.989 . S
Co34 O59 1.967 . S
Co34 O66 1.920 . S
Co35 O38 1.966 . S
Co35 N44 2.022 . S
Co35 N52 1.993 . S
Co35 O60 1.941 . S
C36 O37 1.258 . S
C36 O38 1.263 . S
O37 Co34 1.970 . S
O37 C36 1.258 . S
O38 Co35 1.966 . S
O38 C36 1.263 . S
C39 O40 1.235 . S
C39 O66 1.289 . S
O40 C39 1.235 . S
C41 C43 1.400 . S
C41 N44 1.351 . S
C41 C46 1.501 . S
C42 C43 1.387 . S
C42 N45 1.341 . S
C43 C41 1.400 . S
C43 C42 1.387 . S
N44 Co35 2.022 . S
N44 C41 1.351 . S
N44 N45 1.365 . S
N45 C42 1.341 . S
N45 N44 1.365 . S
N45 H65 0.862 . S
C46 C41 1.501 . S
C46 H47 0.961 . S
C46 H48 0.961 . S
C46 H49 0.960 . S
H47 C46 0.961 . S
H48 C46 0.961 . S
H49 C46 0.960 . S
C50 N51 1.342 . S
C50 C54 1.401 . S
C50 C55 1.499 . S
N51 Co34 1.989 . S
N51 C50 1.342 . S
N51 N52 1.388 . S
N52 Co35 1.993 . S
N52 N51 1.388 . S
N52 C53 1.346 . S
C53 N52 1.346 . S
C53 C54 1.396 . S
C53 C63 1.510 . S
C54 C50 1.401 . S
C54 C53 1.396 . S
C55 C50 1.499 . S
C55 H56 0.959 . S
C55 H57 0.960 . S
C55 H58 0.961 . S
H56 C55 0.959 . S
H57 C55 0.960 . S
H58 C55 0.961 . S
O59 Co34 1.967 . S
O59 C67 1.258 . S
O60 Co35 1.941 . S
O60 C67 1.266 . S
H61 C63 0.959 . S
H62 C63 0.961 . S
C63 C53 1.510 . S
C63 H61 0.959 . S
C63 H62 0.961 . S
C63 H64 0.960 . S
H64 C63 0.960 . S
H65 N45 0.862 . S
O66 Co34 1.920 . S
O66 C39 1.289 . S
C67 O59 1.258 . S
C67 O60 1.266 . S
Co68 O71 1.970 . S
Co68 N85 1.989 1_556 S
Co68 O93 1.967 . S
Co68 O100 1.920 . S
Co69 O72 1.966 . S
Co69 N78 2.022 . S
Co69 N86 1.993 1_556 S
Co69 O94 1.941 . S
C70 O71 1.258 . S
C70 O72 1.263 . S
O71 Co68 1.970 . S
O71 C70 1.258 . S
O72 Co69 1.966 . S
O72 C70 1.263 . S
C73 O74 1.235 . S
C73 O100 1.289 . S
O74 C73 1.235 . S
C75 C77 1.400 . S
C75 N78 1.351 . S
C75 C80 1.501 . S
C76 C77 1.387 . S
C76 N79 1.341 . S
C77 C75 1.400 . S
C77 C76 1.387 . S
N78 Co69 2.022 . S
N78 C75 1.351 . S
N78 N79 1.365 . S
N79 C76 1.341 . S
N79 N78 1.365 . S
N79 H99 0.862 . S
C80 C75 1.501 . S
C80 H81 0.961 . S
C80 H82 0.961 . S
C80 H83 0.960 . S
H81 C80 0.961 . S
H82 C80 0.961 . S
H83 C80 0.960 . S
C84 N85 1.342 . S
C84 C88 1.401 . S
C84 C89 1.499 . S
N85 Co68 1.989 1_554 S
N85 C84 1.342 . S
N85 N86 1.388 . S
N86 Co69 1.993 1_554 S
N86 N85 1.388 . S
N86 C87 1.346 . S
C87 N86 1.346 . S
C87 C88 1.396 . S
C87 C97 1.510 . S
C88 C84 1.401 . S
C88 C87 1.396 . S
C89 C84 1.499 . S
C89 H90 0.959 . S
C89 H91 0.960 . S
C89 H92 0.961 . S
H90 C89 0.959 . S
H91 C89 0.960 . S
H92 C89 0.961 . S
O93 Co68 1.967 . S
O93 C101 1.258 . S
O94 Co69 1.941 . S
O94 C101 1.266 . S
H95 C97 0.959 . S
H96 C97 0.961 . S
C97 C87 1.510 . S
C97 H95 0.959 . S
C97 H96 0.961 . S
C97 H98 0.960 . S
H98 C97 0.960 . S
H99 N79 0.862 . S
O100 Co68 1.920 . S
O100 C73 1.289 . S
C101 O93 1.258 . S
C101 O94 1.266 . S
Co102 O105 1.970 . S
Co102 N119 1.989 . S
Co102 O127 1.967 . S
Co102 O134 1.920 . S
Co103 O106 1.966 . S
Co103 N112 2.022 . S
Co103 N120 1.993 . S
Co103 O128 1.941 . S
C104 O105 1.258 . S
C104 O106 1.263 . S
O105 Co102 1.970 . S
O105 C104 1.258 . S
O106 Co103 1.966 . S
O106 C104 1.263 . S
C107 O108 1.235 . S
C107 O134 1.289 . S
O108 C107 1.235 . S
C109 C111 1.400 . S
C109 N112 1.351 . S
C109 C114 1.501 . S
C110 C111 1.387 . S
C110 N113 1.341 . S
C111 C109 1.400 . S
C111 C110 1.387 . S
N112 Co103 2.022 . S
N112 C109 1.351 . S
N112 N113 1.365 . S
N113 C110 1.341 . S
N113 N112 1.365 . S
N113 H133 0.862 . S
C114 C109 1.501 . S
C114 H115 0.961 . S
C114 H116 0.961 . S
C114 H117 0.960 . S
H115 C114 0.961 . S
H116 C114 0.961 . S
H117 C114 0.960 . S
C118 N119 1.342 . S
C118 C122 1.401 . S
C118 C123 1.499 . S
N119 Co102 1.989 . S
N119 C118 1.342 . S
N119 N120 1.388 . S
N120 Co103 1.993 . S
N120 N119 1.388 . S
N120 C121 1.346 . S
C121 N120 1.346 . S
C121 C122 1.396 . S
C121 C131 1.510 . S
C122 C118 1.401 . S
C122 C121 1.396 . S
C123 C118 1.499 . S
C123 H124 0.959 . S
C123 H125 0.960 . S
C123 H126 0.961 . S
H124 C123 0.959 . S
H125 C123 0.960 . S
H126 C123 0.961 . S
O127 Co102 1.967 . S
O127 C135 1.258 . S
O128 Co103 1.941 . S
O128 C135 1.266 . S
H129 C131 0.959 . S
H130 C131 0.961 . S
C131 C121 1.510 . S
C131 H129 0.959 . S
C131 H130 0.961 . S
C131 H132 0.960 . S
H132 C131 0.960 . S
H133 N113 0.862 . S
O134 Co102 1.920 . S
O134 C107 1.289 . S
C135 O127 1.258 . S
C135 O128 1.266 . S
Co136 O139 1.970 . S
Co136 N153 1.989 1_554 S
Co136 O161 1.967 . S
Co136 O168 1.920 . S
Co137 O140 1.966 . S
Co137 N146 2.022 . S
Co137 N154 1.993 1_554 S
Co137 O162 1.941 . S
C138 O139 1.258 . S
C138 O140 1.263 . S
O139 Co136 1.970 . S
O139 C138 1.258 . S
O140 Co137 1.966 . S
O140 C138 1.263 . S
C141 O142 1.235 . S
C141 O168 1.289 . S
O142 C141 1.235 . S
C143 C145 1.400 . S
C143 N146 1.351 . S
C143 C148 1.501 . S
C144 C145 1.387 . S
C144 N147 1.341 . S
C145 C143 1.400 . S
C145 C144 1.387 . S
N146 Co137 2.022 . S
N146 C143 1.351 . S
N146 N147 1.365 . S
N147 C144 1.341 . S
N147 N146 1.365 . S
N147 H167 0.862 . S
C148 C143 1.501 . S
C148 H149 0.961 . S
C148 H150 0.961 . S
C148 H151 0.960 . S
H149 C148 0.961 . S
H150 C148 0.961 . S
H151 C148 0.960 . S
C152 N153 1.342 . S
C152 C156 1.401 . S
C152 C157 1.499 . S
N153 Co136 1.989 1_556 S
N153 C152 1.342 . S
N153 N154 1.388 . S
N154 Co137 1.993 1_556 S
N154 N153 1.388 . S
N154 C155 1.346 . S
C155 N154 1.346 . S
C155 C156 1.396 . S
C155 C165 1.510 . S
C156 C152 1.401 . S
C156 C155 1.396 . S
C157 C152 1.499 . S
C157 H158 0.959 . S
C157 H159 0.960 . S
C157 H160 0.961 . S
H158 C157 0.959 . S
H159 C157 0.960 . S
H160 C157 0.961 . S
O161 Co136 1.967 . S
O161 C169 1.258 . S
O162 Co137 1.941 . S
O162 C169 1.266 . S
H163 C165 0.959 . S
H164 C165 0.961 . S
C165 C155 1.510 . S
C165 H163 0.959 . S
C165 H164 0.961 . S
C165 H166 0.960 . S
H166 C165 0.960 . S
H167 N147 0.862 . S
O168 Co136 1.920 . S
O168 C141 1.289 . S
C169 O161 1.258 . S
C169 O162 1.266 . S
Co170 O173 1.970 . S
Co170 N187 1.989 . S
Co170 O195 1.967 . S
Co170 O202 1.920 . S
Co171 O174 1.966 . S
Co171 N180 2.022 . S
Co171 N188 1.993 . S
Co171 O196 1.941 . S
C172 O173 1.258 . S
C172 O174 1.263 . S
O173 Co170 1.970 . S
O173 C172 1.258 . S
O174 Co171 1.966 . S
O174 C172 1.263 . S
C175 O176 1.235 . S
C175 O202 1.289 . S
O176 C175 1.235 . S
C177 C179 1.400 . S
C177 N180 1.351 . S
C177 C182 1.501 . S
C178 C179 1.387 . S
C178 N181 1.341 . S
C179 C177 1.400 . S
C179 C178 1.387 . S
N180 Co171 2.022 . S
N180 C177 1.351 . S
N180 N181 1.365 . S
N181 C178 1.341 . S
N181 N180 1.365 . S
N181 H201 0.862 . S
C182 C177 1.501 . S
C182 H183 0.961 . S
C182 H184 0.961 . S
C182 H185 0.960 . S
H183 C182 0.961 . S
H184 C182 0.961 . S
H185 C182 0.960 . S
C186 N187 1.342 . S
C186 C190 1.401 . S
C186 C191 1.499 . S
N187 Co170 1.989 . S
N187 C186 1.342 . S
N187 N188 1.388 . S
N188 Co171 1.993 . S
N188 N187 1.388 . S
N188 C189 1.346 . S
C189 N188 1.346 . S
C189 C190 1.396 . S
C189 C199 1.510 . S
C190 C186 1.401 . S
C190 C189 1.396 . S
C191 C186 1.499 . S
C191 H192 0.959 . S
C191 H193 0.960 . S
C191 H194 0.961 . S
H192 C191 0.959 . S
H193 C191 0.960 . S
H194 C191 0.961 . S
O195 Co170 1.967 . S
O195 C203 1.258 . S
O196 Co171 1.941 . S
O196 C203 1.266 . S
H197 C199 0.959 . S
H198 C199 0.961 . S
C199 C189 1.510 . S
C199 H197 0.959 . S
C199 H198 0.961 . S
C199 H200 0.960 . S
H200 C199 0.960 . S
H201 N181 0.862 . S
O202 Co170 1.920 . S
O202 C175 1.289 . S
C203 O195 1.258 . S
C203 O196 1.266 . S
Co204 O207 1.970 . S
Co204 N221 1.989 1_556 S
Co204 O229 1.967 . S
Co204 O236 1.920 . S
Co205 O208 1.966 . S
Co205 N214 2.022 . S
Co205 N222 1.993 1_556 S
Co205 O230 1.941 . S
C206 O207 1.258 . S
C206 O208 1.263 . S
O207 Co204 1.970 . S
O207 C206 1.258 . S
O208 Co205 1.966 . S
O208 C206 1.263 . S
C209 O210 1.235 . S
C209 O236 1.289 . S
O210 C209 1.235 . S
C211 C213 1.400 . S
C211 N214 1.351 . S
C211 C216 1.501 . S
C212 C213 1.387 . S
C212 N215 1.341 . S
C213 C211 1.400 . S
C213 C212 1.387 . S
N214 Co205 2.022 . S
N214 C211 1.351 . S
N214 N215 1.365 . S
N215 C212 1.341 . S
N215 N214 1.365 . S
N215 H235 0.862 . S
C216 C211 1.501 . S
C216 H217 0.961 . S
C216 H218 0.961 . S
C216 H219 0.960 . S
H217 C216 0.961 . S
H218 C216 0.961 . S
H219 C216 0.960 . S
C220 N221 1.342 . S
C220 C224 1.401 . S
C220 C225 1.499 . S
N221 Co204 1.989 1_554 S
N221 C220 1.342 . S
N221 N222 1.388 . S
N222 Co205 1.993 1_554 S
N222 N221 1.388 . S
N222 C223 1.346 . S
C223 N222 1.346 . S
C223 C224 1.396 . S
C223 C233 1.510 . S
C224 C220 1.401 . S
C224 C223 1.396 . S
C225 C220 1.499 . S
C225 H226 0.959 . S
C225 H227 0.960 . S
C225 H228 0.961 . S
H226 C225 0.959 . S
H227 C225 0.960 . S
H228 C225 0.961 . S
O229 Co204 1.967 . S
O229 C237 1.258 . S
O230 Co205 1.941 . S
O230 C237 1.266 . S
H231 C233 0.959 . S
H232 C233 0.961 . S
C233 C223 1.510 . S
C233 H231 0.959 . S
C233 H232 0.961 . S
C233 H234 0.960 . S
H234 C233 0.960 . S
H235 N215 0.862 . S
O236 Co204 1.920 . S
O236 C209 1.289 . S
C237 O229 1.258 . S
C237 O230 1.266 . S
Co238 O241 1.970 . S
Co238 N255 1.989 . S
Co238 O263 1.967 . S
Co238 O270 1.920 . S
Co239 O242 1.966 . S
Co239 N248 2.022 . S
Co239 N256 1.993 . S
Co239 O264 1.941 . S
C240 O241 1.258 . S
C240 O242 1.263 . S
O241 Co238 1.970 . S
O241 C240 1.258 . S
O242 Co239 1.966 . S
O242 C240 1.263 . S
C243 O244 1.235 . S
C243 O270 1.289 . S
O244 C243 1.235 . S
C245 C247 1.400 . S
C245 N248 1.351 . S
C245 C250 1.501 . S
C246 C247 1.387 . S
C246 N249 1.341 . S
C247 C245 1.400 . S
C247 C246 1.387 . S
N248 Co239 2.022 . S
N248 C245 1.351 . S
N248 N249 1.365 . S
N249 C246 1.341 . S
N249 N248 1.365 . S
N249 H269 0.862 . S
C250 C245 1.501 . S
C250 H251 0.961 . S
C250 H252 0.961 . S
C250 H253 0.960 . S
H251 C250 0.961 . S
H252 C250 0.961 . S
H253 C250 0.960 . S
C254 N255 1.342 . S
C254 C258 1.401 . S
C254 C259 1.499 . S
N255 Co238 1.989 . S
N255 C254 1.342 . S
N255 N256 1.388 . S
N256 Co239 1.993 . S
N256 N255 1.388 . S
N256 C257 1.346 . S
C257 N256 1.346 . S
C257 C258 1.396 . S
C257 C267 1.510 . S
C258 C254 1.401 . S
C258 C257 1.396 . S
C259 C254 1.499 . S
C259 H260 0.959 . S
C259 H261 0.960 . S
C259 H262 0.961 . S
H260 C259 0.959 . S
H261 C259 0.960 . S
H262 C259 0.961 . S
O263 Co238 1.967 . S
O263 C271 1.258 . S
O264 Co239 1.941 . S
O264 C271 1.266 . S
H265 C267 0.959 . S
H266 C267 0.961 . S
C267 C257 1.510 . S
C267 H265 0.959 . S
C267 H266 0.961 . S
C267 H268 0.960 . S
H268 C267 0.960 . S
H269 N249 0.862 . S
O270 Co238 1.920 . S
O270 C243 1.289 . S
C271 O263 1.258 . S
C271 O264 1.266 . S
H272 C280 0.950 . S
H273 C285 0.950 . S
H274 C282 0.950 . S
H275 C284 0.950 . S
H276 C286 0.950 . S
H277 C288 0.950 . S
H278 C290 0.950 . S
H279 C291 0.950 . S
C280 H272 0.950 . S
C280 C281 1.386 . S
C280 C282 1.391 . S
C281 C280 1.386 . S
C281 C285 1.393 . S
C282 H274 0.950 . S
C282 C280 1.391 . S
C282 C283 1.400 . S
C283 C282 1.400 . S
C283 C284 1.398 . S
C283 C289 1.491 . S
C284 H275 0.950 . S
C284 C283 1.398 . S
C284 C285 1.391 . S
C285 H273 0.950 . S
C285 C281 1.393 . S
C285 C284 1.391 . S
C286 H276 0.950 . S
C286 C287 1.386 . S
C286 C288 1.391 . S
C287 C286 1.386 . S
C287 C291 1.393 . S
C288 H277 0.950 . S
C288 C286 1.391 . S
C288 C289 1.400 . S
C289 C283 1.491 . S
C289 C288 1.400 . S
C289 C290 1.398 . S
C290 H278 0.950 . S
C290 C289 1.398 . S
C290 C291 1.391 . S
C291 H279 0.950 . S
C291 C287 1.393 . S
C291 C290 1.391 . S
H292 C300 0.950 . S
H293 C305 0.950 . S
H294 C302 0.950 . S
H295 C304 0.950 . S
H296 C306 0.950 . S
H297 C308 0.950 . S
H298 C310 0.950 . S
H299 C311 0.950 . S
C300 H292 0.950 . S
C300 C301 1.386 . S
C300 C302 1.391 . S
C301 C300 1.386 . S
C301 C305 1.393 . S
C302 H294 0.950 . S
C302 C300 1.391 . S
C302 C303 1.400 . S
C303 C302 1.400 . S
C303 C304 1.398 . S
C303 C309 1.491 . S
C304 H295 0.950 . S
C304 C303 1.398 . S
C304 C305 1.391 . S
C305 H293 0.950 . S
C305 C301 1.393 . S
C305 C304 1.391 . S
C306 H296 0.950 . S
C306 C307 1.386 . S
C306 C308 1.391 . S
C307 C306 1.386 . S
C307 C311 1.393 . S
C308 H297 0.950 . S
C308 C306 1.391 . S
C308 C309 1.400 . S
C309 C303 1.491 . S
C309 C308 1.400 . S
C309 C310 1.398 . S
C310 H298 0.950 . S
C310 C309 1.398 . S
C310 C311 1.391 . S
C311 H299 0.950 . S
C311 C307 1.393 . S
C311 C310 1.391 . S
H312 C320 0.950 . S
H313 C325 0.950 . S
H314 C322 0.950 . S
H315 C324 0.950 . S
H316 C326 0.950 . S
H317 C328 0.950 . S
H318 C330 0.950 . S
H319 C331 0.950 . S
C320 H312 0.950 . S
C320 C321 1.386 . S
C320 C322 1.391 . S
C321 C320 1.386 . S
C321 C325 1.393 . S
C322 H314 0.950 . S
C322 C320 1.391 . S
C322 C323 1.400 . S
C323 C322 1.400 . S
C323 C324 1.398 . S
C323 C329 1.491 . S
C324 H315 0.950 . S
C324 C323 1.398 . S
C324 C325 1.391 . S
C325 H313 0.950 . S
C325 C321 1.393 . S
C325 C324 1.391 . S
C326 H316 0.950 . S
C326 C327 1.386 . S
C326 C328 1.391 . S
C327 C326 1.386 . S
C327 C331 1.393 . S
C328 H317 0.950 . S
C328 C326 1.391 . S
C328 C329 1.400 . S
C329 C323 1.491 . S
C329 C328 1.400 . S
C329 C330 1.398 . S
C330 H318 0.950 . S
C330 C329 1.398 . S
C330 C331 1.391 . S
C331 H319 0.950 . S
C331 C327 1.393 . S
C331 C330 1.391 . S
H332 C340 0.950 . S
H333 C345 0.950 . S
H334 C342 0.950 . S
H335 C344 0.950 . S
H336 C346 0.950 . S
H337 C348 0.950 . S
H338 C350 0.950 . S
H339 C351 0.950 . S
C340 H332 0.950 . S
C340 C341 1.386 . S
C340 C342 1.391 . S
C341 C340 1.386 . S
C341 C345 1.393 . S
C342 H334 0.950 . S
C342 C340 1.391 . S
C342 C343 1.400 . S
C343 C342 1.400 . S
C343 C344 1.398 . S
C343 C349 1.491 . S
C344 H335 0.950 . S
C344 C343 1.398 . S
C344 C345 1.391 . S
C345 H333 0.950 . S
C345 C341 1.393 . S
C345 C344 1.391 . S
C346 H336 0.950 . S
C346 C347 1.386 . S
C346 C348 1.391 . S
C347 C346 1.386 . S
C347 C351 1.393 . S
C348 H337 0.950 . S
C348 C346 1.391 . S
C348 C349 1.400 . S
C349 C343 1.491 . S
C349 C348 1.400 . S
C349 C350 1.398 . S
C350 H338 0.950 . S
C350 C349 1.398 . S
C350 C351 1.391 . S
C351 H339 0.950 . S
C351 C347 1.393 . S
C351 C350 1.391 . S
H352 C360 0.950 . S
H353 C365 0.950 . S
H354 C362 0.950 1_545 S
H355 C364 0.950 . S
H356 C366 0.950 . S
H357 C368 0.950 . S
H358 C370 0.950 . S
H359 C371 0.950 . S
C360 H352 0.950 . S
C360 C361 1.386 . S
C360 C362 1.391 . S
C361 C360 1.386 . S
C361 C365 1.393 . S
C362 H354 0.950 1_565 S
C362 C360 1.391 . S
C362 C363 1.400 . S
C363 C362 1.400 . S
C363 C364 1.398 . S
C363 C369 1.491 . S
C364 H355 0.950 . S
C364 C363 1.398 . S
C364 C365 1.391 . S
C365 H353 0.950 . S
C365 C361 1.393 . S
C365 C364 1.391 . S
C366 H356 0.950 . S
C366 C367 1.386 1_565 S
C366 C368 1.391 . S
C367 C366 1.386 1_545 S
C367 C371 1.393 . S
C368 H357 0.950 . S
C368 C366 1.391 . S
C368 C369 1.400 . S
C369 C363 1.491 . S
C369 C368 1.400 . S
C369 C370 1.398 1_565 S
C370 H358 0.950 . S
C370 C369 1.398 1_545 S
C370 C371 1.391 . S
C371 H359 0.950 . S
C371 C367 1.393 . S
C371 C370 1.391 . S
H372 C380 0.950 . S
H373 C385 0.950 . S
H374 C382 0.950 . S
H375 C384 0.950 . S
H376 C386 0.950 . S
H377 C388 0.950 . S
H378 C390 0.950 1_545 S
H379 C391 0.950 . S
C380 H372 0.950 . S
C380 C381 1.386 . S
C380 C382 1.391 . S
C381 C380 1.386 . S
C381 C385 1.393 1_545 S
C382 H374 0.950 . S
C382 C380 1.391 . S
C382 C383 1.400 1_545 S
C383 C382 1.400 1_565 S
C383 C384 1.398 . S
C383 C389 1.491 . S
C384 H375 0.950 . S
C384 C383 1.398 . S
C384 C385 1.391 . S
C385 H373 0.950 . S
C385 C381 1.393 1_565 S
C385 C384 1.391 . S
C386 H376 0.950 . S
C386 C387 1.386 . S
C386 C388 1.391 . S
C387 C386 1.386 . S
C387 C391 1.393 . S
C388 H377 0.950 . S
C388 C386 1.391 . S
C388 C389 1.400 . S
C389 C383 1.491 . S
C389 C388 1.400 . S
C389 C390 1.398 . S
C390 H378 0.950 1_565 S
C390 C389 1.398 . S
C390 C391 1.391 . S
C391 H379 0.950 . S
C391 C387 1.393 . S
C391 C390 1.391 . S
H392 C400 0.950 . S
H393 C405 0.950 . S
H394 C402 0.950 . S
H395 C404 0.950 1_565 S
H396 C406 0.950 . S
H397 C408 0.950 . S
H398 C410 0.950 . S
H399 C411 0.950 . S
C400 H392 0.950 . S
C400 C401 1.386 . S
C400 C402 1.391 . S
C401 C400 1.386 . S
C401 C405 1.393 . S
C402 H394 0.950 . S
C402 C400 1.391 . S
C402 C403 1.400 . S
C403 C402 1.400 . S
C403 C404 1.398 . S
C403 C409 1.491 . S
C404 H395 0.950 1_545 S
C404 C403 1.398 . S
C404 C405 1.391 . S
C405 H393 0.950 . S
C405 C401 1.393 . S
C405 C404 1.391 . S
C406 H396 0.950 . S
C406 C407 1.386 . S
C406 C408 1.391 . S
C407 C406 1.386 . S
C407 C411 1.393 1_565 S
C408 H397 0.950 . S
C408 C406 1.391 . S
C408 C409 1.400 1_565 S
C409 C403 1.491 . S
C409 C408 1.400 1_545 S
C409 C410 1.398 . S
C410 H398 0.950 . S
C410 C409 1.398 . S
C410 C411 1.391 . S
C411 H399 0.950 . S
C411 C407 1.393 1_545 S
C411 C410 1.391 . S
H412 C420 0.950 . S
H413 C425 0.950 . S
H414 C422 0.950 1_565 S
H415 C424 0.950 . S
H416 C426 0.950 . S
H417 C428 0.950 . S
H418 C430 0.950 . S
H419 C431 0.950 . S
C420 H412 0.950 . S
C420 C421 1.386 . S
C420 C422 1.391 . S
C421 C420 1.386 . S
C421 C425 1.393 . S
C422 H414 0.950 1_545 S
C422 C420 1.391 . S
C422 C423 1.400 . S
C423 C422 1.400 . S
C423 C424 1.398 . S
C423 C429 1.491 . S
C424 H415 0.950 . S
C424 C423 1.398 . S
C424 C425 1.391 . S
C425 H413 0.950 . S
C425 C421 1.393 . S
C425 C424 1.391 . S
C426 H416 0.950 . S
C426 C427 1.386 1_545 S
C426 C428 1.391 . S
C427 C426 1.386 1_565 S
C427 C431 1.393 . S
C428 H417 0.950 . S
C428 C426 1.391 . S
C428 C429 1.400 . S
C429 C423 1.491 . S
C429 C428 1.400 . S
C429 C430 1.398 1_545 S
C430 H418 0.950 . S
C430 C429 1.398 1_565 S
C430 C431 1.391 . S
C431 H419 0.950 . S
C431 C427 1.393 . S
C431 C430 1.391 . S
H432 C440 0.950 . S
H433 C445 0.950 . S
H434 C442 0.950 . S
H435 C444 0.950 . S
H436 C446 0.950 . S
H437 C448 0.950 . S
H438 C450 0.950 . S
H439 C451 0.950 . S
C440 H432 0.950 . S
C440 C441 1.386 1_556 S
C440 C442 1.391 . S
C441 C440 1.386 1_554 S
C441 C445 1.393 . S
C442 H434 0.950 . S
C442 C440 1.391 . S
C442 C443 1.400 1_556 S
C443 C442 1.400 1_554 S
C443 C444 1.398 . S
C443 C449 1.491 1_554 S
C444 H435 0.950 . S
C444 C443 1.398 . S
C444 C445 1.391 . S
C445 H433 0.950 . S
C445 C441 1.393 . S
C445 C444 1.391 . S
C446 H436 0.950 . S
C446 C447 1.386 1_554 S
C446 C448 1.391 . S
C447 C446 1.386 1_556 S
C447 C451 1.393 . S
C448 H437 0.950 . S
C448 C446 1.391 . S
C448 C449 1.400 1_554 S
C449 C443 1.491 1_556 S
C449 C448 1.400 1_556 S
C449 C450 1.398 . S
C450 H438 0.950 . S
C450 C449 1.398 . S
C450 C451 1.391 . S
C451 H439 0.950 . S
C451 C447 1.393 . S
C451 C450 1.391 . S
H452 C460 0.950 . S
H453 C465 0.950 . S
H454 C462 0.950 . S
H455 C464 0.950 . S
H456 C466 0.950 . S
H457 C468 0.950 . S
H458 C470 0.950 . S
H459 C471 0.950 . S
C460 H452 0.950 . S
C460 C461 1.386 . S
C460 C462 1.391 . S
C461 C460 1.386 . S
C461 C465 1.393 . S
C462 H454 0.950 . S
C462 C460 1.391 . S
C462 C463 1.400 . S
C463 C462 1.400 . S
C463 C464 1.398 . S
C463 C469 1.491 . S
C464 H455 0.950 . S
C464 C463 1.398 . S
C464 C465 1.391 . S
C465 H453 0.950 . S
C465 C461 1.393 . S
C465 C464 1.391 . S
C466 H456 0.950 . S
C466 C467 1.386 . S
C466 C468 1.391 . S
C467 C466 1.386 . S
C467 C471 1.393 . S
C468 H457 0.950 . S
C468 C466 1.391 . S
C468 C469 1.400 . S
C469 C463 1.491 . S
C469 C468 1.400 . S
C469 C470 1.398 . S
C470 H458 0.950 . S
C470 C469 1.398 . S
C470 C471 1.391 . S
C471 H459 0.950 . S
C471 C467 1.393 . S
C471 C470 1.391 . S
H472 C480 0.950 . S
H473 C485 0.950 . S
H474 C482 0.950 . S
H475 C484 0.950 . S
H476 C486 0.950 . S
H477 C488 0.950 . S
H478 C490 0.950 . S
H479 C491 0.950 . S
C480 H472 0.950 . S
C480 C481 1.386 1_565 S
C480 C482 1.391 . S
C481 C480 1.386 1_545 S
C481 C485 1.393 1_556 S
C482 H474 0.950 . S
C482 C480 1.391 . S
C482 C483 1.385 1_565 S
C483 C482 1.385 1_545 S
C483 C484 1.417 1_556 S
C483 C489 1.488 1_446 S
C484 H475 0.950 . S
C484 C483 1.417 1_554 S
C484 C485 1.391 . S
C485 H473 0.950 . S
C485 C481 1.393 1_554 S
C485 C484 1.391 . S
C486 H476 0.950 . S
C486 C487 1.386 1_545 S
C486 C488 1.391 . S
C487 C486 1.386 1_565 S
C487 C491 1.393 1_554 S
C488 H477 0.950 . S
C488 C486 1.391 . S
C488 C489 1.385 1_545 S
C489 C483 1.488 1_664 S
C489 C488 1.385 1_565 S
C489 C490 1.417 1_554 S
C490 H478 0.950 . S
C490 C489 1.417 1_556 S
C490 C491 1.391 . S
C491 H479 0.950 . S
C491 C487 1.393 1_556 S
C491 C490 1.391 . S
H492 C500 0.950 . S
H493 C505 0.950 . S
H494 C502 0.950 . S
H495 C504 0.950 . S
H496 C506 0.950 . S
H497 C508 0.950 . S
H498 C510 0.950 . S
H499 C511 0.950 . S
C500 H492 0.950 . S
C500 C501 1.386 1_565 S
C500 C502 1.391 . S
C501 C500 1.386 1_545 S
C501 C505 1.393 . S
C502 H494 0.950 . S
C502 C500 1.391 . S
C502 C503 1.386 1_565 S
C503 C502 1.386 1_545 S
C503 C504 1.416 . S
C503 C509 1.488 1_645 S
C504 H495 0.950 . S
C504 C503 1.416 . S
C504 C505 1.391 . S
C505 H493 0.950 . S
C505 C501 1.393 . S
C505 C504 1.391 . S
C506 H496 0.950 . S
C506 C507 1.386 1_545 S
C506 C508 1.391 . S
C507 C506 1.386 1_565 S
C507 C511 1.393 . S
C508 H497 0.950 . S
C508 C506 1.391 . S
C508 C509 1.386 1_545 S
C509 C503 1.488 1_465 S
C509 C508 1.386 1_565 S
C509 C510 1.416 . S
C510 H498 0.950 . S
C510 C509 1.416 . S
C510 C511 1.391 . S
C511 H499 0.950 . S
C511 C507 1.393 . S
C511 C510 1.391 . S
H512 C520 0.950 . S
H513 C525 0.950 . S
H514 C522 0.945 1_556 S
H515 C524 0.950 . S
H516 C526 0.950 . S
H517 C528 0.945 1_554 S
H518 C530 0.950 . S
H519 C531 0.950 . S
C520 H512 0.950 . S
C520 C521 1.386 . S
C520 C522 1.391 . S
C521 C520 1.386 . S
C521 C525 1.393 . S
C522 H514 0.945 1_554 S
C522 C520 1.391 . S
C522 C523 1.400 . S
C523 C522 1.400 . S
C523 C524 1.398 . S
C523 C529 1.491 1_554 S
C524 H515 0.950 . S
C524 C523 1.398 . S
C524 C525 1.391 . S
C525 H513 0.950 . S
C525 C521 1.393 . S
C525 C524 1.391 . S
C526 H516 0.950 . S
C526 C527 1.386 . S
C526 C528 1.391 . S
C527 C526 1.386 . S
C527 C531 1.393 . S
C528 H517 0.945 1_556 S
C528 C526 1.391 . S
C528 C529 1.400 . S
C529 C523 1.491 1_556 S
C529 C528 1.400 . S
C529 C530 1.398 . S
C530 H518 0.950 . S
C530 C529 1.398 . S
C530 C531 1.391 . S
C531 H519 0.950 . S
C531 C527 1.393 . S
C531 C530 1.391 . S
H532 C540 0.950 . S
H533 C545 0.950 . S
H534 C542 0.950 . S
H535 C544 0.950 . S
H536 C546 0.950 . S
H537 C548 0.950 . S
H538 C550 0.950 . S
H539 C551 0.950 . S
C540 H532 0.950 . S
C540 C541 1.386 . S
C540 C542 1.391 . S
C541 C540 1.386 . S
C541 C545 1.393 . S
C542 H534 0.950 . S
C542 C540 1.391 . S
C542 C543 1.400 . S
C543 C542 1.400 . S
C543 C544 1.398 . S
C543 C549 1.491 . S
C544 H535 0.950 . S
C544 C543 1.398 . S
C544 C545 1.391 . S
C545 H533 0.950 . S
C545 C541 1.393 . S
C545 C544 1.391 . S
C546 H536 0.950 . S
C546 C547 1.386 . S
C546 C548 1.391 . S
C547 C546 1.386 . S
C547 C551 1.393 . S
C548 H537 0.950 . S
C548 C546 1.391 . S
C548 C549 1.400 . S
C549 C543 1.491 . S
C549 C548 1.400 . S
C549 C550 1.398 . S
C550 H538 0.950 . S
C550 C549 1.398 . S
C550 C551 1.391 . S
C551 H539 0.950 . S
C551 C547 1.393 . S
C551 C550 1.391 . S
H552 C560 0.950 . S
H553 C565 0.950 . S
H554 C562 0.950 . S
H555 C564 0.950 . S
H556 C566 0.950 . S
H557 C568 0.950 . S
H558 C570 0.950 . S
H559 C571 0.950 . S
C560 H552 0.950 . S
C560 C561 1.386 1_556 S
C560 C562 1.391 . S
C561 C560 1.386 1_554 S
C561 C565 1.393 . S
C562 H554 0.950 . S
C562 C560 1.391 . S
C562 C563 1.400 1_556 S
C563 C562 1.400 1_554 S
C563 C564 1.398 . S
C563 C569 1.491 1_554 S
C564 H555 0.950 . S
C564 C563 1.398 . S
C564 C565 1.391 . S
C565 H553 0.950 . S
C565 C561 1.393 . S
C565 C564 1.391 . S
C566 H556 0.950 . S
C566 C567 1.386 1_554 S
C566 C568 1.391 . S
C567 C566 1.386 1_556 S
C567 C571 1.393 . S
C568 H557 0.950 . S
C568 C566 1.391 . S
C568 C569 1.400 1_554 S
C569 C563 1.491 1_556 S
C569 C568 1.400 1_556 S
C569 C570 1.398 . S
C570 H558 0.950 . S
C570 C569 1.398 . S
C570 C571 1.391 . S
C571 H559 0.950 . S
C571 C567 1.393 . S
C571 C570 1.391 . S
H572 C580 0.950 . S
H573 C585 0.950 . S
H574 C582 0.950 . S
H575 C584 0.950 . S
H576 C586 0.950 . S
H577 C588 0.950 . S
H578 C590 0.950 . S
H579 C591 0.950 . S
C580 H572 0.950 . S
C580 C581 1.386 . S
C580 C582 1.391 . S
C581 C580 1.386 . S
C581 C585 1.393 . S
C582 H574 0.950 . S
C582 C580 1.391 . S
C582 C583 1.400 . S
C583 C582 1.400 . S
C583 C584 1.398 . S
C583 C589 1.491 . S
C584 H575 0.950 . S
C584 C583 1.398 . S
C584 C585 1.391 . S
C585 H573 0.950 . S
C585 C581 1.393 . S
C585 C584 1.391 . S
C586 H576 0.950 . S
C586 C587 1.386 . S
C586 C588 1.391 . S
C587 C586 1.386 . S
C587 C591 1.393 . S
C588 H577 0.950 . S
C588 C586 1.391 . S
C588 C589 1.400 . S
C589 C583 1.491 . S
C589 C588 1.400 . S
C589 C590 1.398 . S
C590 H578 0.950 . S
C590 C589 1.398 . S
C590 C591 1.391 . S
C591 H579 0.950 . S
C591 C587 1.393 . S
C591 C590 1.391 . S
H592 C600 0.950 . S
H593 C605 0.950 . S
H594 C602 0.950 . S
H595 C604 0.950 . S
H596 C606 0.950 . S
H597 C608 0.950 . S
H598 C610 0.950 . S
H599 C611 0.950 . S
C600 H592 0.950 . S
C600 C601 1.386 . S
C600 C602 1.391 . S
C601 C600 1.386 . S
C601 C605 1.393 . S
C602 H594 0.950 . S
C602 C600 1.391 . S
C602 C603 1.400 . S
C603 C602 1.400 . S
C603 C604 1.398 . S
C603 C609 1.491 . S
C604 H595 0.950 . S
C604 C603 1.398 . S
C604 C605 1.391 . S
C605 H593 0.950 . S
C605 C601 1.393 . S
C605 C604 1.391 . S
C606 H596 0.950 . S
C606 C607 1.386 . S
C606 C608 1.391 . S
C607 C606 1.386 . S
C607 C611 1.393 . S
C608 H597 0.950 . S
C608 C606 1.391 . S
C608 C609 1.400 . S
C609 C603 1.491 . S
C609 C608 1.400 . S
C609 C610 1.398 . S
C610 H598 0.950 . S
C610 C609 1.398 . S
C610 C611 1.391 . S
C611 H599 0.950 . S
C611 C607 1.393 . S
C611 C610 1.391 . S
H612 C620 0.950 . S
H613 C625 0.950 . S
H614 C622 0.950 . S
H615 C624 0.950 . S
H616 C626 0.950 . S
H617 C628 0.950 . S
H618 C630 0.950 . S
H619 C631 0.950 . S
C620 H612 0.950 . S
C620 C621 1.386 . S
C620 C622 1.391 . S
C621 C620 1.386 . S
C621 C625 1.393 . S
C622 H614 0.950 . S
C622 C620 1.391 . S
C622 C623 1.400 . S
C623 C622 1.400 . S
C623 C624 1.398 . S
C623 C629 1.491 . S
C624 H615 0.950 . S
C624 C623 1.398 . S
C624 C625 1.391 . S
C625 H613 0.950 . S
C625 C621 1.393 . S
C625 C624 1.391 . S
C626 H616 0.950 . S
C626 C627 1.386 . S
C626 C628 1.391 . S
C627 C626 1.386 . S
C627 C631 1.393 . S
C628 H617 0.950 . S
C628 C626 1.391 . S
C628 C629 1.400 . S
C629 C623 1.491 . S
C629 C628 1.400 . S
C629 C630 1.398 . S
C630 H618 0.950 . S
C630 C629 1.398 . S
C630 C631 1.391 . S
C631 H619 0.950 . S
C631 C627 1.393 . S
C631 C630 1.391 . S
H632 C640 0.950 . S
H633 C645 0.950 . S
H634 C642 0.950 1_655 S
H635 C644 0.950 . S
H636 C646 0.950 . S
H637 C648 0.950 1_455 S
H638 C650 0.950 . S
H639 C651 0.950 . S
C640 H632 0.950 . S
C640 C641 1.386 . S
C640 C642 1.391 . S
C641 C640 1.386 . S
C641 C645 1.393 . S
C642 H634 0.950 1_455 S
C642 C640 1.391 . S
C642 C643 1.400 . S
C643 C642 1.400 . S
C643 C644 1.398 . S
C643 C649 1.491 1_455 S
C644 H635 0.950 . S
C644 C643 1.398 . S
C644 C645 1.391 . S
C645 H633 0.950 . S
C645 C641 1.393 . S
C645 C644 1.391 . S
C646 H636 0.950 . S
C646 C647 1.386 . S
C646 C648 1.391 . S
C647 C646 1.386 . S
C647 C651 1.393 . S
C648 H637 0.950 1_655 S
C648 C646 1.391 . S
C648 C649 1.400 . S
C649 C643 1.491 1_655 S
C649 C648 1.400 . S
C649 C650 1.398 . S
C650 H638 0.950 . S
C650 C649 1.398 . S
C650 C651 1.391 . S
C651 H639 0.950 . S
C651 C647 1.393 . S
C651 C650 1.391 . S
H652 C660 0.950 . S
H653 C665 0.950 . S
H654 C662 0.950 . S
H655 C664 0.950 1_655 S
H656 C666 0.950 . S
H657 C668 0.950 . S
H658 C670 0.950 1_455 S
H659 C671 0.950 . S
C660 H652 0.950 . S
C660 C661 1.386 . S
C660 C662 1.391 . S
C661 C660 1.386 . S
C661 C665 1.393 . S
C662 H654 0.950 . S
C662 C660 1.391 . S
C662 C663 1.400 . S
C663 C662 1.400 . S
C663 C664 1.398 . S
C663 C669 1.491 1_455 S
C664 H655 0.950 1_455 S
C664 C663 1.398 . S
C664 C665 1.391 . S
C665 H653 0.950 . S
C665 C661 1.393 . S
C665 C664 1.391 . S
C666 H656 0.950 . S
C666 C667 1.386 . S
C666 C668 1.391 . S
C667 C666 1.386 . S
C667 C671 1.393 . S
C668 H657 0.950 . S
C668 C666 1.391 . S
C668 C669 1.400 . S
C669 C663 1.491 1_655 S
C669 C668 1.400 . S
C669 C670 1.398 . S
C670 H658 0.950 1_655 S
C670 C669 1.398 . S
C670 C671 1.391 . S
C671 H659 0.950 . S
C671 C667 1.393 . S
C671 C670 1.391 . S
C281 C135 1.483 . S
C287 C20 1.418 . S
C301 C54 1.400 . S
C307 C101 1.490 . S
C321 C67 1.489 . S
C327 C88 1.407 . S
C341 C33 1.490 . S
C347 C122 1.402 . S
C361 C156 1.398 . S
C367 C271 1.491 . S
C381 C237 1.492 . S
C387 C190 1.397 . S
C401 C224 1.397 . S
C407 C203 1.492 . S
C421 C258 1.429 . S
C427 C169 1.479 . S
C441 C5 0.649 . S
C447 C73 0.649 . S
C461 C39 0.640 . S
C467 C107 0.640 . S
C481 C209 0.632 . S
C487 C141 0.632 . S
C501 C243 0.633 . S
C507 C175 0.633 . S
C521 C9 1.321 . S
C527 C213 1.321 . S
C541 C43 1.313 . S
C547 C247 1.313 . S
C561 C145 1.335 . S
C567 C77 1.335 . S
C581 C179 1.321 . S
C587 C111 1.321 . S
C601 C36 1.895 . S
C607 C2 1.882 . S
C621 C104 1.892 . S
C627 C70 1.892 . S
C641 C172 1.879 . S
C647 C138 1.901 . S
C661 C206 1.879 . S
C667 C240 1.901 . S
