# Generated by pormake.
# Topology soi, (5)-cn, num edge types: 1
# Building blocks:
#     Node 0, Type 0, BuildingBlock: XOMCOT_clean_sbu_1, # of connection points: 5
#     Node 1, Type 0, BuildingBlock: XOMCOT_clean_sbu_1, # of connection points: 5
#     Node 2, Type 0, BuildingBlock: XOMCOT_clean_sbu_1, # of connection points: 5
#     Node 3, Type 0, BuildingBlock: XOMCOT_clean_sbu_1, # of connection points: 5
#     Node 4, Type 0, BuildingBlock: XOMCOT_clean_sbu_1, # of connection points: 5
#     Node 5, Type 0, BuildingBlock: XOMCOT_clean_sbu_1, # of connection points: 5
#     Node 6, Type 0, BuildingBlock: XOMCOT_clean_sbu_1, # of connection points: 5
#     Node 7, Type 0, BuildingBlock: XOMCOT_clean_sbu_1, # of connection points: 5
#     Node 8, Type 0, BuildingBlock: XOMCOT_clean_sbu_1, # of connection points: 5
#     Node 9, Type 0, BuildingBlock: XOMCOT_clean_sbu_1, # of connection points: 5
#     Node 10, Type 0, BuildingBlock: XOMCOT_clean_sbu_1, # of connection points: 5
#     Node 11, Type 0, BuildingBlock: XOMCOT_clean_sbu_1, # of connection points: 5
#     Node 12, Type 0, BuildingBlock: XOMCOT_clean_sbu_1, # of connection points: 5
#     Node 13, Type 0, BuildingBlock: XOMCOT_clean_sbu_1, # of connection points: 5
#     Node 14, Type 0, BuildingBlock: XOMCOT_clean_sbu_1, # of connection points: 5
#     Node 15, Type 0, BuildingBlock: XOMCOT_clean_sbu_1, # of connection points: 5
#     Edge 16, Type (0, 0), None
#     Edge 17, Type (0, 0), None
#     Edge 18, Type (0, 0), None
#     Edge 19, Type (0, 0), None
#     Edge 20, Type (0, 0), None
#     Edge 21, Type (0, 0), None
#     Edge 22, Type (0, 0), None
#     Edge 23, Type (0, 0), None
#     Edge 24, Type (0, 0), None
#     Edge 25, Type (0, 0), None
#     Edge 26, Type (0, 0), None
#     Edge 27, Type (0, 0), None
#     Edge 28, Type (0, 0), None
#     Edge 29, Type (0, 0), None
#     Edge 30, Type (0, 0), None
#     Edge 31, Type (0, 0), None
#     Edge 32, Type (0, 0), None
#     Edge 33, Type (0, 0), None
#     Edge 34, Type (0, 0), None
#     Edge 35, Type (0, 0), None
#     Edge 36, Type (0, 0), None
#     Edge 37, Type (0, 0), None
#     Edge 38, Type (0, 0), None
#     Edge 39, Type (0, 0), None
#     Edge 40, Type (0, 0), None
#     Edge 41, Type (0, 0), None
#     Edge 42, Type (0, 0), None
#     Edge 43, Type (0, 0), None
#     Edge 44, Type (0, 0), None
#     Edge 45, Type (0, 0), None
#     Edge 46, Type (0, 0), None
#     Edge 47, Type (0, 0), None
#     Edge 48, Type (0, 0), None
#     Edge 49, Type (0, 0), None
#     Edge 50, Type (0, 0), None
#     Edge 51, Type (0, 0), None
#     Edge 52, Type (0, 0), None
#     Edge 53, Type (0, 0), None
#     Edge 54, Type (0, 0), None
#     Edge 55, Type (0, 0), None
# Relax obj value: 0.086
# Max RMSD: 0.142
# Mean RMSD: 0.142
data_MOF--net-soi--node1-XOMCOT_clean_sbu_1--edge1-none
_symmetry_space_group_name_H-M    P1
_symmetry_Int_Tables_number       1
_symmetry_cell_setting            triclinic
loop_
_symmetry_equiv_pos_as_xyz
'x, y, z'
_cell_length_a     25.982147
_cell_length_b     11.990908
_cell_length_c     35.765923
_cell_angle_alpha  89.998879
_cell_angle_beta   89.999823
_cell_angle_gamma 90.019131
loop_
_atom_site_label
_atom_site_type_symbol
_atom_site_fract_x
_atom_site_fract_y
_atom_site_fract_z
_atom_type_partial_charge
C0 C 0.32442 0.99934 0.07721 0.0
C1 C 0.2996 0.99332 0.0432 0.0
N2 N 0.24981 0.01799 0.04907 0.0
N3 N 0.29031 0.02949 0.10392 0.0
C4 C 0.24489 0.03914 0.08585 0.0
H5 H 0.36474 0.98259 0.08217 0.0
Co6 Co 0.30287 0.05046 0.15473 0.0
C7 C 0.25809 0.28365 0.16513 0.0
O8 O 0.29956 0.32767 0.17983 0.0
N9 N 0.31546 0.07094 0.20668 0.0
C10 C 0.342 0.13704 0.26194 0.0
C11 C 0.34251 0.15302 0.22393 0.0
C12 C 0.30072 1.0035 0.23512 0.0
N13 N 0.31526 0.04383 0.26867 0.0
O14 O 0.24452 0.95922 0.16587 0.0
H15 H 0.36419 0.21756 0.21001 0.0
H16 H 0.28114 0.92467 0.23149 0.0
O17 O 0.25729 0.18168 0.15449 0.0
C18 C 0.24687 0.85503 0.15893 0.0
O19 O 0.28942 0.81232 0.14524 0.0
N20 N 0.3616 0.13159 0.14272 0.0
C21 C 0.45566 0.23319 0.12991 0.0
C22 C 0.41027 0.28146 0.11625 0.0
C23 C 0.36339 0.22717 0.12203 0.0
C24 C 0.40575 0.07941 0.15346 0.0
C25 C 0.45338 0.1292 0.14753 0.0
H26 H 0.32868 0.26243 0.11036 0.0
H27 H 0.40364 1.00019 0.16786 0.0
H28 H 0.20905 0.06139 0.09935 0.0
H29 H 0.31637 0.97033 1.01659 0.0
H30 H 0.36268 0.185 0.28273 0.0
H31 H 0.41106 0.36071 0.10171 0.0
H32 H 0.4878 0.08941 0.15822 0.0
C33 C 0.63567 0.52928 0.07723 0.0
C34 C 0.66048 0.5353 0.04321 0.0
N35 N 0.71028 0.51063 0.04908 0.0
N36 N 0.66978 0.49912 0.10393 0.0
C37 C 0.7152 0.48947 0.08587 0.0
H38 H 0.59535 0.54603 0.08219 0.0
Co39 Co 0.65722 0.47814 0.15474 0.0
C40 C 0.70199 0.24495 0.16514 0.0
O41 O 0.66053 0.20093 0.17984 0.0
N42 N 0.64462 0.45766 0.20669 0.0
C43 C 0.61808 0.39156 0.26195 0.0
C44 C 0.61758 0.37557 0.22395 0.0
C45 C 0.65936 0.5251 0.23513 0.0
N46 N 0.64483 0.48476 0.26868 0.0
O47 O 0.71557 0.56938 0.16588 0.0
H48 H 0.5959 0.31103 0.21003 0.0
H49 H 0.67894 0.60393 0.23151 0.0
O50 O 0.7028 0.34693 0.15451 0.0
C51 C 0.71322 0.67358 0.15895 0.0
O52 O 0.67067 0.71629 0.14525 0.0
N53 N 0.59848 0.39702 0.14273 0.0
C54 C 0.50443 0.29542 0.12991 0.0
C55 C 0.54983 0.24715 0.11625 0.0
C56 C 0.5967 0.30144 0.12204 0.0
C57 C 0.55433 0.44918 0.15348 0.0
C58 C 0.50671 0.39939 0.14754 0.0
H59 H 0.63142 0.26619 0.11037 0.0
H60 H 0.55645 0.5284 0.16788 0.0
H61 H 0.75103 0.46722 0.09936 0.0
H62 H 0.64372 0.5583 1.0166 0.0
H63 H 0.59741 0.34359 0.28274 0.0
H64 H 0.54904 0.16791 0.10171 0.0
H65 H 0.47228 0.43917 0.15823 0.0
C66 C 0.32448 0.02916 0.49408 0.0
C67 C 0.29966 0.03522 0.52809 0.0
N68 N 0.24986 1.01058 0.52222 0.0
N69 N 0.29035 0.99902 0.46737 0.0
C70 C 0.24493 0.98941 0.48544 0.0
H71 H 0.3648 0.04592 0.48912 0.0
Co72 Co 0.30292 0.97819 0.41656 0.0
C73 C 0.25813 0.74502 0.40605 0.0
O74 O 0.2996 0.70113 0.39133 0.0
N75 N 0.31553 0.95791 0.3646 0.0
C76 C 0.3421 0.89216 0.3093 0.0
C77 C 0.34259 0.87597 0.3473 0.0
C78 C 0.30078 0.02547 0.3362 0.0
N79 N 0.31539 0.98541 0.30265 0.0
O80 O 0.24458 0.0694 0.40545 0.0
H81 H 0.36426 0.81138 0.36119 0.0
H82 H 0.28113 0.10417 0.33987 0.0
O83 O 0.25733 0.84694 0.41674 0.0
C84 C 0.24691 0.1736 0.41238 0.0
O85 O 0.28945 0.2164 0.42608 0.0
N86 N 0.36164 0.89706 0.42855 0.0
C87 C 0.45567 0.79542 0.44136 0.0
C88 C 0.41025 0.74712 0.455 0.0
C89 C 0.36339 0.80143 0.44921 0.0
C90 C 0.40582 0.94925 0.41783 0.0
C91 C 0.45343 0.89944 0.42377 0.0
H92 H 0.32866 0.76614 0.46086 0.0
H93 H 0.40373 0.02851 0.40346 0.0
H94 H 0.20908 0.9672 0.47194 0.0
H95 H 0.31644 0.05823 0.5547 0.0
H96 H 0.36274 0.8443 0.28848 0.0
H97 H 0.411 0.66784 0.46952 0.0
H98 H 0.48787 0.93926 0.4131 0.0
C99 C 0.63561 0.49944 0.49409 0.0
C100 C 0.66042 0.49339 0.52811 0.0
N101 N 0.71023 0.51803 0.52223 0.0
N102 N 0.66973 0.52958 0.46739 0.0
C103 C 0.71515 0.5392 0.48545 0.0
H104 H 0.59528 0.48268 0.48913 0.0
Co105 Co 0.65717 0.5504 0.41657 0.0
C106 C 0.70195 0.78358 0.40606 0.0
O107 O 0.66048 0.82748 0.39134 0.0
N108 N 0.64456 0.57069 0.36461 0.0
C109 C 0.61799 0.63644 0.30931 0.0
C110 C 0.61749 0.65263 0.34731 0.0
C111 C 0.65931 0.50313 0.33622 0.0
N112 N 0.6447 0.54318 0.30266 0.0
O113 O 0.71551 0.4592 0.40546 0.0
H114 H 0.59583 0.71723 0.3612 0.0
H115 H 0.67895 0.42442 0.33988 0.0
O116 O 0.70275 0.68166 0.41675 0.0
C117 C 0.71318 0.355 0.41239 0.0
O118 O 0.67064 0.3122 0.42609 0.0
N119 N 0.59844 0.63154 0.42856 0.0
C120 C 0.50442 0.73318 0.44136 0.0
C121 C 0.54983 0.78148 0.455 0.0
C122 C 0.59669 0.72717 0.44922 0.0
C123 C 0.55427 0.57934 0.41784 0.0
C124 C 0.50666 0.62915 0.42377 0.0
H125 H 0.63142 0.76245 0.46087 0.0
H126 H 0.55635 0.50008 0.40346 0.0
H127 H 0.751 0.5614 0.47195 0.0
H128 H 0.64365 0.47038 0.55472 0.0
H129 H 0.59735 0.68431 0.28849 0.0
H130 H 0.54907 0.86076 0.46952 0.0
H131 H 0.47222 0.58934 0.4131 0.0
C132 C 0.63567 0.02927 0.99403 0.0
C133 C 0.66048 0.03529 1.02804 0.0
N134 N 0.71027 1.01062 1.02217 0.0
N135 N 0.66978 0.99912 0.96732 0.0
C136 C 0.7152 0.98947 0.98539 0.0
H137 H 0.59535 0.04602 0.98907 0.0
Co138 Co 0.65722 0.97815 0.91651 0.0
C139 C 0.70199 0.74496 0.90611 0.0
O140 O 0.66053 0.70094 0.89141 0.0
N141 N 0.64462 0.95767 0.86456 0.0
C142 C 0.61808 0.89157 0.8093 0.0
C143 C 0.61758 0.87559 0.84731 0.0
C144 C 0.65936 0.02511 0.83612 0.0
N145 N 0.64483 0.98477 0.80258 0.0
O146 O 0.71557 0.06938 0.90538 0.0
H147 H 0.59589 0.81105 0.86123 0.0
H148 H 0.67895 0.10394 0.83975 0.0
O149 O 0.70279 0.84693 0.91675 0.0
C150 C 0.71322 0.17358 0.91231 0.0
O151 O 0.67067 0.21629 0.926 0.0
N152 N 0.59848 0.89702 0.92852 0.0
C153 C 0.50442 0.79542 0.94134 0.0
C154 C 0.54982 0.74715 0.955 0.0
C155 C 0.59669 0.80144 0.94921 0.0
C156 C 0.55433 0.9492 0.91778 0.0
C157 C 0.5067 0.89941 0.92372 0.0
H158 H 0.63141 0.76618 0.96088 0.0
H159 H 0.55645 0.02842 0.90338 0.0
H160 H 0.75103 0.96722 0.97189 0.0
H161 H 0.64372 0.05828 0.05466 0.0
H162 H 0.59741 0.84361 0.78852 0.0
H163 H 0.54903 0.6679 0.96953 0.0
H164 H 0.47228 0.9392 0.91302 0.0
C165 C 0.32441 0.49933 0.99402 0.0
C166 C 0.2996 0.49331 1.02803 0.0
N167 N 0.24981 0.51798 1.02216 0.0
N168 N 0.2903 0.52949 0.96731 0.0
C169 C 0.24489 0.53914 0.98538 0.0
H170 H 0.36474 0.48258 0.98906 0.0
Co171 Co 0.30286 0.55047 0.9165 0.0
C172 C 0.25809 0.78366 0.9061 0.0
O173 O 0.29956 0.82768 0.8914 0.0
N174 N 0.31546 0.57095 0.86455 0.0
C175 C 0.342 0.63705 0.80929 0.0
C176 C 0.3425 0.65304 0.84729 0.0
C177 C 0.30072 0.50351 0.83611 0.0
N178 N 0.31526 0.54385 0.80256 0.0
O179 O 0.24452 0.45923 0.90536 0.0
H180 H 0.36419 0.71758 0.86122 0.0
H181 H 0.28114 0.42468 0.83974 0.0
O182 O 0.25729 0.68168 0.91674 0.0
C183 C 0.24686 0.35503 0.9123 0.0
O184 O 0.28942 0.31232 0.92599 0.0
N185 N 0.3616 0.63159 0.92851 0.0
C186 C 0.45566 0.73319 0.94133 0.0
C187 C 0.41026 0.78146 0.95499 0.0
C188 C 0.36338 0.72717 0.9492 0.0
C189 C 0.40575 0.57943 0.91777 0.0
C190 C 0.45338 0.62922 0.92371 0.0
H191 H 0.32867 0.76242 0.96087 0.0
H192 H 0.40364 0.50021 0.90337 0.0
H193 H 0.20905 0.56139 0.97188 0.0
H194 H 0.31637 0.47031 0.05464 0.0
H195 H 0.36267 0.68502 0.7885 0.0
H196 H 0.41105 0.8607 0.96953 0.0
H197 H 0.4878 0.58943 0.91302 0.0
C198 C 0.63561 0.99944 0.57716 0.0
C199 C 0.66043 0.99339 0.54315 0.0
N200 N 0.71023 0.01803 0.54902 0.0
N201 N 0.66974 0.02958 0.60387 0.0
C202 C 0.71516 0.0392 0.5858 0.0
H203 H 0.59529 0.98269 0.58212 0.0
Co204 Co 0.65717 0.05041 0.65468 0.0
C205 C 0.70195 0.28359 0.6652 0.0
O206 O 0.66049 0.32748 0.67992 0.0
N207 N 0.64456 0.0707 0.70664 0.0
C208 C 0.61798 0.13645 0.76194 0.0
C209 C 0.61749 0.15264 0.72394 0.0
C210 C 0.65931 1.00314 0.73504 0.0
N211 N 0.6447 0.0432 0.7686 0.0
O212 O 0.71551 0.95921 0.6658 0.0
H213 H 0.59582 0.21723 0.71005 0.0
H214 H 0.67896 0.92443 0.73138 0.0
O215 O 0.70275 0.18167 0.6545 0.0
C216 C 0.71318 0.855 0.65886 0.0
O217 O 0.67064 0.8122 0.64516 0.0
N218 N 0.59844 0.13155 0.64269 0.0
C219 C 0.50442 0.23319 0.62988 0.0
C220 C 0.54984 0.28149 0.61624 0.0
C221 C 0.5967 0.22718 0.62203 0.0
C222 C 0.55427 0.07935 0.65341 0.0
C223 C 0.50666 0.12917 0.64747 0.0
H224 H 0.63143 0.26247 0.61038 0.0
H225 H 0.55635 1.00009 0.66779 0.0
H226 H 0.75101 0.0614 0.5993 0.0
H227 H 0.64365 0.97037 0.51654 0.0
H228 H 0.59735 0.18431 0.78276 0.0
H229 H 0.54908 0.36077 0.60172 0.0
H230 H 0.47222 0.08935 0.65815 0.0
C231 C 0.32448 0.52917 0.57715 0.0
C232 C 0.29967 0.53521 0.54314 0.0
N233 N 0.24986 0.51058 0.54901 0.0
N234 N 0.29036 0.49903 0.60386 0.0
C235 C 0.24493 0.48941 0.58579 0.0
H236 H 0.36481 0.54592 0.58211 0.0
Co237 Co 0.30292 0.4782 0.65467 0.0
C238 C 0.25814 0.24502 0.66518 0.0
O239 O 0.2996 0.20113 0.6799 0.0
N240 N 0.31553 0.45792 0.70663 0.0
C241 C 0.3421 0.39217 0.76193 0.0
C242 C 0.34259 0.37598 0.72393 0.0
C243 C 0.30078 0.52548 0.73503 0.0
N244 N 0.31539 0.48542 0.76858 0.0
O245 O 0.24458 0.56941 0.66578 0.0
H246 H 0.36426 0.31138 0.71005 0.0
H247 H 0.28113 0.60419 0.73136 0.0
O248 O 0.25734 0.34695 0.65449 0.0
C249 C 0.24691 0.67361 0.65885 0.0
O250 O 0.28945 0.71641 0.64515 0.0
N251 N 0.36165 0.39707 0.64268 0.0
C252 C 0.45567 0.29543 0.62988 0.0
C253 C 0.41025 0.24713 0.61624 0.0
C254 C 0.3634 0.30144 0.62202 0.0
C255 C 0.40582 0.44927 0.6534 0.0
C256 C 0.45343 0.39945 0.64747 0.0
H257 H 0.32867 0.26615 0.61037 0.0
H258 H 0.40374 0.52853 0.66778 0.0
H259 H 0.20909 0.46721 0.59929 0.0
H260 H 0.31644 0.55823 0.51653 0.0
H261 H 0.36273 0.3443 0.78276 0.0
H262 H 0.41101 0.16785 0.60172 0.0
H263 H 0.48787 0.43927 0.65814 0.0
C264 C 0.82441 0.49936 0.57722 0.0
C265 C 0.79959 0.49333 0.54321 0.0
N266 N 0.7498 0.51795 0.54909 0.0
N267 N 0.7903 0.52949 0.60393 0.0
C268 C 0.74488 0.53912 0.58587 0.0
H269 H 0.86474 0.48265 0.58217 0.0
Co270 Co 0.80287 0.55047 0.65474 0.0
C271 C 0.7581 0.78365 0.66514 0.0
O272 O 0.79956 0.82768 0.67984 0.0
N273 N 0.81547 0.57095 0.70669 0.0
C274 C 0.84201 0.63705 0.76195 0.0
C275 C 0.84252 0.65303 0.72394 0.0
C276 C 0.80073 0.50351 0.73513 0.0
N277 N 0.81527 0.54384 0.76868 0.0
O278 O 0.74452 0.45923 0.66588 0.0
H279 H 0.8642 0.71757 0.71002 0.0
H280 H 0.78115 0.42468 0.73151 0.0
O281 O 0.75729 0.68168 0.65451 0.0
C282 C 0.74687 0.35503 0.65895 0.0
O283 O 0.78942 0.31232 0.64525 0.0
N284 N 0.8616 0.63159 0.64273 0.0
C285 C 0.95566 0.73319 0.62991 0.0
C286 C 0.91026 0.78147 0.61625 0.0
C287 C 0.86339 0.72718 0.62204 0.0
C288 C 0.90576 0.57942 0.65347 0.0
C289 C 0.95338 0.62922 0.64753 0.0
H290 H 0.82867 0.76243 0.61037 0.0
H291 H 0.90364 0.5002 0.66787 0.0
H292 H 0.70905 0.56136 0.59937 0.0
H293 H 0.81636 0.47038 0.51659 0.0
H294 H 0.86269 0.68501 0.78274 0.0
H295 H 0.91105 0.86072 0.60171 0.0
H296 H -0.01219 0.58943 0.65822 0.0
C297 C 0.13567 0.02926 0.57721 0.0
C298 C 0.16049 0.03529 0.5432 0.0
N299 N 0.21029 1.01067 0.54908 0.0
N300 N 0.16978 0.99913 0.60392 0.0
C301 C 0.2152 0.9895 0.58586 0.0
H302 H 0.09535 0.04598 0.58216 0.0
Co303 Co 0.15722 0.97815 0.65473 0.0
C304 C 0.20199 0.74496 0.66513 0.0
O305 O 0.16053 0.70093 0.67983 0.0
N306 N 0.14462 0.95767 0.70668 0.0
C307 C 0.11808 0.89156 0.76194 0.0
C308 C 0.11758 0.87558 0.72394 0.0
C309 C 0.15935 0.02511 0.73512 0.0
N310 N 0.14482 0.98477 0.76867 0.0
O311 O 0.21557 0.06939 0.66587 0.0
H312 H 0.0959 0.81103 0.71001 0.0
H313 H 0.17893 0.10395 0.73149 0.0
O314 O 0.20279 0.84693 0.65449 0.0
C315 C 0.21322 0.17358 0.65894 0.0
O316 O 0.17067 0.2163 0.64524 0.0
N317 N 0.09848 0.89703 0.64272 0.0
C318 C 0.00443 0.79543 0.62991 0.0
C319 C 0.04982 0.74716 0.61624 0.0
C320 C 0.0967 0.80145 0.62203 0.0
C321 C 0.05433 0.9492 0.65346 0.0
C322 C 0.00671 0.8994 0.64753 0.0
H323 H 0.13141 0.76619 0.61036 0.0
H324 H 0.05645 0.02841 0.66786 0.0
H325 H 0.25104 0.96725 0.59936 0.0
H326 H 0.14373 0.05824 0.51658 0.0
H327 H 0.09741 0.8436 0.78273 0.0
H328 H 0.04903 0.66791 0.6017 0.0
H329 H 0.97228 0.93919 0.65822 0.0
C330 C 0.82447 0.52915 0.9941 0.0
C331 C 0.79965 0.53521 1.02811 0.0
N332 N 0.74985 0.51063 1.02223 0.0
N333 N 0.79035 0.49903 0.96739 0.0
C334 C 0.74492 0.48944 0.98545 0.0
H335 H 0.8648 0.54586 0.98914 0.0
Co336 Co 0.80292 0.4782 0.91657 0.0
C337 C 0.75814 0.24503 0.90606 0.0
O338 O 0.7996 0.20113 0.89134 0.0
N339 N 0.81553 0.45792 0.86461 0.0
C340 C 0.84211 0.39217 0.80931 0.0
C341 C 0.8426 0.37598 0.84731 0.0
C342 C 0.80078 0.52548 0.83621 0.0
N343 N 0.8154 0.48542 0.80266 0.0
O344 O 0.74458 0.56941 0.90546 0.0
H345 H 0.86426 0.31138 0.8612 0.0
H346 H 0.78114 0.60419 0.83988 0.0
O347 O 0.75734 0.34695 0.91675 0.0
C348 C 0.74691 0.67361 0.91239 0.0
O349 O 0.78945 0.71641 0.92609 0.0
N350 N 0.86165 0.39707 0.92856 0.0
C351 C 0.95567 0.29543 0.94137 0.0
C352 C 0.91025 0.24713 0.95501 0.0
C353 C 0.8634 0.30144 0.94922 0.0
C354 C 0.90582 0.44927 0.91784 0.0
C355 C 0.95343 0.39946 0.92378 0.0
H356 H 0.82867 0.26615 0.96087 0.0
H357 H 0.90373 0.52853 0.90347 0.0
H358 H 0.70908 0.46724 0.97194 0.0
H359 H 0.81643 0.55818 0.05472 0.0
H360 H 0.86274 0.3443 0.78849 0.0
H361 H 0.91101 0.16785 0.96952 0.0
H362 H -0.01213 0.43928 0.9131 0.0
C363 C 0.13561 0.99946 0.99409 0.0
C364 C 0.16043 0.9934 1.0281 0.0
N365 N 0.21024 0.01799 1.02221 0.0
N366 N 0.16973 0.02958 0.96737 0.0
C367 C 0.21516 0.03917 0.98543 0.0
H368 H 0.09528 0.98274 0.98913 0.0
Co369 Co 0.15716 0.05041 0.91656 0.0
C370 C 0.20195 0.28359 0.90604 0.0
O371 O 0.16048 0.32748 0.89133 0.0
N372 N 0.14455 0.0707 0.8646 0.0
C373 C 0.11798 0.13645 0.8093 0.0
C374 C 0.11749 0.15264 0.8473 0.0
C375 C 0.1593 1.00314 0.8362 0.0
N376 N 0.14469 0.0432 0.80265 0.0
O377 O 0.2155 0.95921 0.90545 0.0
H378 H 0.09582 0.21724 0.86119 0.0
H379 H 0.17895 0.92443 0.83987 0.0
O380 O 0.20275 0.18167 0.91674 0.0
C381 C 0.21317 0.85501 0.91238 0.0
O382 O 0.17063 0.8122 0.92608 0.0
N383 N 0.09844 0.13154 0.92855 0.0
C384 C 0.00442 0.23319 0.94136 0.0
C385 C 0.04984 0.28149 0.955 0.0
C386 C 0.09669 0.22718 0.94921 0.0
C387 C 0.05427 0.07935 0.91783 0.0
C388 C 0.00666 0.12917 0.92377 0.0
H389 H 0.13142 0.26246 0.96087 0.0
H390 H 0.05635 1.0001 0.90346 0.0
H391 H 0.25101 0.06138 0.97193 0.0
H392 H 0.14366 0.97043 0.05471 0.0
H393 H 0.09734 0.18432 0.78848 0.0
H394 H 0.04908 0.36076 0.96952 0.0
H395 H 0.97222 0.08935 0.9131 0.0
C396 C 0.13567 0.52925 0.49402 0.0
C397 C 0.1605 0.53528 0.52803 0.0
N398 N 0.21029 0.51066 0.52215 0.0
N399 N 0.16978 0.49912 0.46731 0.0
C400 C 0.21521 0.48949 0.48537 0.0
H401 H 0.09535 0.54596 0.48907 0.0
Co402 Co 0.15722 0.47814 0.4165 0.0
C403 C 0.20199 0.24495 0.4061 0.0
O404 O 0.16053 0.20093 0.3914 0.0
N405 N 0.14462 0.45766 0.36455 0.0
C406 C 0.11807 0.39156 0.30929 0.0
C407 C 0.11757 0.37558 0.3473 0.0
C408 C 0.15936 0.5251 0.33611 0.0
N409 N 0.14482 0.48476 0.30257 0.0
O410 O 0.21556 0.56938 0.40536 0.0
H411 H 0.09589 0.31104 0.36122 0.0
H412 H 0.17894 0.60393 0.33974 0.0
O413 O 0.20279 0.34692 0.41674 0.0
C414 C 0.21322 0.67358 0.41229 0.0
O415 O 0.17067 0.71628 0.42599 0.0
N416 N 0.09848 0.39701 0.42851 0.0
C417 C 0.00443 0.29541 0.44134 0.0
C418 C 0.04983 0.24714 0.455 0.0
C419 C 0.0967 0.30143 0.4492 0.0
C420 C 0.05433 0.44918 0.41777 0.0
C421 C 0.00671 0.39939 0.42372 0.0
H422 H 0.13142 0.26617 0.46087 0.0
H423 H 0.05645 0.5284 0.40337 0.0
H424 H 0.25104 0.46724 0.47187 0.0
H425 H 0.14373 0.55823 0.55465 0.0
H426 H 0.0974 0.3436 0.28851 0.0
H427 H 0.04904 0.16789 0.46953 0.0
H428 H 0.97228 0.43918 0.41303 0.0
C429 C 0.82441 0.99935 0.49403 0.0
C430 C 0.79959 0.99332 0.52804 0.0
N431 N 0.7498 0.01794 0.52216 0.0
N432 N 0.7903 0.02948 0.46732 0.0
C433 C 0.74488 0.03911 0.48538 0.0
H434 H 0.86474 0.98263 0.48908 0.0
Co435 Co 0.80287 0.05046 0.41651 0.0
C436 C 0.7581 0.28365 0.40611 0.0
O437 O 0.79956 0.32768 0.39142 0.0
N438 N 0.81547 0.07094 0.36456 0.0
C439 C 0.84201 0.13705 0.3093 0.0
C440 C 0.84251 0.15303 0.34731 0.0
C441 C 0.80073 1.0035 0.33612 0.0
N442 N 0.81526 0.04384 0.30258 0.0
O443 O 0.74452 0.95922 0.40537 0.0
H444 H 0.86419 0.21758 0.36123 0.0
H445 H 0.78115 0.92466 0.33975 0.0
O446 O 0.75729 0.18168 0.41675 0.0
C447 C 0.74687 0.85502 0.41231 0.0
O448 O 0.78942 0.81231 0.426 0.0
N449 N 0.86161 0.13158 0.42852 0.0
C450 C 0.95566 0.23318 0.44134 0.0
C451 C 0.91027 0.28145 0.455 0.0
C452 C 0.86339 0.22716 0.44921 0.0
C453 C 0.90576 0.07941 0.41778 0.0
C454 C 0.95338 0.1292 0.42372 0.0
H455 H 0.82868 0.26241 0.46088 0.0
H456 H 0.90364 1.00019 0.40338 0.0
H457 H 0.70905 0.06136 0.47188 0.0
H458 H 0.81636 0.97037 0.55466 0.0
H459 H 0.86268 0.18501 0.28851 0.0
H460 H 0.91106 0.3607 0.46954 0.0
H461 H -0.01219 0.08942 0.41302 0.0
C462 C 0.13561 0.49946 0.07715 0.0
C463 C 0.16043 0.4934 0.04314 0.0
N464 N 0.21024 0.51798 0.04902 0.0
N465 N 0.16973 0.52958 0.10386 0.0
C466 C 0.21516 0.53917 0.0858 0.0
H467 H 0.09528 0.48275 0.0821 0.0
Co468 Co 0.15716 0.5504 0.15467 0.0
C469 C 0.20195 0.78358 0.16518 0.0
O470 O 0.16048 0.82748 0.1799 0.0
N471 N 0.14455 0.57069 0.20663 0.0
C472 C 0.11798 0.63644 0.26193 0.0
C473 C 0.11749 0.65263 0.22393 0.0
C474 C 0.1593 0.50313 0.23503 0.0
N475 N 0.14469 0.54319 0.26858 0.0
O476 O 0.2155 0.4592 0.16578 0.0
H477 H 0.09582 0.71723 0.21004 0.0
H478 H 0.17895 0.42442 0.23137 0.0
O479 O 0.20275 0.68166 0.15449 0.0
C480 C 0.21318 0.355 0.15885 0.0
O481 O 0.17063 0.3122 0.14515 0.0
N482 N 0.09844 0.63154 0.14268 0.0
C483 C 0.00442 0.73318 0.12988 0.0
C484 C 0.04983 0.78148 0.11624 0.0
C485 C 0.09669 0.72717 0.12202 0.0
C486 C 0.05427 0.57934 0.1534 0.0
C487 C 0.00666 0.62915 0.14747 0.0
H488 H 0.13142 0.76246 0.11037 0.0
H489 H 0.05635 0.50008 0.16777 0.0
H490 H 0.25101 0.56137 0.0993 0.0
H491 H 0.14366 0.47043 1.01652 0.0
H492 H 0.09734 0.68431 0.28275 0.0
H493 H 0.04908 0.86076 0.10172 0.0
H494 H 0.97222 0.58933 0.15814 0.0
C495 C 0.82447 0.02915 0.07716 0.0
C496 C 0.79965 0.03521 0.04315 0.0
N497 N 0.74984 1.01062 0.04903 0.0
N498 N 0.79035 0.99903 0.10387 0.0
C499 C 0.74492 0.98944 0.08581 0.0
H500 H 0.8648 0.04587 0.08211 0.0
Co501 Co 0.80292 0.9782 0.15468 0.0
C502 C 0.75814 0.74502 0.1652 0.0
O503 O 0.7996 0.70112 0.17991 0.0
N504 N 0.81553 0.95791 0.20664 0.0
C505 C 0.84211 0.89216 0.26194 0.0
C506 C 0.8426 0.87597 0.22394 0.0
C507 C 0.80079 0.02547 0.23504 0.0
N508 N 0.8154 0.98541 0.2686 0.0
O509 O 0.74458 0.0694 0.1658 0.0
H510 H 0.86426 0.81137 0.21005 0.0
H511 H 0.78114 0.10418 0.23137 0.0
O512 O 0.75734 0.84694 0.1545 0.0
C513 C 0.74691 0.1736 0.15886 0.0
O514 O 0.78945 0.21641 0.14516 0.0
N515 N 0.86165 0.89707 0.14269 0.0
C516 C 0.95566 0.79542 0.12988 0.0
C517 C 0.91025 0.74712 0.11624 0.0
C518 C 0.86339 0.80143 0.12203 0.0
C519 C 0.90582 0.94926 0.15341 0.0
C520 C 0.95343 0.89944 0.14747 0.0
H521 H 0.82866 0.76615 0.11038 0.0
H522 H 0.90374 0.02851 0.16778 0.0
H523 H 0.70908 0.96723 0.09931 0.0
H524 H 0.81642 0.05818 1.01653 0.0
H525 H 0.86274 0.84429 0.28277 0.0
H526 H 0.911 0.66785 0.10172 0.0
H527 H -0.01213 0.93926 0.15814 0.0
loop_
_geom_bond_atom_site_label_1
_geom_bond_atom_site_label_2
_geom_bond_distance
_geom_bond_site_symmetry_2
_ccdc_geom_bond_type
C0 C1 1.351 . S
C0 N3 1.368 . S
C0 H5 0.931 1_545 S
C1 C0 1.351 . S
C1 N2 1.373 . S
C1 H29 0.930 1_554 S
N2 C1 1.373 . S
N2 C4 1.340 . S
N3 C0 1.368 . S
N3 C4 1.321 . S
N3 Co6 2.135 . S
C4 N2 1.340 . S
C4 N3 1.321 . S
C4 H28 0.930 . S
H5 C0 0.931 1_565 S
Co6 N3 2.135 . S
Co6 N9 2.121 . S
Co6 O14 2.060 . S
Co6 O17 2.039 . S
Co6 N20 2.140 . S
C7 O8 1.227 . S
C7 O17 1.265 . S
O8 C7 1.227 . S
N9 Co6 2.121 . S
N9 C11 1.375 . S
N9 C12 1.313 . S
C10 C11 1.338 . S
C10 N13 1.377 . S
C10 H30 0.930 . S
C11 N9 1.375 . S
C11 C10 1.338 . S
C11 H15 0.931 . S
C12 N9 1.313 . S
C12 N13 1.344 . S
C12 H16 0.930 1_545 S
N13 C10 1.377 . S
N13 C12 1.344 . S
O14 Co6 2.060 . S
O14 C18 1.247 1_545 S
H15 C11 0.931 . S
H16 C12 0.930 1_565 S
O17 Co6 2.039 . S
O17 C7 1.265 . S
C18 O14 1.247 1_565 S
C18 O19 1.227 . S
O19 C18 1.227 . S
N20 Co6 2.140 . S
N20 C23 1.346 . S
N20 C24 1.345 . S
C21 C22 1.387 . S
C21 C25 1.391 . S
C22 C21 1.387 . S
C22 C23 1.369 . S
C22 H31 0.929 . S
C23 N20 1.346 . S
C23 C22 1.369 . S
C23 H26 0.928 . S
C24 N20 1.345 . S
C24 C25 1.371 . S
C24 H27 0.931 . S
C25 C21 1.391 . S
C25 C24 1.371 . S
C25 H32 0.930 . S
H26 C23 0.928 . S
H27 C24 0.931 . S
H28 C4 0.930 . S
H29 C1 0.930 1_556 S
H30 C10 0.930 . S
H31 C22 0.929 . S
H32 C25 0.930 . S
C33 C34 1.351 . S
C33 N36 1.368 . S
C33 H38 0.931 . S
C34 C33 1.351 . S
C34 N35 1.373 . S
C34 H62 0.930 1_554 S
N35 C34 1.373 . S
N35 C37 1.340 . S
N36 C33 1.368 . S
N36 C37 1.321 . S
N36 Co39 2.135 . S
C37 N35 1.340 . S
C37 N36 1.321 . S
C37 H61 0.930 . S
H38 C33 0.931 . S
Co39 N36 2.135 . S
Co39 N42 2.121 . S
Co39 O47 2.055 . S
Co39 O50 2.039 . S
Co39 N53 2.140 . S
C40 O41 1.227 . S
C40 O50 1.265 . S
O41 C40 1.227 . S
N42 Co39 2.121 . S
N42 C44 1.375 . S
N42 C45 1.313 . S
C43 C44 1.338 . S
C43 N46 1.377 . S
C43 H63 0.930 . S
C44 N42 1.375 . S
C44 C43 1.338 . S
C44 H48 0.931 . S
C45 N42 1.313 . S
C45 N46 1.344 . S
C45 H49 0.930 . S
N46 C43 1.377 . S
N46 C45 1.344 . S
O47 Co39 2.055 . S
O47 C51 1.253 . S
H48 C44 0.931 . S
H49 C45 0.930 . S
O50 Co39 2.039 . S
O50 C40 1.265 . S
C51 O47 1.253 . S
C51 O52 1.227 . S
O52 C51 1.227 . S
N53 Co39 2.140 . S
N53 C56 1.346 . S
N53 C57 1.345 . S
C54 C55 1.387 . S
C54 C58 1.391 . S
C55 C54 1.387 . S
C55 C56 1.369 . S
C55 H64 0.929 . S
C56 N53 1.346 . S
C56 C55 1.369 . S
C56 H59 0.928 . S
C57 N53 1.345 . S
C57 C58 1.371 . S
C57 H60 0.931 . S
C58 C54 1.391 . S
C58 C57 1.371 . S
C58 H65 0.930 . S
H59 C56 0.928 . S
H60 C57 0.931 . S
H61 C37 0.930 . S
H62 C34 0.930 1_556 S
H63 C43 0.930 . S
H64 C55 0.929 . S
H65 C58 0.930 . S
C66 C67 1.351 . S
C66 N69 1.368 . S
C66 H71 0.931 1_565 S
C67 C66 1.351 . S
C67 N68 1.373 . S
C67 H95 0.930 . S
N68 C67 1.373 . S
N68 C70 1.340 . S
N69 C66 1.368 . S
N69 C70 1.321 . S
N69 Co72 2.135 . S
C70 N68 1.340 . S
C70 N69 1.321 . S
C70 H94 0.930 . S
H71 C66 0.931 1_545 S
Co72 N69 2.135 . S
Co72 N75 2.121 . S
Co72 O80 2.060 . S
Co72 O83 2.039 . S
Co72 N86 2.140 . S
C73 O74 1.227 . S
C73 O83 1.265 . S
O74 C73 1.227 . S
N75 Co72 2.121 . S
N75 C77 1.375 . S
N75 C78 1.313 . S
C76 C77 1.338 . S
C76 N79 1.377 . S
C76 H96 0.930 . S
C77 N75 1.375 . S
C77 C76 1.338 . S
C77 H81 0.931 . S
C78 N75 1.313 . S
C78 N79 1.344 . S
C78 H82 0.930 1_565 S
N79 C76 1.377 . S
N79 C78 1.344 . S
O80 Co72 2.060 . S
O80 C84 1.247 1_565 S
H81 C77 0.931 . S
H82 C78 0.930 1_545 S
O83 Co72 2.039 . S
O83 C73 1.265 . S
C84 O80 1.247 1_545 S
C84 O85 1.227 . S
O85 C84 1.227 . S
N86 Co72 2.140 . S
N86 C89 1.346 . S
N86 C90 1.345 . S
C87 C88 1.387 . S
C87 C91 1.391 . S
C88 C87 1.387 . S
C88 C89 1.369 . S
C88 H97 0.929 . S
C89 N86 1.346 . S
C89 C88 1.369 . S
C89 H92 0.928 . S
C90 N86 1.345 . S
C90 C91 1.371 . S
C90 H93 0.931 . S
C91 C87 1.391 . S
C91 C90 1.371 . S
C91 H98 0.930 . S
H92 C89 0.928 . S
H93 C90 0.931 . S
H94 C70 0.930 . S
H95 C67 0.930 . S
H96 C76 0.930 . S
H97 C88 0.929 . S
H98 C91 0.930 . S
C99 C100 1.351 . S
C99 N102 1.368 . S
C99 H104 0.931 . S
C100 C99 1.351 . S
C100 N101 1.373 . S
C100 H128 0.930 . S
N101 C100 1.373 . S
N101 C103 1.340 . S
N102 C99 1.368 . S
N102 C103 1.321 . S
N102 Co105 2.135 . S
C103 N101 1.340 . S
C103 N102 1.321 . S
C103 H127 0.930 . S
H104 C99 0.931 . S
Co105 N102 2.135 . S
Co105 N108 2.121 . S
Co105 O113 2.055 . S
Co105 O116 2.039 . S
Co105 N119 2.140 . S
C106 O107 1.227 . S
C106 O116 1.265 . S
O107 C106 1.227 . S
N108 Co105 2.121 . S
N108 C110 1.375 . S
N108 C111 1.313 . S
C109 C110 1.338 . S
C109 N112 1.377 . S
C109 H129 0.930 . S
C110 N108 1.375 . S
C110 C109 1.338 . S
C110 H114 0.931 . S
C111 N108 1.313 . S
C111 N112 1.344 . S
C111 H115 0.930 . S
N112 C109 1.377 . S
N112 C111 1.344 . S
O113 Co105 2.055 . S
O113 C117 1.253 . S
H114 C110 0.931 . S
H115 C111 0.930 . S
O116 Co105 2.039 . S
O116 C106 1.265 . S
C117 O113 1.253 . S
C117 O118 1.227 . S
O118 C117 1.227 . S
N119 Co105 2.140 . S
N119 C122 1.346 . S
N119 C123 1.345 . S
C120 C121 1.387 . S
C120 C124 1.391 . S
C121 C120 1.387 . S
C121 C122 1.369 . S
C121 H130 0.929 . S
C122 N119 1.346 . S
C122 C121 1.369 . S
C122 H125 0.928 . S
C123 N119 1.345 . S
C123 C124 1.371 . S
C123 H126 0.931 . S
C124 C120 1.391 . S
C124 C123 1.371 . S
C124 H131 0.930 . S
H125 C122 0.928 . S
H126 C123 0.931 . S
H127 C103 0.930 . S
H128 C100 0.930 . S
H129 C109 0.930 . S
H130 C121 0.929 . S
H131 C124 0.930 . S
C132 C133 1.351 . S
C132 N135 1.368 . S
C132 H137 0.931 1_565 S
C133 C132 1.351 . S
C133 N134 1.373 . S
C133 H161 0.930 1_556 S
N134 C133 1.373 . S
N134 C136 1.340 . S
N135 C132 1.368 . S
N135 C136 1.321 . S
N135 Co138 2.135 . S
C136 N134 1.340 . S
C136 N135 1.321 . S
C136 H160 0.930 . S
H137 C132 0.931 1_545 S
Co138 N135 2.135 . S
Co138 N141 2.121 . S
Co138 O146 2.060 . S
Co138 O149 2.039 . S
Co138 N152 2.140 . S
C139 O140 1.227 . S
C139 O149 1.265 . S
O140 C139 1.227 . S
N141 Co138 2.121 . S
N141 C143 1.375 . S
N141 C144 1.313 . S
C142 C143 1.338 . S
C142 N145 1.377 . S
C142 H162 0.930 . S
C143 N141 1.375 . S
C143 C142 1.338 . S
C143 H147 0.931 . S
C144 N141 1.313 . S
C144 N145 1.344 . S
C144 H148 0.930 1_565 S
N145 C142 1.377 . S
N145 C144 1.344 . S
O146 Co138 2.060 . S
O146 C150 1.247 1_565 S
H147 C143 0.931 . S
H148 C144 0.930 1_545 S
O149 Co138 2.039 . S
O149 C139 1.265 . S
C150 O146 1.247 1_545 S
C150 O151 1.227 . S
O151 C150 1.227 . S
N152 Co138 2.140 . S
N152 C155 1.346 . S
N152 C156 1.345 . S
C153 C154 1.387 . S
C153 C157 1.391 . S
C154 C153 1.387 . S
C154 C155 1.369 . S
C154 H163 0.929 . S
C155 N152 1.346 . S
C155 C154 1.369 . S
C155 H158 0.928 . S
C156 N152 1.345 . S
C156 C157 1.371 . S
C156 H159 0.931 . S
C157 C153 1.391 . S
C157 C156 1.371 . S
C157 H164 0.930 . S
H158 C155 0.928 . S
H159 C156 0.931 . S
H160 C136 0.930 . S
H161 C133 0.930 1_554 S
H162 C142 0.930 . S
H163 C154 0.929 . S
H164 C157 0.930 . S
C165 C166 1.351 . S
C165 N168 1.368 . S
C165 H170 0.931 . S
C166 C165 1.351 . S
C166 N167 1.373 . S
C166 H194 0.930 1_556 S
N167 C166 1.373 . S
N167 C169 1.340 . S
N168 C165 1.368 . S
N168 C169 1.321 . S
N168 Co171 2.135 . S
C169 N167 1.340 . S
C169 N168 1.321 . S
C169 H193 0.930 . S
H170 C165 0.931 . S
Co171 N168 2.135 . S
Co171 N174 2.121 . S
Co171 O179 2.055 . S
Co171 O182 2.039 . S
Co171 N185 2.140 . S
C172 O173 1.227 . S
C172 O182 1.265 . S
O173 C172 1.227 . S
N174 Co171 2.121 . S
N174 C176 1.375 . S
N174 C177 1.313 . S
C175 C176 1.338 . S
C175 N178 1.377 . S
C175 H195 0.930 . S
C176 N174 1.375 . S
C176 C175 1.338 . S
C176 H180 0.931 . S
C177 N174 1.313 . S
C177 N178 1.344 . S
C177 H181 0.930 . S
N178 C175 1.377 . S
N178 C177 1.344 . S
O179 Co171 2.055 . S
O179 C183 1.253 . S
H180 C176 0.931 . S
H181 C177 0.930 . S
O182 Co171 2.039 . S
O182 C172 1.265 . S
C183 O179 1.253 . S
C183 O184 1.227 . S
O184 C183 1.227 . S
N185 Co171 2.140 . S
N185 C188 1.346 . S
N185 C189 1.345 . S
C186 C187 1.387 . S
C186 C190 1.391 . S
C187 C186 1.387 . S
C187 C188 1.369 . S
C187 H196 0.929 . S
C188 N185 1.346 . S
C188 C187 1.369 . S
C188 H191 0.928 . S
C189 N185 1.345 . S
C189 C190 1.371 . S
C189 H192 0.931 . S
C190 C186 1.391 . S
C190 C189 1.371 . S
C190 H197 0.930 . S
H191 C188 0.928 . S
H192 C189 0.931 . S
H193 C169 0.930 . S
H194 C166 0.930 1_554 S
H195 C175 0.930 . S
H196 C187 0.929 . S
H197 C190 0.930 . S
C198 C199 1.351 . S
C198 N201 1.368 . S
C198 H203 0.931 1_545 S
C199 C198 1.351 . S
C199 N200 1.373 . S
C199 H227 0.930 . S
N200 C199 1.373 . S
N200 C202 1.340 . S
N201 C198 1.368 . S
N201 C202 1.321 . S
N201 Co204 2.135 . S
C202 N200 1.340 . S
C202 N201 1.321 . S
C202 H226 0.930 . S
H203 C198 0.931 1_565 S
Co204 N201 2.135 . S
Co204 N207 2.121 . S
Co204 O212 2.060 . S
Co204 O215 2.039 . S
Co204 N218 2.140 . S
C205 O206 1.227 . S
C205 O215 1.265 . S
O206 C205 1.227 . S
N207 Co204 2.121 . S
N207 C209 1.375 . S
N207 C210 1.313 . S
C208 C209 1.338 . S
C208 N211 1.377 . S
C208 H228 0.930 . S
C209 N207 1.375 . S
C209 C208 1.338 . S
C209 H213 0.931 . S
C210 N207 1.313 . S
C210 N211 1.344 . S
C210 H214 0.930 1_545 S
N211 C208 1.377 . S
N211 C210 1.344 . S
O212 Co204 2.060 . S
O212 C216 1.247 1_545 S
H213 C209 0.931 . S
H214 C210 0.930 1_565 S
O215 Co204 2.039 . S
O215 C205 1.265 . S
C216 O212 1.247 1_565 S
C216 O217 1.227 . S
O217 C216 1.227 . S
N218 Co204 2.140 . S
N218 C221 1.346 . S
N218 C222 1.345 . S
C219 C220 1.387 . S
C219 C223 1.391 . S
C220 C219 1.387 . S
C220 C221 1.369 . S
C220 H229 0.929 . S
C221 N218 1.346 . S
C221 C220 1.369 . S
C221 H224 0.928 . S
C222 N218 1.345 . S
C222 C223 1.371 . S
C222 H225 0.931 . S
C223 C219 1.391 . S
C223 C222 1.371 . S
C223 H230 0.930 . S
H224 C221 0.928 . S
H225 C222 0.931 . S
H226 C202 0.930 . S
H227 C199 0.930 . S
H228 C208 0.930 . S
H229 C220 0.929 . S
H230 C223 0.930 . S
C231 C232 1.351 . S
C231 N234 1.368 . S
C231 H236 0.931 . S
C232 C231 1.351 . S
C232 N233 1.373 . S
C232 H260 0.930 . S
N233 C232 1.373 . S
N233 C235 1.340 . S
N234 C231 1.368 . S
N234 C235 1.321 . S
N234 Co237 2.135 . S
C235 N233 1.340 . S
C235 N234 1.321 . S
C235 H259 0.930 . S
H236 C231 0.931 . S
Co237 N234 2.135 . S
Co237 N240 2.121 . S
Co237 O245 2.055 . S
Co237 O248 2.039 . S
Co237 N251 2.140 . S
C238 O239 1.227 . S
C238 O248 1.265 . S
O239 C238 1.227 . S
N240 Co237 2.121 . S
N240 C242 1.375 . S
N240 C243 1.313 . S
C241 C242 1.338 . S
C241 N244 1.377 . S
C241 H261 0.930 . S
C242 N240 1.375 . S
C242 C241 1.338 . S
C242 H246 0.931 . S
C243 N240 1.313 . S
C243 N244 1.344 . S
C243 H247 0.930 . S
N244 C241 1.377 . S
N244 C243 1.344 . S
O245 Co237 2.055 . S
O245 C249 1.253 . S
H246 C242 0.931 . S
H247 C243 0.930 . S
O248 Co237 2.039 . S
O248 C238 1.265 . S
C249 O245 1.253 . S
C249 O250 1.227 . S
O250 C249 1.227 . S
N251 Co237 2.140 . S
N251 C254 1.346 . S
N251 C255 1.345 . S
C252 C253 1.387 . S
C252 C256 1.391 . S
C253 C252 1.387 . S
C253 C254 1.369 . S
C253 H262 0.929 . S
C254 N251 1.346 . S
C254 C253 1.369 . S
C254 H257 0.928 . S
C255 N251 1.345 . S
C255 C256 1.371 . S
C255 H258 0.931 . S
C256 C252 1.391 . S
C256 C255 1.371 . S
C256 H263 0.930 . S
H257 C254 0.928 . S
H258 C255 0.931 . S
H259 C235 0.930 . S
H260 C232 0.930 . S
H261 C241 0.930 . S
H262 C253 0.929 . S
H263 C256 0.930 . S
C264 C265 1.351 . S
C264 N267 1.368 . S
C264 H269 0.931 . S
C265 C264 1.351 . S
C265 N266 1.373 . S
C265 H293 0.930 . S
N266 C265 1.373 . S
N266 C268 1.340 . S
N267 C264 1.368 . S
N267 C268 1.321 . S
N267 Co270 2.135 . S
C268 N266 1.340 . S
C268 N267 1.321 . S
C268 H292 0.930 . S
H269 C264 0.931 . S
Co270 N267 2.135 . S
Co270 N273 2.121 . S
Co270 O278 2.055 . S
Co270 O281 2.039 . S
Co270 N284 2.140 . S
C271 O272 1.227 . S
C271 O281 1.265 . S
O272 C271 1.227 . S
N273 Co270 2.121 . S
N273 C275 1.375 . S
N273 C276 1.313 . S
C274 C275 1.338 . S
C274 N277 1.377 . S
C274 H294 0.930 . S
C275 N273 1.375 . S
C275 C274 1.338 . S
C275 H279 0.931 . S
C276 N273 1.313 . S
C276 N277 1.344 . S
C276 H280 0.930 . S
N277 C274 1.377 . S
N277 C276 1.344 . S
O278 Co270 2.055 . S
O278 C282 1.253 . S
H279 C275 0.931 . S
H280 C276 0.930 . S
O281 Co270 2.039 . S
O281 C271 1.265 . S
C282 O278 1.253 . S
C282 O283 1.227 . S
O283 C282 1.227 . S
N284 Co270 2.140 . S
N284 C287 1.346 . S
N284 C288 1.345 . S
C285 C286 1.387 . S
C285 C289 1.391 . S
C286 C285 1.387 . S
C286 C287 1.369 . S
C286 H295 0.929 . S
C287 N284 1.346 . S
C287 C286 1.369 . S
C287 H290 0.928 . S
C288 N284 1.345 . S
C288 C289 1.371 . S
C288 H291 0.931 . S
C289 C285 1.391 . S
C289 C288 1.371 . S
C289 H296 0.930 . S
H290 C287 0.928 . S
H291 C288 0.931 . S
H292 C268 0.930 . S
H293 C265 0.930 . S
H294 C274 0.930 . S
H295 C286 0.929 . S
H296 C289 0.930 . S
C297 C298 1.351 . S
C297 N300 1.368 . S
C297 H302 0.931 1_565 S
C298 C297 1.351 . S
C298 N299 1.373 . S
C298 H326 0.930 . S
N299 C298 1.373 . S
N299 C301 1.340 . S
N300 C297 1.368 . S
N300 C301 1.321 . S
N300 Co303 2.135 . S
C301 N299 1.340 . S
C301 N300 1.321 . S
C301 H325 0.930 . S
H302 C297 0.931 1_545 S
Co303 N300 2.135 . S
Co303 N306 2.121 . S
Co303 O311 2.060 . S
Co303 O314 2.039 . S
Co303 N317 2.140 . S
C304 O305 1.227 . S
C304 O314 1.265 . S
O305 C304 1.227 . S
N306 Co303 2.121 . S
N306 C308 1.375 . S
N306 C309 1.313 . S
C307 C308 1.338 . S
C307 N310 1.377 . S
C307 H327 0.930 . S
C308 N306 1.375 . S
C308 C307 1.338 . S
C308 H312 0.931 . S
C309 N306 1.313 . S
C309 N310 1.344 . S
C309 H313 0.930 1_565 S
N310 C307 1.377 . S
N310 C309 1.344 . S
O311 Co303 2.060 . S
O311 C315 1.247 1_565 S
H312 C308 0.931 . S
H313 C309 0.930 1_545 S
O314 Co303 2.039 . S
O314 C304 1.265 . S
C315 O311 1.247 1_545 S
C315 O316 1.227 . S
O316 C315 1.227 . S
N317 Co303 2.140 . S
N317 C320 1.346 . S
N317 C321 1.345 . S
C318 C319 1.387 . S
C318 C322 1.391 . S
C319 C318 1.387 . S
C319 C320 1.369 . S
C319 H328 0.929 . S
C320 N317 1.346 . S
C320 C319 1.369 . S
C320 H323 0.928 . S
C321 N317 1.345 . S
C321 C322 1.371 . S
C321 H324 0.931 . S
C322 C318 1.391 . S
C322 C321 1.371 . S
C322 H329 0.930 . S
H323 C320 0.928 . S
H324 C321 0.931 . S
H325 C301 0.930 . S
H326 C298 0.930 . S
H327 C307 0.930 . S
H328 C319 0.929 . S
H329 C322 0.930 . S
C330 C331 1.351 . S
C330 N333 1.368 . S
C330 H335 0.931 . S
C331 C330 1.351 . S
C331 N332 1.373 . S
C331 H359 0.930 1_556 S
N332 C331 1.373 . S
N332 C334 1.340 . S
N333 C330 1.368 . S
N333 C334 1.321 . S
N333 Co336 2.135 . S
C334 N332 1.340 . S
C334 N333 1.321 . S
C334 H358 0.930 . S
H335 C330 0.931 . S
Co336 N333 2.135 . S
Co336 N339 2.121 . S
Co336 O344 2.055 . S
Co336 O347 2.039 . S
Co336 N350 2.140 . S
C337 O338 1.227 . S
C337 O347 1.265 . S
O338 C337 1.227 . S
N339 Co336 2.121 . S
N339 C341 1.375 . S
N339 C342 1.313 . S
C340 C341 1.338 . S
C340 N343 1.377 . S
C340 H360 0.930 . S
C341 N339 1.375 . S
C341 C340 1.338 . S
C341 H345 0.931 . S
C342 N339 1.313 . S
C342 N343 1.344 . S
C342 H346 0.930 . S
N343 C340 1.377 . S
N343 C342 1.344 . S
O344 Co336 2.055 . S
O344 C348 1.253 . S
H345 C341 0.931 . S
H346 C342 0.930 . S
O347 Co336 2.039 . S
O347 C337 1.265 . S
C348 O344 1.253 . S
C348 O349 1.227 . S
O349 C348 1.227 . S
N350 Co336 2.140 . S
N350 C353 1.346 . S
N350 C354 1.345 . S
C351 C352 1.387 . S
C351 C355 1.391 . S
C352 C351 1.387 . S
C352 C353 1.369 . S
C352 H361 0.929 . S
C353 N350 1.346 . S
C353 C352 1.369 . S
C353 H356 0.928 . S
C354 N350 1.345 . S
C354 C355 1.371 . S
C354 H357 0.931 . S
C355 C351 1.391 . S
C355 C354 1.371 . S
C355 H362 0.930 . S
H356 C353 0.928 . S
H357 C354 0.931 . S
H358 C334 0.930 . S
H359 C331 0.930 1_554 S
H360 C340 0.930 . S
H361 C352 0.929 . S
H362 C355 0.930 . S
C363 C364 1.351 . S
C363 N366 1.368 . S
C363 H368 0.931 1_545 S
C364 C363 1.351 . S
C364 N365 1.373 . S
C364 H392 0.930 1_556 S
N365 C364 1.373 . S
N365 C367 1.340 . S
N366 C363 1.368 . S
N366 C367 1.321 . S
N366 Co369 2.135 . S
C367 N365 1.340 . S
C367 N366 1.321 . S
C367 H391 0.930 . S
H368 C363 0.931 1_565 S
Co369 N366 2.135 . S
Co369 N372 2.121 . S
Co369 O377 2.060 . S
Co369 O380 2.039 . S
Co369 N383 2.140 . S
C370 O371 1.227 . S
C370 O380 1.265 . S
O371 C370 1.227 . S
N372 Co369 2.121 . S
N372 C374 1.375 . S
N372 C375 1.313 . S
C373 C374 1.338 . S
C373 N376 1.377 . S
C373 H393 0.930 . S
C374 N372 1.375 . S
C374 C373 1.338 . S
C374 H378 0.931 . S
C375 N372 1.313 . S
C375 N376 1.344 . S
C375 H379 0.930 1_545 S
N376 C373 1.377 . S
N376 C375 1.344 . S
O377 Co369 2.060 . S
O377 C381 1.247 1_545 S
H378 C374 0.931 . S
H379 C375 0.930 1_565 S
O380 Co369 2.039 . S
O380 C370 1.265 . S
C381 O377 1.247 1_565 S
C381 O382 1.227 . S
O382 C381 1.227 . S
N383 Co369 2.140 . S
N383 C386 1.346 . S
N383 C387 1.345 . S
C384 C385 1.387 . S
C384 C388 1.391 . S
C385 C384 1.387 . S
C385 C386 1.369 . S
C385 H394 0.929 . S
C386 N383 1.346 . S
C386 C385 1.369 . S
C386 H389 0.928 . S
C387 N383 1.345 . S
C387 C388 1.371 . S
C387 H390 0.931 . S
C388 C384 1.391 . S
C388 C387 1.371 . S
C388 H395 0.930 . S
H389 C386 0.928 . S
H390 C387 0.931 . S
H391 C367 0.930 . S
H392 C364 0.930 1_554 S
H393 C373 0.930 . S
H394 C385 0.929 . S
H395 C388 0.930 . S
C396 C397 1.351 . S
C396 N399 1.368 . S
C396 H401 0.931 . S
C397 C396 1.351 . S
C397 N398 1.373 . S
C397 H425 0.930 . S
N398 C397 1.373 . S
N398 C400 1.340 . S
N399 C396 1.368 . S
N399 C400 1.321 . S
N399 Co402 2.135 . S
C400 N398 1.340 . S
C400 N399 1.321 . S
C400 H424 0.930 . S
H401 C396 0.931 . S
Co402 N399 2.135 . S
Co402 N405 2.121 . S
Co402 O410 2.055 . S
Co402 O413 2.039 . S
Co402 N416 2.140 . S
C403 O404 1.227 . S
C403 O413 1.265 . S
O404 C403 1.227 . S
N405 Co402 2.121 . S
N405 C407 1.375 . S
N405 C408 1.313 . S
C406 C407 1.338 . S
C406 N409 1.377 . S
C406 H426 0.930 . S
C407 N405 1.375 . S
C407 C406 1.338 . S
C407 H411 0.931 . S
C408 N405 1.313 . S
C408 N409 1.344 . S
C408 H412 0.930 . S
N409 C406 1.377 . S
N409 C408 1.344 . S
O410 Co402 2.055 . S
O410 C414 1.253 . S
H411 C407 0.931 . S
H412 C408 0.930 . S
O413 Co402 2.039 . S
O413 C403 1.265 . S
C414 O410 1.253 . S
C414 O415 1.227 . S
O415 C414 1.227 . S
N416 Co402 2.140 . S
N416 C419 1.346 . S
N416 C420 1.345 . S
C417 C418 1.387 . S
C417 C421 1.391 . S
C418 C417 1.387 . S
C418 C419 1.369 . S
C418 H427 0.929 . S
C419 N416 1.346 . S
C419 C418 1.369 . S
C419 H422 0.928 . S
C420 N416 1.345 . S
C420 C421 1.371 . S
C420 H423 0.931 . S
C421 C417 1.391 . S
C421 C420 1.371 . S
C421 H428 0.930 . S
H422 C419 0.928 . S
H423 C420 0.931 . S
H424 C400 0.930 . S
H425 C397 0.930 . S
H426 C406 0.930 . S
H427 C418 0.929 . S
H428 C421 0.930 . S
C429 C430 1.351 . S
C429 N432 1.368 . S
C429 H434 0.931 1_545 S
C430 C429 1.351 . S
C430 N431 1.373 . S
C430 H458 0.930 . S
N431 C430 1.373 . S
N431 C433 1.340 . S
N432 C429 1.368 . S
N432 C433 1.321 . S
N432 Co435 2.135 . S
C433 N431 1.340 . S
C433 N432 1.321 . S
C433 H457 0.930 . S
H434 C429 0.931 1_565 S
Co435 N432 2.135 . S
Co435 N438 2.121 . S
Co435 O443 2.060 . S
Co435 O446 2.039 . S
Co435 N449 2.140 . S
C436 O437 1.227 . S
C436 O446 1.265 . S
O437 C436 1.227 . S
N438 Co435 2.121 . S
N438 C440 1.375 . S
N438 C441 1.313 . S
C439 C440 1.338 . S
C439 N442 1.377 . S
C439 H459 0.930 . S
C440 N438 1.375 . S
C440 C439 1.338 . S
C440 H444 0.931 . S
C441 N438 1.313 . S
C441 N442 1.344 . S
C441 H445 0.930 1_545 S
N442 C439 1.377 . S
N442 C441 1.344 . S
O443 Co435 2.060 . S
O443 C447 1.247 1_545 S
H444 C440 0.931 . S
H445 C441 0.930 1_565 S
O446 Co435 2.039 . S
O446 C436 1.265 . S
C447 O443 1.247 1_565 S
C447 O448 1.227 . S
O448 C447 1.227 . S
N449 Co435 2.140 . S
N449 C452 1.346 . S
N449 C453 1.345 . S
C450 C451 1.387 . S
C450 C454 1.391 . S
C451 C450 1.387 . S
C451 C452 1.369 . S
C451 H460 0.929 . S
C452 N449 1.346 . S
C452 C451 1.369 . S
C452 H455 0.928 . S
C453 N449 1.345 . S
C453 C454 1.371 . S
C453 H456 0.931 . S
C454 C450 1.391 . S
C454 C453 1.371 . S
C454 H461 0.930 . S
H455 C452 0.928 . S
H456 C453 0.931 . S
H457 C433 0.930 . S
H458 C430 0.930 . S
H459 C439 0.930 . S
H460 C451 0.929 . S
H461 C454 0.930 . S
C462 C463 1.351 . S
C462 N465 1.368 . S
C462 H467 0.931 . S
C463 C462 1.351 . S
C463 N464 1.373 . S
C463 H491 0.930 1_554 S
N464 C463 1.373 . S
N464 C466 1.340 . S
N465 C462 1.368 . S
N465 C466 1.321 . S
N465 Co468 2.135 . S
C466 N464 1.340 . S
C466 N465 1.321 . S
C466 H490 0.930 . S
H467 C462 0.931 . S
Co468 N465 2.135 . S
Co468 N471 2.121 . S
Co468 O476 2.055 . S
Co468 O479 2.039 . S
Co468 N482 2.140 . S
C469 O470 1.227 . S
C469 O479 1.265 . S
O470 C469 1.227 . S
N471 Co468 2.121 . S
N471 C473 1.375 . S
N471 C474 1.313 . S
C472 C473 1.338 . S
C472 N475 1.377 . S
C472 H492 0.930 . S
C473 N471 1.375 . S
C473 C472 1.338 . S
C473 H477 0.931 . S
C474 N471 1.313 . S
C474 N475 1.344 . S
C474 H478 0.930 . S
N475 C472 1.377 . S
N475 C474 1.344 . S
O476 Co468 2.055 . S
O476 C480 1.253 . S
H477 C473 0.931 . S
H478 C474 0.930 . S
O479 Co468 2.039 . S
O479 C469 1.265 . S
C480 O476 1.253 . S
C480 O481 1.227 . S
O481 C480 1.227 . S
N482 Co468 2.140 . S
N482 C485 1.346 . S
N482 C486 1.345 . S
C483 C484 1.387 . S
C483 C487 1.391 . S
C484 C483 1.387 . S
C484 C485 1.369 . S
C484 H493 0.929 . S
C485 N482 1.346 . S
C485 C484 1.369 . S
C485 H488 0.928 . S
C486 N482 1.345 . S
C486 C487 1.371 . S
C486 H489 0.931 . S
C487 C483 1.391 . S
C487 C486 1.371 . S
C487 H494 0.930 . S
H488 C485 0.928 . S
H489 C486 0.931 . S
H490 C466 0.930 . S
H491 C463 0.930 1_556 S
H492 C472 0.930 . S
H493 C484 0.929 . S
H494 C487 0.930 . S
C495 C496 1.351 . S
C495 N498 1.368 . S
C495 H500 0.931 1_565 S
C496 C495 1.351 . S
C496 N497 1.373 . S
C496 H524 0.930 1_554 S
N497 C496 1.373 . S
N497 C499 1.340 . S
N498 C495 1.368 . S
N498 C499 1.321 . S
N498 Co501 2.135 . S
C499 N497 1.340 . S
C499 N498 1.321 . S
C499 H523 0.930 . S
H500 C495 0.931 1_545 S
Co501 N498 2.135 . S
Co501 N504 2.121 . S
Co501 O509 2.060 . S
Co501 O512 2.039 . S
Co501 N515 2.140 . S
C502 O503 1.227 . S
C502 O512 1.265 . S
O503 C502 1.227 . S
N504 Co501 2.121 . S
N504 C506 1.375 . S
N504 C507 1.313 . S
C505 C506 1.338 . S
C505 N508 1.377 . S
C505 H525 0.930 . S
C506 N504 1.375 . S
C506 C505 1.338 . S
C506 H510 0.931 . S
C507 N504 1.313 . S
C507 N508 1.344 . S
C507 H511 0.930 1_565 S
N508 C505 1.377 . S
N508 C507 1.344 . S
O509 Co501 2.060 . S
O509 C513 1.247 1_565 S
H510 C506 0.931 . S
H511 C507 0.930 1_545 S
O512 Co501 2.039 . S
O512 C502 1.265 . S
C513 O509 1.247 1_545 S
C513 O514 1.227 . S
O514 C513 1.227 . S
N515 Co501 2.140 . S
N515 C518 1.346 . S
N515 C519 1.345 . S
C516 C517 1.387 . S
C516 C520 1.391 . S
C517 C516 1.387 . S
C517 C518 1.369 . S
C517 H526 0.929 . S
C518 N515 1.346 . S
C518 C517 1.369 . S
C518 H521 0.928 . S
C519 N515 1.345 . S
C519 C520 1.371 . S
C519 H522 0.931 . S
C520 C516 1.391 . S
C520 C519 1.371 . S
C520 H527 0.930 . S
H521 C518 0.928 . S
H522 C519 0.931 . S
H523 C499 0.930 . S
H524 C496 0.930 1_556 S
H525 C505 0.930 . S
H526 C517 0.929 . S
H527 C520 0.930 . S
C18 C469 0.873 . S
C51 C502 0.873 . S
C84 C403 0.873 . S
C436 C117 0.873 . S
C150 C337 0.873 . S
C183 C370 0.873 . S
C216 C271 0.873 . S
C304 C249 0.873 . S
C282 C205 0.873 . S
C238 C315 0.873 . S
C348 C139 0.873 . S
C381 C172 0.873 . S
C414 C73 0.873 . S
C447 C106 0.873 . S
C7 C480 0.873 . S
C40 C513 0.873 . S
N2 N365 1.551 1_554 S
N332 N35 1.551 1_556 S
N68 N299 1.551 . S
N266 N101 1.551 . S
N134 N497 1.551 1_556 S
N464 N167 1.551 1_554 S
N200 N431 1.551 . S
N233 N398 1.551 . S
N13 N79 2.524 1_545 S
N46 N112 2.524 . S
N145 N211 2.524 1_565 S
N244 N178 2.524 . S
N343 N277 2.524 . S
N376 N310 2.524 1_545 S
N409 N475 2.524 . S
N442 N508 2.524 1_545 S
C54 C21 1.849 . S
C87 C120 1.849 . S
C153 C186 1.849 . S
C252 C219 1.849 . S
C285 C318 1.849 1_655 S
C384 C351 1.849 1_455 S
C417 C450 1.849 1_455 S
C516 C483 1.849 1_655 S
