# Generated by pormake.
# Topology ung, (4)-cn, num edge types: 1
# Building blocks:
#     Node 0, Type 0, BuildingBlock: NAWXER_clean_sbu_0, # of connection points: 4
#     Node 1, Type 0, BuildingBlock: NAWXER_clean_sbu_0, # of connection points: 4
#     Node 2, Type 0, BuildingBlock: NAWXER_clean_sbu_0, # of connection points: 4
#     Node 3, Type 0, BuildingBlock: NAWXER_clean_sbu_0, # of connection points: 4
#     Node 4, Type 0, BuildingBlock: NAWXER_clean_sbu_0, # of connection points: 4
#     Node 5, Type 0, BuildingBlock: NAWXER_clean_sbu_0, # of connection points: 4
#     Node 6, Type 0, BuildingBlock: NAWXER_clean_sbu_0, # of connection points: 4
#     Node 7, Type 0, BuildingBlock: NAWXER_clean_sbu_0, # of connection points: 4
#     Node 8, Type 0, BuildingBlock: NAWXER_clean_sbu_0, # of connection points: 4
#     Node 9, Type 0, BuildingBlock: NAWXER_clean_sbu_0, # of connection points: 4
#     Node 10, Type 0, BuildingBlock: NAWXER_clean_sbu_0, # of connection points: 4
#     Node 11, Type 0, BuildingBlock: NAWXER_clean_sbu_0, # of connection points: 4
#     Node 12, Type 0, BuildingBlock: NAWXER_clean_sbu_0, # of connection points: 4
#     Node 13, Type 0, BuildingBlock: NAWXER_clean_sbu_0, # of connection points: 4
#     Node 14, Type 0, BuildingBlock: NAWXER_clean_sbu_0, # of connection points: 4
#     Node 15, Type 0, BuildingBlock: NAWXER_clean_sbu_0, # of connection points: 4
#     Node 16, Type 0, BuildingBlock: NAWXER_clean_sbu_0, # of connection points: 4
#     Node 17, Type 0, BuildingBlock: NAWXER_clean_sbu_0, # of connection points: 4
#     Edge 18, Type (0, 0), BuildingBlock: KIFKEQ_clean_linker_1, # of connection points: 2
#     Edge 19, Type (0, 0), BuildingBlock: KIFKEQ_clean_linker_1, # of connection points: 2
#     Edge 20, Type (0, 0), BuildingBlock: KIFKEQ_clean_linker_1, # of connection points: 2
#     Edge 21, Type (0, 0), BuildingBlock: KIFKEQ_clean_linker_1, # of connection points: 2
#     Edge 22, Type (0, 0), BuildingBlock: KIFKEQ_clean_linker_1, # of connection points: 2
#     Edge 23, Type (0, 0), BuildingBlock: KIFKEQ_clean_linker_1, # of connection points: 2
#     Edge 24, Type (0, 0), BuildingBlock: KIFKEQ_clean_linker_1, # of connection points: 2
#     Edge 25, Type (0, 0), BuildingBlock: KIFKEQ_clean_linker_1, # of connection points: 2
#     Edge 26, Type (0, 0), BuildingBlock: KIFKEQ_clean_linker_1, # of connection points: 2
#     Edge 27, Type (0, 0), BuildingBlock: KIFKEQ_clean_linker_1, # of connection points: 2
#     Edge 28, Type (0, 0), BuildingBlock: KIFKEQ_clean_linker_1, # of connection points: 2
#     Edge 29, Type (0, 0), BuildingBlock: KIFKEQ_clean_linker_1, # of connection points: 2
#     Edge 30, Type (0, 0), BuildingBlock: KIFKEQ_clean_linker_1, # of connection points: 2
#     Edge 31, Type (0, 0), BuildingBlock: KIFKEQ_clean_linker_1, # of connection points: 2
#     Edge 32, Type (0, 0), BuildingBlock: KIFKEQ_clean_linker_1, # of connection points: 2
#     Edge 33, Type (0, 0), BuildingBlock: KIFKEQ_clean_linker_1, # of connection points: 2
#     Edge 34, Type (0, 0), BuildingBlock: KIFKEQ_clean_linker_1, # of connection points: 2
#     Edge 35, Type (0, 0), BuildingBlock: KIFKEQ_clean_linker_1, # of connection points: 2
#     Edge 36, Type (0, 0), BuildingBlock: KIFKEQ_clean_linker_1, # of connection points: 2
#     Edge 37, Type (0, 0), BuildingBlock: KIFKEQ_clean_linker_1, # of connection points: 2
#     Edge 38, Type (0, 0), BuildingBlock: KIFKEQ_clean_linker_1, # of connection points: 2
#     Edge 39, Type (0, 0), BuildingBlock: KIFKEQ_clean_linker_1, # of connection points: 2
#     Edge 40, Type (0, 0), BuildingBlock: KIFKEQ_clean_linker_1, # of connection points: 2
#     Edge 41, Type (0, 0), BuildingBlock: KIFKEQ_clean_linker_1, # of connection points: 2
#     Edge 42, Type (0, 0), BuildingBlock: KIFKEQ_clean_linker_1, # of connection points: 2
#     Edge 43, Type (0, 0), BuildingBlock: KIFKEQ_clean_linker_1, # of connection points: 2
#     Edge 44, Type (0, 0), BuildingBlock: KIFKEQ_clean_linker_1, # of connection points: 2
#     Edge 45, Type (0, 0), BuildingBlock: KIFKEQ_clean_linker_1, # of connection points: 2
#     Edge 46, Type (0, 0), BuildingBlock: KIFKEQ_clean_linker_1, # of connection points: 2
#     Edge 47, Type (0, 0), BuildingBlock: KIFKEQ_clean_linker_1, # of connection points: 2
#     Edge 48, Type (0, 0), BuildingBlock: KIFKEQ_clean_linker_1, # of connection points: 2
#     Edge 49, Type (0, 0), BuildingBlock: KIFKEQ_clean_linker_1, # of connection points: 2
#     Edge 50, Type (0, 0), BuildingBlock: KIFKEQ_clean_linker_1, # of connection points: 2
#     Edge 51, Type (0, 0), BuildingBlock: KIFKEQ_clean_linker_1, # of connection points: 2
#     Edge 52, Type (0, 0), BuildingBlock: KIFKEQ_clean_linker_1, # of connection points: 2
#     Edge 53, Type (0, 0), BuildingBlock: KIFKEQ_clean_linker_1, # of connection points: 2
# Relax obj value: 0.020
# Max RMSD: 0.247
# Mean RMSD: 0.247
data_MOF--net-ung--node1-NAWXER_clean_sbu_0--edge1-KIFKEQ_clean_linker_1
_symmetry_space_group_name_H-M    P1
_symmetry_Int_Tables_number       1
_symmetry_cell_setting            triclinic
loop_
_symmetry_equiv_pos_as_xyz
'x, y, z'
_cell_length_a     79.048645
_cell_length_b     79.053067
_cell_length_c     21.717584
_cell_angle_alpha  90.006911
_cell_angle_beta   90.003684
_cell_angle_gamma 119.97408
loop_
_atom_site_label
_atom_site_type_symbol
_atom_site_fract_x
_atom_site_fract_y
_atom_site_fract_z
_atom_type_partial_charge
C0 C 0.0815 0.62865 0.35137 0.0
C1 C 0.0614 0.66237 0.20838 0.0
O2 O 0.06531 0.62822 0.3463 0.0
Zn3 Zn 0.07208 0.64568 0.27819 0.0
O4 O 0.09557 0.63948 0.31472 0.0
Zn5 Zn 0.09965 0.65922 0.23885 0.0
O6 O 0.12013 0.6841 0.26592 0.0
O7 O 0.09277 0.67378 0.31794 0.0
O8 O 0.07914 0.66677 0.19796 0.0
O9 O 0.05182 0.65033 0.25075 0.0
O10 O 0.07588 0.62969 0.20218 0.0
O11 O 0.10647 0.6481 0.17257 0.0
C12 C 0.11058 0.68688 0.30767 0.0
C13 C 0.09013 0.63259 0.16675 0.0
C14 C 0.48236 0.50411 0.30304 0.0
C15 C 0.53637 0.53893 0.1616 0.0
O16 O 0.48492 0.51662 0.26211 0.0
Zn17 Zn 0.50971 0.52129 0.23398 0.0
O18 O 0.49568 0.49959 0.31249 0.0
Zn19 Zn 0.52415 0.50793 0.27229 0.0
O20 O 0.54139 0.51868 0.34069 0.0
O21 O 0.52946 0.5372 0.30982 0.0
O22 O 0.53984 0.52834 0.1985 0.0
O23 O 0.52029 0.53876 0.16564 0.0
O24 O 0.50196 0.49304 0.19519 0.0
O25 O 0.52091 0.48379 0.24111 0.0
C26 C 0.54052 0.53419 0.34624 0.0
C27 C 0.50763 0.48054 0.20238 0.0
C28 C 0.66579 0.05954 0.30835 0.0
C29 C 0.6319 0.07904 0.16445 0.0
O30 O 0.65356 0.04984 0.26652 0.0
Zn31 Zn 0.64911 0.07008 0.23812 0.0
O32 O 0.6704 0.07738 0.31795 0.0
Zn33 Zn 0.66287 0.09781 0.27593 0.0
O34 O 0.65214 0.1052 0.3419 0.0
O35 O 0.6334 0.0745 0.31391 0.0
O36 O 0.64284 0.09333 0.20027 0.0
O37 O 0.6315 0.0629 0.17045 0.0
O38 O 0.67718 0.09044 0.19711 0.0
O39 O 0.68766 0.11807 0.24772 0.0
C40 C 0.63654 0.08899 0.34859 0.0
C41 C 0.69033 0.10831 0.20648 0.0
C42 C 0.06333 0.48204 0.70173 0.0
C43 C 0.07916 0.53403 0.84878 0.0
O44 O 0.08159 0.49489 0.69881 0.0
Zn45 Zn 0.10058 0.52308 0.74317 0.0
O46 O 0.05222 0.48456 0.73804 0.0
Zn47 Zn 0.07183 0.50833 0.7737 0.0
O48 O 0.07774 0.52899 0.69945 0.0
O49 O 0.10893 0.54157 0.67712 0.0
O50 O 0.06328 0.51816 0.84061 0.0
O51 O 0.09406 0.53773 0.81563 0.0
O52 O 0.12055 0.51951 0.77949 0.0
O53 O 0.09122 0.49962 0.8173 0.0
C54 C 0.0927 0.54067 0.6672 0.0
C55 C 0.10959 0.50554 0.81492 0.0
C56 C 0.6643 0.68505 0.81024 0.0
C57 C 0.62814 0.63318 0.66284 0.0
O58 O 0.66979 0.67225 0.81264 0.0
Zn59 Zn 0.66057 0.64408 0.76818 0.0
O60 O 0.65051 0.68247 0.77457 0.0
Zn61 Zn 0.64626 0.65868 0.73879 0.0
O62 O 0.63192 0.63821 0.8131 0.0
O63 O 0.6504 0.6254 0.83398 0.0
O64 O 0.62736 0.64854 0.67342 0.0
O65 O 0.63983 0.62977 0.69445 0.0
O66 O 0.68411 0.64783 0.73203 0.0
O67 O 0.67424 0.66738 0.69385 0.0
C68 C 0.63521 0.62646 0.84483 0.0
C69 C 0.68683 0.66161 0.69615 0.0
C70 C 0.53759 0.07851 0.66444 0.0
C71 C 0.48446 0.05871 0.80966 0.0
O72 O 0.54085 0.09285 0.69991 0.0
Zn73 Zn 0.52527 0.09728 0.77565 0.0
O74 O 0.522 0.06229 0.67099 0.0
Zn75 Zn 0.51158 0.06943 0.73887 0.0
O76 O 0.50318 0.08941 0.69798 0.0
O77 O 0.52052 0.1173 0.74723 0.0
O78 O 0.4874 0.04888 0.76928 0.0
O79 O 0.49727 0.0768 0.81753 0.0
O80 O 0.54345 0.10496 0.84176 0.0
O81 O 0.53196 0.07434 0.81391 0.0
C82 C 0.50782 0.10729 0.70694 0.0
C83 C 0.54315 0.0889 0.8485 0.0
C84 C 0.74957 0.96157 0.67992 0.0
C85 C 0.72991 0.99603 0.53888 0.0
O86 O 0.73358 0.96156 0.67559 0.0
Zn87 Zn 0.74047 0.97901 0.60764 0.0
O88 O 0.76365 0.97223 0.64304 0.0
Zn89 Zn 0.76805 0.99252 0.5684 0.0
O90 O 0.78883 0.0169 0.59803 0.0
O91 O 0.76116 0.00708 0.64763 0.0
O92 O 0.74771 1.00059 0.52872 0.0
O93 O 0.72022 0.98362 0.58029 0.0
O94 O 0.74434 0.96296 0.53194 0.0
O95 O 0.77461 0.98179 0.50011 0.0
C96 C 0.77919 0.01988 0.639 0.0
C97 C 0.75838 0.96608 0.49522 0.0
C98 C 0.15059 0.83858 0.6442 0.0
C99 C 0.20391 0.8725 0.49986 0.0
O100 O 0.15371 0.85197 0.60609 0.0
Zn101 Zn 0.17783 0.85549 0.57378 0.0
O102 O 0.16317 0.83295 0.65036 0.0
Zn103 Zn 0.19141 0.8411 0.61042 0.0
O104 O 0.20898 0.85135 0.67852 0.0
O105 O 0.19847 0.87101 0.64751 0.0
O106 O 0.20712 0.86138 0.53531 0.0
O107 O 0.18826 0.87309 0.50608 0.0
O108 O 0.16968 0.82725 0.53182 0.0
O109 O 0.18704 0.81662 0.5808 0.0
C110 C 0.20916 0.8674 0.68357 0.0
C111 C 0.17445 0.81406 0.54022 0.0
C112 C 0.35503 0.43949 0.53464 0.0
C113 C 0.3017 0.42016 0.67844 0.0
O114 O 0.35239 0.44929 0.57584 0.0
Zn115 Zn 0.32777 0.42904 0.60446 0.0
O116 O 0.34193 0.42157 0.52563 0.0
Zn117 Zn 0.31403 0.40111 0.56813 0.0
O118 O 0.29567 0.39341 0.50224 0.0
O119 O 0.30779 0.42426 0.52843 0.0
O120 O 0.29867 0.40558 0.64447 0.0
O121 O 0.31703 0.43651 0.67034 0.0
O122 O 0.33572 0.40897 0.64704 0.0
O123 O 0.31895 0.38117 0.5969 0.0
C124 C 0.29637 0.40963 0.49442 0.0
C125 C 0.33128 0.39115 0.63817 0.0
C126 C 0.77646 0.8372 0.14067 0.0
C127 C 0.75981 0.87324 0.99621 0.0
O128 O 0.75845 0.83252 0.14722 0.0
Zn129 Zn 0.73901 0.84127 0.10325 0.0
O130 O 0.78707 0.85023 0.10198 0.0
Zn131 Zn 0.76751 0.85515 0.07106 0.0
O132 O 0.76219 0.86992 0.14704 0.0
O133 O 0.73094 0.85168 0.16908 0.0
O134 O 0.7759 0.87378 1.00542 0.0
O135 O 0.7449 0.8618 0.02898 0.0
O136 O 0.71886 0.81739 0.06902 0.0
O137 O 0.74782 0.8272 0.02765 0.0
C138 C 0.74729 0.86681 0.17939 0.0
C139 C 0.72956 0.81455 0.03184 0.0
C140 C 0.3327 0.019 0.14337 0.0
C141 C 0.29768 0.96591 0.99968 0.0
O142 O 0.33729 1.00569 0.15191 0.0
Zn143 Zn 0.32903 0.9775 0.10925 0.0
O144 O 0.32013 0.01653 0.10283 0.0
Zn145 Zn 0.31538 0.99188 0.07383 0.0
O146 O 0.30001 0.97198 0.14992 0.0
O147 O 0.31829 0.95925 0.17512 0.0
O148 O 0.29712 0.98149 0.00765 0.0
O149 O 0.30896 0.96252 0.03368 0.0
O150 O 0.35328 0.98133 0.07882 0.0
O151 O 0.34344 0.9996 0.03182 0.0
C152 C 0.303 0.96033 0.18354 0.0
C153 C 0.35625 0.99428 0.03913 0.0
C154 C 0.17462 0.4403 0.03305 0.0
C155 C 0.20815 0.42062 0.17835 0.0
O156 O 0.16883 0.42205 0.0273 0.0
Zn157 Zn 0.17673 0.40181 0.06771 0.0
O158 O 0.18816 0.45057 0.07073 0.0
Zn159 Zn 0.19143 0.42988 0.10367 0.0
O160 O 0.20676 0.42433 0.03043 0.0
O161 O 0.18686 0.39417 0.99986 0.0
O162 O 0.20897 0.43694 0.17163 0.0
O163 O 0.19691 0.40626 0.14311 0.0
O164 O 0.15205 0.38203 0.09758 0.0
O165 O 0.16307 0.41025 0.14549 0.0
C166 C 0.20303 0.40992 0.99471 0.0
C167 C 0.14966 0.39237 0.13747 0.0
C168 C 0.41237 0.29231 0.01822 0.0
C169 C 0.39448 0.32793 0.87553 0.0
O170 O 0.39656 0.29263 0.01316 0.0
Zn171 Zn 0.40412 0.31046 0.94548 0.0
O172 O 0.42674 0.30305 0.9825 0.0
Zn173 Zn 0.43217 0.32395 0.90939 0.0
O174 O 0.45284 0.34784 0.94244 0.0
O175 O 0.42434 0.3385 0.9863 0.0
O176 O 0.41239 0.33251 0.86748 0.0
O177 O 0.38425 0.31527 0.91568 0.0
O178 O 0.4087 0.29485 0.87 0.0
O179 O 0.43936 0.31363 0.84153 0.0
C180 C 0.44258 0.35096 0.98059 0.0
C181 C 0.42309 0.29807 0.83477 0.0
C182 C 0.81761 0.17123 0.97421 0.0
C183 C 0.87162 0.2055 0.83266 0.0
O184 O 0.82028 0.18356 0.93259 0.0
Zn185 Zn 0.8451 0.1881 0.90503 0.0
O186 O 0.83084 0.16664 0.98429 0.0
Zn187 Zn 0.85916 0.17458 0.94425 0.0
O188 O 0.87649 0.18529 0.0124 0.0
O189 O 0.86505 0.20414 0.98068 0.0
O190 O 0.87503 0.19483 0.86956 0.0
O191 O 0.85566 0.20554 0.83699 0.0
O192 O 0.83764 0.15999 0.86517 0.0
O193 O 0.85549 0.15015 0.91471 0.0
C194 C 0.87597 0.201 0.01733 0.0
C195 C 0.84285 0.14717 0.87381 0.0
C196 C 0.99819 0.72646 0.97616 0.0
C197 C 0.96328 0.74504 0.83338 0.0
O198 O 0.9853 0.71633 0.93648 0.0
Zn199 Zn 0.98091 0.73643 0.90676 0.0
O200 O 1.00315 0.74449 0.98402 0.0
Zn201 Zn 0.99501 0.76459 0.94213 0.0
O202 O 0.98468 0.77208 0.00978 0.0
O203 O 0.9657 0.74143 0.98193 0.0
O204 O 0.97462 0.75959 0.86767 0.0
O205 O 0.96269 0.72885 0.84049 0.0
O206 O 1.00899 0.75628 0.86482 0.0
O207 O 0.0191 0.78488 0.90924 0.0
C208 C 0.96904 0.75591 0.0168 0.0
C209 C 0.02178 0.77443 0.87057 0.0
C210 C 0.39509 0.14609 0.37591 0.0
C211 C 0.41325 0.1994 0.5191 0.0
O212 O 0.41289 0.15951 0.36693 0.0
Zn213 Zn 0.43283 0.18762 0.40912 0.0
O214 O 0.38504 0.14846 0.41689 0.0
Zn215 Zn 0.4049 0.17332 0.44539 0.0
O216 O 0.40919 0.19304 0.36901 0.0
O217 O 0.44013 0.20578 0.34306 0.0
O218 O 0.39709 0.18383 0.51122 0.0
O219 O 0.42792 0.20272 0.48514 0.0
O220 O 0.45318 0.18338 0.43774 0.0
O221 O 0.42544 0.16595 0.48767 0.0
C222 C 0.42372 0.20463 0.33497 0.0
C223 C 0.44339 0.17084 0.47869 0.0
C224 C 0.99891 0.35247 0.48043 0.0
C225 C 0.96413 0.30013 0.33338 0.0
O226 O 1.00448 0.33979 0.48464 0.0
Zn227 Zn 0.99608 0.31176 0.44151 0.0
O228 O 0.98535 0.34964 0.44337 0.0
Zn229 Zn 0.9815 0.32569 0.40928 0.0
O230 O 0.96685 0.30521 0.48367 0.0
O231 O 0.98582 0.29318 0.50733 0.0
O232 O 0.96296 0.31529 0.34364 0.0
O233 O 0.97592 0.29699 0.36568 0.0
O234 O 0.02049 0.31654 0.41038 0.0
O235 O 0.0096 0.33424 0.3649 0.0
C236 C 0.9703 0.29376 0.51651 0.0
C237 C 0.02288 0.32949 0.3714 0.0
C238 C 0.84001 0.77361 0.37256 0.0
C239 C 0.87553 0.75608 0.51657 0.0
O240 O 0.83551 0.7557 0.3648 0.0
Zn241 Zn 0.84409 0.73603 0.40786 0.0
O242 O 0.85272 0.78399 0.41244 0.0
Zn243 Zn 0.85756 0.76426 0.4426 0.0
O244 O 0.87297 0.75957 0.36675 0.0
O245 O 0.85473 0.72852 0.3417 0.0
O246 O 0.87543 0.77197 0.51043 0.0
O247 O 0.8647 0.7416 0.48141 0.0
O248 O 0.82008 0.71556 0.44091 0.0
O249 O 0.8294 0.74426 0.48327 0.0
C250 C 0.87 0.74492 0.33323 0.0
C251 C 0.81688 0.72602 0.47802 0.0
H252 H 0.10663 0.57261 0.8573 0.0
H253 H 0.05438 0.52771 0.94508 0.0
H254 H 0.10847 0.59628 0.93237 0.0
H255 H 0.0567 0.55116 0.02233 0.0
H256 H 0.0563 0.60228 0.11948 0.0
H257 H 0.05323 0.57859 0.0416 0.0
H258 H 0.11614 0.6055 0.03484 0.0
H259 H 0.11911 0.62954 0.10984 0.0
C260 C 0.09565 0.56775 0.89314 0.0
C261 C 0.0804 0.54828 0.89535 0.0
C262 C 0.09675 0.58131 0.93654 0.0
C263 C 0.08281 0.57569 0.98399 0.0
C264 C 0.06753 0.55615 0.98607 0.0
C265 C 0.06627 0.54265 0.94202 0.0
C266 C 0.06943 0.60311 0.10108 0.0
C267 C 0.08794 0.61787 0.12047 0.0
C268 C 0.0677 0.58946 0.05669 0.0
C269 C 0.08444 0.59011 0.0314 0.0
C270 C 0.1029 0.60475 0.05184 0.0
C271 C 0.10462 0.61851 0.09533 0.0
H272 H 0.63336 0.59485 0.90246 0.0
H273 H 0.60536 0.62979 0.89545 0.0
H274 H 0.60957 0.57352 0.97832 0.0
H275 H 0.58206 0.60899 0.97324 0.0
H276 H 0.53081 0.55673 0.06235 0.0
H277 H 0.55477 0.57764 0.98648 0.0
H278 H 0.59929 0.57121 0.08162 0.0
H279 H 0.57502 0.54957 0.15611 0.0
C280 C 0.62224 0.5981 0.91765 0.0
C281 C 0.6212 0.61397 0.89275 0.0
C282 C 0.60864 0.58593 0.96148 0.0
C283 C 0.5938 0.58945 0.98201 0.0
C284 C 0.59301 0.60555 0.95772 0.0
C285 C 0.60646 0.61758 0.91335 0.0
C286 C 0.54571 0.55974 0.067 0.0
C287 C 0.55101 0.55148 0.11525 0.0
C288 C 0.55952 0.57188 0.0237 0.0
C289 C 0.57906 0.57628 0.02793 0.0
C290 C 0.58434 0.56795 0.07626 0.0
C291 C 0.57045 0.55561 0.11921 0.0
H292 H 0.62065 0.10659 0.15811 0.0
H293 H 0.61485 0.05575 0.0646 0.0
H294 H 0.59872 0.10861 0.08337 0.0
H295 H 0.59372 0.05823 0.98823 0.0
H296 H 0.54108 0.0557 0.89518 0.0
H297 H 0.56229 0.05345 0.97238 0.0
H298 H 0.59611 0.11649 0.98132 0.0
H299 H 0.57439 0.11863 0.90667 0.0
C300 C 0.61489 0.09601 0.12108 0.0
C301 C 0.61946 0.08101 0.11734 0.0
C302 C 0.60236 0.09718 0.07797 0.0
C303 C 0.59433 0.08355 0.02953 0.0
C304 C 0.59922 0.06874 0.02546 0.0
C305 C 0.6115 0.06741 0.06904 0.0
C306 C 0.55302 0.06905 0.91386 0.0
C307 C 0.556 0.08732 0.89496 0.0
C308 C 0.5653 0.06779 0.95787 0.0
C309 C 0.58101 0.0848 0.98333 0.0
C310 C 0.58399 0.10306 0.9639 0.0
C311 C 0.57157 0.10429 0.92065 0.0
H312 H 0.63449 0.1185 0.40612 0.0
H313 H 0.60567 0.0556 0.39564 0.0
H314 H 0.61053 0.11616 0.48058 0.0
H315 H 0.58208 0.05315 0.47276 0.0
H316 H 0.53151 0.05497 0.56533 0.0
H317 H 0.55517 0.0575 0.48898 0.0
H318 H 0.60023 0.10845 0.58262 0.0
H319 H 0.57625 0.10638 0.65727 0.0
C320 C 0.62313 0.10413 0.42031 0.0
C321 C 0.62199 0.08722 0.39496 0.0
C322 C 0.60942 0.10277 0.46347 0.0
C323 C 0.59432 0.08446 0.48322 0.0
C324 C 0.59327 0.06752 0.45805 0.0
C325 C 0.60687 0.06889 0.41408 0.0
C326 C 0.54647 0.06677 0.56941 0.0
C327 C 0.552 0.08051 0.61726 0.0
C328 C 0.56011 0.06813 0.52586 0.0
C329 C 0.57972 0.08312 0.52949 0.0
C330 C 0.58522 0.09688 0.57751 0.0
C331 C 0.57149 0.09568 0.62058 0.0
H332 H 0.10978 0.61835 0.35772 0.0
H333 H 0.05829 0.61104 0.45096 0.0
H334 H 0.11238 0.59668 0.43224 0.0
H335 H 0.06132 0.59014 0.5269 0.0
H336 H 0.05956 0.53775 0.61742 0.0
H337 H 0.05717 0.55881 0.54028 0.0
H338 H 0.12016 0.59393 0.53505 0.0
H339 H 0.12248 0.57233 0.61008 0.0
C340 C 0.09916 0.6123 0.39459 0.0
C341 C 0.0838 0.61636 0.3983 0.0
C342 C 0.10068 0.59993 0.43755 0.0
C343 C 0.08701 0.59152 0.48569 0.0
C344 C 0.07187 0.59593 0.48983 0.0
C345 C 0.07022 0.60808 0.44648 0.0
C346 C 0.07288 0.54993 0.5996 0.0
C347 C 0.0912 0.55335 0.61986 0.0
C348 C 0.07153 0.56213 0.55562 0.0
C349 C 0.08847 0.57821 0.53141 0.0
C350 C 0.10679 0.58155 0.55173 0.0
C351 C 0.10813 0.56921 0.59512 0.0
H352 H 0.63114 0.60321 0.61187 0.0
H353 H 0.59633 0.63135 0.6065 0.0
H354 H 0.61004 0.57985 0.53475 0.0
H355 H 0.57465 0.60747 0.53131 0.0
H356 H 0.55026 0.57262 0.35326 0.0
H357 H 0.57172 0.59691 0.42817 0.0
H358 H 0.57877 0.55262 0.52227 0.0
H359 H 0.5581 0.5287 0.44601 0.0
C360 C 0.61889 0.60432 0.5945 0.0
C361 C 0.61541 0.61912 0.61535 0.0
C362 C 0.60667 0.59082 0.55052 0.0
C363 C 0.59048 0.59161 0.52688 0.0
C364 C 0.58709 0.60652 0.54766 0.0
C365 C 0.59947 0.62018 0.5911 0.0
C366 C 0.55637 0.5681 0.39011 0.0
C367 C 0.55256 0.54877 0.39352 0.0
C368 C 0.56862 0.58201 0.43328 0.0
C369 C 0.57715 0.57682 0.48128 0.0
C370 C 0.57291 0.55732 0.48525 0.0
C371 C 0.56089 0.54353 0.44172 0.0
H372 H 0.71758 0.86863 0.23725 0.0
H373 H 0.7805 0.89703 0.22923 0.0
H374 H 0.7199 0.89247 0.31246 0.0
H375 H 0.78289 0.92045 0.30666 0.0
H376 H 0.78156 0.97156 0.39569 0.0
H377 H 0.77866 0.94757 0.32022 0.0
H378 H 0.72764 0.90311 0.41507 0.0
H379 H 0.73012 0.92745 0.48918 0.0
C380 C 0.73194 0.87985 0.25211 0.0
C381 C 0.74887 0.88096 0.22707 0.0
C382 C 0.73327 0.89349 0.29565 0.0
C383 C 0.75158 0.90849 0.31588 0.0
C384 C 0.76853 0.90938 0.29143 0.0
C385 C 0.76718 0.89586 0.24728 0.0
C386 C 0.76966 0.95667 0.40032 0.0
C387 C 0.75606 0.95142 0.44845 0.0
C388 C 0.76809 0.94283 0.35725 0.0
C389 C 0.75301 0.92328 0.36154 0.0
C390 C 0.73931 0.91806 0.40962 0.0
C391 C 0.74075 0.932 0.45235 0.0
H392 H 0.19813 0.89038 0.40126 0.0
H393 H 0.24249 0.88297 0.49283 0.0
H394 H 0.22192 0.91143 0.32516 0.0
H395 H 0.26661 0.90479 0.41838 0.0
H396 H 0.30074 0.92865 0.24106 0.0
H397 H 0.2768 0.90728 0.316 0.0
H398 H 0.24911 0.94259 0.30956 0.0
H399 H 0.27267 0.96348 0.23209 0.0
C400 C 0.21303 0.89336 0.40534 0.0
C401 C 0.21841 0.88496 0.453 0.0
C402 C 0.22675 0.90559 0.36192 0.0
C403 C 0.2463 0.90998 0.36549 0.0
C404 C 0.25165 0.90154 0.41335 0.0
C405 C 0.23784 0.88907 0.4563 0.0
C406 C 0.28956 0.93189 0.25569 0.0
C407 C 0.28861 0.94778 0.23057 0.0
C408 C 0.27586 0.91966 0.2991 0.0
C409 C 0.26096 0.92314 0.31928 0.0
C410 C 0.26014 0.9392 0.29448 0.0
C411 C 0.27372 0.95129 0.25032 0.0
H412 H 0.29912 0.44298 0.44628 0.0
H413 H 0.26476 0.38008 0.43691 0.0
H414 H 0.27806 0.44548 0.36914 0.0
H415 H 0.24317 0.38248 0.3623 0.0
H416 H 0.21849 0.3924 0.18579 0.0
H417 H 0.24031 0.39009 0.26032 0.0
H418 H 0.24696 0.44144 0.35338 0.0
H419 H 0.22595 0.4442 0.27715 0.0
C420 C 0.28699 0.42969 0.42805 0.0
C421 C 0.28367 0.41135 0.44759 0.0
C422 C 0.27479 0.43109 0.38407 0.0
C423 C 0.25879 0.41418 0.35924 0.0
C424 C 0.2555 0.39585 0.37921 0.0
C425 C 0.26785 0.39446 0.42244 0.0
C426 C 0.22459 0.40314 0.22232 0.0
C427 C 0.22052 0.41849 0.22547 0.0
C428 C 0.23706 0.40179 0.26534 0.0
C429 C 0.24552 0.4156 0.31314 0.0
C430 C 0.24112 0.43077 0.31665 0.0
C431 C 0.22891 0.43227 0.27315 0.0
H432 H 0.24188 0.43711 0.98907 0.0
H433 H 0.19694 0.38601 0.89637 0.0
H434 H 0.26586 0.43898 0.91491 0.0
H435 H 0.22066 0.38834 0.82049 0.0
H436 H 0.27117 0.38666 0.72613 0.0
H437 H 0.2477 0.384 0.80404 0.0
H438 H 0.27587 0.44698 0.81246 0.0
H439 H 0.29969 0.44954 0.7371 0.0
C440 C 0.23709 0.4264 0.95242 0.0
C441 C 0.21752 0.41144 0.94858 0.0
C442 C 0.25082 0.4275 0.90961 0.0
C443 C 0.24526 0.41383 0.86135 0.0
C444 C 0.22561 0.39892 0.8575 0.0
C445 C 0.21194 0.39768 0.90079 0.0
C446 C 0.27234 0.3999 0.7449 0.0
C447 C 0.28733 0.41829 0.72559 0.0
C448 C 0.25882 0.39841 0.78931 0.0
C449 C 0.25982 0.41528 0.81483 0.0
C450 C 0.2748 0.43365 0.79504 0.0
C451 C 0.28844 0.43513 0.75137 0.0
H452 H 0.78973 0.90449 0.93811 0.0
H453 H 0.72678 0.87081 0.94741 0.0
H454 H 0.78761 0.92611 0.86269 0.0
H455 H 0.72458 0.89188 0.86989 0.0
H456 H 0.72653 0.94445 0.78009 0.0
H457 H 0.72931 0.92343 0.8561 0.0
H458 H 0.7796 0.92864 0.75985 0.0
H459 H 0.77726 0.95044 0.68518 0.0
C460 C 0.77542 0.90158 0.92352 0.0
C461 C 0.75842 0.88596 0.9489 0.0
C462 C 0.77419 0.91392 0.8799 0.0
C463 C 0.75592 0.91083 0.86001 0.0
C464 C 0.73891 0.895 0.88489 0.0
C465 C 0.74015 0.8828 0.9291 0.0
C466 C 0.73823 0.94115 0.77524 0.0
C467 C 0.75168 0.94911 0.72659 0.0
C468 C 0.73974 0.92895 0.81863 0.0
C469 C 0.75459 0.92414 0.8141 0.0
C470 C 0.76812 0.9322 0.76545 0.0
C471 C 0.76675 0.94464 0.72241 0.0
H472 H 0.26651 0.96442 0.94087 0.0
H473 H 0.30018 0.93515 0.95211 0.0
H474 H 0.24502 0.94064 0.8656 0.0
H475 H 0.2792 0.91177 0.87444 0.0
H476 H 0.22649 0.86128 0.78299 0.0
H477 H 0.24773 0.885 0.85899 0.0
H478 H 0.24275 0.93028 0.76323 0.0
H479 H 0.22075 0.90627 0.68884 0.0
C480 C 0.26946 0.95301 0.92669 0.0
C481 C 0.28504 0.95165 0.95253 0.0
C482 C 0.25719 0.93941 0.88312 0.0
C483 C 0.26032 0.92423 0.86358 0.0
C484 C 0.27608 0.92302 0.88907 0.0
C485 C 0.28822 0.9365 0.93334 0.0
C486 C 0.22989 0.8763 0.77829 0.0
C487 C 0.2219 0.88189 0.72999 0.0
C488 C 0.24222 0.88996 0.82166 0.0
C489 C 0.2471 0.90965 0.81736 0.0
C490 C 0.2391 0.91522 0.76878 0.0
C491 C 0.22654 0.90147 0.72587 0.0
H492 H 0.39518 0.25944 0.82749 0.0
H493 H 0.4467 0.30412 0.73592 0.0
H494 H 0.39315 0.23542 0.75303 0.0
H495 H 0.44422 0.28043 0.65979 0.0
H496 H 0.44644 0.23009 0.56752 0.0
H497 H 0.44866 0.25355 0.64465 0.0
H498 H 0.38562 0.22504 0.6508 0.0
H499 H 0.3835 0.20117 0.57621 0.0
C500 C 0.40591 0.26417 0.79093 0.0
C501 C 0.4211 0.28365 0.78767 0.0
C502 C 0.40473 0.25042 0.74797 0.0
C503 C 0.41855 0.2559 0.70017 0.0
C504 C 0.43355 0.27551 0.69655 0.0
C505 C 0.43488 0.28917 0.73997 0.0
C506 C 0.43308 0.22883 0.5856 0.0
C507 C 0.41481 0.21374 0.5659 0.0
C508 C 0.43432 0.24236 0.62956 0.0
C509 C 0.41731 0.24129 0.65417 0.0
C510 C 0.39905 0.22618 0.63403 0.0
C511 C 0.39782 0.21252 0.59083 0.0
H512 H 0.91042 0.21659 0.82747 0.0
H513 H 0.86575 0.22265 0.73243 0.0
H514 H 0.93458 0.23837 0.75286 0.0
H515 H 0.88957 0.24366 0.65646 0.0
H516 H 0.93968 0.29622 0.56508 0.0
H517 H 0.91637 0.27517 0.64253 0.0
H518 H 0.94517 0.24091 0.65015 0.0
H519 H 0.96894 0.26251 0.57482 0.0
C520 C 0.90573 0.2224 0.79022 0.0
C521 C 0.8862 0.21795 0.78599 0.0
C522 C 0.91955 0.23483 0.74721 0.0
C523 C 0.9141 0.2429 0.69853 0.0
C524 C 0.89445 0.23812 0.69395 0.0
C525 C 0.88072 0.22592 0.73732 0.0
C526 C 0.94105 0.28423 0.58348 0.0
C527 C 0.95616 0.28106 0.56382 0.0
C528 C 0.9276 0.27204 0.62764 0.0
C529 C 0.92877 0.25621 0.65263 0.0
C530 C 0.94395 0.2531 0.63287 0.0
C531 C 0.95754 0.26544 0.5893 0.0
H532 H 0.96624 0.77853 0.78608 0.0
H533 H 0.93165 0.71565 0.77553 0.0
H534 H 0.94544 0.7813 0.70854 0.0
H535 H 0.91033 0.71834 0.70047 0.0
H536 H 0.88669 0.72855 0.52315 0.0
H537 H 0.90842 0.72635 0.59804 0.0
H538 H 0.91426 0.77728 0.69181 0.0
H539 H 0.89327 0.77994 0.61508 0.0
C540 C 0.9541 0.76531 0.76753 0.0
C541 C 0.95064 0.74689 0.78674 0.0
C542 C 0.94207 0.76687 0.72333 0.0
C543 C 0.92613 0.75004 0.69799 0.0
C544 C 0.92266 0.73163 0.7178 0.0
C545 C 0.93483 0.73008 0.76125 0.0
C546 C 0.89261 0.73925 0.55982 0.0
C547 C 0.88826 0.75441 0.56319 0.0
C548 C 0.90501 0.73795 0.60307 0.0
C549 C 0.91314 0.75161 0.65132 0.0
C550 C 0.90862 0.76669 0.65479 0.0
C551 C 0.89644 0.76815 0.61102 0.0
H552 H 0.87259 0.71553 0.27678 0.0
H553 H 0.90012 0.77839 0.28395 0.0
H554 H 0.8966 0.71811 0.20203 0.0
H555 H 0.92373 0.78106 0.20661 0.0
H556 H 0.97485 0.78005 0.11426 0.0
H557 H 0.95111 0.77741 0.19058 0.0
H558 H 0.90654 0.72552 0.09958 0.0
H559 H 0.93058 0.72771 0.02508 0.0
C560 C 0.88366 0.72994 0.26179 0.0
C561 C 0.88444 0.74676 0.28632 0.0
C562 C 0.8974 0.73143 0.21848 0.0
C563 C 0.91216 0.7498 0.19778 0.0
C564 C 0.91282 0.76665 0.22207 0.0
C565 C 0.8992 0.76515 0.26615 0.0
C566 C 0.95998 0.76803 0.11075 0.0
C567 C 0.95461 0.75404 0.06373 0.0
C568 C 0.9463 0.7666 0.15428 0.0
C569 C 0.9268 0.75129 0.15143 0.0
C570 C 0.92146 0.73733 0.10413 0.0
C571 C 0.93523 0.73861 0.06111 0.0
H572 H 0.45291 0.23607 0.27596 0.0
H573 H 0.39006 0.20136 0.28743 0.0
H574 H 0.45007 0.25714 0.20046 0.0
H575 H 0.38713 0.22198 0.20941 0.0
H576 H 0.43978 0.28091 0.02377 0.0
H577 H 0.44193 0.25899 0.09806 0.0
H578 H 0.39117 0.25321 0.19269 0.0
H579 H 0.38856 0.27441 0.11668 0.0
C580 C 0.43844 0.23279 0.26177 0.0
C581 C 0.4217 0.21702 0.28773 0.0
C582 C 0.43681 0.24484 0.21803 0.0
C583 C 0.41837 0.24129 0.19835 0.0
C584 C 0.40158 0.22538 0.22405 0.0
C585 C 0.40323 0.21346 0.26853 0.0
C586 C 0.4291 0.27496 0.06048 0.0
C587 C 0.41402 0.27941 0.06434 0.0
C588 C 0.43037 0.26244 0.10337 0.0
C589 C 0.41674 0.25428 0.15173 0.0
C590 C 0.40172 0.25887 0.15559 0.0
C591 C 0.40031 0.27118 0.11222 0.0
H592 H 0.9326 0.29834 0.27571 0.0
H593 H 0.9671 0.26989 0.28345 0.0
H594 H 0.91107 0.27452 0.20045 0.0
H595 H 0.94606 0.2465 0.20599 0.0
H596 H 0.89365 0.19546 0.11682 0.0
H597 H 0.91472 0.21941 0.1924 0.0
H598 H 0.90818 0.26394 0.09776 0.0
H599 H 0.88635 0.23963 0.02353 0.0
C600 C 0.93573 0.28711 0.26078 0.0
C601 C 0.95155 0.28599 0.28575 0.0
C602 C 0.92341 0.27349 0.21722 0.0
C603 C 0.92673 0.25849 0.1969 0.0
C604 C 0.94277 0.25758 0.22129 0.0
C605 C 0.95495 0.27108 0.26546 0.0
C606 C 0.89665 0.21035 0.11225 0.0
C607 C 0.88831 0.21564 0.06414 0.0
C608 C 0.9089 0.22417 0.15539 0.0
C609 C 0.91337 0.24373 0.15119 0.0
C610 C 0.9049 0.24898 0.10313 0.0
C611 C 0.89242 0.23507 0.06034 0.0
H612 H 0.10069 0.69391 0.42156 0.0
H613 H 0.14088 0.72192 0.27095 0.0
H614 H 0.11584 0.72499 0.47773 0.0
H615 H 0.15558 0.75299 0.32651 0.0
H616 H 0.15714 0.80731 0.4267 0.0
H617 H 0.14125 0.77634 0.36963 0.0
H618 H 0.15346 0.74811 0.51913 0.0
H619 H 0.16976 0.77899 0.5754 0.0
C620 C 0.11268 0.70669 0.40044 0.0
C621 C 0.11969 0.70549 0.3421 0.0
C622 C 0.12132 0.72441 0.43251 0.0
C623 C 0.13677 0.74129 0.4061 0.0
C624 C 0.14359 0.74017 0.3475 0.0
C625 C 0.13528 0.72238 0.31606 0.0
C626 C 0.15644 0.79449 0.44721 0.0
C627 C 0.16476 0.79556 0.50527 0.0
C628 C 0.14741 0.77684 0.41461 0.0
C629 C 0.14614 0.75994 0.44032 0.0
C630 C 0.15419 0.76095 0.49864 0.0
C631 C 0.1636 0.77864 0.53052 0.0
H632 H 0.44715 0.49887 0.26646 0.0
H633 H 0.4755 0.48683 0.41644 0.0
H634 H 0.41609 0.48214 0.32188 0.0
H635 H 0.44439 0.47053 0.47258 0.0
H636 H 0.39001 0.46992 0.5704 0.0
H637 H 0.42097 0.48466 0.51453 0.0
H638 H 0.393 0.44449 0.36423 0.0
H639 H 0.36196 0.42926 0.42088 0.0
C640 C 0.44676 0.49274 0.3114 0.0
C641 C 0.46375 0.49421 0.33732 0.0
C642 C 0.42898 0.48307 0.34278 0.0
C643 C 0.42794 0.47507 0.40121 0.0
C644 C 0.44491 0.47662 0.42748 0.0
C645 C 0.46263 0.48591 0.39543 0.0
C646 C 0.39044 0.46422 0.52543 0.0
C647 C 0.37356 0.44849 0.49981 0.0
C648 C 0.40817 0.47257 0.49379 0.0
C649 C 0.40928 0.46565 0.43537 0.0
C650 C 0.39242 0.45005 0.40932 0.0
C651 C 0.37474 0.44136 0.44166 0.0
H652 H 0.69978 1.00092 0.5762 0.0
H653 H 0.73983 0.01313 0.42512 0.0
H654 H 0.68497 0.01724 0.52109 0.0
H655 H 0.72455 0.02903 0.36931 0.0
H656 H 0.6706 0.02927 0.2723 0.0
H657 H 0.68706 0.01471 0.32792 0.0
H658 H 0.69882 0.05461 0.47873 0.0
H659 H 0.68277 0.06966 0.42236 0.0
C660 C 0.70534 0.007 0.53108 0.0
C661 C 0.72091 1.0057 0.50478 0.0
C662 C 0.69695 0.01643 0.49987 0.0
C663 C 0.70368 0.02437 0.44122 0.0
C664 C 0.71913 0.02298 0.41456 0.0
C665 C 0.72786 0.01393 0.44644 0.0
C666 C 0.67668 0.03494 0.31735 0.0
C667 C 0.67535 0.05056 0.34316 0.0
C668 C 0.68619 0.02669 0.34885 0.0
C669 C 0.69419 0.03361 0.40732 0.0
C670 C 0.69272 0.04906 0.43361 0.0
C671 C 0.68358 0.05764 0.40143 0.0
H672 H 0.69721 0.09791 0.09303 0.0
H673 H 0.72539 0.13875 0.24204 0.0
H674 H 0.72824 0.11288 0.03648 0.0
H675 H 0.75639 0.15324 0.1862 0.0
H676 H 0.81067 0.15449 0.08853 0.0
H677 H 0.77962 0.13882 0.14505 0.0
H678 H 0.75154 0.1502 0.99319 0.0
H679 H 0.78254 0.1663 0.93736 0.0
C680 C 0.71002 0.11001 0.11372 0.0
C681 C 0.70888 0.11724 0.17173 0.0
C682 C 0.7277 0.11855 0.08141 0.0
C683 C 0.74461 0.13411 0.10732 0.0
C684 C 0.74354 0.14117 0.16557 0.0
C685 C 0.7258 0.13296 0.1972 0.0
C686 C 0.79786 0.15366 0.06735 0.0
C687 C 0.79903 0.1617 0.00875 0.0
C688 C 0.78017 0.14475 0.09964 0.0
C689 C 0.76328 0.1433 0.07317 0.0
C690 C 0.76437 0.15106 0.01429 0.0
C691 C 0.78212 0.16036 0.98265 0.0
H692 H 1.00247 0.69583 0.94096 0.0
H693 H 0.01608 0.73726 0.08878 0.0
H694 H 0.01874 0.68111 0.99679 0.0
H695 H 0.03193 0.72205 0.14546 0.0
H696 H 0.03159 0.66787 0.24519 0.0
H697 H 0.01721 0.68452 0.18944 0.0
H698 H 0.05636 0.69504 0.03736 0.0
H699 H 0.07122 0.67884 0.09377 0.0
C700 C 1.00885 0.70172 0.98553 0.0
C701 C 1.00795 0.71765 0.01071 0.0
C702 C 0.01825 0.69337 0.01716 0.0
C703 C 0.02655 0.7005 0.07517 0.0
C704 C 0.02558 0.71633 0.10072 0.0
C705 C 0.01657 0.72501 0.06835 0.0
C706 C 0.03713 0.67372 0.19984 0.0
C707 C 0.05247 0.672 0.17365 0.0
C708 C 0.029 0.68335 0.16828 0.0
C709 C 0.03576 0.69105 0.10941 0.0
C710 C 0.05094 0.68919 0.08281 0.0
C711 C 0.05941 0.67995 0.11501 0.0
H712 H 0.42788 0.37507 0.99848 0.0
H713 H 0.47737 0.36817 0.04048 0.0
H714 H 0.44371 0.40683 0.04853 0.0
H715 H 0.4926 0.39897 0.09616 0.0
H716 H 0.52497 0.46259 0.14525 0.0
H717 H 0.5092 0.43165 0.0903 0.0
H718 H 0.45267 0.42487 0.13467 0.0
H719 H 0.46883 0.45675 0.18393 0.0
C720 C 0.44201 0.38025 0.0199 0.0
C721 C 0.45146 0.3693 0.01578 0.0
C722 C 0.45111 0.39845 0.04913 0.0
C723 C 0.46963 0.40582 0.07685 0.0
C724 C 0.47869 0.39433 0.07408 0.0
C725 C 0.46988 0.37648 0.04286 0.0
C726 C 0.50918 0.45447 0.14238 0.0
C727 C 0.49808 0.46199 0.16823 0.0
C728 C 0.50002 0.43655 0.11157 0.0
C729 C 0.47947 0.42535 0.10799 0.0
C730 C 0.46846 0.43303 0.13468 0.0
C731 C 0.47768 0.45129 0.16347 0.0
H732 H 0.98198 0.37033 0.53997 0.0
H733 H 0.03789 0.3758 0.49973 0.0
H734 H 0.99802 0.40133 0.59431 0.0
H735 H 0.05433 0.40778 0.54899 0.0
H736 H 0.07884 0.45844 0.68488 0.0
H737 H 0.06345 0.42655 0.63498 0.0
H738 H 0.01462 0.43397 0.58312 0.0
H739 H 0.02938 0.46486 0.63798 0.0
C740 C 0.99779 0.37836 0.54252 0.0
C741 C 1.00873 0.37074 0.51606 0.0
C742 C 1.00709 0.39632 0.57293 0.0
C743 C 0.02765 0.40752 0.57557 0.0
C744 C 0.03853 0.39965 0.54918 0.0
C745 C 0.02915 0.38133 0.52057 0.0
C746 C 0.06486 0.45316 0.66237 0.0
C747 C 0.05522 0.46397 0.66522 0.0
C748 C 0.056 0.43488 0.63343 0.0
C749 C 0.03754 0.42729 0.60512 0.0
C750 C 0.02844 0.43875 0.60599 0.0
C751 C 0.037 0.45666 0.63668 0.0
H752 H 0.71132 0.70064 0.68275 0.0
H753 H 0.70309 0.64452 0.62923 0.0
H754 H 0.74323 0.71676 0.63312 0.0
H755 H 0.73404 0.66037 0.57452 0.0
H756 H 0.79789 0.69038 0.53252 0.0
H757 H 0.76668 0.67547 0.58566 0.0
H758 H 0.76196 0.72674 0.54729 0.0
H759 H 0.79408 0.74213 0.49933 0.0
C760 C 0.71622 0.69183 0.65879 0.0
C761 C 0.70489 0.67141 0.65968 0.0
C762 C 0.7345 0.70103 0.62998 0.0
C763 C 0.74158 0.68999 0.59982 0.0
C764 C 0.72962 0.66949 0.59877 0.0
C765 C 0.71169 0.66033 0.62936 0.0
C766 C 0.79018 0.69846 0.53627 0.0
C767 C 0.79834 0.71738 0.51226 0.0
C768 C 0.77211 0.68984 0.56602 0.0
C769 C 0.76136 0.69966 0.57043 0.0
C770 C 0.76973 0.71872 0.54619 0.0
C771 C 0.78814 0.72758 0.51829 0.0
H772 H 0.43316 0.15342 0.59203 0.0
H773 H 0.47375 0.16626 0.44216 0.0
H774 H 0.44826 0.1373 0.64769 0.0
H775 H 0.48835 0.1497 0.49704 0.0
H776 H 0.49014 0.09683 0.59398 0.0
H777 H 0.47386 0.11181 0.53849 0.0
H778 H 0.48613 0.15183 0.68929 0.0
H779 H 0.50284 0.13735 0.74398 0.0
C780 C 0.44522 0.15273 0.57097 0.0
C781 C 0.45237 0.1612 0.51302 0.0
C782 C 0.45383 0.14354 0.60273 0.0
C783 C 0.46935 0.14224 0.57628 0.0
C784 C 0.4763 0.15043 0.51805 0.0
C785 C 0.46804 0.16001 0.48701 0.0
C786 C 0.48935 0.10883 0.61514 0.0
C787 C 0.49785 0.11601 0.67305 0.0
C788 C 0.48009 0.11737 0.58347 0.0
C789 C 0.47873 0.13287 0.60997 0.0
C790 C 0.48691 0.13981 0.66822 0.0
C791 C 0.49656 0.13161 0.69918 0.0
H792 H 0.37107 0.02711 0.96695 0.0
H793 H 0.38337 0.98268 0.03191 0.0
H794 H 0.40235 0.04304 0.91234 0.0
H795 H 0.41448 0.99861 0.97778 0.0
H796 H 0.45729 0.01999 0.81544 0.0
H797 H 0.42616 1.00466 0.86954 0.0
H798 H 0.43842 0.06097 0.93789 0.0
H799 H 0.4697 0.07645 0.88331 0.0
C800 C 0.38038 0.02069 0.96934 0.0
C801 C 0.37471 1.0036 1.00364 0.0
C802 C 0.39834 0.0299 0.93852 0.0
C803 C 0.41086 0.02207 0.94087 0.0
C804 C 0.40507 1.00489 0.97465 0.0
C805 C 0.38726 0.9958 1.00583 0.0
C806 C 0.45342 0.02913 0.84216 0.0
C807 C 0.46601 0.04945 0.84519 0.0
C808 C 0.4356 0.02032 0.87332 0.0
C809 C 0.42985 0.03161 0.90789 0.0
C810 C 0.44241 0.05193 0.91108 0.0
C811 C 0.46037 0.06076 0.88029 0.0
H812 H 0.09503 0.46649 0.82806 0.0
H813 H 0.1432 0.5225 0.88078 0.0
H814 H 0.11072 0.45023 0.87739 0.0
H815 H 0.15821 0.50652 0.93531 0.0
H816 H 0.19156 0.47605 0.97908 0.0
H817 H 0.17554 0.4912 0.92559 0.0
H818 H 0.11933 0.44012 0.96286 0.0
H819 H 0.13579 0.4245 0.01107 0.0
C820 C 0.10879 0.47525 0.85173 0.0
C821 C 0.11797 0.49568 0.85073 0.0
C822 C 0.11782 0.46597 0.88042 0.0
C823 C 0.13597 0.47692 0.91045 0.0
C824 C 0.14464 0.49744 0.91121 0.0
C825 C 0.13593 0.50669 0.8807 0.0
C826 C 0.17579 0.46807 0.975 0.0
C827 C 0.16489 0.44912 0.99875 0.0
C828 C 0.16649 0.47682 0.94503 0.0
C829 C 0.14594 0.46713 0.94014 0.0
C830 C 0.13512 0.44806 0.96422 0.0
C831 C 0.14452 0.43906 0.9923 0.0
H832 H 0.70344 0.70902 0.8245 0.0
H833 H 0.64762 0.70185 0.87646 0.0
H834 H 0.71995 0.7409 0.87447 0.0
H835 H 0.66381 0.73274 0.93137 0.0
H836 H 0.69441 0.79636 0.97447 0.0
H837 H 0.67942 0.76538 0.92005 0.0
H838 H 0.72998 0.75962 0.96064 0.0
H839 H 0.74549 0.79157 0.01005 0.0
C840 C 0.69477 0.71414 0.84812 0.0
C841 C 0.67433 0.70313 0.84668 0.0
C842 C 0.70419 0.73241 0.8771 0.0
C843 C 0.69334 0.73978 0.90685 0.0
C844 C 0.6728 0.72811 0.90738 0.0
C845 C 0.66344 0.71021 0.87666 0.0
C846 C 0.70233 0.7885 0.97088 0.0
C847 C 0.72107 0.79629 0.99609 0.0
C848 C 0.69366 0.77054 0.94041 0.0
C849 C 0.70321 0.75954 0.93643 0.0
C850 C 0.72215 0.7676 0.96152 0.0
C851 C 0.73108 0.7859 0.99021 0.0
H852 H 0.81801 0.04699 0.64539 0.0
H853 H 0.76152 0.0345 0.7132 0.0
H854 H 0.83339 0.07787 0.70139 0.0
H855 H 0.77699 0.06547 0.76928 0.0
H856 H 0.81051 0.13253 0.79985 0.0
H857 H 0.79501 0.10156 0.74379 0.0
H858 H 0.83907 0.08918 0.81132 0.0
H859 H 0.85457 0.12006 0.8673 0.0
C860 C 0.80888 0.0508 0.6724 0.0
C861 C 0.78854 0.03827 0.67489 0.0
C862 C 0.8177 0.06845 0.70464 0.0
C863 C 0.80639 0.07409 0.7396 0.0
C864 C 0.78606 0.06158 0.74221 0.0
C865 C 0.77723 0.04379 0.71047 0.0
C866 C 0.81694 0.12324 0.8025 0.0
C867 C 0.83379 0.12877 0.83797 0.0
C868 C 0.80798 0.10545 0.77078 0.0
C869 C 0.81582 0.09295 0.7733 0.0
C870 C 0.83279 0.09859 0.80815 0.0
C871 C 0.84162 0.11625 0.84038 0.0
H872 H 0.13306 0.85598 0.70313 0.0
H873 H 0.12673 0.79974 0.66285 0.0
H874 H 0.10232 0.84034 0.75903 0.0
H875 H 0.095 0.78369 0.71322 0.0
H876 H 0.04541 0.75921 0.85088 0.0
H877 H 0.07699 0.77471 0.79961 0.0
H878 H 0.06967 0.82402 0.75359 0.0
H879 H 0.03909 0.80912 0.81037 0.0
C880 C 0.12487 0.84019 0.70586 0.0
C881 C 0.1322 0.82903 0.6792 0.0
C882 C 0.10705 0.83111 0.73722 0.0
C883 C 0.09573 0.81056 0.74058 0.0
C884 C 0.10324 0.79948 0.71327 0.0
C885 C 0.12142 0.80863 0.68388 0.0
C886 C 0.05067 0.77336 0.82954 0.0
C887 C 0.03996 0.78304 0.83449 0.0
C888 C 0.06877 0.78228 0.79964 0.0
C889 C 0.07626 0.80083 0.77212 0.0
C890 C 0.06496 0.81009 0.77556 0.0
C891 C 0.04723 0.80147 0.80742 0.0
H892 H 0.34813 0.40173 0.75223 0.0
H893 H 0.33666 0.3611 0.60344 0.0
H894 H 0.36422 0.38701 0.81009 0.0
H895 H 0.35318 0.34687 0.66056 0.0
H896 H 0.40541 0.34531 0.76226 0.0
H897 H 0.39061 0.36135 0.70445 0.0
H898 H 0.34999 0.34956 0.85306 0.0
H899 H 0.3643 0.33309 0.91006 0.0
C900 C 0.34913 0.38975 0.73184 0.0
C901 C 0.34105 0.38248 0.67355 0.0
C902 C 0.3583 0.38135 0.76488 0.0
C903 C 0.35996 0.36591 0.73945 0.0
C904 C 0.35218 0.35886 0.68084 0.0
C905 C 0.34262 0.36691 0.64849 0.0
C906 C 0.39332 0.34616 0.78247 0.0
C907 C 0.38592 0.33786 0.84042 0.0
C908 C 0.38488 0.35528 0.74945 0.0
C909 C 0.36925 0.3567 0.77462 0.0
C910 C 0.36211 0.34874 0.83297 0.0
C911 C 0.37021 0.33922 0.86527 0.0
H912 H 0.02931 0.34718 0.25852 0.0
H913 H 0.05821 0.33486 0.40614 0.0
H914 H 0.06023 0.36347 0.20107 0.0
H915 H 0.08902 0.35158 0.34963 0.0
H916 H 0.14308 0.40363 0.24996 0.0
H917 H 0.11209 0.3893 0.30668 0.0
H918 H 0.08334 0.34864 0.15809 0.0
H919 H 0.11427 0.36247 0.10217 0.0
C920 C 0.04226 0.34807 0.27877 0.0
C921 C 0.04135 0.33965 0.33649 0.0
C922 C 0.05987 0.35735 0.246 0.0
C923 C 0.07691 0.35879 0.2713 0.0
C924 C 0.07608 0.35074 0.32948 0.0
C925 C 0.05843 0.34108 0.36147 0.0
C926 C 0.13014 0.39164 0.22951 0.0
C927 C 0.1311 0.38406 0.17194 0.0
C928 C 0.11247 0.38348 0.26186 0.0
C929 C 0.09542 0.36798 0.23637 0.0
C930 C 0.09629 0.36068 0.17835 0.0
C931 C 0.114 0.3685 0.14672 0.0
H932 H 0.82246 0.76262 0.25952 0.0
H933 H 0.83421 0.80323 0.40858 0.0
H934 H 0.8058 0.77702 0.20301 0.0
H935 H 0.81712 0.81712 0.35292 0.0
H936 H 0.7649 0.81895 0.25261 0.0
H937 H 0.77934 0.80233 0.30927 0.0
H938 H 0.8204 0.81492 0.16144 0.0
H939 H 0.80649 0.83195 0.10572 0.0
C940 C 0.82137 0.7745 0.28028 0.0
C941 C 0.82975 0.78192 0.33813 0.0
C942 C 0.81187 0.7827 0.24806 0.0
C943 C 0.81015 0.79806 0.27401 0.0
C944 C 0.81816 0.80518 0.33232 0.0
C945 C 0.82805 0.79733 0.36379 0.0
C946 C 0.77699 0.81814 0.23234 0.0
C947 C 0.78468 0.82686 0.17508 0.0
C948 C 0.78522 0.80867 0.26464 0.0
C949 C 0.80087 0.80733 0.23932 0.0
C950 C 0.80825 0.81567 0.18157 0.0
C951 C 0.80037 0.82552 0.15005 0.0
H952 H 0.34998 0.02578 0.25697 0.0
H953 H 0.3378 0.05414 0.10735 0.0
H954 H 0.36591 0.05681 0.3138 0.0
H955 H 0.35413 0.08507 0.16336 0.0
H956 H 0.40589 0.1395 0.2627 0.0
H957 H 0.39146 0.10846 0.20622 0.0
H958 H 0.35124 0.07979 0.35587 0.0
H959 H 0.36519 0.11076 0.41161 0.0
C960 C 0.35081 0.03863 0.23618 0.0
C961 C 0.34255 0.03755 0.17801 0.0
C962 C 0.35987 0.05631 0.2686 0.0
C963 C 0.36126 0.07323 0.2426 0.0
C964 C 0.35334 0.07222 0.18406 0.0
C965 C 0.34389 0.05451 0.15234 0.0
C966 C 0.39396 0.12657 0.2834 0.0
C967 C 0.38657 0.12755 0.34129 0.0
C968 C 0.38573 0.10888 0.25118 0.0
C969 C 0.37035 0.09183 0.27707 0.0
C970 C 0.36319 0.09274 0.33529 0.0
C971 C 0.37108 0.11047 0.36682 0.0
loop_
_geom_bond_atom_site_label_1
_geom_bond_atom_site_label_2
_geom_bond_distance
_geom_bond_site_symmetry_2
_ccdc_geom_bond_type
C0 O2 1.247 . S
C0 O4 1.258 . S
C1 O8 1.247 . S
C1 O9 1.258 . S
O2 C0 1.247 . S
O2 Zn3 2.028 . S
Zn3 O2 2.028 . S
Zn3 O7 2.035 . S
Zn3 O9 2.035 . S
Zn3 O10 2.028 . S
O4 C0 1.258 . S
O4 Zn5 2.035 . S
Zn5 O4 2.035 . S
Zn5 O6 2.028 . S
Zn5 O8 2.028 . S
Zn5 O11 2.035 . S
O6 Zn5 2.028 . S
O6 C12 1.247 . S
O7 Zn3 2.035 . S
O7 C12 1.258 . S
O8 C1 1.247 . S
O8 Zn5 2.028 . S
O9 C1 1.258 . S
O9 Zn3 2.035 . S
O10 Zn3 2.028 . S
O10 C13 1.247 . S
O11 Zn5 2.035 . S
O11 C13 1.258 . S
C12 O6 1.247 . S
C12 O7 1.258 . S
C13 O10 1.247 . S
C13 O11 1.258 . S
C14 O16 1.247 . S
C14 O18 1.258 . S
C15 O22 1.247 . S
C15 O23 1.258 . S
O16 C14 1.247 . S
O16 Zn17 2.028 . S
Zn17 O16 2.028 . S
Zn17 O21 2.035 . S
Zn17 O23 2.035 . S
Zn17 O24 2.028 . S
O18 C14 1.258 . S
O18 Zn19 2.035 . S
Zn19 O18 2.035 . S
Zn19 O20 2.028 . S
Zn19 O22 2.028 . S
Zn19 O25 2.035 . S
O20 Zn19 2.028 . S
O20 C26 1.247 . S
O21 Zn17 2.035 . S
O21 C26 1.258 . S
O22 C15 1.247 . S
O22 Zn19 2.028 . S
O23 C15 1.258 . S
O23 Zn17 2.035 . S
O24 Zn17 2.028 . S
O24 C27 1.247 . S
O25 Zn19 2.035 . S
O25 C27 1.258 . S
C26 O20 1.247 . S
C26 O21 1.258 . S
C27 O24 1.247 . S
C27 O25 1.258 . S
C28 O30 1.247 . S
C28 O32 1.258 . S
C29 O36 1.247 . S
C29 O37 1.258 . S
O30 C28 1.247 . S
O30 Zn31 2.028 . S
Zn31 O30 2.028 . S
Zn31 O35 2.035 . S
Zn31 O37 2.035 . S
Zn31 O38 2.028 . S
O32 C28 1.258 . S
O32 Zn33 2.035 . S
Zn33 O32 2.035 . S
Zn33 O34 2.028 . S
Zn33 O36 2.028 . S
Zn33 O39 2.035 . S
O34 Zn33 2.028 . S
O34 C40 1.247 . S
O35 Zn31 2.035 . S
O35 C40 1.258 . S
O36 C29 1.247 . S
O36 Zn33 2.028 . S
O37 C29 1.258 . S
O37 Zn31 2.035 . S
O38 Zn31 2.028 . S
O38 C41 1.247 . S
O39 Zn33 2.035 . S
O39 C41 1.258 . S
C40 O34 1.247 . S
C40 O35 1.258 . S
C41 O38 1.247 . S
C41 O39 1.258 . S
C42 O44 1.247 . S
C42 O46 1.258 . S
C43 O50 1.247 . S
C43 O51 1.258 . S
O44 C42 1.247 . S
O44 Zn45 2.028 . S
Zn45 O44 2.028 . S
Zn45 O49 2.035 . S
Zn45 O51 2.035 . S
Zn45 O52 2.028 . S
O46 C42 1.258 . S
O46 Zn47 2.035 . S
Zn47 O46 2.035 . S
Zn47 O48 2.028 . S
Zn47 O50 2.028 . S
Zn47 O53 2.035 . S
O48 Zn47 2.028 . S
O48 C54 1.247 . S
O49 Zn45 2.035 . S
O49 C54 1.258 . S
O50 C43 1.247 . S
O50 Zn47 2.028 . S
O51 C43 1.258 . S
O51 Zn45 2.035 . S
O52 Zn45 2.028 . S
O52 C55 1.247 . S
O53 Zn47 2.035 . S
O53 C55 1.258 . S
C54 O48 1.247 . S
C54 O49 1.258 . S
C55 O52 1.247 . S
C55 O53 1.258 . S
C56 O58 1.247 . S
C56 O60 1.258 . S
C57 O64 1.247 . S
C57 O65 1.258 . S
O58 C56 1.247 . S
O58 Zn59 2.028 . S
Zn59 O58 2.028 . S
Zn59 O63 2.035 . S
Zn59 O65 2.035 . S
Zn59 O66 2.028 . S
O60 C56 1.258 . S
O60 Zn61 2.035 . S
Zn61 O60 2.035 . S
Zn61 O62 2.028 . S
Zn61 O64 2.028 . S
Zn61 O67 2.035 . S
O62 Zn61 2.028 . S
O62 C68 1.247 . S
O63 Zn59 2.035 . S
O63 C68 1.258 . S
O64 C57 1.247 . S
O64 Zn61 2.028 . S
O65 C57 1.258 . S
O65 Zn59 2.035 . S
O66 Zn59 2.028 . S
O66 C69 1.247 . S
O67 Zn61 2.035 . S
O67 C69 1.258 . S
C68 O62 1.247 . S
C68 O63 1.258 . S
C69 O66 1.247 . S
C69 O67 1.258 . S
C70 O72 1.247 . S
C70 O74 1.258 . S
C71 O78 1.247 . S
C71 O79 1.258 . S
O72 C70 1.247 . S
O72 Zn73 2.028 . S
Zn73 O72 2.028 . S
Zn73 O77 2.035 . S
Zn73 O79 2.035 . S
Zn73 O80 2.028 . S
O74 C70 1.258 . S
O74 Zn75 2.035 . S
Zn75 O74 2.035 . S
Zn75 O76 2.028 . S
Zn75 O78 2.028 . S
Zn75 O81 2.035 . S
O76 Zn75 2.028 . S
O76 C82 1.247 . S
O77 Zn73 2.035 . S
O77 C82 1.258 . S
O78 C71 1.247 . S
O78 Zn75 2.028 . S
O79 C71 1.258 . S
O79 Zn73 2.035 . S
O80 Zn73 2.028 . S
O80 C83 1.247 . S
O81 Zn75 2.035 . S
O81 C83 1.258 . S
C82 O76 1.247 . S
C82 O77 1.258 . S
C83 O80 1.247 . S
C83 O81 1.258 . S
C84 O86 1.247 . S
C84 O88 1.258 . S
C85 O92 1.247 1_565 S
C85 O93 1.258 . S
O86 C84 1.247 . S
O86 Zn87 2.028 . S
Zn87 O86 2.028 . S
Zn87 O91 2.035 . S
Zn87 O93 2.035 . S
Zn87 O94 2.028 . S
O88 C84 1.258 . S
O88 Zn89 2.035 . S
Zn89 O88 2.035 . S
Zn89 O90 2.028 1_565 S
Zn89 O92 2.028 1_565 S
Zn89 O95 2.035 . S
O90 Zn89 2.028 1_545 S
O90 C96 1.247 . S
O91 Zn87 2.035 . S
O91 C96 1.258 1_565 S
O92 C85 1.247 1_545 S
O92 Zn89 2.028 1_545 S
O93 C85 1.258 . S
O93 Zn87 2.035 . S
O94 Zn87 2.028 . S
O94 C97 1.247 . S
O95 Zn89 2.035 . S
O95 C97 1.258 . S
C96 O90 1.247 . S
C96 O91 1.258 1_545 S
C97 O94 1.247 . S
C97 O95 1.258 . S
C98 O100 1.247 . S
C98 O102 1.258 . S
C99 O106 1.247 . S
C99 O107 1.258 . S
O100 C98 1.247 . S
O100 Zn101 2.028 . S
Zn101 O100 2.028 . S
Zn101 O105 2.035 . S
Zn101 O107 2.035 . S
Zn101 O108 2.028 . S
O102 C98 1.258 . S
O102 Zn103 2.035 . S
Zn103 O102 2.035 . S
Zn103 O104 2.028 . S
Zn103 O106 2.028 . S
Zn103 O109 2.035 . S
O104 Zn103 2.028 . S
O104 C110 1.247 . S
O105 Zn101 2.035 . S
O105 C110 1.258 . S
O106 C99 1.247 . S
O106 Zn103 2.028 . S
O107 C99 1.258 . S
O107 Zn101 2.035 . S
O108 Zn101 2.028 . S
O108 C111 1.247 . S
O109 Zn103 2.035 . S
O109 C111 1.258 . S
C110 O104 1.247 . S
C110 O105 1.258 . S
C111 O108 1.247 . S
C111 O109 1.258 . S
C112 O114 1.247 . S
C112 O116 1.258 . S
C113 O120 1.247 . S
C113 O121 1.258 . S
O114 C112 1.247 . S
O114 Zn115 2.028 . S
Zn115 O114 2.028 . S
Zn115 O119 2.035 . S
Zn115 O121 2.035 . S
Zn115 O122 2.028 . S
O116 C112 1.258 . S
O116 Zn117 2.035 . S
Zn117 O116 2.035 . S
Zn117 O118 2.028 . S
Zn117 O120 2.028 . S
Zn117 O123 2.035 . S
O118 Zn117 2.028 . S
O118 C124 1.247 . S
O119 Zn115 2.035 . S
O119 C124 1.258 . S
O120 C113 1.247 . S
O120 Zn117 2.028 . S
O121 C113 1.258 . S
O121 Zn115 2.035 . S
O122 Zn115 2.028 . S
O122 C125 1.247 . S
O123 Zn117 2.035 . S
O123 C125 1.258 . S
C124 O118 1.247 . S
C124 O119 1.258 . S
C125 O122 1.247 . S
C125 O123 1.258 . S
C126 O128 1.247 . S
C126 O130 1.258 . S
C127 O134 1.247 . S
C127 O135 1.258 . S
O128 C126 1.247 . S
O128 Zn129 2.028 . S
Zn129 O128 2.028 . S
Zn129 O133 2.035 . S
Zn129 O135 2.035 . S
Zn129 O136 2.028 . S
O130 C126 1.258 . S
O130 Zn131 2.035 . S
Zn131 O130 2.035 . S
Zn131 O132 2.028 . S
Zn131 O134 2.028 . S
Zn131 O137 2.035 . S
O132 Zn131 2.028 . S
O132 C138 1.247 . S
O133 Zn129 2.035 . S
O133 C138 1.258 . S
O134 C127 1.247 . S
O134 Zn131 2.028 . S
O135 C127 1.258 . S
O135 Zn129 2.035 . S
O136 Zn129 2.028 . S
O136 C139 1.247 . S
O137 Zn131 2.035 . S
O137 C139 1.258 . S
C138 O132 1.247 . S
C138 O133 1.258 . S
C139 O136 1.247 . S
C139 O137 1.258 . S
C140 O142 1.247 1_545 S
C140 O144 1.258 . S
C141 O148 1.247 . S
C141 O149 1.258 . S
O142 C140 1.247 1_565 S
O142 Zn143 2.028 . S
Zn143 O142 2.028 . S
Zn143 O147 2.035 . S
Zn143 O149 2.035 . S
Zn143 O150 2.028 . S
O144 C140 1.258 . S
O144 Zn145 2.035 1_545 S
Zn145 O144 2.035 1_565 S
Zn145 O146 2.028 . S
Zn145 O148 2.028 . S
Zn145 O151 2.035 1_565 S
O146 Zn145 2.028 . S
O146 C152 1.247 . S
O147 Zn143 2.035 . S
O147 C152 1.258 . S
O148 C141 1.247 . S
O148 Zn145 2.028 . S
O149 C141 1.258 . S
O149 Zn143 2.035 . S
O150 Zn143 2.028 . S
O150 C153 1.254 . S
O151 Zn145 2.035 1_545 S
O151 C153 1.253 1_545 S
C152 O146 1.247 . S
C152 O147 1.258 . S
C153 O150 1.254 . S
C153 O151 1.253 1_565 S
C154 O156 1.247 . S
C154 O158 1.258 . S
C155 O162 1.247 . S
C155 O163 1.258 . S
O156 C154 1.247 . S
O156 Zn157 2.028 . S
Zn157 O156 2.028 . S
Zn157 O161 2.035 . S
Zn157 O163 2.035 . S
Zn157 O164 2.028 . S
O158 C154 1.258 . S
O158 Zn159 2.035 . S
Zn159 O158 2.035 . S
Zn159 O160 2.028 . S
Zn159 O162 2.028 . S
Zn159 O165 2.035 . S
O160 Zn159 2.028 . S
O160 C166 1.247 . S
O161 Zn157 2.035 . S
O161 C166 1.258 . S
O162 C155 1.247 . S
O162 Zn159 2.028 . S
O163 C155 1.258 . S
O163 Zn157 2.035 . S
O164 Zn157 2.028 . S
O164 C167 1.247 . S
O165 Zn159 2.035 . S
O165 C167 1.258 . S
C166 O160 1.247 . S
C166 O161 1.258 . S
C167 O164 1.247 . S
C167 O165 1.258 . S
C168 O170 1.247 . S
C168 O172 1.258 . S
C169 O176 1.247 . S
C169 O177 1.258 . S
O170 C168 1.247 . S
O170 Zn171 2.028 . S
Zn171 O170 2.028 . S
Zn171 O175 2.035 . S
Zn171 O177 2.035 . S
Zn171 O178 2.028 . S
O172 C168 1.258 . S
O172 Zn173 2.035 . S
Zn173 O172 2.035 . S
Zn173 O174 2.028 . S
Zn173 O176 2.028 . S
Zn173 O179 2.035 . S
O174 Zn173 2.028 . S
O174 C180 1.247 . S
O175 Zn171 2.035 . S
O175 C180 1.258 . S
O176 C169 1.247 . S
O176 Zn173 2.028 . S
O177 C169 1.258 . S
O177 Zn171 2.035 . S
O178 Zn171 2.028 . S
O178 C181 1.247 . S
O179 Zn173 2.035 . S
O179 C181 1.258 . S
C180 O174 1.247 . S
C180 O175 1.258 . S
C181 O178 1.247 . S
C181 O179 1.258 . S
C182 O184 1.247 . S
C182 O186 1.258 . S
C183 O190 1.247 . S
C183 O191 1.258 . S
O184 C182 1.247 . S
O184 Zn185 2.028 . S
Zn185 O184 2.028 . S
Zn185 O189 2.035 . S
Zn185 O191 2.035 . S
Zn185 O192 2.028 . S
O186 C182 1.258 . S
O186 Zn187 2.035 . S
Zn187 O186 2.035 . S
Zn187 O188 2.028 . S
Zn187 O190 2.028 . S
Zn187 O193 2.035 . S
O188 Zn187 2.028 . S
O188 C194 1.247 . S
O189 Zn185 2.035 . S
O189 C194 1.258 . S
O190 C183 1.247 . S
O190 Zn187 2.028 . S
O191 C183 1.258 . S
O191 Zn185 2.035 . S
O192 Zn185 2.028 . S
O192 C195 1.247 . S
O193 Zn187 2.035 . S
O193 C195 1.258 . S
C194 O188 1.247 . S
C194 O189 1.258 . S
C195 O192 1.247 . S
C195 O193 1.258 . S
C196 O198 1.249 . S
C196 O200 1.260 1_655 S
C197 O204 1.247 . S
C197 O205 1.258 . S
O198 C196 1.249 . S
O198 Zn199 2.028 . S
Zn199 O198 2.028 . S
Zn199 O203 2.035 . S
Zn199 O205 2.035 . S
Zn199 O206 2.028 . S
O200 C196 1.260 1_455 S
O200 Zn201 2.035 1_455 S
Zn201 O200 2.035 1_655 S
Zn201 O202 2.028 . S
Zn201 O204 2.028 . S
Zn201 O207 2.035 1_655 S
O202 Zn201 2.028 . S
O202 C208 1.247 . S
O203 Zn199 2.035 . S
O203 C208 1.258 . S
O204 C197 1.247 . S
O204 Zn201 2.028 . S
O205 C197 1.258 . S
O205 Zn199 2.035 . S
O206 Zn199 2.028 . S
O206 C209 1.247 1_655 S
O207 Zn201 2.035 1_455 S
O207 C209 1.258 . S
C208 O202 1.247 . S
C208 O203 1.258 . S
C209 O206 1.247 1_455 S
C209 O207 1.258 . S
C210 O212 1.247 . S
C210 O214 1.258 . S
C211 O218 1.247 . S
C211 O219 1.258 . S
O212 C210 1.247 . S
O212 Zn213 2.028 . S
Zn213 O212 2.028 . S
Zn213 O217 2.035 . S
Zn213 O219 2.035 . S
Zn213 O220 2.028 . S
O214 C210 1.258 . S
O214 Zn215 2.035 . S
Zn215 O214 2.035 . S
Zn215 O216 2.028 . S
Zn215 O218 2.028 . S
Zn215 O221 2.035 . S
O216 Zn215 2.028 . S
O216 C222 1.247 . S
O217 Zn213 2.035 . S
O217 C222 1.258 . S
O218 C211 1.247 . S
O218 Zn215 2.028 . S
O219 C211 1.258 . S
O219 Zn213 2.035 . S
O220 Zn213 2.028 . S
O220 C223 1.247 . S
O221 Zn215 2.035 . S
O221 C223 1.258 . S
C222 O216 1.247 . S
C222 O217 1.258 . S
C223 O220 1.247 . S
C223 O221 1.258 . S
C224 O226 1.244 1_655 S
C224 O228 1.261 . S
C225 O232 1.247 . S
C225 O233 1.258 . S
O226 C224 1.244 1_455 S
O226 Zn227 2.028 1_455 S
Zn227 O226 2.028 1_655 S
Zn227 O231 2.035 . S
Zn227 O233 2.035 . S
Zn227 O234 2.028 1_655 S
O228 C224 1.261 . S
O228 Zn229 2.035 . S
Zn229 O228 2.035 . S
Zn229 O230 2.028 . S
Zn229 O232 2.028 . S
Zn229 O235 2.035 . S
O230 Zn229 2.028 . S
O230 C236 1.247 . S
O231 Zn227 2.035 . S
O231 C236 1.258 . S
O232 C225 1.247 . S
O232 Zn229 2.028 . S
O233 C225 1.258 . S
O233 Zn227 2.035 . S
O234 Zn227 2.028 1_455 S
O234 C237 1.247 . S
O235 Zn229 2.035 . S
O235 C237 1.258 1_655 S
C236 O230 1.247 . S
C236 O231 1.258 . S
C237 O234 1.247 . S
C237 O235 1.258 1_455 S
C238 O240 1.247 . S
C238 O242 1.258 . S
C239 O246 1.247 . S
C239 O247 1.258 . S
O240 C238 1.247 . S
O240 Zn241 2.028 . S
Zn241 O240 2.028 . S
Zn241 O245 2.035 . S
Zn241 O247 2.035 . S
Zn241 O248 2.028 . S
O242 C238 1.258 . S
O242 Zn243 2.035 . S
Zn243 O242 2.035 . S
Zn243 O244 2.028 . S
Zn243 O246 2.028 . S
Zn243 O249 2.035 . S
O244 Zn243 2.028 . S
O244 C250 1.247 . S
O245 Zn241 2.035 . S
O245 C250 1.258 . S
O246 C239 1.247 . S
O246 Zn243 2.028 . S
O247 C239 1.258 . S
O247 Zn241 2.035 . S
O248 Zn241 2.028 . S
O248 C251 1.247 . S
O249 Zn243 2.035 . S
O249 C251 1.258 . S
C250 O244 1.247 . S
C250 O245 1.258 . S
C251 O248 1.247 . S
C251 O249 1.258 . S
H252 C260 0.950 . S
H253 C265 0.950 . S
H254 C262 0.950 1_554 S
H255 C264 0.950 . S
H256 C266 0.950 . S
H257 C268 0.950 1_556 S
H258 C270 0.950 . S
H259 C271 0.950 . S
C260 H252 0.950 . S
C260 C261 1.386 . S
C260 C262 1.391 . S
C261 C260 1.386 . S
C261 C265 1.393 . S
C262 H254 0.950 1_556 S
C262 C260 1.391 . S
C262 C263 1.400 . S
C263 C262 1.400 . S
C263 C264 1.398 . S
C263 C269 1.491 1_556 S
C264 H255 0.950 . S
C264 C263 1.398 . S
C264 C265 1.391 . S
C265 H253 0.950 . S
C265 C261 1.393 . S
C265 C264 1.391 . S
C266 H256 0.950 . S
C266 C267 1.386 . S
C266 C268 1.391 . S
C267 C266 1.386 . S
C267 C271 1.393 . S
C268 H257 0.950 1_554 S
C268 C266 1.391 . S
C268 C269 1.400 . S
C269 C263 1.491 1_554 S
C269 C268 1.400 . S
C269 C270 1.398 . S
C270 H258 0.950 . S
C270 C269 1.398 . S
C270 C271 1.391 . S
C271 H259 0.950 . S
C271 C267 1.393 . S
C271 C270 1.391 . S
H272 C280 0.950 . S
H273 C285 0.950 . S
H274 C282 0.950 1_554 S
H275 C284 0.950 . S
H276 C286 0.950 . S
H277 C288 0.950 1_556 S
H278 C290 0.950 . S
H279 C291 0.950 . S
C280 H272 0.950 . S
C280 C281 1.386 . S
C280 C282 1.391 . S
C281 C280 1.386 . S
C281 C285 1.393 . S
C282 H274 0.950 1_556 S
C282 C280 1.391 . S
C282 C283 1.400 . S
C283 C282 1.400 . S
C283 C284 1.398 . S
C283 C289 1.491 1_556 S
C284 H275 0.950 . S
C284 C283 1.398 . S
C284 C285 1.391 . S
C285 H273 0.950 . S
C285 C281 1.393 . S
C285 C284 1.391 . S
C286 H276 0.950 . S
C286 C287 1.386 . S
C286 C288 1.391 . S
C287 C286 1.386 . S
C287 C291 1.393 . S
C288 H277 0.950 1_554 S
C288 C286 1.391 . S
C288 C289 1.400 . S
C289 C283 1.491 1_554 S
C289 C288 1.400 . S
C289 C290 1.398 . S
C290 H278 0.950 . S
C290 C289 1.398 . S
C290 C291 1.391 . S
C291 H279 0.950 . S
C291 C287 1.393 . S
C291 C290 1.391 . S
H292 C300 0.950 . S
H293 C305 0.950 . S
H294 C302 0.950 . S
H295 C304 0.950 1_556 S
H296 C306 0.950 . S
H297 C308 0.950 . S
H298 C310 0.950 1_554 S
H299 C311 0.950 . S
C300 H292 0.950 . S
C300 C301 1.386 . S
C300 C302 1.391 . S
C301 C300 1.386 . S
C301 C305 1.393 . S
C302 H294 0.950 . S
C302 C300 1.391 . S
C302 C303 1.400 . S
C303 C302 1.400 . S
C303 C304 1.398 . S
C303 C309 1.491 1_554 S
C304 H295 0.950 1_554 S
C304 C303 1.398 . S
C304 C305 1.391 . S
C305 H293 0.950 . S
C305 C301 1.393 . S
C305 C304 1.391 . S
C306 H296 0.950 . S
C306 C307 1.386 . S
C306 C308 1.391 . S
C307 C306 1.386 . S
C307 C311 1.393 . S
C308 H297 0.950 . S
C308 C306 1.391 . S
C308 C309 1.400 . S
C309 C303 1.491 1_556 S
C309 C308 1.400 . S
C309 C310 1.398 . S
C310 H298 0.950 1_556 S
C310 C309 1.398 . S
C310 C311 1.391 . S
C311 H299 0.950 . S
C311 C307 1.393 . S
C311 C310 1.391 . S
H312 C320 0.950 . S
H313 C325 0.950 . S
H314 C322 0.950 . S
H315 C324 0.950 . S
H316 C326 0.950 . S
H317 C328 0.950 . S
H318 C330 0.950 . S
H319 C331 0.950 . S
C320 H312 0.950 . S
C320 C321 1.386 . S
C320 C322 1.391 . S
C321 C320 1.386 . S
C321 C325 1.393 . S
C322 H314 0.950 . S
C322 C320 1.391 . S
C322 C323 1.400 . S
C323 C322 1.400 . S
C323 C324 1.398 . S
C323 C329 1.491 . S
C324 H315 0.950 . S
C324 C323 1.398 . S
C324 C325 1.391 . S
C325 H313 0.950 . S
C325 C321 1.393 . S
C325 C324 1.391 . S
C326 H316 0.950 . S
C326 C327 1.386 . S
C326 C328 1.391 . S
C327 C326 1.386 . S
C327 C331 1.393 . S
C328 H317 0.950 . S
C328 C326 1.391 . S
C328 C329 1.400 . S
C329 C323 1.491 . S
C329 C328 1.400 . S
C329 C330 1.398 . S
C330 H318 0.950 . S
C330 C329 1.398 . S
C330 C331 1.391 . S
C331 H319 0.950 . S
C331 C327 1.393 . S
C331 C330 1.391 . S
H332 C340 0.950 . S
H333 C345 0.950 . S
H334 C342 0.950 . S
H335 C344 0.950 . S
H336 C346 0.950 . S
H337 C348 0.950 . S
H338 C350 0.950 . S
H339 C351 0.950 . S
C340 H332 0.950 . S
C340 C341 1.386 . S
C340 C342 1.391 . S
C341 C340 1.386 . S
C341 C345 1.393 . S
C342 H334 0.950 . S
C342 C340 1.391 . S
C342 C343 1.400 . S
C343 C342 1.400 . S
C343 C344 1.398 . S
C343 C349 1.491 . S
C344 H335 0.950 . S
C344 C343 1.398 . S
C344 C345 1.391 . S
C345 H333 0.950 . S
C345 C341 1.393 . S
C345 C344 1.391 . S
C346 H336 0.950 . S
C346 C347 1.386 . S
C346 C348 1.391 . S
C347 C346 1.386 . S
C347 C351 1.393 . S
C348 H337 0.950 . S
C348 C346 1.391 . S
C348 C349 1.400 . S
C349 C343 1.491 . S
C349 C348 1.400 . S
C349 C350 1.398 . S
C350 H338 0.950 . S
C350 C349 1.398 . S
C350 C351 1.391 . S
C351 H339 0.950 . S
C351 C347 1.393 . S
C351 C350 1.391 . S
H352 C360 0.950 . S
H353 C365 0.950 . S
H354 C362 0.950 . S
H355 C364 0.950 . S
H356 C366 0.950 . S
H357 C368 0.950 . S
H358 C370 0.950 . S
H359 C371 0.950 . S
C360 H352 0.950 . S
C360 C361 1.386 . S
C360 C362 1.391 . S
C361 C360 1.386 . S
C361 C365 1.393 . S
C362 H354 0.950 . S
C362 C360 1.391 . S
C362 C363 1.400 . S
C363 C362 1.400 . S
C363 C364 1.398 . S
C363 C369 1.491 . S
C364 H355 0.950 . S
C364 C363 1.398 . S
C364 C365 1.391 . S
C365 H353 0.950 . S
C365 C361 1.393 . S
C365 C364 1.391 . S
C366 H356 0.950 . S
C366 C367 1.386 . S
C366 C368 1.391 . S
C367 C366 1.386 . S
C367 C371 1.393 . S
C368 H357 0.950 . S
C368 C366 1.391 . S
C368 C369 1.400 . S
C369 C363 1.491 . S
C369 C368 1.400 . S
C369 C370 1.398 . S
C370 H358 0.950 . S
C370 C369 1.398 . S
C370 C371 1.391 . S
C371 H359 0.950 . S
C371 C367 1.393 . S
C371 C370 1.391 . S
H372 C380 0.950 . S
H373 C385 0.950 . S
H374 C382 0.950 . S
H375 C384 0.950 . S
H376 C386 0.950 . S
H377 C388 0.950 . S
H378 C390 0.950 . S
H379 C391 0.950 . S
C380 H372 0.950 . S
C380 C381 1.386 . S
C380 C382 1.391 . S
C381 C380 1.386 . S
C381 C385 1.393 . S
C382 H374 0.950 . S
C382 C380 1.391 . S
C382 C383 1.400 . S
C383 C382 1.400 . S
C383 C384 1.398 . S
C383 C389 1.491 . S
C384 H375 0.950 . S
C384 C383 1.398 . S
C384 C385 1.391 . S
C385 H373 0.950 . S
C385 C381 1.393 . S
C385 C384 1.391 . S
C386 H376 0.950 . S
C386 C387 1.386 . S
C386 C388 1.391 . S
C387 C386 1.386 . S
C387 C391 1.393 . S
C388 H377 0.950 . S
C388 C386 1.391 . S
C388 C389 1.400 . S
C389 C383 1.491 . S
C389 C388 1.400 . S
C389 C390 1.398 . S
C390 H378 0.950 . S
C390 C389 1.398 . S
C390 C391 1.391 . S
C391 H379 0.950 . S
C391 C387 1.393 . S
C391 C390 1.391 . S
H392 C400 0.950 . S
H393 C405 0.950 . S
H394 C402 0.950 . S
H395 C404 0.950 . S
H396 C406 0.950 . S
H397 C408 0.950 . S
H398 C410 0.950 . S
H399 C411 0.950 . S
C400 H392 0.950 . S
C400 C401 1.386 . S
C400 C402 1.391 . S
C401 C400 1.386 . S
C401 C405 1.393 . S
C402 H394 0.950 . S
C402 C400 1.391 . S
C402 C403 1.400 . S
C403 C402 1.400 . S
C403 C404 1.398 . S
C403 C409 1.491 . S
C404 H395 0.950 . S
C404 C403 1.398 . S
C404 C405 1.391 . S
C405 H393 0.950 . S
C405 C401 1.393 . S
C405 C404 1.391 . S
C406 H396 0.950 . S
C406 C407 1.386 . S
C406 C408 1.391 . S
C407 C406 1.386 . S
C407 C411 1.393 . S
C408 H397 0.950 . S
C408 C406 1.391 . S
C408 C409 1.400 . S
C409 C403 1.491 . S
C409 C408 1.400 . S
C409 C410 1.398 . S
C410 H398 0.950 . S
C410 C409 1.398 . S
C410 C411 1.391 . S
C411 H399 0.950 . S
C411 C407 1.393 . S
C411 C410 1.391 . S
H412 C420 0.950 . S
H413 C425 0.950 . S
H414 C422 0.950 . S
H415 C424 0.950 . S
H416 C426 0.950 . S
H417 C428 0.950 . S
H418 C430 0.950 . S
H419 C431 0.950 . S
C420 H412 0.950 . S
C420 C421 1.386 . S
C420 C422 1.391 . S
C421 C420 1.386 . S
C421 C425 1.393 . S
C422 H414 0.950 . S
C422 C420 1.391 . S
C422 C423 1.400 . S
C423 C422 1.400 . S
C423 C424 1.398 . S
C423 C429 1.491 . S
C424 H415 0.950 . S
C424 C423 1.398 . S
C424 C425 1.391 . S
C425 H413 0.950 . S
C425 C421 1.393 . S
C425 C424 1.391 . S
C426 H416 0.950 . S
C426 C427 1.386 . S
C426 C428 1.391 . S
C427 C426 1.386 . S
C427 C431 1.393 . S
C428 H417 0.950 . S
C428 C426 1.391 . S
C428 C429 1.400 . S
C429 C423 1.491 . S
C429 C428 1.400 . S
C429 C430 1.398 . S
C430 H418 0.950 . S
C430 C429 1.398 . S
C430 C431 1.391 . S
C431 H419 0.950 . S
C431 C427 1.393 . S
C431 C430 1.391 . S
H432 C440 0.950 . S
H433 C445 0.950 . S
H434 C442 0.950 . S
H435 C444 0.950 . S
H436 C446 0.950 . S
H437 C448 0.950 . S
H438 C450 0.950 . S
H439 C451 0.950 . S
C440 H432 0.950 . S
C440 C441 1.386 . S
C440 C442 1.391 . S
C441 C440 1.386 . S
C441 C445 1.393 . S
C442 H434 0.950 . S
C442 C440 1.391 . S
C442 C443 1.400 . S
C443 C442 1.400 . S
C443 C444 1.398 . S
C443 C449 1.491 . S
C444 H435 0.950 . S
C444 C443 1.398 . S
C444 C445 1.391 . S
C445 H433 0.950 . S
C445 C441 1.393 . S
C445 C444 1.391 . S
C446 H436 0.950 . S
C446 C447 1.386 . S
C446 C448 1.391 . S
C447 C446 1.386 . S
C447 C451 1.393 . S
C448 H437 0.950 . S
C448 C446 1.391 . S
C448 C449 1.400 . S
C449 C443 1.491 . S
C449 C448 1.400 . S
C449 C450 1.398 . S
C450 H438 0.950 . S
C450 C449 1.398 . S
C450 C451 1.391 . S
C451 H439 0.950 . S
C451 C447 1.393 . S
C451 C450 1.391 . S
H452 C460 0.950 . S
H453 C465 0.950 . S
H454 C462 0.950 . S
H455 C464 0.950 . S
H456 C466 0.950 . S
H457 C468 0.950 . S
H458 C470 0.950 . S
H459 C471 0.950 . S
C460 H452 0.950 . S
C460 C461 1.386 . S
C460 C462 1.391 . S
C461 C460 1.386 . S
C461 C465 1.393 . S
C462 H454 0.950 . S
C462 C460 1.391 . S
C462 C463 1.400 . S
C463 C462 1.400 . S
C463 C464 1.398 . S
C463 C469 1.491 . S
C464 H455 0.950 . S
C464 C463 1.398 . S
C464 C465 1.391 . S
C465 H453 0.950 . S
C465 C461 1.393 . S
C465 C464 1.391 . S
C466 H456 0.950 . S
C466 C467 1.386 . S
C466 C468 1.391 . S
C467 C466 1.386 . S
C467 C471 1.393 . S
C468 H457 0.950 . S
C468 C466 1.391 . S
C468 C469 1.400 . S
C469 C463 1.491 . S
C469 C468 1.400 . S
C469 C470 1.398 . S
C470 H458 0.950 . S
C470 C469 1.398 . S
C470 C471 1.391 . S
C471 H459 0.950 . S
C471 C467 1.393 . S
C471 C470 1.391 . S
H472 C480 0.950 . S
H473 C485 0.950 . S
H474 C482 0.950 . S
H475 C484 0.950 . S
H476 C486 0.950 . S
H477 C488 0.950 . S
H478 C490 0.950 . S
H479 C491 0.950 . S
C480 H472 0.950 . S
C480 C481 1.386 . S
C480 C482 1.391 . S
C481 C480 1.386 . S
C481 C485 1.393 . S
C482 H474 0.950 . S
C482 C480 1.391 . S
C482 C483 1.400 . S
C483 C482 1.400 . S
C483 C484 1.398 . S
C483 C489 1.491 . S
C484 H475 0.950 . S
C484 C483 1.398 . S
C484 C485 1.391 . S
C485 H473 0.950 . S
C485 C481 1.393 . S
C485 C484 1.391 . S
C486 H476 0.950 . S
C486 C487 1.386 . S
C486 C488 1.391 . S
C487 C486 1.386 . S
C487 C491 1.393 . S
C488 H477 0.950 . S
C488 C486 1.391 . S
C488 C489 1.400 . S
C489 C483 1.491 . S
C489 C488 1.400 . S
C489 C490 1.398 . S
C490 H478 0.950 . S
C490 C489 1.398 . S
C490 C491 1.391 . S
C491 H479 0.950 . S
C491 C487 1.393 . S
C491 C490 1.391 . S
H492 C500 0.950 . S
H493 C505 0.950 . S
H494 C502 0.950 . S
H495 C504 0.950 . S
H496 C506 0.950 . S
H497 C508 0.950 . S
H498 C510 0.950 . S
H499 C511 0.950 . S
C500 H492 0.950 . S
C500 C501 1.386 . S
C500 C502 1.391 . S
C501 C500 1.386 . S
C501 C505 1.393 . S
C502 H494 0.950 . S
C502 C500 1.391 . S
C502 C503 1.400 . S
C503 C502 1.400 . S
C503 C504 1.398 . S
C503 C509 1.491 . S
C504 H495 0.950 . S
C504 C503 1.398 . S
C504 C505 1.391 . S
C505 H493 0.950 . S
C505 C501 1.393 . S
C505 C504 1.391 . S
C506 H496 0.950 . S
C506 C507 1.386 . S
C506 C508 1.391 . S
C507 C506 1.386 . S
C507 C511 1.393 . S
C508 H497 0.950 . S
C508 C506 1.391 . S
C508 C509 1.400 . S
C509 C503 1.491 . S
C509 C508 1.400 . S
C509 C510 1.398 . S
C510 H498 0.950 . S
C510 C509 1.398 . S
C510 C511 1.391 . S
C511 H499 0.950 . S
C511 C507 1.393 . S
C511 C510 1.391 . S
H512 C520 0.950 . S
H513 C525 0.950 . S
H514 C522 0.950 . S
H515 C524 0.950 . S
H516 C526 0.950 . S
H517 C528 0.950 . S
H518 C530 0.950 . S
H519 C531 0.950 . S
C520 H512 0.950 . S
C520 C521 1.386 . S
C520 C522 1.391 . S
C521 C520 1.386 . S
C521 C525 1.393 . S
C522 H514 0.950 . S
C522 C520 1.391 . S
C522 C523 1.400 . S
C523 C522 1.400 . S
C523 C524 1.398 . S
C523 C529 1.491 . S
C524 H515 0.950 . S
C524 C523 1.398 . S
C524 C525 1.391 . S
C525 H513 0.950 . S
C525 C521 1.393 . S
C525 C524 1.391 . S
C526 H516 0.950 . S
C526 C527 1.386 . S
C526 C528 1.391 . S
C527 C526 1.386 . S
C527 C531 1.393 . S
C528 H517 0.950 . S
C528 C526 1.391 . S
C528 C529 1.400 . S
C529 C523 1.491 . S
C529 C528 1.400 . S
C529 C530 1.398 . S
C530 H518 0.950 . S
C530 C529 1.398 . S
C530 C531 1.391 . S
C531 H519 0.950 . S
C531 C527 1.393 . S
C531 C530 1.391 . S
H532 C540 0.950 . S
H533 C545 0.950 . S
H534 C542 0.950 . S
H535 C544 0.950 . S
H536 C546 0.950 . S
H537 C548 0.950 . S
H538 C550 0.950 . S
H539 C551 0.950 . S
C540 H532 0.950 . S
C540 C541 1.386 . S
C540 C542 1.391 . S
C541 C540 1.386 . S
C541 C545 1.393 . S
C542 H534 0.950 . S
C542 C540 1.391 . S
C542 C543 1.400 . S
C543 C542 1.400 . S
C543 C544 1.398 . S
C543 C549 1.491 . S
C544 H535 0.950 . S
C544 C543 1.398 . S
C544 C545 1.391 . S
C545 H533 0.950 . S
C545 C541 1.393 . S
C545 C544 1.391 . S
C546 H536 0.950 . S
C546 C547 1.386 . S
C546 C548 1.391 . S
C547 C546 1.386 . S
C547 C551 1.393 . S
C548 H537 0.950 . S
C548 C546 1.391 . S
C548 C549 1.400 . S
C549 C543 1.491 . S
C549 C548 1.400 . S
C549 C550 1.398 . S
C550 H538 0.950 . S
C550 C549 1.398 . S
C550 C551 1.391 . S
C551 H539 0.950 . S
C551 C547 1.393 . S
C551 C550 1.391 . S
H552 C560 0.950 . S
H553 C565 0.950 . S
H554 C562 0.950 . S
H555 C564 0.950 . S
H556 C566 0.950 . S
H557 C568 0.950 . S
H558 C570 0.950 . S
H559 C571 0.950 . S
C560 H552 0.950 . S
C560 C561 1.386 . S
C560 C562 1.391 . S
C561 C560 1.386 . S
C561 C565 1.393 . S
C562 H554 0.950 . S
C562 C560 1.391 . S
C562 C563 1.400 . S
C563 C562 1.400 . S
C563 C564 1.398 . S
C563 C569 1.491 . S
C564 H555 0.950 . S
C564 C563 1.398 . S
C564 C565 1.391 . S
C565 H553 0.950 . S
C565 C561 1.393 . S
C565 C564 1.391 . S
C566 H556 0.950 . S
C566 C567 1.386 . S
C566 C568 1.391 . S
C567 C566 1.386 . S
C567 C571 1.393 . S
C568 H557 0.950 . S
C568 C566 1.391 . S
C568 C569 1.400 . S
C569 C563 1.491 . S
C569 C568 1.400 . S
C569 C570 1.398 . S
C570 H558 0.950 . S
C570 C569 1.398 . S
C570 C571 1.391 . S
C571 H559 0.950 . S
C571 C567 1.393 . S
C571 C570 1.391 . S
H572 C580 0.950 . S
H573 C585 0.950 . S
H574 C582 0.950 . S
H575 C584 0.950 . S
H576 C586 0.950 1_556 S
H577 C588 0.950 . S
H578 C590 0.950 . S
H579 C591 0.950 . S
C580 H572 0.950 . S
C580 C581 1.386 . S
C580 C582 1.391 . S
C581 C580 1.386 . S
C581 C585 1.393 . S
C582 H574 0.950 . S
C582 C580 1.391 . S
C582 C583 1.400 . S
C583 C582 1.400 . S
C583 C584 1.398 . S
C583 C589 1.491 . S
C584 H575 0.950 . S
C584 C583 1.398 . S
C584 C585 1.391 . S
C585 H573 0.950 . S
C585 C581 1.393 . S
C585 C584 1.391 . S
C586 H576 0.950 1_554 S
C586 C587 1.386 . S
C586 C588 1.391 . S
C587 C586 1.386 . S
C587 C591 1.393 . S
C588 H577 0.950 . S
C588 C586 1.391 . S
C588 C589 1.400 . S
C589 C583 1.491 . S
C589 C588 1.400 . S
C589 C590 1.398 . S
C590 H578 0.950 . S
C590 C589 1.398 . S
C590 C591 1.391 . S
C591 H579 0.950 . S
C591 C587 1.393 . S
C591 C590 1.391 . S
H592 C600 0.950 . S
H593 C605 0.950 . S
H594 C602 0.950 . S
H595 C604 0.950 . S
H596 C606 0.950 . S
H597 C608 0.950 . S
H598 C610 0.950 . S
H599 C611 0.950 . S
C600 H592 0.950 . S
C600 C601 1.386 . S
C600 C602 1.391 . S
C601 C600 1.386 . S
C601 C605 1.393 . S
C602 H594 0.950 . S
C602 C600 1.391 . S
C602 C603 1.400 . S
C603 C602 1.400 . S
C603 C604 1.398 . S
C603 C609 1.491 . S
C604 H595 0.950 . S
C604 C603 1.398 . S
C604 C605 1.391 . S
C605 H593 0.950 . S
C605 C601 1.393 . S
C605 C604 1.391 . S
C606 H596 0.950 . S
C606 C607 1.386 . S
C606 C608 1.391 . S
C607 C606 1.386 . S
C607 C611 1.393 . S
C608 H597 0.950 . S
C608 C606 1.391 . S
C608 C609 1.400 . S
C609 C603 1.491 . S
C609 C608 1.400 . S
C609 C610 1.398 . S
C610 H598 0.950 . S
C610 C609 1.398 . S
C610 C611 1.391 . S
C611 H599 0.950 . S
C611 C607 1.393 . S
C611 C610 1.391 . S
H612 C620 0.950 . S
H613 C625 0.950 . S
H614 C622 0.950 . S
H615 C624 0.950 . S
H616 C626 0.950 . S
H617 C628 0.950 . S
H618 C630 0.950 . S
H619 C631 0.950 . S
C620 H612 0.950 . S
C620 C621 1.386 . S
C620 C622 1.391 . S
C621 C620 1.386 . S
C621 C625 1.393 . S
C622 H614 0.950 . S
C622 C620 1.391 . S
C622 C623 1.400 . S
C623 C622 1.400 . S
C623 C624 1.398 . S
C623 C629 1.491 . S
C624 H615 0.950 . S
C624 C623 1.398 . S
C624 C625 1.391 . S
C625 H613 0.950 . S
C625 C621 1.393 . S
C625 C624 1.391 . S
C626 H616 0.950 . S
C626 C627 1.386 . S
C626 C628 1.391 . S
C627 C626 1.386 . S
C627 C631 1.393 . S
C628 H617 0.950 . S
C628 C626 1.391 . S
C628 C629 1.400 . S
C629 C623 1.491 . S
C629 C628 1.400 . S
C629 C630 1.398 . S
C630 H618 0.950 . S
C630 C629 1.398 . S
C630 C631 1.391 . S
C631 H619 0.950 . S
C631 C627 1.393 . S
C631 C630 1.391 . S
H632 C640 0.950 . S
H633 C645 0.950 . S
H634 C642 0.950 . S
H635 C644 0.950 . S
H636 C646 0.950 . S
H637 C648 0.950 . S
H638 C650 0.950 . S
H639 C651 0.950 . S
C640 H632 0.950 . S
C640 C641 1.386 . S
C640 C642 1.391 . S
C641 C640 1.386 . S
C641 C645 1.393 . S
C642 H634 0.950 . S
C642 C640 1.391 . S
C642 C643 1.400 . S
C643 C642 1.400 . S
C643 C644 1.398 . S
C643 C649 1.491 . S
C644 H635 0.950 . S
C644 C643 1.398 . S
C644 C645 1.391 . S
C645 H633 0.950 . S
C645 C641 1.393 . S
C645 C644 1.391 . S
C646 H636 0.950 . S
C646 C647 1.386 . S
C646 C648 1.391 . S
C647 C646 1.386 . S
C647 C651 1.393 . S
C648 H637 0.950 . S
C648 C646 1.391 . S
C648 C649 1.400 . S
C649 C643 1.491 . S
C649 C648 1.400 . S
C649 C650 1.398 . S
C650 H638 0.950 . S
C650 C649 1.398 . S
C650 C651 1.391 . S
C651 H639 0.950 . S
C651 C647 1.393 . S
C651 C650 1.391 . S
H652 C660 0.950 . S
H653 C665 0.950 . S
H654 C662 0.950 . S
H655 C664 0.950 . S
H656 C666 0.950 . S
H657 C668 0.950 . S
H658 C670 0.950 . S
H659 C671 0.950 . S
C660 H652 0.950 . S
C660 C661 1.386 . S
C660 C662 1.391 . S
C661 C660 1.386 . S
C661 C665 1.393 . S
C662 H654 0.950 . S
C662 C660 1.391 . S
C662 C663 1.400 . S
C663 C662 1.400 . S
C663 C664 1.398 . S
C663 C669 1.491 . S
C664 H655 0.950 . S
C664 C663 1.398 . S
C664 C665 1.391 . S
C665 H653 0.950 . S
C665 C661 1.393 . S
C665 C664 1.391 . S
C666 H656 0.950 . S
C666 C667 1.386 . S
C666 C668 1.391 . S
C667 C666 1.386 . S
C667 C671 1.393 . S
C668 H657 0.950 . S
C668 C666 1.391 . S
C668 C669 1.400 . S
C669 C663 1.491 . S
C669 C668 1.400 . S
C669 C670 1.398 . S
C670 H658 0.950 . S
C670 C669 1.398 . S
C670 C671 1.391 . S
C671 H659 0.950 . S
C671 C667 1.393 . S
C671 C670 1.391 . S
H672 C680 0.950 . S
H673 C685 0.950 . S
H674 C682 0.950 . S
H675 C684 0.950 . S
H676 C686 0.950 . S
H677 C688 0.950 . S
H678 C690 0.950 1_556 S
H679 C691 0.950 . S
C680 H672 0.950 . S
C680 C681 1.386 . S
C680 C682 1.391 . S
C681 C680 1.386 . S
C681 C685 1.393 . S
C682 H674 0.950 . S
C682 C680 1.391 . S
C682 C683 1.400 . S
C683 C682 1.400 . S
C683 C684 1.398 . S
C683 C689 1.491 . S
C684 H675 0.950 . S
C684 C683 1.398 . S
C684 C685 1.391 . S
C685 H673 0.950 . S
C685 C681 1.393 . S
C685 C684 1.391 . S
C686 H676 0.950 . S
C686 C687 1.386 . S
C686 C688 1.391 . S
C687 C686 1.386 . S
C687 C691 1.393 1_554 S
C688 H677 0.950 . S
C688 C686 1.391 . S
C688 C689 1.400 . S
C689 C683 1.491 . S
C689 C688 1.400 . S
C689 C690 1.398 . S
C690 H678 0.950 1_554 S
C690 C689 1.398 . S
C690 C691 1.391 1_554 S
C691 H679 0.950 . S
C691 C687 1.393 1_556 S
C691 C690 1.391 1_556 S
H692 C700 0.950 . S
H693 C705 0.950 1_655 S
H694 C702 0.950 1_556 S
H695 C704 0.950 . S
H696 C706 0.950 . S
H697 C708 0.950 . S
H698 C710 0.950 . S
H699 C711 0.950 . S
C700 H692 0.950 . S
C700 C701 1.386 1_556 S
C700 C702 1.391 1_556 S
C701 C700 1.386 1_554 S
C701 C705 1.393 . S
C702 H694 0.950 1_554 S
C702 C700 1.391 1_554 S
C702 C703 1.400 . S
C703 C702 1.400 . S
C703 C704 1.398 . S
C703 C709 1.491 . S
C704 H695 0.950 . S
C704 C703 1.398 . S
C704 C705 1.391 . S
C705 H693 0.950 1_455 S
C705 C701 1.393 . S
C705 C704 1.391 . S
C706 H696 0.950 . S
C706 C707 1.386 . S
C706 C708 1.391 . S
C707 C706 1.386 . S
C707 C711 1.393 . S
C708 H697 0.950 . S
C708 C706 1.391 . S
C708 C709 1.400 . S
C709 C703 1.491 . S
C709 C708 1.400 . S
C709 C710 1.398 . S
C710 H698 0.950 . S
C710 C709 1.398 . S
C710 C711 1.391 . S
C711 H699 0.950 . S
C711 C707 1.393 . S
C711 C710 1.391 . S
H712 C720 0.950 . S
H713 C725 0.950 . S
H714 C722 0.950 . S
H715 C724 0.950 . S
H716 C726 0.950 . S
H717 C728 0.950 . S
H718 C730 0.950 . S
H719 C731 0.950 . S
C720 H712 0.950 . S
C720 C721 1.386 . S
C720 C722 1.391 . S
C721 C720 1.386 . S
C721 C725 1.393 . S
C722 H714 0.950 . S
C722 C720 1.391 . S
C722 C723 1.400 . S
C723 C722 1.400 . S
C723 C724 1.398 . S
C723 C729 1.491 . S
C724 H715 0.950 . S
C724 C723 1.398 . S
C724 C725 1.391 . S
C725 H713 0.950 . S
C725 C721 1.393 . S
C725 C724 1.391 . S
C726 H716 0.950 . S
C726 C727 1.386 . S
C726 C728 1.391 . S
C727 C726 1.386 . S
C727 C731 1.393 . S
C728 H717 0.950 . S
C728 C726 1.391 . S
C728 C729 1.400 . S
C729 C723 1.491 . S
C729 C728 1.400 . S
C729 C730 1.398 . S
C730 H718 0.950 . S
C730 C729 1.398 . S
C730 C731 1.391 . S
C731 H719 0.950 . S
C731 C727 1.393 . S
C731 C730 1.391 . S
H732 C740 0.950 1_655 S
H733 C745 0.950 . S
H734 C742 0.950 . S
H735 C744 0.950 . S
H736 C746 0.950 . S
H737 C748 0.950 . S
H738 C750 0.950 . S
H739 C751 0.950 . S
C740 H732 0.950 1_455 S
C740 C741 1.386 . S
C740 C742 1.391 . S
C741 C740 1.386 . S
C741 C745 1.393 . S
C742 H734 0.950 . S
C742 C740 1.391 . S
C742 C743 1.400 . S
C743 C742 1.400 . S
C743 C744 1.398 . S
C743 C749 1.491 . S
C744 H735 0.950 . S
C744 C743 1.398 . S
C744 C745 1.391 . S
C745 H733 0.950 . S
C745 C741 1.393 . S
C745 C744 1.391 . S
C746 H736 0.950 . S
C746 C747 1.386 . S
C746 C748 1.391 . S
C747 C746 1.386 . S
C747 C751 1.393 . S
C748 H737 0.950 . S
C748 C746 1.391 . S
C748 C749 1.400 . S
C749 C743 1.491 . S
C749 C748 1.400 . S
C749 C750 1.398 . S
C750 H738 0.950 . S
C750 C749 1.398 . S
C750 C751 1.391 . S
C751 H739 0.950 . S
C751 C747 1.393 . S
C751 C750 1.391 . S
H752 C760 0.950 . S
H753 C765 0.950 . S
H754 C762 0.950 . S
H755 C764 0.950 . S
H756 C766 0.950 . S
H757 C768 0.950 . S
H758 C770 0.950 . S
H759 C771 0.950 . S
C760 H752 0.950 . S
C760 C761 1.386 . S
C760 C762 1.391 . S
C761 C760 1.386 . S
C761 C765 1.393 . S
C762 H754 0.950 . S
C762 C760 1.391 . S
C762 C763 1.400 . S
C763 C762 1.400 . S
C763 C764 1.398 . S
C763 C769 1.491 . S
C764 H755 0.950 . S
C764 C763 1.398 . S
C764 C765 1.391 . S
C765 H753 0.950 . S
C765 C761 1.393 . S
C765 C764 1.391 . S
C766 H756 0.950 . S
C766 C767 1.386 . S
C766 C768 1.391 . S
C767 C766 1.386 . S
C767 C771 1.393 . S
C768 H757 0.950 . S
C768 C766 1.391 . S
C768 C769 1.400 . S
C769 C763 1.491 . S
C769 C768 1.400 . S
C769 C770 1.398 . S
C770 H758 0.950 . S
C770 C769 1.398 . S
C770 C771 1.391 . S
C771 H759 0.950 . S
C771 C767 1.393 . S
C771 C770 1.391 . S
H772 C780 0.950 . S
H773 C785 0.950 . S
H774 C782 0.950 . S
H775 C784 0.950 . S
H776 C786 0.950 . S
H777 C788 0.950 . S
H778 C790 0.950 . S
H779 C791 0.950 . S
C780 H772 0.950 . S
C780 C781 1.386 . S
C780 C782 1.391 . S
C781 C780 1.386 . S
C781 C785 1.393 . S
C782 H774 0.950 . S
C782 C780 1.391 . S
C782 C783 1.400 . S
C783 C782 1.400 . S
C783 C784 1.398 . S
C783 C789 1.491 . S
C784 H775 0.950 . S
C784 C783 1.398 . S
C784 C785 1.391 . S
C785 H773 0.950 . S
C785 C781 1.393 . S
C785 C784 1.391 . S
C786 H776 0.950 . S
C786 C787 1.386 . S
C786 C788 1.391 . S
C787 C786 1.386 . S
C787 C791 1.393 . S
C788 H777 0.950 . S
C788 C786 1.391 . S
C788 C789 1.400 . S
C789 C783 1.491 . S
C789 C788 1.400 . S
C789 C790 1.398 . S
C790 H778 0.950 . S
C790 C789 1.398 . S
C790 C791 1.391 . S
C791 H779 0.950 . S
C791 C787 1.393 . S
C791 C790 1.391 . S
H792 C800 0.941 1_554 S
H793 C805 0.950 1_565 S
H794 C802 0.950 . S
H795 C804 0.950 . S
H796 C806 0.950 . S
H797 C808 0.950 . S
H798 C810 0.950 . S
H799 C811 0.950 . S
C800 H792 0.941 1_556 S
C800 C801 1.390 . S
C800 C802 1.395 . S
C801 C800 1.390 . S
C801 C805 1.393 . S
C802 H794 0.950 . S
C802 C800 1.395 . S
C802 C803 1.400 . S
C803 C802 1.400 . S
C803 C804 1.398 . S
C803 C809 1.491 . S
C804 H795 0.950 . S
C804 C803 1.398 . S
C804 C805 1.391 . S
C805 H793 0.950 1_545 S
C805 C801 1.393 . S
C805 C804 1.391 . S
C806 H796 0.950 . S
C806 C807 1.386 . S
C806 C808 1.391 . S
C807 C806 1.386 . S
C807 C811 1.393 . S
C808 H797 0.950 . S
C808 C806 1.391 . S
C808 C809 1.400 . S
C809 C803 1.491 . S
C809 C808 1.400 . S
C809 C810 1.398 . S
C810 H798 0.950 . S
C810 C809 1.398 . S
C810 C811 1.391 . S
C811 H799 0.950 . S
C811 C807 1.393 . S
C811 C810 1.391 . S
H812 C820 0.950 . S
H813 C825 0.950 . S
H814 C822 0.950 . S
H815 C824 0.950 . S
H816 C826 0.950 . S
H817 C828 0.950 . S
H818 C830 0.950 . S
H819 C831 0.950 . S
C820 H812 0.950 . S
C820 C821 1.386 . S
C820 C822 1.391 . S
C821 C820 1.386 . S
C821 C825 1.393 . S
C822 H814 0.950 . S
C822 C820 1.391 . S
C822 C823 1.400 . S
C823 C822 1.400 . S
C823 C824 1.398 . S
C823 C829 1.491 . S
C824 H815 0.950 . S
C824 C823 1.398 . S
C824 C825 1.391 . S
C825 H813 0.950 . S
C825 C821 1.393 . S
C825 C824 1.391 . S
C826 H816 0.950 . S
C826 C827 1.386 . S
C826 C828 1.391 . S
C827 C826 1.386 . S
C827 C831 1.393 . S
C828 H817 0.950 . S
C828 C826 1.391 . S
C828 C829 1.400 . S
C829 C823 1.491 . S
C829 C828 1.400 . S
C829 C830 1.398 . S
C830 H818 0.950 . S
C830 C829 1.398 . S
C830 C831 1.391 . S
C831 H819 0.950 . S
C831 C827 1.393 . S
C831 C830 1.391 . S
H832 C840 0.950 . S
H833 C845 0.950 . S
H834 C842 0.950 . S
H835 C844 0.950 . S
H836 C846 0.950 . S
H837 C848 0.950 . S
H838 C850 0.950 . S
H839 C851 0.950 . S
C840 H832 0.950 . S
C840 C841 1.386 . S
C840 C842 1.391 . S
C841 C840 1.386 . S
C841 C845 1.393 . S
C842 H834 0.950 . S
C842 C840 1.391 . S
C842 C843 1.400 . S
C843 C842 1.400 . S
C843 C844 1.398 . S
C843 C849 1.491 . S
C844 H835 0.950 . S
C844 C843 1.398 . S
C844 C845 1.391 . S
C845 H833 0.950 . S
C845 C841 1.393 . S
C845 C844 1.391 . S
C846 H836 0.950 . S
C846 C847 1.386 . S
C846 C848 1.391 . S
C847 C846 1.386 . S
C847 C851 1.393 . S
C848 H837 0.950 . S
C848 C846 1.391 . S
C848 C849 1.400 . S
C849 C843 1.491 . S
C849 C848 1.400 . S
C849 C850 1.398 . S
C850 H838 0.950 . S
C850 C849 1.398 . S
C850 C851 1.391 . S
C851 H839 0.950 . S
C851 C847 1.393 . S
C851 C850 1.391 . S
H852 C860 0.950 . S
H853 C865 0.950 . S
H854 C862 0.950 . S
H855 C864 0.950 . S
H856 C866 0.950 . S
H857 C868 0.950 . S
H858 C870 0.950 . S
H859 C871 0.950 . S
C860 H852 0.950 . S
C860 C861 1.386 . S
C860 C862 1.391 . S
C861 C860 1.386 . S
C861 C865 1.393 . S
C862 H854 0.950 . S
C862 C860 1.391 . S
C862 C863 1.400 . S
C863 C862 1.400 . S
C863 C864 1.398 . S
C863 C869 1.491 . S
C864 H855 0.950 . S
C864 C863 1.398 . S
C864 C865 1.391 . S
C865 H853 0.950 . S
C865 C861 1.393 . S
C865 C864 1.391 . S
C866 H856 0.950 . S
C866 C867 1.386 . S
C866 C868 1.391 . S
C867 C866 1.386 . S
C867 C871 1.393 . S
C868 H857 0.950 . S
C868 C866 1.391 . S
C868 C869 1.400 . S
C869 C863 1.491 . S
C869 C868 1.400 . S
C869 C870 1.398 . S
C870 H858 0.950 . S
C870 C869 1.398 . S
C870 C871 1.391 . S
C871 H859 0.950 . S
C871 C867 1.393 . S
C871 C870 1.391 . S
H872 C880 0.950 . S
H873 C885 0.950 . S
H874 C882 0.950 . S
H875 C884 0.950 . S
H876 C886 0.950 . S
H877 C888 0.950 . S
H878 C890 0.950 . S
H879 C891 0.950 . S
C880 H872 0.950 . S
C880 C881 1.386 . S
C880 C882 1.391 . S
C881 C880 1.386 . S
C881 C885 1.393 . S
C882 H874 0.950 . S
C882 C880 1.391 . S
C882 C883 1.400 . S
C883 C882 1.400 . S
C883 C884 1.398 . S
C883 C889 1.491 . S
C884 H875 0.950 . S
C884 C883 1.398 . S
C884 C885 1.391 . S
C885 H873 0.950 . S
C885 C881 1.393 . S
C885 C884 1.391 . S
C886 H876 0.950 . S
C886 C887 1.386 . S
C886 C888 1.391 . S
C887 C886 1.386 . S
C887 C891 1.393 . S
C888 H877 0.950 . S
C888 C886 1.391 . S
C888 C889 1.400 . S
C889 C883 1.491 . S
C889 C888 1.400 . S
C889 C890 1.398 . S
C890 H878 0.950 . S
C890 C889 1.398 . S
C890 C891 1.391 . S
C891 H879 0.950 . S
C891 C887 1.393 . S
C891 C890 1.391 . S
H892 C900 0.950 . S
H893 C905 0.950 . S
H894 C902 0.950 . S
H895 C904 0.950 . S
H896 C906 0.950 . S
H897 C908 0.950 . S
H898 C910 0.950 . S
H899 C911 0.950 . S
C900 H892 0.950 . S
C900 C901 1.386 . S
C900 C902 1.391 . S
C901 C900 1.386 . S
C901 C905 1.393 . S
C902 H894 0.950 . S
C902 C900 1.391 . S
C902 C903 1.400 . S
C903 C902 1.400 . S
C903 C904 1.398 . S
C903 C909 1.491 . S
C904 H895 0.950 . S
C904 C903 1.398 . S
C904 C905 1.391 . S
C905 H893 0.950 . S
C905 C901 1.393 . S
C905 C904 1.391 . S
C906 H896 0.950 . S
C906 C907 1.386 . S
C906 C908 1.391 . S
C907 C906 1.386 . S
C907 C911 1.393 . S
C908 H897 0.950 . S
C908 C906 1.391 . S
C908 C909 1.400 . S
C909 C903 1.491 . S
C909 C908 1.400 . S
C909 C910 1.398 . S
C910 H898 0.950 . S
C910 C909 1.398 . S
C910 C911 1.391 . S
C911 H899 0.950 . S
C911 C907 1.393 . S
C911 C910 1.391 . S
H912 C920 0.950 . S
H913 C925 0.950 . S
H914 C922 0.950 . S
H915 C924 0.950 . S
H916 C926 0.950 . S
H917 C928 0.950 . S
H918 C930 0.950 . S
H919 C931 0.950 . S
C920 H912 0.950 . S
C920 C921 1.386 . S
C920 C922 1.391 . S
C921 C920 1.386 . S
C921 C925 1.393 . S
C922 H914 0.950 . S
C922 C920 1.391 . S
C922 C923 1.400 . S
C923 C922 1.400 . S
C923 C924 1.398 . S
C923 C929 1.491 . S
C924 H915 0.950 . S
C924 C923 1.398 . S
C924 C925 1.391 . S
C925 H913 0.950 . S
C925 C921 1.393 . S
C925 C924 1.391 . S
C926 H916 0.950 . S
C926 C927 1.386 . S
C926 C928 1.391 . S
C927 C926 1.386 . S
C927 C931 1.393 . S
C928 H917 0.950 . S
C928 C926 1.391 . S
C928 C929 1.400 . S
C929 C923 1.491 . S
C929 C928 1.400 . S
C929 C930 1.398 . S
C930 H918 0.950 . S
C930 C929 1.398 . S
C930 C931 1.391 . S
C931 H919 0.950 . S
C931 C927 1.393 . S
C931 C930 1.391 . S
H932 C940 0.950 . S
H933 C945 0.950 . S
H934 C942 0.950 . S
H935 C944 0.950 . S
H936 C946 0.950 . S
H937 C948 0.950 . S
H938 C950 0.950 . S
H939 C951 0.950 . S
C940 H932 0.950 . S
C940 C941 1.386 . S
C940 C942 1.391 . S
C941 C940 1.386 . S
C941 C945 1.393 . S
C942 H934 0.950 . S
C942 C940 1.391 . S
C942 C943 1.400 . S
C943 C942 1.400 . S
C943 C944 1.398 . S
C943 C949 1.491 . S
C944 H935 0.950 . S
C944 C943 1.398 . S
C944 C945 1.391 . S
C945 H933 0.950 . S
C945 C941 1.393 . S
C945 C944 1.391 . S
C946 H936 0.950 . S
C946 C947 1.386 . S
C946 C948 1.391 . S
C947 C946 1.386 . S
C947 C951 1.393 . S
C948 H937 0.950 . S
C948 C946 1.391 . S
C948 C949 1.400 . S
C949 C943 1.491 . S
C949 C948 1.400 . S
C949 C950 1.398 . S
C950 H938 0.950 . S
C950 C949 1.398 . S
C950 C951 1.391 . S
C951 H939 0.950 . S
C951 C947 1.393 . S
C951 C950 1.391 . S
H952 C960 0.950 . S
H953 C965 0.950 . S
H954 C962 0.950 . S
H955 C964 0.950 . S
H956 C966 0.950 . S
H957 C968 0.950 . S
H958 C970 0.950 . S
H959 C971 0.950 . S
C960 H952 0.950 . S
C960 C961 1.386 . S
C960 C962 1.391 . S
C961 C960 1.386 . S
C961 C965 1.393 . S
C962 H954 0.950 . S
C962 C960 1.391 . S
C962 C963 1.400 . S
C963 C962 1.400 . S
C963 C964 1.398 . S
C963 C969 1.491 . S
C964 H955 0.950 . S
C964 C963 1.398 . S
C964 C965 1.391 . S
C965 H953 0.950 . S
C965 C961 1.393 . S
C965 C964 1.391 . S
C966 H956 0.950 . S
C966 C967 1.386 . S
C966 C968 1.391 . S
C967 C966 1.386 . S
C967 C971 1.393 . S
C968 H957 0.950 . S
C968 C966 1.391 . S
C968 C969 1.400 . S
C969 C963 1.491 . S
C969 C968 1.400 . S
C969 C970 1.398 . S
C970 H958 0.950 . S
C970 C969 1.398 . S
C970 C971 1.391 . S
C971 H959 0.950 . S
C971 C967 1.393 . S
C971 C970 1.391 . S
C261 C43 1.873 . S
C267 C13 1.875 . S
C281 C68 1.873 . S
C287 C15 1.873 . S
C301 C29 1.874 . S
C307 C83 1.872 . S
C321 C40 1.863 . S
C327 C70 1.866 . S
C341 C0 1.858 . S
C347 C54 1.861 . S
C361 C57 1.858 . S
C367 C26 1.858 . S
C381 C138 1.862 . S
C387 C97 1.862 . S
C401 C99 1.862 . S
C407 C152 1.862 . S
C421 C124 1.863 . S
C427 C155 1.863 . S
C441 C166 1.870 1_556 S
C447 C113 1.870 . S
C461 C127 1.860 1_556 S
C467 C84 1.860 . S
C481 C141 1.867 1_556 S
C487 C110 1.867 . S
C501 C181 1.860 . S
C507 C211 1.857 . S
C521 C183 1.866 . S
C527 C236 1.866 . S
C541 C197 1.860 . S
C547 C239 1.857 . S
C561 C250 1.861 . S
C567 C208 1.859 1_554 S
C581 C222 1.860 . S
C587 C168 1.857 1_554 S
C601 C225 1.863 . S
C607 C194 1.863 1_554 S
C621 C12 1.611 . S
C627 C111 1.623 . S
C641 C14 1.623 . S
C647 C112 1.612 . S
C661 C85 1.623 1_545 S
C667 C28 1.612 . S
C681 C41 1.614 . S
C687 C182 1.622 1_554 S
C701 C196 1.619 1_454 S
C707 C1 1.618 . S
C721 C180 1.621 1_554 S
C727 C27 1.624 . S
C741 C224 1.625 1_455 S
C747 C42 1.620 . S
C761 C69 1.612 . S
C767 C251 1.612 . S
C781 C223 1.623 . S
C787 C82 1.616 . S
C801 C153 1.609 1_546 S
C807 C71 1.618 . S
C821 C55 1.611 . S
C827 C154 1.615 1_556 S
C841 C56 1.613 . S
C847 C139 1.612 1_556 S
C861 C96 1.619 . S
C867 C195 1.612 . S
C881 C98 1.612 . S
C887 C209 1.614 . S
C901 C125 1.612 . S
C907 C169 1.621 . S
C921 C237 1.624 . S
C927 C167 1.616 . S
C941 C238 1.626 . S
C947 C126 1.617 . S
C961 C140 1.621 . S
C967 C210 1.612 . S
