# Generated by pormake.
# Topology wiv, (6)-cn, num edge types: 1
# Building blocks:
#     Node 0, Type 0, BuildingBlock: PAMTOO_clean_sbu_0, # of connection points: 6
#     Node 1, Type 0, BuildingBlock: PAMTOO_clean_sbu_0, # of connection points: 6
#     Node 2, Type 0, BuildingBlock: PAMTOO_clean_sbu_0, # of connection points: 6
#     Node 3, Type 0, BuildingBlock: PAMTOO_clean_sbu_0, # of connection points: 6
#     Node 4, Type 0, BuildingBlock: PAMTOO_clean_sbu_0, # of connection points: 6
#     Node 5, Type 0, BuildingBlock: PAMTOO_clean_sbu_0, # of connection points: 6
#     Node 6, Type 0, BuildingBlock: PAMTOO_clean_sbu_0, # of connection points: 6
#     Node 7, Type 0, BuildingBlock: PAMTOO_clean_sbu_0, # of connection points: 6
#     Node 8, Type 0, BuildingBlock: PAMTOO_clean_sbu_0, # of connection points: 6
#     Node 9, Type 0, BuildingBlock: PAMTOO_clean_sbu_0, # of connection points: 6
#     Node 10, Type 0, BuildingBlock: PAMTOO_clean_sbu_0, # of connection points: 6
#     Node 11, Type 0, BuildingBlock: PAMTOO_clean_sbu_0, # of connection points: 6
#     Node 12, Type 0, BuildingBlock: PAMTOO_clean_sbu_0, # of connection points: 6
#     Node 13, Type 0, BuildingBlock: PAMTOO_clean_sbu_0, # of connection points: 6
#     Node 14, Type 0, BuildingBlock: PAMTOO_clean_sbu_0, # of connection points: 6
#     Node 15, Type 0, BuildingBlock: PAMTOO_clean_sbu_0, # of connection points: 6
#     Edge 16, Type (0, 0), BuildingBlock: AJUNOK_clean_linker_0, # of connection points: 2
#     Edge 17, Type (0, 0), BuildingBlock: AJUNOK_clean_linker_0, # of connection points: 2
#     Edge 18, Type (0, 0), BuildingBlock: AJUNOK_clean_linker_0, # of connection points: 2
#     Edge 19, Type (0, 0), BuildingBlock: AJUNOK_clean_linker_0, # of connection points: 2
#     Edge 20, Type (0, 0), BuildingBlock: AJUNOK_clean_linker_0, # of connection points: 2
#     Edge 21, Type (0, 0), BuildingBlock: AJUNOK_clean_linker_0, # of connection points: 2
#     Edge 22, Type (0, 0), BuildingBlock: AJUNOK_clean_linker_0, # of connection points: 2
#     Edge 23, Type (0, 0), BuildingBlock: AJUNOK_clean_linker_0, # of connection points: 2
#     Edge 24, Type (0, 0), BuildingBlock: AJUNOK_clean_linker_0, # of connection points: 2
#     Edge 25, Type (0, 0), BuildingBlock: AJUNOK_clean_linker_0, # of connection points: 2
#     Edge 26, Type (0, 0), BuildingBlock: AJUNOK_clean_linker_0, # of connection points: 2
#     Edge 27, Type (0, 0), BuildingBlock: AJUNOK_clean_linker_0, # of connection points: 2
#     Edge 28, Type (0, 0), BuildingBlock: AJUNOK_clean_linker_0, # of connection points: 2
#     Edge 29, Type (0, 0), BuildingBlock: AJUNOK_clean_linker_0, # of connection points: 2
#     Edge 30, Type (0, 0), BuildingBlock: AJUNOK_clean_linker_0, # of connection points: 2
#     Edge 31, Type (0, 0), BuildingBlock: AJUNOK_clean_linker_0, # of connection points: 2
#     Edge 32, Type (0, 0), BuildingBlock: AJUNOK_clean_linker_0, # of connection points: 2
#     Edge 33, Type (0, 0), BuildingBlock: AJUNOK_clean_linker_0, # of connection points: 2
#     Edge 34, Type (0, 0), BuildingBlock: AJUNOK_clean_linker_0, # of connection points: 2
#     Edge 35, Type (0, 0), BuildingBlock: AJUNOK_clean_linker_0, # of connection points: 2
#     Edge 36, Type (0, 0), BuildingBlock: AJUNOK_clean_linker_0, # of connection points: 2
#     Edge 37, Type (0, 0), BuildingBlock: AJUNOK_clean_linker_0, # of connection points: 2
#     Edge 38, Type (0, 0), BuildingBlock: AJUNOK_clean_linker_0, # of connection points: 2
#     Edge 39, Type (0, 0), BuildingBlock: AJUNOK_clean_linker_0, # of connection points: 2
#     Edge 40, Type (0, 0), BuildingBlock: AJUNOK_clean_linker_0, # of connection points: 2
#     Edge 41, Type (0, 0), BuildingBlock: AJUNOK_clean_linker_0, # of connection points: 2
#     Edge 42, Type (0, 0), BuildingBlock: AJUNOK_clean_linker_0, # of connection points: 2
#     Edge 43, Type (0, 0), BuildingBlock: AJUNOK_clean_linker_0, # of connection points: 2
#     Edge 44, Type (0, 0), BuildingBlock: AJUNOK_clean_linker_0, # of connection points: 2
#     Edge 45, Type (0, 0), BuildingBlock: AJUNOK_clean_linker_0, # of connection points: 2
#     Edge 46, Type (0, 0), BuildingBlock: AJUNOK_clean_linker_0, # of connection points: 2
#     Edge 47, Type (0, 0), BuildingBlock: AJUNOK_clean_linker_0, # of connection points: 2
#     Edge 48, Type (0, 0), BuildingBlock: AJUNOK_clean_linker_0, # of connection points: 2
#     Edge 49, Type (0, 0), BuildingBlock: AJUNOK_clean_linker_0, # of connection points: 2
#     Edge 50, Type (0, 0), BuildingBlock: AJUNOK_clean_linker_0, # of connection points: 2
#     Edge 51, Type (0, 0), BuildingBlock: AJUNOK_clean_linker_0, # of connection points: 2
#     Edge 52, Type (0, 0), BuildingBlock: AJUNOK_clean_linker_0, # of connection points: 2
#     Edge 53, Type (0, 0), BuildingBlock: AJUNOK_clean_linker_0, # of connection points: 2
#     Edge 54, Type (0, 0), BuildingBlock: AJUNOK_clean_linker_0, # of connection points: 2
#     Edge 55, Type (0, 0), BuildingBlock: AJUNOK_clean_linker_0, # of connection points: 2
#     Edge 56, Type (0, 0), BuildingBlock: AJUNOK_clean_linker_0, # of connection points: 2
#     Edge 57, Type (0, 0), BuildingBlock: AJUNOK_clean_linker_0, # of connection points: 2
#     Edge 58, Type (0, 0), BuildingBlock: AJUNOK_clean_linker_0, # of connection points: 2
#     Edge 59, Type (0, 0), BuildingBlock: AJUNOK_clean_linker_0, # of connection points: 2
#     Edge 60, Type (0, 0), BuildingBlock: AJUNOK_clean_linker_0, # of connection points: 2
#     Edge 61, Type (0, 0), BuildingBlock: AJUNOK_clean_linker_0, # of connection points: 2
#     Edge 62, Type (0, 0), BuildingBlock: AJUNOK_clean_linker_0, # of connection points: 2
#     Edge 63, Type (0, 0), BuildingBlock: AJUNOK_clean_linker_0, # of connection points: 2
# Relax obj value: 0.199
# Max RMSD: 0.231
# Mean RMSD: 0.231
data_MOF--net-wiv--node1-PAMTOO_clean_sbu_0--edge1-AJUNOK_clean_linker_0
_symmetry_space_group_name_H-M    P1
_symmetry_Int_Tables_number       1
_symmetry_cell_setting            triclinic
loop_
_symmetry_equiv_pos_as_xyz
'x, y, z'
_cell_length_a     36.662613
_cell_length_b     36.515017
_cell_length_c     19.667202
_cell_angle_alpha  89.676098
_cell_angle_beta   89.685729
_cell_angle_gamma 89.391862
loop_
_atom_site_label
_atom_site_type_symbol
_atom_site_fract_x
_atom_site_fract_y
_atom_site_fract_z
_atom_type_partial_charge
Dy0 Dy 0.36713 0.08131 0.09096 0.0
Dy1 Dy 0.30578 0.07814 0.20999 0.0
C2 C 0.33719 0.15433 0.16441 0.0
O3 O 0.40048 0.09597 0.17988 0.0
O4 O 0.35901 0.08625 0.26648 0.0
O5 O 0.39787 0.11142 1.01533 0.0
O6 O 0.40187 0.0523 1.02015 0.0
O7 O 0.31934 0.02178 0.17351 0.0
O8 O 0.37889 0.03164 0.156 0.0
O9 O 0.27547 0.09075 0.11281 0.0
O10 O 0.31589 0.06137 1.04379 0.0
O11 O 0.28034 0.04277 0.28386 0.0
O12 O 0.26072 0.09856 0.27128 0.0
C13 C 0.39233 0.09393 0.24493 0.0
O14 O 0.3457 0.13918 0.10558 0.0
O15 O 0.32593 0.13468 0.21592 0.0
C16 C 0.39616 0.07972 0.91129 0.0
C17 C 0.36528 0.07979 0.78033 0.0
C18 C 0.38293 0.11103 0.80448 0.0
C19 C 0.39845 0.11092 0.86933 0.0
C20 C 0.37916 0.04822 0.88616 0.0
C21 C 0.36384 0.04832 0.82148 0.0
C22 C 0.40738 0.08158 0.9833 0.0
C23 C 0.35292 0.00962 0.17591 0.0
C24 C 0.28381 0.07654 1.0532 0.0
C25 C 0.26753 0.0747 0.3835 0.0
C26 C 0.29335 0.0782 0.51793 0.0
C27 C 0.2758 0.04666 0.49476 0.0
C28 C 0.26303 0.04493 0.42809 0.0
C29 C 0.28355 0.10692 0.40769 0.0
C30 C 0.29609 0.10872 0.47457 0.0
C31 C 0.26122 0.06943 0.31026 0.0
H32 H 0.38453 0.13553 0.77335 0.0
H33 H 0.41125 0.13559 0.88752 0.0
H34 H 0.37653 0.02377 0.91714 0.0
H35 H 0.34996 0.02404 0.8043 0.0
H36 H 0.27296 0.02294 0.52763 0.0
H37 H 0.25106 0.01973 0.41042 0.0
H38 H 0.28795 0.13012 0.3742 0.0
H39 H 0.30967 0.13326 0.49126 0.0
Dy40 Dy 0.09391 0.66268 0.91372 0.0
Dy41 Dy 0.07755 0.5978 1.02761 0.0
C42 C 0.01411 0.62452 0.92249 0.0
O43 O 0.08495 0.69706 1.00734 0.0
O44 O 0.07771 0.65045 0.08578 0.0
O45 O 0.08057 0.70788 0.84613 0.0
O46 O 0.13382 0.68166 0.84082 0.0
O47 O 0.13713 0.59565 0.99583 0.0
O48 O 0.14118 0.65665 0.98197 0.0
O49 O 0.07484 0.5658 0.93198 0.0
O50 O 0.10353 0.60802 0.86298 0.0
O51 O 0.0993 0.55585 0.0948 0.0
O52 O 0.04282 0.5729 0.10369 0.0
C53 C 0.08034 0.68536 0.07048 0.0
O54 O 0.03537 0.65057 0.89969 0.0
O55 O 0.02397 0.60169 0.97147 0.0
C56 C 0.10502 0.69389 0.73628 0.0
C57 C 0.09712 0.66778 0.60177 0.0
C58 C 0.06633 0.6743 0.64303 0.0
C59 C 0.07019 0.68732 0.70943 0.0
C60 C 0.13573 0.68824 0.69435 0.0
C61 C 0.13184 0.67547 0.62778 0.0
C62 C 0.10999 0.70236 0.80945 0.0
C63 C 0.15731 0.6248 0.98666 0.0
C64 C 0.09003 0.57517 0.87382 0.0
C65 C 0.0754 0.56621 0.2062 0.0
C66 C 0.0828 0.59711 0.33725 0.0
C67 C 0.11357 0.59105 0.29566 0.0
C68 C 0.10993 0.57594 0.23085 0.0
C69 C 0.04493 0.57029 0.24937 0.0
C70 C 0.04857 0.58559 0.31414 0.0
C71 C 0.07024 0.55655 0.13357 0.0
H72 H 0.03923 0.6688 0.6242 0.0
H73 H 0.0459 0.69117 0.74025 0.0
H74 H 0.16289 0.69281 0.71375 0.0
H75 H 0.1561 0.67032 0.59752 0.0
H76 H 0.14048 0.59857 0.3128 0.0
H77 H 0.13409 0.57309 0.19932 0.0
H78 H 0.01798 0.56308 0.2319 0.0
H79 H 0.02436 0.58969 0.3451 0.0
Dy80 Dy 0.60056 0.89002 0.09458 0.0
Dy81 Dy 0.66577 0.87394 0.2069 0.0
C82 C 0.6313 0.80995 0.13038 0.0
O83 O 0.56856 0.8927 0.19068 0.0
O84 O 0.61128 0.86278 0.2571 0.0
O85 O 0.55914 0.86877 1.02767 0.0
O86 O 0.57604 0.92513 1.01814 0.0
O87 O 0.65076 0.93186 0.22452 0.0
O88 O 0.60684 0.94507 0.14444 0.0
O89 O 0.69891 0.88612 0.11224 0.0
O90 O 0.65216 0.88693 1.0347 0.0
O91 O 0.71131 0.8882 0.27066 0.0
O92 O 0.68565 0.83539 0.28234 0.0
C93 C 0.57813 0.87624 0.2475 0.0
O94 O 0.60146 0.83002 0.12466 0.0
O95 O 0.66259 0.82569 0.13998 0.0
C96 C 0.57151 0.89206 0.91671 0.0
C97 C 0.60332 0.88749 0.78535 0.0
C98 C 0.6098 0.85994 0.83408 0.0
C99 C 0.59432 0.86231 0.8991 0.0
C100 C 0.56414 0.91911 0.86744 0.0
C101 C 0.57988 0.91686 0.80237 0.0
C102 C 0.56025 0.89776 0.98844 0.0
C103 C 0.62776 0.95463 0.19558 0.0
C104 C 0.68694 0.88794 1.04899 0.0
C105 C 0.69864 0.86712 0.38267 0.0
C106 C 0.67308 0.87642 0.51777 0.0
C107 C 0.66735 0.90393 0.46854 0.0
C108 C 0.67991 0.89931 0.4018 0.0
C109 C 0.70522 0.84001 0.43206 0.0
C110 C 0.6926 0.8446 0.49893 0.0
C111 C 0.70662 0.8597 0.31012 0.0
H112 H 0.6279 0.83713 0.8226 0.0
H113 H 0.60128 0.84144 0.93632 0.0
H114 H 0.54715 0.94259 0.87999 0.0
H115 H 0.57401 0.93826 0.76554 0.0
H116 H 0.65176 0.92839 0.48076 0.0
H117 H 0.67372 0.92041 0.36458 0.0
H118 H 0.71922 0.8148 0.41842 0.0
H119 H 0.69761 0.82298 0.53575 0.0
Dy120 Dy 0.87484 0.30539 0.90336 0.0
Dy121 Dy 0.88426 0.36846 1.01855 0.0
C122 C 0.95141 0.34411 0.91888 0.0
O123 O 0.8959 0.27498 0.99645 0.0
O124 O 0.87268 0.31601 0.07276 0.0
O125 O 0.89284 0.26049 0.83954 0.0
O126 O 0.83713 0.2808 0.83377 0.0
O127 O 0.82619 0.37044 0.9795 0.0
O128 O 0.82527 0.30941 0.96705 0.0
O129 O 0.88854 0.4017 0.92433 0.0
O130 O 0.86376 0.35994 0.85069 0.0
O131 O 0.86121 0.4094 0.08606 0.0
O132 O 0.91762 0.39259 0.09624 0.0
C133 C 0.88632 0.2836 1.05921 0.0
O134 O 0.92803 0.32889 0.87835 0.0
O135 O 0.9417 0.357 0.97902 0.0
C136 C 0.8669 0.27002 0.72997 0.0
C137 C 0.87039 0.29804 0.59584 0.0
C138 C 0.90185 0.29625 0.63625 0.0
C139 C 0.90012 0.28252 0.70272 0.0
C140 C 0.83588 0.27013 0.68836 0.0
C141 C 0.83765 0.28379 0.62185 0.0
C142 C 0.86296 0.2621 0.80351 0.0
C143 C 0.80758 0.34048 0.96867 0.0
C144 C 0.87529 0.3933 0.86451 0.0
C145 C 0.88425 0.39923 0.19778 0.0
C146 C 0.87807 0.37012 0.3308 0.0
C147 C 0.84812 0.36984 0.28658 0.0
C148 C 0.85119 0.38412 0.22066 0.0
C149 C 0.91376 0.40069 0.24294 0.0
C150 C 0.9108 0.38606 0.30866 0.0
C151 C 0.88987 0.40886 0.1252 0.0
H152 H 0.92747 0.30695 0.61752 0.0
H153 H 0.9245 0.28314 0.7335 0.0
H154 H 0.80996 0.26068 0.70809 0.0
H155 H 0.81318 0.28395 0.59124 0.0
H156 H 0.82273 0.35731 0.30212 0.0
H157 H 0.82804 0.38205 0.18696 0.0
H158 H 0.93962 0.41189 0.22648 0.0
H159 H 0.93424 0.38671 0.3419 0.0
Dy160 Dy 0.36949 0.38266 0.27991 0.0
Dy161 Dy 0.30664 0.39033 0.16377 0.0
C162 C 0.33627 0.31215 0.20876 0.0
O163 O 0.39947 0.36547 0.18619 0.0
O164 O 0.36014 0.39008 0.1062 0.0
O165 O 0.40384 0.35132 0.3485 0.0
O166 O 0.40337 0.41049 0.35221 0.0
O167 O 0.31976 0.44478 0.20682 0.0
O168 O 0.37972 0.43344 0.21809 0.0
O169 O 0.27559 0.37934 0.26142 0.0
O170 O 0.3187 0.4016 0.33311 0.0
O171 O 0.28007 0.42686 0.09272 0.0
O172 O 0.26373 0.37018 0.09886 0.0
C173 C 0.39152 0.37464 0.12309 0.0
O174 O 0.34506 0.32681 0.26744 0.0
O175 O 0.32637 0.3328 0.15735 0.0
C176 C 0.40223 0.37906 0.45765 0.0
C177 C 0.3724 0.37897 0.59057 0.0
C178 C 0.37781 0.34593 0.55541 0.0
C179 C 0.39252 0.34596 0.48962 0.0
C180 C 0.39891 0.41181 0.49462 0.0
C181 C 0.38405 0.41177 0.5602 0.0
C182 C 0.41179 0.38018 0.3842 0.0
C183 C 0.3533 0.45616 0.20159 0.0
C184 C 0.28537 0.39043 0.32241 0.0
C185 C 0.27206 0.39636 0.98851 0.0
C186 C 0.29929 0.38859 0.85433 0.0
C187 C 0.29664 0.42328 0.88458 0.0
C188 C 0.28334 0.42711 0.95082 0.0
C189 C 0.27281 0.36186 0.95694 0.0
C190 C 0.28646 0.35799 0.89066 0.0
C191 C 0.26364 0.40012 0.06213 0.0
H192 H 0.37012 0.32009 0.57836 0.0
H193 H 0.39512 0.32015 0.46306 0.0
H194 H 0.40641 0.43776 0.47183 0.0
H195 H 0.38041 0.43765 0.58618 0.0
H196 H 0.30572 0.44748 0.85751 0.0
H197 H 0.28287 0.45414 0.97323 0.0
H198 H 0.26429 0.33758 0.98436 0.0
H199 H 0.28847 0.33082 0.8691 0.0
Dy200 Dy 0.37555 0.65995 0.96179 0.0
Dy201 Dy 0.3884 0.59529 0.84916 0.0
C202 C 0.45318 0.62079 0.94861 0.0
O203 O 0.39586 0.69 0.86831 0.0
O204 O 0.37727 0.64722 0.79225 0.0
O205 O 0.39365 0.70386 1.02668 0.0
O206 O 0.33756 0.68584 1.03114 0.0
O207 O 0.33006 0.5931 0.8873 0.0
O208 O 0.32544 0.65441 0.90062 0.0
O209 O 0.39135 0.56296 0.94552 0.0
O210 O 0.36375 0.6063 1.01431 0.0
O211 O 0.36592 0.55662 0.77789 0.0
O212 O 0.4236 0.56767 0.77677 0.0
C213 C 0.38881 0.68023 0.80526 0.0
O214 O 0.42863 0.63548 0.98854 0.0
O215 O 0.44491 0.6082 0.88797 0.0
C216 C 0.36729 0.69398 0.1364 0.0
C217 C 0.37498 0.66814 0.27188 0.0
C218 C 0.40542 0.68068 0.23509 0.0
C219 C 0.40163 0.6936 0.16822 0.0
C220 C 0.33675 0.68235 0.17406 0.0
C221 C 0.34055 0.66955 0.24083 0.0
C222 C 0.3636 0.70282 0.06277 0.0
C223 C 0.30975 0.62252 0.89709 0.0
C224 C 0.37606 0.57274 1.00347 0.0
C225 C 0.39414 0.56569 0.66973 0.0
C226 C 0.38865 0.59714 0.53791 0.0
C227 C 0.35767 0.58318 0.57114 0.0
C228 C 0.36036 0.56766 0.63621 0.0
C229 C 0.42546 0.57783 0.63481 0.0
C230 C 0.42273 0.59338 0.56971 0.0
C231 C 0.39618 0.55478 0.74276 0.0
H232 H 0.43226 0.68017 0.25787 0.0
H233 H 0.42576 0.70245 0.14101 0.0
H234 H 0.30992 0.68222 0.15128 0.0
H235 H 0.31665 0.65955 0.26733 0.0
H236 H 0.33117 0.58472 0.54713 0.0
H237 H 0.33572 0.55822 0.66104 0.0
H238 H 0.452 0.57654 0.65872 0.0
H239 H 0.44715 0.60365 0.54525 0.0
Dy240 Dy 0.59921 0.58397 0.27426 0.0
Dy241 Dy 0.66287 0.57307 0.15658 0.0
C242 C 0.63307 0.65391 0.19366 0.0
O243 O 0.57001 0.6021 0.18098 0.0
O244 O 0.6094 0.5779 0.1 0.0
O245 O 0.57277 0.6148 0.35469 0.0
O246 O 0.55851 0.55828 0.33803 0.0
O247 O 0.64664 0.51997 0.20268 0.0
O248 O 0.58719 0.53323 0.2144 0.0
O249 O 0.69494 0.58428 0.25173 0.0
O250 O 0.65044 0.56613 0.32646 0.0
O251 O 0.68767 0.53353 0.08861 0.0
O252 O 0.7062 0.5895 0.08794 0.0
C253 C 0.57826 0.59377 0.11762 0.0
O254 O 0.61678 0.64157 0.2492 0.0
O255 O 0.64867 0.63208 0.14919 0.0
C256 C 0.56541 0.57777 0.45216 0.0
C257 C 0.59016 0.56758 0.58711 0.0
C258 C 0.56988 0.59907 0.56882 0.0
C259 C 0.55751 0.604 0.50212 0.0
C260 C 0.58482 0.54583 0.47076 0.0
C261 C 0.5969 0.54075 0.5375 0.0
C262 C 0.55711 0.58583 0.37996 0.0
C263 C 0.61278 0.50978 0.19726 0.0
C264 C 0.68399 0.57642 0.31403 0.0
C265 C 0.69347 0.56159 0.98191 0.0
C266 C 0.66114 0.56221 0.85185 0.0
C267 C 0.68056 0.53118 0.87493 0.0
C268 C 0.69635 0.53079 0.93967 0.0
C269 C 0.67518 0.59306 0.95761 0.0
C270 C 0.65935 0.59339 0.8932 0.0
C271 C 0.70431 0.5589 1.05408 0.0
H272 H 0.56501 0.62075 0.60517 0.0
H273 H 0.54305 0.62905 0.48888 0.0
H274 H 0.59176 0.52523 0.43331 0.0
H275 H 0.61231 0.51616 0.54992 0.0
H276 H 0.68241 0.50682 0.84389 0.0
H277 H 0.70984 0.50605 0.9576 0.0
H278 H 0.67199 0.61712 0.98916 0.0
H279 H 0.6451 0.61787 0.87614 0.0
Dy280 Dy 0.5853 0.30912 0.9527 0.0
Dy281 Dy 0.57724 0.37488 0.83922 0.0
C282 C 0.50974 0.34734 0.93103 0.0
O283 O 0.58364 0.27487 0.85828 0.0
O284 O 0.57776 0.32213 0.78105 0.0
O285 O 0.56381 0.26783 1.02091 0.0
O286 O 0.62038 0.2837 1.02755 0.0
O287 O 0.63664 0.37284 0.86877 0.0
O288 O 0.63795 0.3125 0.89801 0.0
O289 O 0.5832 0.4093 0.93034 0.0
O290 O 0.58696 0.36278 1.01022 0.0
O291 O 0.59867 0.41558 0.76988 0.0
O292 O 0.54179 0.40039 0.7648 0.0
C293 C 0.58061 0.28701 0.79525 0.0
O294 O 0.52631 0.31555 0.93213 0.0
O295 O 0.52575 0.37575 0.90289 0.0
C296 C 0.58893 0.27668 0.1309 0.0
C297 C 0.58479 0.3037 0.26501 0.0
C298 C 0.55407 0.30499 0.22273 0.0
C299 C 0.55628 0.29224 0.15596 0.0
C300 C 0.61901 0.27349 0.1745 0.0
C301 C 0.61703 0.28701 0.24085 0.0
C302 C 0.59324 0.26759 1.05806 0.0
C303 C 0.65497 0.34298 0.88505 0.0
C304 C 0.58645 0.39786 0.99345 0.0
C305 C 0.57331 0.4057 0.66057 0.0
C306 C 0.57773 0.37628 0.52804 0.0
C307 C 0.60823 0.37543 0.57091 0.0
C308 C 0.60606 0.38989 0.63645 0.0
C309 C 0.54309 0.40748 0.61696 0.0
C310 C 0.54521 0.39273 0.55142 0.0
C311 C 0.56908 0.41576 0.73313 0.0
H312 H 0.52887 0.31765 0.24012 0.0
H313 H 0.53272 0.29552 0.12357 0.0
H314 H 0.64446 0.26161 0.15647 0.0
H315 H 0.64089 0.28503 0.27293 0.0
H316 H 0.63345 0.3624 0.5546 0.0
H317 H 0.62973 0.38746 0.66892 0.0
H318 H 0.51744 0.41916 0.63444 0.0
H319 H 0.52132 0.39378 0.51927 0.0
Dy320 Dy 0.86643 0.58651 0.58834 0.0
Dy321 Dy 0.80484 0.58191 0.70603 0.0
C322 C 0.83171 0.65902 0.65284 0.0
O323 O 0.89711 0.60455 0.67912 0.0
O324 O 0.8582 0.58467 0.76372 0.0
O325 O 0.90258 0.61567 0.52026 0.0
O326 O 0.89736 0.55682 0.51245 0.0
O327 O 0.81918 0.52549 0.6708 0.0
O328 O 0.87863 0.53709 0.65357 0.0
O329 O 0.7734 0.59241 0.60893 0.0
O330 O 0.81584 0.56632 0.53919 0.0
O331 O 0.77508 0.54662 0.77417 0.0
O332 O 0.76413 0.60487 0.77442 0.0
C333 C 0.88986 0.59821 0.74374 0.0
O334 O 0.84071 0.64286 0.59526 0.0
O335 O 0.82324 0.63957 0.70659 0.0
C336 C 0.89766 0.59001 0.41005 0.0
C337 C 0.86676 0.58849 0.27922 0.0
C338 C 0.85998 0.6183 0.3223 0.0
C339 C 0.87507 0.61896 0.38735 0.0
C340 C 0.90593 0.56116 0.36544 0.0
C341 C 0.89048 0.56032 0.30064 0.0
C342 C 0.90799 0.58683 0.48237 0.0
C343 C 0.85312 0.51443 0.67332 0.0
C344 C 0.78286 0.57937 0.54888 0.0
C345 C 0.77024 0.57506 0.88141 0.0
C346 C 0.79562 0.57924 1.01652 0.0
C347 C 0.79959 0.54669 0.97944 0.0
C348 C 0.78686 0.54452 0.91295 0.0
C349 C 0.76553 0.60743 0.91898 0.0
C350 C 0.77815 0.60951 0.98586 0.0
C351 C 0.76131 0.57411 0.80804 0.0
H352 H 0.84171 0.64027 0.30676 0.0
H353 H 0.86775 0.6414 0.42071 0.0
H354 H 0.92305 0.53845 0.38187 0.0
H355 H 0.89636 0.53725 0.2678 0.0
H356 H 0.81372 0.52318 1.00093 0.0
H357 H 0.79112 0.51914 0.88567 0.0
H358 H 0.75274 0.63137 0.89624 0.0
H359 H 0.7745 0.63488 1.01347 0.0
Dy360 Dy 0.5774 0.16608 0.40332 0.0
Dy361 Dy 0.58263 0.10264 0.52111 0.0
C362 C 0.51061 0.1189 0.43825 0.0
O363 O 0.58836 0.19784 0.49908 0.0
O364 O 0.56581 0.15466 0.57236 0.0
O365 O 0.54043 0.19126 0.33157 0.0
O366 O 0.59614 0.20985 0.33735 0.0
O367 O 0.64057 0.12157 0.50382 0.0
O368 O 0.63522 0.14815 0.39795 0.0
O369 O 0.60184 0.0708 0.43188 0.0
O370 O 0.5853 0.11218 0.34764 0.0
O371 O 0.61098 0.07242 0.60025 0.0
O372 O 0.55296 0.06569 0.58674 0.0
C373 C 0.57809 0.1877 0.56061 0.0
O374 O 0.52202 0.1525 0.44278 0.0
O375 O 0.53324 0.09253 0.45575 0.0
C376 C 0.5705 0.19995 0.22824 0.0
C377 C 0.57116 0.16912 0.09703 0.0
C378 C 0.54152 0.19091 0.11871 0.0
C379 C 0.54105 0.20589 0.18405 0.0
C380 C 0.60103 0.17991 0.20508 0.0
C381 C 0.60142 0.16484 0.13999 0.0
C382 C 0.56646 0.20893 0.30092 0.0
C383 C 0.65514 0.13371 0.44644 0.0
C384 C 0.59743 0.07965 0.36757 0.0
C385 C 0.57482 0.06961 0.69977 0.0
C386 C 0.56882 0.0953 0.83486 0.0
C387 C 0.59897 0.07375 0.81447 0.0
C388 C 0.60184 0.0609 0.74768 0.0
C389 C 0.54409 0.09013 0.72073 0.0
C390 C 0.5411 0.1027 0.78752 0.0
C391 C 0.58068 0.06061 0.62715 0.0
H392 H 0.51788 0.19476 0.08655 0.0
H393 H 0.51701 0.22077 0.20116 0.0
H394 H 0.62397 0.17445 0.23823 0.0
H395 H 0.62499 0.14891 0.12396 0.0
H396 H 0.62123 0.06825 0.84914 0.0
H397 H 0.62592 0.04543 0.7327 0.0
H398 H 0.52284 0.09759 0.68507 0.0
H399 H 0.51745 0.11905 0.80168 0.0
Dy400 Dy 0.09833 0.38646 0.59612 0.0
Dy401 Dy 0.16057 0.39819 0.71309 0.0
C402 C 0.13509 0.31679 0.67361 0.0
O403 O 0.06969 0.36663 0.6889 0.0
O404 O 0.10703 0.39198 0.7699 0.0
O405 O 0.07031 0.3555 0.51912 0.0
O406 O 0.05798 0.41303 0.53254 0.0
O407 O 0.14493 0.45054 0.66271 0.0
O408 O 0.08593 0.43712 0.6564 0.0
O409 O 0.1945 0.38812 0.61882 0.0
O410 O 0.14963 0.40228 0.54171 0.0
O411 O 0.17895 0.43799 0.78573 0.0
O412 O 0.20577 0.38501 0.77931 0.0
C413 C 0.0771 0.37472 0.75242 0.0
O414 O 0.11837 0.32936 0.61888 0.0
O415 O 0.14998 0.33839 0.71859 0.0
C416 C 0.06264 0.39087 0.42009 0.0
C417 C 0.08576 0.39584 0.28334 0.0
C418 C 0.06008 0.36948 0.30335 0.0
C419 C 0.04863 0.36701 0.37127 0.0
C420 C 0.08714 0.41817 0.39947 0.0
C421 C 0.09837 0.42078 0.33171 0.0
C422 C 0.05503 0.38467 0.49297 0.0
C423 C 0.11109 0.46096 0.67059 0.0
C424 C 0.18376 0.39414 0.5558 0.0
C425 C 0.18958 0.40754 0.88791 0.0
C426 C 0.158 0.40123 1.01868 0.0
C427 C 0.17987 0.43146 1.00168 0.0
C428 C 0.19505 0.43479 0.93652 0.0
C429 C 0.16829 0.37707 0.90509 0.0
C430 C 0.15242 0.37413 0.96943 0.0
C431 C 0.19976 0.41403 0.81644 0.0
H432 H 0.04954 0.35025 0.26682 0.0
H433 H 0.02983 0.34568 0.38614 0.0
H434 H 0.09882 0.43664 0.43616 0.0
H435 H 0.11841 0.44114 0.31788 0.0
H436 H 0.18473 0.45286 1.03834 0.0
H437 H 0.21032 0.45907 0.92345 0.0
H438 H 0.16233 0.35636 0.86763 0.0
H439 H 0.13451 0.35132 0.97942 0.0
Dy440 Dy 0.38086 0.80493 0.41567 0.0
Dy441 Dy 0.38872 0.86987 0.52984 0.0
C442 C 0.45668 0.84786 0.42985 0.0
O443 O 0.39219 0.77047 0.50857 0.0
O444 O 0.38937 0.81684 0.58714 0.0
O445 O 0.39863 0.76162 0.34797 0.0
O446 O 0.34309 0.78241 0.34367 0.0
O447 O 0.33017 0.86922 0.49547 0.0
O448 O 0.33027 0.80821 0.47788 0.0
O449 O 0.38981 0.90311 0.43611 0.0
O450 O 0.37253 0.8589 0.35996 0.0
O451 O 0.36439 0.91084 0.59525 0.0
O452 O 0.42118 0.8952 0.60764 0.0
C453 C 0.3928 0.78204 0.57197 0.0
O454 O 0.43975 0.81843 0.4098 0.0
O455 O 0.44194 0.8717 0.47216 0.0
C456 C 0.37364 0.77625 0.23991 0.0
C457 C 0.37658 0.81037 0.11061 0.0
C458 C 0.40623 0.81248 0.15539 0.0
C459 C 0.4048 0.79562 0.21927 0.0
C460 C 0.34436 0.7734 0.19476 0.0
C461 C 0.34603 0.78975 0.13034 0.0
C462 C 0.36902 0.76486 0.31154 0.0
C463 C 0.31221 0.83903 0.48422 0.0
C464 C 0.3795 0.89325 0.37521 0.0
C465 C 0.38698 0.90418 0.70754 0.0
C466 C 0.38137 0.88152 0.84465 0.0
C467 C 0.35525 0.87076 0.79697 0.0
C468 C 0.35811 0.8818 0.72904 0.0
C469 C 0.41253 0.91584 0.7555 0.0
C470 C 0.40988 0.90444 0.82346 0.0
C471 C 0.39299 0.91183 0.63455 0.0
H472 H 0.43005 0.82834 0.14213 0.0
H473 H 0.42748 0.79921 0.25359 0.0
H474 H 0.31979 0.75924 0.21 0.0
H475 H 0.32317 0.78657 0.09634 0.0
H476 H 0.33347 0.85246 0.81162 0.0
H477 H 0.33844 0.87174 0.69293 0.0
H478 H 0.43523 0.93275 0.73988 0.0
H479 H 0.43044 0.91297 0.85922 0.0
Dy480 Dy 0.86696 0.88711 0.76718 0.0
Dy481 Dy 0.80427 0.89845 0.65045 0.0
C482 C 0.83153 0.8179 0.69128 0.0
O483 O 0.89584 0.86751 0.67426 0.0
O484 O 0.85827 0.89453 0.59383 0.0
O485 O 0.89404 0.8562 0.847 0.0
O486 O 0.90768 0.91288 0.82938 0.0
O487 O 0.81824 0.95122 0.69936 0.0
O488 O 0.87774 0.93808 0.70619 0.0
O489 O 0.77234 0.88682 0.74717 0.0
O490 O 0.81647 0.9063 0.82009 0.0
O491 O 0.78228 0.93809 0.57952 0.0
O492 O 0.75965 0.88361 0.58458 0.0
C493 C 0.8886 0.87701 0.611 0.0
O494 O 0.84384 0.83101 0.74914 0.0
O495 O 0.81952 0.83949 0.6426 0.0
C496 C 0.901 0.89325 0.94412 0.0
C497 C 0.87367 0.90398 0.0776 0.0
C498 C 0.89064 0.87065 1.05926 0.0
C499 C 0.90409 0.86535 0.99321 0.0
C500 C 0.88626 0.92738 0.96371 0.0
C501 C 0.87306 0.93275 1.0298 0.0
C502 C 0.90933 0.8853 0.87173 0.0
C503 C 0.85186 0.96197 0.69292 0.0
C504 C 0.78316 0.89528 0.80906 0.0
C505 C 0.77053 0.91018 0.47544 0.0
C506 C 0.79907 0.90905 0.34142 0.0
C507 C 0.7807 0.94031 0.36629 0.0
C508 C 0.76638 0.94075 0.43246 0.0
C509 C 0.7878 0.87853 0.45 0.0
C510 C 0.80158 0.87787 0.38359 0.0
C511 C 0.76257 0.91378 0.5489 0.0
H512 H 0.89168 0.8479 0.09479 0.0
H513 H 0.91535 0.83882 0.9796 0.0
H514 H 0.88368 0.94967 0.92744 0.0
H515 H 0.86153 0.95923 1.04289 0.0
H516 H 0.77891 0.96509 0.33598 0.0
H517 H 0.75373 0.96568 0.45132 0.0
H518 H 0.79188 0.85465 0.48212 0.0
H519 H 0.81513 0.85319 0.36585 0.0
Dy520 Dy 0.8887 0.16264 0.44928 0.0
Dy521 Dy 0.88752 0.09899 0.33522 0.0
C522 C 0.95693 0.11379 0.42299 0.0
O523 O 0.87663 0.1927 0.35184 0.0
O524 O 0.90705 0.15108 0.28661 0.0
O525 O 0.92495 0.19063 0.51652 0.0
O526 O 0.86762 0.20529 0.5156 0.0
O527 O 0.82916 0.1194 0.34614 0.0
O528 O 0.8318 0.14343 0.45342 0.0
O529 O 0.87369 0.0657 0.42681 0.0
O530 O 0.87994 0.11047 0.50888 0.0
O531 O 0.86085 0.06342 0.2637 0.0
O532 O 0.91963 0.06836 0.26241 0.0
C533 C 0.89205 0.18359 0.2938 0.0
O534 O 0.94542 0.14755 0.41641 0.0
O535 O 0.93515 0.0876 0.40424 0.0
C536 C 0.89663 0.19638 0.6228 0.0
C537 C 0.89609 0.16566 0.75519 0.0
C538 C 0.92916 0.17435 0.7226 0.0
C539 C 0.92937 0.19029 0.65804 0.0
C540 C 0.86349 0.18766 0.65502 0.0
C541 C 0.86321 0.17301 0.72087 0.0
C542 C 0.8981 0.20604 0.54971 0.0
C543 C 0.81299 0.13056 0.40271 0.0
C544 C 0.87312 0.07646 0.49057 0.0
C545 C 0.89062 0.0666 0.15575 0.0
C546 C 0.8933 0.0938 1.02103 0.0
C547 C 0.8602 0.09349 1.0573 0.0
C548 C 0.85885 0.08014 0.12405 0.0
C549 C 0.92327 0.06504 0.11794 0.0
C550 C 0.92464 0.07864 1.05136 0.0
C551 C 0.89095 0.05754 0.22938 0.0
H552 H 0.95515 0.16764 0.74559 0.0
H553 H 0.9554 0.19604 0.63413 0.0
H554 H 0.83775 0.19155 0.62907 0.0
H555 H 0.83719 0.167 0.74449 0.0
H556 H 0.83563 0.10496 1.03496 0.0
H557 H 0.83318 0.08166 0.15146 0.0
H558 H 0.94811 0.0545 0.14075 0.0
H559 H 0.95037 0.07794 1.02399 0.0
Dy560 Dy 0.09627 0.0844 0.77806 0.0
Dy561 Dy 0.16133 0.09015 0.66254 0.0
C562 C 0.13046 0.16069 0.73357 0.0
O563 O 0.06223 0.09106 0.68735 0.0
O564 O 0.10751 0.09562 0.60609 0.0
O565 O 0.05622 0.10796 0.84666 0.0
O566 O 0.0696 0.05015 0.85264 0.0
O567 O 0.15077 0.03043 0.66978 0.0
O568 O 0.09336 0.03248 0.71664 0.0
O569 O 0.19557 0.08166 0.75628 0.0
O570 O 0.14888 0.08462 0.83488 0.0
O571 O 0.20326 0.06989 0.594 0.0
O572 O 0.18493 0.12638 0.58767 0.0
C573 C 0.07273 0.09486 0.62398 0.0
O574 O 0.09992 0.14361 0.74704 0.0
O575 O 0.16037 0.1423 0.72031 0.0
C576 C 0.06145 0.08106 0.95692 0.0
C577 C 0.08668 0.08542 0.09233 0.0
C578 C 0.08 0.11742 1.05402 0.0
C579 C 0.06753 0.11528 0.98709 0.0
C580 C 0.06592 0.04921 0.99666 0.0
C581 C 0.07857 0.05135 0.06345 0.0
C582 C 0.05409 0.078 0.88303 0.0
C583 C 0.11919 0.01534 0.68221 0.0
C584 C 0.18375 0.08268 0.81976 0.0
C585 C 0.19162 0.0954 0.48436 0.0
C586 C 0.16119 0.09204 0.35305 0.0
C587 C 0.16151 0.06098 0.3954 0.0
C588 C 0.17621 0.06272 0.46075 0.0
C589 C 0.19281 0.12592 0.44061 0.0
C590 C 0.17759 0.12431 0.37563 0.0
C591 C 0.20171 0.09958 0.55663 0.0
H592 H 0.08637 0.14409 0.07428 0.0
H593 H 0.06421 0.14043 0.95821 0.0
H594 H 0.06104 0.02246 0.97518 0.0
H595 H 0.08287 0.02624 0.09202 0.0
H596 H 0.14899 0.03581 0.37898 0.0
H597 H 0.17446 0.03881 0.49337 0.0
H598 H 0.20435 0.15145 0.45769 0.0
H599 H 0.17797 0.14848 0.34344 0.0
Dy600 Dy 0.0921 0.80572 0.4625 0.0
Dy601 Dy 0.08259 0.87057 0.34774 0.0
C602 C 0.01484 0.846 0.44481 0.0
O603 O 0.07548 0.77442 0.36837 0.0
O604 O 0.09291 0.81841 0.2916 0.0
O605 O 0.07378 0.76179 0.52837 0.0
O606 O 0.12924 0.7815 0.53514 0.0
O607 O 0.14099 0.87005 0.38619 0.0
O608 O 0.14189 0.80883 0.39939 0.0
O609 O 0.07795 0.90288 0.44316 0.0
O610 O 0.10487 0.8596 0.51298 0.0
O611 O 0.10623 0.91074 0.27938 0.0
O612 O 0.04916 0.89745 0.27182 0.0
C613 C 0.08363 0.7846 0.30552 0.0
O614 O 0.03768 0.82863 0.48444 0.0
O615 O 0.02505 0.86046 0.38618 0.0
C616 C 0.09763 0.77401 0.63845 0.0
C617 C 0.09044 0.80495 0.76937 0.0
C618 C 0.05976 0.801 0.72775 0.0
C619 C 0.06327 0.7856 0.663 0.0
C620 C 0.12808 0.77703 0.68108 0.0
C621 C 0.12447 0.79201 0.74612 0.0
C622 C 0.10298 0.76408 0.56604 0.0
C623 C 0.15959 0.83955 0.3971 0.0
C624 C 0.09272 0.8932 0.5014 0.0
C625 C 0.0811 0.90379 0.16845 0.0
C626 C 0.08408 0.87697 1.03355 0.0
C627 C 0.11455 0.87393 0.07642 0.0
C628 C 0.11306 0.88698 0.14315 0.0
C629 C 0.05116 0.90829 0.12471 0.0
C630 C 0.05254 0.89489 1.05808 0.0
C631 C 0.07702 0.91249 0.24177 0.0
H632 H 0.03316 0.81041 0.7449 0.0
H633 H 0.03925 0.78409 0.63138 0.0
H634 H 0.15493 0.76873 0.66328 0.0
H635 H 0.14852 0.79471 0.77736 0.0
H636 H 0.13939 0.86072 1.0587 0.0
H637 H 0.13658 0.88276 0.17547 0.0
H638 H 0.02608 0.92082 0.14304 0.0
H639 H 0.02839 0.89719 1.02683 0.0
C640 C 0.37338 0.9151 0.2529 0.0
C641 C 0.3737 0.92264 0.32333 0.0
C642 C 0.36743 0.94327 0.20438 0.0
C643 C 0.36132 0.97969 0.22494 0.0
H644 H 0.37783 0.88738 0.23514 0.0
H645 H 0.36719 0.93647 0.15085 0.0
S646 S 0.35752 0.01363 0.40197 0.0
N647 N 0.36629 0.9695 0.41 0.0
N648 N 0.35471 0.02114 0.31967 0.0
C649 C 0.36121 -0.0128 0.29472 0.0
C650 C 0.36754 0.95905 0.34372 0.0
C651 C 0.95244 0.62036 0.76918 0.0
C652 C 0.91958 0.6055 0.79367 0.0
C653 C 0.98193 0.62656 0.81196 0.0
C654 C 0.98057 0.6181 0.88184 0.0
H655 H 0.95589 0.62716 0.71589 0.0
H656 H 0.00653 0.63743 0.78909 0.0
S657 S 0.90075 0.58007 0.97374 0.0
N658 N 0.88687 0.58389 0.89416 0.0
N659 N 0.94331 0.59463 0.97451 0.0
C660 C 0.94798 0.60342 0.90789 0.0
C661 C 0.91727 0.59758 0.86402 0.0
C662 C 0.58954 0.01031 0.22465 0.0
C663 C 0.62295 -0.00901 0.22887 0.0
C664 C 0.58193 0.04031 0.26741 0.0
C665 C 0.60731 0.05183 0.31603 0.0
H666 H 0.56833 0.00097 0.19101 0.0
H667 H 0.5552 0.05303 0.26519 0.0
S668 S 0.70064 0.01449 0.34103 0.0
N669 N 0.68338 -0.01095 0.28025 0.0
N670 N 0.6682 0.04415 0.36162 0.0
C671 C 0.64143 0.03421 0.3181 0.0
C672 C 0.6495 0.00422 0.27412 0.0
C673 C 0.0091 0.38031 0.89971 0.0
C674 C -0.01109 0.3481 0.89079 0.0
C675 C 0.03972 0.38782 0.85812 0.0
C676 C 0.05017 0.36392 0.80526 0.0
H677 H -0.00011 0.40081 0.93571 0.0
H678 H 0.05385 0.41342 0.8646 0.0
S679 S 0.0118 0.27221 0.7723 0.0
N680 N -0.01369 0.28901 0.83438 0.0
N681 N 0.04204 0.30411 0.75473 0.0
C682 C 0.03226 0.33029 0.8004 0.0
C683 C 0.00206 0.32218 0.84354 0.0
C684 C 0.39195 0.48895 0.11577 0.0
C685 C 0.36083 0.48865 0.15813 0.0
C686 C 0.39672 0.51625 0.06596 0.0
C687 C 0.37102 0.54479 1.0577 0.0
H688 H 0.41208 0.4671 0.11906 0.0
H689 H 0.42067 0.51489 1.03349 0.0
S690 S 0.28589 0.55776 0.1582 0.0
N691 N 0.30449 0.51999 0.18976 0.0
N692 N 0.31401 0.57185 0.09786 0.0
C693 C 0.34051 0.54561 0.10148 0.0
C694 C 0.33529 0.51742 0.1512 0.0
C695 C 0.54051 0.57714 1.01576 0.0
C696 C 0.55108 0.60297 0.06469 0.0
C697 C 0.51028 0.58396 0.97314 0.0
C698 C 0.49028 0.61701 0.97772 0.0
H699 H 0.55416 0.55071 1.01341 0.0
H700 H 0.50112 0.56239 0.93993 0.0
S701 S 0.51183 0.696 0.08818 0.0
N702 N 0.5424 0.66438 0.10872 0.0
N703 N 0.4867 0.67764 1.02815 0.0
C704 C 0.50289 0.64411 1.02225 0.0
C705 C 0.53301 0.63698 0.06591 0.0
C706 C 0.61328 0.48653 0.07862 0.0
C707 C 0.60436 0.48087 0.14743 0.0
C708 C 0.60691 0.45973 1.02962 0.0
C709 C 0.59135 0.4259 1.04725 0.0
H710 H 0.62506 0.51204 0.062 0.0
H711 H 0.61484 0.4655 0.97752 0.0
S712 S 0.55937 0.3992 0.21987 0.0
N713 N 0.57673 0.44033 0.23041 0.0
N714 N 0.56472 0.38934 0.13845 0.0
C715 C 0.58132 0.42021 0.11587 0.0
C716 C 0.58766 0.44788 0.16583 0.0
C717 C 0.42904 0.39315 1.02146 0.0
C718 C 0.41871 0.36641 0.06935 0.0
C719 C 0.45747 0.38636 0.97458 0.0
C720 C 0.47587 0.35223 0.97276 0.0
H721 H 0.41613 0.41997 1.02208 0.0
H722 H 0.46572 0.40836 0.94091 0.0
S723 S 0.45446 0.27135 0.08174 0.0
N724 N 0.42631 0.30378 0.10862 0.0
N725 N 0.47828 0.29009 1.01943 0.0
C726 C 0.46377 0.32451 1.01781 0.0
C727 C 0.43561 0.33185 0.06641 0.0
C728 C 0.84763 0.42013 0.75736 0.0
C729 C 0.87214 0.42297 0.81207 0.0
C730 C 0.84232 0.44932 0.711 0.0
C731 C 0.86225 0.48195 0.71621 0.0
H732 H 0.83138 0.39571 0.75162 0.0
H733 H 0.82214 0.44655 0.67144 0.0
S734 S 0.92941 0.50354 0.84983 0.0
N735 N 0.91627 0.46162 0.86835 0.0
N736 N 0.90727 0.51531 0.78021 0.0
C737 C 0.88757 0.48463 0.76919 0.0
C738 C 0.8923 0.4555 0.81732 0.0
C739 C 0.44453 0.10485 0.41275 0.0
C740 C 0.48039 0.11139 0.39021 0.0
C741 C 0.41594 0.09937 0.36594 0.0
C742 C 0.42231 0.10008 0.29494 0.0
H743 H 0.43847 0.1043 0.46671 0.0
H744 H 0.38873 0.09469 0.38559 0.0
S745 S 0.51192 0.11595 0.21078 0.0
N746 N 0.52034 0.11861 0.29275 0.0
N747 N 0.46803 0.10754 0.20563 0.0
C748 C 0.45828 0.10647 0.27247 0.0
C749 C 0.48691 0.11231 0.31985 0.0
C750 C 0.1238 0.54758 0.77466 0.0
C751 C 0.09352 0.5474 0.81903 0.0
C752 C 0.12861 0.52035 0.72495 0.0
C753 C 0.10284 0.49241 0.71641 0.0
H754 H 0.14464 0.56819 0.77985 0.0
H755 H 0.15307 0.5208 0.69387 0.0
S756 S 0.01731 0.48164 0.8158 0.0
N757 N 0.03651 0.51805 0.84888 0.0
N758 N 0.04486 0.46768 0.7545 0.0
C759 C 0.07162 0.493 0.75846 0.0
C760 C 0.06716 0.52021 0.81003 0.0
C761 C 0.52299 0.89702 0.3137 0.0
C762 C 0.54984 0.87007 0.30062 0.0
C763 C 0.49444 0.89066 0.36026 0.0
C764 C 0.49118 0.85677 0.39409 0.0
H765 H 0.52374 0.92302 0.28694 0.0
H766 H 0.47361 0.91165 0.36678 0.0
S767 S 0.55469 0.77751 0.37914 0.0
N768 N 0.57214 0.80881 0.32786 0.0
N769 N 0.51763 0.79635 0.41267 0.0
C770 C 0.51824 0.82994 0.38261 0.0
C771 C 0.54781 0.83674 0.33667 0.0
C772 C 0.88477 -0.01094 0.59362 0.0
C773 C 0.85939 -0.00663 0.64699 0.0
C774 C 0.88845 0.01578 0.54255 0.0
C775 C 0.86796 0.04851 0.54446 0.0
H776 H 0.901 0.96423 0.58986 0.0
H777 H 0.90785 0.01099 0.5017 0.0
S778 S 0.79967 0.07446 0.67564 0.0
N779 N 0.8139 0.03323 0.69925 0.0
N780 N 0.82276 0.08467 0.60579 0.0
C781 C 0.84364 0.05395 0.59902 0.0
C782 C 0.83886 0.02608 0.64965 0.0
C783 C 0.05142 0.11032 0.50444 0.0
C784 C 0.04371 0.0978 0.57104 0.0
C785 C 0.02347 0.11482 0.45578 0.0
C786 C -0.01291 0.10601 0.47138 0.0
H787 H 0.07902 0.11755 0.49021 0.0
H788 H 0.03029 0.12549 0.40591 0.0
S789 S 0.95216 0.07224 0.63746 0.0
N790 N -0.00364 0.07665 0.64896 0.0
N791 N 0.9451 0.08457 0.55786 0.0
C792 C 0.97931 0.09292 0.53702 0.0
C793 C 0.00727 0.08889 0.58667 0.0
C794 C 0.07168 0.94911 0.56491 0.0
C795 C 0.09837 0.92176 0.55377 0.0
C796 C 0.07758 0.97787 0.61079 0.0
C797 C 0.1108 0.98089 0.64585 0.0
H798 H 0.04622 0.94857 0.53722 0.0
H799 H 0.05675 -0.00103 0.61591 0.0
S800 S 0.18906 0.91586 0.63611 0.0
N801 N 0.15858 0.89868 0.58397 0.0
N802 N 0.17023 0.95341 0.66782 0.0
C803 C 0.13734 0.95327 0.6363 0.0
C804 C 0.13097 0.92352 0.59097 0.0
C805 C 0.95859 0.88474 0.4674 0.0
C806 C 0.97732 0.85096 0.47262 0.0
C807 C 0.92801 0.89249 0.50913 0.0
C808 C 0.91581 0.86694 0.55802 0.0
H809 H 0.96902 0.90611 0.43442 0.0
H810 H 0.91536 0.91935 0.50593 0.0
S811 S 0.95044 0.77201 0.58119 0.0
N812 N 0.97728 0.78974 0.5222 0.0
N813 N 0.92111 0.80482 0.60144 0.0
C814 C 0.93237 0.83216 0.55933 0.0
C815 C 0.96279 0.82405 0.51639 0.0
C816 C 0.33051 0.21905 0.12247 0.0
C817 C 0.33981 0.19438 0.1746 0.0
C818 C 0.32948 0.25696 0.13426 0.0
C819 C 0.33809 0.27174 0.19847 0.0
H820 H 0.32289 0.20899 0.07287 0.0
H821 H 0.32152 0.27473 0.09252 0.0
S822 S 0.36849 0.21835 0.34952 0.0
N823 N 0.3606 0.18714 0.29118 0.0
N824 N 0.35904 0.25818 0.31319 0.0
C825 C 0.34886 0.24723 0.2502 0.0
C826 C 0.34962 0.20865 0.23829 0.0
C827 C 0.24939 0.65284 0.91527 0.0
C828 C 0.27041 0.62042 0.91604 0.0
C829 C 0.21353 0.65374 0.93969 0.0
C830 C 0.19652 0.62219 0.96594 0.0
H831 H 0.26082 0.67815 0.89615 0.0
H832 H 0.19901 0.6797 0.93723 0.0
S833 S 0.23979 0.53017 0.98151 0.0
N834 N 0.27186 0.55577 0.94683 0.0
N835 N 0.20389 0.55733 0.99193 0.0
C836 C 0.21706 0.58934 0.9669 0.0
C837 C 0.25401 0.58846 0.94205 0.0
C838 C 0.60168 0.75369 0.17874 0.0
C839 C 0.62981 0.76969 0.14002 0.0
C840 C 0.60324 0.71643 0.19769 0.0
C841 C 0.63263 0.69375 0.1774 0.0
H842 H 0.57896 0.77032 0.19654 0.0
H843 H 0.58111 0.70525 0.22773 0.0
S844 S 0.71247 0.72235 0.07343 0.0
N845 N 0.68744 0.75996 0.08113 0.0
N846 N 0.69014 0.6902 0.11514 0.0
C847 C 0.66046 0.70941 0.13738 0.0
C848 C 0.6591 0.74727 0.11908 0.0
C849 C 0.74864 0.37457 0.94311 0.0
C850 C 0.76876 0.34146 0.94591 0.0
C851 C 0.71232 0.37556 0.91968 0.0
C852 C 0.69492 0.34351 0.89771 0.0
H853 H 0.76082 0.39983 0.9599 0.0
H854 H 0.69742 0.40132 0.92109 0.0
S855 S 0.73634 0.2504 0.88833 0.0
N856 N 0.7685 0.27605 0.92089 0.0
N857 N 0.70151 0.27841 0.87523 0.0
C858 C 0.71523 0.31063 0.89764 0.0
C859 C 0.75173 0.30946 0.92223 0.0
C860 C 0.83096 0.71523 0.72546 0.0
C861 C 0.83205 0.6997 0.65984 0.0
C862 C 0.83113 0.75327 0.7351 0.0
C863 C 0.83187 0.77762 0.67963 0.0
H864 H 0.83018 0.69789 0.77027 0.0
H865 H 0.83021 0.76364 0.78662 0.0
S866 S 0.83638 0.75156 0.49722 0.0
N867 N 0.83511 0.71204 0.53837 0.0
N868 N 0.83495 0.7835 0.55628 0.0
C869 C 0.83324 0.76261 0.6136 0.0
C870 C 0.83352 0.72374 0.60381 0.0
C871 C 0.75747 0.13123 0.47782 0.0
C872 C 0.77261 0.12903 0.41166 0.0
C873 C 0.7196 0.13172 0.48896 0.0
C874 C 0.69517 0.13072 0.43436 0.0
H875 H 0.77501 0.13278 0.52181 0.0
H876 H 0.70946 0.1339 0.54063 0.0
S877 S 0.72019 0.12197 0.25157 0.0
N878 N 0.75976 0.12344 0.29112 0.0
N879 N 0.6887 0.12514 0.31163 0.0
C880 C 0.70981 0.12758 0.36801 0.0
C881 C 0.74843 0.12647 0.35677 0.0
C882 C 0.10442 0.25574 0.67035 0.0
C883 C 0.13467 0.27693 0.68866 0.0
C884 C 0.1023 0.21852 0.68843 0.0
C885 C 0.13082 0.2009 0.7238 0.0
H886 H 0.08193 0.26813 0.64278 0.0
H887 H 0.07871 0.20315 0.67261 0.0
S888 S 0.21611 0.24383 0.78302 0.0
N889 N 0.19352 0.27748 0.74511 0.0
N890 N 0.19017 0.20733 0.77646 0.0
C891 C 0.16125 0.22168 0.74208 0.0
C892 C 0.16302 0.25972 0.72519 0.0
C893 C 0.25494 0.87228 0.44606 0.0
C894 C 0.27249 0.83976 0.46804 0.0
C895 C 0.21866 0.87217 0.42238 0.0
C896 C 0.19857 0.83952 0.41938 0.0
H897 H 0.2696 0.89788 0.44549 0.0
H898 H 0.2064 0.89783 0.406 0.0
S899 S 0.2311 0.74744 0.47668 0.0
N900 N 0.266 0.77457 0.48965 0.0
N901 N 0.19894 0.77397 0.4442 0.0
C902 C 0.21574 0.807 0.44275 0.0
C903 C 0.25231 0.80724 0.46733 0.0
C904 C 0.24443 0.06577 0.87372 0.0
C905 C 0.20977 0.08249 0.87846 0.0
C906 C 0.26783 0.06362 0.93045 0.0
C907 C 0.2578 0.07839 0.99443 0.0
H908 H 0.25335 0.05363 0.82625 0.0
H909 H 0.29408 0.05021 0.92383 0.0
S910 S 0.17161 0.12861 1.03193 0.0
N911 N 0.16773 0.11644 0.95165 0.0
N912 N 0.21147 0.11237 1.05704 0.0
C913 C 0.22361 0.09601 0.99918 0.0
C914 C 0.19976 0.09808 0.94168 0.0
C915 C 0.0586 0.70531 0.18717 0.0
C916 C 0.08056 0.71157 0.12894 0.0
C917 C 0.06014 0.72816 0.24495 0.0
C918 C 0.08398 0.7581 0.24724 0.0
H919 H 0.03984 0.68258 0.18797 0.0
H920 H 0.04211 0.72268 0.28752 0.0
S921 S 0.15267 0.78159 0.11444 0.0
N922 N 0.13018 0.74704 0.08158 0.0
N923 N 0.13346 0.78959 0.18905 0.0
C924 C 0.10724 0.76354 0.19049 0.0
C925 C 0.10543 0.74049 0.13176 0.0
C926 C 0.69963 0.90372 0.92589 0.0
C927 C 0.71248 0.89014 0.98918 0.0
C928 C 0.72201 0.90457 0.86729 0.0
C929 C 0.75838 0.89218 0.86947 0.0
H930 H 0.6719 0.91395 0.92137 0.0
H931 H 0.71096 0.91567 0.82044 0.0
S932 S 0.80368 0.8486 1.01829 0.0
N933 N 0.76291 0.86033 1.04729 0.0
N934 N 0.80515 0.86261 0.93834 0.0
C935 C 0.77131 0.87769 0.93171 0.0
C936 C 0.74842 0.87654 0.99115 0.0
C937 C 0.86151 0.25798 0.16856 0.0
C938 C 0.8883 0.25665 0.1167 0.0
C939 C 0.8633 0.23494 0.22612 0.0
C940 C 0.89198 0.20949 0.2346 0.0
H941 H 0.83875 0.277 0.1646 0.0
H942 H 0.84164 0.23672 0.26374 0.0
S943 S 0.97218 0.19907 0.12004 0.0
N944 N 0.9465 0.23042 0.08194 0.0
N945 N 0.94965 0.18675 0.18922 0.0
C946 C 0.91947 0.20846 0.1841 0.0
C947 C 0.91768 0.23207 0.12548 0.0
C948 C 0.27021 0.40298 0.44626 0.0
C949 C 0.259 0.39066 0.38147 0.0
C950 C 0.24636 0.40332 0.50295 0.0
C951 C 0.21004 0.39179 0.49731 0.0
H952 H 0.29776 0.41257 0.4536 0.0
H953 H 0.25626 0.41337 0.55109 0.0
S954 S 0.16814 0.35238 0.3431 0.0
N955 N 0.2096 0.36348 0.31801 0.0
N956 N 0.16505 0.36447 0.42359 0.0
C957 C 0.19879 0.37842 0.43369 0.0
C958 C 0.22309 0.37777 0.3762 0.0
C959 C 0.38249 0.69516 0.68005 0.0
C960 C 0.39206 0.7065 0.74635 0.0
C961 C 0.38412 0.71906 0.62359 0.0
C962 C 0.39516 0.75557 0.63054 0.0
H963 H 0.37316 0.66753 0.67134 0.0
H964 H 0.37575 0.7091 0.57447 0.0
S965 S 0.42772 0.79799 0.79035 0.0
N966 N 0.41614 0.75619 0.8136 0.0
N967 N 0.41918 0.80094 0.70825 0.0
C968 C 0.4062 0.7669 0.69589 0.0
C969 C 0.40465 0.74252 0.7534 0.0
C970 C 0.7459 0.56692 0.36808 0.0
C971 C 0.70938 0.57866 0.37313 0.0
C972 C 0.76906 0.56699 0.42515 0.0
C973 C 0.75696 0.57934 0.48975 0.0
H974 H 0.75645 0.55687 0.32009 0.0
H975 H 0.79685 0.55726 0.41817 0.0
S976 S 0.66495 0.61789 0.52692 0.0
N977 N 0.66294 0.60582 0.44629 0.0
N978 N 0.70641 0.60669 0.55256 0.0
C979 C 0.72078 0.59243 0.49454 0.0
C980 C 0.6971 0.59188 0.43664 0.0
C981 C 0.56858 0.24993 0.61433 0.0
C982 C 0.58028 0.21326 0.61955 0.0
C983 C 0.56857 0.27322 0.67138 0.0
C984 C 0.58061 0.26103 0.73612 0.0
H985 H 0.5586 0.26051 0.56626 0.0
H986 H 0.55873 0.30107 0.66449 0.0
S987 S 0.62012 0.1691 0.77297 0.0
N988 N 0.60773 0.16685 0.69255 0.0
N989 N 0.60849 0.21059 0.79877 0.0
C990 C 0.59374 0.22474 0.74099 0.0
C991 C 0.5934 0.20097 0.68309 0.0
C992 C 0.30432 0.10642 0.63196 0.0
C993 C 0.31142 0.07824 0.5851 0.0
C994 C 0.32219 0.10713 0.69493 0.0
C995 C 0.34787 0.07983 0.71265 0.0
H996 H 0.28459 0.12779 0.62011 0.0
H997 H 0.31548 0.12883 0.73036 0.0
S998 S 0.37891 0.00265 0.60481 0.0
N999 N 0.34733 0.02376 0.5593 0.0
N1000 N 0.38141 0.0256 0.67661 0.0
C1001 C 0.35577 0.05211 0.66559 0.0
C1002 C 0.3374 0.05118 0.60208 0.0
C1003 C 0.07249 0.61895 0.52587 0.0
C1004 C 0.09313 0.65098 0.53335 0.0
C1005 C 0.06919 0.60179 0.46249 0.0
C1006 C 0.08628 0.61604 0.40392 0.0
H1007 H 0.05934 0.60663 0.56971 0.0
H1008 H 0.0536 0.57682 0.45957 0.0
S1009 S 0.14026 0.70143 0.39475 0.0
N1010 N 0.12927 0.69734 0.47595 0.0
N1011 N 0.1222 0.66581 0.35667 0.0
C1012 C 0.1062 0.64861 0.41038 0.0
C1013 C 0.10986 0.66586 0.47504 0.0
C1014 C 0.63689 0.85038 0.6152 0.0
C1015 C 0.65659 0.87979 0.58711 0.0
C1016 C 0.61976 0.85316 0.67903 0.0
C1017 C 0.62143 0.88552 0.71737 0.0
H1018 H 0.63409 0.82517 0.58704 0.0
H1019 H 0.60463 0.82991 0.69815 0.0
S1020 S 0.67211 0.96937 0.66989 0.0
N1021 N 0.67853 0.94161 0.6048 0.0
N1022 N 0.64615 0.94686 0.72446 0.0
C1023 C 0.64148 0.91495 0.69051 0.0
C1024 C 0.65907 0.91209 0.62556 0.0
C1025 C 0.90151 0.3254 0.41778 0.0
C1026 C 0.87569 0.35232 0.39876 0.0
C1027 C 0.89942 0.30768 0.48121 0.0
C1028 C 0.87149 0.31628 0.52802 0.0
H1029 H 0.92323 0.31766 0.38299 0.0
H1030 H 0.91969 0.28691 0.49352 0.0
S1031 S 0.79905 0.38701 0.50484 0.0
N1032 N 0.82244 0.38795 0.43285 0.0
N1033 N 0.81875 0.35513 0.55236 0.0
C1034 C 0.84582 0.34354 0.5099 0.0
C1035 C 0.84786 0.36143 0.44524 0.0
C1036 C 0.36861 0.40003 0.71147 0.0
C1037 C 0.35385 0.37962 0.65802 0.0
C1038 C 0.35089 0.40242 0.77461 0.0
C1039 C 0.31765 0.38448 0.78702 0.0
H1040 H 0.39416 0.41425 0.70451 0.0
H1041 H 0.36348 0.41833 0.81426 0.0
S1042 S 0.26687 0.3285 0.66304 0.0
N1043 N 0.30343 0.34202 0.62084 0.0
N1044 N 0.27061 0.34573 0.7401 0.0
C1045 C 0.30276 0.36363 0.73421 0.0
C1046 C 0.32069 0.36144 0.66962 0.0
C1047 C 0.40604 0.62471 0.3532 0.0
C1048 C 0.37925 0.65188 0.34114 0.0
C1049 C 0.40909 0.60731 0.41689 0.0
C1050 C 0.38536 0.61628 0.47096 0.0
H1051 H 0.42427 0.61619 0.31259 0.0
H1052 H 0.42973 0.58615 0.42342 0.0
S1053 S 0.31332 0.68842 0.46805 0.0
N1054 N 0.33055 0.68897 0.39033 0.0
N1055 N 0.33595 0.65607 0.50952 0.0
C1056 C 0.3591 0.64407 0.46006 0.0
C1057 C 0.35613 0.6619 0.39538 0.0
C1058 C 0.66097 0.55215 0.72584 0.0
C1059 C 0.64203 0.56194 0.78544 0.0
C1060 C 0.64375 0.55326 0.6623 0.0
C1061 C 0.60688 0.56415 0.65588 0.0
H1062 H 0.68956 0.54444 0.72812 0.0
H1063 H 0.65979 0.54643 0.61765 0.0
S1064 S 0.54412 0.58798 0.79797 0.0
N1065 N 0.58372 0.57992 0.83509 0.0
N1066 N 0.55127 0.58172 0.71585 0.0
C1067 C 0.58734 0.57272 0.71557 0.0
C1068 C 0.60491 0.57169 0.78022 0.0
C1069 C 0.55345 0.33252 0.44182 0.0
C1070 C 0.57957 0.35862 0.4602 0.0
C1071 C 0.55547 0.31453 0.37895 0.0
C1072 C 0.58376 0.3219 0.33237 0.0
H1073 H 0.5316 0.32557 0.47672 0.0
H1074 H 0.53494 0.29449 0.36688 0.0
S1075 S 0.65681 0.39041 0.35344 0.0
N1076 N 0.63317 0.39255 0.42505 0.0
N1077 N 0.63704 0.35875 0.30715 0.0
C1078 C 0.6097 0.34833 0.34977 0.0
C1079 C 0.60757 0.36668 0.41356 0.0
C1080 C 0.83331 0.6123 0.10201 0.0
C1081 C 0.81159 0.58207 0.08551 0.0
C1082 C 0.85095 0.61433 0.16494 0.0
C1083 C 0.84773 0.58606 0.21329 0.0
H1084 H 0.83751 0.63412 0.06533 0.0
H1085 H 0.86779 0.63782 0.17537 0.0
S1086 S 0.7911 0.50303 0.19838 0.0
N1087 N 0.78546 0.52478 0.12528 0.0
N1088 N 0.81934 0.52829 0.24287 0.0
C1089 C 0.82542 0.55617 0.1983 0.0
C1090 C 0.80717 0.55425 0.1346 0.0
C1091 C 0.5586 0.15029 0.90881 0.0
C1092 C 0.56778 0.11283 0.90309 0.0
C1093 C 0.55967 0.16826 0.97154 0.0
C1094 C 0.56979 0.14947 1.03118 0.0
H1095 H 0.5513 0.16617 0.86417 0.0
H1096 H 0.55308 0.19722 0.97312 0.0
S1097 S 0.59125 0.05015 1.04583 0.0
N1098 N 0.58401 0.05687 0.96386 0.0
N1099 N 0.58574 0.09057 0.08191 0.0
C1100 C 0.57771 0.11173 1.02678 0.0
C1101 C 0.57675 0.09345 0.9628 0.0
C1102 C 0.10468 0.42902 0.17723 0.0
C1103 C 0.10179 0.39596 0.21381 0.0
C1104 C 0.12281 0.43045 0.11433 0.0
C1105 C 0.13936 0.39899 0.08606 0.0
H1106 H 0.09285 0.45403 0.19748 0.0
H1107 H 0.12365 0.45643 0.08754 0.0
S1108 S 0.14116 0.306 0.16363 0.0
N1109 N 0.11696 0.33101 0.21741 0.0
N1110 N 0.15297 0.33409 0.10146 0.0
C1111 C 0.13686 0.36579 0.12251 0.0
C1112 C 0.11757 0.36417 0.18569 0.0
C1113 C 0.40951 0.82966 1.00412 0.0
C1114 C 0.37751 0.83016 1.04412 0.0
C1115 C 0.411 0.84771 0.94108 0.0
C1116 C 0.38034 0.86629 0.91479 0.0
H1117 H 0.43345 0.81462 1.02102 0.0
H1118 H 0.43607 0.84618 0.91183 0.0
S1119 S 0.29169 0.88028 1.0028 0.0
N1120 N 0.31578 0.85466 1.05588 0.0
N1121 N 0.31822 0.88705 0.93587 0.0
C1122 C 0.3486 0.86807 0.95496 0.0
C1123 C 0.34724 0.85032 1.01982 0.0
C1124 C 0.85317 0.89452 0.26704 0.0
C1125 C 0.8177 0.90939 0.27367 0.0
C1126 C 0.87128 0.89362 0.20405 0.0
C1127 C 0.8548 0.90764 0.14479 0.0
H1128 H 0.86726 0.8836 0.31111 0.0
H1129 H 0.8985 0.88184 0.20183 0.0
S1130 S 0.76211 0.9495 0.1341 0.0
N1131 N 0.76681 0.93863 0.21516 0.0
N1132 N 0.8006 0.93675 0.09684 0.0
C1133 C 0.81949 0.92307 0.15075 0.0
C1134 C 0.80105 0.92401 0.21504 0.0
C1135 C 0.87056 0.10197 0.90188 0.0
C1136 C 0.89528 0.11154 0.95301 0.0
C1137 C 0.87109 0.11945 0.83818 0.0
C1138 C 0.89588 0.14774 0.82356 0.0
H1139 H 0.85088 0.08054 0.91099 0.0
H1140 H 0.85213 0.11038 0.79991 0.0
S1141 S 0.96529 0.18392 0.94159 0.0
N1142 N 0.94514 0.15101 0.98521 0.0
N1143 N 0.9448 0.18535 0.86725 0.0
C1144 C 0.92043 0.15782 0.87484 0.0
C1145 C 0.92045 0.13939 0.93904 0.0
C1146 C 0.13424 0.06362 0.17496 0.0
C1147 C 0.10467 0.08728 0.15997 0.0
C1148 C 0.15249 0.06538 0.23737 0.0
C1149 C 0.14215 0.09114 0.2868 0.0
H1150 H 0.14376 0.04391 0.13773 0.0
H1151 H 0.17512 0.04673 0.24678 0.0
S1152 S 0.06543 0.15781 0.27504 0.0
N1153 N 0.06491 0.13605 0.20167 0.0
N1154 N 0.09983 0.13986 0.31821 0.0
C1155 C 0.11264 0.11483 0.27286 0.0
C1156 C 0.09378 0.11281 0.20965 0.0
C1157 C 0.09961 0.80573 0.89536 0.0
C1158 C 0.08738 0.82355 0.83614 0.0
C1159 C 0.09802 0.82317 0.95865 0.0
C1160 C 0.08469 0.85931 0.96529 0.0
H1161 H 0.11029 0.77799 0.89281 0.0
H1162 H 0.10704 0.80808 1.00295 0.0
S1163 S 0.05123 0.91863 0.82448 0.0
N1164 N 0.06226 0.87957 0.78728 0.0
N1165 N 0.06001 0.91267 0.90613 0.0
C1166 C 0.07245 0.87749 0.90623 0.0
C1167 C 0.07371 0.85956 0.84175 0.0
loop_
_geom_bond_atom_site_label_1
_geom_bond_atom_site_label_2
_geom_bond_distance
_geom_bond_site_symmetry_2
_ccdc_geom_bond_type
Dy0 O3 2.307 . S
Dy0 O5 2.395 1_554 S
Dy0 O6 2.379 1_554 S
Dy0 O8 2.339 . S
Dy0 O10 2.298 . S
Dy0 O14 2.275 . S
Dy0 C22 2.738 1_554 S
Dy1 O4 2.298 . S
Dy1 O7 2.275 . S
Dy1 O9 2.307 . S
Dy1 O11 2.395 . S
Dy1 O12 2.379 . S
Dy1 O15 2.339 . S
Dy1 C31 2.738 . S
C2 O14 1.254 . S
C2 O15 1.257 . S
O3 Dy0 2.307 . S
O3 C13 1.266 . S
O4 Dy1 2.298 . S
O4 C13 1.236 . S
O5 Dy0 2.395 1_556 S
O5 C22 1.255 . S
O6 Dy0 2.379 1_556 S
O6 C22 1.249 . S
O7 Dy1 2.275 . S
O7 C23 1.254 . S
O8 Dy0 2.339 . S
O8 C23 1.257 . S
O9 Dy1 2.307 . S
O9 C24 1.266 . S
O10 Dy0 2.298 . S
O10 C24 1.236 . S
O11 Dy1 2.395 . S
O11 C31 1.255 . S
O12 Dy1 2.379 . S
O12 C31 1.249 . S
C13 O3 1.266 . S
C13 O4 1.236 . S
O14 Dy0 2.275 . S
O14 C2 1.254 . S
O15 Dy1 2.339 . S
O15 C2 1.257 . S
C16 C19 1.344 . S
C16 C20 1.328 . S
C16 C22 1.516 . S
C17 C18 1.304 . S
C17 C21 1.323 . S
C18 C17 1.304 . S
C18 C19 1.371 . S
C18 H32 0.930 . S
C19 C16 1.344 . S
C19 C18 1.371 . S
C19 H33 0.931 . S
C20 C16 1.328 . S
C20 C21 1.433 . S
C20 H34 0.931 . S
C21 C17 1.323 . S
C21 C20 1.433 . S
C21 H35 0.933 . S
C22 Dy0 2.738 1_556 S
C22 O5 1.255 . S
C22 O6 1.249 . S
C22 C16 1.516 . S
C23 O7 1.254 . S
C23 O8 1.257 . S
C24 O9 1.266 . S
C24 O10 1.236 . S
C25 C28 1.344 . S
C25 C29 1.328 . S
C25 C31 1.516 . S
C26 C27 1.304 . S
C26 C30 1.323 . S
C27 C26 1.304 . S
C27 C28 1.371 . S
C27 H36 0.930 . S
C28 C25 1.344 . S
C28 C27 1.371 . S
C28 H37 0.931 . S
C29 C25 1.328 . S
C29 C30 1.433 . S
C29 H38 0.931 . S
C30 C26 1.323 . S
C30 C29 1.433 . S
C30 H39 0.933 . S
C31 Dy1 2.738 . S
C31 O11 1.255 . S
C31 O12 1.249 . S
C31 C25 1.516 . S
H32 C18 0.930 . S
H33 C19 0.931 . S
H34 C20 0.931 . S
H35 C21 0.933 . S
H36 C27 0.930 . S
H37 C28 0.931 . S
H38 C29 0.931 . S
H39 C30 0.933 . S
Dy40 O43 2.307 . S
Dy40 O45 2.395 . S
Dy40 O46 2.379 . S
Dy40 O48 2.339 . S
Dy40 O50 2.298 . S
Dy40 O54 2.275 . S
Dy40 C62 2.738 . S
Dy41 O44 2.298 . S
Dy41 O47 2.275 . S
Dy41 O49 2.307 . S
Dy41 O51 2.395 1_556 S
Dy41 O52 2.379 1_556 S
Dy41 O55 2.339 . S
Dy41 C71 2.738 1_556 S
C42 O54 1.254 . S
C42 O55 1.257 . S
O43 Dy40 2.307 . S
O43 C53 1.266 . S
O44 Dy41 2.298 . S
O44 C53 1.236 . S
O45 Dy40 2.395 . S
O45 C62 1.255 . S
O46 Dy40 2.379 . S
O46 C62 1.249 . S
O47 Dy41 2.275 . S
O47 C63 1.254 . S
O48 Dy40 2.339 . S
O48 C63 1.257 . S
O49 Dy41 2.307 . S
O49 C64 1.266 . S
O50 Dy40 2.298 . S
O50 C64 1.236 . S
O51 Dy41 2.395 1_554 S
O51 C71 1.255 . S
O52 Dy41 2.379 1_554 S
O52 C71 1.249 . S
C53 O43 1.266 . S
C53 O44 1.236 . S
O54 Dy40 2.275 . S
O54 C42 1.254 . S
O55 Dy41 2.339 . S
O55 C42 1.257 . S
C56 C59 1.344 . S
C56 C60 1.328 . S
C56 C62 1.516 . S
C57 C58 1.304 . S
C57 C61 1.323 . S
C58 C57 1.304 . S
C58 C59 1.371 . S
C58 H72 0.930 . S
C59 C56 1.344 . S
C59 C58 1.371 . S
C59 H73 0.931 . S
C60 C56 1.328 . S
C60 C61 1.433 . S
C60 H74 0.931 . S
C61 C57 1.323 . S
C61 C60 1.433 . S
C61 H75 0.933 . S
C62 Dy40 2.738 . S
C62 O45 1.255 . S
C62 O46 1.249 . S
C62 C56 1.516 . S
C63 O47 1.254 . S
C63 O48 1.257 . S
C64 O49 1.266 . S
C64 O50 1.236 . S
C65 C68 1.344 . S
C65 C69 1.328 . S
C65 C71 1.516 . S
C66 C67 1.304 . S
C66 C70 1.323 . S
C67 C66 1.304 . S
C67 C68 1.371 . S
C67 H76 0.930 . S
C68 C65 1.344 . S
C68 C67 1.371 . S
C68 H77 0.931 . S
C69 C65 1.328 . S
C69 C70 1.433 . S
C69 H78 0.931 . S
C70 C66 1.323 . S
C70 C69 1.433 . S
C70 H79 0.933 . S
C71 Dy41 2.738 1_554 S
C71 O51 1.255 . S
C71 O52 1.249 . S
C71 C65 1.516 . S
H72 C58 0.930 . S
H73 C59 0.931 . S
H74 C60 0.931 . S
H75 C61 0.933 . S
H76 C67 0.930 . S
H77 C68 0.931 . S
H78 C69 0.931 . S
H79 C70 0.933 . S
Dy80 O83 2.307 . S
Dy80 O85 2.395 1_554 S
Dy80 O86 2.379 1_554 S
Dy80 O88 2.339 . S
Dy80 O90 2.298 . S
Dy80 O94 2.275 . S
Dy80 C102 2.738 1_554 S
Dy81 O84 2.298 . S
Dy81 O87 2.275 . S
Dy81 O89 2.307 . S
Dy81 O91 2.395 . S
Dy81 O92 2.379 . S
Dy81 O95 2.339 . S
Dy81 C111 2.738 . S
C82 O94 1.254 . S
C82 O95 1.257 . S
O83 Dy80 2.307 . S
O83 C93 1.266 . S
O84 Dy81 2.298 . S
O84 C93 1.236 . S
O85 Dy80 2.395 1_556 S
O85 C102 1.255 . S
O86 Dy80 2.379 1_556 S
O86 C102 1.249 . S
O87 Dy81 2.275 . S
O87 C103 1.254 . S
O88 Dy80 2.339 . S
O88 C103 1.257 . S
O89 Dy81 2.307 . S
O89 C104 1.266 . S
O90 Dy80 2.298 . S
O90 C104 1.236 . S
O91 Dy81 2.395 . S
O91 C111 1.255 . S
O92 Dy81 2.379 . S
O92 C111 1.249 . S
C93 O83 1.266 . S
C93 O84 1.236 . S
O94 Dy80 2.275 . S
O94 C82 1.254 . S
O95 Dy81 2.339 . S
O95 C82 1.257 . S
C96 C99 1.344 . S
C96 C100 1.328 . S
C96 C102 1.516 . S
C97 C98 1.304 . S
C97 C101 1.323 . S
C98 C97 1.304 . S
C98 C99 1.371 . S
C98 H112 0.930 . S
C99 C96 1.344 . S
C99 C98 1.371 . S
C99 H113 0.931 . S
C100 C96 1.328 . S
C100 C101 1.433 . S
C100 H114 0.931 . S
C101 C97 1.323 . S
C101 C100 1.433 . S
C101 H115 0.933 . S
C102 Dy80 2.738 1_556 S
C102 O85 1.255 . S
C102 O86 1.249 . S
C102 C96 1.516 . S
C103 O87 1.254 . S
C103 O88 1.257 . S
C104 O89 1.266 . S
C104 O90 1.236 . S
C105 C108 1.344 . S
C105 C109 1.328 . S
C105 C111 1.516 . S
C106 C107 1.304 . S
C106 C110 1.323 . S
C107 C106 1.304 . S
C107 C108 1.371 . S
C107 H116 0.930 . S
C108 C105 1.344 . S
C108 C107 1.371 . S
C108 H117 0.931 . S
C109 C105 1.328 . S
C109 C110 1.433 . S
C109 H118 0.931 . S
C110 C106 1.323 . S
C110 C109 1.433 . S
C110 H119 0.933 . S
C111 Dy81 2.738 . S
C111 O91 1.255 . S
C111 O92 1.249 . S
C111 C105 1.516 . S
H112 C98 0.930 . S
H113 C99 0.931 . S
H114 C100 0.931 . S
H115 C101 0.933 . S
H116 C107 0.930 . S
H117 C108 0.931 . S
H118 C109 0.931 . S
H119 C110 0.933 . S
Dy120 O123 2.307 . S
Dy120 O125 2.395 . S
Dy120 O126 2.379 . S
Dy120 O128 2.339 . S
Dy120 O130 2.298 . S
Dy120 O134 2.275 . S
Dy120 C142 2.738 . S
Dy121 O124 2.298 . S
Dy121 O127 2.275 . S
Dy121 O129 2.307 . S
Dy121 O131 2.395 1_556 S
Dy121 O132 2.379 1_556 S
Dy121 O135 2.339 . S
Dy121 C151 2.738 1_556 S
C122 O134 1.254 . S
C122 O135 1.257 . S
O123 Dy120 2.307 . S
O123 C133 1.266 . S
O124 Dy121 2.298 . S
O124 C133 1.236 . S
O125 Dy120 2.395 . S
O125 C142 1.255 . S
O126 Dy120 2.379 . S
O126 C142 1.249 . S
O127 Dy121 2.275 . S
O127 C143 1.254 . S
O128 Dy120 2.339 . S
O128 C143 1.257 . S
O129 Dy121 2.307 . S
O129 C144 1.266 . S
O130 Dy120 2.298 . S
O130 C144 1.236 . S
O131 Dy121 2.395 1_554 S
O131 C151 1.255 . S
O132 Dy121 2.379 1_554 S
O132 C151 1.249 . S
C133 O123 1.266 . S
C133 O124 1.236 . S
O134 Dy120 2.275 . S
O134 C122 1.254 . S
O135 Dy121 2.339 . S
O135 C122 1.257 . S
C136 C139 1.344 . S
C136 C140 1.328 . S
C136 C142 1.516 . S
C137 C138 1.304 . S
C137 C141 1.323 . S
C138 C137 1.304 . S
C138 C139 1.371 . S
C138 H152 0.930 . S
C139 C136 1.344 . S
C139 C138 1.371 . S
C139 H153 0.931 . S
C140 C136 1.328 . S
C140 C141 1.433 . S
C140 H154 0.931 . S
C141 C137 1.323 . S
C141 C140 1.433 . S
C141 H155 0.933 . S
C142 Dy120 2.738 . S
C142 O125 1.255 . S
C142 O126 1.249 . S
C142 C136 1.516 . S
C143 O127 1.254 . S
C143 O128 1.257 . S
C144 O129 1.266 . S
C144 O130 1.236 . S
C145 C148 1.344 . S
C145 C149 1.328 . S
C145 C151 1.516 . S
C146 C147 1.304 . S
C146 C150 1.323 . S
C147 C146 1.304 . S
C147 C148 1.371 . S
C147 H156 0.930 . S
C148 C145 1.344 . S
C148 C147 1.371 . S
C148 H157 0.931 . S
C149 C145 1.328 . S
C149 C150 1.433 . S
C149 H158 0.931 . S
C150 C146 1.323 . S
C150 C149 1.433 . S
C150 H159 0.933 . S
C151 Dy121 2.738 1_554 S
C151 O131 1.255 . S
C151 O132 1.249 . S
C151 C145 1.516 . S
H152 C138 0.930 . S
H153 C139 0.931 . S
H154 C140 0.931 . S
H155 C141 0.933 . S
H156 C147 0.930 . S
H157 C148 0.931 . S
H158 C149 0.931 . S
H159 C150 0.933 . S
Dy160 O163 2.307 . S
Dy160 O165 2.395 . S
Dy160 O166 2.379 . S
Dy160 O168 2.339 . S
Dy160 O170 2.298 . S
Dy160 O174 2.275 . S
Dy160 C182 2.738 . S
Dy161 O164 2.298 . S
Dy161 O167 2.275 . S
Dy161 O169 2.307 . S
Dy161 O171 2.395 1_554 S
Dy161 O172 2.379 1_554 S
Dy161 O175 2.339 . S
Dy161 C191 2.738 1_554 S
C162 O174 1.254 . S
C162 O175 1.257 . S
O163 Dy160 2.307 . S
O163 C173 1.266 . S
O164 Dy161 2.298 . S
O164 C173 1.236 . S
O165 Dy160 2.395 . S
O165 C182 1.255 . S
O166 Dy160 2.379 . S
O166 C182 1.249 . S
O167 Dy161 2.275 . S
O167 C183 1.254 . S
O168 Dy160 2.339 . S
O168 C183 1.257 . S
O169 Dy161 2.307 . S
O169 C184 1.266 . S
O170 Dy160 2.298 . S
O170 C184 1.236 . S
O171 Dy161 2.395 1_556 S
O171 C191 1.255 . S
O172 Dy161 2.379 1_556 S
O172 C191 1.249 . S
C173 O163 1.266 . S
C173 O164 1.236 . S
O174 Dy160 2.275 . S
O174 C162 1.254 . S
O175 Dy161 2.339 . S
O175 C162 1.257 . S
C176 C179 1.344 . S
C176 C180 1.328 . S
C176 C182 1.516 . S
C177 C178 1.304 . S
C177 C181 1.323 . S
C178 C177 1.304 . S
C178 C179 1.371 . S
C178 H192 0.930 . S
C179 C176 1.344 . S
C179 C178 1.371 . S
C179 H193 0.931 . S
C180 C176 1.328 . S
C180 C181 1.433 . S
C180 H194 0.931 . S
C181 C177 1.323 . S
C181 C180 1.433 . S
C181 H195 0.933 . S
C182 Dy160 2.738 . S
C182 O165 1.255 . S
C182 O166 1.249 . S
C182 C176 1.516 . S
C183 O167 1.254 . S
C183 O168 1.257 . S
C184 O169 1.266 . S
C184 O170 1.236 . S
C185 C188 1.344 . S
C185 C189 1.328 . S
C185 C191 1.516 . S
C186 C187 1.304 . S
C186 C190 1.323 . S
C187 C186 1.304 . S
C187 C188 1.371 . S
C187 H196 0.930 . S
C188 C185 1.344 . S
C188 C187 1.371 . S
C188 H197 0.931 . S
C189 C185 1.328 . S
C189 C190 1.433 . S
C189 H198 0.931 . S
C190 C186 1.323 . S
C190 C189 1.433 . S
C190 H199 0.933 . S
C191 Dy161 2.738 1_556 S
C191 O171 1.255 . S
C191 O172 1.249 . S
C191 C185 1.516 . S
H192 C178 0.930 . S
H193 C179 0.931 . S
H194 C180 0.931 . S
H195 C181 0.933 . S
H196 C187 0.930 . S
H197 C188 0.931 . S
H198 C189 0.931 . S
H199 C190 0.933 . S
Dy200 O203 2.307 . S
Dy200 O205 2.395 1_556 S
Dy200 O206 2.379 1_556 S
Dy200 O208 2.339 . S
Dy200 O210 2.298 . S
Dy200 O214 2.275 . S
Dy200 C222 2.738 1_556 S
Dy201 O204 2.298 . S
Dy201 O207 2.275 . S
Dy201 O209 2.307 . S
Dy201 O211 2.395 . S
Dy201 O212 2.379 . S
Dy201 O215 2.339 . S
Dy201 C231 2.738 . S
C202 O214 1.254 . S
C202 O215 1.257 . S
O203 Dy200 2.307 . S
O203 C213 1.266 . S
O204 Dy201 2.298 . S
O204 C213 1.236 . S
O205 Dy200 2.395 1_554 S
O205 C222 1.255 . S
O206 Dy200 2.379 1_554 S
O206 C222 1.249 . S
O207 Dy201 2.275 . S
O207 C223 1.254 . S
O208 Dy200 2.339 . S
O208 C223 1.257 . S
O209 Dy201 2.307 . S
O209 C224 1.266 . S
O210 Dy200 2.298 . S
O210 C224 1.236 . S
O211 Dy201 2.395 . S
O211 C231 1.255 . S
O212 Dy201 2.379 . S
O212 C231 1.249 . S
C213 O203 1.266 . S
C213 O204 1.236 . S
O214 Dy200 2.275 . S
O214 C202 1.254 . S
O215 Dy201 2.339 . S
O215 C202 1.257 . S
C216 C219 1.344 . S
C216 C220 1.328 . S
C216 C222 1.516 . S
C217 C218 1.304 . S
C217 C221 1.323 . S
C218 C217 1.304 . S
C218 C219 1.371 . S
C218 H232 0.930 . S
C219 C216 1.344 . S
C219 C218 1.371 . S
C219 H233 0.931 . S
C220 C216 1.328 . S
C220 C221 1.433 . S
C220 H234 0.931 . S
C221 C217 1.323 . S
C221 C220 1.433 . S
C221 H235 0.933 . S
C222 Dy200 2.738 1_554 S
C222 O205 1.255 . S
C222 O206 1.249 . S
C222 C216 1.516 . S
C223 O207 1.254 . S
C223 O208 1.257 . S
C224 O209 1.266 . S
C224 O210 1.236 . S
C225 C228 1.344 . S
C225 C229 1.328 . S
C225 C231 1.516 . S
C226 C227 1.304 . S
C226 C230 1.323 . S
C227 C226 1.304 . S
C227 C228 1.371 . S
C227 H236 0.930 . S
C228 C225 1.344 . S
C228 C227 1.371 . S
C228 H237 0.931 . S
C229 C225 1.328 . S
C229 C230 1.433 . S
C229 H238 0.931 . S
C230 C226 1.323 . S
C230 C229 1.433 . S
C230 H239 0.933 . S
C231 Dy201 2.738 . S
C231 O211 1.255 . S
C231 O212 1.249 . S
C231 C225 1.516 . S
H232 C218 0.930 . S
H233 C219 0.931 . S
H234 C220 0.931 . S
H235 C221 0.933 . S
H236 C227 0.930 . S
H237 C228 0.931 . S
H238 C229 0.931 . S
H239 C230 0.933 . S
Dy240 O243 2.307 . S
Dy240 O245 2.395 . S
Dy240 O246 2.379 . S
Dy240 O248 2.339 . S
Dy240 O250 2.298 . S
Dy240 O254 2.275 . S
Dy240 C262 2.738 . S
Dy241 O244 2.298 . S
Dy241 O247 2.275 . S
Dy241 O249 2.307 . S
Dy241 O251 2.395 1_554 S
Dy241 O252 2.379 1_554 S
Dy241 O255 2.339 . S
Dy241 C271 2.738 1_554 S
C242 O254 1.254 . S
C242 O255 1.257 . S
O243 Dy240 2.307 . S
O243 C253 1.266 . S
O244 Dy241 2.298 . S
O244 C253 1.236 . S
O245 Dy240 2.395 . S
O245 C262 1.255 . S
O246 Dy240 2.379 . S
O246 C262 1.249 . S
O247 Dy241 2.275 . S
O247 C263 1.254 . S
O248 Dy240 2.339 . S
O248 C263 1.257 . S
O249 Dy241 2.307 . S
O249 C264 1.266 . S
O250 Dy240 2.298 . S
O250 C264 1.236 . S
O251 Dy241 2.395 1_556 S
O251 C271 1.255 . S
O252 Dy241 2.379 1_556 S
O252 C271 1.249 . S
C253 O243 1.266 . S
C253 O244 1.236 . S
O254 Dy240 2.275 . S
O254 C242 1.254 . S
O255 Dy241 2.339 . S
O255 C242 1.257 . S
C256 C259 1.344 . S
C256 C260 1.328 . S
C256 C262 1.516 . S
C257 C258 1.304 . S
C257 C261 1.323 . S
C258 C257 1.304 . S
C258 C259 1.371 . S
C258 H272 0.930 . S
C259 C256 1.344 . S
C259 C258 1.371 . S
C259 H273 0.931 . S
C260 C256 1.328 . S
C260 C261 1.433 . S
C260 H274 0.931 . S
C261 C257 1.323 . S
C261 C260 1.433 . S
C261 H275 0.933 . S
C262 Dy240 2.738 . S
C262 O245 1.255 . S
C262 O246 1.249 . S
C262 C256 1.516 . S
C263 O247 1.254 . S
C263 O248 1.257 . S
C264 O249 1.266 . S
C264 O250 1.236 . S
C265 C268 1.344 . S
C265 C269 1.328 . S
C265 C271 1.516 . S
C266 C267 1.304 . S
C266 C270 1.323 . S
C267 C266 1.304 . S
C267 C268 1.371 . S
C267 H276 0.930 . S
C268 C265 1.344 . S
C268 C267 1.371 . S
C268 H277 0.931 . S
C269 C265 1.328 . S
C269 C270 1.433 . S
C269 H278 0.931 . S
C270 C266 1.323 . S
C270 C269 1.433 . S
C270 H279 0.933 . S
C271 Dy241 2.738 1_556 S
C271 O251 1.255 . S
C271 O252 1.249 . S
C271 C265 1.516 . S
H272 C258 0.930 . S
H273 C259 0.931 . S
H274 C260 0.931 . S
H275 C261 0.933 . S
H276 C267 0.930 . S
H277 C268 0.931 . S
H278 C269 0.931 . S
H279 C270 0.933 . S
Dy280 O283 2.307 . S
Dy280 O285 2.395 1_556 S
Dy280 O286 2.379 1_556 S
Dy280 O288 2.339 . S
Dy280 O290 2.298 . S
Dy280 O294 2.275 . S
Dy280 C302 2.738 1_556 S
Dy281 O284 2.298 . S
Dy281 O287 2.275 . S
Dy281 O289 2.307 . S
Dy281 O291 2.395 . S
Dy281 O292 2.379 . S
Dy281 O295 2.339 . S
Dy281 C311 2.738 . S
C282 O294 1.254 . S
C282 O295 1.257 . S
O283 Dy280 2.307 . S
O283 C293 1.266 . S
O284 Dy281 2.298 . S
O284 C293 1.236 . S
O285 Dy280 2.395 1_554 S
O285 C302 1.255 . S
O286 Dy280 2.379 1_554 S
O286 C302 1.249 . S
O287 Dy281 2.275 . S
O287 C303 1.254 . S
O288 Dy280 2.339 . S
O288 C303 1.257 . S
O289 Dy281 2.307 . S
O289 C304 1.266 . S
O290 Dy280 2.298 . S
O290 C304 1.236 . S
O291 Dy281 2.395 . S
O291 C311 1.255 . S
O292 Dy281 2.379 . S
O292 C311 1.249 . S
C293 O283 1.266 . S
C293 O284 1.236 . S
O294 Dy280 2.275 . S
O294 C282 1.254 . S
O295 Dy281 2.339 . S
O295 C282 1.257 . S
C296 C299 1.344 . S
C296 C300 1.328 . S
C296 C302 1.516 . S
C297 C298 1.304 . S
C297 C301 1.323 . S
C298 C297 1.304 . S
C298 C299 1.371 . S
C298 H312 0.930 . S
C299 C296 1.344 . S
C299 C298 1.371 . S
C299 H313 0.931 . S
C300 C296 1.328 . S
C300 C301 1.433 . S
C300 H314 0.931 . S
C301 C297 1.323 . S
C301 C300 1.433 . S
C301 H315 0.933 . S
C302 Dy280 2.738 1_554 S
C302 O285 1.255 . S
C302 O286 1.249 . S
C302 C296 1.516 . S
C303 O287 1.254 . S
C303 O288 1.257 . S
C304 O289 1.266 . S
C304 O290 1.236 . S
C305 C308 1.344 . S
C305 C309 1.328 . S
C305 C311 1.516 . S
C306 C307 1.304 . S
C306 C310 1.323 . S
C307 C306 1.304 . S
C307 C308 1.371 . S
C307 H316 0.930 . S
C308 C305 1.344 . S
C308 C307 1.371 . S
C308 H317 0.931 . S
C309 C305 1.328 . S
C309 C310 1.433 . S
C309 H318 0.931 . S
C310 C306 1.323 . S
C310 C309 1.433 . S
C310 H319 0.933 . S
C311 Dy281 2.738 . S
C311 O291 1.255 . S
C311 O292 1.249 . S
C311 C305 1.516 . S
H312 C298 0.930 . S
H313 C299 0.931 . S
H314 C300 0.931 . S
H315 C301 0.933 . S
H316 C307 0.930 . S
H317 C308 0.931 . S
H318 C309 0.931 . S
H319 C310 0.933 . S
Dy320 O323 2.307 . S
Dy320 O325 2.395 . S
Dy320 O326 2.379 . S
Dy320 O328 2.339 . S
Dy320 O330 2.298 . S
Dy320 O334 2.275 . S
Dy320 C342 2.738 . S
Dy321 O324 2.298 . S
Dy321 O327 2.275 . S
Dy321 O329 2.307 . S
Dy321 O331 2.395 . S
Dy321 O332 2.379 . S
Dy321 O335 2.339 . S
Dy321 C351 2.738 . S
C322 O334 1.254 . S
C322 O335 1.257 . S
O323 Dy320 2.307 . S
O323 C333 1.266 . S
O324 Dy321 2.298 . S
O324 C333 1.236 . S
O325 Dy320 2.395 . S
O325 C342 1.255 . S
O326 Dy320 2.379 . S
O326 C342 1.249 . S
O327 Dy321 2.275 . S
O327 C343 1.254 . S
O328 Dy320 2.339 . S
O328 C343 1.257 . S
O329 Dy321 2.307 . S
O329 C344 1.266 . S
O330 Dy320 2.298 . S
O330 C344 1.236 . S
O331 Dy321 2.395 . S
O331 C351 1.255 . S
O332 Dy321 2.379 . S
O332 C351 1.249 . S
C333 O323 1.266 . S
C333 O324 1.236 . S
O334 Dy320 2.275 . S
O334 C322 1.254 . S
O335 Dy321 2.339 . S
O335 C322 1.257 . S
C336 C339 1.344 . S
C336 C340 1.328 . S
C336 C342 1.516 . S
C337 C338 1.304 . S
C337 C341 1.323 . S
C338 C337 1.304 . S
C338 C339 1.371 . S
C338 H352 0.930 . S
C339 C336 1.344 . S
C339 C338 1.371 . S
C339 H353 0.931 . S
C340 C336 1.328 . S
C340 C341 1.433 . S
C340 H354 0.931 . S
C341 C337 1.323 . S
C341 C340 1.433 . S
C341 H355 0.933 . S
C342 Dy320 2.738 . S
C342 O325 1.255 . S
C342 O326 1.249 . S
C342 C336 1.516 . S
C343 O327 1.254 . S
C343 O328 1.257 . S
C344 O329 1.266 . S
C344 O330 1.236 . S
C345 C348 1.344 . S
C345 C349 1.328 . S
C345 C351 1.516 . S
C346 C347 1.304 1_554 S
C346 C350 1.323 1_554 S
C347 C346 1.304 1_556 S
C347 C348 1.371 . S
C347 H356 0.930 1_556 S
C348 C345 1.344 . S
C348 C347 1.371 . S
C348 H357 0.931 . S
C349 C345 1.328 . S
C349 C350 1.433 . S
C349 H358 0.931 . S
C350 C346 1.323 1_556 S
C350 C349 1.433 . S
C350 H359 0.933 1_556 S
C351 Dy321 2.738 . S
C351 O331 1.255 . S
C351 O332 1.249 . S
C351 C345 1.516 . S
H352 C338 0.930 . S
H353 C339 0.931 . S
H354 C340 0.931 . S
H355 C341 0.933 . S
H356 C347 0.930 1_554 S
H357 C348 0.931 . S
H358 C349 0.931 . S
H359 C350 0.933 1_554 S
Dy360 O363 2.307 . S
Dy360 O365 2.395 . S
Dy360 O366 2.379 . S
Dy360 O368 2.339 . S
Dy360 O370 2.298 . S
Dy360 O374 2.275 . S
Dy360 C382 2.738 . S
Dy361 O364 2.298 . S
Dy361 O367 2.275 . S
Dy361 O369 2.307 . S
Dy361 O371 2.395 . S
Dy361 O372 2.379 . S
Dy361 O375 2.339 . S
Dy361 C391 2.738 . S
C362 O374 1.254 . S
C362 O375 1.257 . S
O363 Dy360 2.307 . S
O363 C373 1.266 . S
O364 Dy361 2.298 . S
O364 C373 1.236 . S
O365 Dy360 2.395 . S
O365 C382 1.255 . S
O366 Dy360 2.379 . S
O366 C382 1.249 . S
O367 Dy361 2.275 . S
O367 C383 1.254 . S
O368 Dy360 2.339 . S
O368 C383 1.257 . S
O369 Dy361 2.307 . S
O369 C384 1.266 . S
O370 Dy360 2.298 . S
O370 C384 1.236 . S
O371 Dy361 2.395 . S
O371 C391 1.255 . S
O372 Dy361 2.379 . S
O372 C391 1.249 . S
C373 O363 1.266 . S
C373 O364 1.236 . S
O374 Dy360 2.275 . S
O374 C362 1.254 . S
O375 Dy361 2.339 . S
O375 C362 1.257 . S
C376 C379 1.344 . S
C376 C380 1.328 . S
C376 C382 1.516 . S
C377 C378 1.304 1_556 S
C377 C381 1.323 1_556 S
C378 C377 1.304 1_554 S
C378 C379 1.371 . S
C378 H392 0.930 1_554 S
C379 C376 1.344 . S
C379 C378 1.371 . S
C379 H393 0.931 . S
C380 C376 1.328 . S
C380 C381 1.433 . S
C380 H394 0.931 . S
C381 C377 1.323 1_554 S
C381 C380 1.433 . S
C381 H395 0.933 1_554 S
C382 Dy360 2.738 . S
C382 O365 1.255 . S
C382 O366 1.249 . S
C382 C376 1.516 . S
C383 O367 1.254 . S
C383 O368 1.257 . S
C384 O369 1.266 . S
C384 O370 1.236 . S
C385 C388 1.344 . S
C385 C389 1.328 . S
C385 C391 1.516 . S
C386 C387 1.304 . S
C386 C390 1.323 . S
C387 C386 1.304 . S
C387 C388 1.371 . S
C387 H396 0.930 . S
C388 C385 1.344 . S
C388 C387 1.371 . S
C388 H397 0.931 . S
C389 C385 1.328 . S
C389 C390 1.433 . S
C389 H398 0.931 . S
C390 C386 1.323 . S
C390 C389 1.433 . S
C390 H399 0.933 . S
C391 Dy361 2.738 . S
C391 O371 1.255 . S
C391 O372 1.249 . S
C391 C385 1.516 . S
H392 C378 0.930 1_556 S
H393 C379 0.931 . S
H394 C380 0.931 . S
H395 C381 0.933 1_556 S
H396 C387 0.930 . S
H397 C388 0.931 . S
H398 C389 0.931 . S
H399 C390 0.933 . S
Dy400 O403 2.307 . S
Dy400 O405 2.395 . S
Dy400 O406 2.379 . S
Dy400 O408 2.339 . S
Dy400 O410 2.298 . S
Dy400 O414 2.275 . S
Dy400 C422 2.738 . S
Dy401 O404 2.298 . S
Dy401 O407 2.275 . S
Dy401 O409 2.307 . S
Dy401 O411 2.395 . S
Dy401 O412 2.379 . S
Dy401 O415 2.339 . S
Dy401 C431 2.738 . S
C402 O414 1.254 . S
C402 O415 1.257 . S
O403 Dy400 2.307 . S
O403 C413 1.266 . S
O404 Dy401 2.298 . S
O404 C413 1.236 . S
O405 Dy400 2.395 . S
O405 C422 1.255 . S
O406 Dy400 2.379 . S
O406 C422 1.249 . S
O407 Dy401 2.275 . S
O407 C423 1.254 . S
O408 Dy400 2.339 . S
O408 C423 1.257 . S
O409 Dy401 2.307 . S
O409 C424 1.266 . S
O410 Dy400 2.298 . S
O410 C424 1.236 . S
O411 Dy401 2.395 . S
O411 C431 1.255 . S
O412 Dy401 2.379 . S
O412 C431 1.249 . S
C413 O403 1.266 . S
C413 O404 1.236 . S
O414 Dy400 2.275 . S
O414 C402 1.254 . S
O415 Dy401 2.339 . S
O415 C402 1.257 . S
C416 C419 1.344 . S
C416 C420 1.328 . S
C416 C422 1.516 . S
C417 C418 1.304 . S
C417 C421 1.323 . S
C418 C417 1.304 . S
C418 C419 1.371 . S
C418 H432 0.930 . S
C419 C416 1.344 . S
C419 C418 1.371 . S
C419 H433 0.931 . S
C420 C416 1.328 . S
C420 C421 1.433 . S
C420 H434 0.931 . S
C421 C417 1.323 . S
C421 C420 1.433 . S
C421 H435 0.933 . S
C422 Dy400 2.738 . S
C422 O405 1.255 . S
C422 O406 1.249 . S
C422 C416 1.516 . S
C423 O407 1.254 . S
C423 O408 1.257 . S
C424 O409 1.266 . S
C424 O410 1.236 . S
C425 C428 1.344 . S
C425 C429 1.328 . S
C425 C431 1.516 . S
C426 C427 1.304 1_554 S
C426 C430 1.323 1_554 S
C427 C426 1.304 1_556 S
C427 C428 1.371 . S
C427 H436 0.930 1_556 S
C428 C425 1.344 . S
C428 C427 1.371 . S
C428 H437 0.931 . S
C429 C425 1.328 . S
C429 C430 1.433 . S
C429 H438 0.931 . S
C430 C426 1.323 1_556 S
C430 C429 1.433 . S
C430 H439 0.933 1_556 S
C431 Dy401 2.738 . S
C431 O411 1.255 . S
C431 O412 1.249 . S
C431 C425 1.516 . S
H432 C418 0.930 . S
H433 C419 0.931 . S
H434 C420 0.931 . S
H435 C421 0.933 . S
H436 C427 0.930 1_554 S
H437 C428 0.931 . S
H438 C429 0.931 . S
H439 C430 0.933 1_554 S
Dy440 O443 2.307 . S
Dy440 O445 2.395 . S
Dy440 O446 2.379 . S
Dy440 O448 2.339 . S
Dy440 O450 2.298 . S
Dy440 O454 2.275 . S
Dy440 C462 2.738 . S
Dy441 O444 2.298 . S
Dy441 O447 2.275 . S
Dy441 O449 2.307 . S
Dy441 O451 2.395 . S
Dy441 O452 2.379 . S
Dy441 O455 2.339 . S
Dy441 C471 2.738 . S
C442 O454 1.254 . S
C442 O455 1.257 . S
O443 Dy440 2.307 . S
O443 C453 1.266 . S
O444 Dy441 2.298 . S
O444 C453 1.236 . S
O445 Dy440 2.395 . S
O445 C462 1.255 . S
O446 Dy440 2.379 . S
O446 C462 1.249 . S
O447 Dy441 2.275 . S
O447 C463 1.254 . S
O448 Dy440 2.339 . S
O448 C463 1.257 . S
O449 Dy441 2.307 . S
O449 C464 1.266 . S
O450 Dy440 2.298 . S
O450 C464 1.236 . S
O451 Dy441 2.395 . S
O451 C471 1.255 . S
O452 Dy441 2.379 . S
O452 C471 1.249 . S
C453 O443 1.266 . S
C453 O444 1.236 . S
O454 Dy440 2.275 . S
O454 C442 1.254 . S
O455 Dy441 2.339 . S
O455 C442 1.257 . S
C456 C459 1.344 . S
C456 C460 1.328 . S
C456 C462 1.516 . S
C457 C458 1.304 1_556 S
C457 C461 1.323 1_556 S
C458 C457 1.304 1_554 S
C458 C459 1.371 . S
C458 H472 0.930 1_554 S
C459 C456 1.344 . S
C459 C458 1.371 . S
C459 H473 0.931 . S
C460 C456 1.328 . S
C460 C461 1.433 . S
C460 H474 0.931 . S
C461 C457 1.323 1_554 S
C461 C460 1.433 . S
C461 H475 0.933 1_554 S
C462 Dy440 2.738 . S
C462 O445 1.255 . S
C462 O446 1.249 . S
C462 C456 1.516 . S
C463 O447 1.254 . S
C463 O448 1.257 . S
C464 O449 1.266 . S
C464 O450 1.236 . S
C465 C468 1.344 . S
C465 C469 1.328 . S
C465 C471 1.516 . S
C466 C467 1.304 . S
C466 C470 1.323 . S
C467 C466 1.304 . S
C467 C468 1.371 . S
C467 H476 0.930 . S
C468 C465 1.344 . S
C468 C467 1.371 . S
C468 H477 0.931 . S
C469 C465 1.328 . S
C469 C470 1.433 . S
C469 H478 0.931 . S
C470 C466 1.323 . S
C470 C469 1.433 . S
C470 H479 0.933 . S
C471 Dy441 2.738 . S
C471 O451 1.255 . S
C471 O452 1.249 . S
C471 C465 1.516 . S
H472 C458 0.930 1_556 S
H473 C459 0.931 . S
H474 C460 0.931 . S
H475 C461 0.933 1_556 S
H476 C467 0.930 . S
H477 C468 0.931 . S
H478 C469 0.931 . S
H479 C470 0.933 . S
Dy480 O483 2.307 . S
Dy480 O485 2.395 . S
Dy480 O486 2.379 . S
Dy480 O488 2.339 . S
Dy480 O490 2.298 . S
Dy480 O494 2.275 . S
Dy480 C502 2.738 . S
Dy481 O484 2.298 . S
Dy481 O487 2.275 . S
Dy481 O489 2.307 . S
Dy481 O491 2.395 . S
Dy481 O492 2.379 . S
Dy481 O495 2.339 . S
Dy481 C511 2.738 . S
C482 O494 1.254 . S
C482 O495 1.257 . S
O483 Dy480 2.307 . S
O483 C493 1.266 . S
O484 Dy481 2.298 . S
O484 C493 1.236 . S
O485 Dy480 2.395 . S
O485 C502 1.255 . S
O486 Dy480 2.379 . S
O486 C502 1.249 . S
O487 Dy481 2.275 . S
O487 C503 1.254 . S
O488 Dy480 2.339 . S
O488 C503 1.257 . S
O489 Dy481 2.307 . S
O489 C504 1.266 . S
O490 Dy480 2.298 . S
O490 C504 1.236 . S
O491 Dy481 2.395 . S
O491 C511 1.255 . S
O492 Dy481 2.379 . S
O492 C511 1.249 . S
C493 O483 1.266 . S
C493 O484 1.236 . S
O494 Dy480 2.275 . S
O494 C482 1.254 . S
O495 Dy481 2.339 . S
O495 C482 1.257 . S
C496 C499 1.344 . S
C496 C500 1.328 . S
C496 C502 1.516 . S
C497 C498 1.304 1_554 S
C497 C501 1.323 1_554 S
C498 C497 1.304 1_556 S
C498 C499 1.371 . S
C498 H512 0.926 1_556 S
C499 C496 1.344 . S
C499 C498 1.371 . S
C499 H513 0.931 . S
C500 C496 1.328 . S
C500 C501 1.433 . S
C500 H514 0.931 . S
C501 C497 1.323 1_556 S
C501 C500 1.433 . S
C501 H515 0.933 1_556 S
C502 Dy480 2.738 . S
C502 O485 1.255 . S
C502 O486 1.249 . S
C502 C496 1.516 . S
C503 O487 1.254 . S
C503 O488 1.257 . S
C504 O489 1.266 . S
C504 O490 1.236 . S
C505 C508 1.344 . S
C505 C509 1.328 . S
C505 C511 1.516 . S
C506 C507 1.304 . S
C506 C510 1.323 . S
C507 C506 1.304 . S
C507 C508 1.371 . S
C507 H516 0.930 . S
C508 C505 1.344 . S
C508 C507 1.371 . S
C508 H517 0.931 . S
C509 C505 1.328 . S
C509 C510 1.433 . S
C509 H518 0.931 . S
C510 C506 1.323 . S
C510 C509 1.433 . S
C510 H519 0.933 . S
C511 Dy481 2.738 . S
C511 O491 1.255 . S
C511 O492 1.249 . S
C511 C505 1.516 . S
H512 C498 0.926 1_554 S
H513 C499 0.931 . S
H514 C500 0.931 . S
H515 C501 0.933 1_554 S
H516 C507 0.930 . S
H517 C508 0.931 . S
H518 C509 0.931 . S
H519 C510 0.933 . S
Dy520 O523 2.307 . S
Dy520 O525 2.395 . S
Dy520 O526 2.379 . S
Dy520 O528 2.339 . S
Dy520 O530 2.298 . S
Dy520 O534 2.275 . S
Dy520 C542 2.738 . S
Dy521 O524 2.298 . S
Dy521 O527 2.275 . S
Dy521 O529 2.307 . S
Dy521 O531 2.395 . S
Dy521 O532 2.379 . S
Dy521 O535 2.339 . S
Dy521 C551 2.738 . S
C522 O534 1.254 . S
C522 O535 1.257 . S
O523 Dy520 2.307 . S
O523 C533 1.266 . S
O524 Dy521 2.298 . S
O524 C533 1.236 . S
O525 Dy520 2.395 . S
O525 C542 1.255 . S
O526 Dy520 2.379 . S
O526 C542 1.249 . S
O527 Dy521 2.275 . S
O527 C543 1.254 . S
O528 Dy520 2.339 . S
O528 C543 1.257 . S
O529 Dy521 2.307 . S
O529 C544 1.266 . S
O530 Dy520 2.298 . S
O530 C544 1.236 . S
O531 Dy521 2.395 . S
O531 C551 1.255 . S
O532 Dy521 2.379 . S
O532 C551 1.249 . S
C533 O523 1.266 . S
C533 O524 1.236 . S
O534 Dy520 2.275 . S
O534 C522 1.254 . S
O535 Dy521 2.339 . S
O535 C522 1.257 . S
C536 C539 1.344 . S
C536 C540 1.328 . S
C536 C542 1.516 . S
C537 C538 1.304 . S
C537 C541 1.323 . S
C538 C537 1.304 . S
C538 C539 1.371 . S
C538 H552 0.930 . S
C539 C536 1.344 . S
C539 C538 1.371 . S
C539 H553 0.931 . S
C540 C536 1.328 . S
C540 C541 1.433 . S
C540 H554 0.931 . S
C541 C537 1.323 . S
C541 C540 1.433 . S
C541 H555 0.933 . S
C542 Dy520 2.738 . S
C542 O525 1.255 . S
C542 O526 1.249 . S
C542 C536 1.516 . S
C543 O527 1.254 . S
C543 O528 1.257 . S
C544 O529 1.266 . S
C544 O530 1.236 . S
C545 C548 1.344 . S
C545 C549 1.328 . S
C545 C551 1.516 . S
C546 C547 1.304 1_556 S
C546 C550 1.323 1_556 S
C547 C546 1.304 1_554 S
C547 C548 1.371 . S
C547 H556 0.926 1_554 S
C548 C545 1.344 . S
C548 C547 1.371 . S
C548 H557 0.931 . S
C549 C545 1.328 . S
C549 C550 1.433 . S
C549 H558 0.931 . S
C550 C546 1.323 1_554 S
C550 C549 1.433 . S
C550 H559 0.933 1_554 S
C551 Dy521 2.738 . S
C551 O531 1.255 . S
C551 O532 1.249 . S
C551 C545 1.516 . S
H552 C538 0.930 . S
H553 C539 0.931 . S
H554 C540 0.931 . S
H555 C541 0.933 . S
H556 C547 0.926 1_556 S
H557 C548 0.931 . S
H558 C549 0.931 . S
H559 C550 0.933 1_556 S
Dy560 O563 2.307 . S
Dy560 O565 2.395 . S
Dy560 O566 2.379 . S
Dy560 O568 2.339 . S
Dy560 O570 2.298 . S
Dy560 O574 2.275 . S
Dy560 C582 2.738 . S
Dy561 O564 2.298 . S
Dy561 O567 2.275 . S
Dy561 O569 2.307 . S
Dy561 O571 2.395 . S
Dy561 O572 2.379 . S
Dy561 O575 2.339 . S
Dy561 C591 2.738 . S
C562 O574 1.254 . S
C562 O575 1.257 . S
O563 Dy560 2.307 . S
O563 C573 1.266 . S
O564 Dy561 2.298 . S
O564 C573 1.236 . S
O565 Dy560 2.395 . S
O565 C582 1.255 . S
O566 Dy560 2.379 . S
O566 C582 1.249 . S
O567 Dy561 2.275 . S
O567 C583 1.254 . S
O568 Dy560 2.339 . S
O568 C583 1.257 . S
O569 Dy561 2.307 . S
O569 C584 1.266 . S
O570 Dy560 2.298 . S
O570 C584 1.236 . S
O571 Dy561 2.395 . S
O571 C591 1.255 . S
O572 Dy561 2.379 . S
O572 C591 1.249 . S
C573 O563 1.266 . S
C573 O564 1.236 . S
O574 Dy560 2.275 . S
O574 C562 1.254 . S
O575 Dy561 2.339 . S
O575 C562 1.257 . S
C576 C579 1.344 . S
C576 C580 1.328 . S
C576 C582 1.516 . S
C577 C578 1.304 1_554 S
C577 C581 1.323 1_554 S
C578 C577 1.304 1_556 S
C578 C579 1.371 . S
C578 H592 0.926 1_556 S
C579 C576 1.344 . S
C579 C578 1.371 . S
C579 H593 0.931 . S
C580 C576 1.328 . S
C580 C581 1.433 . S
C580 H594 0.931 . S
C581 C577 1.323 1_556 S
C581 C580 1.433 . S
C581 H595 0.933 1_556 S
C582 Dy560 2.738 . S
C582 O565 1.255 . S
C582 O566 1.249 . S
C582 C576 1.516 . S
C583 O567 1.254 . S
C583 O568 1.257 . S
C584 O569 1.266 . S
C584 O570 1.236 . S
C585 C588 1.344 . S
C585 C589 1.328 . S
C585 C591 1.516 . S
C586 C587 1.304 . S
C586 C590 1.323 . S
C587 C586 1.304 . S
C587 C588 1.371 . S
C587 H596 0.930 . S
C588 C585 1.344 . S
C588 C587 1.371 . S
C588 H597 0.931 . S
C589 C585 1.328 . S
C589 C590 1.433 . S
C589 H598 0.931 . S
C590 C586 1.323 . S
C590 C589 1.433 . S
C590 H599 0.933 . S
C591 Dy561 2.738 . S
C591 O571 1.255 . S
C591 O572 1.249 . S
C591 C585 1.516 . S
H592 C578 0.926 1_554 S
H593 C579 0.931 . S
H594 C580 0.931 . S
H595 C581 0.933 1_554 S
H596 C587 0.930 . S
H597 C588 0.931 . S
H598 C589 0.931 . S
H599 C590 0.933 . S
Dy600 O603 2.307 . S
Dy600 O605 2.395 . S
Dy600 O606 2.379 . S
Dy600 O608 2.339 . S
Dy600 O610 2.298 . S
Dy600 O614 2.275 . S
Dy600 C622 2.738 . S
Dy601 O604 2.298 . S
Dy601 O607 2.275 . S
Dy601 O609 2.307 . S
Dy601 O611 2.395 . S
Dy601 O612 2.379 . S
Dy601 O615 2.339 . S
Dy601 C631 2.738 . S
C602 O614 1.254 . S
C602 O615 1.257 . S
O603 Dy600 2.307 . S
O603 C613 1.266 . S
O604 Dy601 2.298 . S
O604 C613 1.236 . S
O605 Dy600 2.395 . S
O605 C622 1.255 . S
O606 Dy600 2.379 . S
O606 C622 1.249 . S
O607 Dy601 2.275 . S
O607 C623 1.254 . S
O608 Dy600 2.339 . S
O608 C623 1.257 . S
O609 Dy601 2.307 . S
O609 C624 1.266 . S
O610 Dy600 2.298 . S
O610 C624 1.236 . S
O611 Dy601 2.395 . S
O611 C631 1.255 . S
O612 Dy601 2.379 . S
O612 C631 1.249 . S
C613 O603 1.266 . S
C613 O604 1.236 . S
O614 Dy600 2.275 . S
O614 C602 1.254 . S
O615 Dy601 2.339 . S
O615 C602 1.257 . S
C616 C619 1.344 . S
C616 C620 1.328 . S
C616 C622 1.516 . S
C617 C618 1.304 . S
C617 C621 1.323 . S
C618 C617 1.304 . S
C618 C619 1.371 . S
C618 H632 0.930 . S
C619 C616 1.344 . S
C619 C618 1.371 . S
C619 H633 0.931 . S
C620 C616 1.328 . S
C620 C621 1.433 . S
C620 H634 0.931 . S
C621 C617 1.323 . S
C621 C620 1.433 . S
C621 H635 0.933 . S
C622 Dy600 2.738 . S
C622 O605 1.255 . S
C622 O606 1.249 . S
C622 C616 1.516 . S
C623 O607 1.254 . S
C623 O608 1.257 . S
C624 O609 1.266 . S
C624 O610 1.236 . S
C625 C628 1.344 . S
C625 C629 1.328 . S
C625 C631 1.516 . S
C626 C627 1.304 1_556 S
C626 C630 1.323 1_556 S
C627 C626 1.304 1_554 S
C627 C628 1.371 . S
C627 H636 0.926 1_554 S
C628 C625 1.344 . S
C628 C627 1.371 . S
C628 H637 0.931 . S
C629 C625 1.328 . S
C629 C630 1.433 . S
C629 H638 0.931 . S
C630 C626 1.323 1_554 S
C630 C629 1.433 . S
C630 H639 0.933 1_554 S
C631 Dy601 2.738 . S
C631 O611 1.255 . S
C631 O612 1.249 . S
C631 C625 1.516 . S
H632 C618 0.930 . S
H633 C619 0.931 . S
H634 C620 0.931 . S
H635 C621 0.933 . S
H636 C627 0.926 1_556 S
H637 C628 0.931 . S
H638 C629 0.931 . S
H639 C630 0.933 1_556 S
C640 C641 1.369 . S
C640 C642 1.419 . S
C640 H644 0.930 . S
C641 C640 1.369 . S
C641 C650 1.429 . S
C642 C640 1.419 . S
C642 C643 1.363 . S
C642 H645 0.929 . S
C643 C642 1.363 . S
C643 C649 1.432 . S
H644 C640 0.930 . S
H645 C642 0.929 . S
S646 N647 1.613 1_545 S
S646 N648 1.610 . S
N647 S646 1.613 1_565 S
N647 C650 1.350 . S
N648 S646 1.610 . S
N648 C649 1.327 1_545 S
C649 C643 1.432 . S
C649 N648 1.327 1_565 S
C649 C650 1.456 . S
C650 C641 1.429 . S
C650 N647 1.350 . S
C650 C649 1.456 . S
C651 C652 1.369 . S
C651 C653 1.419 . S
C651 H655 0.930 . S
C652 C651 1.369 . S
C652 C661 1.429 . S
C653 C651 1.419 . S
C653 C654 1.363 . S
C653 H656 0.929 1_655 S
C654 C653 1.363 . S
C654 C660 1.428 . S
H655 C651 0.930 . S
H656 C653 0.929 1_455 S
S657 N658 1.613 . S
S657 N659 1.610 . S
N658 S657 1.613 . S
N658 C661 1.350 . S
N659 S657 1.610 . S
N659 C660 1.351 . S
C660 C654 1.428 . S
C660 N659 1.351 . S
C660 C661 1.434 . S
C661 C652 1.429 . S
C661 N658 1.350 . S
C661 C660 1.434 . S
C662 C663 1.369 . S
C662 C664 1.419 . S
C662 H666 0.930 . S
C663 C662 1.369 . S
C663 C672 1.429 . S
C664 C662 1.419 . S
C664 C665 1.363 . S
C664 H667 0.929 . S
C665 C664 1.363 . S
C665 C671 1.428 . S
H666 C662 0.930 . S
H667 C664 0.929 . S
S668 N669 1.613 . S
S668 N670 1.610 . S
N669 S668 1.613 . S
N669 C672 1.350 . S
N670 S668 1.610 . S
N670 C671 1.351 . S
C671 C665 1.428 . S
C671 N670 1.351 . S
C671 C672 1.434 . S
C672 C663 1.429 . S
C672 N669 1.350 . S
C672 C671 1.434 . S
C673 C674 1.369 . S
C673 C675 1.419 . S
C673 H677 0.930 . S
C674 C673 1.369 . S
C674 C683 1.429 . S
C675 C673 1.419 . S
C675 C676 1.363 . S
C675 H678 0.929 . S
C676 C675 1.363 . S
C676 C682 1.428 . S
H677 C673 0.930 . S
H678 C675 0.929 . S
S679 N680 1.613 . S
S679 N681 1.610 1_655 S
N680 S679 1.613 . S
N680 C683 1.350 1_655 S
N681 S679 1.610 1_455 S
N681 C682 1.351 . S
C682 C676 1.428 . S
C682 N681 1.351 . S
C682 C683 1.434 . S
C683 C674 1.429 . S
C683 N680 1.350 1_455 S
C683 C682 1.434 . S
C684 C685 1.369 . S
C684 C686 1.419 . S
C684 H688 0.930 . S
C685 C684 1.369 . S
C685 C694 1.429 . S
C686 C684 1.419 . S
C686 C687 1.363 1_554 S
C686 H689 0.929 . S
C687 C686 1.363 1_556 S
C687 C693 1.428 1_556 S
H688 C684 0.930 . S
H689 C686 0.929 . S
S690 N691 1.613 . S
S690 N692 1.610 1_554 S
N691 S690 1.613 . S
N691 C694 1.350 . S
N692 S690 1.610 1_556 S
N692 C693 1.351 1_556 S
C693 C687 1.428 1_554 S
C693 N692 1.351 1_554 S
C693 C694 1.434 . S
C694 C685 1.429 . S
C694 N691 1.350 . S
C694 C693 1.434 . S
C695 C696 1.369 1_556 S
C695 C697 1.419 . S
C695 H699 0.930 . S
C696 C695 1.369 1_554 S
C696 C705 1.429 . S
C697 C695 1.419 . S
C697 C698 1.363 . S
C697 H700 0.929 . S
C698 C697 1.363 . S
C698 C704 1.428 . S
H699 C695 0.930 . S
H700 C697 0.929 . S
S701 N702 1.613 . S
S701 N703 1.610 . S
N702 S701 1.613 . S
N702 C705 1.350 . S
N703 S701 1.610 . S
N703 C704 1.351 1_554 S
C704 C698 1.428 . S
C704 N703 1.351 1_556 S
C704 C705 1.434 1_556 S
C705 C696 1.429 . S
C705 N702 1.350 . S
C705 C704 1.434 1_554 S
C706 C707 1.369 . S
C706 C708 1.419 1_554 S
C706 H710 0.930 1_554 S
C707 C706 1.369 . S
C707 C716 1.429 . S
C708 C706 1.419 1_556 S
C708 C709 1.363 . S
C708 H711 0.929 . S
C709 C708 1.363 . S
C709 C715 1.428 1_556 S
H710 C706 0.930 1_556 S
H711 C708 0.929 . S
S712 N713 1.613 . S
S712 N714 1.610 . S
N713 S712 1.613 . S
N713 C716 1.350 . S
N714 S712 1.610 . S
N714 C715 1.351 . S
C715 C709 1.428 1_554 S
C715 N714 1.351 . S
C715 C716 1.434 . S
C716 C707 1.429 . S
C716 N713 1.350 . S
C716 C715 1.434 . S
C717 C718 1.369 1_556 S
C717 C719 1.419 . S
C717 H721 0.930 . S
C718 C717 1.369 1_554 S
C718 C727 1.429 . S
C719 C717 1.419 . S
C719 C720 1.363 . S
C719 H722 0.929 . S
C720 C719 1.363 . S
C720 C726 1.428 . S
H721 C717 0.930 . S
H722 C719 0.929 . S
S723 N724 1.613 . S
S723 N725 1.610 1_554 S
N724 S723 1.613 . S
N724 C727 1.350 . S
N725 S723 1.610 1_556 S
N725 C726 1.351 . S
C726 C720 1.428 . S
C726 N725 1.351 . S
C726 C727 1.434 1_556 S
C727 C718 1.429 . S
C727 N724 1.350 . S
C727 C726 1.434 1_554 S
C728 C729 1.369 . S
C728 C730 1.419 . S
C728 H732 0.930 . S
C729 C728 1.369 . S
C729 C738 1.429 . S
C730 C728 1.419 . S
C730 C731 1.363 . S
C730 H733 0.929 . S
C731 C730 1.363 . S
C731 C737 1.428 . S
H732 C728 0.930 . S
H733 C730 0.929 . S
S734 N735 1.613 . S
S734 N736 1.610 . S
N735 S734 1.613 . S
N735 C738 1.350 . S
N736 S734 1.610 . S
N736 C737 1.351 . S
C737 C731 1.428 . S
C737 N736 1.351 . S
C737 C738 1.434 . S
C738 C729 1.429 . S
C738 N735 1.350 . S
C738 C737 1.434 . S
C739 C740 1.369 . S
C739 C741 1.419 . S
C739 H743 0.930 . S
C740 C739 1.369 . S
C740 C749 1.429 . S
C741 C739 1.419 . S
C741 C742 1.363 . S
C741 H744 0.929 . S
C742 C741 1.363 . S
C742 C748 1.428 . S
H743 C739 0.930 . S
H744 C741 0.929 . S
S745 N746 1.613 . S
S745 N747 1.610 . S
N746 S745 1.613 . S
N746 C749 1.350 . S
N747 S745 1.610 . S
N747 C748 1.351 . S
C748 C742 1.428 . S
C748 N747 1.351 . S
C748 C749 1.434 . S
C749 C740 1.429 . S
C749 N746 1.350 . S
C749 C748 1.434 . S
C750 C751 1.369 . S
C750 C752 1.419 . S
C750 H754 0.930 . S
C751 C750 1.369 . S
C751 C760 1.429 . S
C752 C750 1.419 . S
C752 C753 1.363 . S
C752 H755 0.929 . S
C753 C752 1.363 . S
C753 C759 1.428 . S
H754 C750 0.930 . S
H755 C752 0.929 . S
S756 N757 1.613 . S
S756 N758 1.610 . S
N757 S756 1.613 . S
N757 C760 1.350 . S
N758 S756 1.610 . S
N758 C759 1.351 . S
C759 C753 1.428 . S
C759 N758 1.351 . S
C759 C760 1.434 . S
C760 C751 1.429 . S
C760 N757 1.350 . S
C760 C759 1.434 . S
C761 C762 1.369 . S
C761 C763 1.419 . S
C761 H765 0.930 . S
C762 C761 1.369 . S
C762 C771 1.429 . S
C763 C761 1.419 . S
C763 C764 1.363 . S
C763 H766 0.929 . S
C764 C763 1.363 . S
C764 C770 1.428 . S
H765 C761 0.930 . S
H766 C763 0.929 . S
S767 N768 1.613 . S
S767 N769 1.610 . S
N768 S767 1.613 . S
N768 C771 1.350 . S
N769 S767 1.610 . S
N769 C770 1.351 . S
C770 C764 1.428 . S
C770 N769 1.351 . S
C770 C771 1.434 . S
C771 C762 1.429 . S
C771 N768 1.350 . S
C771 C770 1.434 . S
C772 C773 1.369 . S
C772 C774 1.419 . S
C772 H776 0.930 . S
C773 C772 1.369 . S
C773 C782 1.429 . S
C774 C772 1.419 . S
C774 C775 1.363 . S
C774 H777 0.929 . S
C775 C774 1.363 . S
C775 C781 1.428 . S
H776 C772 0.930 . S
H777 C774 0.929 . S
S778 N779 1.613 1_545 S
S778 N780 1.610 . S
N779 S778 1.613 1_565 S
N779 C782 1.350 1_565 S
N780 S778 1.610 . S
N780 C781 1.351 . S
C781 C775 1.428 . S
C781 N780 1.351 . S
C781 C782 1.434 . S
C782 C773 1.429 . S
C782 N779 1.350 1_545 S
C782 C781 1.434 . S
C783 C784 1.369 . S
C783 C785 1.419 . S
C783 H787 0.930 . S
C784 C783 1.369 . S
C784 C793 1.429 . S
C785 C783 1.419 . S
C785 C786 1.363 . S
C785 H788 0.929 . S
C786 C785 1.363 . S
C786 C792 1.428 . S
H787 C783 0.930 . S
H788 C785 0.929 . S
S789 N790 1.613 1_655 S
S789 N791 1.610 . S
N790 S789 1.613 1_455 S
N790 C793 1.350 . S
N791 S789 1.610 . S
N791 C792 1.351 1_655 S
C792 C786 1.428 . S
C792 N791 1.351 1_455 S
C792 C793 1.434 . S
C793 C784 1.429 . S
C793 N790 1.350 . S
C793 C792 1.434 . S
C794 C795 1.369 . S
C794 C796 1.419 . S
C794 H798 0.930 . S
C795 C794 1.369 . S
C795 C804 1.429 . S
C796 C794 1.419 . S
C796 C797 1.363 . S
C796 H799 0.929 1_565 S
C797 C796 1.363 . S
C797 C803 1.428 . S
H798 C794 0.930 . S
H799 C796 0.929 1_545 S
S800 N801 1.613 . S
S800 N802 1.610 . S
N801 S800 1.613 . S
N801 C804 1.350 . S
N802 S800 1.610 . S
N802 C803 1.351 . S
C803 C797 1.428 . S
C803 N802 1.351 . S
C803 C804 1.434 . S
C804 C795 1.429 . S
C804 N801 1.350 . S
C804 C803 1.434 . S
C805 C806 1.369 . S
C805 C807 1.419 . S
C805 H809 0.930 1_655 S
C806 C805 1.369 . S
C806 C815 1.429 . S
C807 C805 1.419 . S
C807 C808 1.363 . S
C807 H810 0.929 . S
C808 C807 1.363 . S
C808 C814 1.428 . S
H809 C805 0.930 1_455 S
H810 C807 0.929 . S
S811 N812 1.613 . S
S811 N813 1.610 . S
N812 S811 1.613 . S
N812 C815 1.350 . S
N813 S811 1.610 . S
N813 C814 1.351 . S
C814 C808 1.428 . S
C814 N813 1.351 . S
C814 C815 1.434 . S
C815 C806 1.429 . S
C815 N812 1.350 . S
C815 C814 1.434 . S
C816 C817 1.369 . S
C816 C818 1.419 . S
C816 H820 0.930 . S
C817 C816 1.369 . S
C817 C826 1.429 . S
C818 C816 1.419 . S
C818 C819 1.363 . S
C818 H821 0.929 . S
C819 C818 1.363 . S
C819 C825 1.428 . S
H820 C816 0.930 . S
H821 C818 0.929 . S
S822 N823 1.613 . S
S822 N824 1.610 . S
N823 S822 1.613 . S
N823 C826 1.350 . S
N824 S822 1.610 . S
N824 C825 1.351 . S
C825 C819 1.428 . S
C825 N824 1.351 . S
C825 C826 1.434 . S
C826 C817 1.429 . S
C826 N823 1.350 . S
C826 C825 1.434 . S
C827 C828 1.369 . S
C827 C829 1.419 . S
C827 H831 0.930 . S
C828 C827 1.369 . S
C828 C837 1.429 . S
C829 C827 1.419 . S
C829 C830 1.363 . S
C829 H832 0.929 . S
C830 C829 1.363 . S
C830 C836 1.428 . S
H831 C827 0.930 . S
H832 C829 0.929 . S
S833 N834 1.613 . S
S833 N835 1.610 . S
N834 S833 1.613 . S
N834 C837 1.350 . S
N835 S833 1.610 . S
N835 C836 1.351 . S
C836 C830 1.428 . S
C836 N835 1.351 . S
C836 C837 1.434 . S
C837 C828 1.429 . S
C837 N834 1.350 . S
C837 C836 1.434 . S
C838 C839 1.369 . S
C838 C840 1.419 . S
C838 H842 0.930 . S
C839 C838 1.369 . S
C839 C848 1.429 . S
C840 C838 1.419 . S
C840 C841 1.363 . S
C840 H843 0.929 . S
C841 C840 1.363 . S
C841 C847 1.428 . S
H842 C838 0.930 . S
H843 C840 0.929 . S
S844 N845 1.613 . S
S844 N846 1.610 . S
N845 S844 1.613 . S
N845 C848 1.350 . S
N846 S844 1.610 . S
N846 C847 1.351 . S
C847 C841 1.428 . S
C847 N846 1.351 . S
C847 C848 1.434 . S
C848 C839 1.429 . S
C848 N845 1.350 . S
C848 C847 1.434 . S
C849 C850 1.369 . S
C849 C851 1.419 . S
C849 H853 0.930 . S
C850 C849 1.369 . S
C850 C859 1.429 . S
C851 C849 1.419 . S
C851 C852 1.363 . S
C851 H854 0.929 . S
C852 C851 1.363 . S
C852 C858 1.428 . S
H853 C849 0.930 . S
H854 C851 0.929 . S
S855 N856 1.613 . S
S855 N857 1.610 . S
N856 S855 1.613 . S
N856 C859 1.350 . S
N857 S855 1.610 . S
N857 C858 1.351 . S
C858 C852 1.428 . S
C858 N857 1.351 . S
C858 C859 1.434 . S
C859 C850 1.429 . S
C859 N856 1.350 . S
C859 C858 1.434 . S
C860 C861 1.369 . S
C860 C862 1.419 . S
C860 H864 0.930 . S
C861 C860 1.369 . S
C861 C870 1.429 . S
C862 C860 1.419 . S
C862 C863 1.363 . S
C862 H865 0.929 . S
C863 C862 1.363 . S
C863 C869 1.428 . S
H864 C860 0.930 . S
H865 C862 0.929 . S
S866 N867 1.613 . S
S866 N868 1.610 . S
N867 S866 1.613 . S
N867 C870 1.350 . S
N868 S866 1.610 . S
N868 C869 1.351 . S
C869 C863 1.428 . S
C869 N868 1.351 . S
C869 C870 1.434 . S
C870 C861 1.429 . S
C870 N867 1.350 . S
C870 C869 1.434 . S
C871 C872 1.369 . S
C871 C873 1.419 . S
C871 H875 0.930 . S
C872 C871 1.369 . S
C872 C881 1.429 . S
C873 C871 1.419 . S
C873 C874 1.363 . S
C873 H876 0.929 . S
C874 C873 1.363 . S
C874 C880 1.428 . S
H875 C871 0.930 . S
H876 C873 0.929 . S
S877 N878 1.613 . S
S877 N879 1.610 . S
N878 S877 1.613 . S
N878 C881 1.350 . S
N879 S877 1.610 . S
N879 C880 1.351 . S
C880 C874 1.428 . S
C880 N879 1.351 . S
C880 C881 1.434 . S
C881 C872 1.429 . S
C881 N878 1.350 . S
C881 C880 1.434 . S
C882 C883 1.369 . S
C882 C884 1.419 . S
C882 H886 0.930 . S
C883 C882 1.369 . S
C883 C892 1.429 . S
C884 C882 1.419 . S
C884 C885 1.363 . S
C884 H887 0.929 . S
C885 C884 1.363 . S
C885 C891 1.428 . S
H886 C882 0.930 . S
H887 C884 0.929 . S
S888 N889 1.613 . S
S888 N890 1.610 . S
N889 S888 1.613 . S
N889 C892 1.350 . S
N890 S888 1.610 . S
N890 C891 1.351 . S
C891 C885 1.428 . S
C891 N890 1.351 . S
C891 C892 1.434 . S
C892 C883 1.429 . S
C892 N889 1.350 . S
C892 C891 1.434 . S
C893 C894 1.369 . S
C893 C895 1.419 . S
C893 H897 0.930 . S
C894 C893 1.369 . S
C894 C903 1.429 . S
C895 C893 1.419 . S
C895 C896 1.363 . S
C895 H898 0.929 . S
C896 C895 1.363 . S
C896 C902 1.428 . S
H897 C893 0.930 . S
H898 C895 0.929 . S
S899 N900 1.613 . S
S899 N901 1.610 . S
N900 S899 1.613 . S
N900 C903 1.350 . S
N901 S899 1.610 . S
N901 C902 1.351 . S
C902 C896 1.428 . S
C902 N901 1.351 . S
C902 C903 1.434 . S
C903 C894 1.429 . S
C903 N900 1.350 . S
C903 C902 1.434 . S
C904 C905 1.369 . S
C904 C906 1.419 . S
C904 H908 0.930 . S
C905 C904 1.369 . S
C905 C914 1.429 . S
C906 C904 1.419 . S
C906 C907 1.363 . S
C906 H909 0.929 . S
C907 C906 1.363 . S
C907 C913 1.428 . S
H908 C904 0.930 . S
H909 C906 0.929 . S
S910 N911 1.613 . S
S910 N912 1.610 . S
N911 S910 1.613 . S
N911 C914 1.350 . S
N912 S910 1.610 . S
N912 C913 1.351 . S
C913 C907 1.428 . S
C913 N912 1.351 . S
C913 C914 1.434 . S
C914 C905 1.429 . S
C914 N911 1.350 . S
C914 C913 1.434 . S
C915 C916 1.369 . S
C915 C917 1.419 . S
C915 H919 0.930 . S
C916 C915 1.369 . S
C916 C925 1.429 . S
C917 C915 1.419 . S
C917 C918 1.363 . S
C917 H920 0.929 . S
C918 C917 1.363 . S
C918 C924 1.428 . S
H919 C915 0.930 . S
H920 C917 0.929 . S
S921 N922 1.613 . S
S921 N923 1.610 . S
N922 S921 1.613 . S
N922 C925 1.350 . S
N923 S921 1.610 . S
N923 C924 1.351 . S
C924 C918 1.428 . S
C924 N923 1.351 . S
C924 C925 1.434 . S
C925 C916 1.429 . S
C925 N922 1.350 . S
C925 C924 1.434 . S
C926 C927 1.369 . S
C926 C928 1.419 . S
C926 H930 0.930 . S
C927 C926 1.369 . S
C927 C936 1.429 . S
C928 C926 1.419 . S
C928 C929 1.363 . S
C928 H931 0.929 . S
C929 C928 1.363 . S
C929 C935 1.428 . S
H930 C926 0.930 . S
H931 C928 0.929 . S
S932 N933 1.613 . S
S932 N934 1.610 . S
N933 S932 1.613 . S
N933 C936 1.350 . S
N934 S932 1.610 . S
N934 C935 1.351 . S
C935 C929 1.428 . S
C935 N934 1.351 . S
C935 C936 1.434 . S
C936 C927 1.429 . S
C936 N933 1.350 . S
C936 C935 1.434 . S
C937 C938 1.369 . S
C937 C939 1.419 . S
C937 H941 0.930 . S
C938 C937 1.369 . S
C938 C947 1.429 . S
C939 C937 1.419 . S
C939 C940 1.363 . S
C939 H942 0.929 . S
C940 C939 1.363 . S
C940 C946 1.428 . S
H941 C937 0.930 . S
H942 C939 0.929 . S
S943 N944 1.613 . S
S943 N945 1.610 . S
N944 S943 1.613 . S
N944 C947 1.350 . S
N945 S943 1.610 . S
N945 C946 1.351 . S
C946 C940 1.428 . S
C946 N945 1.351 . S
C946 C947 1.434 . S
C947 C938 1.429 . S
C947 N944 1.350 . S
C947 C946 1.434 . S
C948 C949 1.369 . S
C948 C950 1.419 . S
C948 H952 0.930 . S
C949 C948 1.369 . S
C949 C958 1.429 . S
C950 C948 1.419 . S
C950 C951 1.363 . S
C950 H953 0.929 . S
C951 C950 1.363 . S
C951 C957 1.428 . S
H952 C948 0.930 . S
H953 C950 0.929 . S
S954 N955 1.613 . S
S954 N956 1.610 . S
N955 S954 1.613 . S
N955 C958 1.350 . S
N956 S954 1.610 . S
N956 C957 1.351 . S
C957 C951 1.428 . S
C957 N956 1.351 . S
C957 C958 1.434 . S
C958 C949 1.429 . S
C958 N955 1.350 . S
C958 C957 1.434 . S
C959 C960 1.369 . S
C959 C961 1.419 . S
C959 H963 0.930 . S
C960 C959 1.369 . S
C960 C969 1.429 . S
C961 C959 1.419 . S
C961 C962 1.363 . S
C961 H964 0.929 . S
C962 C961 1.363 . S
C962 C968 1.428 . S
H963 C959 0.930 . S
H964 C961 0.929 . S
S965 N966 1.613 . S
S965 N967 1.610 . S
N966 S965 1.613 . S
N966 C969 1.350 . S
N967 S965 1.610 . S
N967 C968 1.351 . S
C968 C962 1.428 . S
C968 N967 1.351 . S
C968 C969 1.434 . S
C969 C960 1.429 . S
C969 N966 1.350 . S
C969 C968 1.434 . S
C970 C971 1.369 . S
C970 C972 1.419 . S
C970 H974 0.930 . S
C971 C970 1.369 . S
C971 C980 1.429 . S
C972 C970 1.419 . S
C972 C973 1.363 . S
C972 H975 0.929 . S
C973 C972 1.363 . S
C973 C979 1.428 . S
H974 C970 0.930 . S
H975 C972 0.929 . S
S976 N977 1.613 . S
S976 N978 1.610 . S
N977 S976 1.613 . S
N977 C980 1.350 . S
N978 S976 1.610 . S
N978 C979 1.351 . S
C979 C973 1.428 . S
C979 N978 1.351 . S
C979 C980 1.434 . S
C980 C971 1.429 . S
C980 N977 1.350 . S
C980 C979 1.434 . S
C981 C982 1.369 . S
C981 C983 1.419 . S
C981 H985 0.930 . S
C982 C981 1.369 . S
C982 C991 1.429 . S
C983 C981 1.419 . S
C983 C984 1.363 . S
C983 H986 0.929 . S
C984 C983 1.363 . S
C984 C990 1.428 . S
H985 C981 0.930 . S
H986 C983 0.929 . S
S987 N988 1.613 . S
S987 N989 1.610 . S
N988 S987 1.613 . S
N988 C991 1.350 . S
N989 S987 1.610 . S
N989 C990 1.351 . S
C990 C984 1.428 . S
C990 N989 1.351 . S
C990 C991 1.434 . S
C991 C982 1.429 . S
C991 N988 1.350 . S
C991 C990 1.434 . S
C992 C993 1.369 . S
C992 C994 1.419 . S
C992 H996 0.930 . S
C993 C992 1.369 . S
C993 C1002 1.429 . S
C994 C992 1.419 . S
C994 C995 1.363 . S
C994 H997 0.929 . S
C995 C994 1.363 . S
C995 C1001 1.428 . S
H996 C992 0.930 . S
H997 C994 0.929 . S
S998 N999 1.613 . S
S998 N1000 1.610 . S
N999 S998 1.613 . S
N999 C1002 1.350 . S
N1000 S998 1.610 . S
N1000 C1001 1.351 . S
C1001 C995 1.428 . S
C1001 N1000 1.351 . S
C1001 C1002 1.434 . S
C1002 C993 1.429 . S
C1002 N999 1.350 . S
C1002 C1001 1.434 . S
C1003 C1004 1.369 . S
C1003 C1005 1.419 . S
C1003 H1007 0.930 . S
C1004 C1003 1.369 . S
C1004 C1013 1.429 . S
C1005 C1003 1.419 . S
C1005 C1006 1.363 . S
C1005 H1008 0.929 . S
C1006 C1005 1.363 . S
C1006 C1012 1.428 . S
H1007 C1003 0.930 . S
H1008 C1005 0.929 . S
S1009 N1010 1.613 . S
S1009 N1011 1.610 . S
N1010 S1009 1.613 . S
N1010 C1013 1.350 . S
N1011 S1009 1.610 . S
N1011 C1012 1.351 . S
C1012 C1006 1.428 . S
C1012 N1011 1.351 . S
C1012 C1013 1.434 . S
C1013 C1004 1.429 . S
C1013 N1010 1.350 . S
C1013 C1012 1.434 . S
C1014 C1015 1.369 . S
C1014 C1016 1.419 . S
C1014 H1018 0.930 . S
C1015 C1014 1.369 . S
C1015 C1024 1.429 . S
C1016 C1014 1.419 . S
C1016 C1017 1.363 . S
C1016 H1019 0.929 . S
C1017 C1016 1.363 . S
C1017 C1023 1.428 . S
H1018 C1014 0.930 . S
H1019 C1016 0.929 . S
S1020 N1021 1.613 . S
S1020 N1022 1.610 . S
N1021 S1020 1.613 . S
N1021 C1024 1.350 . S
N1022 S1020 1.610 . S
N1022 C1023 1.351 . S
C1023 C1017 1.428 . S
C1023 N1022 1.351 . S
C1023 C1024 1.434 . S
C1024 C1015 1.429 . S
C1024 N1021 1.350 . S
C1024 C1023 1.434 . S
C1025 C1026 1.369 . S
C1025 C1027 1.419 . S
C1025 H1029 0.930 . S
C1026 C1025 1.369 . S
C1026 C1035 1.429 . S
C1027 C1025 1.419 . S
C1027 C1028 1.363 . S
C1027 H1030 0.929 . S
C1028 C1027 1.363 . S
C1028 C1034 1.428 . S
H1029 C1025 0.930 . S
H1030 C1027 0.929 . S
S1031 N1032 1.613 . S
S1031 N1033 1.610 . S
N1032 S1031 1.613 . S
N1032 C1035 1.350 . S
N1033 S1031 1.610 . S
N1033 C1034 1.351 . S
C1034 C1028 1.428 . S
C1034 N1033 1.351 . S
C1034 C1035 1.434 . S
C1035 C1026 1.429 . S
C1035 N1032 1.350 . S
C1035 C1034 1.434 . S
C1036 C1037 1.369 . S
C1036 C1038 1.419 . S
C1036 H1040 0.930 . S
C1037 C1036 1.369 . S
C1037 C1046 1.429 . S
C1038 C1036 1.419 . S
C1038 C1039 1.363 . S
C1038 H1041 0.929 . S
C1039 C1038 1.363 . S
C1039 C1045 1.428 . S
H1040 C1036 0.930 . S
H1041 C1038 0.929 . S
S1042 N1043 1.613 . S
S1042 N1044 1.610 . S
N1043 S1042 1.613 . S
N1043 C1046 1.350 . S
N1044 S1042 1.610 . S
N1044 C1045 1.351 . S
C1045 C1039 1.428 . S
C1045 N1044 1.351 . S
C1045 C1046 1.434 . S
C1046 C1037 1.429 . S
C1046 N1043 1.350 . S
C1046 C1045 1.434 . S
C1047 C1048 1.369 . S
C1047 C1049 1.419 . S
C1047 H1051 0.930 . S
C1048 C1047 1.369 . S
C1048 C1057 1.429 . S
C1049 C1047 1.419 . S
C1049 C1050 1.363 . S
C1049 H1052 0.929 . S
C1050 C1049 1.363 . S
C1050 C1056 1.428 . S
H1051 C1047 0.930 . S
H1052 C1049 0.929 . S
S1053 N1054 1.613 . S
S1053 N1055 1.610 . S
N1054 S1053 1.613 . S
N1054 C1057 1.350 . S
N1055 S1053 1.610 . S
N1055 C1056 1.351 . S
C1056 C1050 1.428 . S
C1056 N1055 1.351 . S
C1056 C1057 1.434 . S
C1057 C1048 1.429 . S
C1057 N1054 1.350 . S
C1057 C1056 1.434 . S
C1058 C1059 1.369 . S
C1058 C1060 1.419 . S
C1058 H1062 0.930 . S
C1059 C1058 1.369 . S
C1059 C1068 1.429 . S
C1060 C1058 1.419 . S
C1060 C1061 1.363 . S
C1060 H1063 0.929 . S
C1061 C1060 1.363 . S
C1061 C1067 1.428 . S
H1062 C1058 0.930 . S
H1063 C1060 0.929 . S
S1064 N1065 1.613 . S
S1064 N1066 1.610 . S
N1065 S1064 1.613 . S
N1065 C1068 1.350 . S
N1066 S1064 1.610 . S
N1066 C1067 1.351 . S
C1067 C1061 1.428 . S
C1067 N1066 1.351 . S
C1067 C1068 1.434 . S
C1068 C1059 1.429 . S
C1068 N1065 1.350 . S
C1068 C1067 1.434 . S
C1069 C1070 1.369 . S
C1069 C1071 1.419 . S
C1069 H1073 0.930 . S
C1070 C1069 1.369 . S
C1070 C1079 1.429 . S
C1071 C1069 1.419 . S
C1071 C1072 1.363 . S
C1071 H1074 0.929 . S
C1072 C1071 1.363 . S
C1072 C1078 1.428 . S
H1073 C1069 0.930 . S
H1074 C1071 0.929 . S
S1075 N1076 1.613 . S
S1075 N1077 1.610 . S
N1076 S1075 1.613 . S
N1076 C1079 1.350 . S
N1077 S1075 1.610 . S
N1077 C1078 1.351 . S
C1078 C1072 1.428 . S
C1078 N1077 1.351 . S
C1078 C1079 1.434 . S
C1079 C1070 1.429 . S
C1079 N1076 1.350 . S
C1079 C1078 1.434 . S
C1080 C1081 1.369 . S
C1080 C1082 1.419 . S
C1080 H1084 0.930 . S
C1081 C1080 1.369 . S
C1081 C1090 1.429 . S
C1082 C1080 1.419 . S
C1082 C1083 1.363 . S
C1082 H1085 0.929 . S
C1083 C1082 1.363 . S
C1083 C1089 1.428 . S
H1084 C1080 0.930 . S
H1085 C1082 0.929 . S
S1086 N1087 1.613 . S
S1086 N1088 1.610 . S
N1087 S1086 1.613 . S
N1087 C1090 1.350 . S
N1088 S1086 1.610 . S
N1088 C1089 1.351 . S
C1089 C1083 1.428 . S
C1089 N1088 1.351 . S
C1089 C1090 1.434 . S
C1090 C1081 1.429 . S
C1090 N1087 1.350 . S
C1090 C1089 1.434 . S
C1091 C1092 1.369 . S
C1091 C1093 1.419 . S
C1091 H1095 0.930 . S
C1092 C1091 1.369 . S
C1092 C1101 1.429 . S
C1093 C1091 1.419 . S
C1093 C1094 1.363 . S
C1093 H1096 0.929 . S
C1094 C1093 1.363 . S
C1094 C1100 1.428 . S
H1095 C1091 0.930 . S
H1096 C1093 0.929 . S
S1097 N1098 1.613 . S
S1097 N1099 1.610 . S
N1098 S1097 1.613 . S
N1098 C1101 1.350 . S
N1099 S1097 1.610 . S
N1099 C1100 1.351 . S
C1100 C1094 1.428 . S
C1100 N1099 1.351 . S
C1100 C1101 1.434 . S
C1101 C1092 1.429 . S
C1101 N1098 1.350 . S
C1101 C1100 1.434 . S
C1102 C1103 1.369 . S
C1102 C1104 1.419 . S
C1102 H1106 0.930 . S
C1103 C1102 1.369 . S
C1103 C1112 1.429 . S
C1104 C1102 1.419 . S
C1104 C1105 1.363 . S
C1104 H1107 0.929 . S
C1105 C1104 1.363 . S
C1105 C1111 1.428 . S
H1106 C1102 0.930 . S
H1107 C1104 0.929 . S
S1108 N1109 1.613 . S
S1108 N1110 1.610 . S
N1109 S1108 1.613 . S
N1109 C1112 1.350 . S
N1110 S1108 1.610 . S
N1110 C1111 1.351 . S
C1111 C1105 1.428 . S
C1111 N1110 1.351 . S
C1111 C1112 1.434 . S
C1112 C1103 1.429 . S
C1112 N1109 1.350 . S
C1112 C1111 1.434 . S
C1113 C1114 1.369 . S
C1113 C1115 1.419 . S
C1113 H1117 0.930 . S
C1114 C1113 1.369 . S
C1114 C1123 1.429 . S
C1115 C1113 1.419 . S
C1115 C1116 1.363 . S
C1115 H1118 0.929 . S
C1116 C1115 1.363 . S
C1116 C1122 1.428 . S
H1117 C1113 0.930 . S
H1118 C1115 0.929 . S
S1119 N1120 1.613 . S
S1119 N1121 1.610 . S
N1120 S1119 1.613 . S
N1120 C1123 1.350 . S
N1121 S1119 1.610 . S
N1121 C1122 1.351 . S
C1122 C1116 1.428 . S
C1122 N1121 1.351 . S
C1122 C1123 1.434 . S
C1123 C1114 1.429 . S
C1123 N1120 1.350 . S
C1123 C1122 1.434 . S
C1124 C1125 1.369 . S
C1124 C1126 1.419 . S
C1124 H1128 0.930 . S
C1125 C1124 1.369 . S
C1125 C1134 1.429 . S
C1126 C1124 1.419 . S
C1126 C1127 1.363 . S
C1126 H1129 0.929 . S
C1127 C1126 1.363 . S
C1127 C1133 1.428 . S
H1128 C1124 0.930 . S
H1129 C1126 0.929 . S
S1130 N1131 1.613 . S
S1130 N1132 1.610 . S
N1131 S1130 1.613 . S
N1131 C1134 1.350 . S
N1132 S1130 1.610 . S
N1132 C1133 1.351 . S
C1133 C1127 1.428 . S
C1133 N1132 1.351 . S
C1133 C1134 1.434 . S
C1134 C1125 1.429 . S
C1134 N1131 1.350 . S
C1134 C1133 1.434 . S
C1135 C1136 1.369 . S
C1135 C1137 1.419 . S
C1135 H1139 0.930 . S
C1136 C1135 1.369 . S
C1136 C1145 1.429 . S
C1137 C1135 1.419 . S
C1137 C1138 1.363 . S
C1137 H1140 0.929 . S
C1138 C1137 1.363 . S
C1138 C1144 1.428 . S
H1139 C1135 0.930 . S
H1140 C1137 0.929 . S
S1141 N1142 1.613 . S
S1141 N1143 1.610 . S
N1142 S1141 1.613 . S
N1142 C1145 1.350 . S
N1143 S1141 1.610 . S
N1143 C1144 1.351 . S
C1144 C1138 1.428 . S
C1144 N1143 1.351 . S
C1144 C1145 1.434 . S
C1145 C1136 1.429 . S
C1145 N1142 1.350 . S
C1145 C1144 1.434 . S
C1146 C1147 1.369 . S
C1146 C1148 1.419 . S
C1146 H1150 0.930 . S
C1147 C1146 1.369 . S
C1147 C1156 1.429 . S
C1148 C1146 1.419 . S
C1148 C1149 1.363 . S
C1148 H1151 0.929 . S
C1149 C1148 1.363 . S
C1149 C1155 1.428 . S
H1150 C1146 0.930 . S
H1151 C1148 0.929 . S
S1152 N1153 1.613 . S
S1152 N1154 1.610 . S
N1153 S1152 1.613 . S
N1153 C1156 1.350 . S
N1154 S1152 1.610 . S
N1154 C1155 1.351 . S
C1155 C1149 1.428 . S
C1155 N1154 1.351 . S
C1155 C1156 1.434 . S
C1156 C1147 1.429 . S
C1156 N1153 1.350 . S
C1156 C1155 1.434 . S
C1157 C1158 1.369 . S
C1157 C1159 1.419 . S
C1157 H1161 0.930 . S
C1158 C1157 1.369 . S
C1158 C1167 1.429 . S
C1159 C1157 1.419 . S
C1159 C1160 1.363 . S
C1159 H1162 0.929 . S
C1160 C1159 1.363 . S
C1160 C1166 1.428 . S
H1161 C1157 0.930 . S
H1162 C1159 0.929 . S
S1163 N1164 1.613 . S
S1163 N1165 1.610 . S
N1164 S1163 1.613 . S
N1164 C1167 1.350 . S
N1165 S1163 1.610 . S
N1165 C1166 1.351 . S
C1166 C1160 1.428 . S
C1166 N1165 1.351 . S
C1166 C1167 1.434 . S
C1167 C1158 1.429 . S
C1167 N1164 1.350 . S
C1167 C1166 1.434 . S
C641 C464 1.745 . S
C643 C23 1.744 1_565 S
C652 C333 1.746 . S
C654 C42 1.744 1_655 S
C663 C103 1.746 1_545 S
C665 C384 1.744 . S
C674 C122 1.745 1_455 S
C676 C413 1.745 . S
C685 C183 1.746 . S
C687 C224 1.744 . S
C696 C253 1.744 . S
C698 C202 1.745 . S
C707 C263 1.743 . S
C709 C304 1.747 . S
C718 C173 1.744 . S
C720 C282 1.745 . S
C729 C144 1.745 . S
C731 C343 1.744 . S
C740 C362 1.746 . S
C742 C13 1.744 . S
C751 C64 1.748 . S
C753 C423 1.742 . S
C762 C93 1.744 . S
C764 C442 1.746 . S
C773 C503 1.745 1_545 S
C775 C544 1.745 . S
C784 C573 1.747 . S
C786 C522 1.743 1_455 S
C795 C624 1.745 . S
C797 C583 1.745 1_565 S
C806 C602 1.746 1_655 S
C808 C493 1.745 . S
C817 C2 1.236 . S
C819 C162 1.236 . S
C828 C223 1.242 . S
C830 C63 1.231 . S
C839 C82 1.242 . S
C841 C242 1.231 . S
C850 C143 1.235 . S
C852 C303 1.235 . S
C861 C322 1.242 . S
C863 C482 1.231 . S
C872 C543 1.243 . S
C874 C383 1.231 . S
C883 C402 1.240 . S
C885 C562 1.232 . S
C894 C463 1.235 . S
C896 C623 1.235 . S
C905 C584 2.604 . S
C907 C24 2.604 1_556 S
C916 C53 2.604 1_554 S
C918 C613 2.603 . S
C927 C104 2.606 1_556 S
C929 C504 2.602 . S
C938 C133 2.607 1_554 S
C940 C533 2.601 . S
C949 C184 2.607 . S
C951 C424 2.601 . S
C960 C213 2.607 . S
C962 C453 2.601 . S
C971 C264 2.602 . S
C973 C344 2.605 . S
C982 C373 2.600 . S
C984 C293 2.606 . S
C993 C26 1.320 . S
C995 C17 1.327 . S
C1004 C57 1.332 . S
C1006 C66 1.318 . S
C1015 C106 1.332 . S
C1017 C97 1.318 . S
C1026 C146 1.330 . S
C1028 C137 1.320 . S
C1037 C177 1.317 . S
C1039 C186 1.330 . S
C1048 C217 1.331 . S
C1050 C226 1.318 . S
C1059 C266 1.316 . S
C1061 C257 1.330 . S
C1070 C306 1.332 . S
C1072 C297 1.318 . S
C1081 C346 1.331 . S
C1083 C337 1.319 . S
C1092 C386 1.329 . S
C1094 C377 1.321 . S
C1103 C417 1.316 . S
C1105 C426 1.330 . S
C1114 C457 1.320 . S
C1116 C466 1.328 . S
C1125 C506 1.331 . S
C1127 C497 1.319 . S
C1136 C546 1.316 . S
C1138 C537 1.330 . S
C1147 C577 1.321 . S
C1149 C586 1.326 . S
C1158 C617 1.316 . S
C1160 C626 1.330 . S
