# Generated by pormake.
# Topology smm, (6)-cn, num edge types: 1
# Building blocks:
#     Node 0, Type 0, BuildingBlock: KUMJIN_clean_sbu_1, # of connection points: 6
#     Node 1, Type 0, BuildingBlock: KUMJIN_clean_sbu_1, # of connection points: 6
#     Node 2, Type 0, BuildingBlock: KUMJIN_clean_sbu_1, # of connection points: 6
#     Node 3, Type 0, BuildingBlock: KUMJIN_clean_sbu_1, # of connection points: 6
#     Node 4, Type 0, BuildingBlock: KUMJIN_clean_sbu_1, # of connection points: 6
#     Node 5, Type 0, BuildingBlock: KUMJIN_clean_sbu_1, # of connection points: 6
#     Node 6, Type 0, BuildingBlock: KUMJIN_clean_sbu_1, # of connection points: 6
#     Node 7, Type 0, BuildingBlock: KUMJIN_clean_sbu_1, # of connection points: 6
#     Node 8, Type 0, BuildingBlock: KUMJIN_clean_sbu_1, # of connection points: 6
#     Edge 9, Type (0, 0), BuildingBlock: TEMPAE_clean_linker_10, # of connection points: 2
#     Edge 10, Type (0, 0), BuildingBlock: TEMPAE_clean_linker_10, # of connection points: 2
#     Edge 11, Type (0, 0), BuildingBlock: TEMPAE_clean_linker_10, # of connection points: 2
#     Edge 12, Type (0, 0), BuildingBlock: TEMPAE_clean_linker_10, # of connection points: 2
#     Edge 13, Type (0, 0), BuildingBlock: TEMPAE_clean_linker_10, # of connection points: 2
#     Edge 14, Type (0, 0), BuildingBlock: TEMPAE_clean_linker_10, # of connection points: 2
#     Edge 15, Type (0, 0), BuildingBlock: TEMPAE_clean_linker_10, # of connection points: 2
#     Edge 16, Type (0, 0), BuildingBlock: TEMPAE_clean_linker_10, # of connection points: 2
#     Edge 17, Type (0, 0), BuildingBlock: TEMPAE_clean_linker_10, # of connection points: 2
#     Edge 18, Type (0, 0), BuildingBlock: TEMPAE_clean_linker_10, # of connection points: 2
#     Edge 19, Type (0, 0), BuildingBlock: TEMPAE_clean_linker_10, # of connection points: 2
#     Edge 20, Type (0, 0), BuildingBlock: TEMPAE_clean_linker_10, # of connection points: 2
#     Edge 21, Type (0, 0), BuildingBlock: TEMPAE_clean_linker_10, # of connection points: 2
#     Edge 22, Type (0, 0), BuildingBlock: TEMPAE_clean_linker_10, # of connection points: 2
#     Edge 23, Type (0, 0), BuildingBlock: TEMPAE_clean_linker_10, # of connection points: 2
#     Edge 24, Type (0, 0), BuildingBlock: TEMPAE_clean_linker_10, # of connection points: 2
#     Edge 25, Type (0, 0), BuildingBlock: TEMPAE_clean_linker_10, # of connection points: 2
#     Edge 26, Type (0, 0), BuildingBlock: TEMPAE_clean_linker_10, # of connection points: 2
#     Edge 27, Type (0, 0), BuildingBlock: TEMPAE_clean_linker_10, # of connection points: 2
#     Edge 28, Type (0, 0), BuildingBlock: TEMPAE_clean_linker_10, # of connection points: 2
#     Edge 29, Type (0, 0), BuildingBlock: TEMPAE_clean_linker_10, # of connection points: 2
#     Edge 30, Type (0, 0), BuildingBlock: TEMPAE_clean_linker_10, # of connection points: 2
#     Edge 31, Type (0, 0), BuildingBlock: TEMPAE_clean_linker_10, # of connection points: 2
#     Edge 32, Type (0, 0), BuildingBlock: TEMPAE_clean_linker_10, # of connection points: 2
#     Edge 33, Type (0, 0), BuildingBlock: TEMPAE_clean_linker_10, # of connection points: 2
#     Edge 34, Type (0, 0), BuildingBlock: TEMPAE_clean_linker_10, # of connection points: 2
#     Edge 35, Type (0, 0), BuildingBlock: TEMPAE_clean_linker_10, # of connection points: 2
# Relax obj value: 0.109
# Max RMSD: 0.222
# Mean RMSD: 0.175
data_MOF--net-smm--node1-KUMJIN_clean_sbu_1--edge1-TEMPAE_clean_linker_10
_symmetry_space_group_name_H-M    P1
_symmetry_Int_Tables_number       1
_symmetry_cell_setting            triclinic
loop_
_symmetry_equiv_pos_as_xyz
'x, y, z'
_cell_length_a     60.192512
_cell_length_b     75.74536
_cell_length_c     15.175889
_cell_angle_alpha  96.463944
_cell_angle_beta   96.736887
_cell_angle_gamma 121.77907
loop_
_atom_site_label
_atom_site_type_symbol
_atom_site_fract_x
_atom_site_fract_y
_atom_site_fract_z
_atom_type_partial_charge
Eu0 Eu 0.02949 0.1753 0.10897 0.0
C1 C 0.15033 0.23036 0.24149 0.0
N2 N 0.13306 0.23371 0.27827 0.0
C3 C 0.15754 0.24066 0.42785 0.0
C4 C 0.17116 0.23083 0.29723 0.0
C5 C 0.13695 0.23965 0.36958 0.0
C6 C 0.1745 0.23589 0.39154 0.0
C7 C 0.16412 0.22221 0.10744 0.0
C8 C 0.14685 0.22622 0.14774 0.0
C9 C 0.18425 0.22179 0.1625 0.0
C10 C 0.18787 0.22622 0.25716 0.0
Eu11 Eu 0.09804 0.23083 0.17732 0.0
N12 N 0.12709 0.2267 0.09628 0.0
C13 C 0.16105 0.21924 0.01312 0.0
C14 C 0.12605 0.22612 0.00571 0.0
C15 C 0.14233 0.22169 0.96227 0.0
H16 H 0.12452 0.24404 0.39705 0.0
H17 H 0.14074 0.22055 0.88979 0.0
H18 H 1.01721 0.16358 0.88015 0.0
H19 H 0.96384 0.1726 0.33197 0.0
H20 H 0.11335 0.22966 0.96668 0.0
H21 H 0.17378 0.21597 0.9794 0.0
H22 H 1.00365 0.1747 0.29166 0.0
H23 H 0.16037 0.2452 0.50051 0.0
H24 H 0.19751 0.21851 0.13257 0.0
H25 H 0.20377 0.22622 0.29876 0.0
H26 H 0.9842 0.15856 0.75102 0.0
H27 H 0.19035 0.23653 0.43675 0.0
H28 H 0.92918 0.16897 0.2121 0.0
N29 N 0.99875 0.16977 0.97999 0.0
C30 C 0.97657 0.16899 -0.00367 0.0
C31 C 0.982 0.1618 0.81966 0.0
C32 C 0.95652 0.16521 0.92437 0.0
C33 C 1.00106 0.16521 0.89319 0.0
C34 C 0.95976 0.16205 0.8353 0.0
N35 N 0.99214 0.17326 0.15224 0.0
C36 C 0.98872 0.1733 0.23954 0.0
C37 C 0.94983 0.16903 0.10429 0.0
C38 C 0.9731 0.17067 0.08497 0.0
C39 C 0.94673 0.17008 0.19444 0.0
C40 C 0.96621 0.17209 0.2623 0.0
H41 H 0.94479 0.15908 0.77816 0.0
H42 H 0.91792 0.16114 0.88895 0.0
H43 H 0.91218 0.16465 0.04653 0.0
O44 O 1.02344 0.14971 0.17781 0.0
O45 O 0.02742 0.20393 0.16431 0.0
O46 O 0.06153 0.23079 0.11499 0.0
O47 O 1.00638 0.14293 0.03403 0.0
O48 O 0.05017 0.18458 0.25588 0.0
O49 O 0.07479 0.22131 0.29011 0.0
O50 O 0.12777 0.26197 0.1549 0.0
O51 O 0.09699 0.20119 0.2065 0.0
O52 O 0.06759 0.17953 0.07859 0.0
O53 O 0.10907 0.25923 0.27333 0.0
O54 O 0.07549 0.22284 0.0317 0.0
O55 O 0.0553 0.18706 0.00656 0.0
C56 C 0.03871 0.22263 0.14181 0.0
C57 C 0.98816 0.1146 0.10803 0.0
C58 C 0.97402 0.07844 0.1083 0.0
C59 C 0.94733 0.07251 0.0964 0.0
C60 C 0.96158 0.1089 0.09499 0.0
C61 C 0.94115 0.08777 0.0895 0.0
C62 C 0.99432 0.09945 0.11474 0.0
C63 C 0.06217 0.20275 0.31415 0.0
C64 C 1.00989 0.1354 0.10322 0.0
C65 C 0.93352 0.16401 0.94336 0.0
C66 C 0.93022 0.16596 0.03309 0.0
C67 C 0.08673 0.18386 0.1447 0.0
C68 C 0.14168 0.29464 0.25626 0.0
C69 C 0.16335 0.32946 0.21817 0.0
C70 C 0.17033 0.33875 0.31092 0.0
C71 C 0.14854 0.30405 0.34836 0.0
C72 C 0.14919 0.30733 0.1913 0.0
C73 C 0.16295 0.32606 0.37549 0.0
C74 C 0.06207 0.20424 0.97611 0.0
C75 C 0.12592 0.2716 0.2277 0.0
H76 H 0.93139 0.05612 0.09118 0.0
H77 H 0.95671 0.1206 0.08732 0.0
H78 H 0.92055 0.08317 0.07873 0.0
H79 H 1.01495 0.10394 0.12323 0.0
H80 H 0.18174 0.35583 0.33362 0.0
H81 H 0.14283 0.29439 0.39923 0.0
H82 H 0.14338 0.29997 0.11989 0.0
H83 H 0.16839 0.33331 0.4467 0.0
Eu84 Eu 0.92188 0.85893 0.0978 0.0
C85 C 0.97103 0.80815 0.00718 0.0
N86 N 0.94793 0.80527 0.96319 0.0
C87 C 0.95862 0.79999 0.81946 0.0
C88 C 0.98928 0.80773 0.9581 0.0
C89 C 0.9411 0.80046 0.87085 0.0
C90 C 0.98293 0.80383 0.86323 0.0
C91 C 1.00027 0.8145 0.14874 0.0
C92 C 0.97644 0.81135 0.10185 0.0
C93 C 1.01857 0.81434 0.09979 0.0
C94 C 1.01308 0.81093 0.00489 0.0
Eu95 Eu 0.91952 0.8049 0.05777 0.0
N96 N 0.95864 0.81187 0.14812 0.0
C97 C 1.0049 0.81759 0.24357 0.0
C98 C 0.96226 0.81365 0.23959 0.0
C99 C 0.98568 0.81695 0.2891 0.0
H100 H 0.92178 0.79614 0.83647 0.0
H101 H 0.98869 0.81865 0.36206 0.0
H102 H 0.92729 0.8696 0.32346 0.0
H103 H 0.85237 0.85682 0.82421 0.0
H104 H 0.94671 0.81181 0.27365 0.0
H105 H 1.02299 0.82006 0.28207 0.0
H106 H 0.89264 0.85826 0.89307 0.0
H107 H 0.95313 0.79628 0.74613 0.0
H108 H 0.037 0.81672 0.13469 0.0
H109 H 0.02733 0.81067 0.96819 0.0
H110 H 0.9014 0.87301 0.43097 0.0
H111 H 0.9964 0.8033 0.82313 0.0
H112 H 0.82255 0.85799 0.92057 0.0
N113 N 0.89876 0.86274 0.2064 0.0
C114 C 0.87672 0.86273 0.17376 0.0
C115 C 0.89394 0.86971 0.35871 0.0
C116 C 0.86127 0.86463 0.23257 0.0
C117 C 0.9083 0.86736 0.29751 0.0
C118 C 0.86996 0.86783 0.32604 0.0
N119 N 0.88555 0.85993 0.02662 0.0
C120 C 0.87984 0.8588 0.93573 0.0
C121 C 0.84673 0.86058 0.04493 0.0
C122 C 0.86991 0.86131 0.08134 0.0
C123 C 0.84031 0.85877 0.95127 0.0
C124 C 0.85708 0.85808 0.89661 0.0
H125 H 0.85877 0.86951 0.37357 0.0
H126 H 0.82571 0.86486 0.24052 0.0
H127 H 0.81264 0.86081 0.07604 0.0
O128 O 0.93509 0.89033 0.07209 0.0
O129 O 0.87886 0.83013 0.06159 0.0
O130 O 0.87652 0.79827 0.03553 0.0
O131 O 0.95564 0.88689 0.19052 0.0
O132 O 0.92291 0.8476 0.95461 0.0
O133 O 0.90312 0.81106 0.92918 0.0
O134 O 0.90751 0.77604 0.12135 0.0
O135 O 0.96256 0.83937 0.08985 0.0
O136 O 0.9537 0.86115 0.02404 0.0
O137 O 0.90185 0.77357 0.97628 0.0
O138 O 0.90607 0.81118 0.18333 0.0
O139 O 0.93471 0.84685 0.2115 0.0
C140 C 0.86509 0.80928 0.04002 0.0
C141 C 0.95628 0.91857 0.199 0.0
C142 C 0.96864 0.95469 0.20705 0.0
C143 C 0.96627 0.95636 0.29794 0.0
C144 C 0.95411 0.92026 0.29044 0.0
C145 C 0.95875 0.93905 0.33926 0.0
C146 C 0.96317 0.93576 0.15738 0.0
C147 C 0.91043 0.82879 0.90007 0.0
C148 C 0.95353 0.89993 0.14625 0.0
C149 C 0.83801 0.86371 0.19649 0.0
C150 C 0.83065 0.86152 0.10286 0.0
C151 C 0.97147 0.85724 0.0563 0.0
C152 C 0.88786 0.73962 0.02006 0.0
C153 C 0.86832 0.70255 0.04793 0.0
C154 C 0.8664 0.69584 0.95577 0.0
C155 C 0.88511 0.73128 0.9288 0.0
C156 C 0.87942 0.72491 0.08115 0.0
C157 C 0.87459 0.70991 0.89756 0.0
C158 C 0.91774 0.8296 0.2379 0.0
C159 C 0.89902 0.76342 0.04217 0.0
H160 H 0.97026 0.97103 0.33657 0.0
H161 H 0.94956 0.90742 0.32493 0.0
H162 H 0.95703 0.94034 0.40956 0.0
H163 H 0.96513 0.93466 0.08707 0.0
H164 H 0.85824 0.67929 0.92786 0.0
H165 H 0.89108 0.74135 0.87953 0.0
H166 H 0.88096 0.73058 0.15174 0.0
H167 H 0.87265 0.70412 0.82673 0.0
Eu168 Eu 0.20852 0.0381 0.0178 0.0
C169 C 0.20406 0.95462 0.08275 0.0
N170 N 0.22123 0.97532 0.12526 0.0
C171 C 0.22324 0.96524 0.26842 0.0
C172 C 0.19512 0.93839 0.13272 0.0
C173 C 0.23158 0.98079 0.21607 0.0
C174 C 0.20474 0.94397 0.22673 0.0
C175 C 0.17714 0.92829 0.94338 0.0
C176 C 0.19518 0.9496 0.98883 0.0
C177 C 0.16805 0.91214 0.99326 0.0
C178 C 0.17699 0.91718 0.08756 0.0
Eu179 Eu 0.23448 0.99999 0.03033 0.0
N180 N 0.20335 0.96563 0.94251 0.0
C181 C 0.16831 0.92387 0.84926 0.0
C182 C 0.19563 0.96133 0.85041 0.0
C183 C 0.17776 0.94046 0.80258 0.0
H184 H 0.24656 0.99711 0.24815 0.0
H185 H 0.17148 0.93717 0.72961 0.0
H186 H 0.20302 0.04566 0.80627 0.0
H187 H 0.27427 0.09533 0.33239 0.0
H188 H 0.20353 0.97376 0.81284 0.0
H189 H 0.15435 0.90771 0.81198 0.0
H190 H 0.23548 0.06166 0.2411 0.0
H191 H 0.23119 0.96965 0.34076 0.0
H192 H 0.15399 0.8957 0.95956 0.0
H193 H 0.16979 0.90451 0.12498 0.0
H194 H 0.22724 0.07336 0.71977 0.0
H195 H 0.19831 0.93195 0.26752 0.0
H196 H 0.3024 0.1244 0.25702 0.0
N197 N 0.22969 0.06397 0.93146 0.0
C198 C 0.25015 0.08349 0.97849 0.0
C199 C 0.23416 0.07634 0.79226 0.0
C200 C 0.2644 0.09997 0.93268 0.0
C201 C 0.22081 0.06048 0.84065 0.0
C202 C 0.25628 0.09613 0.83832 0.0
N203 N 0.2436 0.07024 0.11493 0.0
C204 C 0.24858 0.07355 0.20714 0.0
C205 C 0.27929 0.10649 0.12212 0.0
C206 C 0.25752 0.08662 0.07245 0.0
C207 C 0.2858 0.10937 0.21643 0.0
C208 C 0.2701 0.09294 0.25919 0.0
H209 H 0.26669 0.1084 0.80066 0.0
H210 H 0.29756 0.13248 0.94809 0.0
H211 H 0.31059 0.13821 0.11361 0.0
O212 O 0.19283 0.05626 0.08042 0.0
O213 O 0.25118 0.04927 0.98572 0.0
O214 O 0.26697 0.0356 0.08144 0.0
O215 O 0.17636 0.03863 0.94008 0.0
O216 O 0.20675 0.02567 0.1481 0.0
O217 O 0.24225 0.02184 0.16062 0.0
O218 O 0.25707 0.99222 0.947 0.0
O219 O 0.1882 0.98197 0.029 0.0
O220 O 0.17308 1.00459 0.03133 0.0
O221 O 0.26867 0.99997 0.09312 0.0
O222 O 0.23308 1.01137 0.89915 0.0
O223 O 0.19713 1.01473 0.88658 0.0
C224 C 0.27189 0.05035 0.0343 0.0
C225 C 0.15596 0.05705 0.99325 0.0
C226 C 0.13909 0.07969 0.03159 0.0
C227 C 0.11642 0.06617 0.96217 0.0
C228 C 0.13301 0.04407 0.92408 0.0
C229 C 0.11348 0.0486 0.90889 0.0
C230 C 0.15911 0.07513 0.04743 0.0
C231 C 0.22366 0.02247 0.19469 0.0
C232 C 0.17586 0.05106 0.00543 0.0
C233 C 0.28628 0.11965 0.98214 0.0
C234 C 0.29372 0.12289 0.07645 0.0
C235 C 0.16856 0.98531 0.03161 0.0
C236 C 0.27909 0.97716 0.0176 0.0
C237 C 0.30274 0.96154 0.9635 0.0
C238 C 0.29748 0.95024 0.03367 0.0
C239 C 0.27355 0.96532 0.08643 0.0
C240 C 0.29356 0.97504 0.95536 0.0
C241 C 0.28282 0.95204 0.09445 0.0
C242 C 0.21411 1.01197 0.84977 0.0
C243 C 0.27294 0.99362 0.01759 0.0
H244 H 0.10093 0.06938 0.94857 0.0
H245 H 0.12999 0.03019 0.88152 0.0
H246 H 0.09592 0.0384 0.85535 0.0
H247 H 0.17677 0.08547 0.10061 0.0
H248 H 0.30489 0.94008 0.0416 0.0
H249 H 0.26277 0.96678 0.13596 0.0
H250 H 0.2983 0.98425 0.90272 0.0
H251 H 0.27899 0.94338 0.14881 0.0
Eu252 Eu 0.79762 0.50895 0.14372 0.0
C253 C 0.67571 0.47631 0.01166 0.0
N254 N 0.69833 0.49285 0.99495 0.0
C255 C 0.67947 0.48158 0.83546 0.0
C256 C 0.65442 0.46114 0.93996 0.0
C257 C 0.70004 0.49617 0.90887 0.0
C258 C 0.65671 0.46379 0.85093 0.0
C259 C 0.65061 0.45773 0.12084 0.0
C260 C 0.67389 0.47458 0.10098 0.0
C261 C 0.62977 0.44213 0.04958 0.0
C262 C 0.63165 0.44385 0.95937 0.0
Eu263 Eu 0.73376 0.51421 0.12192 0.0
N264 N 0.69455 0.48969 0.16845 0.0
C265 C 0.64879 0.45727 0.21178 0.0
C266 C 0.69198 0.49027 0.25677 0.0
C267 C 0.66935 0.47387 0.27995 0.0
H268 H 0.7171 0.51011 0.89644 0.0
H269 H 0.66777 0.47406 0.35033 0.0
H270 H 0.81606 0.50732 0.36178 0.0
H271 H 0.8597 0.55629 0.92311 0.0
H272 H 0.70749 0.50328 0.30982 0.0
H273 H 0.63127 0.44455 0.22991 0.0
H274 H 0.82021 0.52556 0.95902 0.0
H275 H 0.68117 0.48409 0.76709 0.0
H276 H 0.6119 0.42888 0.06353 0.0
H277 H 0.61526 0.43184 0.90515 0.0
H278 H 0.85379 0.53066 0.49203 0.0
H279 H 0.64085 0.45243 0.79393 0.0
H280 H 0.89756 0.58318 0.04732 0.0
N281 N 0.83288 0.52845 0.27227 0.0
C282 C 0.85499 0.54596 0.25813 0.0
C283 C 0.85427 0.53525 0.42692 0.0
C284 C 0.87709 0.55955 0.33006 0.0
C285 C 0.83293 0.52217 0.35339 0.0
C286 C 0.87621 0.55426 0.41571 0.0
N287 N 0.83546 0.53553 0.10106 0.0
C288 C 0.83672 0.53727 0.013 0.0
C289 C 0.87934 0.56716 0.15303 0.0
C290 C 0.85635 0.54956 0.17023 0.0
C291 C 0.88028 0.56976 0.06319 0.0
C292 C 0.85899 0.5546 0.99279 0.0
H293 H 0.89278 0.56434 0.47274 0.0
H294 H 0.91673 0.58833 0.36837 0.0
H295 H 0.91854 0.59512 0.21377 0.0
O296 O 0.81678 0.49545 0.07055 0.0
O297 O 0.80459 0.5412 0.11718 0.0
O298 O 0.77532 0.54225 0.19547 0.0
O299 O 0.7993 0.4825 0.18088 0.0
O300 O 0.7714 0.49951 0.0047 0.0
O301 O 0.75731 0.52251 0.01033 0.0
O302 O 0.72382 0.53308 0.2085 0.0
O303 O 0.72525 0.48141 0.06276 0.0
O304 O 0.75724 0.48097 0.15886 0.0
O305 O 0.72549 0.5362 0.06873 0.0
O306 O 0.74451 0.50538 0.25053 0.0
O307 O 0.78995 0.51991 0.27559 0.0
C308 C 0.7957 0.55214 0.15633 0.0
C309 C 0.83519 0.47935 0.15432 0.0
C310 C 0.85659 0.45904 0.15873 0.0
C311 C 0.8761 0.47474 0.23298 0.0
C312 C 0.85589 0.49498 0.22544 0.0
C313 C 0.8758 0.4925 0.26547 0.0
C314 C 0.83555 0.46117 0.12048 0.0
C315 C 0.76518 0.5115 0.96628 0.0
C316 C 0.81266 0.48162 0.12098 0.0
C317 C 0.89969 0.57754 0.31366 0.0
C318 C 0.90077 0.58138 0.22551 0.0
C319 C 0.73385 0.47082 0.10223 0.0
C320 C 0.70011 0.54702 0.14146 0.0
C321 C 0.68319 0.56679 0.21418 0.0
C322 C 0.66536 0.56118 0.13189 0.0
C323 C 0.68185 0.54135 0.06049 0.0
C324 C 0.70043 0.5595 0.21848 0.0
C325 C 0.6646 0.54843 0.056 0.0
C326 C 0.76761 0.51295 0.30452 0.0
C327 C 0.72102 0.54233 0.14476 0.0
H328 H 0.89193 0.47336 0.26596 0.0
H329 H 0.85667 0.50913 0.25108 0.0
H330 H 0.8912 0.50451 0.32198 0.0
H331 H 0.81991 0.44902 0.06479 0.0
H332 H 0.65179 0.56649 0.12649 0.0
H333 H 0.68129 0.53186 0.00021 0.0
H334 H 0.7148 0.5642 0.28076 0.0
H335 H 0.65077 0.54421 0.99309 0.0
Eu336 Eu 0.53086 0.21364 0.06371 0.0
C337 C 0.57881 0.16 0.97313 0.0
N338 N 0.55468 0.15595 0.93317 0.0
C339 C 0.5606 0.14585 0.78692 0.0
C340 C 0.59492 0.15724 0.92019 0.0
C341 C 0.54509 0.14847 0.84204 0.0
C342 C 0.58563 0.15027 0.82611 0.0
C343 C 0.61312 0.17228 0.10883 0.0
C344 C 0.5879 0.16764 0.06702 0.0
C345 C 0.6287 0.16885 0.05631 0.0
C346 C 0.61978 0.16156 0.96236 0.0
Eu347 Eu 0.52973 0.15936 0.03338 0.0
N348 N 0.57236 0.17075 0.11706 0.0
C349 C 0.62191 0.18007 0.20255 0.0
C350 C 0.58039 0.17735 0.20896 0.0
C351 C 0.60541 0.18251 0.25281 0.0
H352 H 0.52531 0.14421 0.8119 0.0
H353 H 0.61169 0.18793 0.32572 0.0
H354 H 0.53838 0.23375 0.281 0.0
H355 H 0.45737 0.19791 0.76694 0.0
H356 H 0.56744 0.17801 0.24958 0.0
H357 H 0.64122 0.18392 0.23693 0.0
H358 H 0.49865 0.20283 0.84673 0.0
H359 H 0.5531 0.14018 0.71442 0.0
H360 H 0.64776 0.1718 0.08784 0.0
H361 H 0.63232 0.15936 0.92282 0.0
H362 H 0.51261 0.24052 0.37917 0.0
H363 H 0.59755 0.14812 0.78321 0.0
H364 H 0.42814 0.20289 0.85398 0.0
N365 N 0.50831 0.22112 0.16231 0.0
C366 C 0.48519 0.21867 0.12205 0.0
C367 C 0.50438 0.23396 0.30736 0.0
C368 C 0.47026 0.22322 0.17431 0.0
C369 C 0.51857 0.22944 0.25264 0.0
C370 C 0.47992 0.23058 0.26819 0.0
N371 N 0.49177 0.20826 0.97854 0.0
C372 C 0.48556 0.20393 0.88607 0.0
C373 C 0.45338 0.21031 0.98451 0.0
C374 C 0.47686 0.21234 0.02781 0.0
C375 C 0.44603 0.20457 0.88973 0.0
C376 C 0.46238 0.20162 0.84033 0.0
H377 H 0.46908 0.23434 0.31056 0.0
H378 H 0.43482 0.22414 0.17038 0.0
H379 H 0.42002 0.2128 0.00459 0.0
O380 O 0.55395 0.23907 0.99015 0.0
O381 O 0.48775 0.18225 0.05199 0.0
O382 O 0.48747 0.15113 0.02628 0.0
O383 O 0.54668 0.24717 0.11772 0.0
O384 O 0.53396 0.20056 0.92684 0.0
O385 O 0.51015 0.16388 0.9077 0.0
O386 O 0.5271 0.13552 0.10795 0.0
O387 O 0.56355 0.18888 -6e-05 0.0
O388 O 0.56959 0.21509 0.10904 0.0
O389 O 0.50997 0.12639 0.96391 0.0
O390 O 0.5225 0.17062 0.16572 0.0
O391 O 0.54525 0.2073 0.1952 0.0
C392 C 0.47498 0.16097 0.03787 0.0
C393 C 0.58642 0.27399 0.08021 0.0
C394 C 0.62059 0.312 0.08758 0.0
C395 C 0.6389 0.30999 0.14453 0.0
C396 C 0.60544 0.273 0.13825 0.0
C397 C 0.63139 0.29075 0.16966 0.0
C398 C 0.59404 0.29379 0.05511 0.0
C399 C 0.52103 0.18141 0.87523 0.0
C400 C 0.55851 0.25462 0.05223 0.0
C401 C 0.44658 0.22077 0.13126 0.0
C402 C 0.43817 0.21435 0.03676 0.0
C403 C 0.57924 0.20759 0.05318 0.0
C404 C 0.49316 0.09907 0.04988 0.0
C405 C 0.47947 0.0705 0.1335 0.0
C406 C 0.45653 0.05723 0.065 0.0
C407 C 0.46992 0.08558 0.98227 0.0
C408 C 0.49777 0.09144 0.12591 0.0
C409 C 0.45175 0.0648 0.99006 0.0
C410 C 0.53459 0.18908 0.2224 0.0
C411 C 0.51413 0.12006 0.03694 0.0
H412 H 0.65916 0.32354 0.17074 0.0
H413 H 0.59996 0.25845 0.16077 0.0
H414 H 0.64575 0.28967 0.21476 0.0
H415 H 0.57952 0.29503 0.01165 0.0
H416 H 0.44235 0.04099 0.06952 0.0
H417 H 0.46602 0.09089 0.92244 0.0
H418 H 0.51584 0.10153 0.17789 0.0
H419 H 0.43406 0.05443 0.93721 0.0
Eu420 Eu 0.89511 0.3069 0.14287 0.0
C421 C 0.97369 0.40123 0.1482 0.0
N422 N 0.97504 0.38494 0.10789 0.0
C423 C 0.98665 0.40076 0.97898 0.0
C424 C 0.97782 0.41762 0.10286 0.0
C425 C 0.98249 0.38489 0.02657 0.0
C426 C 0.98396 0.41705 0.01672 0.0
C427 C 0.96686 0.41833 0.27796 0.0
C428 C 0.96809 0.40145 0.23506 0.0
C429 C 0.97102 0.43467 0.23282 0.0
C430 C 0.97626 0.43424 0.14538 0.0
Eu431 Eu 0.96922 0.35974 0.19448 0.0
N432 N 0.96455 0.38555 0.27829 0.0
C433 C 0.96216 0.41863 0.36604 0.0
C434 C 0.96218 0.3868 0.36672 0.0
C435 C 0.96018 0.40295 0.41101 0.0
H436 H 0.98516 0.37256 -0.00175 0.0
H437 H 0.95784 0.40361 0.48071 0.0
H438 H 0.88495 0.29762 0.35198 0.0
H439 H 0.88169 0.25206 0.84622 0.0
H440 H 0.9631 0.37612 0.40524 0.0
H441 H 0.96093 0.43128 0.40098 0.0
H442 H 0.88761 0.28472 0.92971 0.0
H443 H 0.99204 0.40045 0.9135 0.0
H444 H 0.97051 0.44789 0.26554 0.0
H445 H 0.97945 0.44702 0.11168 0.0
H446 H 0.88442 0.27342 0.44824 0.0
H447 H 0.98723 0.42935 0.97968 0.0
H448 H 0.87938 0.225 0.92924 0.0
N449 N 0.89148 0.28336 0.23864 0.0
C450 C 0.88939 0.26544 0.19819 0.0
C451 C 0.88652 0.27124 0.37866 0.0
C452 C 0.88723 0.25022 0.24837 0.0
C453 C 0.88798 0.28554 0.32533 0.0
C454 C 0.88673 0.2537 0.3405 0.0
N455 N 0.89005 0.27661 0.05842 0.0
C456 C 0.88717 0.27317 0.96647 0.0
C457 C 0.88419 0.24271 0.0603 0.0
C458 C 0.88783 0.26166 0.10514 0.0
C459 C 0.88211 0.23934 0.96614 0.0
C460 C 0.88352 0.25461 0.91903 0.0
H461 H 0.88514 0.24242 0.38146 0.0
H462 H 0.88322 0.21993 0.2422 0.0
H463 H 0.88067 0.2134 0.07767 0.0
O464 O 0.86081 0.30114 0.04586 0.0
O465 O 0.92969 0.30261 0.12192 0.0
O466 O 0.96796 0.33009 0.2209 0.0
O467 O 0.85416 0.2855 0.15866 0.0
O468 O 0.90937 0.32184 0.02284 0.0
O469 O 0.95571 0.33848 0.05486 0.0
O470 O 1.00637 0.38425 0.28886 0.0
O471 O 0.93363 0.35977 0.12215 0.0
O472 O 0.90191 0.33912 0.19679 0.0
O473 O 1.00778 0.37041 0.15856 0.0
O474 O 0.9563 0.34369 0.31293 0.0
O475 O 0.9106 0.32788 0.28356 0.0
C476 C 0.95381 0.31061 0.17146 0.0
C477 C 0.82365 0.29445 0.10932 0.0
C478 C 0.77765 0.28494 0.09818 0.0
C479 C 0.78733 0.30499 0.15091 0.0
C480 C 0.83272 0.3143 0.16252 0.0
C481 C 0.81466 0.31951 0.18305 0.0
C482 C 0.79592 0.27957 0.07793 0.0
C483 C 0.93247 0.32942 -0.00223 0.0
C484 C 0.84315 0.28913 0.09028 0.0
C485 C 0.88465 0.23169 0.20452 0.0
C486 C 0.88304 0.22791 0.11072 0.0
C487 C 0.91186 0.35453 0.15208 0.0
C488 C 0.0464 0.38607 0.27762 0.0
C489 C 0.08945 0.40686 0.38446 0.0
C490 C 0.09543 0.39211 0.35108 0.0
C491 C 0.05268 0.37142 0.24599 0.0
C492 C 0.06494 0.40388 0.34687 0.0
C493 C 0.07717 0.37455 0.28231 0.0
C494 C 0.93352 0.33574 0.33991 0.0
C495 C 1.02157 0.38394 0.23528 0.0
H496 H 0.77362 0.30931 0.16833 0.0
H497 H 0.85378 0.32575 0.18898 0.0
H498 H 0.82186 0.33484 0.2244 0.0
H499 H 0.78866 0.26407 0.03792 0.0
H500 H 0.11446 0.39435 0.3776 0.0
H501 H 0.03888 0.3577 0.19241 0.0
H502 H 0.06035 0.41538 0.3713 0.0
H503 H 0.08208 0.36338 0.25665 0.0
Eu504 Eu 0.39897 0.86266 0.71272 0.0
C505 C 0.52534 0.9323 0.87243 0.0
N506 N 0.50458 0.93267 0.89666 0.0
C507 C 0.52825 0.947 0.05146 0.0
C508 C 0.54824 0.93874 0.93782 0.0
C509 C 0.50605 0.9406 0.98401 0.0
C510 C 0.54929 0.9458 0.0285 0.0
C511 C 0.54621 0.92731 0.75286 0.0
C512 C 0.5244 0.9267 0.78119 0.0
C513 C 0.56859 0.93283 0.81808 0.0
C514 C 0.56962 0.93855 0.91033 0.0
Eu515 Eu 0.46738 0.91999 0.7788 0.0
N516 N 0.50267 0.92169 0.71969 0.0
C517 C 0.54523 0.92306 0.65968 0.0
C518 C 0.50261 0.91941 0.62929 0.0
C519 C 0.52351 0.91948 0.5976 0.0
H520 H 0.49003 0.94191 0.00185 0.0
H521 H 0.52306 0.91715 0.52555 0.0
H522 H 0.38837 0.85538 0.48529 0.0
H523 H 0.33148 0.85712 0.93457 0.0
H524 H 0.48682 0.91801 0.58171 0.0
H525 H 0.56157 0.92335 0.6351 0.0
H526 H 0.36908 0.85631 0.88957 0.0
H527 H 0.52914 0.95291 0.12099 0.0
H528 H 0.58551 0.93328 0.79771 0.0
H529 H 0.58732 0.94333 0.95967 0.0
H530 H 0.35723 0.85361 0.35917 0.0
H531 H 0.56654 0.95089 0.08082 0.0
H532 H 0.3006 0.85939 0.8207 0.0
N533 N 0.37102 0.862 0.58771 0.0
C534 C 0.34915 0.86163 0.60562 0.0
C535 C 0.35506 0.85638 0.42827 0.0
C536 C 0.33001 0.85965 0.53506 0.0
C537 C 0.3733 0.85814 0.50031 0.0
C538 C 0.3335 0.85744 0.44578 0.0
N539 N 0.36301 0.86261 0.76018 0.0
C540 C 0.35753 0.85971 0.8438 0.0
C541 C 0.32227 0.86112 0.71421 0.0
C542 C 0.34523 0.86222 0.69437 0.0
C543 C 0.318 0.86025 0.80278 0.0
C544 C 0.33547 0.85913 0.86748 0.0
H545 H 0.31913 0.85571 0.38966 0.0
H546 H 0.29263 0.85763 0.50187 0.0
H547 H 0.28599 0.8591 0.65863 0.0
O548 O 0.36795 0.83261 0.7374 0.0
O549 O 0.40026 0.89263 0.69688 0.0
O550 O 0.43081 0.91563 0.82352 0.0
O551 O 0.38635 0.83294 0.62152 0.0
O552 O 0.41477 0.87303 0.86634 0.0
O553 O 0.45187 0.90832 0.90373 0.0
O554 O 0.46567 0.94116 0.6916 0.0
O555 O 0.47073 0.89124 0.74748 0.0
O556 O 0.43469 0.86396 0.79151 0.0
O557 O 0.4897 0.95381 0.83012 0.0
O558 O 0.4422 0.90577 0.63795 0.0
O559 O 0.42693 0.87071 0.61517 0.0
C560 C 0.40891 0.9085 0.76439 0.0
C561 C 0.35543 0.79944 0.65533 0.0
C562 C 0.35599 0.77006 0.69811 0.0
C563 C 0.32911 0.75619 0.65332 0.0
C564 C 0.32876 0.78561 0.60943 0.0
C565 C 0.3156 0.76399 0.60863 0.0
C566 C 0.36921 0.79177 0.69958 0.0
C567 C 0.43379 0.8905 0.9253 0.0
C568 C 0.36715 0.8219 0.66286 0.0
C569 C 0.30754 0.85915 0.55524 0.0
C570 C 0.30375 0.85999 0.64456 0.0
C571 C 0.45986 0.8742 0.7834 0.0
C572 C 0.48915 0.97966 0.75274 0.0
C573 C 0.4946 1.00699 0.66878 0.0
C574 C 0.50262 0.02113 0.75197 0.0
C575 C 0.49748 0.99425 0.83444 0.0
C576 C 0.48746 0.98601 0.66953 0.0
C577 C 0.50407 1.01479 0.83386 0.0
C578 C 0.43706 0.88853 0.58633 0.0
C579 C 0.48127 0.95778 0.7567 0.0
H580 H 0.31887 0.73929 0.65107 0.0
H581 H 0.31799 0.79163 0.57571 0.0
H582 H 0.29497 0.75332 0.57338 0.0
H583 H 0.38987 0.80254 0.7351 0.0
H584 H 0.50761 0.03717 0.75381 0.0
H585 H 0.49856 0.9897 0.89922 0.0
H586 H 0.48107 0.97485 0.60616 0.0
H587 H 0.51023 0.02584 0.89726 0.0
Eu588 Eu 0.30152 0.57291 0.85127 0.0
C589 C 0.37592 0.53545 0.80773 0.0
N590 N 0.35359 0.53101 0.75132 0.0
C591 C 0.3713 0.52766 0.62165 0.0
C592 C 0.39717 0.5365 0.77266 0.0
C593 C 0.35083 0.52685 0.65957 0.0
C594 C 0.39467 0.53265 0.67844 0.0
C595 C 0.40002 0.54264 0.96083 0.0
C596 C 0.37732 0.53853 0.90086 0.0
C597 C 0.42144 0.54413 0.92617 0.0
C598 C 0.42 0.54103 0.83239 0.0
Eu599 Eu 0.31978 0.52923 0.8211 0.0
N600 N 0.35618 0.53682 0.93257 0.0
C601 C 0.4002 0.54454 0.05377 0.0
C602 C 0.35536 0.53675 0.02197 0.0
C603 C 0.37759 0.54125 0.08429 0.0
H604 H 0.33248 0.52211 0.61566 0.0
H605 H 0.37699 0.54164 0.15547 0.0
H606 H 0.29413 0.57615 0.0684 0.0
H607 H 0.22901 0.54893 0.5354 0.0
H608 H 0.33735 0.53238 0.04549 0.0
H609 H 0.41728 0.54772 0.10205 0.0
H610 H 0.27254 0.56085 0.62621 0.0
H611 H 0.36889 0.5242 0.54872 0.0
H612 H 0.43904 0.5473 0.97128 0.0
H613 H 0.43653 0.54192 0.80666 0.0
H614 H 0.2592 0.57065 0.15188 0.0
H615 H 0.41049 0.53317 0.6489 0.0
H616 H 0.19219 0.54325 0.61055 0.0
N617 N 0.26877 0.56529 0.93812 0.0
C618 C 0.24483 0.56017 0.89056 0.0
C619 C 0.25465 0.56716 0.07846 0.0
C620 C 0.22446 0.55756 0.93605 0.0
C621 C 0.27418 0.56953 0.03079 0.0
C622 C 0.22958 0.56096 0.03088 0.0
N623 N 0.26058 0.56051 0.75284 0.0
C624 C 0.25673 0.5578 0.66066 0.0
C625 C 0.21548 0.55151 0.74589 0.0
C626 C 0.24058 0.55759 0.79596 0.0
C627 C 0.21129 0.54815 0.65126 0.0
C628 C 0.23199 0.55127 0.60855 0.0
H629 H 0.21452 0.55931 0.06809 0.0
H630 H 0.18396 0.54996 0.91993 0.0
H631 H 0.17593 0.54429 0.75381 0.0
O632 O 0.30425 0.60097 0.81219 0.0
O633 O 0.26915 0.53788 0.83866 0.0
O634 O 0.28242 0.52298 0.73726 0.0
O635 O 0.31045 0.599 0.95305 0.0
O636 O 0.31385 0.57036 0.71632 0.0
O637 O 0.30992 0.53772 0.68919 0.0
O638 O 0.29698 0.50022 0.87474 0.0
O639 O 0.35687 0.56277 0.84791 0.0
O640 O 0.34521 0.5877 0.84632 0.0
O641 O 0.31093 0.49927 0.74811 0.0
O642 O 0.30396 0.53447 0.94288 0.0
O643 O 0.32483 0.5703 0.97097 0.0
C644 C 0.26342 0.52269 0.77143 0.0
C645 C 0.33101 0.63274 0.92659 0.0
C646 C 0.366 0.66604 0.89907 0.0
C647 C 0.36983 0.67575 0.9894 0.0
C648 C 0.33486 0.64263 0.01608 0.0
C649 C 0.35446 0.66401 0.04759 0.0
C650 C 0.34686 0.64434 0.86855 0.0
C651 C 0.31256 0.55468 0.66258 0.0
C652 C 0.30992 0.61042 0.89674 0.0
C653 C 0.19977 0.55197 0.88599 0.0
C654 C 0.19524 0.54883 0.79136 0.0
C655 C 0.3627 0.58221 0.84894 0.0
C656 C 0.28632 0.46587 0.79469 0.0
C657 C 0.25709 0.43205 0.83461 0.0
C658 C 0.26112 0.42173 0.76162 0.0
C659 C 0.2904 0.45534 0.72224 0.0
C660 C 0.26988 0.45416 0.85185 0.0
C661 C 0.27788 0.43338 0.70608 0.0
C662 C 0.31507 0.55258 -0.00021 0.0
C663 C 0.29811 0.48877 0.80646 0.0
H664 H 0.38368 0.69269 0.01399 0.0
H665 H 0.32253 0.63379 0.06152 0.0
H666 H 0.35716 0.67163 0.11626 0.0
H667 H 0.34364 0.6368 0.79906 0.0
H668 H 0.25141 0.40464 0.74815 0.0
H669 H 0.30305 0.46403 0.67729 0.0
H670 H 0.26647 0.46205 0.90786 0.0
H671 H 0.28101 0.42536 0.65 0.0
Eu672 Eu 0.6051 0.74451 0.87341 0.0
C673 C 0.56014 0.64898 0.87744 0.0
N674 N 0.58329 0.66616 0.92849 0.0
C675 C 0.57477 0.65078 0.05989 0.0
C676 C 0.54299 0.6321 0.91696 0.0
C677 C 0.59135 0.66697 0.01744 0.0
C678 C 0.55036 0.63336 0.00963 0.0
C679 C 0.52975 0.63049 0.73106 0.0
C680 C 0.5535 0.64835 0.78548 0.0
C681 C 0.51275 0.61362 0.77019 0.0
C682 C 0.51919 0.6145 0.86296 0.0
Eu683 Eu 0.60962 0.69275 0.85229 0.0
N684 N 0.57058 0.66478 0.74875 0.0
C685 C 0.5241 0.6298 0.63821 0.0
C686 C 0.56613 0.66327 0.65722 0.0
C687 C 0.54258 0.64613 0.60095 0.0
H688 H 0.61051 0.68015 0.05596 0.0
H689 H 0.53905 0.64526 0.52853 0.0
H690 H 0.6048 0.75331 0.65984 0.0
H691 H 0.67088 0.79905 0.18884 0.0
H692 H 0.58105 0.67461 0.6264 0.0
H693 H 0.50602 0.61638 0.59427 0.0
H694 H 0.63066 0.76659 0.09349 0.0
H695 H 0.58088 0.65173 0.13115 0.0
H696 H 0.49468 0.59966 0.72887 0.0
H697 H 0.50576 0.60136 0.89206 0.0
H698 H 0.6356 0.77795 0.57523 0.0
H699 H 0.53754 0.62083 0.04267 0.0
H700 H 0.70478 0.82572 0.11663 0.0
N701 N 0.63272 0.76723 0.78499 0.0
C702 C 0.65567 0.7852 0.83345 0.0
C703 C 0.64188 0.77988 0.64739 0.0
C704 C 0.67331 0.8007 0.78918 0.0
C705 C 0.62481 0.76527 0.69457 0.0
C706 C 0.66652 0.79749 0.69469 0.0
N707 N 0.64297 0.77416 0.96996 0.0
C708 C 0.64581 0.77784 0.06188 0.0
C709 C 0.68351 0.80793 0.97982 0.0
C710 C 0.66065 0.78897 0.92818 0.0
C711 C 0.68739 0.81136 0.07464 0.0
C712 C 0.66835 0.79631 0.11577 0.0
H713 H 0.67948 0.80908 0.65828 0.0
H714 H 0.71028 0.83137 0.80759 0.0
H715 H 0.71935 0.83757 0.9741 0.0
O716 O 0.57821 0.7509 0.9383 0.0
O717 O 0.64651 0.74874 0.92685 0.0
O718 O 0.64488 0.72299 0.82797 0.0
O719 O 0.59773 0.76864 0.84144 0.0
O720 O 0.59959 0.72974 -0.00294 0.0
O721 O 0.62319 0.71313 0.99515 0.0
O722 O 0.61734 0.67055 0.77907 0.0
O723 O 0.57365 0.69085 0.89509 0.0
O724 O 0.56559 0.71189 0.81767 0.0
O725 O 0.6396 0.68774 0.9182 0.0
O726 O 0.61496 0.70872 0.73188 0.0
O727 O 0.58972 0.72343 0.73224 0.0
C728 C 0.65904 0.74079 0.88853 0.0
C729 C 0.55626 0.76377 0.84858 0.0
C730 C 0.52886 0.779 0.82284 0.0
C731 C 0.51324 0.76246 0.74576 0.0
C732 C 0.53959 0.7474 0.77292 0.0
C733 C 0.51839 0.74685 0.72193 0.0
C734 C 0.55091 0.77969 0.87366 0.0
C735 C 0.61194 0.72173 0.03705 0.0
C736 C 0.58078 0.76527 0.89292 0.0
C737 C 0.69649 0.81935 0.84059 0.0
C738 C 0.70159 0.82293 0.93551 0.0
C739 C 0.55691 0.6948 0.8533 0.0
C740 C 0.6497 0.66316 0.8451 0.0
C741 C 0.66634 0.64459 0.76119 0.0
C742 C 0.67831 0.64356 0.84407 0.0
C743 C 0.66171 0.66181 0.92681 0.0
C744 C 0.65165 0.65417 0.762 0.0
C745 C 0.6758 0.65197 0.92612 0.0
C746 C 0.60066 0.71485 0.68935 0.0
C747 C 0.63519 0.67387 0.84766 0.0
H748 H 0.49706 0.76166 0.70191 0.0
H749 H 0.54354 0.73535 0.75145 0.0
H750 H 0.50607 0.73439 0.66232 0.0
H751 H 0.56388 0.79248 0.93166 0.0
H752 H 0.68947 0.63608 0.84527 0.0
H753 H 0.6601 0.66829 0.99136 0.0
H754 H 0.64245 0.65513 0.69843 0.0
H755 H 0.68493 0.65094 0.98951 0.0
C756 C 0.16863 0.36042 0.15811 0.0
C757 C 0.17116 0.34299 0.15017 0.0
C758 C 0.1791 0.37505 0.10199 0.0
C759 C 0.19226 0.37204 0.03638 0.0
C760 C 0.1931 0.35361 0.02329 0.0
C761 C 0.18252 0.33925 0.08066 0.0
C762 C 0.17749 0.39436 0.11664 0.0
C763 C 0.20685 0.34983 0.95326 0.0
C764 C 0.21245 0.40444 0.85476 0.0
C765 C 0.23952 0.41935 0.89222 0.0
C766 C 0.1963 0.38942 0.90269 0.0
C767 C 0.20785 0.38928 0.98907 0.0
C768 C 0.23496 0.40503 0.02889 0.0
C769 C 0.2505 0.4201 0.97997 0.0
C770 C 0.16741 0.37304 0.85867 0.0
C771 C 0.24794 0.40518 0.12072 0.0
H772 H 0.15914 0.36296 0.21017 0.0
H773 H 0.18439 0.32571 0.0741 0.0
H774 H 0.19767 0.40864 0.14706 0.0
H775 H 0.17057 0.39686 0.05099 0.0
H776 H 0.16381 0.39301 0.16249 0.0
H777 H 0.20221 0.33338 0.9423 0.0
H778 H 0.20095 0.35285 0.88743 0.0
H779 H 0.22881 0.36102 0.97623 0.0
H780 H 0.20421 0.40409 0.78658 0.0
H781 H 0.27158 0.43167 0.00798 0.0
H782 H 0.1543 0.37095 0.90758 0.0
H783 H 0.16489 0.35751 0.83656 0.0
H784 H 0.16061 0.37739 0.79841 0.0
H785 H 0.2363 0.40525 0.17212 0.0
H786 H 0.26883 0.41912 0.14386 0.0
H787 H 0.24809 0.39053 0.11759 0.0
C788 C 0.8225 0.80315 0.94784 0.0
C789 C 0.83475 0.79809 0.01665 0.0
C790 C 0.79448 0.79438 0.92868 0.0
C791 C 0.77756 0.78036 0.98078 0.0
C792 C 0.78997 0.77546 0.0515 0.0
C793 C 0.81803 0.78409 0.0677 0.0
C794 C 0.78299 0.80022 0.8521 0.0
C795 C 0.77357 0.76113 0.11104 0.0
C796 C 0.70676 0.7708 0.97623 0.0
C797 C 0.68946 0.7513 0.91411 0.0
C798 C 0.73506 0.7804 -0.00181 0.0
C799 C 0.74705 0.7703 0.95902 0.0
C800 C 0.72961 0.7505 0.89725 0.0
C801 C 0.70155 0.74145 0.87567 0.0
C802 C 0.75218 0.80148 0.06392 0.0
C803 C 0.74067 0.73883 0.8525 0.0
H804 H 0.83495 0.81394 0.90783 0.0
H805 H 0.82704 0.78033 0.12238 0.0
H806 H 0.76654 0.78565 0.80382 0.0
H807 H 0.77437 0.80898 0.87929 0.0
H808 H 0.79825 0.81027 0.81445 0.0
H809 H 0.78618 0.76041 0.1683 0.0
H810 H 0.76159 0.76673 0.13892 0.0
H811 H 0.75935 0.74485 0.07013 0.0
H812 H 0.69821 0.77863 0.00819 0.0
H813 H 0.68897 0.72638 0.82803 0.0
H814 H 0.76715 0.81345 0.03098 0.0
H815 H 0.76339 0.79998 0.1229 0.0
H816 H 0.7402 0.80744 0.08877 0.0
H817 H 0.75417 0.74855 0.80947 0.0
H818 H 0.72469 0.72316 0.80963 0.0
H819 H 0.75271 0.73633 0.90462 0.0
C820 C 0.34655 0.97146 0.9288 0.0
C821 C 0.31868 0.95929 0.90213 0.0
C822 C 0.36186 0.96512 0.88945 0.0
C823 C 0.34878 0.94608 0.823 0.0
C824 C 0.32087 0.93505 0.7893 0.0
C825 C 0.30608 0.94179 0.82977 0.0
C826 C 0.39166 0.97753 0.92595 0.0
C827 C 0.30616 0.91476 0.71823 0.0
C828 C 0.39062 0.92935 0.71554 0.0
C829 C 0.39302 0.9176 0.77645 0.0
C830 C 0.37616 0.93878 0.72909 0.0
C831 C 0.36321 0.93562 0.80338 0.0
C832 C 0.3648 0.92293 0.86257 0.0
C833 C 0.38033 0.91454 0.84964 0.0
C834 C 0.37536 0.95252 0.66577 0.0
C835 C 0.35028 0.9183 0.9401 0.0
H836 H 0.35615 0.98491 0.98542 0.0
H837 H 0.28445 0.93237 0.81002 0.0
H838 H 0.39639 0.96876 0.97041 0.0
H839 H 0.40246 0.97933 0.86976 0.0
H840 H 0.39925 0.99353 0.96618 0.0
H841 H 0.28633 0.91105 0.68466 0.0
H842 H 0.31785 0.91563 0.6657 0.0
H843 H 0.30295 0.90144 0.75099 0.0
H844 H 0.40068 0.93164 0.65906 0.0
H845 H 0.38235 0.90538 0.89624 0.0
H846 H 0.38653 0.96926 0.70313 0.0
H847 H 0.35449 0.94772 0.64064 0.0
H848 H 0.38434 0.95176 0.60669 0.0
H849 H 0.35828 0.93326 0.98975 0.0
H850 H 0.35227 0.90704 0.97595 0.0
H851 H 0.32871 0.91143 0.91452 0.0
C852 C 0.43279 0.1239 0.0251 0.0
C853 C 0.44467 0.14613 0.03616 0.0
C854 C 0.40523 0.10919 0.02425 0.0
C855 C 0.38763 0.11614 0.03442 0.0
C856 C 0.39934 0.13856 0.04553 0.0
C857 C 0.42727 0.15307 0.04654 0.0
C858 C 0.39495 0.08591 0.01142 0.0
C859 C 0.38237 0.14741 0.05808 0.0
C860 C 0.30962 0.07518 0.95494 0.0
C861 C 0.30122 0.06791 0.03419 0.0
C862 C 0.33711 0.09045 0.95385 0.0
C863 C 0.3575 0.1 0.03468 0.0
C864 C 0.34891 0.09315 0.11527 0.0
C865 C 0.32155 0.07718 0.11363 0.0
C866 C 0.34449 0.09598 0.86479 0.0
C867 C 0.36882 0.10268 0.20432 0.0
H868 H 0.4452 0.11768 0.01717 0.0
H869 H 0.43542 0.16991 0.05597 0.0
H870 H 0.38524 0.07929 0.06776 0.0
H871 H 0.37961 0.07713 0.94763 0.0
H872 H 0.41108 0.08291 0.00827 0.0
H873 H 0.3934 0.16472 0.05923 0.0
H874 H 0.36427 0.13911 0.00284 0.0
H875 H 0.37552 0.1446 0.12287 0.0
H876 H 0.29474 0.06833 0.89233 0.0
H877 H 0.31597 0.07211 0.17591 0.0
H878 H 0.35912 0.09196 0.84987 0.0
H879 H 0.35429 0.1133 0.8691 0.0
H880 H 0.32685 0.08741 0.80757 0.0
H881 H 0.38298 0.09754 0.203 0.0
H882 H 0.35899 0.09788 0.26263 0.0
H883 H 0.38072 0.12026 0.21528 0.0
C884 C 0.99075 0.3046 0.22499 0.0
C885 C 0.96624 0.29758 0.16755 0.0
C886 C 1.00249 0.29252 0.22192 0.0
C887 C 0.98941 0.27254 0.16105 0.0
C888 C 0.96478 0.26543 0.10273 0.0
C889 C 0.95393 0.27812 0.10549 0.0
C890 C 0.02914 0.3013 0.28355 0.0
C891 C 0.94969 0.24425 0.03732 0.0
C892 C 0.03105 0.2502 0.09232 0.0
C893 C 1.02546 0.23489 0.1457 0.0
C894 C 1.0193 0.26222 0.09585 0.0
C895 C 1.00184 0.25946 0.15603 0.0
C896 C 0.99613 0.24401 0.21026 0.0
C897 C 1.0077 0.23185 0.20382 0.0
C898 C 1.02555 0.27787 0.03446 0.0
C899 C 0.97803 0.24052 0.27634 0.0
H900 H 1.00097 0.31969 0.27245 0.0
H901 H 0.93592 0.27288 0.05745 0.0
H902 H 0.02761 0.2898 0.32572 0.0
H903 H 0.04418 0.30366 0.24226 0.0
H904 H 0.03648 0.31669 0.32894 0.0
H905 H 0.93237 0.24185 0.98998 0.0
H906 H 0.96305 0.24274 -0.00302 0.0
H907 H 0.94225 0.23133 0.07596 0.0
H908 H 0.0445 0.25267 0.04653 0.0
H909 H 1.0033 0.22025 0.24607 0.0
H910 H 0.03547 0.29413 0.07576 0.0
H911 H 1.00677 0.27418 0.99168 0.0
H912 H 0.03874 0.27772 0.98935 0.0
H913 H 0.98712 0.25523 0.32886 0.0
H914 H 0.97445 0.2273 0.31051 0.0
H915 H 0.95852 0.23702 0.24086 0.0
C916 C 0.87398 0.68035 0.15347 0.0
C917 C 0.85715 0.68458 0.10014 0.0
C918 C 0.86445 0.65984 0.17368 0.0
C919 C 0.8376 0.64249 0.13701 0.0
C920 C 0.82025 0.64706 0.08786 0.0
C921 C 0.83004 0.66777 0.0712 0.0
C922 C 0.88359 0.65653 0.23124 0.0
C923 C 0.79144 0.62969 0.04799 0.0
C924 C 0.82188 0.58492 0.08722 0.0
C925 C 0.80765 0.57552 0.15376 0.0
C926 C 0.8316 0.60638 0.08143 0.0
C927 C 0.82793 0.61951 0.14508 0.0
C928 C 0.81402 0.61017 0.21364 0.0
C929 C 0.80394 0.58852 0.2164 0.0
C930 C 0.84542 0.6149 0.00526 0.0
C931 C 0.81035 0.62313 0.28648 0.0
H932 H 0.89503 0.69273 0.17501 0.0
H933 H 0.81677 0.67042 0.02853 0.0
H934 H 0.87373 0.64665 0.28048 0.0
H935 H 0.88989 0.64797 0.1873 0.0
H936 H 0.90172 0.67183 0.26904 0.0
H937 H 0.78043 0.63555 0.01077 0.0
H938 H 0.79043 0.61687 0.00066 0.0
H939 H 0.78114 0.62257 0.10259 0.0
H940 H 0.82482 0.57527 0.03766 0.0
H941 H 0.79325 0.5818 0.26891 0.0
H942 H 0.86625 0.62847 0.03348 0.0
H943 H 0.83507 0.62089 0.96527 0.0
H944 H 0.84587 0.60269 0.95899 0.0
H945 H 0.82925 0.63297 0.3382 0.0
H946 H 0.79418 0.6129 0.32082 0.0
H947 H 0.80576 0.63406 0.25893 0.0
C948 C 0.21384 0.50525 0.75692 0.0
C949 C 0.23544 0.50653 0.7249 0.0
C950 C 0.18744 0.49051 0.70915 0.0
C951 C 0.18262 0.47623 0.62957 0.0
C952 C 0.20436 0.47706 0.59861 0.0
C953 C 0.23043 0.49228 0.64608 0.0
C954 C 0.16478 0.49011 0.74421 0.0
C955 C 0.20015 0.46174 0.51548 0.0
C956 C 0.11974 0.42219 0.53671 0.0
C957 C 0.10943 0.42543 0.45694 0.0
C958 C 0.14229 0.43911 0.59851 0.0
C959 C 0.15501 0.45971 0.57928 0.0
C960 C 0.14347 0.46337 0.50231 0.0
C961 C 0.12061 0.44612 0.44203 0.0
C962 C 0.15388 0.43454 0.67992 0.0
C963 C 0.1566 0.48516 0.47984 0.0
H964 H 0.21748 0.5157 0.81926 0.0
H965 H 0.24693 0.49291 0.62105 0.0
H966 H 0.15227 0.49179 0.69037 0.0
H967 H 0.15176 0.47463 0.76296 0.0
H968 H 0.17201 0.50295 0.80453 0.0
H969 H 0.21927 0.4646 0.50036 0.0
H970 H 0.18789 0.44519 0.52529 0.0
H971 H 0.18909 0.46308 0.45556 0.0
H972 H 0.11088 0.40619 0.54846 0.0
H973 H 0.11261 0.44861 0.38025 0.0
H974 H 0.15987 0.4467 0.74152 0.0
H975 H 0.17209 0.43512 0.66821 0.0
H976 H 0.13953 0.41863 0.69292 0.0
H977 H 0.16105 0.49718 0.53995 0.0
H978 H 0.14393 0.48583 0.42258 0.0
H979 H 0.17593 0.48965 0.46119 0.0
C980 C 0.69551 0.64198 0.66345 0.0
C981 C 0.66981 0.63586 0.67501 0.0
C982 C 0.69935 0.63245 0.58698 0.0
C983 C 0.67688 0.61609 0.52097 0.0
C984 C 0.65087 0.61031 0.53088 0.0
C985 C 0.64765 0.62042 0.60746 0.0
C986 C 0.72744 0.63954 0.57814 0.0
C987 C 0.62639 0.59279 0.46258 0.0
C988 C 0.68369 0.59856 0.28575 0.0
C989 C 0.68373 0.58034 0.29468 0.0
C990 C 0.68226 0.61071 0.35936 0.0
C991 C 0.68046 0.60434 0.44385 0.0
C992 C 0.68128 0.58629 0.45399 0.0
C993 C 0.68312 0.57461 0.3795 0.0
C994 C 0.68219 0.63014 0.34614 0.0
C995 C 0.67931 0.5789 0.54277 0.0
H996 H 0.71267 0.65412 0.71521 0.0
H997 H 0.62776 0.61562 0.61647 0.0
H998 H 0.73039 0.62636 0.58212 0.0
H999 H 0.73076 0.64376 0.5111 0.0
H1000 H 0.74275 0.65344 0.63207 0.0
H1001 H 0.6077 0.59091 0.47739 0.0
H1002 H 0.62801 0.59597 0.39329 0.0
H1003 H 0.62491 0.57755 0.46262 0.0
H1004 H 0.68467 0.60328 0.22074 0.0
H1005 H 0.68311 0.56054 0.38677 0.0
H1006 H 0.69775 0.64409 0.3992 0.0
H1007 H 0.66263 0.62762 0.35311 0.0
H1008 H 0.6858 0.63388 0.27848 0.0
H1009 H 0.69537 0.59187 0.59822 0.0
H1010 H 0.68086 0.56488 0.54029 0.0
H1011 H 0.65995 0.5747 0.56027 0.0
C1012 C 0.47521 0.06458 0.29029 0.0
C1013 C 0.48423 0.06214 0.21184 0.0
C1014 C 0.47719 0.05494 0.36207 0.0
C1015 C 0.4887 0.04276 0.35522 0.0
C1016 C 0.49838 0.04069 0.27646 0.0
C1017 C 0.49588 0.05034 0.20537 0.0
C1018 C 0.46655 0.05751 0.44456 0.0
C1019 C 0.51098 0.02803 0.26677 0.0
C1020 C 0.51506 0.03498 0.5775 0.0
C1021 C 0.49406 1.01472 0.58297 0.0
C1022 C 0.51378 0.04407 0.50315 0.0
C1023 C 0.49105 0.03255 0.4313 0.0
C1024 C 0.47027 1.01165 0.43407 0.0
C1025 C 0.47202 1.00294 0.50996 0.0
C1026 C 0.53645 0.06631 0.503 0.0
C1027 C 0.44568 0.99886 0.35875 0.0
H1028 H 0.46608 0.07367 0.29448 0.0
H1029 H 0.50271 0.04845 0.14408 0.0
H1030 H 0.45091 0.04169 0.45458 0.0
H1031 H 0.48281 0.06513 0.50602 0.0
H1032 H 0.45788 0.06725 0.43873 0.0
H1033 H 0.51849 0.02869 0.20295 0.0
H1034 H 0.52786 0.03405 0.32499 0.0
H1035 H 0.49613 1.01119 0.26752 0.0
H1036 H 0.5324 0.04399 0.63281 0.0
H1037 H 0.45567 0.98731 0.5138 0.0
H1038 H 0.52908 0.07701 0.50381 0.0
H1039 H 0.54426 0.06652 0.44018 0.0
H1040 H 0.55317 0.0728 0.56245 0.0
H1041 H 0.43403 1.00634 0.35835 0.0
H1042 H 0.43259 0.98221 0.36651 0.0
H1043 H 0.45139 0.99873 0.29189 0.0
C1044 C 0.154 0.11787 0.05538 0.0
C1045 C 0.14068 0.09841 0.08306 0.0
C1046 C 0.14818 0.13337 0.07878 0.0
C1047 C 0.12854 0.12934 0.13115 0.0
C1048 C 0.11672 0.11041 0.16546 0.0
C1049 C 0.12278 0.09516 0.14046 0.0
C1050 C 0.16134 0.15326 0.04071 0.0
C1051 C 0.09577 0.1052 0.22164 0.0
C1052 C 0.11823 0.17395 0.21328 0.0
C1053 C 0.09732 0.16984 0.1446 0.0
C1054 C 0.12861 0.16098 0.21048 0.0
C1055 C 0.1176 0.14322 0.13798 0.0
C1056 C 0.09599 0.13869 0.06999 0.0
C1057 C 0.08626 0.15202 0.07395 0.0
C1058 C 0.15133 0.16625 0.28518 0.0
C1059 C 0.0831 0.11974 0.99233 0.0
H1060 H 0.16736 0.12026 0.00931 0.0
H1061 H 0.11198 0.07996 0.16041 0.0
H1062 H 0.14628 0.15279 0.98898 0.0
H1063 H 0.16932 0.16747 0.09499 0.0
H1064 H 0.17788 0.15505 0.0086 0.0
H1065 H 0.0939 0.09329 0.26201 0.0
H1066 H 0.10038 0.1196 0.26836 0.0
H1067 H 0.07612 0.09843 0.17592 0.0
H1068 H 0.12651 0.1873 0.26936 0.0
H1069 H 0.06989 0.14841 0.02092 0.0
H1070 H 0.16874 0.16907 0.25619 0.0
H1071 H 0.14525 0.15262 0.31912 0.0
H1072 H 0.15768 0.18053 0.33687 0.0
H1073 H 0.09827 0.12075 0.95435 0.0
H1074 H 0.0667 0.11851 0.94432 0.0
H1075 H 0.07483 0.10493 0.01901 0.0
C1076 C 0.95768 0.97281 0.10229 0.0
C1077 C 0.97674 0.97278 0.16398 0.0
C1078 C 0.96336 0.99168 0.07704 0.0
C1079 C 0.98866 1.01054 0.11468 0.0
C1080 C 1.00913 1.00973 0.16609 0.0
C1081 C 1.00274 0.99072 0.19153 0.0
C1082 C 0.94116 0.99193 0.02049 0.0
C1083 C 0.03676 0.02925 0.20365 0.0
C1084 C 0.99252 0.05819 0.04797 0.0
C1085 C 0.98102 0.06283 0.1145 0.0
C1086 C 0.99735 0.04207 0.0504 0.0
C1087 C 0.99062 0.03082 0.12128 0.0
C1088 C 0.98145 0.037 0.19309 0.0
C1089 C 0.97649 0.05289 0.18817 0.0
C1090 C 1.00795 0.03625 0.97461 0.0
C1091 C 0.97511 0.02588 0.27201 0.0
H1092 H 0.93774 0.95858 0.0801 0.0
H1093 H 1.01755 0.99021 0.23738 0.0
H1094 H 0.93319 0.99892 0.06515 0.0
H1095 H 0.94873 1.00186 0.96938 0.0
H1096 H 0.92443 0.97571 0.98499 0.0
H1097 H 0.05198 0.02516 0.2038 0.0
H1098 H 0.04169 0.04192 0.16455 0.0
H1099 H 0.03806 0.03558 0.27501 0.0
H1100 H 0.99665 0.06653 0.99238 0.0
H1101 H 0.96852 0.05728 0.24081 0.0
H1102 H 0.99102 0.02251 0.92402 0.0
H1103 H 1.02172 0.03156 0.00028 0.0
H1104 H 1.01858 0.04959 0.93951 0.0
H1105 H 0.95739 1.00941 0.24789 0.0
H1106 H 0.97077 0.0341 0.32606 0.0
H1107 H 0.99207 0.02497 0.30217 0.0
C1108 C 1.02437 0.88026 0.11946 0.0
C1109 C 1.00148 0.87441 0.05391 0.0
C1110 C 0.05116 0.89794 0.11944 0.0
C1111 C 0.05668 0.91061 0.05116 0.0
C1112 C 0.0337 0.90435 0.98399 0.0
C1113 C 1.00724 0.88713 0.98708 0.0
C1114 C 0.07376 0.90344 0.19485 0.0
C1115 C 0.03704 0.91563 0.906 0.0
C1116 C 0.12138 0.96914 0.07617 0.0
C1117 C 0.13992 0.96629 0.03732 0.0
C1118 C 0.09536 0.9517 0.08327 0.0
C1119 C 0.08584 0.92991 0.04849 0.0
C1120 C 0.10441 0.92704 0.00808 0.0
C1121 C 0.13056 0.94473 0.00449 0.0
C1122 C 0.07809 0.95674 0.13041 0.0
C1123 C 0.09691 0.90503 0.96774 0.0
H1124 H 1.02132 0.87144 0.17318 0.0
H1125 H 0.99062 0.8835 0.93508 0.0
H1126 H 0.08866 0.90146 0.16647 0.0
H1127 H 0.0841 0.92035 0.22915 0.0
H1128 H 0.06679 0.89335 0.24597 0.0
H1129 H 1.0176 0.91008 0.86155 0.0
H1130 H 0.04779 0.933 0.93129 0.0
H1131 H 0.04936 0.91285 0.86463 0.0
H1132 H 0.12742 0.98525 0.10319 0.0
H1133 H 0.14357 0.94153 0.97307 0.0
H1134 H 0.07297 0.94838 0.18767 0.0
H1135 H 0.05905 0.95096 0.08304 0.0
H1136 H 0.08808 0.97404 0.15696 0.0
H1137 H 0.10066 0.89782 0.02257 0.0
H1138 H 0.10904 0.90535 0.91737 0.0
H1139 H 0.07543 0.89469 0.93434 0.0
C1140 C 0.83993 0.41983 0.1192 0.0
C1141 C 0.8598 0.44125 0.12443 0.0
C1142 C 0.84591 0.40399 0.10988 0.0
C1143 C 0.87244 0.40974 0.10779 0.0
C1144 C 0.89177 0.43104 0.10507 0.0
C1145 C 0.88516 0.44633 0.11241 0.0
C1146 C 0.82417 0.38127 0.10683 0.0
C1147 C 0.92029 0.43833 0.10353 0.0
C1148 C 0.89717 0.37795 0.21528 0.0
C1149 C 0.89997 0.36733 0.14004 0.0
C1150 C 0.88841 0.39178 0.20551 0.0
C1151 C 0.88083 0.39429 0.11779 0.0
C1152 C 0.88293 0.38303 0.04124 0.0
C1153 C 0.89301 0.3701 0.05349 0.0
C1154 C 0.88827 0.40435 0.28967 0.0
C1155 C 0.87429 0.3844 0.94617 0.0
H1156 H 0.8202 0.41561 0.12768 0.0
H1157 H 0.90057 0.46276 0.11491 0.0
H1158 H 0.82502 0.37038 0.05391 0.0
H1159 H 0.82716 0.37704 0.17289 0.0
H1160 H 0.80399 0.37863 0.09287 0.0
H1161 H 0.93181 0.45439 0.0877 0.0
H1162 H 0.92988 0.43896 0.17159 0.0
H1163 H 0.92142 0.42709 0.05375 0.0
H1164 H 0.90299 0.37615 0.28235 0.0
H1165 H 0.89517 0.36192 0.99505 0.0
H1166 H 0.86778 0.40061 0.28903 0.0
H1167 H 0.90134 0.42159 0.29089 0.0
H1168 H 0.89538 0.40106 0.35282 0.0
H1169 H 0.85219 0.37595 0.92954 0.0
H1170 H 0.88051 0.37712 0.89506 0.0
H1171 H 0.88257 0.40112 0.94044 0.0
C1172 C 0.69131 0.43522 0.02583 0.0
C1173 C 0.71585 0.44693 0.08887 0.0
C1174 C 0.67392 0.41293 0.01506 0.0
C1175 C 0.68098 0.40167 0.06843 0.0
C1176 C 0.70608 0.41332 0.13035 0.0
C1177 C 0.72304 0.43559 0.13975 0.0
C1178 C 0.64767 0.40157 0.94765 0.0
C1179 C 0.715 0.40224 0.18766 0.0
C1180 C 0.6282 0.34843 0.12228 0.0
C1181 C 0.63051 0.33361 0.06649 0.0
C1182 C 0.64358 0.37037 0.12069 0.0
C1183 C 0.66202 0.37795 0.0623 0.0
C1184 C 0.66346 0.36286 0.00277 0.0
C1185 C 0.64793 0.34105 0.00608 0.0
C1186 C 0.64117 0.38565 0.18528 0.0
C1187 C 0.68234 0.36986 0.93825 0.0
H1188 H 0.68559 0.44347 0.98441 0.0
H1189 H 0.74196 0.44417 0.18808 0.0
H1190 H 0.64332 0.3864 0.90876 0.0
H1191 H 0.63135 0.39774 0.98466 0.0
H1192 H 0.64743 0.41145 0.89915 0.0
H1193 H 0.7349 0.41342 0.23317 0.0
H1194 H 0.70023 0.39382 0.22968 0.0
H1195 H 0.71603 0.39011 0.14329 0.0
H1196 H 0.61544 0.34302 0.17102 0.0
H1197 H 0.65039 0.32986 0.96431 0.0
H1198 H 0.63716 0.39576 0.14767 0.0
H1199 H 0.66035 0.39635 0.23506 0.0
H1200 H 0.62501 0.37735 0.22286 0.0
H1201 H 0.67884 0.37956 0.89611 0.0
H1202 H 0.68007 0.35619 0.89272 0.0
H1203 H 0.70328 0.37999 0.97719 0.0
C1204 C 0.6164 0.21216 0.97849 0.0
C1205 C 0.60824 0.21905 0.0508 0.0
C1206 C 0.64348 0.22108 0.97681 0.0
C1207 C 0.66321 0.23797 0.0477 0.0
C1208 C 0.65523 0.24562 0.11919 0.0
C1209 C 0.62788 0.23584 0.12073 0.0
C1210 C 0.6509 0.21215 0.89981 0.0
C1211 C 0.67568 0.26412 0.19445 0.0
C1212 C 0.73472 0.25176 0.1036 0.0
C1213 C 0.74832 0.27003 0.06782 0.0
C1214 C 0.70678 0.2406 0.09435 0.0
C1215 C 0.69221 0.24777 0.04743 0.0
C1216 C 0.70576 0.26523 0.00514 0.0
C1217 C 0.73366 0.2762 0.0163 0.0
C1218 C 0.69295 0.22157 0.13731 0.0
C1219 C 0.69104 0.27312 0.95255 0.0
H1220 H 0.60157 0.19942 0.92316 0.0
H1221 H 0.62197 0.24106 0.17756 0.0
H1222 H 0.66482 0.22497 0.86764 0.0
H1223 H 0.66143 0.20486 0.92656 0.0
H1224 H 0.63314 0.19991 0.84687 0.0
H1225 H 0.66634 0.26815 0.24526 0.0
H1226 H 0.68954 0.26042 0.22947 0.0
H1227 H 0.68782 0.27828 0.16557 0.0
H1228 H 0.74607 0.24701 0.14356 0.0
H1229 H 0.74427 0.29032 0.98845 0.0
H1230 H 0.67838 0.20749 0.08358 0.0
H1231 H 0.68166 0.22382 0.18532 0.0
H1232 H 0.70713 0.21836 0.17393 0.0
H1233 H 0.67402 0.25992 0.90032 0.0
H1234 H 0.70422 0.28593 0.91857 0.0
H1235 H 0.68268 0.27932 -0.00087 0.0
C1236 C 0.54108 0.81703 0.87705 0.0
C1237 C 0.52168 0.7952 0.84495 0.0
C1238 C 0.5339 0.83218 0.88261 0.0
C1239 C 0.50684 0.82554 0.8533 0.0
C1240 C 0.48714 0.80354 0.82742 0.0
C1241 C 0.49469 0.78881 0.82508 0.0
C1242 C 0.55531 0.85537 0.91737 0.0
C1243 C 0.45802 0.7953 0.79512 0.0
C1244 C 0.47545 0.85787 0.88917 0.0
C1245 C 0.47518 0.86444 0.80641 0.0
C1246 C 0.48773 0.8468 0.9088 0.0
C1247 C 0.49898 0.84123 0.84237 0.0
C1248 C 0.49916 0.84828 0.75935 0.0
C1249 C 0.48784 0.86019 0.74332 0.0
C1250 C 0.48715 0.83994 -0.0015 0.0
C1251 C 0.50977 0.84206 0.68483 0.0
H1252 H 0.56196 0.82242 0.89425 0.0
H1253 H 0.4792 0.77209 0.80371 0.0
H1254 H 0.55865 0.86387 0.86047 0.0
H1255 H 0.54886 0.86263 0.96751 0.0
H1256 H 0.57455 0.85784 0.94962 0.0
H1257 H 0.44508 0.7796 0.81131 0.0
H1258 H 0.45218 0.80584 0.82555 0.0
H1259 H 0.45383 0.79361 0.72043 0.0
H1260 H 0.46574 0.8612 0.93836 0.0
H1261 H 0.48751 0.86511 0.67906 0.0
H1262 H 0.50672 0.84257 0.02741 0.0
H1263 H 0.47182 0.82271 0.98813 0.0
H1264 H 0.48224 0.8486 0.04837 0.0
H1265 H 0.53066 0.84703 0.71056 0.0
H1266 H 0.50919 0.84923 0.62533 0.0
H1267 H 0.49768 0.82452 0.66209 0.0
C1268 C 0.40329 0.69817 0.86431 0.0
C1269 C 0.37796 0.67954 0.83407 0.0
C1270 C 0.40855 0.71671 0.83691 0.0
C1271 C 0.3888 0.71568 0.77212 0.0
C1272 C 0.36633 0.69576 0.72455 0.0
C1273 C 0.36092 0.67769 0.75715 0.0
C1274 C 0.43271 0.7374 0.89011 0.0
C1275 C 0.3454 0.69392 0.65154 0.0
C1276 C 0.36259 0.75041 0.80572 0.0
C1277 C 0.37054 0.76127 0.73548 0.0
C1278 C 0.37106 0.73708 0.82551 0.0
C1279 C 0.38719 0.73436 0.77159 0.0
C1280 C 0.39708 0.74676 0.70601 0.0
C1281 C 0.38885 0.76043 0.68943 0.0
C1282 C 0.36025 0.7242 0.897 0.0
C1283 C 0.41426 0.74415 0.64791 0.0
H1284 H 0.41694 0.69914 0.92102 0.0
H1285 H 0.34154 0.66306 0.73121 0.0
H1286 H 0.43834 0.75031 0.85281 0.0
H1287 H 0.42822 0.74179 0.95489 0.0
H1288 H 0.44999 0.73585 0.90688 0.0
H1289 H 0.33318 0.67777 0.60765 0.0
H1290 H 0.33178 0.69697 0.68374 0.0
H1291 H 0.35465 0.70571 0.6084 0.0
H1292 H 0.34839 0.75129 0.84084 0.0
H1293 H 0.39487 0.76903 0.63516 0.0
H1294 H 0.37606 0.72351 0.93892 0.0
H1295 H 0.34393 0.70769 0.86355 0.0
H1296 H 0.35204 0.73082 0.94242 0.0
H1297 H 0.43018 0.74361 0.68993 0.0
H1298 H 0.42365 0.75718 0.61037 0.0
H1299 H 0.40176 0.72888 0.5979 0.0
C1300 C 0.5205 0.66644 0.91629 0.0
C1301 C 0.52779 0.6799 0.85351 0.0
C1302 C 0.49366 0.65104 0.91556 0.0
C1303 C 0.47302 0.64876 0.8503 0.0
C1304 C 0.48003 0.66253 0.78765 0.0
C1305 C 0.50727 0.678 0.79029 0.0
C1306 C 0.48749 0.63705 0.98456 0.0
C1307 C 0.45871 0.66061 0.71661 0.0
C1308 C 0.40644 0.59469 0.80187 0.0
C1309 C 0.3909 0.59915 0.85022 0.0
C1310 C 0.43268 0.61076 0.79855 0.0
C1311 C 0.44426 0.6318 0.8475 0.0
C1312 C 0.42866 0.63627 0.89745 0.0
C1313 C 0.40211 0.62003 0.8969 0.0
C1314 C 0.44814 0.60495 0.74423 0.0
C1315 C 0.4402 0.65811 0.95352 0.0
H1316 H 0.5359 0.66778 0.96645 0.0
H1317 H 0.51247 0.6882 0.74143 0.0
H1318 H 0.47312 0.63776 0.02198 0.0
H1319 H 0.47795 0.6203 0.94967 0.0
H1320 H 0.50567 0.64167 0.03434 0.0
H1321 H 0.46727 0.67186 0.67066 0.0
H1322 H 0.44626 0.64418 0.67547 0.0
H1323 H 0.44528 0.66371 0.74977 0.0
H1324 H 0.39784 0.57867 0.76465 0.0
H1325 H 0.39023 0.62358 0.93468 0.0
H1326 H 0.46238 0.60367 0.79175 0.0
H1327 H 0.4597 0.61733 0.70594 0.0
H1328 H 0.43491 0.58944 0.69593 0.0
H1329 H 0.45706 0.66206 0.00805 0.0
H1330 H 0.42516 0.65928 0.98518 0.0
H1331 H 0.44829 0.6702 0.91099 0.0
C1332 C 0.0729 0.19303 0.83691 0.0
C1333 C 0.06188 0.20315 0.87917 0.0
C1334 C 0.07323 0.19188 0.74449 0.0
C1335 C 0.06056 0.19974 0.69249 0.0
C1336 C 0.0477 0.20857 0.73414 0.0
C1337 C 0.04928 0.21081 0.82798 0.0
C1338 C 0.08808 0.18314 0.70386 0.0
C1339 C 0.03212 0.2155 0.6794 0.0
C1340 C 0.079 0.22016 0.4794 0.0
C1341 C 0.06197 0.20195 0.41128 0.0
C1342 C 0.08043 0.21903 0.57118 0.0
C1343 C 0.06188 0.1999 0.59572 0.0
C1344 C 0.04368 0.18163 0.52752 0.0
C1345 C 0.04492 0.18264 0.43644 0.0
C1346 C 0.10181 0.23832 0.64184 0.0
C1347 C 1.02267 0.161 0.54934 0.0
H1348 H 0.08212 0.18671 0.8771 0.0
H1349 H 0.03994 0.21789 0.86091 0.0
H1350 H 0.07467 0.16978 0.64569 0.0
H1351 H 0.10466 0.19566 0.6778 0.0
H1352 H 0.09656 0.17746 0.75389 0.0
H1353 H 1.02031 0.21923 0.71972 0.0
H1354 H 0.04598 0.22984 0.65462 0.0
H1355 H 1.01831 0.20283 0.61907 0.0
H1356 H 0.09138 0.23533 0.46173 0.0
H1357 H 0.03179 0.16832 0.38491 0.0
H1358 H 0.11143 0.2337 0.69319 0.0
H1359 H 0.09278 0.24572 0.67781 0.0
H1360 H 0.11754 0.25041 0.61131 0.0
H1361 H 0.03107 0.15127 0.56064 0.0
H1362 H 1.00506 0.1516 0.49207 0.0
H1363 H 1.01572 0.16365 0.61111 0.0
C1364 C 0.89462 0.80925 0.73642 0.0
C1365 C 0.90763 0.82838 0.80061 0.0
C1366 C 0.89495 0.80915 0.6437 0.0
C1367 C 0.90736 0.8286 0.61349 0.0
C1368 C 0.91867 0.84785 0.67703 0.0
C1369 C 0.91919 0.84754 0.76956 0.0
C1370 C 0.88345 0.78826 0.57926 0.0
C1371 C 0.93067 0.86888 0.64762 0.0
C1372 C 0.93709 0.83497 0.40185 0.0
C1373 C 0.91551 0.82994 0.33427 0.0
C1374 C 0.93416 0.83342 0.49185 0.0
C1375 C 0.91003 0.82902 0.51681 0.0
C1376 C 0.88878 0.82532 0.44952 0.0
C1377 C 0.89128 0.82466 0.35833 0.0
C1378 C 0.95668 0.83603 0.55973 0.0
C1379 C 0.86367 0.82253 0.47395 0.0
H1380 H 0.88492 0.79432 0.7588 0.0
H1381 H 0.9291 0.86251 0.81768 0.0
H1382 H 0.87098 0.78698 0.516 0.0
H1383 H 0.9001 0.78732 0.56012 0.0
H1384 H 0.87117 0.77448 0.61014 0.0
H1385 H 0.9358 0.88203 0.70365 0.0
H1386 H 0.94912 0.87286 0.62334 0.0
H1387 H 0.9165 0.86789 0.5904 0.0
H1388 H 0.95601 0.83943 0.38401 0.0
H1389 H 0.87468 0.821 0.30613 0.0
H1390 H 0.9489 0.82264 0.59584 0.0
H1391 H 0.96575 0.85085 0.61141 0.0
H1392 H 0.9726 0.83666 0.52706 0.0
H1393 H 0.85265 0.80773 0.4999 0.0
H1394 H 0.85019 0.82183 0.41507 0.0
H1395 H 0.86893 0.83591 0.52887 0.0
C1396 C 0.23346 1.01004 0.71363 0.0
C1397 C 0.21382 1.01124 0.75071 0.0
C1398 C 0.23481 1.01068 0.6221 0.0
C1399 C 0.21704 1.01381 0.56687 0.0
C1400 C 0.19713 1.01498 0.60357 0.0
C1401 C 0.19495 1.01261 0.69344 0.0
C1402 C 0.25569 1.0084 0.58583 0.0
C1403 C 0.17871 0.01949 0.54904 0.0
C1404 C 0.24058 0.0375 0.36154 0.0
C1405 C 0.22236 0.02052 0.28981 0.0
C1406 C 0.23852 0.03581 0.45199 0.0
C1407 C 0.21931 1.01606 0.47116 0.0
C1408 C 0.20206 0.9985 0.3985 0.0
C1409 C 0.20301 1.00123 0.30868 0.0
C1410 C 0.25676 0.05521 0.52654 0.0
C1411 C 0.18318 0.97667 0.41546 0.0
H1412 H 0.24797 1.00859 0.7561 0.0
H1413 H 0.17898 1.01262 0.71964 0.0
H1414 H 0.24848 1.00003 0.51366 0.0
H1415 H 0.27381 0.02437 0.59079 0.0
H1416 H 0.26167 0.9996 0.62586 0.0
H1417 H 0.16744 0.02335 0.5917 0.0
H1418 H 0.19029 0.03301 0.5159 0.0
H1419 H 0.16415 1.00547 0.49475 0.0
H1420 H 0.2561 0.05225 0.34715 0.0
H1421 H 0.18927 0.988 0.25288 0.0
H1422 H 0.27283 0.0539 0.56209 0.0
H1423 H 0.24559 0.05659 0.5773 0.0
H1424 H 0.26627 0.07002 0.49958 0.0
H1425 H 0.19425 0.97241 0.46295 0.0
H1426 H 0.17335 0.96432 0.35191 0.0
H1427 H 0.16749 0.97651 0.44759 0.0
C1428 C 0.7915 0.52875 0.46674 0.0
C1429 C 0.76833 0.51348 0.40235 0.0
C1430 C 0.79233 0.52919 0.55981 0.0
C1431 C 0.76916 0.51441 0.58886 0.0
C1432 C 0.74556 0.49924 0.52412 0.0
C1433 C 0.74561 0.49872 0.43163 0.0
C1434 C 0.81801 0.54532 0.62688 0.0
C1435 C 0.72021 0.4836 0.55247 0.0
C1436 C 0.77347 0.50008 0.81893 0.0
C1437 C 0.76721 0.51281 0.87055 0.0
C1438 C 0.77516 0.50106 0.72802 0.0
C1439 C 0.76954 0.51453 0.68689 0.0
C1440 C 0.76334 0.52749 0.73858 0.0
C1441 C 0.76295 0.52688 0.83035 0.0
C1442 C 0.78273 0.48753 0.67571 0.0
C1443 C 0.75672 0.54178 0.69676 0.0
H1444 H 0.80893 0.54048 0.44443 0.0
H1445 H 0.72786 0.48658 0.38214 0.0
H1446 H 0.81481 0.55581 0.67323 0.0
H1447 H 0.82441 0.53713 0.66932 0.0
H1448 H 0.83444 0.55534 0.59299 0.0
H1449 H 0.70327 0.47346 0.4936 0.0
H1450 H 0.72355 0.4732 0.59015 0.0
H1451 H 0.71448 0.49223 0.59888 0.0
H1452 H 0.77717 0.48937 0.84956 0.0
H1453 H 0.75881 0.53722 0.87014 0.0
H1454 H 0.79974 0.49753 0.6441 0.0
H1455 H 0.76571 0.47557 0.62008 0.0
H1456 H 0.78841 0.47912 0.71937 0.0
H1457 H 0.77461 0.55451 0.67683 0.0
H1458 H 0.74986 0.5493 0.74405 0.0
H1459 H 0.74086 0.53264 0.63436 0.0
C1460 C 0.54671 0.20696 0.38825 0.0
C1461 C 0.53645 0.18864 0.32139 0.0
C1462 C 0.54522 0.20577 0.47954 0.0
C1463 C 0.53573 0.18608 0.50645 0.0
C1464 C 0.52849 0.16807 0.44122 0.0
C1465 C 0.52796 0.16936 0.34953 0.0
C1466 C 0.5536 0.22565 0.54616 0.0
C1467 C 0.52103 0.14733 0.46806 0.0
C1468 C 0.54932 0.18834 0.76052 0.0
C1469 C 0.5239 0.18039 0.77988 0.0
C1470 C 0.55341 0.18955 0.67159 0.0
C1471 C 0.53179 0.18385 0.60098 0.0
C1472 C 0.50612 0.17615 0.62078 0.0
C1473 C 0.50236 0.17406 0.70977 0.0
C1474 C 0.58098 0.1973 0.65422 0.0
C1475 C 0.48288 0.171 0.54863 0.0
H1476 H 0.55566 0.22226 0.36996 0.0
H1477 H 0.52114 0.15514 0.29992 0.0
H1478 H 0.54132 0.22211 0.5987 0.0
H1479 H 0.57477 0.23337 0.58069 0.0
H1480 H 0.55204 0.23721 0.5113 0.0
H1481 H 0.52023 0.13601 0.41239 0.0
H1482 H 0.5357 0.15014 0.52848 0.0
H1483 H 0.50116 0.13983 0.48642 0.0
H1484 H 0.56607 0.19364 0.8153 0.0
H1485 H 0.48287 0.16845 0.72537 0.0
H1486 H 0.59093 0.2141 0.64747 0.0
H1487 H 0.57988 0.18792 0.59024 0.0
H1488 H 0.59366 0.19641 0.71071 0.0
H1489 H 0.48823 0.18509 0.51851 0.0
H1490 H 0.46456 0.16616 0.57576 0.0
H1491 H 0.47832 0.15798 0.4932 0.0
C1492 C 0.91125 0.33268 0.47251 0.0
C1493 C 0.9341 0.33737 0.43891 0.0
C1494 C 0.91039 0.33135 0.56352 0.0
C1495 C 0.93391 0.33719 0.62486 0.0
C1496 C 0.95794 0.34439 0.59348 0.0
C1497 C 0.95754 0.34369 0.50044 0.0
C1498 C 0.88398 0.32325 0.59204 0.0
C1499 C 0.98403 0.35269 0.658 0.0
C1500 C 0.93272 0.34805 0.874 0.0
C1501 C 0.93269 0.33114 0.90275 0.0
C1502 C 0.93422 0.35074 0.78461 0.0
C1503 C 0.93329 0.33508 0.7209 0.0
C1504 C 0.93133 0.31712 0.74869 0.0
C1505 C 0.93189 0.3157 0.8403 0.0
C1506 C 0.93727 0.37049 0.75906 0.0
C1507 C 0.92784 0.29914 0.68126 0.0
H1508 H 0.89348 0.3291 0.42688 0.0
H1509 H 0.97567 0.34817 0.47613 0.0
H1510 H 0.88232 0.31544 0.65072 0.0
H1511 H 0.88172 0.33671 0.61078 0.0
H1512 H 0.86702 0.31172 0.53513 0.0
H1513 H 1.00147 0.36117 0.62576 0.0
H1514 H 0.98657 0.36368 0.71902 0.0
H1515 H 0.98406 0.33933 0.6811 0.0
H1516 H 0.93212 0.35942 0.92212 0.0
H1517 H 0.93108 0.30232 0.86273 0.0
H1518 H 0.91927 0.36623 0.70974 0.0
H1519 H 0.95463 0.37841 0.72603 0.0
H1520 H 0.94015 0.38197 0.81875 0.0
H1521 H 0.91059 0.29341 0.62479 0.0
H1522 H 0.92444 0.28559 0.71265 0.0
H1523 H 0.94579 0.30475 0.65139 0.0
C1524 C 0.43823 0.90495 0.45321 0.0
C1525 C 0.43789 0.88863 0.48983 0.0
C1526 C 0.43923 0.90578 0.36233 0.0
C1527 C 0.43952 0.88972 0.30639 0.0
C1528 C 0.43935 0.87325 0.34284 0.0
C1529 C 0.43864 0.87294 0.43472 0.0
C1530 C 0.43956 0.9237 0.32612 0.0
C1531 C 0.43946 0.8558 0.28439 0.0
C1532 C 0.41216 0.88125 0.05808 0.0
C1533 C 0.43532 0.89024 0.02276 0.0
C1534 C 0.41317 0.88009 0.14952 0.0
C1535 C 0.43826 0.88951 0.20847 0.0
C1536 C 0.46197 0.89946 0.17439 0.0
C1537 C 0.46014 0.89922 0.08122 0.0
C1538 C 0.38735 0.86893 0.183 0.0
C1539 C 0.48917 0.91073 0.23645 0.0
H1540 H 0.4375 0.91709 0.49547 0.0
H1541 H 0.43856 0.86042 0.46331 0.0
H1542 H 0.456 0.93129 0.28902 0.0
H1543 H 0.42055 0.91738 0.27743 0.0
H1544 H 0.44207 0.93606 0.38086 0.0
H1545 H 0.43927 0.84415 0.3232 0.0
H1546 H 0.42173 0.84729 0.22759 0.0
H1547 H 0.45743 0.86269 0.25409 0.0
H1548 H 0.39325 0.87559 0.01543 0.0
H1549 H 0.47808 0.9059 0.05407 0.0
H1550 H 0.3861 0.88057 0.22982 0.0
H1551 H 0.38672 0.85711 0.22151 0.0
H1552 H 0.3695 0.86065 0.12656 0.0
H1553 H 0.49214 0.92425 0.28519 0.0
H1554 H 0.50561 0.91692 0.19861 0.0
H1555 H 0.49056 0.89989 0.27682 0.0
C1556 C 0.33637 0.56525 0.16395 0.0
C1557 C 0.31333 0.55266 0.0957 0.0
C1558 C 0.33486 0.56541 0.25557 0.0
C1559 C 0.30951 0.55417 0.27912 0.0
C1560 C 0.28607 0.54219 0.20993 0.0
C1561 C 0.28842 0.54062 0.11892 0.0
C1562 C 0.36041 0.57703 0.3269 0.0
C1563 C 0.2586 0.53177 0.23178 0.0
C1564 C 0.3053 0.53654 0.50351 0.0
C1565 C 0.31045 0.55441 0.56362 0.0
C1566 C 0.30529 0.53638 0.41125 0.0
C1567 C 0.30782 0.55369 0.37586 0.0
C1568 C 0.31035 0.57091 0.43419 0.0
C1569 C 0.31264 0.57145 0.52792 0.0
C1570 C 0.30343 0.51795 0.35248 0.0
C1571 C 0.31094 0.58891 0.39831 0.0
H1572 H 0.35563 0.57431 0.1454 0.0
H1573 H 0.27061 0.53108 0.06551 0.0
H1574 H 0.3618 0.59034 0.37162 0.0
H1575 H 0.36043 0.56614 0.37016 0.0
H1576 H 0.37844 0.58349 0.29677 0.0
H1577 H 0.24245 0.52369 0.16973 0.0
H1578 H 0.25553 0.52 0.27421 0.0
H1579 H 0.25673 0.54398 0.27165 0.0
H1580 H 0.30143 0.52255 0.52811 0.0
H1581 H 0.31578 0.5851 0.57283 0.0
H1582 H 0.31991 0.52389 0.31486 0.0
H1583 H 0.28436 0.50881 0.30161 0.0
H1584 H 0.3045 0.50694 0.39274 0.0
H1585 H 0.33147 0.60054 0.39045 0.0
H1586 H 0.30513 0.59735 0.44549 0.0
H1587 H 0.29732 0.5831 0.33096 0.0
C1588 C 0.58277 0.7184 0.53757 0.0
C1589 C 0.59842 0.71302 0.58927 0.0
C1590 C 0.58381 0.7195 0.44615 0.0
C1591 C 0.5985 0.71279 0.4028 0.0
C1592 C 0.61164 0.70488 0.45172 0.0
C1593 C 0.61241 0.70594 0.54487 0.0
C1594 C 0.56977 0.72839 0.39739 0.0
C1595 C 0.62536 0.69566 0.40607 0.0
C1596 C 0.58563 0.70217 0.14547 0.0
C1597 C 0.60916 0.71935 0.13039 0.0
C1598 C 0.58191 0.69954 0.2336 0.0
C1599 C 0.6017 0.7152 0.30834 0.0
C1600 C 0.62513 0.7331 0.29304 0.0
C1601 C 0.62879 0.73478 0.2039 0.0
C1602 C 0.55689 0.67998 0.24606 0.0
C1603 C 0.64607 0.75065 0.3708 0.0
H1604 H 0.57056 0.72266 0.56931 0.0
H1605 H 0.62391 0.70103 0.58272 0.0
H1606 H 0.58162 0.73835 0.35146 0.0
H1607 H 0.55023 0.71514 0.35582 0.0
H1608 H 0.56595 0.73814 0.44583 0.0
H1609 H 0.63044 0.68684 0.44923 0.0
H1610 H 0.61239 0.68471 0.34066 0.0
H1611 H 0.64408 0.70858 0.39099 0.0
H1612 H 0.57022 0.69065 0.08803 0.0
H1613 H 0.64672 0.74831 0.19157 0.0
H1614 H 0.54323 0.68436 0.2683 0.0
H1615 H 0.56176 0.67287 0.29911 0.0
H1616 H 0.54606 0.66777 0.18216 0.0
H1617 H 0.63663 0.75661 0.41327 0.0
H1618 H 0.66216 0.76415 0.34712 0.0
H1619 H 0.65528 0.74445 0.41476 0.0
loop_
_geom_bond_atom_site_label_1
_geom_bond_atom_site_label_2
_geom_bond_distance
_geom_bond_site_symmetry_2
_ccdc_geom_bond_type
Eu0 N29 2.600 1_454 S
Eu0 N35 2.562 1_455 S
Eu0 O44 2.462 1_455 S
Eu0 O45 2.373 . S
Eu0 O47 2.432 1_455 S
Eu0 O48 2.291 . S
Eu0 O52 2.335 . S
Eu0 O55 2.372 1_554 S
Eu0 C64 2.787 1_455 S
C1 N2 1.365 . S
C1 C4 1.405 . S
C1 C8 1.448 . S
N2 C1 1.365 . S
N2 C5 1.319 . S
N2 Eu11 2.600 . S
C3 C5 1.397 . S
C3 C6 1.367 . S
C3 H23 0.931 . S
C4 C1 1.405 . S
C4 C6 1.403 . S
C4 C10 1.439 . S
C5 N2 1.319 . S
C5 C3 1.397 . S
C5 H16 0.930 . S
C6 C3 1.367 . S
C6 C4 1.403 . S
C6 H27 0.929 . S
C7 C8 1.430 . S
C7 C9 1.387 . S
C7 C13 1.404 . S
C8 C1 1.448 . S
C8 C7 1.430 . S
C8 N12 1.351 . S
C9 C7 1.387 . S
C9 C10 1.374 . S
C9 H24 0.931 . S
C10 C4 1.439 . S
C10 C9 1.374 . S
C10 H25 0.931 . S
Eu11 N2 2.600 . S
Eu11 N12 2.562 . S
Eu11 O46 2.335 . S
Eu11 O49 2.372 . S
Eu11 O50 2.462 . S
Eu11 O51 2.373 . S
Eu11 O53 2.432 . S
Eu11 O54 2.291 . S
Eu11 C75 2.787 . S
N12 C8 1.351 . S
N12 Eu11 2.562 . S
N12 C14 1.325 . S
C13 C7 1.404 . S
C13 C15 1.366 . S
C13 H21 0.930 . S
C14 N12 1.325 . S
C14 C15 1.416 . S
C14 H20 0.929 . S
C15 C13 1.366 . S
C15 C14 1.416 . S
C15 H17 0.930 1_554 S
H16 C5 0.930 . S
H17 C15 0.930 1_556 S
H18 C33 0.930 . S
H19 C40 0.930 . S
H20 C14 0.929 . S
H21 C13 0.930 . S
H22 C36 0.929 . S
H23 C3 0.931 . S
H24 C9 0.931 . S
H25 C10 0.931 . S
H26 C31 0.931 . S
H27 C6 0.929 . S
H28 C39 0.930 . S
N29 Eu0 2.600 1_656 S
N29 C30 1.365 . S
N29 C33 1.319 . S
C30 N29 1.365 . S
C30 C32 1.405 . S
C30 C38 1.448 1_556 S
C31 H26 0.931 . S
C31 C33 1.397 . S
C31 C34 1.367 . S
C32 C30 1.405 . S
C32 C34 1.403 . S
C32 C65 1.439 . S
C33 H18 0.930 . S
C33 N29 1.319 . S
C33 C31 1.397 . S
C34 C31 1.367 . S
C34 C32 1.403 . S
C34 H41 0.929 . S
N35 Eu0 2.562 1_655 S
N35 C36 1.325 . S
N35 C38 1.351 . S
C36 H22 0.929 . S
C36 N35 1.325 . S
C36 C40 1.416 . S
C37 C38 1.430 . S
C37 C39 1.404 . S
C37 C66 1.387 . S
C38 C30 1.448 1_554 S
C38 N35 1.351 . S
C38 C37 1.430 . S
C39 H28 0.930 . S
C39 C37 1.404 . S
C39 C40 1.366 . S
C40 H19 0.930 . S
C40 C36 1.416 . S
C40 C39 1.366 . S
H41 C34 0.929 . S
H42 C65 0.931 . S
H43 C66 0.931 . S
O44 Eu0 2.462 1_655 S
O44 C64 1.252 . S
O45 Eu0 2.373 . S
O45 C56 1.249 . S
O46 Eu11 2.335 . S
O46 C56 1.264 . S
O47 Eu0 2.432 1_655 S
O47 C64 1.268 . S
O48 Eu0 2.291 . S
O48 C63 1.255 . S
O49 Eu11 2.372 . S
O49 C63 1.257 . S
O50 Eu11 2.462 . S
O50 C75 1.252 . S
O51 Eu11 2.373 . S
O51 C67 1.249 . S
O52 Eu0 2.335 . S
O52 C67 1.264 . S
O53 Eu11 2.432 . S
O53 C75 1.268 . S
O54 Eu11 2.291 . S
O54 C74 1.255 1_554 S
O55 Eu0 2.372 1_556 S
O55 C74 1.257 . S
C56 O45 1.249 . S
C56 O46 1.264 . S
C57 C60 1.382 . S
C57 C62 1.390 . S
C57 C64 1.506 . S
C58 C59 1.398 . S
C58 C62 1.392 . S
C59 C58 1.398 . S
C59 C61 1.372 . S
C59 H76 0.931 . S
C60 C57 1.382 . S
C60 C61 1.390 . S
C60 H77 0.931 1_554 S
C61 C59 1.372 . S
C61 C60 1.390 . S
C61 H78 0.929 1_554 S
C62 C57 1.390 . S
C62 C58 1.392 . S
C62 H79 0.930 . S
C63 O48 1.255 . S
C63 O49 1.257 . S
C64 Eu0 2.787 1_655 S
C64 O44 1.252 . S
C64 O47 1.268 . S
C64 C57 1.506 . S
C65 C32 1.439 . S
C65 H42 0.931 . S
C65 C66 1.374 1_556 S
C66 C37 1.387 . S
C66 H43 0.931 . S
C66 C65 1.374 1_554 S
C67 O51 1.249 . S
C67 O52 1.264 . S
C68 C71 1.382 . S
C68 C72 1.390 . S
C68 C75 1.506 . S
C69 C70 1.398 . S
C69 C72 1.392 . S
C70 C69 1.398 . S
C70 C73 1.372 . S
C70 H80 0.931 . S
C71 C68 1.382 . S
C71 C73 1.390 . S
C71 H81 0.931 . S
C72 C68 1.390 . S
C72 C69 1.392 . S
C72 H82 0.930 . S
C73 C70 1.372 . S
C73 C71 1.390 . S
C73 H83 0.929 . S
C74 O54 1.255 1_556 S
C74 O55 1.257 . S
C75 Eu11 2.787 . S
C75 O50 1.252 . S
C75 O53 1.268 . S
C75 C68 1.506 . S
H76 C59 0.931 . S
H77 C60 0.931 1_556 S
H78 C61 0.929 1_556 S
H79 C62 0.930 . S
H80 C70 0.931 . S
H81 C71 0.931 . S
H82 C72 0.930 . S
H83 C73 0.929 . S
Eu84 N113 2.600 . S
Eu84 N119 2.562 . S
Eu84 O128 2.462 . S
Eu84 O129 2.373 . S
Eu84 O131 2.432 . S
Eu84 O132 2.291 . S
Eu84 O136 2.335 . S
Eu84 O139 2.372 . S
Eu84 C148 2.787 . S
C85 N86 1.365 1_554 S
C85 C88 1.405 1_554 S
C85 C92 1.448 . S
N86 C85 1.365 1_556 S
N86 C89 1.319 . S
N86 Eu95 2.600 1_556 S
C87 C89 1.397 . S
C87 C90 1.367 . S
C87 H107 0.931 . S
C88 C85 1.405 1_556 S
C88 C90 1.403 . S
C88 C94 1.439 . S
C89 N86 1.319 . S
C89 C87 1.397 . S
C89 H100 0.930 . S
C90 C87 1.367 . S
C90 C88 1.403 . S
C90 H111 0.929 . S
C91 C92 1.430 . S
C91 C93 1.387 . S
C91 C97 1.404 . S
C92 C85 1.448 . S
C92 C91 1.430 . S
C92 N96 1.351 . S
C93 C91 1.387 . S
C93 C94 1.374 1_554 S
C93 H108 0.931 1_655 S
C94 C88 1.439 . S
C94 C93 1.374 1_556 S
C94 H109 0.931 . S
Eu95 N86 2.600 1_554 S
Eu95 N96 2.562 . S
Eu95 O130 2.335 . S
Eu95 O133 2.372 1_554 S
Eu95 O134 2.462 . S
Eu95 O135 2.373 . S
Eu95 O137 2.431 1_554 S
Eu95 O138 2.291 . S
Eu95 C159 2.787 . S
N96 C92 1.351 . S
N96 Eu95 2.562 . S
N96 C98 1.325 . S
C97 C91 1.404 . S
C97 C99 1.366 . S
C97 H105 0.930 . S
C98 N96 1.325 . S
C98 C99 1.416 . S
C98 H104 0.929 . S
C99 C97 1.366 . S
C99 C98 1.416 . S
C99 H101 0.930 . S
H100 C89 0.930 . S
H101 C99 0.930 . S
H102 C117 0.930 . S
H103 C124 0.930 . S
H104 C98 0.929 . S
H105 C97 0.930 . S
H106 C120 0.929 . S
H107 C87 0.931 . S
H108 C93 0.931 1_455 S
H109 C94 0.931 . S
H110 C115 0.931 . S
H111 C90 0.929 . S
H112 C123 0.930 . S
N113 Eu84 2.600 . S
N113 C114 1.365 . S
N113 C117 1.319 . S
C114 N113 1.365 . S
C114 C116 1.405 . S
C114 C122 1.448 . S
C115 H110 0.931 . S
C115 C117 1.397 . S
C115 C118 1.367 . S
C116 C114 1.405 . S
C116 C118 1.403 . S
C116 C149 1.439 . S
C117 H102 0.930 . S
C117 N113 1.319 . S
C117 C115 1.397 . S
C118 C115 1.367 . S
C118 C116 1.403 . S
C118 H125 0.929 . S
N119 Eu84 2.562 . S
N119 C120 1.325 1_554 S
N119 C122 1.351 . S
C120 H106 0.929 . S
C120 N119 1.325 1_556 S
C120 C124 1.416 . S
C121 C122 1.430 . S
C121 C123 1.404 1_554 S
C121 C150 1.387 . S
C122 C114 1.448 . S
C122 N119 1.351 . S
C122 C121 1.430 . S
C123 H112 0.930 . S
C123 C121 1.404 1_556 S
C123 C124 1.366 . S
C124 H103 0.930 . S
C124 C120 1.416 . S
C124 C123 1.366 . S
H125 C118 0.929 . S
H126 C149 0.931 . S
H127 C150 0.931 . S
O128 Eu84 2.462 . S
O128 C148 1.252 . S
O129 Eu84 2.373 . S
O129 C140 1.249 . S
O130 Eu95 2.335 . S
O130 C140 1.264 . S
O131 Eu84 2.432 . S
O131 C148 1.268 . S
O132 Eu84 2.291 . S
O132 C147 1.255 1_554 S
O133 Eu95 2.372 1_556 S
O133 C147 1.257 . S
O134 Eu95 2.462 . S
O134 C159 1.252 . S
O135 Eu95 2.373 . S
O135 C151 1.249 . S
O136 Eu84 2.335 . S
O136 C151 1.264 . S
O137 Eu95 2.431 1_556 S
O137 C159 1.265 1_556 S
O138 Eu95 2.291 . S
O138 C158 1.255 . S
O139 Eu84 2.372 . S
O139 C158 1.257 . S
C140 O129 1.249 . S
C140 O130 1.264 . S
C141 C144 1.382 . S
C141 C146 1.390 . S
C141 C148 1.506 . S
C142 C143 1.398 . S
C142 C146 1.392 . S
C143 C142 1.398 . S
C143 C145 1.372 . S
C143 H160 0.931 . S
C144 C141 1.382 . S
C144 C145 1.390 . S
C144 H161 0.931 . S
C145 C143 1.372 . S
C145 C144 1.390 . S
C145 H162 0.929 . S
C146 C141 1.390 . S
C146 C142 1.392 . S
C146 H163 0.930 . S
C147 O132 1.255 1_556 S
C147 O133 1.257 . S
C148 Eu84 2.787 . S
C148 O128 1.252 . S
C148 O131 1.268 . S
C148 C141 1.506 . S
C149 C116 1.439 . S
C149 H126 0.931 . S
C149 C150 1.374 . S
C150 C121 1.387 . S
C150 H127 0.931 . S
C150 C149 1.374 . S
C151 O135 1.249 . S
C151 O136 1.264 . S
C152 C155 1.382 1_554 S
C152 C156 1.390 . S
C152 C159 1.506 . S
C153 C154 1.398 . S
C153 C156 1.392 . S
C154 C153 1.398 . S
C154 C157 1.372 1_554 S
C154 H164 0.931 . S
C155 C152 1.382 1_556 S
C155 C157 1.390 . S
C155 H165 0.931 . S
C156 C152 1.390 . S
C156 C153 1.392 . S
C156 H166 0.930 . S
C157 C154 1.372 1_556 S
C157 C155 1.390 . S
C157 H167 0.929 . S
C158 O138 1.255 . S
C158 O139 1.257 . S
C159 Eu95 2.787 . S
C159 O134 1.252 . S
C159 O137 1.265 1_554 S
C159 C152 1.506 . S
H160 C143 0.931 . S
H161 C144 0.931 . S
H162 C145 0.929 . S
H163 C146 0.930 . S
H164 C154 0.931 . S
H165 C155 0.931 . S
H166 C156 0.930 . S
H167 C157 0.929 . S
Eu168 N197 2.600 . S
Eu168 N203 2.562 1_556 S
Eu168 O212 2.462 1_556 S
Eu168 O213 2.373 . S
Eu168 O215 2.432 . S
Eu168 O216 2.291 1_556 S
Eu168 O220 2.335 . S
Eu168 O223 2.372 . S
Eu168 C232 2.787 1_556 S
C169 N170 1.365 . S
C169 C172 1.405 . S
C169 C176 1.448 1_554 S
N170 C169 1.365 . S
N170 C173 1.319 . S
N170 Eu179 2.600 . S
C171 C173 1.397 . S
C171 C174 1.367 . S
C171 H191 0.931 . S
C172 C169 1.405 . S
C172 C174 1.403 . S
C172 C178 1.439 . S
C173 N170 1.319 . S
C173 C171 1.397 . S
C173 H184 0.930 . S
C174 C171 1.367 . S
C174 C172 1.403 . S
C174 H195 0.929 . S
C175 C176 1.430 . S
C175 C177 1.387 . S
C175 C181 1.404 . S
C176 C169 1.448 1_556 S
C176 C175 1.430 . S
C176 N180 1.351 . S
C177 C175 1.387 . S
C177 C178 1.374 1_556 S
C177 H192 0.931 . S
C178 C172 1.439 . S
C178 C177 1.374 1_554 S
C178 H193 0.931 . S
Eu179 N170 2.600 . S
Eu179 N180 2.562 1_554 S
Eu179 O214 2.335 1_565 S
Eu179 O217 2.372 1_565 S
Eu179 O218 2.462 1_554 S
Eu179 O219 2.373 . S
Eu179 O221 2.432 . S
Eu179 O222 2.291 1_554 S
Eu179 C243 2.787 1_554 S
N180 C176 1.351 . S
N180 Eu179 2.562 1_556 S
N180 C182 1.325 . S
C181 C175 1.404 . S
C181 C183 1.366 . S
C181 H189 0.930 . S
C182 N180 1.325 . S
C182 C183 1.416 . S
C182 H188 0.929 . S
C183 C181 1.366 . S
C183 C182 1.416 . S
C183 H185 0.930 . S
H184 C173 0.930 . S
H185 C183 0.930 . S
H186 C201 0.930 . S
H187 C208 0.930 . S
H188 C182 0.929 . S
H189 C181 0.930 . S
H190 C204 0.929 . S
H191 C171 0.931 . S
H192 C177 0.931 . S
H193 C178 0.931 . S
H194 C199 0.931 . S
H195 C174 0.929 . S
H196 C207 0.930 . S
N197 Eu168 2.600 . S
N197 C198 1.365 . S
N197 C201 1.319 . S
C198 N197 1.365 . S
C198 C200 1.405 . S
C198 C206 1.448 1_556 S
C199 H194 0.931 . S
C199 C201 1.397 . S
C199 C202 1.367 . S
C200 C198 1.405 . S
C200 C202 1.403 . S
C200 C233 1.439 . S
C201 H186 0.930 . S
C201 N197 1.319 . S
C201 C199 1.397 . S
C202 C199 1.367 . S
C202 C200 1.403 . S
C202 H209 0.929 . S
N203 Eu168 2.562 1_554 S
N203 C204 1.325 . S
N203 C206 1.351 . S
C204 H190 0.929 . S
C204 N203 1.325 . S
C204 C208 1.416 . S
C205 C206 1.430 . S
C205 C207 1.404 . S
C205 C234 1.387 . S
C206 C198 1.448 1_554 S
C206 N203 1.351 . S
C206 C205 1.430 . S
C207 H196 0.930 . S
C207 C205 1.404 . S
C207 C208 1.366 . S
C208 H187 0.930 . S
C208 C204 1.416 . S
C208 C207 1.366 . S
H209 C202 0.929 . S
H210 C233 0.931 . S
H211 C234 0.931 . S
O212 Eu168 2.462 1_554 S
O212 C232 1.252 . S
O213 Eu168 2.373 . S
O213 C224 1.249 1_556 S
O214 Eu179 2.335 1_545 S
O214 C224 1.264 . S
O215 Eu168 2.432 . S
O215 C232 1.268 1_556 S
O216 Eu168 2.291 1_554 S
O216 C231 1.255 . S
O217 Eu179 2.372 1_545 S
O217 C231 1.257 . S
O218 Eu179 2.462 1_556 S
O218 C243 1.252 . S
O219 Eu179 2.373 . S
O219 C235 1.249 1_554 S
O220 Eu168 2.335 . S
O220 C235 1.264 1_545 S
O221 Eu179 2.432 . S
O221 C243 1.268 1_554 S
O222 Eu179 2.291 1_556 S
O222 C242 1.255 1_565 S
O223 Eu168 2.372 . S
O223 C242 1.257 . S
C224 O213 1.249 1_554 S
C224 O214 1.264 . S
C225 C228 1.382 1_554 S
C225 C230 1.390 . S
C225 C232 1.506 . S
C226 C227 1.398 . S
C226 C230 1.392 . S
C227 C226 1.398 . S
C227 C229 1.372 1_554 S
C227 H244 0.931 . S
C228 C225 1.382 1_556 S
C228 C229 1.390 . S
C228 H245 0.931 . S
C229 C227 1.372 1_556 S
C229 C228 1.390 . S
C229 H246 0.929 . S
C230 C225 1.390 . S
C230 C226 1.392 . S
C230 H247 0.930 . S
C231 O216 1.255 . S
C231 O217 1.257 . S
C232 Eu168 2.787 1_554 S
C232 O212 1.252 . S
C232 O215 1.268 1_554 S
C232 C225 1.506 . S
C233 C200 1.439 . S
C233 H210 0.931 . S
C233 C234 1.374 1_556 S
C234 C205 1.387 . S
C234 H211 0.931 . S
C234 C233 1.374 1_554 S
C235 O219 1.249 1_556 S
C235 O220 1.264 1_565 S
C236 C239 1.382 1_556 S
C236 C240 1.390 . S
C236 C243 1.506 . S
C237 C238 1.398 . S
C237 C240 1.392 . S
C238 C237 1.398 . S
C238 C241 1.372 1_556 S
C238 H248 0.931 . S
C239 C236 1.382 1_554 S
C239 C241 1.390 . S
C239 H249 0.931 . S
C240 C236 1.390 . S
C240 C237 1.392 . S
C240 H250 0.930 . S
C241 C238 1.372 1_554 S
C241 C239 1.390 . S
C241 H251 0.929 . S
C242 O222 1.255 1_545 S
C242 O223 1.257 . S
C243 Eu179 2.787 1_556 S
C243 O218 1.252 . S
C243 O221 1.268 1_556 S
C243 C236 1.506 . S
H244 C227 0.931 . S
H245 C228 0.931 . S
H246 C229 0.929 . S
H247 C230 0.930 . S
H248 C238 0.931 . S
H249 C239 0.931 . S
H250 C240 0.930 . S
H251 C241 0.929 . S
Eu252 N281 2.600 . S
Eu252 N287 2.562 . S
Eu252 O296 2.462 . S
Eu252 O297 2.373 . S
Eu252 O299 2.432 . S
Eu252 O300 2.291 . S
Eu252 O304 2.335 . S
Eu252 O307 2.372 . S
Eu252 C316 2.787 . S
C253 N254 1.365 1_554 S
C253 C256 1.405 1_554 S
C253 C260 1.448 . S
N254 C253 1.365 1_556 S
N254 C257 1.319 . S
N254 Eu263 2.600 1_556 S
C255 C257 1.397 . S
C255 C258 1.367 . S
C255 H275 0.931 . S
C256 C253 1.405 1_556 S
C256 C258 1.403 . S
C256 C262 1.439 . S
C257 N254 1.319 . S
C257 C255 1.397 . S
C257 H268 0.930 . S
C258 C255 1.367 . S
C258 C256 1.403 . S
C258 H279 0.929 . S
C259 C260 1.430 . S
C259 C261 1.387 . S
C259 C265 1.404 . S
C260 C253 1.448 . S
C260 C259 1.430 . S
C260 N264 1.351 . S
C261 C259 1.387 . S
C261 C262 1.374 1_554 S
C261 H276 0.931 . S
C262 C256 1.439 . S
C262 C261 1.374 1_556 S
C262 H277 0.931 . S
Eu263 N254 2.600 1_554 S
Eu263 N264 2.562 . S
Eu263 O298 2.335 . S
Eu263 O301 2.372 1_554 S
Eu263 O302 2.462 . S
Eu263 O303 2.373 . S
Eu263 O305 2.432 . S
Eu263 O306 2.291 . S
Eu263 C327 2.787 . S
N264 C260 1.351 . S
N264 Eu263 2.562 . S
N264 C266 1.325 . S
C265 C259 1.404 . S
C265 C267 1.366 . S
C265 H273 0.930 . S
C266 N264 1.325 . S
C266 C267 1.416 . S
C266 H272 0.929 . S
C267 C265 1.366 . S
C267 C266 1.416 . S
C267 H269 0.930 . S
H268 C257 0.930 . S
H269 C267 0.930 . S
H270 C285 0.930 . S
H271 C292 0.930 1_556 S
H272 C266 0.929 . S
H273 C265 0.930 . S
H274 C288 0.929 . S
H275 C255 0.931 . S
H276 C261 0.931 . S
H277 C262 0.931 . S
H278 C283 0.931 . S
H279 C258 0.929 . S
H280 C291 0.930 . S
N281 Eu252 2.600 . S
N281 C282 1.365 . S
N281 C285 1.319 . S
C282 N281 1.365 . S
C282 C284 1.405 . S
C282 C290 1.448 . S
C283 H278 0.931 . S
C283 C285 1.397 . S
C283 C286 1.367 . S
C284 C282 1.405 . S
C284 C286 1.403 . S
C284 C317 1.439 . S
C285 H270 0.930 . S
C285 N281 1.319 . S
C285 C283 1.397 . S
C286 C283 1.367 . S
C286 C284 1.403 . S
C286 H293 0.929 . S
N287 Eu252 2.562 . S
N287 C288 1.325 . S
N287 C290 1.351 . S
C288 H274 0.929 . S
C288 N287 1.325 . S
C288 C292 1.416 . S
C289 C290 1.430 . S
C289 C291 1.404 . S
C289 C318 1.387 . S
C290 C282 1.448 . S
C290 N287 1.351 . S
C290 C289 1.430 . S
C291 H280 0.930 . S
C291 C289 1.404 . S
C291 C292 1.366 . S
C292 H271 0.930 1_554 S
C292 C288 1.416 . S
C292 C291 1.366 . S
H293 C286 0.929 . S
H294 C317 0.931 . S
H295 C318 0.931 . S
O296 Eu252 2.462 . S
O296 C316 1.252 . S
O297 Eu252 2.373 . S
O297 C308 1.249 . S
O298 Eu263 2.335 . S
O298 C308 1.264 . S
O299 Eu252 2.432 . S
O299 C316 1.268 . S
O300 Eu252 2.291 . S
O300 C315 1.255 1_554 S
O301 Eu263 2.372 1_556 S
O301 C315 1.257 . S
O302 Eu263 2.462 . S
O302 C327 1.252 . S
O303 Eu263 2.373 . S
O303 C319 1.249 . S
O304 Eu252 2.335 . S
O304 C319 1.264 . S
O305 Eu263 2.432 . S
O305 C327 1.268 . S
O306 Eu263 2.291 . S
O306 C326 1.255 . S
O307 Eu252 2.372 . S
O307 C326 1.257 . S
C308 O297 1.249 . S
C308 O298 1.264 . S
C309 C312 1.382 . S
C309 C314 1.390 . S
C309 C316 1.506 . S
C310 C311 1.398 . S
C310 C314 1.392 . S
C311 C310 1.398 . S
C311 C313 1.372 . S
C311 H328 0.931 . S
C312 C309 1.382 . S
C312 C313 1.390 . S
C312 H329 0.931 . S
C313 C311 1.372 . S
C313 C312 1.390 . S
C313 H330 0.929 . S
C314 C309 1.390 . S
C314 C310 1.392 . S
C314 H331 0.930 1_554 S
C315 O300 1.255 1_556 S
C315 O301 1.257 . S
C316 Eu252 2.787 . S
C316 O296 1.252 . S
C316 O299 1.268 . S
C316 C309 1.506 . S
C317 C284 1.439 . S
C317 H294 0.931 . S
C317 C318 1.374 . S
C318 C289 1.387 . S
C318 H295 0.931 . S
C318 C317 1.374 . S
C319 O303 1.249 . S
C319 O304 1.264 . S
C320 C323 1.382 . S
C320 C324 1.390 . S
C320 C327 1.506 . S
C321 C322 1.398 . S
C321 C324 1.392 . S
C322 C321 1.398 . S
C322 C325 1.372 . S
C322 H332 0.931 . S
C323 C320 1.382 . S
C323 C325 1.390 . S
C323 H333 0.931 . S
C324 C320 1.390 . S
C324 C321 1.392 . S
C324 H334 0.930 . S
C325 C322 1.372 . S
C325 C323 1.390 . S
C325 H335 0.929 . S
C326 O306 1.255 . S
C326 O307 1.257 . S
C327 Eu263 2.787 . S
C327 O302 1.252 . S
C327 O305 1.268 . S
C327 C320 1.506 . S
H328 C311 0.931 . S
H329 C312 0.931 . S
H330 C313 0.929 . S
H331 C314 0.930 1_556 S
H332 C322 0.931 . S
H333 C323 0.931 . S
H334 C324 0.930 . S
H335 C325 0.929 . S
Eu336 N365 2.600 . S
Eu336 N371 2.562 . S
Eu336 O380 2.462 . S
Eu336 O381 2.373 . S
Eu336 O383 2.432 . S
Eu336 O384 2.291 1_554 S
Eu336 O388 2.335 . S
Eu336 O391 2.372 . S
Eu336 C400 2.787 . S
C337 N338 1.365 . S
C337 C340 1.405 . S
C337 C344 1.448 1_556 S
N338 C337 1.365 . S
N338 C341 1.319 . S
N338 Eu347 2.600 1_556 S
C339 C341 1.397 . S
C339 C342 1.367 . S
C339 H359 0.931 . S
C340 C337 1.405 . S
C340 C342 1.403 . S
C340 C346 1.439 . S
C341 N338 1.319 . S
C341 C339 1.397 . S
C341 H352 0.930 . S
C342 C339 1.367 . S
C342 C340 1.403 . S
C342 H363 0.929 . S
C343 C344 1.430 . S
C343 C345 1.387 . S
C343 C349 1.404 . S
C344 C337 1.448 1_554 S
C344 C343 1.430 . S
C344 N348 1.351 . S
C345 C343 1.387 . S
C345 C346 1.374 1_554 S
C345 H360 0.931 . S
C346 C340 1.439 . S
C346 C345 1.374 1_556 S
C346 H361 0.931 . S
Eu347 N338 2.600 1_554 S
Eu347 N348 2.562 . S
Eu347 O382 2.335 . S
Eu347 O385 2.372 1_554 S
Eu347 O386 2.462 . S
Eu347 O387 2.373 . S
Eu347 O389 2.432 1_554 S
Eu347 O390 2.291 . S
Eu347 C411 2.787 . S
N348 C344 1.351 . S
N348 Eu347 2.562 . S
N348 C350 1.325 . S
C349 C343 1.404 . S
C349 C351 1.366 . S
C349 H357 0.930 . S
C350 N348 1.325 . S
C350 C351 1.416 . S
C350 H356 0.929 . S
C351 C349 1.366 . S
C351 C350 1.416 . S
C351 H353 0.930 . S
H352 C341 0.930 . S
H353 C351 0.930 . S
H354 C369 0.930 . S
H355 C376 0.930 . S
H356 C350 0.929 . S
H357 C349 0.930 . S
H358 C372 0.929 . S
H359 C339 0.931 . S
H360 C345 0.931 . S
H361 C346 0.931 . S
H362 C367 0.931 . S
H363 C342 0.929 . S
H364 C375 0.930 . S
N365 Eu336 2.600 . S
N365 C366 1.365 . S
N365 C369 1.319 . S
C366 N365 1.365 . S
C366 C368 1.405 . S
C366 C374 1.448 . S
C367 H362 0.931 . S
C367 C369 1.397 . S
C367 C370 1.367 . S
C368 C366 1.405 . S
C368 C370 1.403 . S
C368 C401 1.439 . S
C369 H354 0.930 . S
C369 N365 1.319 . S
C369 C367 1.397 . S
C370 C367 1.367 . S
C370 C368 1.403 . S
C370 H377 0.929 . S
N371 Eu336 2.562 . S
N371 C372 1.325 1_554 S
N371 C374 1.351 . S
C372 H358 0.929 . S
C372 N371 1.325 1_556 S
C372 C376 1.416 . S
C373 C374 1.430 . S
C373 C375 1.404 1_554 S
C373 C402 1.387 . S
C374 C366 1.448 . S
C374 N371 1.351 . S
C374 C373 1.430 . S
C375 H364 0.930 . S
C375 C373 1.404 1_556 S
C375 C376 1.366 . S
C376 H355 0.930 . S
C376 C372 1.416 . S
C376 C375 1.366 . S
H377 C370 0.929 . S
H378 C401 0.931 . S
H379 C402 0.931 . S
O380 Eu336 2.462 . S
O380 C400 1.252 . S
O381 Eu336 2.373 . S
O381 C392 1.249 . S
O382 Eu347 2.335 . S
O382 C392 1.264 . S
O383 Eu336 2.432 . S
O383 C400 1.268 . S
O384 Eu336 2.291 1_556 S
O384 C399 1.255 . S
O385 Eu347 2.372 1_556 S
O385 C399 1.257 . S
O386 Eu347 2.462 . S
O386 C411 1.252 . S
O387 Eu347 2.373 . S
O387 C403 1.249 . S
O388 Eu336 2.335 . S
O388 C403 1.264 . S
O389 Eu347 2.432 1_556 S
O389 C411 1.268 1_556 S
O390 Eu347 2.291 . S
O390 C410 1.255 . S
O391 Eu336 2.372 . S
O391 C410 1.257 . S
C392 O381 1.249 . S
C392 O382 1.264 . S
C393 C396 1.382 . S
C393 C398 1.390 1_554 S
C393 C400 1.506 . S
C394 C395 1.398 1_556 S
C394 C398 1.392 . S
C395 C394 1.398 1_554 S
C395 C397 1.372 . S
C395 H412 0.931 . S
C396 C393 1.382 . S
C396 C397 1.390 . S
C396 H413 0.931 . S
C397 C395 1.372 . S
C397 C396 1.390 . S
C397 H414 0.929 . S
C398 C393 1.390 1_556 S
C398 C394 1.392 . S
C398 H415 0.930 . S
C399 O384 1.255 . S
C399 O385 1.257 . S
C400 Eu336 2.787 . S
C400 O380 1.252 . S
C400 O383 1.268 . S
C400 C393 1.506 . S
C401 C368 1.439 . S
C401 H378 0.931 . S
C401 C402 1.374 . S
C402 C373 1.387 . S
C402 H379 0.931 . S
C402 C401 1.374 . S
C403 O387 1.249 . S
C403 O388 1.264 . S
C404 C407 1.382 1_554 S
C404 C408 1.390 . S
C404 C411 1.506 . S
C405 C406 1.398 . S
C405 C408 1.392 . S
C406 C405 1.398 . S
C406 C409 1.372 1_554 S
C406 H416 0.931 . S
C407 C404 1.382 1_556 S
C407 C409 1.390 . S
C407 H417 0.931 . S
C408 C404 1.390 . S
C408 C405 1.392 . S
C408 H418 0.930 . S
C409 C406 1.372 1_556 S
C409 C407 1.390 . S
C409 H419 0.929 . S
C410 O390 1.255 . S
C410 O391 1.257 . S
C411 Eu347 2.787 . S
C411 O386 1.252 . S
C411 O389 1.268 1_554 S
C411 C404 1.506 . S
H412 C395 0.931 . S
H413 C396 0.931 . S
H414 C397 0.929 . S
H415 C398 0.930 . S
H416 C406 0.931 . S
H417 C407 0.931 . S
H418 C408 0.930 . S
H419 C409 0.929 . S
Eu420 N449 2.600 . S
Eu420 N455 2.562 . S
Eu420 O464 2.462 . S
Eu420 O465 2.373 . S
Eu420 O467 2.432 . S
Eu420 O468 2.291 . S
Eu420 O472 2.335 . S
Eu420 O475 2.372 . S
Eu420 C484 2.787 . S
C421 N422 1.365 . S
C421 C424 1.405 . S
C421 C428 1.448 . S
N422 C421 1.365 . S
N422 C425 1.319 . S
N422 Eu431 2.600 . S
C423 C425 1.397 1_556 S
C423 C426 1.367 1_556 S
C423 H443 0.931 . S
C424 C421 1.405 . S
C424 C426 1.403 . S
C424 C430 1.439 . S
C425 N422 1.319 . S
C425 C423 1.397 1_554 S
C425 H436 0.930 1_554 S
C426 C423 1.367 1_554 S
C426 C424 1.403 . S
C426 H447 0.929 1_554 S
C427 C428 1.430 . S
C427 C429 1.387 . S
C427 C433 1.404 . S
C428 C421 1.448 . S
C428 C427 1.430 . S
C428 N432 1.351 . S
C429 C427 1.387 . S
C429 C430 1.374 . S
C429 H444 0.931 . S
C430 C424 1.439 . S
C430 C429 1.374 . S
C430 H445 0.931 . S
Eu431 N422 2.600 . S
Eu431 N432 2.562 . S
Eu431 O466 2.335 . S
Eu431 O469 2.372 . S
Eu431 O470 2.462 . S
Eu431 O471 2.373 . S
Eu431 O473 2.432 . S
Eu431 O474 2.291 . S
Eu431 C495 2.787 . S
N432 C428 1.351 . S
N432 Eu431 2.562 . S
N432 C434 1.325 . S
C433 C427 1.404 . S
C433 C435 1.366 . S
C433 H441 0.930 . S
C434 N432 1.325 . S
C434 C435 1.416 . S
C434 H440 0.929 . S
C435 C433 1.366 . S
C435 C434 1.416 . S
C435 H437 0.930 . S
H436 C425 0.930 1_556 S
H437 C435 0.930 . S
H438 C453 0.930 . S
H439 C460 0.930 . S
H440 C434 0.929 . S
H441 C433 0.930 . S
H442 C456 0.929 1_556 S
H443 C423 0.931 . S
H444 C429 0.931 . S
H445 C430 0.931 . S
H446 C451 0.931 . S
H447 C426 0.929 1_556 S
H448 C459 0.930 . S
N449 Eu420 2.600 . S
N449 C450 1.365 . S
N449 C453 1.319 . S
C450 N449 1.365 . S
C450 C452 1.405 . S
C450 C458 1.448 . S
C451 H446 0.931 . S
C451 C453 1.397 . S
C451 C454 1.367 . S
C452 C450 1.405 . S
C452 C454 1.403 . S
C452 C485 1.439 . S
C453 H438 0.930 . S
C453 N449 1.319 . S
C453 C451 1.397 . S
C454 C451 1.367 . S
C454 C452 1.403 . S
C454 H461 0.929 . S
N455 Eu420 2.562 . S
N455 C456 1.325 . S
N455 C458 1.351 . S
C456 H442 0.929 1_554 S
C456 N455 1.325 . S
C456 C460 1.416 1_554 S
C457 C458 1.430 . S
C457 C459 1.406 1_554 S
C457 C486 1.387 . S
C458 C450 1.448 . S
C458 N455 1.351 . S
C458 C457 1.430 . S
C459 H448 0.930 . S
C459 C457 1.406 1_556 S
C459 C460 1.365 . S
C460 H439 0.930 . S
C460 C456 1.416 1_556 S
C460 C459 1.365 . S
H461 C454 0.929 . S
H462 C485 0.931 . S
H463 C486 0.931 . S
O464 Eu420 2.462 . S
O464 C484 1.252 . S
O465 Eu420 2.373 . S
O465 C476 1.249 . S
O466 Eu431 2.335 . S
O466 C476 1.264 . S
O467 Eu420 2.432 . S
O467 C484 1.268 . S
O468 Eu420 2.291 . S
O468 C483 1.255 . S
O469 Eu431 2.372 . S
O469 C483 1.257 . S
O470 Eu431 2.462 . S
O470 C495 1.252 . S
O471 Eu431 2.373 . S
O471 C487 1.249 . S
O472 Eu420 2.335 . S
O472 C487 1.264 . S
O473 Eu431 2.432 . S
O473 C495 1.268 . S
O474 Eu431 2.291 . S
O474 C494 1.255 . S
O475 Eu420 2.372 . S
O475 C494 1.257 . S
C476 O465 1.249 . S
C476 O466 1.264 . S
C477 C480 1.382 . S
C477 C482 1.390 1_554 S
C477 C484 1.506 . S
C478 C479 1.398 1_556 S
C478 C482 1.392 . S
C479 C478 1.398 1_554 S
C479 C481 1.372 . S
C479 H496 0.931 . S
C480 C477 1.382 . S
C480 C481 1.390 . S
C480 H497 0.931 . S
C481 C479 1.372 . S
C481 C480 1.390 . S
C481 H498 0.929 . S
C482 C477 1.390 1_556 S
C482 C478 1.392 . S
C482 H499 0.930 . S
C483 O468 1.255 . S
C483 O469 1.257 . S
C484 Eu420 2.787 . S
C484 O464 1.252 . S
C484 O467 1.268 . S
C484 C477 1.506 . S
C485 C452 1.439 . S
C485 H462 0.931 . S
C485 C486 1.374 . S
C486 C457 1.387 . S
C486 H463 0.931 . S
C486 C485 1.374 . S
C487 O471 1.249 . S
C487 O472 1.264 . S
C488 C491 1.382 . S
C488 C492 1.390 . S
C488 C495 1.506 1_455 S
C489 C490 1.398 . S
C489 C492 1.392 . S
C490 C489 1.398 . S
C490 C493 1.372 . S
C490 H500 0.931 . S
C491 C488 1.382 . S
C491 C493 1.390 . S
C491 H501 0.931 . S
C492 C488 1.390 . S
C492 C489 1.392 . S
C492 H502 0.930 . S
C493 C490 1.372 . S
C493 C491 1.390 . S
C493 H503 0.929 . S
C494 O474 1.255 . S
C494 O475 1.257 . S
C495 Eu431 2.787 . S
C495 O470 1.252 . S
C495 O473 1.268 . S
C495 C488 1.506 1_655 S
H496 C479 0.931 . S
H497 C480 0.931 . S
H498 C481 0.929 . S
H499 C482 0.930 . S
H500 C490 0.931 . S
H501 C491 0.931 . S
H502 C492 0.930 . S
H503 C493 0.929 . S
Eu504 N533 2.600 . S
Eu504 N539 2.562 . S
Eu504 O548 2.462 . S
Eu504 O549 2.373 . S
Eu504 O551 2.432 . S
Eu504 O552 2.291 . S
Eu504 O556 2.335 . S
Eu504 O559 2.372 . S
Eu504 C568 2.787 . S
C505 N506 1.365 . S
C505 C508 1.405 . S
C505 C512 1.448 . S
N506 C505 1.365 . S
N506 C509 1.319 . S
N506 Eu515 2.600 . S
C507 C509 1.397 1_554 S
C507 C510 1.367 . S
C507 H527 0.931 . S
C508 C505 1.405 . S
C508 C510 1.403 1_556 S
C508 C514 1.439 . S
C509 N506 1.319 . S
C509 C507 1.397 1_556 S
C509 H520 0.930 1_556 S
C510 C507 1.367 . S
C510 C508 1.403 1_554 S
C510 H531 0.929 . S
C511 C512 1.430 . S
C511 C513 1.387 . S
C511 C517 1.404 . S
C512 C505 1.448 . S
C512 C511 1.430 . S
C512 N516 1.351 . S
C513 C511 1.387 . S
C513 C514 1.374 . S
C513 H528 0.931 . S
C514 C508 1.439 . S
C514 C513 1.374 . S
C514 H529 0.931 . S
Eu515 N506 2.600 . S
Eu515 N516 2.562 . S
Eu515 O550 2.335 . S
Eu515 O553 2.372 . S
Eu515 O554 2.462 . S
Eu515 O555 2.373 . S
Eu515 O557 2.432 . S
Eu515 O558 2.291 . S
Eu515 C579 2.787 . S
N516 C512 1.351 . S
N516 Eu515 2.562 . S
N516 C518 1.325 . S
C517 C511 1.404 . S
C517 C519 1.366 . S
C517 H525 0.930 . S
C518 N516 1.325 . S
C518 C519 1.416 . S
C518 H524 0.929 . S
C519 C517 1.366 . S
C519 C518 1.416 . S
C519 H521 0.930 . S
H520 C509 0.930 1_554 S
H521 C519 0.930 . S
H522 C537 0.930 . S
H523 C544 0.930 . S
H524 C518 0.929 . S
H525 C517 0.930 . S
H526 C540 0.929 . S
H527 C507 0.931 . S
H528 C513 0.931 . S
H529 C514 0.931 . S
H530 C535 0.931 . S
H531 C510 0.929 . S
H532 C543 0.930 . S
N533 Eu504 2.600 . S
N533 C534 1.365 . S
N533 C537 1.319 . S
C534 N533 1.365 . S
C534 C536 1.405 . S
C534 C542 1.448 . S
C535 H530 0.931 . S
C535 C537 1.397 . S
C535 C538 1.367 . S
C536 C534 1.405 . S
C536 C538 1.403 . S
C536 C569 1.439 . S
C537 H522 0.930 . S
C537 N533 1.319 . S
C537 C535 1.397 . S
C538 C535 1.367 . S
C538 C536 1.403 . S
C538 H545 0.929 . S
N539 Eu504 2.562 . S
N539 C540 1.325 . S
N539 C542 1.351 . S
C540 H526 0.929 . S
C540 N539 1.325 . S
C540 C544 1.416 . S
C541 C542 1.430 . S
C541 C543 1.404 . S
C541 C570 1.387 . S
C542 C534 1.448 . S
C542 N539 1.351 . S
C542 C541 1.430 . S
C543 H532 0.930 . S
C543 C541 1.404 . S
C543 C544 1.366 . S
C544 H523 0.930 . S
C544 C540 1.416 . S
C544 C543 1.366 . S
H545 C538 0.929 . S
H546 C569 0.931 . S
H547 C570 0.931 . S
O548 Eu504 2.462 . S
O548 C568 1.252 . S
O549 Eu504 2.373 . S
O549 C560 1.249 . S
O550 Eu515 2.335 . S
O550 C560 1.264 . S
O551 Eu504 2.432 . S
O551 C568 1.268 . S
O552 Eu504 2.291 . S
O552 C567 1.255 . S
O553 Eu515 2.372 . S
O553 C567 1.257 . S
O554 Eu515 2.462 . S
O554 C579 1.252 . S
O555 Eu515 2.373 . S
O555 C571 1.249 . S
O556 Eu504 2.335 . S
O556 C571 1.264 . S
O557 Eu515 2.432 . S
O557 C579 1.268 . S
O558 Eu515 2.291 . S
O558 C578 1.255 . S
O559 Eu504 2.372 . S
O559 C578 1.257 . S
C560 O549 1.249 . S
C560 O550 1.264 . S
C561 C564 1.382 . S
C561 C566 1.390 . S
C561 C568 1.506 . S
C562 C563 1.398 . S
C562 C566 1.392 . S
C563 C562 1.398 . S
C563 C565 1.372 . S
C563 H580 0.931 . S
C564 C561 1.382 . S
C564 C565 1.390 . S
C564 H581 0.931 . S
C565 C563 1.372 . S
C565 C564 1.390 . S
C565 H582 0.929 . S
C566 C561 1.390 . S
C566 C562 1.392 . S
C566 H583 0.930 . S
C567 O552 1.255 . S
C567 O553 1.257 . S
C568 Eu504 2.787 . S
C568 O548 1.252 . S
C568 O551 1.268 . S
C568 C561 1.506 . S
C569 C536 1.439 . S
C569 H546 0.931 . S
C569 C570 1.374 . S
C570 C541 1.387 . S
C570 H547 0.931 . S
C570 C569 1.374 . S
C571 O555 1.249 . S
C571 O556 1.264 . S
C572 C575 1.382 . S
C572 C576 1.390 . S
C572 C579 1.506 . S
C573 C574 1.398 1_565 S
C573 C576 1.392 . S
C574 C573 1.398 1_545 S
C574 C577 1.359 1_545 S
C574 H584 0.931 . S
C575 C572 1.382 . S
C575 C577 1.420 . S
C575 H585 0.931 . S
C576 C572 1.390 . S
C576 C573 1.392 . S
C576 H586 0.930 . S
C577 C574 1.359 1_565 S
C577 C575 1.420 . S
C577 H587 0.913 1_565 S
C578 O558 1.255 . S
C578 O559 1.257 . S
C579 Eu515 2.787 . S
C579 O554 1.252 . S
C579 O557 1.268 . S
C579 C572 1.506 . S
H580 C563 0.931 . S
H581 C564 0.931 . S
H582 C565 0.929 . S
H583 C566 0.930 . S
H584 C574 0.931 . S
H585 C575 0.931 . S
H586 C576 0.930 . S
H587 C577 0.913 1_545 S
Eu588 N617 2.600 . S
Eu588 N623 2.562 . S
Eu588 O632 2.462 . S
Eu588 O633 2.373 . S
Eu588 O635 2.432 . S
Eu588 O636 2.291 . S
Eu588 O640 2.335 . S
Eu588 O643 2.372 1_556 S
Eu588 C652 2.787 . S
C589 N590 1.365 . S
C589 C592 1.405 . S
C589 C596 1.448 . S
N590 C589 1.365 . S
N590 C593 1.319 . S
N590 Eu599 2.600 . S
C591 C593 1.397 . S
C591 C594 1.367 . S
C591 H611 0.931 . S
C592 C589 1.405 . S
C592 C594 1.403 . S
C592 C598 1.439 . S
C593 N590 1.319 . S
C593 C591 1.397 . S
C593 H604 0.930 . S
C594 C591 1.367 . S
C594 C592 1.403 . S
C594 H615 0.929 . S
C595 C596 1.430 . S
C595 C597 1.387 . S
C595 C601 1.404 1_556 S
C596 C589 1.448 . S
C596 C595 1.430 . S
C596 N600 1.351 . S
C597 C595 1.387 . S
C597 C598 1.374 . S
C597 H612 0.931 . S
C598 C592 1.439 . S
C598 C597 1.374 . S
C598 H613 0.931 . S
Eu599 N590 2.600 . S
Eu599 N600 2.562 . S
Eu599 O634 2.335 . S
Eu599 O637 2.372 . S
Eu599 O638 2.462 . S
Eu599 O639 2.373 . S
Eu599 O641 2.432 . S
Eu599 O642 2.291 . S
Eu599 C663 2.787 . S
N600 C596 1.351 . S
N600 Eu599 2.562 . S
N600 C602 1.325 1_556 S
C601 C595 1.404 1_554 S
C601 C603 1.366 . S
C601 H609 0.930 . S
C602 N600 1.325 1_554 S
C602 C603 1.416 . S
C602 H608 0.929 . S
C603 C601 1.366 . S
C603 C602 1.416 . S
C603 H605 0.930 . S
H604 C593 0.930 . S
H605 C603 0.930 . S
H606 C621 0.930 . S
H607 C628 0.930 . S
H608 C602 0.929 . S
H609 C601 0.930 . S
H610 C624 0.929 . S
H611 C591 0.931 . S
H612 C597 0.931 . S
H613 C598 0.931 . S
H614 C619 0.931 . S
H615 C594 0.929 . S
H616 C627 0.930 . S
N617 Eu588 2.600 . S
N617 C618 1.365 . S
N617 C621 1.319 1_556 S
C618 N617 1.365 . S
C618 C620 1.405 . S
C618 C626 1.448 . S
C619 H614 0.931 . S
C619 C621 1.397 . S
C619 C622 1.367 . S
C620 C618 1.405 . S
C620 C622 1.403 1_556 S
C620 C653 1.439 . S
C621 H606 0.930 . S
C621 N617 1.319 1_554 S
C621 C619 1.397 . S
C622 C619 1.367 . S
C622 C620 1.403 1_554 S
C622 H629 0.929 . S
N623 Eu588 2.562 . S
N623 C624 1.325 . S
N623 C626 1.351 . S
C624 H610 0.929 . S
C624 N623 1.325 . S
C624 C628 1.416 . S
C625 C626 1.430 . S
C625 C627 1.404 . S
C625 C654 1.387 . S
C626 C618 1.448 . S
C626 N623 1.351 . S
C626 C625 1.430 . S
C627 H616 0.930 . S
C627 C625 1.404 . S
C627 C628 1.366 . S
C628 H607 0.930 . S
C628 C624 1.416 . S
C628 C627 1.366 . S
H629 C622 0.929 . S
H630 C653 0.931 . S
H631 C654 0.931 . S
O632 Eu588 2.462 . S
O632 C652 1.252 . S
O633 Eu588 2.373 . S
O633 C644 1.249 . S
O634 Eu599 2.335 . S
O634 C644 1.264 . S
O635 Eu588 2.432 . S
O635 C652 1.268 . S
O636 Eu588 2.291 . S
O636 C651 1.255 . S
O637 Eu599 2.372 . S
O637 C651 1.257 . S
O638 Eu599 2.462 . S
O638 C663 1.252 . S
O639 Eu599 2.373 . S
O639 C655 1.249 . S
O640 Eu588 2.335 . S
O640 C655 1.264 . S
O641 Eu599 2.432 . S
O641 C663 1.268 . S
O642 Eu599 2.291 . S
O642 C662 1.255 1_556 S
O643 Eu588 2.372 1_554 S
O643 C662 1.257 . S
C644 O633 1.249 . S
C644 O634 1.264 . S
C645 C648 1.382 . S
C645 C650 1.390 . S
C645 C652 1.506 . S
C646 C647 1.398 . S
C646 C650 1.392 . S
C647 C646 1.398 . S
C647 C649 1.372 . S
C647 H664 0.931 . S
C648 C645 1.382 . S
C648 C649 1.390 . S
C648 H665 0.931 . S
C649 C647 1.372 . S
C649 C648 1.390 . S
C649 H666 0.929 . S
C650 C645 1.390 . S
C650 C646 1.392 . S
C650 H667 0.930 . S
C651 O636 1.255 . S
C651 O637 1.257 . S
C652 Eu588 2.787 . S
C652 O632 1.252 . S
C652 O635 1.268 . S
C652 C645 1.506 . S
C653 C620 1.439 . S
C653 H630 0.931 . S
C653 C654 1.374 . S
C654 C625 1.387 . S
C654 H631 0.931 . S
C654 C653 1.374 . S
C655 O639 1.249 . S
C655 O640 1.264 . S
C656 C659 1.382 . S
C656 C660 1.390 . S
C656 C663 1.506 . S
C657 C658 1.398 . S
C657 C660 1.392 . S
C658 C657 1.398 . S
C658 C661 1.372 . S
C658 H668 0.931 . S
C659 C656 1.382 . S
C659 C661 1.390 . S
C659 H669 0.931 . S
C660 C656 1.390 . S
C660 C657 1.392 . S
C660 H670 0.930 . S
C661 C658 1.372 . S
C661 C659 1.390 . S
C661 H671 0.929 . S
C662 O642 1.255 1_554 S
C662 O643 1.257 . S
C663 Eu599 2.787 . S
C663 O638 1.252 . S
C663 O641 1.268 . S
C663 C656 1.506 . S
H664 C647 0.931 . S
H665 C648 0.931 . S
H666 C649 0.929 . S
H667 C650 0.930 . S
H668 C658 0.931 . S
H669 C659 0.931 . S
H670 C660 0.930 . S
H671 C661 0.929 . S
Eu672 N701 2.600 . S
Eu672 N707 2.562 . S
Eu672 O716 2.462 . S
Eu672 O717 2.373 . S
Eu672 O719 2.432 . S
Eu672 O720 2.291 . S
Eu672 O724 2.335 . S
Eu672 O727 2.372 . S
Eu672 C736 2.787 . S
C673 N674 1.365 . S
C673 C676 1.405 . S
C673 C680 1.448 . S
N674 C673 1.365 . S
N674 C677 1.319 1_556 S
N674 Eu683 2.600 . S
C675 C677 1.397 . S
C675 C678 1.367 . S
C675 H695 0.931 . S
C676 C673 1.405 . S
C676 C678 1.403 1_556 S
C676 C682 1.439 . S
C677 N674 1.319 1_554 S
C677 C675 1.397 . S
C677 H688 0.930 . S
C678 C675 1.367 . S
C678 C676 1.403 1_554 S
C678 H699 0.929 . S
C679 C680 1.430 . S
C679 C681 1.387 . S
C679 C685 1.404 . S
C680 C673 1.448 . S
C680 C679 1.430 . S
C680 N684 1.351 . S
C681 C679 1.387 . S
C681 C682 1.374 . S
C681 H696 0.931 . S
C682 C676 1.439 . S
C682 C681 1.374 . S
C682 H697 0.931 . S
Eu683 N674 2.600 . S
Eu683 N684 2.562 . S
Eu683 O718 2.335 . S
Eu683 O721 2.372 . S
Eu683 O722 2.462 . S
Eu683 O723 2.373 . S
Eu683 O725 2.432 . S
Eu683 O726 2.291 . S
Eu683 C747 2.787 . S
N684 C680 1.351 . S
N684 Eu683 2.562 . S
N684 C686 1.325 . S
C685 C679 1.404 . S
C685 C687 1.366 . S
C685 H693 0.930 . S
C686 N684 1.325 . S
C686 C687 1.416 . S
C686 H692 0.929 . S
C687 C685 1.366 . S
C687 C686 1.416 . S
C687 H689 0.930 . S
H688 C677 0.930 . S
H689 C687 0.930 . S
H690 C705 0.930 . S
H691 C712 0.930 . S
H692 C686 0.929 . S
H693 C685 0.930 . S
H694 C708 0.929 . S
H695 C675 0.931 . S
H696 C681 0.931 . S
H697 C682 0.931 . S
H698 C703 0.931 . S
H699 C678 0.929 . S
H700 C711 0.930 . S
N701 Eu672 2.600 . S
N701 C702 1.365 . S
N701 C705 1.319 . S
C702 N701 1.365 . S
C702 C704 1.405 . S
C702 C710 1.448 . S
C703 H698 0.931 . S
C703 C705 1.397 . S
C703 C706 1.367 . S
C704 C702 1.405 . S
C704 C706 1.403 . S
C704 C737 1.439 . S
C705 H690 0.930 . S
C705 N701 1.319 . S
C705 C703 1.397 . S
C706 C703 1.367 . S
C706 C704 1.403 . S
C706 H713 0.929 . S
N707 Eu672 2.562 . S
N707 C708 1.325 1_556 S
N707 C710 1.351 . S
C708 H694 0.929 . S
C708 N707 1.325 1_554 S
C708 C712 1.416 . S
C709 C710 1.430 . S
C709 C711 1.404 1_556 S
C709 C738 1.387 . S
C710 C702 1.448 . S
C710 N707 1.351 . S
C710 C709 1.430 . S
C711 H700 0.930 . S
C711 C709 1.404 1_554 S
C711 C712 1.366 . S
C712 H691 0.930 . S
C712 C708 1.416 . S
C712 C711 1.366 . S
H713 C706 0.929 . S
H714 C737 0.931 . S
H715 C738 0.931 . S
O716 Eu672 2.462 . S
O716 C736 1.252 . S
O717 Eu672 2.373 . S
O717 C728 1.249 . S
O718 Eu683 2.335 . S
O718 C728 1.264 . S
O719 Eu672 2.432 . S
O719 C736 1.268 . S
O720 Eu672 2.291 . S
O720 C735 1.255 1_556 S
O721 Eu683 2.372 . S
O721 C735 1.257 1_556 S
O722 Eu683 2.462 . S
O722 C747 1.252 . S
O723 Eu683 2.373 . S
O723 C739 1.249 . S
O724 Eu672 2.335 . S
O724 C739 1.264 . S
O725 Eu683 2.432 . S
O725 C747 1.268 . S
O726 Eu683 2.291 . S
O726 C746 1.255 . S
O727 Eu672 2.372 . S
O727 C746 1.257 . S
C728 O717 1.249 . S
C728 O718 1.264 . S
C729 C732 1.382 . S
C729 C734 1.390 . S
C729 C736 1.506 . S
C730 C731 1.398 . S
C730 C734 1.392 . S
C731 C730 1.398 . S
C731 C733 1.372 . S
C731 H748 0.931 . S
C732 C729 1.382 . S
C732 C733 1.390 . S
C732 H749 0.931 . S
C733 C731 1.372 . S
C733 C732 1.390 . S
C733 H750 0.929 . S
C734 C729 1.390 . S
C734 C730 1.392 . S
C734 H751 0.930 1_556 S
C735 O720 1.255 1_554 S
C735 O721 1.257 1_554 S
C736 Eu672 2.787 . S
C736 O716 1.252 . S
C736 O719 1.268 . S
C736 C729 1.506 . S
C737 C704 1.439 . S
C737 H714 0.931 . S
C737 C738 1.374 . S
C738 C709 1.387 . S
C738 H715 0.931 . S
C738 C737 1.374 . S
C739 O723 1.249 . S
C739 O724 1.264 . S
C740 C743 1.382 . S
C740 C744 1.390 . S
C740 C747 1.506 . S
C741 C742 1.398 . S
C741 C744 1.392 . S
C742 C741 1.398 . S
C742 C745 1.372 . S
C742 H752 0.931 . S
C743 C740 1.382 . S
C743 C745 1.390 . S
C743 H753 0.931 . S
C744 C740 1.390 . S
C744 C741 1.392 . S
C744 H754 0.930 . S
C745 C742 1.372 . S
C745 C743 1.390 . S
C745 H755 0.929 . S
C746 O726 1.255 . S
C746 O727 1.257 . S
C747 Eu683 2.787 . S
C747 O722 1.252 . S
C747 O725 1.268 . S
C747 C740 1.506 . S
H748 C731 0.931 . S
H749 C732 0.931 . S
H750 C733 0.929 . S
H751 C734 0.930 1_554 S
H752 C742 0.931 . S
H753 C743 0.931 . S
H754 C744 0.930 . S
H755 C745 0.929 . S
C756 C757 1.391 . S
C756 C758 1.394 . S
C756 H772 0.931 . S
C757 C756 1.391 . S
C757 C761 1.376 . S
C758 C756 1.394 . S
C758 C759 1.369 . S
C758 C762 1.531 . S
C759 C758 1.369 . S
C759 C760 1.410 1_554 S
C759 C767 1.503 . S
C760 C759 1.410 1_556 S
C760 C761 1.392 1_556 S
C760 C763 1.511 . S
C761 C757 1.376 . S
C761 C760 1.392 1_554 S
C761 H773 0.929 1_554 S
C762 C758 1.531 . S
C762 H774 0.960 . S
C762 H775 0.962 . S
C762 H776 0.960 . S
C763 C760 1.511 . S
C763 H777 0.961 . S
C763 H778 0.961 . S
C763 H779 0.961 . S
C764 C765 1.370 . S
C764 C766 1.363 . S
C764 H780 0.931 . S
C765 C764 1.370 . S
C765 C769 1.408 1_556 S
C766 C764 1.363 . S
C766 C767 1.370 1_556 S
C766 C770 1.524 . S
C767 C759 1.503 . S
C767 C766 1.370 1_554 S
C767 C768 1.403 . S
C768 C767 1.403 . S
C768 C769 1.404 . S
C768 C771 1.539 . S
C769 C765 1.408 1_554 S
C769 C768 1.404 . S
C769 H781 0.930 . S
C770 C766 1.524 . S
C770 H782 0.956 . S
C770 H783 0.961 . S
C770 H784 0.961 . S
C771 C768 1.539 . S
C771 H785 0.958 . S
C771 H786 0.961 . S
C771 H787 0.960 . S
H772 C756 0.931 . S
H773 C761 0.929 1_556 S
H774 C762 0.960 . S
H775 C762 0.962 . S
H776 C762 0.960 . S
H777 C763 0.961 . S
H778 C763 0.961 . S
H779 C763 0.961 . S
H780 C764 0.931 . S
H781 C769 0.930 . S
H782 C770 0.956 . S
H783 C770 0.961 . S
H784 C770 0.961 . S
H785 C771 0.958 . S
H786 C771 0.961 . S
H787 C771 0.960 . S
C788 C789 1.391 1_556 S
C788 C790 1.394 . S
C788 H804 0.931 . S
C789 C788 1.391 1_554 S
C789 C793 1.376 . S
C790 C788 1.394 . S
C790 C791 1.369 . S
C790 C794 1.531 . S
C791 C790 1.369 . S
C791 C792 1.410 1_556 S
C791 C799 1.503 . S
C792 C791 1.410 1_554 S
C792 C793 1.392 . S
C792 C795 1.511 . S
C793 C789 1.376 . S
C793 C792 1.392 . S
C793 H805 0.929 . S
C794 C790 1.531 . S
C794 H806 0.960 . S
C794 H807 0.962 . S
C794 H808 0.960 . S
C795 C792 1.511 . S
C795 H809 0.961 . S
C795 H810 0.961 . S
C795 H811 0.961 . S
C796 C797 1.370 . S
C796 C798 1.363 . S
C796 H812 0.931 . S
C797 C796 1.370 . S
C797 C801 1.408 . S
C798 C796 1.363 . S
C798 C799 1.370 . S
C798 C802 1.524 1_556 S
C799 C791 1.503 . S
C799 C798 1.370 . S
C799 C800 1.403 . S
C800 C799 1.403 . S
C800 C801 1.404 . S
C800 C803 1.539 . S
C801 C797 1.408 . S
C801 C800 1.404 . S
C801 H813 0.930 . S
C802 C798 1.524 1_554 S
C802 H814 0.956 . S
C802 H815 0.961 . S
C802 H816 0.961 . S
C803 C800 1.539 . S
C803 H817 0.958 . S
C803 H818 0.961 . S
C803 H819 0.960 . S
H804 C788 0.931 . S
H805 C793 0.929 . S
H806 C794 0.960 . S
H807 C794 0.962 . S
H808 C794 0.960 . S
H809 C795 0.961 . S
H810 C795 0.961 . S
H811 C795 0.961 . S
H812 C796 0.931 . S
H813 C801 0.930 . S
H814 C802 0.956 . S
H815 C802 0.961 . S
H816 C802 0.961 . S
H817 C803 0.958 . S
H818 C803 0.961 . S
H819 C803 0.960 . S
C820 C821 1.391 . S
C820 C822 1.394 . S
C820 H836 0.931 . S
C821 C820 1.391 . S
C821 C825 1.376 . S
C822 C820 1.394 . S
C822 C823 1.369 . S
C822 C826 1.531 . S
C823 C822 1.369 . S
C823 C824 1.410 . S
C823 C831 1.503 . S
C824 C823 1.410 . S
C824 C825 1.392 . S
C824 C827 1.511 . S
C825 C821 1.376 . S
C825 C824 1.392 . S
C825 H837 0.929 . S
C826 C822 1.531 . S
C826 H838 0.960 . S
C826 H839 0.962 . S
C826 H840 0.960 . S
C827 C824 1.511 . S
C827 H841 0.961 . S
C827 H842 0.961 . S
C827 H843 0.961 . S
C828 C829 1.370 . S
C828 C830 1.363 . S
C828 H844 0.931 . S
C829 C828 1.370 . S
C829 C833 1.408 . S
C830 C828 1.363 . S
C830 C831 1.370 . S
C830 C834 1.524 . S
C831 C823 1.503 . S
C831 C830 1.370 . S
C831 C832 1.403 . S
C832 C831 1.403 . S
C832 C833 1.404 . S
C832 C835 1.539 . S
C833 C829 1.408 . S
C833 C832 1.404 . S
C833 H845 0.930 . S
C834 C830 1.524 . S
C834 H846 0.956 . S
C834 H847 0.961 . S
C834 H848 0.961 . S
C835 C832 1.539 . S
C835 H849 0.958 . S
C835 H850 0.961 . S
C835 H851 0.960 . S
H836 C820 0.931 . S
H837 C825 0.929 . S
H838 C826 0.960 . S
H839 C826 0.962 . S
H840 C826 0.960 . S
H841 C827 0.961 . S
H842 C827 0.961 . S
H843 C827 0.961 . S
H844 C828 0.931 . S
H845 C833 0.930 . S
H846 C834 0.956 . S
H847 C834 0.961 . S
H848 C834 0.961 . S
H849 C835 0.958 . S
H850 C835 0.961 . S
H851 C835 0.960 . S
C852 C853 1.391 . S
C852 C854 1.394 . S
C852 H868 0.931 . S
C853 C852 1.391 . S
C853 C857 1.376 . S
C854 C852 1.394 . S
C854 C855 1.369 . S
C854 C858 1.531 . S
C855 C854 1.369 . S
C855 C856 1.410 . S
C855 C863 1.503 . S
C856 C855 1.410 . S
C856 C857 1.392 . S
C856 C859 1.511 . S
C857 C853 1.376 . S
C857 C856 1.392 . S
C857 H869 0.929 . S
C858 C854 1.531 . S
C858 H870 0.960 . S
C858 H871 0.962 1_554 S
C858 H872 0.960 . S
C859 C856 1.511 . S
C859 H873 0.961 . S
C859 H874 0.961 . S
C859 H875 0.961 . S
C860 C861 1.370 1_556 S
C860 C862 1.363 . S
C860 H876 0.931 . S
C861 C860 1.370 1_554 S
C861 C865 1.408 . S
C862 C860 1.363 . S
C862 C863 1.370 1_556 S
C862 C866 1.524 . S
C863 C855 1.503 . S
C863 C862 1.370 1_554 S
C863 C864 1.403 . S
C864 C863 1.403 . S
C864 C865 1.404 . S
C864 C867 1.539 . S
C865 C861 1.408 . S
C865 C864 1.404 . S
C865 H877 0.930 . S
C866 C862 1.524 . S
C866 H878 0.956 . S
C866 H879 0.961 . S
C866 H880 0.961 . S
C867 C864 1.539 . S
C867 H881 0.958 . S
C867 H882 0.961 . S
C867 H883 0.960 . S
H868 C852 0.931 . S
H869 C857 0.929 . S
H870 C858 0.960 . S
H871 C858 0.962 1_556 S
H872 C858 0.960 . S
H873 C859 0.961 . S
H874 C859 0.961 . S
H875 C859 0.961 . S
H876 C860 0.931 . S
H877 C865 0.930 . S
H878 C866 0.956 . S
H879 C866 0.961 . S
H880 C866 0.961 . S
H881 C867 0.958 . S
H882 C867 0.961 . S
H883 C867 0.960 . S
C884 C885 1.391 . S
C884 C886 1.394 . S
C884 H900 0.931 . S
C885 C884 1.391 . S
C885 C889 1.376 . S
C886 C884 1.394 . S
C886 C887 1.369 . S
C886 C890 1.531 1_655 S
C887 C886 1.369 . S
C887 C888 1.410 . S
C887 C895 1.503 . S
C888 C887 1.410 . S
C888 C889 1.392 . S
C888 C891 1.511 . S
C889 C885 1.376 . S
C889 C888 1.392 . S
C889 H901 0.929 . S
C890 C886 1.531 1_455 S
C890 H902 0.960 . S
C890 H903 0.962 . S
C890 H904 0.960 . S
C891 C888 1.511 . S
C891 H905 0.961 . S
C891 H906 0.961 . S
C891 H907 0.961 . S
C892 C893 1.376 1_455 S
C892 C894 1.363 1_455 S
C892 H908 0.931 . S
C893 C892 1.376 1_655 S
C893 C897 1.429 . S
C894 C892 1.363 1_655 S
C894 C895 1.370 . S
C894 C898 1.524 . S
C895 C887 1.503 . S
C895 C894 1.370 . S
C895 C896 1.403 . S
C896 C895 1.403 . S
C896 C897 1.404 . S
C896 C899 1.539 . S
C897 C893 1.429 . S
C897 C896 1.404 . S
C897 H909 0.930 . S
C898 C894 1.524 . S
C898 H910 0.956 1_655 S
C898 H911 0.961 . S
C898 H912 0.961 1_654 S
C899 C896 1.539 . S
C899 H913 0.958 . S
C899 H914 0.961 . S
C899 H915 0.960 . S
H900 C884 0.931 . S
H901 C889 0.929 . S
H902 C890 0.960 . S
H903 C890 0.962 . S
H904 C890 0.960 . S
H905 C891 0.961 . S
H906 C891 0.961 . S
H907 C891 0.961 . S
H908 C892 0.931 . S
H909 C897 0.930 . S
H910 C898 0.956 1_455 S
H911 C898 0.961 . S
H912 C898 0.961 1_456 S
H913 C899 0.958 . S
H914 C899 0.961 . S
H915 C899 0.960 . S
C916 C917 1.391 . S
C916 C918 1.394 . S
C916 H932 0.931 . S
C917 C916 1.391 . S
C917 C921 1.376 . S
C918 C916 1.394 . S
C918 C919 1.369 . S
C918 C922 1.531 . S
C919 C918 1.369 . S
C919 C920 1.410 . S
C919 C927 1.503 . S
C920 C919 1.410 . S
C920 C921 1.392 . S
C920 C923 1.511 . S
C921 C917 1.376 . S
C921 C920 1.392 . S
C921 H933 0.929 . S
C922 C918 1.531 . S
C922 H934 0.960 . S
C922 H935 0.962 . S
C922 H936 0.960 . S
C923 C920 1.511 . S
C923 H937 0.961 . S
C923 H938 0.961 . S
C923 H939 0.961 . S
C924 C925 1.370 . S
C924 C926 1.363 . S
C924 H940 0.931 . S
C925 C924 1.370 . S
C925 C929 1.408 . S
C926 C924 1.363 . S
C926 C927 1.370 . S
C926 C930 1.524 . S
C927 C919 1.503 . S
C927 C926 1.370 . S
C927 C928 1.403 . S
C928 C927 1.403 . S
C928 C929 1.404 . S
C928 C931 1.539 . S
C929 C925 1.408 . S
C929 C928 1.404 . S
C929 H941 0.930 . S
C930 C926 1.524 . S
C930 H942 0.956 . S
C930 H943 0.961 . S
C930 H944 0.961 . S
C931 C928 1.539 . S
C931 H945 0.958 . S
C931 H946 0.961 . S
C931 H947 0.960 . S
H932 C916 0.931 . S
H933 C921 0.929 . S
H934 C922 0.960 . S
H935 C922 0.962 . S
H936 C922 0.960 . S
H937 C923 0.961 . S
H938 C923 0.961 . S
H939 C923 0.961 . S
H940 C924 0.931 . S
H941 C929 0.930 . S
H942 C930 0.956 . S
H943 C930 0.961 . S
H944 C930 0.961 . S
H945 C931 0.958 . S
H946 C931 0.961 . S
H947 C931 0.960 . S
C948 C949 1.391 . S
C948 C950 1.394 . S
C948 H964 0.931 . S
C949 C948 1.391 . S
C949 C953 1.376 . S
C950 C948 1.394 . S
C950 C951 1.369 . S
C950 C954 1.531 . S
C951 C950 1.369 . S
C951 C952 1.410 . S
C951 C959 1.503 . S
C952 C951 1.410 . S
C952 C953 1.392 . S
C952 C955 1.511 . S
C953 C949 1.376 . S
C953 C952 1.392 . S
C953 H965 0.929 . S
C954 C950 1.531 . S
C954 H966 0.960 . S
C954 H967 0.962 . S
C954 H968 0.960 . S
C955 C952 1.511 . S
C955 H969 0.961 . S
C955 H970 0.961 . S
C955 H971 0.961 . S
C956 C957 1.370 . S
C956 C958 1.363 . S
C956 H972 0.931 . S
C957 C956 1.370 . S
C957 C961 1.408 . S
C958 C956 1.363 . S
C958 C959 1.370 . S
C958 C962 1.524 . S
C959 C951 1.503 . S
C959 C958 1.370 . S
C959 C960 1.403 . S
C960 C959 1.403 . S
C960 C961 1.404 . S
C960 C963 1.539 . S
C961 C957 1.408 . S
C961 C960 1.404 . S
C961 H973 0.930 . S
C962 C958 1.524 . S
C962 H974 0.956 . S
C962 H975 0.961 . S
C962 H976 0.961 . S
C963 C960 1.539 . S
C963 H977 0.958 . S
C963 H978 0.961 . S
C963 H979 0.960 . S
H964 C948 0.931 . S
H965 C953 0.929 . S
H966 C954 0.960 . S
H967 C954 0.962 . S
H968 C954 0.960 . S
H969 C955 0.961 . S
H970 C955 0.961 . S
H971 C955 0.961 . S
H972 C956 0.931 . S
H973 C961 0.930 . S
H974 C962 0.956 . S
H975 C962 0.961 . S
H976 C962 0.961 . S
H977 C963 0.958 . S
H978 C963 0.961 . S
H979 C963 0.960 . S
C980 C981 1.391 . S
C980 C982 1.394 . S
C980 H996 0.931 . S
C981 C980 1.391 . S
C981 C985 1.376 . S
C982 C980 1.394 . S
C982 C983 1.369 . S
C982 C986 1.531 . S
C983 C982 1.369 . S
C983 C984 1.410 . S
C983 C991 1.503 . S
C984 C983 1.410 . S
C984 C985 1.392 . S
C984 C987 1.511 . S
C985 C981 1.376 . S
C985 C984 1.392 . S
C985 H997 0.929 . S
C986 C982 1.531 . S
C986 H998 0.960 . S
C986 H999 0.962 . S
C986 H1000 0.960 . S
C987 C984 1.511 . S
C987 H1001 0.961 . S
C987 H1002 0.961 . S
C987 H1003 0.961 . S
C988 C989 1.370 . S
C988 C990 1.363 . S
C988 H1004 0.931 . S
C989 C988 1.370 . S
C989 C993 1.408 . S
C990 C988 1.363 . S
C990 C991 1.370 . S
C990 C994 1.524 . S
C991 C983 1.503 . S
C991 C990 1.370 . S
C991 C992 1.403 . S
C992 C991 1.403 . S
C992 C993 1.404 . S
C992 C995 1.539 . S
C993 C989 1.408 . S
C993 C992 1.404 . S
C993 H1005 0.930 . S
C994 C990 1.524 . S
C994 H1006 0.956 . S
C994 H1007 0.961 . S
C994 H1008 0.961 . S
C995 C992 1.539 . S
C995 H1009 0.958 . S
C995 H1010 0.961 . S
C995 H1011 0.960 . S
H996 C980 0.931 . S
H997 C985 0.929 . S
H998 C986 0.960 . S
H999 C986 0.962 . S
H1000 C986 0.960 . S
H1001 C987 0.961 . S
H1002 C987 0.961 . S
H1003 C987 0.961 . S
H1004 C988 0.931 . S
H1005 C993 0.930 . S
H1006 C994 0.956 . S
H1007 C994 0.961 . S
H1008 C994 0.961 . S
H1009 C995 0.958 . S
H1010 C995 0.961 . S
H1011 C995 0.960 . S
C1012 C1013 1.391 . S
C1012 C1014 1.394 . S
C1012 H1028 0.931 . S
C1013 C1012 1.391 . S
C1013 C1017 1.376 . S
C1014 C1012 1.394 . S
C1014 C1015 1.369 . S
C1014 C1018 1.531 . S
C1015 C1014 1.369 . S
C1015 C1016 1.410 . S
C1015 C1023 1.503 . S
C1016 C1015 1.410 . S
C1016 C1017 1.392 . S
C1016 C1019 1.511 . S
C1017 C1013 1.376 . S
C1017 C1016 1.392 . S
C1017 H1029 0.929 . S
C1018 C1014 1.531 . S
C1018 H1030 0.960 . S
C1018 H1031 0.962 . S
C1018 H1032 0.960 . S
C1019 C1016 1.511 . S
C1019 H1033 0.961 . S
C1019 H1034 0.961 . S
C1019 H1035 0.981 . S
C1020 C1021 1.370 1_545 S
C1020 C1022 1.363 . S
C1020 H1036 0.931 . S
C1021 C1020 1.370 1_565 S
C1021 C1025 1.408 . S
C1022 C1020 1.363 . S
C1022 C1023 1.370 . S
C1022 C1026 1.524 . S
C1023 C1015 1.503 . S
C1023 C1022 1.370 . S
C1023 C1024 1.403 1_545 S
C1024 C1023 1.403 1_565 S
C1024 C1025 1.404 . S
C1024 C1027 1.539 . S
C1025 C1021 1.408 . S
C1025 C1024 1.404 . S
C1025 H1037 0.930 . S
C1026 C1022 1.524 . S
C1026 H1038 0.956 . S
C1026 H1039 0.961 . S
C1026 H1040 0.961 . S
C1027 C1024 1.539 . S
C1027 H1041 0.958 . S
C1027 H1042 0.961 . S
C1027 H1043 0.960 . S
H1028 C1012 0.931 . S
H1029 C1017 0.929 . S
H1030 C1018 0.960 . S
H1031 C1018 0.962 . S
H1032 C1018 0.960 . S
H1033 C1019 0.961 . S
H1034 C1019 0.961 . S
H1035 C1019 0.981 . S
H1036 C1020 0.931 . S
H1037 C1025 0.930 . S
H1038 C1026 0.956 . S
H1039 C1026 0.961 . S
H1040 C1026 0.961 . S
H1041 C1027 0.958 . S
H1042 C1027 0.961 . S
H1043 C1027 0.960 . S
C1044 C1045 1.391 . S
C1044 C1046 1.394 . S
C1044 H1060 0.931 . S
C1045 C1044 1.391 . S
C1045 C1049 1.376 . S
C1046 C1044 1.394 . S
C1046 C1047 1.369 . S
C1046 C1050 1.531 . S
C1047 C1046 1.369 . S
C1047 C1048 1.410 . S
C1047 C1055 1.503 . S
C1048 C1047 1.410 . S
C1048 C1049 1.392 . S
C1048 C1051 1.511 . S
C1049 C1045 1.376 . S
C1049 C1048 1.392 . S
C1049 H1061 0.929 . S
C1050 C1046 1.531 . S
C1050 H1062 0.960 . S
C1050 H1063 0.962 . S
C1050 H1064 0.960 1_554 S
C1051 C1048 1.511 . S
C1051 H1065 0.961 . S
C1051 H1066 0.961 . S
C1051 H1067 0.961 . S
C1052 C1053 1.370 . S
C1052 C1054 1.363 . S
C1052 H1068 0.931 . S
C1053 C1052 1.370 . S
C1053 C1057 1.408 . S
C1054 C1052 1.363 . S
C1054 C1055 1.370 . S
C1054 C1058 1.524 . S
C1055 C1047 1.503 . S
C1055 C1054 1.370 . S
C1055 C1056 1.403 . S
C1056 C1055 1.403 . S
C1056 C1057 1.404 . S
C1056 C1059 1.539 1_554 S
C1057 C1053 1.408 . S
C1057 C1056 1.404 . S
C1057 H1069 0.930 . S
C1058 C1054 1.524 . S
C1058 H1070 0.956 . S
C1058 H1071 0.961 . S
C1058 H1072 0.961 . S
C1059 C1056 1.539 1_556 S
C1059 H1073 0.958 . S
C1059 H1074 0.961 . S
C1059 H1075 0.960 1_556 S
H1060 C1044 0.931 . S
H1061 C1049 0.929 . S
H1062 C1050 0.960 . S
H1063 C1050 0.962 . S
H1064 C1050 0.960 1_556 S
H1065 C1051 0.961 . S
H1066 C1051 0.961 . S
H1067 C1051 0.961 . S
H1068 C1052 0.931 . S
H1069 C1057 0.930 . S
H1070 C1058 0.956 . S
H1071 C1058 0.961 . S
H1072 C1058 0.961 . S
H1073 C1059 0.958 . S
H1074 C1059 0.961 . S
H1075 C1059 0.960 1_554 S
C1076 C1077 1.391 . S
C1076 C1078 1.394 . S
C1076 H1092 0.931 . S
C1077 C1076 1.391 . S
C1077 C1081 1.376 . S
C1078 C1076 1.394 . S
C1078 C1079 1.369 . S
C1078 C1082 1.531 . S
C1079 C1078 1.369 . S
C1079 C1080 1.410 . S
C1079 C1087 1.503 1_565 S
C1080 C1079 1.410 . S
C1080 C1081 1.392 . S
C1080 C1083 1.512 1_565 S
C1081 C1077 1.376 . S
C1081 C1080 1.392 . S
C1081 H1093 0.929 . S
C1082 C1078 1.531 . S
C1082 H1094 0.960 . S
C1082 H1095 0.962 . S
C1082 H1096 0.960 . S
C1083 C1080 1.512 1_545 S
C1083 H1097 0.962 1_645 S
C1083 H1098 0.955 . S
C1083 H1099 0.953 1_545 S
C1084 C1085 1.370 . S
C1084 C1086 1.363 . S
C1084 H1100 0.931 . S
C1085 C1084 1.370 . S
C1085 C1089 1.408 . S
C1086 C1084 1.363 . S
C1086 C1087 1.370 . S
C1086 C1090 1.524 . S
C1087 C1079 1.503 1_545 S
C1087 C1086 1.370 . S
C1087 C1088 1.403 . S
C1088 C1087 1.403 . S
C1088 C1089 1.404 . S
C1088 C1091 1.539 1_545 S
C1089 C1085 1.408 . S
C1089 C1088 1.404 . S
C1089 H1101 0.930 . S
C1090 C1086 1.524 . S
C1090 H1102 0.956 1_554 S
C1090 H1103 0.961 . S
C1090 H1104 0.961 1_554 S
C1091 C1088 1.539 1_565 S
C1091 H1105 0.958 . S
C1091 H1106 0.961 1_565 S
C1091 H1107 0.960 . S
H1092 C1076 0.931 . S
H1093 C1081 0.929 . S
H1094 C1082 0.960 . S
H1095 C1082 0.962 . S
H1096 C1082 0.960 . S
H1097 C1083 0.962 1_465 S
H1098 C1083 0.955 . S
H1099 C1083 0.953 1_565 S
H1100 C1084 0.931 . S
H1101 C1089 0.930 . S
H1102 C1090 0.956 1_556 S
H1103 C1090 0.961 . S
H1104 C1090 0.961 1_556 S
H1105 C1091 0.958 . S
H1106 C1091 0.961 1_545 S
H1107 C1091 0.960 . S
C1108 C1109 1.391 1_455 S
C1108 C1110 1.394 . S
C1108 H1124 0.931 . S
C1109 C1108 1.391 1_655 S
C1109 C1113 1.376 . S
C1110 C1108 1.394 . S
C1110 C1111 1.369 . S
C1110 C1114 1.531 . S
C1111 C1110 1.369 . S
C1111 C1112 1.410 . S
C1111 C1119 1.503 . S
C1112 C1111 1.410 . S
C1112 C1113 1.392 1_455 S
C1112 C1115 1.511 1_554 S
C1113 C1109 1.376 . S
C1113 C1112 1.392 1_655 S
C1113 H1125 0.929 1_554 S
C1114 C1110 1.531 . S
C1114 H1126 0.960 . S
C1114 H1127 0.962 . S
C1114 H1128 0.960 . S
C1115 C1112 1.511 1_556 S
C1115 H1129 0.961 1_455 S
C1115 H1130 0.961 . S
C1115 H1131 0.961 . S
C1116 C1117 1.370 . S
C1116 C1118 1.363 . S
C1116 H1132 0.931 . S
C1117 C1116 1.370 . S
C1117 C1121 1.408 1_554 S
C1118 C1116 1.363 . S
C1118 C1119 1.370 . S
C1118 C1122 1.524 . S
C1119 C1111 1.503 . S
C1119 C1118 1.370 . S
C1119 C1120 1.405 . S
C1120 C1119 1.405 . S
C1120 C1121 1.402 1_554 S
C1120 C1123 1.538 1_554 S
C1121 C1117 1.408 1_556 S
C1121 C1120 1.402 1_556 S
C1121 H1133 0.930 . S
C1122 C1118 1.524 . S
C1122 H1134 0.956 . S
C1122 H1135 0.961 . S
C1122 H1136 0.961 . S
C1123 C1120 1.538 1_556 S
C1123 H1137 0.958 1_556 S
C1123 H1138 0.961 . S
C1123 H1139 0.960 . S
H1124 C1108 0.931 . S
H1125 C1113 0.929 1_556 S
H1126 C1114 0.960 . S
H1127 C1114 0.962 . S
H1128 C1114 0.960 . S
H1129 C1115 0.961 1_655 S
H1130 C1115 0.961 . S
H1131 C1115 0.961 . S
H1132 C1116 0.931 . S
H1133 C1121 0.930 . S
H1134 C1122 0.956 . S
H1135 C1122 0.961 . S
H1136 C1122 0.961 . S
H1137 C1123 0.958 1_554 S
H1138 C1123 0.961 . S
H1139 C1123 0.960 . S
C1140 C1141 1.391 . S
C1140 C1142 1.394 . S
C1140 H1156 0.931 . S
C1141 C1140 1.391 . S
C1141 C1145 1.376 . S
C1142 C1140 1.394 . S
C1142 C1143 1.369 . S
C1142 C1146 1.531 . S
C1143 C1142 1.369 . S
C1143 C1144 1.410 . S
C1143 C1151 1.503 . S
C1144 C1143 1.410 . S
C1144 C1145 1.392 . S
C1144 C1147 1.511 . S
C1145 C1141 1.376 . S
C1145 C1144 1.392 . S
C1145 H1157 0.929 . S
C1146 C1142 1.531 . S
C1146 H1158 0.960 . S
C1146 H1159 0.962 . S
C1146 H1160 0.960 . S
C1147 C1144 1.511 . S
C1147 H1161 0.961 . S
C1147 H1162 0.961 . S
C1147 H1163 0.961 1_554 S
C1148 C1149 1.370 . S
C1148 C1150 1.363 . S
C1148 H1164 0.931 . S
C1149 C1148 1.370 . S
C1149 C1153 1.408 . S
C1150 C1148 1.363 . S
C1150 C1151 1.370 . S
C1150 C1154 1.524 . S
C1151 C1143 1.503 . S
C1151 C1150 1.370 . S
C1151 C1152 1.403 . S
C1152 C1151 1.403 . S
C1152 C1153 1.404 . S
C1152 C1155 1.539 1_554 S
C1153 C1149 1.408 . S
C1153 C1152 1.404 . S
C1153 H1165 0.930 . S
C1154 C1150 1.524 . S
C1154 H1166 0.956 . S
C1154 H1167 0.961 . S
C1154 H1168 0.961 . S
C1155 C1152 1.539 1_556 S
C1155 H1169 0.958 . S
C1155 H1170 0.961 . S
C1155 H1171 0.960 . S
H1156 C1140 0.931 . S
H1157 C1145 0.929 . S
H1158 C1146 0.960 . S
H1159 C1146 0.962 . S
H1160 C1146 0.960 . S
H1161 C1147 0.961 . S
H1162 C1147 0.961 . S
H1163 C1147 0.961 1_556 S
H1164 C1148 0.931 . S
H1165 C1153 0.930 . S
H1166 C1154 0.956 . S
H1167 C1154 0.961 . S
H1168 C1154 0.961 . S
H1169 C1155 0.958 . S
H1170 C1155 0.961 . S
H1171 C1155 0.960 . S
C1172 C1173 1.391 . S
C1172 C1174 1.394 . S
C1172 H1188 0.931 . S
C1173 C1172 1.391 . S
C1173 C1177 1.376 . S
C1174 C1172 1.394 . S
C1174 C1175 1.370 . S
C1174 C1178 1.529 1_554 S
C1175 C1174 1.370 . S
C1175 C1176 1.410 . S
C1175 C1183 1.503 . S
C1176 C1175 1.410 . S
C1176 C1177 1.392 . S
C1176 C1179 1.511 . S
C1177 C1173 1.376 . S
C1177 C1176 1.392 . S
C1177 H1189 0.929 . S
C1178 C1174 1.529 1_556 S
C1178 H1190 0.960 . S
C1178 H1191 0.962 . S
C1178 H1192 0.960 . S
C1179 C1176 1.511 . S
C1179 H1193 0.961 . S
C1179 H1194 0.961 . S
C1179 H1195 0.961 . S
C1180 C1181 1.370 1_554 S
C1180 C1182 1.363 . S
C1180 H1196 0.931 . S
C1181 C1180 1.370 1_556 S
C1181 C1185 1.408 . S
C1182 C1180 1.363 . S
C1182 C1183 1.370 . S
C1182 C1186 1.524 . S
C1183 C1175 1.503 . S
C1183 C1182 1.370 . S
C1183 C1184 1.403 1_554 S
C1184 C1183 1.403 1_556 S
C1184 C1185 1.404 . S
C1184 C1187 1.539 . S
C1185 C1181 1.408 . S
C1185 C1184 1.404 . S
C1185 H1197 0.930 . S
C1186 C1182 1.524 . S
C1186 H1198 0.956 . S
C1186 H1199 0.961 . S
C1186 H1200 0.961 . S
C1187 C1184 1.539 . S
C1187 H1201 0.958 . S
C1187 H1202 0.961 . S
C1187 H1203 0.960 . S
H1188 C1172 0.931 . S
H1189 C1177 0.929 . S
H1190 C1178 0.960 . S
H1191 C1178 0.962 . S
H1192 C1178 0.960 . S
H1193 C1179 0.961 . S
H1194 C1179 0.961 . S
H1195 C1179 0.961 . S
H1196 C1180 0.931 . S
H1197 C1185 0.930 . S
H1198 C1186 0.956 . S
H1199 C1186 0.961 . S
H1200 C1186 0.961 . S
H1201 C1187 0.958 . S
H1202 C1187 0.961 . S
H1203 C1187 0.960 . S
C1204 C1205 1.391 1_556 S
C1204 C1206 1.394 . S
C1204 H1220 0.931 . S
C1205 C1204 1.391 1_554 S
C1205 C1209 1.376 . S
C1206 C1204 1.394 . S
C1206 C1207 1.369 1_556 S
C1206 C1210 1.531 . S
C1207 C1206 1.369 1_554 S
C1207 C1208 1.410 . S
C1207 C1215 1.503 1_554 S
C1208 C1207 1.410 . S
C1208 C1209 1.392 . S
C1208 C1211 1.511 . S
C1209 C1205 1.376 . S
C1209 C1208 1.392 . S
C1209 H1221 0.929 . S
C1210 C1206 1.531 . S
C1210 H1222 0.960 . S
C1210 H1223 0.962 . S
C1210 H1224 0.960 . S
C1211 C1208 1.511 . S
C1211 H1225 0.961 . S
C1211 H1226 0.961 . S
C1211 H1227 0.961 . S
C1212 C1213 1.370 1_554 S
C1212 C1214 1.363 . S
C1212 H1228 0.931 . S
C1213 C1212 1.370 1_556 S
C1213 C1217 1.408 . S
C1214 C1212 1.363 . S
C1214 C1215 1.370 1_554 S
C1214 C1218 1.524 . S
C1215 C1207 1.503 1_556 S
C1215 C1214 1.370 1_556 S
C1215 C1216 1.403 . S
C1216 C1215 1.403 . S
C1216 C1217 1.404 . S
C1216 C1219 1.539 . S
C1217 C1213 1.408 . S
C1217 C1216 1.404 . S
C1217 H1229 0.930 . S
C1218 C1214 1.524 . S
C1218 H1230 0.956 . S
C1218 H1231 0.961 . S
C1218 H1232 0.961 . S
C1219 C1216 1.539 . S
C1219 H1233 0.958 . S
C1219 H1234 0.961 . S
C1219 H1235 0.960 . S
H1220 C1204 0.931 . S
H1221 C1209 0.929 . S
H1222 C1210 0.960 . S
H1223 C1210 0.962 . S
H1224 C1210 0.960 . S
H1225 C1211 0.961 . S
H1226 C1211 0.961 . S
H1227 C1211 0.961 . S
H1228 C1212 0.931 . S
H1229 C1217 0.930 . S
H1230 C1218 0.956 . S
H1231 C1218 0.961 . S
H1232 C1218 0.961 . S
H1233 C1219 0.958 . S
H1234 C1219 0.961 . S
H1235 C1219 0.960 . S
C1236 C1237 1.391 . S
C1236 C1238 1.394 . S
C1236 H1252 0.931 1_556 S
C1237 C1236 1.391 . S
C1237 C1241 1.376 . S
C1238 C1236 1.394 . S
C1238 C1239 1.369 . S
C1238 C1242 1.531 . S
C1239 C1238 1.369 . S
C1239 C1240 1.410 . S
C1239 C1247 1.503 . S
C1240 C1239 1.410 . S
C1240 C1241 1.392 . S
C1240 C1243 1.511 . S
C1241 C1237 1.376 . S
C1241 C1240 1.392 . S
C1241 H1253 0.929 . S
C1242 C1238 1.531 . S
C1242 H1254 0.960 . S
C1242 H1255 0.962 1_556 S
C1242 H1256 0.960 . S
C1243 C1240 1.511 . S
C1243 H1257 0.961 . S
C1243 H1258 0.961 . S
C1243 H1259 0.961 . S
C1244 C1245 1.370 . S
C1244 C1246 1.363 . S
C1244 H1260 0.931 . S
C1245 C1244 1.370 . S
C1245 C1249 1.408 . S
C1246 C1244 1.363 . S
C1246 C1247 1.370 . S
C1246 C1250 1.524 . S
C1247 C1239 1.503 . S
C1247 C1246 1.370 . S
C1247 C1248 1.403 . S
C1248 C1247 1.403 . S
C1248 C1249 1.404 . S
C1248 C1251 1.539 . S
C1249 C1245 1.408 . S
C1249 C1248 1.404 . S
C1249 H1261 0.930 . S
C1250 C1246 1.524 . S
C1250 H1262 0.956 1_556 S
C1250 H1263 0.961 . S
C1250 H1264 0.961 1_556 S
C1251 C1248 1.539 . S
C1251 H1265 0.958 . S
C1251 H1266 0.961 . S
C1251 H1267 0.960 . S
H1252 C1236 0.931 1_554 S
H1253 C1241 0.929 . S
H1254 C1242 0.960 . S
H1255 C1242 0.962 1_554 S
H1256 C1242 0.960 . S
H1257 C1243 0.961 . S
H1258 C1243 0.961 . S
H1259 C1243 0.961 . S
H1260 C1244 0.931 . S
H1261 C1249 0.930 . S
H1262 C1250 0.956 1_554 S
H1263 C1250 0.961 . S
H1264 C1250 0.961 1_554 S
H1265 C1251 0.958 . S
H1266 C1251 0.961 . S
H1267 C1251 0.960 . S
C1268 C1269 1.391 . S
C1268 C1270 1.394 . S
C1268 H1284 0.931 . S
C1269 C1268 1.391 . S
C1269 C1273 1.376 . S
C1270 C1268 1.394 . S
C1270 C1271 1.369 . S
C1270 C1274 1.531 . S
C1271 C1270 1.369 . S
C1271 C1272 1.410 . S
C1271 C1279 1.503 . S
C1272 C1271 1.410 . S
C1272 C1273 1.392 . S
C1272 C1275 1.511 . S
C1273 C1269 1.376 . S
C1273 C1272 1.392 . S
C1273 H1285 0.929 . S
C1274 C1270 1.531 . S
C1274 H1286 0.960 . S
C1274 H1287 0.962 . S
C1274 H1288 0.960 . S
C1275 C1272 1.511 . S
C1275 H1289 0.961 . S
C1275 H1290 0.961 . S
C1275 H1291 0.961 . S
C1276 C1277 1.370 . S
C1276 C1278 1.363 . S
C1276 H1292 0.931 . S
C1277 C1276 1.370 . S
C1277 C1281 1.408 . S
C1278 C1276 1.363 . S
C1278 C1279 1.370 . S
C1278 C1282 1.524 . S
C1279 C1271 1.503 . S
C1279 C1278 1.370 . S
C1279 C1280 1.403 . S
C1280 C1279 1.403 . S
C1280 C1281 1.404 . S
C1280 C1283 1.539 . S
C1281 C1277 1.408 . S
C1281 C1280 1.404 . S
C1281 H1293 0.930 . S
C1282 C1278 1.524 . S
C1282 H1294 0.956 . S
C1282 H1295 0.961 . S
C1282 H1296 0.961 . S
C1283 C1280 1.539 . S
C1283 H1297 0.958 . S
C1283 H1298 0.961 . S
C1283 H1299 0.960 . S
H1284 C1268 0.931 . S
H1285 C1273 0.929 . S
H1286 C1274 0.960 . S
H1287 C1274 0.962 . S
H1288 C1274 0.960 . S
H1289 C1275 0.961 . S
H1290 C1275 0.961 . S
H1291 C1275 0.961 . S
H1292 C1276 0.931 . S
H1293 C1281 0.930 . S
H1294 C1282 0.956 . S
H1295 C1282 0.961 . S
H1296 C1282 0.961 . S
H1297 C1283 0.958 . S
H1298 C1283 0.961 . S
H1299 C1283 0.960 . S
C1300 C1301 1.391 . S
C1300 C1302 1.394 . S
C1300 H1316 0.931 . S
C1301 C1300 1.391 . S
C1301 C1305 1.376 . S
C1302 C1300 1.394 . S
C1302 C1303 1.369 . S
C1302 C1306 1.531 . S
C1303 C1302 1.369 . S
C1303 C1304 1.410 . S
C1303 C1311 1.503 . S
C1304 C1303 1.410 . S
C1304 C1305 1.392 . S
C1304 C1307 1.511 . S
C1305 C1301 1.376 . S
C1305 C1304 1.392 . S
C1305 H1317 0.929 . S
C1306 C1302 1.531 . S
C1306 H1318 0.960 1_556 S
C1306 H1319 0.962 . S
C1306 H1320 0.960 1_556 S
C1307 C1304 1.511 . S
C1307 H1321 0.961 . S
C1307 H1322 0.961 . S
C1307 H1323 0.961 . S
C1308 C1309 1.370 . S
C1308 C1310 1.363 . S
C1308 H1324 0.931 . S
C1309 C1308 1.370 . S
C1309 C1313 1.408 . S
C1310 C1308 1.363 . S
C1310 C1311 1.370 . S
C1310 C1314 1.524 . S
C1311 C1303 1.503 . S
C1311 C1310 1.370 . S
C1311 C1312 1.403 . S
C1312 C1311 1.403 . S
C1312 C1313 1.404 . S
C1312 C1315 1.539 . S
C1313 C1309 1.408 . S
C1313 C1312 1.404 . S
C1313 H1325 0.930 . S
C1314 C1310 1.524 . S
C1314 H1326 0.956 . S
C1314 H1327 0.961 . S
C1314 H1328 0.961 . S
C1315 C1312 1.539 . S
C1315 H1329 0.958 1_556 S
C1315 H1330 0.961 1_556 S
C1315 H1331 0.960 . S
H1316 C1300 0.931 . S
H1317 C1305 0.929 . S
H1318 C1306 0.960 1_554 S
H1319 C1306 0.962 . S
H1320 C1306 0.960 1_554 S
H1321 C1307 0.961 . S
H1322 C1307 0.961 . S
H1323 C1307 0.961 . S
H1324 C1308 0.931 . S
H1325 C1313 0.930 . S
H1326 C1314 0.956 . S
H1327 C1314 0.961 . S
H1328 C1314 0.961 . S
H1329 C1315 0.958 1_554 S
H1330 C1315 0.961 1_554 S
H1331 C1315 0.960 . S
C1332 C1333 1.391 . S
C1332 C1334 1.394 . S
C1332 H1348 0.931 . S
C1333 C1332 1.391 . S
C1333 C1337 1.376 . S
C1334 C1332 1.394 . S
C1334 C1335 1.369 . S
C1334 C1338 1.531 . S
C1335 C1334 1.369 . S
C1335 C1336 1.410 . S
C1335 C1343 1.503 . S
C1336 C1335 1.410 . S
C1336 C1337 1.392 . S
C1336 C1339 1.511 . S
C1337 C1333 1.376 . S
C1337 C1336 1.392 . S
C1337 H1349 0.929 . S
C1338 C1334 1.531 . S
C1338 H1350 0.960 . S
C1338 H1351 0.962 . S
C1338 H1352 0.960 . S
C1339 C1336 1.511 . S
C1339 H1353 0.961 . S
C1339 H1354 0.961 . S
C1339 H1355 0.961 1_455 S
C1340 C1341 1.370 . S
C1340 C1342 1.363 . S
C1340 H1356 0.931 . S
C1341 C1340 1.370 . S
C1341 C1345 1.408 . S
C1342 C1340 1.363 . S
C1342 C1343 1.370 . S
C1342 C1346 1.524 . S
C1343 C1335 1.503 . S
C1343 C1342 1.370 . S
C1343 C1344 1.403 . S
C1344 C1343 1.403 . S
C1344 C1345 1.404 . S
C1344 C1347 1.539 1_455 S
C1345 C1341 1.408 . S
C1345 C1344 1.404 . S
C1345 H1357 0.930 . S
C1346 C1342 1.524 . S
C1346 H1358 0.956 . S
C1346 H1359 0.961 . S
C1346 H1360 0.961 . S
C1347 C1344 1.539 1_655 S
C1347 H1361 0.958 . S
C1347 H1362 0.961 . S
C1347 H1363 0.960 . S
H1348 C1332 0.931 . S
H1349 C1337 0.929 . S
H1350 C1338 0.960 . S
H1351 C1338 0.962 . S
H1352 C1338 0.960 . S
H1353 C1339 0.961 . S
H1354 C1339 0.961 . S
H1355 C1339 0.961 1_655 S
H1356 C1340 0.931 . S
H1357 C1345 0.930 . S
H1358 C1346 0.956 . S
H1359 C1346 0.961 . S
H1360 C1346 0.961 . S
H1361 C1347 0.958 . S
H1362 C1347 0.961 . S
H1363 C1347 0.960 . S
C1364 C1365 1.391 . S
C1364 C1366 1.394 . S
C1364 H1380 0.931 . S
C1365 C1364 1.391 . S
C1365 C1369 1.376 . S
C1366 C1364 1.394 . S
C1366 C1367 1.369 . S
C1366 C1370 1.531 . S
C1367 C1366 1.369 . S
C1367 C1368 1.410 . S
C1367 C1375 1.503 . S
C1368 C1367 1.410 . S
C1368 C1369 1.392 . S
C1368 C1371 1.511 . S
C1369 C1365 1.376 . S
C1369 C1368 1.392 . S
C1369 H1381 0.929 . S
C1370 C1366 1.531 . S
C1370 H1382 0.960 . S
C1370 H1383 0.962 . S
C1370 H1384 0.960 . S
C1371 C1368 1.511 . S
C1371 H1385 0.961 . S
C1371 H1386 0.961 . S
C1371 H1387 0.961 . S
C1372 C1373 1.370 . S
C1372 C1374 1.363 . S
C1372 H1388 0.931 . S
C1373 C1372 1.370 . S
C1373 C1377 1.408 . S
C1374 C1372 1.363 . S
C1374 C1375 1.370 . S
C1374 C1378 1.524 . S
C1375 C1367 1.503 . S
C1375 C1374 1.370 . S
C1375 C1376 1.403 . S
C1376 C1375 1.403 . S
C1376 C1377 1.404 . S
C1376 C1379 1.539 . S
C1377 C1373 1.408 . S
C1377 C1376 1.404 . S
C1377 H1389 0.930 . S
C1378 C1374 1.524 . S
C1378 H1390 0.956 . S
C1378 H1391 0.961 . S
C1378 H1392 0.961 . S
C1379 C1376 1.539 . S
C1379 H1393 0.958 . S
C1379 H1394 0.961 . S
C1379 H1395 0.960 . S
H1380 C1364 0.931 . S
H1381 C1369 0.929 . S
H1382 C1370 0.960 . S
H1383 C1370 0.962 . S
H1384 C1370 0.960 . S
H1385 C1371 0.961 . S
H1386 C1371 0.961 . S
H1387 C1371 0.961 . S
H1388 C1372 0.931 . S
H1389 C1377 0.930 . S
H1390 C1378 0.956 . S
H1391 C1378 0.961 . S
H1392 C1378 0.961 . S
H1393 C1379 0.958 . S
H1394 C1379 0.961 . S
H1395 C1379 0.960 . S
C1396 C1397 1.391 . S
C1396 C1398 1.394 . S
C1396 H1412 0.931 . S
C1397 C1396 1.391 . S
C1397 C1401 1.376 1_565 S
C1398 C1396 1.394 . S
C1398 C1399 1.369 1_565 S
C1398 C1402 1.531 . S
C1399 C1398 1.369 1_545 S
C1399 C1400 1.410 . S
C1399 C1407 1.503 . S
C1400 C1399 1.410 . S
C1400 C1401 1.392 . S
C1400 C1403 1.511 . S
C1401 C1397 1.376 1_545 S
C1401 C1400 1.392 . S
C1401 H1413 0.929 . S
C1402 C1398 1.531 . S
C1402 H1414 0.960 . S
C1402 H1415 0.962 1_565 S
C1402 H1416 0.960 . S
C1403 C1400 1.511 . S
C1403 H1417 0.961 . S
C1403 H1418 0.961 . S
C1403 H1419 0.961 1_545 S
C1404 C1405 1.370 . S
C1404 C1406 1.363 . S
C1404 H1420 0.931 . S
C1405 C1404 1.370 . S
C1405 C1409 1.408 1_545 S
C1406 C1404 1.363 . S
C1406 C1407 1.370 . S
C1406 C1410 1.524 . S
C1407 C1399 1.503 . S
C1407 C1406 1.370 . S
C1407 C1408 1.403 1_545 S
C1408 C1407 1.403 1_565 S
C1408 C1409 1.404 . S
C1408 C1411 1.539 . S
C1409 C1405 1.408 1_565 S
C1409 C1408 1.404 . S
C1409 H1421 0.930 . S
C1410 C1406 1.524 . S
C1410 H1422 0.956 . S
C1410 H1423 0.961 . S
C1410 H1424 0.961 . S
C1411 C1408 1.539 . S
C1411 H1425 0.958 . S
C1411 H1426 0.961 . S
C1411 H1427 0.960 . S
H1412 C1396 0.931 . S
H1413 C1401 0.929 . S
H1414 C1402 0.960 . S
H1415 C1402 0.962 1_545 S
H1416 C1402 0.960 . S
H1417 C1403 0.961 . S
H1418 C1403 0.961 . S
H1419 C1403 0.961 1_565 S
H1420 C1404 0.931 . S
H1421 C1409 0.930 . S
H1422 C1410 0.956 . S
H1423 C1410 0.961 . S
H1424 C1410 0.961 . S
H1425 C1411 0.958 . S
H1426 C1411 0.961 . S
H1427 C1411 0.960 . S
C1428 C1429 1.391 . S
C1428 C1430 1.394 . S
C1428 H1444 0.931 . S
C1429 C1428 1.391 . S
C1429 C1433 1.376 . S
C1430 C1428 1.394 . S
C1430 C1431 1.369 . S
C1430 C1434 1.531 . S
C1431 C1430 1.369 . S
C1431 C1432 1.410 . S
C1431 C1439 1.503 . S
C1432 C1431 1.410 . S
C1432 C1433 1.392 . S
C1432 C1435 1.511 . S
C1433 C1429 1.376 . S
C1433 C1432 1.392 . S
C1433 H1445 0.929 . S
C1434 C1430 1.531 . S
C1434 H1446 0.960 . S
C1434 H1447 0.962 . S
C1434 H1448 0.960 . S
C1435 C1432 1.511 . S
C1435 H1449 0.961 . S
C1435 H1450 0.961 . S
C1435 H1451 0.961 . S
C1436 C1437 1.370 . S
C1436 C1438 1.363 . S
C1436 H1452 0.931 . S
C1437 C1436 1.370 . S
C1437 C1441 1.408 . S
C1438 C1436 1.363 . S
C1438 C1439 1.370 . S
C1438 C1442 1.524 . S
C1439 C1431 1.503 . S
C1439 C1438 1.370 . S
C1439 C1440 1.403 . S
C1440 C1439 1.403 . S
C1440 C1441 1.404 . S
C1440 C1443 1.539 . S
C1441 C1437 1.408 . S
C1441 C1440 1.404 . S
C1441 H1453 0.930 . S
C1442 C1438 1.524 . S
C1442 H1454 0.956 . S
C1442 H1455 0.961 . S
C1442 H1456 0.961 . S
C1443 C1440 1.539 . S
C1443 H1457 0.958 . S
C1443 H1458 0.961 . S
C1443 H1459 0.960 . S
H1444 C1428 0.931 . S
H1445 C1433 0.929 . S
H1446 C1434 0.960 . S
H1447 C1434 0.962 . S
H1448 C1434 0.960 . S
H1449 C1435 0.961 . S
H1450 C1435 0.961 . S
H1451 C1435 0.961 . S
H1452 C1436 0.931 . S
H1453 C1441 0.930 . S
H1454 C1442 0.956 . S
H1455 C1442 0.961 . S
H1456 C1442 0.961 . S
H1457 C1443 0.958 . S
H1458 C1443 0.961 . S
H1459 C1443 0.960 . S
C1460 C1461 1.391 . S
C1460 C1462 1.394 . S
C1460 H1476 0.931 . S
C1461 C1460 1.391 . S
C1461 C1465 1.376 . S
C1462 C1460 1.394 . S
C1462 C1463 1.369 . S
C1462 C1466 1.531 . S
C1463 C1462 1.369 . S
C1463 C1464 1.410 . S
C1463 C1471 1.503 . S
C1464 C1463 1.410 . S
C1464 C1465 1.392 . S
C1464 C1467 1.511 . S
C1465 C1461 1.376 . S
C1465 C1464 1.392 . S
C1465 H1477 0.929 . S
C1466 C1462 1.531 . S
C1466 H1478 0.960 . S
C1466 H1479 0.962 . S
C1466 H1480 0.960 . S
C1467 C1464 1.511 . S
C1467 H1481 0.961 . S
C1467 H1482 0.961 . S
C1467 H1483 0.961 . S
C1468 C1469 1.370 . S
C1468 C1470 1.363 . S
C1468 H1484 0.931 . S
C1469 C1468 1.370 . S
C1469 C1473 1.408 . S
C1470 C1468 1.363 . S
C1470 C1471 1.370 . S
C1470 C1474 1.524 . S
C1471 C1463 1.503 . S
C1471 C1470 1.370 . S
C1471 C1472 1.403 . S
C1472 C1471 1.403 . S
C1472 C1473 1.404 . S
C1472 C1475 1.539 . S
C1473 C1469 1.408 . S
C1473 C1472 1.404 . S
C1473 H1485 0.930 . S
C1474 C1470 1.524 . S
C1474 H1486 0.956 . S
C1474 H1487 0.961 . S
C1474 H1488 0.961 . S
C1475 C1472 1.539 . S
C1475 H1489 0.958 . S
C1475 H1490 0.961 . S
C1475 H1491 0.960 . S
H1476 C1460 0.931 . S
H1477 C1465 0.929 . S
H1478 C1466 0.960 . S
H1479 C1466 0.962 . S
H1480 C1466 0.960 . S
H1481 C1467 0.961 . S
H1482 C1467 0.961 . S
H1483 C1467 0.961 . S
H1484 C1468 0.931 . S
H1485 C1473 0.930 . S
H1486 C1474 0.956 . S
H1487 C1474 0.961 . S
H1488 C1474 0.961 . S
H1489 C1475 0.958 . S
H1490 C1475 0.961 . S
H1491 C1475 0.960 . S
C1492 C1493 1.391 . S
C1492 C1494 1.394 . S
C1492 H1508 0.931 . S
C1493 C1492 1.391 . S
C1493 C1497 1.376 . S
C1494 C1492 1.394 . S
C1494 C1495 1.369 . S
C1494 C1498 1.531 . S
C1495 C1494 1.369 . S
C1495 C1496 1.410 . S
C1495 C1503 1.503 . S
C1496 C1495 1.410 . S
C1496 C1497 1.392 . S
C1496 C1499 1.511 . S
C1497 C1493 1.376 . S
C1497 C1496 1.392 . S
C1497 H1509 0.929 . S
C1498 C1494 1.531 . S
C1498 H1510 0.960 . S
C1498 H1511 0.962 . S
C1498 H1512 0.960 . S
C1499 C1496 1.511 . S
C1499 H1513 0.961 . S
C1499 H1514 0.961 . S
C1499 H1515 0.961 . S
C1500 C1501 1.370 . S
C1500 C1502 1.363 . S
C1500 H1516 0.931 . S
C1501 C1500 1.370 . S
C1501 C1505 1.408 . S
C1502 C1500 1.363 . S
C1502 C1503 1.370 . S
C1502 C1506 1.524 . S
C1503 C1495 1.503 . S
C1503 C1502 1.370 . S
C1503 C1504 1.403 . S
C1504 C1503 1.403 . S
C1504 C1505 1.404 . S
C1504 C1507 1.539 . S
C1505 C1501 1.408 . S
C1505 C1504 1.404 . S
C1505 H1517 0.930 . S
C1506 C1502 1.524 . S
C1506 H1518 0.956 . S
C1506 H1519 0.961 . S
C1506 H1520 0.961 . S
C1507 C1504 1.539 . S
C1507 H1521 0.958 . S
C1507 H1522 0.961 . S
C1507 H1523 0.960 . S
H1508 C1492 0.931 . S
H1509 C1497 0.929 . S
H1510 C1498 0.960 . S
H1511 C1498 0.962 . S
H1512 C1498 0.960 . S
H1513 C1499 0.961 . S
H1514 C1499 0.961 . S
H1515 C1499 0.961 . S
H1516 C1500 0.931 . S
H1517 C1505 0.930 . S
H1518 C1506 0.956 . S
H1519 C1506 0.961 . S
H1520 C1506 0.961 . S
H1521 C1507 0.958 . S
H1522 C1507 0.961 . S
H1523 C1507 0.960 . S
C1524 C1525 1.391 . S
C1524 C1526 1.394 . S
C1524 H1540 0.931 . S
C1525 C1524 1.391 . S
C1525 C1529 1.376 . S
C1526 C1524 1.394 . S
C1526 C1527 1.369 . S
C1526 C1530 1.531 . S
C1527 C1526 1.369 . S
C1527 C1528 1.410 . S
C1527 C1535 1.503 . S
C1528 C1527 1.410 . S
C1528 C1529 1.392 . S
C1528 C1531 1.511 . S
C1529 C1525 1.376 . S
C1529 C1528 1.392 . S
C1529 H1541 0.929 . S
C1530 C1526 1.531 . S
C1530 H1542 0.960 . S
C1530 H1543 0.962 . S
C1530 H1544 0.960 . S
C1531 C1528 1.511 . S
C1531 H1545 0.961 . S
C1531 H1546 0.961 . S
C1531 H1547 0.961 . S
C1532 C1533 1.370 . S
C1532 C1534 1.363 . S
C1532 H1548 0.931 . S
C1533 C1532 1.370 . S
C1533 C1537 1.408 . S
C1534 C1532 1.363 . S
C1534 C1535 1.370 . S
C1534 C1538 1.524 . S
C1535 C1527 1.503 . S
C1535 C1534 1.370 . S
C1535 C1536 1.403 . S
C1536 C1535 1.403 . S
C1536 C1537 1.404 . S
C1536 C1539 1.539 . S
C1537 C1533 1.408 . S
C1537 C1536 1.404 . S
C1537 H1549 0.930 . S
C1538 C1534 1.524 . S
C1538 H1550 0.956 . S
C1538 H1551 0.961 . S
C1538 H1552 0.961 . S
C1539 C1536 1.539 . S
C1539 H1553 0.958 . S
C1539 H1554 0.961 . S
C1539 H1555 0.960 . S
H1540 C1524 0.931 . S
H1541 C1529 0.929 . S
H1542 C1530 0.960 . S
H1543 C1530 0.962 . S
H1544 C1530 0.960 . S
H1545 C1531 0.961 . S
H1546 C1531 0.961 . S
H1547 C1531 0.961 . S
H1548 C1532 0.931 . S
H1549 C1537 0.930 . S
H1550 C1538 0.956 . S
H1551 C1538 0.961 . S
H1552 C1538 0.961 . S
H1553 C1539 0.958 . S
H1554 C1539 0.961 . S
H1555 C1539 0.960 . S
C1556 C1557 1.391 . S
C1556 C1558 1.394 . S
C1556 H1572 0.931 . S
C1557 C1556 1.391 . S
C1557 C1561 1.376 . S
C1558 C1556 1.394 . S
C1558 C1559 1.369 . S
C1558 C1562 1.531 . S
C1559 C1558 1.369 . S
C1559 C1560 1.410 . S
C1559 C1567 1.503 . S
C1560 C1559 1.410 . S
C1560 C1561 1.392 . S
C1560 C1563 1.511 . S
C1561 C1557 1.376 . S
C1561 C1560 1.392 . S
C1561 H1573 0.929 . S
C1562 C1558 1.531 . S
C1562 H1574 0.960 . S
C1562 H1575 0.962 . S
C1562 H1576 0.960 . S
C1563 C1560 1.511 . S
C1563 H1577 0.961 . S
C1563 H1578 0.961 . S
C1563 H1579 0.961 . S
C1564 C1565 1.370 . S
C1564 C1566 1.363 . S
C1564 H1580 0.931 . S
C1565 C1564 1.370 . S
C1565 C1569 1.408 . S
C1566 C1564 1.363 . S
C1566 C1567 1.370 . S
C1566 C1570 1.524 . S
C1567 C1559 1.503 . S
C1567 C1566 1.370 . S
C1567 C1568 1.403 . S
C1568 C1567 1.403 . S
C1568 C1569 1.404 . S
C1568 C1571 1.539 . S
C1569 C1565 1.408 . S
C1569 C1568 1.404 . S
C1569 H1581 0.930 . S
C1570 C1566 1.524 . S
C1570 H1582 0.956 . S
C1570 H1583 0.961 . S
C1570 H1584 0.961 . S
C1571 C1568 1.539 . S
C1571 H1585 0.958 . S
C1571 H1586 0.961 . S
C1571 H1587 0.960 . S
H1572 C1556 0.931 . S
H1573 C1561 0.929 . S
H1574 C1562 0.960 . S
H1575 C1562 0.962 . S
H1576 C1562 0.960 . S
H1577 C1563 0.961 . S
H1578 C1563 0.961 . S
H1579 C1563 0.961 . S
H1580 C1564 0.931 . S
H1581 C1569 0.930 . S
H1582 C1570 0.956 . S
H1583 C1570 0.961 . S
H1584 C1570 0.961 . S
H1585 C1571 0.958 . S
H1586 C1571 0.961 . S
H1587 C1571 0.960 . S
C1588 C1589 1.391 . S
C1588 C1590 1.394 . S
C1588 H1604 0.931 . S
C1589 C1588 1.391 . S
C1589 C1593 1.376 . S
C1590 C1588 1.394 . S
C1590 C1591 1.369 . S
C1590 C1594 1.531 . S
C1591 C1590 1.369 . S
C1591 C1592 1.410 . S
C1591 C1599 1.503 . S
C1592 C1591 1.410 . S
C1592 C1593 1.392 . S
C1592 C1595 1.511 . S
C1593 C1589 1.376 . S
C1593 C1592 1.392 . S
C1593 H1605 0.929 . S
C1594 C1590 1.531 . S
C1594 H1606 0.960 . S
C1594 H1607 0.962 . S
C1594 H1608 0.960 . S
C1595 C1592 1.511 . S
C1595 H1609 0.961 . S
C1595 H1610 0.961 . S
C1595 H1611 0.961 . S
C1596 C1597 1.370 . S
C1596 C1598 1.363 . S
C1596 H1612 0.931 . S
C1597 C1596 1.370 . S
C1597 C1601 1.408 . S
C1598 C1596 1.363 . S
C1598 C1599 1.370 . S
C1598 C1602 1.524 . S
C1599 C1591 1.503 . S
C1599 C1598 1.370 . S
C1599 C1600 1.403 . S
C1600 C1599 1.403 . S
C1600 C1601 1.404 . S
C1600 C1603 1.539 . S
C1601 C1597 1.408 . S
C1601 C1600 1.404 . S
C1601 H1613 0.930 . S
C1602 C1598 1.524 . S
C1602 H1614 0.956 . S
C1602 H1615 0.961 . S
C1602 H1616 0.961 . S
C1603 C1600 1.539 . S
C1603 H1617 0.958 . S
C1603 H1618 0.961 . S
C1603 H1619 0.960 . S
H1604 C1588 0.931 . S
H1605 C1593 0.929 . S
H1606 C1594 0.960 . S
H1607 C1594 0.962 . S
H1608 C1594 0.960 . S
H1609 C1595 0.961 . S
H1610 C1595 0.961 . S
H1611 C1595 0.961 . S
H1612 C1596 0.931 . S
H1613 C1601 0.930 . S
H1614 C1602 0.956 . S
H1615 C1602 0.961 . S
H1616 C1602 0.961 . S
H1617 C1603 0.958 . S
H1618 C1603 0.961 . S
H1619 C1603 0.960 . S
C757 C69 1.047 . S
C765 C657 1.143 . S
C789 C140 2.225 . S
C797 C728 2.225 . S
C821 C237 1.240 . S
C829 C560 1.495 . S
C853 C392 2.343 . S
C861 C224 2.380 . S
C885 C476 2.244 . S
C893 C56 2.228 1_655 S
C917 C153 1.940 . S
C925 C308 2.157 . S
C949 C644 1.586 . S
C957 C489 1.427 . S
C981 C741 1.183 . S
C989 C321 1.266 . S
C1013 C405 1.561 . S
C1021 C573 1.603 . S
C1045 C226 1.369 . S
C1053 C67 1.753 . S
C1077 C142 1.134 . S
C1085 C58 1.264 . S
C1109 C151 2.954 . S
C1117 C235 2.987 1_554 S
C1141 C310 1.668 . S
C1149 C487 2.055 . S
C1173 C319 2.024 . S
C1181 C394 1.667 . S
C1205 C403 1.981 . S
C1213 C478 1.531 . S
C1237 C730 1.697 . S
C1245 C571 2.290 . S
C1269 C646 0.912 . S
C1277 C562 0.793 . S
C1301 C739 2.027 . S
C1309 C655 2.036 . S
C1333 C74 1.442 . S
C1341 C63 1.468 . S
C1365 C147 1.497 . S
C1373 C158 1.484 . S
C1397 C242 1.545 1_565 S
C1405 C231 1.530 . S
C1429 C326 1.515 . S
C1437 C315 1.473 . S
C1461 C410 1.477 . S
C1469 C399 1.471 . S
C1493 C494 1.498 . S
C1501 C483 1.504 1_556 S
C1525 C578 1.466 . S
C1533 C567 1.468 1_554 S
C1557 C662 1.436 . S
C1565 C651 1.465 . S
C1589 C746 1.486 . S
C1597 C735 1.484 . S
