# Generated by pormake.
# Topology crs, (6)-cn, num edge types: 1
# Building blocks:
#     Node 0, Type 0, BuildingBlock: KUMBUR_clean_sbu_1, # of connection points: 6
#     Node 1, Type 0, BuildingBlock: KUMBUR_clean_sbu_1, # of connection points: 6
#     Node 2, Type 0, BuildingBlock: KUMBUR_clean_sbu_1, # of connection points: 6
#     Node 3, Type 0, BuildingBlock: KUMBUR_clean_sbu_1, # of connection points: 6
#     Node 4, Type 0, BuildingBlock: KUMBUR_clean_sbu_1, # of connection points: 6
#     Node 5, Type 0, BuildingBlock: KUMBUR_clean_sbu_1, # of connection points: 6
#     Node 6, Type 0, BuildingBlock: KUMBUR_clean_sbu_1, # of connection points: 6
#     Node 7, Type 0, BuildingBlock: KUMBUR_clean_sbu_1, # of connection points: 6
#     Node 8, Type 0, BuildingBlock: KUMBUR_clean_sbu_1, # of connection points: 6
#     Node 9, Type 0, BuildingBlock: KUMBUR_clean_sbu_1, # of connection points: 6
#     Node 10, Type 0, BuildingBlock: KUMBUR_clean_sbu_1, # of connection points: 6
#     Node 11, Type 0, BuildingBlock: KUMBUR_clean_sbu_1, # of connection points: 6
#     Node 12, Type 0, BuildingBlock: KUMBUR_clean_sbu_1, # of connection points: 6
#     Node 13, Type 0, BuildingBlock: KUMBUR_clean_sbu_1, # of connection points: 6
#     Node 14, Type 0, BuildingBlock: KUMBUR_clean_sbu_1, # of connection points: 6
#     Node 15, Type 0, BuildingBlock: KUMBUR_clean_sbu_1, # of connection points: 6
#     Edge 16, Type (0, 0), BuildingBlock: KIFKEQ_clean_linker_1, # of connection points: 2
#     Edge 17, Type (0, 0), BuildingBlock: KIFKEQ_clean_linker_1, # of connection points: 2
#     Edge 18, Type (0, 0), BuildingBlock: KIFKEQ_clean_linker_1, # of connection points: 2
#     Edge 19, Type (0, 0), BuildingBlock: KIFKEQ_clean_linker_1, # of connection points: 2
#     Edge 20, Type (0, 0), BuildingBlock: KIFKEQ_clean_linker_1, # of connection points: 2
#     Edge 21, Type (0, 0), BuildingBlock: KIFKEQ_clean_linker_1, # of connection points: 2
#     Edge 22, Type (0, 0), BuildingBlock: KIFKEQ_clean_linker_1, # of connection points: 2
#     Edge 23, Type (0, 0), BuildingBlock: KIFKEQ_clean_linker_1, # of connection points: 2
#     Edge 24, Type (0, 0), BuildingBlock: KIFKEQ_clean_linker_1, # of connection points: 2
#     Edge 25, Type (0, 0), BuildingBlock: KIFKEQ_clean_linker_1, # of connection points: 2
#     Edge 26, Type (0, 0), BuildingBlock: KIFKEQ_clean_linker_1, # of connection points: 2
#     Edge 27, Type (0, 0), BuildingBlock: KIFKEQ_clean_linker_1, # of connection points: 2
#     Edge 28, Type (0, 0), BuildingBlock: KIFKEQ_clean_linker_1, # of connection points: 2
#     Edge 29, Type (0, 0), BuildingBlock: KIFKEQ_clean_linker_1, # of connection points: 2
#     Edge 30, Type (0, 0), BuildingBlock: KIFKEQ_clean_linker_1, # of connection points: 2
#     Edge 31, Type (0, 0), BuildingBlock: KIFKEQ_clean_linker_1, # of connection points: 2
#     Edge 32, Type (0, 0), BuildingBlock: KIFKEQ_clean_linker_1, # of connection points: 2
#     Edge 33, Type (0, 0), BuildingBlock: KIFKEQ_clean_linker_1, # of connection points: 2
#     Edge 34, Type (0, 0), BuildingBlock: KIFKEQ_clean_linker_1, # of connection points: 2
#     Edge 35, Type (0, 0), BuildingBlock: KIFKEQ_clean_linker_1, # of connection points: 2
#     Edge 36, Type (0, 0), BuildingBlock: KIFKEQ_clean_linker_1, # of connection points: 2
#     Edge 37, Type (0, 0), BuildingBlock: KIFKEQ_clean_linker_1, # of connection points: 2
#     Edge 38, Type (0, 0), BuildingBlock: KIFKEQ_clean_linker_1, # of connection points: 2
#     Edge 39, Type (0, 0), BuildingBlock: KIFKEQ_clean_linker_1, # of connection points: 2
#     Edge 40, Type (0, 0), BuildingBlock: KIFKEQ_clean_linker_1, # of connection points: 2
#     Edge 41, Type (0, 0), BuildingBlock: KIFKEQ_clean_linker_1, # of connection points: 2
#     Edge 42, Type (0, 0), BuildingBlock: KIFKEQ_clean_linker_1, # of connection points: 2
#     Edge 43, Type (0, 0), BuildingBlock: KIFKEQ_clean_linker_1, # of connection points: 2
#     Edge 44, Type (0, 0), BuildingBlock: KIFKEQ_clean_linker_1, # of connection points: 2
#     Edge 45, Type (0, 0), BuildingBlock: KIFKEQ_clean_linker_1, # of connection points: 2
#     Edge 46, Type (0, 0), BuildingBlock: KIFKEQ_clean_linker_1, # of connection points: 2
#     Edge 47, Type (0, 0), BuildingBlock: KIFKEQ_clean_linker_1, # of connection points: 2
#     Edge 48, Type (0, 0), BuildingBlock: KIFKEQ_clean_linker_1, # of connection points: 2
#     Edge 49, Type (0, 0), BuildingBlock: KIFKEQ_clean_linker_1, # of connection points: 2
#     Edge 50, Type (0, 0), BuildingBlock: KIFKEQ_clean_linker_1, # of connection points: 2
#     Edge 51, Type (0, 0), BuildingBlock: KIFKEQ_clean_linker_1, # of connection points: 2
#     Edge 52, Type (0, 0), BuildingBlock: KIFKEQ_clean_linker_1, # of connection points: 2
#     Edge 53, Type (0, 0), BuildingBlock: KIFKEQ_clean_linker_1, # of connection points: 2
#     Edge 54, Type (0, 0), BuildingBlock: KIFKEQ_clean_linker_1, # of connection points: 2
#     Edge 55, Type (0, 0), BuildingBlock: KIFKEQ_clean_linker_1, # of connection points: 2
#     Edge 56, Type (0, 0), BuildingBlock: KIFKEQ_clean_linker_1, # of connection points: 2
#     Edge 57, Type (0, 0), BuildingBlock: KIFKEQ_clean_linker_1, # of connection points: 2
#     Edge 58, Type (0, 0), BuildingBlock: KIFKEQ_clean_linker_1, # of connection points: 2
#     Edge 59, Type (0, 0), BuildingBlock: KIFKEQ_clean_linker_1, # of connection points: 2
#     Edge 60, Type (0, 0), BuildingBlock: KIFKEQ_clean_linker_1, # of connection points: 2
#     Edge 61, Type (0, 0), BuildingBlock: KIFKEQ_clean_linker_1, # of connection points: 2
#     Edge 62, Type (0, 0), BuildingBlock: KIFKEQ_clean_linker_1, # of connection points: 2
#     Edge 63, Type (0, 0), BuildingBlock: KIFKEQ_clean_linker_1, # of connection points: 2
# Relax obj value: 0.243
# Max RMSD: 0.300
# Mean RMSD: 0.260
data_MOF--net-crs--node1-KUMBUR_clean_sbu_1--edge1-KIFKEQ_clean_linker_1
_symmetry_space_group_name_H-M    P1
_symmetry_Int_Tables_number       1
_symmetry_cell_setting            triclinic
loop_
_symmetry_equiv_pos_as_xyz
'x, y, z'
_cell_length_a     55.681345
_cell_length_b     55.56957
_cell_length_c     42.27031
_cell_angle_alpha  76.362992
_cell_angle_beta   76.388627
_cell_angle_gamma 68.315349
loop_
_atom_site_label
_atom_site_type_symbol
_atom_site_fract_x
_atom_site_fract_y
_atom_site_fract_z
_atom_type_partial_charge
Tb0 Tb 0.98005 0.99927 0.04682 0.0
C1 C 0.02167 0.053 0.89087 0.0
N2 N 0.03478 0.03101 0.91006 0.0
C3 C 0.05472 1.00971 0.86268 0.0
C4 C 0.02461 0.05426 0.85654 0.0
C5 C 0.05107 1.00938 0.89665 0.0
C6 C 0.04147 0.03227 0.84251 0.0
C7 C 0.98916 0.09651 0.88716 0.0
C8 C 0.00414 0.07376 0.90603 0.0
C9 C 0.99264 0.09827 0.85279 0.0
C10 C 0.01023 0.07715 0.83752 0.0
Tb11 Tb 0.02701 0.03236 0.96492 0.0
N12 N 0.00049 0.07087 0.93947 0.0
C13 C 0.9705 0.11642 0.90351 0.0
C14 C 0.98129 0.08973 0.95555 0.0
C15 C 0.96639 0.11287 0.93788 0.0
H16 H 0.06137 0.99185 0.91208 0.0
H17 H 0.9514 0.12778 0.95085 0.0
H18 H 0.94576 0.0411 0.09948 0.0
H19 H 0.03071 0.89475 0.06758 0.0
H20 H 0.97661 0.08714 0.98194 0.0
H21 H 0.95864 0.13423 0.88992 0.0
H22 H 0.00795 0.93686 0.03578 0.0
H23 H 0.0677 0.99255 0.85209 0.0
H24 H 0.98135 0.11563 0.8379 0.0
H25 H 0.01226 0.07854 0.81109 0.0
H26 H 0.94161 0.04152 0.15878 0.0
H27 H 0.04417 0.03241 0.81624 0.0
H28 H 0.0321 0.89189 0.1265 0.0
N29 N 0.97152 1.0015 0.10184 0.0
C30 C 0.98359 0.97922 0.12157 0.0
C31 C 0.95355 0.02388 0.1486 0.0
C32 C 0.98161 0.97851 0.15559 0.0
C33 C 0.95607 0.02357 0.11495 0.0
C34 C 0.96658 1.00133 0.16896 0.0
N35 N 0.99907 0.9585 0.07466 0.0
C36 C 0.00963 0.93633 0.06067 0.0
C37 C 0.00984 0.93307 0.12717 0.0
C38 C 0.99765 0.95688 0.10756 0.0
C39 C 0.02255 0.91063 0.1123 0.0
C40 C 0.02197 0.91219 0.07902 0.0
H41 H 0.9646 1.00162 0.195 0.0
H42 H 0.99334 0.95414 0.2013 0.0
H43 H 0.01795 0.91429 0.17641 0.0
O44 O 0.95871 0.98242 0.03008 0.0
O45 O 0.01816 0.99118 0.06143 0.0
O46 O 0.02293 1.00814 0.01105 0.0
O47 O 0.93985 1.00756 0.06673 0.0
O48 O 8e-05 0.97861 1.00341 0.0
O49 O 0.03616 0.98989 0.96995 0.0
O50 O 0.04726 0.05307 0.97668 0.0
O51 O 0.99171 0.0307 0.9522 0.0
O52 O 0.97317 0.03135 0.00513 0.0
O53 O 0.06783 0.02138 0.9486 0.0
O54 O 0.00997 0.05332 0.00688 0.0
O55 O 0.9792 0.03928 0.04945 0.0
C56 C 0.03351 1.00007 0.03764 0.0
C57 C 0.92409 0.97296 0.06707 0.0
C58 C 0.90647 0.93998 0.06287 0.0
C59 C 0.89998 0.93523 0.0974 0.0
C60 C 0.91768 0.96804 0.10158 0.0
C61 C 0.90553 0.94929 0.11662 0.0
C62 C 0.91829 0.95898 0.04787 0.0
C63 C 0.02004 0.97603 0.97827 0.0
C64 C 0.93732 0.99198 0.05002 0.0
C65 C 0.99447 0.95505 0.17513 0.0
C66 C 0.00851 0.93236 0.16096 0.0
C67 C 0.97203 0.0287 0.97548 0.0
C68 C 0.08632 0.05486 0.94313 0.0
C69 C 0.10928 0.08382 0.94528 0.0
C70 C 0.11527 0.08786 0.91065 0.0
C71 C 0.09234 0.05879 0.90862 0.0
C72 C 0.0952 0.06699 0.96132 0.0
C73 C 0.10707 0.07509 0.89246 0.0
C74 C 0.99342 0.05497 0.03522 0.0
C75 C 0.06967 0.03958 0.96152 0.0
H76 H 0.89039 0.92091 0.10941 0.0
H77 H 0.92207 0.97854 0.11683 0.0
H78 H 0.90041 0.94566 0.14322 0.0
H79 H 0.92307 0.96281 0.02116 0.0
H80 H 0.12596 0.10107 0.89776 0.0
H81 H 0.08539 0.04965 0.89429 0.0
H82 H 0.09008 0.06428 0.98805 0.0
H83 H 0.11166 0.07827 0.86579 0.0
Tb84 Tb 0.98845 0.25495 0.2288 0.0
C85 C 0.07412 0.28173 0.26615 0.0
N86 N 0.06276 0.26401 0.2848 0.0
C87 C 0.10384 0.23607 0.30127 0.0
C88 C 0.10122 0.27663 0.26328 0.0
C89 C 0.07696 0.24181 0.3031 0.0
C90 C 0.11608 0.25342 0.28104 0.0
C91 C 0.07013 0.32286 0.22846 0.0
C92 C 0.05859 0.30467 0.24897 0.0
C93 C 0.09718 0.31767 0.22529 0.0
C94 C 0.11266 0.29467 0.2427 0.0
Tb95 Tb 0.01884 0.27572 0.28673 0.0
N96 N 0.03238 0.30884 0.25198 0.0
C97 C 0.05419 0.34584 0.21178 0.0
C98 C 0.01667 0.33223 0.2373 0.0
C99 C 0.02733 0.35067 0.21658 0.0
H100 H 0.06755 0.22871 0.3196 0.0
H101 H 0.01467 0.3689 0.20478 0.0
H102 H 0.9406 0.30184 0.19417 0.0
H103 H 0.99102 0.16229 0.31108 0.0
H104 H 0.99586 0.33786 0.24196 0.0
H105 H 0.06232 0.36028 0.19578 0.0
H106 H 0.01036 0.19345 0.27523 0.0
H107 H 0.11506 0.21832 0.3156 0.0
H108 H 0.10632 0.33141 0.20951 0.0
H109 H 0.13349 0.29101 0.24002 0.0
H110 H 0.89317 0.31259 0.19687 0.0
H111 H 0.13695 0.24883 0.27952 0.0
H112 H 0.94354 0.17071 0.31772 0.0
N113 N 0.94466 0.26685 0.22935 0.0
C114 C 0.93301 0.24924 0.24758 0.0
C115 C 0.90407 0.29486 0.21156 0.0
C116 C 0.90599 0.25439 0.24946 0.0
C117 C 0.93086 0.28897 0.21055 0.0
C118 C 0.89151 0.27762 0.23134 0.0
N119 N 0.97425 0.22209 0.26313 0.0
C120 C 0.9896 0.19887 0.27862 0.0
C121 C 0.93633 0.2081 0.28501 0.0
C122 C 0.94816 0.22629 0.26513 0.0
C123 C 0.95189 0.18515 0.3022 0.0
C124 C 0.97865 0.18043 0.2987 0.0
H125 H 0.87071 0.28227 0.23214 0.0
H126 H 0.87352 0.24003 0.27123 0.0
H127 H 0.90004 0.19954 0.30236 0.0
O128 O 0.98976 0.22642 0.20343 0.0
O129 O 0.96239 0.26565 0.27511 0.0
O130 O 0.98879 0.25744 0.31344 0.0
O131 O 0.98427 0.26601 0.17856 0.0
O132 O 0.02741 0.22615 0.23937 0.0
O133 O 0.03255 0.23238 0.28938 0.0
O134 O 0.01803 0.30424 0.31191 0.0
O135 O 0.04467 0.26455 0.24051 0.0
O136 O 0.01816 0.27368 0.20217 0.0
O137 O 0.02362 0.26459 0.33676 0.0
O138 O 0.97975 0.30431 0.27661 0.0
O139 O 0.97454 0.2982 0.22656 0.0
C140 C 0.96604 0.26056 0.3059 0.0
C141 C 0.00379 0.23179 0.14612 0.0
C142 C 0.01985 0.19543 0.11525 0.0
C143 C 0.0279 0.2119 0.08724 0.0
C144 C 0.01153 0.24811 0.11788 0.0
C145 C 0.02397 0.23799 0.08874 0.0
C146 C 0.00876 0.20538 0.14483 0.0
C147 C 0.04 0.21851 0.26506 0.0
C148 C 0.98715 0.24234 0.17562 0.0
C149 C 0.89428 0.23634 0.26937 0.0
C150 C 0.90938 0.21329 0.28711 0.0
C151 C 0.04101 0.27015 0.20971 0.0
C152 C 0.00603 0.29876 0.36932 0.0
C153 C 0.99651 0.33185 0.40359 0.0
C154 C 0.981 0.31914 0.4277 0.0
C155 C 0.99075 0.28605 0.3936 0.0
C156 C 0.00849 0.32169 0.3743 0.0
C157 C 0.97813 0.2964 0.42261 0.0
C158 C 0.96709 0.31194 0.251 0.0
C159 C 0.02139 0.28814 0.33945 0.0
H160 H 0.03607 0.2051 0.06376 0.0
H161 H 0.00741 0.26872 0.11803 0.0
H162 H 0.02964 0.25069 0.06686 0.0
H163 H 0.00262 0.19285 0.1666 0.0
H164 H 0.97167 0.32635 0.45076 0.0
H165 H 0.98878 0.26814 0.39036 0.0
H166 H 0.02022 0.33147 0.35528 0.0
H167 H 0.96647 0.28652 0.44145 0.0
Tb168 Tb 0.74955 0.2482 0.48204 0.0
C169 C 0.7734 0.24477 0.61561 0.0
N170 N 0.75402 0.26401 0.60102 0.0
C171 C 0.72494 0.26579 0.65276 0.0
C172 C 0.76888 0.23437 0.64936 0.0
C173 C 0.73033 0.27524 0.61912 0.0
C174 C 0.74421 0.24504 0.66791 0.0
C175 C 0.81825 0.2153 0.61072 0.0
C176 C 0.79779 0.23554 0.5964 0.0
C177 C 0.81368 0.20431 0.64418 0.0
C178 C 0.7891 0.21392 0.66349 0.0
Tb179 Tb 0.76478 0.27906 0.54688 0.0
N180 N 0.80158 0.24693 0.56409 0.0
C181 C 0.84288 0.20709 0.59122 0.0
C182 C 0.82628 0.24045 0.54605 0.0
C183 C 0.84699 0.22 0.55893 0.0
H184 H 0.71583 0.29184 0.60776 0.0
H185 H 0.86632 0.21465 0.54416 0.0
H186 H 0.80464 0.22951 0.42738 0.0
H187 H 0.64913 0.30131 0.46487 0.0
H188 H 0.83086 0.25132 0.52225 0.0
H189 H 0.85909 0.19149 0.60124 0.0
H190 H 0.68416 0.27449 0.4966 0.0
H191 H 0.70602 0.27463 0.667 0.0
H192 H 0.82918 0.18868 0.65552 0.0
H193 H 0.786 0.20553 0.68937 0.0
H194 H 0.81847 0.23962 0.36762 0.0
H195 H 0.74 0.23772 0.69399 0.0
H196 H 0.65959 0.31462 0.40459 0.0
N197 N 0.76532 0.25546 0.4268 0.0
C198 C 0.74702 0.27068 0.40745 0.0
C199 C 0.79839 0.24883 0.37856 0.0
C200 C 0.75391 0.27616 0.37287 0.0
C201 C 0.79058 0.24368 0.41269 0.0
C202 C 0.78006 0.26539 0.35859 0.0
N203 N 0.71507 0.27407 0.45558 0.0
C204 C 0.68947 0.28083 0.47072 0.0
C205 C 0.70135 0.29492 0.40289 0.0
C206 C 0.72104 0.27993 0.42223 0.0
C207 C 0.67528 0.30311 0.41858 0.0
C208 C 0.66931 0.29577 0.4526 0.0
H209 H 0.78613 0.26912 0.33211 0.0
H210 H 0.73943 0.29615 0.32701 0.0
H211 H 0.6934 0.31258 0.35333 0.0
O212 O 0.72955 0.22115 0.50141 0.0
O213 O 0.73791 0.2922 0.47179 0.0
O214 O 0.7638 0.30322 0.49778 0.0
O215 O 0.75651 0.21791 0.45568 0.0
O216 O 0.71961 0.25534 0.52641 0.0
O217 O 0.7223 0.28968 0.54593 0.0
O218 O 0.78527 0.29505 0.56712 0.0
O219 O 0.75503 0.24259 0.56292 0.0
O220 O 0.77529 0.22321 0.51807 0.0
O221 O 0.74477 0.31566 0.56231 0.0
O222 O 0.79292 0.27665 0.4996 0.0
O223 O 0.79131 0.24154 0.48102 0.0
C224 C 0.74912 0.30866 0.47501 0.0
C225 C 0.71942 0.20498 0.4613 0.0
C226 C 0.6806 0.19248 0.4695 0.0
C227 C 0.68295 0.19494 0.43511 0.0
C228 C 0.72151 0.20736 0.42694 0.0
C229 C 0.70332 0.2023 0.41402 0.0
C230 C 0.699 0.19731 0.48243 0.0
C231 C 0.70936 0.27429 0.54442 0.0
C232 C 0.73877 0.20934 0.47577 0.0
C233 C 0.73446 0.29164 0.35359 0.0
C234 C 0.70824 0.30097 0.36856 0.0
C235 C 0.76613 0.22114 0.54986 0.0
C236 C 0.77174 0.34128 0.55441 0.0
C237 C 0.80198 0.36432 0.52362 0.0
C238 C 0.78177 0.38836 0.52735 0.0
C239 C 0.75205 0.36545 0.55839 0.0
C240 C 0.79672 0.34079 0.53685 0.0
C241 C 0.75701 0.38885 0.54463 0.0
C242 C 0.80205 0.2595 0.47889 0.0
C243 C 0.76584 0.31694 0.56907 0.0
H244 H 0.66947 0.19041 0.42458 0.0
H245 H 0.73724 0.2129 0.41007 0.0
H246 H 0.70517 0.20379 0.38761 0.0
H247 H 0.69752 0.19488 0.50896 0.0
H248 H 0.78544 0.40682 0.51831 0.0
H249 H 0.73281 0.3662 0.5722 0.0
H250 H 0.81226 0.32224 0.53408 0.0
H251 H 0.74179 0.40744 0.548 0.0
Tb252 Tb 0.76686 0.03204 0.78149 0.0
C253 C 0.73535 0.94531 0.75541 0.0
N254 N 0.75317 0.95677 0.73738 0.0
C255 C 0.78294 0.91469 0.72545 0.0
C256 C 0.74154 0.91779 0.76118 0.0
C257 C 0.7756 0.94206 0.71999 0.0
C258 C 0.76611 0.90243 0.74688 0.0
C259 C 0.69087 0.95016 0.78372 0.0
C260 C 0.71017 0.96127 0.76621 0.0
C261 C 0.69735 0.92273 0.7908 0.0
C262 C 0.72263 0.90659 0.77961 0.0
Tb263 Tb 0.73819 1.00163 0.72922 0.0
N264 N 0.70465 0.98778 0.75951 0.0
C265 C 0.66567 0.96698 0.79374 0.0
C266 C 0.6799 1.00431 0.76843 0.0
C267 C 0.66015 0.99415 0.78592 0.0
H268 H 0.78744 0.95134 0.70088 0.0
H269 H 0.64062 1.00729 0.79316 0.0
H270 H 0.71633 0.08295 0.80735 0.0
H271 H 0.86445 0.02592 0.71698 0.0
H272 H 0.67526 0.02528 0.76172 0.0
H273 H 0.6503 0.9592 0.80729 0.0
H274 H 0.82986 1.0081 0.74905 0.0
H275 H 0.80118 0.90316 0.71232 0.0
H276 H 0.68286 0.91382 0.80455 0.0
H277 H 0.72714 0.88548 0.78457 0.0
H278 H 0.70356 0.13096 0.79595 0.0
H279 H 0.77161 0.88124 0.75066 0.0
H280 H 0.85473 0.07397 0.70189 0.0
N281 N 0.75176 0.07691 0.77232 0.0
C282 C 0.7697 0.08823 0.7542 0.0
C283 C 0.72196 0.11923 0.78336 0.0
C284 C 0.76357 0.11574 0.74797 0.0
C285 C 0.72902 0.09187 0.78903 0.0
C286 C 0.73901 0.13127 0.76203 0.0
N287 N 0.80044 0.04568 0.7508 0.0
C288 C 0.82521 0.02906 0.74205 0.0
C289 C 0.8142 0.08316 0.72567 0.0
C290 C 0.7949 0.07217 0.74358 0.0
C291 C 0.83939 0.06626 0.71578 0.0
C292 C 0.84494 0.03912 0.72415 0.0
H293 H 0.73358 0.15246 0.75793 0.0
H294 H 0.77801 0.14792 0.72388 0.0
H295 H 0.82223 0.1194 0.70407 0.0
O296 O 0.79507 0.03174 0.80727 0.0
O297 O 0.77558 0.03938 0.72661 0.0
O298 O 0.74022 0.04106 0.70674 0.0
O299 O 0.75499 0.0393 0.83049 0.0
O300 O 0.79198 0.99198 0.77377 0.0
O301 O 0.78223 0.98791 0.72524 0.0
O302 O 0.71041 1.00121 0.70331 0.0
O303 O 0.73035 0.9926 0.78425 0.0
O304 O 0.765 0.99263 0.80444 0.0
O305 O 0.75015 0.99554 0.67967 0.0
O306 O 0.7127 0.0419 0.73731 0.0
O307 O 0.72297 0.0448 0.78605 0.0
C308 C 0.75864 0.05075 0.70606 0.0
C309 C 0.78785 0.02044 0.86527 0.0
C310 C 0.81937 1.00818 0.90332 0.0
C311 C 0.80399 0.99449 0.92611 0.0
C312 C 0.77311 1.00649 0.88842 0.0
C313 C 0.78124 0.99356 0.91857 0.0
C314 C 0.81108 0.02094 0.87268 0.0
C315 C 0.79763 0.97982 0.74819 0.0
C316 C 0.77861 0.03606 0.83426 0.0
C317 C 0.7825 0.12681 0.72922 0.0
C318 C 0.80774 0.11057 0.71811 0.0
C319 C 0.74743 0.9819 0.80478 0.0
C320 C 0.7168 0.01376 0.6456 0.0
C321 C 0.68541 0.02533 0.60766 0.0
C322 C 0.69785 0.04274 0.58723 0.0
C323 C 0.72881 0.03123 0.62473 0.0
C324 C 0.69514 0.01085 0.63692 0.0
C325 C 0.71935 0.04558 0.59572 0.0
C326 C 0.70753 0.05371 0.76314 0.0
C327 C 0.72676 0.99781 0.67606 0.0
H328 H 0.80906 0.98497 0.95024 0.0
H329 H 0.75515 1.00585 0.88348 0.0
H330 H 0.76958 0.98311 0.93648 0.0
H331 H 0.82251 0.03152 0.85451 0.0
H332 H 0.69127 0.05385 0.5643 0.0
H333 H 0.74551 0.03377 0.63072 0.0
H334 H 0.68581 0.99741 0.65312 0.0
H335 H 0.72884 0.05889 0.57962 0.0
Tb336 Tb 0.49178 0.75437 0.22556 0.0
C337 C 0.57393 0.78339 0.26642 0.0
N338 N 0.56312 0.76519 0.28485 0.0
C339 C 0.60452 0.73807 0.3011 0.0
C340 C 0.60095 0.77889 0.26337 0.0
C341 C 0.57773 0.74325 0.30308 0.0
C342 C 0.61626 0.75583 0.28086 0.0
C343 C 0.56891 0.82487 0.22931 0.0
C344 C 0.55793 0.80619 0.24966 0.0
C345 C 0.59589 0.82024 0.22581 0.0
C346 C 0.61184 0.79737 0.24286 0.0
Tb347 Tb 0.51936 0.77556 0.28654 0.0
N348 N 0.5318 0.80983 0.25303 0.0
C349 C 0.55247 0.84779 0.21317 0.0
C350 C 0.51557 0.83326 0.23918 0.0
C351 C 0.52567 0.85215 0.21856 0.0
H352 H 0.56866 0.72992 0.31968 0.0
H353 H 0.51261 0.87038 0.20732 0.0
H354 H 0.44572 0.8004 0.18657 0.0
H355 H 0.49005 0.66507 0.3132 0.0
H356 H 0.49476 0.83854 0.2445 0.0
H357 H 0.56016 0.86257 0.19728 0.0
H358 H 0.51009 0.6964 0.27981 0.0
H359 H 0.61606 0.72047 0.31532 0.0
H360 H 0.6046 0.83435 0.21012 0.0
H361 H 0.63259 0.79416 0.24001 0.0
H362 H 0.39949 0.80966 0.18339 0.0
H363 H 0.63708 0.75169 0.2792 0.0
H364 H 0.44412 0.67108 0.31186 0.0
N365 N 0.44905 0.76479 0.22049 0.0
C366 C 0.43711 0.74707 0.23731 0.0
C367 C 0.40978 0.79207 0.19883 0.0
C368 C 0.41064 0.75162 0.23619 0.0
C369 C 0.43592 0.7869 0.201 0.0
C370 C 0.39703 0.77442 0.21662 0.0
N371 N 0.47626 0.7219 0.25885 0.0
C372 C 0.4902 0.70028 0.27843 0.0
C373 C 0.43874 0.70693 0.27625 0.0
C374 C 0.4511 0.72492 0.25703 0.0
C375 C 0.45293 0.68528 0.2967 0.0
C376 C 0.47878 0.68191 0.29764 0.0
H377 H 0.37668 0.7786 0.21511 0.0
H378 H 0.37811 0.73684 0.25457 0.0
H379 H 0.40269 0.69775 0.28972 0.0
O380 O 0.50267 0.72357 0.19854 0.0
O381 O 0.46424 0.76287 0.27165 0.0
O382 O 0.48812 0.75842 0.31186 0.0
O383 O 0.48887 0.76443 0.17486 0.0
O384 O 0.53003 0.72599 0.23835 0.0
O385 O 0.53435 0.7322 0.28878 0.0
O386 O 0.51802 0.80337 0.31319 0.0
O387 O 0.54613 0.76435 0.24099 0.0
O388 O 0.51918 0.77667 0.20289 0.0
O389 O 0.52364 0.76338 0.33665 0.0
O390 O 0.48016 0.80337 0.27538 0.0
O391 O 0.4762 0.79755 0.22444 0.0
C392 C 0.46648 0.75963 0.30281 0.0
C393 C 0.49998 0.73127 0.14022 0.0
C394 C 0.51101 0.69598 0.10879 0.0
C395 C 0.50521 0.71489 0.08045 0.0
C396 C 0.49403 0.74982 0.11176 0.0
C397 C 0.4968 0.74159 0.082 0.0
C398 C 0.50856 0.70437 0.13859 0.0
C399 C 0.5421 0.71832 0.26441 0.0
C400 C 0.49692 0.73991 0.17166 0.0
C401 C 0.39846 0.73359 0.25502 0.0
C402 C 0.41246 0.71133 0.27501 0.0
C403 C 0.54251 0.7713 0.21021 0.0
C404 C 0.50538 0.79652 0.37079 0.0
C405 C 0.49217 0.83088 0.40438 0.0
C406 C 0.48317 0.81421 0.43135 0.0
C407 C 0.49652 0.78006 0.39792 0.0
C408 C 0.50248 0.82201 0.374 0.0
C409 C 0.48511 0.7891 0.42793 0.0
C410 C 0.46787 0.81091 0.24939 0.0
C411 C 0.52108 0.78677 0.34044 0.0
H412 H 0.50621 0.7091 0.05731 0.0
H413 H 0.48715 0.77067 0.1125 0.0
H414 H 0.492 0.75596 0.06017 0.0
H415 H 0.51296 0.68995 0.16055 0.0
H416 H 0.4755 0.82011 0.45538 0.0
H417 H 0.49894 0.76013 0.39623 0.0
H418 H 0.50926 0.83465 0.35288 0.0
H419 H 0.47854 0.77627 0.44894 0.0
Tb420 Tb 0.24636 0.74709 0.47563 0.0
C421 C 0.27167 0.76351 0.60669 0.0
N422 N 0.25309 0.78161 0.58963 0.0
C423 C 0.22596 0.79409 0.64045 0.0
C424 C 0.26786 0.7596 0.64148 0.0
C425 C 0.2306 0.79717 0.606 0.0
C426 C 0.24458 0.77505 0.65831 0.0
C427 C 0.31461 0.7302 0.606 0.0
C428 C 0.29469 0.74895 0.58915 0.0
C429 C 0.3107 0.72584 0.64064 0.0
C430 C 0.28737 0.74051 0.65834 0.0
Tb431 Tb 0.26223 0.78393 0.53344 0.0
N432 N 0.2976 0.75328 0.55559 0.0
C433 C 0.33805 0.71664 0.58755 0.0
C434 C 0.32124 0.74138 0.53767 0.0
C435 C 0.34152 0.72262 0.55324 0.0
H436 H 0.21651 0.8126 0.59236 0.0
H437 H 0.36002 0.71308 0.53869 0.0
H438 H 0.29892 0.72403 0.42016 0.0
H439 H 0.15009 0.81859 0.46189 0.0
H440 H 0.32533 0.74658 0.51155 0.0
H441 H 0.35385 0.70213 0.59953 0.0
H442 H 0.18473 0.78961 0.49261 0.0
H443 H 0.20809 0.8065 0.65317 0.0
H444 H 0.32572 0.71137 0.65395 0.0
H445 H 0.28471 0.7371 0.68505 0.0
H446 H 0.30999 0.72814 0.35959 0.0
H447 H 0.24094 0.77267 0.68501 0.0
H448 H 0.15701 0.82266 0.40125 0.0
N449 N 0.25941 0.74942 0.41992 0.0
C450 C 0.24067 0.7646 0.40126 0.0
C451 C 0.29043 0.73854 0.37101 0.0
C452 C 0.24612 0.76724 0.36655 0.0
C453 C 0.28416 0.73653 0.40534 0.0
C454 C 0.27133 0.75389 0.35152 0.0
N455 N 0.21222 0.77663 0.4504 0.0
C456 C 0.18864 0.79075 0.46643 0.0
C457 C 0.19659 0.79508 0.39828 0.0
C458 C 0.21622 0.7784 0.41699 0.0
C459 C 0.17255 0.80957 0.41473 0.0
C460 C 0.16861 0.80741 0.44892 0.0
H461 H 0.27628 0.75547 0.32491 0.0
H462 H 0.23027 0.78569 0.32124 0.0
H463 H 0.18689 0.81003 0.34904 0.0
O464 O 0.22221 0.72396 0.49485 0.0
O465 O 0.24756 0.78725 0.45291 0.0
O466 O 0.23541 0.80745 0.49816 0.0
O467 O 0.25478 0.71294 0.45583 0.0
O468 O 0.21727 0.75568 0.52108 0.0
O469 O 0.22 0.78928 0.54284 0.0
O470 O 0.2884 0.80481 0.51568 0.0
O471 O 0.25902 0.74462 0.55629 0.0
O472 O 0.27252 0.72388 0.51162 0.0
O473 O 0.25314 0.81984 0.54963 0.0
O474 O 0.28833 0.77786 0.48525 0.0
O475 O 0.28832 0.73963 0.47339 0.0
C476 C 0.24127 0.80863 0.46587 0.0
C477 C 0.21872 0.69866 0.4595 0.0
C478 C 0.18313 0.6815 0.46743 0.0
C479 C 0.19045 0.67673 0.43479 0.0
C480 C 0.22589 0.69393 0.42672 0.0
C481 C 0.21174 0.68296 0.41452 0.0
C482 C 0.19729 0.69229 0.47976 0.0
C483 C 0.2081 0.77278 0.54187 0.0
C484 C 0.23472 0.70744 0.47438 0.0
C485 C 0.22645 0.78345 0.34793 0.0
C486 C 0.20174 0.7973 0.36376 0.0
C487 C 0.26558 0.72305 0.54373 0.0
C488 C 0.29046 0.83039 0.55095 0.0
C489 C 0.32746 0.84465 0.54628 0.0
C490 C 0.32125 0.84592 0.58021 0.0
C491 C 0.28424 0.83166 0.58487 0.0
C492 C 0.31187 0.83717 0.53185 0.0
C493 C 0.29965 0.83951 0.59937 0.0
C494 C 0.29845 0.7585 0.46794 0.0
C495 C 0.27505 0.82287 0.53385 0.0
H496 H 0.17982 0.66791 0.42519 0.0
H497 H 0.24262 0.69822 0.41074 0.0
H498 H 0.21746 0.679 0.38945 0.0
H499 H 0.19191 0.69524 0.5053 0.0
H500 H 0.33277 0.85239 0.59168 0.0
H501 H 0.26756 0.82677 0.60005 0.0
H502 H 0.31649 0.83657 0.50556 0.0
H503 H 0.2948 0.84078 0.62541 0.0
Tb504 Tb 0.26655 0.53199 0.78497 0.0
C505 C 0.23631 0.44691 0.74345 0.0
N506 N 0.25357 0.45919 0.72595 0.0
C507 C 0.28019 0.42003 0.7032 0.0
C508 C 0.24133 0.42011 0.74323 0.0
C509 C 0.27444 0.44656 0.7043 0.0
C510 C 0.26393 0.40656 0.72339 0.0
C511 C 0.19352 0.44993 0.77633 0.0
C512 C 0.2125 0.4617 0.75943 0.0
C513 C 0.19922 0.4229 0.77806 0.0
C514 C 0.22305 0.40803 0.76147 0.0
Tb515 Tb 0.24107 0.50294 0.72903 0.0
N516 N 0.20752 0.48787 0.75724 0.0
C517 C 0.16912 0.46579 0.79037 0.0
C518 C 0.18312 0.50366 0.76925 0.0
C519 C 0.1638 0.49281 0.78642 0.0
H520 H 0.28717 0.45676 0.68833 0.0
H521 H 0.14474 0.50535 0.79641 0.0
H522 H 0.22277 0.57997 0.82096 0.0
H523 H 0.35025 0.53071 0.68585 0.0
H524 H 0.1784 0.52459 0.76579 0.0
H525 H 0.15405 0.45748 0.80357 0.0
H526 H 0.31717 0.51333 0.72046 0.0
H527 H 0.29718 0.41 0.68677 0.0
H528 H 0.18501 0.41346 0.79131 0.0
H529 H 0.22678 0.38738 0.762 0.0
H530 H 0.21633 0.62611 0.82277 0.0
H531 H 0.2684 0.38601 0.72244 0.0
H532 H 0.34974 0.57465 0.68908 0.0
N533 N 0.25783 0.57495 0.78602 0.0
C534 C 0.2762 0.58557 0.76802 0.0
C535 C 0.23316 0.61499 0.8071 0.0
C536 C 0.27344 0.61175 0.76842 0.0
C537 C 0.23665 0.589 0.80572 0.0
C538 C 0.25161 0.62645 0.78833 0.0
N539 N 0.29871 0.54537 0.74752 0.0
C540 C 0.31706 0.53164 0.72451 0.0
C541 C 0.31566 0.58154 0.72739 0.0
C542 C 0.2973 0.57036 0.74814 0.0
C543 C 0.33536 0.56672 0.70554 0.0
C544 C 0.33577 0.54187 0.70375 0.0
H545 H 0.2488 0.64663 0.78933 0.0
H546 H 0.29047 0.64261 0.74863 0.0
H547 H 0.32727 0.61628 0.71244 0.0
O548 O 0.29142 0.53578 0.81207 0.0
O549 O 0.25261 0.55905 0.74128 0.0
O550 O 0.26245 0.53149 0.70418 0.0
O551 O 0.25411 0.53172 0.83625 0.0
O552 O 0.29729 0.49502 0.77094 0.0
O553 O 0.28199 0.47869 0.73625 0.0
O554 O 0.21072 0.51167 0.70152 0.0
O555 O 0.23196 0.49215 0.78362 0.0
O556 O 0.26602 0.49183 0.80495 0.0
O557 O 0.25168 0.50094 0.67834 0.0
O558 O 0.21474 0.54201 0.73939 0.0
O559 O 0.22252 0.54498 0.78964 0.0
C560 C 0.25789 0.55515 0.71065 0.0
C561 C 0.28914 0.51653 0.86762 0.0
C562 C 0.32481 0.50495 0.89879 0.0
C563 C 0.31479 0.48628 0.92077 0.0
C564 C 0.27929 0.498 0.88992 0.0
C565 C 0.29218 0.4829 0.91631 0.0
C566 C 0.31185 0.51984 0.8722 0.0
C567 C 0.30025 0.4773 0.75256 0.0
C568 C 0.27596 0.53355 0.84002 0.0
C569 C 0.29225 0.62251 0.74867 0.0
C570 C 0.31325 0.60748 0.72815 0.0
C571 C 0.24875 0.48111 0.80444 0.0
C572 C 0.22013 0.50835 0.64296 0.0
C573 C 0.18768 0.51276 0.61001 0.0
C574 C 0.20751 0.50958 0.58212 0.0
C575 C 0.23956 0.50504 0.61478 0.0
C576 C 0.19414 0.51205 0.64055 0.0
C577 C 0.23321 0.50573 0.58457 0.0
C578 C 0.2074 0.55287 0.76632 0.0
C579 C 0.22755 0.50641 0.67493 0.0
H580 H 0.32403 0.47477 0.94186 0.0
H581 H 0.26168 0.49524 0.88711 0.0
H582 H 0.28444 0.46872 0.93359 0.0
H583 H 0.31943 0.53421 0.85494 0.0
H584 H 0.20329 0.50941 0.55845 0.0
H585 H 0.25977 0.5017 0.61609 0.0
H586 H 0.17907 0.51418 0.66225 0.0
H587 H 0.24832 0.50297 0.56301 0.0
Tb588 Tb 0.97991 0.50474 0.53694 0.0
C589 C 0.0049 0.55399 0.3904 0.0
N590 N 0.01975 0.53165 0.40749 0.0
C591 C 0.03112 0.50974 0.36093 0.0
C592 C 0.00209 0.55481 0.35788 0.0
C593 C 0.03342 0.50989 0.39311 0.0
C594 C 0.01533 0.53227 0.34325 0.0
C595 C 0.97622 0.59926 0.38908 0.0
C596 C 0.99211 0.57598 0.40594 0.0
C597 C 0.9734 0.60019 0.35659 0.0
C598 C 0.98631 0.57806 0.34104 0.0
Tb599 Tb 0.02376 0.53545 0.45794 0.0
N600 N 0.99538 0.57452 0.43743 0.0
C601 C 0.96385 0.62104 0.40522 0.0
C602 C 0.98408 0.59603 0.45279 0.0
C603 C 0.96788 0.61942 0.43714 0.0
H604 H 0.0465 0.49281 0.40613 0.0
H605 H 0.95886 0.63636 0.44952 0.0
H606 H 0.9531 0.54938 0.58789 0.0
H607 H 0.03321 0.40108 0.55838 0.0
H608 H 0.98786 0.59584 0.47661 0.0
H609 H 0.95147 0.63933 0.39309 0.0
H610 H 0.00939 0.44269 0.52642 0.0
H611 H 0.04182 0.49239 0.34961 0.0
H612 H 0.96135 0.618 0.34321 0.0
H613 H 0.98399 0.57916 0.31594 0.0
H614 H 0.95484 0.55154 0.6447 0.0
H615 H 0.01375 0.53215 0.31823 0.0
H616 H 0.03808 0.39963 0.61557 0.0
N617 N 0.9788 0.50973 0.58952 0.0
C618 C 0.99167 0.48764 0.609 0.0
C619 C 0.96552 0.53351 0.63484 0.0
C620 C 0.9924 0.48777 0.64208 0.0
C621 C 0.96502 0.53231 0.60232 0.0
C622 C 0.97941 0.5112 0.65475 0.0
N623 N 0.00253 0.46523 0.56402 0.0
C624 C 0.01205 0.44262 0.55086 0.0
C625 C 0.01677 0.44109 0.61539 0.0
C626 C 0.00373 0.46459 0.59592 0.0
C627 C 0.02791 0.41812 0.60142 0.0
C628 C 0.02529 0.41886 0.56912 0.0
H629 H 0.97952 0.51212 0.68004 0.0
H630 H 0.00657 0.46422 0.68694 0.0
H631 H 0.02786 0.42334 0.66354 0.0
O632 O 0.95667 0.48766 0.52394 0.0
O633 O 0.02257 0.49078 0.53733 0.0
O634 O 0.03725 0.52435 0.50508 0.0
O635 O 0.94422 0.50502 0.56808 0.0
O636 O 0.99428 0.48602 0.49322 0.0
O637 O 0.03364 0.49261 0.46774 0.0
O638 O 0.04304 0.56216 0.43314 0.0
O639 O 0.98843 0.53031 0.45126 0.0
O640 O 0.96466 0.53912 0.50058 0.0
O641 O 0.06372 0.52047 0.43807 0.0
O642 O 0.01229 0.55385 0.50253 0.0
O643 O 0.97388 0.54672 0.53168 0.0
C644 C 0.03947 0.50362 0.52829 0.0
C645 C 0.93035 0.46938 0.56738 0.0
C646 C 0.91508 0.43452 0.56354 0.0
C647 C 0.91054 0.42847 0.59813 0.0
C648 C 0.9256 0.46326 0.60196 0.0
C649 C 0.91569 0.44289 0.6172 0.0
C650 C 0.92482 0.45506 0.54835 0.0
C651 C 0.01684 0.47994 0.47323 0.0
C652 C 0.9393 0.49162 0.55046 0.0
C653 C 0.00577 0.46449 0.66149 0.0
C654 C 0.0179 0.44121 0.64818 0.0
C655 C 0.96564 0.5366 0.47024 0.0
C656 C 0.08685 0.54758 0.44159 0.0
C657 C 0.10251 0.57224 0.46795 0.0
C658 C 0.12806 0.55465 0.46147 0.0
C659 C 0.1125 0.53023 0.43527 0.0
C660 C 0.08189 0.56862 0.45818 0.0
C661 C 0.13297 0.53372 0.44527 0.0
C662 C 0.99226 0.55732 0.52714 0.0
C663 C 0.06578 0.54385 0.42984 0.0
H664 H 0.90241 0.41306 0.61035 0.0
H665 H 0.92923 0.47433 0.61719 0.0
H666 H 0.91173 0.43846 0.64385 0.0
H667 H 0.92778 0.46009 0.52164 0.0
H668 H 0.14431 0.55758 0.4681 0.0
H669 H 0.11673 0.51408 0.42233 0.0
H670 H 0.06228 0.58255 0.46283 0.0
H671 H 0.15277 0.52044 0.43994 0.0
Tb672 Tb 0.26836 0.2736 0.03888 0.0
C673 C 0.26818 0.24926 0.90101 0.0
N674 N 0.25038 0.26837 0.91757 0.0
C675 C 0.24355 0.29783 0.86636 0.0
C676 C 0.27461 0.25392 0.86628 0.0
C677 C 0.23784 0.29233 0.90074 0.0
C678 C 0.26203 0.27855 0.84903 0.0
C679 C 0.30034 0.20553 0.90258 0.0
C680 C 0.28091 0.22532 0.91908 0.0
C681 C 0.3065 0.20999 0.86801 0.0
C682 C 0.29366 0.2341 0.84991 0.0
Tb683 Tb 0.24083 0.25597 0.97321 0.0
N684 N 0.27487 0.22178 0.95272 0.0
C685 C 0.31315 0.18182 0.92128 0.0
C686 C 0.28675 0.19813 0.97078 0.0
C687 C 0.30623 0.1781 0.95548 0.0
H688 H 0.22245 0.30679 0.91362 0.0
H689 H 0.31561 0.15956 0.97015 0.0
H690 H 0.28634 0.22161 0.09742 0.0
H691 H 0.19439 0.37014 0.04358 0.0
H692 H 0.28116 0.19375 0.99677 0.0
H693 H 0.3282 0.16617 0.90955 0.0
H694 H 0.22916 0.33631 0.01646 0.0
H695 H 0.2334 0.31682 0.85324 0.0
H696 H 0.32133 0.19496 0.85502 0.0
H697 H 0.29881 0.23731 0.82326 0.0
H698 H 0.27472 0.21068 0.15765 0.0
H699 H 0.26642 0.28286 0.82236 0.0
H700 H 0.18072 0.36233 0.10398 0.0
N701 N 0.25876 0.26039 0.0943 0.0
C702 C 0.24065 0.27913 0.11123 0.0
C703 C 0.26486 0.22994 0.14488 0.0
C704 C 0.23371 0.27378 0.14582 0.0
C705 C 0.27106 0.23607 0.11061 0.0
C706 C 0.24611 0.24886 0.16257 0.0
N707 N 0.23442 0.30747 0.05997 0.0
C708 C 0.22301 0.3315 0.04231 0.0
C709 C 0.20836 0.3228 0.11035 0.0
C710 C 0.22802 0.30335 0.09357 0.0
C711 C 0.1959 0.34689 0.09202 0.0
C712 C 0.20341 0.35129 0.05791 0.0
H713 H 0.24128 0.244 0.18913 0.0
H714 H 0.20871 0.28945 0.18907 0.0
H715 H 0.18661 0.33238 0.15805 0.0
O716 O 0.28391 0.30246 0.04039 0.0
O717 O 0.22979 0.26789 0.05632 0.0
O718 O 0.21011 0.2768 0.01067 0.0
O719 O 0.30025 0.26265 0.06364 0.0
O720 O 0.26489 0.3015 0.99152 0.0
O721 O 0.23132 0.29859 0.97096 0.0
O722 O 0.22532 0.22748 0.97027 0.0
O723 O 0.27928 0.26196 0.95564 0.0
O724 O 0.29887 0.25254 1.00152 0.0
O725 O 0.20857 0.26782 0.94904 0.0
O726 O 0.24374 0.22828 0.02082 0.0
O727 O 0.27782 0.23101 0.04041 0.0
C728 C 0.20892 0.27308 0.04293 0.0
C729 C 0.32934 0.28679 0.04203 0.0
C730 C 0.35845 0.31286 0.02007 0.0
C731 C 0.38003 0.28943 0.02002 0.0
C732 C 0.35126 0.26375 0.04257 0.0
C733 C 0.37638 0.26513 0.03107 0.0
C734 C 0.33306 0.31123 0.03048 0.0
C735 C 0.24785 0.31069 0.97076 0.0
C736 C 0.30275 0.28571 0.05554 0.0
C737 C 0.2143 0.29321 0.16251 0.0
C738 C 0.20167 0.31764 0.14483 0.0
C739 C 0.30013 0.25655 0.96921 0.0
C740 C 0.17981 0.24353 0.96775 0.0
C741 C 0.15083 0.21815 0.99497 0.0
C742 C 0.12958 0.23948 0.98384 0.0
C743 C 0.15837 0.26432 0.95657 0.0
C744 C 0.17582 0.22076 0.98759 0.0
C745 C 0.13337 0.26242 0.96508 0.0
C746 C 0.26074 0.21928 0.04164 0.0
C747 C 0.20642 0.24468 0.95553 0.0
H748 H 0.39989 0.28981 0.0129 0.0
H749 H 0.34908 0.24464 0.05185 0.0
H750 H 0.39315 0.24728 0.03154 0.0
H751 H 0.31617 0.32903 0.03048 0.0
H752 H 0.11019 0.23806 0.98795 0.0
H753 H 0.16101 0.28184 0.94062 0.0
H754 H 0.19238 0.20461 0.99596 0.0
H755 H 0.11701 0.27838 0.95598 0.0
Tb756 Tb 0.26599 0.02885 0.28513 0.0
C757 C 0.23503 0.944 0.24738 0.0
N758 N 0.25246 0.95595 0.22948 0.0
C759 C 0.28064 0.91513 0.21167 0.0
C760 C 0.24043 0.91682 0.2495 0.0
C761 C 0.27409 0.9422 0.20979 0.0
C762 C 0.26401 0.90225 0.23223 0.0
C763 C 0.19144 0.94809 0.27829 0.0
C764 C 0.21084 0.95937 0.26166 0.0
C765 C 0.19717 0.92089 0.28169 0.0
C766 C 0.22167 0.90526 0.26746 0.0
Tb767 Tb 0.23896 1.00059 0.22784 0.0
N768 N 0.20621 0.98552 0.25893 0.0
C769 C 0.16685 0.9645 0.29104 0.0
C770 C 0.18176 1.0018 0.26987 0.0
C771 C 0.16194 0.9915 0.28654 0.0
H772 H 0.28571 0.95228 0.19145 0.0
H773 H 0.14281 1.00443 0.29566 0.0
H774 H 0.22078 0.07655 0.32078 0.0
H775 H 0.35722 0.02514 0.19987 0.0
H776 H 0.17743 0.02274 0.2657 0.0
H777 H 0.15145 0.95658 0.30401 0.0
H778 H 0.32579 1.00621 0.2363 0.0
H779 H 0.29812 0.90438 0.19652 0.0
H780 H 0.18267 0.91181 0.29484 0.0
H781 H 0.2256 0.88439 0.26963 0.0
H782 H 0.21116 0.12384 0.31913 0.0
H783 H 0.26888 0.88135 0.23321 0.0
H784 H 0.35024 0.07237 0.19419 0.0
N785 N 0.25533 0.07237 0.28506 0.0
C786 C 0.27293 0.08379 0.2665 0.0
C787 C 0.22845 0.1129 0.3039 0.0
C788 C 0.26839 0.1107 0.26494 0.0
C789 C 0.23371 0.08621 0.30441 0.0
C790 C 0.24575 0.12528 0.28384 0.0
N791 N 0.29913 0.04239 0.25092 0.0
C792 C 0.32141 0.02688 0.23405 0.0
C793 C 0.3136 0.07998 0.22824 0.0
C794 C 0.29542 0.06843 0.24867 0.0
C795 C 0.33587 0.06422 0.21026 0.0
C796 C 0.33982 0.03758 0.21333 0.0
H797 H 0.2416 0.14599 0.2834 0.0
H798 H 0.2833 0.14285 0.24302 0.0
H799 H 0.32275 0.11603 0.21064 0.0
O800 O 0.29324 0.02801 0.31312 0.0
O801 O 0.25481 0.05442 0.23862 0.0
O802 O 0.26186 0.02727 0.20124 0.0
O803 O 0.25312 0.03019 0.33608 0.0
O804 O 0.29318 0.99057 0.27141 0.0
O805 O 0.28262 0.98297 0.22521 0.0
O806 O 0.20658 0.01778 0.2027 0.0
O807 O 0.23085 0.98983 0.28272 0.0
O808 O 0.26565 0.98838 0.30347 0.0
O809 O 0.24162 0.99042 0.18163 0.0
O810 O 0.2149 0.04047 0.23815 0.0
O811 O 0.22206 0.04183 0.28947 0.0
C812 C 0.26009 0.05007 0.20805 0.0
C813 C 0.28191 0.02978 0.37233 0.0
C814 C 0.31289 0.02477 0.40839 0.0
C815 C 0.29166 0.03034 0.43439 0.0
C816 C 0.26128 0.03535 0.39889 0.0
C817 C 0.26618 0.03562 0.42961 0.0
C818 C 0.30781 0.02468 0.37712 0.0
C819 C 0.29838 0.9768 0.24732 0.0
C820 C 0.276 0.02944 0.34001 0.0
C821 C 0.28651 0.12216 0.24467 0.0
C822 C 0.30899 0.10687 0.22627 0.0
C823 C 0.24786 0.97819 0.30324 0.0
C824 C 0.21136 0.01776 0.14572 0.0
C825 C 0.18323 0.02802 0.10416 0.0
C826 C 0.19758 0.04375 0.08379 0.0
C827 C 0.22549 0.03331 0.12492 0.0
C828 C 0.19042 0.01499 0.1352 0.0
C829 C 0.21862 0.04619 0.09405 0.0
C830 C 0.20755 0.05098 0.26541 0.0
C831 C 0.21756 1.00448 0.17873 0.0
H832 H 0.29462 0.03133 0.45841 0.0
H833 H 0.24124 0.03965 0.39591 0.0
H834 H 0.25008 0.04013 0.44984 0.0
H835 H 0.3239 0.02045 0.35678 0.0
H836 H 0.19276 0.05386 0.05969 0.0
H837 H 0.24168 0.03557 0.13262 0.0
H838 H 0.17943 1.00301 0.15144 0.0
H839 H 0.22961 0.05817 0.07801 0.0
Tb840 Tb 0.48859 0.25406 0.72536 0.0
C841 C 0.57722 0.27619 0.75999 0.0
N842 N 0.56396 0.25961 0.77706 0.0
C843 C 0.60451 0.227 0.79033 0.0
C844 C 0.60477 0.26829 0.75606 0.0
C845 C 0.57719 0.23596 0.79413 0.0
C846 C 0.61843 0.24303 0.77063 0.0
C847 C 0.5758 0.32018 0.73249 0.0
C848 C 0.56303 0.30177 0.7483 0.0
C849 C 0.60325 0.31211 0.72735 0.0
C850 C 0.61772 0.28617 0.73897 0.0
Tb851 Tb 0.51904 0.27708 0.78176 0.0
N852 N 0.53655 0.30871 0.75279 0.0
C853 C 0.56056 0.34615 0.7224 0.0
C854 C 0.52157 0.33433 0.74442 0.0
C855 C 0.53329 0.3533 0.72868 0.0
H856 H 0.56682 0.22406 0.81153 0.0
H857 H 0.52129 0.37344 0.7217 0.0
H858 H 0.43842 0.30018 0.69644 0.0
H859 H 0.49872 0.15682 0.79952 0.0
H860 H 0.50058 0.34016 0.75028 0.0
H861 H 0.56963 0.36087 0.7102 0.0
H862 H 0.51528 0.18959 0.76215 0.0
H863 H 0.61478 0.20798 0.80326 0.0
H864 H 0.61345 0.32585 0.71485 0.0
H865 H 0.63888 0.28035 0.73547 0.0
H866 H 0.39095 0.30882 0.70171 0.0
H867 H 0.63959 0.2362 0.76816 0.0
H868 H 0.45116 0.16443 0.81306 0.0
N869 N 0.44489 0.26391 0.7295 0.0
C870 C 0.43463 0.24538 0.74793 0.0
C871 C 0.40296 0.29101 0.71507 0.0
C872 C 0.40763 0.24956 0.75187 0.0
C873 C 0.42979 0.28615 0.71231 0.0
C874 C 0.39176 0.27277 0.73522 0.0
N875 N 0.47758 0.21859 0.7575 0.0
C876 C 0.49451 0.19475 0.76919 0.0
C877 C 0.44106 0.20303 0.78317 0.0
C878 C 0.45134 0.2223 0.76307 0.0
C879 C 0.45829 0.17965 0.79732 0.0
C880 C 0.48513 0.17536 0.78988 0.0
H881 H 0.37092 0.27668 0.73752 0.0
H882 H 0.37661 0.23354 0.7759 0.0
H883 H 0.40582 0.1929 0.80356 0.0
O884 O 0.48239 0.23267 0.69571 0.0
O885 O 0.4637 0.26616 0.77146 0.0
O886 O 0.49091 0.2564 0.80908 0.0
O887 O 0.4875 0.27019 0.67496 0.0
O888 O 0.52788 0.22609 0.73562 0.0
O889 O 0.53024 0.2337 0.78583 0.0
O890 O 0.50482 0.30782 0.80869 0.0
O891 O 0.528 0.28745 0.72699 0.0
O892 O 0.52909 0.253 0.706 0.0
O893 O 0.53143 0.27067 0.82755 0.0
O894 O 0.47972 0.30473 0.77271 0.0
O895 O 0.476 0.29783 0.72232 0.0
C896 C 0.46794 0.2595 0.8021 0.0
C897 C 0.50149 0.2379 0.63988 0.0
C898 C 0.51928 0.20047 0.61059 0.0
C899 C 0.52669 0.21677 0.58196 0.0
C900 C 0.50859 0.25399 0.61097 0.0
C901 C 0.52151 0.24332 0.58231 0.0
C902 C 0.50748 0.21106 0.63962 0.0
C903 C 0.5398 0.21964 0.76168 0.0
C904 C 0.48493 0.24936 0.66893 0.0
C905 C 0.39737 0.23058 0.77226 0.0
C906 C 0.41401 0.20745 0.78805 0.0
C907 C 0.53895 0.27117 0.70555 0.0
C908 C 0.5035 0.29907 0.86551 0.0
C909 C 0.48651 0.33084 0.90284 0.0
C910 C 0.48296 0.31094 0.92918 0.0
C911 C 0.50049 0.27908 0.89179 0.0
C912 C 0.49547 0.32486 0.871 0.0
C913 C 0.48967 0.28521 0.9235 0.0
C914 C 0.46868 0.31261 0.74586 0.0
C915 C 0.51754 0.29436 0.8326 0.0
H916 H 0.53535 0.20934 0.55892 0.0
H917 H 0.50363 0.27486 0.61031 0.0
H918 H 0.52667 0.25586 0.55995 0.0
H919 H 0.50183 0.19848 0.66169 0.0
H920 H 0.47631 0.31492 0.95422 0.0
H921 H 0.50687 0.2589 0.88798 0.0
H922 H 0.49796 0.34018 0.85046 0.0
H923 H 0.48751 0.26982 0.94395 0.0
Tb924 Tb 0.9877 0.7549 0.72711 0.0
C925 C 0.06821 0.78858 0.77546 0.0
N926 N 0.05721 0.77028 0.79286 0.0
C927 C 0.09574 0.74665 0.81772 0.0
C928 C 0.09387 0.78615 0.77793 0.0
C929 C 0.07034 0.74978 0.81433 0.0
C930 C 0.10762 0.76484 0.79932 0.0
C931 C 0.06579 0.82754 0.73405 0.0
C932 C 0.05418 0.80914 0.75388 0.0
C933 C 0.09118 0.82535 0.73677 0.0
C934 C 0.10519 0.80471 0.75862 0.0
Tb935 Tb 0.01554 0.77763 0.78609 0.0
N936 N 0.03005 0.80992 0.75061 0.0
C937 C 0.05191 0.84718 0.71126 0.0
C938 C 0.01695 0.82881 0.72751 0.0
C939 C 0.02747 0.84771 0.70791 0.0
H940 H 0.06108 0.73602 0.82941 0.0
H941 H 0.01681 0.86248 0.68976 0.0
H942 H 0.93924 0.80087 0.6926 0.0
H943 H 0.99315 0.66036 0.80639 0.0
H944 H 0.99887 0.82943 0.72271 0.0
H945 H 0.06015 0.86165 0.69559 0.0
H946 H 0.01121 0.69332 0.77327 0.0
H947 H 0.10608 0.73027 0.83463 0.0
H948 H 0.10035 0.83928 0.72162 0.0
H949 H 0.12491 0.80308 0.76009 0.0
H950 H 0.89221 0.80998 0.69453 0.0
H951 H 0.12738 0.76227 0.80182 0.0
H952 H 0.94619 0.66693 0.81156 0.0
N953 N 0.94415 0.76558 0.72744 0.0
C954 C 0.93321 0.74724 0.74502 0.0
C955 C 0.90341 0.79244 0.70918 0.0
C956 C 0.90647 0.7514 0.74625 0.0
C957 C 0.92998 0.78747 0.70865 0.0
C958 C 0.89152 0.77445 0.72832 0.0
N959 N 0.9748 0.72086 0.76033 0.0
C960 C 0.99061 0.69781 0.77559 0.0
C961 C 0.93785 0.70514 0.78066 0.0
C962 C 0.94889 0.72431 0.76204 0.0
C963 C 0.95394 0.68211 0.79707 0.0
C964 C 0.98042 0.6784 0.79432 0.0
H965 H 0.87092 0.77833 0.72864 0.0
H966 H 0.87499 0.73532 0.76639 0.0
H967 H 0.90242 0.69487 0.79649 0.0
O968 O 0.98815 0.72724 0.70085 0.0
O969 O 0.96097 0.76581 0.77285 0.0
O970 O 0.98978 0.75362 0.80847 0.0
O971 O 0.98479 0.76666 0.67652 0.0
O972 O 0.02645 0.72642 0.73918 0.0
O973 O 0.03458 0.73481 0.78655 0.0
O974 O 0.00659 0.8082 0.81318 0.0
O975 O 0.04363 0.76818 0.74074 0.0
O976 O 0.01985 0.7705 0.70131 0.0
O977 O 0.01604 0.76728 0.83714 0.0
O978 O 0.97679 0.80548 0.77447 0.0
O979 O 0.97215 0.79829 0.72483 0.0
C980 C 0.96588 0.75924 0.80303 0.0
C981 C 0.00294 0.73244 0.64397 0.0
C982 C 0.01489 0.69838 0.61037 0.0
C983 C 0.03066 0.71115 0.58686 0.0
C984 C 0.01809 0.74544 0.61996 0.0
C985 C 0.03226 0.73454 0.59177 0.0
C986 C 0.0017 0.7089 0.63917 0.0
C987 C 0.04026 0.71993 0.76362 0.0
C988 C 0.98643 0.74343 0.67317 0.0
C989 C 0.89552 0.73243 0.76507 0.0
C990 C 0.91115 0.70939 0.78221 0.0
C991 C 0.0415 0.76979 0.70986 0.0
C992 C 0.00771 0.79919 0.87226 0.0
C993 C 0.9995 0.83312 0.9047 0.0
C994 C 0.00503 0.81353 0.93253 0.0
C995 C 0.01342 0.77992 0.9002 0.0
C996 C 0.00059 0.82577 0.87468 0.0
C997 C 0.0119 0.78713 0.93022 0.0
C998 C 0.96422 0.81238 0.749 0.0
C999 C 0.01053 0.79148 0.84031 0.0
H1000 H 0.04098 0.70362 0.56424 0.0
H1001 H 0.01866 0.76408 0.62267 0.0
H1002 H 0.04397 0.74458 0.57327 0.0
H1003 H 0.98982 0.69901 0.65775 0.0
H1004 H 0.00507 0.81848 0.9558 0.0
H1005 H 0.01938 0.75925 0.8988 0.0
H1006 H 0.99646 0.8407 0.85309 0.0
H1007 H 0.01659 0.77219 0.9516 0.0
Tb1008 Tb 0.76466 0.52951 0.28604 0.0
C1009 C 0.73773 0.44452 0.23832 0.0
N1010 N 0.75598 0.45627 0.22334 0.0
C1011 C 0.78452 0.41654 0.20344 0.0
C1012 C 0.74244 0.41805 0.23676 0.0
C1013 C 0.77907 0.44278 0.20573 0.0
C1014 C 0.76614 0.40411 0.219 0.0
C1015 C 0.69641 0.4464 0.27467 0.0
C1016 C 0.71489 0.45862 0.2571 0.0
C1017 C 0.70079 0.42026 0.27247 0.0
C1018 C 0.72372 0.40613 0.25358 0.0
Tb1019 Tb 0.74323 0.49979 0.22636 0.0
N1020 N 0.71179 0.48363 0.25996 0.0
C1021 C 0.67434 0.46059 0.29461 0.0
C1022 C 0.69005 0.4975 0.27927 0.0
C1023 C 0.6712 0.4862 0.29693 0.0
H1024 H 0.79295 0.45247 0.19241 0.0
H1025 H 0.65415 0.49736 0.31227 0.0
H1026 H 0.71712 0.58044 0.31417 0.0
H1027 H 0.86012 0.52108 0.20925 0.0
H1028 H 0.68662 0.51725 0.28143 0.0
H1029 H 0.65972 0.45189 0.30852 0.0
H1030 H 0.82755 0.50401 0.24619 0.0
H1031 H 0.80281 0.40599 0.1894 0.0
H1032 H 0.68675 0.41062 0.28578 0.0
H1033 H 0.72701 0.38582 0.25263 0.0
H1034 H 0.7078 0.62808 0.30789 0.0
H1035 H 0.7705 0.38373 0.21729 0.0
H1036 H 0.85251 0.56874 0.19734 0.0
N1037 N 0.75359 0.57379 0.28163 0.0
C1038 C 0.77208 0.58429 0.26343 0.0
C1039 C 0.72582 0.61604 0.29495 0.0
C1040 C 0.76757 0.61145 0.25924 0.0
C1041 C 0.73099 0.58907 0.29807 0.0
C1042 C 0.74408 0.62734 0.27523 0.0
N1043 N 0.79884 0.54154 0.25229 0.0
C1044 C 0.82245 0.52484 0.23979 0.0
C1045 C 0.81423 0.57836 0.22782 0.0
C1046 C 0.7952 0.56778 0.24792 0.0
C1047 C 0.83744 0.56139 0.213 0.0
C1048 C 0.8417 0.5345 0.21942 0.0
H1049 H 0.73994 0.64828 0.27269 0.0
H1050 H 0.78325 0.64279 0.23535 0.0
H1051 H 0.82404 0.61386 0.20782 0.0
O1052 O 0.79344 0.52649 0.31251 0.0
O1053 O 0.75417 0.55482 0.23906 0.0
O1054 O 0.76404 0.52804 0.20068 0.0
O1055 O 0.75282 0.53748 0.33466 0.0
O1056 O 0.7915 0.48996 0.27589 0.0
O1057 O 0.78627 0.48701 0.22437 0.0
O1058 O 0.71136 0.50981 0.20147 0.0
O1059 O 0.7502 0.47391 0.27419 0.0
O1060 O 0.74908 0.49758 0.31327 0.0
O1061 O 0.7509 0.49265 0.17771 0.0
O1062 O 0.71544 0.53861 0.23821 0.0
O1063 O 0.72148 0.54215 0.28911 0.0
C1064 C 0.76029 0.55102 0.20821 0.0
C1065 C 0.78451 0.51824 0.37083 0.0
C1066 C 0.81632 0.50649 0.40797 0.0
C1067 C 0.79802 0.49925 0.43412 0.0
C1068 C 0.76656 0.51107 0.3973 0.0
C1069 C 0.77351 0.50124 0.42865 0.0
C1070 C 0.80954 0.5151 0.37615 0.0
C1071 C 0.79904 0.47789 0.24984 0.0
C1072 C 0.77664 0.53266 0.33885 0.0
C1073 C 0.78644 0.62194 0.23904 0.0
C1074 C 0.80965 0.60546 0.22331 0.0
C1075 C 0.74862 0.47623 0.30502 0.0
C1076 C 0.71866 0.5158 0.14295 0.0
C1077 C 0.68766 0.52724 0.10468 0.0
C1078 C 0.70596 0.53543 0.07939 0.0
C1079 C 0.73643 0.52417 0.11737 0.0
C1080 C 0.69415 0.51798 0.13669 0.0
C1081 C 0.72994 0.53416 0.08585 0.0
C1082 C 0.70791 0.55054 0.2644 0.0
C1083 C 0.72627 0.50133 0.17498 0.0
H1084 H 0.80206 0.49309 0.45914 0.0
H1085 H 0.74698 0.51367 0.39403 0.0
H1086 H 0.75945 0.49609 0.44908 0.0
H1087 H 0.82331 0.52054 0.35549 0.0
H1088 H 0.70232 0.54198 0.05422 0.0
H1089 H 0.75555 0.52238 0.12148 0.0
H1090 H 0.68056 0.51157 0.15676 0.0
H1091 H 0.7439 0.54018 0.06604 0.0
Tb1092 Tb 0.74301 0.75429 0.97439 0.0
C1093 C 0.76846 0.74903 0.11197 0.0
N1094 N 0.74963 0.76713 0.09527 0.0
C1095 C 0.71907 0.77229 0.14566 0.0
C1096 C 0.76295 0.74119 0.14634 0.0
C1097 C 0.72537 0.77928 0.11155 0.0
C1098 C 0.73789 0.75307 0.16314 0.0
C1099 C 0.8126 0.71791 0.11073 0.0
C1100 C 0.79307 0.73771 0.09425 0.0
C1101 C 0.80715 0.70993 0.14497 0.0
C1102 C 0.78246 0.72163 0.16274 0.0
Tb1103 Tb 0.76287 0.77915 0.04084 0.0
N1104 N 0.79775 0.74601 0.06101 0.0
C1105 C 0.8371 0.70674 0.09238 0.0
C1106 C 0.82216 0.73588 0.04344 0.0
C1107 C 0.8419 0.71586 0.05866 0.0
H1108 H 0.71099 0.7948 0.09845 0.0
H1109 H 0.86103 0.70778 0.0444 0.0
H1110 H 0.79472 0.73255 0.9165 0.0
H1111 H 0.64545 0.82228 0.96465 0.0
H1112 H 0.82734 0.7432 0.01796 0.0
H1113 H 0.85256 0.69138 0.1041 0.0
H1114 H 0.68032 0.78998 0.9937 0.0
H1115 H 0.69976 0.78187 0.15849 0.0
H1116 H 0.82196 0.69476 0.15797 0.0
H1117 H 0.77858 0.71527 0.18915 0.0
H1118 H 0.80757 0.74405 0.85677 0.0
H1119 H 0.73293 0.74763 0.18958 0.0
H1120 H 0.65452 0.83601 0.90425 0.0
N1121 N 0.75797 0.76338 0.91906 0.0
C1122 C 0.73989 0.78158 0.9012 0.0
C1123 C 0.78866 0.75517 0.86902 0.0
C1124 C 0.74583 0.78781 0.86656 0.0
C1125 C 0.78167 0.74931 0.9032 0.0
C1126 C 0.77078 0.77475 0.85063 0.0
N1127 N 0.70983 0.78676 0.9509 0.0
C1128 C 0.685 0.79643 0.96768 0.0
C1129 C 0.69524 0.81122 0.89972 0.0
C1130 C 0.71488 0.79315 0.9175 0.0
C1131 C 0.67013 0.82207 0.91703 0.0
C1132 C 0.66497 0.81449 0.95113 0.0
H1133 H 0.77608 0.77896 0.82406 0.0
H1134 H 0.73075 0.8113 0.82222 0.0
H1135 H 0.68646 0.8318 0.85128 0.0
O1136 O 0.71287 0.73933 0.97878 0.0
O1137 O 0.73464 0.79764 0.96865 0.0
O1138 O 0.76514 0.80347 0.99183 0.0
O1139 O 0.74994 0.72349 0.94872 0.0
O1140 O 0.71696 0.75592 0.02241 0.0
O1141 O 0.72055 0.79093 0.03833 0.0
O1142 O 0.78467 0.79395 0.06063 0.0
O1143 O 0.7548 0.74166 0.05677 0.0
O1144 O 0.76579 0.72298 0.01013 0.0
O1145 O 0.74416 0.81583 0.05636 0.0
O1146 O 0.79192 0.77461 0.99478 0.0
O1147 O 0.78589 0.74469 0.96981 0.0
C1148 C 0.74925 0.81138 0.97003 0.0
C1149 C 0.72565 0.6949 0.9752 0.0
C1150 C 0.69779 0.66803 1.00019 0.0
C1151 C 0.72007 0.64536 0.99709 0.0
C1152 C 0.74755 0.67215 0.97195 0.0
C1153 C 0.74476 0.64749 0.98344 0.0
C1154 C 0.70112 0.69265 0.99015 0.0
C1155 C 0.70787 0.77447 0.04075 0.0
C1156 C 0.7271 0.72121 0.96119 0.0
C1157 C 0.7265 0.80624 0.84881 0.0
C1158 C 0.70125 0.81785 0.86534 0.0
C1159 C 0.76154 0.72086 0.04262 0.0
C1160 C 0.7717 0.84021 0.05233 0.0
C1161 C 0.80132 0.8642 0.02292 0.0
C1162 C 0.78252 0.88734 0.03287 0.0
C1163 C 0.7534 0.86341 0.06241 0.0
C1164 C 0.7958 0.8406 0.0326 0.0
C1165 C 0.75876 0.88688 0.05254 0.0
C1166 C 0.79956 0.75902 0.97228 0.0
C1167 C 0.76548 0.81585 0.06404 0.0
H1168 H 0.7184 0.62595 1.00368 0.0
H1169 H 0.76668 0.67337 0.9603 0.0
H1170 H 0.76164 0.62996 0.9807 0.0
H1171 H 0.68434 0.71033 0.99275 0.0
H1172 H 0.78669 0.90561 0.02668 0.0
H1173 H 0.73501 0.8633 0.07818 0.0
H1174 H 0.81044 0.82267 0.02543 0.0
H1175 H 0.74469 0.90467 0.0607 0.0
Tb1176 Tb 0.47702 1.00633 0.54592 0.0
C1177 C 0.52503 0.04429 0.39273 0.0
N1178 N 0.53604 0.02228 0.41366 0.0
C1179 C 0.55212 0.99739 0.36929 0.0
C1180 C 0.52734 0.0437 0.35896 0.0
C1181 C 0.54939 0.99894 0.40258 0.0
C1182 C 0.54116 0.01989 0.34735 0.0
C1183 C 0.498 0.09023 0.38464 0.0
C1184 C 0.51048 0.06728 0.40546 0.0
C1185 C 0.50083 0.08991 0.35084 0.0
C1186 C 0.51542 0.0667 0.33804 0.0
Tb1187 Tb 0.52931 0.02723 0.46728 0.0
N1188 N 0.5072 0.06663 0.43858 0.0
C1189 C 0.4825 0.11267 0.39854 0.0
C1190 C 0.49179 0.08847 0.45223 0.0
C1191 C 0.47932 0.11172 0.43248 0.0
H1192 H 0.55839 0.98162 0.41927 0.0
H1193 H 0.46702 0.12886 0.44355 0.0
H1194 H 0.44857 0.04515 0.60248 0.0
H1195 H 0.5383 0.90352 0.55407 0.0
H1196 H 0.48824 0.08823 0.4783 0.0
H1197 H 0.47255 0.13068 0.38339 0.0
H1198 H 0.51365 0.94562 0.526 0.0
H1199 H 0.56277 0.97889 0.36055 0.0
H1200 H 0.49143 0.10739 0.33448 0.0
H1201 H 0.51707 0.06667 0.31199 0.0
H1202 H 0.44709 0.04177 0.66222 0.0
H1203 H 0.54331 0.01864 0.32158 0.0
H1204 H 0.53879 0.89688 0.61378 0.0
N1205 N 0.47233 1.00525 0.60116 0.0
C1206 C 0.48527 0.98193 0.61844 0.0
C1207 C 0.45785 0.02478 0.65023 0.0
C1208 C 0.48489 0.97914 0.65258 0.0
C1209 C 0.45882 0.02664 0.61642 0.0
C1210 C 0.4709 1.00091 0.66842 0.0
N1211 N 0.50045 0.96466 0.5684 0.0
C1212 C 0.51369 0.94404 0.55162 0.0
C1213 C 0.51357 0.93661 0.6189 0.0
C1214 C 0.49961 0.96097 0.60166 0.0
C1215 C 0.52782 0.91588 0.60144 0.0
C1216 C 0.52769 0.91958 0.56773 0.0
H1217 H 0.47019 0.99954 0.6946 0.0
H1218 H 0.4987 0.95239 0.69595 0.0
H1219 H 0.52369 0.91514 0.6665 0.0
O1220 O 0.45142 0.99399 0.53069 0.0
O1221 O 0.51482 1.00111 0.55798 0.0
O1222 O 0.53687 0.9943 0.50755 0.0
O1223 O 0.43887 0.01268 0.57372 0.0
O1224 O 0.4878 0.98769 0.50189 0.0
O1225 O 0.52909 0.98706 0.47413 0.0
O1226 O 0.55353 0.04108 0.48324 0.0
O1227 O 0.49045 0.03529 0.45628 0.0
O1228 O 0.46755 0.04078 0.50735 0.0
O1229 O 0.56773 0.02129 0.44091 0.0
O1230 O 0.51534 0.04981 0.50774 0.0
O1231 O 0.4782 0.04561 0.54586 0.0
C1232 C 0.53683 0.99731 0.53739 0.0
C1233 C 0.42179 0.97958 0.5718 0.0
C1234 C 0.40717 0.94534 0.56515 0.0
C1235 C 0.40034 0.93954 0.59953 0.0
C1236 C 0.41522 0.97367 0.6062 0.0
C1237 C 0.40444 0.95369 0.61996 0.0
C1238 C 0.41758 0.9654 0.5515 0.0
C1239 C 0.5075 0.98139 0.47756 0.0
C1240 C 0.4331 1.00021 0.55578 0.0
C1241 C 0.49876 0.9549 0.66972 0.0
C1242 C 0.51302 0.9337 0.65294 0.0
C1243 C 0.46812 0.03953 0.47647 0.0
C1244 C 0.58376 0.05517 0.44261 0.0
C1245 C 0.60014 0.08849 0.4484 0.0
C1246 C 0.60606 0.09446 0.4139 0.0
C1247 C 0.58932 0.06144 0.40813 0.0
C1248 C 0.58908 0.06888 0.46256 0.0
C1249 C 0.60048 0.08105 0.39388 0.0
C1250 C 0.49736 0.0558 0.53394 0.0
C1251 C 0.57253 0.0345 0.45893 0.0
H1252 H 0.39189 0.92417 0.61045 0.0
H1253 H 0.41837 0.98438 0.62231 0.0
H1254 H 0.39923 0.94919 0.64648 0.0
H1255 H 0.42233 0.97002 0.52483 0.0
H1256 H 0.61496 0.10943 0.40253 0.0
H1257 H 0.58517 0.05121 0.39228 0.0
H1258 H 0.58497 0.06403 0.48927 0.0
H1259 H 0.60494 0.08577 0.36729 0.0
Tb1260 Tb 0.48223 0.49617 0.0574 0.0
C1261 C 0.50996 0.54161 0.89627 0.0
N1262 N 0.52555 0.52322 0.91685 0.0
C1263 C 0.54938 0.49947 0.8721 0.0
C1264 C 0.51289 0.53935 0.86293 0.0
C1265 C 0.54588 0.50283 0.90487 0.0
C1266 C 0.53258 0.51763 0.85112 0.0
C1267 C 0.47738 0.58466 0.88707 0.0
C1268 C 0.49262 0.56387 0.90802 0.0
C1269 C 0.47918 0.58206 0.85426 0.0
C1270 C 0.49695 0.55943 0.84217 0.0
Tb1271 Tb 0.51869 0.53091 0.9698 0.0
N1272 N 0.4923 0.56603 0.93933 0.0
C1273 C 0.46173 0.60783 0.89934 0.0
C1274 C 0.4784 0.58921 0.9507 0.0
C1275 C 0.46247 0.61021 0.93123 0.0
H1276 H 0.5591 0.48877 0.92087 0.0
H1277 H 0.45101 0.62827 0.94071 0.0
H1278 H 0.45661 0.53684 0.1118 0.0
H1279 H 0.55998 0.40143 0.05831 0.0
H1280 H 0.47922 0.5912 0.97515 0.0
H1281 H 0.4497 0.62428 0.88406 0.0
H1282 H 0.52913 0.44055 0.03262 0.0
H1283 H 0.56511 0.48296 0.863 0.0
H1284 H 0.4676 0.59779 0.83775 0.0
H1285 H 0.49884 0.55806 0.8165 0.0
H1286 H 0.45991 0.53606 0.16931 0.0
H1287 H 0.53555 0.5152 0.82564 0.0
H1288 H 0.56404 0.39648 0.1166 0.0
N1289 N 0.48534 0.49906 0.1088 0.0
C1290 C 0.50181 0.47737 0.12479 0.0
C1291 C 0.47185 0.51947 0.15704 0.0
C1292 C 0.50409 0.476 0.15774 0.0
C1293 C 0.47014 0.51988 0.12442 0.0
C1294 C 0.48886 0.4974 0.17381 0.0
N1295 N 0.51432 0.45883 0.07582 0.0
C1296 C 0.52991 0.43934 0.05803 0.0
C1297 C 0.53463 0.43418 0.12347 0.0
C1298 C 0.51678 0.45665 0.10782 0.0
C1299 C 0.5501 0.41406 0.10546 0.0
C1300 C 0.54786 0.41677 0.07257 0.0
H1301 H 0.49004 0.49707 0.19915 0.0
H1302 H 0.52335 0.45186 0.19893 0.0
H1303 H 0.55015 0.41532 0.16889 0.0
O1304 O 0.46418 0.46774 0.0801 0.0
O1305 O 0.5176 0.50313 0.06044 0.0
O1306 O 0.53498 0.4985 0.00771 0.0
O1307 O 0.44334 0.50897 0.08119 0.0
O1308 O 0.49492 0.4759 0.01458 0.0
O1309 O 0.5175 0.49287 0.96499 0.0
O1310 O 0.53412 0.56122 0.96377 0.0
O1311 O 0.47627 0.54263 0.98399 0.0
O1312 O 0.46429 0.50732 0.01303 0.0
O1313 O 0.5597 0.52181 0.95556 0.0
O1314 O 0.50648 0.55026 0.01298 0.0
O1315 O 0.47224 0.53902 0.04976 0.0
C1316 C 0.53718 0.50218 0.03625 0.0
C1317 C 0.41858 0.48393 0.07681 0.0
C1318 C 0.3979 0.46377 0.05024 0.0
C1319 C 0.37379 0.48337 0.05773 0.0
C1320 C 0.3941 0.50299 0.08442 0.0
C1321 C 0.37193 0.50273 0.07485 0.0
C1322 C 0.42041 0.46408 0.05981 0.0
C1323 C 0.50735 0.4751 0.98369 0.0
C1324 C 0.44151 0.48556 0.08705 0.0
C1325 C 0.52144 0.45338 0.17355 0.0
C1326 C 0.53668 0.43255 0.15645 0.0
C1327 C 0.46293 0.52682 0.98821 0.0
C1328 C 0.58026 0.55495 0.94774 0.0
C1329 C 0.60028 0.58594 0.95213 0.0
C1330 C 0.62252 0.57369 0.93032 0.0
C1331 C 0.60267 0.54271 0.92645 0.0
C1332 C 0.57917 0.5764 0.96082 0.0
C1333 C 0.62369 0.55216 0.91771 0.0
C1334 C 0.48821 0.55291 0.03938 0.0
C1335 C 0.55778 0.54582 0.95558 0.0
H1336 H 0.35614 0.48316 0.05132 0.0
H1337 H 0.39211 0.51819 0.09783 0.0
H1338 H 0.35315 0.51745 0.08105 0.0
H1339 H 0.43903 0.44892 0.05418 0.0
H1340 H 0.63924 0.58047 0.92351 0.0
H1341 H 0.60375 0.52614 0.9162 0.0
H1342 H 0.56192 0.58575 0.97754 0.0
H1343 H 0.64093 0.54276 0.90111 0.0
H1344 H 0.00283 0.10045 0.00709 0.0
H1345 H 0.98535 0.05509 0.10226 0.0
H1346 H 0.01311 0.12874 0.03337 0.0
H1347 H 0.99528 0.08427 0.12888 0.0
H1348 H 0.982 0.17312 0.14517 0.0
H1349 H 0.97671 0.13521 0.13257 0.0
H1350 H 0.05036 0.12113 0.06579 0.0
H1351 H 0.05639 0.15874 0.07923 0.0
C1352 C 0.00055 0.09677 0.03375 0.0
C1353 C 0.99294 0.07548 0.05252 0.0
C1354 C 0.00695 0.11278 0.04874 0.0
C1355 C 0.00575 0.10816 0.08299 0.0
C1356 C 0.99662 0.08798 0.1023 0.0
C1357 C 0.99035 0.07166 0.08711 0.0
C1358 C 0.99771 0.16144 0.12882 0.0
C1359 C 0.01946 0.16938 0.11264 0.0
C1360 C 0.99455 0.13966 0.12163 0.0
C1361 C 0.01281 0.1257 0.09777 0.0
C1362 C 0.03575 0.132 0.08391 0.0
C1363 C 0.03909 0.15362 0.09137 0.0
H1364 H 0.84565 0.21734 0.46295 0.0
H1365 H 0.81406 0.3016 0.43909 0.0
H1366 H 0.8855 0.21756 0.42265 0.0
H1367 H 0.85341 0.30179 0.398 0.0
H1368 H 0.91411 0.28508 0.30073 0.0
H1369 H 0.87547 0.28465 0.34238 0.0
H1370 H 0.92521 0.23518 0.41317 0.0
H1371 H 0.96422 0.23603 0.37141 0.0
C1372 C 0.84717 0.23591 0.44903 0.0
C1373 C 0.82658 0.25943 0.45439 0.0
C1374 C 0.87009 0.23606 0.42599 0.0
C1375 C 0.87286 0.25969 0.40689 0.0
C1376 C 0.85208 0.2832 0.41207 0.0
C1377 C 0.82952 0.2831 0.43578 0.0
C1378 C 0.91698 0.27407 0.32516 0.0
C1379 C 0.94256 0.26051 0.33245 0.0
C1380 C 0.89467 0.27396 0.34919 0.0
C1381 C 0.897 0.25987 0.38134 0.0
C1382 C 0.92255 0.24614 0.38869 0.0
C1383 C 0.94498 0.24674 0.36476 0.0
H1384 H 0.71894 0.0908 0.67855 0.0
H1385 H 0.8025 0.0643 0.67462 0.0
H1386 H 0.72081 0.13138 0.64134 0.0
H1387 H 0.80459 0.10466 0.63656 0.0
H1388 H 0.79772 0.17035 0.54118 0.0
H1389 H 0.79666 0.12892 0.57766 0.0
H1390 H 0.73126 0.1722 0.64293 0.0
H1391 H 0.73271 0.21335 0.60719 0.0
C1392 C 0.73775 0.09368 0.67 0.0
C1393 C 0.76043 0.07458 0.6809 0.0
C1394 C 0.73884 0.11702 0.64849 0.0
C1395 C 0.76283 0.12166 0.63598 0.0
C1396 C 0.78572 0.10198 0.64562 0.0
C1397 C 0.7845 0.0789 0.66782 0.0
C1398 C 0.78309 0.17101 0.56326 0.0
C1399 C 0.76532 0.19537 0.571 0.0
C1400 C 0.78255 0.14723 0.58435 0.0
C1401 C 0.76381 0.147 0.61339 0.0
C1402 C 0.74585 0.17139 0.62078 0.0
C1403 C 0.74677 0.1951 0.60021 0.0
H1404 H 0.9683 0.9833 0.96479 0.0
H1405 H 0.92433 0.06496 0.96742 0.0
H1406 H 0.9333 0.97799 0.94516 0.0
H1407 H 0.88825 0.05968 0.94898 0.0
H1408 H 0.83906 0.04931 0.88481 0.0
H1409 H 0.8761 0.0532 0.90167 0.0
H1410 H 0.89006 0.97605 0.96096 0.0
H1411 H 0.85418 0.97132 0.94234 0.0
C1412 C 0.95122 1.00022 0.961 0.0
C1413 C 0.9493 0.0246 0.96748 0.0
C1414 C 0.93078 0.99708 0.95019 0.0
C1415 C 0.90775 0.0184 0.94526 0.0
C1416 C 0.90575 0.04282 0.95204 0.0
C1417 C 0.92626 0.04584 0.96304 0.0
C1418 C 0.85024 0.03288 0.90091 0.0
C1419 C 0.84316 0.01006 0.91228 0.0
C1420 C 0.87133 0.03534 0.9111 0.0
C1421 C 0.88596 0.01518 0.93321 0.0
C1422 C 0.87939 0.99206 0.9439 0.0
C1423 C 0.85843 0.98949 0.9335 0.0
H1424 H 0.08426 0.98799 0.00525 0.0
H1425 H 0.03232 0.02507 0.08601 0.0
H1426 H 0.12073 0.9964 0.01919 0.0
H1427 H 0.06824 0.03446 0.0991 0.0
H1428 H 0.14279 0.06676 0.07649 0.0
H1429 H 0.10658 0.06187 0.05755 0.0
H1430 H 0.13743 0.97799 0.08687 0.0
H1431 H 0.17334 0.98279 0.10638 0.0
C1432 C 0.0805 0.99862 0.02531 0.0
C1433 C 0.05529 1.00674 0.04379 0.0
C1434 C 0.10132 1.00329 0.0334 0.0
C1435 C 0.09719 0.01636 0.05997 0.0
C1436 C 0.07188 0.02475 0.07818 0.0
C1437 C 0.05131 0.01951 0.07057 0.0
C1438 C 0.14192 0.04726 0.07873 0.0
C1439 C 0.16103 0.02515 0.09288 0.0
C1440 C 0.12119 0.0445 0.06795 0.0
C1441 C 0.11945 0.01951 0.07041 0.0
C1442 C 0.13854 0.99743 0.08435 0.0
C1443 C 0.15895 1.00022 0.09574 0.0
H1444 H 0.98509 0.48532 0.43144 0.0
H1445 H 0.05499 0.4324 0.46861 0.0
H1446 H 0.98199 0.45068 0.4082 0.0
H1447 H 0.05191 0.39706 0.44583 0.0
H1448 H 0.04271 0.34199 0.38811 0.0
H1449 H 0.05087 0.38012 0.39613 0.0
H1450 H 0.96986 0.41172 0.4404 0.0
H1451 H 0.96137 0.374 0.43132 0.0
C1452 C 0.00017 0.46638 0.43376 0.0
C1453 C 0.02011 0.46133 0.45187 0.0
C1454 C 0.99832 0.4465 0.42074 0.0
C1455 C 0.01631 0.42105 0.42598 0.0
C1456 C 0.03774 0.41655 0.4415 0.0
C1457 C 0.03962 0.43667 0.45441 0.0
C1458 C 0.0265 0.35725 0.39912 0.0
C1459 C 0.00132 0.35499 0.40903 0.0
C1460 C 0.03129 0.37895 0.4039 0.0
C1461 C 0.01104 0.39886 0.41873 0.0
C1462 C 0.9858 0.39679 0.42843 0.0
C1463 C 0.981 0.37504 0.42369 0.0
H1464 H 0.67795 0.31025 0.58628 0.0
H1465 H 0.68077 0.24158 0.55281 0.0
H1466 H 0.63836 0.30917 0.62507 0.0
H1467 H 0.64 0.24212 0.58818 0.0
H1468 H 0.57392 0.23384 0.66933 0.0
H1469 H 0.61461 0.23411 0.63383 0.0
H1470 H 0.59613 0.31541 0.64238 0.0
H1471 H 0.5564 0.31367 0.68046 0.0
C1472 C 0.67021 0.29487 0.58709 0.0
C1473 C 0.68336 0.27567 0.56662 0.0
C1474 C 0.64687 0.29448 0.60915 0.0
C1475 C 0.63512 0.27539 0.61086 0.0
C1476 C 0.64803 0.25679 0.58931 0.0
C1477 C 0.67167 0.25673 0.56815 0.0
C1478 C 0.57903 0.25144 0.66474 0.0
C1479 C 0.56263 0.27304 0.68017 0.0
C1480 C 0.60241 0.25198 0.64323 0.0
C1481 C 0.60985 0.27477 0.63461 0.0
C1482 C 0.59241 0.29696 0.64872 0.0
C1483 C 0.56934 0.29605 0.67098 0.0
H1484 H 0.78806 0.94452 0.83353 0.0
H1485 H 0.70568 0.96408 0.83427 0.0
H1486 H 0.78866 0.90418 0.87176 0.0
H1487 H 0.70576 0.92384 0.87301 0.0
H1488 H 0.71495 0.84009 0.92578 0.0
H1489 H 0.71505 0.87952 0.88592 0.0
H1490 H 0.77985 0.88218 0.92312 0.0
H1491 H 0.7809 0.84155 0.96088 0.0
C1492 C 0.76995 0.94023 0.84182 0.0
C1493 C 0.74696 0.95749 0.82975 0.0
C1494 C 0.77018 0.91692 0.86424 0.0
C1495 C 0.74727 0.90994 0.87607 0.0
C1496 C 0.72413 0.9276 0.86434 0.0
C1497 C 0.724 0.9509 0.84177 0.0
C1498 C 0.72966 0.8486 0.92491 0.0
C1499 C 0.74827 0.83678 0.94631 0.0
C1500 C 0.72943 0.87186 0.90227 0.0
C1501 C 0.74753 0.88472 0.90048 0.0
C1502 C 0.76586 0.87307 0.92253 0.0
C1503 C 0.76629 0.84961 0.94477 0.0
H1504 H 0.15957 0.28275 0.02813 0.0
H1505 H 0.20013 0.26298 0.11072 0.0
H1506 H 0.11932 0.28163 0.06631 0.0
H1507 H 0.16025 0.26402 0.14852 0.0
H1508 H 0.09249 0.24448 0.21515 0.0
H1509 H 0.13124 0.24477 0.17515 0.0
H1510 H 0.08283 0.29733 0.10395 0.0
H1511 H 0.04361 0.29562 0.1443 0.0
C1512 C 0.15993 0.27861 0.0544 0.0
C1513 C 0.18343 0.27347 0.06594 0.0
C1514 C 0.13659 0.27812 0.07659 0.0
C1515 C 0.13578 0.27261 0.11125 0.0
C1516 C 0.1594 0.26773 0.12246 0.0
C1517 C 0.18263 0.26774 0.1004 0.0
C1518 C 0.08995 0.25617 0.19097 0.0
C1519 C 0.06462 0.2702 0.18334 0.0
C1520 C 0.11251 0.2566 0.16771 0.0
C1521 C 0.11095 0.27153 0.1357 0.0
C1522 C 0.08544 0.28533 0.12789 0.0
C1523 C 0.0627 0.28449 0.1512 0.0
H1524 H 0.75649 0.42623 0.29612 0.0
H1525 H 0.74115 0.47084 0.37369 0.0
H1526 H 0.75489 0.38777 0.33648 0.0
H1527 H 0.74007 0.43169 0.41479 0.0
H1528 H 0.76483 0.34928 0.47908 0.0
H1529 H 0.76434 0.38919 0.43986 0.0
H1530 H 0.72874 0.36655 0.37643 0.0
H1531 H 0.72952 0.32644 0.41568 0.0
C1532 C 0.75217 0.42818 0.32183 0.0
C1533 C 0.7481 0.45236 0.33114 0.0
C1534 C 0.75139 0.40574 0.34531 0.0
C1535 C 0.74699 0.40618 0.37941 0.0
C1536 C 0.74356 0.4302 0.38892 0.0
C1537 C 0.74406 0.45288 0.36523 0.0
C1538 C 0.75673 0.3527 0.45687 0.0
C1539 C 0.74716 0.3341 0.45096 0.0
C1540 C 0.75632 0.37594 0.43424 0.0
C1541 C 0.74652 0.3816 0.40448 0.0
C1542 C 0.73681 0.36309 0.39866 0.0
C1543 C 0.73705 0.3399 0.42147 0.0
H1544 H 0.58899 0.98224 0.50974 0.0
H1545 H 0.53414 0.02345 0.58601 0.0
H1546 H 0.62475 0.98984 0.52643 0.0
H1547 H 0.56953 0.03182 0.60155 0.0
H1548 H 0.64399 0.06338 0.58079 0.0
H1549 H 0.60816 0.05747 0.5625 0.0
H1550 H 0.63978 0.97388 0.59361 0.0
H1551 H 0.67557 0.97957 0.61213 0.0
C1552 C 0.58454 0.99305 0.52979 0.0
C1553 C 0.55872 1.00222 0.54643 0.0
C1554 C 0.60493 0.99742 0.53931 0.0
C1555 C 0.59981 0.01146 0.56521 0.0
C1556 C 0.57397 0.02108 0.5814 0.0
C1557 C 0.55374 0.0162 0.57245 0.0
C1558 C 0.64339 0.0437 0.58369 0.0
C1559 C 0.66283 0.02193 0.59786 0.0
C1560 C 0.62282 0.04038 0.57329 0.0
C1561 C 0.62146 0.01518 0.5763 0.0
C1562 C 0.64063 0.99346 0.59066 0.0
C1563 C 0.66096 0.9968 0.60154 0.0
H1564 H 0.03867 0.92293 0.99296 0.0
H1565 H 0.00793 0.98675 0.91681 0.0
H1566 H 0.02777 0.89326 0.96876 0.0
H1567 H 0.99773 0.95671 0.89173 0.0
H1568 H 0.02061 0.86709 0.85941 0.0
H1569 H 0.02533 0.90639 0.86984 0.0
H1570 H 0.97573 0.90014 0.96447 0.0
H1571 H 0.97037 0.86122 0.95395 0.0
C1572 C 0.02992 0.93045 0.9708 0.0
C1573 C 0.02321 0.9571 0.95741 0.0
C1574 C 0.02369 0.91359 0.95698 0.0
C1575 C 0.01107 0.92312 0.92924 0.0
C1576 C 0.00712 0.94914 0.91345 0.0
C1577 C 0.01335 0.96611 0.92745 0.0
C1578 C 0.0098 0.87469 0.88184 0.0
C1579 C 0.99583 0.86059 0.90642 0.0
C1580 C 0.01259 0.89715 0.88775 0.0
C1581 C 0.00153 0.90556 0.91827 0.0
C1582 C 0.98486 0.8935 0.941 0.0
C1583 C 0.98192 0.87123 0.93505 0.0
H1584 H 0.14465 0.06639 0.9878 0.0
H1585 H 0.08563 0.13534 0.94782 0.0
H1586 H 0.15479 0.09317 0.01838 0.0
H1587 H 0.09492 0.1618 0.97893 0.0
H1588 H 0.10831 0.20727 0.03582 0.0
H1589 H 0.09683 0.1685 0.03802 0.0
H1590 H 0.17486 0.13063 0.98942 0.0
H1591 H 0.1859 0.16947 0.9851 0.0
C1592 C 0.13375 0.08721 0.9859 0.0
C1593 C 0.11501 0.09919 0.96478 0.0
C1594 C 0.13924 0.10236 1.00368 0.0
C1595 C 0.12544 0.12945 1.00126 0.0
C1596 C 0.10556 0.14089 0.98171 0.0
C1597 C 0.10057 0.12594 0.96342 0.0
C1598 C 0.12322 0.19045 0.02628 0.0
C1599 C 0.14755 0.19211 0.00872 0.0
C1600 C 0.11672 0.16814 0.02797 0.0
C1601 C 0.13475 0.14698 0.01297 0.0
C1602 C 0.16052 0.14678 1.00094 0.0
C1603 C 0.16684 0.16926 0.99851 0.0
H1604 H 0.6831 0.58207 0.21271 0.0
H1605 H 0.67617 0.57409 0.31792 0.0
H1606 H 0.64499 0.62109 0.21254 0.0
H1607 H 0.63731 0.61271 0.31865 0.0
H1608 H 0.56931 0.68956 0.3163 0.0
H1609 H 0.6085 0.65147 0.31632 0.0
H1610 H 0.60631 0.64936 0.21525 0.0
H1611 H 0.56862 0.68873 0.21499 0.0
C1612 C 0.67322 0.58851 0.2361 0.0
C1613 C 0.68321 0.57454 0.26531 0.0
C1614 C 0.65077 0.61133 0.23618 0.0
C1615 C 0.63669 0.62129 0.26564 0.0
C1616 C 0.64684 0.60693 0.29496 0.0
C1617 C 0.66954 0.58425 0.29473 0.0
C1618 C 0.57757 0.68138 0.29379 0.0
C1619 C 0.56565 0.69312 0.26548 0.0
C1620 C 0.60028 0.65872 0.29383 0.0
C1621 C 0.61196 0.64611 0.2657 0.0
C1622 C 0.59934 0.65776 0.23761 0.0
C1623 C 0.57698 0.68069 0.23746 0.0
H1624 H 0.32587 0.88055 0.4897 0.0
H1625 H 0.37788 0.82681 0.55587 0.0
H1626 H 0.35658 0.90482 0.46836 0.0
H1627 H 0.40853 0.85059 0.53464 0.0
H1628 H 0.44286 0.90558 0.53457 0.0
H1629 H 0.43374 0.879 0.50297 0.0
H1630 H 0.35255 0.92911 0.51293 0.0
H1631 H 0.36186 0.95509 0.54436 0.0
C1632 C 0.34445 0.87325 0.49854 0.0
C1633 C 0.34915 0.85287 0.52562 0.0
C1634 C 0.36214 0.88694 0.48607 0.0
C1635 C 0.38417 0.88048 0.50121 0.0
C1636 C 0.39135 0.8566 0.52308 0.0
C1637 C 0.3736 0.84315 0.53578 0.0
C1638 C 0.42323 0.91093 0.52936 0.0
C1639 C 0.40266 0.93133 0.54298 0.0
C1640 C 0.41814 0.89614 0.51081 0.0
C1641 C 0.39241 0.90165 0.50587 0.0
C1642 C 0.37265 0.92424 0.51614 0.0
C1643 C 0.37771 0.93879 0.53487 0.0
H1644 H 0.05968 0.68209 0.72245 0.0
H1645 H 0.07534 0.69921 0.80808 0.0
H1646 H 0.09769 0.64246 0.72423 0.0
H1647 H 0.11442 0.66129 0.80857 0.0
H1648 H 0.18029 0.58239 0.81717 0.0
H1649 H 0.14082 0.62073 0.81727 0.0
H1650 H 0.13849 0.61695 0.71701 0.0
H1651 H 0.17699 0.57842 0.71782 0.0
C1652 C 0.07135 0.67771 0.74158 0.0
C1653 C 0.06397 0.69468 0.76493 0.0
C1654 C 0.09379 0.65471 0.74249 0.0
C1655 C 0.11043 0.64768 0.76644 0.0
C1656 C 0.1028 0.66483 0.78974 0.0
C1657 C 0.08009 0.68741 0.7892 0.0
C1658 C 0.17139 0.58976 0.79512 0.0
C1659 C 0.18244 0.57679 0.76755 0.0
C1660 C 0.14838 0.61224 0.79496 0.0
C1661 C 0.13532 0.62306 0.76706 0.0
C1662 C 0.14669 0.60987 0.73953 0.0
C1663 C 0.16943 0.58738 0.73987 0.0
H1664 H 0.84536 0.33445 0.55106 0.0
H1665 H 0.81996 0.39433 0.46849 0.0
H1666 H 0.88326 0.34715 0.54584 0.0
H1667 H 0.85853 0.40705 0.46266 0.0
H1668 H 0.87651 0.45539 0.52655 0.0
H1669 H 0.85933 0.43224 0.50022 0.0
H1670 H 0.9207 0.3597 0.5274 0.0
H1671 H 0.93702 0.38317 0.55522 0.0
C1672 C 0.8486 0.34947 0.53062 0.0
C1673 C 0.82916 0.36426 0.51114 0.0
C1674 C 0.87052 0.35683 0.52752 0.0
C1675 C 0.87327 0.37911 0.5049 0.0
C1676 C 0.85636 0.39056 0.48134 0.0
C1677 C 0.83431 0.38326 0.48457 0.0
C1678 C 0.88659 0.43461 0.52621 0.0
C1679 C 0.90764 0.42087 0.54337 0.0
C1680 C 0.87701 0.42128 0.51072 0.0
C1681 C 0.88842 0.39389 0.51193 0.0
C1682 C 0.91109 0.38065 0.52658 0.0
C1683 C 0.9204 0.39399 0.54257 0.0
H1684 H 0.32577 0.94619 0.19723 0.0
H1685 H 0.33074 0.95345 0.29438 0.0
H1686 H 0.3639 0.90704 0.19835 0.0
H1687 H 0.37048 0.91616 0.29451 0.0
H1688 H 0.43827 0.83894 0.29983 0.0
H1689 H 0.39906 0.87715 0.29937 0.0
H1690 H 0.40333 0.879 0.19529 0.0
H1691 H 0.44223 0.84056 0.19654 0.0
C1692 C 0.33462 0.93936 0.21921 0.0
C1693 C 0.32381 0.95311 0.24615 0.0
C1694 C 0.3575 0.91674 0.21965 0.0
C1695 C 0.37151 0.90701 0.2467 0.0
C1696 C 0.36096 0.92151 0.27319 0.0
C1697 C 0.33776 0.94367 0.27301 0.0
C1698 C 0.43086 0.84748 0.27676 0.0
C1699 C 0.44375 0.83582 0.24835 0.0
C1700 C 0.40793 0.86999 0.2763 0.0
C1701 C 0.39665 0.8824 0.24724 0.0
C1702 C 0.41003 0.87072 0.21872 0.0
C1703 C 0.43286 0.84812 0.21931 0.0
H1704 H 0.30656 0.42641 0.7487 0.0
H1705 H 0.35093 0.47305 0.75662 0.0
H1706 H 0.34606 0.38856 0.74432 0.0
H1707 H 0.39071 0.43453 0.75498 0.0
H1708 H 0.46458 0.36542 0.72742 0.0
H1709 H 0.42537 0.40423 0.72933 0.0
H1710 H 0.37766 0.35421 0.76583 0.0
H1711 H 0.41697 0.31589 0.76306 0.0
C1712 C 0.32488 0.42883 0.7488 0.0
C1713 C 0.32523 0.45348 0.75155 0.0
C1714 C 0.34787 0.40659 0.74725 0.0
C1715 C 0.37252 0.40764 0.74912 0.0
C1716 C 0.37272 0.43233 0.75268 0.0
C1717 C 0.34961 0.45469 0.75396 0.0
C1718 C 0.44577 0.36263 0.73589 0.0
C1719 C 0.44435 0.33702 0.74493 0.0
C1720 C 0.4229 0.3852 0.73717 0.0
C1721 C 0.39745 0.38324 0.74772 0.0
C1722 C 0.39627 0.35742 0.75682 0.0
C1723 C 0.41912 0.33499 0.75542 0.0
H1724 H 0.17096 0.75164 0.53812 0.0
H1725 H 0.18602 0.79542 0.59829 0.0
H1726 H 0.13067 0.75105 0.57681 0.0
H1727 H 0.14682 0.79419 0.63705 0.0
H1728 H 0.09109 0.7627 0.71904 0.0
H1729 H 0.12961 0.76388 0.67829 0.0
H1730 H 0.08584 0.77805 0.60017 0.0
H1731 H 0.04668 0.7776 0.64143 0.0
C1732 C 0.16592 0.76115 0.55953 0.0
C1733 C 0.18246 0.77347 0.56482 0.0
C1734 C 0.14262 0.76087 0.58177 0.0
C1735 C 0.13531 0.77234 0.61055 0.0
C1736 C 0.15173 0.78473 0.61563 0.0
C1737 C 0.17455 0.78551 0.59308 0.0
C1738 C 0.08933 0.76642 0.69325 0.0
C1739 C 0.06529 0.77028 0.68389 0.0
C1740 C 0.11168 0.76704 0.66966 0.0
C1741 C 0.11114 0.77119 0.63559 0.0
C1742 C 0.08727 0.77459 0.62607 0.0
C1743 C 0.06469 0.77433 0.64982 0.0
H1744 H 0.20563 0.96035 0.32847 0.0
H1745 H 0.28609 0.9416 0.33772 0.0
H1746 H 0.20427 0.91952 0.36551 0.0
H1747 H 0.28409 0.90192 0.3773 0.0
H1748 H 0.25789 0.84769 0.47401 0.0
H1749 H 0.26005 0.88786 0.43568 0.0
H1750 H 0.22585 0.86877 0.36754 0.0
H1751 H 0.22494 0.828 0.40519 0.0
C1752 C 0.22326 0.94726 0.33765 0.0
C1753 C 0.24628 0.954 0.32839 0.0
C1754 C 0.22236 0.92394 0.35958 0.0
C1755 C 0.24415 0.90694 0.37448 0.0
C1756 C 0.26687 0.91427 0.36645 0.0
C1757 C 0.26799 0.93719 0.34365 0.0
C1758 C 0.25071 0.85201 0.45098 0.0
C1759 C 0.24096 0.83437 0.44319 0.0
C1760 C 0.25212 0.87511 0.42875 0.0
C1761 C 0.24305 0.88193 0.39825 0.0
C1762 C 0.23291 0.86449 0.39072 0.0
C1763 C 0.23236 0.84097 0.41245 0.0
H1764 H 0.05091 0.65609 0.58361 0.0
H1765 H 0.9688 0.68836 0.62341 0.0
H1766 H 0.04274 0.61931 0.57141 0.0
H1767 H 0.96094 0.651 0.61285 0.0
H1768 H 0.95512 0.60432 0.5371 0.0
H1769 H 0.95932 0.63677 0.56391 0.0
H1770 H 0.03089 0.5803 0.59479 0.0
H1771 H 0.02716 0.54878 0.56635 0.0
C1772 C 0.0312 0.65521 0.59002 0.0
C1773 C 0.01054 0.67518 0.60436 0.0
C1774 C 0.02656 0.63394 0.58353 0.0
C1775 C 0.00114 0.63223 0.59125 0.0
C1776 C 0.98065 0.65186 0.60638 0.0
C1777 C 0.98527 0.67314 0.61271 0.0
C1778 C 0.97129 0.59882 0.55038 0.0
C1779 C 0.99098 0.57437 0.54954 0.0
C1780 C 0.97374 0.61727 0.5658 0.0
C1781 C 0.99578 0.61126 0.58088 0.0
C1782 C 0.01411 0.58578 0.5826 0.0
C1783 C 0.01187 0.56764 0.56665 0.0
H1784 H 0.34399 0.71635 0.45769 0.0
H1785 H 0.30935 0.79903 0.42343 0.0
H1786 H 0.38504 0.71638 0.41965 0.0
H1787 H 0.34977 0.79889 0.38464 0.0
H1788 H 0.41529 0.77943 0.29343 0.0
H1789 H 0.37581 0.77842 0.33293 0.0
H1790 H 0.42253 0.73751 0.40965 0.0
H1791 H 0.46245 0.73892 0.36991 0.0
C1792 C 0.345 0.73444 0.44174 0.0
C1793 C 0.3232 0.75764 0.44354 0.0
C1794 C 0.36863 0.73453 0.42011 0.0
C1795 C 0.37091 0.75764 0.39885 0.0
C1796 C 0.34888 0.78069 0.4004 0.0
C1797 C 0.32564 0.78077 0.4227 0.0
C1798 C 0.41737 0.77013 0.31868 0.0
C1799 C 0.44239 0.75912 0.32817 0.0
C1800 C 0.39453 0.76969 0.34148 0.0
C1801 C 0.39574 0.75783 0.37467 0.0
C1802 C 0.42074 0.74665 0.3843 0.0
C1803 C 0.44368 0.74758 0.36151 0.0
H1804 H 0.22359 0.09918 0.20431 0.0
H1805 H 0.29704 0.05503 0.15193 0.0
H1806 H 0.22414 0.13887 0.16433 0.0
H1807 H 0.29809 0.09516 0.11212 0.0
H1808 H 0.30217 0.18119 0.07031 0.0
H1809 H 0.30232 0.1402 0.10847 0.0
H1810 H 0.22061 0.15846 0.10506 0.0
H1811 H 0.22055 0.1991 0.06683 0.0
C1812 C 0.2398 0.09784 0.18398 0.0
C1813 C 0.25999 0.07354 0.18114 0.0
C1814 C 0.24014 0.12076 0.16093 0.0
C1815 C 0.26112 0.12061 0.13456 0.0
C1816 C 0.28155 0.09631 0.13193 0.0
C1817 C 0.28084 0.07312 0.15459 0.0
C1818 C 0.28419 0.17654 0.07773 0.0
C1819 C 0.26132 0.19387 0.06534 0.0
C1820 C 0.28432 0.1528 0.09952 0.0
C1821 C 0.26146 0.14566 0.11025 0.0
C1822 C 0.23861 0.16308 0.09786 0.0
C1823 C 0.23861 0.1865 0.07565 0.0
H1824 H 0.83275 0.72017 0.93568 0.0
H1825 H 0.82539 0.795 0.95685 0.0
H1826 H 0.87218 0.72046 0.8956 0.0
H1827 H 0.86583 0.79444 0.91879 0.0
H1828 H 0.9241 0.8006 0.82261 0.0
H1829 H 0.88505 0.80018 0.86346 0.0
H1830 H 0.91684 0.71557 0.88554 0.0
H1831 H 0.95596 0.71641 0.84451 0.0
C1832 C 0.8393 0.73687 0.93162 0.0
C1833 C 0.82506 0.75793 0.94904 0.0
C1834 C 0.86245 0.7368 0.90896 0.0
C1835 C 0.87261 0.75757 0.90326 0.0
C1836 C 0.85869 0.77828 0.92149 0.0
C1837 C 0.83543 0.77846 0.94383 0.0
C1838 C 0.92291 0.78196 0.83662 0.0
C1839 C 0.94348 0.75861 0.83071 0.0
C1840 C 0.9004 0.78164 0.86024 0.0
C1841 C 0.89731 0.75783 0.87844 0.0
C1842 C 0.91802 0.73438 0.87222 0.0
C1843 C 0.94076 0.7348 0.84889 0.0
H1844 H 0.24102 0.60656 0.71824 0.0
H1845 H 0.27726 0.55805 0.64257 0.0
H1846 H 0.2433 0.64489 0.67879 0.0
H1847 H 0.28052 0.59699 0.6022 0.0
H1848 H 0.26736 0.67593 0.52948 0.0
H1849 H 0.26541 0.63581 0.5676 0.0
H1850 H 0.26452 0.67141 0.64864 0.0
H1851 H 0.26459 0.71157 0.61097 0.0
C1852 C 0.24988 0.60387 0.69305 0.0
C1853 C 0.2592 0.57866 0.68413 0.0
C1854 C 0.25143 0.62629 0.67 0.0
C1855 C 0.2626 0.62486 0.63654 0.0
C1856 C 0.27161 0.59958 0.62736 0.0
C1857 C 0.26987 0.57694 0.65068 0.0
C1858 C 0.26675 0.67516 0.55548 0.0
C1859 C 0.26617 0.69738 0.56676 0.0
C1860 C 0.26576 0.65185 0.57763 0.0
C1861 C 0.2645 0.64961 0.61203 0.0
C1862 C 0.2646 0.67182 0.62292 0.0
C1863 C 0.26505 0.69517 0.60094 0.0
H1864 H 0.33615 0.99634 0.46227 0.0
H1865 H 0.35028 0.04448 0.36823 0.0
H1866 H 0.37492 0.99827 0.47764 0.0
H1867 H 0.3893 0.04609 0.38345 0.0
H1868 H 0.46764 0.03011 0.41603 0.0
H1869 H 0.43342 0.02194 0.39795 0.0
H1870 H 0.38382 0.03525 0.4918 0.0
H1871 H 0.41788 0.04443 0.5096 0.0
C1872 C 0.34768 1.00712 0.44469 0.0
C1873 C 0.33964 0.02087 0.41431 0.0
C1874 C 0.36987 1.00828 0.45359 0.0
C1875 C 0.38477 0.023 0.43221 0.0
C1876 C 0.37814 0.03474 0.40064 0.0
C1877 C 0.3558 0.03373 0.39181 0.0
C1878 C 0.44935 0.03161 0.43286 0.0
C1879 C 0.44582 0.03731 0.46483 0.0
C1880 C 0.42975 0.02678 0.4224 0.0
C1881 C 0.40599 0.02753 0.44353 0.0
C1882 C 0.40215 0.03388 0.47515 0.0
C1883 C 0.42164 0.03918 0.48541 0.0
H1884 H 0.81531 0.8961 0.96749 0.0
H1885 H 0.84694 0.8339 0.0447 0.0
H1886 H 0.85236 0.91142 0.9604 0.0
H1887 H 0.88354 0.84923 0.03827 0.0
H1888 H 0.93338 0.89109 0.04704 0.0
H1889 H 0.91897 0.8669 0.01769 0.0
H1890 H 0.8496 0.93463 1.00359 0.0
H1891 H 0.86447 0.95849 0.03194 0.0
C1892 C 0.83092 0.88493 0.98174 0.0
C1893 C 0.82789 0.8646 0.00755 0.0
C1894 C 0.85206 0.89374 0.97784 0.0
C1895 C 0.87007 0.88245 1.00006 0.0
C1896 C 0.86976 0.85878 0.02117 0.0
C1897 C 0.84869 0.8499 0.02492 0.0
C1898 C 0.9153 0.90072 0.03706 0.0
C1899 C 0.89958 0.92627 0.04229 0.0
C1900 C 0.90715 0.88703 0.02011 0.0
C1901 C 0.88303 0.89867 0.00847 0.0
C1902 C 0.86845 0.92503 0.0117 0.0
C1903 C 0.87667 0.93866 0.02844 0.0
H1904 H 0.62843 0.21009 0.46755 0.0
H1905 H 0.68758 0.15139 0.52065 0.0
H1906 H 0.60082 0.18282 0.48537 0.0
H1907 H 0.65976 0.12392 0.53889 0.0
H1908 H 0.64818 0.08045 0.46025 0.0
H1909 H 0.66028 0.10531 0.49036 0.0
H1910 H 0.57862 0.15087 0.51563 0.0
H1911 H 0.56666 0.12529 0.48546 0.0
C1912 C 0.63491 0.19187 0.48442 0.0
C1913 C 0.6605 0.18215 0.4914 0.0
C1914 C 0.61896 0.17629 0.49504 0.0
C1915 C 0.62877 0.15063 0.51208 0.0
C1916 C 0.65212 0.14331 0.52482 0.0
C1917 C 0.66808 0.15901 0.5143 0.0
C1918 C 0.63287 0.09541 0.47287 0.0
C1919 C 0.60669 0.10168 0.46987 0.0
C1920 C 0.63965 0.10934 0.49073 0.0
C1921 C 0.62037 0.13022 0.50533 0.0
C1922 C 0.59386 0.13493 0.50463 0.0
C1923 C 0.58706 0.12062 0.4871 0.0
H1924 H 0.83388 0.45675 0.1963 0.0
H1925 H 0.82104 0.44403 0.30243 0.0
H1926 H 0.87349 0.41875 0.19612 0.0
H1927 H 0.85977 0.40534 0.30297 0.0
H1928 H 0.9385 0.34008 0.30156 0.0
H1929 H 0.90002 0.37911 0.30117 0.0
H1930 H 0.90135 0.37912 0.19835 0.0
H1931 H 0.94112 0.34162 0.19859 0.0
C1932 C 0.83928 0.44559 0.21977 0.0
C1933 C 0.82378 0.45382 0.24932 0.0
C1934 C 0.86239 0.42329 0.21985 0.0
C1935 C 0.87105 0.40776 0.24957 0.0
C1936 C 0.85512 0.41617 0.27915 0.0
C1937 C 0.83231 0.43869 0.27897 0.0
C1938 C 0.93075 0.34857 0.2787 0.0
C1939 C 0.9432 0.33692 0.25023 0.0
C1940 C 0.90799 0.37121 0.27847 0.0
C1941 C 0.89617 0.3833 0.24978 0.0
C1942 C 0.90899 0.37149 0.22125 0.0
C1943 C 0.93201 0.34917 0.22142 0.0
H1944 H 0.10081 0.61948 0.43208 0.0
H1945 H 0.09555 0.57864 0.53224 0.0
H1946 H 0.10805 0.65448 0.44969 0.0
H1947 H 0.10442 0.61313 0.55007 0.0
H1948 H 0.13152 0.70906 0.47002 0.0
H1949 H 0.09668 0.68954 0.48707 0.0
H1950 H 0.15153 0.617 0.5279 0.0
H1951 H 0.18607 0.63666 0.51097 0.0
C1952 C 0.10027 0.61854 0.45813 0.0
C1953 C 0.09853 0.59614 0.48072 0.0
C1954 C 0.10425 0.63863 0.46836 0.0
C1955 C 0.10707 0.63636 0.50126 0.0
C1956 C 0.10248 0.61523 0.52456 0.0
C1957 C 0.09793 0.59533 0.51432 0.0
C1958 C 0.13559 0.68942 0.48421 0.0
C1959 C 0.16128 0.67397 0.48859 0.0
C1960 C 0.11571 0.67833 0.49413 0.0
C1961 C 0.12166 0.65159 0.50787 0.0
C1962 C 0.1464 0.63764 0.51725 0.0
C1963 C 0.16627 0.64875 0.50732 0.0
H1964 H 0.70084 0.10397 0.72986 0.0
H1965 H 0.65855 0.05912 0.80216 0.0
H1966 H 0.66169 0.14283 0.73042 0.0
H1967 H 0.61871 0.09791 0.80253 0.0
H1968 H 0.55301 0.17843 0.81417 0.0
H1969 H 0.59249 0.13925 0.81603 0.0
H1970 H 0.62159 0.16584 0.71483 0.0
H1971 H 0.58243 0.20439 0.71363 0.0
C1972 C 0.68302 0.10227 0.74568 0.0
C1973 C 0.6832 0.07805 0.76577 0.0
C1974 C 0.66019 0.1248 0.74603 0.0
C1975 C 0.63612 0.12423 0.76629 0.0
C1976 C 0.63645 0.09988 0.78673 0.0
C1977 C 0.65948 0.07734 0.7865 0.0
C1978 C 0.5679 0.17592 0.79236 0.0
C1979 C 0.56413 0.19502 0.76363 0.0
C1980 C 0.59073 0.15314 0.79326 0.0
C1981 C 0.6111 0.14864 0.76564 0.0
C1982 C 0.60714 0.16802 0.73705 0.0
C1983 C 0.58422 0.19039 0.73609 0.0
H1984 H 0.73471 0.60257 0.21389 0.0
H1985 H 0.78505 0.55403 0.14232 0.0
H1986 H 0.73436 0.64146 0.17412 0.0
H1987 H 0.78618 0.59354 0.102 0.0
H1988 H 0.77295 0.67107 0.02679 0.0
H1989 H 0.77197 0.63035 0.06443 0.0
H1990 H 0.75154 0.67134 0.14727 0.0
H1991 H 0.74966 0.71146 0.11005 0.0
C1992 C 0.74617 0.60013 0.1896 0.0
C1993 C 0.76017 0.57479 0.18181 0.0
C1994 C 0.74624 0.62285 0.16638 0.0
C1995 C 0.76078 0.62156 0.13412 0.0
C1996 C 0.77452 0.59603 0.12612 0.0
C1997 C 0.77403 0.5731 0.14944 0.0
C1998 C 0.76804 0.67133 0.05308 0.0
C1999 C 0.76191 0.69496 0.06496 0.0
C2000 C 0.7677 0.64769 0.07501 0.0
C2001 C 0.76153 0.64668 0.10975 0.0
C2002 C 0.75572 0.67047 0.1212 0.0
C2003 C 0.75536 0.69393 0.09943 0.0
H2004 H 0.96228 0.53184 0.40885 0.0
H2005 H 0.91829 0.53519 0.50749 0.0
H2006 H 0.92872 0.52112 0.39273 0.0
H2007 H 0.88521 0.52312 0.49163 0.0
H2008 H 0.84696 0.47499 0.45496 0.0
H2009 H 0.88362 0.48181 0.46974 0.0
H2010 H 0.87935 0.54683 0.38953 0.0
H2011 H 0.84197 0.54157 0.37593 0.0
C2012 C 0.94556 0.53009 0.42724 0.0
C2013 C 0.94355 0.53323 0.45996 0.0
C2014 C 0.92643 0.52382 0.41797 0.0
C2015 C 0.90478 0.52065 0.44116 0.0
C2016 C 0.90216 0.52472 0.47354 0.0
C2017 C 0.92107 0.5316 0.48261 0.0
C2018 C 0.85362 0.49089 0.44057 0.0
C2019 C 0.84104 0.50785 0.41439 0.0
C2020 C 0.8747 0.49465 0.449 0.0
C2021 C 0.88402 0.515 0.43096 0.0
C2022 C 0.87256 0.53094 0.40376 0.0
C2023 C 0.85118 0.52764 0.3958 0.0
H2024 H 0.15971 0.54438 0.56234 0.0
H2025 H 0.15545 0.48626 0.64966 0.0
H2026 H 0.12312 0.53888 0.54679 0.0
H2027 H 0.11739 0.48186 0.63477 0.0
H2028 H 0.03786 0.49773 0.59526 0.0
H2029 H 0.07081 0.50218 0.62108 0.0
H2030 H 0.12204 0.50216 0.52678 0.0
H2031 H 0.08923 0.49812 0.50144 0.0
C2032 C 0.15038 0.53101 0.57874 0.0
C2033 C 0.16092 0.51516 0.60666 0.0
C2034 C 0.12923 0.52802 0.56994 0.0
C2035 C 0.11759 0.50966 0.58922 0.0
C2036 C 0.12612 0.496 0.61926 0.0
C2037 C 0.14779 0.49863 0.62786 0.0
C2038 C 0.05664 0.4974 0.58057 0.0
C2039 C 0.06116 0.49723 0.54645 0.0
C2040 C 0.07534 0.50042 0.59519 0.0
C2041 C 0.09874 0.50321 0.57579 0.0
C2042 C 0.10392 0.50083 0.54228 0.0
C2043 C 0.08534 0.498 0.52783 0.0
H2044 H 0.59419 0.74669 0.21584 0.0
H2045 H 0.54488 0.7977 0.14521 0.0
H2046 H 0.63304 0.74861 0.17581 0.0
H2047 H 0.58427 0.79956 0.10462 0.0
H2048 H 0.66337 0.81683 0.05429 0.0
H2049 H 0.62294 0.81653 0.09356 0.0
H2050 H 0.65736 0.733 0.12341 0.0
H2051 H 0.69714 0.73333 0.08375 0.0
C2052 C 0.59152 0.75842 0.19171 0.0
C2053 C 0.56608 0.77214 0.18407 0.0
C2054 C 0.61401 0.75936 0.16853 0.0
C2055 C 0.6121 0.77423 0.13669 0.0
C2056 C 0.58667 0.78805 0.1289 0.0
C2057 C 0.56401 0.78683 0.15212 0.0
C2058 C 0.66228 0.79848 0.06942 0.0
C2059 C 0.68361 0.77516 0.06592 0.0
C2060 C 0.639 0.79822 0.09176 0.0
C2061 C 0.63663 0.77474 0.11194 0.0
C2062 C 0.65827 0.75153 0.10865 0.0
C2063 C 0.68115 0.75169 0.08577 0.0
H2064 H 0.65792 0.55993 0.05749 0.0
H2065 H 0.66101 0.49231 0.13434 0.0
H2066 H 0.62254 0.55395 0.03953 0.0
H2067 H 0.62386 0.48823 0.11853 0.0
H2068 H 0.57992 0.46577 0.05865 0.0
H2069 H 0.61481 0.47307 0.07693 0.0
H2070 H 0.57831 0.55677 0.05039 0.0
H2071 H 0.54516 0.54932 0.02985 0.0
C2072 C 0.65102 0.54393 0.07085 0.0
C2073 C 0.66308 0.52628 0.09699 0.0
C2074 C 0.63025 0.54079 0.06085 0.0
C2075 C 0.62045 0.52029 0.07716 0.0
C2076 C 0.63133 0.50374 0.10465 0.0
C2077 C 0.65246 0.5065 0.1142 0.0
C2078 C 0.58004 0.48564 0.05563 0.0
C2079 C 0.56025 0.50678 0.04177 0.0
C2080 C 0.59968 0.48995 0.06676 0.0
C2081 C 0.59966 0.51563 0.06494 0.0
C2082 C 0.57966 0.53676 0.05115 0.0
C2083 C 0.56036 0.5324 0.0395 0.0
H2084 H 0.41193 0.4123 0.07721 0.0
H2085 H 0.38294 0.46612 0.99203 0.0
H2086 H 0.40255 0.3777 0.06078 0.0
H2087 H 0.37413 0.43109 0.9751 0.0
H2088 H 0.39618 0.32897 0.97431 0.0
H2089 H 0.40892 0.36694 0.97339 0.0
H2090 H 0.34328 0.39316 0.0492 0.0
H2091 H 0.33076 0.35524 0.05133 0.0
C2092 C 0.4046 0.41638 0.05426 0.0
C2093 C 0.39832 0.44176 0.03576 0.0
C2094 C 0.39915 0.39667 0.04495 0.0
C2095 C 0.38771 0.40188 0.01674 0.0
C2096 C 0.3831 0.42669 0.99685 0.0
C2097 C 0.38817 0.4466 0.00647 0.0
C2098 C 0.38425 0.34299 0.99052 0.0
C2099 C 0.36276 0.33862 0.01345 0.0
C2100 C 0.39151 0.36475 0.98972 0.0
C2101 C 0.37729 0.38252 0.01154 0.0
C2102 C 0.35456 0.37952 0.03226 0.0
C2103 C 0.34733 0.35783 0.03323 0.0
H2104 H 0.07018 0.19184 0.2139 0.0
H2105 H 0.06475 0.1877 0.3181 0.0
H2106 H 0.10914 0.15362 0.21392 0.0
H2107 H 0.10351 0.14904 0.31901 0.0
H2108 H 0.1796 0.07927 0.3174 0.0
H2109 H 0.14145 0.11868 0.31732 0.0
H2110 H 0.13913 0.11615 0.21649 0.0
H2111 H 0.17798 0.0783 0.21643 0.0
C2112 C 0.0772 0.18262 0.23711 0.0
C2113 C 0.06392 0.19351 0.26593 0.0
C2114 C 0.10006 0.1601 0.23733 0.0
C2115 C 0.11087 0.14683 0.26656 0.0
C2116 C 0.09713 0.15783 0.29548 0.0
C2117 C 0.07437 0.18052 0.29512 0.0
C2118 C 0.17131 0.08748 0.29496 0.0
C2119 C 0.1828 0.07524 0.26681 0.0
C2120 C 0.14864 0.11037 0.2949 0.0
C2121 C 0.13584 0.12202 0.26682 0.0
C2122 C 0.14745 0.10924 0.23889 0.0
C2123 C 0.17023 0.08674 0.23886 0.0
H2124 H 0.28389 0.33664 0.95548 0.0
H2125 H 0.2094 0.34432 0.93372 0.0
H2126 H 0.28352 0.37701 0.91806 0.0
H2127 H 0.21014 0.38305 0.89327 0.0
H2128 H 0.20682 0.46316 0.83208 0.0
H2129 H 0.20586 0.4239 0.87174 0.0
H2130 H 0.28885 0.40328 0.87181 0.0
H2131 H 0.28894 0.44321 0.83351 0.0
C2132 C 0.26751 0.34667 0.94222 0.0
C2133 C 0.24704 0.33629 0.94734 0.0
C2134 C 0.26742 0.37008 0.91994 0.0
C2135 C 0.24704 0.38416 0.90106 0.0
C2136 C 0.22638 0.37373 0.9067 0.0
C2137 C 0.22618 0.3507 0.9297 0.0
C2138 C 0.22488 0.45009 0.84043 0.0
C2139 C 0.24794 0.45657 0.82906 0.0
C2140 C 0.22448 0.42713 0.86353 0.0
C2141 C 0.2473 0.40928 0.87608 0.0
C2142 C 0.27044 0.41599 0.86424 0.0
C2143 C 0.27064 0.43917 0.84164 0.0
H2144 H 0.3111 0.25992 0.90175 0.0
H2145 H 0.34779 0.25233 0.98412 0.0
H2146 H 0.35122 0.25824 0.86466 0.0
H2147 H 0.3881 0.25371 0.94626 0.0
H2148 H 0.4654 0.24032 0.87013 0.0
H2149 H 0.4264 0.23845 0.91108 0.0
H2150 H 0.37819 0.27828 0.83519 0.0
H2151 H 0.41641 0.27817 0.79536 0.0
C2152 C 0.32775 0.25791 0.9122 0.0
C2153 C 0.3258 0.25578 0.94648 0.0
C2154 C 0.35113 0.25762 0.89043 0.0
C2155 C 0.37367 0.2564 0.90157 0.0
C2156 C 0.37174 0.25442 0.93604 0.0
C2157 C 0.34833 0.25386 0.95804 0.0
C2158 C 0.44641 0.24845 0.86231 0.0
C2159 C 0.44452 0.25909 0.82887 0.0
C2160 C 0.42377 0.24756 0.88597 0.0
C2161 C 0.3984 0.25767 0.87708 0.0
C2162 C 0.39683 0.26913 0.84377 0.0
C2163 C 0.41922 0.26949 0.82041 0.0
H2164 H 0.47465 0.50561 0.93264 0.0
H2165 H 0.41151 0.55524 0.99347 0.0
H2166 H 0.44312 0.50059 0.90486 0.0
H2167 H 0.37992 0.55185 0.96447 0.0
H2168 H 0.33132 0.5524 0.89233 0.0
H2169 H 0.36734 0.56109 0.90563 0.0
H2170 H 0.40645 0.47787 0.9314 0.0
H2171 H 0.37042 0.46897 0.91787 0.0
C2172 C 0.45405 0.51585 0.93947 0.0
C2173 C 0.44532 0.5305 0.9653 0.0
C2174 C 0.43606 0.51309 0.92359 0.0
C2175 C 0.40909 0.52568 0.93276 0.0
C2176 C 0.40062 0.54204 0.95684 0.0
C2177 C 0.4186 0.54415 0.97328 0.0
C2178 C 0.34778 0.53588 0.90025 0.0
C2179 C 0.34784 0.50996 0.90438 0.0
C2180 C 0.36833 0.54092 0.90797 0.0
C2181 C 0.38951 0.52019 0.91971 0.0
C2182 C 0.39034 0.49422 0.92226 0.0
C2183 C 0.3696 0.48915 0.9149 0.0
H2184 H 0.68102 0.62965 0.04343 0.0
H2185 H 0.65302 0.70232 0.97665 0.0
H2186 H 0.64319 0.61877 0.04101 0.0
H2187 H 0.61439 0.69239 0.97676 0.0
H2188 H 0.6122 0.62942 0.91953 0.0
H2189 H 0.62252 0.65929 0.94333 0.0
H2190 H 0.59764 0.62225 0.04134 0.0
H2191 H 0.58708 0.59235 0.01695 0.0
C2192 C 0.66644 0.64375 0.02919 0.0
C2193 C 0.67098 0.66611 0.00884 0.0
C2194 C 0.64437 0.63777 0.02839 0.0
C2195 C 0.62637 0.6543 0.00754 0.0
C2196 C 0.62841 0.67892 0.99223 0.0
C2197 C 0.65071 0.68464 0.9924 0.0
C2198 C 0.60828 0.62813 0.94612 0.0
C2199 C 0.59988 0.60795 0.96647 0.0
C2200 C 0.61382 0.64551 0.95989 0.0
C2201 C 0.61139 0.6428 0.99436 0.0
C2202 C 0.60009 0.62452 0.01472 0.0
C2203 C 0.59417 0.60734 1.0008 0.0
H2204 H 0.93606 0.84104 0.79872 0.0
H2205 H 0.93866 0.84184 0.69599 0.0
H2206 H 0.89787 0.87957 0.79836 0.0
H2207 H 0.89993 0.88038 0.69493 0.0
H2208 H 0.82779 0.95426 0.69463 0.0
H2209 H 0.86609 0.91514 0.69432 0.0
H2210 H 0.86391 0.91301 0.79811 0.0
H2211 H 0.82575 0.95125 0.79782 0.0
C2212 C 0.92838 0.84943 0.7758 0.0
C2213 C 0.94064 0.8375 0.74757 0.0
C2214 C 0.90583 0.87213 0.77541 0.0
C2215 C 0.89423 0.88447 0.74658 0.0
C2216 C 0.90703 0.87248 0.71813 0.0
C2217 C 0.92964 0.8497 0.71864 0.0
C2218 C 0.83514 0.94499 0.71758 0.0
C2219 C 0.82251 0.95589 0.74651 0.0
C2220 C 0.85783 0.92221 0.7175 0.0
C2221 C 0.86942 0.90932 0.7463 0.0
C2222 C 0.85677 0.92095 0.77497 0.0
C2223 C 0.83417 0.94352 0.77497 0.0
H2224 H 0.48192 0.17746 0.63874 0.0
H2225 H 0.5588 0.16294 0.57884 0.0
H2226 H 0.47909 0.13819 0.62661 0.0
H2227 H 0.55589 0.12329 0.56676 0.0
H2228 H 0.51844 0.09415 0.50473 0.0
H2229 H 0.52768 0.12341 0.53047 0.0
H2230 H 0.49385 0.09053 0.62589 0.0
H2231 H 0.48408 0.06116 0.59969 0.0
C2232 C 0.49864 0.16542 0.62385 0.0
C2233 C 0.52036 0.17369 0.60903 0.0
C2234 C 0.49697 0.14282 0.61694 0.0
C2235 C 0.51691 0.12812 0.59494 0.0
C2236 C 0.53986 0.13479 0.58299 0.0
C2237 C 0.54152 0.15746 0.58984 0.0
C2238 C 0.5125 0.09326 0.53115 0.0
C2239 C 0.49967 0.0757 0.54998 0.0
C2240 C 0.51839 0.10974 0.54603 0.0
C2241 C 0.51195 0.10899 0.58029 0.0
C2242 C 0.49898 0.0916 0.59935 0.0
C2243 C 0.49292 0.07509 0.58429 0.0
H2244 H 0.44949 0.36276 0.94398 0.0
H2245 H 0.5212 0.35675 0.87459 0.0
H2246 H 0.45152 0.40195 0.95878 0.0
H2247 H 0.52341 0.39527 0.88919 0.0
H2248 H 0.5166 0.4715 0.91744 0.0
H2249 H 0.50621 0.44183 0.89288 0.0
H2250 H 0.48243 0.40329 0.99027 0.0
H2251 H 0.49229 0.43291 0.01472 0.0
C2252 C 0.46535 0.37006 0.93164 0.0
C2253 C 0.4852 0.35658 0.90856 0.0
C2254 C 0.46658 0.39241 0.93995 0.0
C2255 C 0.48794 0.40134 0.92553 0.0
C2256 C 0.50665 0.38902 0.90059 0.0
C2257 C 0.50536 0.36682 0.8923 0.0
C2258 C 0.50962 0.45648 0.93364 0.0
C2259 C 0.50539 0.45475 0.96813 0.0
C2260 C 0.5033 0.43968 0.91952 0.0
C2261 C 0.49293 0.42062 0.93968 0.0
C2262 C 0.48955 0.41834 0.97404 0.0
C2263 C 0.4957 0.43511 0.98806 0.0
H2264 H 0.52951 0.8541 0.37447 0.0
H2265 H 0.45669 0.8659 0.44335 0.0
H2266 H 0.53198 0.89465 0.38289 0.0
H2267 H 0.46058 0.90515 0.45414 0.0
H2268 H 0.46348 0.98004 0.46267 0.0
H2269 H 0.4588 0.94848 0.43585 0.0
H2270 H 0.54268 0.90903 0.42409 0.0
H2271 H 0.5474 0.94233 0.44856 0.0
C2272 C 0.5138 0.86542 0.39116 0.0
C2273 C 0.49285 0.85654 0.40831 0.0
C2274 C 0.51552 0.88856 0.39638 0.0
C2275 C 0.49669 0.90313 0.41944 0.0
C2276 C 0.47534 0.89468 0.43586 0.0
C2277 C 0.47333 0.87181 0.43016 0.0
C2278 C 0.48104 0.96524 0.45323 0.0
C2279 C 0.50586 0.96376 0.45754 0.0
C2280 C 0.47831 0.94682 0.43831 0.0
C2281 C 0.50024 0.92573 0.42855 0.0
C2282 C 0.5253 0.92508 0.4311 0.0
C2283 C 0.52808 0.9441 0.44525 0.0
H2284 H 0.50911 0.54001 0.09568 0.0
H2285 H 0.47213 0.60565 0.02534 0.0
H2286 H 0.52128 0.56917 0.11952 0.0
H2287 H 0.48562 0.63439 0.04781 0.0
H2288 H 0.5428 0.66752 0.06085 0.0
H2289 H 0.53986 0.62728 0.05063 0.0
H2290 H 0.48902 0.6206 0.14412 0.0
H2291 H 0.4912 0.66117 0.15417 0.0
C2292 C 0.5024 0.56083 0.08642 0.0
C2293 C 0.48858 0.57086 0.05958 0.0
C2294 C 0.51004 0.5773 0.09947 0.0
C2295 C 0.50465 0.60375 0.08504 0.0
C2296 C 0.49017 0.61389 0.05901 0.0
C2297 C 0.48214 0.5976 0.04647 0.0
C2298 C 0.53157 0.65709 0.07964 0.0
C2299 C 0.51647 0.66796 0.10773 0.0
C2300 C 0.53009 0.63403 0.07389 0.0
C2301 C 0.51376 0.62144 0.09636 0.0
C2302 C 0.50163 0.63017 0.12651 0.0
C2303 C 0.50293 0.65339 0.13218 0.0
loop_
_geom_bond_atom_site_label_1
_geom_bond_atom_site_label_2
_geom_bond_distance
_geom_bond_site_symmetry_2
_ccdc_geom_bond_type
Tb0 N29 2.617 . S
Tb0 N35 2.572 1_655 S
Tb0 O44 2.465 . S
Tb0 O45 2.387 1_655 S
Tb0 O47 2.428 . S
Tb0 O48 2.308 1_654 S
Tb0 O52 2.349 1_564 S
Tb0 O55 2.393 1_565 S
Tb0 C64 2.802 . S
C1 N2 1.379 . S
C1 C4 1.416 . S
C1 C8 1.417 1_455 S
N2 C1 1.379 . S
N2 C5 1.334 . S
N2 Tb11 2.617 . S
C3 C5 1.390 . S
C3 C6 1.339 . S
C3 H23 0.930 1_545 S
C4 C1 1.416 . S
C4 C6 1.416 . S
C4 C10 1.448 1_455 S
C5 N2 1.334 . S
C5 C3 1.390 . S
C5 H16 0.930 1_545 S
C6 C3 1.339 . S
C6 C4 1.416 . S
C6 H27 0.930 . S
C7 C8 1.427 . S
C7 C9 1.427 . S
C7 C13 1.416 . S
C8 C1 1.417 1_655 S
C8 C7 1.427 . S
C8 N12 1.349 1_655 S
C9 C7 1.427 . S
C9 C10 1.328 . S
C9 H24 0.929 . S
C10 C4 1.448 1_655 S
C10 C9 1.328 . S
C10 H25 0.930 . S
Tb11 N2 2.617 . S
Tb11 N12 2.579 . S
Tb11 O46 2.349 1_556 S
Tb11 O49 2.393 1_545 S
Tb11 O50 2.465 . S
Tb11 O51 2.387 1_455 S
Tb11 O53 2.428 . S
Tb11 O54 2.308 1_456 S
Tb11 C75 2.802 . S
N12 C8 1.349 1_455 S
N12 Tb11 2.579 . S
N12 C14 1.335 1_455 S
C13 C7 1.416 . S
C13 C15 1.332 . S
C13 H21 0.931 . S
C14 N12 1.335 1_655 S
C14 C15 1.407 . S
C14 H20 0.930 . S
C15 C13 1.332 . S
C15 C14 1.407 . S
C15 H17 0.929 . S
H16 C5 0.930 1_565 S
H17 C15 0.929 . S
H18 C33 0.930 . S
H19 C40 0.929 . S
H20 C14 0.930 . S
H21 C13 0.931 . S
H22 C36 0.930 . S
H23 C3 0.930 1_565 S
H24 C9 0.929 . S
H25 C10 0.930 . S
H26 C31 0.930 . S
H27 C6 0.930 . S
H28 C39 0.931 . S
N29 Tb0 2.617 . S
N29 C30 1.379 . S
N29 C33 1.334 1_565 S
C30 N29 1.379 . S
C30 C32 1.416 . S
C30 C38 1.424 1_655 S
C31 H26 0.930 . S
C31 C33 1.390 . S
C31 C34 1.339 1_545 S
C32 C30 1.416 . S
C32 C34 1.416 . S
C32 C65 1.448 1_655 S
C33 H18 0.930 . S
C33 N29 1.334 1_545 S
C33 C31 1.390 . S
C34 C31 1.339 1_565 S
C34 C32 1.416 . S
C34 H41 0.930 . S
N35 Tb0 2.572 1_455 S
N35 C36 1.340 . S
N35 C38 1.361 . S
C36 H22 0.930 . S
C36 N35 1.340 . S
C36 C40 1.407 . S
C37 C38 1.413 . S
C37 C39 1.416 . S
C37 C66 1.427 . S
C38 C30 1.424 1_455 S
C38 N35 1.361 . S
C38 C37 1.413 . S
C39 H28 0.931 . S
C39 C37 1.416 . S
C39 C40 1.332 . S
C40 H19 0.929 . S
C40 C36 1.407 . S
C40 C39 1.332 . S
H41 C34 0.930 . S
H42 C65 0.930 . S
H43 C66 0.929 . S
O44 Tb0 2.465 . S
O44 C64 1.264 . S
O45 Tb0 2.387 1_455 S
O45 C56 1.264 . S
O46 Tb11 2.349 1_554 S
O46 C56 1.243 1_545 S
O47 Tb0 2.428 . S
O47 C64 1.256 . S
O48 Tb0 2.308 1_456 S
O48 C63 1.266 . S
O49 Tb11 2.393 1_565 S
O49 C63 1.248 . S
O50 Tb11 2.465 . S
O50 C75 1.264 . S
O51 Tb11 2.387 1_655 S
O51 C67 1.264 . S
O52 Tb0 2.349 1_546 S
O52 C67 1.243 . S
O53 Tb11 2.428 . S
O53 C75 1.256 . S
O54 Tb11 2.308 1_654 S
O54 C74 1.266 . S
O55 Tb0 2.393 1_545 S
O55 C74 1.248 . S
C56 O45 1.264 . S
C56 O46 1.243 1_565 S
C57 C60 1.399 . S
C57 C62 1.383 . S
C57 C64 1.496 . S
C58 C59 1.399 . S
C58 C62 1.389 . S
C59 C58 1.399 . S
C59 C61 1.380 . S
C59 H76 0.929 . S
C60 C57 1.399 . S
C60 C61 1.392 . S
C60 H77 0.929 . S
C61 C59 1.380 . S
C61 C60 1.392 . S
C61 H78 0.929 . S
C62 C57 1.383 . S
C62 C58 1.389 . S
C62 H79 0.931 . S
C63 O48 1.266 . S
C63 O49 1.248 . S
C64 Tb0 2.802 . S
C64 O44 1.264 . S
C64 O47 1.256 . S
C64 C57 1.496 . S
C65 C32 1.448 1_455 S
C65 H42 0.930 . S
C65 C66 1.328 . S
C66 C37 1.427 . S
C66 H43 0.929 . S
C66 C65 1.328 . S
C67 O51 1.264 . S
C67 O52 1.243 . S
C68 C71 1.399 . S
C68 C72 1.383 . S
C68 C75 1.496 . S
C69 C70 1.399 . S
C69 C72 1.389 . S
C70 C69 1.399 . S
C70 C73 1.380 . S
C70 H80 0.929 . S
C71 C68 1.399 . S
C71 C73 1.392 . S
C71 H81 0.929 . S
C72 C68 1.383 . S
C72 C69 1.389 . S
C72 H82 0.931 . S
C73 C70 1.380 . S
C73 C71 1.392 . S
C73 H83 0.929 . S
C74 O54 1.266 . S
C74 O55 1.248 . S
C75 Tb11 2.802 . S
C75 O50 1.264 . S
C75 O53 1.256 . S
C75 C68 1.496 . S
H76 C59 0.929 . S
H77 C60 0.929 . S
H78 C61 0.929 . S
H79 C62 0.931 . S
H80 C70 0.929 . S
H81 C71 0.929 . S
H82 C72 0.931 . S
H83 C73 0.929 . S
Tb84 N113 2.617 . S
Tb84 N119 2.572 . S
Tb84 O128 2.465 1_655 S
Tb84 O129 2.387 . S
Tb84 O131 2.428 . S
Tb84 O132 2.308 1_655 S
Tb84 O136 2.349 1_655 S
Tb84 O139 2.393 . S
Tb84 C148 2.802 . S
C85 N86 1.379 . S
C85 C88 1.416 . S
C85 C92 1.424 . S
N86 C85 1.379 . S
N86 C89 1.334 . S
N86 Tb95 2.617 . S
C87 C89 1.390 . S
C87 C90 1.339 . S
C87 H107 0.930 . S
C88 C85 1.416 . S
C88 C90 1.416 . S
C88 C94 1.448 . S
C89 N86 1.334 . S
C89 C87 1.390 . S
C89 H100 0.930 . S
C90 C87 1.339 . S
C90 C88 1.416 . S
C90 H111 0.930 . S
C91 C92 1.413 . S
C91 C93 1.427 . S
C91 C97 1.416 . S
C92 C85 1.424 . S
C92 C91 1.413 . S
C92 N96 1.361 . S
C93 C91 1.427 . S
C93 C94 1.328 . S
C93 H108 0.929 . S
C94 C88 1.448 . S
C94 C93 1.328 . S
C94 H109 0.930 . S
Tb95 N86 2.617 . S
Tb95 N96 2.572 . S
Tb95 O130 2.349 1_455 S
Tb95 O133 2.393 . S
Tb95 O134 2.467 . S
Tb95 O135 2.387 . S
Tb95 O137 2.428 . S
Tb95 O138 2.308 1_455 S
Tb95 C159 2.802 . S
N96 C92 1.361 . S
N96 Tb95 2.572 . S
N96 C98 1.340 . S
C97 C91 1.416 . S
C97 C99 1.332 . S
C97 H105 0.931 . S
C98 N96 1.340 . S
C98 C99 1.407 . S
C98 H104 0.930 . S
C99 C97 1.332 . S
C99 C98 1.407 . S
C99 H101 0.929 . S
H100 C89 0.930 . S
H101 C99 0.929 . S
H102 C117 0.930 . S
H103 C124 0.929 . S
H104 C98 0.930 . S
H105 C97 0.931 . S
H106 C120 0.930 . S
H107 C87 0.930 . S
H108 C93 0.929 . S
H109 C94 0.930 . S
H110 C115 0.930 . S
H111 C90 0.930 . S
H112 C123 0.931 . S
N113 Tb84 2.617 . S
N113 C114 1.379 . S
N113 C117 1.334 . S
C114 N113 1.379 . S
C114 C116 1.416 . S
C114 C122 1.424 . S
C115 H110 0.930 . S
C115 C117 1.390 . S
C115 C118 1.339 . S
C116 C114 1.416 . S
C116 C118 1.416 . S
C116 C149 1.448 . S
C117 H102 0.930 . S
C117 N113 1.334 . S
C117 C115 1.390 . S
C118 C115 1.339 . S
C118 C116 1.416 . S
C118 H125 0.930 . S
N119 Tb84 2.572 . S
N119 C120 1.340 . S
N119 C122 1.361 . S
C120 H106 0.930 . S
C120 N119 1.340 . S
C120 C124 1.407 . S
C121 C122 1.413 . S
C121 C123 1.416 . S
C121 C150 1.427 . S
C122 C114 1.424 . S
C122 N119 1.361 . S
C122 C121 1.413 . S
C123 H112 0.931 . S
C123 C121 1.416 . S
C123 C124 1.332 . S
C124 H103 0.929 . S
C124 C120 1.407 . S
C124 C123 1.332 . S
H125 C118 0.930 . S
H126 C149 0.930 . S
H127 C150 0.929 . S
O128 Tb84 2.465 1_455 S
O128 C148 1.264 1_455 S
O129 Tb84 2.387 . S
O129 C140 1.264 . S
O130 Tb95 2.349 1_655 S
O130 C140 1.243 . S
O131 Tb84 2.428 . S
O131 C148 1.256 . S
O132 Tb84 2.308 1_455 S
O132 C147 1.266 . S
O133 Tb95 2.393 . S
O133 C147 1.248 . S
O134 Tb95 2.467 . S
O134 C159 1.271 . S
O135 Tb95 2.387 . S
O135 C151 1.264 . S
O136 Tb84 2.349 1_455 S
O136 C151 1.243 . S
O137 Tb95 2.428 . S
O137 C159 1.256 . S
O138 Tb95 2.308 1_655 S
O138 C158 1.266 . S
O139 Tb84 2.393 . S
O139 C158 1.248 . S
C140 O129 1.264 . S
C140 O130 1.243 . S
C141 C144 1.428 . S
C141 C146 1.363 1_655 S
C141 C148 1.490 . S
C142 C143 1.399 . S
C142 C146 1.389 . S
C143 C142 1.399 . S
C143 C145 1.380 1_455 S
C143 H160 0.929 . S
C144 C141 1.428 . S
C144 C145 1.392 . S
C144 H161 0.929 . S
C145 C143 1.380 1_655 S
C145 C144 1.392 . S
C145 H162 0.929 . S
C146 C141 1.363 1_455 S
C146 C142 1.389 . S
C146 H163 0.931 . S
C147 O132 1.266 . S
C147 O133 1.248 . S
C148 Tb84 2.802 . S
C148 O128 1.264 1_655 S
C148 O131 1.256 . S
C148 C141 1.490 . S
C149 C116 1.448 . S
C149 H126 0.930 . S
C149 C150 1.328 . S
C150 C121 1.427 . S
C150 H127 0.929 . S
C150 C149 1.328 . S
C151 O135 1.264 . S
C151 O136 1.243 . S
C152 C155 1.399 . S
C152 C156 1.383 1_455 S
C152 C159 1.496 . S
C153 C154 1.401 . S
C153 C156 1.389 . S
C154 C153 1.401 . S
C154 C157 1.378 1_655 S
C154 H164 0.928 . S
C155 C152 1.399 . S
C155 C157 1.392 . S
C155 H165 0.929 . S
C156 C152 1.383 1_655 S
C156 C153 1.389 . S
C156 H166 0.931 . S
C157 C154 1.378 1_455 S
C157 C155 1.392 . S
C157 H167 0.929 . S
C158 O138 1.266 . S
C158 O139 1.248 . S
C159 Tb95 2.802 . S
C159 O134 1.271 . S
C159 O137 1.256 . S
C159 C152 1.496 . S
H160 C143 0.929 . S
H161 C144 0.929 . S
H162 C145 0.929 . S
H163 C146 0.931 . S
H164 C154 0.928 . S
H165 C155 0.929 . S
H166 C156 0.931 . S
H167 C157 0.929 . S
Tb168 N197 2.617 . S
Tb168 N203 2.572 . S
Tb168 O212 2.465 . S
Tb168 O213 2.387 . S
Tb168 O215 2.428 . S
Tb168 O216 2.308 . S
Tb168 O220 2.349 . S
Tb168 O223 2.393 . S
Tb168 C232 2.802 . S
C169 N170 1.379 . S
C169 C172 1.416 . S
C169 C176 1.424 . S
N170 C169 1.379 . S
N170 C173 1.334 . S
N170 Tb179 2.617 . S
C171 C173 1.390 . S
C171 C174 1.339 . S
C171 H191 0.930 . S
C172 C169 1.416 . S
C172 C174 1.416 . S
C172 C178 1.448 . S
C173 N170 1.334 . S
C173 C171 1.390 . S
C173 H184 0.930 . S
C174 C171 1.339 . S
C174 C172 1.416 . S
C174 H195 0.930 . S
C175 C176 1.413 . S
C175 C177 1.427 . S
C175 C181 1.416 . S
C176 C169 1.424 . S
C176 C175 1.413 . S
C176 N180 1.361 . S
C177 C175 1.427 . S
C177 C178 1.328 . S
C177 H192 0.929 . S
C178 C172 1.448 . S
C178 C177 1.328 . S
C178 H193 0.930 . S
Tb179 N170 2.617 . S
Tb179 N180 2.572 . S
Tb179 O214 2.349 . S
Tb179 O217 2.393 . S
Tb179 O218 2.465 . S
Tb179 O219 2.387 . S
Tb179 O221 2.428 . S
Tb179 O222 2.308 . S
Tb179 C243 2.802 . S
N180 C176 1.361 . S
N180 Tb179 2.572 . S
N180 C182 1.340 . S
C181 C175 1.416 . S
C181 C183 1.332 . S
C181 H189 0.931 . S
C182 N180 1.340 . S
C182 C183 1.407 . S
C182 H188 0.930 . S
C183 C181 1.332 . S
C183 C182 1.407 . S
C183 H185 0.929 . S
H184 C173 0.930 . S
H185 C183 0.929 . S
H186 C201 0.930 . S
H187 C208 0.929 . S
H188 C182 0.930 . S
H189 C181 0.931 . S
H190 C204 0.930 . S
H191 C171 0.930 . S
H192 C177 0.929 . S
H193 C178 0.930 . S
H194 C199 0.930 . S
H195 C174 0.930 . S
H196 C207 0.931 . S
N197 Tb168 2.617 . S
N197 C198 1.379 . S
N197 C201 1.334 . S
C198 N197 1.379 . S
C198 C200 1.416 . S
C198 C206 1.424 . S
C199 H194 0.930 . S
C199 C201 1.390 . S
C199 C202 1.339 . S
C200 C198 1.416 . S
C200 C202 1.416 . S
C200 C233 1.448 . S
C201 H186 0.930 . S
C201 N197 1.334 . S
C201 C199 1.390 . S
C202 C199 1.339 . S
C202 C200 1.416 . S
C202 H209 0.930 . S
N203 Tb168 2.572 . S
N203 C204 1.340 . S
N203 C206 1.361 . S
C204 H190 0.930 . S
C204 N203 1.340 . S
C204 C208 1.407 . S
C205 C206 1.413 . S
C205 C207 1.416 . S
C205 C234 1.427 . S
C206 C198 1.424 . S
C206 N203 1.361 . S
C206 C205 1.413 . S
C207 H196 0.931 . S
C207 C205 1.416 . S
C207 C208 1.332 . S
C208 H187 0.929 . S
C208 C204 1.407 . S
C208 C207 1.332 . S
H209 C202 0.930 . S
H210 C233 0.930 . S
H211 C234 0.929 . S
O212 Tb168 2.465 . S
O212 C232 1.264 . S
O213 Tb168 2.387 . S
O213 C224 1.264 . S
O214 Tb179 2.349 . S
O214 C224 1.243 . S
O215 Tb168 2.428 . S
O215 C232 1.256 . S
O216 Tb168 2.308 . S
O216 C231 1.266 . S
O217 Tb179 2.393 . S
O217 C231 1.248 . S
O218 Tb179 2.465 . S
O218 C243 1.264 . S
O219 Tb179 2.387 . S
O219 C235 1.264 . S
O220 Tb168 2.349 . S
O220 C235 1.243 . S
O221 Tb179 2.428 . S
O221 C243 1.256 . S
O222 Tb179 2.308 . S
O222 C242 1.266 . S
O223 Tb168 2.393 . S
O223 C242 1.248 . S
C224 O213 1.264 . S
C224 O214 1.243 . S
C225 C228 1.399 . S
C225 C230 1.383 . S
C225 C232 1.496 . S
C226 C227 1.399 . S
C226 C230 1.389 . S
C227 C226 1.399 . S
C227 C229 1.380 . S
C227 H244 0.929 . S
C228 C225 1.399 . S
C228 C229 1.392 . S
C228 H245 0.929 . S
C229 C227 1.380 . S
C229 C228 1.392 . S
C229 H246 0.929 . S
C230 C225 1.383 . S
C230 C226 1.389 . S
C230 H247 0.931 . S
C231 O216 1.266 . S
C231 O217 1.248 . S
C232 Tb168 2.802 . S
C232 O212 1.264 . S
C232 O215 1.256 . S
C232 C225 1.496 . S
C233 C200 1.448 . S
C233 H210 0.930 . S
C233 C234 1.328 . S
C234 C205 1.427 . S
C234 H211 0.929 . S
C234 C233 1.328 . S
C235 O219 1.264 . S
C235 O220 1.243 . S
C236 C239 1.399 . S
C236 C240 1.383 . S
C236 C243 1.496 . S
C237 C238 1.399 . S
C237 C240 1.389 . S
C238 C237 1.399 . S
C238 C241 1.380 . S
C238 H248 0.929 . S
C239 C236 1.399 . S
C239 C241 1.392 . S
C239 H249 0.929 . S
C240 C236 1.383 . S
C240 C237 1.389 . S
C240 H250 0.931 . S
C241 C238 1.380 . S
C241 C239 1.392 . S
C241 H251 0.929 . S
C242 O222 1.266 . S
C242 O223 1.248 . S
C243 Tb179 2.802 . S
C243 O218 1.264 . S
C243 O221 1.256 . S
C243 C236 1.496 . S
H244 C227 0.929 . S
H245 C228 0.929 . S
H246 C229 0.929 . S
H247 C230 0.931 . S
H248 C238 0.929 . S
H249 C239 0.929 . S
H250 C240 0.931 . S
H251 C241 0.929 . S
Tb252 N281 2.617 . S
Tb252 N287 2.572 . S
Tb252 O296 2.465 . S
Tb252 O297 2.387 . S
Tb252 O299 2.428 . S
Tb252 O300 2.308 1_545 S
Tb252 O304 2.349 1_545 S
Tb252 O307 2.393 . S
Tb252 C316 2.802 . S
C253 N254 1.379 . S
C253 C256 1.416 . S
C253 C260 1.424 . S
N254 C253 1.379 . S
N254 C257 1.334 . S
N254 Tb263 2.617 . S
C255 C257 1.390 . S
C255 C258 1.339 . S
C255 H275 0.930 . S
C256 C253 1.416 . S
C256 C258 1.416 . S
C256 C262 1.448 . S
C257 N254 1.334 . S
C257 C255 1.390 . S
C257 H268 0.930 . S
C258 C255 1.339 . S
C258 C256 1.416 . S
C258 H279 0.930 . S
C259 C260 1.413 . S
C259 C261 1.427 . S
C259 C265 1.416 . S
C260 C253 1.424 . S
C260 C259 1.413 . S
C260 N264 1.361 . S
C261 C259 1.427 . S
C261 C262 1.328 . S
C261 H276 0.929 . S
C262 C256 1.448 . S
C262 C261 1.328 . S
C262 H277 0.930 . S
Tb263 N254 2.617 . S
Tb263 N264 2.572 . S
Tb263 O298 2.349 1_565 S
Tb263 O301 2.393 . S
Tb263 O302 2.465 1_565 S
Tb263 O303 2.387 . S
Tb263 O305 2.428 . S
Tb263 O306 2.308 1_565 S
Tb263 C327 2.802 . S
N264 C260 1.361 . S
N264 Tb263 2.572 . S
N264 C266 1.340 . S
C265 C259 1.416 . S
C265 C267 1.332 . S
C265 H273 0.931 . S
C266 N264 1.340 . S
C266 C267 1.407 . S
C266 H272 0.930 . S
C267 C265 1.332 . S
C267 C266 1.407 . S
C267 H269 0.929 . S
H268 C257 0.930 . S
H269 C267 0.929 . S
H270 C285 0.930 . S
H271 C292 0.929 . S
H272 C266 0.930 . S
H273 C265 0.931 . S
H274 C288 0.930 . S
H275 C255 0.930 . S
H276 C261 0.929 . S
H277 C262 0.930 . S
H278 C283 0.930 . S
H279 C258 0.930 . S
H280 C291 0.931 . S
N281 Tb252 2.617 . S
N281 C282 1.379 . S
N281 C285 1.334 . S
C282 N281 1.379 . S
C282 C284 1.416 . S
C282 C290 1.424 . S
C283 H278 0.930 . S
C283 C285 1.390 . S
C283 C286 1.339 . S
C284 C282 1.416 . S
C284 C286 1.416 . S
C284 C317 1.448 . S
C285 H270 0.930 . S
C285 N281 1.334 . S
C285 C283 1.390 . S
C286 C283 1.339 . S
C286 C284 1.416 . S
C286 H293 0.930 . S
N287 Tb252 2.572 . S
N287 C288 1.340 . S
N287 C290 1.361 . S
C288 H274 0.930 . S
C288 N287 1.340 . S
C288 C292 1.407 . S
C289 C290 1.413 . S
C289 C291 1.416 . S
C289 C318 1.427 . S
C290 C282 1.424 . S
C290 N287 1.361 . S
C290 C289 1.413 . S
C291 H280 0.931 . S
C291 C289 1.416 . S
C291 C292 1.332 . S
C292 H271 0.929 . S
C292 C288 1.407 . S
C292 C291 1.332 . S
H293 C286 0.930 . S
H294 C317 0.930 . S
H295 C318 0.929 . S
O296 Tb252 2.465 . S
O296 C316 1.264 . S
O297 Tb252 2.387 . S
O297 C308 1.264 . S
O298 Tb263 2.349 1_545 S
O298 C308 1.243 . S
O299 Tb252 2.428 . S
O299 C316 1.256 . S
O300 Tb252 2.308 1_565 S
O300 C315 1.266 . S
O301 Tb263 2.393 . S
O301 C315 1.248 . S
O302 Tb263 2.465 1_545 S
O302 C327 1.264 1_545 S
O303 Tb263 2.387 . S
O303 C319 1.264 . S
O304 Tb252 2.349 1_565 S
O304 C319 1.243 . S
O305 Tb263 2.428 . S
O305 C327 1.256 . S
O306 Tb263 2.308 1_545 S
O306 C326 1.266 . S
O307 Tb252 2.393 . S
O307 C326 1.248 . S
C308 O297 1.264 . S
C308 O298 1.243 . S
C309 C312 1.399 . S
C309 C314 1.383 1_545 S
C309 C316 1.496 . S
C310 C311 1.399 1_565 S
C310 C314 1.389 . S
C311 C310 1.399 1_545 S
C311 C313 1.380 . S
C311 H328 0.929 . S
C312 C309 1.399 . S
C312 C313 1.392 . S
C312 H329 0.929 . S
C313 C311 1.380 . S
C313 C312 1.392 . S
C313 H330 0.929 . S
C314 C309 1.383 1_565 S
C314 C310 1.389 . S
C314 H331 0.931 . S
C315 O300 1.266 . S
C315 O301 1.248 . S
C316 Tb252 2.802 . S
C316 O296 1.264 . S
C316 O299 1.256 . S
C316 C309 1.496 . S
C317 C284 1.448 . S
C317 H294 0.930 . S
C317 C318 1.328 . S
C318 C289 1.427 . S
C318 H295 0.929 . S
C318 C317 1.328 . S
C319 O303 1.264 . S
C319 O304 1.243 . S
C320 C323 1.399 1_545 S
C320 C324 1.383 . S
C320 C327 1.496 1_545 S
C321 C322 1.399 . S
C321 C324 1.389 . S
C322 C321 1.399 . S
C322 C325 1.380 1_545 S
C322 H332 0.929 . S
C323 C320 1.399 1_565 S
C323 C325 1.392 . S
C323 H333 0.929 . S
C324 C320 1.383 . S
C324 C321 1.389 . S
C324 H334 0.931 . S
C325 C322 1.380 1_565 S
C325 C323 1.392 . S
C325 H335 0.929 . S
C326 O306 1.266 . S
C326 O307 1.248 . S
C327 Tb263 2.802 . S
C327 O302 1.264 1_565 S
C327 O305 1.256 . S
C327 C320 1.496 1_565 S
H328 C311 0.929 . S
H329 C312 0.929 . S
H330 C313 0.929 . S
H331 C314 0.931 . S
H332 C322 0.929 . S
H333 C323 0.929 . S
H334 C324 0.931 . S
H335 C325 0.929 . S
Tb336 N365 2.617 . S
Tb336 N371 2.572 . S
Tb336 O380 2.465 . S
Tb336 O381 2.387 . S
Tb336 O383 2.428 . S
Tb336 O384 2.308 . S
Tb336 O388 2.349 . S
Tb336 O391 2.393 . S
Tb336 C400 2.802 . S
C337 N338 1.379 . S
C337 C340 1.416 . S
C337 C344 1.424 . S
N338 C337 1.379 . S
N338 C341 1.334 . S
N338 Tb347 2.617 . S
C339 C341 1.390 . S
C339 C342 1.339 . S
C339 H359 0.930 . S
C340 C337 1.416 . S
C340 C342 1.416 . S
C340 C346 1.448 . S
C341 N338 1.334 . S
C341 C339 1.390 . S
C341 H352 0.930 . S
C342 C339 1.339 . S
C342 C340 1.416 . S
C342 H363 0.930 . S
C343 C344 1.413 . S
C343 C345 1.427 . S
C343 C349 1.416 . S
C344 C337 1.424 . S
C344 C343 1.413 . S
C344 N348 1.361 . S
C345 C343 1.427 . S
C345 C346 1.328 . S
C345 H360 0.929 . S
C346 C340 1.448 . S
C346 C345 1.328 . S
C346 H361 0.930 . S
Tb347 N338 2.617 . S
Tb347 N348 2.572 . S
Tb347 O382 2.349 . S
Tb347 O385 2.393 . S
Tb347 O386 2.465 . S
Tb347 O387 2.387 . S
Tb347 O389 2.428 . S
Tb347 O390 2.308 . S
Tb347 C411 2.802 . S
N348 C344 1.361 . S
N348 Tb347 2.572 . S
N348 C350 1.340 . S
C349 C343 1.416 . S
C349 C351 1.332 . S
C349 H357 0.931 . S
C350 N348 1.340 . S
C350 C351 1.407 . S
C350 H356 0.930 . S
C351 C349 1.332 . S
C351 C350 1.407 . S
C351 H353 0.929 . S
H352 C341 0.930 . S
H353 C351 0.929 . S
H354 C369 0.930 . S
H355 C376 0.929 . S
H356 C350 0.930 . S
H357 C349 0.931 . S
H358 C372 0.930 . S
H359 C339 0.930 . S
H360 C345 0.929 . S
H361 C346 0.930 . S
H362 C367 0.930 . S
H363 C342 0.930 . S
H364 C375 0.931 . S
N365 Tb336 2.617 . S
N365 C366 1.379 . S
N365 C369 1.334 . S
C366 N365 1.379 . S
C366 C368 1.416 . S
C366 C374 1.424 . S
C367 H362 0.930 . S
C367 C369 1.390 . S
C367 C370 1.339 . S
C368 C366 1.416 . S
C368 C370 1.416 . S
C368 C401 1.448 . S
C369 H354 0.930 . S
C369 N365 1.334 . S
C369 C367 1.390 . S
C370 C367 1.339 . S
C370 C368 1.416 . S
C370 H377 0.930 . S
N371 Tb336 2.572 . S
N371 C372 1.340 . S
N371 C374 1.361 . S
C372 H358 0.930 . S
C372 N371 1.340 . S
C372 C376 1.407 . S
C373 C374 1.413 . S
C373 C375 1.416 . S
C373 C402 1.427 . S
C374 C366 1.424 . S
C374 N371 1.361 . S
C374 C373 1.413 . S
C375 H364 0.931 . S
C375 C373 1.416 . S
C375 C376 1.332 . S
C376 H355 0.929 . S
C376 C372 1.407 . S
C376 C375 1.332 . S
H377 C370 0.930 . S
H378 C401 0.930 . S
H379 C402 0.929 . S
O380 Tb336 2.465 . S
O380 C400 1.264 . S
O381 Tb336 2.387 . S
O381 C392 1.264 . S
O382 Tb347 2.349 . S
O382 C392 1.243 . S
O383 Tb336 2.428 . S
O383 C400 1.256 . S
O384 Tb336 2.308 . S
O384 C399 1.266 . S
O385 Tb347 2.393 . S
O385 C399 1.248 . S
O386 Tb347 2.465 . S
O386 C411 1.264 . S
O387 Tb347 2.387 . S
O387 C403 1.264 . S
O388 Tb336 2.349 . S
O388 C403 1.243 . S
O389 Tb347 2.428 . S
O389 C411 1.256 . S
O390 Tb347 2.308 . S
O390 C410 1.266 . S
O391 Tb336 2.393 . S
O391 C410 1.248 . S
C392 O381 1.264 . S
C392 O382 1.243 . S
C393 C396 1.399 . S
C393 C398 1.383 . S
C393 C400 1.496 . S
C394 C395 1.399 . S
C394 C398 1.389 . S
C395 C394 1.399 . S
C395 C397 1.380 . S
C395 H412 0.929 . S
C396 C393 1.399 . S
C396 C397 1.392 . S
C396 H413 0.929 . S
C397 C395 1.380 . S
C397 C396 1.392 . S
C397 H414 0.929 . S
C398 C393 1.383 . S
C398 C394 1.389 . S
C398 H415 0.931 . S
C399 O384 1.266 . S
C399 O385 1.248 . S
C400 Tb336 2.802 . S
C400 O380 1.264 . S
C400 O383 1.256 . S
C400 C393 1.496 . S
C401 C368 1.448 . S
C401 H378 0.930 . S
C401 C402 1.328 . S
C402 C373 1.427 . S
C402 H379 0.929 . S
C402 C401 1.328 . S
C403 O387 1.264 . S
C403 O388 1.243 . S
C404 C407 1.399 . S
C404 C408 1.383 . S
C404 C411 1.496 . S
C405 C406 1.399 . S
C405 C408 1.389 . S
C406 C405 1.399 . S
C406 C409 1.380 . S
C406 H416 0.929 . S
C407 C404 1.399 . S
C407 C409 1.392 . S
C407 H417 0.929 . S
C408 C404 1.383 . S
C408 C405 1.389 . S
C408 H418 0.931 . S
C409 C406 1.380 . S
C409 C407 1.392 . S
C409 H419 0.929 . S
C410 O390 1.266 . S
C410 O391 1.248 . S
C411 Tb347 2.802 . S
C411 O386 1.264 . S
C411 O389 1.256 . S
C411 C404 1.496 . S
H412 C395 0.929 . S
H413 C396 0.929 . S
H414 C397 0.929 . S
H415 C398 0.931 . S
H416 C406 0.929 . S
H417 C407 0.929 . S
H418 C408 0.931 . S
H419 C409 0.929 . S
Tb420 N449 2.617 . S
Tb420 N455 2.572 . S
Tb420 O464 2.465 . S
Tb420 O465 2.387 . S
Tb420 O467 2.428 . S
Tb420 O468 2.308 . S
Tb420 O472 2.349 . S
Tb420 O475 2.393 . S
Tb420 C484 2.802 . S
C421 N422 1.379 . S
C421 C424 1.416 . S
C421 C428 1.424 . S
N422 C421 1.379 . S
N422 C425 1.334 . S
N422 Tb431 2.617 . S
C423 C425 1.390 . S
C423 C426 1.339 . S
C423 H443 0.930 . S
C424 C421 1.416 . S
C424 C426 1.416 . S
C424 C430 1.448 . S
C425 N422 1.334 . S
C425 C423 1.390 . S
C425 H436 0.930 . S
C426 C423 1.339 . S
C426 C424 1.416 . S
C426 H447 0.930 . S
C427 C428 1.413 . S
C427 C429 1.427 . S
C427 C433 1.416 . S
C428 C421 1.424 . S
C428 C427 1.413 . S
C428 N432 1.361 . S
C429 C427 1.427 . S
C429 C430 1.328 . S
C429 H444 0.929 . S
C430 C424 1.448 . S
C430 C429 1.328 . S
C430 H445 0.930 . S
Tb431 N422 2.617 . S
Tb431 N432 2.572 . S
Tb431 O466 2.349 . S
Tb431 O469 2.393 . S
Tb431 O470 2.465 . S
Tb431 O471 2.387 . S
Tb431 O473 2.428 . S
Tb431 O474 2.308 . S
Tb431 C495 2.802 . S
N432 C428 1.361 . S
N432 Tb431 2.572 . S
N432 C434 1.340 . S
C433 C427 1.416 . S
C433 C435 1.332 . S
C433 H441 0.931 . S
C434 N432 1.340 . S
C434 C435 1.407 . S
C434 H440 0.930 . S
C435 C433 1.332 . S
C435 C434 1.407 . S
C435 H437 0.929 . S
H436 C425 0.930 . S
H437 C435 0.929 . S
H438 C453 0.930 . S
H439 C460 0.929 . S
H440 C434 0.930 . S
H441 C433 0.931 . S
H442 C456 0.930 . S
H443 C423 0.930 . S
H444 C429 0.929 . S
H445 C430 0.930 . S
H446 C451 0.930 . S
H447 C426 0.930 . S
H448 C459 0.931 . S
N449 Tb420 2.617 . S
N449 C450 1.379 . S
N449 C453 1.334 . S
C450 N449 1.379 . S
C450 C452 1.416 . S
C450 C458 1.424 . S
C451 H446 0.930 . S
C451 C453 1.390 . S
C451 C454 1.339 . S
C452 C450 1.416 . S
C452 C454 1.416 . S
C452 C485 1.448 . S
C453 H438 0.930 . S
C453 N449 1.334 . S
C453 C451 1.390 . S
C454 C451 1.339 . S
C454 C452 1.416 . S
C454 H461 0.930 . S
N455 Tb420 2.572 . S
N455 C456 1.340 . S
N455 C458 1.361 . S
C456 H442 0.930 . S
C456 N455 1.340 . S
C456 C460 1.407 . S
C457 C458 1.413 . S
C457 C459 1.416 . S
C457 C486 1.427 . S
C458 C450 1.424 . S
C458 N455 1.361 . S
C458 C457 1.413 . S
C459 H448 0.931 . S
C459 C457 1.416 . S
C459 C460 1.332 . S
C460 H439 0.929 . S
C460 C456 1.407 . S
C460 C459 1.332 . S
H461 C454 0.930 . S
H462 C485 0.930 . S
H463 C486 0.929 . S
O464 Tb420 2.465 . S
O464 C484 1.264 . S
O465 Tb420 2.387 . S
O465 C476 1.264 . S
O466 Tb431 2.349 . S
O466 C476 1.243 . S
O467 Tb420 2.428 . S
O467 C484 1.256 . S
O468 Tb420 2.308 . S
O468 C483 1.266 . S
O469 Tb431 2.393 . S
O469 C483 1.248 . S
O470 Tb431 2.465 . S
O470 C495 1.264 . S
O471 Tb431 2.387 . S
O471 C487 1.264 . S
O472 Tb420 2.349 . S
O472 C487 1.243 . S
O473 Tb431 2.428 . S
O473 C495 1.256 . S
O474 Tb431 2.308 . S
O474 C494 1.266 . S
O475 Tb420 2.393 . S
O475 C494 1.248 . S
C476 O465 1.264 . S
C476 O466 1.243 . S
C477 C480 1.399 . S
C477 C482 1.383 . S
C477 C484 1.496 . S
C478 C479 1.399 . S
C478 C482 1.389 . S
C479 C478 1.399 . S
C479 C481 1.380 . S
C479 H496 0.929 . S
C480 C477 1.399 . S
C480 C481 1.392 . S
C480 H497 0.929 . S
C481 C479 1.380 . S
C481 C480 1.392 . S
C481 H498 0.929 . S
C482 C477 1.383 . S
C482 C478 1.389 . S
C482 H499 0.931 . S
C483 O468 1.266 . S
C483 O469 1.248 . S
C484 Tb420 2.802 . S
C484 O464 1.264 . S
C484 O467 1.256 . S
C484 C477 1.496 . S
C485 C452 1.448 . S
C485 H462 0.930 . S
C485 C486 1.328 . S
C486 C457 1.427 . S
C486 H463 0.929 . S
C486 C485 1.328 . S
C487 O471 1.264 . S
C487 O472 1.243 . S
C488 C491 1.399 . S
C488 C492 1.383 . S
C488 C495 1.496 . S
C489 C490 1.399 . S
C489 C492 1.389 . S
C490 C489 1.399 . S
C490 C493 1.380 . S
C490 H500 0.929 . S
C491 C488 1.399 . S
C491 C493 1.392 . S
C491 H501 0.929 . S
C492 C488 1.383 . S
C492 C489 1.389 . S
C492 H502 0.931 . S
C493 C490 1.380 . S
C493 C491 1.392 . S
C493 H503 0.929 . S
C494 O474 1.266 . S
C494 O475 1.248 . S
C495 Tb431 2.802 . S
C495 O470 1.264 . S
C495 O473 1.256 . S
C495 C488 1.496 . S
H496 C479 0.929 . S
H497 C480 0.929 . S
H498 C481 0.929 . S
H499 C482 0.931 . S
H500 C490 0.929 . S
H501 C491 0.929 . S
H502 C492 0.931 . S
H503 C493 0.929 . S
Tb504 N533 2.617 . S
Tb504 N539 2.572 . S
Tb504 O548 2.465 . S
Tb504 O549 2.387 . S
Tb504 O551 2.428 . S
Tb504 O552 2.308 . S
Tb504 O556 2.349 . S
Tb504 O559 2.393 . S
Tb504 C568 2.802 . S
C505 N506 1.379 . S
C505 C508 1.416 . S
C505 C512 1.424 . S
N506 C505 1.379 . S
N506 C509 1.334 . S
N506 Tb515 2.617 . S
C507 C509 1.390 . S
C507 C510 1.339 . S
C507 H527 0.930 . S
C508 C505 1.416 . S
C508 C510 1.416 . S
C508 C514 1.448 . S
C509 N506 1.334 . S
C509 C507 1.390 . S
C509 H520 0.930 . S
C510 C507 1.339 . S
C510 C508 1.416 . S
C510 H531 0.930 . S
C511 C512 1.413 . S
C511 C513 1.427 . S
C511 C517 1.416 . S
C512 C505 1.424 . S
C512 C511 1.413 . S
C512 N516 1.361 . S
C513 C511 1.427 . S
C513 C514 1.328 . S
C513 H528 0.929 . S
C514 C508 1.448 . S
C514 C513 1.328 . S
C514 H529 0.930 . S
Tb515 N506 2.617 . S
Tb515 N516 2.572 . S
Tb515 O550 2.349 . S
Tb515 O553 2.393 . S
Tb515 O554 2.465 . S
Tb515 O555 2.387 . S
Tb515 O557 2.428 . S
Tb515 O558 2.308 . S
Tb515 C579 2.802 . S
N516 C512 1.361 . S
N516 Tb515 2.572 . S
N516 C518 1.340 . S
C517 C511 1.416 . S
C517 C519 1.332 . S
C517 H525 0.931 . S
C518 N516 1.340 . S
C518 C519 1.407 . S
C518 H524 0.930 . S
C519 C517 1.332 . S
C519 C518 1.407 . S
C519 H521 0.929 . S
H520 C509 0.930 . S
H521 C519 0.929 . S
H522 C537 0.930 . S
H523 C544 0.929 . S
H524 C518 0.930 . S
H525 C517 0.931 . S
H526 C540 0.930 . S
H527 C507 0.930 . S
H528 C513 0.929 . S
H529 C514 0.930 . S
H530 C535 0.930 . S
H531 C510 0.930 . S
H532 C543 0.931 . S
N533 Tb504 2.617 . S
N533 C534 1.379 . S
N533 C537 1.334 . S
C534 N533 1.379 . S
C534 C536 1.416 . S
C534 C542 1.424 . S
C535 H530 0.930 . S
C535 C537 1.390 . S
C535 C538 1.339 . S
C536 C534 1.416 . S
C536 C538 1.416 . S
C536 C569 1.448 . S
C537 H522 0.930 . S
C537 N533 1.334 . S
C537 C535 1.390 . S
C538 C535 1.339 . S
C538 C536 1.416 . S
C538 H545 0.930 . S
N539 Tb504 2.572 . S
N539 C540 1.340 . S
N539 C542 1.361 . S
C540 H526 0.930 . S
C540 N539 1.340 . S
C540 C544 1.407 . S
C541 C542 1.413 . S
C541 C543 1.416 . S
C541 C570 1.427 . S
C542 C534 1.424 . S
C542 N539 1.361 . S
C542 C541 1.413 . S
C543 H532 0.931 . S
C543 C541 1.416 . S
C543 C544 1.332 . S
C544 H523 0.929 . S
C544 C540 1.407 . S
C544 C543 1.332 . S
H545 C538 0.930 . S
H546 C569 0.930 . S
H547 C570 0.929 . S
O548 Tb504 2.465 . S
O548 C568 1.264 . S
O549 Tb504 2.387 . S
O549 C560 1.264 . S
O550 Tb515 2.349 . S
O550 C560 1.243 . S
O551 Tb504 2.428 . S
O551 C568 1.256 . S
O552 Tb504 2.308 . S
O552 C567 1.266 . S
O553 Tb515 2.393 . S
O553 C567 1.248 . S
O554 Tb515 2.465 . S
O554 C579 1.264 . S
O555 Tb515 2.387 . S
O555 C571 1.264 . S
O556 Tb504 2.349 . S
O556 C571 1.243 . S
O557 Tb515 2.428 . S
O557 C579 1.256 . S
O558 Tb515 2.308 . S
O558 C578 1.266 . S
O559 Tb504 2.393 . S
O559 C578 1.248 . S
C560 O549 1.264 . S
C560 O550 1.243 . S
C561 C564 1.399 . S
C561 C566 1.383 . S
C561 C568 1.496 . S
C562 C563 1.399 . S
C562 C566 1.389 . S
C563 C562 1.399 . S
C563 C565 1.380 . S
C563 H580 0.929 . S
C564 C561 1.399 . S
C564 C565 1.392 . S
C564 H581 0.929 . S
C565 C563 1.380 . S
C565 C564 1.392 . S
C565 H582 0.929 . S
C566 C561 1.383 . S
C566 C562 1.389 . S
C566 H583 0.931 . S
C567 O552 1.266 . S
C567 O553 1.248 . S
C568 Tb504 2.802 . S
C568 O548 1.264 . S
C568 O551 1.256 . S
C568 C561 1.496 . S
C569 C536 1.448 . S
C569 H546 0.930 . S
C569 C570 1.328 . S
C570 C541 1.427 . S
C570 H547 0.929 . S
C570 C569 1.328 . S
C571 O555 1.264 . S
C571 O556 1.243 . S
C572 C575 1.399 . S
C572 C576 1.383 . S
C572 C579 1.496 . S
C573 C574 1.399 . S
C573 C576 1.389 . S
C574 C573 1.399 . S
C574 C577 1.380 . S
C574 H584 0.929 . S
C575 C572 1.399 . S
C575 C577 1.392 . S
C575 H585 0.929 . S
C576 C572 1.383 . S
C576 C573 1.389 . S
C576 H586 0.931 . S
C577 C574 1.380 . S
C577 C575 1.392 . S
C577 H587 0.929 . S
C578 O558 1.266 . S
C578 O559 1.248 . S
C579 Tb515 2.802 . S
C579 O554 1.264 . S
C579 O557 1.256 . S
C579 C572 1.496 . S
H580 C563 0.929 . S
H581 C564 0.929 . S
H582 C565 0.929 . S
H583 C566 0.931 . S
H584 C574 0.929 . S
H585 C575 0.929 . S
H586 C576 0.931 . S
H587 C577 0.929 . S
Tb588 N617 2.617 . S
Tb588 N623 2.572 1_655 S
Tb588 O632 2.465 . S
Tb588 O633 2.387 1_655 S
Tb588 O635 2.428 . S
Tb588 O636 2.308 1_655 S
Tb588 O640 2.349 . S
Tb588 O643 2.393 . S
Tb588 C652 2.802 . S
C589 N590 1.379 . S
C589 C592 1.416 . S
C589 C596 1.433 . S
N590 C589 1.379 . S
N590 C593 1.334 . S
N590 Tb599 2.617 . S
C591 C593 1.390 . S
C591 C594 1.339 . S
C591 H611 0.930 . S
C592 C589 1.416 . S
C592 C594 1.416 . S
C592 C598 1.438 1_455 S
C593 N590 1.334 . S
C593 C591 1.390 . S
C593 H604 0.930 . S
C594 C591 1.339 . S
C594 C592 1.416 . S
C594 H615 0.930 . S
C595 C596 1.395 1_655 S
C595 C597 1.427 . S
C595 C601 1.416 . S
C596 C589 1.433 . S
C596 C595 1.395 1_455 S
C596 N600 1.372 . S
C597 C595 1.427 . S
C597 C598 1.334 . S
C597 H612 0.929 . S
C598 C592 1.438 1_655 S
C598 C597 1.334 . S
C598 H613 0.936 . S
Tb599 N590 2.617 . S
Tb599 N600 2.572 . S
Tb599 O634 2.349 . S
Tb599 O637 2.393 . S
Tb599 O638 2.465 . S
Tb599 O639 2.387 1_455 S
Tb599 O641 2.428 . S
Tb599 O642 2.308 1_455 S
Tb599 C663 2.802 . S
N600 C596 1.372 . S
N600 Tb599 2.572 . S
N600 C602 1.340 1_455 S
C601 C595 1.416 . S
C601 C603 1.332 . S
C601 H609 0.931 . S
C602 N600 1.340 1_655 S
C602 C603 1.407 . S
C602 H608 0.930 . S
C603 C601 1.332 . S
C603 C602 1.407 . S
C603 H605 0.929 . S
H604 C593 0.930 . S
H605 C603 0.929 . S
H606 C621 0.930 . S
H607 C628 0.929 . S
H608 C602 0.930 . S
H609 C601 0.931 . S
H610 C624 0.930 . S
H611 C591 0.930 . S
H612 C597 0.929 . S
H613 C598 0.936 . S
H614 C619 0.930 . S
H615 C594 0.930 . S
H616 C627 0.931 . S
N617 Tb588 2.617 . S
N617 C618 1.379 . S
N617 C621 1.334 . S
C618 N617 1.379 . S
C618 C620 1.416 . S
C618 C626 1.424 1_655 S
C619 H614 0.930 . S
C619 C621 1.390 . S
C619 C622 1.339 . S
C620 C618 1.416 . S
C620 C622 1.416 . S
C620 C653 1.448 1_655 S
C621 H606 0.930 . S
C621 N617 1.334 . S
C621 C619 1.390 . S
C622 C619 1.339 . S
C622 C620 1.416 . S
C622 H629 0.930 . S
N623 Tb588 2.572 1_455 S
N623 C624 1.340 . S
N623 C626 1.361 . S
C624 H610 0.930 . S
C624 N623 1.340 . S
C624 C628 1.407 . S
C625 C626 1.413 . S
C625 C627 1.416 . S
C625 C654 1.427 . S
C626 C618 1.424 1_455 S
C626 N623 1.361 . S
C626 C625 1.413 . S
C627 H616 0.931 . S
C627 C625 1.416 . S
C627 C628 1.332 . S
C628 H607 0.929 . S
C628 C624 1.407 . S
C628 C627 1.332 . S
H629 C622 0.930 . S
H630 C653 0.930 . S
H631 C654 0.929 . S
O632 Tb588 2.465 . S
O632 C652 1.264 . S
O633 Tb588 2.387 1_455 S
O633 C644 1.264 . S
O634 Tb599 2.349 . S
O634 C644 1.243 . S
O635 Tb588 2.428 . S
O635 C652 1.256 . S
O636 Tb588 2.308 1_455 S
O636 C651 1.266 . S
O637 Tb599 2.393 . S
O637 C651 1.248 . S
O638 Tb599 2.465 . S
O638 C663 1.264 . S
O639 Tb599 2.387 1_655 S
O639 C655 1.264 . S
O640 Tb588 2.349 . S
O640 C655 1.243 . S
O641 Tb599 2.428 . S
O641 C663 1.256 . S
O642 Tb599 2.308 1_655 S
O642 C662 1.266 . S
O643 Tb588 2.393 . S
O643 C662 1.248 . S
C644 O633 1.264 . S
C644 O634 1.243 . S
C645 C648 1.399 . S
C645 C650 1.383 . S
C645 C652 1.496 . S
C646 C647 1.399 . S
C646 C650 1.389 . S
C647 C646 1.399 . S
C647 C649 1.380 . S
C647 H664 0.929 . S
C648 C645 1.399 . S
C648 C649 1.392 . S
C648 H665 0.929 . S
C649 C647 1.380 . S
C649 C648 1.392 . S
C649 H666 0.929 . S
C650 C645 1.383 . S
C650 C646 1.389 . S
C650 H667 0.931 . S
C651 O636 1.266 . S
C651 O637 1.248 . S
C652 Tb588 2.802 . S
C652 O632 1.264 . S
C652 O635 1.256 . S
C652 C645 1.496 . S
C653 C620 1.448 1_455 S
C653 H630 0.930 . S
C653 C654 1.328 . S
C654 C625 1.427 . S
C654 H631 0.929 . S
C654 C653 1.328 . S
C655 O639 1.264 . S
C655 O640 1.243 . S
C656 C659 1.399 . S
C656 C660 1.383 . S
C656 C663 1.496 . S
C657 C658 1.399 . S
C657 C660 1.389 . S
C658 C657 1.399 . S
C658 C661 1.380 . S
C658 H668 0.929 . S
C659 C656 1.399 . S
C659 C661 1.392 . S
C659 H669 0.929 . S
C660 C656 1.383 . S
C660 C657 1.389 . S
C660 H670 0.931 . S
C661 C658 1.380 . S
C661 C659 1.392 . S
C661 H671 0.929 . S
C662 O642 1.266 . S
C662 O643 1.248 . S
C663 Tb599 2.802 . S
C663 O638 1.264 . S
C663 O641 1.256 . S
C663 C656 1.496 . S
H664 C647 0.929 . S
H665 C648 0.929 . S
H666 C649 0.929 . S
H667 C650 0.931 . S
H668 C658 0.929 . S
H669 C659 0.929 . S
H670 C660 0.931 . S
H671 C661 0.929 . S
Tb672 N701 2.617 . S
Tb672 N707 2.572 . S
Tb672 O716 2.465 . S
Tb672 O717 2.387 . S
Tb672 O719 2.428 . S
Tb672 O720 2.308 1_554 S
Tb672 O724 2.349 1_554 S
Tb672 O727 2.393 . S
Tb672 C736 2.802 . S
C673 N674 1.379 . S
C673 C676 1.416 . S
C673 C680 1.424 . S
N674 C673 1.379 . S
N674 C677 1.334 . S
N674 Tb683 2.617 . S
C675 C677 1.390 . S
C675 C678 1.339 . S
C675 H695 0.930 . S
C676 C673 1.416 . S
C676 C678 1.416 . S
C676 C682 1.448 . S
C677 N674 1.334 . S
C677 C675 1.390 . S
C677 H688 0.930 . S
C678 C675 1.339 . S
C678 C676 1.416 . S
C678 H699 0.930 . S
C679 C680 1.413 . S
C679 C681 1.427 . S
C679 C685 1.416 . S
C680 C673 1.424 . S
C680 C679 1.413 . S
C680 N684 1.361 . S
C681 C679 1.427 . S
C681 C682 1.328 . S
C681 H696 0.929 . S
C682 C676 1.448 . S
C682 C681 1.328 . S
C682 H697 0.930 . S
Tb683 N674 2.617 . S
Tb683 N684 2.572 . S
Tb683 O718 2.349 1_556 S
Tb683 O721 2.393 . S
Tb683 O722 2.465 . S
Tb683 O723 2.387 . S
Tb683 O725 2.428 . S
Tb683 O726 2.308 1_556 S
Tb683 C747 2.802 . S
N684 C680 1.361 . S
N684 Tb683 2.572 . S
N684 C686 1.340 . S
C685 C679 1.416 . S
C685 C687 1.332 . S
C685 H693 0.931 . S
C686 N684 1.340 . S
C686 C687 1.407 . S
C686 H692 0.930 . S
C687 C685 1.332 . S
C687 C686 1.407 . S
C687 H689 0.929 . S
H688 C677 0.930 . S
H689 C687 0.929 . S
H690 C705 0.930 . S
H691 C712 0.929 . S
H692 C686 0.930 . S
H693 C685 0.931 . S
H694 C708 0.930 . S
H695 C675 0.930 . S
H696 C681 0.929 . S
H697 C682 0.930 . S
H698 C703 0.930 . S
H699 C678 0.930 . S
H700 C711 0.931 . S
N701 Tb672 2.617 . S
N701 C702 1.379 . S
N701 C705 1.334 . S
C702 N701 1.379 . S
C702 C704 1.416 . S
C702 C710 1.424 . S
C703 H698 0.930 . S
C703 C705 1.390 . S
C703 C706 1.339 . S
C704 C702 1.416 . S
C704 C706 1.416 . S
C704 C737 1.448 . S
C705 H690 0.930 . S
C705 N701 1.334 . S
C705 C703 1.390 . S
C706 C703 1.339 . S
C706 C704 1.416 . S
C706 H713 0.930 . S
N707 Tb672 2.572 . S
N707 C708 1.340 . S
N707 C710 1.361 . S
C708 H694 0.930 . S
C708 N707 1.340 . S
C708 C712 1.407 . S
C709 C710 1.413 . S
C709 C711 1.416 . S
C709 C738 1.427 . S
C710 C702 1.424 . S
C710 N707 1.361 . S
C710 C709 1.413 . S
C711 H700 0.931 . S
C711 C709 1.416 . S
C711 C712 1.332 . S
C712 H691 0.929 . S
C712 C708 1.407 . S
C712 C711 1.332 . S
H713 C706 0.930 . S
H714 C737 0.930 . S
H715 C738 0.929 . S
O716 Tb672 2.465 . S
O716 C736 1.264 . S
O717 Tb672 2.387 . S
O717 C728 1.264 . S
O718 Tb683 2.349 1_554 S
O718 C728 1.243 . S
O719 Tb672 2.428 . S
O719 C736 1.256 . S
O720 Tb672 2.308 1_556 S
O720 C735 1.266 . S
O721 Tb683 2.393 . S
O721 C735 1.248 . S
O722 Tb683 2.465 . S
O722 C747 1.264 . S
O723 Tb683 2.387 . S
O723 C739 1.264 . S
O724 Tb672 2.349 1_556 S
O724 C739 1.243 . S
O725 Tb683 2.428 . S
O725 C747 1.256 . S
O726 Tb683 2.308 1_554 S
O726 C746 1.266 . S
O727 Tb672 2.393 . S
O727 C746 1.248 . S
C728 O717 1.264 . S
C728 O718 1.243 . S
C729 C732 1.399 . S
C729 C734 1.383 . S
C729 C736 1.496 . S
C730 C731 1.399 . S
C730 C734 1.389 . S
C731 C730 1.399 . S
C731 C733 1.380 . S
C731 H748 0.929 . S
C732 C729 1.399 . S
C732 C733 1.392 . S
C732 H749 0.929 . S
C733 C731 1.380 . S
C733 C732 1.392 . S
C733 H750 0.929 . S
C734 C729 1.383 . S
C734 C730 1.389 . S
C734 H751 0.931 . S
C735 O720 1.266 . S
C735 O721 1.248 . S
C736 Tb672 2.802 . S
C736 O716 1.264 . S
C736 O719 1.256 . S
C736 C729 1.496 . S
C737 C704 1.448 . S
C737 H714 0.930 . S
C737 C738 1.328 . S
C738 C709 1.427 . S
C738 H715 0.929 . S
C738 C737 1.328 . S
C739 O723 1.264 . S
C739 O724 1.243 . S
C740 C743 1.399 . S
C740 C744 1.383 . S
C740 C747 1.496 . S
C741 C742 1.399 . S
C741 C744 1.389 . S
C742 C741 1.399 . S
C742 C745 1.380 . S
C742 H752 0.929 . S
C743 C740 1.399 . S
C743 C745 1.392 . S
C743 H753 0.929 . S
C744 C740 1.383 . S
C744 C741 1.389 . S
C744 H754 0.910 1_556 S
C745 C742 1.380 . S
C745 C743 1.392 . S
C745 H755 0.929 . S
C746 O726 1.266 . S
C746 O727 1.248 . S
C747 Tb683 2.802 . S
C747 O722 1.264 . S
C747 O725 1.256 . S
C747 C740 1.496 . S
H748 C731 0.929 . S
H749 C732 0.929 . S
H750 C733 0.929 . S
H751 C734 0.931 . S
H752 C742 0.929 . S
H753 C743 0.929 . S
H754 C744 0.910 1_554 S
H755 C745 0.929 . S
Tb756 N785 2.617 . S
Tb756 N791 2.572 . S
Tb756 O800 2.465 . S
Tb756 O801 2.387 . S
Tb756 O803 2.428 . S
Tb756 O804 2.308 1_545 S
Tb756 O808 2.349 1_545 S
Tb756 O811 2.393 . S
Tb756 C820 2.802 . S
C757 N758 1.379 . S
C757 C760 1.416 . S
C757 C764 1.424 . S
N758 C757 1.379 . S
N758 C761 1.334 . S
N758 Tb767 2.617 . S
C759 C761 1.390 . S
C759 C762 1.339 . S
C759 H779 0.930 . S
C760 C757 1.416 . S
C760 C762 1.416 . S
C760 C766 1.448 . S
C761 N758 1.334 . S
C761 C759 1.390 . S
C761 H772 0.930 . S
C762 C759 1.339 . S
C762 C760 1.416 . S
C762 H783 0.930 . S
C763 C764 1.413 . S
C763 C765 1.427 . S
C763 C769 1.416 . S
C764 C757 1.424 . S
C764 C763 1.413 . S
C764 N768 1.361 . S
C765 C763 1.427 . S
C765 C766 1.328 . S
C765 H780 0.929 . S
C766 C760 1.448 . S
C766 C765 1.328 . S
C766 H781 0.930 . S
Tb767 N758 2.617 . S
Tb767 N768 2.572 . S
Tb767 O802 2.349 1_565 S
Tb767 O805 2.393 . S
Tb767 O806 2.465 1_565 S
Tb767 O807 2.387 . S
Tb767 O809 2.428 . S
Tb767 O810 2.308 1_565 S
Tb767 C831 2.802 . S
N768 C764 1.361 . S
N768 Tb767 2.572 . S
N768 C770 1.340 . S
C769 C763 1.416 . S
C769 C771 1.332 . S
C769 H777 0.931 . S
C770 N768 1.340 . S
C770 C771 1.407 . S
C770 H776 0.930 . S
C771 C769 1.332 . S
C771 C770 1.407 . S
C771 H773 0.929 . S
H772 C761 0.930 . S
H773 C771 0.929 . S
H774 C789 0.930 . S
H775 C796 0.929 . S
H776 C770 0.930 . S
H777 C769 0.931 . S
H778 C792 0.930 . S
H779 C759 0.930 . S
H780 C765 0.929 . S
H781 C766 0.930 . S
H782 C787 0.930 . S
H783 C762 0.930 . S
H784 C795 0.931 . S
N785 Tb756 2.617 . S
N785 C786 1.379 . S
N785 C789 1.334 . S
C786 N785 1.379 . S
C786 C788 1.416 . S
C786 C794 1.424 . S
C787 H782 0.930 . S
C787 C789 1.390 . S
C787 C790 1.339 . S
C788 C786 1.416 . S
C788 C790 1.416 . S
C788 C821 1.448 . S
C789 H774 0.930 . S
C789 N785 1.334 . S
C789 C787 1.390 . S
C790 C787 1.339 . S
C790 C788 1.416 . S
C790 H797 0.930 . S
N791 Tb756 2.572 . S
N791 C792 1.340 . S
N791 C794 1.361 . S
C792 H778 0.930 . S
C792 N791 1.340 . S
C792 C796 1.407 . S
C793 C794 1.413 . S
C793 C795 1.416 . S
C793 C822 1.427 . S
C794 C786 1.424 . S
C794 N791 1.361 . S
C794 C793 1.413 . S
C795 H784 0.931 . S
C795 C793 1.416 . S
C795 C796 1.332 . S
C796 H775 0.929 . S
C796 C792 1.407 . S
C796 C795 1.332 . S
H797 C790 0.930 . S
H798 C821 0.930 . S
H799 C822 0.929 . S
O800 Tb756 2.465 . S
O800 C820 1.264 . S
O801 Tb756 2.387 . S
O801 C812 1.264 . S
O802 Tb767 2.349 1_545 S
O802 C812 1.243 . S
O803 Tb756 2.428 . S
O803 C820 1.256 . S
O804 Tb756 2.308 1_565 S
O804 C819 1.266 . S
O805 Tb767 2.393 . S
O805 C819 1.248 . S
O806 Tb767 2.465 1_545 S
O806 C831 1.264 1_545 S
O807 Tb767 2.387 . S
O807 C823 1.264 . S
O808 Tb756 2.349 1_565 S
O808 C823 1.243 . S
O809 Tb767 2.428 . S
O809 C831 1.256 . S
O810 Tb767 2.308 1_545 S
O810 C830 1.266 . S
O811 Tb756 2.393 . S
O811 C830 1.248 . S
C812 O801 1.264 . S
C812 O802 1.243 . S
C813 C816 1.399 . S
C813 C818 1.383 1_545 S
C813 C820 1.496 . S
C814 C815 1.399 1_565 S
C814 C818 1.389 . S
C815 C814 1.399 1_545 S
C815 C817 1.380 . S
C815 H832 0.929 . S
C816 C813 1.399 . S
C816 C817 1.392 . S
C816 H833 0.929 . S
C817 C815 1.380 . S
C817 C816 1.392 . S
C817 H834 0.929 . S
C818 C813 1.383 1_565 S
C818 C814 1.389 . S
C818 H835 0.931 . S
C819 O804 1.266 . S
C819 O805 1.248 . S
C820 Tb756 2.802 . S
C820 O800 1.264 . S
C820 O803 1.256 . S
C820 C813 1.496 . S
C821 C788 1.448 . S
C821 H798 0.930 . S
C821 C822 1.328 . S
C822 C793 1.427 . S
C822 H799 0.929 . S
C822 C821 1.328 . S
C823 O807 1.264 . S
C823 O808 1.243 . S
C824 C827 1.399 1_545 S
C824 C828 1.383 . S
C824 C831 1.496 1_545 S
C825 C826 1.399 . S
C825 C828 1.389 . S
C826 C825 1.399 . S
C826 C829 1.380 1_545 S
C826 H836 0.929 . S
C827 C824 1.399 1_565 S
C827 C829 1.392 . S
C827 H837 0.929 . S
C828 C824 1.383 . S
C828 C825 1.389 . S
C828 H838 0.931 . S
C829 C826 1.380 1_565 S
C829 C827 1.392 . S
C829 H839 0.929 . S
C830 O810 1.266 . S
C830 O811 1.248 . S
C831 Tb767 2.802 . S
C831 O806 1.264 1_565 S
C831 O809 1.256 . S
C831 C824 1.496 1_565 S
H832 C815 0.929 . S
H833 C816 0.929 . S
H834 C817 0.929 . S
H835 C818 0.931 . S
H836 C826 0.929 . S
H837 C827 0.929 . S
H838 C828 0.931 . S
H839 C829 0.929 . S
Tb840 N869 2.617 . S
Tb840 N875 2.572 . S
Tb840 O884 2.465 . S
Tb840 O885 2.387 . S
Tb840 O887 2.428 . S
Tb840 O888 2.308 . S
Tb840 O892 2.349 . S
Tb840 O895 2.393 . S
Tb840 C904 2.802 . S
C841 N842 1.379 . S
C841 C844 1.416 . S
C841 C848 1.424 . S
N842 C841 1.379 . S
N842 C845 1.334 . S
N842 Tb851 2.617 . S
C843 C845 1.390 . S
C843 C846 1.339 . S
C843 H863 0.930 . S
C844 C841 1.416 . S
C844 C846 1.416 . S
C844 C850 1.448 . S
C845 N842 1.334 . S
C845 C843 1.390 . S
C845 H856 0.930 . S
C846 C843 1.339 . S
C846 C844 1.416 . S
C846 H867 0.930 . S
C847 C848 1.413 . S
C847 C849 1.427 . S
C847 C853 1.416 . S
C848 C841 1.424 . S
C848 C847 1.413 . S
C848 N852 1.361 . S
C849 C847 1.427 . S
C849 C850 1.328 . S
C849 H864 0.929 . S
C850 C844 1.448 . S
C850 C849 1.328 . S
C850 H865 0.930 . S
Tb851 N842 2.617 . S
Tb851 N852 2.572 . S
Tb851 O886 2.349 . S
Tb851 O889 2.393 . S
Tb851 O890 2.465 . S
Tb851 O891 2.387 . S
Tb851 O893 2.428 . S
Tb851 O894 2.308 . S
Tb851 C915 2.802 . S
N852 C848 1.361 . S
N852 Tb851 2.572 . S
N852 C854 1.340 . S
C853 C847 1.416 . S
C853 C855 1.332 . S
C853 H861 0.931 . S
C854 N852 1.340 . S
C854 C855 1.407 . S
C854 H860 0.930 . S
C855 C853 1.332 . S
C855 C854 1.407 . S
C855 H857 0.929 . S
H856 C845 0.930 . S
H857 C855 0.929 . S
H858 C873 0.930 . S
H859 C880 0.929 . S
H860 C854 0.930 . S
H861 C853 0.931 . S
H862 C876 0.930 . S
H863 C843 0.930 . S
H864 C849 0.929 . S
H865 C850 0.930 . S
H866 C871 0.930 . S
H867 C846 0.930 . S
H868 C879 0.931 . S
N869 Tb840 2.617 . S
N869 C870 1.379 . S
N869 C873 1.334 . S
C870 N869 1.379 . S
C870 C872 1.416 . S
C870 C878 1.424 . S
C871 H866 0.930 . S
C871 C873 1.390 . S
C871 C874 1.339 . S
C872 C870 1.416 . S
C872 C874 1.416 . S
C872 C905 1.448 . S
C873 H858 0.930 . S
C873 N869 1.334 . S
C873 C871 1.390 . S
C874 C871 1.339 . S
C874 C872 1.416 . S
C874 H881 0.930 . S
N875 Tb840 2.572 . S
N875 C876 1.340 . S
N875 C878 1.361 . S
C876 H862 0.930 . S
C876 N875 1.340 . S
C876 C880 1.407 . S
C877 C878 1.413 . S
C877 C879 1.416 . S
C877 C906 1.427 . S
C878 C870 1.424 . S
C878 N875 1.361 . S
C878 C877 1.413 . S
C879 H868 0.931 . S
C879 C877 1.416 . S
C879 C880 1.332 . S
C880 H859 0.929 . S
C880 C876 1.407 . S
C880 C879 1.332 . S
H881 C874 0.930 . S
H882 C905 0.930 . S
H883 C906 0.929 . S
O884 Tb840 2.465 . S
O884 C904 1.264 . S
O885 Tb840 2.387 . S
O885 C896 1.264 . S
O886 Tb851 2.349 . S
O886 C896 1.243 . S
O887 Tb840 2.428 . S
O887 C904 1.256 . S
O888 Tb840 2.308 . S
O888 C903 1.266 . S
O889 Tb851 2.393 . S
O889 C903 1.248 . S
O890 Tb851 2.465 . S
O890 C915 1.264 . S
O891 Tb851 2.387 . S
O891 C907 1.264 . S
O892 Tb840 2.349 . S
O892 C907 1.243 . S
O893 Tb851 2.428 . S
O893 C915 1.256 . S
O894 Tb851 2.308 . S
O894 C914 1.266 . S
O895 Tb840 2.393 . S
O895 C914 1.248 . S
C896 O885 1.264 . S
C896 O886 1.243 . S
C897 C900 1.399 . S
C897 C902 1.383 . S
C897 C904 1.496 . S
C898 C899 1.399 . S
C898 C902 1.389 . S
C899 C898 1.399 . S
C899 C901 1.380 . S
C899 H916 0.929 . S
C900 C897 1.399 . S
C900 C901 1.392 . S
C900 H917 0.929 . S
C901 C899 1.380 . S
C901 C900 1.392 . S
C901 H918 0.929 . S
C902 C897 1.383 . S
C902 C898 1.389 . S
C902 H919 0.931 . S
C903 O888 1.266 . S
C903 O889 1.248 . S
C904 Tb840 2.802 . S
C904 O884 1.264 . S
C904 O887 1.256 . S
C904 C897 1.496 . S
C905 C872 1.448 . S
C905 H882 0.930 . S
C905 C906 1.328 . S
C906 C877 1.427 . S
C906 H883 0.929 . S
C906 C905 1.328 . S
C907 O891 1.264 . S
C907 O892 1.243 . S
C908 C911 1.399 . S
C908 C912 1.383 . S
C908 C915 1.496 . S
C909 C910 1.399 . S
C909 C912 1.389 . S
C910 C909 1.399 . S
C910 C913 1.380 . S
C910 H920 0.929 . S
C911 C908 1.399 . S
C911 C913 1.392 . S
C911 H921 0.929 . S
C912 C908 1.383 . S
C912 C909 1.389 . S
C912 H922 0.931 . S
C913 C910 1.380 . S
C913 C911 1.392 . S
C913 H923 0.929 . S
C914 O894 1.266 . S
C914 O895 1.248 . S
C915 Tb851 2.802 . S
C915 O890 1.264 . S
C915 O893 1.256 . S
C915 C908 1.496 . S
H916 C899 0.929 . S
H917 C900 0.929 . S
H918 C901 0.929 . S
H919 C902 0.931 . S
H920 C910 0.929 . S
H921 C911 0.929 . S
H922 C912 0.931 . S
H923 C913 0.929 . S
Tb924 N953 2.617 . S
Tb924 N959 2.572 . S
Tb924 O968 2.465 1_655 S
Tb924 O969 2.387 . S
Tb924 O971 2.428 . S
Tb924 O972 2.308 1_655 S
Tb924 O976 2.349 1_655 S
Tb924 O979 2.393 . S
Tb924 C988 2.802 . S
C925 N926 1.379 . S
C925 C928 1.416 . S
C925 C932 1.424 . S
N926 C925 1.379 . S
N926 C929 1.334 . S
N926 Tb935 2.617 . S
C927 C929 1.390 . S
C927 C930 1.339 . S
C927 H947 0.930 . S
C928 C925 1.416 . S
C928 C930 1.416 . S
C928 C934 1.448 . S
C929 N926 1.334 . S
C929 C927 1.390 . S
C929 H940 0.930 . S
C930 C927 1.339 . S
C930 C928 1.416 . S
C930 H951 0.930 . S
C931 C932 1.413 . S
C931 C933 1.427 . S
C931 C937 1.416 . S
C932 C925 1.424 . S
C932 C931 1.413 . S
C932 N936 1.361 . S
C933 C931 1.427 . S
C933 C934 1.328 . S
C933 H948 0.929 . S
C934 C928 1.448 . S
C934 C933 1.328 . S
C934 H949 0.930 . S
Tb935 N926 2.617 . S
Tb935 N936 2.572 . S
Tb935 O970 2.349 1_455 S
Tb935 O973 2.393 . S
Tb935 O974 2.465 . S
Tb935 O975 2.387 . S
Tb935 O977 2.428 . S
Tb935 O978 2.308 1_455 S
Tb935 C999 2.802 . S
N936 C932 1.361 . S
N936 Tb935 2.572 . S
N936 C938 1.340 . S
C937 C931 1.416 . S
C937 C939 1.332 . S
C937 H945 0.931 . S
C938 N936 1.340 . S
C938 C939 1.407 . S
C938 H944 0.930 . S
C939 C937 1.332 . S
C939 C938 1.407 . S
C939 H941 0.929 . S
H940 C929 0.930 . S
H941 C939 0.929 . S
H942 C957 0.930 . S
H943 C964 0.929 . S
H944 C938 0.930 . S
H945 C937 0.931 . S
H946 C960 0.930 . S
H947 C927 0.930 . S
H948 C933 0.929 . S
H949 C934 0.930 . S
H950 C955 0.930 . S
H951 C930 0.930 . S
H952 C963 0.931 . S
N953 Tb924 2.617 . S
N953 C954 1.379 . S
N953 C957 1.334 . S
C954 N953 1.379 . S
C954 C956 1.416 . S
C954 C962 1.424 . S
C955 H950 0.930 . S
C955 C957 1.390 . S
C955 C958 1.339 . S
C956 C954 1.416 . S
C956 C958 1.416 . S
C956 C989 1.448 . S
C957 H942 0.930 . S
C957 N953 1.334 . S
C957 C955 1.390 . S
C958 C955 1.339 . S
C958 C956 1.416 . S
C958 H965 0.930 . S
N959 Tb924 2.572 . S
N959 C960 1.340 . S
N959 C962 1.361 . S
C960 H946 0.930 . S
C960 N959 1.340 . S
C960 C964 1.407 . S
C961 C962 1.413 . S
C961 C963 1.416 . S
C961 C990 1.427 . S
C962 C954 1.424 . S
C962 N959 1.361 . S
C962 C961 1.413 . S
C963 H952 0.931 . S
C963 C961 1.416 . S
C963 C964 1.332 . S
C964 H943 0.929 . S
C964 C960 1.407 . S
C964 C963 1.332 . S
H965 C958 0.930 . S
H966 C989 0.930 . S
H967 C990 0.929 . S
O968 Tb924 2.465 1_455 S
O968 C988 1.264 1_455 S
O969 Tb924 2.387 . S
O969 C980 1.264 . S
O970 Tb935 2.349 1_655 S
O970 C980 1.243 . S
O971 Tb924 2.428 . S
O971 C988 1.256 . S
O972 Tb924 2.308 1_455 S
O972 C987 1.266 . S
O973 Tb935 2.393 . S
O973 C987 1.248 . S
O974 Tb935 2.465 . S
O974 C999 1.264 . S
O975 Tb935 2.387 . S
O975 C991 1.264 . S
O976 Tb924 2.349 1_455 S
O976 C991 1.243 . S
O977 Tb935 2.428 . S
O977 C999 1.256 . S
O978 Tb935 2.308 1_655 S
O978 C998 1.266 . S
O979 Tb924 2.393 . S
O979 C998 1.248 . S
C980 O969 1.264 . S
C980 O970 1.243 . S
C981 C984 1.402 1_455 S
C981 C986 1.381 . S
C981 C988 1.495 1_455 S
C982 C983 1.399 . S
C982 C986 1.389 . S
C983 C982 1.399 . S
C983 C985 1.380 1_455 S
C983 H1000 0.929 . S
C984 C981 1.402 1_655 S
C984 C985 1.392 . S
C984 H1001 0.929 . S
C985 C983 1.380 1_655 S
C985 C984 1.392 . S
C985 H1002 0.929 . S
C986 C981 1.381 . S
C986 C982 1.389 . S
C986 H1003 0.931 . S
C987 O972 1.266 . S
C987 O973 1.248 . S
C988 Tb924 2.802 . S
C988 O968 1.264 1_655 S
C988 O971 1.256 . S
C988 C981 1.495 1_655 S
C989 C956 1.448 . S
C989 H966 0.930 . S
C989 C990 1.328 . S
C990 C961 1.427 . S
C990 H967 0.929 . S
C990 C989 1.328 . S
C991 O975 1.264 . S
C991 O976 1.243 . S
C992 C995 1.399 . S
C992 C996 1.383 1_455 S
C992 C999 1.496 . S
C993 C994 1.392 1_655 S
C993 C996 1.389 . S
C994 C993 1.392 1_455 S
C994 C997 1.384 . S
C994 H1004 0.931 1_455 S
C995 C992 1.399 . S
C995 C997 1.392 . S
C995 H1005 0.929 . S
C996 C992 1.383 1_655 S
C996 C993 1.389 . S
C996 H1006 0.931 . S
C997 C994 1.384 . S
C997 C995 1.392 . S
C997 H1007 0.929 . S
C998 O978 1.266 . S
C998 O979 1.248 . S
C999 Tb935 2.802 . S
C999 O974 1.264 . S
C999 O977 1.256 . S
C999 C992 1.496 . S
H1000 C983 0.929 . S
H1001 C984 0.929 . S
H1002 C985 0.929 . S
H1003 C986 0.931 . S
H1004 C994 0.931 1_655 S
H1005 C995 0.929 . S
H1006 C996 0.931 . S
H1007 C997 0.929 . S
Tb1008 N1037 2.617 . S
Tb1008 N1043 2.572 . S
Tb1008 O1052 2.465 . S
Tb1008 O1053 2.387 . S
Tb1008 O1055 2.428 . S
Tb1008 O1056 2.308 . S
Tb1008 O1060 2.349 . S
Tb1008 O1063 2.393 . S
Tb1008 C1072 2.802 . S
C1009 N1010 1.379 . S
C1009 C1012 1.416 . S
C1009 C1016 1.424 . S
N1010 C1009 1.379 . S
N1010 C1013 1.334 . S
N1010 Tb1019 2.617 . S
C1011 C1013 1.390 . S
C1011 C1014 1.339 . S
C1011 H1031 0.930 . S
C1012 C1009 1.416 . S
C1012 C1014 1.416 . S
C1012 C1018 1.448 . S
C1013 N1010 1.334 . S
C1013 C1011 1.390 . S
C1013 H1024 0.930 . S
C1014 C1011 1.339 . S
C1014 C1012 1.416 . S
C1014 H1035 0.930 . S
C1015 C1016 1.413 . S
C1015 C1017 1.427 . S
C1015 C1021 1.416 . S
C1016 C1009 1.424 . S
C1016 C1015 1.413 . S
C1016 N1020 1.361 . S
C1017 C1015 1.427 . S
C1017 C1018 1.328 . S
C1017 H1032 0.929 . S
C1018 C1012 1.448 . S
C1018 C1017 1.328 . S
C1018 H1033 0.930 . S
Tb1019 N1010 2.617 . S
Tb1019 N1020 2.572 . S
Tb1019 O1054 2.349 . S
Tb1019 O1057 2.393 . S
Tb1019 O1058 2.465 . S
Tb1019 O1059 2.387 . S
Tb1019 O1061 2.428 . S
Tb1019 O1062 2.308 . S
Tb1019 C1083 2.802 . S
N1020 C1016 1.361 . S
N1020 Tb1019 2.572 . S
N1020 C1022 1.340 . S
C1021 C1015 1.416 . S
C1021 C1023 1.332 . S
C1021 H1029 0.931 . S
C1022 N1020 1.340 . S
C1022 C1023 1.407 . S
C1022 H1028 0.930 . S
C1023 C1021 1.332 . S
C1023 C1022 1.407 . S
C1023 H1025 0.929 . S
H1024 C1013 0.930 . S
H1025 C1023 0.929 . S
H1026 C1041 0.930 . S
H1027 C1048 0.929 . S
H1028 C1022 0.930 . S
H1029 C1021 0.931 . S
H1030 C1044 0.930 . S
H1031 C1011 0.930 . S
H1032 C1017 0.929 . S
H1033 C1018 0.930 . S
H1034 C1039 0.930 . S
H1035 C1014 0.930 . S
H1036 C1047 0.931 . S
N1037 Tb1008 2.617 . S
N1037 C1038 1.379 . S
N1037 C1041 1.334 . S
C1038 N1037 1.379 . S
C1038 C1040 1.416 . S
C1038 C1046 1.424 . S
C1039 H1034 0.930 . S
C1039 C1041 1.390 . S
C1039 C1042 1.339 . S
C1040 C1038 1.416 . S
C1040 C1042 1.416 . S
C1040 C1073 1.448 . S
C1041 H1026 0.930 . S
C1041 N1037 1.334 . S
C1041 C1039 1.390 . S
C1042 C1039 1.339 . S
C1042 C1040 1.416 . S
C1042 H1049 0.930 . S
N1043 Tb1008 2.572 . S
N1043 C1044 1.340 . S
N1043 C1046 1.361 . S
C1044 H1030 0.930 . S
C1044 N1043 1.340 . S
C1044 C1048 1.407 . S
C1045 C1046 1.413 . S
C1045 C1047 1.416 . S
C1045 C1074 1.427 . S
C1046 C1038 1.424 . S
C1046 N1043 1.361 . S
C1046 C1045 1.413 . S
C1047 H1036 0.931 . S
C1047 C1045 1.416 . S
C1047 C1048 1.332 . S
C1048 H1027 0.929 . S
C1048 C1044 1.407 . S
C1048 C1047 1.332 . S
H1049 C1042 0.930 . S
H1050 C1073 0.930 . S
H1051 C1074 0.929 . S
O1052 Tb1008 2.465 . S
O1052 C1072 1.264 . S
O1053 Tb1008 2.387 . S
O1053 C1064 1.264 . S
O1054 Tb1019 2.349 . S
O1054 C1064 1.243 . S
O1055 Tb1008 2.428 . S
O1055 C1072 1.256 . S
O1056 Tb1008 2.308 . S
O1056 C1071 1.266 . S
O1057 Tb1019 2.393 . S
O1057 C1071 1.248 . S
O1058 Tb1019 2.465 . S
O1058 C1083 1.264 . S
O1059 Tb1019 2.387 . S
O1059 C1075 1.264 . S
O1060 Tb1008 2.349 . S
O1060 C1075 1.243 . S
O1061 Tb1019 2.428 . S
O1061 C1083 1.256 . S
O1062 Tb1019 2.308 . S
O1062 C1082 1.266 . S
O1063 Tb1008 2.393 . S
O1063 C1082 1.248 . S
C1064 O1053 1.264 . S
C1064 O1054 1.243 . S
C1065 C1068 1.399 . S
C1065 C1070 1.383 . S
C1065 C1072 1.496 . S
C1066 C1067 1.399 . S
C1066 C1070 1.389 . S
C1067 C1066 1.399 . S
C1067 C1069 1.380 . S
C1067 H1084 0.929 . S
C1068 C1065 1.399 . S
C1068 C1069 1.392 . S
C1068 H1085 0.929 . S
C1069 C1067 1.380 . S
C1069 C1068 1.392 . S
C1069 H1086 0.929 . S
C1070 C1065 1.383 . S
C1070 C1066 1.389 . S
C1070 H1087 0.931 . S
C1071 O1056 1.266 . S
C1071 O1057 1.248 . S
C1072 Tb1008 2.802 . S
C1072 O1052 1.264 . S
C1072 O1055 1.256 . S
C1072 C1065 1.496 . S
C1073 C1040 1.448 . S
C1073 H1050 0.930 . S
C1073 C1074 1.328 . S
C1074 C1045 1.427 . S
C1074 H1051 0.929 . S
C1074 C1073 1.328 . S
C1075 O1059 1.264 . S
C1075 O1060 1.243 . S
C1076 C1079 1.399 . S
C1076 C1080 1.383 . S
C1076 C1083 1.496 . S
C1077 C1078 1.399 . S
C1077 C1080 1.389 . S
C1078 C1077 1.399 . S
C1078 C1081 1.380 . S
C1078 H1088 0.929 . S
C1079 C1076 1.399 . S
C1079 C1081 1.392 . S
C1079 H1089 0.929 . S
C1080 C1076 1.383 . S
C1080 C1077 1.389 . S
C1080 H1090 0.931 . S
C1081 C1078 1.380 . S
C1081 C1079 1.392 . S
C1081 H1091 0.929 . S
C1082 O1062 1.266 . S
C1082 O1063 1.248 . S
C1083 Tb1019 2.802 . S
C1083 O1058 1.264 . S
C1083 O1061 1.256 . S
C1083 C1076 1.496 . S
H1084 C1067 0.929 . S
H1085 C1068 0.929 . S
H1086 C1069 0.929 . S
H1087 C1070 0.931 . S
H1088 C1078 0.929 . S
H1089 C1079 0.929 . S
H1090 C1080 0.931 . S
H1091 C1081 0.929 . S
Tb1092 N1121 2.617 . S
Tb1092 N1127 2.572 . S
Tb1092 O1136 2.465 . S
Tb1092 O1137 2.387 . S
Tb1092 O1139 2.428 . S
Tb1092 O1140 2.308 1_556 S
Tb1092 O1144 2.349 1_556 S
Tb1092 O1147 2.393 . S
Tb1092 C1156 2.802 . S
C1093 N1094 1.379 . S
C1093 C1096 1.416 . S
C1093 C1100 1.424 . S
N1094 C1093 1.379 . S
N1094 C1097 1.334 . S
N1094 Tb1103 2.617 . S
C1095 C1097 1.390 . S
C1095 C1098 1.339 . S
C1095 H1115 0.930 . S
C1096 C1093 1.416 . S
C1096 C1098 1.416 . S
C1096 C1102 1.448 . S
C1097 N1094 1.334 . S
C1097 C1095 1.390 . S
C1097 H1108 0.930 . S
C1098 C1095 1.339 . S
C1098 C1096 1.416 . S
C1098 H1119 0.930 . S
C1099 C1100 1.413 . S
C1099 C1101 1.427 . S
C1099 C1105 1.416 . S
C1100 C1093 1.424 . S
C1100 C1099 1.413 . S
C1100 N1104 1.361 . S
C1101 C1099 1.427 . S
C1101 C1102 1.328 . S
C1101 H1116 0.929 . S
C1102 C1096 1.448 . S
C1102 C1101 1.328 . S
C1102 H1117 0.930 . S
Tb1103 N1094 2.617 . S
Tb1103 N1104 2.572 . S
Tb1103 O1138 2.349 1_554 S
Tb1103 O1141 2.393 . S
Tb1103 O1142 2.465 . S
Tb1103 O1143 2.387 . S
Tb1103 O1145 2.428 . S
Tb1103 O1146 2.308 1_554 S
Tb1103 C1167 2.802 . S
N1104 C1100 1.361 . S
N1104 Tb1103 2.572 . S
N1104 C1106 1.340 . S
C1105 C1099 1.416 . S
C1105 C1107 1.332 . S
C1105 H1113 0.931 . S
C1106 N1104 1.340 . S
C1106 C1107 1.407 . S
C1106 H1112 0.930 . S
C1107 C1105 1.332 . S
C1107 C1106 1.407 . S
C1107 H1109 0.929 . S
H1108 C1097 0.930 . S
H1109 C1107 0.929 . S
H1110 C1125 0.930 . S
H1111 C1132 0.929 . S
H1112 C1106 0.930 . S
H1113 C1105 0.931 . S
H1114 C1128 0.930 . S
H1115 C1095 0.930 . S
H1116 C1101 0.929 . S
H1117 C1102 0.930 . S
H1118 C1123 0.930 . S
H1119 C1098 0.930 . S
H1120 C1131 0.931 . S
N1121 Tb1092 2.617 . S
N1121 C1122 1.379 . S
N1121 C1125 1.334 . S
C1122 N1121 1.379 . S
C1122 C1124 1.416 . S
C1122 C1130 1.424 . S
C1123 H1118 0.930 . S
C1123 C1125 1.390 . S
C1123 C1126 1.339 . S
C1124 C1122 1.416 . S
C1124 C1126 1.416 . S
C1124 C1157 1.448 . S
C1125 H1110 0.930 . S
C1125 N1121 1.334 . S
C1125 C1123 1.390 . S
C1126 C1123 1.339 . S
C1126 C1124 1.416 . S
C1126 H1133 0.930 . S
N1127 Tb1092 2.572 . S
N1127 C1128 1.340 . S
N1127 C1130 1.361 . S
C1128 H1114 0.930 . S
C1128 N1127 1.340 . S
C1128 C1132 1.407 . S
C1129 C1130 1.413 . S
C1129 C1131 1.416 . S
C1129 C1158 1.427 . S
C1130 C1122 1.424 . S
C1130 N1127 1.361 . S
C1130 C1129 1.413 . S
C1131 H1120 0.931 . S
C1131 C1129 1.416 . S
C1131 C1132 1.332 . S
C1132 H1111 0.929 . S
C1132 C1128 1.407 . S
C1132 C1131 1.332 . S
H1133 C1126 0.930 . S
H1134 C1157 0.930 . S
H1135 C1158 0.929 . S
O1136 Tb1092 2.465 . S
O1136 C1156 1.264 . S
O1137 Tb1092 2.387 . S
O1137 C1148 1.264 . S
O1138 Tb1103 2.349 1_556 S
O1138 C1148 1.243 . S
O1139 Tb1092 2.428 . S
O1139 C1156 1.256 . S
O1140 Tb1092 2.308 1_554 S
O1140 C1155 1.266 . S
O1141 Tb1103 2.393 . S
O1141 C1155 1.248 . S
O1142 Tb1103 2.465 . S
O1142 C1167 1.264 . S
O1143 Tb1103 2.387 . S
O1143 C1159 1.264 . S
O1144 Tb1092 2.349 1_554 S
O1144 C1159 1.243 . S
O1145 Tb1103 2.428 . S
O1145 C1167 1.256 . S
O1146 Tb1103 2.308 1_556 S
O1146 C1166 1.266 . S
O1147 Tb1092 2.393 . S
O1147 C1166 1.248 . S
C1148 O1137 1.264 . S
C1148 O1138 1.243 . S
C1149 C1152 1.399 . S
C1149 C1154 1.383 . S
C1149 C1156 1.496 . S
C1150 C1151 1.399 . S
C1150 C1154 1.389 . S
C1151 C1150 1.399 . S
C1151 C1153 1.380 . S
C1151 H1168 0.929 . S
C1152 C1149 1.399 . S
C1152 C1153 1.392 . S
C1152 H1169 0.929 . S
C1153 C1151 1.380 . S
C1153 C1152 1.392 . S
C1153 H1170 0.929 . S
C1154 C1149 1.383 . S
C1154 C1150 1.389 . S
C1154 H1171 0.909 1_556 S
C1155 O1140 1.266 . S
C1155 O1141 1.248 . S
C1156 Tb1092 2.802 . S
C1156 O1136 1.264 . S
C1156 O1139 1.256 . S
C1156 C1149 1.496 . S
C1157 C1124 1.448 . S
C1157 H1134 0.930 . S
C1157 C1158 1.328 . S
C1158 C1129 1.427 . S
C1158 H1135 0.929 . S
C1158 C1157 1.328 . S
C1159 O1143 1.264 . S
C1159 O1144 1.243 . S
C1160 C1163 1.399 . S
C1160 C1164 1.383 . S
C1160 C1167 1.496 . S
C1161 C1162 1.399 . S
C1161 C1164 1.389 . S
C1162 C1161 1.399 . S
C1162 C1165 1.380 . S
C1162 H1172 0.929 . S
C1163 C1160 1.399 . S
C1163 C1165 1.392 . S
C1163 H1173 0.929 . S
C1164 C1160 1.383 . S
C1164 C1161 1.389 . S
C1164 H1174 0.931 . S
C1165 C1162 1.380 . S
C1165 C1163 1.392 . S
C1165 H1175 0.929 . S
C1166 O1146 1.266 . S
C1166 O1147 1.248 . S
C1167 Tb1103 2.802 . S
C1167 O1142 1.264 . S
C1167 O1145 1.256 . S
C1167 C1160 1.496 . S
H1168 C1151 0.929 . S
H1169 C1152 0.929 . S
H1170 C1153 0.929 . S
H1171 C1154 0.909 1_554 S
H1172 C1162 0.929 . S
H1173 C1163 0.929 . S
H1174 C1164 0.931 . S
H1175 C1165 0.929 . S
Tb1176 N1205 2.617 . S
Tb1176 N1211 2.572 . S
Tb1176 O1220 2.465 . S
Tb1176 O1221 2.387 . S
Tb1176 O1223 2.428 . S
Tb1176 O1224 2.308 . S
Tb1176 O1228 2.349 1_565 S
Tb1176 O1231 2.393 1_565 S
Tb1176 C1240 2.802 . S
C1177 N1178 1.379 . S
C1177 C1180 1.416 . S
C1177 C1184 1.424 . S
N1178 C1177 1.379 . S
N1178 C1181 1.334 . S
N1178 Tb1187 2.617 . S
C1179 C1181 1.390 . S
C1179 C1182 1.339 . S
C1179 H1199 0.930 1_545 S
C1180 C1177 1.416 . S
C1180 C1182 1.416 . S
C1180 C1186 1.448 . S
C1181 N1178 1.334 . S
C1181 C1179 1.390 . S
C1181 H1192 0.930 1_545 S
C1182 C1179 1.339 . S
C1182 C1180 1.416 . S
C1182 H1203 0.930 . S
C1183 C1184 1.413 . S
C1183 C1185 1.427 . S
C1183 C1189 1.416 . S
C1184 C1177 1.424 . S
C1184 C1183 1.413 . S
C1184 N1188 1.361 . S
C1185 C1183 1.427 . S
C1185 C1186 1.328 . S
C1185 H1200 0.929 . S
C1186 C1180 1.448 . S
C1186 C1185 1.328 . S
C1186 H1201 0.930 . S
Tb1187 N1178 2.617 . S
Tb1187 N1188 2.572 . S
Tb1187 O1222 2.349 . S
Tb1187 O1225 2.393 1_545 S
Tb1187 O1226 2.465 . S
Tb1187 O1227 2.387 . S
Tb1187 O1229 2.428 . S
Tb1187 O1230 2.308 . S
Tb1187 C1251 2.802 . S
N1188 C1184 1.361 . S
N1188 Tb1187 2.572 . S
N1188 C1190 1.340 . S
C1189 C1183 1.416 . S
C1189 C1191 1.332 . S
C1189 H1197 0.931 . S
C1190 N1188 1.340 . S
C1190 C1191 1.407 . S
C1190 H1196 0.930 . S
C1191 C1189 1.332 . S
C1191 C1190 1.407 . S
C1191 H1193 0.929 . S
H1192 C1181 0.930 1_565 S
H1193 C1191 0.929 . S
H1194 C1209 0.930 . S
H1195 C1216 0.929 . S
H1196 C1190 0.930 . S
H1197 C1189 0.931 . S
H1198 C1212 0.930 . S
H1199 C1179 0.930 1_565 S
H1200 C1185 0.929 . S
H1201 C1186 0.930 . S
H1202 C1207 0.930 . S
H1203 C1182 0.930 . S
H1204 C1215 0.931 . S
N1205 Tb1176 2.617 . S
N1205 C1206 1.379 . S
N1205 C1209 1.334 1_565 S
C1206 N1205 1.379 . S
C1206 C1208 1.416 . S
C1206 C1214 1.424 . S
C1207 H1202 0.930 . S
C1207 C1209 1.390 . S
C1207 C1210 1.339 1_545 S
C1208 C1206 1.416 . S
C1208 C1210 1.416 . S
C1208 C1241 1.448 . S
C1209 H1194 0.930 . S
C1209 N1205 1.334 1_545 S
C1209 C1207 1.390 . S
C1210 C1207 1.339 1_565 S
C1210 C1208 1.416 . S
C1210 H1217 0.930 . S
N1211 Tb1176 2.572 . S
N1211 C1212 1.340 . S
N1211 C1214 1.361 . S
C1212 H1198 0.930 . S
C1212 N1211 1.340 . S
C1212 C1216 1.407 . S
C1213 C1214 1.413 . S
C1213 C1215 1.416 . S
C1213 C1242 1.427 . S
C1214 C1206 1.424 . S
C1214 N1211 1.361 . S
C1214 C1213 1.413 . S
C1215 H1204 0.931 . S
C1215 C1213 1.416 . S
C1215 C1216 1.332 . S
C1216 H1195 0.929 . S
C1216 C1212 1.407 . S
C1216 C1215 1.332 . S
H1217 C1210 0.930 . S
H1218 C1241 0.930 . S
H1219 C1242 0.929 . S
O1220 Tb1176 2.465 . S
O1220 C1240 1.264 . S
O1221 Tb1176 2.387 . S
O1221 C1232 1.264 . S
O1222 Tb1187 2.349 . S
O1222 C1232 1.243 1_545 S
O1223 Tb1176 2.428 . S
O1223 C1240 1.256 . S
O1224 Tb1176 2.308 . S
O1224 C1239 1.266 . S
O1225 Tb1187 2.393 1_565 S
O1225 C1239 1.248 . S
O1226 Tb1187 2.465 . S
O1226 C1251 1.264 . S
O1227 Tb1187 2.387 . S
O1227 C1243 1.264 . S
O1228 Tb1176 2.349 1_545 S
O1228 C1243 1.243 . S
O1229 Tb1187 2.428 . S
O1229 C1251 1.256 . S
O1230 Tb1187 2.308 . S
O1230 C1250 1.266 . S
O1231 Tb1176 2.393 1_545 S
O1231 C1250 1.248 . S
C1232 O1221 1.264 . S
C1232 O1222 1.243 1_565 S
C1233 C1236 1.399 . S
C1233 C1238 1.383 . S
C1233 C1240 1.496 . S
C1234 C1235 1.399 . S
C1234 C1238 1.389 . S
C1235 C1234 1.399 . S
C1235 C1237 1.380 . S
C1235 H1252 0.929 . S
C1236 C1233 1.399 . S
C1236 C1237 1.392 . S
C1236 H1253 0.929 . S
C1237 C1235 1.380 . S
C1237 C1236 1.392 . S
C1237 H1254 0.929 . S
C1238 C1233 1.383 . S
C1238 C1234 1.389 . S
C1238 H1255 0.931 . S
C1239 O1224 1.266 . S
C1239 O1225 1.248 . S
C1240 Tb1176 2.802 . S
C1240 O1220 1.264 . S
C1240 O1223 1.256 . S
C1240 C1233 1.496 . S
C1241 C1208 1.448 . S
C1241 H1218 0.930 . S
C1241 C1242 1.328 . S
C1242 C1213 1.427 . S
C1242 H1219 0.929 . S
C1242 C1241 1.328 . S
C1243 O1227 1.264 . S
C1243 O1228 1.243 . S
C1244 C1247 1.399 . S
C1244 C1248 1.383 . S
C1244 C1251 1.496 . S
C1245 C1246 1.399 . S
C1245 C1248 1.389 . S
C1246 C1245 1.399 . S
C1246 C1249 1.380 . S
C1246 H1256 0.929 . S
C1247 C1244 1.399 . S
C1247 C1249 1.392 . S
C1247 H1257 0.929 . S
C1248 C1244 1.383 . S
C1248 C1245 1.389 . S
C1248 H1258 0.931 . S
C1249 C1246 1.380 . S
C1249 C1247 1.392 . S
C1249 H1259 0.929 . S
C1250 O1230 1.266 . S
C1250 O1231 1.248 . S
C1251 Tb1187 2.802 . S
C1251 O1226 1.264 . S
C1251 O1229 1.256 . S
C1251 C1244 1.496 . S
H1252 C1235 0.929 . S
H1253 C1236 0.929 . S
H1254 C1237 0.929 . S
H1255 C1238 0.931 . S
H1256 C1246 0.929 . S
H1257 C1247 0.929 . S
H1258 C1248 0.931 . S
H1259 C1249 0.929 . S
Tb1260 N1289 2.617 . S
Tb1260 N1295 2.572 . S
Tb1260 O1304 2.465 . S
Tb1260 O1305 2.387 . S
Tb1260 O1307 2.428 . S
Tb1260 O1308 2.308 1_554 S
Tb1260 O1312 2.349 1_554 S
Tb1260 O1315 2.393 . S
Tb1260 C1324 2.802 . S
C1261 N1262 1.379 . S
C1261 C1264 1.416 . S
C1261 C1268 1.424 . S
N1262 C1261 1.379 . S
N1262 C1265 1.334 . S
N1262 Tb1271 2.617 . S
C1263 C1265 1.390 . S
C1263 C1266 1.339 . S
C1263 H1283 0.930 . S
C1264 C1261 1.416 . S
C1264 C1266 1.416 . S
C1264 C1270 1.448 . S
C1265 N1262 1.334 . S
C1265 C1263 1.390 . S
C1265 H1276 0.930 . S
C1266 C1263 1.339 . S
C1266 C1264 1.416 . S
C1266 H1287 0.930 . S
C1267 C1268 1.413 . S
C1267 C1269 1.427 . S
C1267 C1273 1.416 . S
C1268 C1261 1.424 . S
C1268 C1267 1.413 . S
C1268 N1272 1.361 . S
C1269 C1267 1.427 . S
C1269 C1270 1.328 . S
C1269 H1284 0.929 . S
C1270 C1264 1.448 . S
C1270 C1269 1.328 . S
C1270 H1285 0.930 . S
Tb1271 N1262 2.617 . S
Tb1271 N1272 2.572 . S
Tb1271 O1306 2.349 1_556 S
Tb1271 O1309 2.393 . S
Tb1271 O1310 2.465 . S
Tb1271 O1311 2.387 . S
Tb1271 O1313 2.428 . S
Tb1271 O1314 2.308 1_556 S
Tb1271 C1335 2.802 . S
N1272 C1268 1.361 . S
N1272 Tb1271 2.572 . S
N1272 C1274 1.340 . S
C1273 C1267 1.416 . S
C1273 C1275 1.332 . S
C1273 H1281 0.931 . S
C1274 N1272 1.340 . S
C1274 C1275 1.407 . S
C1274 H1280 0.930 . S
C1275 C1273 1.332 . S
C1275 C1274 1.407 . S
C1275 H1277 0.929 . S
H1276 C1265 0.930 . S
H1277 C1275 0.929 . S
H1278 C1293 0.930 . S
H1279 C1300 0.929 . S
H1280 C1274 0.930 . S
H1281 C1273 0.931 . S
H1282 C1296 0.930 . S
H1283 C1263 0.930 . S
H1284 C1269 0.929 . S
H1285 C1270 0.930 . S
H1286 C1291 0.930 . S
H1287 C1266 0.930 . S
H1288 C1299 0.931 . S
N1289 Tb1260 2.617 . S
N1289 C1290 1.379 . S
N1289 C1293 1.334 . S
C1290 N1289 1.379 . S
C1290 C1292 1.416 . S
C1290 C1298 1.424 . S
C1291 H1286 0.930 . S
C1291 C1293 1.390 . S
C1291 C1294 1.339 . S
C1292 C1290 1.416 . S
C1292 C1294 1.416 . S
C1292 C1325 1.448 . S
C1293 H1278 0.930 . S
C1293 N1289 1.334 . S
C1293 C1291 1.390 . S
C1294 C1291 1.339 . S
C1294 C1292 1.416 . S
C1294 H1301 0.930 . S
N1295 Tb1260 2.572 . S
N1295 C1296 1.340 . S
N1295 C1298 1.361 . S
C1296 H1282 0.930 . S
C1296 N1295 1.340 . S
C1296 C1300 1.407 . S
C1297 C1298 1.413 . S
C1297 C1299 1.416 . S
C1297 C1326 1.427 . S
C1298 C1290 1.424 . S
C1298 N1295 1.361 . S
C1298 C1297 1.413 . S
C1299 H1288 0.931 . S
C1299 C1297 1.416 . S
C1299 C1300 1.332 . S
C1300 H1279 0.929 . S
C1300 C1296 1.407 . S
C1300 C1299 1.332 . S
H1301 C1294 0.930 . S
H1302 C1325 0.930 . S
H1303 C1326 0.929 . S
O1304 Tb1260 2.465 . S
O1304 C1324 1.264 . S
O1305 Tb1260 2.387 . S
O1305 C1316 1.264 . S
O1306 Tb1271 2.349 1_554 S
O1306 C1316 1.243 . S
O1307 Tb1260 2.428 . S
O1307 C1324 1.256 . S
O1308 Tb1260 2.308 1_556 S
O1308 C1323 1.266 . S
O1309 Tb1271 2.393 . S
O1309 C1323 1.248 . S
O1310 Tb1271 2.465 . S
O1310 C1335 1.264 . S
O1311 Tb1271 2.387 . S
O1311 C1327 1.264 . S
O1312 Tb1260 2.349 1_556 S
O1312 C1327 1.243 . S
O1313 Tb1271 2.428 . S
O1313 C1335 1.256 . S
O1314 Tb1271 2.308 1_554 S
O1314 C1334 1.266 . S
O1315 Tb1260 2.393 . S
O1315 C1334 1.248 . S
C1316 O1305 1.264 . S
C1316 O1306 1.243 . S
C1317 C1320 1.399 . S
C1317 C1322 1.383 . S
C1317 C1324 1.496 . S
C1318 C1319 1.399 . S
C1318 C1322 1.389 . S
C1319 C1318 1.399 . S
C1319 C1321 1.380 . S
C1319 H1336 0.929 . S
C1320 C1317 1.399 . S
C1320 C1321 1.392 . S
C1320 H1337 0.929 . S
C1321 C1319 1.380 . S
C1321 C1320 1.392 . S
C1321 H1338 0.929 . S
C1322 C1317 1.383 . S
C1322 C1318 1.389 . S
C1322 H1339 0.931 . S
C1323 O1308 1.266 . S
C1323 O1309 1.248 . S
C1324 Tb1260 2.802 . S
C1324 O1304 1.264 . S
C1324 O1307 1.256 . S
C1324 C1317 1.496 . S
C1325 C1292 1.448 . S
C1325 H1302 0.930 . S
C1325 C1326 1.328 . S
C1326 C1297 1.427 . S
C1326 H1303 0.929 . S
C1326 C1325 1.328 . S
C1327 O1311 1.264 . S
C1327 O1312 1.243 . S
C1328 C1331 1.399 . S
C1328 C1332 1.383 . S
C1328 C1335 1.496 . S
C1329 C1330 1.399 . S
C1329 C1332 1.389 . S
C1330 C1329 1.399 . S
C1330 C1333 1.380 . S
C1330 H1340 0.929 . S
C1331 C1328 1.399 . S
C1331 C1333 1.392 . S
C1331 H1341 0.929 . S
C1332 C1328 1.383 . S
C1332 C1329 1.389 . S
C1332 H1342 0.931 . S
C1333 C1330 1.380 . S
C1333 C1331 1.392 . S
C1333 H1343 0.929 . S
C1334 O1314 1.266 . S
C1334 O1315 1.248 . S
C1335 Tb1271 2.802 . S
C1335 O1310 1.264 . S
C1335 O1313 1.256 . S
C1335 C1328 1.496 . S
H1336 C1319 0.929 . S
H1337 C1320 0.929 . S
H1338 C1321 0.929 . S
H1339 C1322 0.931 . S
H1340 C1330 0.929 . S
H1341 C1331 0.929 . S
H1342 C1332 0.931 . S
H1343 C1333 0.929 . S
H1344 C1352 0.950 . S
H1345 C1357 0.950 . S
H1346 C1354 0.950 . S
H1347 C1356 0.950 . S
H1348 C1358 0.950 . S
H1349 C1360 0.930 1_655 S
H1350 C1362 0.950 . S
H1351 C1363 0.950 . S
C1352 H1344 0.950 . S
C1352 C1353 1.386 1_455 S
C1352 C1354 1.391 . S
C1353 C1352 1.386 1_655 S
C1353 C1357 1.393 . S
C1354 H1346 0.950 . S
C1354 C1352 1.391 . S
C1354 C1355 1.405 . S
C1355 C1354 1.405 . S
C1355 C1356 1.369 1_455 S
C1355 C1361 1.514 . S
C1356 H1347 0.950 . S
C1356 C1355 1.369 1_655 S
C1356 C1357 1.391 . S
C1357 H1345 0.950 . S
C1357 C1353 1.393 . S
C1357 C1356 1.391 . S
C1358 H1348 0.950 . S
C1358 C1359 1.386 . S
C1358 C1360 1.408 . S
C1359 C1358 1.386 . S
C1359 C1363 1.393 . S
C1360 H1349 0.930 1_455 S
C1360 C1358 1.408 . S
C1360 C1361 1.404 . S
C1361 C1355 1.514 . S
C1361 C1360 1.404 . S
C1361 C1362 1.398 . S
C1362 H1350 0.950 . S
C1362 C1361 1.398 . S
C1362 C1363 1.391 . S
C1363 H1351 0.950 . S
C1363 C1359 1.393 . S
C1363 C1362 1.391 . S
H1364 C1372 0.950 . S
H1365 C1377 0.950 . S
H1366 C1374 0.950 . S
H1367 C1376 0.950 . S
H1368 C1378 0.950 . S
H1369 C1380 0.950 . S
H1370 C1382 0.950 . S
H1371 C1383 0.950 . S
C1372 H1364 0.950 . S
C1372 C1373 1.386 . S
C1372 C1374 1.391 . S
C1373 C1372 1.386 . S
C1373 C1377 1.393 . S
C1374 H1366 0.950 . S
C1374 C1372 1.391 . S
C1374 C1375 1.400 . S
C1375 C1374 1.400 . S
C1375 C1376 1.398 . S
C1375 C1381 1.491 . S
C1376 H1367 0.950 . S
C1376 C1375 1.398 . S
C1376 C1377 1.391 . S
C1377 H1365 0.950 . S
C1377 C1373 1.393 . S
C1377 C1376 1.391 . S
C1378 H1368 0.950 . S
C1378 C1379 1.386 . S
C1378 C1380 1.391 . S
C1379 C1378 1.386 . S
C1379 C1383 1.393 . S
C1380 H1369 0.950 . S
C1380 C1378 1.391 . S
C1380 C1381 1.400 . S
C1381 C1375 1.491 . S
C1381 C1380 1.400 . S
C1381 C1382 1.398 . S
C1382 H1370 0.950 . S
C1382 C1381 1.398 . S
C1382 C1383 1.391 . S
C1383 H1371 0.950 . S
C1383 C1379 1.393 . S
C1383 C1382 1.391 . S
H1384 C1392 0.950 . S
H1385 C1397 0.950 . S
H1386 C1394 0.950 . S
H1387 C1396 0.950 . S
H1388 C1398 0.950 . S
H1389 C1400 0.950 . S
H1390 C1402 0.950 . S
H1391 C1403 0.950 . S
C1392 H1384 0.950 . S
C1392 C1393 1.386 . S
C1392 C1394 1.391 . S
C1393 C1392 1.386 . S
C1393 C1397 1.393 . S
C1394 H1386 0.950 . S
C1394 C1392 1.391 . S
C1394 C1395 1.400 . S
C1395 C1394 1.400 . S
C1395 C1396 1.398 . S
C1395 C1401 1.491 . S
C1396 H1387 0.950 . S
C1396 C1395 1.398 . S
C1396 C1397 1.391 . S
C1397 H1385 0.950 . S
C1397 C1393 1.393 . S
C1397 C1396 1.391 . S
C1398 H1388 0.950 . S
C1398 C1399 1.386 . S
C1398 C1400 1.391 . S
C1399 C1398 1.386 . S
C1399 C1403 1.393 . S
C1400 H1389 0.950 . S
C1400 C1398 1.391 . S
C1400 C1401 1.400 . S
C1401 C1395 1.491 . S
C1401 C1400 1.400 . S
C1401 C1402 1.398 . S
C1402 H1390 0.950 . S
C1402 C1401 1.398 . S
C1402 C1403 1.391 . S
C1403 H1391 0.950 . S
C1403 C1399 1.393 . S
C1403 C1402 1.391 . S
H1404 C1412 0.942 1_565 S
H1405 C1417 0.950 . S
H1406 C1414 0.950 . S
H1407 C1416 0.950 . S
H1408 C1418 0.950 . S
H1409 C1420 0.950 . S
H1410 C1422 0.950 . S
H1411 C1423 0.950 . S
C1412 H1404 0.942 1_545 S
C1412 C1413 1.408 . S
C1412 C1414 1.377 1_545 S
C1413 C1412 1.408 . S
C1413 C1417 1.393 . S
C1414 H1406 0.950 . S
C1414 C1412 1.377 1_565 S
C1414 C1415 1.400 1_565 S
C1415 C1414 1.400 1_545 S
C1415 C1416 1.398 . S
C1415 C1421 1.491 1_545 S
C1416 H1407 0.950 . S
C1416 C1415 1.398 . S
C1416 C1417 1.391 . S
C1417 H1405 0.950 . S
C1417 C1413 1.393 . S
C1417 C1416 1.391 . S
C1418 H1408 0.950 . S
C1418 C1419 1.386 1_545 S
C1418 C1420 1.391 . S
C1419 C1418 1.386 1_565 S
C1419 C1423 1.393 . S
C1420 H1409 0.950 . S
C1420 C1418 1.391 . S
C1420 C1421 1.400 1_545 S
C1421 C1415 1.491 1_565 S
C1421 C1420 1.400 1_565 S
C1421 C1422 1.398 . S
C1422 H1410 0.950 . S
C1422 C1421 1.398 . S
C1422 C1423 1.391 . S
C1423 H1411 0.950 . S
C1423 C1419 1.393 . S
C1423 C1422 1.391 . S
H1424 C1432 0.950 . S
H1425 C1437 0.950 . S
H1426 C1434 0.950 . S
H1427 C1436 0.950 . S
H1428 C1438 0.950 . S
H1429 C1440 0.950 . S
H1430 C1442 0.950 1_565 S
H1431 C1443 0.959 . S
C1432 H1424 0.950 . S
C1432 C1433 1.386 . S
C1432 C1434 1.391 . S
C1433 C1432 1.386 . S
C1433 C1437 1.393 1_565 S
C1434 H1426 0.950 . S
C1434 C1432 1.391 . S
C1434 C1435 1.400 1_565 S
C1435 C1434 1.400 1_545 S
C1435 C1436 1.398 . S
C1435 C1441 1.491 . S
C1436 H1427 0.950 . S
C1436 C1435 1.398 . S
C1436 C1437 1.391 . S
C1437 H1425 0.950 . S
C1437 C1433 1.393 1_545 S
C1437 C1436 1.391 . S
C1438 H1428 0.950 . S
C1438 C1439 1.386 . S
C1438 C1440 1.391 . S
C1439 C1438 1.386 . S
C1439 C1443 1.393 . S
C1440 H1429 0.950 . S
C1440 C1438 1.391 . S
C1440 C1441 1.400 . S
C1441 C1435 1.491 . S
C1441 C1440 1.400 . S
C1441 C1442 1.398 . S
C1442 H1430 0.950 1_545 S
C1442 C1441 1.398 . S
C1442 C1443 1.391 . S
C1443 H1431 0.959 . S
C1443 C1439 1.393 . S
C1443 C1442 1.391 . S
H1444 C1452 0.950 . S
H1445 C1457 0.950 . S
H1446 C1454 0.950 . S
H1447 C1456 0.950 . S
H1448 C1458 0.950 . S
H1449 C1460 0.950 . S
H1450 C1462 0.950 . S
H1451 C1463 0.950 . S
C1452 H1444 0.950 . S
C1452 C1453 1.386 1_655 S
C1452 C1454 1.391 . S
C1453 C1452 1.386 1_455 S
C1453 C1457 1.393 . S
C1454 H1446 0.950 . S
C1454 C1452 1.391 . S
C1454 C1455 1.400 1_655 S
C1455 C1454 1.400 1_455 S
C1455 C1456 1.398 . S
C1455 C1461 1.491 1_455 S
C1456 H1447 0.950 . S
C1456 C1455 1.398 . S
C1456 C1457 1.391 . S
C1457 H1445 0.950 . S
C1457 C1453 1.393 . S
C1457 C1456 1.391 . S
C1458 H1448 0.950 . S
C1458 C1459 1.386 1_455 S
C1458 C1460 1.391 . S
C1459 C1458 1.386 1_655 S
C1459 C1463 1.393 . S
C1460 H1449 0.950 . S
C1460 C1458 1.391 . S
C1460 C1461 1.400 1_455 S
C1461 C1455 1.491 1_655 S
C1461 C1460 1.400 1_655 S
C1461 C1462 1.398 . S
C1462 H1450 0.950 . S
C1462 C1461 1.398 . S
C1462 C1463 1.391 . S
C1463 H1451 0.950 . S
C1463 C1459 1.393 . S
C1463 C1462 1.391 . S
H1464 C1472 0.950 . S
H1465 C1477 0.950 . S
H1466 C1474 0.950 . S
H1467 C1476 0.950 . S
H1468 C1478 0.950 . S
H1469 C1480 0.950 . S
H1470 C1482 0.950 . S
H1471 C1483 0.950 . S
C1472 H1464 0.950 . S
C1472 C1473 1.386 . S
C1472 C1474 1.391 . S
C1473 C1472 1.386 . S
C1473 C1477 1.393 . S
C1474 H1466 0.950 . S
C1474 C1472 1.391 . S
C1474 C1475 1.400 . S
C1475 C1474 1.400 . S
C1475 C1476 1.398 . S
C1475 C1481 1.491 . S
C1476 H1467 0.950 . S
C1476 C1475 1.398 . S
C1476 C1477 1.391 . S
C1477 H1465 0.950 . S
C1477 C1473 1.393 . S
C1477 C1476 1.391 . S
C1478 H1468 0.950 . S
C1478 C1479 1.386 . S
C1478 C1480 1.391 . S
C1479 C1478 1.386 . S
C1479 C1483 1.393 . S
C1480 H1469 0.950 . S
C1480 C1478 1.391 . S
C1480 C1481 1.400 . S
C1481 C1475 1.491 . S
C1481 C1480 1.400 . S
C1481 C1482 1.398 . S
C1482 H1470 0.950 . S
C1482 C1481 1.398 . S
C1482 C1483 1.391 . S
C1483 H1471 0.950 . S
C1483 C1479 1.393 . S
C1483 C1482 1.391 . S
H1484 C1492 0.950 . S
H1485 C1497 0.950 . S
H1486 C1494 0.950 . S
H1487 C1496 0.950 . S
H1488 C1498 0.950 . S
H1489 C1500 0.950 . S
H1490 C1502 0.950 . S
H1491 C1503 0.950 . S
C1492 H1484 0.950 . S
C1492 C1493 1.386 . S
C1492 C1494 1.391 . S
C1493 C1492 1.386 . S
C1493 C1497 1.393 . S
C1494 H1486 0.950 . S
C1494 C1492 1.391 . S
C1494 C1495 1.400 . S
C1495 C1494 1.400 . S
C1495 C1496 1.398 . S
C1495 C1501 1.491 . S
C1496 H1487 0.950 . S
C1496 C1495 1.398 . S
C1496 C1497 1.391 . S
C1497 H1485 0.950 . S
C1497 C1493 1.393 . S
C1497 C1496 1.391 . S
C1498 H1488 0.950 . S
C1498 C1499 1.386 . S
C1498 C1500 1.391 . S
C1499 C1498 1.386 . S
C1499 C1503 1.393 . S
C1500 H1489 0.950 . S
C1500 C1498 1.391 . S
C1500 C1501 1.400 . S
C1501 C1495 1.491 . S
C1501 C1500 1.400 . S
C1501 C1502 1.398 . S
C1502 H1490 0.950 . S
C1502 C1501 1.398 . S
C1502 C1503 1.391 . S
C1503 H1491 0.950 . S
C1503 C1499 1.393 . S
C1503 C1502 1.391 . S
H1504 C1512 0.950 . S
H1505 C1517 0.950 . S
H1506 C1514 0.950 . S
H1507 C1516 0.950 . S
H1508 C1518 0.950 . S
H1509 C1520 0.950 . S
H1510 C1522 0.950 . S
H1511 C1523 0.950 . S
C1512 H1504 0.950 . S
C1512 C1513 1.386 . S
C1512 C1514 1.391 . S
C1513 C1512 1.386 . S
C1513 C1517 1.393 . S
C1514 H1506 0.950 . S
C1514 C1512 1.391 . S
C1514 C1515 1.400 . S
C1515 C1514 1.400 . S
C1515 C1516 1.398 . S
C1515 C1521 1.491 . S
C1516 H1507 0.950 . S
C1516 C1515 1.398 . S
C1516 C1517 1.391 . S
C1517 H1505 0.950 . S
C1517 C1513 1.393 . S
C1517 C1516 1.391 . S
C1518 H1508 0.950 . S
C1518 C1519 1.386 . S
C1518 C1520 1.391 . S
C1519 C1518 1.386 . S
C1519 C1523 1.393 . S
C1520 H1509 0.950 . S
C1520 C1518 1.391 . S
C1520 C1521 1.400 . S
C1521 C1515 1.491 . S
C1521 C1520 1.400 . S
C1521 C1522 1.398 . S
C1522 H1510 0.950 . S
C1522 C1521 1.398 . S
C1522 C1523 1.391 . S
C1523 H1511 0.950 . S
C1523 C1519 1.393 . S
C1523 C1522 1.391 . S
H1524 C1532 0.950 . S
H1525 C1537 0.950 . S
H1526 C1534 0.950 . S
H1527 C1536 0.950 . S
H1528 C1538 0.950 . S
H1529 C1540 0.950 . S
H1530 C1542 0.950 . S
H1531 C1543 0.950 . S
C1532 H1524 0.950 . S
C1532 C1533 1.386 . S
C1532 C1534 1.391 . S
C1533 C1532 1.386 . S
C1533 C1537 1.393 . S
C1534 H1526 0.950 . S
C1534 C1532 1.391 . S
C1534 C1535 1.400 . S
C1535 C1534 1.400 . S
C1535 C1536 1.398 . S
C1535 C1541 1.491 . S
C1536 H1527 0.950 . S
C1536 C1535 1.398 . S
C1536 C1537 1.391 . S
C1537 H1525 0.950 . S
C1537 C1533 1.393 . S
C1537 C1536 1.391 . S
C1538 H1528 0.950 . S
C1538 C1539 1.386 . S
C1538 C1540 1.391 . S
C1539 C1538 1.386 . S
C1539 C1543 1.393 . S
C1540 H1529 0.950 . S
C1540 C1538 1.391 . S
C1540 C1541 1.400 . S
C1541 C1535 1.491 . S
C1541 C1540 1.400 . S
C1541 C1542 1.398 . S
C1542 H1530 0.950 . S
C1542 C1541 1.398 . S
C1542 C1543 1.391 . S
C1543 H1531 0.950 . S
C1543 C1539 1.393 . S
C1543 C1542 1.391 . S
H1544 C1552 0.950 . S
H1545 C1557 0.950 . S
H1546 C1554 0.950 . S
H1547 C1556 0.950 . S
H1548 C1558 0.950 . S
H1549 C1560 0.950 . S
H1550 C1562 0.950 . S
H1551 C1563 0.950 1_565 S
C1552 H1544 0.950 . S
C1552 C1553 1.386 . S
C1552 C1554 1.391 . S
C1553 C1552 1.386 . S
C1553 C1557 1.393 1_565 S
C1554 H1546 0.950 . S
C1554 C1552 1.391 . S
C1554 C1555 1.400 1_565 S
C1555 C1554 1.400 1_545 S
C1555 C1556 1.398 . S
C1555 C1561 1.491 . S
C1556 H1547 0.950 . S
C1556 C1555 1.398 . S
C1556 C1557 1.391 . S
C1557 H1545 0.950 . S
C1557 C1553 1.393 1_545 S
C1557 C1556 1.391 . S
C1558 H1548 0.950 . S
C1558 C1559 1.386 . S
C1558 C1560 1.391 . S
C1559 C1558 1.386 . S
C1559 C1563 1.393 . S
C1560 H1549 0.950 . S
C1560 C1558 1.391 . S
C1560 C1561 1.400 . S
C1561 C1555 1.491 . S
C1561 C1560 1.400 . S
C1561 C1562 1.398 1_545 S
C1562 H1550 0.950 . S
C1562 C1561 1.398 1_565 S
C1562 C1563 1.391 1_565 S
C1563 H1551 0.950 1_545 S
C1563 C1559 1.393 . S
C1563 C1562 1.391 1_545 S
H1564 C1572 0.950 . S
H1565 C1577 0.950 . S
H1566 C1574 0.950 . S
H1567 C1576 0.950 1_655 S
H1568 C1578 0.950 . S
H1569 C1580 0.950 . S
H1570 C1582 0.950 1_455 S
H1571 C1583 0.950 . S
C1572 H1564 0.950 . S
C1572 C1573 1.386 . S
C1572 C1574 1.391 . S
C1573 C1572 1.386 . S
C1573 C1577 1.393 . S
C1574 H1566 0.950 . S
C1574 C1572 1.391 . S
C1574 C1575 1.400 . S
C1575 C1574 1.400 . S
C1575 C1576 1.398 . S
C1575 C1581 1.491 1_455 S
C1576 H1567 0.950 1_455 S
C1576 C1575 1.398 . S
C1576 C1577 1.391 . S
C1577 H1565 0.950 . S
C1577 C1573 1.393 . S
C1577 C1576 1.391 . S
C1578 H1568 0.950 . S
C1578 C1579 1.386 . S
C1578 C1580 1.391 . S
C1579 C1578 1.386 . S
C1579 C1583 1.393 . S
C1580 H1569 0.950 . S
C1580 C1578 1.391 . S
C1580 C1581 1.400 . S
C1581 C1575 1.491 1_655 S
C1581 C1580 1.400 . S
C1581 C1582 1.398 . S
C1582 H1570 0.950 1_655 S
C1582 C1581 1.398 . S
C1582 C1583 1.391 . S
C1583 H1571 0.950 . S
C1583 C1579 1.393 . S
C1583 C1582 1.391 . S
H1584 C1592 0.950 . S
H1585 C1597 0.950 . S
H1586 C1594 0.950 . S
H1587 C1596 0.950 . S
H1588 C1598 0.950 1_554 S
H1589 C1600 0.950 . S
H1590 C1602 0.950 . S
H1591 C1603 0.950 . S
C1592 H1584 0.950 . S
C1592 C1593 1.386 . S
C1592 C1594 1.391 . S
C1593 C1592 1.386 . S
C1593 C1597 1.393 . S
C1594 H1586 0.950 . S
C1594 C1592 1.391 . S
C1594 C1595 1.400 . S
C1595 C1594 1.400 . S
C1595 C1596 1.398 . S
C1595 C1601 1.491 . S
C1596 H1587 0.950 . S
C1596 C1595 1.398 . S
C1596 C1597 1.391 . S
C1597 H1585 0.950 . S
C1597 C1593 1.393 . S
C1597 C1596 1.391 . S
C1598 H1588 0.950 1_556 S
C1598 C1599 1.386 . S
C1598 C1600 1.391 . S
C1599 C1598 1.386 . S
C1599 C1603 1.393 . S
C1600 H1589 0.950 . S
C1600 C1598 1.391 . S
C1600 C1601 1.400 . S
C1601 C1595 1.491 . S
C1601 C1600 1.400 . S
C1601 C1602 1.398 . S
C1602 H1590 0.950 . S
C1602 C1601 1.398 . S
C1602 C1603 1.391 . S
C1603 H1591 0.950 . S
C1603 C1599 1.393 . S
C1603 C1602 1.391 . S
H1604 C1612 0.950 . S
H1605 C1617 0.950 . S
H1606 C1614 0.950 . S
H1607 C1616 0.950 . S
H1608 C1618 0.950 . S
H1609 C1620 0.950 . S
H1610 C1622 0.950 . S
H1611 C1623 0.950 . S
C1612 H1604 0.950 . S
C1612 C1613 1.386 . S
C1612 C1614 1.391 . S
C1613 C1612 1.386 . S
C1613 C1617 1.393 . S
C1614 H1606 0.950 . S
C1614 C1612 1.391 . S
C1614 C1615 1.400 . S
C1615 C1614 1.400 . S
C1615 C1616 1.398 . S
C1615 C1621 1.491 . S
C1616 H1607 0.950 . S
C1616 C1615 1.398 . S
C1616 C1617 1.391 . S
C1617 H1605 0.950 . S
C1617 C1613 1.393 . S
C1617 C1616 1.391 . S
C1618 H1608 0.950 . S
C1618 C1619 1.386 . S
C1618 C1620 1.391 . S
C1619 C1618 1.386 . S
C1619 C1623 1.393 . S
C1620 H1609 0.950 . S
C1620 C1618 1.391 . S
C1620 C1621 1.400 . S
C1621 C1615 1.491 . S
C1621 C1620 1.400 . S
C1621 C1622 1.398 . S
C1622 H1610 0.950 . S
C1622 C1621 1.398 . S
C1622 C1623 1.391 . S
C1623 H1611 0.950 . S
C1623 C1619 1.393 . S
C1623 C1622 1.391 . S
H1624 C1632 0.950 . S
H1625 C1637 0.950 . S
H1626 C1634 0.950 . S
H1627 C1636 0.950 . S
H1628 C1638 0.950 . S
H1629 C1640 0.950 . S
H1630 C1642 0.950 . S
H1631 C1643 0.950 . S
C1632 H1624 0.950 . S
C1632 C1633 1.386 . S
C1632 C1634 1.391 . S
C1633 C1632 1.386 . S
C1633 C1637 1.393 . S
C1634 H1626 0.950 . S
C1634 C1632 1.391 . S
C1634 C1635 1.400 . S
C1635 C1634 1.400 . S
C1635 C1636 1.398 . S
C1635 C1641 1.491 . S
C1636 H1627 0.950 . S
C1636 C1635 1.398 . S
C1636 C1637 1.391 . S
C1637 H1625 0.950 . S
C1637 C1633 1.393 . S
C1637 C1636 1.391 . S
C1638 H1628 0.950 . S
C1638 C1639 1.386 . S
C1638 C1640 1.391 . S
C1639 C1638 1.386 . S
C1639 C1643 1.393 . S
C1640 H1629 0.950 . S
C1640 C1638 1.391 . S
C1640 C1641 1.400 . S
C1641 C1635 1.491 . S
C1641 C1640 1.400 . S
C1641 C1642 1.398 . S
C1642 H1630 0.950 . S
C1642 C1641 1.398 . S
C1642 C1643 1.391 . S
C1643 H1631 0.950 . S
C1643 C1639 1.393 . S
C1643 C1642 1.391 . S
H1644 C1652 0.950 . S
H1645 C1657 0.950 . S
H1646 C1654 0.950 . S
H1647 C1656 0.950 . S
H1648 C1658 0.950 . S
H1649 C1660 0.950 . S
H1650 C1662 0.950 . S
H1651 C1663 0.950 . S
C1652 H1644 0.950 . S
C1652 C1653 1.386 . S
C1652 C1654 1.391 . S
C1653 C1652 1.386 . S
C1653 C1657 1.393 . S
C1654 H1646 0.950 . S
C1654 C1652 1.391 . S
C1654 C1655 1.400 . S
C1655 C1654 1.400 . S
C1655 C1656 1.398 . S
C1655 C1661 1.491 . S
C1656 H1647 0.950 . S
C1656 C1655 1.398 . S
C1656 C1657 1.391 . S
C1657 H1645 0.950 . S
C1657 C1653 1.393 . S
C1657 C1656 1.391 . S
C1658 H1648 0.950 . S
C1658 C1659 1.386 . S
C1658 C1660 1.391 . S
C1659 C1658 1.386 . S
C1659 C1663 1.393 . S
C1660 H1649 0.950 . S
C1660 C1658 1.391 . S
C1660 C1661 1.400 . S
C1661 C1655 1.491 . S
C1661 C1660 1.400 . S
C1661 C1662 1.398 . S
C1662 H1650 0.950 . S
C1662 C1661 1.398 . S
C1662 C1663 1.391 . S
C1663 H1651 0.950 . S
C1663 C1659 1.393 . S
C1663 C1662 1.391 . S
H1664 C1672 0.950 . S
H1665 C1677 0.950 . S
H1666 C1674 0.950 . S
H1667 C1676 0.950 . S
H1668 C1678 0.950 . S
H1669 C1680 0.950 . S
H1670 C1682 0.950 . S
H1671 C1683 0.950 . S
C1672 H1664 0.950 . S
C1672 C1673 1.386 . S
C1672 C1674 1.391 . S
C1673 C1672 1.386 . S
C1673 C1677 1.393 . S
C1674 H1666 0.950 . S
C1674 C1672 1.391 . S
C1674 C1675 1.400 . S
C1675 C1674 1.400 . S
C1675 C1676 1.398 . S
C1675 C1681 1.491 . S
C1676 H1667 0.950 . S
C1676 C1675 1.398 . S
C1676 C1677 1.391 . S
C1677 H1665 0.950 . S
C1677 C1673 1.393 . S
C1677 C1676 1.391 . S
C1678 H1668 0.950 . S
C1678 C1679 1.386 . S
C1678 C1680 1.391 . S
C1679 C1678 1.386 . S
C1679 C1683 1.393 . S
C1680 H1669 0.950 . S
C1680 C1678 1.391 . S
C1680 C1681 1.400 . S
C1681 C1675 1.491 . S
C1681 C1680 1.400 . S
C1681 C1682 1.398 . S
C1682 H1670 0.950 . S
C1682 C1681 1.398 . S
C1682 C1683 1.391 . S
C1683 H1671 0.950 . S
C1683 C1679 1.393 . S
C1683 C1682 1.391 . S
H1684 C1692 0.950 . S
H1685 C1697 0.950 . S
H1686 C1694 0.950 . S
H1687 C1696 0.950 . S
H1688 C1698 0.950 . S
H1689 C1700 0.950 . S
H1690 C1702 0.950 . S
H1691 C1703 0.950 . S
C1692 H1684 0.950 . S
C1692 C1693 1.386 . S
C1692 C1694 1.391 . S
C1693 C1692 1.386 . S
C1693 C1697 1.393 . S
C1694 H1686 0.950 . S
C1694 C1692 1.391 . S
C1694 C1695 1.400 . S
C1695 C1694 1.400 . S
C1695 C1696 1.398 . S
C1695 C1701 1.491 . S
C1696 H1687 0.950 . S
C1696 C1695 1.398 . S
C1696 C1697 1.391 . S
C1697 H1685 0.950 . S
C1697 C1693 1.393 . S
C1697 C1696 1.391 . S
C1698 H1688 0.950 . S
C1698 C1699 1.386 . S
C1698 C1700 1.391 . S
C1699 C1698 1.386 . S
C1699 C1703 1.393 . S
C1700 H1689 0.950 . S
C1700 C1698 1.391 . S
C1700 C1701 1.400 . S
C1701 C1695 1.491 . S
C1701 C1700 1.400 . S
C1701 C1702 1.398 . S
C1702 H1690 0.950 . S
C1702 C1701 1.398 . S
C1702 C1703 1.391 . S
C1703 H1691 0.950 . S
C1703 C1699 1.393 . S
C1703 C1702 1.391 . S
H1704 C1712 0.950 . S
H1705 C1717 0.950 . S
H1706 C1714 0.950 . S
H1707 C1716 0.950 . S
H1708 C1718 0.950 . S
H1709 C1720 0.950 . S
H1710 C1722 0.950 . S
H1711 C1723 0.950 . S
C1712 H1704 0.950 . S
C1712 C1713 1.386 . S
C1712 C1714 1.391 . S
C1713 C1712 1.386 . S
C1713 C1717 1.393 . S
C1714 H1706 0.950 . S
C1714 C1712 1.391 . S
C1714 C1715 1.400 . S
C1715 C1714 1.400 . S
C1715 C1716 1.398 . S
C1715 C1721 1.491 . S
C1716 H1707 0.950 . S
C1716 C1715 1.398 . S
C1716 C1717 1.391 . S
C1717 H1705 0.950 . S
C1717 C1713 1.393 . S
C1717 C1716 1.391 . S
C1718 H1708 0.950 . S
C1718 C1719 1.386 . S
C1718 C1720 1.391 . S
C1719 C1718 1.386 . S
C1719 C1723 1.393 . S
C1720 H1709 0.950 . S
C1720 C1718 1.391 . S
C1720 C1721 1.400 . S
C1721 C1715 1.491 . S
C1721 C1720 1.400 . S
C1721 C1722 1.398 . S
C1722 H1710 0.950 . S
C1722 C1721 1.398 . S
C1722 C1723 1.391 . S
C1723 H1711 0.950 . S
C1723 C1719 1.393 . S
C1723 C1722 1.391 . S
H1724 C1732 0.950 . S
H1725 C1737 0.950 . S
H1726 C1734 0.950 . S
H1727 C1736 0.950 . S
H1728 C1738 0.950 . S
H1729 C1740 0.950 . S
H1730 C1742 0.950 . S
H1731 C1743 0.950 . S
C1732 H1724 0.950 . S
C1732 C1733 1.386 . S
C1732 C1734 1.391 . S
C1733 C1732 1.386 . S
C1733 C1737 1.393 . S
C1734 H1726 0.950 . S
C1734 C1732 1.391 . S
C1734 C1735 1.400 . S
C1735 C1734 1.400 . S
C1735 C1736 1.398 . S
C1735 C1741 1.491 . S
C1736 H1727 0.950 . S
C1736 C1735 1.398 . S
C1736 C1737 1.391 . S
C1737 H1725 0.950 . S
C1737 C1733 1.393 . S
C1737 C1736 1.391 . S
C1738 H1728 0.950 . S
C1738 C1739 1.386 . S
C1738 C1740 1.391 . S
C1739 C1738 1.386 . S
C1739 C1743 1.393 . S
C1740 H1729 0.950 . S
C1740 C1738 1.391 . S
C1740 C1741 1.400 . S
C1741 C1735 1.491 . S
C1741 C1740 1.400 . S
C1741 C1742 1.398 . S
C1742 H1730 0.950 . S
C1742 C1741 1.398 . S
C1742 C1743 1.391 . S
C1743 H1731 0.950 . S
C1743 C1739 1.393 . S
C1743 C1742 1.391 . S
H1744 C1752 0.950 . S
H1745 C1757 0.950 . S
H1746 C1754 0.950 . S
H1747 C1756 0.950 . S
H1748 C1758 0.950 . S
H1749 C1760 0.950 . S
H1750 C1762 0.950 . S
H1751 C1763 0.950 . S
C1752 H1744 0.950 . S
C1752 C1753 1.386 . S
C1752 C1754 1.391 . S
C1753 C1752 1.386 . S
C1753 C1757 1.393 . S
C1754 H1746 0.950 . S
C1754 C1752 1.391 . S
C1754 C1755 1.400 . S
C1755 C1754 1.400 . S
C1755 C1756 1.398 . S
C1755 C1761 1.491 . S
C1756 H1747 0.950 . S
C1756 C1755 1.398 . S
C1756 C1757 1.391 . S
C1757 H1745 0.950 . S
C1757 C1753 1.393 . S
C1757 C1756 1.391 . S
C1758 H1748 0.950 . S
C1758 C1759 1.386 . S
C1758 C1760 1.391 . S
C1759 C1758 1.386 . S
C1759 C1763 1.393 . S
C1760 H1749 0.950 . S
C1760 C1758 1.391 . S
C1760 C1761 1.400 . S
C1761 C1755 1.491 . S
C1761 C1760 1.400 . S
C1761 C1762 1.398 . S
C1762 H1750 0.950 . S
C1762 C1761 1.398 . S
C1762 C1763 1.391 . S
C1763 H1751 0.950 . S
C1763 C1759 1.393 . S
C1763 C1762 1.391 . S
H1764 C1772 0.950 . S
H1765 C1777 0.950 1_655 S
H1766 C1774 0.950 . S
H1767 C1776 0.950 . S
H1768 C1778 0.950 . S
H1769 C1780 0.950 . S
H1770 C1782 0.950 . S
H1771 C1783 0.950 . S
C1772 H1764 0.950 . S
C1772 C1773 1.386 . S
C1772 C1774 1.391 . S
C1773 C1772 1.386 . S
C1773 C1777 1.393 . S
C1774 H1766 0.950 . S
C1774 C1772 1.391 . S
C1774 C1775 1.400 . S
C1775 C1774 1.400 . S
C1775 C1776 1.398 1_455 S
C1775 C1781 1.491 . S
C1776 H1767 0.950 . S
C1776 C1775 1.398 1_655 S
C1776 C1777 1.391 1_655 S
C1777 H1765 0.950 1_455 S
C1777 C1773 1.393 . S
C1777 C1776 1.391 1_455 S
C1778 H1768 0.950 . S
C1778 C1779 1.386 . S
C1778 C1780 1.391 . S
C1779 C1778 1.386 . S
C1779 C1783 1.393 1_655 S
C1780 H1769 0.950 . S
C1780 C1778 1.391 . S
C1780 C1781 1.400 1_655 S
C1781 C1775 1.491 . S
C1781 C1780 1.400 1_455 S
C1781 C1782 1.398 . S
C1782 H1770 0.950 . S
C1782 C1781 1.398 . S
C1782 C1783 1.391 . S
C1783 H1771 0.950 . S
C1783 C1779 1.393 1_455 S
C1783 C1782 1.391 . S
H1784 C1792 0.950 . S
H1785 C1797 0.950 . S
H1786 C1794 0.950 . S
H1787 C1796 0.950 . S
H1788 C1798 0.950 . S
H1789 C1800 0.950 . S
H1790 C1802 0.950 . S
H1791 C1803 0.950 . S
C1792 H1784 0.950 . S
C1792 C1793 1.386 . S
C1792 C1794 1.391 . S
C1793 C1792 1.386 . S
C1793 C1797 1.393 . S
C1794 H1786 0.950 . S
C1794 C1792 1.391 . S
C1794 C1795 1.400 . S
C1795 C1794 1.400 . S
C1795 C1796 1.398 . S
C1795 C1801 1.491 . S
C1796 H1787 0.950 . S
C1796 C1795 1.398 . S
C1796 C1797 1.391 . S
C1797 H1785 0.950 . S
C1797 C1793 1.393 . S
C1797 C1796 1.391 . S
C1798 H1788 0.950 . S
C1798 C1799 1.386 . S
C1798 C1800 1.391 . S
C1799 C1798 1.386 . S
C1799 C1803 1.393 . S
C1800 H1789 0.950 . S
C1800 C1798 1.391 . S
C1800 C1801 1.400 . S
C1801 C1795 1.491 . S
C1801 C1800 1.400 . S
C1801 C1802 1.398 . S
C1802 H1790 0.950 . S
C1802 C1801 1.398 . S
C1802 C1803 1.391 . S
C1803 H1791 0.950 . S
C1803 C1799 1.393 . S
C1803 C1802 1.391 . S
H1804 C1812 0.950 . S
H1805 C1817 0.950 . S
H1806 C1814 0.950 . S
H1807 C1816 0.950 . S
H1808 C1818 0.950 . S
H1809 C1820 0.950 . S
H1810 C1822 0.950 . S
H1811 C1823 0.950 . S
C1812 H1804 0.950 . S
C1812 C1813 1.386 . S
C1812 C1814 1.391 . S
C1813 C1812 1.386 . S
C1813 C1817 1.393 . S
C1814 H1806 0.950 . S
C1814 C1812 1.391 . S
C1814 C1815 1.400 . S
C1815 C1814 1.400 . S
C1815 C1816 1.398 . S
C1815 C1821 1.491 . S
C1816 H1807 0.950 . S
C1816 C1815 1.398 . S
C1816 C1817 1.391 . S
C1817 H1805 0.950 . S
C1817 C1813 1.393 . S
C1817 C1816 1.391 . S
C1818 H1808 0.950 . S
C1818 C1819 1.386 . S
C1818 C1820 1.391 . S
C1819 C1818 1.386 . S
C1819 C1823 1.393 . S
C1820 H1809 0.950 . S
C1820 C1818 1.391 . S
C1820 C1821 1.400 . S
C1821 C1815 1.491 . S
C1821 C1820 1.400 . S
C1821 C1822 1.398 . S
C1822 H1810 0.950 . S
C1822 C1821 1.398 . S
C1822 C1823 1.391 . S
C1823 H1811 0.950 . S
C1823 C1819 1.393 . S
C1823 C1822 1.391 . S
H1824 C1832 0.950 . S
H1825 C1837 0.950 . S
H1826 C1834 0.950 . S
H1827 C1836 0.950 . S
H1828 C1838 0.950 . S
H1829 C1840 0.950 . S
H1830 C1842 0.950 . S
H1831 C1843 0.950 . S
C1832 H1824 0.950 . S
C1832 C1833 1.386 . S
C1832 C1834 1.391 . S
C1833 C1832 1.386 . S
C1833 C1837 1.393 . S
C1834 H1826 0.950 . S
C1834 C1832 1.391 . S
C1834 C1835 1.400 . S
C1835 C1834 1.400 . S
C1835 C1836 1.398 . S
C1835 C1841 1.491 . S
C1836 H1827 0.950 . S
C1836 C1835 1.398 . S
C1836 C1837 1.391 . S
C1837 H1825 0.950 . S
C1837 C1833 1.393 . S
C1837 C1836 1.391 . S
C1838 H1828 0.950 . S
C1838 C1839 1.386 . S
C1838 C1840 1.391 . S
C1839 C1838 1.386 . S
C1839 C1843 1.393 . S
C1840 H1829 0.950 . S
C1840 C1838 1.391 . S
C1840 C1841 1.400 . S
C1841 C1835 1.491 . S
C1841 C1840 1.400 . S
C1841 C1842 1.398 . S
C1842 H1830 0.950 . S
C1842 C1841 1.398 . S
C1842 C1843 1.391 . S
C1843 H1831 0.950 . S
C1843 C1839 1.393 . S
C1843 C1842 1.391 . S
H1844 C1852 0.950 . S
H1845 C1857 0.950 . S
H1846 C1854 0.950 . S
H1847 C1856 0.950 . S
H1848 C1858 0.950 . S
H1849 C1860 0.950 . S
H1850 C1862 0.950 . S
H1851 C1863 0.950 . S
C1852 H1844 0.950 . S
C1852 C1853 1.386 . S
C1852 C1854 1.391 . S
C1853 C1852 1.386 . S
C1853 C1857 1.393 . S
C1854 H1846 0.950 . S
C1854 C1852 1.391 . S
C1854 C1855 1.400 . S
C1855 C1854 1.400 . S
C1855 C1856 1.398 . S
C1855 C1861 1.491 . S
C1856 H1847 0.950 . S
C1856 C1855 1.398 . S
C1856 C1857 1.391 . S
C1857 H1845 0.950 . S
C1857 C1853 1.393 . S
C1857 C1856 1.391 . S
C1858 H1848 0.950 . S
C1858 C1859 1.386 . S
C1858 C1860 1.391 . S
C1859 C1858 1.386 . S
C1859 C1863 1.393 . S
C1860 H1849 0.950 . S
C1860 C1858 1.391 . S
C1860 C1861 1.400 . S
C1861 C1855 1.491 . S
C1861 C1860 1.400 . S
C1861 C1862 1.398 . S
C1862 H1850 0.950 . S
C1862 C1861 1.398 . S
C1862 C1863 1.391 . S
C1863 H1851 0.950 . S
C1863 C1859 1.393 . S
C1863 C1862 1.391 . S
H1864 C1872 0.950 . S
H1865 C1877 0.950 . S
H1866 C1874 0.932 1_545 S
H1867 C1876 0.950 . S
H1868 C1878 0.950 . S
H1869 C1880 0.960 . S
H1870 C1882 0.950 . S
H1871 C1883 0.950 . S
C1872 H1864 0.950 . S
C1872 C1873 1.386 . S
C1872 C1874 1.417 . S
C1873 C1872 1.386 . S
C1873 C1877 1.393 . S
C1874 H1866 0.932 1_565 S
C1874 C1872 1.417 . S
C1874 C1875 1.393 . S
C1875 C1874 1.393 . S
C1875 C1876 1.398 . S
C1875 C1881 1.491 1_565 S
C1876 H1867 0.950 . S
C1876 C1875 1.398 . S
C1876 C1877 1.391 . S
C1877 H1865 0.950 . S
C1877 C1873 1.393 . S
C1877 C1876 1.391 . S
C1878 H1868 0.950 . S
C1878 C1879 1.386 . S
C1878 C1880 1.391 . S
C1879 C1878 1.386 . S
C1879 C1883 1.393 . S
C1880 H1869 0.960 . S
C1880 C1878 1.391 . S
C1880 C1881 1.400 . S
C1881 C1875 1.491 1_545 S
C1881 C1880 1.400 . S
C1881 C1882 1.398 . S
C1882 H1870 0.950 . S
C1882 C1881 1.398 . S
C1882 C1883 1.391 . S
C1883 H1871 0.950 . S
C1883 C1879 1.393 . S
C1883 C1882 1.391 . S
H1884 C1892 0.950 . S
H1885 C1897 0.953 . S
H1886 C1894 0.950 . S
H1887 C1896 0.950 . S
H1888 C1898 0.950 . S
H1889 C1900 0.950 . S
H1890 C1902 0.950 . S
H1891 C1903 0.950 . S
C1892 H1884 0.950 . S
C1892 C1893 1.386 . S
C1892 C1894 1.391 . S
C1893 C1892 1.386 . S
C1893 C1897 1.393 . S
C1894 H1886 0.950 . S
C1894 C1892 1.391 . S
C1894 C1895 1.400 . S
C1895 C1894 1.400 . S
C1895 C1896 1.398 . S
C1895 C1901 1.491 . S
C1896 H1887 0.950 . S
C1896 C1895 1.398 . S
C1896 C1897 1.391 . S
C1897 H1885 0.953 . S
C1897 C1893 1.393 . S
C1897 C1896 1.391 . S
C1898 H1888 0.950 . S
C1898 C1899 1.386 . S
C1898 C1900 1.391 . S
C1899 C1898 1.386 . S
C1899 C1903 1.393 . S
C1900 H1889 0.950 . S
C1900 C1898 1.391 . S
C1900 C1901 1.400 . S
C1901 C1895 1.491 . S
C1901 C1900 1.400 . S
C1901 C1902 1.398 . S
C1902 H1890 0.950 . S
C1902 C1901 1.398 . S
C1902 C1903 1.391 . S
C1903 H1891 0.950 . S
C1903 C1899 1.393 . S
C1903 C1902 1.391 . S
H1904 C1912 0.950 . S
H1905 C1917 0.950 . S
H1906 C1914 0.950 . S
H1907 C1916 0.950 . S
H1908 C1918 0.950 . S
H1909 C1920 0.950 . S
H1910 C1922 0.950 . S
H1911 C1923 0.950 . S
C1912 H1904 0.950 . S
C1912 C1913 1.386 . S
C1912 C1914 1.391 . S
C1913 C1912 1.386 . S
C1913 C1917 1.393 . S
C1914 H1906 0.950 . S
C1914 C1912 1.391 . S
C1914 C1915 1.400 . S
C1915 C1914 1.400 . S
C1915 C1916 1.398 . S
C1915 C1921 1.491 . S
C1916 H1907 0.950 . S
C1916 C1915 1.398 . S
C1916 C1917 1.391 . S
C1917 H1905 0.950 . S
C1917 C1913 1.393 . S
C1917 C1916 1.391 . S
C1918 H1908 0.950 . S
C1918 C1919 1.386 . S
C1918 C1920 1.391 . S
C1919 C1918 1.386 . S
C1919 C1923 1.393 . S
C1920 H1909 0.950 . S
C1920 C1918 1.391 . S
C1920 C1921 1.400 . S
C1921 C1915 1.491 . S
C1921 C1920 1.400 . S
C1921 C1922 1.398 . S
C1922 H1910 0.950 . S
C1922 C1921 1.398 . S
C1922 C1923 1.391 . S
C1923 H1911 0.950 . S
C1923 C1919 1.393 . S
C1923 C1922 1.391 . S
H1924 C1932 0.950 . S
H1925 C1937 0.950 . S
H1926 C1934 0.950 . S
H1927 C1936 0.950 . S
H1928 C1938 0.950 . S
H1929 C1940 0.950 . S
H1930 C1942 0.950 . S
H1931 C1943 0.950 . S
C1932 H1924 0.950 . S
C1932 C1933 1.386 . S
C1932 C1934 1.391 . S
C1933 C1932 1.386 . S
C1933 C1937 1.393 . S
C1934 H1926 0.950 . S
C1934 C1932 1.391 . S
C1934 C1935 1.400 . S
C1935 C1934 1.400 . S
C1935 C1936 1.398 . S
C1935 C1941 1.491 . S
C1936 H1927 0.950 . S
C1936 C1935 1.398 . S
C1936 C1937 1.391 . S
C1937 H1925 0.950 . S
C1937 C1933 1.393 . S
C1937 C1936 1.391 . S
C1938 H1928 0.950 . S
C1938 C1939 1.386 . S
C1938 C1940 1.391 . S
C1939 C1938 1.386 . S
C1939 C1943 1.393 . S
C1940 H1929 0.950 . S
C1940 C1938 1.391 . S
C1940 C1941 1.400 . S
C1941 C1935 1.491 . S
C1941 C1940 1.400 . S
C1941 C1942 1.398 . S
C1942 H1930 0.950 . S
C1942 C1941 1.398 . S
C1942 C1943 1.391 . S
C1943 H1931 0.950 . S
C1943 C1939 1.393 . S
C1943 C1942 1.391 . S
H1944 C1952 0.950 . S
H1945 C1957 0.950 . S
H1946 C1954 0.950 . S
H1947 C1956 0.950 . S
H1948 C1958 0.950 . S
H1949 C1960 0.950 . S
H1950 C1962 0.950 . S
H1951 C1963 0.950 . S
C1952 H1944 0.950 . S
C1952 C1953 1.386 . S
C1952 C1954 1.391 . S
C1953 C1952 1.386 . S
C1953 C1957 1.393 . S
C1954 H1946 0.950 . S
C1954 C1952 1.391 . S
C1954 C1955 1.400 . S
C1955 C1954 1.400 . S
C1955 C1956 1.398 . S
C1955 C1961 1.491 . S
C1956 H1947 0.950 . S
C1956 C1955 1.398 . S
C1956 C1957 1.391 . S
C1957 H1945 0.950 . S
C1957 C1953 1.393 . S
C1957 C1956 1.391 . S
C1958 H1948 0.950 . S
C1958 C1959 1.386 . S
C1958 C1960 1.391 . S
C1959 C1958 1.386 . S
C1959 C1963 1.393 . S
C1960 H1949 0.950 . S
C1960 C1958 1.391 . S
C1960 C1961 1.400 . S
C1961 C1955 1.491 . S
C1961 C1960 1.400 . S
C1961 C1962 1.398 . S
C1962 H1950 0.950 . S
C1962 C1961 1.398 . S
C1962 C1963 1.391 . S
C1963 H1951 0.950 . S
C1963 C1959 1.393 . S
C1963 C1962 1.391 . S
H1964 C1972 0.950 . S
H1965 C1977 0.950 . S
H1966 C1974 0.950 . S
H1967 C1976 0.950 . S
H1968 C1978 0.950 . S
H1969 C1980 0.950 . S
H1970 C1982 0.950 . S
H1971 C1983 0.950 . S
C1972 H1964 0.950 . S
C1972 C1973 1.386 . S
C1972 C1974 1.391 . S
C1973 C1972 1.386 . S
C1973 C1977 1.393 . S
C1974 H1966 0.950 . S
C1974 C1972 1.391 . S
C1974 C1975 1.400 . S
C1975 C1974 1.400 . S
C1975 C1976 1.398 . S
C1975 C1981 1.491 . S
C1976 H1967 0.950 . S
C1976 C1975 1.398 . S
C1976 C1977 1.391 . S
C1977 H1965 0.950 . S
C1977 C1973 1.393 . S
C1977 C1976 1.391 . S
C1978 H1968 0.950 . S
C1978 C1979 1.386 . S
C1978 C1980 1.391 . S
C1979 C1978 1.386 . S
C1979 C1983 1.393 . S
C1980 H1969 0.950 . S
C1980 C1978 1.391 . S
C1980 C1981 1.400 . S
C1981 C1975 1.491 . S
C1981 C1980 1.400 . S
C1981 C1982 1.398 . S
C1982 H1970 0.950 . S
C1982 C1981 1.398 . S
C1982 C1983 1.391 . S
C1983 H1971 0.950 . S
C1983 C1979 1.393 . S
C1983 C1982 1.391 . S
H1984 C1992 0.950 . S
H1985 C1997 0.950 . S
H1986 C1994 0.950 . S
H1987 C1996 0.950 . S
H1988 C1998 0.950 . S
H1989 C2000 0.950 . S
H1990 C2002 0.950 . S
H1991 C2003 0.950 . S
C1992 H1984 0.950 . S
C1992 C1993 1.386 . S
C1992 C1994 1.391 . S
C1993 C1992 1.386 . S
C1993 C1997 1.393 . S
C1994 H1986 0.950 . S
C1994 C1992 1.391 . S
C1994 C1995 1.400 . S
C1995 C1994 1.400 . S
C1995 C1996 1.398 . S
C1995 C2001 1.491 . S
C1996 H1987 0.950 . S
C1996 C1995 1.398 . S
C1996 C1997 1.391 . S
C1997 H1985 0.950 . S
C1997 C1993 1.393 . S
C1997 C1996 1.391 . S
C1998 H1988 0.950 . S
C1998 C1999 1.386 . S
C1998 C2000 1.391 . S
C1999 C1998 1.386 . S
C1999 C2003 1.393 . S
C2000 H1989 0.950 . S
C2000 C1998 1.391 . S
C2000 C2001 1.400 . S
C2001 C1995 1.491 . S
C2001 C2000 1.400 . S
C2001 C2002 1.398 . S
C2002 H1990 0.950 . S
C2002 C2001 1.398 . S
C2002 C2003 1.391 . S
C2003 H1991 0.950 . S
C2003 C1999 1.393 . S
C2003 C2002 1.391 . S
H2004 C2012 0.950 . S
H2005 C2017 0.950 . S
H2006 C2014 0.950 . S
H2007 C2016 0.950 . S
H2008 C2018 0.950 . S
H2009 C2020 0.950 . S
H2010 C2022 0.950 . S
H2011 C2023 0.950 . S
C2012 H2004 0.950 . S
C2012 C2013 1.386 . S
C2012 C2014 1.391 . S
C2013 C2012 1.386 . S
C2013 C2017 1.393 . S
C2014 H2006 0.950 . S
C2014 C2012 1.391 . S
C2014 C2015 1.400 . S
C2015 C2014 1.400 . S
C2015 C2016 1.398 . S
C2015 C2021 1.491 . S
C2016 H2007 0.950 . S
C2016 C2015 1.398 . S
C2016 C2017 1.391 . S
C2017 H2005 0.950 . S
C2017 C2013 1.393 . S
C2017 C2016 1.391 . S
C2018 H2008 0.950 . S
C2018 C2019 1.386 . S
C2018 C2020 1.391 . S
C2019 C2018 1.386 . S
C2019 C2023 1.393 . S
C2020 H2009 0.950 . S
C2020 C2018 1.391 . S
C2020 C2021 1.400 . S
C2021 C2015 1.491 . S
C2021 C2020 1.400 . S
C2021 C2022 1.398 . S
C2022 H2010 0.950 . S
C2022 C2021 1.398 . S
C2022 C2023 1.391 . S
C2023 H2011 0.950 . S
C2023 C2019 1.393 . S
C2023 C2022 1.391 . S
H2024 C2032 0.950 . S
H2025 C2037 0.950 . S
H2026 C2034 0.950 . S
H2027 C2036 0.950 . S
H2028 C2038 0.950 . S
H2029 C2040 0.950 . S
H2030 C2042 0.950 . S
H2031 C2043 0.950 . S
C2032 H2024 0.950 . S
C2032 C2033 1.386 . S
C2032 C2034 1.391 . S
C2033 C2032 1.386 . S
C2033 C2037 1.393 . S
C2034 H2026 0.950 . S
C2034 C2032 1.391 . S
C2034 C2035 1.400 . S
C2035 C2034 1.400 . S
C2035 C2036 1.398 . S
C2035 C2041 1.491 . S
C2036 H2027 0.950 . S
C2036 C2035 1.398 . S
C2036 C2037 1.391 . S
C2037 H2025 0.950 . S
C2037 C2033 1.393 . S
C2037 C2036 1.391 . S
C2038 H2028 0.950 . S
C2038 C2039 1.386 . S
C2038 C2040 1.391 . S
C2039 C2038 1.386 . S
C2039 C2043 1.393 . S
C2040 H2029 0.950 . S
C2040 C2038 1.391 . S
C2040 C2041 1.400 . S
C2041 C2035 1.491 . S
C2041 C2040 1.400 . S
C2041 C2042 1.398 . S
C2042 H2030 0.950 . S
C2042 C2041 1.398 . S
C2042 C2043 1.391 . S
C2043 H2031 0.950 . S
C2043 C2039 1.393 . S
C2043 C2042 1.391 . S
H2044 C2052 0.950 . S
H2045 C2057 0.950 . S
H2046 C2054 0.950 . S
H2047 C2056 0.950 . S
H2048 C2058 0.950 . S
H2049 C2060 0.950 . S
H2050 C2062 0.950 . S
H2051 C2063 0.950 . S
C2052 H2044 0.950 . S
C2052 C2053 1.386 . S
C2052 C2054 1.391 . S
C2053 C2052 1.386 . S
C2053 C2057 1.393 . S
C2054 H2046 0.950 . S
C2054 C2052 1.391 . S
C2054 C2055 1.400 . S
C2055 C2054 1.400 . S
C2055 C2056 1.398 . S
C2055 C2061 1.491 . S
C2056 H2047 0.950 . S
C2056 C2055 1.398 . S
C2056 C2057 1.391 . S
C2057 H2045 0.950 . S
C2057 C2053 1.393 . S
C2057 C2056 1.391 . S
C2058 H2048 0.950 . S
C2058 C2059 1.386 . S
C2058 C2060 1.391 . S
C2059 C2058 1.386 . S
C2059 C2063 1.393 . S
C2060 H2049 0.950 . S
C2060 C2058 1.391 . S
C2060 C2061 1.400 . S
C2061 C2055 1.491 . S
C2061 C2060 1.400 . S
C2061 C2062 1.398 . S
C2062 H2050 0.950 . S
C2062 C2061 1.398 . S
C2062 C2063 1.391 . S
C2063 H2051 0.950 . S
C2063 C2059 1.393 . S
C2063 C2062 1.391 . S
H2064 C2072 0.950 . S
H2065 C2077 0.950 . S
H2066 C2074 0.950 . S
H2067 C2076 0.950 . S
H2068 C2078 0.950 . S
H2069 C2080 0.950 . S
H2070 C2082 0.950 . S
H2071 C2083 0.950 . S
C2072 H2064 0.950 . S
C2072 C2073 1.386 . S
C2072 C2074 1.391 . S
C2073 C2072 1.386 . S
C2073 C2077 1.393 . S
C2074 H2066 0.950 . S
C2074 C2072 1.391 . S
C2074 C2075 1.400 . S
C2075 C2074 1.400 . S
C2075 C2076 1.398 . S
C2075 C2081 1.491 . S
C2076 H2067 0.950 . S
C2076 C2075 1.398 . S
C2076 C2077 1.391 . S
C2077 H2065 0.950 . S
C2077 C2073 1.393 . S
C2077 C2076 1.391 . S
C2078 H2068 0.950 . S
C2078 C2079 1.386 . S
C2078 C2080 1.391 . S
C2079 C2078 1.386 . S
C2079 C2083 1.393 . S
C2080 H2069 0.950 . S
C2080 C2078 1.391 . S
C2080 C2081 1.400 . S
C2081 C2075 1.491 . S
C2081 C2080 1.400 . S
C2081 C2082 1.398 . S
C2082 H2070 0.950 . S
C2082 C2081 1.398 . S
C2082 C2083 1.391 . S
C2083 H2071 0.950 . S
C2083 C2079 1.393 . S
C2083 C2082 1.391 . S
H2084 C2092 0.950 . S
H2085 C2097 0.950 1_556 S
H2086 C2094 0.950 . S
H2087 C2096 0.924 1_556 S
H2088 C2098 0.950 . S
H2089 C2100 0.950 . S
H2090 C2102 0.950 . S
H2091 C2103 0.950 . S
C2092 H2084 0.950 . S
C2092 C2093 1.386 . S
C2092 C2094 1.391 . S
C2093 C2092 1.386 . S
C2093 C2097 1.393 . S
C2094 H2086 0.950 . S
C2094 C2092 1.391 . S
C2094 C2095 1.400 . S
C2095 C2094 1.400 . S
C2095 C2096 1.413 . S
C2095 C2101 1.491 . S
C2096 H2087 0.924 1_554 S
C2096 C2095 1.413 . S
C2096 C2097 1.401 . S
C2097 H2085 0.950 1_554 S
C2097 C2093 1.393 . S
C2097 C2096 1.401 . S
C2098 H2088 0.950 . S
C2098 C2099 1.386 1_556 S
C2098 C2100 1.391 . S
C2099 C2098 1.386 1_554 S
C2099 C2103 1.393 . S
C2100 H2089 0.950 . S
C2100 C2098 1.391 . S
C2100 C2101 1.400 1_556 S
C2101 C2095 1.491 . S
C2101 C2100 1.400 1_554 S
C2101 C2102 1.398 . S
C2102 H2090 0.950 . S
C2102 C2101 1.398 . S
C2102 C2103 1.391 . S
C2103 H2091 0.950 . S
C2103 C2099 1.393 . S
C2103 C2102 1.391 . S
H2104 C2112 0.950 . S
H2105 C2117 0.950 . S
H2106 C2114 0.950 . S
H2107 C2116 0.950 . S
H2108 C2118 0.950 . S
H2109 C2120 0.950 . S
H2110 C2122 0.950 . S
H2111 C2123 0.950 . S
C2112 H2104 0.950 . S
C2112 C2113 1.386 . S
C2112 C2114 1.391 . S
C2113 C2112 1.386 . S
C2113 C2117 1.393 . S
C2114 H2106 0.950 . S
C2114 C2112 1.391 . S
C2114 C2115 1.400 . S
C2115 C2114 1.400 . S
C2115 C2116 1.398 . S
C2115 C2121 1.491 . S
C2116 H2107 0.950 . S
C2116 C2115 1.398 . S
C2116 C2117 1.391 . S
C2117 H2105 0.950 . S
C2117 C2113 1.393 . S
C2117 C2116 1.391 . S
C2118 H2108 0.950 . S
C2118 C2119 1.386 . S
C2118 C2120 1.391 . S
C2119 C2118 1.386 . S
C2119 C2123 1.393 . S
C2120 H2109 0.950 . S
C2120 C2118 1.391 . S
C2120 C2121 1.400 . S
C2121 C2115 1.491 . S
C2121 C2120 1.400 . S
C2121 C2122 1.398 . S
C2122 H2110 0.950 . S
C2122 C2121 1.398 . S
C2122 C2123 1.391 . S
C2123 H2111 0.950 . S
C2123 C2119 1.393 . S
C2123 C2122 1.391 . S
H2124 C2132 0.950 . S
H2125 C2137 0.950 . S
H2126 C2134 0.950 . S
H2127 C2136 0.950 . S
H2128 C2138 0.950 . S
H2129 C2140 0.950 . S
H2130 C2142 0.950 . S
H2131 C2143 0.950 . S
C2132 H2124 0.950 . S
C2132 C2133 1.386 . S
C2132 C2134 1.391 . S
C2133 C2132 1.386 . S
C2133 C2137 1.393 . S
C2134 H2126 0.950 . S
C2134 C2132 1.391 . S
C2134 C2135 1.400 . S
C2135 C2134 1.400 . S
C2135 C2136 1.398 . S
C2135 C2141 1.491 . S
C2136 H2127 0.950 . S
C2136 C2135 1.398 . S
C2136 C2137 1.391 . S
C2137 H2125 0.950 . S
C2137 C2133 1.393 . S
C2137 C2136 1.391 . S
C2138 H2128 0.950 . S
C2138 C2139 1.386 . S
C2138 C2140 1.391 . S
C2139 C2138 1.386 . S
C2139 C2143 1.393 . S
C2140 H2129 0.950 . S
C2140 C2138 1.391 . S
C2140 C2141 1.400 . S
C2141 C2135 1.491 . S
C2141 C2140 1.400 . S
C2141 C2142 1.398 . S
C2142 H2130 0.950 . S
C2142 C2141 1.398 . S
C2142 C2143 1.391 . S
C2143 H2131 0.950 . S
C2143 C2139 1.393 . S
C2143 C2142 1.391 . S
H2144 C2152 0.950 . S
H2145 C2157 0.950 . S
H2146 C2154 0.950 . S
H2147 C2156 0.950 . S
H2148 C2158 0.950 . S
H2149 C2160 0.950 . S
H2150 C2162 0.950 . S
H2151 C2163 0.950 . S
C2152 H2144 0.950 . S
C2152 C2153 1.386 . S
C2152 C2154 1.391 . S
C2153 C2152 1.386 . S
C2153 C2157 1.393 . S
C2154 H2146 0.950 . S
C2154 C2152 1.391 . S
C2154 C2155 1.400 . S
C2155 C2154 1.400 . S
C2155 C2156 1.398 . S
C2155 C2161 1.491 . S
C2156 H2147 0.950 . S
C2156 C2155 1.398 . S
C2156 C2157 1.391 . S
C2157 H2145 0.950 . S
C2157 C2153 1.393 . S
C2157 C2156 1.391 . S
C2158 H2148 0.950 . S
C2158 C2159 1.386 . S
C2158 C2160 1.391 . S
C2159 C2158 1.386 . S
C2159 C2163 1.393 . S
C2160 H2149 0.950 . S
C2160 C2158 1.391 . S
C2160 C2161 1.400 . S
C2161 C2155 1.491 . S
C2161 C2160 1.400 . S
C2161 C2162 1.398 . S
C2162 H2150 0.950 . S
C2162 C2161 1.398 . S
C2162 C2163 1.391 . S
C2163 H2151 0.950 . S
C2163 C2159 1.393 . S
C2163 C2162 1.391 . S
H2164 C2172 0.950 . S
H2165 C2177 0.950 . S
H2166 C2174 0.950 . S
H2167 C2176 0.950 . S
H2168 C2178 0.950 . S
H2169 C2180 0.950 . S
H2170 C2182 0.950 . S
H2171 C2183 0.950 . S
C2172 H2164 0.950 . S
C2172 C2173 1.386 . S
C2172 C2174 1.391 . S
C2173 C2172 1.386 . S
C2173 C2177 1.393 . S
C2174 H2166 0.950 . S
C2174 C2172 1.391 . S
C2174 C2175 1.400 . S
C2175 C2174 1.400 . S
C2175 C2176 1.398 . S
C2175 C2181 1.491 . S
C2176 H2167 0.950 . S
C2176 C2175 1.398 . S
C2176 C2177 1.391 . S
C2177 H2165 0.950 . S
C2177 C2173 1.393 . S
C2177 C2176 1.391 . S
C2178 H2168 0.950 . S
C2178 C2179 1.386 . S
C2178 C2180 1.391 . S
C2179 C2178 1.386 . S
C2179 C2183 1.393 . S
C2180 H2169 0.950 . S
C2180 C2178 1.391 . S
C2180 C2181 1.400 . S
C2181 C2175 1.491 . S
C2181 C2180 1.400 . S
C2181 C2182 1.398 . S
C2182 H2170 0.950 . S
C2182 C2181 1.398 . S
C2182 C2183 1.391 . S
C2183 H2171 0.950 . S
C2183 C2179 1.393 . S
C2183 C2182 1.391 . S
H2184 C2192 0.950 . S
H2185 C2197 0.950 . S
H2186 C2194 0.950 . S
H2187 C2196 0.950 . S
H2188 C2198 0.950 . S
H2189 C2200 0.950 . S
H2190 C2202 0.950 . S
H2191 C2203 0.950 1_554 S
C2192 H2184 0.950 . S
C2192 C2193 1.386 1_554 S
C2192 C2194 1.391 . S
C2193 C2192 1.386 1_556 S
C2193 C2197 1.393 . S
C2194 H2186 0.950 . S
C2194 C2192 1.391 . S
C2194 C2195 1.400 1_554 S
C2195 C2194 1.400 1_556 S
C2195 C2196 1.398 . S
C2195 C2201 1.491 . S
C2196 H2187 0.950 . S
C2196 C2195 1.398 . S
C2196 C2197 1.391 . S
C2197 H2185 0.950 . S
C2197 C2193 1.393 . S
C2197 C2196 1.391 . S
C2198 H2188 0.950 . S
C2198 C2199 1.386 . S
C2198 C2200 1.391 . S
C2199 C2198 1.386 . S
C2199 C2203 1.393 . S
C2200 H2189 0.950 . S
C2200 C2198 1.391 . S
C2200 C2201 1.400 . S
C2201 C2195 1.491 . S
C2201 C2200 1.400 . S
C2201 C2202 1.398 1_556 S
C2202 H2190 0.950 . S
C2202 C2201 1.398 1_554 S
C2202 C2203 1.391 1_554 S
C2203 H2191 0.950 1_556 S
C2203 C2199 1.393 . S
C2203 C2202 1.391 1_556 S
H2204 C2212 0.950 . S
H2205 C2217 0.950 . S
H2206 C2214 0.950 . S
H2207 C2216 0.950 . S
H2208 C2218 0.950 . S
H2209 C2220 0.950 . S
H2210 C2222 0.950 . S
H2211 C2223 0.950 . S
C2212 H2204 0.950 . S
C2212 C2213 1.386 . S
C2212 C2214 1.391 . S
C2213 C2212 1.386 . S
C2213 C2217 1.393 . S
C2214 H2206 0.950 . S
C2214 C2212 1.391 . S
C2214 C2215 1.400 . S
C2215 C2214 1.400 . S
C2215 C2216 1.398 . S
C2215 C2221 1.491 . S
C2216 H2207 0.950 . S
C2216 C2215 1.398 . S
C2216 C2217 1.391 . S
C2217 H2205 0.950 . S
C2217 C2213 1.393 . S
C2217 C2216 1.391 . S
C2218 H2208 0.950 . S
C2218 C2219 1.386 . S
C2218 C2220 1.391 . S
C2219 C2218 1.386 . S
C2219 C2223 1.393 . S
C2220 H2209 0.950 . S
C2220 C2218 1.391 . S
C2220 C2221 1.400 . S
C2221 C2215 1.491 . S
C2221 C2220 1.400 . S
C2221 C2222 1.398 . S
C2222 H2210 0.950 . S
C2222 C2221 1.398 . S
C2222 C2223 1.391 . S
C2223 H2211 0.950 . S
C2223 C2219 1.393 . S
C2223 C2222 1.391 . S
H2224 C2232 0.950 . S
H2225 C2237 0.950 . S
H2226 C2234 0.950 . S
H2227 C2236 0.950 . S
H2228 C2238 0.950 . S
H2229 C2240 0.950 . S
H2230 C2242 0.950 . S
H2231 C2243 0.950 . S
C2232 H2224 0.950 . S
C2232 C2233 1.386 . S
C2232 C2234 1.391 . S
C2233 C2232 1.386 . S
C2233 C2237 1.393 . S
C2234 H2226 0.950 . S
C2234 C2232 1.391 . S
C2234 C2235 1.400 . S
C2235 C2234 1.400 . S
C2235 C2236 1.398 . S
C2235 C2241 1.491 . S
C2236 H2227 0.950 . S
C2236 C2235 1.398 . S
C2236 C2237 1.391 . S
C2237 H2225 0.950 . S
C2237 C2233 1.393 . S
C2237 C2236 1.391 . S
C2238 H2228 0.950 . S
C2238 C2239 1.386 . S
C2238 C2240 1.391 . S
C2239 C2238 1.386 . S
C2239 C2243 1.393 . S
C2240 H2229 0.950 . S
C2240 C2238 1.391 . S
C2240 C2241 1.400 . S
C2241 C2235 1.491 . S
C2241 C2240 1.400 . S
C2241 C2242 1.398 . S
C2242 H2230 0.950 . S
C2242 C2241 1.398 . S
C2242 C2243 1.391 . S
C2243 H2231 0.950 . S
C2243 C2239 1.393 . S
C2243 C2242 1.391 . S
H2244 C2252 0.950 . S
H2245 C2257 0.950 . S
H2246 C2254 0.950 . S
H2247 C2256 0.950 . S
H2248 C2258 0.950 . S
H2249 C2260 0.950 . S
H2250 C2262 0.950 . S
H2251 C2263 0.950 . S
C2252 H2244 0.950 . S
C2252 C2253 1.386 . S
C2252 C2254 1.391 . S
C2253 C2252 1.386 . S
C2253 C2257 1.393 . S
C2254 H2246 0.950 . S
C2254 C2252 1.391 . S
C2254 C2255 1.400 . S
C2255 C2254 1.400 . S
C2255 C2256 1.398 . S
C2255 C2261 1.491 . S
C2256 H2247 0.950 . S
C2256 C2255 1.398 . S
C2256 C2257 1.391 . S
C2257 H2245 0.950 . S
C2257 C2253 1.393 . S
C2257 C2256 1.391 . S
C2258 H2248 0.950 . S
C2258 C2259 1.386 . S
C2258 C2260 1.391 . S
C2259 C2258 1.386 . S
C2259 C2263 1.393 . S
C2260 H2249 0.950 . S
C2260 C2258 1.391 . S
C2260 C2261 1.400 . S
C2261 C2255 1.491 . S
C2261 C2260 1.400 . S
C2261 C2262 1.398 . S
C2262 H2250 0.950 . S
C2262 C2261 1.398 . S
C2262 C2263 1.391 . S
C2263 H2251 0.950 . S
C2263 C2259 1.393 . S
C2263 C2262 1.391 . S
H2264 C2272 0.950 . S
H2265 C2277 0.950 . S
H2266 C2274 0.950 . S
H2267 C2276 0.950 . S
H2268 C2278 0.950 . S
H2269 C2280 0.950 . S
H2270 C2282 0.950 . S
H2271 C2283 0.950 . S
C2272 H2264 0.950 . S
C2272 C2273 1.386 . S
C2272 C2274 1.391 . S
C2273 C2272 1.386 . S
C2273 C2277 1.393 . S
C2274 H2266 0.950 . S
C2274 C2272 1.391 . S
C2274 C2275 1.400 . S
C2275 C2274 1.400 . S
C2275 C2276 1.398 . S
C2275 C2281 1.491 . S
C2276 H2267 0.950 . S
C2276 C2275 1.398 . S
C2276 C2277 1.391 . S
C2277 H2265 0.950 . S
C2277 C2273 1.393 . S
C2277 C2276 1.391 . S
C2278 H2268 0.950 . S
C2278 C2279 1.386 . S
C2278 C2280 1.391 . S
C2279 C2278 1.386 . S
C2279 C2283 1.393 . S
C2280 H2269 0.950 . S
C2280 C2278 1.391 . S
C2280 C2281 1.400 . S
C2281 C2275 1.491 . S
C2281 C2280 1.400 . S
C2281 C2282 1.398 . S
C2282 H2270 0.950 . S
C2282 C2281 1.398 . S
C2282 C2283 1.391 . S
C2283 H2271 0.950 . S
C2283 C2279 1.393 . S
C2283 C2282 1.391 . S
H2284 C2292 0.950 . S
H2285 C2297 0.950 . S
H2286 C2294 0.950 . S
H2287 C2296 0.950 . S
H2288 C2298 0.950 . S
H2289 C2300 0.950 . S
H2290 C2302 0.950 . S
H2291 C2303 0.950 . S
C2292 H2284 0.950 . S
C2292 C2293 1.386 . S
C2292 C2294 1.391 . S
C2293 C2292 1.386 . S
C2293 C2297 1.393 . S
C2294 H2286 0.950 . S
C2294 C2292 1.391 . S
C2294 C2295 1.400 . S
C2295 C2294 1.400 . S
C2295 C2296 1.398 . S
C2295 C2301 1.491 . S
C2296 H2287 0.950 . S
C2296 C2295 1.398 . S
C2296 C2297 1.391 . S
C2297 H2285 0.950 . S
C2297 C2293 1.393 . S
C2297 C2296 1.391 . S
C2298 H2288 0.950 . S
C2298 C2299 1.386 . S
C2298 C2300 1.391 . S
C2299 C2298 1.386 . S
C2299 C2303 1.393 . S
C2300 H2289 0.950 . S
C2300 C2298 1.391 . S
C2300 C2301 1.400 . S
C2301 C2295 1.491 . S
C2301 C2300 1.400 . S
C2301 C2302 1.398 . S
C2302 H2290 0.950 . S
C2302 C2301 1.398 . S
C2302 C2303 1.391 . S
C2303 H2291 0.950 . S
C2303 C2299 1.393 . S
C2303 C2302 1.391 . S
C1353 C74 1.158 . S
C1359 C142 1.020 . S
C1373 C242 1.833 . S
C1379 C140 1.795 . S
C1393 C308 1.758 . S
C1399 C235 1.768 . S
C1413 C67 1.080 . S
C1419 C310 1.000 . S
C1433 C56 1.087 . S
C1439 C825 0.997 . S
C1453 C651 1.181 . S
C1459 C153 1.010 . S
C1473 C231 1.837 . S
C1479 C907 1.781 . S
C1493 C319 1.772 . S
C1499 C1148 1.767 . S
C1513 C728 1.803 . S
C1519 C151 1.796 . S
C1533 C1075 1.756 . S
C1539 C224 1.779 . S
C1553 C1232 1.067 . S
C1559 C321 0.983 . S
C1573 C63 1.160 . S
C1579 C993 0.977 . S
C1593 C69 0.433 . S
C1599 C741 0.698 . S
C1613 C1082 2.092 . S
C1619 C399 2.083 . S
C1633 C489 0.633 . S
C1639 C1234 0.464 . S
C1653 C987 2.094 . S
C1659 C578 2.097 . S
C1673 C237 0.697 . S
C1679 C646 0.424 . S
C1693 C819 2.098 . S
C1699 C410 2.093 . S
C1713 C567 2.088 . S
C1719 C914 2.087 . S
C1733 C483 1.863 . S
C1739 C991 1.824 . S
C1753 C823 1.782 . S
C1759 C476 1.804 . S
C1773 C982 0.992 . S
C1779 C662 1.164 . S
C1793 C494 1.861 . S
C1799 C392 1.823 . S
C1813 C812 1.776 . S
C1819 C746 1.828 . S
C1833 C1166 1.861 . S
C1839 C980 1.827 . S
C1853 C560 1.798 . S
C1859 C487 1.790 . S
C1873 C814 1.016 . S
C1879 C1243 1.101 . S
C1893 C1161 0.632 . S
C1899 C58 0.465 . S
C1913 C226 0.634 . S
C1919 C1245 0.464 . S
C1933 C1071 2.084 . S
C1939 C158 2.075 . S
C1953 C657 0.470 . S
C1959 C478 0.659 . S
C1973 C326 2.084 . S
C1979 C903 2.076 . S
C1993 C1064 1.761 . S
C1999 C1159 1.766 . S
C2013 C655 1.058 . S
C2019 C1066 0.957 . S
C2033 C573 0.971 . S
C2039 C644 1.058 . S
C2053 C403 1.821 . S
C2059 C1155 1.860 . S
C2073 C1077 0.964 . S
C2079 C1316 1.069 . S
C2093 C1318 0.418 . S
C2099 C730 0.618 . S
C2113 C147 2.081 . S
C2119 C830 2.093 . S
C2133 C735 1.823 . S
C2139 C571 1.791 . S
C2153 C739 1.800 . S
C2159 C896 1.800 . S
C2173 C1327 1.094 . S
C2179 C562 1.009 . S
C2193 C1150 0.693 . S
C2199 C1329 0.404 . S
C2213 C998 2.092 . S
C2219 C315 2.084 . S
C2233 C898 0.977 . S
C2239 C1250 1.168 . S
C2253 C909 0.953 . S
C2259 C1323 1.138 . S
C2273 C405 1.019 . S
C2279 C1239 1.173 . S
C2293 C1334 1.160 . S
C2299 C394 0.976 . S
