# Generated by pormake.
# Topology svz, (7)-cn, num edge types: 1
# Building blocks:
#     Node 0, Type 0, BuildingBlock: NUHQUE_clean_sbu_2, # of connection points: 7
#     Node 1, Type 0, BuildingBlock: NUHQUE_clean_sbu_2, # of connection points: 7
#     Node 2, Type 0, BuildingBlock: NUHQUE_clean_sbu_2, # of connection points: 7
#     Node 3, Type 0, BuildingBlock: NUHQUE_clean_sbu_2, # of connection points: 7
#     Node 4, Type 0, BuildingBlock: NUHQUE_clean_sbu_2, # of connection points: 7
#     Node 5, Type 0, BuildingBlock: NUHQUE_clean_sbu_2, # of connection points: 7
#     Node 6, Type 0, BuildingBlock: NUHQUE_clean_sbu_2, # of connection points: 7
#     Node 7, Type 0, BuildingBlock: NUHQUE_clean_sbu_2, # of connection points: 7
#     Node 8, Type 0, BuildingBlock: NUHQUE_clean_sbu_2, # of connection points: 7
#     Node 9, Type 0, BuildingBlock: NUHQUE_clean_sbu_2, # of connection points: 7
#     Node 10, Type 0, BuildingBlock: NUHQUE_clean_sbu_2, # of connection points: 7
#     Node 11, Type 0, BuildingBlock: NUHQUE_clean_sbu_2, # of connection points: 7
#     Node 12, Type 0, BuildingBlock: NUHQUE_clean_sbu_2, # of connection points: 7
#     Node 13, Type 0, BuildingBlock: NUHQUE_clean_sbu_2, # of connection points: 7
#     Node 14, Type 0, BuildingBlock: NUHQUE_clean_sbu_2, # of connection points: 7
#     Node 15, Type 0, BuildingBlock: NUHQUE_clean_sbu_2, # of connection points: 7
#     Node 16, Type 0, BuildingBlock: NUHQUE_clean_sbu_2, # of connection points: 7
#     Node 17, Type 0, BuildingBlock: NUHQUE_clean_sbu_2, # of connection points: 7
#     Node 18, Type 0, BuildingBlock: NUHQUE_clean_sbu_2, # of connection points: 7
#     Node 19, Type 0, BuildingBlock: NUHQUE_clean_sbu_2, # of connection points: 7
#     Node 20, Type 0, BuildingBlock: NUHQUE_clean_sbu_2, # of connection points: 7
#     Node 21, Type 0, BuildingBlock: NUHQUE_clean_sbu_2, # of connection points: 7
#     Node 22, Type 0, BuildingBlock: NUHQUE_clean_sbu_2, # of connection points: 7
#     Node 23, Type 0, BuildingBlock: NUHQUE_clean_sbu_2, # of connection points: 7
#     Node 24, Type 0, BuildingBlock: NUHQUE_clean_sbu_2, # of connection points: 7
#     Node 25, Type 0, BuildingBlock: NUHQUE_clean_sbu_2, # of connection points: 7
#     Node 26, Type 0, BuildingBlock: NUHQUE_clean_sbu_2, # of connection points: 7
#     Node 27, Type 0, BuildingBlock: NUHQUE_clean_sbu_2, # of connection points: 7
#     Node 28, Type 0, BuildingBlock: NUHQUE_clean_sbu_2, # of connection points: 7
#     Node 29, Type 0, BuildingBlock: NUHQUE_clean_sbu_2, # of connection points: 7
#     Node 30, Type 0, BuildingBlock: NUHQUE_clean_sbu_2, # of connection points: 7
#     Node 31, Type 0, BuildingBlock: NUHQUE_clean_sbu_2, # of connection points: 7
#     Node 32, Type 0, BuildingBlock: NUHQUE_clean_sbu_2, # of connection points: 7
#     Node 33, Type 0, BuildingBlock: NUHQUE_clean_sbu_2, # of connection points: 7
#     Node 34, Type 0, BuildingBlock: NUHQUE_clean_sbu_2, # of connection points: 7
#     Node 35, Type 0, BuildingBlock: NUHQUE_clean_sbu_2, # of connection points: 7
#     Node 36, Type 0, BuildingBlock: NUHQUE_clean_sbu_2, # of connection points: 7
#     Node 37, Type 0, BuildingBlock: NUHQUE_clean_sbu_2, # of connection points: 7
#     Node 38, Type 0, BuildingBlock: NUHQUE_clean_sbu_2, # of connection points: 7
#     Node 39, Type 0, BuildingBlock: NUHQUE_clean_sbu_2, # of connection points: 7
#     Node 40, Type 0, BuildingBlock: NUHQUE_clean_sbu_2, # of connection points: 7
#     Node 41, Type 0, BuildingBlock: NUHQUE_clean_sbu_2, # of connection points: 7
#     Node 42, Type 0, BuildingBlock: NUHQUE_clean_sbu_2, # of connection points: 7
#     Node 43, Type 0, BuildingBlock: NUHQUE_clean_sbu_2, # of connection points: 7
#     Node 44, Type 0, BuildingBlock: NUHQUE_clean_sbu_2, # of connection points: 7
#     Node 45, Type 0, BuildingBlock: NUHQUE_clean_sbu_2, # of connection points: 7
#     Node 46, Type 0, BuildingBlock: NUHQUE_clean_sbu_2, # of connection points: 7
#     Node 47, Type 0, BuildingBlock: NUHQUE_clean_sbu_2, # of connection points: 7
#     Edge 48, Type (0, 0), BuildingBlock: KIFKEQ_clean_linker_1, # of connection points: 2
#     Edge 49, Type (0, 0), BuildingBlock: KIFKEQ_clean_linker_1, # of connection points: 2
#     Edge 50, Type (0, 0), BuildingBlock: KIFKEQ_clean_linker_1, # of connection points: 2
#     Edge 51, Type (0, 0), BuildingBlock: KIFKEQ_clean_linker_1, # of connection points: 2
#     Edge 52, Type (0, 0), BuildingBlock: KIFKEQ_clean_linker_1, # of connection points: 2
#     Edge 53, Type (0, 0), BuildingBlock: KIFKEQ_clean_linker_1, # of connection points: 2
#     Edge 54, Type (0, 0), BuildingBlock: KIFKEQ_clean_linker_1, # of connection points: 2
#     Edge 55, Type (0, 0), BuildingBlock: KIFKEQ_clean_linker_1, # of connection points: 2
#     Edge 56, Type (0, 0), BuildingBlock: KIFKEQ_clean_linker_1, # of connection points: 2
#     Edge 57, Type (0, 0), BuildingBlock: KIFKEQ_clean_linker_1, # of connection points: 2
#     Edge 58, Type (0, 0), BuildingBlock: KIFKEQ_clean_linker_1, # of connection points: 2
#     Edge 59, Type (0, 0), BuildingBlock: KIFKEQ_clean_linker_1, # of connection points: 2
#     Edge 60, Type (0, 0), BuildingBlock: KIFKEQ_clean_linker_1, # of connection points: 2
#     Edge 61, Type (0, 0), BuildingBlock: KIFKEQ_clean_linker_1, # of connection points: 2
#     Edge 62, Type (0, 0), BuildingBlock: KIFKEQ_clean_linker_1, # of connection points: 2
#     Edge 63, Type (0, 0), BuildingBlock: KIFKEQ_clean_linker_1, # of connection points: 2
#     Edge 64, Type (0, 0), BuildingBlock: KIFKEQ_clean_linker_1, # of connection points: 2
#     Edge 65, Type (0, 0), BuildingBlock: KIFKEQ_clean_linker_1, # of connection points: 2
#     Edge 66, Type (0, 0), BuildingBlock: KIFKEQ_clean_linker_1, # of connection points: 2
#     Edge 67, Type (0, 0), BuildingBlock: KIFKEQ_clean_linker_1, # of connection points: 2
#     Edge 68, Type (0, 0), BuildingBlock: KIFKEQ_clean_linker_1, # of connection points: 2
#     Edge 69, Type (0, 0), BuildingBlock: KIFKEQ_clean_linker_1, # of connection points: 2
#     Edge 70, Type (0, 0), BuildingBlock: KIFKEQ_clean_linker_1, # of connection points: 2
#     Edge 71, Type (0, 0), BuildingBlock: KIFKEQ_clean_linker_1, # of connection points: 2
#     Edge 72, Type (0, 0), BuildingBlock: KIFKEQ_clean_linker_1, # of connection points: 2
#     Edge 73, Type (0, 0), BuildingBlock: KIFKEQ_clean_linker_1, # of connection points: 2
#     Edge 74, Type (0, 0), BuildingBlock: KIFKEQ_clean_linker_1, # of connection points: 2
#     Edge 75, Type (0, 0), BuildingBlock: KIFKEQ_clean_linker_1, # of connection points: 2
#     Edge 76, Type (0, 0), BuildingBlock: KIFKEQ_clean_linker_1, # of connection points: 2
#     Edge 77, Type (0, 0), BuildingBlock: KIFKEQ_clean_linker_1, # of connection points: 2
#     Edge 78, Type (0, 0), BuildingBlock: KIFKEQ_clean_linker_1, # of connection points: 2
#     Edge 79, Type (0, 0), BuildingBlock: KIFKEQ_clean_linker_1, # of connection points: 2
#     Edge 80, Type (0, 0), BuildingBlock: KIFKEQ_clean_linker_1, # of connection points: 2
#     Edge 81, Type (0, 0), BuildingBlock: KIFKEQ_clean_linker_1, # of connection points: 2
#     Edge 82, Type (0, 0), BuildingBlock: KIFKEQ_clean_linker_1, # of connection points: 2
#     Edge 83, Type (0, 0), BuildingBlock: KIFKEQ_clean_linker_1, # of connection points: 2
#     Edge 84, Type (0, 0), BuildingBlock: KIFKEQ_clean_linker_1, # of connection points: 2
#     Edge 85, Type (0, 0), BuildingBlock: KIFKEQ_clean_linker_1, # of connection points: 2
#     Edge 86, Type (0, 0), BuildingBlock: KIFKEQ_clean_linker_1, # of connection points: 2
#     Edge 87, Type (0, 0), BuildingBlock: KIFKEQ_clean_linker_1, # of connection points: 2
#     Edge 88, Type (0, 0), BuildingBlock: KIFKEQ_clean_linker_1, # of connection points: 2
#     Edge 89, Type (0, 0), BuildingBlock: KIFKEQ_clean_linker_1, # of connection points: 2
#     Edge 90, Type (0, 0), BuildingBlock: KIFKEQ_clean_linker_1, # of connection points: 2
#     Edge 91, Type (0, 0), BuildingBlock: KIFKEQ_clean_linker_1, # of connection points: 2
#     Edge 92, Type (0, 0), BuildingBlock: KIFKEQ_clean_linker_1, # of connection points: 2
#     Edge 93, Type (0, 0), BuildingBlock: KIFKEQ_clean_linker_1, # of connection points: 2
#     Edge 94, Type (0, 0), BuildingBlock: KIFKEQ_clean_linker_1, # of connection points: 2
#     Edge 95, Type (0, 0), BuildingBlock: KIFKEQ_clean_linker_1, # of connection points: 2
#     Edge 96, Type (0, 0), BuildingBlock: KIFKEQ_clean_linker_1, # of connection points: 2
#     Edge 97, Type (0, 0), BuildingBlock: KIFKEQ_clean_linker_1, # of connection points: 2
#     Edge 98, Type (0, 0), BuildingBlock: KIFKEQ_clean_linker_1, # of connection points: 2
#     Edge 99, Type (0, 0), BuildingBlock: KIFKEQ_clean_linker_1, # of connection points: 2
#     Edge 100, Type (0, 0), BuildingBlock: KIFKEQ_clean_linker_1, # of connection points: 2
#     Edge 101, Type (0, 0), BuildingBlock: KIFKEQ_clean_linker_1, # of connection points: 2
#     Edge 102, Type (0, 0), BuildingBlock: KIFKEQ_clean_linker_1, # of connection points: 2
#     Edge 103, Type (0, 0), BuildingBlock: KIFKEQ_clean_linker_1, # of connection points: 2
#     Edge 104, Type (0, 0), BuildingBlock: KIFKEQ_clean_linker_1, # of connection points: 2
#     Edge 105, Type (0, 0), BuildingBlock: KIFKEQ_clean_linker_1, # of connection points: 2
#     Edge 106, Type (0, 0), BuildingBlock: KIFKEQ_clean_linker_1, # of connection points: 2
#     Edge 107, Type (0, 0), BuildingBlock: KIFKEQ_clean_linker_1, # of connection points: 2
#     Edge 108, Type (0, 0), BuildingBlock: KIFKEQ_clean_linker_1, # of connection points: 2
#     Edge 109, Type (0, 0), BuildingBlock: KIFKEQ_clean_linker_1, # of connection points: 2
#     Edge 110, Type (0, 0), BuildingBlock: KIFKEQ_clean_linker_1, # of connection points: 2
#     Edge 111, Type (0, 0), BuildingBlock: KIFKEQ_clean_linker_1, # of connection points: 2
#     Edge 112, Type (0, 0), BuildingBlock: KIFKEQ_clean_linker_1, # of connection points: 2
#     Edge 113, Type (0, 0), BuildingBlock: KIFKEQ_clean_linker_1, # of connection points: 2
#     Edge 114, Type (0, 0), BuildingBlock: KIFKEQ_clean_linker_1, # of connection points: 2
#     Edge 115, Type (0, 0), BuildingBlock: KIFKEQ_clean_linker_1, # of connection points: 2
#     Edge 116, Type (0, 0), BuildingBlock: KIFKEQ_clean_linker_1, # of connection points: 2
#     Edge 117, Type (0, 0), BuildingBlock: KIFKEQ_clean_linker_1, # of connection points: 2
#     Edge 118, Type (0, 0), BuildingBlock: KIFKEQ_clean_linker_1, # of connection points: 2
#     Edge 119, Type (0, 0), BuildingBlock: KIFKEQ_clean_linker_1, # of connection points: 2
#     Edge 120, Type (0, 0), BuildingBlock: KIFKEQ_clean_linker_1, # of connection points: 2
#     Edge 121, Type (0, 0), BuildingBlock: KIFKEQ_clean_linker_1, # of connection points: 2
#     Edge 122, Type (0, 0), BuildingBlock: KIFKEQ_clean_linker_1, # of connection points: 2
#     Edge 123, Type (0, 0), BuildingBlock: KIFKEQ_clean_linker_1, # of connection points: 2
#     Edge 124, Type (0, 0), BuildingBlock: KIFKEQ_clean_linker_1, # of connection points: 2
#     Edge 125, Type (0, 0), BuildingBlock: KIFKEQ_clean_linker_1, # of connection points: 2
#     Edge 126, Type (0, 0), BuildingBlock: KIFKEQ_clean_linker_1, # of connection points: 2
#     Edge 127, Type (0, 0), BuildingBlock: KIFKEQ_clean_linker_1, # of connection points: 2
#     Edge 128, Type (0, 0), BuildingBlock: KIFKEQ_clean_linker_1, # of connection points: 2
#     Edge 129, Type (0, 0), BuildingBlock: KIFKEQ_clean_linker_1, # of connection points: 2
#     Edge 130, Type (0, 0), BuildingBlock: KIFKEQ_clean_linker_1, # of connection points: 2
#     Edge 131, Type (0, 0), BuildingBlock: KIFKEQ_clean_linker_1, # of connection points: 2
#     Edge 132, Type (0, 0), BuildingBlock: KIFKEQ_clean_linker_1, # of connection points: 2
#     Edge 133, Type (0, 0), BuildingBlock: KIFKEQ_clean_linker_1, # of connection points: 2
#     Edge 134, Type (0, 0), BuildingBlock: KIFKEQ_clean_linker_1, # of connection points: 2
#     Edge 135, Type (0, 0), BuildingBlock: KIFKEQ_clean_linker_1, # of connection points: 2
#     Edge 136, Type (0, 0), BuildingBlock: KIFKEQ_clean_linker_1, # of connection points: 2
#     Edge 137, Type (0, 0), BuildingBlock: KIFKEQ_clean_linker_1, # of connection points: 2
#     Edge 138, Type (0, 0), BuildingBlock: KIFKEQ_clean_linker_1, # of connection points: 2
#     Edge 139, Type (0, 0), BuildingBlock: KIFKEQ_clean_linker_1, # of connection points: 2
#     Edge 140, Type (0, 0), BuildingBlock: KIFKEQ_clean_linker_1, # of connection points: 2
#     Edge 141, Type (0, 0), BuildingBlock: KIFKEQ_clean_linker_1, # of connection points: 2
#     Edge 142, Type (0, 0), BuildingBlock: KIFKEQ_clean_linker_1, # of connection points: 2
#     Edge 143, Type (0, 0), BuildingBlock: KIFKEQ_clean_linker_1, # of connection points: 2
#     Edge 144, Type (0, 0), BuildingBlock: KIFKEQ_clean_linker_1, # of connection points: 2
#     Edge 145, Type (0, 0), BuildingBlock: KIFKEQ_clean_linker_1, # of connection points: 2
#     Edge 146, Type (0, 0), BuildingBlock: KIFKEQ_clean_linker_1, # of connection points: 2
#     Edge 147, Type (0, 0), BuildingBlock: KIFKEQ_clean_linker_1, # of connection points: 2
#     Edge 148, Type (0, 0), BuildingBlock: KIFKEQ_clean_linker_1, # of connection points: 2
#     Edge 149, Type (0, 0), BuildingBlock: KIFKEQ_clean_linker_1, # of connection points: 2
#     Edge 150, Type (0, 0), BuildingBlock: KIFKEQ_clean_linker_1, # of connection points: 2
#     Edge 151, Type (0, 0), BuildingBlock: KIFKEQ_clean_linker_1, # of connection points: 2
#     Edge 152, Type (0, 0), BuildingBlock: KIFKEQ_clean_linker_1, # of connection points: 2
#     Edge 153, Type (0, 0), BuildingBlock: KIFKEQ_clean_linker_1, # of connection points: 2
#     Edge 154, Type (0, 0), BuildingBlock: KIFKEQ_clean_linker_1, # of connection points: 2
#     Edge 155, Type (0, 0), BuildingBlock: KIFKEQ_clean_linker_1, # of connection points: 2
#     Edge 156, Type (0, 0), BuildingBlock: KIFKEQ_clean_linker_1, # of connection points: 2
#     Edge 157, Type (0, 0), BuildingBlock: KIFKEQ_clean_linker_1, # of connection points: 2
#     Edge 158, Type (0, 0), BuildingBlock: KIFKEQ_clean_linker_1, # of connection points: 2
#     Edge 159, Type (0, 0), BuildingBlock: KIFKEQ_clean_linker_1, # of connection points: 2
#     Edge 160, Type (0, 0), BuildingBlock: KIFKEQ_clean_linker_1, # of connection points: 2
#     Edge 161, Type (0, 0), BuildingBlock: KIFKEQ_clean_linker_1, # of connection points: 2
#     Edge 162, Type (0, 0), BuildingBlock: KIFKEQ_clean_linker_1, # of connection points: 2
#     Edge 163, Type (0, 0), BuildingBlock: KIFKEQ_clean_linker_1, # of connection points: 2
#     Edge 164, Type (0, 0), BuildingBlock: KIFKEQ_clean_linker_1, # of connection points: 2
#     Edge 165, Type (0, 0), BuildingBlock: KIFKEQ_clean_linker_1, # of connection points: 2
#     Edge 166, Type (0, 0), BuildingBlock: KIFKEQ_clean_linker_1, # of connection points: 2
#     Edge 167, Type (0, 0), BuildingBlock: KIFKEQ_clean_linker_1, # of connection points: 2
#     Edge 168, Type (0, 0), BuildingBlock: KIFKEQ_clean_linker_1, # of connection points: 2
#     Edge 169, Type (0, 0), BuildingBlock: KIFKEQ_clean_linker_1, # of connection points: 2
#     Edge 170, Type (0, 0), BuildingBlock: KIFKEQ_clean_linker_1, # of connection points: 2
#     Edge 171, Type (0, 0), BuildingBlock: KIFKEQ_clean_linker_1, # of connection points: 2
#     Edge 172, Type (0, 0), BuildingBlock: KIFKEQ_clean_linker_1, # of connection points: 2
#     Edge 173, Type (0, 0), BuildingBlock: KIFKEQ_clean_linker_1, # of connection points: 2
#     Edge 174, Type (0, 0), BuildingBlock: KIFKEQ_clean_linker_1, # of connection points: 2
#     Edge 175, Type (0, 0), BuildingBlock: KIFKEQ_clean_linker_1, # of connection points: 2
#     Edge 176, Type (0, 0), BuildingBlock: KIFKEQ_clean_linker_1, # of connection points: 2
#     Edge 177, Type (0, 0), BuildingBlock: KIFKEQ_clean_linker_1, # of connection points: 2
#     Edge 178, Type (0, 0), BuildingBlock: KIFKEQ_clean_linker_1, # of connection points: 2
#     Edge 179, Type (0, 0), BuildingBlock: KIFKEQ_clean_linker_1, # of connection points: 2
#     Edge 180, Type (0, 0), BuildingBlock: KIFKEQ_clean_linker_1, # of connection points: 2
#     Edge 181, Type (0, 0), BuildingBlock: KIFKEQ_clean_linker_1, # of connection points: 2
#     Edge 182, Type (0, 0), BuildingBlock: KIFKEQ_clean_linker_1, # of connection points: 2
#     Edge 183, Type (0, 0), BuildingBlock: KIFKEQ_clean_linker_1, # of connection points: 2
#     Edge 184, Type (0, 0), BuildingBlock: KIFKEQ_clean_linker_1, # of connection points: 2
#     Edge 185, Type (0, 0), BuildingBlock: KIFKEQ_clean_linker_1, # of connection points: 2
#     Edge 186, Type (0, 0), BuildingBlock: KIFKEQ_clean_linker_1, # of connection points: 2
#     Edge 187, Type (0, 0), BuildingBlock: KIFKEQ_clean_linker_1, # of connection points: 2
#     Edge 188, Type (0, 0), BuildingBlock: KIFKEQ_clean_linker_1, # of connection points: 2
#     Edge 189, Type (0, 0), BuildingBlock: KIFKEQ_clean_linker_1, # of connection points: 2
#     Edge 190, Type (0, 0), BuildingBlock: KIFKEQ_clean_linker_1, # of connection points: 2
#     Edge 191, Type (0, 0), BuildingBlock: KIFKEQ_clean_linker_1, # of connection points: 2
#     Edge 192, Type (0, 0), BuildingBlock: KIFKEQ_clean_linker_1, # of connection points: 2
#     Edge 193, Type (0, 0), BuildingBlock: KIFKEQ_clean_linker_1, # of connection points: 2
#     Edge 194, Type (0, 0), BuildingBlock: KIFKEQ_clean_linker_1, # of connection points: 2
#     Edge 195, Type (0, 0), BuildingBlock: KIFKEQ_clean_linker_1, # of connection points: 2
#     Edge 196, Type (0, 0), BuildingBlock: KIFKEQ_clean_linker_1, # of connection points: 2
#     Edge 197, Type (0, 0), BuildingBlock: KIFKEQ_clean_linker_1, # of connection points: 2
#     Edge 198, Type (0, 0), BuildingBlock: KIFKEQ_clean_linker_1, # of connection points: 2
#     Edge 199, Type (0, 0), BuildingBlock: KIFKEQ_clean_linker_1, # of connection points: 2
#     Edge 200, Type (0, 0), BuildingBlock: KIFKEQ_clean_linker_1, # of connection points: 2
#     Edge 201, Type (0, 0), BuildingBlock: KIFKEQ_clean_linker_1, # of connection points: 2
#     Edge 202, Type (0, 0), BuildingBlock: KIFKEQ_clean_linker_1, # of connection points: 2
#     Edge 203, Type (0, 0), BuildingBlock: KIFKEQ_clean_linker_1, # of connection points: 2
#     Edge 204, Type (0, 0), BuildingBlock: KIFKEQ_clean_linker_1, # of connection points: 2
#     Edge 205, Type (0, 0), BuildingBlock: KIFKEQ_clean_linker_1, # of connection points: 2
#     Edge 206, Type (0, 0), BuildingBlock: KIFKEQ_clean_linker_1, # of connection points: 2
#     Edge 207, Type (0, 0), BuildingBlock: KIFKEQ_clean_linker_1, # of connection points: 2
#     Edge 208, Type (0, 0), BuildingBlock: KIFKEQ_clean_linker_1, # of connection points: 2
#     Edge 209, Type (0, 0), BuildingBlock: KIFKEQ_clean_linker_1, # of connection points: 2
#     Edge 210, Type (0, 0), BuildingBlock: KIFKEQ_clean_linker_1, # of connection points: 2
#     Edge 211, Type (0, 0), BuildingBlock: KIFKEQ_clean_linker_1, # of connection points: 2
#     Edge 212, Type (0, 0), BuildingBlock: KIFKEQ_clean_linker_1, # of connection points: 2
#     Edge 213, Type (0, 0), BuildingBlock: KIFKEQ_clean_linker_1, # of connection points: 2
#     Edge 214, Type (0, 0), BuildingBlock: KIFKEQ_clean_linker_1, # of connection points: 2
#     Edge 215, Type (0, 0), BuildingBlock: KIFKEQ_clean_linker_1, # of connection points: 2
# Relax obj value: 0.196
# Max RMSD: 0.261
# Mean RMSD: 0.261
data_MOF--net-svz--node1-NUHQUE_clean_sbu_2--edge1-KIFKEQ_clean_linker_1
_symmetry_space_group_name_H-M    P1
_symmetry_Int_Tables_number       1
_symmetry_cell_setting            triclinic
loop_
_symmetry_equiv_pos_as_xyz
'x, y, z'
_cell_length_a     69.069505
_cell_length_b     69.061934
_cell_length_c     69.078004
_cell_angle_alpha  90.077458
_cell_angle_beta   90.01383
_cell_angle_gamma 90.024403
loop_
_atom_site_label
_atom_site_type_symbol
_atom_site_fract_x
_atom_site_fract_y
_atom_site_fract_z
_atom_type_partial_charge
O0 O 0.07198 0.6 0.24184 0.0
Tb1 Tb 0.04261 0.60856 0.23432 0.0
Eu2 Eu 0.05748 0.58832 0.18803 0.0
C3 C 0.07383 0.58585 0.25447 0.0
O4 O 0.05827 0.57597 0.25915 0.0
C5 C 0.03609 0.56588 0.22229 0.0
O6 O 0.02975 0.58421 0.17074 0.0
C7 C 0.08803 0.57908 0.16807 0.0
C8 C 0.01293 0.58842 0.17869 0.0
O9 O 0.01267 0.59577 0.19618 0.0
C10 C 0.04306 0.63224 0.1952 0.0
C11 C 0.10056 0.58733 0.15272 0.0
C12 C 0.12078 0.58451 0.15364 0.0
C13 C 0.13279 0.5913 0.13869 0.0
C14 C 0.12453 0.60063 0.12276 0.0
C15 C 0.10448 0.60337 0.12143 0.0
C16 C 0.09253 0.59705 0.13664 0.0
O17 O 0.02783 0.58168 0.22877 0.0
O18 O 0.05206 0.56629 0.2119 0.0
O19 O 0.04293 0.63057 0.25712 0.0
O20 O 0.02105 0.60903 0.25757 0.0
C21 C 0.02781 0.62425 0.26634 0.0
O22 O 0.05649 0.62106 0.18762 0.0
O23 O 0.03398 0.62789 0.2113 0.0
O24 O 0.07031 0.5742 0.16303 0.0
O25 O 0.08899 0.58717 0.18531 0.0
H26 H 0.12711 0.57681 0.16575 0.0
H27 H 0.13384 0.60557 0.11111 0.0
H28 H 0.07701 0.59912 0.13562 0.0
O29 O 0.90489 0.07296 0.24346 0.0
Tb30 Tb 0.89699 0.04397 0.23368 0.0
Eu31 Eu 0.92028 0.05583 0.18643 0.0
C32 C 0.9202 0.075 0.25464 0.0
O33 O 0.93207 0.06032 0.25644 0.0
C34 C 0.93968 0.03567 0.22327 0.0
O35 O 0.92629 0.02868 0.16906 0.0
C36 C 0.92845 0.08714 0.16722 0.0
C37 C 0.9201 0.01185 0.17556 0.0
O38 O 0.91052 0.01138 0.19197 0.0
C39 C 0.87457 0.04254 0.19277 0.0
C40 C 0.92019 0.09913 0.1514 0.0
C41 C 0.92173 0.1195 0.15246 0.0
C42 C 0.91433 0.13122 0.13752 0.0
C43 C 0.90596 0.12234 0.12131 0.0
C44 C 0.9046 0.10217 0.11972 0.0
C45 C 0.91137 0.09055 0.13502 0.0
O46 O 0.92282 0.02774 0.22674 0.0
O47 O 0.94145 0.05017 0.21103 0.0
O48 O 0.87476 0.04256 0.25626 0.0
O49 O 0.89656 0.02106 0.25562 0.0
C50 C 0.88113 0.02697 0.26457 0.0
O51 O 0.88808 0.05134 0.18256 0.0
O52 O 0.8762 0.03787 0.21115 0.0
O53 O 0.93501 0.06988 0.16246 0.0
O54 O 0.91927 0.08736 0.18394 0.0
H55 H 0.92858 0.12621 0.16489 0.0
H56 H 0.90064 0.13129 0.10955 0.0
H57 H 0.91024 0.07493 0.13392 0.0
O58 O 0.43651 0.90685 0.24621 0.0
Tb59 Tb 0.46218 0.89393 0.23317 0.0
Eu60 Eu 0.46025 0.92296 0.18923 0.0
C61 C 0.43884 0.91817 0.26141 0.0
O62 O 0.45651 0.92313 0.26641 0.0
C63 C 0.47667 0.9365 0.22927 0.0
O64 O 0.48431 0.93439 0.17035 0.0
C65 C 0.42677 0.92555 0.17236 0.0
C66 C 0.50184 0.93534 0.17775 0.0
O67 O 0.50427 0.93051 0.19596 0.0
C68 C 0.46789 0.87708 0.19231 0.0
C69 C 0.41623 0.91877 0.15504 0.0
C70 C 0.39593 0.92064 0.15453 0.0
C71 C 0.38551 0.91494 0.13804 0.0
C72 C 0.39552 0.90783 0.12193 0.0
C73 C 0.41577 0.90634 0.12191 0.0
C74 C 0.42613 0.91147 0.13871 0.0
O75 O 0.48189 0.91842 0.232 0.0
O76 O 0.46338 0.94081 0.2164 0.0
O77 O 0.45968 0.87565 0.25893 0.0
O78 O 0.48718 0.87912 0.24586 0.0
C79 C 0.47789 0.87112 0.2601 0.0
O80 O 0.47416 0.89367 0.1854 0.0
O81 O 0.45651 0.87646 0.20756 0.0
O82 O 0.44107 0.93778 0.16931 0.0
O83 O 0.43055 0.91266 0.18591 0.0
H84 H 0.38826 0.9265 0.16692 0.0
H85 H 0.38741 0.9036 0.10915 0.0
H86 H 0.44178 0.91031 0.13891 0.0
O87 O 0.61105 0.439 0.24348 0.0
Tb88 Tb 0.61631 0.4687 0.23408 0.0
Eu89 Eu 0.59131 0.4564 0.18801 0.0
C90 C 0.59581 0.43544 0.25438 0.0
O91 O 0.58269 0.44903 0.2563 0.0
C92 C 0.57335 0.47663 0.22543 0.0
O93 O 0.5837 0.483 0.17048 0.0
C94 C 0.58236 0.42447 0.1701 0.0
C95 C 0.58956 0.5001 0.17658 0.0
O96 O 0.59988 0.50105 0.19251 0.0
C97 C 0.63687 0.47113 0.1922 0.0
C98 C 0.5889 0.41241 0.15358 0.0
C99 C 0.58495 0.39235 0.15357 0.0
C100 C 0.58944 0.381 0.13727 0.0
C101 C 0.59795 0.38973 0.12113 0.0
C102 C 0.6021 0.40959 0.12086 0.0
C103 C 0.59782 0.42089 0.13726 0.0
O104 O 0.59023 0.48489 0.22793 0.0
O105 O 0.57137 0.46182 0.21361 0.0
O106 O 0.64121 0.47519 0.25268 0.0
O107 O 0.61405 0.48773 0.25933 0.0
C108 C 0.63207 0.48662 0.26449 0.0
O109 O 0.62324 0.46169 0.18264 0.0
O110 O 0.63563 0.4762 0.21054 0.0
O111 O 0.57487 0.44144 0.16578 0.0
O112 O 0.59347 0.42489 0.18561 0.0
H113 H 0.57791 0.38573 0.16592 0.0
H114 H 0.6014 0.38089 0.1086 0.0
H115 H 0.60082 0.4363 0.13708 0.0
O116 O 0.07228 0.90907 0.26643 0.0
Tb117 Tb 0.04254 0.90132 0.27331 0.0
Eu118 Eu 0.05322 0.92525 0.31961 0.0
C119 C 0.07489 0.92365 0.25442 0.0
O120 O 0.05995 0.93471 0.25043 0.0
C121 C 0.03169 0.94339 0.28349 0.0
O122 O 0.02532 0.92972 0.33624 0.0
C123 C 0.08273 0.93548 0.3406 0.0
C124 C 0.00884 0.92308 0.32932 0.0
O125 O 0.00895 0.91353 0.3129 0.0
C126 C 0.04056 0.87989 0.31409 0.0
C127 C 0.09293 0.9277 0.35781 0.0
C128 C 0.11266 0.93211 0.36079 0.0
C129 C 0.12225 0.92561 0.37755 0.0
C130 C 0.11213 0.91425 0.39095 0.0
C131 C 0.09263 0.90959 0.38818 0.0
C132 C 0.08297 0.91637 0.37162 0.0
O133 O 0.02473 0.92628 0.27915 0.0
O134 O 0.04746 0.94522 0.29406 0.0
O135 O 0.03896 0.87594 0.25467 0.0
O136 O 0.02598 0.90243 0.24625 0.0
C137 C 0.02844 0.88437 0.24157 0.0
O138 O 0.05145 0.89277 0.32301 0.0
O139 O 0.0338 0.88214 0.29646 0.0
O140 O 0.06505 0.9419 0.34354 0.0
O141 O 0.08451 0.92561 0.32437 0.0
H142 H 0.12036 0.94101 0.35041 0.0
H143 H 0.11949 0.90906 0.40383 0.0
H144 H 0.06781 0.91287 0.36953 0.0
O145 O 0.60161 0.07083 0.2617 0.0
Tb146 Tb 0.6153 0.04552 0.27464 0.0
Eu147 Eu 0.5884 0.04864 0.32109 0.0
C148 C 0.58829 0.0681 0.24832 0.0
O149 O 0.58253 0.05035 0.24462 0.0
C150 C 0.57307 0.03199 0.28214 0.0
O151 O 0.57713 0.02536 0.34116 0.0
C152 C 0.58914 0.08288 0.3367 0.0
C153 C 0.57488 0.00786 0.33388 0.0
O154 O 0.57837 0.00526 0.31539 0.0
C155 C 0.63356 0.03822 0.31503 0.0
C156 C 0.59794 0.09414 0.35266 0.0
C157 C 0.59698 0.11454 0.35203 0.0
C158 C 0.60454 0.12575 0.36726 0.0
C159 C 0.61259 0.11636 0.3833 0.0
C160 C 0.61338 0.09613 0.38441 0.0
C161 C 0.60635 0.08495 0.36886 0.0
O162 O 0.59102 0.02616 0.2798 0.0
O163 O 0.56909 0.04541 0.295 0.0
O164 O 0.63687 0.04592 0.25124 0.0
O165 O 0.62235 0.01973 0.25764 0.0
C166 C 0.63503 0.0278 0.24641 0.0
O167 O 0.61698 0.03313 0.32288 0.0
O168 O 0.63436 0.04925 0.29952 0.0
O169 O 0.57662 0.06936 0.34161 0.0
O170 O 0.60049 0.07783 0.3222 0.0
H171 H 0.59036 0.12166 0.33972 0.0
H172 H 0.61801 0.12491 0.39533 0.0
H173 H 0.60689 0.06929 0.36961 0.0
O174 O 0.43911 0.59952 0.26522 0.0
Tb175 Tb 0.46869 0.6062 0.27408 0.0
Eu176 Eu 0.45665 0.58593 0.32199 0.0
C177 C 0.43609 0.58372 0.25492 0.0
O178 O 0.45001 0.57081 0.25391 0.0
C179 C 0.47904 0.56483 0.28769 0.0
O180 O 0.48388 0.58143 0.33978 0.0
C181 C 0.42587 0.57747 0.34198 0.0
C182 C 0.50087 0.58679 0.33297 0.0
O183 O 0.50165 0.59522 0.31598 0.0
C184 C 0.47079 0.63024 0.31362 0.0
C185 C 0.41392 0.58593 0.35779 0.0
C186 C 0.39357 0.58411 0.35707 0.0
C187 C 0.38207 0.59112 0.37235 0.0
C188 C 0.39095 0.59972 0.38838 0.0
C189 C 0.41115 0.60136 0.38967 0.0
C190 C 0.42261 0.59479 0.37411 0.0
O191 O 0.48599 0.58143 0.28178 0.0
O192 O 0.46316 0.56388 0.29823 0.0
O193 O 0.47422 0.6311 0.25546 0.0
O194 O 0.48659 0.60396 0.24804 0.0
C195 C 0.4852 0.62207 0.24315 0.0
O196 O 0.45917 0.61861 0.32326 0.0
O197 O 0.47777 0.62616 0.29643 0.0
O198 O 0.44339 0.57164 0.34664 0.0
O199 O 0.42509 0.58594 0.32492 0.0
H200 H 0.38674 0.577 0.34486 0.0
H201 H 0.38195 0.60493 0.40016 0.0
H202 H 0.43822 0.59599 0.37501 0.0
O203 O 0.89938 0.4441 0.26273 0.0
Tb204 Tb 0.89699 0.47465 0.27082 0.0
Eu205 Eu 0.91927 0.4624 0.3176 0.0
C206 C 0.91525 0.43761 0.25433 0.0
O207 O 0.93066 0.44868 0.25416 0.0
C208 C 0.94104 0.47947 0.27995 0.0
O209 O 0.92328 0.49042 0.33397 0.0
C210 C 0.92856 0.43391 0.34015 0.0
C211 C 0.92072 0.50749 0.32594 0.0
O212 O 0.91537 0.50849 0.30774 0.0
C213 C 0.87582 0.4769 0.31081 0.0
C214 C 0.9198 0.4231 0.35646 0.0
C215 C 0.91807 0.40285 0.35501 0.0
C216 C 0.90983 0.39219 0.37014 0.0
C217 C 0.90383 0.40169 0.38698 0.0
C218 C 0.906 0.42175 0.3891 0.0
C219 C 0.91362 0.43254 0.37358 0.0
O220 O 0.92511 0.48798 0.27408 0.0
O221 O 0.94117 0.46596 0.29339 0.0
O222 O 0.87152 0.48126 0.25316 0.0
O223 O 0.89876 0.49282 0.24499 0.0
C224 C 0.88048 0.49208 0.24067 0.0
O225 O 0.88655 0.46289 0.31787 0.0
O226 O 0.88077 0.48623 0.29507 0.0
O227 O 0.93368 0.45194 0.34347 0.0
O228 O 0.9207 0.43132 0.32296 0.0
H229 H 0.92305 0.39539 0.34211 0.0
H230 H 0.89766 0.39325 0.39871 0.0
H231 H 0.91514 0.44808 0.37507 0.0
O232 O 0.24676 0.07781 0.60037 0.0
Tb233 Tb 0.23279 0.05271 0.61339 0.0
Eu234 Eu 0.18786 0.05506 0.58418 0.0
C235 C 0.26187 0.07488 0.5891 0.0
O236 O 0.26625 0.057 0.58428 0.0
C237 C 0.22796 0.03878 0.57069 0.0
O238 O 0.16983 0.03001 0.57324 0.0
C239 C 0.17 0.0881 0.58209 0.0
C240 C 0.17761 0.01261 0.57382 0.0
O241 O 0.19551 0.01093 0.57998 0.0
C242 C 0.19129 0.04975 0.63006 0.0
C243 C 0.15317 0.09854 0.59035 0.0
C244 C 0.15248 0.11888 0.58874 0.0
C245 C 0.13652 0.12931 0.59588 0.0
C246 C 0.12108 0.11914 0.60422 0.0
C247 C 0.12121 0.09889 0.60562 0.0
C248 C 0.13753 0.08857 0.599 0.0
O249 O 0.23032 0.03333 0.58875 0.0
O250 O 0.21499 0.05196 0.56622 0.0
O251 O 0.25888 0.05413 0.6314 0.0
O252 O 0.24468 0.02719 0.6281 0.0
C253 C 0.25943 0.03589 0.63592 0.0
O254 O 0.18486 0.0422 0.61383 0.0
O255 O 0.20747 0.05979 0.63078 0.0
O256 O 0.16619 0.07335 0.57059 0.0
O257 O 0.18489 0.08508 0.59364 0.0
H258 H 0.16434 0.12658 0.58194 0.0
H259 H 0.10855 0.12709 0.60935 0.0
H260 H 0.1378 0.07291 0.60004 0.0
O261 O 0.43727 0.24396 0.59736 0.0
Tb262 Tb 0.46575 0.23349 0.60603 0.0
Eu263 Eu 0.46392 0.18741 0.57936 0.0
C264 C 0.43546 0.2542 0.58138 0.0
O265 O 0.45021 0.25512 0.56943 0.0
C266 C 0.48184 0.22605 0.56496 0.0
O267 O 0.48854 0.1679 0.57008 0.0
C268 C 0.43017 0.17107 0.57659 0.0
C269 C 0.50621 0.17501 0.57124 0.0
O270 O 0.50833 0.19298 0.57707 0.0
C271 C 0.47007 0.19354 0.62549 0.0
C272 C 0.41913 0.15464 0.58468 0.0
C273 C 0.39878 0.1545 0.58308 0.0
C274 C 0.38801 0.13882 0.59028 0.0
C275 C 0.39775 0.12313 0.5986 0.0
C276 C 0.41802 0.12271 0.5998 0.0
C277 C 0.4287 0.13874 0.59318 0.0
O278 O 0.48662 0.22829 0.58319 0.0
O279 O 0.46857 0.21333 0.56018 0.0
O280 O 0.47104 0.26428 0.61121 0.0
O281 O 0.48376 0.24384 0.63012 0.0
C282 C 0.48216 0.26216 0.62619 0.0
O283 O 0.47637 0.18538 0.60945 0.0
O284 O 0.45938 0.20933 0.62519 0.0
O285 O 0.44494 0.16661 0.56539 0.0
O286 O 0.43365 0.18578 0.58827 0.0
H287 H 0.39136 0.16655 0.57631 0.0
H288 H 0.38942 0.11093 0.60394 0.0
H289 H 0.44436 0.13862 0.59412 0.0
O290 O 0.26258 0.43402 0.6045 0.0
Tb291 Tb 0.27161 0.46432 0.60749 0.0
Eu292 Eu 0.31967 0.45401 0.58512 0.0
C293 C 0.25381 0.42787 0.58865 0.0
O294 O 0.2548 0.43847 0.57296 0.0
C295 C 0.28071 0.47052 0.56243 0.0
O296 O 0.33608 0.48232 0.58302 0.0
C297 C 0.34166 0.4251 0.57508 0.0
C298 C 0.32719 0.49912 0.58458 0.0
O299 O 0.30844 0.49936 0.58769 0.0
C300 C 0.31182 0.46657 0.62885 0.0
C301 C 0.35675 0.41237 0.58359 0.0
C302 C 0.35723 0.39262 0.57832 0.0
C303 C 0.37174 0.38041 0.58563 0.0
C304 C 0.38557 0.38787 0.59837 0.0
C305 C 0.38543 0.4074 0.60389 0.0
C306 C 0.37102 0.41972 0.59635 0.0
O307 O 0.27124 0.47536 0.57825 0.0
O308 O 0.29693 0.46034 0.56206 0.0
O309 O 0.24951 0.46431 0.63019 0.0
O310 O 0.25029 0.48763 0.61032 0.0
C311 C 0.24145 0.48057 0.62533 0.0
O312 O 0.3192 0.45304 0.61775 0.0
O313 O 0.29559 0.47536 0.62449 0.0
O314 O 0.34634 0.44333 0.57227 0.0
O315 O 0.32382 0.42284 0.5814 0.0
H316 H 0.34661 0.38688 0.56829 0.0
H317 H 0.39691 0.37838 0.6037 0.0
H318 H 0.37089 0.43487 0.60047 0.0
O319 O 0.06445 0.2637 0.59732 0.0
Tb320 Tb 0.03489 0.2705 0.60579 0.0
Eu321 Eu 0.04994 0.31669 0.58552 0.0
C322 C 0.06667 0.25071 0.58351 0.0
O323 O 0.05129 0.24544 0.57363 0.0
C324 C 0.02752 0.2825 0.56301 0.0
O325 O 0.02242 0.33424 0.58223 0.0
C326 C 0.08041 0.33705 0.57659 0.0
C327 C 0.00566 0.32596 0.58594 0.0
O328 O 0.00553 0.30812 0.59235 0.0
C329 C 0.0348 0.30982 0.62919 0.0
C330 C 0.09213 0.35315 0.58489 0.0
C331 C 0.11254 0.35279 0.58339 0.0
C332 C 0.12368 0.36838 0.5904 0.0
C333 C 0.11435 0.38436 0.59865 0.0
C334 C 0.09409 0.38526 0.59992 0.0
C335 C 0.08305 0.36942 0.59335 0.0
O336 O 0.01997 0.2751 0.57877 0.0
O337 O 0.04341 0.29314 0.56322 0.0
O338 O 0.03666 0.24801 0.62801 0.0
O339 O 0.01394 0.24667 0.60743 0.0
C340 C 0.02156 0.23827 0.62243 0.0
O341 O 0.04858 0.31714 0.61828 0.0
O342 O 0.02574 0.29371 0.62475 0.0
O343 O 0.06276 0.34136 0.57087 0.0
O344 O 0.08148 0.32009 0.58522 0.0
H345 H 0.11969 0.34058 0.5766 0.0
H346 H 0.12304 0.39634 0.60394 0.0
H347 H 0.0674 0.37004 0.59428 0.0
O348 O 0.24163 0.43939 0.90796 0.0
Tb349 Tb 0.23294 0.46755 0.89688 0.0
Eu350 Eu 0.18721 0.45423 0.91802 0.0
C351 C 0.25524 0.43916 0.92132 0.0
O352 O 0.26034 0.45571 0.92923 0.0
C353 C 0.22172 0.47535 0.93891 0.0
O354 O 0.16917 0.48023 0.92648 0.0
C355 C 0.16947 0.42161 0.92404 0.0
C356 C 0.17489 0.49748 0.9207 0.0
O357 O 0.19069 0.49877 0.91021 0.0
C358 C 0.19333 0.4686 0.87241 0.0
C359 C 0.15349 0.40976 0.91598 0.0
C360 C 0.15441 0.38941 0.91749 0.0
C361 C 0.13915 0.37783 0.91055 0.0
C362 C 0.1228 0.3868 0.90262 0.0
C363 C 0.12138 0.40699 0.90136 0.0
C364 C 0.13697 0.41849 0.90767 0.0
O365 O 0.22557 0.48392 0.9225 0.0
O366 O 0.21193 0.45905 0.93918 0.0
O367 O 0.25921 0.46579 0.87932 0.0
O368 O 0.25324 0.49183 0.89439 0.0
C369 C 0.26536 0.48319 0.88292 0.0
O370 O 0.1822 0.46254 0.8867 0.0
O371 O 0.21225 0.47055 0.87359 0.0
O372 O 0.16458 0.43797 0.93253 0.0
O373 O 0.18541 0.42295 0.91362 0.0
H374 H 0.16694 0.38262 0.92405 0.0
H375 H 0.11079 0.37794 0.89767 0.0
H376 H 0.13598 0.43412 0.90669 0.0
O377 O 0.07188 0.24165 0.90751 0.0
Tb378 Tb 0.04276 0.23342 0.89857 0.0
Eu379 Eu 0.05539 0.18774 0.92167 0.0
C380 C 0.07346 0.25513 0.92092 0.0
O381 O 0.05771 0.26052 0.93007 0.0
C382 C 0.03445 0.22405 0.94092 0.0
O383 O 0.0262 0.17319 0.9193 0.0
C384 C 0.08169 0.16435 0.93488 0.0
C385 C 0.01403 0.17219 0.93393 0.0
O386 O 0.01894 0.17978 0.95068 0.0
C387 C 0.04665 0.19404 0.87625 0.0
C388 C 0.09313 0.1473 0.92861 0.0
C389 C 0.11276 0.14597 0.93413 0.0
C390 C 0.12356 0.1293 0.92975 0.0
C391 C 0.11472 0.11414 0.91961 0.0
C392 C 0.09535 0.11519 0.91378 0.0
C393 C 0.08457 0.13194 0.91808 0.0
O394 O 0.0262 0.22642 0.92404 0.0
O395 O 0.04935 0.21233 0.94284 0.0
O396 O 0.04183 0.25519 0.87559 0.0
O397 O 0.02128 0.25672 0.89833 0.0
C398 C 0.02715 0.26477 0.88241 0.0
O399 O 0.05911 0.18736 0.88904 0.0
O400 O 0.03643 0.20977 0.87919 0.0
O401 O 0.06302 0.16175 0.93762 0.0
O402 O 0.08588 0.18105 0.9267 0.0
H403 H 0.11945 0.15764 0.94225 0.0
H404 H 0.12316 0.10137 0.91601 0.0
H405 H 0.06953 0.13278 0.91368 0.0
O406 O 0.26464 0.07236 0.91442 0.0
Tb407 Tb 0.27805 0.04714 0.90101 0.0
Eu408 Eu 0.32385 0.04949 0.92851 0.0
C409 C 0.25074 0.06962 0.92717 0.0
O410 O 0.24676 0.05188 0.9327 0.0
C411 C 0.28412 0.03374 0.94348 0.0
O412 O 0.34284 0.02496 0.93871 0.0
C413 C 0.34144 0.08268 0.93033 0.0
C414 C 0.33494 0.00769 0.94022 0.0
O415 O 0.31634 0.00589 0.93678 0.0
C416 C 0.3184 0.04156 0.88282 0.0
C417 C 0.35893 0.09291 0.92349 0.0
C418 C 0.36077 0.11286 0.9274 0.0
C419 C 0.37804 0.12266 0.92305 0.0
C420 C 0.39325 0.11244 0.91439 0.0
C421 C 0.39177 0.0926 0.91031 0.0
C422 C 0.37441 0.08284 0.91471 0.0
O423 O 0.2815 0.02792 0.92558 0.0
O424 O 0.29737 0.04678 0.94745 0.0
O425 O 0.25288 0.04816 0.8817 0.0
O426 O 0.26437 0.02088 0.88965 0.0
C427 C 0.25084 0.02953 0.87991 0.0
O428 O 0.32607 0.03542 0.89912 0.0
O429 O 0.30304 0.05281 0.88272 0.0
O430 O 0.34432 0.06856 0.94278 0.0
O431 O 0.32777 0.07888 0.91754 0.0
H432 H 0.34906 0.12058 0.93446 0.0
H433 H 0.40644 0.12012 0.91067 0.0
H434 H 0.37316 0.06744 0.91189 0.0
O435 O 0.4341 0.26562 0.90976 0.0
Tb436 Tb 0.45944 0.27969 0.89726 0.0
Eu437 Eu 0.45502 0.32493 0.92559 0.0
C438 C 0.43676 0.25162 0.92241 0.0
O439 O 0.45441 0.248 0.92845 0.0
C440 C 0.47233 0.2853 0.94001 0.0
O441 O 0.4792 0.34484 0.93529 0.0
C442 C 0.42091 0.34054 0.92784 0.0
C443 C 0.49682 0.33762 0.93646 0.0
O444 O 0.49919 0.31904 0.93319 0.0
C445 C 0.46073 0.3208 0.87953 0.0
C446 C 0.40972 0.35669 0.9194 0.0
C447 C 0.38939 0.35683 0.92132 0.0
C448 C 0.37842 0.37223 0.91379 0.0
C449 C 0.38803 0.38767 0.90484 0.0
C450 C 0.40823 0.38799 0.90312 0.0
C451 C 0.41909 0.37225 0.91007 0.0
O452 O 0.47839 0.28313 0.92211 0.0
O453 O 0.4593 0.29848 0.94429 0.0
O454 O 0.45914 0.2527 0.88062 0.0
O455 O 0.48498 0.26913 0.88155 0.0
C456 C 0.47703 0.25342 0.8749 0.0
O457 O 0.46722 0.32857 0.89564 0.0
O458 O 0.45147 0.30416 0.87922 0.0
O459 O 0.4354 0.34532 0.93929 0.0
O460 O 0.42487 0.32587 0.91628 0.0
H461 H 0.38214 0.34497 0.92861 0.0
H462 H 0.37969 0.39984 0.89945 0.0
H463 H 0.43473 0.37238 0.90874 0.0
O464 O 0.60144 0.24405 0.07148 0.0
Tb465 Tb 0.60795 0.23517 0.0419 0.0
Eu466 Eu 0.58396 0.18928 0.05461 0.0
C467 C 0.58571 0.25436 0.07467 0.0
O468 O 0.57297 0.25599 0.06065 0.0
C469 C 0.56657 0.22442 0.03135 0.0
O470 O 0.58527 0.17348 0.02599 0.0
C471 C 0.5708 0.16706 0.08187 0.0
C472 C 0.5704 0.17298 0.01405 0.0
O473 O 0.55418 0.18154 0.01907 0.0
C474 C 0.62963 0.19505 0.04562 0.0
C475 C 0.57751 0.14964 0.09245 0.0
C476 C 0.57326 0.14762 0.11233 0.0
C477 C 0.57841 0.1306 0.12223 0.0
C478 C 0.58803 0.11583 0.1122 0.0
C479 C 0.59254 0.11757 0.09252 0.0
C480 C 0.58749 0.13466 0.08271 0.0
O481 O 0.58399 0.22605 0.02412 0.0
O482 O 0.5638 0.21418 0.04716 0.0
O483 O 0.63369 0.25163 0.03386 0.0
O484 O 0.60613 0.2622 0.02535 0.0
C485 C 0.62468 0.26534 0.02468 0.0
O486 O 0.61659 0.18787 0.05752 0.0
O487 O 0.62715 0.21124 0.036 0.0
O488 O 0.56657 0.16466 0.06344 0.0
O489 O 0.58002 0.18337 0.08543 0.0
H490 H 0.56556 0.159 0.11992 0.0
H491 H 0.59229 0.10285 0.11995 0.0
H492 H 0.59089 0.13607 0.06746 0.0
O493 O 0.6135 0.26375 0.43073 0.0
Tb494 Tb 0.62131 0.27406 0.45951 0.0
Eu495 Eu 0.59439 0.3206 0.45581 0.0
C496 C 0.59825 0.25241 0.42898 0.0
O497 O 0.58676 0.2504 0.44399 0.0
C498 C 0.58009 0.282 0.47343 0.0
O499 O 0.58345 0.34082 0.47917 0.0
C500 C 0.59353 0.33649 0.42175 0.0
C501 C 0.58291 0.33409 0.49701 0.0
O502 O 0.58809 0.31606 0.49997 0.0
C503 C 0.63989 0.31439 0.46609 0.0
C504 C 0.59996 0.35438 0.41199 0.0
C505 C 0.59779 0.35616 0.39177 0.0
C506 C 0.60126 0.37401 0.38262 0.0
C507 C 0.60713 0.3899 0.3938 0.0
C508 C 0.60972 0.38824 0.41384 0.0
C509 C 0.60631 0.37039 0.42292 0.0
O510 O 0.59803 0.28065 0.47945 0.0
O511 O 0.57591 0.29401 0.45937 0.0
O512 O 0.64675 0.26225 0.47454 0.0
O513 O 0.62289 0.24389 0.46893 0.0
C514 C 0.63997 0.24483 0.47665 0.0
O515 O 0.6234 0.3228 0.47073 0.0
O516 O 0.64052 0.29871 0.45523 0.0
O517 O 0.57988 0.33881 0.43483 0.0
O518 O 0.60697 0.32399 0.42697 0.0
H519 H 0.59261 0.34397 0.38332 0.0
H520 H 0.60969 0.40375 0.38683 0.0
H521 H 0.60782 0.36919 0.4385 0.0
O522 O 0.24422 0.60355 0.43902 0.0
Tb523 Tb 0.23486 0.60656 0.46905 0.0
Eu524 Eu 0.18843 0.58725 0.45254 0.0
C525 C 0.25458 0.58827 0.43415 0.0
O526 O 0.25613 0.57402 0.4466 0.0
C527 C 0.22319 0.56321 0.47239 0.0
O528 O 0.17044 0.58185 0.47947 0.0
C529 C 0.16827 0.57982 0.4216 0.0
C530 C 0.17805 0.58359 0.49687 0.0
O531 O 0.19618 0.58897 0.49848 0.0
C532 C 0.19583 0.62949 0.47032 0.0
C533 C 0.1526 0.58854 0.4098 0.0
C534 C 0.15351 0.58724 0.38943 0.0
C535 C 0.13849 0.59473 0.37792 0.0
C536 C 0.12232 0.603 0.38697 0.0
C537 C 0.1209 0.60409 0.40717 0.0
C538 C 0.13629 0.59723 0.41859 0.0
O539 O 0.23004 0.57837 0.48155 0.0
O540 O 0.21212 0.56464 0.45689 0.0
O541 O 0.25194 0.63227 0.4759 0.0
O542 O 0.25981 0.60538 0.48853 0.0
C543 C 0.26393 0.62372 0.48758 0.0
O544 O 0.18841 0.61996 0.4556 0.0
O545 O 0.21039 0.62253 0.48026 0.0
O546 O 0.16354 0.57367 0.43897 0.0
O547 O 0.18536 0.58827 0.42104 0.0
H548 H 0.16587 0.5804 0.38258 0.0
H549 H 0.11047 0.60836 0.37817 0.0
H550 H 0.13526 0.59811 0.43422 0.0
O551 O 0.89482 0.26291 0.4428 0.0
Tb552 Tb 0.90228 0.24543 0.46772 0.0
Eu553 Eu 0.91497 0.17806 0.46128 0.0
C554 C 0.90649 0.26366 0.42778 0.0
O555 O 0.92184 0.25244 0.42744 0.0
C556 C 0.93817 0.21659 0.47125 0.0
O557 O 0.91109 0.15766 0.48628 0.0
C558 C 0.91808 0.16224 0.4273 0.0
C559 C 0.91122 0.16551 0.50363 0.0
O560 O 0.91206 0.18447 0.50501 0.0
C561 C 0.87902 0.20888 0.46794 0.0
C562 C 0.91722 0.14333 0.41749 0.0
C563 C 0.92028 0.14241 0.39739 0.0
C564 C 0.91859 0.12472 0.38751 0.0
C565 C 0.91349 0.10804 0.3979 0.0
C566 C 0.9101 0.10869 0.41797 0.0
C567 C 0.91216 0.12649 0.42773 0.0
O568 O 0.92491 0.22448 0.46009 0.0
O569 O 0.93988 0.1975 0.47096 0.0
O570 O 0.91168 0.27144 0.48337 0.0
O571 O 0.89417 0.25085 0.49776 0.0
C572 C 0.90243 0.26769 0.49938 0.0
O573 O 0.89579 0.20414 0.46048 0.0
O574 O 0.8763 0.22757 0.46988 0.0
O575 O 0.93309 0.16561 0.4386 0.0
O576 O 0.90161 0.16855 0.43451 0.0
H577 H 0.92393 0.15544 0.38944 0.0
H578 H 0.91131 0.09463 0.39002 0.0
H579 H 0.90956 0.12737 0.44318 0.0
O580 O 0.26339 0.91115 0.43846 0.0
Tb581 Tb 0.27719 0.89773 0.46348 0.0
Eu582 Eu 0.32134 0.9266 0.46066 0.0
C583 C 0.24897 0.92326 0.44154 0.0
O584 O 0.24483 0.92816 0.45944 0.0
C585 C 0.28181 0.94025 0.4779 0.0
O586 O 0.33983 0.93812 0.48509 0.0
C587 C 0.33776 0.92931 0.42695 0.0
C588 C 0.33256 0.93712 0.50269 0.0
O589 O 0.31498 0.93021 0.50477 0.0
C590 C 0.31812 0.88071 0.46809 0.0
C591 C 0.35477 0.92189 0.41634 0.0
C592 C 0.35539 0.92344 0.396 0.0
C593 C 0.3716 0.91674 0.38568 0.0
C594 C 0.38729 0.90898 0.39588 0.0
C595 C 0.3872 0.90787 0.41616 0.0
C596 C 0.37068 0.91399 0.42635 0.0
O597 O 0.27894 0.92221 0.48326 0.0
O598 O 0.29419 0.94433 0.46409 0.0
O599 O 0.25168 0.87908 0.46113 0.0
O600 O 0.26497 0.88262 0.48854 0.0
C601 C 0.2508 0.87437 0.47931 0.0
O602 O 0.32545 0.8972 0.47416 0.0
O603 O 0.30264 0.88031 0.45701 0.0
O604 O 0.34139 0.94122 0.44141 0.0
O605 O 0.32382 0.91682 0.43072 0.0
H606 H 0.3433 0.92974 0.38823 0.0
H607 H 0.39986 0.90397 0.38789 0.0
H608 H 0.37039 0.9131 0.44202 0.0
O609 O 0.90846 0.26822 0.07271 0.0
Tb610 Tb 0.90072 0.27513 0.04295 0.0
Eu611 Eu 0.92323 0.32115 0.05521 0.0
C612 C 0.92331 0.25648 0.07516 0.0
O613 O 0.93439 0.25289 0.06013 0.0
C614 C 0.94281 0.28603 0.03231 0.0
O615 O 0.92712 0.33967 0.02842 0.0
C616 C 0.93242 0.34056 0.08613 0.0
C617 C 0.92233 0.33283 0.01126 0.0
O618 O 0.91508 0.31532 0.01006 0.0
C619 C 0.8793 0.31558 0.04004 0.0
C620 C 0.92434 0.35709 0.09731 0.0
C621 C 0.92511 0.35689 0.11772 0.0
C622 C 0.91808 0.37273 0.12843 0.0
C623 C 0.91053 0.38879 0.11871 0.0
C624 C 0.90995 0.38951 0.09842 0.0
C625 C 0.91654 0.37342 0.08777 0.0
O626 O 0.92596 0.28052 0.02555 0.0
O627 O 0.94428 0.29667 0.04811 0.0
O628 O 0.875 0.25705 0.03932 0.0
O629 O 0.90144 0.24799 0.02653 0.0
C630 C 0.88326 0.24374 0.02887 0.0
O631 O 0.89061 0.32356 0.05313 0.0
O632 O 0.88288 0.29857 0.03239 0.0
O633 O 0.93926 0.34455 0.06881 0.0
O634 O 0.92273 0.32413 0.08674 0.0
H635 H 0.93133 0.3446 0.12523 0.0
H636 H 0.9052 0.40094 0.12713 0.0
H637 H 0.91611 0.37385 0.07209 0.0
O638 O 0.24648 0.90719 0.07354 0.0
Tb639 Tb 0.23244 0.89508 0.04808 0.0
Eu640 Eu 0.18755 0.92438 0.05363 0.0
C641 C 0.26156 0.91859 0.07111 0.0
O642 O 0.26614 0.92393 0.05345 0.0
C643 C 0.22719 0.93823 0.03677 0.0
O644 O 0.16793 0.93525 0.02977 0.0
C645 C 0.17173 0.92536 0.08773 0.0
C646 C 0.17523 0.93611 0.01218 0.0
O647 O 0.19366 0.93208 0.00989 0.0
C648 C 0.19066 0.87868 0.04398 0.0
C649 C 0.15512 0.91759 0.09877 0.0
C650 C 0.15529 0.91896 0.11915 0.0
C651 C 0.1395 0.91219 0.13008 0.0
C652 C 0.12341 0.90452 0.12038 0.0
C653 C 0.12276 0.90339 0.10013 0.0
C654 C 0.13886 0.90961 0.0893 0.0
O655 O 0.22838 0.92048 0.03007 0.0
O656 O 0.21458 0.94242 0.05036 0.0
O657 O 0.25583 0.8735 0.04729 0.0
O658 O 0.24691 0.88669 0.02115 0.0
C659 C 0.25891 0.87441 0.02874 0.0
O660 O 0.18342 0.89555 0.03902 0.0
O661 O 0.20717 0.87705 0.05333 0.0
O662 O 0.16771 0.9379 0.07395 0.0
O663 O 0.18558 0.91308 0.08304 0.0
H664 H 0.16768 0.92524 0.12648 0.0
H665 H 0.11104 0.89963 0.12872 0.0
H666 H 0.13853 0.90876 0.07363 0.0
O667 O 0.26865 0.60081 0.07116 0.0
Tb668 Tb 0.2748 0.60496 0.04045 0.0
Eu669 Eu 0.32144 0.58293 0.0527 0.0
C670 C 0.25921 0.58524 0.07687 0.0
O671 O 0.2574 0.57071 0.06477 0.0
C672 C 0.28413 0.56135 0.03341 0.0
O673 O 0.33995 0.57906 0.02589 0.0
C674 C 0.34097 0.57466 0.08387 0.0
C675 C 0.33245 0.58137 0.0085 0.0
O676 O 0.31405 0.58589 0.00701 0.0
C677 C 0.31471 0.62629 0.03644 0.0
C678 C 0.35736 0.58252 0.09538 0.0
C679 C 0.35789 0.57965 0.11562 0.0
C680 C 0.37409 0.58565 0.12646 0.0
C681 C 0.38963 0.59454 0.117 0.0
C682 C 0.38949 0.59747 0.09691 0.0
C683 C 0.37314 0.59171 0.08617 0.0
O684 O 0.27799 0.57761 0.02584 0.0
O685 O 0.29762 0.56067 0.04696 0.0
O686 O 0.25557 0.62997 0.03747 0.0
O687 O 0.24862 0.60403 0.02257 0.0
C688 C 0.24326 0.62175 0.02584 0.0
O689 O 0.32274 0.61563 0.05002 0.0
O690 O 0.29833 0.62148 0.02816 0.0
O691 O 0.34522 0.56781 0.0666 0.0
O692 O 0.32456 0.58436 0.08422 0.0
H693 H 0.34603 0.57231 0.12281 0.0
H694 H 0.40204 0.59914 0.12547 0.0
H695 H 0.37298 0.59377 0.07062 0.0
O696 O 0.93385 0.40269 0.7681 0.0
Tb697 Tb 0.96464 0.4001 0.77442 0.0
Eu698 Eu 0.95199 0.42216 0.82145 0.0
C699 C 0.92754 0.4183 0.75916 0.0
O700 O 0.93897 0.43344 0.75815 0.0
C701 C 0.97115 0.44398 0.78421 0.0
O702 O 0.97946 0.42545 0.83907 0.0
C703 C 0.9217 0.43149 0.84177 0.0
C704 C 0.99653 0.42396 0.83072 0.0
O705 O 0.99733 0.42034 0.8121 0.0
C706 C 0.96776 0.37942 0.81443 0.0
C707 C 0.90953 0.42393 0.85775 0.0
C708 C 0.8894 0.42732 0.85742 0.0
C709 C 0.87781 0.42186 0.8732 0.0
C710 C 0.88636 0.413 0.88925 0.0
C711 C 0.90632 0.40938 0.88988 0.0
C712 C 0.91787 0.4146 0.87393 0.0
O713 O 0.97843 0.42798 0.77694 0.0
O714 O 0.95772 0.44431 0.79781 0.0
O715 O 0.97161 0.3736 0.75855 0.0
O716 O 0.97978 0.40061 0.74653 0.0
C717 C 0.98016 0.38196 0.74405 0.0
O718 O 0.95336 0.38952 0.82161 0.0
O719 O 0.97706 0.38498 0.79887 0.0
O720 O 0.93944 0.43681 0.84625 0.0
O721 O 0.92051 0.42268 0.82489 0.0
H722 H 0.88286 0.43467 0.84519 0.0
H723 H 0.87732 0.40887 0.90141 0.0
H724 H 0.93334 0.412 0.87442 0.0
O725 O 0.10665 0.93986 0.76373 0.0
Tb726 Tb 0.11185 0.96921 0.77423 0.0
Eu727 Eu 0.09207 0.95235 0.82079 0.0
C728 C 0.09155 0.93712 0.75237 0.0
O729 O 0.07903 0.95129 0.75049 0.0
C730 C 0.06952 0.97293 0.78699 0.0
O731 O 0.08589 0.97934 0.83848 0.0
C732 C 0.08323 0.92176 0.84082 0.0
C733 C 0.09055 0.99672 0.83217 0.0
O734 O 0.09935 0.99836 0.81544 0.0
C735 C 0.13553 0.96901 0.81383 0.0
C736 C 0.09001 0.91072 0.85788 0.0
C737 C 0.08735 0.89051 0.85832 0.0
C738 C 0.09184 0.87997 0.87508 0.0
C739 C 0.09925 0.88966 0.89128 0.0
C740 C 0.1021 0.90979 0.89119 0.0
C741 C 0.09764 0.92026 0.87429 0.0
O742 O 0.08482 0.98285 0.78186 0.0
O743 O 0.07119 0.95613 0.79573 0.0
O744 O 0.13639 0.97589 0.75546 0.0
O745 O 0.10944 0.98962 0.75013 0.0
C746 C 0.12734 0.9882 0.74452 0.0
O747 O 0.1247 0.95572 0.8222 0.0
O748 O 0.13051 0.97791 0.79781 0.0
O749 O 0.07605 0.93904 0.84424 0.0
O750 O 0.09389 0.92101 0.82504 0.0
H751 H 0.08117 0.8831 0.84592 0.0
H752 H 0.10289 0.88133 0.90408 0.0
H753 H 0.09952 0.93584 0.87411 0.0
O754 O 0.57476 0.1076 0.76167 0.0
Tb755 Tb 0.54857 0.12007 0.77433 0.0
Eu756 Eu 0.55176 0.09214 0.81903 0.0
C757 C 0.57308 0.09427 0.74808 0.0
O758 O 0.55582 0.08735 0.74412 0.0
C759 C 0.53423 0.07738 0.77996 0.0
O760 O 0.52791 0.08051 0.83824 0.0
C761 C 0.58576 0.09149 0.83519 0.0
C762 C 0.51013 0.08108 0.83135 0.0
O763 O 0.50752 0.08772 0.81373 0.0
C764 C 0.54307 0.13777 0.81509 0.0
C765 C 0.59649 0.09983 0.85181 0.0
C766 C 0.61694 0.09954 0.85169 0.0
C767 C 0.62752 0.10644 0.86773 0.0
C768 C 0.61738 0.11318 0.88396 0.0
C769 C 0.59712 0.11333 0.88447 0.0
C770 C 0.58663 0.10698 0.86822 0.0
O771 O 0.52912 0.09538 0.7765 0.0
O772 O 0.54804 0.07349 0.79244 0.0
O773 O 0.55039 0.1371 0.74765 0.0
O774 O 0.52331 0.13458 0.76171 0.0
C775 C 0.53221 0.14184 0.74684 0.0
O776 O 0.53728 0.12112 0.82225 0.0
O777 O 0.55379 0.13863 0.79935 0.0
O778 O 0.57186 0.07912 0.83937 0.0
O779 O 0.58132 0.10327 0.82085 0.0
H780 H 0.62457 0.09385 0.83921 0.0
H781 H 0.62533 0.11788 0.89668 0.0
H782 H 0.57094 0.10694 0.86861 0.0
O783 O 0.4057 0.57248 0.76588 0.0
Tb784 Tb 0.40035 0.5421 0.77257 0.0
Eu785 Eu 0.42375 0.55444 0.81887 0.0
C786 C 0.42085 0.57708 0.75525 0.0
O787 O 0.434 0.5638 0.75195 0.0
C788 C 0.44412 0.53531 0.78115 0.0
O789 O 0.4277 0.52678 0.83595 0.0
C790 C 0.43366 0.58419 0.83975 0.0
C791 C 0.42399 0.50977 0.82818 0.0
O792 O 0.41765 0.50898 0.81029 0.0
C793 C 0.37965 0.54025 0.81301 0.0
C794 C 0.42617 0.59598 0.85609 0.0
C795 C 0.42982 0.61607 0.85632 0.0
C796 C 0.42446 0.62732 0.8724 0.0
C797 C 0.41528 0.61848 0.88812 0.0
C798 C 0.41132 0.59858 0.88821 0.0
C799 C 0.41657 0.58734 0.87199 0.0
O800 O 0.42767 0.52744 0.77588 0.0
O801 O 0.4452 0.54912 0.79433 0.0
O802 O 0.37581 0.5401 0.75254 0.0
O803 O 0.40042 0.5225 0.7476 0.0
C804 C 0.38329 0.52698 0.74131 0.0
O805 O 0.39104 0.55364 0.82033 0.0
O806 O 0.38344 0.53147 0.7966 0.0
O807 O 0.43891 0.56633 0.84373 0.0
O808 O 0.42479 0.58584 0.82296 0.0
H809 H 0.43733 0.62283 0.84431 0.0
H810 H 0.41109 0.6273 0.90044 0.0
H811 H 0.41374 0.57191 0.87202 0.0
O812 O 0.93861 0.10446 0.74375 0.0
Tb813 Tb 0.96928 0.10345 0.73602 0.0
Eu814 Eu 0.95531 0.07899 0.69099 0.0
C815 C 0.92904 0.08903 0.74964 0.0
O816 O 0.93639 0.07181 0.74649 0.0
C817 C 0.97261 0.05735 0.73042 0.0
O818 O 0.98197 0.07607 0.6721 0.0
C819 C 0.92364 0.06865 0.67346 0.0
C820 C 0.99928 0.07631 0.68013 0.0
O821 O 1.00054 0.07813 0.69902 0.0
C822 C 0.97096 0.12193 0.69518 0.0
C823 C 0.90984 0.07622 0.65886 0.0
C824 C 0.88975 0.07311 0.66129 0.0
C825 C 0.87665 0.07923 0.64697 0.0
C826 C 0.88365 0.08821 0.63029 0.0
C827 C 0.90348 0.09105 0.6274 0.0
C828 C 0.91658 0.08545 0.64191 0.0
O829 O 0.97653 0.07338 0.73996 0.0
O830 O 0.96393 0.05652 0.71339 0.0
O831 O 0.97217 0.12786 0.75612 0.0
O832 O 0.99275 0.1052 0.75732 0.0
C833 C 0.98764 0.12166 0.76482 0.0
O834 O 0.95611 0.11162 0.68936 0.0
O835 O 0.98121 0.11664 0.71021 0.0
O836 O 0.94108 0.06413 0.66724 0.0
O837 O 0.92371 0.07708 0.69058 0.0
H838 H 0.88441 0.06566 0.67402 0.0
H839 H 0.87346 0.09272 0.61921 0.0
H840 H 0.93195 0.08767 0.63968 0.0
O841 O 0.40732 0.93968 0.74554 0.0
Tb842 Tb 0.3948 0.96607 0.73364 0.0
Eu843 Eu 0.42376 0.96319 0.68989 0.0
C844 C 0.41897 0.94113 0.76058 0.0
O845 O 0.42458 0.95846 0.76608 0.0
C846 C 0.43747 0.98039 0.72968 0.0
O847 O 0.43527 0.98664 0.67027 0.0
C848 C 0.42579 0.92929 0.6736 0.0
C849 C 0.43669 1.0043 0.67733 0.0
O850 O 0.43228 0.00714 0.6956 0.0
C851 C 0.378 0.97195 0.69273 0.0
C852 C 0.41963 0.91919 0.65576 0.0
C853 C 0.42339 0.8992 0.65373 0.0
C854 C 0.41959 0.88974 0.6361 0.0
C855 C 0.41166 0.90033 0.62076 0.0
C856 C 0.4078 0.92019 0.62244 0.0
C857 C 0.41162 0.92959 0.64012 0.0
O858 O 0.41943 0.98563 0.73262 0.0
O859 O 0.44162 0.9668 0.71704 0.0
O860 O 0.37738 0.96334 0.76 0.0
O861 O 0.37965 0.99078 0.74661 0.0
C862 C 0.37234 0.98143 0.76117 0.0
O863 O 0.39477 0.97769 0.68578 0.0
O864 O 0.37699 0.96088 0.70818 0.0
O865 O 0.4389 0.94292 0.67129 0.0
O866 O 0.41224 0.93393 0.68624 0.0
H867 H 0.42988 0.89123 0.66558 0.0
H868 H 0.40832 0.89292 0.60731 0.0
H869 H 0.40896 0.945 0.64154 0.0
O870 O 0.57157 0.40427 0.74299 0.0
Tb871 Tb 0.54176 0.39917 0.73399 0.0
Eu872 Eu 0.55428 0.42176 0.6865 0.0
C873 C 0.57489 0.41983 0.75356 0.0
O874 O 0.56099 0.43271 0.75509 0.0
C875 C 0.53283 0.44085 0.7219 0.0
O876 O 0.526 0.42581 0.6702 0.0
C877 C 0.58368 0.43277 0.66571 0.0
C878 C 0.5098 0.41857 0.67719 0.0
O879 O 0.51047 0.40842 0.69321 0.0
C880 C 0.54306 0.37601 0.6935 0.0
C881 C 0.5948 0.42634 0.64849 0.0
C882 C 0.61492 0.42992 0.64758 0.0
C883 C 0.62541 0.42546 0.63071 0.0
C884 C 0.61574 0.4171 0.61497 0.0
C885 C 0.59581 0.41337 0.6155 0.0
C886 C 0.58538 0.41777 0.63245 0.0
O887 O 0.52485 0.42411 0.72582 0.0
O888 O 0.54911 0.44178 0.71209 0.0
O889 O 0.52976 0.37411 0.74916 0.0
O890 O 0.52793 0.40166 0.7625 0.0
C891 C 0.52365 0.38343 0.76427 0.0
O892 O 0.55303 0.38915 0.6839 0.0
O893 O 0.53612 0.37852 0.71106 0.0
O894 O 0.56582 0.4386 0.66264 0.0
O895 O 0.58558 0.42253 0.68166 0.0
H896 H 0.62225 0.4367 0.65971 0.0
H897 H 0.62396 0.4133 0.60213 0.0
H898 H 0.56994 0.41502 0.63294 0.0
O899 O 0.0948 0.572 0.742 0.0
Tb900 Tb 0.10637 0.5456 0.72926 0.0
Eu901 Eu 0.07887 0.5479 0.68386 0.0
C902 C 0.08337 0.57024 0.75714 0.0
O903 O 0.07814 0.55277 0.7625 0.0
C904 C 0.06266 0.53492 0.72439 0.0
O905 O 0.06791 0.52414 0.66423 0.0
C906 C 0.08048 0.58165 0.66746 0.0
C907 C 0.06512 0.50693 0.67191 0.0
O908 O 0.06696 0.50507 0.69074 0.0
C909 C 0.12358 0.5378 0.68891 0.0
C910 C 0.08915 0.59269 0.65136 0.0
C911 C 0.088 0.61306 0.65182 0.0
C912 C 0.09541 0.62414 0.63649 0.0
C913 C 0.10355 0.61468 0.62053 0.0
C914 C 0.10441 0.59442 0.61954 0.0
C915 C 0.09751 0.58337 0.6352 0.0
O916 O 0.08011 0.52818 0.7279 0.0
O917 O 0.05949 0.54686 0.70998 0.0
O918 O 0.12641 0.54662 0.75387 0.0
O919 O 0.11692 0.51934 0.74354 0.0
C920 C 0.12746 0.52801 0.75648 0.0
O921 O 0.10689 0.53151 0.68244 0.0
O922 O 0.12456 0.54961 0.70381 0.0
O923 O 0.06757 0.56836 0.66288 0.0
O924 O 0.09199 0.57656 0.68182 0.0
H925 H 0.08131 0.62027 0.66406 0.0
H926 H 0.1089 0.62319 0.60846 0.0
H927 H 0.0981 0.5677 0.63457 0.0
O928 O 0.76418 0.92909 0.40512 0.0
Tb929 Tb 0.77712 0.95596 0.39494 0.0
Eu930 Eu 0.82058 0.95084 0.42361 0.0
C931 C 0.74922 0.9303 0.41688 0.0
O932 O 0.74421 0.94742 0.42346 0.0
C933 C 0.78061 0.96625 0.43901 0.0
O934 O 0.84094 0.97272 0.43676 0.0
C935 C 0.83558 0.91649 0.42119 0.0
C936 C 0.83394 0.99011 0.44017 0.0
O937 O 0.81539 0.99307 0.43724 0.0
C938 C 0.81809 0.96303 0.37931 0.0
C939 C 0.85222 0.90605 0.41285 0.0
C940 C 0.8526 0.88569 0.41393 0.0
C941 C 0.86869 0.87526 0.4071 0.0
C942 C 0.88451 0.88548 0.39955 0.0
C943 C 0.88448 0.90574 0.39853 0.0
C944 C 0.86813 0.91606 0.4049 0.0
O945 O 0.77714 0.97298 0.42154 0.0
O946 O 0.79379 0.95288 0.44196 0.0
O947 O 0.75154 0.95498 0.37625 0.0
O948 O 0.76515 0.982 0.38131 0.0
C949 C 0.75086 0.97342 0.37259 0.0
O950 O 0.8242 0.96835 0.39648 0.0
O951 O 0.803 0.9516 0.37741 0.0
O952 O 0.83951 0.92871 0.43531 0.0
O953 O 0.82227 0.92284 0.40907 0.0
H954 H 0.84043 0.878 0.42018 0.0
H955 H 0.89723 0.87762 0.39474 0.0
H956 H 0.86803 0.93175 0.40427 0.0
O957 O 0.5708 0.7646 0.41226 0.0
Tb958 Tb 0.54479 0.7762 0.39889 0.0
Eu959 Eu 0.54733 0.82064 0.42634 0.0
C960 C 0.56906 0.74966 0.42394 0.0
O961 O 0.55159 0.74396 0.42884 0.0
C962 C 0.53103 0.78126 0.44139 0.0
O963 O 0.52382 0.84025 0.43774 0.0
C964 C 0.58131 0.83662 0.42714 0.0
C965 C 0.50629 0.83295 0.43938 0.0
O966 O 0.50373 0.81455 0.43534 0.0
C967 C 0.53867 0.81642 0.38081 0.0
C968 C 0.59225 0.85304 0.41897 0.0
C969 C 0.61262 0.85245 0.41939 0.0
C970 C 0.62352 0.8681 0.41237 0.0
C971 C 0.61388 0.88447 0.40533 0.0
C972 C 0.59359 0.88562 0.40531 0.0
C973 C 0.58276 0.86962 0.41179 0.0
O974 O 0.52538 0.77849 0.42346 0.0
O975 O 0.54423 0.79433 0.44534 0.0
O976 O 0.54707 0.75033 0.3806 0.0
O977 O 0.51931 0.7619 0.38661 0.0
C978 C 0.52858 0.74809 0.37786 0.0
O979 O 0.53268 0.82373 0.39733 0.0
O980 O 0.54982 0.80102 0.3803 0.0
O981 O 0.56739 0.84097 0.43942 0.0
O982 O 0.57686 0.82231 0.41528 0.0
H983 H 0.61998 0.83987 0.42521 0.0
H984 H 0.62232 0.89667 0.40017 0.0
H985 H 0.56708 0.8703 0.41182 0.0
O986 O 0.74234 0.57594 0.41293 0.0
Tb987 Tb 0.73212 0.54787 0.40273 0.0
Eu988 Eu 0.68623 0.55209 0.42903 0.0
C989 C 0.75417 0.57654 0.42789 0.0
O990 O 0.75677 0.56063 0.43795 0.0
C991 C 0.72323 0.5309 0.44276 0.0
O992 O 0.66404 0.52922 0.43609 0.0
C993 C 0.67159 0.58656 0.43126 0.0
C994 C 0.66763 0.51524 0.44851 0.0
O995 O 0.68346 0.516 0.459 0.0
C996 C 0.69184 0.54613 0.38301 0.0
C997 C 0.65517 0.59763 0.42322 0.0
C998 C 0.65479 0.61787 0.42571 0.0
C999 C 0.63914 0.62876 0.41871 0.0
C1000 C 0.62368 0.61926 0.40967 0.0
C1001 C 0.62353 0.59911 0.40744 0.0
C1002 C 0.63953 0.58826 0.4139 0.0
O1003 O 0.72475 0.52636 0.42438 0.0
O1004 O 0.71189 0.54524 0.44794 0.0
O1005 O 0.76276 0.54033 0.39962 0.0
O1006 O 0.74345 0.53283 0.37707 0.0
C1007 C 0.76135 0.53205 0.38282 0.0
O1008 O 0.68373 0.53978 0.39901 0.0
O1009 O 0.70862 0.55517 0.38307 0.0
O1010 O 0.66713 0.57251 0.44334 0.0
O1011 O 0.68572 0.58207 0.4192 0.0
H1012 H 0.66661 0.62512 0.43308 0.0
H1013 H 0.61139 0.62765 0.40464 0.0
H1014 H 0.63956 0.57265 0.41222 0.0
O1015 O 0.93921 0.74078 0.4086 0.0
Tb1016 Tb 0.96946 0.73444 0.4025 0.0
Eu1017 Eu 0.95468 0.68974 0.42434 0.0
C1018 C 0.93561 0.75339 0.42245 0.0
O1019 O 0.95002 0.75881 0.43361 0.0
C1020 C 0.97558 0.72585 0.4465 0.0
O1021 O 0.9811 0.67076 0.42832 0.0
C1022 C 0.92276 0.67181 0.43293 0.0
C1023 C 0.99849 0.67829 0.42616 0.0
O1024 O 0.99995 0.69669 0.4217 0.0
C1025 C 0.97101 0.69459 0.38103 0.0
C1026 C 0.91023 0.65678 0.42414 0.0
C1027 C 0.89003 0.65726 0.42724 0.0
C1028 C 0.87804 0.64283 0.41922 0.0
C1029 C 0.88651 0.6277 0.40869 0.0
C1030 C 0.90653 0.62679 0.4058 0.0
C1031 C 0.91836 0.6416 0.41314 0.0
O1032 O 0.98311 0.73262 0.43045 0.0
O1033 O 0.96167 0.71277 0.44685 0.0
O1034 O 0.9698 0.75526 0.3786 0.0
O1035 O 0.9897 0.75878 0.4017 0.0
C1036 C 0.98386 0.76583 0.38531 0.0
O1037 O 0.95687 0.68772 0.39173 0.0
O1038 O 0.98035 0.71045 0.38564 0.0
O1039 O 0.93994 0.66609 0.43884 0.0
O1040 O 0.92307 0.6888 0.42429 0.0
H1041 H 0.88368 0.66881 0.43577 0.0
H1042 H 0.87742 0.61622 0.40295 0.0
H1043 H 0.93388 0.64094 0.41083 0.0
O1044 O 0.76609 0.5796 0.09661 0.0
Tb1045 Tb 0.77768 0.55104 0.10314 0.0
Eu1046 Eu 0.82729 0.55365 0.07715 0.0
C1047 C 0.75482 0.58178 0.0814 0.0
O1048 O 0.75348 0.56746 0.06897 0.0
C1049 C 0.78745 0.54004 0.06129 0.0
O1050 O 0.8473 0.52892 0.06939 0.0
C1051 C 0.84409 0.58735 0.0777 0.0
C1052 C 0.83966 0.51164 0.0667 0.0
O1053 O 0.82073 0.50996 0.06712 0.0
C1054 C 0.81814 0.54871 0.12261 0.0
C1055 C 0.8588 0.59886 0.08824 0.0
C1056 C 0.85825 0.61921 0.08673 0.0
C1057 C 0.87168 0.63069 0.0968 0.0
C1058 C 0.88573 0.62175 0.10828 0.0
C1059 C 0.88693 0.60151 0.10961 0.0
C1060 C 0.87339 0.59001 0.09952 0.0
O1061 O 0.78665 0.53319 0.07896 0.0
O1062 O 0.80241 0.55061 0.05625 0.0
O1063 O 0.74744 0.5419 0.10579 0.0
O1064 O 0.76756 0.53232 0.12679 0.0
C1065 C 0.74954 0.5316 0.12134 0.0
O1066 O 0.8253 0.54061 0.10693 0.0
O1067 O 0.80151 0.55809 0.12256 0.0
O1068 O 0.85029 0.57271 0.06715 0.0
O1069 O 0.82778 0.58368 0.08691 0.0
H1070 H 0.84739 0.6261 0.07773 0.0
H1071 H 0.89638 0.63068 0.11563 0.0
H1072 H 0.87412 0.57437 0.10053 0.0
O1073 O 0.93882 0.76809 0.10508 0.0
Tb1074 Tb 0.96958 0.7753 0.10524 0.0
Eu1075 Eu 0.95508 0.82159 0.08377 0.0
C1076 C 0.93125 0.75951 0.08979 0.0
O1077 O 0.94112 0.75938 0.07358 0.0
C1078 C 0.97283 0.78402 0.06065 0.0
O1079 O 0.9824 0.83937 0.08014 0.0
C1080 C 0.92464 0.84216 0.07576 0.0
C1081 C 0.99955 0.83105 0.07979 0.0
O1082 O 1.00064 0.81218 0.08155 0.0
C1083 C 0.97304 0.81529 0.12507 0.0
C1084 C 0.91256 0.8576 0.08449 0.0
C1085 C 0.89231 0.85682 0.08211 0.0
C1086 C 0.88048 0.87157 0.08963 0.0
C1087 C 0.88908 0.88734 0.09906 0.0
C1088 C 0.90919 0.88863 0.10122 0.0
C1089 C 0.92095 0.87352 0.0943 0.0
O1090 O 0.98085 0.77659 0.07621 0.0
O1091 O 0.96008 0.79829 0.06096 0.0
O1092 O 0.97841 0.76056 0.13178 0.0
O1093 O 0.98547 0.74785 0.10472 0.0
C1094 C 0.9869 0.74602 0.12339 0.0
O1095 O 0.95721 0.82106 0.11637 0.0
O1096 O 0.98285 0.80057 0.11829 0.0
O1097 O 0.94227 0.84698 0.07043 0.0
O1098 O 0.92362 0.82485 0.08366 0.0
H1099 H 0.88577 0.84481 0.07439 0.0
H1100 H 0.88004 0.89904 0.10438 0.0
H1101 H 0.93652 0.87447 0.09599 0.0
O1102 O 0.74382 0.93721 0.09366 0.0
Tb1103 Tb 0.73253 0.96419 0.10538 0.0
Eu1104 Eu 0.68642 0.95931 0.08038 0.0
C1105 C 0.7585 0.93812 0.08154 0.0
O1106 O 0.76411 0.95522 0.07543 0.0
C1107 C 0.72568 0.97408 0.06229 0.0
O1108 O 0.66775 0.98407 0.0701 0.0
C1109 C 0.66916 0.92598 0.07846 0.0
C1110 C 0.67486 1.00172 0.07155 0.0
O1111 O 0.6927 1.00381 0.0778 0.0
C1112 C 0.69262 0.96883 0.12605 0.0
C1113 C 0.65262 0.91522 0.08659 0.0
C1114 C 0.65213 0.8949 0.08479 0.0
C1115 C 0.63627 0.88435 0.09186 0.0
C1116 C 0.62074 0.89429 0.10028 0.0
C1117 C 0.62069 0.91456 0.10167 0.0
C1118 C 0.63691 0.92501 0.09517 0.0
O1119 O 0.72938 0.98146 0.07939 0.0
O1120 O 0.71187 0.96124 0.06007 0.0
O1121 O 0.75942 0.96321 0.12212 0.0
O1122 O 0.74682 0.99048 0.11584 0.0
C1123 C 0.7613 0.98183 0.12412 0.0
O1124 O 0.6833 0.9729 0.10996 0.0
O1125 O 0.70936 0.95979 0.12615 0.0
O1126 O 0.66491 0.94068 0.0671 0.0
O1127 O 0.68392 0.92937 0.0901 0.0
H1128 H 0.66405 0.88734 0.07791 0.0
H1129 H 0.60838 0.88614 0.10551 0.0
H1130 H 0.63705 0.94067 0.09622 0.0
O1131 O 0.57267 0.74457 0.10034 0.0
Tb1132 Tb 0.54738 0.7311 0.11348 0.0
Eu1133 Eu 0.54997 0.68741 0.08332 0.0
C1134 C 0.57001 0.75988 0.0893 0.0
O1135 O 0.5522 0.76488 0.08489 0.0
C1136 C 0.53322 0.72757 0.07089 0.0
O1137 O 0.52577 0.66804 0.07275 0.0
C1138 C 0.58391 0.67153 0.08107 0.0
C1139 C 0.50812 0.67524 0.07235 0.0
O1140 O 0.50576 0.69359 0.07675 0.0
C1141 C 0.54449 0.68932 0.12924 0.0
C1142 C 0.59505 0.65504 0.08884 0.0
C1143 C 0.61537 0.65523 0.08709 0.0
C1144 C 0.62646 0.6396 0.09387 0.0
C1145 C 0.61698 0.62359 0.10194 0.0
C1146 C 0.59677 0.62302 0.10361 0.0
C1147 C 0.58577 0.63896 0.09735 0.0
O1148 O 0.52773 0.72922 0.08902 0.0
O1149 O 0.54621 0.71464 0.06588 0.0
O1150 O 0.5492 0.75715 0.13154 0.0
O1151 O 0.52218 0.74297 0.12875 0.0
C1152 C 0.53105 0.75769 0.13644 0.0
O1153 O 0.53701 0.68341 0.1128 0.0
O1154 O 0.55436 0.70557 0.13052 0.0
O1155 O 0.56959 0.66733 0.06919 0.0
O1156 O 0.57988 0.68572 0.0932 0.0
H1157 H 0.62253 0.66756 0.08053 0.0
H1158 H 0.62541 0.61125 0.10678 0.0
H1159 H 0.57013 0.63865 0.09864 0.0
O1160 O 0.40528 0.7646 0.93344 0.0
Tb1161 Tb 0.39674 0.77417 0.96227 0.0
Eu1162 Eu 0.42217 0.82099 0.95766 0.0
C1163 C 0.42192 0.75557 0.93114 0.0
O1164 O 0.43428 0.75549 0.94558 0.0
C1165 C 0.43707 0.78389 0.97776 0.0
O1166 O 0.4318 0.84058 0.98216 0.0
C1167 C 0.4264 0.8369 0.92389 0.0
C1168 C 0.42945 0.83408 0.99993 0.0
O1169 O 0.42166 0.81692 1.00227 0.0
C1170 C 0.37577 0.81446 0.96557 0.0
C1171 C 0.41903 0.85376 0.91305 0.0
C1172 C 0.42082 0.85432 0.89272 0.0
C1173 C 0.41437 0.87058 0.88233 0.0
C1174 C 0.40663 0.88636 0.89245 0.0
C1175 C 0.40534 0.88633 0.91271 0.0
C1176 C 0.41117 0.86977 0.92296 0.0
O1177 O 0.41898 0.7817 0.98302 0.0
O1178 O 0.44122 0.79516 0.9631 0.0
O1179 O 0.37207 0.76108 0.97743 0.0
O1180 O 0.39618 0.74355 0.97042 0.0
C1181 C 0.3793 0.74375 0.97863 0.0
O1182 O 0.39175 0.82429 0.96921 0.0
O1183 O 0.37569 0.79712 0.95753 0.0
O1184 O 0.43748 0.8409 0.93888 0.0
O1185 O 0.41409 0.82266 0.92714 0.0
H1186 H 0.42719 0.84219 0.88505 0.0
H1187 H 0.40186 0.89898 0.88441 0.0
H1188 H 0.41019 0.86956 0.93862 0.0
O1189 O 0.40533 0.74781 0.57649 0.0
Tb1190 Tb 0.393 0.73426 0.55072 0.0
Eu1191 Eu 0.42125 0.68859 0.55341 0.0
C1192 C 0.4184 0.76155 0.57439 0.0
O1193 O 0.42527 0.76503 0.55702 0.0
C1194 C 0.4358 0.72826 0.53718 0.0
O1195 O 0.43094 0.66908 0.52889 0.0
C1196 C 0.42245 0.67205 0.58713 0.0
C1197 C 0.43167 0.67645 0.51132 0.0
O1198 O 0.42788 0.69495 0.50914 0.0
C1199 C 0.37561 0.69299 0.54808 0.0
C1200 C 0.41458 0.65577 0.59859 0.0
C1201 C 0.4177 0.65578 0.61875 0.0
C1202 C 0.41194 0.63993 0.63001 0.0
C1203 C 0.40299 0.6241 0.62113 0.0
C1204 C 0.39974 0.62369 0.60109 0.0
C1205 C 0.40533 0.63975 0.58978 0.0
O1206 O 0.41783 0.73118 0.53162 0.0
O1207 O 0.43987 0.71516 0.55032 0.0
O1208 O 0.37804 0.74589 0.52519 0.0
O1209 O 0.37649 0.76134 0.55158 0.0
C1210 C 0.37134 0.76139 0.5335 0.0
O1211 O 0.39172 0.68679 0.54016 0.0
O1212 O 0.3748 0.70945 0.55769 0.0
O1213 O 0.43429 0.66762 0.57285 0.0
O1214 O 0.41069 0.68652 0.58311 0.0
H1215 H 0.42513 0.66783 0.62557 0.0
H1216 H 0.39874 0.61182 0.62994 0.0
H1217 H 0.40315 0.6395 0.57425 0.0
O1218 O 0.76854 0.40578 0.5748 0.0
Tb1219 Tb 0.78306 0.39303 0.54975 0.0
Eu1220 Eu 0.82445 0.42489 0.55262 0.0
C1221 C 0.75355 0.41719 0.57177 0.0
O1222 O 0.74886 0.42158 0.55389 0.0
C1223 C 0.78432 0.43582 0.53497 0.0
O1224 O 0.84443 0.43766 0.52999 0.0
C1225 C 0.83763 0.42598 0.5878 0.0
C1226 C 0.83721 0.44127 0.51271 0.0
O1227 O 0.81858 0.43873 0.51 0.0
C1228 C 0.82573 0.37936 0.54707 0.0
C1229 C 0.85271 0.41681 0.59979 0.0
C1230 C 0.85247 0.41958 0.61999 0.0
C1231 C 0.86627 0.41042 0.63174 0.0
C1232 C 0.88032 0.3986 0.62322 0.0
C1233 C 0.88106 0.39602 0.60308 0.0
C1234 C 0.8672 0.40518 0.59134 0.0
O1235 O 0.78328 0.4175 0.52982 0.0
O1236 O 0.79685 0.44146 0.54809 0.0
O1237 O 0.75782 0.37384 0.55135 0.0
O1238 O 0.77224 0.37702 0.52453 0.0
C1239 C 0.75773 0.3688 0.53322 0.0
O1240 O 0.82991 0.39596 0.53887 0.0
O1241 O 0.80954 0.37713 0.55691 0.0
O1242 O 0.84361 0.43777 0.57407 0.0
O1243 O 0.82321 0.41471 0.58238 0.0
H1244 H 0.84157 0.42879 0.62654 0.0
H1245 H 0.89122 0.3919 0.63233 0.0
H1246 H 0.86755 0.40314 0.57578 0.0
O1247 O 0.10227 0.76359 0.57369 0.0
Tb1248 Tb 0.11338 0.77593 0.54692 0.0
Eu1249 Eu 0.08681 0.82261 0.55 0.0
C1250 C 0.09038 0.74873 0.5724 0.0
O1251 O 0.08413 0.74361 0.55519 0.0
C1252 C 0.06979 0.78205 0.53707 0.0
O1253 O 0.0765 0.84193 0.52563 0.0
C1254 C 0.08694 0.84015 0.58334 0.0
C1255 C 0.07213 0.83395 0.50884 0.0
O1256 O 0.07237 0.81499 0.50747 0.0
C1257 C 0.13187 0.8161 0.54015 0.0
C1258 C 0.094 0.85754 0.59363 0.0
C1259 C 0.09152 0.85878 0.61388 0.0
C1260 C 0.09596 0.876 0.62377 0.0
C1261 C 0.10315 0.89181 0.61337 0.0
C1262 C 0.10584 0.89088 0.59326 0.0
C1263 C 0.10142 0.87357 0.58341 0.0
O1264 O 0.08695 0.77797 0.52996 0.0
O1265 O 0.06736 0.79642 0.5493 0.0
O1266 O 0.13141 0.74988 0.54805 0.0
O1267 O 0.12472 0.76198 0.52071 0.0
C1268 C 0.13358 0.7479 0.52947 0.0
O1269 O 0.11542 0.82379 0.53448 0.0
O1270 O 0.13231 0.80075 0.55138 0.0
O1271 O 0.07374 0.84308 0.56991 0.0
O1272 O 0.09969 0.82673 0.57863 0.0
H1273 H 0.08545 0.84666 0.62178 0.0
H1274 H 0.10671 0.90502 0.62111 0.0
H1275 H 0.1031 0.87278 0.56782 0.0
O1276 O 0.74911 0.0996 0.57172 0.0
Tb1277 Tb 0.74469 0.10646 0.54121 0.0
Eu1278 Eu 0.69657 0.08631 0.55235 0.0
C1279 C 0.75829 0.08354 0.57643 0.0
O1280 O 0.7619 0.07075 0.56284 0.0
C1281 C 0.73283 0.06348 0.5327 0.0
O1282 O 0.67882 0.08333 0.52496 0.0
C1283 C 0.67526 0.07744 0.58217 0.0
C1284 C 0.68692 0.08509 0.50781 0.0
O1285 O 0.70544 0.08925 0.50677 0.0
C1286 C 0.70557 0.12951 0.53731 0.0
C1287 C 0.65811 0.08491 0.59279 0.0
C1288 C 0.65641 0.08167 0.61293 0.0
C1289 C 0.63928 0.08673 0.62275 0.0
C1290 C 0.62411 0.09527 0.61241 0.0
C1291 C 0.62543 0.0986 0.59246 0.0
C1292 C 0.64262 0.0937 0.58272 0.0
O1293 O 0.74128 0.07925 0.52625 0.0
O1294 O 0.71967 0.06355 0.54657 0.0
O1295 O 0.76531 0.13055 0.54195 0.0
O1296 O 0.77084 0.10697 0.52313 0.0
C1297 C 0.77719 0.12368 0.52906 0.0
O1298 O 0.69705 0.11901 0.55071 0.0
O1299 O 0.72186 0.12422 0.52911 0.0
O1300 O 0.67206 0.07096 0.56456 0.0
O1301 O 0.6916 0.08716 0.5837 0.0
H1302 H 0.66804 0.07461 0.62074 0.0
H1303 H 0.61101 0.09935 0.62007 0.0
H1304 H 0.64366 0.09607 0.56724 0.0
O1305 O 0.10252 0.74105 0.93696 0.0
Tb1306 Tb 0.10829 0.73287 0.96687 0.0
Eu1307 Eu 0.08521 0.68662 0.95408 0.0
C1308 C 0.08738 0.75216 0.93362 0.0
O1309 O 0.07513 0.75523 0.9478 0.0
C1310 C 0.06498 0.72374 0.97357 0.0
O1311 O 0.08149 0.66961 0.98181 0.0
C1312 C 0.07492 0.66605 0.92433 0.0
C1313 C 0.08635 0.67718 0.99862 0.0
O1314 O 0.09348 0.69478 0.99909 0.0
C1315 C 0.12963 0.69243 0.96762 0.0
C1316 C 0.08271 0.64988 0.9126 0.0
C1317 C 0.08033 0.65021 0.89234 0.0
C1318 C 0.08745 0.63499 0.88088 0.0
C1319 C 0.09638 0.61916 0.88985 0.0
C1320 C 0.09856 0.61836 0.90998 0.0
C1321 C 0.09209 0.63396 0.92135 0.0
O1322 O 0.08136 0.72824 0.98203 0.0
O1323 O 0.06419 0.71139 0.95905 0.0
O1324 O 0.13343 0.75164 0.97147 0.0
O1325 O 0.10704 0.75838 0.98561 0.0
C1326 C 0.12494 0.76361 0.98324 0.0
O1327 O 0.11786 0.68479 0.95474 0.0
O1328 O 0.12614 0.70895 0.97635 0.0
O1329 O 0.06969 0.66198 0.94217 0.0
O1330 O 0.08381 0.68284 0.92273 0.0
H1331 H 0.07308 0.66233 0.8855 0.0
H1332 H 0.10152 0.6072 0.88105 0.0
H1333 H 0.09393 0.63346 0.93693 0.0
O1334 O 0.76394 0.10561 0.93795 0.0
Tb1335 Tb 0.77222 0.1086 0.9683 0.0
Eu1336 Eu 0.81917 0.08894 0.95261 0.0
C1337 C 0.75117 0.09202 0.93383 0.0
O1338 O 0.74671 0.07961 0.94749 0.0
C1339 C 0.78254 0.06417 0.97024 0.0
O1340 O 0.83727 0.08573 0.9798 0.0
C1341 C 0.83983 0.08185 0.92193 0.0
C1342 C 0.82921 0.08536 0.99708 0.0
O1343 O 0.81032 0.08691 0.99844 0.0
C1344 C 0.8117 0.1302 0.97078 0.0
C1345 C 0.85507 0.09089 0.90977 0.0
C1346 C 0.85388 0.08916 0.88945 0.0
C1347 C 0.86863 0.09664 0.87762 0.0
C1348 C 0.88471 0.10551 0.88615 0.0
C1349 C 0.88646 0.10696 0.9063 0.0
C1350 C 0.87139 0.10003 0.91813 0.0
O1351 O 0.77445 0.07926 0.97856 0.0
O1352 O 0.79673 0.06526 0.95744 0.0
O1353 O 0.7522 0.13284 0.97212 0.0
O1354 O 0.7485 0.10772 0.98934 0.0
C1355 C 0.74182 0.12491 0.98565 0.0
O1356 O 0.81746 0.12151 0.9549 0.0
O1357 O 0.79681 0.12371 0.98053 0.0
O1358 O 0.84484 0.07643 0.93948 0.0
O1359 O 0.82235 0.08939 0.92111 0.0
H1360 H 0.84168 0.08179 0.88287 0.0
H1361 H 0.89628 0.11085 0.87696 0.0
H1362 H 0.87276 0.10106 0.93373 0.0
O1363 O 0.74081 0.40879 0.93684 0.0
Tb1364 Tb 0.73389 0.4031 0.96706 0.0
Eu1365 Eu 0.68708 0.4244 0.95371 0.0
C1366 C 0.75022 0.42485 0.9327 0.0
O1367 O 0.75162 0.43824 0.94614 0.0
C1368 C 0.72142 0.44522 0.97655 0.0
O1369 O 0.66897 0.42774 0.98086 0.0
C1370 C 0.66679 0.43347 0.92335 0.0
C1371 C 0.67617 0.42323 0.99792 0.0
O1372 O 0.69378 0.41624 0.99887 0.0
C1373 C 0.69401 0.38081 0.96849 0.0
C1374 C 0.65043 0.42498 0.91223 0.0
C1375 C 0.65105 0.42474 0.89179 0.0
C1376 C 0.63554 0.41699 0.88103 0.0
C1377 C 0.61921 0.41007 0.89091 0.0
C1378 C 0.61808 0.41048 0.91116 0.0
C1379 C 0.63393 0.41758 0.9218 0.0
O1380 O 0.72771 0.42879 0.98365 0.0
O1381 O 0.71113 0.44596 0.96048 0.0
O1382 O 0.75101 0.37727 0.9733 0.0
O1383 O 0.76154 0.40461 0.98261 0.0
C1384 C 0.76495 0.38609 0.98237 0.0
O1385 O 0.68649 0.39167 0.95482 0.0
O1386 O 0.71024 0.38531 0.97728 0.0
O1387 O 0.66285 0.43975 0.9409 0.0
O1388 O 0.6836 0.42453 0.92222 0.0
H1389 H 0.66361 0.43045 0.88432 0.0
H1390 H 0.60706 0.40444 0.88268 0.0
H1391 H 0.63317 0.41777 0.93747 0.0
H1392 H 0.99962 0.5576 0.21271 0.0
H1393 H 0.0495 0.534 0.24181 0.0
H1394 H 0.97972 0.53151 0.22499 0.0
H1395 H 0.02944 0.50724 0.25428 0.0
H1396 H 0.9763 0.48895 0.29561 0.0
H1397 H 1.00295 0.50526 0.27865 0.0
H1398 H 0.97266 0.49776 0.22439 0.0
H1399 H 0.94584 0.48273 0.24143 0.0
C1400 C 0.00641 0.54636 0.22128 0.0
C1401 C 0.02602 0.54761 0.22621 0.0
C1402 C 0.99504 0.53132 0.2283 0.0
C1403 C 1.00298 0.51718 0.24061 0.0
C1404 C 0.02291 0.51794 0.24487 0.0
C1405 C 0.03442 0.53305 0.2376 0.0
C1406 C 0.97569 0.4904 0.28 0.0
C1407 C 0.95899 0.48488 0.26982 0.0
C1408 C 0.99094 0.49964 0.27026 0.0
C1409 C 0.98973 0.50317 0.2502 0.0
C1410 C 0.97384 0.49573 0.2399 0.0
C1411 C 0.95851 0.48701 0.24964 0.0
H1412 H 0.93947 0.02249 0.2599 0.0
H1413 H 0.9775 0.03064 0.21098 0.0
H1414 H 0.9644 1.00435 0.27653 0.0
H1415 H 1.00256 0.01134 0.22755 0.0
H1416 H 0.04483 0.97964 0.27252 0.0
H1417 H 0.02507 0.0062 0.25893 0.0
H1418 H 0.97378 0.97112 0.266 0.0
H1419 H 0.9931 0.94519 0.27936 0.0
C1420 C 0.95335 0.02069 0.25281 0.0
C1421 C 0.95646 0.02782 0.23404 0.0
C1422 C 0.96763 0.01023 0.26235 0.0
C1423 C 0.98528 0.00608 0.2532 0.0
C1424 C 0.98908 0.01437 0.23496 0.0
C1425 C 0.97475 0.02532 0.22546 0.0
C1426 C 0.02929 0.97788 0.27138 0.0
C1427 C 0.02047 0.96041 0.27702 0.0
C1428 C 0.01805 0.99293 0.26346 0.0
C1429 C 0.99787 0.99077 0.26154 0.0
C1430 C 0.98923 0.97338 0.26754 0.0
C1431 C 1.00034 0.95844 0.27512 0.0
H1432 H 0.53348 0.03613 0.28627 0.0
H1433 H 0.57708 1.00114 0.25806 0.0
H1434 H 0.50822 0.01437 0.27368 0.0
H1435 H 0.55208 0.97964 0.2459 0.0
H1436 H 0.50752 0.93198 0.25329 0.0
H1437 H 0.52918 0.95673 0.26573 0.0
H1438 H 0.49463 1.00111 0.23865 0.0
H1439 H 0.47272 0.97614 0.22579 0.0
C1440 C 0.53767 0.02396 0.27731 0.0
C1441 C 0.55733 0.02023 0.27343 0.0
C1442 C 0.52323 0.01158 0.27008 0.0
C1443 C 0.52829 0.99523 0.25906 0.0
C1444 C 0.54783 0.99199 0.25461 0.0
C1445 C 0.56214 1.00436 0.2616 0.0
C1446 C 0.50435 0.94698 0.25 0.0
C1447 C 0.48849 0.95203 0.23828 0.0
C1448 C 0.51681 0.96115 0.25714 0.0
C1449 C 0.51367 0.98076 0.25296 0.0
C1450 C 0.49733 0.98604 0.24206 0.0
C1451 C 0.48487 0.97176 0.23467 0.0
H1452 H 0.53544 0.48206 0.21422 0.0
H1453 H 0.57428 0.48803 0.26276 0.0
H1454 H 0.5104 0.49982 0.23227 0.0
H1455 H 0.54928 0.50453 0.28108 0.0
H1456 H 0.51751 0.56158 0.29073 0.0
H1457 H 0.53815 0.53661 0.27751 0.0
H1458 H 0.48774 0.50384 0.25998 0.0
H1459 H 0.46679 0.52958 0.27322 0.0
C1460 C 0.5384 0.48666 0.22892 0.0
C1461 C 0.55689 0.48401 0.23698 0.0
C1462 C 0.52406 0.49674 0.23932 0.0
C1463 C 0.52795 0.50399 0.25802 0.0
C1464 C 0.54593 0.4997 0.26653 0.0
C1465 C 0.56028 0.49015 0.25605 0.0
C1466 C 0.51079 0.54885 0.28443 0.0
C1467 C 0.49059 0.54746 0.28306 0.0
C1468 C 0.52264 0.53442 0.27691 0.0
C1469 C 0.51468 0.51808 0.26769 0.0
C1470 C 0.49435 0.51627 0.26691 0.0
C1471 C 0.48236 0.53083 0.27468 0.0
H1472 H 0.22239 0.04016 0.53104 0.0
H1473 H 0.25445 0.0102 0.57567 0.0
H1474 H 0.23541 0.01751 0.50681 0.0
H1475 H 0.26702 0.9878 0.55171 0.0
H1476 H 0.26067 0.93656 0.51092 0.0
H1477 H 0.24812 0.96205 0.53164 0.0
H1478 H 0.27006 0.00532 0.49235 0.0
H1479 H 0.28297 0.97962 0.47137 0.0
C1480 C 0.23232 0.02894 0.53566 0.0
C1481 C 0.23712 0.02683 0.55535 0.0
C1482 C 0.23977 0.01604 0.5218 0.0
C1483 C 0.25196 1.00077 0.5275 0.0
C1484 C 0.25739 0.99925 0.547 0.0
C1485 C 0.25015 0.01214 0.56071 0.0
C1486 C 0.2628 0.95146 0.50653 0.0
C1487 C 0.27304 0.95602 0.48955 0.0
C1488 C 0.25561 0.96606 0.51846 0.0
C1489 C 0.25829 0.98562 0.51367 0.0
C1490 C 0.26781 0.99032 0.49633 0.0
C1491 C 0.27525 0.97562 0.48441 0.0
H1492 H 0.5118 0.25077 0.57092 0.0
H1493 H 0.48006 0.22196 0.52522 0.0
H1494 H 0.53424 0.26375 0.54728 0.0
H1495 H 0.50281 0.23529 0.50133 0.0
H1496 H 0.54067 0.28324 0.46733 0.0
H1497 H 0.5153 0.26955 0.48815 0.0
H1498 H 0.55918 0.24624 0.52601 0.0
H1499 H 0.58433 0.25964 0.50546 0.0
C1500 C 0.50952 0.24724 0.5558 0.0
C1501 C 0.49427 0.23506 0.55 0.0
C1502 C 0.52244 0.25468 0.54227 0.0
C1503 C 0.52039 0.2503 0.52255 0.0
C1504 C 0.50468 0.23885 0.5165 0.0
C1505 C 0.49174 0.23119 0.53015 0.0
C1506 C 0.54486 0.27506 0.48002 0.0
C1507 C 0.56451 0.27277 0.48488 0.0
C1508 C 0.53036 0.26718 0.49185 0.0
C1509 C 0.53533 0.25707 0.50876 0.0
C1510 C 0.55495 0.25424 0.51319 0.0
C1511 C 0.56936 0.26191 0.50138 0.0
H1512 H 0.2103 0.54891 0.50598 0.0
H1513 H 0.24819 0.53592 0.45814 0.0
H1514 H 0.22366 0.52194 0.52412 0.0
H1515 H 0.26182 0.50852 0.47636 0.0
H1516 H 0.29876 0.48725 0.53125 0.0
H1517 H 0.28291 0.50572 0.50538 0.0
H1518 H 0.22704 0.48751 0.52678 0.0
H1519 H 0.24278 0.46997 0.55286 0.0
C1520 C 0.22106 0.53977 0.49912 0.0
C1521 C 0.22803 0.54422 0.48063 0.0
C1522 C 0.22876 0.52428 0.50949 0.0
C1523 C 0.24384 0.51297 0.5017 0.0
C1524 C 0.25029 0.51698 0.48278 0.0
C1525 C 0.24236 0.53247 0.47228 0.0
C1526 C 0.28314 0.48678 0.53 0.0
C1527 C 0.27199 0.47737 0.54414 0.0
C1528 C 0.27403 0.49733 0.51519 0.0
C1529 C 0.25366 0.49841 0.51424 0.0
C1530 C 0.24271 0.48739 0.52735 0.0
C1531 C 0.25175 0.4772 0.54223 0.0
H1532 H 0.94353 0.2561 0.4709 0.0
H1533 H 0.9647 0.20352 0.49721 0.0
H1534 H 0.96685 0.27495 0.49004 0.0
H1535 H 0.98826 0.22214 0.51562 0.0
H1536 H 0.03906 0.25739 0.53488 0.0
H1537 H 0.01816 0.24296 0.50999 0.0
H1538 H 0.97194 0.28171 0.52647 0.0
H1539 H 0.99279 0.29586 0.5514 0.0
C1540 C 0.95296 0.2486 0.4809 0.0
C1541 C 0.95196 0.22837 0.48281 0.0
C1542 C 0.96646 0.25935 0.49166 0.0
C1543 C 0.97953 0.24999 0.50417 0.0
C1544 C 0.97864 0.22975 0.50585 0.0
C1545 C 0.96499 0.2191 0.49539 0.0
C1546 C 0.02469 0.26325 0.53263 0.0
C1547 C 0.01755 0.27785 0.54478 0.0
C1548 C 0.01266 0.25489 0.51857 0.0
C1549 C 0.99335 0.26112 0.5164 0.0
C1550 C 0.98675 0.27671 0.52768 0.0
C1551 C 0.99869 0.28484 0.54189 0.0
H1552 H 0.24571 0.5565 0.03002 0.0
H1553 H 0.29997 0.52706 0.02056 0.0
H1554 H 0.22889 0.53205 0.01111 0.0
H1555 H 0.283 0.50249 1.00096 0.0
H1556 H 0.23918 0.45871 0.97061 0.0
H1557 H 0.25397 0.47596 0.99827 0.0
H1558 H 0.23427 0.53029 0.97448 0.0
H1559 H 0.22003 0.5133 0.94712 0.0
C1560 C 0.25395 0.5444 0.0244 0.0
C1561 C 0.27414 0.54369 0.02667 0.0
C1562 C 0.24432 0.53044 0.01349 0.0
C1563 C 0.25467 0.51557 1.00431 0.0
C1564 C 0.27466 0.51378 0.00797 0.0
C1565 C 0.28437 0.52779 0.01916 0.0
C1566 C 0.23778 0.4743 0.97162 0.0
C1567 C 0.22841 0.48474 0.95688 0.0
C1568 C 0.24635 0.48414 0.98728 0.0
C1569 C 0.24516 0.50444 0.98856 0.0
C1570 C 0.23522 0.51464 0.97404 0.0
C1571 C 0.22711 0.50493 0.95834 0.0
H1572 H 0.97933 0.27563 0.04526 0.0
H1573 H 0.94465 0.28257 0.99374 0.0
H1574 H 0.00582 0.26212 0.02534 0.0
H1575 H 0.97038 0.26914 0.97427 0.0
H1576 H 0.02039 0.2603 0.93907 0.0
H1577 H 1.00271 0.27802 0.96355 0.0
H1578 H 0.01155 0.23128 1.00405 0.0
H1579 H 0.03057 0.21373 0.97942 0.0
C1580 C 0.97752 0.27458 0.02972 0.0
C1581 C 0.95999 0.28017 0.02101 0.0
C1582 C 0.99254 0.26669 0.01838 0.0
C1583 C 0.99025 0.26468 0.99821 0.0
C1584 C 0.97283 0.27077 0.98968 0.0
C1585 C 0.95797 0.27838 1.00088 0.0
C1586 C 0.0191 0.25396 0.95334 0.0
C1587 C 0.02672 0.23553 0.95727 0.0
C1588 C 0.00886 0.26411 0.96737 0.0
C1589 C 0.00533 0.25587 0.98559 0.0
C1590 C 0.01408 0.23801 0.99012 0.0
C1591 C 0.02486 0.22793 0.97604 0.0
H1592 H 0.25655 0.00607 0.9394 0.0
H1593 H 0.29009 0.03599 0.98305 0.0
H1594 H 0.24336 0.98478 0.96399 0.0
H1595 H 0.27642 0.01446 0.00792 0.0
H1596 H 0.22575 0.9778 0.0429 0.0
H1597 H 0.23957 1.00318 0.02209 0.0
H1598 H 0.2639 0.95929 0.98489 0.0
H1599 H 0.25059 0.93414 0.00545 0.0
C1600 C 0.26102 0.00825 0.95427 0.0
C1601 C 0.27467 0.02256 0.95918 0.0
C1602 C 0.25341 0.99604 0.96835 0.0
C1603 C 0.25906 0.99788 0.98775 0.0
C1604 C 0.27187 0.0128 0.99301 0.0
C1605 C 0.2797 0.02504 0.97878 0.0
C1606 C 0.23424 0.97361 0.03041 0.0
C1607 C 0.23679 0.95392 0.02569 0.0
C1608 C 0.24218 0.98812 0.01859 0.0
C1609 C 0.25257 0.98311 1.00183 0.0
C1610 C 0.25574 0.9635 0.99762 0.0
C1611 C 0.24807 0.94911 0.00944 0.0
H1612 H 0.49865 0.25651 0.93545 0.0
H1613 H 0.46963 0.29 0.97972 0.0
H1614 H 0.5188 0.24148 0.95996 0.0
H1615 H 0.49008 0.27455 0.00447 0.0
H1616 H 0.527 0.22068 0.03707 0.0
H1617 H 0.5011 0.23489 0.01695 0.0
H1618 H 0.54419 0.26344 0.98197 0.0
H1619 H 0.56968 0.24976 1.0017 0.0
C1620 C 0.49639 0.26055 0.95044 0.0
C1621 C 0.48275 0.27477 0.95556 0.0
C1622 C 0.50789 0.25182 0.96447 0.0
C1623 C 0.50601 0.25696 0.98401 0.0
C1624 C 0.49167 0.27031 0.98946 0.0
C1625 C 0.4801 0.2792 0.97529 0.0
C1626 C 0.53085 0.23018 0.02522 0.0
C1627 C 0.55041 0.23382 0.02081 0.0
C1628 C 0.51607 0.23832 0.0138 0.0
C1629 C 0.52078 0.25006 0.99787 0.0
C1630 C 0.54024 0.25427 0.99406 0.0
C1631 C 0.55483 0.24633 0.00538 0.0
H1632 H 0.98382 0.47573 0.80413 0.0
H1633 H 0.97647 0.45263 0.74654 0.0
H1634 H 1.00322 0.50246 0.79085 0.0
H1635 H 0.99534 0.47934 0.73328 0.0
H1636 H 0.06354 0.51578 0.75879 0.0
H1637 H 0.03717 0.49856 0.7746 0.0
H1638 H 0.998 0.51668 0.72944 0.0
H1639 H 0.02439 0.53437 0.71368 0.0
C1640 C 0.98577 0.4768 0.78861 0.0
C1641 C 0.97876 0.46221 0.77631 0.0
C1642 C 0.99692 0.49196 0.78104 0.0
C1643 C 1.00077 0.49292 0.76105 0.0
C1644 C 0.99244 0.47909 0.74869 0.0
C1645 C 0.98172 0.46377 0.75627 0.0
C1646 C 0.04923 0.51646 0.75241 0.0
C1647 C 0.04608 0.52634 0.73491 0.0
C1648 C 0.03409 0.50672 0.76158 0.0
C1649 C 0.01555 0.50635 0.75327 0.0
C1650 C 0.01218 0.5168 0.73615 0.0
C1651 C 0.02727 0.52689 0.72715 0.0
H1652 H 0.98802 0.02509 0.71311 0.0
H1653 H 0.97293 0.04934 0.76873 0.0
H1654 H 0.00732 1.0001 0.72936 0.0
H1655 H 0.99192 0.02442 0.78485 0.0
H1656 H 0.05752 0.00904 0.79448 0.0
H1657 H 0.02869 0.02508 0.7822 0.0
H1658 H 0.01029 0.97174 0.7551 0.0
H1659 H 0.03934 0.95544 0.76797 0.0
C1660 C 0.98819 0.0246 0.72878 0.0
C1661 C 0.97934 0.03932 0.73967 0.0
C1662 C 0.9992 0.0103 0.73809 0.0
C1663 C 1.00135 0.01057 0.75834 0.0
C1664 C 0.99072 0.02406 0.76922 0.0
C1665 C 0.97988 0.03832 0.75998 0.0
C1666 C 0.04706 1.00062 0.78632 0.0
C1667 C 0.05048 0.98107 0.78221 0.0
C1668 C 0.03052 0.00975 0.77935 0.0
C1669 C 0.0172 0.99962 0.76776 0.0
C1670 C 0.02032 0.97983 0.76406 0.0
C1671 C 0.03678 0.97051 0.77149 0.0
H1672 H 0.43328 0.01108 0.75405 0.0
H1673 H 0.47709 0.97682 0.72528 0.0
H1674 H 0.4581 0.03288 0.76608 0.0
H1675 H 0.50215 0.99888 0.7377 0.0
H1676 H 0.53873 0.03775 0.78359 0.0
H1677 H 0.51659 0.01242 0.7718 0.0
H1678 H 0.48003 0.05627 0.74654 0.0
H1679 H 0.50186 0.08132 0.75791 0.0
C1680 C 0.44822 0.00806 0.75039 0.0
C1681 C 0.45312 0.99229 0.73845 0.0
C1682 C 0.46245 0.02061 0.7573 0.0
C1683 C 0.482 0.01768 0.75264 0.0
C1684 C 0.48715 1.00143 0.7415 0.0
C1685 C 0.47281 0.98888 0.73436 0.0
C1686 C 0.52605 0.04193 0.77538 0.0
C1687 C 0.522 0.06161 0.77189 0.0
C1688 C 0.51344 0.02744 0.7686 0.0
C1689 C 0.49651 0.03244 0.75847 0.0
C1690 C 0.49284 0.05202 0.75454 0.0
C1691 C 0.50544 0.06638 0.76106 0.0
H1692 H 0.44691 0.52764 0.74311 0.0
H1693 H 0.48004 0.52629 0.79608 0.0
H1694 H 0.47166 0.5087 0.72687 0.0
H1695 H 0.50494 0.50661 0.77971 0.0
H1696 H 0.54813 0.47519 0.7354 0.0
H1697 H 0.52983 0.50278 0.74899 0.0
H1698 H 0.47631 0.47304 0.73627 0.0
H1699 H 0.49429 0.44585 0.72312 0.0
C1700 C 0.4598 0.52374 0.75115 0.0
C1701 C 0.4615 0.52826 0.7709 0.0
C1702 C 0.47395 0.51285 0.74184 0.0
C1703 C 0.49002 0.50593 0.75212 0.0
C1704 C 0.49268 0.51185 0.77145 0.0
C1705 C 0.47848 0.52306 0.78081 0.0
C1706 C 0.53245 0.47482 0.73531 0.0
C1707 C 0.52257 0.45848 0.7282 0.0
C1708 C 0.52205 0.49046 0.7432 0.0
C1709 C 0.50169 0.49006 0.74356 0.0
C1710 C 0.49198 0.47386 0.73598 0.0
C1711 C 0.50227 0.45826 0.72851 0.0
H1712 H 0.74705 0.98695 0.43948 0.0
H1713 H 0.79392 0.96805 0.47631 0.0
H1714 H 0.7342 0.00661 0.46592 0.0
H1715 H 0.78114 0.98801 0.50269 0.0
H1716 H 0.76939 0.05305 0.52344 0.0
H1717 H 0.77954 0.02554 0.50375 0.0
H1718 H 0.72041 0.00537 0.50129 0.0
H1719 H 0.71028 0.0329 0.52152 0.0
C1720 C 0.75443 0.98675 0.45332 0.0
C1721 C 0.77156 0.97606 0.45578 0.0
C1722 C 0.74697 0.99789 0.46849 0.0
C1723 C 0.75668 0.99882 0.48633 0.0
C1724 C 0.77339 0.98753 0.48906 0.0
C1725 C 0.78066 0.9761 0.47398 0.0
C1726 C 0.75865 0.04246 0.51912 0.0
C1727 C 0.73907 0.04503 0.52396 0.0
C1728 C 0.76446 0.02667 0.50793 0.0
C1729 C 0.75075 0.01335 0.50099 0.0
C1730 C 0.73125 0.01546 0.50649 0.0
C1731 C 0.72548 0.03109 0.51812 0.0
H1732 H 0.47535 0.72372 0.54106 0.0
H1733 H 0.43181 0.75317 0.50704 0.0
H1734 H 0.50057 0.73645 0.5194 0.0
H1735 H 0.45679 0.76542 0.48563 0.0
H1736 H 0.50081 0.7564 0.43747 0.0
H1737 H 0.47956 0.74405 0.46256 0.0
H1738 H 0.51383 0.77273 0.50624 0.0
H1739 H 0.53531 0.78556 0.48091 0.0
C1740 C 0.47116 0.733 0.52915 0.0
C1741 C 0.45152 0.73717 0.52563 0.0
C1742 C 0.48559 0.7403 0.51685 0.0
C1743 C 0.4805 0.75168 0.5008 0.0
C1744 C 0.46102 0.75647 0.49779 0.0
C1745 C 0.44672 0.74941 0.5101 0.0
C1746 C 0.50401 0.76006 0.45239 0.0
C1747 C 0.51962 0.77225 0.45714 0.0
C1748 C 0.4918 0.75295 0.46674 0.0
C1749 C 0.49499 0.75763 0.48623 0.0
C1750 C 0.51113 0.76895 0.49125 0.0
C1751 C 0.52333 0.77632 0.47677 0.0
H1752 H 0.78541 0.47553 0.53834 0.0
H1753 H 0.75916 0.42923 0.5053 0.0
H1754 H 0.76991 0.4993 0.51711 0.0
H1755 H 0.74376 0.45289 0.48433 0.0
H1756 H 0.74345 0.49778 0.43619 0.0
H1757 H 0.7571 0.47563 0.45975 0.0
H1758 H 0.73682 0.51218 0.50625 0.0
H1759 H 0.72299 0.53465 0.48248 0.0
C1760 C 0.77622 0.47042 0.5267 0.0
C1761 C 0.77375 0.45046 0.52337 0.0
C1762 C 0.76729 0.48404 0.51461 0.0
C1763 C 0.75583 0.47794 0.49893 0.0
C1764 C 0.7528 0.45802 0.4961 0.0
C1765 C 0.7616 0.44446 0.50817 0.0
C1766 C 0.74183 0.50119 0.45141 0.0
C1767 C 0.73197 0.51795 0.45744 0.0
C1768 C 0.7496 0.4884 0.46493 0.0
C1769 C 0.74785 0.49205 0.48484 0.0
C1770 C 0.7384 0.50903 0.49097 0.0
C1771 C 0.73044 0.52183 0.47738 0.0
H1772 H 0.06898 0.74733 0.51842 0.0
H1773 H 0.03207 0.79449 0.53656 0.0
H1774 H 0.04184 0.73256 0.50137 0.0
H1775 H 0.00495 0.7798 0.51901 0.0
H1776 H 0.98358 0.76324 0.4546 0.0
H1777 H 1.00289 0.77572 0.48135 0.0
H1778 H 0.00662 0.7182 0.50546 0.0
H1779 H 0.98662 0.70572 0.47872 0.0
C1780 C 0.05499 0.75438 0.51906 0.0
C1781 C 0.0527 0.77214 0.52875 0.0
C1782 C 0.03941 0.74581 0.50942 0.0
C1783 C 0.02131 0.75501 0.50894 0.0
C1784 C 0.01877 0.7724 0.51924 0.0
C1785 C 0.03429 0.78079 0.52925 0.0
C1786 C 0.98795 0.75338 0.46596 0.0
C1787 C 0.9836 0.73355 0.46469 0.0
C1788 C 0.99895 0.76053 0.4813 0.0
C1789 C 0.00624 0.74792 0.49543 0.0
C1790 C 1.0011 0.7282 0.49473 0.0
C1791 C 0.98962 0.7211 0.47955 0.0
H1792 H 0.79424 0.53446 0.02235 0.0
H1793 H 0.75139 0.52609 0.06706 0.0
H1794 H 0.77468 0.51488 1.00007 0.0
H1795 H 0.73158 0.50742 0.04477 0.0
H1796 H 0.72431 0.44852 0.01513 0.0
H1797 H 0.73758 0.47508 0.03369 0.0
H1798 H 0.74411 0.5087 0.98135 0.0
H1799 H 0.73081 0.48144 0.96246 0.0
C1800 C 0.78041 0.52892 0.02723 0.0
C1801 C 0.77449 0.53148 0.04653 0.0
C1802 C 0.76915 0.5178 0.01445 0.0
C1803 C 0.75173 0.50929 0.02076 0.0
C1804 C 0.74514 0.51336 0.03958 0.0
C1805 C 0.75647 0.52411 0.05235 0.0
C1806 C 0.7283 0.46167 0.00756 0.0
C1807 C 0.72663 0.46291 0.98736 0.0
C1808 C 0.73578 0.47701 0.01824 0.0
C1809 C 0.74187 0.4941 0.00905 0.0
C1810 C 0.7396 0.49568 0.98883 0.0
C1811 C 0.73185 0.48022 0.97805 0.0
H1812 H 0.9773 0.74609 0.05247 0.0
H1813 H 0.98318 0.80302 0.02751 0.0
H1814 H 0.99528 0.73218 0.02553 0.0
H1815 H 1.0015 0.78907 1.0004 0.0
H1816 H 0.02745 0.71047 0.97367 0.0
H1817 H 0.99951 0.72595 0.9894 0.0
H1818 H 0.03525 0.77511 1.00424 0.0
H1819 H 0.06288 0.75971 0.98893 0.0
C1820 C 0.98194 0.75553 0.04083 0.0
C1821 C 0.97905 0.77562 0.04207 0.0
C1822 C 0.99212 0.74754 0.02534 0.0
C1823 C 0.99993 0.75955 0.01094 0.0
C1824 C 0.99569 0.7795 0.01137 0.0
C1825 C 0.98516 0.78747 0.02678 0.0
C1826 C 0.02914 0.72475 0.97996 0.0
C1827 C 0.04735 0.73377 0.98037 0.0
C1828 C 0.0132 0.7336 0.98893 0.0
C1829 C 0.0152 0.75176 0.998 0.0
C1830 C 0.03314 0.76126 0.99717 0.0
C1831 C 0.04905 0.7523 0.9886 0.0
H1832 H 0.71491 0.97234 0.02407 0.0
H1833 H 0.75982 0.99365 0.0621 0.0
H1834 H 0.73041 0.98887 0.99677 0.0
H1835 H 0.77533 0.00975 0.03492 0.0
H1836 H 0.80383 0.03308 0.98222 0.0
H1837 H 0.7916 0.00569 1.00135 0.0
H1838 H 0.73308 0.02582 0.99262 0.0
H1839 H 0.74524 0.05316 0.97419 0.0
C1840 C 0.72828 0.98018 0.02653 0.0
C1841 C 0.73602 0.98191 0.04527 0.0
C1842 C 0.73716 0.98957 0.01091 0.0
C1843 C 0.75412 1.0005 0.01373 0.0
C1844 C 0.76245 1.0012 0.03225 0.0
C1845 C 0.75342 0.99215 0.04786 0.0
C1846 C 0.78834 0.03115 0.98381 0.0
C1847 C 0.77545 0.04515 0.97673 0.0
C1848 C 0.78136 0.0156 0.99482 0.0
C1849 C 0.7614 0.01369 0.99848 0.0
C1850 C 0.7485 0.02677 0.98985 0.0
C1851 C 0.75547 0.04246 0.97931 0.0
H1852 H 0.50657 0.75585 0.07663 0.0
H1853 H 0.53405 0.72248 0.0313 0.0
H1854 H 0.48489 0.77019 0.053 0.0
H1855 H 0.51209 0.73705 0.0075 0.0
H1856 H 0.4763 0.78309 0.97087 0.0
H1857 H 0.50162 0.77044 0.99241 0.0
H1858 H 0.45789 0.75413 0.03394 0.0
H1859 H 0.43282 0.76655 0.01274 0.0
C1860 C 0.50809 0.75165 0.06159 0.0
C1861 C 0.52182 0.73775 0.0559 0.0
C1862 C 0.49564 0.75988 0.04807 0.0
C1863 C 0.49664 0.7545 0.02851 0.0
C1864 C 0.51105 0.74143 0.02253 0.0
C1865 C 0.52355 0.73307 0.03615 0.0
C1866 C 0.47216 0.77678 0.9846 0.0
C1867 C 0.45258 0.77595 0.99016 0.0
C1868 C 0.48661 0.76949 0.99684 0.0
C1869 C 0.48168 0.76153 0.01489 0.0
C1870 C 0.46211 0.76048 0.02024 0.0
C1871 C 0.44774 0.76753 0.00802 0.0
H1872 H 0.15114 0.56012 0.12394 0.0
H1873 H 0.16156 0.61541 0.15086 0.0
H1874 H 0.18498 0.55817 0.11442 0.0
H1875 H 0.19587 0.61332 0.14218 0.0
H1876 H 0.24201 0.61708 0.09288 0.0
H1877 H 0.21358 0.61723 0.11363 0.0
H1878 H 0.218 0.5551 0.11998 0.0
H1879 H 0.24583 0.55499 0.0983 0.0
C1880 C 0.16098 0.57144 0.12858 0.0
C1881 C 0.15389 0.58776 0.13833 0.0
C1882 C 0.18046 0.57039 0.12314 0.0
C1883 C 0.19336 0.58567 0.12735 0.0
C1884 C 0.1864 0.60142 0.13835 0.0
C1885 C 0.16682 0.60252 0.14362 0.0
C1886 C 0.23727 0.60354 0.0992 0.0
C1887 C 0.24604 0.586 0.09379 0.0
C1888 C 0.22088 0.60358 0.11117 0.0
C1889 C 0.21306 0.5861 0.11826 0.0
C1890 C 0.22314 0.56879 0.11436 0.0
C1891 C 0.23927 0.56873 0.10211 0.0
H1892 H 0.95246 0.23152 0.084 0.0
H1893 H 0.89681 0.25124 0.10452 0.0
H1894 H 0.95095 0.20411 0.10573 0.0
H1895 H 0.8956 0.22404 0.12708 0.0
H1896 H 0.8856 0.15723 0.13084 0.0
H1897 H 0.88925 0.191 0.12198 0.0
H1898 H 0.95025 0.188 0.13572 0.0
H1899 H 0.94656 0.15368 0.14382 0.0
C1900 C 0.94014 0.23035 0.09363 0.0
C1901 C 0.92456 0.24339 0.09219 0.0
C1902 C 0.93933 0.21461 0.1063 0.0
C1903 C 0.92296 0.21149 0.11801 0.0
C1904 C 0.90823 0.22565 0.11794 0.0
C1905 C 0.909 0.2414 0.10514 0.0
C1906 C 0.89971 0.16392 0.13241 0.0
C1907 C 0.91585 0.15273 0.1377 0.0
C1908 C 0.90181 0.18342 0.12746 0.0
C1909 C 0.92014 0.19233 0.12776 0.0
C1910 C 0.93598 0.18156 0.13487 0.0
C1911 C 0.93386 0.16194 0.13977 0.0
H1912 H 0.29043 0.94542 0.07236 0.0
H1913 H 0.26463 0.89921 0.1056 0.0
H1914 H 0.31764 0.94645 0.09474 0.0
H1915 H 0.29195 0.90028 0.12812 0.0
H1916 H 0.35927 0.88626 0.13278 0.0
H1917 H 0.32586 0.88982 0.12193 0.0
H1918 H 0.33061 0.95191 0.12794 0.0
H1919 H 0.36423 0.94819 0.13887 0.0
C1920 C 0.29032 0.93582 0.08475 0.0
C1921 C 0.2755 0.92206 0.08705 0.0
C1922 C 0.30588 0.9365 0.09768 0.0
C1923 C 0.30707 0.92332 0.11313 0.0
C1924 C 0.29154 0.9105 0.11624 0.0
C1925 C 0.27584 0.90996 0.1034 0.0
C1926 C 0.3529 0.90059 0.13244 0.0
C1927 C 0.36422 0.91695 0.13666 0.0
C1928 C 0.33376 0.90266 0.12627 0.0
C1929 C 0.3256 0.92117 0.12393 0.0
C1930 C 0.33654 0.93747 0.12947 0.0
C1931 C 0.35569 0.93536 0.13588 0.0
H1932 H 0.55324 0.27042 0.09019 0.0
H1933 H 0.61542 0.26965 0.09609 0.0
H1934 H 0.5515 0.29846 0.11156 0.0
H1935 H 0.61385 0.29823 0.11679 0.0
H1936 H 0.60783 0.35046 0.1545 0.0
H1937 H 0.60518 0.31627 0.14505 0.0
H1938 H 0.55886 0.33115 0.10566 0.0
H1939 H 0.56135 0.36483 0.11552 0.0
C1940 C 0.56652 0.27602 0.0964 0.0
C1941 C 0.58448 0.26794 0.09129 0.0
C1942 C 0.56556 0.29223 0.10853 0.0
C1943 C 0.58255 0.30102 0.11559 0.0
C1944 C 0.60041 0.2919 0.11176 0.0
C1945 C 0.60135 0.27547 0.09983 0.0
C1946 C 0.59661 0.34614 0.14442 0.0
C1947 C 0.58462 0.36014 0.1359 0.0
C1948 C 0.59525 0.32663 0.13877 0.0
C1949 C 0.58189 0.32082 0.12445 0.0
C1950 C 0.56911 0.33483 0.11693 0.0
C1951 C 0.5705 0.35421 0.12256 0.0
H1952 H 0.15503 0.91874 0.35599 0.0
H1953 H 0.13527 0.94364 0.40971 0.0
H1954 H 0.18875 0.92199 0.36697 0.0
H1955 H 0.1684 0.94648 0.4209 0.0
H1956 H 0.22758 0.95603 0.43867 0.0
H1957 H 0.19907 0.9611 0.41855 0.0
H1958 H 0.20904 0.90596 0.39061 0.0
H1959 H 0.23816 0.90144 0.4102 0.0
C1960 C 0.15795 0.92534 0.36992 0.0
C1961 C 0.1426 0.93091 0.38204 0.0
C1962 C 0.17721 0.92702 0.37631 0.0
C1963 C 0.18141 0.93444 0.39488 0.0
C1964 C 0.16594 0.94099 0.40641 0.0
C1965 C 0.14685 0.93926 0.40007 0.0
C1966 C 0.224 0.94529 0.42779 0.0
C1967 C 0.23497 0.92827 0.42612 0.0
C1968 C 0.20755 0.94809 0.41636 0.0
C1969 C 0.20137 0.93371 0.40328 0.0
C1970 C 0.21332 0.9174 0.40046 0.0
C1971 C 0.23004 0.91477 0.41171 0.0
H1972 H 0.62395 0.24606 0.39922 0.0
H1973 H 0.56902 0.22679 0.42203 0.0
H1974 H 0.62448 0.21828 0.37729 0.0
H1975 H 0.56982 0.19888 0.40073 0.0
H1976 H 0.57267 0.14872 0.36153 0.0
H1977 H 0.56957 0.18304 0.37002 0.0
H1978 H 0.63066 0.185 0.38353 0.0
H1979 H 0.6337 0.15116 0.37448 0.0
C1980 C 0.61178 0.23616 0.39927 0.0
C1981 C 0.59662 0.23848 0.41264 0.0
C1982 C 0.61215 0.22013 0.3868 0.0
C1983 C 0.59738 0.20605 0.38744 0.0
C1984 C 0.58142 0.20937 0.39965 0.0
C1985 C 0.58103 0.22539 0.41204 0.0
C1986 C 0.58551 0.15675 0.36564 0.0
C1987 C 0.60338 0.14724 0.36756 0.0
C1988 C 0.58373 0.17635 0.37073 0.0
C1989 C 0.5998 0.18681 0.3778 0.0
C1990 C 0.61796 0.1776 0.37806 0.0
C1991 C 0.61972 0.1581 0.37299 0.0
H1992 H 0.36271 0.56043 0.38678 0.0
H1993 H 0.35401 0.61656 0.36124 0.0
H1994 H 0.32899 0.55952 0.39677 0.0
H1995 H 0.31976 0.61554 0.37033 0.0
H1996 H 0.27301 0.61981 0.41892 0.0
H1997 H 0.30181 0.61945 0.3986 0.0
H1998 H 0.29604 0.55747 0.39165 0.0
H1999 H 0.26795 0.55786 0.41297 0.0
C2000 C 0.35325 0.57219 0.38254 0.0
C2001 C 0.36082 0.5884 0.37301 0.0
C2002 C 0.33382 0.57175 0.38826 0.0
C2003 C 0.3214 0.58753 0.38454 0.0
C2004 C 0.32882 0.60324 0.37381 0.0
C2005 C 0.34837 0.60374 0.36828 0.0
C2006 C 0.27759 0.6062 0.41258 0.0
C2007 C 0.26832 0.58884 0.41767 0.0
C2008 C 0.29418 0.60595 0.40086 0.0
C2009 C 0.30169 0.58834 0.39368 0.0
C2010 C 0.29119 0.57124 0.39735 0.0
C2011 C 0.27489 0.57146 0.40939 0.0
H2012 H 0.87703 0.37067 0.36905 0.0
H2013 H 0.93922 0.36624 0.37104 0.0
H2014 H 0.87417 0.33633 0.377 0.0
H2015 H 0.93659 0.33215 0.37988 0.0
H2016 H 0.92867 0.2705 0.39561 0.0
H2017 H 0.92793 0.2991 0.37489 0.0
H2018 H 0.87882 0.32084 0.40706 0.0
H2019 H 0.87918 0.29215 0.42716 0.0
C2020 C 0.89008 0.36211 0.37065 0.0
C2021 C 0.90833 0.37092 0.36946 0.0
C2022 C 0.88849 0.34253 0.37542 0.0
C2023 C 0.90513 0.33152 0.37952 0.0
C2024 C 0.92345 0.34006 0.3767 0.0
C2025 C 0.92502 0.3596 0.37165 0.0
C2026 C 0.91746 0.28121 0.39795 0.0
C2027 C 0.90414 0.27918 0.41321 0.0
C2028 C 0.9171 0.29766 0.38613 0.0
C2029 C 0.90346 0.31243 0.38938 0.0
C2030 C 0.8894 0.30972 0.40388 0.0
C2031 C 0.8897 0.29327 0.41559 0.0
H2032 H 0.07618 0.22488 0.55532 0.0
H2033 H 0.09655 0.24803 0.60972 0.0
H2034 H 0.09937 0.19864 0.55761 0.0
H2035 H 0.12033 0.22191 0.6118 0.0
H2036 H 0.1269 0.15535 0.62385 0.0
H2037 H 0.11591 0.18843 0.61926 0.0
H2038 H 0.13113 0.18496 0.55866 0.0
H2039 H 0.14159 0.1514 0.5633 0.0
C2040 C 0.08606 0.22472 0.5675 0.0
C2041 C 0.08425 0.23837 0.58251 0.0
C2042 C 0.09952 0.20967 0.56876 0.0
C2043 C 0.11158 0.20787 0.58507 0.0
C2044 C 0.11101 0.22259 0.59922 0.0
C2045 C 0.09749 0.2377 0.59795 0.0
C2046 C 0.12831 0.16182 0.60964 0.0
C2047 C 0.13482 0.1507 0.59388 0.0
C2048 C 0.12215 0.1809 0.607 0.0
C2049 C 0.12234 0.1894 0.5885 0.0
C2050 C 0.13045 0.17879 0.57305 0.0
C2051 C 0.13665 0.15963 0.57572 0.0
H2052 H 0.29023 0.07518 0.56178 0.0
H2053 H 0.26643 0.10936 0.60841 0.0
H2054 H 0.31816 0.09661 0.56025 0.0
H2055 H 0.29448 0.13099 0.60682 0.0
H2056 H 0.36199 0.13475 0.61941 0.0
H2057 H 0.32832 0.12453 0.61657 0.0
H2058 H 0.33223 0.12898 0.55432 0.0
H2059 H 0.36614 0.1392 0.55732 0.0
C2060 C 0.29072 0.0876 0.57137 0.0
C2061 C 0.27621 0.09044 0.58535 0.0
C2062 C 0.30671 0.09998 0.57041 0.0
C2063 C 0.30868 0.11544 0.58353 0.0
C2064 C 0.29349 0.11909 0.59663 0.0
C2065 C 0.27735 0.10678 0.59745 0.0
C2066 C 0.35542 0.13416 0.60517 0.0
C2067 C 0.36662 0.13774 0.58858 0.0
C2068 C 0.3361 0.12835 0.60351 0.0
C2069 C 0.32758 0.12577 0.5852 0.0
C2070 C 0.33842 0.13067 0.56863 0.0
C2071 C 0.35775 0.1367 0.57032 0.0
H2072 H 0.39633 0.36634 0.55881 0.0
H2073 H 0.35323 0.34872 0.60022 0.0
H2074 H 0.40701 0.33297 0.55538 0.0
H2075 H 0.3634 0.31489 0.59649 0.0
H2076 H 0.41115 0.26832 0.60937 0.0
H2077 H 0.39072 0.29694 0.6071 0.0
H2078 H 0.40277 0.30058 0.54581 0.0
H2079 H 0.42387 0.27242 0.54834 0.0
C2080 C 0.38859 0.35509 0.56652 0.0
C2081 C 0.37382 0.35998 0.57954 0.0
C2082 C 0.39469 0.33589 0.5646 0.0
C2083 C 0.38619 0.32107 0.57575 0.0
C2084 C 0.37048 0.32589 0.58787 0.0
C2085 C 0.36442 0.34519 0.58981 0.0
C2086 C 0.40904 0.27492 0.59531 0.0
C2087 C 0.41936 0.26826 0.5791 0.0
C2088 C 0.39723 0.29138 0.59397 0.0
C2089 C 0.39531 0.30141 0.57632 0.0
C2090 C 0.40429 0.29361 0.55976 0.0
C2091 C 0.41628 0.27734 0.56116 0.0
H2092 H 0.23992 0.40604 0.55879 0.0
H2093 H 0.23325 0.41532 0.62019 0.0
H2094 H 0.21078 0.38616 0.55848 0.0
H2095 H 0.20358 0.39625 0.61984 0.0
H2096 H 0.15112 0.35861 0.61704 0.0
H2097 H 0.18537 0.36782 0.61667 0.0
H2098 H 0.1777 0.39219 0.55952 0.0
H2099 H 0.1439 0.38217 0.55984 0.0
C2100 C 0.2324 0.40354 0.57232 0.0
C2101 C 0.23891 0.41232 0.5895 0.0
C2102 C 0.2155 0.3923 0.57212 0.0
C2103 C 0.20439 0.38982 0.58904 0.0
C2104 C 0.21167 0.39758 0.6065 0.0
C2105 C 0.22878 0.40858 0.60674 0.0
C2106 C 0.15708 0.36525 0.60415 0.0
C2107 C 0.14503 0.36932 0.5883 0.0
C2108 C 0.17663 0.37086 0.60402 0.0
C2109 C 0.1845 0.38098 0.58814 0.0
C2110 C 0.17249 0.38416 0.57192 0.0
C2111 C 0.15303 0.3784 0.57202 0.0
H2112 H 0.10401 0.25811 0.89552 0.0
H2113 H 0.08204 0.28088 0.94944 0.0
H2114 H 0.12754 0.28454 0.89409 0.0
H2115 H 0.10496 0.3074 0.9478 0.0
H2116 H 0.1452 0.35595 0.94307 0.0
H2117 H 0.13629 0.3219 0.94743 0.0
H2118 H 0.12258 0.31785 0.88649 0.0
H2119 H 0.13204 0.35144 0.88221 0.0
C2120 C 0.10455 0.26841 0.90734 0.0
C2121 C 0.09093 0.26758 0.92242 0.0
C2122 C 0.11793 0.28369 0.90645 0.0
C2123 C 0.11796 0.2984 0.92063 0.0
C2124 C 0.10554 0.29639 0.93664 0.0
C2125 C 0.09223 0.28119 0.93752 0.0
C2126 C 0.141 0.3475 0.93053 0.0
C2127 C 0.13907 0.35638 0.91236 0.0
C2128 C 0.13568 0.32805 0.93303 0.0
C2129 C 0.12834 0.31713 0.91739 0.0
C2130 C 0.12824 0.32562 0.89889 0.0
C2131 C 0.13354 0.34498 0.89642 0.0
H2132 H 0.1382 0.10057 0.95175 0.0
H2133 H 0.15497 0.15179 0.92037 0.0
H2134 H 0.1718 0.09109 0.95474 0.0
H2135 H 0.18917 0.14271 0.92386 0.0
H2136 H 0.2384 0.09941 0.90431 0.0
H2137 H 0.20937 0.11888 0.90929 0.0
H2138 H 0.20308 0.09462 0.96663 0.0
H2139 H 0.23142 0.07437 0.96103 0.0
C2140 C 0.14925 0.11016 0.94608 0.0
C2141 C 0.14402 0.12683 0.93576 0.0
C2142 C 0.16862 0.10481 0.94787 0.0
C2143 C 0.18339 0.11603 0.93942 0.0
C2144 C 0.17821 0.13355 0.9303 0.0
C2145 C 0.15867 0.13891 0.9285 0.0
C2146 C 0.23111 0.0987 0.91818 0.0
C2147 C 0.23696 0.08521 0.93219 0.0
C2148 C 0.21443 0.10991 0.92109 0.0
C2149 C 0.20349 0.10804 0.93822 0.0
C2150 C 0.21071 0.09603 0.95301 0.0
C2151 C 0.22707 0.08453 0.94991 0.0
H2152 H 0.43177 0.23127 0.95558 0.0
H2153 H 0.40778 0.23911 0.89849 0.0
H2154 H 0.41222 0.20223 0.95989 0.0
H2155 H 0.38893 0.20942 0.90225 0.0
H2156 H 0.35593 0.15422 0.91298 0.0
H2157 H 0.36498 0.18849 0.91639 0.0
H2158 H 0.41696 0.17134 0.94678 0.0
H2159 H 0.4076 0.13769 0.94385 0.0
C2160 C 0.42197 0.22696 0.9441 0.0
C2161 C 0.42141 0.23732 0.92665 0.0
C2162 C 0.41089 0.2102 0.94647 0.0
C2163 C 0.39937 0.20308 0.93121 0.0
C2164 C 0.39755 0.21442 0.91436 0.0
C2165 C 0.40839 0.23146 0.91216 0.0
C2166 C 0.36897 0.15797 0.92086 0.0
C2167 C 0.38115 0.14335 0.92804 0.0
C2168 C 0.37428 0.17754 0.92266 0.0
C2169 C 0.39178 0.1828 0.93178 0.0
C2170 C 0.40325 0.16807 0.93993 0.0
C2171 C 0.39798 0.14867 0.93811 0.0
H2172 H 0.25841 0.40696 0.8981 0.0
H2173 H 0.28177 0.43326 0.94981 0.0
H2174 H 0.2852 0.38384 0.89782 0.0
H2175 H 0.30862 0.4106 0.94932 0.0
H2176 H 0.35674 0.36894 0.94685 0.0
H2177 H 0.3229 0.37882 0.95099 0.0
H2178 H 0.31861 0.38908 0.88943 0.0
H2179 H 0.35202 0.37882 0.8854 0.0
C2180 C 0.26894 0.40747 0.90971 0.0
C2181 C 0.26812 0.42215 0.9238 0.0
C2182 C 0.2844 0.39432 0.90947 0.0
C2183 C 0.29932 0.39553 0.92334 0.0
C2184 C 0.29743 0.40909 0.93844 0.0
C2185 C 0.28204 0.42222 0.93866 0.0
C2186 C 0.34828 0.37265 0.93418 0.0
C2187 C 0.35703 0.37331 0.91584 0.0
C2188 C 0.32897 0.3785 0.93654 0.0
C2189 C 0.31804 0.38504 0.92059 0.0
C2190 C 0.32641 0.38403 0.90205 0.0
C2191 C 0.34565 0.37826 0.89973 0.0
H2192 H 0.55796 0.10088 0.13725 0.0
H2193 H 0.58924 0.15232 0.1538 0.0
H2194 H 0.55706 0.0904 0.17066 0.0
H2195 H 0.58786 0.14219 0.18785 0.0
H2196 H 0.55367 0.07245 0.23029 0.0
H2197 H 0.5466 0.09297 0.20252 0.0
H2198 H 0.60375 0.11819 0.20684 0.0
H2199 H 0.61025 0.09839 0.23535 0.0
C2200 C 0.56409 0.11027 0.14824 0.0
C2201 C 0.57374 0.12734 0.14295 0.0
C2202 C 0.5635 0.10434 0.16752 0.0
C2203 C 0.57251 0.11534 0.18215 0.0
C2204 C 0.58101 0.13319 0.17699 0.0
C2205 C 0.5816 0.13914 0.15754 0.0
C2206 C 0.56447 0.08284 0.22564 0.0
C2207 C 0.58256 0.0837 0.23484 0.0
C2208 C 0.56051 0.0945 0.20959 0.0
C2209 C 0.57479 0.10691 0.20197 0.0
C2210 C 0.59233 0.10891 0.21223 0.0
C2211 C 0.59612 0.09751 0.2286 0.0
H2212 H 0.57558 0.39856 0.36638 0.0
H2213 H 0.61971 0.35692 0.3518 0.0
H2214 H 0.57325 0.40819 0.33262 0.0
H2215 H 0.61739 0.36647 0.31756 0.0
H2216 H 0.62667 0.41542 0.26942 0.0
H2217 H 0.62637 0.39561 0.29874 0.0
H2218 H 0.56395 0.39898 0.30029 0.0
H2219 H 0.56434 0.41917 0.2714 0.0
C2220 C 0.58445 0.39114 0.35577 0.0
C2221 C 0.59776 0.37698 0.36164 0.0
C2222 C 0.58308 0.39657 0.33637 0.0
C2223 C 0.59511 0.38809 0.32226 0.0
C2224 C 0.60798 0.37335 0.32804 0.0
C2225 C 0.6092 0.36775 0.34757 0.0
C2226 C 0.61286 0.41138 0.27567 0.0
C2227 C 0.59554 0.41907 0.26825 0.0
C2228 C 0.61268 0.40002 0.29251 0.0
C2229 C 0.59515 0.39605 0.30216 0.0
C2230 C 0.57774 0.40216 0.29354 0.0
C2231 C 0.57794 0.41362 0.27688 0.0
H2232 H 0.10413 0.61147 0.25831 0.0
H2233 H 0.08247 0.55685 0.2796 0.0
H2234 H 0.12742 0.61257 0.28493 0.0
H2235 H 0.10509 0.5582 0.30637 0.0
H2236 H 0.14459 0.56246 0.35556 0.0
H2237 H 0.13603 0.55857 0.32137 0.0
H2238 H 0.12231 0.61956 0.31821 0.0
H2239 H 0.13151 0.6234 0.35191 0.0
C2240 C 0.10468 0.59945 0.26834 0.0
C2241 C 0.09119 0.58426 0.26703 0.0
C2242 C 0.11791 0.60015 0.28374 0.0
C2243 C 0.11792 0.58569 0.29813 0.0
C2244 C 0.10568 0.56959 0.29564 0.0
C2245 C 0.09253 0.56888 0.28028 0.0
C2246 C 0.14046 0.57512 0.34729 0.0
C2247 C 0.13845 0.59317 0.35644 0.0
C2248 C 0.13532 0.57288 0.32775 0.0
C2249 C 0.12808 0.58867 0.31702 0.0
C2250 C 0.12789 0.60705 0.32582 0.0
C2251 C 0.13303 0.60926 0.34525 0.0
H2252 H 0.90087 0.14559 0.35871 0.0
H2253 H 0.94239 0.10002 0.36849 0.0
H2254 H 0.90249 0.13946 0.32367 0.0
H2255 H 0.94401 0.09381 0.33387 0.0
H2256 H 0.9525 0.08904 0.272 0.0
H2257 H 0.95395 0.10658 0.3026 0.0
H2258 H 0.8917 0.1124 0.30217 0.0
H2259 H 0.89034 0.09524 0.27122 0.0
C2260 C 0.91064 0.13458 0.35331 0.0
C2261 C 0.92151 0.12325 0.36626 0.0
C2262 C 0.91147 0.13097 0.33331 0.0
C2263 C 0.92342 0.11619 0.32592 0.0
C2264 C 0.93489 0.10552 0.33894 0.0
C2265 C 0.93389 0.10896 0.35882 0.0
C2266 C 0.93919 0.09468 0.27809 0.0
C2267 C 0.92131 0.0906 0.26932 0.0
C2268 C 0.94 0.10459 0.29572 0.0
C2269 C 0.92291 0.11045 0.3051 0.0
C2270 C 0.90515 0.1081 0.29535 0.0
C2271 C 0.90436 0.09829 0.27756 0.0
H2272 H 0.40454 0.89837 0.26504 0.0
H2273 H 0.43725 0.94572 0.28955 0.0
H2274 H 0.38213 0.89979 0.29246 0.0
H2275 H 0.41503 0.94709 0.31684 0.0
H2276 H 0.37117 0.94957 0.36366 0.0
H2277 H 0.3822 0.95254 0.33002 0.0
H2278 H 0.38787 0.89035 0.32652 0.0
H2279 H 0.37684 0.88753 0.35993 0.0
C2280 C 0.40663 0.90945 0.27596 0.0
C2281 C 0.42279 0.92181 0.27522 0.0
C2282 C 0.39386 0.91017 0.29175 0.0
C2283 C 0.39687 0.92343 0.30697 0.0
C2284 C 0.41215 0.9368 0.30535 0.0
C2285 C 0.42498 0.93594 0.28973 0.0
C2286 C 0.37411 0.93656 0.3554 0.0
C2287 C 0.37317 0.91833 0.36432 0.0
C2288 C 0.3806 0.93824 0.33623 0.0
C2289 C 0.38608 0.92169 0.3256 0.0
C2290 C 0.38361 0.90338 0.33414 0.0
C2291 C 0.37734 0.90174 0.35331 0.0
H2292 H 0.94532 0.41444 0.24382 0.0
H2293 H 0.88434 0.42347 0.23393 0.0
H2294 H 0.94665 0.39247 0.21624 0.0
H2295 H 0.88574 0.40235 0.20571 0.0
H2296 H 0.89056 0.36309 0.15498 0.0
H2297 H 0.88967 0.37303 0.18903 0.0
H2298 H 0.94707 0.39738 0.18296 0.0
H2299 H 0.94799 0.38666 0.14942 0.0
C2300 C 0.93209 0.4114 0.23595 0.0
C2301 C 0.91475 0.42077 0.241 0.0
C2302 C 0.93288 0.39896 0.21996 0.0
C2303 C 0.91643 0.3959 0.20829 0.0
C2304 C 0.89873 0.40414 0.21429 0.0
C2305 C 0.89788 0.41633 0.23054 0.0
C2306 C 0.90323 0.36986 0.1613 0.0
C2307 C 0.91949 0.37381 0.14978 0.0
C2308 C 0.90265 0.37586 0.18071 0.0
C2309 C 0.91821 0.38625 0.1889 0.0
C2310 C 0.9349 0.38917 0.17748 0.0
C2311 C 0.9355 0.38301 0.15818 0.0
H2312 H 0.13012 0.88391 0.15579 0.0
H2313 H 0.14644 0.94411 0.15275 0.0
H2314 H 0.12061 0.88803 0.18937 0.0
H2315 H 0.13751 0.94825 0.18682 0.0
H2316 H 0.08454 0.95233 0.2292 0.0
H2317 H 0.10661 0.95002 0.20202 0.0
H2318 H 0.12641 0.89442 0.22271 0.0
H2319 H 0.10369 0.89651 0.24974 0.0
C2320 C 0.13222 0.89793 0.16254 0.0
C2321 C 0.13875 0.91376 0.15156 0.0
C2322 C 0.12691 0.90029 0.18191 0.0
C2323 C 0.128 0.91857 0.19087 0.0
C2324 C 0.13613 0.93404 0.18032 0.0
C2325 C 0.14147 0.93165 0.16085 0.0
C2326 C 0.09393 0.9398 0.22826 0.0
C2327 C 0.09204 0.92443 0.24146 0.0
C2328 C 0.10676 0.93852 0.21266 0.0
C2329 C 0.11812 0.92185 0.20986 0.0
C2330 C 0.11757 0.90729 0.22414 0.0
C2331 C 0.10467 0.90856 0.23978 0.0
H2332 H 0.35795 0.60545 0.15682 0.0
H2333 H 0.39628 0.55823 0.14312 0.0
H2334 H 0.36784 0.60368 0.19093 0.0
H2335 H 0.4066 0.5566 0.17673 0.0
H2336 H 0.42094 0.55137 0.23814 0.0
H2337 H 0.40052 0.54971 0.20943 0.0
H2338 H 0.39589 0.61211 0.20934 0.0
H2339 H 0.41566 0.61361 0.23858 0.0
C2340 C 0.36803 0.5943 0.16127 0.0
C2341 C 0.37613 0.58174 0.14747 0.0
C2342 C 0.37394 0.59343 0.18074 0.0
C2343 C 0.38814 0.58004 0.18675 0.0
C2344 C 0.39541 0.56688 0.17293 0.0
C2345 C 0.38952 0.56777 0.15359 0.0
C2346 C 0.41509 0.5647 0.2323 0.0
C2347 C 0.42005 0.58262 0.24059 0.0
C2348 C 0.40352 0.56378 0.21568 0.0
C2349 C 0.39685 0.58079 0.20665 0.0
C2350 C 0.40061 0.59865 0.21583 0.0
C2351 C 0.412 0.59955 0.23266 0.0
H2352 H 0.84814 0.40237 0.85567 0.0
H2353 H 0.86056 0.4499 0.89416 0.0
H2354 H 0.81364 0.40458 0.864 0.0
H2355 H 0.82652 0.45202 0.90285 0.0
H2356 H 0.76629 0.39471 0.91249 0.0
H2357 H 0.7952 0.39622 0.89232 0.0
H2358 H 0.79378 0.45872 0.89508 0.0
H2359 H 0.76532 0.45709 0.91586 0.0
C2360 C 0.84333 0.4137 0.86541 0.0
C2361 C 0.85685 0.42614 0.87411 0.0
C2362 C 0.82365 0.41483 0.87038 0.0
C2363 C 0.81719 0.42842 0.88419 0.0
C2364 C 0.83074 0.44159 0.89193 0.0
C2365 C 0.85031 0.4404 0.88699 0.0
C2366 C 0.77178 0.40878 0.90827 0.0
C2367 C 0.76369 0.42577 0.91601 0.0
C2368 C 0.78841 0.40967 0.89666 0.0
C2369 C 0.79716 0.4276 0.89239 0.0
C2370 C 0.78779 0.44464 0.8985 0.0
C2371 C 0.77135 0.44373 0.91028 0.0
H2372 H 0.06571 0.86293 0.89846 0.0
H2373 H 0.10979 0.84996 0.85626 0.0
H2374 H 0.06316 0.8288 0.90657 0.0
H2375 H 0.10724 0.81533 0.86424 0.0
H2376 H 0.11765 0.76686 0.91263 0.0
H2377 H 0.11663 0.79601 0.89266 0.0
H2378 H 0.05423 0.79659 0.89682 0.0
H2379 H 0.05537 0.76789 0.91727 0.0
C2380 C 0.07444 0.85259 0.89052 0.0
C2381 C 0.08786 0.85897 0.87671 0.0
C2382 C 0.07296 0.83298 0.89508 0.0
C2383 C 0.08499 0.81922 0.88605 0.0
C2384 C 0.09784 0.82555 0.87152 0.0
C2385 C 0.09919 0.84529 0.86683 0.0
C2386 C 0.10369 0.77281 0.90866 0.0
C2387 C 0.0866 0.76528 0.91672 0.0
C2388 C 0.10309 0.78956 0.89721 0.0
C2389 C 0.08536 0.79895 0.89352 0.0
C2390 C 0.06816 0.79005 0.8998 0.0
C2391 C 0.06879 0.77349 0.91139 0.0
H2392 H 0.65153 0.07606 0.85848 0.0
H2393 H 0.65222 0.13475 0.87992 0.0
H2394 H 0.68552 0.07238 0.86772 0.0
H2395 H 0.68565 0.13091 0.88999 0.0
H2396 H 0.74586 0.12251 0.90863 0.0
H2397 H 0.71919 0.12633 0.88562 0.0
H2398 H 0.70029 0.06798 0.89806 0.0
H2399 H 0.72712 0.06404 0.92025 0.0
C2400 C 0.65908 0.08834 0.8647 0.0
C2401 C 0.64908 0.10558 0.86876 0.0
C2402 C 0.67852 0.08617 0.87025 0.0
C2403 C 0.68836 0.10119 0.88004 0.0
C2404 C 0.67877 0.119 0.88246 0.0
C2405 C 0.65944 0.12117 0.87683 0.0
C2406 C 0.73637 0.11031 0.90592 0.0
C2407 C 0.73846 0.09308 0.9165 0.0
C2408 C 0.72092 0.11255 0.89288 0.0
C2409 C 0.70723 0.09761 0.89017 0.0
C2410 C 0.71045 0.07982 0.89954 0.0
C2411 C 0.72585 0.07759 0.91246 0.0
H2412 H 0.4496 0.64427 0.89699 0.0
H2413 H 0.40824 0.65725 0.85216 0.0
H2414 H 0.45121 0.67832 0.90573 0.0
H2415 H 0.40995 0.69178 0.86063 0.0
H2416 H 0.39432 0.73936 0.90764 0.0
H2417 H 0.39799 0.71031 0.88791 0.0
H2418 H 0.45964 0.71094 0.89855 0.0
H2419 H 0.45581 0.73959 0.91881 0.0
C2420 C 0.44139 0.65462 0.88854 0.0
C2421 C 0.42891 0.64823 0.87385 0.0
C2422 C 0.44231 0.6742 0.8935 0.0
C2423 C 0.43064 0.68791 0.88395 0.0
C2424 C 0.419 0.68161 0.8684 0.0
C2425 C 0.41816 0.66192 0.86338 0.0
C2426 C 0.40873 0.73364 0.9053 0.0
C2427 C 0.42473 0.74159 0.91507 0.0
C2428 C 0.41087 0.71695 0.89391 0.0
C2429 C 0.42907 0.70798 0.89194 0.0
C2430 C 0.44532 0.71714 0.90015 0.0
C2431 C 0.44316 0.73366 0.91167 0.0
H2432 H 0.84825 0.1024 0.66153 0.0
H2433 H 0.85808 0.0485 0.63178 0.0
H2434 H 0.81439 0.10205 0.65117 0.0
H2435 H 0.82487 0.04839 0.62048 0.0
H2436 H 0.76722 0.05067 0.59618 0.0
H2437 H 0.79168 0.04712 0.62135 0.0
H2438 H 0.79965 0.10927 0.62197 0.0
H2439 H 0.77432 0.11267 0.59782 0.0
C2440 C 0.84288 0.09004 0.65349 0.0
C2441 C 0.85563 0.07532 0.64769 0.0
C2442 C 0.82358 0.09 0.64716 0.0
C2443 C 0.81677 0.07543 0.63453 0.0
C2444 C 0.82923 0.0598 0.63031 0.0
C2445 C 0.84838 0.05975 0.63685 0.0
C2446 C 0.77375 0.06358 0.60226 0.0
C2447 C 0.76896 0.08193 0.59495 0.0
C2448 C 0.78799 0.06157 0.61655 0.0
C2449 C 0.79822 0.07783 0.62346 0.0
C2450 C 0.79216 0.09633 0.61726 0.0
C2451 C 0.77758 0.09835 0.60329 0.0
H2452 H 0.40783 0.85779 0.65685 0.0
H2453 H 0.44147 0.87499 0.6072 0.0
H2454 H 0.41072 0.82373 0.64691 0.0
H2455 H 0.44387 0.84157 0.5969 0.0
H2456 H 0.45162 0.78162 0.58065 0.0
H2457 H 0.45576 0.81028 0.60083 0.0
H2458 H 0.39728 0.80356 0.6221 0.0
H2459 H 0.39368 0.77423 0.60265 0.0
C2460 C 0.41621 0.85422 0.64409 0.0
C2461 C 0.42434 0.869 0.63274 0.0
C2462 C 0.41769 0.83476 0.63824 0.0
C2463 C 0.42743 0.82974 0.62099 0.0
C2464 C 0.43651 0.8446 0.6104 0.0
C2465 C 0.43502 0.86389 0.61622 0.0
C2466 C 0.43989 0.78596 0.59011 0.0
C2467 C 0.42229 0.77579 0.58997 0.0
C2468 C 0.44215 0.80252 0.60156 0.0
C2469 C 0.42667 0.80967 0.61275 0.0
C2470 C 0.40958 0.79855 0.61377 0.0
C2471 C 0.40747 0.7817 0.60259 0.0
H2472 H 0.64187 0.4475 0.60301 0.0
H2473 H 0.65607 0.41239 0.65255 0.0
H2474 H 0.67557 0.44831 0.59358 0.0
H2475 H 0.69047 0.41373 0.64359 0.0
H2476 H 0.7397 0.39385 0.60051 0.0
H2477 H 0.71049 0.39944 0.61966 0.0
H2478 H 0.70731 0.45785 0.59737 0.0
H2479 H 0.73566 0.45161 0.57734 0.0
C2480 C 0.65242 0.44049 0.61227 0.0
C2481 C 0.64636 0.42983 0.62845 0.0
C2482 C 0.67189 0.44102 0.60694 0.0
C2483 C 0.68599 0.43099 0.61771 0.0
C2484 C 0.68005 0.4214 0.63475 0.0
C2485 C 0.6604 0.42083 0.64007 0.0
C2486 C 0.73303 0.40804 0.6002 0.0
C2487 C 0.73979 0.42226 0.58736 0.0
C2488 C 0.71624 0.41131 0.6112 0.0
C2489 C 0.70611 0.42899 0.60979 0.0
C2490 C 0.71423 0.44383 0.5984 0.0
C2491 C 0.73065 0.44038 0.58707 0.0
H2492 H 0.12431 0.65018 0.63068 0.0
H2493 H 0.06273 0.64616 0.64012 0.0
H2494 H 0.12082 0.68394 0.6212 0.0
H2495 H 0.05912 0.68022 0.63081 0.0
H2496 H 0.06233 0.72141 0.57616 0.0
H2497 H 0.06213 0.69414 0.59835 0.0
H2498 H 0.11202 0.71772 0.62784 0.0
H2499 H 0.11232 0.74508 0.60535 0.0
C2500 C 0.11009 0.65677 0.63134 0.0
C2501 C 0.09377 0.64555 0.63597 0.0
C2502 C 0.10807 0.67617 0.626 0.0
C2503 C 0.08964 0.68477 0.62503 0.0
C2504 C 0.07349 0.67396 0.63121 0.0
C2505 C 0.07555 0.65453 0.6367 0.0
C2506 C 0.07295 0.72107 0.58771 0.0
C2507 C 0.0875 0.73526 0.58883 0.0
C2508 C 0.07275 0.70547 0.60055 0.0
C2509 C 0.0872 0.70359 0.61477 0.0
C2510 C 0.10083 0.71862 0.61689 0.0
C2511 C 0.10092 0.73437 0.6041 0.0
H2512 H 0.86021 0.85245 0.43848 0.0
H2513 H 0.88055 0.84968 0.37949 0.0
H2514 H 0.86921 0.81852 0.44309 0.0
H2515 H 0.89025 0.81624 0.3842 0.0
H2516 H 0.9082 0.75657 0.39374 0.0
H2517 H 0.88467 0.78276 0.39024 0.0
H2518 H 0.90026 0.80418 0.44696 0.0
H2519 H 0.92312 0.77785 0.45062 0.0
C2520 C 0.86614 0.84445 0.42636 0.0
C2521 C 0.86999 0.85381 0.40873 0.0
C2522 C 0.87148 0.82505 0.42904 0.0
C2523 C 0.88079 0.81465 0.41414 0.0
C2524 C 0.88304 0.82362 0.39601 0.0
C2525 C 0.87767 0.84293 0.39334 0.0
C2526 C 0.90607 0.76648 0.40572 0.0
C2527 C 0.91779 0.76535 0.42231 0.0
C2528 C 0.89271 0.78162 0.40365 0.0
C2529 C 0.89082 0.79591 0.41812 0.0
C2530 C 0.90117 0.79352 0.43549 0.0
C2531 C 0.91445 0.77842 0.43756 0.0
H2532 H 0.72257 0.92574 0.44539 0.0
H2533 H 0.74451 0.89838 0.39363 0.0
H2534 H 0.69494 0.90393 0.4453 0.0
H2535 H 0.71675 0.87632 0.39358 0.0
H2536 H 0.64871 0.87537 0.38305 0.0
H2537 H 0.68273 0.88423 0.38602 0.0
H2538 H 0.68077 0.87127 0.44716 0.0
H2539 H 0.64649 0.86255 0.44409 0.0
C2540 C 0.72178 0.91466 0.4343 0.0
C2541 C 0.73558 0.91394 0.41938 0.0
C2542 C 0.70597 0.90204 0.43431 0.0
C2543 C 0.7035 0.88849 0.41931 0.0
C2544 C 0.71814 0.88674 0.40523 0.0
C2545 C 0.73411 0.89928 0.40533 0.0
C2546 C 0.65574 0.87387 0.397 0.0
C2547 C 0.64497 0.86845 0.41337 0.0
C2548 C 0.67527 0.87883 0.3987 0.0
C2549 C 0.68445 0.87865 0.41688 0.0
C2550 C 0.67406 0.87174 0.43299 0.0
C2551 C 0.6545 0.8666 0.43123 0.0
H2552 H 0.6389 0.64883 0.45277 0.0
H2553 H 0.63513 0.65613 0.39092 0.0
H2554 H 0.62765 0.6822 0.45742 0.0
H2555 H 0.62383 0.68923 0.39539 0.0
H2556 H 0.60433 0.74887 0.40569 0.0
H2557 H 0.62811 0.72268 0.40693 0.0
H2558 H 0.59475 0.69468 0.45175 0.0
H2559 H 0.5712 0.7208 0.45064 0.0
C2560 C 0.63635 0.65783 0.4402 0.0
C2561 C 0.63778 0.64998 0.4215 0.0
C2562 C 0.62976 0.67685 0.44283 0.0
C2563 C 0.62464 0.68833 0.42679 0.0
C2564 C 0.62779 0.68092 0.40807 0.0
C2565 C 0.6342 0.66193 0.40548 0.0
C2566 C 0.60241 0.73743 0.41622 0.0
C2567 C 0.58572 0.73674 0.42786 0.0
C2568 C 0.61598 0.72237 0.41686 0.0
C2569 C 0.61322 0.70645 0.42926 0.0
C2570 C 0.59744 0.70674 0.44211 0.0
C2571 C 0.58383 0.72168 0.44138 0.0
H2572 H 0.85015 0.63978 0.39174 0.0
H2573 H 0.85809 0.64355 0.45353 0.0
H2574 H 0.81697 0.62922 0.39639 0.0
H2575 H 0.82439 0.63355 0.4584 0.0
H2576 H 0.78224 0.5805 0.45542 0.0
H2577 H 0.80931 0.60283 0.45519 0.0
H2578 H 0.78437 0.63258 0.40616 0.0
H2579 H 0.75748 0.60962 0.40598 0.0
C2580 C 0.8445 0.63901 0.40635 0.0
C2581 C 0.85675 0.64227 0.42227 0.0
C2582 C 0.82537 0.63303 0.40907 0.0
C2583 C 0.81794 0.63017 0.42781 0.0
C2584 C 0.82971 0.6352 0.44375 0.0
C2585 C 0.84894 0.64119 0.441 0.0
C2586 C 0.78226 0.59204 0.44481 0.0
C2587 C 0.76785 0.59299 0.43046 0.0
C2588 C 0.79781 0.60503 0.44478 0.0
C2589 C 0.79931 0.61942 0.43045 0.0
C2590 C 0.78396 0.62143 0.41715 0.0
C2591 C 0.76843 0.60833 0.41712 0.0
H2592 H 0.86488 0.65796 0.12444 0.0
H2593 H 0.88152 0.65112 0.06475 0.0
H2594 H 0.87317 0.69232 0.12305 0.0
H2595 H 0.891 0.68504 0.06342 0.0
H2596 H 0.90645 0.74665 0.06188 0.0
H2597 H 0.88587 0.71801 0.06327 0.0
H2598 H 0.90111 0.71049 0.12354 0.0
H2599 H 0.92061 0.7397 0.12229 0.0
C2600 C 0.86994 0.664 0.11089 0.0
C2601 C 0.87243 0.65202 0.09465 0.0
C2602 C 0.87498 0.68363 0.11012 0.0
C2603 C 0.88313 0.69163 0.09322 0.0
C2604 C 0.88455 0.67971 0.07665 0.0
C2605 C 0.87914 0.66018 0.07735 0.0
C2606 C 0.90484 0.73918 0.07557 0.0
C2607 C 0.91521 0.7454 0.09195 0.0
C2608 C 0.89324 0.72257 0.07633 0.0
C2609 C 0.89206 0.71145 0.09338 0.0
C2610 C 0.90137 0.71857 0.11014 0.0
C2611 C 0.91265 0.73542 0.10946 0.0
H2612 H 0.7866 0.93428 0.05426 0.0
H2613 H 0.75988 0.90407 0.10198 0.0
H2614 H 0.81296 0.91105 0.05415 0.0
H2615 H 0.78626 0.88046 0.10169 0.0
H2616 H 0.85284 0.87544 0.11728 0.0
H2617 H 0.81941 0.8853 0.1124 0.0
H2618 H 0.82657 0.87882 0.05057 0.0
H2619 H 0.86036 0.86924 0.05562 0.0
C2620 C 0.78606 0.92231 0.06436 0.0
C2621 C 0.77134 0.92123 0.07836 0.0
C2622 C 0.80114 0.90885 0.0642 0.0
C2623 C 0.80191 0.894 0.0781 0.0
C2624 C 0.78625 0.8919 0.09098 0.0
C2625 C 0.77106 0.90536 0.09107 0.0
C2626 C 0.84706 0.87552 0.1027 0.0
C2627 C 0.8592 0.8718 0.08682 0.0
C2628 C 0.82783 0.88107 0.09987 0.0
C2629 C 0.82033 0.88314 0.08105 0.0
C2630 C 0.83199 0.87764 0.06524 0.0
C2631 C 0.85127 0.87197 0.06811 0.0
H2632 H 0.60487 0.76314 0.10809 0.0
H2633 H 0.57076 0.78848 0.06229 0.0
H2634 H 0.62718 0.79065 0.10664 0.0
H2635 H 0.59288 0.81587 0.06089 0.0
H2636 H 0.63633 0.86304 0.05853 0.0
H2637 H 0.62564 0.82933 0.05497 0.0
H2638 H 0.62112 0.82447 0.11714 0.0
H2639 H 0.63177 0.85797 0.12056 0.0
C2640 C 0.60245 0.77427 0.09733 0.0
C2641 C 0.58593 0.77376 0.08546 0.0
C2642 C 0.61516 0.79009 0.09658 0.0
C2643 C 0.61171 0.80557 0.08379 0.0
C2644 C 0.59609 0.80418 0.07082 0.0
C2645 C 0.58331 0.7885 0.0717 0.0
C2646 C 0.6337 0.85448 0.0714 0.0
C2647 C 0.63482 0.86303 0.08981 0.0
C2648 C 0.62743 0.83526 0.06938 0.0
C2649 C 0.62237 0.82424 0.08576 0.0
C2650 C 0.62506 0.83242 0.10423 0.0
C2651 C 0.6311 0.85163 0.10621 0.0
H2652 H 0.74807 0.61011 0.10854 0.0
H2653 H 0.72823 0.58894 0.0531 0.0
H2654 H 0.71952 0.63081 0.11079 0.0
H2655 H 0.69957 0.60909 0.05558 0.0
H2656 H 0.64853 0.64708 0.06174 0.0
H2657 H 0.68291 0.63955 0.05734 0.0
H2658 H 0.68659 0.62239 0.11738 0.0
H2659 H 0.65265 0.63046 0.12177 0.0
C2660 C 0.73787 0.61018 0.09663 0.0
C2661 C 0.74027 0.59759 0.0808 0.0
C2662 C 0.72141 0.62196 0.09798 0.0
C2663 C 0.707 0.62138 0.08355 0.0
C2664 C 0.71033 0.61005 0.06695 0.0
C2665 C 0.72677 0.59834 0.06558 0.0
C2666 C 0.65691 0.64229 0.07409 0.0
C2667 C 0.64789 0.6391 0.09202 0.0
C2668 C 0.67655 0.63779 0.07155 0.0
C2669 C 0.68753 0.6301 0.08693 0.0
C2670 C 0.67875 0.62841 0.10522 0.0
C2671 C 0.6592 0.63286 0.10772 0.0
H2672 H 0.44615 0.93802 0.78894 0.0
H2673 H 0.39868 0.90697 0.76258 0.0
H2674 H 0.44679 0.91478 0.81535 0.0
H2675 H 0.39941 0.8835 0.78908 0.0
H2676 H 0.38576 0.87624 0.85605 0.0
H2677 H 0.38942 0.88798 0.82299 0.0
H2678 H 0.45148 0.8817 0.82768 0.0
H2679 H 0.44765 0.87 0.86099 0.0
C2680 C 0.43619 0.9259 0.78851 0.0
C2681 C 0.42221 0.9245 0.77378 0.0
C2682 C 0.43664 0.91247 0.80363 0.0
C2683 C 0.42302 0.89735 0.80448 0.0
C2684 C 0.40996 0.89511 0.78897 0.0
C2685 C 0.40963 0.90849 0.77371 0.0
C2686 C 0.40012 0.87673 0.84974 0.0
C2687 C 0.41642 0.87224 0.86102 0.0
C2688 C 0.40225 0.88341 0.83077 0.0
C2689 C 0.42077 0.88598 0.8227 0.0
C2690 C 0.43702 0.88007 0.83353 0.0
C2691 C 0.43485 0.87319 0.85251 0.0
H2692 H 0.45185 0.59603 0.74019 0.0
H2693 H 0.3894 0.59646 0.74102 0.0
H2694 H 0.45172 0.61788 0.71251 0.0
H2695 H 0.38914 0.61757 0.7128 0.0
H2696 H 0.39184 0.65524 0.66046 0.0
H2697 H 0.39535 0.64635 0.69469 0.0
H2698 H 0.44476 0.61084 0.67989 0.0
H2699 H 0.44139 0.6202 0.64615 0.0
C2700 C 0.43809 0.60121 0.73474 0.0
C2701 C 0.42065 0.59439 0.74264 0.0
C2702 C 0.43799 0.61358 0.71873 0.0
C2703 C 0.42043 0.61911 0.70999 0.0
C2704 C 0.40297 0.61373 0.71909 0.0
C2705 C 0.40309 0.60158 0.73533 0.0
C2706 C 0.40383 0.64611 0.66481 0.0
C2707 C 0.41651 0.63855 0.65086 0.0
C2708 C 0.40573 0.64082 0.68433 0.0
C2709 C 0.4203 0.62778 0.69017 0.0
C2710 C 0.43359 0.62117 0.67617 0.0
C2711 C 0.43168 0.62647 0.65677 0.0
H2712 H 0.90568 0.44801 0.74517 0.0
H2713 H 0.91284 0.38606 0.74154 0.0
H2714 H 0.88456 0.44726 0.71691 0.0
H2715 H 0.89275 0.3853 0.71272 0.0
H2716 H 0.85603 0.38559 0.6605 0.0
H2717 H 0.86461 0.38808 0.69476 0.0
H2718 H 0.88986 0.44441 0.68396 0.0
H2719 H 0.8802 0.44212 0.65015 0.0
C2720 C 0.9024 0.43416 0.73854 0.0
C2721 C 0.91102 0.41712 0.74551 0.0
C2722 C 0.89048 0.43373 0.72215 0.0
C2723 C 0.88723 0.41629 0.71206 0.0
C2724 C 0.89468 0.39904 0.72002 0.0
C2725 C 0.90629 0.39943 0.73664 0.0
C2726 C 0.86278 0.39875 0.66576 0.0
C2727 C 0.86729 0.41377 0.65286 0.0
C2728 C 0.86797 0.40012 0.68532 0.0
C2729 C 0.87824 0.41633 0.6923 0.0
C2730 C 0.88174 0.4318 0.67942 0.0
C2731 C 0.87624 0.43054 0.65995 0.0
H2732 H 0.12172 0.91602 0.73733 0.0
H2733 H 0.05962 0.92227 0.73486 0.0
H2734 H 0.12087 0.89628 0.70793 0.0
H2735 H 0.05863 0.90207 0.70595 0.0
H2736 H 0.07028 0.90054 0.63996 0.0
H2737 H 0.06796 0.91023 0.67371 0.0
H2738 H 0.11138 0.86782 0.68887 0.0
H2739 H 0.11375 0.8583 0.65461 0.0
C2740 C 0.10782 0.91256 0.73095 0.0
C2741 C 0.09077 0.92091 0.73827 0.0
C2742 C 0.10731 0.90122 0.71405 0.0
C2743 C 0.08971 0.89791 0.70426 0.0
C2744 C 0.0725 0.90474 0.71277 0.0
C2745 C 0.07304 0.91619 0.72946 0.0
C2746 C 0.07894 0.89294 0.6506 0.0
C2747 C 0.09208 0.87861 0.64474 0.0
C2748 C 0.0776 0.89843 0.67001 0.0
C2749 C 0.08948 0.88982 0.68415 0.0
C2750 C 0.1021 0.87484 0.67838 0.0
C2751 C 0.10333 0.86923 0.65884 0.0
H2752 H 0.65872 0.10097 0.65451 0.0
H2753 H 0.6114 0.0639 0.63774 0.0
H2754 H 0.6476 0.09988 0.68828 0.0
H2755 H 0.59983 0.06328 0.6708 0.0
H2756 H 0.58053 0.06 0.73031 0.0
H2757 H 0.60196 0.05433 0.7029 0.0
H2758 H 0.622 0.11354 0.70661 0.0
H2759 H 0.60136 0.11867 0.73485 0.0
C2760 C 0.64629 0.09214 0.65817 0.0
C2761 C 0.63595 0.08246 0.64357 0.0
C2762 C 0.63971 0.09172 0.67745 0.0
C2763 C 0.62265 0.08162 0.68245 0.0
C2764 C 0.61316 0.07097 0.66785 0.0
C2765 C 0.61974 0.07136 0.64876 0.0
C2766 C 0.58998 0.0716 0.72561 0.0
C2767 C 0.5892 0.08979 0.73464 0.0
C2768 C 0.60214 0.06845 0.70972 0.0
C2769 C 0.61342 0.08361 0.70203 0.0
C2770 C 0.61368 0.10143 0.71204 0.0
C2771 C 0.6018 0.10443 0.72827 0.0
H2772 H 0.05394 0.63674 0.85992 0.0
H2773 H 0.11584 0.63136 0.85405 0.0
H2774 H 0.04992 0.62736 0.82589 0.0
H2775 H 0.11199 0.62182 0.82034 0.0
H2776 H 0.10311 0.60466 0.75984 0.0
H2777 H 0.10188 0.62755 0.78689 0.0
H2778 H 0.05459 0.59517 0.81191 0.0
H2779 H 0.05568 0.57261 0.78493 0.0
C2780 C 0.06669 0.63421 0.85114 0.0
C2781 C 0.08518 0.63461 0.85956 0.0
C2782 C 0.06441 0.62869 0.83173 0.0
C2783 C 0.08062 0.6236 0.82043 0.0
C2784 C 0.09919 0.62578 0.82849 0.0
C2785 C 0.10143 0.63114 0.84785 0.0
C2786 C 0.09205 0.60283 0.7708 0.0
C2787 C 0.07969 0.58667 0.77043 0.0
C2788 C 0.09143 0.61587 0.78637 0.0
C2789 C 0.07831 0.61306 0.80172 0.0
C2790 C 0.06479 0.5979 0.80033 0.0
C2791 C 0.06552 0.58484 0.7849 0.0
H2792 H 0.86094 0.12375 0.85019 0.0
H2793 H 0.87833 0.06436 0.85761 0.0
H2794 H 0.86961 0.12211 0.8159 0.0
H2795 H 0.88797 0.06275 0.82373 0.0
H2796 H 0.90364 0.06124 0.76197 0.0
H2797 H 0.88268 0.06263 0.79033 0.0
H2798 H 0.89882 0.12251 0.79907 0.0
H2799 H 0.91895 0.12128 0.77033 0.0
C2800 C 0.86609 0.11016 0.84426 0.0
C2801 C 0.86874 0.09409 0.85636 0.0
C2802 C 0.87137 0.10927 0.82469 0.0
C2803 C 0.87984 0.09239 0.81693 0.0
C2804 C 0.88129 0.07594 0.82893 0.0
C2805 C 0.87576 0.07679 0.84841 0.0
C2806 C 0.90227 0.07485 0.76967 0.0
C2807 C 0.91313 0.09109 0.76396 0.0
C2808 C 0.89038 0.07561 0.78608 0.0
C2809 C 0.88924 0.09256 0.79738 0.0
C2810 C 0.89906 0.1092 0.79079 0.0
C2811 C 0.91074 0.1085 0.77423 0.0
H2812 H 0.60159 0.3915 0.76227 0.0
H2813 H 0.58517 0.45009 0.77666 0.0
H2814 H 0.62331 0.39088 0.7902 0.0
H2815 H 0.60607 0.44927 0.80477 0.0
H2816 H 0.64385 0.44657 0.85579 0.0
H2817 H 0.63589 0.44776 0.82127 0.0
H2818 H 0.61738 0.388 0.82362 0.0
H2819 H 0.62614 0.38671 0.85759 0.0
C2820 C 0.60292 0.4044 0.77111 0.0
C2821 C 0.59138 0.42072 0.76738 0.0
C2822 C 0.61525 0.404 0.78727 0.0
C2823 C 0.61624 0.41988 0.8001 0.0
C2824 C 0.6059 0.43676 0.79531 0.0
C2825 C 0.59371 0.43719 0.77916 0.0
C2826 C 0.63873 0.43354 0.84869 0.0
C2827 C 0.63533 0.41664 0.85946 0.0
C2828 C 0.63392 0.43425 0.82895 0.0
C2829 C 0.62558 0.4181 0.8196 0.0
C2830 C 0.62383 0.40074 0.8301 0.0
C2831 C 0.6287 0.40002 0.84972 0.0
H2832 H 0.99089 0.70899 0.35035 0.0
H2833 H 0.96558 0.65617 0.37225 0.0
H2834 H 1.00373 0.6915 0.32272 0.0
H2835 H 0.97914 0.63835 0.34481 0.0
H2836 H 0.04318 0.65314 0.28812 0.0
H2837 H 0.02869 0.66934 0.31587 0.0
H2838 H 0.978 0.63292 0.3106 0.0
H2839 H 0.99302 0.61618 0.28325 0.0
C2840 C 0.98811 0.69359 0.34927 0.0
C2841 C 0.97733 0.68394 0.36355 0.0
C2842 C 0.99562 0.6835 0.33348 0.0
C2843 C 0.99281 0.66341 0.33166 0.0
C2844 C 0.98152 0.65382 0.34567 0.0
C2845 C 0.97377 0.66402 0.36142 0.0
C2846 C 0.02899 0.64855 0.29298 0.0
C2847 C 0.01918 0.63349 0.28354 0.0
C2848 C 0.02058 0.65793 0.30879 0.0
C2849 C 1.00202 0.65265 0.31537 0.0
C2850 C 0.99235 0.63729 0.30606 0.0
C2851 C 1.0009 0.62776 0.29033 0.0
H2852 H 0.81866 0.949 0.34208 0.0
H2853 H 0.83851 0.99659 0.37761 0.0
H2854 H 0.83413 0.96395 0.31372 0.0
H2855 H 0.85336 0.01158 0.34933 0.0
H2856 H 0.85313 0.04127 0.28824 0.0
H2857 H 0.83768 0.02505 0.31572 0.0
H2858 H 0.87223 0.97409 0.30517 0.0
H2859 H 0.88809 0.99049 0.27792 0.0
C2860 C 0.82626 0.96261 0.34382 0.0
C2861 C 0.82741 0.97159 0.36205 0.0
C2862 C 0.83513 0.9711 0.32766 0.0
C2863 C 0.84483 0.98891 0.32944 0.0
C2864 C 0.84587 0.99789 0.34761 0.0
C2865 C 0.83744 0.98924 0.36378 0.0
C2866 C 0.85744 0.02663 0.29182 0.0
C2867 C 0.87184 0.01714 0.28107 0.0
C2868 C 0.84862 0.01738 0.30749 0.0
C2869 C 0.85377 0.99835 0.31244 0.0
C2870 C 0.86795 0.98872 0.30151 0.0
C2871 C 0.87707 0.99813 0.28605 0.0
H2872 H 0.46038 0.8585 0.29297 0.0
H2873 H 0.51592 0.86135 0.26446 0.0
H2874 H 0.47581 0.84487 0.32169 0.0
H2875 H 0.53143 0.84777 0.29328 0.0
H2876 H 0.54745 0.80555 0.34355 0.0
H2877 H 0.53293 0.81762 0.31362 0.0
H2878 H 0.4983 0.85783 0.34669 0.0
H2879 H 0.51263 0.84584 0.37651 0.0
C2880 C 0.47586 0.85601 0.29279 0.0
C2881 C 0.48697 0.861 0.27654 0.0
C2882 C 0.48472 0.84836 0.30927 0.0
C2883 C 0.50486 0.84544 0.30981 0.0
C2884 C 0.51588 0.84978 0.29326 0.0
C2885 C 0.50702 0.85757 0.2768 0.0
C2886 C 0.53684 0.81706 0.34443 0.0
C2887 C 0.53116 0.82466 0.36247 0.0
C2888 C 0.52855 0.82398 0.32728 0.0
C2889 C 0.51432 0.83851 0.32783 0.0
C2890 C 0.50897 0.84638 0.34582 0.0
C2891 C 0.51732 0.83958 0.36291 0.0
H2892 H 0.61428 0.51171 0.28906 0.0
H2893 H 0.66961 0.48548 0.27658 0.0
H2894 H 0.6286 0.52908 0.31635 0.0
H2895 H 0.68391 0.50249 0.30414 0.0
H2896 H 0.70763 0.54679 0.3465 0.0
H2897 H 0.69303 0.53443 0.31667 0.0
H2898 H 0.64068 0.52073 0.34802 0.0
H2899 H 0.65497 0.53338 0.37752 0.0
C2900 C 0.62951 0.50966 0.2922 0.0
C2901 C 0.64084 0.49718 0.28084 0.0
C2902 C 0.63771 0.51956 0.30783 0.0
C2903 C 0.6574 0.51715 0.31246 0.0
C2904 C 0.66878 0.50488 0.30083 0.0
C2905 C 0.66057 0.49499 0.28517 0.0
C2906 C 0.69289 0.54145 0.34692 0.0
C2907 C 0.68252 0.54094 0.36441 0.0
C2908 C 0.68459 0.5342 0.32988 0.0
C2909 C 0.66574 0.52645 0.32999 0.0
C2910 C 0.65515 0.52674 0.34735 0.0
C2911 C 0.66342 0.53388 0.36432 0.0
H2912 H 0.00766 0.80979 0.14308 0.0
H2913 H 0.95605 0.84511 0.14532 0.0
H2914 H 0.02076 0.82702 0.17073 0.0
H2915 H 0.96902 0.86209 0.17359 0.0
H2916 H 0.00771 0.90076 0.21218 0.0
H2917 H 0.99396 0.88453 0.18382 0.0
H2918 H 0.01594 0.8298 0.2047 0.0
H2919 H 0.03009 0.84614 0.23258 0.0
C2920 C 0.99901 0.82116 0.14956 0.0
C2921 C 0.98073 0.82598 0.14202 0.0
C2922 C 0.0065 0.83099 0.16554 0.0
C2923 C 0.99589 0.84584 0.17455 0.0
C2924 C 0.97766 0.85083 0.16691 0.0
C2925 C 0.97017 0.84102 0.15079 0.0
C2926 C 0.00961 0.88527 0.21061 0.0
C2927 C 0.02005 0.8747 0.22446 0.0
C2928 C 1.00162 0.87594 0.19446 0.0
C2929 C 1.0039 0.85585 0.1919 0.0
C2930 C 0.0142 0.84533 0.20597 0.0
C2931 C 0.02225 0.85466 0.22202 0.0
H2932 H 0.6257 0.99304 0.23052 0.0
H2933 H 0.66537 0.041 0.22471 0.0
H2934 H 0.63988 0.97773 0.20188 0.0
H2935 H 0.67986 0.02542 0.19622 0.0
H2936 H 0.7122 0.97894 0.15885 0.0
H2937 H 0.69884 0.99276 0.18866 0.0
H2938 H 0.64119 0.98792 0.16504 0.0
H2939 H 0.65453 0.9745 0.13505 0.0
C2940 C 0.63758 1.0002 0.22322 0.0
C2941 C 0.64446 0.0182 0.22979 0.0
C2942 C 0.64562 0.99148 0.20681 0.0
C2943 C 0.66093 1.0004 0.19687 0.0
C2944 C 0.66813 0.01819 0.20371 0.0
C2945 C 0.65983 0.02711 0.21994 0.0
C2946 C 0.69666 0.98064 0.1601 0.0
C2947 C 0.6844 0.97561 0.14464 0.0
C2948 C 0.68906 0.98869 0.17708 0.0
C2949 C 0.66901 0.99143 0.1791 0.0
C2950 C 0.6567 0.98588 0.16387 0.0
C2951 C 0.66433 0.97825 0.14672 0.0
H2952 H 0.53083 0.65246 0.13134 0.0
H2953 H 0.54685 0.70137 0.16704 0.0
H2954 H 0.51839 0.63576 0.15965 0.0
H2955 H 0.53463 0.68439 0.19558 0.0
H2956 H 0.48466 0.66009 0.23327 0.0
H2957 H 0.5019 0.67571 0.20673 0.0
H2958 H 0.5268 0.62064 0.19049 0.0
H2959 H 0.50924 0.60498 0.21694 0.0
C2960 C 0.53194 0.65955 0.1453 0.0
C2961 C 0.53959 0.67835 0.14692 0.0
C2962 C 0.52493 0.64989 0.16156 0.0
C2963 C 0.52536 0.65882 0.17982 0.0
C2964 C 0.53385 0.67727 0.18162 0.0
C2965 C 0.54098 0.68692 0.16532 0.0
C2966 C 0.49382 0.65135 0.22401 0.0
C2967 C 0.49553 0.63134 0.22701 0.0
C2968 C 0.50386 0.66032 0.20895 0.0
C2969 C 0.51579 0.64942 0.19657 0.0
C2970 C 0.5176 0.62938 0.1997 0.0
C2971 C 0.50757 0.62042 0.21481 0.0
H2972 H 0.89764 0.51687 0.21545 0.0
H2973 H 0.84261 0.4909 0.22973 0.0
H2974 H 0.88262 0.53388 0.18839 0.0
H2975 H 0.8276 0.50751 0.20236 0.0
H2976 H 0.80295 0.55053 0.15939 0.0
H2977 H 0.81817 0.53912 0.18929 0.0
H2978 H 0.86994 0.52465 0.15727 0.0
H2979 H 0.85505 0.53638 0.12775 0.0
C2980 C 0.88232 0.51479 0.21275 0.0
C2981 C 0.87129 0.50247 0.22452 0.0
C2982 C 0.87372 0.5245 0.19726 0.0
C2983 C 0.85392 0.52201 0.19318 0.0
C2984 C 0.84282 0.50995 0.20525 0.0
C2985 C 0.85143 0.50029 0.2208 0.0
C2986 C 0.8177 0.54523 0.15885 0.0
C2987 C 0.82773 0.54419 0.14119 0.0
C2988 C 0.82635 0.53854 0.17592 0.0
C2989 C 0.84521 0.53084 0.17563 0.0
C2990 C 0.85547 0.53064 0.15808 0.0
C2991 C 0.84685 0.53723 0.1411 0.0
H2992 H 0.29309 0.05219 0.64825 0.0
H2993 H 0.26252 0.99772 0.6459 0.0
H2994 H 0.3212 0.03588 0.66213 0.0
H2995 H 0.29075 0.9813 0.65978 0.0
H2996 H 0.34025 0.96424 0.70293 0.0
H2997 H 0.3109 0.97934 0.69007 0.0
H2998 H 0.34558 0.01247 0.65003 0.0
H2999 H 0.37479 0.99755 0.66278 0.0
C3000 C 0.29233 0.03674 0.65088 0.0
C3001 C 0.27565 0.02621 0.64599 0.0
C3002 C 0.30848 0.02737 0.65868 0.0
C3003 C 0.30828 0.00726 0.66188 0.0
C3004 C 0.29133 0.99682 0.65757 0.0
C3005 C 0.27519 0.00619 0.6496 0.0
C3006 C 0.3416 0.97462 0.69127 0.0
C3007 C 0.35994 0.97971 0.68398 0.0
C3008 C 0.32477 0.98325 0.68389 0.0
C3009 C 0.32593 0.99727 0.66919 0.0
C3010 C 0.34421 1.00198 0.6616 0.0
C3011 C 0.36097 0.99329 0.66884 0.0
H3012 H 0.48196 0.30028 0.61663 0.0
H3013 H 0.50572 0.2598 0.65784 0.0
H3014 H 0.49929 0.3267 0.63248 0.0
H3015 H 0.52328 0.28625 0.67367 0.0
H3016 H 0.52837 0.34308 0.70971 0.0
H3017 H 0.51523 0.31493 0.69316 0.0
H3018 H 0.53236 0.33911 0.63814 0.0
H3019 H 0.54533 0.36759 0.65468 0.0
C3020 C 0.49093 0.29705 0.62908 0.0
C3021 C 0.49244 0.27805 0.6361 0.0
C3022 C 0.50102 0.31214 0.63804 0.0
C3023 C 0.51275 0.30856 0.65427 0.0
C3024 C 0.51426 0.28949 0.66127 0.0
C3025 C 0.50423 0.27436 0.65222 0.0
C3026 C 0.52958 0.34235 0.69409 0.0
C3027 C 0.53778 0.35772 0.68353 0.0
C3028 C 0.52212 0.32611 0.68462 0.0
C3029 C 0.5226 0.32485 0.66433 0.0
C3030 C 0.53154 0.3398 0.65378 0.0
C3031 C 0.53912 0.35604 0.66328 0.0
H3032 H 0.12727 0.50498 0.66754 0.0
H3033 H 0.16024 0.55324 0.69004 0.0
H3034 H 0.15648 0.49172 0.65293 0.0
H3035 H 0.1896 0.53995 0.67494 0.0
H3036 H 0.2283 0.51759 0.62164 0.0
H3037 H 0.20039 0.5323 0.638 0.0
H3038 H 0.18935 0.47837 0.6675 0.0
H3039 H 0.21742 0.4638 0.65151 0.0
C3040 C 0.14074 0.51283 0.66929 0.0
C3041 C 0.14147 0.53017 0.67996 0.0
C3042 C 0.15747 0.50515 0.66101 0.0
C3043 C 0.17523 0.5148 0.66289 0.0
C3044 C 0.17601 0.53229 0.67329 0.0
C3045 C 0.15928 0.53982 0.68195 0.0
C3046 C 0.21994 0.50896 0.63171 0.0
C3047 C 0.2249 0.48957 0.63531 0.0
C3048 C 0.20411 0.51739 0.64112 0.0
C3049 C 0.1928 0.50643 0.65396 0.0
C3050 C 0.19784 0.48707 0.6576 0.0
C3051 C 0.21386 0.47877 0.64849 0.0
H3052 H 0.03952 0.21648 0.6497 0.0
H3053 H 0.98654 0.22074 0.6169 0.0
H3054 H 0.02699 0.18812 0.66641 0.0
H3055 H 0.97343 0.19285 0.63429 0.0
H3056 H 0.99318 0.1517 0.70814 0.0
H3057 H 0.00466 0.17963 0.69023 0.0
H3058 H 0.97497 0.15897 0.63908 0.0
H3059 H 0.96272 0.13134 0.65745 0.0
C3060 C 0.02511 0.21137 0.64617 0.0
C3061 C 0.01397 0.2208 0.63209 0.0
C3062 C 0.01782 0.1952 0.65586 0.0
C3063 C 0.99904 0.18824 0.65194 0.0
C3064 C 0.988 0.19761 0.63759 0.0
C3065 C 0.99545 0.21366 0.62769 0.0
C3066 C 0.98903 0.15314 0.69308 0.0
C3067 C 0.9771 0.13927 0.68419 0.0
C3068 C 0.99576 0.16912 0.68273 0.0
C3069 C 0.99103 0.17152 0.66306 0.0
C3070 C 0.9788 0.15776 0.65423 0.0
C3071 C 0.97181 0.14186 0.66473 0.0
H3072 H 0.27888 0.52004 0.88796 0.0
H3073 H 0.291 0.46618 0.85857 0.0
H3074 H 0.30659 0.53514 0.87172 0.0
H3075 H 0.31874 0.48104 0.84266 0.0
H3076 H 0.34987 0.51832 0.79948 0.0
H3077 H 0.32266 0.50535 0.81743 0.0
H3078 H 0.34264 0.53444 0.86911 0.0
H3079 H 0.37002 0.54781 0.85095 0.0
C3080 C 0.28759 0.51141 0.87817 0.0
C3081 C 0.28276 0.49202 0.87434 0.0
C3082 C 0.30347 0.52001 0.86896 0.0
C3083 C 0.31469 0.50935 0.85574 0.0
C3084 C 0.31013 0.48976 0.85246 0.0
C3085 C 0.29433 0.48121 0.86165 0.0
C3086 C 0.3485 0.52208 0.81465 0.0
C3087 C 0.36224 0.53398 0.82381 0.0
C3088 C 0.33292 0.51453 0.82497 0.0
C3089 C 0.33069 0.51859 0.84476 0.0
C3090 C 0.34399 0.53107 0.85385 0.0
C3091 C 0.35966 0.53871 0.84346 0.0
H3092 H 0.99275 0.2818 0.89151 0.0
H3093 H 0.0414 0.28597 0.85257 0.0
H3094 H 0.97722 0.30903 0.87518 0.0
H3095 H 0.02649 0.31372 0.8368 0.0
H3096 H 0.98769 0.34927 0.79902 0.0
H3097 H 1.0012 0.32147 0.81571 0.0
H3098 H 0.97808 0.34284 0.86987 0.0
H3099 H 0.96375 0.37029 0.85283 0.0
C3100 C 1.00019 0.28871 0.87956 0.0
C3101 C 0.01818 0.28176 0.87318 0.0
C3102 C 0.99136 0.30438 0.87026 0.0
C3103 C 1.00049 0.31356 0.85453 0.0
C3104 C 0.01876 0.30677 0.84852 0.0
C3105 C 0.02742 0.29095 0.85764 0.0
C3106 C 0.98539 0.34796 0.81448 0.0
C3107 C 0.97473 0.36198 0.82463 0.0
C3108 C 0.99328 0.33209 0.82411 0.0
C3109 C 0.99104 0.32999 0.84424 0.0
C3110 C 0.97998 0.34385 0.85435 0.0
C3111 C 0.9718 0.35962 0.84461 0.0
H3112 H 0.1499 0.95949 0.84993 0.0
H3113 H 0.16239 0.99382 0.79909 0.0
H3114 H 0.17846 0.97331 0.86595 0.0
H3115 H 0.19055 0.00737 0.81501 0.0
H3116 H 0.22259 0.04612 0.85813 0.0
H3117 H 0.19523 0.03014 0.84241 0.0
H3118 H 0.21519 0.97481 0.86358 0.0
H3119 H 0.24261 0.99089 0.87939 0.0
C3120 C 0.15878 0.96977 0.8421 0.0
C3121 C 0.15368 0.97565 0.82329 0.0
C3122 C 0.17513 0.97766 0.85126 0.0
C3123 C 0.18657 0.99162 0.8418 0.0
C3124 C 0.18181 0.99694 0.82281 0.0
C3125 C 0.16565 0.98906 0.81367 0.0
C3126 C 0.22118 0.03054 0.85933 0.0
C3127 C 0.23475 0.01972 0.86984 0.0
C3128 C 0.20556 0.02138 0.85031 0.0
C3129 C 0.2031 1.0012 0.85172 0.0
C3130 C 0.21663 0.99038 0.86236 0.0
C3131 C 0.23238 0.99956 0.87126 0.0
H3132 H 0.54762 0.17554 0.80288 0.0
H3133 H 0.52132 0.14086 0.84784 0.0
H3134 H 0.53221 0.20451 0.81649 0.0
H3135 H 0.50613 0.16957 0.86121 0.0
H3136 H 0.46249 0.21839 0.86462 0.0
H3137 H 0.47966 0.19132 0.84981 0.0
H3138 H 0.53175 0.2258 0.8469 0.0
H3139 H 0.51444 0.25305 0.86179 0.0
C3140 C 0.53877 0.17409 0.81574 0.0
C3141 C 0.53559 0.15581 0.82413 0.0
C3142 C 0.52996 0.19068 0.82353 0.0
C3143 C 0.51772 0.18925 0.83974 0.0
C3144 C 0.51515 0.17109 0.84848 0.0
C3145 C 0.52399 0.15462 0.84083 0.0
C3146 C 0.47756 0.22026 0.86066 0.0
C3147 C 0.48717 0.23777 0.86441 0.0
C3148 C 0.48743 0.20472 0.8523 0.0
C3149 C 0.50712 0.20636 0.84738 0.0
C3150 C 0.51657 0.22413 0.85049 0.0
C3151 C 0.5067 0.23968 0.85904 0.0
H3152 H 0.70406 0.35706 0.99826 0.0
H3153 H 0.66018 0.36501 0.95431 0.0
H3154 H 0.68673 0.3293 0.0106 0.0
H3155 H 0.64299 0.3365 0.96644 0.0
H3156 H 0.60788 0.29753 0.00894 0.0
H3157 H 0.62432 0.32518 0.994 0.0
H3158 H 0.67942 0.29678 1.00268 0.0
H3159 H 0.66306 0.26974 0.01817 0.0
C3160 C 0.69078 0.35276 0.99101 0.0
C3161 C 0.68357 0.36328 0.97517 0.0
C3162 C 0.6809 0.33669 0.99808 0.0
C3163 C 0.66355 0.3305 0.98942 0.0
C3164 C 0.65626 0.34096 0.97354 0.0
C3165 C 0.66616 0.35722 0.96647 0.0
C3166 C 0.6235 0.29729 0.00759 0.0
C3167 C 0.63425 0.28167 0.01488 0.0
C3168 C 0.63291 0.31302 0.99892 0.0
C3169 C 0.65323 0.3133 0.99729 0.0
C3170 C 0.66382 0.29729 1.00408 0.0
C3171 C 0.65445 0.28173 0.01288 0.0
H3172 H 0.67637 0.24422 0.49208 0.0
H3173 H 0.62527 0.20912 0.484 0.0
H3174 H 0.69227 0.21721 0.50861 0.0
H3175 H 0.64113 0.18211 0.50031 0.0
H3176 H 0.66906 0.14304 0.54555 0.0
H3177 H 0.65326 0.17177 0.53226 0.0
H3178 H 0.70498 0.1852 0.49982 0.0
H3179 H 0.72084 0.15681 0.5132 0.0
C3180 C 0.66857 0.23072 0.49385 0.0
C3181 C 0.64966 0.22869 0.48671 0.0
C3182 C 0.67766 0.21526 0.50326 0.0
C3183 C 0.66795 0.19751 0.5058 0.0
C3184 C 0.64891 0.19564 0.49883 0.0
C3185 C 0.63989 0.21105 0.48934 0.0
C3186 C 0.67712 0.15223 0.53574 0.0
C3187 C 0.6962 0.14755 0.53041 0.0
C3188 C 0.66802 0.16862 0.52803 0.0
C3189 C 0.67786 0.18074 0.51494 0.0
C3190 C 0.69707 0.17631 0.51002 0.0
C3191 C 0.70611 0.15992 0.51761 0.0
H3192 H 0.37298 0.6554 0.53714 0.0
H3193 H 0.33799 0.70591 0.54895 0.0
H3194 H 0.34474 0.63847 0.52493 0.0
H3195 H 0.30937 0.68866 0.53702 0.0
H3196 H 0.28845 0.60781 0.51399 0.0
H3197 H 0.31372 0.62426 0.53254 0.0
H3198 H 0.29884 0.67831 0.50476 0.0
H3199 H 0.27334 0.6619 0.48662 0.0
C3200 C 0.35915 0.66279 0.53741 0.0
C3201 C 0.35774 0.68209 0.54374 0.0
C3202 C 0.34291 0.653 0.53055 0.0
C3203 C 0.32484 0.66227 0.52984 0.0
C3204 C 0.32319 0.68125 0.53713 0.0
C3205 C 0.33951 0.69106 0.54411 0.0
C3206 C 0.29058 0.62321 0.51194 0.0
C3207 C 0.27912 0.63358 0.49879 0.0
C3208 C 0.30502 0.63263 0.52254 0.0
C3209 C 0.30828 0.6526 0.52013 0.0
C3210 C 0.29651 0.66299 0.50719 0.0
C3211 C 0.28206 0.65357 0.49664 0.0
H3212 H 0.9176 0.30381 0.50517 0.0
H3213 H 0.8719 0.26569 0.52407 0.0
H3214 H 0.90167 0.33091 0.52133 0.0
H3215 H 0.85525 0.29276 0.53901 0.0
H3216 H 0.82777 0.34475 0.56684 0.0
H3217 H 0.84991 0.31778 0.56075 0.0
H3218 H 0.87543 0.34979 0.51338 0.0
H3219 H 0.85425 0.37672 0.52013 0.0
C3220 C 0.90433 0.30118 0.51311 0.0
C3221 C 0.89589 0.28271 0.51318 0.0
C3222 C 0.89499 0.31676 0.52215 0.0
C3223 C 0.87674 0.3143 0.531 0.0
C3224 C 0.86922 0.2954 0.53244 0.0
C3225 C 0.87879 0.27978 0.52379 0.0
C3226 C 0.83824 0.34599 0.55524 0.0
C3227 C 0.83913 0.36285 0.54391 0.0
C3228 C 0.85095 0.33051 0.55168 0.0
C3229 C 0.86463 0.33143 0.53654 0.0
C3230 C 0.86557 0.34851 0.52548 0.0
C3231 C 0.85315 0.36399 0.52921 0.0
H3232 H 0.21839 0.8606 0.46179 0.0
H3233 H 0.24708 0.86388 0.51724 0.0
H3234 H 0.19035 0.84555 0.47713 0.0
H3235 H 0.2189 0.84883 0.53267 0.0
H3236 H 0.16932 0.80508 0.54823 0.0
H3237 H 0.1991 0.81772 0.53368 0.0
H3238 H 0.16539 0.85814 0.50002 0.0
H3239 H 0.13584 0.84567 0.51436 0.0
C3240 C 0.21877 0.8579 0.47724 0.0
C3241 C 0.23483 0.86347 0.48836 0.0
C3242 C 0.20268 0.8494 0.48603 0.0
C3243 C 0.20236 0.8462 0.50613 0.0
C3244 C 0.21878 0.85105 0.51715 0.0
C3245 C 0.23485 0.8597 0.50834 0.0
C3246 C 0.16829 0.81673 0.5378 0.0
C3247 C 0.15016 0.82428 0.53242 0.0
C3248 C 0.18534 0.82397 0.52951 0.0
C3249 C 0.18454 0.83875 0.51555 0.0
C3250 C 0.16645 0.8465 0.51047 0.0
C3251 C 0.1495 0.83941 0.51882 0.0
H3252 H 0.8061 0.14811 0.00542 0.0
H3253 H 0.84222 0.14988 0.95434 0.0
H3254 H 0.82393 0.17501 0.01914 0.0
H3255 H 0.85984 0.17746 0.96798 0.0
H3256 H 0.89911 0.21404 0.00812 0.0
H3257 H 0.88221 0.18647 0.99357 0.0
H3258 H 0.82779 0.20894 0.01481 0.0
H3259 H 0.84476 0.236 0.02977 0.0
C3260 C 0.81775 0.15435 0.99699 0.0
C3261 C 0.82262 0.14689 0.97869 0.0
C3262 C 0.82794 0.1699 0.00486 0.0
C3263 C 0.84321 0.17856 0.99461 0.0
C3264 C 0.84824 0.17103 0.97633 0.0
C3265 C 0.83806 0.15532 0.96846 0.0
C3266 C 0.88355 0.21297 0.0097 0.0
C3267 C 0.87323 0.22702 0.02017 0.0
C3268 C 0.87385 0.19729 1.00125 0.0
C3269 C 0.85364 0.19543 1.00307 0.0
C3270 C 0.84339 0.20969 0.01342 0.0
C3271 C 0.85309 0.22525 0.02193 0.0
H3272 H 0.36684 0.85274 0.97013 0.0
H3273 H 0.34287 0.7953 0.97635 0.0
H3274 H 0.33742 0.86653 0.98422 0.0
H3275 H 0.3136 0.80915 0.99082 0.0
H3276 H 0.28083 0.84377 0.04079 0.0
H3277 H 0.308 0.82859 0.02363 0.0
H3278 H 0.30008 0.8682 0.97602 0.0
H3279 H 0.27267 0.88304 0.99292 0.0
C3280 C 0.35522 0.84308 0.97433 0.0
C3281 C 0.35716 0.82293 0.97208 0.0
C3282 C 0.33838 0.85098 0.98236 0.0
C3283 C 0.3233 0.83888 0.98868 0.0
C3284 C 0.32507 0.81877 0.98615 0.0
C3285 C 0.34175 0.81088 0.97773 0.0
C3286 C 0.28479 0.84907 0.02658 0.0
C3287 C 0.27466 0.86453 0.01815 0.0
C3288 C 0.30026 0.84036 0.01675 0.0
C3289 C 0.30611 0.84725 0.99852 0.0
C3290 C 0.2959 0.86266 0.99008 0.0
C3291 C 0.28019 0.87108 0.99971 0.0
H3292 H 0.16341 0.70739 0.98112 0.0
H3293 H 0.13516 0.65319 0.96789 0.0
H3294 H 0.19111 0.68998 0.99399 0.0
H3295 H 0.16248 0.63559 0.98176 0.0
H3296 H 0.22711 0.65604 0.0363 0.0
H3297 H 0.19983 0.67249 0.02128 0.0
H3298 H 0.19499 0.6261 0.97938 0.0
H3299 H 0.22169 0.60922 0.99524 0.0
C3300 C 0.16315 0.6917 0.98098 0.0
C3301 C 0.14712 0.68164 0.97356 0.0
C3302 C 0.17896 0.68168 0.98856 0.0
C3303 C 0.17899 0.66131 0.98931 0.0
C3304 C 0.16313 0.65124 0.98131 0.0
C3305 C 0.14742 0.66131 0.97337 0.0
C3306 C 0.22012 0.64935 0.02394 0.0
C3307 C 0.22646 0.6314 0.01691 0.0
C3308 C 0.20458 0.65885 0.01516 0.0
C3309 C 0.19524 0.6508 0.99889 0.0
C3310 C 0.20161 0.63269 0.99198 0.0
C3311 C 0.21697 0.62304 1.00099 0.0
H3312 H 0.04929 0.34371 0.64461 0.0
H3313 H 0.00533 0.30001 0.6535 0.0
H3314 H 0.03732 0.36135 0.67291 0.0
H3315 H 0.99313 0.31779 0.68107 0.0
H3316 H 0.98565 0.34326 0.74027 0.0
H3317 H 1.00066 0.32602 0.71343 0.0
H3318 H 0.00998 0.38033 0.68379 0.0
H3319 H 0.99553 0.39762 0.71115 0.0
C3320 C 0.03716 0.33783 0.65259 0.0
C3321 C 0.02839 0.32037 0.6468 0.0
C3322 C 0.03018 0.34801 0.66872 0.0
C3323 C 0.01429 0.34097 0.67936 0.0
C3324 C 0.00563 0.32349 0.67353 0.0
C3325 C 0.01262 0.31332 0.65756 0.0
C3326 C 0.99095 0.3515 0.72803 0.0
C3327 C 0.98932 0.37173 0.72769 0.0
C3328 C 0.99948 0.34163 0.71259 0.0
C3329 C 0.0064 0.35174 0.69632 0.0
C3330 C 0.00501 0.37208 0.69615 0.0
C3331 C 0.99659 0.38198 0.71172 0.0
H3332 H 0.20501 0.05094 0.66731 0.0
H3333 H 0.15419 0.03708 0.63349 0.0
H3334 H 0.18897 0.03842 0.6963 0.0
H3335 H 0.1384 0.02438 0.66223 0.0
H3336 H 0.10991 0.01409 0.72041 0.0
H3337 H 0.12491 0.03236 0.69405 0.0
H3338 H 0.17994 0.00549 0.70681 0.0
H3339 H 0.16499 0.98749 0.73325 0.0
C3340 C 0.19034 0.04551 0.66612 0.0
C3341 C 0.18094 0.04479 0.6481 0.0
C3342 C 0.18122 0.03821 0.68266 0.0
C3343 C 0.1625 0.03024 0.6815 0.0
C3344 C 0.15277 0.03052 0.66365 0.0
C3345 C 0.1619 0.03767 0.64714 0.0
C3346 C 0.12522 0.01218 0.71758 0.0
C3347 C 0.1363 0.99933 0.72873 0.0
C3348 C 0.1338 0.02261 0.70251 0.0
C3349 C 0.15362 0.0204 0.69839 0.0
C3350 C 0.16471 0.00774 0.70981 0.0
C3351 C 0.15612 0.99729 0.72481 0.0
H3352 H 0.46281 0.20706 0.66237 0.0
H3353 H 0.49378 0.1625 0.6311 0.0
H3354 H 0.47744 0.19576 0.69265 0.0
H3355 H 0.50825 0.15144 0.66113 0.0
H3356 H 0.54873 0.15249 0.7128 0.0
H3357 H 0.53264 0.16552 0.68417 0.0
H3358 H 0.47817 0.16596 0.71483 0.0
H3359 H 0.49435 0.15284 0.74357 0.0
C3360 C 0.47254 0.19478 0.66194 0.0
C3361 C 0.47718 0.18579 0.64424 0.0
C3362 C 0.48091 0.18832 0.67928 0.0
C3363 C 0.49421 0.1729 0.67919 0.0
C3364 C 0.49836 0.1636 0.6616 0.0
C3365 C 0.48992 0.1699 0.64438 0.0
C3366 C 0.53337 0.15557 0.71349 0.0
C3367 C 0.52276 0.1516 0.73035 0.0
C3368 C 0.52413 0.1629 0.69708 0.0
C3369 C 0.5041 0.16657 0.69721 0.0
C3370 C 0.49362 0.16333 0.71434 0.0
C3371 C 0.50286 0.1558 0.73074 0.0
H3372 H 0.39391 0.49424 0.72198 0.0
H3373 H 0.35056 0.53916 0.7232 0.0
H3374 H 0.37674 0.47822 0.69554 0.0
H3375 H 0.33388 0.52389 0.69612 0.0
H3376 H 0.29699 0.48392 0.66091 0.0
H3377 H 0.31448 0.49756 0.68822 0.0
H3378 H 0.36861 0.47927 0.66259 0.0
H3379 H 0.35086 0.46472 0.63569 0.0
C3380 C 0.3808 0.50079 0.71639 0.0
C3381 C 0.37348 0.51787 0.72465 0.0
C3382 C 0.371 0.49168 0.70116 0.0
C3383 C 0.35378 0.49961 0.69366 0.0
C3384 C 0.34678 0.51701 0.70176 0.0
C3385 C 0.35642 0.52591 0.71718 0.0
C3386 C 0.31262 0.48265 0.66122 0.0
C3387 C 0.32255 0.47328 0.64614 0.0
C3388 C 0.32271 0.49066 0.6768 0.0
C3389 C 0.34306 0.48987 0.67758 0.0
C3390 C 0.35296 0.48004 0.66267 0.0
C3391 C 0.3428 0.47171 0.6472 0.0
H3392 H 0.0213 0.11102 0.78264 0.0
H3393 H 0.97701 0.15508 0.78261 0.0
H3394 H 0.03846 0.12826 0.80847 0.0
H3395 H 0.99371 0.172 0.80865 0.0
H3396 H 0.04917 0.15482 0.87024 0.0
H3397 H 0.0362 0.13677 0.84257 0.0
H3398 H 0.0222 0.19071 0.81418 0.0
H3399 H 0.03451 0.20855 0.84191 0.0
C3400 C 0.01522 0.12436 0.78822 0.0
C3401 C 0.99789 0.1318 0.7806 0.0
C3402 C 0.02499 0.13418 0.80306 0.0
C3403 C 0.01759 0.15162 0.81054 0.0
C3404 C 1.0001 0.15886 0.80296 0.0
C3405 C 0.99041 0.1491 0.78813 0.0
C3406 C 0.04368 0.16276 0.85788 0.0
C3407 C 0.04264 0.18307 0.8583 0.0
C3408 C 0.03621 0.15244 0.84204 0.0
C3409 C 0.02775 0.16229 0.82632 0.0
C3410 C 0.02804 0.18263 0.82627 0.0
C3411 C 0.03527 0.19288 0.8421 0.0
H3412 H 0.36147 0.01919 0.76549 0.0
H3413 H 0.36095 0.96384 0.79446 0.0
H3414 H 0.34789 0.03451 0.79447 0.0
H3415 H 0.34734 0.97907 0.82332 0.0
H3416 H 0.34832 0.01624 0.87787 0.0
H3417 H 0.36002 1.00206 0.84786 0.0
H3418 H 0.31819 0.03539 0.81557 0.0
H3419 H 0.30639 0.04978 0.84574 0.0
C3420 C 0.35821 0.01028 0.77797 0.0
C3421 C 0.3623 0.99036 0.77779 0.0
C3422 C 0.35041 0.01903 0.79453 0.0
C3423 C 0.34673 0.00803 0.81124 0.0
C3424 C 0.3503 0.98799 0.81078 0.0
C3425 C 0.35796 0.97924 0.79421 0.0
C3426 C 0.34162 0.02068 0.86441 0.0
C3427 C 0.32634 0.03413 0.86427 0.0
C3428 C 0.34826 0.01241 0.8472 0.0
C3429 C 0.33988 0.01742 0.82937 0.0
C3430 C 0.32496 0.03127 0.8291 0.0
C3431 C 0.3182 0.03949 0.84639 0.0
H3432 H 0.50355 0.34971 0.76398 0.0
H3433 H 0.51947 0.39757 0.80083 0.0
H3434 H 0.48533 0.33521 0.79039 0.0
H3435 H 0.5026 0.38251 0.82785 0.0
H3436 H 0.46104 0.35922 0.87128 0.0
H3437 H 0.47395 0.37482 0.84243 0.0
H3438 H 0.48795 0.31848 0.81863 0.0
H3439 H 0.47358 0.30313 0.84683 0.0
C3440 C 0.5033 0.35699 0.77788 0.0
C3441 C 0.5129 0.3747 0.78045 0.0
C3442 C 0.49296 0.34863 0.79312 0.0
C3443 C 0.49244 0.35753 0.81148 0.0
C3444 C 0.50219 0.37533 0.81393 0.0
C3445 C 0.51208 0.38393 0.7985 0.0
C3446 C 0.46655 0.35027 0.85962 0.0
C3447 C 0.46628 0.33003 0.86116 0.0
C3448 C 0.47421 0.35917 0.84316 0.0
C3449 C 0.48238 0.34803 0.82813 0.0
C3450 C 0.48156 0.32767 0.8296 0.0
C3451 C 0.47337 0.31879 0.84582 0.0
H3452 H 0.15255 0.54421 0.78224 0.0
H3453 H 0.1252 0.49006 0.76707 0.0
H3454 H 0.1686 0.52847 0.80958 0.0
H3455 H 0.14115 0.47431 0.79456 0.0
H3456 H 0.15562 0.4631 0.86052 0.0
H3457 H 0.13996 0.4766 0.83174 0.0
H3458 H 0.19409 0.50256 0.81445 0.0
H3459 H 0.20978 0.48915 0.84292 0.0
C3460 C 0.15006 0.52892 0.78471 0.0
C3461 C 0.13773 0.51832 0.77252 0.0
C3462 C 0.15927 0.5199 0.80032 0.0
C3463 C 0.15613 0.50015 0.80419 0.0
C3464 C 0.14373 0.48957 0.79199 0.0
C3465 C 0.13472 0.49854 0.77622 0.0
C3466 C 0.16424 0.47151 0.85048 0.0
C3467 C 0.18398 0.47503 0.85413 0.0
C3468 C 0.15527 0.47919 0.83398 0.0
C3469 C 0.16579 0.49077 0.82095 0.0
C3470 C 0.18557 0.4939 0.82435 0.0
C3471 C 0.19457 0.48605 0.84065 0.0
H3472 H 0.67132 0.04575 0.30454 0.0
H3473 H 0.63675 0.01208 0.3444 0.0
H3474 H 0.70067 0.03043 0.3173 0.0
H3475 H 0.66587 0.99696 0.35693 0.0
H3476 H 0.718 0.95716 0.35834 0.0
H3477 H 0.69037 0.97362 0.34372 0.0
H3478 H 0.72018 0.02837 0.34883 0.0
H3479 H 0.74794 0.01181 0.36352 0.0
C3480 C 0.66996 0.03522 0.31606 0.0
C3481 C 0.65163 0.03012 0.32336 0.0
C3482 C 0.68676 0.02648 0.32337 0.0
C3483 C 0.68552 0.01234 0.33794 0.0
C3484 C 0.66726 0.00756 0.34546 0.0
C3485 C 0.65056 0.01637 0.33833 0.0
C3486 C 0.71874 0.97268 0.35616 0.0
C3487 C 0.73504 0.98324 0.36212 0.0
C3488 C 0.70288 0.98212 0.3479 0.0
C3489 C 0.70305 1.00231 0.34531 0.0
C3490 C 0.71969 0.01279 0.35059 0.0
C3491 C 0.73552 1.00334 0.35903 0.0
H3492 H 0.46056 0.64568 0.34906 0.0
H3493 H 0.49668 0.65622 0.29899 0.0
H3494 H 0.47394 0.67471 0.36453 0.0
H3495 H 0.50981 0.68488 0.3144 0.0
H3496 H 0.54647 0.71914 0.358 0.0
H3497 H 0.53146 0.69099 0.34265 0.0
H3498 H 0.47504 0.71133 0.36034 0.0
H3499 H 0.49012 0.73954 0.37572 0.0
C3500 C 0.47118 0.6542 0.34129 0.0
C3501 C 0.47756 0.64849 0.3228 0.0
C3502 C 0.4788 0.67084 0.35013 0.0
C3503 C 0.49306 0.68194 0.34072 0.0
C3504 C 0.49908 0.67645 0.32213 0.0
C3505 C 0.49141 0.66002 0.31326 0.0
C3506 C 0.53087 0.71764 0.3585 0.0
C3507 C 0.51944 0.73153 0.36792 0.0
C3508 C 0.52226 0.70156 0.34971 0.0
C3509 C 0.50206 0.69898 0.35029 0.0
C3510 C 0.49064 0.71287 0.3598 0.0
C3511 C 0.49925 0.72906 0.36845 0.0
H3512 H 0.79824 0.52686 0.39551 0.0
H3513 H 0.76087 0.51644 0.3465 0.0
H3514 H 0.82524 0.51197 0.37817 0.0
H3515 H 0.78788 0.50144 0.32911 0.0
H3516 H 0.84702 0.50028 0.29732 0.0
H3517 H 0.81893 0.51242 0.31479 0.0
H3518 H 0.83624 0.48002 0.36533 0.0
H3519 H 0.86457 0.46788 0.34786 0.0
C3520 C 0.79581 0.52132 0.38104 0.0
C3521 C 0.77752 0.52286 0.37229 0.0
C3522 C 0.81122 0.51266 0.37117 0.0
C3523 C 0.8087 0.5055 0.35228 0.0
C3524 C 0.79032 0.50697 0.34358 0.0
C3525 C 0.77486 0.5155 0.35353 0.0
C3526 C 0.84482 0.49562 0.31213 0.0
C3527 C 0.8581 0.48314 0.32121 0.0
C3528 C 0.82863 0.5025 0.3221 0.0
C3529 C 0.82536 0.4972 0.34144 0.0
C3530 C 0.83846 0.48449 0.35048 0.0
C3531 C 0.85461 0.47744 0.34043 0.0
H3532 H 0.02576 0.84646 0.29911 0.0
H3533 H 0.04128 0.87372 0.35329 0.0
H3534 H 0.01288 0.81882 0.31659 0.0
H3535 H 0.02778 0.84626 0.37088 0.0
H3536 H 0.01624 0.78579 0.3957 0.0
H3537 H 0.03139 0.81275 0.37859 0.0
H3538 H 0.98558 0.81107 0.33593 0.0
H3539 H 0.97095 0.78368 0.35269 0.0
C3540 C 0.02645 0.84655 0.31477 0.0
C3541 C 0.03449 0.86235 0.3248 0.0
C3542 C 0.0189 0.83074 0.32483 0.0
C3543 C 0.019 0.83039 0.34518 0.0
C3544 C 0.02758 0.84595 0.35521 0.0
C3545 C 0.03531 0.86172 0.34512 0.0
C3546 C 0.00945 0.79124 0.38266 0.0
C3547 C 0.99249 0.78265 0.37544 0.0
C3548 C 0.01806 0.80675 0.37291 0.0
C3549 C 0.0098 0.81405 0.35579 0.0
C3550 C 0.9926 0.80558 0.34882 0.0
C3551 C 0.9841 0.78998 0.35849 0.0
H3552 H 0.66896 0.48924 0.20687 0.0
H3553 H 0.64483 0.46762 0.15325 0.0
H3554 H 0.69647 0.50222 0.18935 0.0
H3555 H 0.67277 0.48039 0.13573 0.0
H3556 H 0.71193 0.52857 0.11005 0.0
H3557 H 0.68551 0.51204 0.1267 0.0
H3558 H 0.7253 0.49372 0.17135 0.0
H3559 H 0.75165 0.51059 0.15476 0.0
C3560 C 0.66958 0.48702 0.19136 0.0
C3561 C 0.65451 0.47742 0.18151 0.0
C3562 C 0.6855 0.4944 0.18131 0.0
C3563 C 0.68686 0.49242 0.16111 0.0
C3564 C 0.67207 0.48239 0.15127 0.0
C3565 C 0.6561 0.47495 0.16134 0.0
C3566 C 0.71502 0.52095 0.12339 0.0
C3567 C 0.7338 0.52095 0.13119 0.0
C3568 C 0.69991 0.51133 0.13286 0.0
C3569 C 0.70324 0.50154 0.15039 0.0
C3570 C 0.72216 0.50131 0.158 0.0
C3571 C 0.73728 0.5109 0.14849 0.0
H3572 H 0.05687 0.64691 0.16076 0.0
H3573 H 0.01499 0.65773 0.20604 0.0
H3574 H 0.04497 0.67527 0.14324 0.0
H3575 H 1.00284 0.68536 0.18839 0.0
H3576 H 0.99472 0.74369 0.16178 0.0
H3577 H 0.01058 0.71737 0.17902 0.0
H3578 H 0.01689 0.68591 0.12523 0.0
H3579 H 1.00161 0.71274 0.10791 0.0
C3580 C 0.04522 0.65535 0.16703 0.0
C3581 C 0.03695 0.65003 0.18486 0.0
C3582 C 0.0383 0.67151 0.15692 0.0
C3583 C 0.02296 0.68265 0.16441 0.0
C3584 C 0.01491 0.67739 0.18232 0.0
C3585 C 0.02184 0.66139 0.19242 0.0
C3586 C 0.99958 0.73118 0.15366 0.0
C3587 C 0.99682 0.73014 0.13357 0.0
C3588 C 0.0086 0.71604 0.16352 0.0
C3589 C 0.01487 0.6994 0.15356 0.0
C3590 C 0.01244 0.69858 0.13334 0.0
C3591 C 1.00355 0.71385 0.12343 0.0
H3592 H 0.76956 0.02044 0.12439 0.0
H3593 H 0.79 0.96516 0.14514 0.0
H3594 H 0.79681 0.03659 0.14049 0.0
H3595 H 0.81706 0.98126 0.16131 0.0
H3596 H 0.84644 0.0187 0.20689 0.0
H3597 H 0.81909 0.00493 0.1897 0.0
H3598 H 0.83467 0.03712 0.13852 0.0
H3599 H 0.86244 0.05105 0.1557 0.0
C3600 C 0.77987 0.01178 0.13241 0.0
C3601 C 0.77765 0.9916 0.1337 0.0
C3602 C 0.79548 0.02099 0.14148 0.0
C3603 C 0.80893 0.01016 0.1522 0.0
C3604 C 0.80676 0.98996 0.15331 0.0
C3605 C 0.79132 0.98075 0.14405 0.0
C3606 C 0.84405 0.02309 0.19204 0.0
C3607 C 0.85677 0.03597 0.18268 0.0
C3608 C 0.82841 0.01505 0.18216 0.0
C3609 C 0.82492 0.0198 0.16275 0.0
C3610 C 0.83708 0.03325 0.15352 0.0
C3611 C 0.85296 0.04118 0.16335 0.0
H3612 H 0.45997 0.83954 0.20314 0.0
H3613 H 0.49339 0.87324 0.16237 0.0
H3614 H 0.47495 0.80991 0.19073 0.0
H3615 H 0.50817 0.84376 0.15006 0.0
H3616 H 0.54761 0.79128 0.14863 0.0
H3617 H 0.5315 0.81953 0.1625 0.0
H3618 H 0.47679 0.78928 0.16069 0.0
H3619 H 0.49301 0.7609 0.14686 0.0
C3620 C 0.47034 0.84065 0.19144 0.0
C3621 C 0.47552 0.85883 0.18384 0.0
C3622 C 0.47891 0.82366 0.18432 0.0
C3623 C 0.49293 0.82451 0.16958 0.0
C3624 C 0.4977 0.84264 0.16168 0.0
C3625 C 0.48908 0.85954 0.16867 0.0
C3626 C 0.53218 0.79059 0.1514 0.0
C3627 C 0.52155 0.77393 0.14664 0.0
C3628 C 0.52293 0.80682 0.1592 0.0
C3629 C 0.50283 0.80672 0.1625 0.0
C3630 C 0.4923 0.78977 0.15839 0.0
C3631 C 0.50156 0.77356 0.15044 0.0
H3632 H 0.34317 0.74183 0.99432 0.0
H3633 H 0.39491 0.7081 0.98478 0.0
H3634 H 0.32793 0.71401 0.01001 0.0
H3635 H 0.37966 0.68021 1.00034 0.0
H3636 H 0.35145 0.63939 0.0449 0.0
H3637 H 0.3674 0.66839 0.03215 0.0
H3638 H 0.3159 0.68227 0.99954 0.0
H3639 H 0.29996 0.65374 0.01232 0.0
C3640 C 0.35126 0.72845 0.9956 0.0
C3641 C 0.37014 0.72704 0.98826 0.0
C3642 C 0.34255 0.71252 0.00453 0.0
C3643 C 0.35258 0.69489 0.00639 0.0
C3644 C 0.37162 0.69363 0.99932 0.0
C3645 C 0.38029 0.70954 0.99028 0.0
C3646 C 0.3435 0.64873 0.03514 0.0
C3647 C 0.32442 0.6442 0.02965 0.0
C3648 C 0.35267 0.66526 0.02774 0.0
C3649 C 0.34288 0.67764 0.01486 0.0
C3650 C 0.32375 0.67321 0.00963 0.0
C3651 C 0.31466 0.65672 0.01689 0.0
H3652 H 0.36001 0.76351 0.49559 0.0
H3653 H 0.36145 0.79625 0.54884 0.0
H3654 H 0.34699 0.79181 0.47858 0.0
H3655 H 0.34845 0.82441 0.53196 0.0
H3656 H 0.34927 0.87649 0.49203 0.0
H3657 H 0.36114 0.84706 0.50718 0.0
H3658 H 0.3177 0.81372 0.47699 0.0
H3659 H 0.30569 0.84332 0.46165 0.0
C3660 C 0.35733 0.77669 0.50368 0.0
C3661 C 0.36177 0.77772 0.52351 0.0
C3662 C 0.34985 0.79286 0.49397 0.0
C3663 C 0.34688 0.81042 0.50388 0.0
C3664 C 0.35087 0.8112 0.52384 0.0
C3665 C 0.35818 0.79503 0.53355 0.0
C3666 C 0.34227 0.86291 0.48845 0.0
C3667 C 0.32641 0.86235 0.47567 0.0
C3668 C 0.34902 0.84603 0.49727 0.0
C3669 C 0.3402 0.82808 0.49351 0.0
C3670 C 0.32481 0.82733 0.48017 0.0
C3671 C 0.31794 0.84431 0.4714 0.0
H3672 H 0.72395 0.35623 0.54908 0.0
H3673 H 0.75559 0.35794 0.49523 0.0
H3674 H 0.69611 0.34227 0.53228 0.0
H3675 H 0.72767 0.34396 0.47836 0.0
H3676 H 0.67739 0.3023 0.45988 0.0
H3677 H 0.70675 0.31389 0.47608 0.0
H3678 H 0.67271 0.35536 0.50815 0.0
H3679 H 0.64353 0.34394 0.49214 0.0
C3680 C 0.72503 0.35337 0.53369 0.0
C3681 C 0.7419 0.3582 0.52344 0.0
C3682 C 0.70905 0.34552 0.52404 0.0
C3683 C 0.70962 0.3422 0.50395 0.0
C3684 C 0.72681 0.34628 0.49384 0.0
C3685 C 0.74277 0.3543 0.50349 0.0
C3686 C 0.67619 0.31399 0.47028 0.0
C3687 C 0.65804 0.32214 0.47469 0.0
C3688 C 0.69302 0.32062 0.47954 0.0
C3689 C 0.69201 0.33539 0.49355 0.0
C3690 C 0.67393 0.34373 0.49769 0.0
C3691 C 0.6572 0.33726 0.48835 0.0
H3692 H 0.20971 0.65363 0.49819 0.0
H3693 H 0.16196 0.64702 0.45823 0.0
H3694 H 0.19491 0.68257 0.51135 0.0
H3695 H 0.14694 0.67625 0.47175 0.0
H3696 H 0.13627 0.74035 0.49068 0.0
H3697 H 0.15124 0.71215 0.47512 0.0
H3698 H 0.16675 0.68969 0.53137 0.0
H3699 H 0.15205 0.71785 0.54677 0.0
C3700 C 0.19601 0.65832 0.49217 0.0
C3701 C 0.18694 0.64782 0.47723 0.0
C3702 C 0.18749 0.67494 0.49983 0.0
C3703 C 0.16963 0.6816 0.49279 0.0
C3704 C 0.16076 0.67151 0.47743 0.0
C3705 C 0.16932 0.65474 0.46973 0.0
C3706 C 0.143 0.7294 0.49965 0.0
C3707 C 0.14315 0.73133 0.51991 0.0
C3708 C 0.15142 0.7132 0.49077 0.0
C3709 C 0.16025 0.6987 0.50199 0.0
C3710 C 0.16033 0.70072 0.52227 0.0
C3711 C 0.15188 0.71683 0.53111 0.0
H3712 H 0.84589 0.21762 0.48693 0.0
H3713 H 0.87983 0.1688 0.46772 0.0
H3714 H 0.82282 0.19595 0.50181 0.0
H3715 H 0.85702 0.14678 0.48366 0.0
H3716 H 0.79362 0.1565 0.54317 0.0
H3717 H 0.81962 0.17554 0.52891 0.0
H3718 H 0.82442 0.13405 0.48224 0.0
H3719 H 0.79879 0.11458 0.4971 0.0
C3720 C 0.84858 0.20219 0.48603 0.0
C3721 C 0.86497 0.19497 0.47638 0.0
C3722 C 0.83537 0.18971 0.49479 0.0
C3723 C 0.83818 0.16956 0.49436 0.0
C3724 C 0.85438 0.16222 0.48434 0.0
C3725 C 0.8676 0.17483 0.47536 0.0
C3726 C 0.80038 0.15135 0.52998 0.0
C3727 C 0.7941 0.13416 0.52116 0.0
C3728 C 0.81521 0.16233 0.52169 0.0
C3729 C 0.82395 0.15656 0.50418 0.0
C3730 C 0.81813 0.13892 0.49575 0.0
C3731 C 0.80338 0.1278 0.50421 0.0
H3732 H 0.16264 0.77477 0.98066 0.0
H3733 H 0.10841 0.78931 0.00811 0.0
H3734 H 0.17827 0.80196 0.9971 0.0
H3735 H 0.12404 0.81634 0.02479 0.0
H3736 H 0.15388 0.87609 0.02982 0.0
H3737 H 0.13794 0.84781 0.01615 0.0
H3738 H 0.18799 0.8129 0.02976 0.0
H3739 H 0.20417 0.84135 0.04325 0.0
C3740 C 0.1541 0.78377 0.99026 0.0
C3741 C 0.13433 0.78005 0.99307 0.0
C3742 C 0.16306 0.79922 0.9998 0.0
C3743 C 0.1524 0.81126 0.01229 0.0
C3744 C 0.1326 0.80744 0.01512 0.0
C3745 C 0.12366 0.79195 0.00562 0.0
C3746 C 0.16148 0.86237 0.03004 0.0
C3747 C 0.18037 0.86101 0.03752 0.0
C3748 C 0.15227 0.84613 0.0223 0.0
C3749 C 0.16175 0.82815 0.02177 0.0
C3750 C 0.18043 0.82663 0.02974 0.0
C3751 C 0.18962 0.84289 0.03761 0.0
H3752 H 0.72505 0.15927 0.97683 0.0
H3753 H 0.72193 0.11173 0.01719 0.0
H3754 H 0.69863 0.17539 0.99363 0.0
H3755 H 0.69579 0.12818 0.0346 0.0
H3756 H 0.63469 0.15566 0.04566 0.0
H3757 H 0.66229 0.1379 0.03227 0.0
H3758 H 0.69236 0.19201 0.02297 0.0
H3759 H 0.66464 0.20961 0.03557 0.0
C3760 C 0.71875 0.15233 0.9894 0.0
C3761 C 0.72553 0.13431 0.99575 0.0
C3762 C 0.70371 0.16163 0.99917 0.0
C3763 C 0.69522 0.15324 0.01569 0.0
C3764 C 0.70191 0.13503 0.0219 0.0
C3765 C 0.71691 0.12564 0.01199 0.0
C3766 C 0.64739 0.16367 0.04109 0.0
C3767 C 0.64746 0.18401 0.04144 0.0
C3768 C 0.6632 0.15351 0.0334 0.0
C3769 C 0.6794 0.16355 0.02611 0.0
C3770 C 0.6799 0.18383 0.02784 0.0
C3771 C 0.66408 0.19393 0.03525 0.0
H3772 H 0.85643 0.30597 0.00945 0.0
H3773 H 0.86369 0.34981 0.05361 0.0
H3774 H 0.82932 0.32354 0.99617 0.0
H3775 H 0.83573 0.36725 0.04055 0.0
H3776 H 0.79718 0.40266 0.9984 0.0
H3777 H 0.82477 0.38605 0.01322 0.0
H3778 H 0.79679 0.33098 1.00287 0.0
H3779 H 0.76983 0.34753 0.98746 0.0
C3780 C 0.8521 0.31923 0.01653 0.0
C3781 C 0.86221 0.32634 0.03273 0.0
C3782 C 0.83639 0.32933 0.00893 0.0
C3783 C 0.83012 0.34674 0.01739 0.0
C3784 C 0.84024 0.35396 0.03359 0.0
C3785 C 0.85616 0.34387 0.04114 0.0
C3786 C 0.79705 0.387 0.99929 0.0
C3787 C 0.78152 0.37634 0.99163 0.0
C3788 C 0.81276 0.37749 0.00792 0.0
C3789 C 0.81312 0.35714 0.00914 0.0
C3790 C 0.79727 0.34662 1.00181 0.0
C3791 C 0.78174 0.35609 0.99304 0.0
H3792 H 0.09178 0.69009 0.03557 0.0
H3793 H 0.07716 0.63877 1.00284 0.0
H3794 H 0.09175 0.67123 0.06531 0.0
H3795 H 0.07693 0.61988 0.03276 0.0
H3796 H 0.08054 0.63488 0.11828 0.0
H3797 H 0.07204 0.65227 0.08847 0.0
H3798 H 0.10267 0.60929 0.05484 0.0
H3799 H 0.11087 0.59202 0.08443 0.0
C3800 C 0.08834 0.67481 0.03473 0.0
C3801 C 0.08468 0.6659 0.01679 0.0
C3802 C 0.08813 0.66403 0.05184 0.0
C3803 C 0.08437 0.64404 0.05143 0.0
C3804 C 0.08005 0.63524 0.03355 0.0
C3805 C 0.08014 0.64606 0.01641 0.0
C3806 C 0.08501 0.62899 0.10444 0.0
C3807 C 0.09647 0.61224 0.10361 0.0
C3808 C 0.08031 0.63899 0.08741 0.0
C3809 C 0.0868 0.63224 0.06928 0.0
C3810 C 0.09728 0.61482 0.06849 0.0
C3811 C 0.1021 0.60498 0.08545 0.0
H3812 H 0.91561 0.11003 0.08289 0.0
H3813 H 0.8745 0.07642 0.1157 0.0
H3814 H 0.89819 0.10274 0.05321 0.0
H3815 H 0.85713 0.06851 0.08571 0.0
H3816 H 0.81693 0.08653 0.03469 0.0
H3817 H 0.83651 0.08632 0.06396 0.0
H3818 H 0.88822 0.08003 0.02932 0.0
H3819 H 0.86859 0.0808 0.99993 0.0
C3820 C 0.90306 0.10064 0.08364 0.0
C3821 C 0.89631 0.09394 0.10162 0.0
C3822 C 0.8931 0.09635 0.06657 0.0
C3823 C 0.87608 0.08518 0.06698 0.0
C3824 C 0.87 0.07743 0.08487 0.0
C3825 C 0.88005 0.08173 0.10203 0.0
C3826 C 0.83247 0.08497 0.03328 0.0
C3827 C 0.84119 0.08389 0.01491 0.0
C3828 C 0.84372 0.08466 0.05014 0.0
C3829 C 0.86401 0.08319 0.04911 0.0
C3830 C 0.87267 0.08146 0.03071 0.0
C3831 C 0.8614 0.08184 0.01383 0.0
H3832 H 0.43851 0.87291 1.00194 0.0
H3833 H 0.43067 0.82195 0.03727 0.0
H3834 H 0.44187 0.89259 0.0313 0.0
H3835 H 0.43347 0.84143 0.06629 0.0
H3836 H 0.41044 0.91954 0.08528 0.0
H3837 H 0.41933 0.90339 0.05532 0.0
H3838 H 0.45204 0.86115 0.08786 0.0
H3839 H 0.44243 0.87714 0.11806 0.0
C3840 C 0.43777 0.86588 0.01593 0.0
C3841 C 0.43403 0.84593 0.01726 0.0
C3842 C 0.43961 0.87714 0.03276 0.0
C3843 C 0.43782 0.86866 0.05124 0.0
C3844 C 0.4352 0.84851 0.05242 0.0
C3845 C 0.43334 0.83733 0.03569 0.0
C3846 C 0.41987 0.90702 0.086 0.0
C3847 C 0.42544 0.89936 0.104 0.0
C3848 C 0.42513 0.89783 0.06877 0.0
C3849 C 0.43616 0.88074 0.06911 0.0
C3850 C 0.4432 0.87407 0.08709 0.0
C3851 C 0.43789 0.88331 0.10439 0.0
H3852 H 0.63484 0.4318 0.1175 0.0
H3853 H 0.58904 0.40564 0.084 0.0
H3854 H 0.65222 0.43954 0.08753 0.0
H3855 H 0.6064 0.41285 0.05424 0.0
H3856 H 0.63813 0.43429 1.00173 0.0
H3857 H 0.61916 0.43626 0.03158 0.0
H3858 H 0.66946 0.41917 0.06458 0.0
H3859 H 0.68838 0.41757 0.03499 0.0
C3860 C 0.6283 0.42814 0.10372 0.0
C3861 C 0.61073 0.41795 0.10305 0.0
C3862 C 0.63831 0.43237 0.08657 0.0
C3863 C 0.63084 0.42658 0.06846 0.0
C3864 C 0.61257 0.41765 0.06785 0.0
C3865 C 0.60265 0.41339 0.08492 0.0
C3866 C 0.64516 0.43115 0.01539 0.0
C3867 C 0.66472 0.42558 0.01594 0.0
C3868 C 0.63429 0.43225 0.0325 0.0
C3869 C 0.64277 0.42787 0.05052 0.0
C3870 C 0.6625 0.42294 0.05105 0.0
C3871 C 0.67332 0.4218 0.034 0.0
H3872 H 0.06129 0.82146 0.47295 0.0
H3873 H 0.07749 0.87315 0.50429 0.0
H3874 H 0.06138 0.83961 0.44277 0.0
H3875 H 0.07786 0.8913 0.47394 0.0
H3876 H 0.06893 0.92224 0.41703 0.0
H3877 H 0.05966 0.90426 0.44624 0.0
H3878 H 0.08711 0.85303 0.42301 0.0
H3879 H 0.0961 0.87103 0.39399 0.0
C3880 C 0.06467 0.83676 0.47346 0.0
C3881 C 0.06958 0.84579 0.49106 0.0
C3882 C 0.06479 0.84716 0.45609 0.0
C3883 C 0.06983 0.86688 0.45584 0.0
C3884 C 0.07375 0.87617 0.47359 0.0
C3885 C 0.07362 0.86574 0.49101 0.0
C3886 C 0.07232 0.90695 0.41799 0.0
C3887 C 0.0829 0.89787 0.40321 0.0
C3888 C 0.06728 0.89673 0.43479 0.0
C3889 C 0.07272 0.87721 0.43707 0.0
C3890 C 0.08243 0.86794 0.42171 0.0
C3891 C 0.08756 0.87819 0.40504 0.0
H3892 H 0.64524 0.07288 0.38845 0.0
H3893 H 0.5999 0.101 0.42083 0.0
H3894 H 0.66252 0.06601 0.41872 0.0
H3895 H 0.61711 0.09468 0.45088 0.0
H3896 H 0.64847 0.07565 0.50433 0.0
H3897 H 0.62947 0.0728 0.47465 0.0
H3898 H 0.68034 0.08639 0.44089 0.0
H3899 H 0.69935 0.08875 0.47043 0.0
C3900 C 0.63872 0.07704 0.40209 0.0
C3901 C 0.62129 0.08745 0.40236 0.0
C3902 C 0.6487 0.07338 0.41941 0.0
C3903 C 0.64137 0.08004 0.43729 0.0
C3904 C 0.62318 0.08917 0.43752 0.0
C3905 C 0.61329 0.09284 0.42028 0.0
C3906 C 0.65562 0.07788 0.49056 0.0
C3907 C 0.67541 0.08261 0.4898 0.0
C3908 C 0.64472 0.07627 0.47352 0.0
C3909 C 0.65332 0.07938 0.4553 0.0
C3910 C 0.67324 0.08357 0.45458 0.0
C3911 C 0.68413 0.08515 0.47159 0.0
H3912 H 0.43931 0.62933 0.39342 0.0
H3913 H 0.40214 0.59185 0.42678 0.0
H3914 H 0.44921 0.64591 0.42323 0.0
H3915 H 0.41133 0.60866 0.45626 0.0
H3916 H 0.43429 0.68816 0.47374 0.0
H3917 H 0.43379 0.66827 0.44477 0.0
H3918 H 0.43487 0.61669 0.4801 0.0
H3919 H 0.43477 0.63676 0.50928 0.0
C3920 C 0.43352 0.62443 0.40714 0.0
C3921 C 0.41973 0.60949 0.40772 0.0
C3922 C 0.43902 0.63404 0.42422 0.0
C3923 C 0.4309 0.62882 0.44222 0.0
C3924 C 0.41805 0.61305 0.4428 0.0
C3925 C 0.41259 0.60351 0.42582 0.0
C3926 C 0.43466 0.67257 0.47539 0.0
C3927 C 0.43429 0.66407 0.49389 0.0
C3928 C 0.43456 0.66112 0.45869 0.0
C3929 C 0.43414 0.64081 0.45998 0.0
C3930 C 0.43486 0.63229 0.47851 0.0
C3931 C 0.43492 0.64379 0.49528 0.0
H3932 H 0.87702 0.441 0.51071 0.0
H3933 H 0.82578 0.45002 0.47604 0.0
H3934 H 0.89688 0.44204 0.48142 0.0
H3935 H 0.84533 0.45036 0.44694 0.0
H3936 H 0.88298 0.45364 0.39528 0.0
H3937 H 0.86905 0.46417 0.42618 0.0
H3938 H 0.90177 0.4198 0.45576 0.0
H3939 H 0.91606 0.40998 0.42521 0.0
C3940 C 0.87003 0.44351 0.49691 0.0
C3941 C 0.84979 0.44513 0.49572 0.0
C3942 C 0.88138 0.44398 0.48008 0.0
C3943 C 0.87273 0.44602 0.46169 0.0
C3944 C 0.85261 0.44895 0.46075 0.0
C3945 C 0.84132 0.44855 0.47751 0.0
C3946 C 0.88757 0.44659 0.4085 0.0
C3947 C 0.90035 0.4308 0.40781 0.0
C3948 C 0.87946 0.45245 0.4262 0.0
C3949 C 0.88402 0.44266 0.44353 0.0
C3950 C 0.89795 0.42783 0.44287 0.0
C3951 C 0.90602 0.42204 0.42527 0.0
H3952 H 0.03672 0.07948 0.69252 0.0
H3953 H 1.00258 0.07098 0.64082 0.0
H3954 H 0.06606 0.08031 0.67315 0.0
H3955 H 0.03211 0.07118 0.62138 0.0
H3956 H 0.08414 0.10334 0.59363 0.0
H3957 H 0.05481 0.09443 0.61081 0.0
H3958 H 0.08909 0.06381 0.65326 0.0
H3959 H 0.1187 0.07345 0.63613 0.0
C3960 C 0.03548 0.07751 0.67702 0.0
C3961 C 0.01722 0.07537 0.66823 0.0
C3962 C 0.05241 0.07779 0.66588 0.0
C3963 C 0.0516 0.07585 0.64562 0.0
C3964 C 0.03334 0.07302 0.6369 0.0
C3965 C 0.01637 0.07284 0.64806 0.0
C3966 C 0.08538 0.09435 0.60642 0.0
C3967 C 0.10371 0.08925 0.61365 0.0
C3968 C 0.06851 0.08913 0.61626 0.0
C3969 C 0.06946 0.07857 0.63363 0.0
C3970 C 0.08779 0.07227 0.64013 0.0
C3971 C 0.10476 0.07754 0.63021 0.0
H3972 H 0.44247 0.00479 0.63797 0.0
H3973 H 0.4396 0.04215 0.68809 0.0
H3974 H 0.44418 0.03323 0.61703 0.0
H3975 H 0.4406 0.07038 0.66731 0.0
H3976 H 0.41096 0.0853 0.58998 0.0
H3977 H 0.42076 0.0564 0.60733 0.0
H3978 H 0.4567 0.09126 0.64498 0.0
H3979 H 0.44613 0.12046 0.62785 0.0
C3980 C 0.44246 0.01904 0.64454 0.0
C3981 C 0.44059 0.02118 0.66467 0.0
C3982 C 0.44333 0.03537 0.63254 0.0
C3983 C 0.44228 0.05417 0.64041 0.0
C3984 C 0.44165 0.05621 0.66066 0.0
C3985 C 0.44087 0.03994 0.67262 0.0
C3986 C 0.42119 0.08675 0.6018 0.0
C3987 C 0.42748 0.10516 0.60782 0.0
C3988 C 0.427 0.07013 0.61165 0.0
C3989 C 0.43936 0.07143 0.62777 0.0
C3990 C 0.44687 0.08974 0.63286 0.0
C3991 C 0.441 0.10646 0.62295 0.0
H3992 H 0.47404 0.41629 0.69333 0.0
H3993 H 0.50277 0.42747 0.63901 0.0
H3994 H 0.44275 0.41824 0.67737 0.0
H3995 H 0.47132 0.42862 0.62269 0.0
H3996 H 0.41085 0.43757 0.5986 0.0
H3997 H 0.44039 0.44406 0.61732 0.0
H3998 H 0.42509 0.39792 0.6567 0.0
H3999 H 0.39564 0.39206 0.63848 0.0
C4000 C 0.47366 0.41915 0.67792 0.0
C4001 C 0.4909 0.42144 0.66738 0.0
C4002 C 0.45568 0.42021 0.66872 0.0
C4003 C 0.45439 0.42327 0.64862 0.0
C4004 C 0.47166 0.4264 0.63819 0.0
C4005 C 0.48973 0.42561 0.64751 0.0
C4006 C 0.4136 0.4293 0.61163 0.0
C4007 C 0.40098 0.41431 0.6171 0.0
C4008 C 0.43065 0.43279 0.6222 0.0
C4009 C 0.43532 0.42142 0.63849 0.0
C4010 C 0.42201 0.40718 0.64445 0.0
C4011 C 0.4051 0.40373 0.63394 0.0
H4012 H 0.06508 0.50438 0.63219 0.0
H4013 H 0.06145 0.46952 0.68394 0.0
H4014 H 0.06726 0.47497 0.61264 0.0
H4015 H 0.06431 0.44031 0.66461 0.0
H4016 H 0.06406 0.38844 0.62592 0.0
H4017 H 0.05198 0.41803 0.6413 0.0
H4018 H 0.09204 0.4519 0.60719 0.0
H4019 H 0.10332 0.42263 0.59138 0.0
C4020 C 0.06448 0.49046 0.63938 0.0
C4021 C 0.06334 0.48934 0.65965 0.0
C4022 C 0.06587 0.47357 0.62819 0.0
C4023 C 0.06625 0.45519 0.63702 0.0
C4024 C 0.06391 0.45412 0.65721 0.0
C4025 C 0.06242 0.47096 0.66836 0.0
C4026 C 0.06993 0.40227 0.62144 0.0
C4027 C 0.08487 0.40316 0.60768 0.0
C4028 C 0.06315 0.41923 0.63037 0.0
C4029 C 0.07115 0.43742 0.62567 0.0
C4030 C 0.08535 0.43828 0.61112 0.0
C4031 C 0.09205 0.42141 0.60222 0.0
H4032 H 1.00072 0.43004 0.86981 0.0
H4033 H 0.03362 0.42185 0.81725 0.0
H4034 H 0.03081 0.43097 0.8884 0.0
H4035 H 0.06352 0.42233 0.83579 0.0
H4036 H 0.1166 0.43265 0.87143 0.0
H4037 H 0.08606 0.44094 0.85527 0.0
H4038 H 0.05466 0.40748 0.89778 0.0
H4039 H 0.08494 0.39972 0.91396 0.0
C4040 C 0.01435 0.42854 0.86221 0.0
C4041 C 0.01472 0.42569 0.84206 0.0
C4042 C 0.03161 0.42903 0.87287 0.0
C4043 C 0.04965 0.42668 0.86363 0.0
C4044 C 0.04998 0.42448 0.8434 0.0
C4045 C 0.03276 0.424 0.83276 0.0
C4046 C 0.10308 0.42759 0.87756 0.0
C4047 C 0.10311 0.41543 0.89381 0.0
C4048 C 0.08561 0.43213 0.86822 0.0
C4049 C 0.06787 0.42468 0.87507 0.0
C4050 C 0.06794 0.41362 0.89214 0.0
C4051 C 0.08532 0.40906 0.90137 0.0
H4052 H 0.0948 0.07779 0.92554 0.0
H4053 H 0.07827 0.11458 0.87794 0.0
H4054 H 0.0895 0.04925 0.9056 0.0
H4055 H 0.07241 0.08585 0.85785 0.0
H4056 H 0.09846 0.03431 0.82286 0.0
H4057 H 0.09418 0.06301 0.84278 0.0
H4058 H 0.06868 0.02797 0.88784 0.0
H4059 H 0.07342 0.99905 0.86799 0.0
C4060 C 0.08941 0.0797 0.91093 0.0
C4061 C 0.08708 0.09837 0.90322 0.0
C4062 C 0.08629 0.06332 0.89948 0.0
C4063 C 0.08077 0.06518 0.87998 0.0
C4064 C 0.07699 0.08389 0.87271 0.0
C4065 C 0.08009 0.10034 0.88425 0.0
C4066 C 0.0918 0.03269 0.83696 0.0
C4067 C 0.08652 0.0143 0.84391 0.0
C4068 C 0.08914 0.04924 0.84833 0.0
C4069 C 0.08109 0.04788 0.86698 0.0
C4070 C 0.07514 0.02955 0.87365 0.0
C4071 C 0.07783 0.01296 0.86225 0.0
H4072 H 0.50908 0.06916 0.86939 0.0
H4073 H 0.47222 0.08236 0.82065 0.0
H4074 H 0.48043 0.06505 0.88977 0.0
H4075 H 0.44387 0.07907 0.84095 0.0
H4076 H 0.42909 0.09405 0.92261 0.0
H4077 H 0.45784 0.08603 0.90413 0.0
H4078 H 0.42198 0.06062 0.85949 0.0
H4079 H 0.39299 0.0696 0.87786 0.0
C4080 C 0.49489 0.07101 0.86298 0.0
C4081 C 0.493 0.07634 0.84345 0.0
C4082 C 0.47843 0.06875 0.87468 0.0
C4083 C 0.45971 0.07189 0.86713 0.0
C4084 C 0.45791 0.07624 0.84733 0.0
C4085 C 0.47429 0.07837 0.83567 0.0
C4086 C 0.42737 0.08638 0.90901 0.0
C4087 C 0.40879 0.08279 0.90149 0.0
C4088 C 0.44391 0.08162 0.89843 0.0
C4089 C 0.44235 0.07297 0.88005 0.0
C4090 C 0.42376 0.06771 0.87337 0.0
C4091 C 0.40712 0.0726 0.88398 0.0
H4092 H 0.43534 0.50591 0.86604 0.0
H4093 H 0.4179 0.4726 0.816 0.0
H4094 H 0.43705 0.47619 0.88511 0.0
H4095 H 0.41924 0.44305 0.83509 0.0
H4096 H 0.4309 0.39022 0.87064 0.0
H4097 H 0.43921 0.41979 0.85275 0.0
H4098 H 0.41304 0.45428 0.89797 0.0
H4099 H 0.40513 0.42491 0.91571 0.0
C4100 C 0.43198 0.49226 0.85907 0.0
C4101 C 0.42628 0.49168 0.83954 0.0
C4102 C 0.43294 0.47522 0.87 0.0
C4103 C 0.42824 0.4572 0.86167 0.0
C4104 C 0.42323 0.45659 0.84194 0.0
C4105 C 0.42226 0.47361 0.83103 0.0
C4106 C 0.42753 0.40419 0.87694 0.0
C4107 C 0.41734 0.40536 0.89447 0.0
C4108 C 0.43206 0.4211 0.86664 0.0
C4109 C 0.42659 0.43944 0.87381 0.0
C4110 C 0.41764 0.4405 0.89206 0.0
C4111 C 0.41304 0.42367 0.90222 0.0
H4112 H 0.58257 0.07956 0.09368 0.0
H4113 H 0.62513 0.11849 0.06974 0.0
H4114 H 0.60201 0.05196 0.08393 0.0
H4115 H 0.64452 0.09068 0.05922 0.0
H4116 H 0.68515 0.03955 0.07626 0.0
H4117 H 0.66426 0.06778 0.07612 0.0
H4118 H 0.61574 0.03179 0.05971 0.0
H4119 H 0.63666 1.00328 0.06049 0.0
C4120 C 0.59593 0.08217 0.08589 0.0
C4121 C 0.60249 0.10117 0.08275 0.0
C4122 C 0.60704 0.06631 0.08012 0.0
C4123 C 0.625 0.069 0.07095 0.0
C4124 C 0.63092 0.08805 0.06656 0.0
C4125 C 0.61974 0.104 0.07238 0.0
C4126 C 0.67008 0.03764 0.07237 0.0
C4127 C 0.66253 0.01908 0.06865 0.0
C4128 C 0.65809 0.05393 0.07211 0.0
C4129 C 0.63822 0.05214 0.06804 0.0
C4130 C 0.6309 0.03369 0.06324 0.0
C4131 C 0.64291 0.01734 0.06359 0.0
H4132 H 0.67108 0.48314 0.47159 0.0
H4133 H 0.63768 0.50659 0.42421 0.0
H4134 H 0.65465 0.45207 0.46772 0.0
H4135 H 0.62187 0.47556 0.41988 0.0
H4136 H 0.58891 0.42111 0.41847 0.0
H4137 H 0.60021 0.45204 0.43133 0.0
H4138 H 0.6553 0.42582 0.44538 0.0
H4139 H 0.64343 0.39469 0.43329 0.0
C4140 C 0.66007 0.48174 0.4605 0.0
C4141 C 0.65578 0.49734 0.44814 0.0
C4142 C 0.65076 0.46387 0.45818 0.0
C4143 C 0.637 0.46116 0.44339 0.0
C4144 C 0.63213 0.47707 0.43163 0.0
C4145 C 0.64132 0.49493 0.43404 0.0
C4146 C 0.60324 0.42195 0.42481 0.0
C4147 C 0.61536 0.40565 0.42492 0.0
C4148 C 0.60981 0.43968 0.43199 0.0
C4149 C 0.62883 0.44161 0.43908 0.0
C4150 C 0.64053 0.42492 0.44021 0.0
C4151 C 0.63381 0.40707 0.43326 0.0
H4152 H 0.08402 0.593 0.39946 0.0
H4153 H 0.11711 0.63353 0.43363 0.0
H4154 H 0.05428 0.60988 0.40788 0.0
H4155 H 0.08713 0.65039 0.44253 0.0
H4156 H 0.03597 0.69056 0.42439 0.0
H4157 H 0.06522 0.67105 0.42435 0.0
H4158 H 0.03083 0.61937 0.43203 0.0
H4159 H 1.00134 0.63898 0.4317 0.0
C4160 C 0.08483 0.60531 0.40918 0.0
C4161 C 0.10287 0.6121 0.41573 0.0
C4162 C 0.06775 0.61493 0.41412 0.0
C4163 C 0.06827 0.63164 0.42574 0.0
C4164 C 0.08624 0.63772 0.43332 0.0
C4165 C 0.10339 0.62799 0.42841 0.0
C4166 C 0.03459 0.67505 0.42624 0.0
C4167 C 0.01626 0.66632 0.42783 0.0
C4168 C 0.05145 0.66386 0.42642 0.0
C4169 C 0.05045 0.6436 0.42817 0.0
C4170 C 0.03213 0.63492 0.43045 0.0
C4171 C 0.01522 0.64615 0.43031 0.0
H4172 H 0.82349 0.02786 0.44406 0.0
H4173 H 0.87355 0.9904 0.4443 0.0
H4174 H 0.8443 0.05597 0.444 0.0
H4175 H 0.89467 0.01879 0.44522 0.0
H4176 H 0.92136 0.07103 0.41237 0.0
H4177 H 0.90456 0.04208 0.42283 0.0
H4178 H 0.86643 0.07704 0.45812 0.0
H4179 H 0.8823 0.10618 0.44633 0.0
C4180 C 0.839 0.02561 0.4446 0.0
C4181 C 0.84685 0.00686 0.44384 0.0
C4182 C 0.85102 0.04184 0.44477 0.0
C4183 C 0.87129 0.0398 0.44442 0.0
C4184 C 0.87915 0.02097 0.44506 0.0
C4185 C 0.86705 0.00467 0.44468 0.0
C4186 C 0.90942 0.07257 0.42242 0.0
C4187 C 0.90285 0.09102 0.42802 0.0
C4188 C 0.89993 0.05586 0.4287 0.0
C4189 C 0.88379 0.05712 0.44106 0.0
C4190 C 0.87843 0.07549 0.44816 0.0
C4191 C 0.88775 0.09225 0.44161 0.0
H4192 H 0.46863 0.82167 0.44226 0.0
H4193 H 0.50514 0.87245 0.44418 0.0
H4194 H 0.44008 0.84203 0.44217 0.0
H4195 H 0.47635 0.89299 0.44483 0.0
H4196 H 0.3893 0.88069 0.44508 0.0
H4197 H 0.41852 0.8645 0.45694 0.0
H4198 H 0.45357 0.90156 0.42068 0.0
H4199 H 0.42463 0.91807 0.40965 0.0
C4200 C 0.47057 0.83722 0.44311 0.0
C4201 C 0.48919 0.84545 0.44285 0.0
C4202 C 0.45411 0.84894 0.44327 0.0
C4203 C 0.45583 0.86922 0.44328 0.0
C4204 C 0.47448 0.87743 0.44443 0.0
C4205 C 0.491 0.86566 0.44416 0.0
C4206 C 0.40332 0.88568 0.44014 0.0
C4207 C 0.40469 0.90037 0.42618 0.0
C4208 C 0.42006 0.87631 0.44676 0.0
C4209 C 0.43845 0.88148 0.43955 0.0
C4210 C 0.43977 0.89719 0.42671 0.0
C4211 C 0.42312 0.90654 0.42017 0.0
H4212 H 0.91895 0.42683 0.10752 0.0
H4213 H 0.88467 0.39282 0.06778 0.0
H4214 H 0.90363 0.4562 0.09594 0.0
H4215 H 0.86981 0.4225 0.05539 0.0
H4216 H 0.87934 0.50885 0.06833 0.0
H4217 H 0.89863 0.47936 0.07128 0.0
H4218 H 0.84651 0.44494 0.0672 0.0
H4219 H 0.82747 0.47421 0.06356 0.0
C4220 C 0.9083 0.42567 0.09605 0.0
C4221 C 0.90275 0.40744 0.08885 0.0
C4222 C 0.89967 0.4426 0.08919 0.0
C4223 C 0.8853 0.44183 0.07479 0.0
C4224 C 0.88057 0.42365 0.06673 0.0
C4225 C 0.88922 0.40663 0.07367 0.0
C4226 C 0.87208 0.49496 0.0677 0.0
C4227 C 0.85184 0.49394 0.06593 0.0
C4228 C 0.88311 0.47802 0.06952 0.0
C4229 C 0.87416 0.45967 0.06972 0.0
C4230 C 0.85401 0.4587 0.06691 0.0
C4231 C 0.84303 0.47559 0.06499 0.0
H4232 H 1.00304 0.87035 0.07497 0.0
H4233 H 0.03689 0.81816 0.08128 0.0
H4234 H 0.03275 0.88951 0.07458 0.0
H4235 H 0.06645 0.83726 0.08148 0.0
H4236 H 0.086 0.91553 0.10654 0.0
H4237 H 0.05619 0.89899 0.09791 0.0
H4238 H 0.08891 0.85751 0.06431 0.0
H4239 H 0.11901 0.87395 0.07363 0.0
C4240 C 0.01681 0.86295 0.0762 0.0
C4241 C 0.01755 0.84273 0.07834 0.0
C4242 C 0.03387 0.87394 0.07602 0.0
C4243 C 0.05208 0.86498 0.07808 0.0
C4244 C 0.05278 0.84468 0.07956 0.0
C4245 C 0.03575 0.83371 0.07965 0.0
C4246 C 0.08678 0.90309 0.09699 0.0
C4247 C 0.10482 0.89587 0.09095 0.0
C4248 C 0.06965 0.89364 0.09192 0.0
C4249 C 0.07007 0.87673 0.08058 0.0
C4250 C 0.08807 0.8703 0.07336 0.0
C4251 C 0.1053 0.87982 0.07847 0.0
H4252 H 0.39097 0.62638 0.06957 0.0
H4253 H 0.4273 0.58832 0.10322 0.0
H4254 H 0.41978 0.64366 0.05823 0.0
H4255 H 0.45582 0.6059 0.09272 0.0
H4256 H 0.50674 0.63572 0.06762 0.0
H4257 H 0.47798 0.6151 0.06819 0.0
H4258 H 0.44177 0.66592 0.07282 0.0
H4259 H 0.47029 0.68637 0.07158 0.0
C4260 C 0.40511 0.62153 0.0743 0.0
C4261 C 0.40684 0.60621 0.08756 0.0
C4262 C 0.42162 0.63153 0.06797 0.0
C4263 C 0.44019 0.62638 0.07473 0.0
C4264 C 0.44188 0.61026 0.08703 0.0
C4265 C 0.42546 0.6003 0.09328 0.0
C4266 C 0.4926 0.64247 0.06837 0.0
C4267 C 0.49086 0.66268 0.06981 0.0
C4268 C 0.4761 0.63065 0.06882 0.0
C4269 C 0.45748 0.63879 0.07081 0.0
C4270 C 0.45576 0.65907 0.0711 0.0
C4271 C 0.47221 0.67084 0.07056 0.0
H4272 H 0.92956 0.3773 0.89262 0.0
H4273 H 0.90114 0.42096 0.9271 0.0
H4274 H 0.93772 0.3594 0.92217 0.0
H4275 H 0.90888 0.4031 0.95645 0.0
H4276 H 0.93217 0.37128 0.00822 0.0
H4277 H 0.93322 0.39095 0.97879 0.0
H4278 H 0.9179 0.34072 0.94474 0.0
H4279 H 0.91715 0.32113 0.97392 0.0
C4280 C 0.92546 0.38326 0.90653 0.0
C4281 C 0.91456 0.40038 0.90758 0.0
C4282 C 0.92995 0.37296 0.92344 0.0
C4283 C 0.92376 0.37969 0.9417 0.0
C4284 C 0.914 0.39751 0.94272 0.0
C4285 C 0.90944 0.4077 0.92588 0.0
C4286 C 0.92925 0.36442 0.99442 0.0
C4287 C 0.92439 0.34468 0.99346 0.0
C4288 C 0.9298 0.37569 0.97755 0.0
C4289 C 0.92562 0.36743 0.95936 0.0
C4290 C 0.92147 0.34753 0.95841 0.0
C4291 C 0.92083 0.33632 0.97523 0.0
H4292 H 0.187 0.93843 0.97469 0.0
H4293 H 0.1355 0.939 0.01014 0.0
H4294 H 0.1673 0.93672 0.94578 0.0
H4295 H 0.11552 0.93806 0.98091 0.0
H4296 H 0.09148 0.90309 0.92867 0.0
H4297 H 0.10756 0.91407 0.95789 0.0
H4298 H 0.1453 0.95028 0.92354 0.0
H4299 H 0.12977 0.93831 0.89406 0.0
C4300 C 0.1714 0.93863 0.97632 0.0
C4301 C 0.16284 0.93855 0.99479 0.0
C4302 C 0.16004 0.93783 0.95963 0.0
C4303 C 0.13973 0.93707 0.96088 0.0
C4304 C 0.13112 0.93825 0.97936 0.0
C4305 C 0.14255 0.93894 0.99614 0.0
C4306 C 0.10317 0.91346 0.92733 0.0
C4307 C 0.10966 0.91944 0.90898 0.0
C4308 C 0.11225 0.92001 0.94418 0.0
C4309 C 0.12797 0.93291 0.94319 0.0
C4310 C 0.13352 0.94002 0.92487 0.0
C4311 C 0.12448 0.93333 0.90795 0.0
H4312 H 0.60007 0.09583 0.91927 0.0
H4313 H 0.57388 0.14483 0.89092 0.0
H4314 H 0.59128 0.10915 0.95078 0.0
H4315 H 0.56529 0.15855 0.92261 0.0
H4316 H 0.54363 0.17161 0.98468 0.0
H4317 H 0.54673 0.15561 0.95321 0.0
H4318 H 0.60417 0.13647 0.96881 0.0
H4319 H 0.60101 0.15215 1.00019 0.0
C4320 C 0.59201 0.10928 0.91984 0.0
C4321 C 0.58763 0.11933 0.90275 0.0
C4322 C 0.58717 0.11703 0.93787 0.0
C4323 C 0.57795 0.13512 0.93925 0.0
C4324 C 0.57236 0.14457 0.92206 0.0
C4325 C 0.57719 0.13672 0.90392 0.0
C4326 C 0.55688 0.16389 0.98142 0.0
C4327 C 0.57206 0.16311 0.99501 0.0
C4328 C 0.55867 0.15481 0.96334 0.0
C4329 C 0.57562 0.14462 0.95852 0.0
C4330 C 0.59075 0.14386 0.97216 0.0
C4331 C 0.589 0.15299 0.99014 0.0
H4332 H 0.37124 0.573 0.00588 0.0
H4333 H 0.32108 0.58603 0.9709 0.0
H4334 H 0.39128 0.57226 0.97676 0.0
H4335 H 0.34111 0.58578 0.94196 0.0
H4336 H 0.37891 0.57555 0.89018 0.0
H4337 H 0.36038 0.56737 0.91935 0.0
H4338 H 0.40375 0.5956 0.9546 0.0
H4339 H 0.42229 0.60315 0.92569 0.0
C4340 C 0.36446 0.57562 0.99199 0.0
C4341 C 0.34457 0.57974 0.99079 0.0
C4342 C 0.37597 0.57526 0.97527 0.0
C4343 C 0.36788 0.57903 0.95693 0.0
C4344 C 0.34785 0.58252 0.95572 0.0
C4345 C 0.33636 0.58286 0.97241 0.0
C4346 C 0.38467 0.57948 0.90423 0.0
C4347 C 0.40193 0.59014 0.90566 0.0
C4348 C 0.37397 0.57502 0.92094 0.0
C4349 C 0.3804 0.58104 0.93939 0.0
C4350 C 0.39834 0.59058 0.94076 0.0
C4351 C 0.40894 0.59504 0.92414 0.0
H4352 H 0.90927 0.1778 0.54105 0.0
H4353 H 0.91553 0.12616 0.50624 0.0
H4354 H 0.91136 0.15845 0.57033 0.0
H4355 H 0.91821 0.10676 0.53565 0.0
H4356 H 0.89348 0.07886 0.59149 0.0
H4357 H 0.89767 0.09606 0.56115 0.0
H4358 H 0.93231 0.13923 0.5905 0.0
H4359 H 0.92741 0.12213 0.62121 0.0
C4360 C 0.91121 0.1623 0.53964 0.0
C4361 C 0.91208 0.1535 0.52131 0.0
C4362 C 0.91266 0.15122 0.55647 0.0
C4363 C 0.91511 0.13104 0.5554 0.0
C4364 C 0.91616 0.12225 0.53702 0.0
C4365 C 0.9146 0.13335 0.52016 0.0
C4366 C 0.90226 0.09187 0.59138 0.0
C4367 C 0.90989 0.09935 0.6087 0.0
C4368 C 0.90478 0.10168 0.57395 0.0
C4369 C 0.9151 0.11919 0.57338 0.0
C4370 C 0.92394 0.12596 0.59052 0.0
C4371 C 0.92137 0.1161 0.60805 0.0
H4372 H 0.37091 0.94786 0.50482 0.0
H4373 H 0.32076 0.93604 0.54023 0.0
H4374 H 0.39073 0.95067 0.53403 0.0
H4375 H 0.34047 0.93806 0.56912 0.0
H4376 H 0.42069 0.91854 0.58529 0.0
H4377 H 0.40335 0.92816 0.55634 0.0
H4378 H 0.35945 0.95534 0.59176 0.0
H4379 H 0.37658 0.94475 0.62092 0.0
C4380 C 0.36407 0.94608 0.51881 0.0
C4381 C 0.34432 0.94144 0.52015 0.0
C4382 C 0.37544 0.94759 0.53558 0.0
C4383 C 0.36731 0.94439 0.55403 0.0
C4384 C 0.3473 0.94087 0.5553 0.0
C4385 C 0.33597 0.93948 0.53861 0.0
C4386 C 0.40749 0.92686 0.58689 0.0
C4387 C 0.39975 0.9305 0.60537 0.0
C4388 C 0.3976 0.93258 0.57024 0.0
C4389 C 0.37975 0.94226 0.5716 0.0
C4390 C 0.37293 0.9475 0.59014 0.0
C4391 C 0.38283 0.94166 0.60687 0.0
H4392 H 0.57415 0.37302 0.49743 0.0
H4393 H 0.5819 0.32365 0.53494 0.0
H4394 H 0.57074 0.39392 0.52583 0.0
H4395 H 0.57932 0.34439 0.56306 0.0
H4396 H 0.57084 0.38243 0.61335 0.0
H4397 H 0.56167 0.36455 0.58413 0.0
H4398 H 0.59199 0.40667 0.54915 0.0
H4399 H 0.60013 0.42482 0.57808 0.0
C4400 C 0.57495 0.3666 0.5117 0.0
C4401 C 0.57856 0.34671 0.51388 0.0
C4402 C 0.57309 0.37858 0.52802 0.0
C4403 C 0.57492 0.37095 0.54687 0.0
C4404 C 0.57754 0.35087 0.54891 0.0
C4405 C 0.57926 0.33893 0.53267 0.0
C4406 C 0.57495 0.38814 0.59934 0.0
C4407 C 0.58652 0.4048 0.59803 0.0
C4408 C 0.56993 0.37779 0.58258 0.0
C4409 C 0.57644 0.38387 0.5642 0.0
C4410 C 0.5866 0.40146 0.56291 0.0
C4411 C 0.59148 0.41182 0.57958 0.0
H4412 H 0.13948 0.57414 0.49962 0.0
H4413 H 0.1903 0.58525 0.53437 0.0
H4414 H 0.12018 0.57079 0.52909 0.0
H4415 H 0.17106 0.58242 0.56363 0.0
H4416 H 0.13542 0.56999 0.61554 0.0
H4417 H 0.15246 0.56241 0.5853 0.0
H4418 H 0.10831 0.59283 0.55306 0.0
H4419 H 0.09129 0.59984 0.58306 0.0
C4420 C 0.14656 0.57576 0.51352 0.0
C4421 C 0.16639 0.5802 0.5146 0.0
C4422 C 0.1355 0.57387 0.53043 0.0
C4423 C 0.14401 0.57639 0.5488 0.0
C4424 C 0.16401 0.58009 0.54981 0.0
C4425 C 0.17503 0.58195 0.53296 0.0
C4426 C 0.1291 0.57441 0.60189 0.0
C4427 C 0.11214 0.58556 0.60158 0.0
C4428 C 0.13894 0.57031 0.58459 0.0
C4429 C 0.13194 0.57726 0.56671 0.0
C4430 C 0.11412 0.58709 0.56644 0.0
C4431 C 0.10437 0.59119 0.58365 0.0
H4432 H 0.97236 0.91615 0.31602 0.0
H4433 H 1.00345 0.93581 0.36664 0.0
H4434 H 0.94211 0.9175 0.33395 0.0
H4435 H 0.97294 0.93735 0.38464 0.0
H4436 H 0.92078 0.90352 0.41311 0.0
H4437 H 0.95084 0.91238 0.39692 0.0
H4438 H 0.91803 0.93806 0.3503 0.0
H4439 H 0.88781 0.92893 0.36663 0.0
C4440 C 0.97272 0.92098 0.33094 0.0
C4441 C 0.99037 0.92565 0.33997 0.0
C4442 C 0.9553 0.92197 0.34117 0.0
C4443 C 0.95506 0.92755 0.36075 0.0
C4444 C 0.97265 0.93287 0.36961 0.0
C4445 C 0.99011 0.93202 0.3593 0.0
C4446 C 0.92004 0.91158 0.39968 0.0
C4447 C 0.90205 0.9155 0.39105 0.0
C4448 C 0.93726 0.91671 0.39041 0.0
C4449 C 0.93687 0.92575 0.3722 0.0
C4450 C 0.91881 0.93089 0.36421 0.0
C4451 C 0.90152 0.92586 0.37361 0.0
H4452 H 0.56917 0.97067 0.32215 0.0
H4453 H 0.57209 0.00615 0.37361 0.0
H4454 H 0.56838 0.94175 0.34189 0.0
H4455 H 0.57056 0.97699 0.39361 0.0
H4456 H 0.56374 0.8903 0.3794 0.0
H4457 H 0.55327 0.92065 0.36436 0.0
H4458 H 0.59312 0.9523 0.40089 0.0
H4459 H 0.60279 0.92228 0.41627 0.0
C4460 C 0.56923 0.97234 0.33774 0.0
C4461 C 0.57106 0.99075 0.34629 0.0
C4462 C 0.56855 0.95566 0.34912 0.0
C4463 C 0.56959 0.9569 0.36941 0.0
C4464 C 0.5701 0.97543 0.37802 0.0
C4465 C 0.57086 0.99218 0.36657 0.0
C4466 C 0.56978 0.90384 0.38455 0.0
C4467 C 0.58433 0.9039 0.39874 0.0
C4468 C 0.56396 0.92122 0.37582 0.0
C4469 C 0.57257 0.93898 0.38114 0.0
C4470 C 0.58602 0.93905 0.39642 0.0
C4471 C 0.59176 0.92176 0.40512 0.0
H4472 H 0.53798 0.59312 0.32102 0.0
H4473 H 0.50485 0.57383 0.37038 0.0
H4474 H 0.56761 0.59082 0.33986 0.0
H4475 H 0.53471 0.5712 0.38926 0.0
H4476 H 0.58681 0.60135 0.42083 0.0
H4477 H 0.55714 0.59422 0.40317 0.0
H4478 H 0.5909 0.57013 0.35631 0.0
H4479 H 0.62075 0.57766 0.37411 0.0
C4480 C 0.53702 0.58818 0.33586 0.0
C4481 C 0.51897 0.58389 0.34425 0.0
C4482 C 0.55411 0.58664 0.34663 0.0
C4483 C 0.55363 0.58083 0.36612 0.0
C4484 C 0.53561 0.57591 0.37434 0.0
C4485 C 0.51849 0.57738 0.36351 0.0
C4486 C 0.58783 0.59402 0.40699 0.0
C4487 C 0.60603 0.59009 0.39879 0.0
C4488 C 0.57082 0.58988 0.39686 0.0
C4489 C 0.57157 0.58179 0.37818 0.0
C4490 C 0.5898 0.57663 0.37054 0.0
C4491 C 0.60689 0.5807 0.38079 0.0
H4492 H 0.9019 0.58934 0.41594 0.0
H4493 H 0.92856 0.6257 0.37279 0.0
H4494 H 0.90918 0.56077 0.39669 0.0
H4495 H 0.93622 0.59686 0.35334 0.0
H4496 H 0.91478 0.54498 0.31452 0.0
H4497 H 0.91609 0.57409 0.33448 0.0
H4498 H 0.93385 0.53968 0.38354 0.0
H4499 H 0.93217 0.51052 0.36371 0.0
C4500 C 0.90976 0.5911 0.40249 0.0
C4501 C 0.91458 0.60966 0.39575 0.0
C4502 C 0.91404 0.57473 0.39148 0.0
C4503 C 0.92319 0.57651 0.3734 0.0
C4504 C 0.92896 0.59504 0.36712 0.0
C4505 C 0.92478 0.61151 0.37828 0.0
C4506 C 0.91914 0.54363 0.32952 0.0
C4507 C 0.9231 0.52538 0.33758 0.0
C4508 C 0.92007 0.56037 0.34092 0.0
C4509 C 0.92499 0.55922 0.36064 0.0
C4510 C 0.92976 0.54104 0.36847 0.0
C4511 C 0.92881 0.52432 0.35708 0.0
H4512 H 0.91473 0.57561 0.09793 0.0
H4513 H 0.89604 0.60957 0.14688 0.0
H4514 H 0.94512 0.56811 0.11479 0.0
H4515 H 0.92625 0.60279 0.16341 0.0
H4516 H 0.97765 0.58295 0.19498 0.0
H4517 H 0.9464 0.58061 0.17906 0.0
H4518 H 0.97448 0.58506 0.12333 0.0
H4519 H 0.00605 0.58644 0.13946 0.0
C4520 C 0.91692 0.58102 0.11249 0.0
C4521 C 0.90305 0.59315 0.12113 0.0
C4522 C 0.93443 0.577 0.12205 0.0
C4523 C 0.93833 0.58496 0.14045 0.0
C4524 C 0.92382 0.59613 0.14942 0.0
C4525 C 0.90645 0.60011 0.13992 0.0
C4526 C 0.97721 0.58321 0.17931 0.0
C4527 C 0.99431 0.58516 0.16848 0.0
C4528 C 0.95923 0.58195 0.17015 0.0
C4529 C 0.95775 0.58302 0.14987 0.0
C4530 C 0.97499 0.58405 0.13896 0.0
C4531 C 0.99311 0.58498 0.14818 0.0
H4532 H 0.93055 0.89198 0.13449 0.0
H4533 H 0.90502 0.92536 0.08838 0.0
H4534 H 0.93742 0.92201 0.15234 0.0
H4535 H 0.91165 0.9552 0.10606 0.0
H4536 H 0.91355 0.97487 0.18769 0.0
H4537 H 0.91578 0.94511 0.16893 0.0
H4538 H 0.93566 0.97771 0.11946 0.0
H4539 H 0.93326 0.00767 0.13827 0.0
C4540 C 0.92693 0.90578 0.12797 0.0
C4541 C 0.91727 0.90643 0.11011 0.0
C4542 C 0.93066 0.92293 0.13823 0.0
C4543 C 0.92494 0.94102 0.1307 0.0
C4544 C 0.91643 0.94161 0.11223 0.0
C4545 C 0.91258 0.92452 0.10211 0.0
C4546 C 0.91858 0.97572 0.17286 0.0
C4547 C 0.92306 0.9937 0.16443 0.0
C4548 C 0.92004 0.95859 0.16215 0.0
C4549 C 0.92591 0.95898 0.14268 0.0
C4550 C 0.93096 0.97691 0.13439 0.0
C4551 C 0.92963 0.99407 0.14518 0.0
H4552 H 0.50306 0.94178 0.13854 0.0
H4553 H 0.53956 0.93727 0.18914 0.0
H4554 H 0.53184 0.94305 0.11803 0.0
H4555 H 0.56812 0.93787 0.16875 0.0
H4556 H 0.61882 0.94257 0.12987 0.0
H4557 H 0.58968 0.95379 0.14674 0.0
H4558 H 0.55441 0.91879 0.1086 0.0
H4559 H 0.58326 0.9083 0.09154 0.0
C4560 C 0.5172 0.94133 0.14531 0.0
C4561 C 0.519 0.93911 0.16544 0.0
C4562 C 0.53371 0.94196 0.13355 0.0
C4563 C 0.55235 0.94031 0.14168 0.0
C4564 C 0.55408 0.93937 0.16193 0.0
C4565 C 0.53763 0.93882 0.17366 0.0
C4566 C 0.60476 0.93777 0.12482 0.0
C4567 C 0.60329 0.92431 0.10964 0.0
C4568 C 0.58808 0.94403 0.13456 0.0
C4569 C 0.56967 0.93699 0.12923 0.0
C4570 C 0.56824 0.92467 0.11308 0.0
C4571 C 0.58483 0.91846 0.1034 0.0
H4572 H 0.59925 0.58655 0.08947 0.0
H4573 H 0.57546 0.61959 0.1368 0.0
H4574 H 0.59272 0.55656 0.10682 0.0
H4575 H 0.56865 0.58944 0.15431 0.0
H4576 H 0.59529 0.53729 0.18842 0.0
H4577 H 0.59121 0.56686 0.16985 0.0
H4578 H 0.57002 0.53352 0.12132 0.0
H4579 H 0.57431 0.50369 0.13998 0.0
C4580 C 0.59198 0.58729 0.10335 0.0
C4581 C 0.58788 0.60532 0.11185 0.0
C4582 C 0.5882 0.5701 0.1133 0.0
C4583 C 0.58037 0.57056 0.13208 0.0
C4584 C 0.57494 0.5886 0.13998 0.0
C4585 C 0.57861 0.60585 0.12991 0.0
C4586 C 0.58957 0.53622 0.17385 0.0
C4587 C 0.58533 0.51808 0.16561 0.0
C4588 C 0.58702 0.55325 0.16326 0.0
C4589 C 0.58026 0.55262 0.14408 0.0
C4590 C 0.57538 0.53451 0.13603 0.0
C4591 C 0.5778 0.51742 0.14672 0.0
H4592 H 0.37875 0.88899 0.94218 0.0
H4593 H 0.41597 0.92359 0.90585 0.0
H4594 H 0.36379 0.91854 0.95485 0.0
H4595 H 0.40063 0.95287 0.91769 0.0
H4596 H 0.32233 0.97043 0.94276 0.0
H4597 H 0.34157 0.94115 0.94127 0.0
H4598 H 0.39393 0.97545 0.94271 0.0
H4599 H 0.37449 0.00499 0.94348 0.0
C4600 C 0.38394 0.9029 0.93715 0.0
C4601 C 0.39824 0.90398 0.92275 0.0
C4602 C 0.37528 0.91983 0.94426 0.0
C4603 C 0.3808 0.93814 0.93711 0.0
C4604 C 0.39605 0.93914 0.92369 0.0
C4605 C 0.40469 0.9223 0.91667 0.0
C4606 C 0.33796 0.97178 0.94305 0.0
C4607 C 0.34688 0.99008 0.94286 0.0
C4608 C 0.34904 0.9549 0.94239 0.0
C4609 C 0.36935 0.95586 0.94164 0.0
C4610 C 0.3783 0.97417 0.94287 0.0
C4611 C 0.36718 0.99111 0.94343 0.0
H4612 H 0.41274 0.58696 0.60524 0.0
H4613 H 0.36702 0.6201 0.57868 0.0
H4614 H 0.39552 0.55711 0.59819 0.0
H4615 H 0.34974 0.58995 0.571 0.0
H4616 H 0.31365 0.53603 0.58983 0.0
H4617 H 0.33199 0.56617 0.58948 0.0
H4618 H 0.38392 0.53433 0.57524 0.0
H4619 H 0.36566 0.50413 0.57615 0.0
C4620 C 0.39918 0.58777 0.5974 0.0
C4621 C 0.39115 0.60585 0.59262 0.0
C4622 C 0.3893 0.57062 0.59325 0.0
C4623 C 0.37108 0.57102 0.58417 0.0
C4624 C 0.36358 0.5891 0.5783 0.0
C4625 C 0.37356 0.60636 0.58244 0.0
C4626 C 0.32897 0.53545 0.58651 0.0
C4627 C 0.3382 0.51759 0.58323 0.0
C4628 C 0.33947 0.55281 0.58612 0.0
C4629 C 0.3595 0.55279 0.58237 0.0
C4630 C 0.36859 0.53494 0.57847 0.0
C4631 C 0.3581 0.51758 0.57895 0.0
H4632 H 0.8911 0.35948 0.61314 0.0
H4633 H 0.90727 0.40631 0.57518 0.0
H4634 H 0.92081 0.34247 0.60508 0.0
H4635 H 0.93716 0.38905 0.56665 0.0
H4636 H 0.99901 0.36517 0.58408 0.0
H4637 H 0.96749 0.38144 0.58374 0.0
H4638 H 0.93893 0.32584 0.58073 0.0
H4639 H 0.97018 0.30973 0.58171 0.0
C4640 C 0.90086 0.36588 0.60266 0.0
C4641 C 0.89696 0.38421 0.59484 0.0
C4642 C 0.91788 0.35611 0.59794 0.0
C4643 C 0.93148 0.36444 0.58528 0.0
C4644 C 0.92709 0.38235 0.57663 0.0
C4645 C 0.90991 0.39212 0.5813 0.0
C4646 C 0.98597 0.3565 0.58311 0.0
C4647 C 0.98704 0.3362 0.58332 0.0
C4648 C 0.96792 0.3658 0.58279 0.0
C4649 C 0.95064 0.35493 0.58248 0.0
C4650 C 0.95189 0.33465 0.58143 0.0
C4651 C 0.96983 0.32541 0.58197 0.0
H4652 H 0.0928 0.92783 0.59692 0.0
H4653 H 0.13554 0.89348 0.56699 0.0
H4654 H 0.10904 0.95727 0.58679 0.0
H4655 H 0.15156 0.92314 0.55601 0.0
H4656 H 0.19038 0.97534 0.57382 0.0
H4657 H 0.17123 0.94599 0.57267 0.0
H4658 H 0.11954 0.97999 0.56335 0.0
H4659 H 0.13882 0.00964 0.56521 0.0
C4660 C 0.10545 0.92663 0.58772 0.0
C4661 C 0.11315 0.90836 0.58309 0.0
C4662 C 0.11469 0.94355 0.58172 0.0
C4663 C 0.13184 0.94268 0.5708 0.0
C4664 C 0.13861 0.92437 0.56475 0.0
C4665 C 0.12934 0.90736 0.57084 0.0
C4666 C 0.17496 0.97662 0.57128 0.0
C4667 C 0.16609 0.99489 0.56996 0.0
C4668 C 0.16395 0.95968 0.57039 0.0
C4669 C 0.14374 0.96052 0.56807 0.0
C4670 C 0.13502 0.97879 0.5655 0.0
C4671 C 0.14607 0.9958 0.56646 0.0
H4672 H 0.58799 0.08683 0.59524 0.0
H4673 H 0.6242 0.12921 0.5671 0.0
H4674 H 0.55926 0.10428 0.5851 0.0
H4675 H 0.59524 0.14645 0.55606 0.0
H4676 H 0.54386 0.18649 0.57282 0.0
H4677 H 0.5726 0.16645 0.57239 0.0
H4678 H 0.53727 0.1159 0.5616 0.0
H4679 H 0.50819 0.13608 0.56275 0.0
C4680 C 0.58975 0.09969 0.58644 0.0
C4681 C 0.60834 0.1069 0.58231 0.0
C4682 C 0.57323 0.10962 0.58042 0.0
C4683 C 0.57482 0.127 0.56997 0.0
C4684 C 0.59345 0.13334 0.56445 0.0
C4685 C 0.61006 0.12338 0.57056 0.0
C4686 C 0.54216 0.17112 0.57013 0.0
C4687 C 0.52365 0.16285 0.56813 0.0
C4688 C 0.55876 0.15961 0.56966 0.0
C4689 C 0.55737 0.13946 0.56708 0.0
C4690 C 0.5389 0.13131 0.56396 0.0
C4691 C 0.52221 0.14288 0.56451 0.0
H4692 H 0.13103 0.61592 0.93262 0.0
H4693 H 0.08648 0.58128 0.90582 0.0
H4694 H 0.14919 0.58638 0.9404 0.0
H4695 H 0.10449 0.55191 0.91334 0.0
H4696 H 0.13763 0.50023 0.93443 0.0
H4697 H 0.11804 0.52964 0.93755 0.0
H4698 H 0.16683 0.56402 0.91891 0.0
H4699 H 0.18632 0.53488 0.916 0.0
C4700 C 0.1249 0.60195 0.92891 0.0
C4701 C 0.10746 0.60081 0.91854 0.0
C4702 C 0.13533 0.58507 0.93318 0.0
C4703 C 0.12838 0.56677 0.92732 0.0
C4704 C 0.11021 0.56568 0.91822 0.0
C4705 C 0.09992 0.58251 0.91382 0.0
C4706 C 0.14423 0.51411 0.93131 0.0
C4707 C 0.16345 0.51519 0.92474 0.0
C4708 C 0.133 0.53095 0.93304 0.0
C4709 C 0.14085 0.5492 0.92843 0.0
C4710 C 0.16037 0.55028 0.92281 0.0
C4711 C 0.1715 0.5335 0.92094 0.0
H4712 H 0.98508 0.16749 0.96085 0.0
H4713 H 0.99987 0.15477 0.9014 0.0
H4714 H 0.95411 0.15075 0.95665 0.0
H4715 H 0.96899 0.13845 0.89716 0.0
H4716 H 0.92259 0.09384 0.89905 0.0
H4717 H 0.95327 0.10902 0.90747 0.0
H4718 H 0.92266 0.15317 0.93958 0.0
H4719 H 0.89175 0.13751 0.93134 0.0
C4720 C 0.98173 0.16117 0.94689 0.0
C4721 C 0.99504 0.16238 0.93149 0.0
C4722 C 0.96394 0.15166 0.94447 0.0
C4723 C 0.95912 0.14307 0.92663 0.0
C4724 C 0.97237 0.14453 0.91122 0.0
C4725 C 0.99007 0.15402 0.91362 0.0
C4726 C 0.92245 0.10663 0.90816 0.0
C4727 C 0.90483 0.11463 0.9144 0.0
C4728 C 0.94001 0.11543 0.91286 0.0
C4729 C 0.94044 0.13258 0.92384 0.0
C4730 C 0.92285 0.13998 0.93109 0.0
C4731 C 0.90517 0.13104 0.92642 0.0
H4732 H 0.61446 0.38497 0.94146 0.0
H4733 H 0.58096 0.41992 0.90203 0.0
H4734 H 0.58466 0.36946 0.95285 0.0
H4735 H 0.55145 0.40411 0.91273 0.0
H4736 H 0.53437 0.32621 0.94023 0.0
H4737 H 0.56323 0.34614 0.93881 0.0
H4738 H 0.52768 0.39758 0.93687 0.0
H4739 H 0.49858 0.37742 0.93771 0.0
C4740 C 0.6007 0.3896 0.93551 0.0
C4741 C 0.60006 0.40344 0.92065 0.0
C4742 C 0.58364 0.38059 0.94187 0.0
C4743 C 0.56559 0.38531 0.93354 0.0
C4744 C 0.56495 0.40014 0.91963 0.0
C4745 C 0.58194 0.40909 0.91332 0.0
C4746 C 0.53264 0.34179 0.93977 0.0
C4747 C 0.51411 0.35019 0.93879 0.0
C4748 C 0.54928 0.35328 0.93914 0.0
C4749 C 0.54789 0.37353 0.93756 0.0
C4750 C 0.52933 0.38202 0.93775 0.0
C4751 C 0.51262 0.37047 0.93835 0.0
loop_
_geom_bond_atom_site_label_1
_geom_bond_atom_site_label_2
_geom_bond_distance
_geom_bond_site_symmetry_2
_ccdc_geom_bond_type
O0 Tb1 2.292 . S
O0 C3 1.255 . S
Tb1 O0 2.292 . S
Tb1 O17 2.326 . S
Tb1 O19 2.500 . S
Tb1 O20 2.473 . S
Tb1 O23 2.324 . S
Eu2 O6 2.292 . S
Eu2 C7 2.852 . S
Eu2 O18 2.324 . S
Eu2 O22 2.326 . S
Eu2 O24 2.500 . S
Eu2 O25 2.473 . S
C3 O0 1.255 . S
C3 O4 1.247 . S
O4 C3 1.247 . S
C5 O17 1.242 . S
C5 O18 1.258 . S
O6 Eu2 2.292 . S
O6 C8 1.255 1_455 S
C7 Eu2 2.852 . S
C7 C11 1.503 . S
C7 O24 1.273 . S
C7 O25 1.257 . S
C8 O6 1.255 1_655 S
C8 O9 1.247 . S
O9 C8 1.247 . S
C10 O22 1.242 . S
C10 O23 1.258 . S
C11 C7 1.503 . S
C11 C12 1.379 . S
C11 C16 1.392 . S
C12 C11 1.379 . S
C12 C13 1.404 . S
C12 H26 0.929 . S
C13 C12 1.404 . S
C13 C14 1.389 . S
C14 C13 1.389 . S
C14 C15 1.399 . S
C14 H27 0.931 . S
C15 C14 1.399 . S
C15 C16 1.390 . S
C16 C11 1.392 . S
C16 C15 1.390 . S
C16 H28 0.929 . S
O17 Tb1 2.326 . S
O17 C5 1.242 . S
O18 Eu2 2.324 . S
O18 C5 1.258 . S
O19 Tb1 2.500 . S
O19 C21 1.273 . S
O20 Tb1 2.473 . S
O20 C21 1.257 . S
C21 O19 1.273 . S
C21 O20 1.257 . S
O22 Eu2 2.326 . S
O22 C10 1.242 . S
O23 Tb1 2.324 . S
O23 C10 1.258 . S
O24 Eu2 2.500 . S
O24 C7 1.273 . S
O25 Eu2 2.473 . S
O25 C7 1.257 . S
H26 C12 0.929 . S
H27 C14 0.931 . S
H28 C16 0.929 . S
O29 Tb30 2.292 . S
O29 C32 1.255 . S
Tb30 O29 2.292 . S
Tb30 O46 2.326 . S
Tb30 O48 2.500 . S
Tb30 O49 2.473 . S
Tb30 O52 2.324 . S
Eu31 O35 2.292 . S
Eu31 C36 2.852 . S
Eu31 O47 2.324 . S
Eu31 O51 2.326 . S
Eu31 O53 2.500 . S
Eu31 O54 2.473 . S
C32 O29 1.255 . S
C32 O33 1.247 . S
O33 C32 1.247 . S
C34 O46 1.242 . S
C34 O47 1.258 . S
O35 Eu31 2.292 . S
O35 C37 1.255 1_545 S
C36 Eu31 2.852 . S
C36 C40 1.503 . S
C36 O53 1.273 . S
C36 O54 1.257 . S
C37 O35 1.255 1_565 S
C37 O38 1.247 . S
O38 C37 1.247 . S
C39 O51 1.242 . S
C39 O52 1.258 . S
C40 C36 1.503 . S
C40 C41 1.379 . S
C40 C45 1.392 . S
C41 C40 1.379 . S
C41 C42 1.404 . S
C41 H55 0.929 . S
C42 C41 1.404 . S
C42 C43 1.389 . S
C43 C42 1.389 . S
C43 C44 1.399 . S
C43 H56 0.931 . S
C44 C43 1.399 . S
C44 C45 1.390 . S
C45 C40 1.392 . S
C45 C44 1.390 . S
C45 H57 0.929 . S
O46 Tb30 2.326 . S
O46 C34 1.242 . S
O47 Eu31 2.324 . S
O47 C34 1.258 . S
O48 Tb30 2.500 . S
O48 C50 1.273 . S
O49 Tb30 2.473 . S
O49 C50 1.257 . S
C50 O48 1.273 . S
C50 O49 1.257 . S
O51 Eu31 2.326 . S
O51 C39 1.242 . S
O52 Tb30 2.324 . S
O52 C39 1.258 . S
O53 Eu31 2.500 . S
O53 C36 1.273 . S
O54 Eu31 2.473 . S
O54 C36 1.257 . S
H55 C41 0.929 . S
H56 C43 0.931 . S
H57 C45 0.929 . S
O58 Tb59 2.292 . S
O58 C61 1.255 . S
Tb59 O58 2.292 . S
Tb59 O75 2.326 . S
Tb59 O77 2.500 . S
Tb59 O78 2.473 . S
Tb59 O81 2.324 . S
Eu60 O64 2.292 . S
Eu60 C65 2.852 . S
Eu60 O76 2.324 . S
Eu60 O80 2.326 . S
Eu60 O82 2.500 . S
Eu60 O83 2.473 . S
C61 O58 1.255 . S
C61 O62 1.247 . S
O62 C61 1.247 . S
C63 O75 1.242 . S
C63 O76 1.258 . S
O64 Eu60 2.292 . S
O64 C66 1.255 . S
C65 Eu60 2.852 . S
C65 C69 1.503 . S
C65 O82 1.273 . S
C65 O83 1.257 . S
C66 O64 1.255 . S
C66 O67 1.247 . S
O67 C66 1.247 . S
C68 O80 1.242 . S
C68 O81 1.258 . S
C69 C65 1.503 . S
C69 C70 1.379 . S
C69 C74 1.392 . S
C70 C69 1.379 . S
C70 C71 1.404 . S
C70 H84 0.929 . S
C71 C70 1.404 . S
C71 C72 1.389 . S
C72 C71 1.389 . S
C72 C73 1.399 . S
C72 H85 0.931 . S
C73 C72 1.399 . S
C73 C74 1.390 . S
C74 C69 1.392 . S
C74 C73 1.390 . S
C74 H86 0.929 . S
O75 Tb59 2.326 . S
O75 C63 1.242 . S
O76 Eu60 2.324 . S
O76 C63 1.258 . S
O77 Tb59 2.500 . S
O77 C79 1.273 . S
O78 Tb59 2.473 . S
O78 C79 1.257 . S
C79 O77 1.273 . S
C79 O78 1.257 . S
O80 Eu60 2.326 . S
O80 C68 1.242 . S
O81 Tb59 2.324 . S
O81 C68 1.258 . S
O82 Eu60 2.500 . S
O82 C65 1.273 . S
O83 Eu60 2.473 . S
O83 C65 1.257 . S
H84 C70 0.929 . S
H85 C72 0.931 . S
H86 C74 0.929 . S
O87 Tb88 2.292 . S
O87 C90 1.255 . S
Tb88 O87 2.292 . S
Tb88 O104 2.326 . S
Tb88 O106 2.500 . S
Tb88 O107 2.473 . S
Tb88 O110 2.324 . S
Eu89 O93 2.292 . S
Eu89 C94 2.852 . S
Eu89 O105 2.324 . S
Eu89 O109 2.326 . S
Eu89 O111 2.500 . S
Eu89 O112 2.473 . S
C90 O87 1.255 . S
C90 O91 1.247 . S
O91 C90 1.247 . S
C92 O104 1.242 . S
C92 O105 1.258 . S
O93 Eu89 2.292 . S
O93 C95 1.255 . S
C94 Eu89 2.852 . S
C94 C98 1.503 . S
C94 O111 1.273 . S
C94 O112 1.257 . S
C95 O93 1.255 . S
C95 O96 1.247 . S
O96 C95 1.247 . S
C97 O109 1.242 . S
C97 O110 1.258 . S
C98 C94 1.503 . S
C98 C99 1.379 . S
C98 C103 1.392 . S
C99 C98 1.379 . S
C99 C100 1.404 . S
C99 H113 0.929 . S
C100 C99 1.404 . S
C100 C101 1.389 . S
C101 C100 1.389 . S
C101 C102 1.399 . S
C101 H114 0.931 . S
C102 C101 1.399 . S
C102 C103 1.390 . S
C103 C98 1.392 . S
C103 C102 1.390 . S
C103 H115 0.929 . S
O104 Tb88 2.326 . S
O104 C92 1.242 . S
O105 Eu89 2.324 . S
O105 C92 1.258 . S
O106 Tb88 2.500 . S
O106 C108 1.273 . S
O107 Tb88 2.473 . S
O107 C108 1.257 . S
C108 O106 1.273 . S
C108 O107 1.257 . S
O109 Eu89 2.326 . S
O109 C97 1.242 . S
O110 Tb88 2.324 . S
O110 C97 1.258 . S
O111 Eu89 2.500 . S
O111 C94 1.273 . S
O112 Eu89 2.473 . S
O112 C94 1.257 . S
H113 C99 0.929 . S
H114 C101 0.931 . S
H115 C103 0.929 . S
O116 Tb117 2.292 . S
O116 C119 1.255 . S
Tb117 O116 2.292 . S
Tb117 O133 2.326 . S
Tb117 O135 2.500 . S
Tb117 O136 2.473 . S
Tb117 O139 2.324 . S
Eu118 O122 2.292 . S
Eu118 C123 2.852 . S
Eu118 O134 2.324 . S
Eu118 O138 2.326 . S
Eu118 O140 2.500 . S
Eu118 O141 2.473 . S
C119 O116 1.255 . S
C119 O120 1.247 . S
O120 C119 1.247 . S
C121 O133 1.242 . S
C121 O134 1.258 . S
O122 Eu118 2.292 . S
O122 C124 1.255 1_455 S
C123 Eu118 2.852 . S
C123 C127 1.503 . S
C123 O140 1.273 . S
C123 O141 1.257 . S
C124 O122 1.255 1_655 S
C124 O125 1.247 . S
O125 C124 1.247 . S
C126 O138 1.242 . S
C126 O139 1.258 . S
C127 C123 1.503 . S
C127 C128 1.379 . S
C127 C132 1.392 . S
C128 C127 1.379 . S
C128 C129 1.404 . S
C128 H142 0.929 . S
C129 C128 1.404 . S
C129 C130 1.389 . S
C130 C129 1.389 . S
C130 C131 1.399 . S
C130 H143 0.931 . S
C131 C130 1.399 . S
C131 C132 1.390 . S
C132 C127 1.392 . S
C132 C131 1.390 . S
C132 H144 0.929 . S
O133 Tb117 2.326 . S
O133 C121 1.242 . S
O134 Eu118 2.324 . S
O134 C121 1.258 . S
O135 Tb117 2.500 . S
O135 C137 1.273 . S
O136 Tb117 2.473 . S
O136 C137 1.257 . S
C137 O135 1.273 . S
C137 O136 1.257 . S
O138 Eu118 2.326 . S
O138 C126 1.242 . S
O139 Tb117 2.324 . S
O139 C126 1.258 . S
O140 Eu118 2.500 . S
O140 C123 1.273 . S
O141 Eu118 2.473 . S
O141 C123 1.257 . S
H142 C128 0.929 . S
H143 C130 0.931 . S
H144 C132 0.929 . S
O145 Tb146 2.292 . S
O145 C148 1.255 . S
Tb146 O145 2.292 . S
Tb146 O162 2.326 . S
Tb146 O164 2.500 . S
Tb146 O165 2.473 . S
Tb146 O168 2.324 . S
Eu147 O151 2.292 . S
Eu147 C152 2.852 . S
Eu147 O163 2.324 . S
Eu147 O167 2.326 . S
Eu147 O169 2.500 . S
Eu147 O170 2.473 . S
C148 O145 1.255 . S
C148 O149 1.247 . S
O149 C148 1.247 . S
C150 O162 1.242 . S
C150 O163 1.258 . S
O151 Eu147 2.292 . S
O151 C153 1.255 1_545 S
C152 Eu147 2.852 . S
C152 C156 1.503 . S
C152 O169 1.273 . S
C152 O170 1.257 . S
C153 O151 1.255 1_565 S
C153 O154 1.247 . S
O154 C153 1.247 . S
C155 O167 1.242 . S
C155 O168 1.258 . S
C156 C152 1.503 . S
C156 C157 1.379 . S
C156 C161 1.392 . S
C157 C156 1.379 . S
C157 C158 1.404 . S
C157 H171 0.929 . S
C158 C157 1.404 . S
C158 C159 1.389 . S
C159 C158 1.389 . S
C159 C160 1.399 . S
C159 H172 0.931 . S
C160 C159 1.399 . S
C160 C161 1.390 . S
C161 C156 1.392 . S
C161 C160 1.390 . S
C161 H173 0.929 . S
O162 Tb146 2.326 . S
O162 C150 1.242 . S
O163 Eu147 2.324 . S
O163 C150 1.258 . S
O164 Tb146 2.500 . S
O164 C166 1.273 . S
O165 Tb146 2.473 . S
O165 C166 1.257 . S
C166 O164 1.273 . S
C166 O165 1.257 . S
O167 Eu147 2.326 . S
O167 C155 1.242 . S
O168 Tb146 2.324 . S
O168 C155 1.258 . S
O169 Eu147 2.500 . S
O169 C152 1.273 . S
O170 Eu147 2.473 . S
O170 C152 1.257 . S
H171 C157 0.929 . S
H172 C159 0.931 . S
H173 C161 0.929 . S
O174 Tb175 2.292 . S
O174 C177 1.255 . S
Tb175 O174 2.292 . S
Tb175 O191 2.326 . S
Tb175 O193 2.500 . S
Tb175 O194 2.473 . S
Tb175 O197 2.324 . S
Eu176 O180 2.292 . S
Eu176 C181 2.852 . S
Eu176 O192 2.324 . S
Eu176 O196 2.326 . S
Eu176 O198 2.500 . S
Eu176 O199 2.473 . S
C177 O174 1.255 . S
C177 O178 1.247 . S
O178 C177 1.247 . S
C179 O191 1.242 . S
C179 O192 1.258 . S
O180 Eu176 2.292 . S
O180 C182 1.255 . S
C181 Eu176 2.852 . S
C181 C185 1.503 . S
C181 O198 1.273 . S
C181 O199 1.257 . S
C182 O180 1.255 . S
C182 O183 1.247 . S
O183 C182 1.247 . S
C184 O196 1.242 . S
C184 O197 1.258 . S
C185 C181 1.503 . S
C185 C186 1.379 . S
C185 C190 1.392 . S
C186 C185 1.379 . S
C186 C187 1.404 . S
C186 H200 0.929 . S
C187 C186 1.404 . S
C187 C188 1.389 . S
C188 C187 1.389 . S
C188 C189 1.399 . S
C188 H201 0.931 . S
C189 C188 1.399 . S
C189 C190 1.390 . S
C190 C185 1.392 . S
C190 C189 1.390 . S
C190 H202 0.929 . S
O191 Tb175 2.326 . S
O191 C179 1.242 . S
O192 Eu176 2.324 . S
O192 C179 1.258 . S
O193 Tb175 2.500 . S
O193 C195 1.273 . S
O194 Tb175 2.473 . S
O194 C195 1.257 . S
C195 O193 1.273 . S
C195 O194 1.257 . S
O196 Eu176 2.326 . S
O196 C184 1.242 . S
O197 Tb175 2.324 . S
O197 C184 1.258 . S
O198 Eu176 2.500 . S
O198 C181 1.273 . S
O199 Eu176 2.473 . S
O199 C181 1.257 . S
H200 C186 0.929 . S
H201 C188 0.931 . S
H202 C190 0.929 . S
O203 Tb204 2.292 . S
O203 C206 1.255 . S
Tb204 O203 2.292 . S
Tb204 O220 2.326 . S
Tb204 O222 2.500 . S
Tb204 O223 2.473 . S
Tb204 O226 2.324 . S
Eu205 O209 2.292 . S
Eu205 C210 2.852 . S
Eu205 O221 2.324 . S
Eu205 O225 2.326 . S
Eu205 O227 2.500 . S
Eu205 O228 2.473 . S
C206 O203 1.255 . S
C206 O207 1.247 . S
O207 C206 1.247 . S
C208 O220 1.242 . S
C208 O221 1.258 . S
O209 Eu205 2.292 . S
O209 C211 1.255 . S
C210 Eu205 2.852 . S
C210 C214 1.503 . S
C210 O227 1.273 . S
C210 O228 1.257 . S
C211 O209 1.255 . S
C211 O212 1.247 . S
O212 C211 1.247 . S
C213 O225 1.242 . S
C213 O226 1.258 . S
C214 C210 1.503 . S
C214 C215 1.379 . S
C214 C219 1.392 . S
C215 C214 1.379 . S
C215 C216 1.404 . S
C215 H229 0.929 . S
C216 C215 1.404 . S
C216 C217 1.389 . S
C217 C216 1.389 . S
C217 C218 1.399 . S
C217 H230 0.931 . S
C218 C217 1.399 . S
C218 C219 1.390 . S
C219 C214 1.392 . S
C219 C218 1.390 . S
C219 H231 0.929 . S
O220 Tb204 2.326 . S
O220 C208 1.242 . S
O221 Eu205 2.324 . S
O221 C208 1.258 . S
O222 Tb204 2.500 . S
O222 C224 1.273 . S
O223 Tb204 2.473 . S
O223 C224 1.257 . S
C224 O222 1.273 . S
C224 O223 1.257 . S
O225 Eu205 2.326 . S
O225 C213 1.242 . S
O226 Tb204 2.324 . S
O226 C213 1.258 . S
O227 Eu205 2.500 . S
O227 C210 1.273 . S
O228 Eu205 2.473 . S
O228 C210 1.257 . S
H229 C215 0.929 . S
H230 C217 0.931 . S
H231 C219 0.929 . S
O232 Tb233 2.292 . S
O232 C235 1.255 . S
Tb233 O232 2.292 . S
Tb233 O249 2.326 . S
Tb233 O251 2.500 . S
Tb233 O252 2.473 . S
Tb233 O255 2.324 . S
Eu234 O238 2.292 . S
Eu234 C239 2.852 . S
Eu234 O250 2.324 . S
Eu234 O254 2.326 . S
Eu234 O256 2.500 . S
Eu234 O257 2.473 . S
C235 O232 1.255 . S
C235 O236 1.247 . S
O236 C235 1.247 . S
C237 O249 1.242 . S
C237 O250 1.258 . S
O238 Eu234 2.292 . S
O238 C240 1.255 1_545 S
C239 Eu234 2.852 . S
C239 C243 1.503 . S
C239 O256 1.273 . S
C239 O257 1.257 . S
C240 O238 1.255 1_565 S
C240 O241 1.247 . S
O241 C240 1.247 . S
C242 O254 1.242 . S
C242 O255 1.258 . S
C243 C239 1.503 . S
C243 C244 1.379 . S
C243 C248 1.392 . S
C244 C243 1.379 . S
C244 C245 1.404 . S
C244 H258 0.929 . S
C245 C244 1.404 . S
C245 C246 1.389 . S
C246 C245 1.389 . S
C246 C247 1.399 . S
C246 H259 0.931 . S
C247 C246 1.399 . S
C247 C248 1.390 . S
C248 C243 1.392 . S
C248 C247 1.390 . S
C248 H260 0.929 . S
O249 Tb233 2.326 . S
O249 C237 1.242 . S
O250 Eu234 2.324 . S
O250 C237 1.258 . S
O251 Tb233 2.500 . S
O251 C253 1.273 . S
O252 Tb233 2.473 . S
O252 C253 1.257 . S
C253 O251 1.273 . S
C253 O252 1.257 . S
O254 Eu234 2.326 . S
O254 C242 1.242 . S
O255 Tb233 2.324 . S
O255 C242 1.258 . S
O256 Eu234 2.500 . S
O256 C239 1.273 . S
O257 Eu234 2.473 . S
O257 C239 1.257 . S
H258 C244 0.929 . S
H259 C246 0.931 . S
H260 C248 0.929 . S
O261 Tb262 2.292 . S
O261 C264 1.255 . S
Tb262 O261 2.292 . S
Tb262 O278 2.326 . S
Tb262 O280 2.500 . S
Tb262 O281 2.473 . S
Tb262 O284 2.324 . S
Eu263 O267 2.292 . S
Eu263 C268 2.852 . S
Eu263 O279 2.324 . S
Eu263 O283 2.326 . S
Eu263 O285 2.500 . S
Eu263 O286 2.473 . S
C264 O261 1.255 . S
C264 O265 1.247 . S
O265 C264 1.247 . S
C266 O278 1.242 . S
C266 O279 1.258 . S
O267 Eu263 2.292 . S
O267 C269 1.255 . S
C268 Eu263 2.852 . S
C268 C272 1.503 . S
C268 O285 1.273 . S
C268 O286 1.257 . S
C269 O267 1.255 . S
C269 O270 1.247 . S
O270 C269 1.247 . S
C271 O283 1.242 . S
C271 O284 1.258 . S
C272 C268 1.503 . S
C272 C273 1.379 . S
C272 C277 1.392 . S
C273 C272 1.379 . S
C273 C274 1.404 . S
C273 H287 0.929 . S
C274 C273 1.404 . S
C274 C275 1.389 . S
C275 C274 1.389 . S
C275 C276 1.399 . S
C275 H288 0.931 . S
C276 C275 1.399 . S
C276 C277 1.390 . S
C277 C272 1.392 . S
C277 C276 1.390 . S
C277 H289 0.929 . S
O278 Tb262 2.326 . S
O278 C266 1.242 . S
O279 Eu263 2.324 . S
O279 C266 1.258 . S
O280 Tb262 2.500 . S
O280 C282 1.273 . S
O281 Tb262 2.473 . S
O281 C282 1.257 . S
C282 O280 1.273 . S
C282 O281 1.257 . S
O283 Eu263 2.326 . S
O283 C271 1.242 . S
O284 Tb262 2.324 . S
O284 C271 1.258 . S
O285 Eu263 2.500 . S
O285 C268 1.273 . S
O286 Eu263 2.473 . S
O286 C268 1.257 . S
H287 C273 0.929 . S
H288 C275 0.931 . S
H289 C277 0.929 . S
O290 Tb291 2.292 . S
O290 C293 1.255 . S
Tb291 O290 2.292 . S
Tb291 O307 2.326 . S
Tb291 O309 2.500 . S
Tb291 O310 2.473 . S
Tb291 O313 2.324 . S
Eu292 O296 2.292 . S
Eu292 C297 2.852 . S
Eu292 O308 2.324 . S
Eu292 O312 2.326 . S
Eu292 O314 2.500 . S
Eu292 O315 2.473 . S
C293 O290 1.255 . S
C293 O294 1.247 . S
O294 C293 1.247 . S
C295 O307 1.242 . S
C295 O308 1.258 . S
O296 Eu292 2.292 . S
O296 C298 1.255 . S
C297 Eu292 2.852 . S
C297 C301 1.503 . S
C297 O314 1.273 . S
C297 O315 1.257 . S
C298 O296 1.255 . S
C298 O299 1.247 . S
O299 C298 1.247 . S
C300 O312 1.242 . S
C300 O313 1.258 . S
C301 C297 1.503 . S
C301 C302 1.379 . S
C301 C306 1.392 . S
C302 C301 1.379 . S
C302 C303 1.404 . S
C302 H316 0.929 . S
C303 C302 1.404 . S
C303 C304 1.389 . S
C304 C303 1.389 . S
C304 C305 1.399 . S
C304 H317 0.931 . S
C305 C304 1.399 . S
C305 C306 1.390 . S
C306 C301 1.392 . S
C306 C305 1.390 . S
C306 H318 0.929 . S
O307 Tb291 2.326 . S
O307 C295 1.242 . S
O308 Eu292 2.324 . S
O308 C295 1.258 . S
O309 Tb291 2.500 . S
O309 C311 1.273 . S
O310 Tb291 2.473 . S
O310 C311 1.257 . S
C311 O309 1.273 . S
C311 O310 1.257 . S
O312 Eu292 2.326 . S
O312 C300 1.242 . S
O313 Tb291 2.324 . S
O313 C300 1.258 . S
O314 Eu292 2.500 . S
O314 C297 1.273 . S
O315 Eu292 2.473 . S
O315 C297 1.257 . S
H316 C302 0.929 . S
H317 C304 0.931 . S
H318 C306 0.929 . S
O319 Tb320 2.292 . S
O319 C322 1.255 . S
Tb320 O319 2.292 . S
Tb320 O336 2.326 . S
Tb320 O338 2.500 . S
Tb320 O339 2.473 . S
Tb320 O342 2.324 . S
Eu321 O325 2.292 . S
Eu321 C326 2.852 . S
Eu321 O337 2.324 . S
Eu321 O341 2.326 . S
Eu321 O343 2.500 . S
Eu321 O344 2.473 . S
C322 O319 1.255 . S
C322 O323 1.247 . S
O323 C322 1.247 . S
C324 O336 1.242 . S
C324 O337 1.258 . S
O325 Eu321 2.292 . S
O325 C327 1.255 1_455 S
C326 Eu321 2.852 . S
C326 C330 1.503 . S
C326 O343 1.273 . S
C326 O344 1.257 . S
C327 O325 1.255 1_655 S
C327 O328 1.247 . S
O328 C327 1.247 . S
C329 O341 1.242 . S
C329 O342 1.258 . S
C330 C326 1.503 . S
C330 C331 1.379 . S
C330 C335 1.392 . S
C331 C330 1.379 . S
C331 C332 1.404 . S
C331 H345 0.929 . S
C332 C331 1.404 . S
C332 C333 1.389 . S
C333 C332 1.389 . S
C333 C334 1.399 . S
C333 H346 0.931 . S
C334 C333 1.399 . S
C334 C335 1.390 . S
C335 C330 1.392 . S
C335 C334 1.390 . S
C335 H347 0.929 . S
O336 Tb320 2.326 . S
O336 C324 1.242 . S
O337 Eu321 2.324 . S
O337 C324 1.258 . S
O338 Tb320 2.500 . S
O338 C340 1.273 . S
O339 Tb320 2.473 . S
O339 C340 1.257 . S
C340 O338 1.273 . S
C340 O339 1.257 . S
O341 Eu321 2.326 . S
O341 C329 1.242 . S
O342 Tb320 2.324 . S
O342 C329 1.258 . S
O343 Eu321 2.500 . S
O343 C326 1.273 . S
O344 Eu321 2.473 . S
O344 C326 1.257 . S
H345 C331 0.929 . S
H346 C333 0.931 . S
H347 C335 0.929 . S
O348 Tb349 2.292 . S
O348 C351 1.255 . S
Tb349 O348 2.292 . S
Tb349 O365 2.326 . S
Tb349 O367 2.500 . S
Tb349 O368 2.473 . S
Tb349 O371 2.324 . S
Eu350 O354 2.292 . S
Eu350 C355 2.852 . S
Eu350 O366 2.324 . S
Eu350 O370 2.326 . S
Eu350 O372 2.500 . S
Eu350 O373 2.473 . S
C351 O348 1.255 . S
C351 O352 1.247 . S
O352 C351 1.247 . S
C353 O365 1.242 . S
C353 O366 1.258 . S
O354 Eu350 2.292 . S
O354 C356 1.255 . S
C355 Eu350 2.852 . S
C355 C359 1.503 . S
C355 O372 1.273 . S
C355 O373 1.257 . S
C356 O354 1.255 . S
C356 O357 1.247 . S
O357 C356 1.247 . S
C358 O370 1.242 . S
C358 O371 1.258 . S
C359 C355 1.503 . S
C359 C360 1.379 . S
C359 C364 1.392 . S
C360 C359 1.379 . S
C360 C361 1.404 . S
C360 H374 0.929 . S
C361 C360 1.404 . S
C361 C362 1.389 . S
C362 C361 1.389 . S
C362 C363 1.399 . S
C362 H375 0.931 . S
C363 C362 1.399 . S
C363 C364 1.390 . S
C364 C359 1.392 . S
C364 C363 1.390 . S
C364 H376 0.929 . S
O365 Tb349 2.326 . S
O365 C353 1.242 . S
O366 Eu350 2.324 . S
O366 C353 1.258 . S
O367 Tb349 2.500 . S
O367 C369 1.273 . S
O368 Tb349 2.473 . S
O368 C369 1.257 . S
C369 O367 1.273 . S
C369 O368 1.257 . S
O370 Eu350 2.326 . S
O370 C358 1.242 . S
O371 Tb349 2.324 . S
O371 C358 1.258 . S
O372 Eu350 2.500 . S
O372 C355 1.273 . S
O373 Eu350 2.473 . S
O373 C355 1.257 . S
H374 C360 0.929 . S
H375 C362 0.931 . S
H376 C364 0.929 . S
O377 Tb378 2.292 . S
O377 C380 1.255 . S
Tb378 O377 2.292 . S
Tb378 O394 2.326 . S
Tb378 O396 2.500 . S
Tb378 O397 2.473 . S
Tb378 O400 2.324 . S
Eu379 O383 2.292 . S
Eu379 C384 2.852 . S
Eu379 O395 2.324 . S
Eu379 O399 2.326 . S
Eu379 O401 2.500 . S
Eu379 O402 2.473 . S
C380 O377 1.255 . S
C380 O381 1.247 . S
O381 C380 1.247 . S
C382 O394 1.242 . S
C382 O395 1.258 . S
O383 Eu379 2.292 . S
O383 C385 1.255 1_455 S
C384 Eu379 2.852 . S
C384 C388 1.503 . S
C384 O401 1.273 . S
C384 O402 1.257 . S
C385 O383 1.255 1_655 S
C385 O386 1.247 . S
O386 C385 1.247 . S
C387 O399 1.242 . S
C387 O400 1.258 . S
C388 C384 1.503 . S
C388 C389 1.379 . S
C388 C393 1.392 . S
C389 C388 1.379 . S
C389 C390 1.404 . S
C389 H403 0.929 . S
C390 C389 1.404 . S
C390 C391 1.389 . S
C391 C390 1.389 . S
C391 C392 1.399 . S
C391 H404 0.931 . S
C392 C391 1.399 . S
C392 C393 1.390 . S
C393 C388 1.392 . S
C393 C392 1.390 . S
C393 H405 0.929 . S
O394 Tb378 2.326 . S
O394 C382 1.242 . S
O395 Eu379 2.324 . S
O395 C382 1.258 . S
O396 Tb378 2.500 . S
O396 C398 1.273 . S
O397 Tb378 2.473 . S
O397 C398 1.257 . S
C398 O396 1.273 . S
C398 O397 1.257 . S
O399 Eu379 2.326 . S
O399 C387 1.242 . S
O400 Tb378 2.324 . S
O400 C387 1.258 . S
O401 Eu379 2.500 . S
O401 C384 1.273 . S
O402 Eu379 2.473 . S
O402 C384 1.257 . S
H403 C389 0.929 . S
H404 C391 0.931 . S
H405 C393 0.929 . S
O406 Tb407 2.292 . S
O406 C409 1.255 . S
Tb407 O406 2.292 . S
Tb407 O423 2.326 . S
Tb407 O425 2.500 . S
Tb407 O426 2.473 . S
Tb407 O429 2.324 . S
Eu408 O412 2.292 . S
Eu408 C413 2.852 . S
Eu408 O424 2.324 . S
Eu408 O428 2.326 . S
Eu408 O430 2.500 . S
Eu408 O431 2.473 . S
C409 O406 1.255 . S
C409 O410 1.247 . S
O410 C409 1.247 . S
C411 O423 1.242 . S
C411 O424 1.258 . S
O412 Eu408 2.292 . S
O412 C414 1.255 1_545 S
C413 Eu408 2.852 . S
C413 C417 1.503 . S
C413 O430 1.273 . S
C413 O431 1.257 . S
C414 O412 1.255 1_565 S
C414 O415 1.247 . S
O415 C414 1.247 . S
C416 O428 1.242 . S
C416 O429 1.258 . S
C417 C413 1.503 . S
C417 C418 1.379 . S
C417 C422 1.392 . S
C418 C417 1.379 . S
C418 C419 1.404 . S
C418 H432 0.929 . S
C419 C418 1.404 . S
C419 C420 1.389 . S
C420 C419 1.389 . S
C420 C421 1.399 . S
C420 H433 0.931 . S
C421 C420 1.399 . S
C421 C422 1.390 . S
C422 C417 1.392 . S
C422 C421 1.390 . S
C422 H434 0.929 . S
O423 Tb407 2.326 . S
O423 C411 1.242 . S
O424 Eu408 2.324 . S
O424 C411 1.258 . S
O425 Tb407 2.500 . S
O425 C427 1.273 . S
O426 Tb407 2.473 . S
O426 C427 1.257 . S
C427 O425 1.273 . S
C427 O426 1.257 . S
O428 Eu408 2.326 . S
O428 C416 1.242 . S
O429 Tb407 2.324 . S
O429 C416 1.258 . S
O430 Eu408 2.500 . S
O430 C413 1.273 . S
O431 Eu408 2.473 . S
O431 C413 1.257 . S
H432 C418 0.929 . S
H433 C420 0.931 . S
H434 C422 0.929 . S
O435 Tb436 2.292 . S
O435 C438 1.255 . S
Tb436 O435 2.292 . S
Tb436 O452 2.326 . S
Tb436 O454 2.500 . S
Tb436 O455 2.473 . S
Tb436 O458 2.324 . S
Eu437 O441 2.292 . S
Eu437 C442 2.852 . S
Eu437 O453 2.324 . S
Eu437 O457 2.326 . S
Eu437 O459 2.500 . S
Eu437 O460 2.473 . S
C438 O435 1.255 . S
C438 O439 1.247 . S
O439 C438 1.247 . S
C440 O452 1.242 . S
C440 O453 1.258 . S
O441 Eu437 2.292 . S
O441 C443 1.255 . S
C442 Eu437 2.852 . S
C442 C446 1.503 . S
C442 O459 1.273 . S
C442 O460 1.257 . S
C443 O441 1.255 . S
C443 O444 1.247 . S
O444 C443 1.247 . S
C445 O457 1.242 . S
C445 O458 1.258 . S
C446 C442 1.503 . S
C446 C447 1.379 . S
C446 C451 1.392 . S
C447 C446 1.379 . S
C447 C448 1.404 . S
C447 H461 0.929 . S
C448 C447 1.404 . S
C448 C449 1.389 . S
C449 C448 1.389 . S
C449 C450 1.399 . S
C449 H462 0.931 . S
C450 C449 1.399 . S
C450 C451 1.390 . S
C451 C446 1.392 . S
C451 C450 1.390 . S
C451 H463 0.929 . S
O452 Tb436 2.326 . S
O452 C440 1.242 . S
O453 Eu437 2.324 . S
O453 C440 1.258 . S
O454 Tb436 2.500 . S
O454 C456 1.273 . S
O455 Tb436 2.473 . S
O455 C456 1.257 . S
C456 O454 1.273 . S
C456 O455 1.257 . S
O457 Eu437 2.326 . S
O457 C445 1.242 . S
O458 Tb436 2.324 . S
O458 C445 1.258 . S
O459 Eu437 2.500 . S
O459 C442 1.273 . S
O460 Eu437 2.473 . S
O460 C442 1.257 . S
H461 C447 0.929 . S
H462 C449 0.931 . S
H463 C451 0.929 . S
O464 Tb465 2.292 . S
O464 C467 1.255 . S
Tb465 O464 2.292 . S
Tb465 O481 2.326 . S
Tb465 O483 2.500 . S
Tb465 O484 2.473 . S
Tb465 O487 2.324 . S
Eu466 O470 2.292 . S
Eu466 C471 2.852 . S
Eu466 O482 2.324 . S
Eu466 O486 2.326 . S
Eu466 O488 2.500 . S
Eu466 O489 2.473 . S
C467 O464 1.255 . S
C467 O468 1.247 . S
O468 C467 1.247 . S
C469 O481 1.242 . S
C469 O482 1.258 . S
O470 Eu466 2.292 . S
O470 C472 1.255 1_554 S
C471 Eu466 2.852 . S
C471 C475 1.503 . S
C471 O488 1.273 . S
C471 O489 1.257 . S
C472 O470 1.255 1_556 S
C472 O473 1.247 . S
O473 C472 1.247 . S
C474 O486 1.242 . S
C474 O487 1.258 . S
C475 C471 1.503 . S
C475 C476 1.379 . S
C475 C480 1.392 . S
C476 C475 1.379 . S
C476 C477 1.404 . S
C476 H490 0.929 . S
C477 C476 1.404 . S
C477 C478 1.389 . S
C478 C477 1.389 . S
C478 C479 1.399 . S
C478 H491 0.931 . S
C479 C478 1.399 . S
C479 C480 1.390 . S
C480 C475 1.392 . S
C480 C479 1.390 . S
C480 H492 0.929 . S
O481 Tb465 2.326 . S
O481 C469 1.242 . S
O482 Eu466 2.324 . S
O482 C469 1.258 . S
O483 Tb465 2.500 . S
O483 C485 1.273 . S
O484 Tb465 2.473 . S
O484 C485 1.257 . S
C485 O483 1.273 . S
C485 O484 1.257 . S
O486 Eu466 2.326 . S
O486 C474 1.242 . S
O487 Tb465 2.324 . S
O487 C474 1.258 . S
O488 Eu466 2.500 . S
O488 C471 1.273 . S
O489 Eu466 2.473 . S
O489 C471 1.257 . S
H490 C476 0.929 . S
H491 C478 0.931 . S
H492 C480 0.929 . S
O493 Tb494 2.292 . S
O493 C496 1.255 . S
Tb494 O493 2.292 . S
Tb494 O510 2.326 . S
Tb494 O512 2.500 . S
Tb494 O513 2.473 . S
Tb494 O516 2.324 . S
Eu495 O499 2.292 . S
Eu495 C500 2.852 . S
Eu495 O511 2.324 . S
Eu495 O515 2.326 . S
Eu495 O517 2.500 . S
Eu495 O518 2.473 . S
C496 O493 1.255 . S
C496 O497 1.247 . S
O497 C496 1.247 . S
C498 O510 1.242 . S
C498 O511 1.258 . S
O499 Eu495 2.292 . S
O499 C501 1.255 . S
C500 Eu495 2.852 . S
C500 C504 1.503 . S
C500 O517 1.273 . S
C500 O518 1.257 . S
C501 O499 1.255 . S
C501 O502 1.247 . S
O502 C501 1.247 . S
C503 O515 1.242 . S
C503 O516 1.258 . S
C504 C500 1.503 . S
C504 C505 1.379 . S
C504 C509 1.392 . S
C505 C504 1.379 . S
C505 C506 1.404 . S
C505 H519 0.929 . S
C506 C505 1.404 . S
C506 C507 1.389 . S
C507 C506 1.389 . S
C507 C508 1.399 . S
C507 H520 0.931 . S
C508 C507 1.399 . S
C508 C509 1.390 . S
C509 C504 1.392 . S
C509 C508 1.390 . S
C509 H521 0.929 . S
O510 Tb494 2.326 . S
O510 C498 1.242 . S
O511 Eu495 2.324 . S
O511 C498 1.258 . S
O512 Tb494 2.500 . S
O512 C514 1.273 . S
O513 Tb494 2.473 . S
O513 C514 1.257 . S
C514 O512 1.273 . S
C514 O513 1.257 . S
O515 Eu495 2.326 . S
O515 C503 1.242 . S
O516 Tb494 2.324 . S
O516 C503 1.258 . S
O517 Eu495 2.500 . S
O517 C500 1.273 . S
O518 Eu495 2.473 . S
O518 C500 1.257 . S
H519 C505 0.929 . S
H520 C507 0.931 . S
H521 C509 0.929 . S
O522 Tb523 2.292 . S
O522 C525 1.255 . S
Tb523 O522 2.292 . S
Tb523 O539 2.326 . S
Tb523 O541 2.500 . S
Tb523 O542 2.473 . S
Tb523 O545 2.324 . S
Eu524 O528 2.292 . S
Eu524 C529 2.852 . S
Eu524 O540 2.324 . S
Eu524 O544 2.326 . S
Eu524 O546 2.500 . S
Eu524 O547 2.473 . S
C525 O522 1.255 . S
C525 O526 1.247 . S
O526 C525 1.247 . S
C527 O539 1.242 . S
C527 O540 1.258 . S
O528 Eu524 2.292 . S
O528 C530 1.255 . S
C529 Eu524 2.852 . S
C529 C533 1.503 . S
C529 O546 1.273 . S
C529 O547 1.257 . S
C530 O528 1.255 . S
C530 O531 1.247 . S
O531 C530 1.247 . S
C532 O544 1.242 . S
C532 O545 1.258 . S
C533 C529 1.503 . S
C533 C534 1.379 . S
C533 C538 1.392 . S
C534 C533 1.379 . S
C534 C535 1.404 . S
C534 H548 0.929 . S
C535 C534 1.404 . S
C535 C536 1.389 . S
C536 C535 1.389 . S
C536 C537 1.399 . S
C536 H549 0.931 . S
C537 C536 1.399 . S
C537 C538 1.390 . S
C538 C533 1.392 . S
C538 C537 1.390 . S
C538 H550 0.929 . S
O539 Tb523 2.326 . S
O539 C527 1.242 . S
O540 Eu524 2.324 . S
O540 C527 1.258 . S
O541 Tb523 2.500 . S
O541 C543 1.273 . S
O542 Tb523 2.473 . S
O542 C543 1.257 . S
C543 O541 1.273 . S
C543 O542 1.257 . S
O544 Eu524 2.326 . S
O544 C532 1.242 . S
O545 Tb523 2.324 . S
O545 C532 1.258 . S
O546 Eu524 2.500 . S
O546 C529 1.273 . S
O547 Eu524 2.473 . S
O547 C529 1.257 . S
H548 C534 0.929 . S
H549 C536 0.931 . S
H550 C538 0.929 . S
O551 Tb552 2.292 . S
O551 C554 1.255 . S
Tb552 O551 2.292 . S
Tb552 O568 2.326 . S
Tb552 O570 2.500 . S
Tb552 O571 2.473 . S
Tb552 O574 2.324 . S
Eu553 O557 2.292 . S
Eu553 C558 2.852 . S
Eu553 O569 2.324 . S
Eu553 O573 2.326 . S
Eu553 O575 2.500 . S
Eu553 O576 2.473 . S
C554 O551 1.255 . S
C554 O555 1.247 . S
O555 C554 1.247 . S
C556 O568 1.242 . S
C556 O569 1.258 . S
O557 Eu553 2.292 . S
O557 C559 1.255 . S
C558 Eu553 2.852 . S
C558 C562 1.503 . S
C558 O575 1.273 . S
C558 O576 1.257 . S
C559 O557 1.255 . S
C559 O560 1.247 . S
O560 C559 1.247 . S
C561 O573 1.242 . S
C561 O574 1.258 . S
C562 C558 1.503 . S
C562 C563 1.379 . S
C562 C567 1.392 . S
C563 C562 1.379 . S
C563 C564 1.404 . S
C563 H577 0.929 . S
C564 C563 1.404 . S
C564 C565 1.389 . S
C565 C564 1.389 . S
C565 C566 1.399 . S
C565 H578 0.931 . S
C566 C565 1.399 . S
C566 C567 1.390 . S
C567 C562 1.392 . S
C567 C566 1.390 . S
C567 H579 0.929 . S
O568 Tb552 2.326 . S
O568 C556 1.242 . S
O569 Eu553 2.324 . S
O569 C556 1.258 . S
O570 Tb552 2.500 . S
O570 C572 1.273 . S
O571 Tb552 2.473 . S
O571 C572 1.257 . S
C572 O570 1.273 . S
C572 O571 1.257 . S
O573 Eu553 2.326 . S
O573 C561 1.242 . S
O574 Tb552 2.324 . S
O574 C561 1.258 . S
O575 Eu553 2.500 . S
O575 C558 1.273 . S
O576 Eu553 2.473 . S
O576 C558 1.257 . S
H577 C563 0.929 . S
H578 C565 0.931 . S
H579 C567 0.929 . S
O580 Tb581 2.292 . S
O580 C583 1.255 . S
Tb581 O580 2.292 . S
Tb581 O597 2.326 . S
Tb581 O599 2.500 . S
Tb581 O600 2.473 . S
Tb581 O603 2.324 . S
Eu582 O586 2.292 . S
Eu582 C587 2.852 . S
Eu582 O598 2.324 . S
Eu582 O602 2.326 . S
Eu582 O604 2.500 . S
Eu582 O605 2.473 . S
C583 O580 1.255 . S
C583 O584 1.247 . S
O584 C583 1.247 . S
C585 O597 1.242 . S
C585 O598 1.258 . S
O586 Eu582 2.292 . S
O586 C588 1.255 . S
C587 Eu582 2.852 . S
C587 C591 1.503 . S
C587 O604 1.273 . S
C587 O605 1.257 . S
C588 O586 1.255 . S
C588 O589 1.247 . S
O589 C588 1.247 . S
C590 O602 1.242 . S
C590 O603 1.258 . S
C591 C587 1.503 . S
C591 C592 1.379 . S
C591 C596 1.392 . S
C592 C591 1.379 . S
C592 C593 1.404 . S
C592 H606 0.929 . S
C593 C592 1.404 . S
C593 C594 1.389 . S
C594 C593 1.389 . S
C594 C595 1.399 . S
C594 H607 0.931 . S
C595 C594 1.399 . S
C595 C596 1.390 . S
C596 C591 1.392 . S
C596 C595 1.390 . S
C596 H608 0.929 . S
O597 Tb581 2.326 . S
O597 C585 1.242 . S
O598 Eu582 2.324 . S
O598 C585 1.258 . S
O599 Tb581 2.500 . S
O599 C601 1.273 . S
O600 Tb581 2.473 . S
O600 C601 1.257 . S
C601 O599 1.273 . S
C601 O600 1.257 . S
O602 Eu582 2.326 . S
O602 C590 1.242 . S
O603 Tb581 2.324 . S
O603 C590 1.258 . S
O604 Eu582 2.500 . S
O604 C587 1.273 . S
O605 Eu582 2.473 . S
O605 C587 1.257 . S
H606 C592 0.929 . S
H607 C594 0.931 . S
H608 C596 0.929 . S
O609 Tb610 2.292 . S
O609 C612 1.255 . S
Tb610 O609 2.292 . S
Tb610 O626 2.326 . S
Tb610 O628 2.500 . S
Tb610 O629 2.473 . S
Tb610 O632 2.324 . S
Eu611 O615 2.292 . S
Eu611 C616 2.852 . S
Eu611 O627 2.324 . S
Eu611 O631 2.326 . S
Eu611 O633 2.500 . S
Eu611 O634 2.473 . S
C612 O609 1.255 . S
C612 O613 1.247 . S
O613 C612 1.247 . S
C614 O626 1.242 . S
C614 O627 1.258 . S
O615 Eu611 2.292 . S
O615 C617 1.255 1_554 S
C616 Eu611 2.852 . S
C616 C620 1.503 . S
C616 O633 1.273 . S
C616 O634 1.257 . S
C617 O615 1.255 1_556 S
C617 O618 1.247 . S
O618 C617 1.247 . S
C619 O631 1.242 . S
C619 O632 1.258 . S
C620 C616 1.503 . S
C620 C621 1.379 . S
C620 C625 1.392 . S
C621 C620 1.379 . S
C621 C622 1.404 . S
C621 H635 0.929 . S
C622 C621 1.404 . S
C622 C623 1.389 . S
C623 C622 1.389 . S
C623 C624 1.399 . S
C623 H636 0.931 . S
C624 C623 1.399 . S
C624 C625 1.390 . S
C625 C620 1.392 . S
C625 C624 1.390 . S
C625 H637 0.929 . S
O626 Tb610 2.326 . S
O626 C614 1.242 . S
O627 Eu611 2.324 . S
O627 C614 1.258 . S
O628 Tb610 2.500 . S
O628 C630 1.273 . S
O629 Tb610 2.473 . S
O629 C630 1.257 . S
C630 O628 1.273 . S
C630 O629 1.257 . S
O631 Eu611 2.326 . S
O631 C619 1.242 . S
O632 Tb610 2.324 . S
O632 C619 1.258 . S
O633 Eu611 2.500 . S
O633 C616 1.273 . S
O634 Eu611 2.473 . S
O634 C616 1.257 . S
H635 C621 0.929 . S
H636 C623 0.931 . S
H637 C625 0.929 . S
O638 Tb639 2.292 . S
O638 C641 1.255 . S
Tb639 O638 2.292 . S
Tb639 O655 2.326 . S
Tb639 O657 2.500 . S
Tb639 O658 2.473 . S
Tb639 O661 2.324 . S
Eu640 O644 2.292 . S
Eu640 C645 2.852 . S
Eu640 O656 2.324 . S
Eu640 O660 2.326 . S
Eu640 O662 2.500 . S
Eu640 O663 2.473 . S
C641 O638 1.255 . S
C641 O642 1.247 . S
O642 C641 1.247 . S
C643 O655 1.242 . S
C643 O656 1.258 . S
O644 Eu640 2.292 . S
O644 C646 1.255 1_554 S
C645 Eu640 2.852 . S
C645 C649 1.503 . S
C645 O662 1.273 . S
C645 O663 1.257 . S
C646 O644 1.255 1_556 S
C646 O647 1.247 . S
O647 C646 1.247 . S
C648 O660 1.242 . S
C648 O661 1.258 . S
C649 C645 1.503 . S
C649 C650 1.379 . S
C649 C654 1.392 . S
C650 C649 1.379 . S
C650 C651 1.404 . S
C650 H664 0.929 . S
C651 C650 1.404 . S
C651 C652 1.389 . S
C652 C651 1.389 . S
C652 C653 1.399 . S
C652 H665 0.931 . S
C653 C652 1.399 . S
C653 C654 1.390 . S
C654 C649 1.392 . S
C654 C653 1.390 . S
C654 H666 0.929 . S
O655 Tb639 2.326 . S
O655 C643 1.242 . S
O656 Eu640 2.324 . S
O656 C643 1.258 . S
O657 Tb639 2.500 . S
O657 C659 1.273 . S
O658 Tb639 2.473 . S
O658 C659 1.257 . S
C659 O657 1.273 . S
C659 O658 1.257 . S
O660 Eu640 2.326 . S
O660 C648 1.242 . S
O661 Tb639 2.324 . S
O661 C648 1.258 . S
O662 Eu640 2.500 . S
O662 C645 1.273 . S
O663 Eu640 2.473 . S
O663 C645 1.257 . S
H664 C650 0.929 . S
H665 C652 0.931 . S
H666 C654 0.929 . S
O667 Tb668 2.292 . S
O667 C670 1.255 . S
Tb668 O667 2.292 . S
Tb668 O684 2.326 . S
Tb668 O686 2.500 . S
Tb668 O687 2.473 . S
Tb668 O690 2.324 . S
Eu669 O673 2.292 . S
Eu669 C674 2.852 . S
Eu669 O685 2.324 . S
Eu669 O689 2.326 . S
Eu669 O691 2.500 . S
Eu669 O692 2.473 . S
C670 O667 1.255 . S
C670 O671 1.247 . S
O671 C670 1.247 . S
C672 O684 1.242 . S
C672 O685 1.258 . S
O673 Eu669 2.292 . S
O673 C675 1.255 1_554 S
C674 Eu669 2.852 . S
C674 C678 1.503 . S
C674 O691 1.273 . S
C674 O692 1.257 . S
C675 O673 1.255 1_556 S
C675 O676 1.247 . S
O676 C675 1.247 . S
C677 O689 1.242 . S
C677 O690 1.258 . S
C678 C674 1.503 . S
C678 C679 1.379 . S
C678 C683 1.392 . S
C679 C678 1.379 . S
C679 C680 1.404 . S
C679 H693 0.929 . S
C680 C679 1.404 . S
C680 C681 1.389 . S
C681 C680 1.389 . S
C681 C682 1.399 . S
C681 H694 0.931 . S
C682 C681 1.399 . S
C682 C683 1.390 . S
C683 C678 1.392 . S
C683 C682 1.390 . S
C683 H695 0.929 . S
O684 Tb668 2.326 . S
O684 C672 1.242 . S
O685 Eu669 2.324 . S
O685 C672 1.258 . S
O686 Tb668 2.500 . S
O686 C688 1.273 . S
O687 Tb668 2.473 . S
O687 C688 1.257 . S
C688 O686 1.273 . S
C688 O687 1.257 . S
O689 Eu669 2.326 . S
O689 C677 1.242 . S
O690 Tb668 2.324 . S
O690 C677 1.258 . S
O691 Eu669 2.500 . S
O691 C674 1.273 . S
O692 Eu669 2.473 . S
O692 C674 1.257 . S
H693 C679 0.929 . S
H694 C681 0.931 . S
H695 C683 0.929 . S
O696 Tb697 2.292 . S
O696 C699 1.255 . S
Tb697 O696 2.292 . S
Tb697 O713 2.326 . S
Tb697 O715 2.500 . S
Tb697 O716 2.473 . S
Tb697 O719 2.324 . S
Eu698 O702 2.292 . S
Eu698 C703 2.852 . S
Eu698 O714 2.324 . S
Eu698 O718 2.326 . S
Eu698 O720 2.500 . S
Eu698 O721 2.473 . S
C699 O696 1.255 . S
C699 O700 1.247 . S
O700 C699 1.247 . S
C701 O713 1.242 . S
C701 O714 1.258 . S
O702 Eu698 2.292 . S
O702 C704 1.255 1_655 S
C703 Eu698 2.852 . S
C703 C707 1.503 . S
C703 O720 1.273 . S
C703 O721 1.257 . S
C704 O702 1.255 1_455 S
C704 O705 1.247 . S
O705 C704 1.247 . S
C706 O718 1.242 . S
C706 O719 1.258 . S
C707 C703 1.503 . S
C707 C708 1.379 . S
C707 C712 1.392 . S
C708 C707 1.379 . S
C708 C709 1.404 . S
C708 H722 0.929 . S
C709 C708 1.404 . S
C709 C710 1.389 . S
C710 C709 1.389 . S
C710 C711 1.399 . S
C710 H723 0.931 . S
C711 C710 1.399 . S
C711 C712 1.390 . S
C712 C707 1.392 . S
C712 C711 1.390 . S
C712 H724 0.929 . S
O713 Tb697 2.326 . S
O713 C701 1.242 . S
O714 Eu698 2.324 . S
O714 C701 1.258 . S
O715 Tb697 2.500 . S
O715 C717 1.273 . S
O716 Tb697 2.473 . S
O716 C717 1.257 . S
C717 O715 1.273 . S
C717 O716 1.257 . S
O718 Eu698 2.326 . S
O718 C706 1.242 . S
O719 Tb697 2.324 . S
O719 C706 1.258 . S
O720 Eu698 2.500 . S
O720 C703 1.273 . S
O721 Eu698 2.473 . S
O721 C703 1.257 . S
H722 C708 0.929 . S
H723 C710 0.931 . S
H724 C712 0.929 . S
O725 Tb726 2.292 . S
O725 C728 1.255 . S
Tb726 O725 2.292 . S
Tb726 O742 2.326 . S
Tb726 O744 2.500 . S
Tb726 O745 2.473 . S
Tb726 O748 2.324 . S
Eu727 O731 2.292 . S
Eu727 C732 2.852 . S
Eu727 O743 2.324 . S
Eu727 O747 2.326 . S
Eu727 O749 2.500 . S
Eu727 O750 2.473 . S
C728 O725 1.255 . S
C728 O729 1.247 . S
O729 C728 1.247 . S
C730 O742 1.242 . S
C730 O743 1.258 . S
O731 Eu727 2.292 . S
O731 C733 1.255 1_565 S
C732 Eu727 2.852 . S
C732 C736 1.503 . S
C732 O749 1.273 . S
C732 O750 1.257 . S
C733 O731 1.255 1_545 S
C733 O734 1.247 . S
O734 C733 1.247 . S
C735 O747 1.242 . S
C735 O748 1.258 . S
C736 C732 1.503 . S
C736 C737 1.379 . S
C736 C741 1.392 . S
C737 C736 1.379 . S
C737 C738 1.404 . S
C737 H751 0.929 . S
C738 C737 1.404 . S
C738 C739 1.389 . S
C739 C738 1.389 . S
C739 C740 1.399 . S
C739 H752 0.931 . S
C740 C739 1.399 . S
C740 C741 1.390 . S
C741 C736 1.392 . S
C741 C740 1.390 . S
C741 H753 0.929 . S
O742 Tb726 2.326 . S
O742 C730 1.242 . S
O743 Eu727 2.324 . S
O743 C730 1.258 . S
O744 Tb726 2.500 . S
O744 C746 1.273 . S
O745 Tb726 2.473 . S
O745 C746 1.257 . S
C746 O744 1.273 . S
C746 O745 1.257 . S
O747 Eu727 2.326 . S
O747 C735 1.242 . S
O748 Tb726 2.324 . S
O748 C735 1.258 . S
O749 Eu727 2.500 . S
O749 C732 1.273 . S
O750 Eu727 2.473 . S
O750 C732 1.257 . S
H751 C737 0.929 . S
H752 C739 0.931 . S
H753 C741 0.929 . S
O754 Tb755 2.292 . S
O754 C757 1.255 . S
Tb755 O754 2.292 . S
Tb755 O771 2.326 . S
Tb755 O773 2.500 . S
Tb755 O774 2.473 . S
Tb755 O777 2.324 . S
Eu756 O760 2.292 . S
Eu756 C761 2.852 . S
Eu756 O772 2.324 . S
Eu756 O776 2.326 . S
Eu756 O778 2.500 . S
Eu756 O779 2.473 . S
C757 O754 1.255 . S
C757 O758 1.247 . S
O758 C757 1.247 . S
C759 O771 1.242 . S
C759 O772 1.258 . S
O760 Eu756 2.292 . S
O760 C762 1.255 . S
C761 Eu756 2.852 . S
C761 C765 1.503 . S
C761 O778 1.273 . S
C761 O779 1.257 . S
C762 O760 1.255 . S
C762 O763 1.247 . S
O763 C762 1.247 . S
C764 O776 1.242 . S
C764 O777 1.258 . S
C765 C761 1.503 . S
C765 C766 1.379 . S
C765 C770 1.392 . S
C766 C765 1.379 . S
C766 C767 1.404 . S
C766 H780 0.929 . S
C767 C766 1.404 . S
C767 C768 1.389 . S
C768 C767 1.389 . S
C768 C769 1.399 . S
C768 H781 0.931 . S
C769 C768 1.399 . S
C769 C770 1.390 . S
C770 C765 1.392 . S
C770 C769 1.390 . S
C770 H782 0.929 . S
O771 Tb755 2.326 . S
O771 C759 1.242 . S
O772 Eu756 2.324 . S
O772 C759 1.258 . S
O773 Tb755 2.500 . S
O773 C775 1.273 . S
O774 Tb755 2.473 . S
O774 C775 1.257 . S
C775 O773 1.273 . S
C775 O774 1.257 . S
O776 Eu756 2.326 . S
O776 C764 1.242 . S
O777 Tb755 2.324 . S
O777 C764 1.258 . S
O778 Eu756 2.500 . S
O778 C761 1.273 . S
O779 Eu756 2.473 . S
O779 C761 1.257 . S
H780 C766 0.929 . S
H781 C768 0.931 . S
H782 C770 0.929 . S
O783 Tb784 2.292 . S
O783 C786 1.255 . S
Tb784 O783 2.292 . S
Tb784 O800 2.326 . S
Tb784 O802 2.500 . S
Tb784 O803 2.473 . S
Tb784 O806 2.324 . S
Eu785 O789 2.292 . S
Eu785 C790 2.852 . S
Eu785 O801 2.324 . S
Eu785 O805 2.326 . S
Eu785 O807 2.500 . S
Eu785 O808 2.473 . S
C786 O783 1.255 . S
C786 O787 1.247 . S
O787 C786 1.247 . S
C788 O800 1.242 . S
C788 O801 1.258 . S
O789 Eu785 2.292 . S
O789 C791 1.255 . S
C790 Eu785 2.852 . S
C790 C794 1.503 . S
C790 O807 1.273 . S
C790 O808 1.257 . S
C791 O789 1.255 . S
C791 O792 1.247 . S
O792 C791 1.247 . S
C793 O805 1.242 . S
C793 O806 1.258 . S
C794 C790 1.503 . S
C794 C795 1.379 . S
C794 C799 1.392 . S
C795 C794 1.379 . S
C795 C796 1.404 . S
C795 H809 0.929 . S
C796 C795 1.404 . S
C796 C797 1.389 . S
C797 C796 1.389 . S
C797 C798 1.399 . S
C797 H810 0.931 . S
C798 C797 1.399 . S
C798 C799 1.390 . S
C799 C794 1.392 . S
C799 C798 1.390 . S
C799 H811 0.929 . S
O800 Tb784 2.326 . S
O800 C788 1.242 . S
O801 Eu785 2.324 . S
O801 C788 1.258 . S
O802 Tb784 2.500 . S
O802 C804 1.273 . S
O803 Tb784 2.473 . S
O803 C804 1.257 . S
C804 O802 1.273 . S
C804 O803 1.257 . S
O805 Eu785 2.326 . S
O805 C793 1.242 . S
O806 Tb784 2.324 . S
O806 C793 1.258 . S
O807 Eu785 2.500 . S
O807 C790 1.273 . S
O808 Eu785 2.473 . S
O808 C790 1.257 . S
H809 C795 0.929 . S
H810 C797 0.931 . S
H811 C799 0.929 . S
O812 Tb813 2.292 . S
O812 C815 1.255 . S
Tb813 O812 2.292 . S
Tb813 O829 2.326 . S
Tb813 O831 2.500 . S
Tb813 O832 2.473 . S
Tb813 O835 2.324 . S
Eu814 O818 2.292 . S
Eu814 C819 2.852 . S
Eu814 O830 2.324 . S
Eu814 O834 2.326 . S
Eu814 O836 2.500 . S
Eu814 O837 2.473 . S
C815 O812 1.255 . S
C815 O816 1.247 . S
O816 C815 1.247 . S
C817 O829 1.242 . S
C817 O830 1.258 . S
O818 Eu814 2.292 . S
O818 C820 1.255 1_655 S
C819 Eu814 2.852 . S
C819 C823 1.503 . S
C819 O836 1.273 . S
C819 O837 1.257 . S
C820 O818 1.255 1_455 S
C820 O821 1.247 . S
O821 C820 1.247 . S
C822 O834 1.242 . S
C822 O835 1.258 . S
C823 C819 1.503 . S
C823 C824 1.379 . S
C823 C828 1.392 . S
C824 C823 1.379 . S
C824 C825 1.404 . S
C824 H838 0.929 . S
C825 C824 1.404 . S
C825 C826 1.389 . S
C826 C825 1.389 . S
C826 C827 1.399 . S
C826 H839 0.931 . S
C827 C826 1.399 . S
C827 C828 1.390 . S
C828 C823 1.392 . S
C828 C827 1.390 . S
C828 H840 0.929 . S
O829 Tb813 2.326 . S
O829 C817 1.242 . S
O830 Eu814 2.324 . S
O830 C817 1.258 . S
O831 Tb813 2.500 . S
O831 C833 1.273 . S
O832 Tb813 2.473 . S
O832 C833 1.257 . S
C833 O831 1.273 . S
C833 O832 1.257 . S
O834 Eu814 2.326 . S
O834 C822 1.242 . S
O835 Tb813 2.324 . S
O835 C822 1.258 . S
O836 Eu814 2.500 . S
O836 C819 1.273 . S
O837 Eu814 2.473 . S
O837 C819 1.257 . S
H838 C824 0.929 . S
H839 C826 0.931 . S
H840 C828 0.929 . S
O841 Tb842 2.292 . S
O841 C844 1.255 . S
Tb842 O841 2.292 . S
Tb842 O858 2.326 . S
Tb842 O860 2.500 . S
Tb842 O861 2.473 . S
Tb842 O864 2.324 . S
Eu843 O847 2.292 . S
Eu843 C848 2.852 . S
Eu843 O859 2.324 . S
Eu843 O863 2.326 . S
Eu843 O865 2.500 . S
Eu843 O866 2.473 . S
C844 O841 1.255 . S
C844 O845 1.247 . S
O845 C844 1.247 . S
C846 O858 1.242 . S
C846 O859 1.258 . S
O847 Eu843 2.292 . S
O847 C849 1.255 1_565 S
C848 Eu843 2.852 . S
C848 C852 1.503 . S
C848 O865 1.273 . S
C848 O866 1.257 . S
C849 O847 1.255 1_545 S
C849 O850 1.247 . S
O850 C849 1.247 . S
C851 O863 1.242 . S
C851 O864 1.258 . S
C852 C848 1.503 . S
C852 C853 1.379 . S
C852 C857 1.392 . S
C853 C852 1.379 . S
C853 C854 1.404 . S
C853 H867 0.929 . S
C854 C853 1.404 . S
C854 C855 1.389 . S
C855 C854 1.389 . S
C855 C856 1.399 . S
C855 H868 0.931 . S
C856 C855 1.399 . S
C856 C857 1.390 . S
C857 C852 1.392 . S
C857 C856 1.390 . S
C857 H869 0.929 . S
O858 Tb842 2.326 . S
O858 C846 1.242 . S
O859 Eu843 2.324 . S
O859 C846 1.258 . S
O860 Tb842 2.500 . S
O860 C862 1.273 . S
O861 Tb842 2.473 . S
O861 C862 1.257 . S
C862 O860 1.273 . S
C862 O861 1.257 . S
O863 Eu843 2.326 . S
O863 C851 1.242 . S
O864 Tb842 2.324 . S
O864 C851 1.258 . S
O865 Eu843 2.500 . S
O865 C848 1.273 . S
O866 Eu843 2.473 . S
O866 C848 1.257 . S
H867 C853 0.929 . S
H868 C855 0.931 . S
H869 C857 0.929 . S
O870 Tb871 2.292 . S
O870 C873 1.255 . S
Tb871 O870 2.292 . S
Tb871 O887 2.326 . S
Tb871 O889 2.500 . S
Tb871 O890 2.473 . S
Tb871 O893 2.324 . S
Eu872 O876 2.292 . S
Eu872 C877 2.852 . S
Eu872 O888 2.324 . S
Eu872 O892 2.326 . S
Eu872 O894 2.500 . S
Eu872 O895 2.473 . S
C873 O870 1.255 . S
C873 O874 1.247 . S
O874 C873 1.247 . S
C875 O887 1.242 . S
C875 O888 1.258 . S
O876 Eu872 2.292 . S
O876 C878 1.255 . S
C877 Eu872 2.852 . S
C877 C881 1.503 . S
C877 O894 1.273 . S
C877 O895 1.257 . S
C878 O876 1.255 . S
C878 O879 1.247 . S
O879 C878 1.247 . S
C880 O892 1.242 . S
C880 O893 1.258 . S
C881 C877 1.503 . S
C881 C882 1.379 . S
C881 C886 1.392 . S
C882 C881 1.379 . S
C882 C883 1.404 . S
C882 H896 0.929 . S
C883 C882 1.404 . S
C883 C884 1.389 . S
C884 C883 1.389 . S
C884 C885 1.399 . S
C884 H897 0.931 . S
C885 C884 1.399 . S
C885 C886 1.390 . S
C886 C881 1.392 . S
C886 C885 1.390 . S
C886 H898 0.929 . S
O887 Tb871 2.326 . S
O887 C875 1.242 . S
O888 Eu872 2.324 . S
O888 C875 1.258 . S
O889 Tb871 2.500 . S
O889 C891 1.273 . S
O890 Tb871 2.473 . S
O890 C891 1.257 . S
C891 O889 1.273 . S
C891 O890 1.257 . S
O892 Eu872 2.326 . S
O892 C880 1.242 . S
O893 Tb871 2.324 . S
O893 C880 1.258 . S
O894 Eu872 2.500 . S
O894 C877 1.273 . S
O895 Eu872 2.473 . S
O895 C877 1.257 . S
H896 C882 0.929 . S
H897 C884 0.931 . S
H898 C886 0.929 . S
O899 Tb900 2.292 . S
O899 C902 1.255 . S
Tb900 O899 2.292 . S
Tb900 O916 2.326 . S
Tb900 O918 2.500 . S
Tb900 O919 2.473 . S
Tb900 O922 2.324 . S
Eu901 O905 2.292 . S
Eu901 C906 2.852 . S
Eu901 O917 2.324 . S
Eu901 O921 2.326 . S
Eu901 O923 2.500 . S
Eu901 O924 2.473 . S
C902 O899 1.255 . S
C902 O903 1.247 . S
O903 C902 1.247 . S
C904 O916 1.242 . S
C904 O917 1.258 . S
O905 Eu901 2.292 . S
O905 C907 1.255 . S
C906 Eu901 2.852 . S
C906 C910 1.503 . S
C906 O923 1.273 . S
C906 O924 1.257 . S
C907 O905 1.255 . S
C907 O908 1.247 . S
O908 C907 1.247 . S
C909 O921 1.242 . S
C909 O922 1.258 . S
C910 C906 1.503 . S
C910 C911 1.379 . S
C910 C915 1.392 . S
C911 C910 1.379 . S
C911 C912 1.404 . S
C911 H925 0.929 . S
C912 C911 1.404 . S
C912 C913 1.389 . S
C913 C912 1.389 . S
C913 C914 1.399 . S
C913 H926 0.931 . S
C914 C913 1.399 . S
C914 C915 1.390 . S
C915 C910 1.392 . S
C915 C914 1.390 . S
C915 H927 0.929 . S
O916 Tb900 2.326 . S
O916 C904 1.242 . S
O917 Eu901 2.324 . S
O917 C904 1.258 . S
O918 Tb900 2.500 . S
O918 C920 1.273 . S
O919 Tb900 2.473 . S
O919 C920 1.257 . S
C920 O918 1.273 . S
C920 O919 1.257 . S
O921 Eu901 2.326 . S
O921 C909 1.242 . S
O922 Tb900 2.324 . S
O922 C909 1.258 . S
O923 Eu901 2.500 . S
O923 C906 1.273 . S
O924 Eu901 2.473 . S
O924 C906 1.257 . S
H925 C911 0.929 . S
H926 C913 0.931 . S
H927 C915 0.929 . S
O928 Tb929 2.292 . S
O928 C931 1.255 . S
Tb929 O928 2.292 . S
Tb929 O945 2.326 . S
Tb929 O947 2.500 . S
Tb929 O948 2.473 . S
Tb929 O951 2.324 . S
Eu930 O934 2.292 . S
Eu930 C935 2.852 . S
Eu930 O946 2.324 . S
Eu930 O950 2.326 . S
Eu930 O952 2.500 . S
Eu930 O953 2.473 . S
C931 O928 1.255 . S
C931 O932 1.247 . S
O932 C931 1.247 . S
C933 O945 1.242 . S
C933 O946 1.258 . S
O934 Eu930 2.292 . S
O934 C936 1.255 1_565 S
C935 Eu930 2.852 . S
C935 C939 1.503 . S
C935 O952 1.273 . S
C935 O953 1.257 . S
C936 O934 1.255 1_545 S
C936 O937 1.247 . S
O937 C936 1.247 . S
C938 O950 1.242 . S
C938 O951 1.258 . S
C939 C935 1.503 . S
C939 C940 1.379 . S
C939 C944 1.392 . S
C940 C939 1.379 . S
C940 C941 1.404 . S
C940 H954 0.929 . S
C941 C940 1.404 . S
C941 C942 1.389 . S
C942 C941 1.389 . S
C942 C943 1.399 . S
C942 H955 0.931 . S
C943 C942 1.399 . S
C943 C944 1.390 . S
C944 C939 1.392 . S
C944 C943 1.390 . S
C944 H956 0.929 . S
O945 Tb929 2.326 . S
O945 C933 1.242 . S
O946 Eu930 2.324 . S
O946 C933 1.258 . S
O947 Tb929 2.500 . S
O947 C949 1.273 . S
O948 Tb929 2.473 . S
O948 C949 1.257 . S
C949 O947 1.273 . S
C949 O948 1.257 . S
O950 Eu930 2.326 . S
O950 C938 1.242 . S
O951 Tb929 2.324 . S
O951 C938 1.258 . S
O952 Eu930 2.500 . S
O952 C935 1.273 . S
O953 Eu930 2.473 . S
O953 C935 1.257 . S
H954 C940 0.929 . S
H955 C942 0.931 . S
H956 C944 0.929 . S
O957 Tb958 2.292 . S
O957 C960 1.255 . S
Tb958 O957 2.292 . S
Tb958 O974 2.326 . S
Tb958 O976 2.500 . S
Tb958 O977 2.473 . S
Tb958 O980 2.324 . S
Eu959 O963 2.292 . S
Eu959 C964 2.852 . S
Eu959 O975 2.324 . S
Eu959 O979 2.326 . S
Eu959 O981 2.500 . S
Eu959 O982 2.473 . S
C960 O957 1.255 . S
C960 O961 1.247 . S
O961 C960 1.247 . S
C962 O974 1.242 . S
C962 O975 1.258 . S
O963 Eu959 2.292 . S
O963 C965 1.255 . S
C964 Eu959 2.852 . S
C964 C968 1.503 . S
C964 O981 1.273 . S
C964 O982 1.257 . S
C965 O963 1.255 . S
C965 O966 1.247 . S
O966 C965 1.247 . S
C967 O979 1.242 . S
C967 O980 1.258 . S
C968 C964 1.503 . S
C968 C969 1.379 . S
C968 C973 1.392 . S
C969 C968 1.379 . S
C969 C970 1.404 . S
C969 H983 0.929 . S
C970 C969 1.404 . S
C970 C971 1.389 . S
C971 C970 1.389 . S
C971 C972 1.399 . S
C971 H984 0.931 . S
C972 C971 1.399 . S
C972 C973 1.390 . S
C973 C968 1.392 . S
C973 C972 1.390 . S
C973 H985 0.929 . S
O974 Tb958 2.326 . S
O974 C962 1.242 . S
O975 Eu959 2.324 . S
O975 C962 1.258 . S
O976 Tb958 2.500 . S
O976 C978 1.273 . S
O977 Tb958 2.473 . S
O977 C978 1.257 . S
C978 O976 1.273 . S
C978 O977 1.257 . S
O979 Eu959 2.326 . S
O979 C967 1.242 . S
O980 Tb958 2.324 . S
O980 C967 1.258 . S
O981 Eu959 2.500 . S
O981 C964 1.273 . S
O982 Eu959 2.473 . S
O982 C964 1.257 . S
H983 C969 0.929 . S
H984 C971 0.931 . S
H985 C973 0.929 . S
O986 Tb987 2.292 . S
O986 C989 1.255 . S
Tb987 O986 2.292 . S
Tb987 O1003 2.326 . S
Tb987 O1005 2.500 . S
Tb987 O1006 2.473 . S
Tb987 O1009 2.324 . S
Eu988 O992 2.292 . S
Eu988 C993 2.852 . S
Eu988 O1004 2.324 . S
Eu988 O1008 2.326 . S
Eu988 O1010 2.500 . S
Eu988 O1011 2.473 . S
C989 O986 1.255 . S
C989 O990 1.247 . S
O990 C989 1.247 . S
C991 O1003 1.242 . S
C991 O1004 1.258 . S
O992 Eu988 2.292 . S
O992 C994 1.255 . S
C993 Eu988 2.852 . S
C993 C997 1.503 . S
C993 O1010 1.273 . S
C993 O1011 1.257 . S
C994 O992 1.255 . S
C994 O995 1.247 . S
O995 C994 1.247 . S
C996 O1008 1.242 . S
C996 O1009 1.258 . S
C997 C993 1.503 . S
C997 C998 1.379 . S
C997 C1002 1.392 . S
C998 C997 1.379 . S
C998 C999 1.404 . S
C998 H1012 0.929 . S
C999 C998 1.404 . S
C999 C1000 1.389 . S
C1000 C999 1.389 . S
C1000 C1001 1.399 . S
C1000 H1013 0.931 . S
C1001 C1000 1.399 . S
C1001 C1002 1.390 . S
C1002 C997 1.392 . S
C1002 C1001 1.390 . S
C1002 H1014 0.929 . S
O1003 Tb987 2.326 . S
O1003 C991 1.242 . S
O1004 Eu988 2.324 . S
O1004 C991 1.258 . S
O1005 Tb987 2.500 . S
O1005 C1007 1.273 . S
O1006 Tb987 2.473 . S
O1006 C1007 1.257 . S
C1007 O1005 1.273 . S
C1007 O1006 1.257 . S
O1008 Eu988 2.326 . S
O1008 C996 1.242 . S
O1009 Tb987 2.324 . S
O1009 C996 1.258 . S
O1010 Eu988 2.500 . S
O1010 C993 1.273 . S
O1011 Eu988 2.473 . S
O1011 C993 1.257 . S
H1012 C998 0.929 . S
H1013 C1000 0.931 . S
H1014 C1002 0.929 . S
O1015 Tb1016 2.292 . S
O1015 C1018 1.255 . S
Tb1016 O1015 2.292 . S
Tb1016 O1032 2.326 . S
Tb1016 O1034 2.500 . S
Tb1016 O1035 2.473 . S
Tb1016 O1038 2.324 . S
Eu1017 O1021 2.292 . S
Eu1017 C1022 2.852 . S
Eu1017 O1033 2.324 . S
Eu1017 O1037 2.326 . S
Eu1017 O1039 2.500 . S
Eu1017 O1040 2.473 . S
C1018 O1015 1.255 . S
C1018 O1019 1.247 . S
O1019 C1018 1.247 . S
C1020 O1032 1.242 . S
C1020 O1033 1.258 . S
O1021 Eu1017 2.292 . S
O1021 C1023 1.255 1_655 S
C1022 Eu1017 2.852 . S
C1022 C1026 1.503 . S
C1022 O1039 1.273 . S
C1022 O1040 1.257 . S
C1023 O1021 1.255 1_455 S
C1023 O1024 1.247 . S
O1024 C1023 1.247 . S
C1025 O1037 1.242 . S
C1025 O1038 1.258 . S
C1026 C1022 1.503 . S
C1026 C1027 1.379 . S
C1026 C1031 1.392 . S
C1027 C1026 1.379 . S
C1027 C1028 1.404 . S
C1027 H1041 0.929 . S
C1028 C1027 1.404 . S
C1028 C1029 1.389 . S
C1029 C1028 1.389 . S
C1029 C1030 1.399 . S
C1029 H1042 0.931 . S
C1030 C1029 1.399 . S
C1030 C1031 1.390 . S
C1031 C1026 1.392 . S
C1031 C1030 1.390 . S
C1031 H1043 0.929 . S
O1032 Tb1016 2.326 . S
O1032 C1020 1.242 . S
O1033 Eu1017 2.324 . S
O1033 C1020 1.258 . S
O1034 Tb1016 2.500 . S
O1034 C1036 1.273 . S
O1035 Tb1016 2.473 . S
O1035 C1036 1.257 . S
C1036 O1034 1.273 . S
C1036 O1035 1.257 . S
O1037 Eu1017 2.326 . S
O1037 C1025 1.242 . S
O1038 Tb1016 2.324 . S
O1038 C1025 1.258 . S
O1039 Eu1017 2.500 . S
O1039 C1022 1.273 . S
O1040 Eu1017 2.473 . S
O1040 C1022 1.257 . S
H1041 C1027 0.929 . S
H1042 C1029 0.931 . S
H1043 C1031 0.929 . S
O1044 Tb1045 2.292 . S
O1044 C1047 1.255 . S
Tb1045 O1044 2.292 . S
Tb1045 O1061 2.326 . S
Tb1045 O1063 2.500 . S
Tb1045 O1064 2.473 . S
Tb1045 O1067 2.324 . S
Eu1046 O1050 2.292 . S
Eu1046 C1051 2.852 . S
Eu1046 O1062 2.324 . S
Eu1046 O1066 2.326 . S
Eu1046 O1068 2.500 . S
Eu1046 O1069 2.473 . S
C1047 O1044 1.255 . S
C1047 O1048 1.247 . S
O1048 C1047 1.247 . S
C1049 O1061 1.242 . S
C1049 O1062 1.258 . S
O1050 Eu1046 2.292 . S
O1050 C1052 1.255 . S
C1051 Eu1046 2.852 . S
C1051 C1055 1.503 . S
C1051 O1068 1.273 . S
C1051 O1069 1.257 . S
C1052 O1050 1.255 . S
C1052 O1053 1.247 . S
O1053 C1052 1.247 . S
C1054 O1066 1.242 . S
C1054 O1067 1.258 . S
C1055 C1051 1.503 . S
C1055 C1056 1.379 . S
C1055 C1060 1.392 . S
C1056 C1055 1.379 . S
C1056 C1057 1.404 . S
C1056 H1070 0.929 . S
C1057 C1056 1.404 . S
C1057 C1058 1.389 . S
C1058 C1057 1.389 . S
C1058 C1059 1.399 . S
C1058 H1071 0.931 . S
C1059 C1058 1.399 . S
C1059 C1060 1.390 . S
C1060 C1055 1.392 . S
C1060 C1059 1.390 . S
C1060 H1072 0.929 . S
O1061 Tb1045 2.326 . S
O1061 C1049 1.242 . S
O1062 Eu1046 2.324 . S
O1062 C1049 1.258 . S
O1063 Tb1045 2.500 . S
O1063 C1065 1.273 . S
O1064 Tb1045 2.473 . S
O1064 C1065 1.257 . S
C1065 O1063 1.273 . S
C1065 O1064 1.257 . S
O1066 Eu1046 2.326 . S
O1066 C1054 1.242 . S
O1067 Tb1045 2.324 . S
O1067 C1054 1.258 . S
O1068 Eu1046 2.500 . S
O1068 C1051 1.273 . S
O1069 Eu1046 2.473 . S
O1069 C1051 1.257 . S
H1070 C1056 0.929 . S
H1071 C1058 0.931 . S
H1072 C1060 0.929 . S
O1073 Tb1074 2.292 . S
O1073 C1076 1.255 . S
Tb1074 O1073 2.292 . S
Tb1074 O1090 2.326 . S
Tb1074 O1092 2.500 . S
Tb1074 O1093 2.473 . S
Tb1074 O1096 2.324 . S
Eu1075 O1079 2.292 . S
Eu1075 C1080 2.852 . S
Eu1075 O1091 2.324 . S
Eu1075 O1095 2.326 . S
Eu1075 O1097 2.500 . S
Eu1075 O1098 2.473 . S
C1076 O1073 1.255 . S
C1076 O1077 1.247 . S
O1077 C1076 1.247 . S
C1078 O1090 1.242 . S
C1078 O1091 1.258 . S
O1079 Eu1075 2.292 . S
O1079 C1081 1.255 1_655 S
C1080 Eu1075 2.852 . S
C1080 C1084 1.503 . S
C1080 O1097 1.273 . S
C1080 O1098 1.257 . S
C1081 O1079 1.255 1_455 S
C1081 O1082 1.247 . S
O1082 C1081 1.247 . S
C1083 O1095 1.242 . S
C1083 O1096 1.258 . S
C1084 C1080 1.503 . S
C1084 C1085 1.379 . S
C1084 C1089 1.392 . S
C1085 C1084 1.379 . S
C1085 C1086 1.404 . S
C1085 H1099 0.929 . S
C1086 C1085 1.404 . S
C1086 C1087 1.389 . S
C1087 C1086 1.389 . S
C1087 C1088 1.399 . S
C1087 H1100 0.931 . S
C1088 C1087 1.399 . S
C1088 C1089 1.390 . S
C1089 C1084 1.392 . S
C1089 C1088 1.390 . S
C1089 H1101 0.929 . S
O1090 Tb1074 2.326 . S
O1090 C1078 1.242 . S
O1091 Eu1075 2.324 . S
O1091 C1078 1.258 . S
O1092 Tb1074 2.500 . S
O1092 C1094 1.273 . S
O1093 Tb1074 2.473 . S
O1093 C1094 1.257 . S
C1094 O1092 1.273 . S
C1094 O1093 1.257 . S
O1095 Eu1075 2.326 . S
O1095 C1083 1.242 . S
O1096 Tb1074 2.324 . S
O1096 C1083 1.258 . S
O1097 Eu1075 2.500 . S
O1097 C1080 1.273 . S
O1098 Eu1075 2.473 . S
O1098 C1080 1.257 . S
H1099 C1085 0.929 . S
H1100 C1087 0.931 . S
H1101 C1089 0.929 . S
O1102 Tb1103 2.292 . S
O1102 C1105 1.255 . S
Tb1103 O1102 2.292 . S
Tb1103 O1119 2.326 . S
Tb1103 O1121 2.500 . S
Tb1103 O1122 2.473 . S
Tb1103 O1125 2.324 . S
Eu1104 O1108 2.292 . S
Eu1104 C1109 2.852 . S
Eu1104 O1120 2.324 . S
Eu1104 O1124 2.326 . S
Eu1104 O1126 2.500 . S
Eu1104 O1127 2.473 . S
C1105 O1102 1.255 . S
C1105 O1106 1.247 . S
O1106 C1105 1.247 . S
C1107 O1119 1.242 . S
C1107 O1120 1.258 . S
O1108 Eu1104 2.292 . S
O1108 C1110 1.255 1_565 S
C1109 Eu1104 2.852 . S
C1109 C1113 1.503 . S
C1109 O1126 1.273 . S
C1109 O1127 1.257 . S
C1110 O1108 1.255 1_545 S
C1110 O1111 1.247 . S
O1111 C1110 1.247 . S
C1112 O1124 1.242 . S
C1112 O1125 1.258 . S
C1113 C1109 1.503 . S
C1113 C1114 1.379 . S
C1113 C1118 1.392 . S
C1114 C1113 1.379 . S
C1114 C1115 1.404 . S
C1114 H1128 0.929 . S
C1115 C1114 1.404 . S
C1115 C1116 1.389 . S
C1116 C1115 1.389 . S
C1116 C1117 1.399 . S
C1116 H1129 0.931 . S
C1117 C1116 1.399 . S
C1117 C1118 1.390 . S
C1118 C1113 1.392 . S
C1118 C1117 1.390 . S
C1118 H1130 0.929 . S
O1119 Tb1103 2.326 . S
O1119 C1107 1.242 . S
O1120 Eu1104 2.324 . S
O1120 C1107 1.258 . S
O1121 Tb1103 2.500 . S
O1121 C1123 1.273 . S
O1122 Tb1103 2.473 . S
O1122 C1123 1.257 . S
C1123 O1121 1.273 . S
C1123 O1122 1.257 . S
O1124 Eu1104 2.326 . S
O1124 C1112 1.242 . S
O1125 Tb1103 2.324 . S
O1125 C1112 1.258 . S
O1126 Eu1104 2.500 . S
O1126 C1109 1.273 . S
O1127 Eu1104 2.473 . S
O1127 C1109 1.257 . S
H1128 C1114 0.929 . S
H1129 C1116 0.931 . S
H1130 C1118 0.929 . S
O1131 Tb1132 2.292 . S
O1131 C1134 1.255 . S
Tb1132 O1131 2.292 . S
Tb1132 O1148 2.326 . S
Tb1132 O1150 2.500 . S
Tb1132 O1151 2.473 . S
Tb1132 O1154 2.324 . S
Eu1133 O1137 2.292 . S
Eu1133 C1138 2.852 . S
Eu1133 O1149 2.324 . S
Eu1133 O1153 2.326 . S
Eu1133 O1155 2.500 . S
Eu1133 O1156 2.473 . S
C1134 O1131 1.255 . S
C1134 O1135 1.247 . S
O1135 C1134 1.247 . S
C1136 O1148 1.242 . S
C1136 O1149 1.258 . S
O1137 Eu1133 2.292 . S
O1137 C1139 1.255 . S
C1138 Eu1133 2.852 . S
C1138 C1142 1.503 . S
C1138 O1155 1.273 . S
C1138 O1156 1.257 . S
C1139 O1137 1.255 . S
C1139 O1140 1.247 . S
O1140 C1139 1.247 . S
C1141 O1153 1.242 . S
C1141 O1154 1.258 . S
C1142 C1138 1.503 . S
C1142 C1143 1.379 . S
C1142 C1147 1.392 . S
C1143 C1142 1.379 . S
C1143 C1144 1.404 . S
C1143 H1157 0.929 . S
C1144 C1143 1.404 . S
C1144 C1145 1.389 . S
C1145 C1144 1.389 . S
C1145 C1146 1.399 . S
C1145 H1158 0.931 . S
C1146 C1145 1.399 . S
C1146 C1147 1.390 . S
C1147 C1142 1.392 . S
C1147 C1146 1.390 . S
C1147 H1159 0.929 . S
O1148 Tb1132 2.326 . S
O1148 C1136 1.242 . S
O1149 Eu1133 2.324 . S
O1149 C1136 1.258 . S
O1150 Tb1132 2.500 . S
O1150 C1152 1.273 . S
O1151 Tb1132 2.473 . S
O1151 C1152 1.257 . S
C1152 O1150 1.273 . S
C1152 O1151 1.257 . S
O1153 Eu1133 2.326 . S
O1153 C1141 1.242 . S
O1154 Tb1132 2.324 . S
O1154 C1141 1.258 . S
O1155 Eu1133 2.500 . S
O1155 C1138 1.273 . S
O1156 Eu1133 2.473 . S
O1156 C1138 1.257 . S
H1157 C1143 0.929 . S
H1158 C1145 0.931 . S
H1159 C1147 0.929 . S
O1160 Tb1161 2.292 . S
O1160 C1163 1.255 . S
Tb1161 O1160 2.292 . S
Tb1161 O1177 2.326 . S
Tb1161 O1179 2.500 . S
Tb1161 O1180 2.473 . S
Tb1161 O1183 2.324 . S
Eu1162 O1166 2.292 . S
Eu1162 C1167 2.852 . S
Eu1162 O1178 2.324 . S
Eu1162 O1182 2.326 . S
Eu1162 O1184 2.500 . S
Eu1162 O1185 2.473 . S
C1163 O1160 1.255 . S
C1163 O1164 1.247 . S
O1164 C1163 1.247 . S
C1165 O1177 1.242 . S
C1165 O1178 1.258 . S
O1166 Eu1162 2.292 . S
O1166 C1168 1.255 1_556 S
C1167 Eu1162 2.852 . S
C1167 C1171 1.503 . S
C1167 O1184 1.273 . S
C1167 O1185 1.257 . S
C1168 O1166 1.255 1_554 S
C1168 O1169 1.247 . S
O1169 C1168 1.247 . S
C1170 O1182 1.242 . S
C1170 O1183 1.258 . S
C1171 C1167 1.503 . S
C1171 C1172 1.379 . S
C1171 C1176 1.392 . S
C1172 C1171 1.379 . S
C1172 C1173 1.404 . S
C1172 H1186 0.929 . S
C1173 C1172 1.404 . S
C1173 C1174 1.389 . S
C1174 C1173 1.389 . S
C1174 C1175 1.399 . S
C1174 H1187 0.931 . S
C1175 C1174 1.399 . S
C1175 C1176 1.390 . S
C1176 C1171 1.392 . S
C1176 C1175 1.390 . S
C1176 H1188 0.929 . S
O1177 Tb1161 2.326 . S
O1177 C1165 1.242 . S
O1178 Eu1162 2.324 . S
O1178 C1165 1.258 . S
O1179 Tb1161 2.500 . S
O1179 C1181 1.273 . S
O1180 Tb1161 2.473 . S
O1180 C1181 1.257 . S
C1181 O1179 1.273 . S
C1181 O1180 1.257 . S
O1182 Eu1162 2.326 . S
O1182 C1170 1.242 . S
O1183 Tb1161 2.324 . S
O1183 C1170 1.258 . S
O1184 Eu1162 2.500 . S
O1184 C1167 1.273 . S
O1185 Eu1162 2.473 . S
O1185 C1167 1.257 . S
H1186 C1172 0.929 . S
H1187 C1174 0.931 . S
H1188 C1176 0.929 . S
O1189 Tb1190 2.292 . S
O1189 C1192 1.255 . S
Tb1190 O1189 2.292 . S
Tb1190 O1206 2.326 . S
Tb1190 O1208 2.500 . S
Tb1190 O1209 2.473 . S
Tb1190 O1212 2.324 . S
Eu1191 O1195 2.292 . S
Eu1191 C1196 2.852 . S
Eu1191 O1207 2.324 . S
Eu1191 O1211 2.326 . S
Eu1191 O1213 2.500 . S
Eu1191 O1214 2.473 . S
C1192 O1189 1.255 . S
C1192 O1193 1.247 . S
O1193 C1192 1.247 . S
C1194 O1206 1.242 . S
C1194 O1207 1.258 . S
O1195 Eu1191 2.292 . S
O1195 C1197 1.255 . S
C1196 Eu1191 2.852 . S
C1196 C1200 1.503 . S
C1196 O1213 1.273 . S
C1196 O1214 1.257 . S
C1197 O1195 1.255 . S
C1197 O1198 1.247 . S
O1198 C1197 1.247 . S
C1199 O1211 1.242 . S
C1199 O1212 1.258 . S
C1200 C1196 1.503 . S
C1200 C1201 1.379 . S
C1200 C1205 1.392 . S
C1201 C1200 1.379 . S
C1201 C1202 1.404 . S
C1201 H1215 0.929 . S
C1202 C1201 1.404 . S
C1202 C1203 1.389 . S
C1203 C1202 1.389 . S
C1203 C1204 1.399 . S
C1203 H1216 0.931 . S
C1204 C1203 1.399 . S
C1204 C1205 1.390 . S
C1205 C1200 1.392 . S
C1205 C1204 1.390 . S
C1205 H1217 0.929 . S
O1206 Tb1190 2.326 . S
O1206 C1194 1.242 . S
O1207 Eu1191 2.324 . S
O1207 C1194 1.258 . S
O1208 Tb1190 2.500 . S
O1208 C1210 1.273 . S
O1209 Tb1190 2.473 . S
O1209 C1210 1.257 . S
C1210 O1208 1.273 . S
C1210 O1209 1.257 . S
O1211 Eu1191 2.326 . S
O1211 C1199 1.242 . S
O1212 Tb1190 2.324 . S
O1212 C1199 1.258 . S
O1213 Eu1191 2.500 . S
O1213 C1196 1.273 . S
O1214 Eu1191 2.473 . S
O1214 C1196 1.257 . S
H1215 C1201 0.929 . S
H1216 C1203 0.931 . S
H1217 C1205 0.929 . S
O1218 Tb1219 2.292 . S
O1218 C1221 1.255 . S
Tb1219 O1218 2.292 . S
Tb1219 O1235 2.326 . S
Tb1219 O1237 2.500 . S
Tb1219 O1238 2.473 . S
Tb1219 O1241 2.324 . S
Eu1220 O1224 2.292 . S
Eu1220 C1225 2.852 . S
Eu1220 O1236 2.324 . S
Eu1220 O1240 2.326 . S
Eu1220 O1242 2.500 . S
Eu1220 O1243 2.473 . S
C1221 O1218 1.255 . S
C1221 O1222 1.247 . S
O1222 C1221 1.247 . S
C1223 O1235 1.242 . S
C1223 O1236 1.258 . S
O1224 Eu1220 2.292 . S
O1224 C1226 1.255 . S
C1225 Eu1220 2.852 . S
C1225 C1229 1.503 . S
C1225 O1242 1.273 . S
C1225 O1243 1.257 . S
C1226 O1224 1.255 . S
C1226 O1227 1.247 . S
O1227 C1226 1.247 . S
C1228 O1240 1.242 . S
C1228 O1241 1.258 . S
C1229 C1225 1.503 . S
C1229 C1230 1.379 . S
C1229 C1234 1.392 . S
C1230 C1229 1.379 . S
C1230 C1231 1.404 . S
C1230 H1244 0.929 . S
C1231 C1230 1.404 . S
C1231 C1232 1.389 . S
C1232 C1231 1.389 . S
C1232 C1233 1.399 . S
C1232 H1245 0.931 . S
C1233 C1232 1.399 . S
C1233 C1234 1.390 . S
C1234 C1229 1.392 . S
C1234 C1233 1.390 . S
C1234 H1246 0.929 . S
O1235 Tb1219 2.326 . S
O1235 C1223 1.242 . S
O1236 Eu1220 2.324 . S
O1236 C1223 1.258 . S
O1237 Tb1219 2.500 . S
O1237 C1239 1.273 . S
O1238 Tb1219 2.473 . S
O1238 C1239 1.257 . S
C1239 O1237 1.273 . S
C1239 O1238 1.257 . S
O1240 Eu1220 2.326 . S
O1240 C1228 1.242 . S
O1241 Tb1219 2.324 . S
O1241 C1228 1.258 . S
O1242 Eu1220 2.500 . S
O1242 C1225 1.273 . S
O1243 Eu1220 2.473 . S
O1243 C1225 1.257 . S
H1244 C1230 0.929 . S
H1245 C1232 0.931 . S
H1246 C1234 0.929 . S
O1247 Tb1248 2.292 . S
O1247 C1250 1.255 . S
Tb1248 O1247 2.292 . S
Tb1248 O1264 2.326 . S
Tb1248 O1266 2.500 . S
Tb1248 O1267 2.473 . S
Tb1248 O1270 2.324 . S
Eu1249 O1253 2.292 . S
Eu1249 C1254 2.852 . S
Eu1249 O1265 2.324 . S
Eu1249 O1269 2.326 . S
Eu1249 O1271 2.500 . S
Eu1249 O1272 2.473 . S
C1250 O1247 1.255 . S
C1250 O1251 1.247 . S
O1251 C1250 1.247 . S
C1252 O1264 1.242 . S
C1252 O1265 1.258 . S
O1253 Eu1249 2.292 . S
O1253 C1255 1.255 . S
C1254 Eu1249 2.852 . S
C1254 C1258 1.503 . S
C1254 O1271 1.273 . S
C1254 O1272 1.257 . S
C1255 O1253 1.255 . S
C1255 O1256 1.247 . S
O1256 C1255 1.247 . S
C1257 O1269 1.242 . S
C1257 O1270 1.258 . S
C1258 C1254 1.503 . S
C1258 C1259 1.379 . S
C1258 C1263 1.392 . S
C1259 C1258 1.379 . S
C1259 C1260 1.404 . S
C1259 H1273 0.929 . S
C1260 C1259 1.404 . S
C1260 C1261 1.389 . S
C1261 C1260 1.389 . S
C1261 C1262 1.399 . S
C1261 H1274 0.931 . S
C1262 C1261 1.399 . S
C1262 C1263 1.390 . S
C1263 C1258 1.392 . S
C1263 C1262 1.390 . S
C1263 H1275 0.929 . S
O1264 Tb1248 2.326 . S
O1264 C1252 1.242 . S
O1265 Eu1249 2.324 . S
O1265 C1252 1.258 . S
O1266 Tb1248 2.500 . S
O1266 C1268 1.273 . S
O1267 Tb1248 2.473 . S
O1267 C1268 1.257 . S
C1268 O1266 1.273 . S
C1268 O1267 1.257 . S
O1269 Eu1249 2.326 . S
O1269 C1257 1.242 . S
O1270 Tb1248 2.324 . S
O1270 C1257 1.258 . S
O1271 Eu1249 2.500 . S
O1271 C1254 1.273 . S
O1272 Eu1249 2.473 . S
O1272 C1254 1.257 . S
H1273 C1259 0.929 . S
H1274 C1261 0.931 . S
H1275 C1263 0.929 . S
O1276 Tb1277 2.292 . S
O1276 C1279 1.255 . S
Tb1277 O1276 2.292 . S
Tb1277 O1293 2.326 . S
Tb1277 O1295 2.500 . S
Tb1277 O1296 2.473 . S
Tb1277 O1299 2.324 . S
Eu1278 O1282 2.292 . S
Eu1278 C1283 2.852 . S
Eu1278 O1294 2.324 . S
Eu1278 O1298 2.326 . S
Eu1278 O1300 2.500 . S
Eu1278 O1301 2.473 . S
C1279 O1276 1.255 . S
C1279 O1280 1.247 . S
O1280 C1279 1.247 . S
C1281 O1293 1.242 . S
C1281 O1294 1.258 . S
O1282 Eu1278 2.292 . S
O1282 C1284 1.255 . S
C1283 Eu1278 2.852 . S
C1283 C1287 1.503 . S
C1283 O1300 1.273 . S
C1283 O1301 1.257 . S
C1284 O1282 1.255 . S
C1284 O1285 1.247 . S
O1285 C1284 1.247 . S
C1286 O1298 1.242 . S
C1286 O1299 1.258 . S
C1287 C1283 1.503 . S
C1287 C1288 1.379 . S
C1287 C1292 1.392 . S
C1288 C1287 1.379 . S
C1288 C1289 1.404 . S
C1288 H1302 0.929 . S
C1289 C1288 1.404 . S
C1289 C1290 1.389 . S
C1290 C1289 1.389 . S
C1290 C1291 1.399 . S
C1290 H1303 0.931 . S
C1291 C1290 1.399 . S
C1291 C1292 1.390 . S
C1292 C1287 1.392 . S
C1292 C1291 1.390 . S
C1292 H1304 0.929 . S
O1293 Tb1277 2.326 . S
O1293 C1281 1.242 . S
O1294 Eu1278 2.324 . S
O1294 C1281 1.258 . S
O1295 Tb1277 2.500 . S
O1295 C1297 1.273 . S
O1296 Tb1277 2.473 . S
O1296 C1297 1.257 . S
C1297 O1295 1.273 . S
C1297 O1296 1.257 . S
O1298 Eu1278 2.326 . S
O1298 C1286 1.242 . S
O1299 Tb1277 2.324 . S
O1299 C1286 1.258 . S
O1300 Eu1278 2.500 . S
O1300 C1283 1.273 . S
O1301 Eu1278 2.473 . S
O1301 C1283 1.257 . S
H1302 C1288 0.929 . S
H1303 C1290 0.931 . S
H1304 C1292 0.929 . S
O1305 Tb1306 2.292 . S
O1305 C1308 1.255 . S
Tb1306 O1305 2.292 . S
Tb1306 O1322 2.326 . S
Tb1306 O1324 2.500 . S
Tb1306 O1325 2.473 . S
Tb1306 O1328 2.324 . S
Eu1307 O1311 2.292 . S
Eu1307 C1312 2.852 . S
Eu1307 O1323 2.324 . S
Eu1307 O1327 2.326 . S
Eu1307 O1329 2.500 . S
Eu1307 O1330 2.473 . S
C1308 O1305 1.255 . S
C1308 O1309 1.247 . S
O1309 C1308 1.247 . S
C1310 O1322 1.242 . S
C1310 O1323 1.258 . S
O1311 Eu1307 2.292 . S
O1311 C1313 1.255 1_556 S
C1312 Eu1307 2.852 . S
C1312 C1316 1.503 . S
C1312 O1329 1.273 . S
C1312 O1330 1.257 . S
C1313 O1311 1.255 1_554 S
C1313 O1314 1.247 . S
O1314 C1313 1.247 . S
C1315 O1327 1.242 . S
C1315 O1328 1.258 . S
C1316 C1312 1.503 . S
C1316 C1317 1.379 . S
C1316 C1321 1.392 . S
C1317 C1316 1.379 . S
C1317 C1318 1.404 . S
C1317 H1331 0.929 . S
C1318 C1317 1.404 . S
C1318 C1319 1.389 . S
C1319 C1318 1.389 . S
C1319 C1320 1.399 . S
C1319 H1332 0.931 . S
C1320 C1319 1.399 . S
C1320 C1321 1.390 . S
C1321 C1316 1.392 . S
C1321 C1320 1.390 . S
C1321 H1333 0.929 . S
O1322 Tb1306 2.326 . S
O1322 C1310 1.242 . S
O1323 Eu1307 2.324 . S
O1323 C1310 1.258 . S
O1324 Tb1306 2.500 . S
O1324 C1326 1.273 . S
O1325 Tb1306 2.473 . S
O1325 C1326 1.257 . S
C1326 O1324 1.273 . S
C1326 O1325 1.257 . S
O1327 Eu1307 2.326 . S
O1327 C1315 1.242 . S
O1328 Tb1306 2.324 . S
O1328 C1315 1.258 . S
O1329 Eu1307 2.500 . S
O1329 C1312 1.273 . S
O1330 Eu1307 2.473 . S
O1330 C1312 1.257 . S
H1331 C1317 0.929 . S
H1332 C1319 0.931 . S
H1333 C1321 0.929 . S
O1334 Tb1335 2.292 . S
O1334 C1337 1.255 . S
Tb1335 O1334 2.292 . S
Tb1335 O1351 2.326 . S
Tb1335 O1353 2.500 . S
Tb1335 O1354 2.473 . S
Tb1335 O1357 2.324 . S
Eu1336 O1340 2.292 . S
Eu1336 C1341 2.852 . S
Eu1336 O1352 2.324 . S
Eu1336 O1356 2.326 . S
Eu1336 O1358 2.500 . S
Eu1336 O1359 2.473 . S
C1337 O1334 1.255 . S
C1337 O1338 1.247 . S
O1338 C1337 1.247 . S
C1339 O1351 1.242 . S
C1339 O1352 1.258 . S
O1340 Eu1336 2.292 . S
O1340 C1342 1.255 1_556 S
C1341 Eu1336 2.852 . S
C1341 C1345 1.503 . S
C1341 O1358 1.273 . S
C1341 O1359 1.257 . S
C1342 O1340 1.255 1_554 S
C1342 O1343 1.247 . S
O1343 C1342 1.247 . S
C1344 O1356 1.242 . S
C1344 O1357 1.258 . S
C1345 C1341 1.503 . S
C1345 C1346 1.379 . S
C1345 C1350 1.392 . S
C1346 C1345 1.379 . S
C1346 C1347 1.404 . S
C1346 H1360 0.929 . S
C1347 C1346 1.404 . S
C1347 C1348 1.389 . S
C1348 C1347 1.389 . S
C1348 C1349 1.399 . S
C1348 H1361 0.931 . S
C1349 C1348 1.399 . S
C1349 C1350 1.390 . S
C1350 C1345 1.392 . S
C1350 C1349 1.390 . S
C1350 H1362 0.929 . S
O1351 Tb1335 2.326 . S
O1351 C1339 1.242 . S
O1352 Eu1336 2.324 . S
O1352 C1339 1.258 . S
O1353 Tb1335 2.500 . S
O1353 C1355 1.273 . S
O1354 Tb1335 2.473 . S
O1354 C1355 1.257 . S
C1355 O1353 1.273 . S
C1355 O1354 1.257 . S
O1356 Eu1336 2.326 . S
O1356 C1344 1.242 . S
O1357 Tb1335 2.324 . S
O1357 C1344 1.258 . S
O1358 Eu1336 2.500 . S
O1358 C1341 1.273 . S
O1359 Eu1336 2.473 . S
O1359 C1341 1.257 . S
H1360 C1346 0.929 . S
H1361 C1348 0.931 . S
H1362 C1350 0.929 . S
O1363 Tb1364 2.292 . S
O1363 C1366 1.255 . S
Tb1364 O1363 2.292 . S
Tb1364 O1380 2.326 . S
Tb1364 O1382 2.500 . S
Tb1364 O1383 2.473 . S
Tb1364 O1386 2.324 . S
Eu1365 O1369 2.292 . S
Eu1365 C1370 2.852 . S
Eu1365 O1381 2.324 . S
Eu1365 O1385 2.326 . S
Eu1365 O1387 2.500 . S
Eu1365 O1388 2.473 . S
C1366 O1363 1.255 . S
C1366 O1367 1.247 . S
O1367 C1366 1.247 . S
C1368 O1380 1.242 . S
C1368 O1381 1.258 . S
O1369 Eu1365 2.292 . S
O1369 C1371 1.255 1_556 S
C1370 Eu1365 2.852 . S
C1370 C1374 1.503 . S
C1370 O1387 1.273 . S
C1370 O1388 1.257 . S
C1371 O1369 1.255 1_554 S
C1371 O1372 1.247 . S
O1372 C1371 1.247 . S
C1373 O1385 1.242 . S
C1373 O1386 1.258 . S
C1374 C1370 1.503 . S
C1374 C1375 1.379 . S
C1374 C1379 1.392 . S
C1375 C1374 1.379 . S
C1375 C1376 1.404 . S
C1375 H1389 0.929 . S
C1376 C1375 1.404 . S
C1376 C1377 1.389 . S
C1377 C1376 1.389 . S
C1377 C1378 1.399 . S
C1377 H1390 0.931 . S
C1378 C1377 1.399 . S
C1378 C1379 1.390 . S
C1379 C1374 1.392 . S
C1379 C1378 1.390 . S
C1379 H1391 0.929 . S
O1380 Tb1364 2.326 . S
O1380 C1368 1.242 . S
O1381 Eu1365 2.324 . S
O1381 C1368 1.258 . S
O1382 Tb1364 2.500 . S
O1382 C1384 1.273 . S
O1383 Tb1364 2.473 . S
O1383 C1384 1.257 . S
C1384 O1382 1.273 . S
C1384 O1383 1.257 . S
O1385 Eu1365 2.326 . S
O1385 C1373 1.242 . S
O1386 Tb1364 2.324 . S
O1386 C1373 1.258 . S
O1387 Eu1365 2.500 . S
O1387 C1370 1.273 . S
O1388 Eu1365 2.473 . S
O1388 C1370 1.257 . S
H1389 C1375 0.929 . S
H1390 C1377 0.931 . S
H1391 C1379 0.929 . S
H1392 C1400 0.950 . S
H1393 C1405 0.950 . S
H1394 C1402 0.950 . S
H1395 C1404 0.950 1_655 S
H1396 C1406 0.950 . S
H1397 C1408 0.950 . S
H1398 C1410 0.950 . S
H1399 C1411 0.950 . S
C1400 H1392 0.950 . S
C1400 C1401 1.386 . S
C1400 C1402 1.391 . S
C1401 C1400 1.386 . S
C1401 C1405 1.393 . S
C1402 H1394 0.950 . S
C1402 C1400 1.391 . S
C1402 C1403 1.400 . S
C1403 C1402 1.400 . S
C1403 C1404 1.398 . S
C1403 C1409 1.491 1_455 S
C1404 H1395 0.950 1_455 S
C1404 C1403 1.398 . S
C1404 C1405 1.391 . S
C1405 H1393 0.950 . S
C1405 C1401 1.393 . S
C1405 C1404 1.391 . S
C1406 H1396 0.950 . S
C1406 C1407 1.386 . S
C1406 C1408 1.391 . S
C1407 C1406 1.386 . S
C1407 C1411 1.393 . S
C1408 H1397 0.950 . S
C1408 C1406 1.391 . S
C1408 C1409 1.400 . S
C1409 C1403 1.491 1_655 S
C1409 C1408 1.400 . S
C1409 C1410 1.398 . S
C1410 H1398 0.950 . S
C1410 C1409 1.398 . S
C1410 C1411 1.391 . S
C1411 H1399 0.950 . S
C1411 C1407 1.393 . S
C1411 C1410 1.391 . S
H1412 C1420 0.950 . S
H1413 C1425 0.950 . S
H1414 C1422 0.950 1_565 S
H1415 C1424 0.950 1_455 S
H1416 C1426 0.950 . S
H1417 C1428 0.950 . S
H1418 C1430 0.987 . S
H1419 C1431 0.950 . S
C1420 H1412 0.950 . S
C1420 C1421 1.386 . S
C1420 C1422 1.391 . S
C1421 C1420 1.386 . S
C1421 C1425 1.393 . S
C1422 H1414 0.950 1_545 S
C1422 C1420 1.391 . S
C1422 C1423 1.400 . S
C1423 C1422 1.400 . S
C1423 C1424 1.398 . S
C1423 C1429 1.491 1_645 S
C1424 H1415 0.950 1_655 S
C1424 C1423 1.398 . S
C1424 C1425 1.391 . S
C1425 H1413 0.950 . S
C1425 C1421 1.393 . S
C1425 C1424 1.391 . S
C1426 H1416 0.950 . S
C1426 C1427 1.386 . S
C1426 C1428 1.391 . S
C1427 C1426 1.386 . S
C1427 C1431 1.393 . S
C1428 H1417 0.950 . S
C1428 C1426 1.391 . S
C1428 C1429 1.400 . S
C1429 C1423 1.491 1_465 S
C1429 C1428 1.400 . S
C1429 C1430 1.392 1_455 S
C1430 H1418 0.987 . S
C1430 C1429 1.392 1_655 S
C1430 C1431 1.362 1_655 S
C1431 H1419 0.950 . S
C1431 C1427 1.393 . S
C1431 C1430 1.362 1_455 S
H1432 C1440 0.950 . S
H1433 C1445 0.950 . S
H1434 C1442 0.950 . S
H1435 C1444 0.950 1_565 S
H1436 C1446 0.950 . S
H1437 C1448 0.950 . S
H1438 C1450 0.997 . S
H1439 C1451 0.950 . S
C1440 H1432 0.950 . S
C1440 C1441 1.386 . S
C1440 C1442 1.391 . S
C1441 C1440 1.386 . S
C1441 C1445 1.393 . S
C1442 H1434 0.950 . S
C1442 C1440 1.391 . S
C1442 C1443 1.400 . S
C1443 C1442 1.400 . S
C1443 C1444 1.398 . S
C1443 C1449 1.491 1_545 S
C1444 H1435 0.950 1_545 S
C1444 C1443 1.398 . S
C1444 C1445 1.391 . S
C1445 H1433 0.950 . S
C1445 C1441 1.393 . S
C1445 C1444 1.391 . S
C1446 H1436 0.950 . S
C1446 C1447 1.386 . S
C1446 C1448 1.391 . S
C1447 C1446 1.386 . S
C1447 C1451 1.393 . S
C1448 H1437 0.950 . S
C1448 C1446 1.391 . S
C1448 C1449 1.400 . S
C1449 C1443 1.491 1_565 S
C1449 C1448 1.400 . S
C1449 C1450 1.398 . S
C1450 H1438 0.997 . S
C1450 C1449 1.398 . S
C1450 C1451 1.391 . S
C1451 H1439 0.950 . S
C1451 C1447 1.393 . S
C1451 C1450 1.391 . S
H1452 C1460 0.950 . S
H1453 C1465 0.950 . S
H1454 C1462 0.950 . S
H1455 C1464 0.950 . S
H1456 C1466 0.950 . S
H1457 C1468 0.950 . S
H1458 C1470 0.950 . S
H1459 C1471 0.950 . S
C1460 H1452 0.950 . S
C1460 C1461 1.386 . S
C1460 C1462 1.391 . S
C1461 C1460 1.386 . S
C1461 C1465 1.393 . S
C1462 H1454 0.950 . S
C1462 C1460 1.391 . S
C1462 C1463 1.400 . S
C1463 C1462 1.400 . S
C1463 C1464 1.398 . S
C1463 C1469 1.491 . S
C1464 H1455 0.950 . S
C1464 C1463 1.398 . S
C1464 C1465 1.391 . S
C1465 H1453 0.950 . S
C1465 C1461 1.393 . S
C1465 C1464 1.391 . S
C1466 H1456 0.950 . S
C1466 C1467 1.386 . S
C1466 C1468 1.391 . S
C1467 C1466 1.386 . S
C1467 C1471 1.393 . S
C1468 H1457 0.950 . S
C1468 C1466 1.391 . S
C1468 C1469 1.400 . S
C1469 C1463 1.491 . S
C1469 C1468 1.400 . S
C1469 C1470 1.398 . S
C1470 H1458 0.950 . S
C1470 C1469 1.398 . S
C1470 C1471 1.391 . S
C1471 H1459 0.950 . S
C1471 C1467 1.393 . S
C1471 C1470 1.391 . S
H1472 C1480 0.950 . S
H1473 C1485 0.950 . S
H1474 C1482 0.950 . S
H1475 C1484 0.950 . S
H1476 C1486 0.950 . S
H1477 C1488 0.950 . S
H1478 C1490 0.950 1_545 S
H1479 C1491 0.950 . S
C1480 H1472 0.950 . S
C1480 C1481 1.386 . S
C1480 C1482 1.391 . S
C1481 C1480 1.386 . S
C1481 C1485 1.393 . S
C1482 H1474 0.950 . S
C1482 C1480 1.391 . S
C1482 C1483 1.400 . S
C1483 C1482 1.400 . S
C1483 C1484 1.398 1_545 S
C1483 C1489 1.491 1_545 S
C1484 H1475 0.950 . S
C1484 C1483 1.398 1_565 S
C1484 C1485 1.391 1_565 S
C1485 H1473 0.950 . S
C1485 C1481 1.393 . S
C1485 C1484 1.391 1_545 S
C1486 H1476 0.950 . S
C1486 C1487 1.386 . S
C1486 C1488 1.391 . S
C1487 C1486 1.386 . S
C1487 C1491 1.393 . S
C1488 H1477 0.950 . S
C1488 C1486 1.391 . S
C1488 C1489 1.400 . S
C1489 C1483 1.491 1_565 S
C1489 C1488 1.400 . S
C1489 C1490 1.398 . S
C1490 H1478 0.950 1_565 S
C1490 C1489 1.398 . S
C1490 C1491 1.391 . S
C1491 H1479 0.950 . S
C1491 C1487 1.393 . S
C1491 C1490 1.391 . S
H1492 C1500 0.950 . S
H1493 C1505 0.950 . S
H1494 C1502 0.950 . S
H1495 C1504 0.950 . S
H1496 C1506 0.950 . S
H1497 C1508 0.950 . S
H1498 C1510 0.950 . S
H1499 C1511 0.950 . S
C1500 H1492 0.950 . S
C1500 C1501 1.386 . S
C1500 C1502 1.391 . S
C1501 C1500 1.386 . S
C1501 C1505 1.393 . S
C1502 H1494 0.950 . S
C1502 C1500 1.391 . S
C1502 C1503 1.400 . S
C1503 C1502 1.400 . S
C1503 C1504 1.398 . S
C1503 C1509 1.491 . S
C1504 H1495 0.950 . S
C1504 C1503 1.398 . S
C1504 C1505 1.391 . S
C1505 H1493 0.950 . S
C1505 C1501 1.393 . S
C1505 C1504 1.391 . S
C1506 H1496 0.950 . S
C1506 C1507 1.386 . S
C1506 C1508 1.391 . S
C1507 C1506 1.386 . S
C1507 C1511 1.393 . S
C1508 H1497 0.950 . S
C1508 C1506 1.391 . S
C1508 C1509 1.400 . S
C1509 C1503 1.491 . S
C1509 C1508 1.400 . S
C1509 C1510 1.398 . S
C1510 H1498 0.950 . S
C1510 C1509 1.398 . S
C1510 C1511 1.391 . S
C1511 H1499 0.950 . S
C1511 C1507 1.393 . S
C1511 C1510 1.391 . S
H1512 C1520 0.950 . S
H1513 C1525 0.950 . S
H1514 C1522 0.950 . S
H1515 C1524 0.950 . S
H1516 C1526 0.950 . S
H1517 C1528 0.950 . S
H1518 C1530 0.950 . S
H1519 C1531 0.950 . S
C1520 H1512 0.950 . S
C1520 C1521 1.386 . S
C1520 C1522 1.391 . S
C1521 C1520 1.386 . S
C1521 C1525 1.393 . S
C1522 H1514 0.950 . S
C1522 C1520 1.391 . S
C1522 C1523 1.400 . S
C1523 C1522 1.400 . S
C1523 C1524 1.398 . S
C1523 C1529 1.491 . S
C1524 H1515 0.950 . S
C1524 C1523 1.398 . S
C1524 C1525 1.391 . S
C1525 H1513 0.950 . S
C1525 C1521 1.393 . S
C1525 C1524 1.391 . S
C1526 H1516 0.950 . S
C1526 C1527 1.386 . S
C1526 C1528 1.391 . S
C1527 C1526 1.386 . S
C1527 C1531 1.393 . S
C1528 H1517 0.950 . S
C1528 C1526 1.391 . S
C1528 C1529 1.400 . S
C1529 C1523 1.491 . S
C1529 C1528 1.400 . S
C1529 C1530 1.398 . S
C1530 H1518 0.950 . S
C1530 C1529 1.398 . S
C1530 C1531 1.391 . S
C1531 H1519 0.950 . S
C1531 C1527 1.393 . S
C1531 C1530 1.391 . S
H1532 C1540 0.950 . S
H1533 C1545 0.950 . S
H1534 C1542 0.950 . S
H1535 C1544 0.950 1_455 S
H1536 C1546 0.950 . S
H1537 C1548 0.950 . S
H1538 C1550 0.950 . S
H1539 C1551 0.950 . S
C1540 H1532 0.950 . S
C1540 C1541 1.386 . S
C1540 C1542 1.391 . S
C1541 C1540 1.386 . S
C1541 C1545 1.393 . S
C1542 H1534 0.950 . S
C1542 C1540 1.391 . S
C1542 C1543 1.400 . S
C1543 C1542 1.400 . S
C1543 C1544 1.398 . S
C1543 C1549 1.491 1_655 S
C1544 H1535 0.950 1_655 S
C1544 C1543 1.398 . S
C1544 C1545 1.391 . S
C1545 H1533 0.950 . S
C1545 C1541 1.393 . S
C1545 C1544 1.391 . S
C1546 H1536 0.950 . S
C1546 C1547 1.386 . S
C1546 C1548 1.391 . S
C1547 C1546 1.386 . S
C1547 C1551 1.393 . S
C1548 H1537 0.950 . S
C1548 C1546 1.391 . S
C1548 C1549 1.400 . S
C1549 C1543 1.491 1_455 S
C1549 C1548 1.400 . S
C1549 C1550 1.398 1_455 S
C1550 H1538 0.950 . S
C1550 C1549 1.398 1_655 S
C1550 C1551 1.391 1_655 S
C1551 H1539 0.950 . S
C1551 C1547 1.393 . S
C1551 C1550 1.391 1_455 S
H1552 C1560 0.950 . S
H1553 C1565 0.950 . S
H1554 C1562 0.949 . S
H1555 C1564 0.950 . S
H1556 C1566 0.950 . S
H1557 C1568 0.950 1_554 S
H1558 C1570 0.950 . S
H1559 C1571 0.950 . S
C1560 H1552 0.950 . S
C1560 C1561 1.386 . S
C1560 C1562 1.392 1_554 S
C1561 C1560 1.386 . S
C1561 C1565 1.393 . S
C1562 H1554 0.949 . S
C1562 C1560 1.392 1_556 S
C1562 C1563 1.400 1_556 S
C1563 C1562 1.400 1_554 S
C1563 C1564 1.398 . S
C1563 C1569 1.491 1_554 S
C1564 H1555 0.950 . S
C1564 C1563 1.398 . S
C1564 C1565 1.391 . S
C1565 H1553 0.950 . S
C1565 C1561 1.393 . S
C1565 C1564 1.391 . S
C1566 H1556 0.950 . S
C1566 C1567 1.386 . S
C1566 C1568 1.391 . S
C1567 C1566 1.386 . S
C1567 C1571 1.393 . S
C1568 H1557 0.950 1_556 S
C1568 C1566 1.391 . S
C1568 C1569 1.400 . S
C1569 C1563 1.491 1_556 S
C1569 C1568 1.400 . S
C1569 C1570 1.398 . S
C1570 H1558 0.950 . S
C1570 C1569 1.398 . S
C1570 C1571 1.391 . S
C1571 H1559 0.950 . S
C1571 C1567 1.393 . S
C1571 C1570 1.391 . S
H1572 C1580 0.950 . S
H1573 C1585 0.950 . S
H1574 C1582 0.950 1_556 S
H1575 C1584 0.939 1_455 S
H1576 C1586 0.950 . S
H1577 C1588 0.950 . S
H1578 C1590 0.922 1_655 S
H1579 C1591 0.950 . S
C1580 H1572 0.950 . S
C1580 C1581 1.386 . S
C1580 C1582 1.391 . S
C1581 C1580 1.386 . S
C1581 C1585 1.393 . S
C1582 H1574 0.950 1_554 S
C1582 C1580 1.391 . S
C1582 C1583 1.400 . S
C1583 C1582 1.400 . S
C1583 C1584 1.398 . S
C1583 C1589 1.491 1_654 S
C1584 H1575 0.939 1_655 S
C1584 C1583 1.398 . S
C1584 C1585 1.391 . S
C1585 H1573 0.950 . S
C1585 C1581 1.393 . S
C1585 C1584 1.391 . S
C1586 H1576 0.950 . S
C1586 C1587 1.386 . S
C1586 C1588 1.391 . S
C1587 C1586 1.386 . S
C1587 C1591 1.393 . S
C1588 H1577 0.950 . S
C1588 C1586 1.391 . S
C1588 C1589 1.400 . S
C1589 C1583 1.491 1_456 S
C1589 C1588 1.400 . S
C1589 C1590 1.402 . S
C1590 H1578 0.922 1_455 S
C1590 C1589 1.402 . S
C1590 C1591 1.415 . S
C1591 H1579 0.950 . S
C1591 C1587 1.393 . S
C1591 C1590 1.415 . S
H1592 C1600 0.950 . S
H1593 C1605 0.950 . S
H1594 C1602 0.950 1_565 S
H1595 C1604 0.950 1_554 S
H1596 C1606 0.950 . S
H1597 C1608 0.950 . S
H1598 C1610 0.967 . S
H1599 C1611 0.950 . S
C1600 H1592 0.950 . S
C1600 C1601 1.386 . S
C1600 C1602 1.391 . S
C1601 C1600 1.386 . S
C1601 C1605 1.393 . S
C1602 H1594 0.950 1_545 S
C1602 C1600 1.391 . S
C1602 C1603 1.400 . S
C1603 C1602 1.400 . S
C1603 C1604 1.398 . S
C1603 C1609 1.491 1_546 S
C1604 H1595 0.950 1_556 S
C1604 C1603 1.398 . S
C1604 C1605 1.391 . S
C1605 H1593 0.950 . S
C1605 C1601 1.393 . S
C1605 C1604 1.391 . S
C1606 H1596 0.950 . S
C1606 C1607 1.386 . S
C1606 C1608 1.391 . S
C1607 C1606 1.386 . S
C1607 C1611 1.393 . S
C1608 H1597 0.950 . S
C1608 C1606 1.391 . S
C1608 C1609 1.400 . S
C1609 C1603 1.491 1_564 S
C1609 C1608 1.400 . S
C1609 C1610 1.396 1_554 S
C1610 H1598 0.967 . S
C1610 C1609 1.396 1_556 S
C1610 C1611 1.377 1_556 S
C1611 H1599 0.950 . S
C1611 C1607 1.393 . S
C1611 C1610 1.377 1_554 S
H1612 C1620 0.950 . S
H1613 C1625 0.950 . S
H1614 C1622 0.950 1_554 S
H1615 C1624 0.950 . S
H1616 C1626 0.950 . S
H1617 C1628 0.950 . S
H1618 C1630 0.950 . S
H1619 C1631 0.950 . S
C1620 H1612 0.950 . S
C1620 C1621 1.386 . S
C1620 C1622 1.391 . S
C1621 C1620 1.386 . S
C1621 C1625 1.393 . S
C1622 H1614 0.950 1_556 S
C1622 C1620 1.391 . S
C1622 C1623 1.400 . S
C1623 C1622 1.400 . S
C1623 C1624 1.398 . S
C1623 C1629 1.491 1_556 S
C1624 H1615 0.950 . S
C1624 C1623 1.398 . S
C1624 C1625 1.391 . S
C1625 H1613 0.950 . S
C1625 C1621 1.393 . S
C1625 C1624 1.391 . S
C1626 H1616 0.950 . S
C1626 C1627 1.386 . S
C1626 C1628 1.391 1_554 S
C1627 C1626 1.386 . S
C1627 C1631 1.393 . S
C1628 H1617 0.950 . S
C1628 C1626 1.391 1_556 S
C1628 C1629 1.400 1_556 S
C1629 C1623 1.491 1_554 S
C1629 C1628 1.400 1_554 S
C1629 C1630 1.398 . S
C1630 H1618 0.950 . S
C1630 C1629 1.398 . S
C1630 C1631 1.391 . S
C1631 H1619 0.950 . S
C1631 C1627 1.393 . S
C1631 C1630 1.391 . S
H1632 C1640 0.950 . S
H1633 C1645 0.950 . S
H1634 C1642 0.950 . S
H1635 C1644 0.950 . S
H1636 C1646 0.950 . S
H1637 C1648 0.950 . S
H1638 C1650 0.950 1_655 S
H1639 C1651 0.950 . S
C1640 H1632 0.950 . S
C1640 C1641 1.386 . S
C1640 C1642 1.391 . S
C1641 C1640 1.386 . S
C1641 C1645 1.393 . S
C1642 H1634 0.950 . S
C1642 C1640 1.391 . S
C1642 C1643 1.400 . S
C1643 C1642 1.400 . S
C1643 C1644 1.398 1_655 S
C1643 C1649 1.491 1_655 S
C1644 H1635 0.950 . S
C1644 C1643 1.398 1_455 S
C1644 C1645 1.391 1_455 S
C1645 H1633 0.950 . S
C1645 C1641 1.393 . S
C1645 C1644 1.391 1_655 S
C1646 H1636 0.950 . S
C1646 C1647 1.386 . S
C1646 C1648 1.391 . S
C1647 C1646 1.386 . S
C1647 C1651 1.393 . S
C1648 H1637 0.950 . S
C1648 C1646 1.391 . S
C1648 C1649 1.400 . S
C1649 C1643 1.491 1_455 S
C1649 C1648 1.400 . S
C1649 C1650 1.398 . S
C1650 H1638 0.950 1_455 S
C1650 C1649 1.398 . S
C1650 C1651 1.391 . S
C1651 H1639 0.950 . S
C1651 C1647 1.393 . S
C1651 C1650 1.391 . S
H1652 C1660 0.950 . S
H1653 C1665 0.950 . S
H1654 C1662 0.950 1_565 S
H1655 C1664 0.951 1_455 S
H1656 C1666 0.950 . S
H1657 C1668 0.950 . S
H1658 C1670 0.950 1_655 S
H1659 C1671 0.950 . S
C1660 H1652 0.950 . S
C1660 C1661 1.386 . S
C1660 C1662 1.391 . S
C1661 C1660 1.386 . S
C1661 C1665 1.393 . S
C1662 H1654 0.950 1_545 S
C1662 C1660 1.391 . S
C1662 C1663 1.400 . S
C1663 C1662 1.400 . S
C1663 C1664 1.398 . S
C1663 C1669 1.491 1_645 S
C1664 H1655 0.951 1_655 S
C1664 C1663 1.398 . S
C1664 C1665 1.390 . S
C1665 H1653 0.950 . S
C1665 C1661 1.393 . S
C1665 C1664 1.390 . S
C1666 H1656 0.950 . S
C1666 C1667 1.386 . S
C1666 C1668 1.391 1_565 S
C1667 C1666 1.386 . S
C1667 C1671 1.393 . S
C1668 H1657 0.950 . S
C1668 C1666 1.391 1_545 S
C1668 C1669 1.400 1_545 S
C1669 C1663 1.491 1_465 S
C1669 C1668 1.400 1_565 S
C1669 C1670 1.398 . S
C1670 H1658 0.950 1_455 S
C1670 C1669 1.398 . S
C1670 C1671 1.391 . S
C1671 H1659 0.950 . S
C1671 C1667 1.393 . S
C1671 C1670 1.391 . S
H1672 C1680 0.950 . S
H1673 C1685 0.950 . S
H1674 C1682 0.920 1_545 S
H1675 C1684 0.950 . S
H1676 C1686 0.950 . S
H1677 C1688 0.931 1_565 S
H1678 C1690 0.950 . S
H1679 C1691 0.950 . S
C1680 H1672 0.950 . S
C1680 C1681 1.386 . S
C1680 C1682 1.418 . S
C1681 C1680 1.386 . S
C1681 C1685 1.393 . S
C1682 H1674 0.920 1_565 S
C1682 C1680 1.418 . S
C1682 C1683 1.404 . S
C1683 C1682 1.404 . S
C1683 C1684 1.398 . S
C1683 C1689 1.491 1_565 S
C1684 H1675 0.950 . S
C1684 C1683 1.398 . S
C1684 C1685 1.391 . S
C1685 H1673 0.950 . S
C1685 C1681 1.393 . S
C1685 C1684 1.391 . S
C1686 H1676 0.950 . S
C1686 C1687 1.386 . S
C1686 C1688 1.391 . S
C1687 C1686 1.386 . S
C1687 C1691 1.393 . S
C1688 H1677 0.931 1_545 S
C1688 C1686 1.391 . S
C1688 C1689 1.400 . S
C1689 C1683 1.491 1_545 S
C1689 C1688 1.400 . S
C1689 C1690 1.398 . S
C1690 H1678 0.950 . S
C1690 C1689 1.398 . S
C1690 C1691 1.391 . S
C1691 H1679 0.950 . S
C1691 C1687 1.393 . S
C1691 C1690 1.391 . S
H1692 C1700 0.950 . S
H1693 C1705 0.950 . S
H1694 C1702 0.950 . S
H1695 C1704 0.950 . S
H1696 C1706 0.950 . S
H1697 C1708 0.950 . S
H1698 C1710 0.950 . S
H1699 C1711 0.950 . S
C1700 H1692 0.950 . S
C1700 C1701 1.386 . S
C1700 C1702 1.391 . S
C1701 C1700 1.386 . S
C1701 C1705 1.393 . S
C1702 H1694 0.950 . S
C1702 C1700 1.391 . S
C1702 C1703 1.400 . S
C1703 C1702 1.400 . S
C1703 C1704 1.398 . S
C1703 C1709 1.491 . S
C1704 H1695 0.950 . S
C1704 C1703 1.398 . S
C1704 C1705 1.391 . S
C1705 H1693 0.950 . S
C1705 C1701 1.393 . S
C1705 C1704 1.391 . S
C1706 H1696 0.950 . S
C1706 C1707 1.386 . S
C1706 C1708 1.391 . S
C1707 C1706 1.386 . S
C1707 C1711 1.393 . S
C1708 H1697 0.950 . S
C1708 C1706 1.391 . S
C1708 C1709 1.400 . S
C1709 C1703 1.491 . S
C1709 C1708 1.400 . S
C1709 C1710 1.398 . S
C1710 H1698 0.950 . S
C1710 C1709 1.398 . S
C1710 C1711 1.391 . S
C1711 H1699 0.950 . S
C1711 C1707 1.393 . S
C1711 C1710 1.391 . S
H1712 C1720 0.950 . S
H1713 C1725 0.950 . S
H1714 C1722 0.950 . S
H1715 C1724 0.950 . S
H1716 C1726 0.950 . S
H1717 C1728 0.950 . S
H1718 C1730 0.950 . S
H1719 C1731 0.950 . S
C1720 H1712 0.950 . S
C1720 C1721 1.386 . S
C1720 C1722 1.391 . S
C1721 C1720 1.386 . S
C1721 C1725 1.393 . S
C1722 H1714 0.950 . S
C1722 C1720 1.391 . S
C1722 C1723 1.400 . S
C1723 C1722 1.400 . S
C1723 C1724 1.398 . S
C1723 C1729 1.491 1_565 S
C1724 H1715 0.950 . S
C1724 C1723 1.398 . S
C1724 C1725 1.391 . S
C1725 H1713 0.950 . S
C1725 C1721 1.393 . S
C1725 C1724 1.391 . S
C1726 H1716 0.950 . S
C1726 C1727 1.386 . S
C1726 C1728 1.391 . S
C1727 C1726 1.386 . S
C1727 C1731 1.393 . S
C1728 H1717 0.950 . S
C1728 C1726 1.391 . S
C1728 C1729 1.400 . S
C1729 C1723 1.491 1_545 S
C1729 C1728 1.400 . S
C1729 C1730 1.398 . S
C1730 H1718 0.950 . S
C1730 C1729 1.398 . S
C1730 C1731 1.391 . S
C1731 H1719 0.950 . S
C1731 C1727 1.393 . S
C1731 C1730 1.391 . S
H1732 C1740 0.950 . S
H1733 C1745 0.950 . S
H1734 C1742 0.950 . S
H1735 C1744 0.950 . S
H1736 C1746 0.950 . S
H1737 C1748 0.950 . S
H1738 C1750 0.950 . S
H1739 C1751 0.950 . S
C1740 H1732 0.950 . S
C1740 C1741 1.386 . S
C1740 C1742 1.391 . S
C1741 C1740 1.386 . S
C1741 C1745 1.393 . S
C1742 H1734 0.950 . S
C1742 C1740 1.391 . S
C1742 C1743 1.400 . S
C1743 C1742 1.400 . S
C1743 C1744 1.398 . S
C1743 C1749 1.491 . S
C1744 H1735 0.950 . S
C1744 C1743 1.398 . S
C1744 C1745 1.391 . S
C1745 H1733 0.950 . S
C1745 C1741 1.393 . S
C1745 C1744 1.391 . S
C1746 H1736 0.950 . S
C1746 C1747 1.386 . S
C1746 C1748 1.391 . S
C1747 C1746 1.386 . S
C1747 C1751 1.393 . S
C1748 H1737 0.950 . S
C1748 C1746 1.391 . S
C1748 C1749 1.400 . S
C1749 C1743 1.491 . S
C1749 C1748 1.400 . S
C1749 C1750 1.398 . S
C1750 H1738 0.950 . S
C1750 C1749 1.398 . S
C1750 C1751 1.391 . S
C1751 H1739 0.950 . S
C1751 C1747 1.393 . S
C1751 C1750 1.391 . S
H1752 C1760 0.950 . S
H1753 C1765 0.950 . S
H1754 C1762 0.950 . S
H1755 C1764 0.950 . S
H1756 C1766 0.950 . S
H1757 C1768 0.950 . S
H1758 C1770 0.950 . S
H1759 C1771 0.950 . S
C1760 H1752 0.950 . S
C1760 C1761 1.386 . S
C1760 C1762 1.391 . S
C1761 C1760 1.386 . S
C1761 C1765 1.393 . S
C1762 H1754 0.950 . S
C1762 C1760 1.391 . S
C1762 C1763 1.400 . S
C1763 C1762 1.400 . S
C1763 C1764 1.398 . S
C1763 C1769 1.491 . S
C1764 H1755 0.950 . S
C1764 C1763 1.398 . S
C1764 C1765 1.391 . S
C1765 H1753 0.950 . S
C1765 C1761 1.393 . S
C1765 C1764 1.391 . S
C1766 H1756 0.950 . S
C1766 C1767 1.386 . S
C1766 C1768 1.391 . S
C1767 C1766 1.386 . S
C1767 C1771 1.393 . S
C1768 H1757 0.950 . S
C1768 C1766 1.391 . S
C1768 C1769 1.400 . S
C1769 C1763 1.491 . S
C1769 C1768 1.400 . S
C1769 C1770 1.398 . S
C1770 H1758 0.950 . S
C1770 C1769 1.398 . S
C1770 C1771 1.391 . S
C1771 H1759 0.950 . S
C1771 C1767 1.393 . S
C1771 C1770 1.391 . S
H1772 C1780 0.950 . S
H1773 C1785 0.950 . S
H1774 C1782 0.950 . S
H1775 C1784 0.950 . S
H1776 C1786 0.950 . S
H1777 C1788 0.950 . S
H1778 C1790 0.950 1_455 S
H1779 C1791 0.950 . S
C1780 H1772 0.950 . S
C1780 C1781 1.386 . S
C1780 C1782 1.391 . S
C1781 C1780 1.386 . S
C1781 C1785 1.393 . S
C1782 H1774 0.950 . S
C1782 C1780 1.391 . S
C1782 C1783 1.400 . S
C1783 C1782 1.400 . S
C1783 C1784 1.398 . S
C1783 C1789 1.491 1_455 S
C1784 H1775 0.950 . S
C1784 C1783 1.398 . S
C1784 C1785 1.391 . S
C1785 H1773 0.950 . S
C1785 C1781 1.393 . S
C1785 C1784 1.391 . S
C1786 H1776 0.950 . S
C1786 C1787 1.386 . S
C1786 C1788 1.391 . S
C1787 C1786 1.386 . S
C1787 C1791 1.393 . S
C1788 H1777 0.950 . S
C1788 C1786 1.391 . S
C1788 C1789 1.400 . S
C1789 C1783 1.491 1_655 S
C1789 C1788 1.400 . S
C1789 C1790 1.398 . S
C1790 H1778 0.950 1_655 S
C1790 C1789 1.398 . S
C1790 C1791 1.391 . S
C1791 H1779 0.950 . S
C1791 C1787 1.393 . S
C1791 C1790 1.391 . S
H1792 C1800 0.950 . S
H1793 C1805 0.950 . S
H1794 C1802 0.950 1_556 S
H1795 C1804 0.950 . S
H1796 C1806 0.950 . S
H1797 C1808 0.950 . S
H1798 C1810 0.950 . S
H1799 C1811 0.950 . S
C1800 H1792 0.950 . S
C1800 C1801 1.386 . S
C1800 C1802 1.391 . S
C1801 C1800 1.386 . S
C1801 C1805 1.393 . S
C1802 H1794 0.950 1_554 S
C1802 C1800 1.391 . S
C1802 C1803 1.400 . S
C1803 C1802 1.400 . S
C1803 C1804 1.398 . S
C1803 C1809 1.491 1_554 S
C1804 H1795 0.950 . S
C1804 C1803 1.398 . S
C1804 C1805 1.391 . S
C1805 H1793 0.950 . S
C1805 C1801 1.393 . S
C1805 C1804 1.391 . S
C1806 H1796 0.950 . S
C1806 C1807 1.386 . S
C1806 C1808 1.391 1_556 S
C1807 C1806 1.386 . S
C1807 C1811 1.393 . S
C1808 H1797 0.950 . S
C1808 C1806 1.391 1_554 S
C1808 C1809 1.400 1_554 S
C1809 C1803 1.491 1_556 S
C1809 C1808 1.400 1_556 S
C1809 C1810 1.398 . S
C1810 H1798 0.950 . S
C1810 C1809 1.398 . S
C1810 C1811 1.391 . S
C1811 H1799 0.950 . S
C1811 C1807 1.393 . S
C1811 C1810 1.391 . S
H1812 C1820 0.950 . S
H1813 C1825 0.950 . S
H1814 C1822 0.950 . S
H1815 C1824 0.950 1_556 S
H1816 C1826 0.950 . S
H1817 C1828 0.950 1_655 S
H1818 C1830 0.950 . S
H1819 C1831 0.950 . S
C1820 H1812 0.950 . S
C1820 C1821 1.386 . S
C1820 C1822 1.391 1_655 S
C1821 C1820 1.386 . S
C1821 C1825 1.393 . S
C1822 H1814 0.950 . S
C1822 C1820 1.391 1_455 S
C1822 C1823 1.400 1_455 S
C1823 C1822 1.400 1_655 S
C1823 C1824 1.398 . S
C1823 C1829 1.491 1_654 S
C1824 H1815 0.950 1_554 S
C1824 C1823 1.398 . S
C1824 C1825 1.391 . S
C1825 H1813 0.950 . S
C1825 C1821 1.393 . S
C1825 C1824 1.391 . S
C1826 H1816 0.950 . S
C1826 C1827 1.386 . S
C1826 C1828 1.391 . S
C1827 C1826 1.386 . S
C1827 C1831 1.393 . S
C1828 H1817 0.950 1_455 S
C1828 C1826 1.391 . S
C1828 C1829 1.400 . S
C1829 C1823 1.491 1_456 S
C1829 C1828 1.400 . S
C1829 C1830 1.398 1_556 S
C1830 H1818 0.950 . S
C1830 C1829 1.398 1_554 S
C1830 C1831 1.391 1_554 S
C1831 H1819 0.950 . S
C1831 C1827 1.393 . S
C1831 C1830 1.391 1_556 S
H1832 C1840 0.950 . S
H1833 C1845 0.950 . S
H1834 C1842 0.950 1_545 S
H1835 C1844 0.950 . S
H1836 C1846 0.950 . S
H1837 C1848 0.950 . S
H1838 C1850 0.950 . S
H1839 C1851 0.950 . S
C1840 H1832 0.950 . S
C1840 C1841 1.386 . S
C1840 C1842 1.391 . S
C1841 C1840 1.386 . S
C1841 C1845 1.393 . S
C1842 H1834 0.950 1_565 S
C1842 C1840 1.391 . S
C1842 C1843 1.400 . S
C1843 C1842 1.400 . S
C1843 C1844 1.398 . S
C1843 C1849 1.491 1_564 S
C1844 H1835 0.950 . S
C1844 C1843 1.398 . S
C1844 C1845 1.391 . S
C1845 H1833 0.950 . S
C1845 C1841 1.393 . S
C1845 C1844 1.391 . S
C1846 H1836 0.950 . S
C1846 C1847 1.386 . S
C1846 C1848 1.391 . S
C1847 C1846 1.386 . S
C1847 C1851 1.393 . S
C1848 H1837 0.950 . S
C1848 C1846 1.391 . S
C1848 C1849 1.400 . S
C1849 C1843 1.491 1_546 S
C1849 C1848 1.400 . S
C1849 C1850 1.398 . S
C1850 H1838 0.950 . S
C1850 C1849 1.398 . S
C1850 C1851 1.391 . S
C1851 H1839 0.950 . S
C1851 C1847 1.393 . S
C1851 C1850 1.391 . S
H1852 C1860 0.950 . S
H1853 C1865 0.950 . S
H1854 C1862 0.950 . S
H1855 C1864 0.950 1_556 S
H1856 C1866 0.950 . S
H1857 C1868 0.950 . S
H1858 C1870 0.950 . S
H1859 C1871 0.950 . S
C1860 H1852 0.950 . S
C1860 C1861 1.386 . S
C1860 C1862 1.391 . S
C1861 C1860 1.386 . S
C1861 C1865 1.393 . S
C1862 H1854 0.950 . S
C1862 C1860 1.391 . S
C1862 C1863 1.400 . S
C1863 C1862 1.400 . S
C1863 C1864 1.398 . S
C1863 C1869 1.491 1_554 S
C1864 H1855 0.950 1_554 S
C1864 C1863 1.398 . S
C1864 C1865 1.391 . S
C1865 H1853 0.950 . S
C1865 C1861 1.393 . S
C1865 C1864 1.391 . S
C1866 H1856 0.950 . S
C1866 C1867 1.386 . S
C1866 C1868 1.391 . S
C1867 C1866 1.386 . S
C1867 C1871 1.393 . S
C1868 H1857 0.950 . S
C1868 C1866 1.391 . S
C1868 C1869 1.400 . S
C1869 C1863 1.491 1_556 S
C1869 C1868 1.400 . S
C1869 C1870 1.398 1_556 S
C1870 H1858 0.950 . S
C1870 C1869 1.398 1_554 S
C1870 C1871 1.391 1_554 S
C1871 H1859 0.950 . S
C1871 C1867 1.393 . S
C1871 C1870 1.391 1_556 S
H1872 C1880 0.950 . S
H1873 C1885 0.950 . S
H1874 C1882 0.950 . S
H1875 C1884 0.950 . S
H1876 C1886 0.950 . S
H1877 C1888 0.950 . S
H1878 C1890 0.950 . S
H1879 C1891 0.950 . S
C1880 H1872 0.950 . S
C1880 C1881 1.386 . S
C1880 C1882 1.391 . S
C1881 C1880 1.386 . S
C1881 C1885 1.393 . S
C1882 H1874 0.950 . S
C1882 C1880 1.391 . S
C1882 C1883 1.400 . S
C1883 C1882 1.400 . S
C1883 C1884 1.398 . S
C1883 C1889 1.491 . S
C1884 H1875 0.950 . S
C1884 C1883 1.398 . S
C1884 C1885 1.391 . S
C1885 H1873 0.950 . S
C1885 C1881 1.393 . S
C1885 C1884 1.391 . S
C1886 H1876 0.950 . S
C1886 C1887 1.386 . S
C1886 C1888 1.391 . S
C1887 C1886 1.386 . S
C1887 C1891 1.393 . S
C1888 H1877 0.950 . S
C1888 C1886 1.391 . S
C1888 C1889 1.400 . S
C1889 C1883 1.491 . S
C1889 C1888 1.400 . S
C1889 C1890 1.398 . S
C1890 H1878 0.950 . S
C1890 C1889 1.398 . S
C1890 C1891 1.391 . S
C1891 H1879 0.950 . S
C1891 C1887 1.393 . S
C1891 C1890 1.391 . S
H1892 C1900 0.950 . S
H1893 C1905 0.950 . S
H1894 C1902 0.950 . S
H1895 C1904 0.950 . S
H1896 C1906 0.950 . S
H1897 C1908 0.950 . S
H1898 C1910 0.950 . S
H1899 C1911 0.950 . S
C1900 H1892 0.950 . S
C1900 C1901 1.386 . S
C1900 C1902 1.391 . S
C1901 C1900 1.386 . S
C1901 C1905 1.393 . S
C1902 H1894 0.950 . S
C1902 C1900 1.391 . S
C1902 C1903 1.400 . S
C1903 C1902 1.400 . S
C1903 C1904 1.398 . S
C1903 C1909 1.491 . S
C1904 H1895 0.950 . S
C1904 C1903 1.398 . S
C1904 C1905 1.391 . S
C1905 H1893 0.950 . S
C1905 C1901 1.393 . S
C1905 C1904 1.391 . S
C1906 H1896 0.950 . S
C1906 C1907 1.386 . S
C1906 C1908 1.391 . S
C1907 C1906 1.386 . S
C1907 C1911 1.393 . S
C1908 H1897 0.950 . S
C1908 C1906 1.391 . S
C1908 C1909 1.400 . S
C1909 C1903 1.491 . S
C1909 C1908 1.400 . S
C1909 C1910 1.398 . S
C1910 H1898 0.950 . S
C1910 C1909 1.398 . S
C1910 C1911 1.391 . S
C1911 H1899 0.950 . S
C1911 C1907 1.393 . S
C1911 C1910 1.391 . S
H1912 C1920 0.950 . S
H1913 C1925 0.950 . S
H1914 C1922 0.950 . S
H1915 C1924 0.950 . S
H1916 C1926 0.950 . S
H1917 C1928 0.950 . S
H1918 C1930 0.950 . S
H1919 C1931 0.950 . S
C1920 H1912 0.950 . S
C1920 C1921 1.386 . S
C1920 C1922 1.391 . S
C1921 C1920 1.386 . S
C1921 C1925 1.393 . S
C1922 H1914 0.950 . S
C1922 C1920 1.391 . S
C1922 C1923 1.400 . S
C1923 C1922 1.400 . S
C1923 C1924 1.398 . S
C1923 C1929 1.491 . S
C1924 H1915 0.950 . S
C1924 C1923 1.398 . S
C1924 C1925 1.391 . S
C1925 H1913 0.950 . S
C1925 C1921 1.393 . S
C1925 C1924 1.391 . S
C1926 H1916 0.950 . S
C1926 C1927 1.386 . S
C1926 C1928 1.391 . S
C1927 C1926 1.386 . S
C1927 C1931 1.393 . S
C1928 H1917 0.950 . S
C1928 C1926 1.391 . S
C1928 C1929 1.400 . S
C1929 C1923 1.491 . S
C1929 C1928 1.400 . S
C1929 C1930 1.398 . S
C1930 H1918 0.950 . S
C1930 C1929 1.398 . S
C1930 C1931 1.391 . S
C1931 H1919 0.950 . S
C1931 C1927 1.393 . S
C1931 C1930 1.391 . S
H1932 C1940 0.950 . S
H1933 C1945 0.950 . S
H1934 C1942 0.950 . S
H1935 C1944 0.950 . S
H1936 C1946 0.950 . S
H1937 C1948 0.950 . S
H1938 C1950 0.950 . S
H1939 C1951 0.950 . S
C1940 H1932 0.950 . S
C1940 C1941 1.386 . S
C1940 C1942 1.391 . S
C1941 C1940 1.386 . S
C1941 C1945 1.393 . S
C1942 H1934 0.950 . S
C1942 C1940 1.391 . S
C1942 C1943 1.400 . S
C1943 C1942 1.400 . S
C1943 C1944 1.398 . S
C1943 C1949 1.491 . S
C1944 H1935 0.950 . S
C1944 C1943 1.398 . S
C1944 C1945 1.391 . S
C1945 H1933 0.950 . S
C1945 C1941 1.393 . S
C1945 C1944 1.391 . S
C1946 H1936 0.950 . S
C1946 C1947 1.386 . S
C1946 C1948 1.391 . S
C1947 C1946 1.386 . S
C1947 C1951 1.393 . S
C1948 H1937 0.950 . S
C1948 C1946 1.391 . S
C1948 C1949 1.400 . S
C1949 C1943 1.491 . S
C1949 C1948 1.400 . S
C1949 C1950 1.398 . S
C1950 H1938 0.950 . S
C1950 C1949 1.398 . S
C1950 C1951 1.391 . S
C1951 H1939 0.950 . S
C1951 C1947 1.393 . S
C1951 C1950 1.391 . S
H1952 C1960 0.950 . S
H1953 C1965 0.950 . S
H1954 C1962 0.950 . S
H1955 C1964 0.950 . S
H1956 C1966 0.950 . S
H1957 C1968 0.950 . S
H1958 C1970 0.950 . S
H1959 C1971 0.950 . S
C1960 H1952 0.950 . S
C1960 C1961 1.386 . S
C1960 C1962 1.391 . S
C1961 C1960 1.386 . S
C1961 C1965 1.393 . S
C1962 H1954 0.950 . S
C1962 C1960 1.391 . S
C1962 C1963 1.400 . S
C1963 C1962 1.400 . S
C1963 C1964 1.398 . S
C1963 C1969 1.491 . S
C1964 H1955 0.950 . S
C1964 C1963 1.398 . S
C1964 C1965 1.391 . S
C1965 H1953 0.950 . S
C1965 C1961 1.393 . S
C1965 C1964 1.391 . S
C1966 H1956 0.950 . S
C1966 C1967 1.386 . S
C1966 C1968 1.391 . S
C1967 C1966 1.386 . S
C1967 C1971 1.393 . S
C1968 H1957 0.950 . S
C1968 C1966 1.391 . S
C1968 C1969 1.400 . S
C1969 C1963 1.491 . S
C1969 C1968 1.400 . S
C1969 C1970 1.398 . S
C1970 H1958 0.950 . S
C1970 C1969 1.398 . S
C1970 C1971 1.391 . S
C1971 H1959 0.950 . S
C1971 C1967 1.393 . S
C1971 C1970 1.391 . S
H1972 C1980 0.950 . S
H1973 C1985 0.950 . S
H1974 C1982 0.950 . S
H1975 C1984 0.950 . S
H1976 C1986 0.950 . S
H1977 C1988 0.950 . S
H1978 C1990 0.950 . S
H1979 C1991 0.950 . S
C1980 H1972 0.950 . S
C1980 C1981 1.386 . S
C1980 C1982 1.391 . S
C1981 C1980 1.386 . S
C1981 C1985 1.393 . S
C1982 H1974 0.950 . S
C1982 C1980 1.391 . S
C1982 C1983 1.400 . S
C1983 C1982 1.400 . S
C1983 C1984 1.398 . S
C1983 C1989 1.491 . S
C1984 H1975 0.950 . S
C1984 C1983 1.398 . S
C1984 C1985 1.391 . S
C1985 H1973 0.950 . S
C1985 C1981 1.393 . S
C1985 C1984 1.391 . S
C1986 H1976 0.950 . S
C1986 C1987 1.386 . S
C1986 C1988 1.391 . S
C1987 C1986 1.386 . S
C1987 C1991 1.393 . S
C1988 H1977 0.950 . S
C1988 C1986 1.391 . S
C1988 C1989 1.400 . S
C1989 C1983 1.491 . S
C1989 C1988 1.400 . S
C1989 C1990 1.398 . S
C1990 H1978 0.950 . S
C1990 C1989 1.398 . S
C1990 C1991 1.391 . S
C1991 H1979 0.950 . S
C1991 C1987 1.393 . S
C1991 C1990 1.391 . S
H1992 C2000 0.950 . S
H1993 C2005 0.950 . S
H1994 C2002 0.950 . S
H1995 C2004 0.950 . S
H1996 C2006 0.950 . S
H1997 C2008 0.950 . S
H1998 C2010 0.950 . S
H1999 C2011 0.950 . S
C2000 H1992 0.950 . S
C2000 C2001 1.386 . S
C2000 C2002 1.391 . S
C2001 C2000 1.386 . S
C2001 C2005 1.393 . S
C2002 H1994 0.950 . S
C2002 C2000 1.391 . S
C2002 C2003 1.400 . S
C2003 C2002 1.400 . S
C2003 C2004 1.398 . S
C2003 C2009 1.491 . S
C2004 H1995 0.950 . S
C2004 C2003 1.398 . S
C2004 C2005 1.391 . S
C2005 H1993 0.950 . S
C2005 C2001 1.393 . S
C2005 C2004 1.391 . S
C2006 H1996 0.950 . S
C2006 C2007 1.386 . S
C2006 C2008 1.391 . S
C2007 C2006 1.386 . S
C2007 C2011 1.393 . S
C2008 H1997 0.950 . S
C2008 C2006 1.391 . S
C2008 C2009 1.400 . S
C2009 C2003 1.491 . S
C2009 C2008 1.400 . S
C2009 C2010 1.398 . S
C2010 H1998 0.950 . S
C2010 C2009 1.398 . S
C2010 C2011 1.391 . S
C2011 H1999 0.950 . S
C2011 C2007 1.393 . S
C2011 C2010 1.391 . S
H2012 C2020 0.950 . S
H2013 C2025 0.950 . S
H2014 C2022 0.950 . S
H2015 C2024 0.950 . S
H2016 C2026 0.950 . S
H2017 C2028 0.950 . S
H2018 C2030 0.950 . S
H2019 C2031 0.950 . S
C2020 H2012 0.950 . S
C2020 C2021 1.386 . S
C2020 C2022 1.391 . S
C2021 C2020 1.386 . S
C2021 C2025 1.393 . S
C2022 H2014 0.950 . S
C2022 C2020 1.391 . S
C2022 C2023 1.400 . S
C2023 C2022 1.400 . S
C2023 C2024 1.398 . S
C2023 C2029 1.491 . S
C2024 H2015 0.950 . S
C2024 C2023 1.398 . S
C2024 C2025 1.391 . S
C2025 H2013 0.950 . S
C2025 C2021 1.393 . S
C2025 C2024 1.391 . S
C2026 H2016 0.950 . S
C2026 C2027 1.386 . S
C2026 C2028 1.391 . S
C2027 C2026 1.386 . S
C2027 C2031 1.393 . S
C2028 H2017 0.950 . S
C2028 C2026 1.391 . S
C2028 C2029 1.400 . S
C2029 C2023 1.491 . S
C2029 C2028 1.400 . S
C2029 C2030 1.398 . S
C2030 H2018 0.950 . S
C2030 C2029 1.398 . S
C2030 C2031 1.391 . S
C2031 H2019 0.950 . S
C2031 C2027 1.393 . S
C2031 C2030 1.391 . S
H2032 C2040 0.950 . S
H2033 C2045 0.950 . S
H2034 C2042 0.950 . S
H2035 C2044 0.950 . S
H2036 C2046 0.950 . S
H2037 C2048 0.950 . S
H2038 C2050 0.950 . S
H2039 C2051 0.950 . S
C2040 H2032 0.950 . S
C2040 C2041 1.386 . S
C2040 C2042 1.391 . S
C2041 C2040 1.386 . S
C2041 C2045 1.393 . S
C2042 H2034 0.950 . S
C2042 C2040 1.391 . S
C2042 C2043 1.400 . S
C2043 C2042 1.400 . S
C2043 C2044 1.398 . S
C2043 C2049 1.491 . S
C2044 H2035 0.950 . S
C2044 C2043 1.398 . S
C2044 C2045 1.391 . S
C2045 H2033 0.950 . S
C2045 C2041 1.393 . S
C2045 C2044 1.391 . S
C2046 H2036 0.950 . S
C2046 C2047 1.386 . S
C2046 C2048 1.391 . S
C2047 C2046 1.386 . S
C2047 C2051 1.393 . S
C2048 H2037 0.950 . S
C2048 C2046 1.391 . S
C2048 C2049 1.400 . S
C2049 C2043 1.491 . S
C2049 C2048 1.400 . S
C2049 C2050 1.398 . S
C2050 H2038 0.950 . S
C2050 C2049 1.398 . S
C2050 C2051 1.391 . S
C2051 H2039 0.950 . S
C2051 C2047 1.393 . S
C2051 C2050 1.391 . S
H2052 C2060 0.950 . S
H2053 C2065 0.950 . S
H2054 C2062 0.950 . S
H2055 C2064 0.950 . S
H2056 C2066 0.950 . S
H2057 C2068 0.950 . S
H2058 C2070 0.950 . S
H2059 C2071 0.950 . S
C2060 H2052 0.950 . S
C2060 C2061 1.386 . S
C2060 C2062 1.391 . S
C2061 C2060 1.386 . S
C2061 C2065 1.393 . S
C2062 H2054 0.950 . S
C2062 C2060 1.391 . S
C2062 C2063 1.400 . S
C2063 C2062 1.400 . S
C2063 C2064 1.398 . S
C2063 C2069 1.491 . S
C2064 H2055 0.950 . S
C2064 C2063 1.398 . S
C2064 C2065 1.391 . S
C2065 H2053 0.950 . S
C2065 C2061 1.393 . S
C2065 C2064 1.391 . S
C2066 H2056 0.950 . S
C2066 C2067 1.386 . S
C2066 C2068 1.391 . S
C2067 C2066 1.386 . S
C2067 C2071 1.393 . S
C2068 H2057 0.950 . S
C2068 C2066 1.391 . S
C2068 C2069 1.400 . S
C2069 C2063 1.491 . S
C2069 C2068 1.400 . S
C2069 C2070 1.398 . S
C2070 H2058 0.950 . S
C2070 C2069 1.398 . S
C2070 C2071 1.391 . S
C2071 H2059 0.950 . S
C2071 C2067 1.393 . S
C2071 C2070 1.391 . S
H2072 C2080 0.950 . S
H2073 C2085 0.950 . S
H2074 C2082 0.950 . S
H2075 C2084 0.950 . S
H2076 C2086 0.950 . S
H2077 C2088 0.950 . S
H2078 C2090 0.950 . S
H2079 C2091 0.950 . S
C2080 H2072 0.950 . S
C2080 C2081 1.386 . S
C2080 C2082 1.391 . S
C2081 C2080 1.386 . S
C2081 C2085 1.393 . S
C2082 H2074 0.950 . S
C2082 C2080 1.391 . S
C2082 C2083 1.400 . S
C2083 C2082 1.400 . S
C2083 C2084 1.398 . S
C2083 C2089 1.491 . S
C2084 H2075 0.950 . S
C2084 C2083 1.398 . S
C2084 C2085 1.391 . S
C2085 H2073 0.950 . S
C2085 C2081 1.393 . S
C2085 C2084 1.391 . S
C2086 H2076 0.950 . S
C2086 C2087 1.386 . S
C2086 C2088 1.391 . S
C2087 C2086 1.386 . S
C2087 C2091 1.393 . S
C2088 H2077 0.950 . S
C2088 C2086 1.391 . S
C2088 C2089 1.400 . S
C2089 C2083 1.491 . S
C2089 C2088 1.400 . S
C2089 C2090 1.398 . S
C2090 H2078 0.950 . S
C2090 C2089 1.398 . S
C2090 C2091 1.391 . S
C2091 H2079 0.950 . S
C2091 C2087 1.393 . S
C2091 C2090 1.391 . S
H2092 C2100 0.950 . S
H2093 C2105 0.950 . S
H2094 C2102 0.950 . S
H2095 C2104 0.950 . S
H2096 C2106 0.950 . S
H2097 C2108 0.950 . S
H2098 C2110 0.950 . S
H2099 C2111 0.950 . S
C2100 H2092 0.950 . S
C2100 C2101 1.386 . S
C2100 C2102 1.391 . S
C2101 C2100 1.386 . S
C2101 C2105 1.393 . S
C2102 H2094 0.950 . S
C2102 C2100 1.391 . S
C2102 C2103 1.400 . S
C2103 C2102 1.400 . S
C2103 C2104 1.398 . S
C2103 C2109 1.491 . S
C2104 H2095 0.950 . S
C2104 C2103 1.398 . S
C2104 C2105 1.391 . S
C2105 H2093 0.950 . S
C2105 C2101 1.393 . S
C2105 C2104 1.391 . S
C2106 H2096 0.950 . S
C2106 C2107 1.386 . S
C2106 C2108 1.391 . S
C2107 C2106 1.386 . S
C2107 C2111 1.393 . S
C2108 H2097 0.950 . S
C2108 C2106 1.391 . S
C2108 C2109 1.400 . S
C2109 C2103 1.491 . S
C2109 C2108 1.400 . S
C2109 C2110 1.398 . S
C2110 H2098 0.950 . S
C2110 C2109 1.398 . S
C2110 C2111 1.391 . S
C2111 H2099 0.950 . S
C2111 C2107 1.393 . S
C2111 C2110 1.391 . S
H2112 C2120 0.950 . S
H2113 C2125 0.950 . S
H2114 C2122 0.950 . S
H2115 C2124 0.950 . S
H2116 C2126 0.950 . S
H2117 C2128 0.950 . S
H2118 C2130 0.950 . S
H2119 C2131 0.950 . S
C2120 H2112 0.950 . S
C2120 C2121 1.386 . S
C2120 C2122 1.391 . S
C2121 C2120 1.386 . S
C2121 C2125 1.393 . S
C2122 H2114 0.950 . S
C2122 C2120 1.391 . S
C2122 C2123 1.400 . S
C2123 C2122 1.400 . S
C2123 C2124 1.398 . S
C2123 C2129 1.491 . S
C2124 H2115 0.950 . S
C2124 C2123 1.398 . S
C2124 C2125 1.391 . S
C2125 H2113 0.950 . S
C2125 C2121 1.393 . S
C2125 C2124 1.391 . S
C2126 H2116 0.950 . S
C2126 C2127 1.386 . S
C2126 C2128 1.391 . S
C2127 C2126 1.386 . S
C2127 C2131 1.393 . S
C2128 H2117 0.950 . S
C2128 C2126 1.391 . S
C2128 C2129 1.400 . S
C2129 C2123 1.491 . S
C2129 C2128 1.400 . S
C2129 C2130 1.398 . S
C2130 H2118 0.950 . S
C2130 C2129 1.398 . S
C2130 C2131 1.391 . S
C2131 H2119 0.950 . S
C2131 C2127 1.393 . S
C2131 C2130 1.391 . S
H2132 C2140 0.950 . S
H2133 C2145 0.950 . S
H2134 C2142 0.950 . S
H2135 C2144 0.950 . S
H2136 C2146 0.950 . S
H2137 C2148 0.950 . S
H2138 C2150 0.950 . S
H2139 C2151 0.950 . S
C2140 H2132 0.950 . S
C2140 C2141 1.386 . S
C2140 C2142 1.391 . S
C2141 C2140 1.386 . S
C2141 C2145 1.393 . S
C2142 H2134 0.950 . S
C2142 C2140 1.391 . S
C2142 C2143 1.400 . S
C2143 C2142 1.400 . S
C2143 C2144 1.398 . S
C2143 C2149 1.491 . S
C2144 H2135 0.950 . S
C2144 C2143 1.398 . S
C2144 C2145 1.391 . S
C2145 H2133 0.950 . S
C2145 C2141 1.393 . S
C2145 C2144 1.391 . S
C2146 H2136 0.950 . S
C2146 C2147 1.386 . S
C2146 C2148 1.391 . S
C2147 C2146 1.386 . S
C2147 C2151 1.393 . S
C2148 H2137 0.950 . S
C2148 C2146 1.391 . S
C2148 C2149 1.400 . S
C2149 C2143 1.491 . S
C2149 C2148 1.400 . S
C2149 C2150 1.398 . S
C2150 H2138 0.950 . S
C2150 C2149 1.398 . S
C2150 C2151 1.391 . S
C2151 H2139 0.950 . S
C2151 C2147 1.393 . S
C2151 C2150 1.391 . S
H2152 C2160 0.950 . S
H2153 C2165 0.950 . S
H2154 C2162 0.950 . S
H2155 C2164 0.950 . S
H2156 C2166 0.950 . S
H2157 C2168 0.950 . S
H2158 C2170 0.950 . S
H2159 C2171 0.950 . S
C2160 H2152 0.950 . S
C2160 C2161 1.386 . S
C2160 C2162 1.391 . S
C2161 C2160 1.386 . S
C2161 C2165 1.393 . S
C2162 H2154 0.950 . S
C2162 C2160 1.391 . S
C2162 C2163 1.400 . S
C2163 C2162 1.400 . S
C2163 C2164 1.398 . S
C2163 C2169 1.491 . S
C2164 H2155 0.950 . S
C2164 C2163 1.398 . S
C2164 C2165 1.391 . S
C2165 H2153 0.950 . S
C2165 C2161 1.393 . S
C2165 C2164 1.391 . S
C2166 H2156 0.950 . S
C2166 C2167 1.386 . S
C2166 C2168 1.391 . S
C2167 C2166 1.386 . S
C2167 C2171 1.393 . S
C2168 H2157 0.950 . S
C2168 C2166 1.391 . S
C2168 C2169 1.400 . S
C2169 C2163 1.491 . S
C2169 C2168 1.400 . S
C2169 C2170 1.398 . S
C2170 H2158 0.950 . S
C2170 C2169 1.398 . S
C2170 C2171 1.391 . S
C2171 H2159 0.950 . S
C2171 C2167 1.393 . S
C2171 C2170 1.391 . S
H2172 C2180 0.950 . S
H2173 C2185 0.950 . S
H2174 C2182 0.950 . S
H2175 C2184 0.950 . S
H2176 C2186 0.950 . S
H2177 C2188 0.950 . S
H2178 C2190 0.950 . S
H2179 C2191 0.950 . S
C2180 H2172 0.950 . S
C2180 C2181 1.386 . S
C2180 C2182 1.391 . S
C2181 C2180 1.386 . S
C2181 C2185 1.393 . S
C2182 H2174 0.950 . S
C2182 C2180 1.391 . S
C2182 C2183 1.400 . S
C2183 C2182 1.400 . S
C2183 C2184 1.398 . S
C2183 C2189 1.491 . S
C2184 H2175 0.950 . S
C2184 C2183 1.398 . S
C2184 C2185 1.391 . S
C2185 H2173 0.950 . S
C2185 C2181 1.393 . S
C2185 C2184 1.391 . S
C2186 H2176 0.950 . S
C2186 C2187 1.386 . S
C2186 C2188 1.391 . S
C2187 C2186 1.386 . S
C2187 C2191 1.393 . S
C2188 H2177 0.950 . S
C2188 C2186 1.391 . S
C2188 C2189 1.400 . S
C2189 C2183 1.491 . S
C2189 C2188 1.400 . S
C2189 C2190 1.398 . S
C2190 H2178 0.950 . S
C2190 C2189 1.398 . S
C2190 C2191 1.391 . S
C2191 H2179 0.950 . S
C2191 C2187 1.393 . S
C2191 C2190 1.391 . S
H2192 C2200 0.950 . S
H2193 C2205 0.950 . S
H2194 C2202 0.950 . S
H2195 C2204 0.950 . S
H2196 C2206 0.950 . S
H2197 C2208 0.950 . S
H2198 C2210 0.950 . S
H2199 C2211 0.950 . S
C2200 H2192 0.950 . S
C2200 C2201 1.386 . S
C2200 C2202 1.391 . S
C2201 C2200 1.386 . S
C2201 C2205 1.393 . S
C2202 H2194 0.950 . S
C2202 C2200 1.391 . S
C2202 C2203 1.400 . S
C2203 C2202 1.400 . S
C2203 C2204 1.398 . S
C2203 C2209 1.491 . S
C2204 H2195 0.950 . S
C2204 C2203 1.398 . S
C2204 C2205 1.391 . S
C2205 H2193 0.950 . S
C2205 C2201 1.393 . S
C2205 C2204 1.391 . S
C2206 H2196 0.950 . S
C2206 C2207 1.386 . S
C2206 C2208 1.391 . S
C2207 C2206 1.386 . S
C2207 C2211 1.393 . S
C2208 H2197 0.950 . S
C2208 C2206 1.391 . S
C2208 C2209 1.400 . S
C2209 C2203 1.491 . S
C2209 C2208 1.400 . S
C2209 C2210 1.398 . S
C2210 H2198 0.950 . S
C2210 C2209 1.398 . S
C2210 C2211 1.391 . S
C2211 H2199 0.950 . S
C2211 C2207 1.393 . S
C2211 C2210 1.391 . S
H2212 C2220 0.950 . S
H2213 C2225 0.950 . S
H2214 C2222 0.950 . S
H2215 C2224 0.950 . S
H2216 C2226 0.950 . S
H2217 C2228 0.950 . S
H2218 C2230 0.950 . S
H2219 C2231 0.950 . S
C2220 H2212 0.950 . S
C2220 C2221 1.386 . S
C2220 C2222 1.391 . S
C2221 C2220 1.386 . S
C2221 C2225 1.393 . S
C2222 H2214 0.950 . S
C2222 C2220 1.391 . S
C2222 C2223 1.400 . S
C2223 C2222 1.400 . S
C2223 C2224 1.398 . S
C2223 C2229 1.491 . S
C2224 H2215 0.950 . S
C2224 C2223 1.398 . S
C2224 C2225 1.391 . S
C2225 H2213 0.950 . S
C2225 C2221 1.393 . S
C2225 C2224 1.391 . S
C2226 H2216 0.950 . S
C2226 C2227 1.386 . S
C2226 C2228 1.391 . S
C2227 C2226 1.386 . S
C2227 C2231 1.393 . S
C2228 H2217 0.950 . S
C2228 C2226 1.391 . S
C2228 C2229 1.400 . S
C2229 C2223 1.491 . S
C2229 C2228 1.400 . S
C2229 C2230 1.398 . S
C2230 H2218 0.950 . S
C2230 C2229 1.398 . S
C2230 C2231 1.391 . S
C2231 H2219 0.950 . S
C2231 C2227 1.393 . S
C2231 C2230 1.391 . S
H2232 C2240 0.950 . S
H2233 C2245 0.950 . S
H2234 C2242 0.950 . S
H2235 C2244 0.950 . S
H2236 C2246 0.950 . S
H2237 C2248 0.950 . S
H2238 C2250 0.950 . S
H2239 C2251 0.950 . S
C2240 H2232 0.950 . S
C2240 C2241 1.386 . S
C2240 C2242 1.391 . S
C2241 C2240 1.386 . S
C2241 C2245 1.393 . S
C2242 H2234 0.950 . S
C2242 C2240 1.391 . S
C2242 C2243 1.400 . S
C2243 C2242 1.400 . S
C2243 C2244 1.398 . S
C2243 C2249 1.491 . S
C2244 H2235 0.950 . S
C2244 C2243 1.398 . S
C2244 C2245 1.391 . S
C2245 H2233 0.950 . S
C2245 C2241 1.393 . S
C2245 C2244 1.391 . S
C2246 H2236 0.950 . S
C2246 C2247 1.386 . S
C2246 C2248 1.391 . S
C2247 C2246 1.386 . S
C2247 C2251 1.393 . S
C2248 H2237 0.950 . S
C2248 C2246 1.391 . S
C2248 C2249 1.400 . S
C2249 C2243 1.491 . S
C2249 C2248 1.400 . S
C2249 C2250 1.398 . S
C2250 H2238 0.950 . S
C2250 C2249 1.398 . S
C2250 C2251 1.391 . S
C2251 H2239 0.950 . S
C2251 C2247 1.393 . S
C2251 C2250 1.391 . S
H2252 C2260 0.950 . S
H2253 C2265 0.950 . S
H2254 C2262 0.950 . S
H2255 C2264 0.950 . S
H2256 C2266 0.950 . S
H2257 C2268 0.950 . S
H2258 C2270 0.950 . S
H2259 C2271 0.950 . S
C2260 H2252 0.950 . S
C2260 C2261 1.386 . S
C2260 C2262 1.391 . S
C2261 C2260 1.386 . S
C2261 C2265 1.393 . S
C2262 H2254 0.950 . S
C2262 C2260 1.391 . S
C2262 C2263 1.400 . S
C2263 C2262 1.400 . S
C2263 C2264 1.398 . S
C2263 C2269 1.491 . S
C2264 H2255 0.950 . S
C2264 C2263 1.398 . S
C2264 C2265 1.391 . S
C2265 H2253 0.950 . S
C2265 C2261 1.393 . S
C2265 C2264 1.391 . S
C2266 H2256 0.950 . S
C2266 C2267 1.386 . S
C2266 C2268 1.391 . S
C2267 C2266 1.386 . S
C2267 C2271 1.393 . S
C2268 H2257 0.950 . S
C2268 C2266 1.391 . S
C2268 C2269 1.400 . S
C2269 C2263 1.491 . S
C2269 C2268 1.400 . S
C2269 C2270 1.398 . S
C2270 H2258 0.950 . S
C2270 C2269 1.398 . S
C2270 C2271 1.391 . S
C2271 H2259 0.950 . S
C2271 C2267 1.393 . S
C2271 C2270 1.391 . S
H2272 C2280 0.950 . S
H2273 C2285 0.950 . S
H2274 C2282 0.950 . S
H2275 C2284 0.950 . S
H2276 C2286 0.950 . S
H2277 C2288 0.950 . S
H2278 C2290 0.950 . S
H2279 C2291 0.950 . S
C2280 H2272 0.950 . S
C2280 C2281 1.386 . S
C2280 C2282 1.391 . S
C2281 C2280 1.386 . S
C2281 C2285 1.393 . S
C2282 H2274 0.950 . S
C2282 C2280 1.391 . S
C2282 C2283 1.400 . S
C2283 C2282 1.400 . S
C2283 C2284 1.398 . S
C2283 C2289 1.491 . S
C2284 H2275 0.950 . S
C2284 C2283 1.398 . S
C2284 C2285 1.391 . S
C2285 H2273 0.950 . S
C2285 C2281 1.393 . S
C2285 C2284 1.391 . S
C2286 H2276 0.950 . S
C2286 C2287 1.386 . S
C2286 C2288 1.391 . S
C2287 C2286 1.386 . S
C2287 C2291 1.393 . S
C2288 H2277 0.950 . S
C2288 C2286 1.391 . S
C2288 C2289 1.400 . S
C2289 C2283 1.491 . S
C2289 C2288 1.400 . S
C2289 C2290 1.398 . S
C2290 H2278 0.950 . S
C2290 C2289 1.398 . S
C2290 C2291 1.391 . S
C2291 H2279 0.950 . S
C2291 C2287 1.393 . S
C2291 C2290 1.391 . S
H2292 C2300 0.950 . S
H2293 C2305 0.950 . S
H2294 C2302 0.950 . S
H2295 C2304 0.950 . S
H2296 C2306 0.950 . S
H2297 C2308 0.950 . S
H2298 C2310 0.950 . S
H2299 C2311 0.950 . S
C2300 H2292 0.950 . S
C2300 C2301 1.386 . S
C2300 C2302 1.391 . S
C2301 C2300 1.386 . S
C2301 C2305 1.393 . S
C2302 H2294 0.950 . S
C2302 C2300 1.391 . S
C2302 C2303 1.400 . S
C2303 C2302 1.400 . S
C2303 C2304 1.398 . S
C2303 C2309 1.491 . S
C2304 H2295 0.950 . S
C2304 C2303 1.398 . S
C2304 C2305 1.391 . S
C2305 H2293 0.950 . S
C2305 C2301 1.393 . S
C2305 C2304 1.391 . S
C2306 H2296 0.950 . S
C2306 C2307 1.386 . S
C2306 C2308 1.391 . S
C2307 C2306 1.386 . S
C2307 C2311 1.393 . S
C2308 H2297 0.950 . S
C2308 C2306 1.391 . S
C2308 C2309 1.400 . S
C2309 C2303 1.491 . S
C2309 C2308 1.400 . S
C2309 C2310 1.398 . S
C2310 H2298 0.950 . S
C2310 C2309 1.398 . S
C2310 C2311 1.391 . S
C2311 H2299 0.950 . S
C2311 C2307 1.393 . S
C2311 C2310 1.391 . S
H2312 C2320 0.950 . S
H2313 C2325 0.950 . S
H2314 C2322 0.950 . S
H2315 C2324 0.950 . S
H2316 C2326 0.950 . S
H2317 C2328 0.950 . S
H2318 C2330 0.950 . S
H2319 C2331 0.950 . S
C2320 H2312 0.950 . S
C2320 C2321 1.386 . S
C2320 C2322 1.391 . S
C2321 C2320 1.386 . S
C2321 C2325 1.393 . S
C2322 H2314 0.950 . S
C2322 C2320 1.391 . S
C2322 C2323 1.400 . S
C2323 C2322 1.400 . S
C2323 C2324 1.398 . S
C2323 C2329 1.491 . S
C2324 H2315 0.950 . S
C2324 C2323 1.398 . S
C2324 C2325 1.391 . S
C2325 H2313 0.950 . S
C2325 C2321 1.393 . S
C2325 C2324 1.391 . S
C2326 H2316 0.950 . S
C2326 C2327 1.386 . S
C2326 C2328 1.391 . S
C2327 C2326 1.386 . S
C2327 C2331 1.393 . S
C2328 H2317 0.950 . S
C2328 C2326 1.391 . S
C2328 C2329 1.400 . S
C2329 C2323 1.491 . S
C2329 C2328 1.400 . S
C2329 C2330 1.398 . S
C2330 H2318 0.950 . S
C2330 C2329 1.398 . S
C2330 C2331 1.391 . S
C2331 H2319 0.950 . S
C2331 C2327 1.393 . S
C2331 C2330 1.391 . S
H2332 C2340 0.950 . S
H2333 C2345 0.950 . S
H2334 C2342 0.950 . S
H2335 C2344 0.950 . S
H2336 C2346 0.950 . S
H2337 C2348 0.950 . S
H2338 C2350 0.950 . S
H2339 C2351 0.950 . S
C2340 H2332 0.950 . S
C2340 C2341 1.386 . S
C2340 C2342 1.391 . S
C2341 C2340 1.386 . S
C2341 C2345 1.393 . S
C2342 H2334 0.950 . S
C2342 C2340 1.391 . S
C2342 C2343 1.400 . S
C2343 C2342 1.400 . S
C2343 C2344 1.398 . S
C2343 C2349 1.491 . S
C2344 H2335 0.950 . S
C2344 C2343 1.398 . S
C2344 C2345 1.391 . S
C2345 H2333 0.950 . S
C2345 C2341 1.393 . S
C2345 C2344 1.391 . S
C2346 H2336 0.950 . S
C2346 C2347 1.386 . S
C2346 C2348 1.391 . S
C2347 C2346 1.386 . S
C2347 C2351 1.393 . S
C2348 H2337 0.950 . S
C2348 C2346 1.391 . S
C2348 C2349 1.400 . S
C2349 C2343 1.491 . S
C2349 C2348 1.400 . S
C2349 C2350 1.398 . S
C2350 H2338 0.950 . S
C2350 C2349 1.398 . S
C2350 C2351 1.391 . S
C2351 H2339 0.950 . S
C2351 C2347 1.393 . S
C2351 C2350 1.391 . S
H2352 C2360 0.950 . S
H2353 C2365 0.950 . S
H2354 C2362 0.950 . S
H2355 C2364 0.950 . S
H2356 C2366 0.950 . S
H2357 C2368 0.950 . S
H2358 C2370 0.950 . S
H2359 C2371 0.950 . S
C2360 H2352 0.950 . S
C2360 C2361 1.386 . S
C2360 C2362 1.391 . S
C2361 C2360 1.386 . S
C2361 C2365 1.393 . S
C2362 H2354 0.950 . S
C2362 C2360 1.391 . S
C2362 C2363 1.400 . S
C2363 C2362 1.400 . S
C2363 C2364 1.398 . S
C2363 C2369 1.491 . S
C2364 H2355 0.950 . S
C2364 C2363 1.398 . S
C2364 C2365 1.391 . S
C2365 H2353 0.950 . S
C2365 C2361 1.393 . S
C2365 C2364 1.391 . S
C2366 H2356 0.950 . S
C2366 C2367 1.386 . S
C2366 C2368 1.391 . S
C2367 C2366 1.386 . S
C2367 C2371 1.393 . S
C2368 H2357 0.950 . S
C2368 C2366 1.391 . S
C2368 C2369 1.400 . S
C2369 C2363 1.491 . S
C2369 C2368 1.400 . S
C2369 C2370 1.398 . S
C2370 H2358 0.950 . S
C2370 C2369 1.398 . S
C2370 C2371 1.391 . S
C2371 H2359 0.950 . S
C2371 C2367 1.393 . S
C2371 C2370 1.391 . S
H2372 C2380 0.950 . S
H2373 C2385 0.950 . S
H2374 C2382 0.950 . S
H2375 C2384 0.950 . S
H2376 C2386 0.950 . S
H2377 C2388 0.950 . S
H2378 C2390 0.950 . S
H2379 C2391 0.950 . S
C2380 H2372 0.950 . S
C2380 C2381 1.386 . S
C2380 C2382 1.391 . S
C2381 C2380 1.386 . S
C2381 C2385 1.393 . S
C2382 H2374 0.950 . S
C2382 C2380 1.391 . S
C2382 C2383 1.400 . S
C2383 C2382 1.400 . S
C2383 C2384 1.398 . S
C2383 C2389 1.491 . S
C2384 H2375 0.950 . S
C2384 C2383 1.398 . S
C2384 C2385 1.391 . S
C2385 H2373 0.950 . S
C2385 C2381 1.393 . S
C2385 C2384 1.391 . S
C2386 H2376 0.950 . S
C2386 C2387 1.386 . S
C2386 C2388 1.391 . S
C2387 C2386 1.386 . S
C2387 C2391 1.393 . S
C2388 H2377 0.950 . S
C2388 C2386 1.391 . S
C2388 C2389 1.400 . S
C2389 C2383 1.491 . S
C2389 C2388 1.400 . S
C2389 C2390 1.398 . S
C2390 H2378 0.950 . S
C2390 C2389 1.398 . S
C2390 C2391 1.391 . S
C2391 H2379 0.950 . S
C2391 C2387 1.393 . S
C2391 C2390 1.391 . S
H2392 C2400 0.950 . S
H2393 C2405 0.950 . S
H2394 C2402 0.950 . S
H2395 C2404 0.950 . S
H2396 C2406 0.950 . S
H2397 C2408 0.950 . S
H2398 C2410 0.950 . S
H2399 C2411 0.950 . S
C2400 H2392 0.950 . S
C2400 C2401 1.386 . S
C2400 C2402 1.391 . S
C2401 C2400 1.386 . S
C2401 C2405 1.393 . S
C2402 H2394 0.950 . S
C2402 C2400 1.391 . S
C2402 C2403 1.400 . S
C2403 C2402 1.400 . S
C2403 C2404 1.398 . S
C2403 C2409 1.491 . S
C2404 H2395 0.950 . S
C2404 C2403 1.398 . S
C2404 C2405 1.391 . S
C2405 H2393 0.950 . S
C2405 C2401 1.393 . S
C2405 C2404 1.391 . S
C2406 H2396 0.950 . S
C2406 C2407 1.386 . S
C2406 C2408 1.391 . S
C2407 C2406 1.386 . S
C2407 C2411 1.393 . S
C2408 H2397 0.950 . S
C2408 C2406 1.391 . S
C2408 C2409 1.400 . S
C2409 C2403 1.491 . S
C2409 C2408 1.400 . S
C2409 C2410 1.398 . S
C2410 H2398 0.950 . S
C2410 C2409 1.398 . S
C2410 C2411 1.391 . S
C2411 H2399 0.950 . S
C2411 C2407 1.393 . S
C2411 C2410 1.391 . S
H2412 C2420 0.950 . S
H2413 C2425 0.950 . S
H2414 C2422 0.950 . S
H2415 C2424 0.950 . S
H2416 C2426 0.950 . S
H2417 C2428 0.950 . S
H2418 C2430 0.950 . S
H2419 C2431 0.950 . S
C2420 H2412 0.950 . S
C2420 C2421 1.386 . S
C2420 C2422 1.391 . S
C2421 C2420 1.386 . S
C2421 C2425 1.393 . S
C2422 H2414 0.950 . S
C2422 C2420 1.391 . S
C2422 C2423 1.400 . S
C2423 C2422 1.400 . S
C2423 C2424 1.398 . S
C2423 C2429 1.491 . S
C2424 H2415 0.950 . S
C2424 C2423 1.398 . S
C2424 C2425 1.391 . S
C2425 H2413 0.950 . S
C2425 C2421 1.393 . S
C2425 C2424 1.391 . S
C2426 H2416 0.950 . S
C2426 C2427 1.386 . S
C2426 C2428 1.391 . S
C2427 C2426 1.386 . S
C2427 C2431 1.393 . S
C2428 H2417 0.950 . S
C2428 C2426 1.391 . S
C2428 C2429 1.400 . S
C2429 C2423 1.491 . S
C2429 C2428 1.400 . S
C2429 C2430 1.398 . S
C2430 H2418 0.950 . S
C2430 C2429 1.398 . S
C2430 C2431 1.391 . S
C2431 H2419 0.950 . S
C2431 C2427 1.393 . S
C2431 C2430 1.391 . S
H2432 C2440 0.950 . S
H2433 C2445 0.950 . S
H2434 C2442 0.950 . S
H2435 C2444 0.950 . S
H2436 C2446 0.950 . S
H2437 C2448 0.950 . S
H2438 C2450 0.950 . S
H2439 C2451 0.950 . S
C2440 H2432 0.950 . S
C2440 C2441 1.386 . S
C2440 C2442 1.391 . S
C2441 C2440 1.386 . S
C2441 C2445 1.393 . S
C2442 H2434 0.950 . S
C2442 C2440 1.391 . S
C2442 C2443 1.400 . S
C2443 C2442 1.400 . S
C2443 C2444 1.398 . S
C2443 C2449 1.491 . S
C2444 H2435 0.950 . S
C2444 C2443 1.398 . S
C2444 C2445 1.391 . S
C2445 H2433 0.950 . S
C2445 C2441 1.393 . S
C2445 C2444 1.391 . S
C2446 H2436 0.950 . S
C2446 C2447 1.386 . S
C2446 C2448 1.391 . S
C2447 C2446 1.386 . S
C2447 C2451 1.393 . S
C2448 H2437 0.950 . S
C2448 C2446 1.391 . S
C2448 C2449 1.400 . S
C2449 C2443 1.491 . S
C2449 C2448 1.400 . S
C2449 C2450 1.398 . S
C2450 H2438 0.950 . S
C2450 C2449 1.398 . S
C2450 C2451 1.391 . S
C2451 H2439 0.950 . S
C2451 C2447 1.393 . S
C2451 C2450 1.391 . S
H2452 C2460 0.950 . S
H2453 C2465 0.950 . S
H2454 C2462 0.950 . S
H2455 C2464 0.950 . S
H2456 C2466 0.950 . S
H2457 C2468 0.950 . S
H2458 C2470 0.950 . S
H2459 C2471 0.950 . S
C2460 H2452 0.950 . S
C2460 C2461 1.386 . S
C2460 C2462 1.391 . S
C2461 C2460 1.386 . S
C2461 C2465 1.393 . S
C2462 H2454 0.950 . S
C2462 C2460 1.391 . S
C2462 C2463 1.400 . S
C2463 C2462 1.400 . S
C2463 C2464 1.398 . S
C2463 C2469 1.491 . S
C2464 H2455 0.950 . S
C2464 C2463 1.398 . S
C2464 C2465 1.391 . S
C2465 H2453 0.950 . S
C2465 C2461 1.393 . S
C2465 C2464 1.391 . S
C2466 H2456 0.950 . S
C2466 C2467 1.386 . S
C2466 C2468 1.391 . S
C2467 C2466 1.386 . S
C2467 C2471 1.393 . S
C2468 H2457 0.950 . S
C2468 C2466 1.391 . S
C2468 C2469 1.400 . S
C2469 C2463 1.491 . S
C2469 C2468 1.400 . S
C2469 C2470 1.398 . S
C2470 H2458 0.950 . S
C2470 C2469 1.398 . S
C2470 C2471 1.391 . S
C2471 H2459 0.950 . S
C2471 C2467 1.393 . S
C2471 C2470 1.391 . S
H2472 C2480 0.950 . S
H2473 C2485 0.950 . S
H2474 C2482 0.950 . S
H2475 C2484 0.950 . S
H2476 C2486 0.950 . S
H2477 C2488 0.950 . S
H2478 C2490 0.950 . S
H2479 C2491 0.950 . S
C2480 H2472 0.950 . S
C2480 C2481 1.386 . S
C2480 C2482 1.391 . S
C2481 C2480 1.386 . S
C2481 C2485 1.393 . S
C2482 H2474 0.950 . S
C2482 C2480 1.391 . S
C2482 C2483 1.400 . S
C2483 C2482 1.400 . S
C2483 C2484 1.398 . S
C2483 C2489 1.491 . S
C2484 H2475 0.950 . S
C2484 C2483 1.398 . S
C2484 C2485 1.391 . S
C2485 H2473 0.950 . S
C2485 C2481 1.393 . S
C2485 C2484 1.391 . S
C2486 H2476 0.950 . S
C2486 C2487 1.386 . S
C2486 C2488 1.391 . S
C2487 C2486 1.386 . S
C2487 C2491 1.393 . S
C2488 H2477 0.950 . S
C2488 C2486 1.391 . S
C2488 C2489 1.400 . S
C2489 C2483 1.491 . S
C2489 C2488 1.400 . S
C2489 C2490 1.398 . S
C2490 H2478 0.950 . S
C2490 C2489 1.398 . S
C2490 C2491 1.391 . S
C2491 H2479 0.950 . S
C2491 C2487 1.393 . S
C2491 C2490 1.391 . S
H2492 C2500 0.950 . S
H2493 C2505 0.950 . S
H2494 C2502 0.950 . S
H2495 C2504 0.950 . S
H2496 C2506 0.950 . S
H2497 C2508 0.950 . S
H2498 C2510 0.950 . S
H2499 C2511 0.950 . S
C2500 H2492 0.950 . S
C2500 C2501 1.386 . S
C2500 C2502 1.391 . S
C2501 C2500 1.386 . S
C2501 C2505 1.393 . S
C2502 H2494 0.950 . S
C2502 C2500 1.391 . S
C2502 C2503 1.400 . S
C2503 C2502 1.400 . S
C2503 C2504 1.398 . S
C2503 C2509 1.491 . S
C2504 H2495 0.950 . S
C2504 C2503 1.398 . S
C2504 C2505 1.391 . S
C2505 H2493 0.950 . S
C2505 C2501 1.393 . S
C2505 C2504 1.391 . S
C2506 H2496 0.950 . S
C2506 C2507 1.386 . S
C2506 C2508 1.391 . S
C2507 C2506 1.386 . S
C2507 C2511 1.393 . S
C2508 H2497 0.950 . S
C2508 C2506 1.391 . S
C2508 C2509 1.400 . S
C2509 C2503 1.491 . S
C2509 C2508 1.400 . S
C2509 C2510 1.398 . S
C2510 H2498 0.950 . S
C2510 C2509 1.398 . S
C2510 C2511 1.391 . S
C2511 H2499 0.950 . S
C2511 C2507 1.393 . S
C2511 C2510 1.391 . S
H2512 C2520 0.950 . S
H2513 C2525 0.950 . S
H2514 C2522 0.950 . S
H2515 C2524 0.950 . S
H2516 C2526 0.950 . S
H2517 C2528 0.950 . S
H2518 C2530 0.950 . S
H2519 C2531 0.950 . S
C2520 H2512 0.950 . S
C2520 C2521 1.386 . S
C2520 C2522 1.391 . S
C2521 C2520 1.386 . S
C2521 C2525 1.393 . S
C2522 H2514 0.950 . S
C2522 C2520 1.391 . S
C2522 C2523 1.400 . S
C2523 C2522 1.400 . S
C2523 C2524 1.398 . S
C2523 C2529 1.491 . S
C2524 H2515 0.950 . S
C2524 C2523 1.398 . S
C2524 C2525 1.391 . S
C2525 H2513 0.950 . S
C2525 C2521 1.393 . S
C2525 C2524 1.391 . S
C2526 H2516 0.950 . S
C2526 C2527 1.386 . S
C2526 C2528 1.391 . S
C2527 C2526 1.386 . S
C2527 C2531 1.393 . S
C2528 H2517 0.950 . S
C2528 C2526 1.391 . S
C2528 C2529 1.400 . S
C2529 C2523 1.491 . S
C2529 C2528 1.400 . S
C2529 C2530 1.398 . S
C2530 H2518 0.950 . S
C2530 C2529 1.398 . S
C2530 C2531 1.391 . S
C2531 H2519 0.950 . S
C2531 C2527 1.393 . S
C2531 C2530 1.391 . S
H2532 C2540 0.950 . S
H2533 C2545 0.950 . S
H2534 C2542 0.950 . S
H2535 C2544 0.950 . S
H2536 C2546 0.950 . S
H2537 C2548 0.950 . S
H2538 C2550 0.950 . S
H2539 C2551 0.950 . S
C2540 H2532 0.950 . S
C2540 C2541 1.386 . S
C2540 C2542 1.391 . S
C2541 C2540 1.386 . S
C2541 C2545 1.393 . S
C2542 H2534 0.950 . S
C2542 C2540 1.391 . S
C2542 C2543 1.400 . S
C2543 C2542 1.400 . S
C2543 C2544 1.398 . S
C2543 C2549 1.491 . S
C2544 H2535 0.950 . S
C2544 C2543 1.398 . S
C2544 C2545 1.391 . S
C2545 H2533 0.950 . S
C2545 C2541 1.393 . S
C2545 C2544 1.391 . S
C2546 H2536 0.950 . S
C2546 C2547 1.386 . S
C2546 C2548 1.391 . S
C2547 C2546 1.386 . S
C2547 C2551 1.393 . S
C2548 H2537 0.950 . S
C2548 C2546 1.391 . S
C2548 C2549 1.400 . S
C2549 C2543 1.491 . S
C2549 C2548 1.400 . S
C2549 C2550 1.398 . S
C2550 H2538 0.950 . S
C2550 C2549 1.398 . S
C2550 C2551 1.391 . S
C2551 H2539 0.950 . S
C2551 C2547 1.393 . S
C2551 C2550 1.391 . S
H2552 C2560 0.950 . S
H2553 C2565 0.950 . S
H2554 C2562 0.950 . S
H2555 C2564 0.950 . S
H2556 C2566 0.950 . S
H2557 C2568 0.950 . S
H2558 C2570 0.950 . S
H2559 C2571 0.950 . S
C2560 H2552 0.950 . S
C2560 C2561 1.386 . S
C2560 C2562 1.391 . S
C2561 C2560 1.386 . S
C2561 C2565 1.393 . S
C2562 H2554 0.950 . S
C2562 C2560 1.391 . S
C2562 C2563 1.400 . S
C2563 C2562 1.400 . S
C2563 C2564 1.398 . S
C2563 C2569 1.491 . S
C2564 H2555 0.950 . S
C2564 C2563 1.398 . S
C2564 C2565 1.391 . S
C2565 H2553 0.950 . S
C2565 C2561 1.393 . S
C2565 C2564 1.391 . S
C2566 H2556 0.950 . S
C2566 C2567 1.386 . S
C2566 C2568 1.391 . S
C2567 C2566 1.386 . S
C2567 C2571 1.393 . S
C2568 H2557 0.950 . S
C2568 C2566 1.391 . S
C2568 C2569 1.400 . S
C2569 C2563 1.491 . S
C2569 C2568 1.400 . S
C2569 C2570 1.398 . S
C2570 H2558 0.950 . S
C2570 C2569 1.398 . S
C2570 C2571 1.391 . S
C2571 H2559 0.950 . S
C2571 C2567 1.393 . S
C2571 C2570 1.391 . S
H2572 C2580 0.950 . S
H2573 C2585 0.950 . S
H2574 C2582 0.950 . S
H2575 C2584 0.950 . S
H2576 C2586 0.950 . S
H2577 C2588 0.950 . S
H2578 C2590 0.950 . S
H2579 C2591 0.950 . S
C2580 H2572 0.950 . S
C2580 C2581 1.386 . S
C2580 C2582 1.391 . S
C2581 C2580 1.386 . S
C2581 C2585 1.393 . S
C2582 H2574 0.950 . S
C2582 C2580 1.391 . S
C2582 C2583 1.400 . S
C2583 C2582 1.400 . S
C2583 C2584 1.398 . S
C2583 C2589 1.491 . S
C2584 H2575 0.950 . S
C2584 C2583 1.398 . S
C2584 C2585 1.391 . S
C2585 H2573 0.950 . S
C2585 C2581 1.393 . S
C2585 C2584 1.391 . S
C2586 H2576 0.950 . S
C2586 C2587 1.386 . S
C2586 C2588 1.391 . S
C2587 C2586 1.386 . S
C2587 C2591 1.393 . S
C2588 H2577 0.950 . S
C2588 C2586 1.391 . S
C2588 C2589 1.400 . S
C2589 C2583 1.491 . S
C2589 C2588 1.400 . S
C2589 C2590 1.398 . S
C2590 H2578 0.950 . S
C2590 C2589 1.398 . S
C2590 C2591 1.391 . S
C2591 H2579 0.950 . S
C2591 C2587 1.393 . S
C2591 C2590 1.391 . S
H2592 C2600 0.950 . S
H2593 C2605 0.950 . S
H2594 C2602 0.950 . S
H2595 C2604 0.950 . S
H2596 C2606 0.950 . S
H2597 C2608 0.950 . S
H2598 C2610 0.950 . S
H2599 C2611 0.950 . S
C2600 H2592 0.950 . S
C2600 C2601 1.386 . S
C2600 C2602 1.391 . S
C2601 C2600 1.386 . S
C2601 C2605 1.393 . S
C2602 H2594 0.950 . S
C2602 C2600 1.391 . S
C2602 C2603 1.400 . S
C2603 C2602 1.400 . S
C2603 C2604 1.398 . S
C2603 C2609 1.491 . S
C2604 H2595 0.950 . S
C2604 C2603 1.398 . S
C2604 C2605 1.391 . S
C2605 H2593 0.950 . S
C2605 C2601 1.393 . S
C2605 C2604 1.391 . S
C2606 H2596 0.950 . S
C2606 C2607 1.386 . S
C2606 C2608 1.391 . S
C2607 C2606 1.386 . S
C2607 C2611 1.393 . S
C2608 H2597 0.950 . S
C2608 C2606 1.391 . S
C2608 C2609 1.400 . S
C2609 C2603 1.491 . S
C2609 C2608 1.400 . S
C2609 C2610 1.398 . S
C2610 H2598 0.950 . S
C2610 C2609 1.398 . S
C2610 C2611 1.391 . S
C2611 H2599 0.950 . S
C2611 C2607 1.393 . S
C2611 C2610 1.391 . S
H2612 C2620 0.950 . S
H2613 C2625 0.950 . S
H2614 C2622 0.950 . S
H2615 C2624 0.950 . S
H2616 C2626 0.950 . S
H2617 C2628 0.950 . S
H2618 C2630 0.950 . S
H2619 C2631 0.950 . S
C2620 H2612 0.950 . S
C2620 C2621 1.386 . S
C2620 C2622 1.391 . S
C2621 C2620 1.386 . S
C2621 C2625 1.393 . S
C2622 H2614 0.950 . S
C2622 C2620 1.391 . S
C2622 C2623 1.400 . S
C2623 C2622 1.400 . S
C2623 C2624 1.398 . S
C2623 C2629 1.491 . S
C2624 H2615 0.950 . S
C2624 C2623 1.398 . S
C2624 C2625 1.391 . S
C2625 H2613 0.950 . S
C2625 C2621 1.393 . S
C2625 C2624 1.391 . S
C2626 H2616 0.950 . S
C2626 C2627 1.386 . S
C2626 C2628 1.391 . S
C2627 C2626 1.386 . S
C2627 C2631 1.393 . S
C2628 H2617 0.950 . S
C2628 C2626 1.391 . S
C2628 C2629 1.400 . S
C2629 C2623 1.491 . S
C2629 C2628 1.400 . S
C2629 C2630 1.398 . S
C2630 H2618 0.950 . S
C2630 C2629 1.398 . S
C2630 C2631 1.391 . S
C2631 H2619 0.950 . S
C2631 C2627 1.393 . S
C2631 C2630 1.391 . S
H2632 C2640 0.950 . S
H2633 C2645 0.950 . S
H2634 C2642 0.950 . S
H2635 C2644 0.950 . S
H2636 C2646 0.950 . S
H2637 C2648 0.950 . S
H2638 C2650 0.950 . S
H2639 C2651 0.950 . S
C2640 H2632 0.950 . S
C2640 C2641 1.386 . S
C2640 C2642 1.391 . S
C2641 C2640 1.386 . S
C2641 C2645 1.393 . S
C2642 H2634 0.950 . S
C2642 C2640 1.391 . S
C2642 C2643 1.400 . S
C2643 C2642 1.400 . S
C2643 C2644 1.398 . S
C2643 C2649 1.491 . S
C2644 H2635 0.950 . S
C2644 C2643 1.398 . S
C2644 C2645 1.391 . S
C2645 H2633 0.950 . S
C2645 C2641 1.393 . S
C2645 C2644 1.391 . S
C2646 H2636 0.950 . S
C2646 C2647 1.386 . S
C2646 C2648 1.391 . S
C2647 C2646 1.386 . S
C2647 C2651 1.393 . S
C2648 H2637 0.950 . S
C2648 C2646 1.391 . S
C2648 C2649 1.400 . S
C2649 C2643 1.491 . S
C2649 C2648 1.400 . S
C2649 C2650 1.398 . S
C2650 H2638 0.950 . S
C2650 C2649 1.398 . S
C2650 C2651 1.391 . S
C2651 H2639 0.950 . S
C2651 C2647 1.393 . S
C2651 C2650 1.391 . S
H2652 C2660 0.950 . S
H2653 C2665 0.950 . S
H2654 C2662 0.950 . S
H2655 C2664 0.950 . S
H2656 C2666 0.950 . S
H2657 C2668 0.950 . S
H2658 C2670 0.950 . S
H2659 C2671 0.950 . S
C2660 H2652 0.950 . S
C2660 C2661 1.386 . S
C2660 C2662 1.391 . S
C2661 C2660 1.386 . S
C2661 C2665 1.393 . S
C2662 H2654 0.950 . S
C2662 C2660 1.391 . S
C2662 C2663 1.400 . S
C2663 C2662 1.400 . S
C2663 C2664 1.398 . S
C2663 C2669 1.491 . S
C2664 H2655 0.950 . S
C2664 C2663 1.398 . S
C2664 C2665 1.391 . S
C2665 H2653 0.950 . S
C2665 C2661 1.393 . S
C2665 C2664 1.391 . S
C2666 H2656 0.950 . S
C2666 C2667 1.386 . S
C2666 C2668 1.391 . S
C2667 C2666 1.386 . S
C2667 C2671 1.393 . S
C2668 H2657 0.950 . S
C2668 C2666 1.391 . S
C2668 C2669 1.400 . S
C2669 C2663 1.491 . S
C2669 C2668 1.400 . S
C2669 C2670 1.398 . S
C2670 H2658 0.950 . S
C2670 C2669 1.398 . S
C2670 C2671 1.391 . S
C2671 H2659 0.950 . S
C2671 C2667 1.393 . S
C2671 C2670 1.391 . S
H2672 C2680 0.950 . S
H2673 C2685 0.950 . S
H2674 C2682 0.950 . S
H2675 C2684 0.950 . S
H2676 C2686 0.950 . S
H2677 C2688 0.950 . S
H2678 C2690 0.950 . S
H2679 C2691 0.950 . S
C2680 H2672 0.950 . S
C2680 C2681 1.386 . S
C2680 C2682 1.391 . S
C2681 C2680 1.386 . S
C2681 C2685 1.393 . S
C2682 H2674 0.950 . S
C2682 C2680 1.391 . S
C2682 C2683 1.400 . S
C2683 C2682 1.400 . S
C2683 C2684 1.398 . S
C2683 C2689 1.491 . S
C2684 H2675 0.950 . S
C2684 C2683 1.398 . S
C2684 C2685 1.391 . S
C2685 H2673 0.950 . S
C2685 C2681 1.393 . S
C2685 C2684 1.391 . S
C2686 H2676 0.950 . S
C2686 C2687 1.386 . S
C2686 C2688 1.391 . S
C2687 C2686 1.386 . S
C2687 C2691 1.393 . S
C2688 H2677 0.950 . S
C2688 C2686 1.391 . S
C2688 C2689 1.400 . S
C2689 C2683 1.491 . S
C2689 C2688 1.400 . S
C2689 C2690 1.398 . S
C2690 H2678 0.950 . S
C2690 C2689 1.398 . S
C2690 C2691 1.391 . S
C2691 H2679 0.950 . S
C2691 C2687 1.393 . S
C2691 C2690 1.391 . S
H2692 C2700 0.950 . S
H2693 C2705 0.950 . S
H2694 C2702 0.950 . S
H2695 C2704 0.950 . S
H2696 C2706 0.950 . S
H2697 C2708 0.950 . S
H2698 C2710 0.950 . S
H2699 C2711 0.950 . S
C2700 H2692 0.950 . S
C2700 C2701 1.386 . S
C2700 C2702 1.391 . S
C2701 C2700 1.386 . S
C2701 C2705 1.393 . S
C2702 H2694 0.950 . S
C2702 C2700 1.391 . S
C2702 C2703 1.400 . S
C2703 C2702 1.400 . S
C2703 C2704 1.398 . S
C2703 C2709 1.491 . S
C2704 H2695 0.950 . S
C2704 C2703 1.398 . S
C2704 C2705 1.391 . S
C2705 H2693 0.950 . S
C2705 C2701 1.393 . S
C2705 C2704 1.391 . S
C2706 H2696 0.950 . S
C2706 C2707 1.386 . S
C2706 C2708 1.391 . S
C2707 C2706 1.386 . S
C2707 C2711 1.393 . S
C2708 H2697 0.950 . S
C2708 C2706 1.391 . S
C2708 C2709 1.400 . S
C2709 C2703 1.491 . S
C2709 C2708 1.400 . S
C2709 C2710 1.398 . S
C2710 H2698 0.950 . S
C2710 C2709 1.398 . S
C2710 C2711 1.391 . S
C2711 H2699 0.950 . S
C2711 C2707 1.393 . S
C2711 C2710 1.391 . S
H2712 C2720 0.950 . S
H2713 C2725 0.950 . S
H2714 C2722 0.950 . S
H2715 C2724 0.950 . S
H2716 C2726 0.950 . S
H2717 C2728 0.950 . S
H2718 C2730 0.950 . S
H2719 C2731 0.950 . S
C2720 H2712 0.950 . S
C2720 C2721 1.386 . S
C2720 C2722 1.391 . S
C2721 C2720 1.386 . S
C2721 C2725 1.393 . S
C2722 H2714 0.950 . S
C2722 C2720 1.391 . S
C2722 C2723 1.400 . S
C2723 C2722 1.400 . S
C2723 C2724 1.398 . S
C2723 C2729 1.491 . S
C2724 H2715 0.950 . S
C2724 C2723 1.398 . S
C2724 C2725 1.391 . S
C2725 H2713 0.950 . S
C2725 C2721 1.393 . S
C2725 C2724 1.391 . S
C2726 H2716 0.950 . S
C2726 C2727 1.386 . S
C2726 C2728 1.391 . S
C2727 C2726 1.386 . S
C2727 C2731 1.393 . S
C2728 H2717 0.950 . S
C2728 C2726 1.391 . S
C2728 C2729 1.400 . S
C2729 C2723 1.491 . S
C2729 C2728 1.400 . S
C2729 C2730 1.398 . S
C2730 H2718 0.950 . S
C2730 C2729 1.398 . S
C2730 C2731 1.391 . S
C2731 H2719 0.950 . S
C2731 C2727 1.393 . S
C2731 C2730 1.391 . S
H2732 C2740 0.950 . S
H2733 C2745 0.950 . S
H2734 C2742 0.950 . S
H2735 C2744 0.950 . S
H2736 C2746 0.950 . S
H2737 C2748 0.950 . S
H2738 C2750 0.950 . S
H2739 C2751 0.950 . S
C2740 H2732 0.950 . S
C2740 C2741 1.386 . S
C2740 C2742 1.391 . S
C2741 C2740 1.386 . S
C2741 C2745 1.393 . S
C2742 H2734 0.950 . S
C2742 C2740 1.391 . S
C2742 C2743 1.400 . S
C2743 C2742 1.400 . S
C2743 C2744 1.398 . S
C2743 C2749 1.491 . S
C2744 H2735 0.950 . S
C2744 C2743 1.398 . S
C2744 C2745 1.391 . S
C2745 H2733 0.950 . S
C2745 C2741 1.393 . S
C2745 C2744 1.391 . S
C2746 H2736 0.950 . S
C2746 C2747 1.386 . S
C2746 C2748 1.391 . S
C2747 C2746 1.386 . S
C2747 C2751 1.393 . S
C2748 H2737 0.950 . S
C2748 C2746 1.391 . S
C2748 C2749 1.400 . S
C2749 C2743 1.491 . S
C2749 C2748 1.400 . S
C2749 C2750 1.398 . S
C2750 H2738 0.950 . S
C2750 C2749 1.398 . S
C2750 C2751 1.391 . S
C2751 H2739 0.950 . S
C2751 C2747 1.393 . S
C2751 C2750 1.391 . S
H2752 C2760 0.950 . S
H2753 C2765 0.950 . S
H2754 C2762 0.950 . S
H2755 C2764 0.950 . S
H2756 C2766 0.950 . S
H2757 C2768 0.950 . S
H2758 C2770 0.950 . S
H2759 C2771 0.950 . S
C2760 H2752 0.950 . S
C2760 C2761 1.386 . S
C2760 C2762 1.391 . S
C2761 C2760 1.386 . S
C2761 C2765 1.393 . S
C2762 H2754 0.950 . S
C2762 C2760 1.391 . S
C2762 C2763 1.400 . S
C2763 C2762 1.400 . S
C2763 C2764 1.398 . S
C2763 C2769 1.491 . S
C2764 H2755 0.950 . S
C2764 C2763 1.398 . S
C2764 C2765 1.391 . S
C2765 H2753 0.950 . S
C2765 C2761 1.393 . S
C2765 C2764 1.391 . S
C2766 H2756 0.950 . S
C2766 C2767 1.386 . S
C2766 C2768 1.391 . S
C2767 C2766 1.386 . S
C2767 C2771 1.393 . S
C2768 H2757 0.950 . S
C2768 C2766 1.391 . S
C2768 C2769 1.400 . S
C2769 C2763 1.491 . S
C2769 C2768 1.400 . S
C2769 C2770 1.398 . S
C2770 H2758 0.950 . S
C2770 C2769 1.398 . S
C2770 C2771 1.391 . S
C2771 H2759 0.950 . S
C2771 C2767 1.393 . S
C2771 C2770 1.391 . S
H2772 C2780 0.950 . S
H2773 C2785 0.950 . S
H2774 C2782 0.950 . S
H2775 C2784 0.950 . S
H2776 C2786 0.950 . S
H2777 C2788 0.950 . S
H2778 C2790 0.950 . S
H2779 C2791 0.950 . S
C2780 H2772 0.950 . S
C2780 C2781 1.386 . S
C2780 C2782 1.391 . S
C2781 C2780 1.386 . S
C2781 C2785 1.393 . S
C2782 H2774 0.950 . S
C2782 C2780 1.391 . S
C2782 C2783 1.400 . S
C2783 C2782 1.400 . S
C2783 C2784 1.398 . S
C2783 C2789 1.491 . S
C2784 H2775 0.950 . S
C2784 C2783 1.398 . S
C2784 C2785 1.391 . S
C2785 H2773 0.950 . S
C2785 C2781 1.393 . S
C2785 C2784 1.391 . S
C2786 H2776 0.950 . S
C2786 C2787 1.386 . S
C2786 C2788 1.391 . S
C2787 C2786 1.386 . S
C2787 C2791 1.393 . S
C2788 H2777 0.950 . S
C2788 C2786 1.391 . S
C2788 C2789 1.400 . S
C2789 C2783 1.491 . S
C2789 C2788 1.400 . S
C2789 C2790 1.398 . S
C2790 H2778 0.950 . S
C2790 C2789 1.398 . S
C2790 C2791 1.391 . S
C2791 H2779 0.950 . S
C2791 C2787 1.393 . S
C2791 C2790 1.391 . S
H2792 C2800 0.950 . S
H2793 C2805 0.950 . S
H2794 C2802 0.950 . S
H2795 C2804 0.950 . S
H2796 C2806 0.950 . S
H2797 C2808 0.950 . S
H2798 C2810 0.950 . S
H2799 C2811 0.950 . S
C2800 H2792 0.950 . S
C2800 C2801 1.386 . S
C2800 C2802 1.391 . S
C2801 C2800 1.386 . S
C2801 C2805 1.393 . S
C2802 H2794 0.950 . S
C2802 C2800 1.391 . S
C2802 C2803 1.400 . S
C2803 C2802 1.400 . S
C2803 C2804 1.398 . S
C2803 C2809 1.491 . S
C2804 H2795 0.950 . S
C2804 C2803 1.398 . S
C2804 C2805 1.391 . S
C2805 H2793 0.950 . S
C2805 C2801 1.393 . S
C2805 C2804 1.391 . S
C2806 H2796 0.950 . S
C2806 C2807 1.386 . S
C2806 C2808 1.391 . S
C2807 C2806 1.386 . S
C2807 C2811 1.393 . S
C2808 H2797 0.950 . S
C2808 C2806 1.391 . S
C2808 C2809 1.400 . S
C2809 C2803 1.491 . S
C2809 C2808 1.400 . S
C2809 C2810 1.398 . S
C2810 H2798 0.950 . S
C2810 C2809 1.398 . S
C2810 C2811 1.391 . S
C2811 H2799 0.950 . S
C2811 C2807 1.393 . S
C2811 C2810 1.391 . S
H2812 C2820 0.950 . S
H2813 C2825 0.950 . S
H2814 C2822 0.950 . S
H2815 C2824 0.950 . S
H2816 C2826 0.950 . S
H2817 C2828 0.950 . S
H2818 C2830 0.950 . S
H2819 C2831 0.950 . S
C2820 H2812 0.950 . S
C2820 C2821 1.386 . S
C2820 C2822 1.391 . S
C2821 C2820 1.386 . S
C2821 C2825 1.393 . S
C2822 H2814 0.950 . S
C2822 C2820 1.391 . S
C2822 C2823 1.400 . S
C2823 C2822 1.400 . S
C2823 C2824 1.398 . S
C2823 C2829 1.491 . S
C2824 H2815 0.950 . S
C2824 C2823 1.398 . S
C2824 C2825 1.391 . S
C2825 H2813 0.950 . S
C2825 C2821 1.393 . S
C2825 C2824 1.391 . S
C2826 H2816 0.950 . S
C2826 C2827 1.386 . S
C2826 C2828 1.391 . S
C2827 C2826 1.386 . S
C2827 C2831 1.393 . S
C2828 H2817 0.950 . S
C2828 C2826 1.391 . S
C2828 C2829 1.400 . S
C2829 C2823 1.491 . S
C2829 C2828 1.400 . S
C2829 C2830 1.398 . S
C2830 H2818 0.950 . S
C2830 C2829 1.398 . S
C2830 C2831 1.391 . S
C2831 H2819 0.950 . S
C2831 C2827 1.393 . S
C2831 C2830 1.391 . S
H2832 C2840 0.950 . S
H2833 C2845 0.950 . S
H2834 C2842 0.950 . S
H2835 C2844 0.950 1_455 S
H2836 C2846 0.950 . S
H2837 C2848 0.950 . S
H2838 C2850 0.950 . S
H2839 C2851 0.950 . S
C2840 H2832 0.950 . S
C2840 C2841 1.386 . S
C2840 C2842 1.391 . S
C2841 C2840 1.386 . S
C2841 C2845 1.393 . S
C2842 H2834 0.950 . S
C2842 C2840 1.391 . S
C2842 C2843 1.400 . S
C2843 C2842 1.400 . S
C2843 C2844 1.398 . S
C2843 C2849 1.491 . S
C2844 H2835 0.950 1_655 S
C2844 C2843 1.398 . S
C2844 C2845 1.391 . S
C2845 H2833 0.950 . S
C2845 C2841 1.393 . S
C2845 C2844 1.391 . S
C2846 H2836 0.950 . S
C2846 C2847 1.386 . S
C2846 C2848 1.391 . S
C2847 C2846 1.386 . S
C2847 C2851 1.393 1_455 S
C2848 H2837 0.950 . S
C2848 C2846 1.391 . S
C2848 C2849 1.400 1_455 S
C2849 C2843 1.491 . S
C2849 C2848 1.400 1_655 S
C2849 C2850 1.398 . S
C2850 H2838 0.950 . S
C2850 C2849 1.398 . S
C2850 C2851 1.391 . S
C2851 H2839 0.950 . S
C2851 C2847 1.393 1_655 S
C2851 C2850 1.391 . S
H2852 C2860 0.950 . S
H2853 C2865 0.950 . S
H2854 C2862 0.950 . S
H2855 C2864 0.966 . S
H2856 C2866 0.950 . S
H2857 C2868 0.950 . S
H2858 C2870 0.950 . S
H2859 C2871 0.950 . S
C2860 H2852 0.950 . S
C2860 C2861 1.386 . S
C2860 C2862 1.391 . S
C2861 C2860 1.386 . S
C2861 C2865 1.393 . S
C2862 H2854 0.950 . S
C2862 C2860 1.391 . S
C2862 C2863 1.400 . S
C2863 C2862 1.400 . S
C2863 C2864 1.398 . S
C2863 C2869 1.491 . S
C2864 H2855 0.966 . S
C2864 C2863 1.398 . S
C2864 C2865 1.391 . S
C2865 H2853 0.950 . S
C2865 C2861 1.393 . S
C2865 C2864 1.391 . S
C2866 H2856 0.950 . S
C2866 C2867 1.386 . S
C2866 C2868 1.391 . S
C2867 C2866 1.386 . S
C2867 C2871 1.393 1_545 S
C2868 H2857 0.950 . S
C2868 C2866 1.391 . S
C2868 C2869 1.400 1_545 S
C2869 C2863 1.491 . S
C2869 C2868 1.400 1_565 S
C2869 C2870 1.398 . S
C2870 H2858 0.950 . S
C2870 C2869 1.398 . S
C2870 C2871 1.391 . S
C2871 H2859 0.950 . S
C2871 C2867 1.393 1_565 S
C2871 C2870 1.391 . S
H2872 C2880 0.950 . S
H2873 C2885 0.950 . S
H2874 C2882 0.950 . S
H2875 C2884 0.950 . S
H2876 C2886 0.950 . S
H2877 C2888 0.950 . S
H2878 C2890 0.950 . S
H2879 C2891 0.950 . S
C2880 H2872 0.950 . S
C2880 C2881 1.386 . S
C2880 C2882 1.391 . S
C2881 C2880 1.386 . S
C2881 C2885 1.393 . S
C2882 H2874 0.950 . S
C2882 C2880 1.391 . S
C2882 C2883 1.400 . S
C2883 C2882 1.400 . S
C2883 C2884 1.398 . S
C2883 C2889 1.491 . S
C2884 H2875 0.950 . S
C2884 C2883 1.398 . S
C2884 C2885 1.391 . S
C2885 H2873 0.950 . S
C2885 C2881 1.393 . S
C2885 C2884 1.391 . S
C2886 H2876 0.950 . S
C2886 C2887 1.386 . S
C2886 C2888 1.391 . S
C2887 C2886 1.386 . S
C2887 C2891 1.393 . S
C2888 H2877 0.950 . S
C2888 C2886 1.391 . S
C2888 C2889 1.400 . S
C2889 C2883 1.491 . S
C2889 C2888 1.400 . S
C2889 C2890 1.398 . S
C2890 H2878 0.950 . S
C2890 C2889 1.398 . S
C2890 C2891 1.391 . S
C2891 H2879 0.950 . S
C2891 C2887 1.393 . S
C2891 C2890 1.391 . S
H2892 C2900 0.950 . S
H2893 C2905 0.950 . S
H2894 C2902 0.950 . S
H2895 C2904 0.950 . S
H2896 C2906 0.950 . S
H2897 C2908 0.950 . S
H2898 C2910 0.950 . S
H2899 C2911 0.950 . S
C2900 H2892 0.950 . S
C2900 C2901 1.386 . S
C2900 C2902 1.391 . S
C2901 C2900 1.386 . S
C2901 C2905 1.393 . S
C2902 H2894 0.950 . S
C2902 C2900 1.391 . S
C2902 C2903 1.400 . S
C2903 C2902 1.400 . S
C2903 C2904 1.398 . S
C2903 C2909 1.491 . S
C2904 H2895 0.950 . S
C2904 C2903 1.398 . S
C2904 C2905 1.391 . S
C2905 H2893 0.950 . S
C2905 C2901 1.393 . S
C2905 C2904 1.391 . S
C2906 H2896 0.950 . S
C2906 C2907 1.386 . S
C2906 C2908 1.391 . S
C2907 C2906 1.386 . S
C2907 C2911 1.393 . S
C2908 H2897 0.950 . S
C2908 C2906 1.391 . S
C2908 C2909 1.400 . S
C2909 C2903 1.491 . S
C2909 C2908 1.400 . S
C2909 C2910 1.398 . S
C2910 H2898 0.950 . S
C2910 C2909 1.398 . S
C2910 C2911 1.391 . S
C2911 H2899 0.950 . S
C2911 C2907 1.393 . S
C2911 C2910 1.391 . S
H2912 C2920 0.950 . S
H2913 C2925 0.950 . S
H2914 C2922 0.950 . S
H2915 C2924 0.950 . S
H2916 C2926 0.950 . S
H2917 C2928 0.950 . S
H2918 C2930 0.952 . S
H2919 C2931 0.950 . S
C2920 H2912 0.950 . S
C2920 C2921 1.386 . S
C2920 C2922 1.391 . S
C2921 C2920 1.386 . S
C2921 C2925 1.393 . S
C2922 H2914 0.950 . S
C2922 C2920 1.391 . S
C2922 C2923 1.400 . S
C2923 C2922 1.400 . S
C2923 C2924 1.398 . S
C2923 C2929 1.491 . S
C2924 H2915 0.950 . S
C2924 C2923 1.398 . S
C2924 C2925 1.391 . S
C2925 H2913 0.950 . S
C2925 C2921 1.393 . S
C2925 C2924 1.391 . S
C2926 H2916 0.950 . S
C2926 C2927 1.386 1_655 S
C2926 C2928 1.391 . S
C2927 C2926 1.386 1_455 S
C2927 C2931 1.393 . S
C2928 H2917 0.950 . S
C2928 C2926 1.391 . S
C2928 C2929 1.400 . S
C2929 C2923 1.491 . S
C2929 C2928 1.400 . S
C2929 C2930 1.398 . S
C2930 H2918 0.952 . S
C2930 C2929 1.398 . S
C2930 C2931 1.391 1_655 S
C2931 H2919 0.950 . S
C2931 C2927 1.393 . S
C2931 C2930 1.391 1_455 S
H2932 C2940 0.950 . S
H2933 C2945 0.950 . S
H2934 C2942 0.950 . S
H2935 C2944 0.950 . S
H2936 C2946 0.950 . S
H2937 C2948 0.950 1_545 S
H2938 C2950 0.950 . S
H2939 C2951 0.950 . S
C2940 H2932 0.950 . S
C2940 C2941 1.386 1_565 S
C2940 C2942 1.391 . S
C2941 C2940 1.386 1_545 S
C2941 C2945 1.393 . S
C2942 H2934 0.950 . S
C2942 C2940 1.391 . S
C2942 C2943 1.400 . S
C2943 C2942 1.400 . S
C2943 C2944 1.398 1_565 S
C2943 C2949 1.491 . S
C2944 H2935 0.950 . S
C2944 C2943 1.398 1_545 S
C2944 C2945 1.391 . S
C2945 H2933 0.950 . S
C2945 C2941 1.393 . S
C2945 C2944 1.391 . S
C2946 H2936 0.950 . S
C2946 C2947 1.386 . S
C2946 C2948 1.391 . S
C2947 C2946 1.386 . S
C2947 C2951 1.393 . S
C2948 H2937 0.950 1_565 S
C2948 C2946 1.391 . S
C2948 C2949 1.400 . S
C2949 C2943 1.491 . S
C2949 C2948 1.400 . S
C2949 C2950 1.398 . S
C2950 H2938 0.950 . S
C2950 C2949 1.398 . S
C2950 C2951 1.391 . S
C2951 H2939 0.950 . S
C2951 C2947 1.393 . S
C2951 C2950 1.391 . S
H2952 C2960 0.950 . S
H2953 C2965 0.950 . S
H2954 C2962 0.950 . S
H2955 C2964 0.950 . S
H2956 C2966 0.950 . S
H2957 C2968 0.950 . S
H2958 C2970 0.950 . S
H2959 C2971 0.950 . S
C2960 H2952 0.950 . S
C2960 C2961 1.386 . S
C2960 C2962 1.391 . S
C2961 C2960 1.386 . S
C2961 C2965 1.393 . S
C2962 H2954 0.950 . S
C2962 C2960 1.391 . S
C2962 C2963 1.400 . S
C2963 C2962 1.400 . S
C2963 C2964 1.398 . S
C2963 C2969 1.491 . S
C2964 H2955 0.950 . S
C2964 C2963 1.398 . S
C2964 C2965 1.391 . S
C2965 H2953 0.950 . S
C2965 C2961 1.393 . S
C2965 C2964 1.391 . S
C2966 H2956 0.950 . S
C2966 C2967 1.386 . S
C2966 C2968 1.391 . S
C2967 C2966 1.386 . S
C2967 C2971 1.393 . S
C2968 H2957 0.950 . S
C2968 C2966 1.391 . S
C2968 C2969 1.400 . S
C2969 C2963 1.491 . S
C2969 C2968 1.400 . S
C2969 C2970 1.398 . S
C2970 H2958 0.950 . S
C2970 C2969 1.398 . S
C2970 C2971 1.391 . S
C2971 H2959 0.950 . S
C2971 C2967 1.393 . S
C2971 C2970 1.391 . S
H2972 C2980 0.950 . S
H2973 C2985 0.950 . S
H2974 C2982 0.950 . S
H2975 C2984 0.950 . S
H2976 C2986 0.950 . S
H2977 C2988 0.950 . S
H2978 C2990 0.950 . S
H2979 C2991 0.950 . S
C2980 H2972 0.950 . S
C2980 C2981 1.386 . S
C2980 C2982 1.391 . S
C2981 C2980 1.386 . S
C2981 C2985 1.393 . S
C2982 H2974 0.950 . S
C2982 C2980 1.391 . S
C2982 C2983 1.400 . S
C2983 C2982 1.400 . S
C2983 C2984 1.398 . S
C2983 C2989 1.491 . S
C2984 H2975 0.950 . S
C2984 C2983 1.398 . S
C2984 C2985 1.391 . S
C2985 H2973 0.950 . S
C2985 C2981 1.393 . S
C2985 C2984 1.391 . S
C2986 H2976 0.950 . S
C2986 C2987 1.386 . S
C2986 C2988 1.391 . S
C2987 C2986 1.386 . S
C2987 C2991 1.393 . S
C2988 H2977 0.950 . S
C2988 C2986 1.391 . S
C2988 C2989 1.400 . S
C2989 C2983 1.491 . S
C2989 C2988 1.400 . S
C2989 C2990 1.398 . S
C2990 H2978 0.950 . S
C2990 C2989 1.398 . S
C2990 C2991 1.391 . S
C2991 H2979 0.950 . S
C2991 C2987 1.393 . S
C2991 C2990 1.391 . S
H2992 C3000 0.950 . S
H2993 C3005 0.950 . S
H2994 C3002 0.950 . S
H2995 C3004 0.950 . S
H2996 C3006 0.950 . S
H2997 C3008 0.950 . S
H2998 C3010 0.927 1_545 S
H2999 C3011 0.950 . S
C3000 H2992 0.950 . S
C3000 C3001 1.386 . S
C3000 C3002 1.391 . S
C3001 C3000 1.386 . S
C3001 C3005 1.393 1_545 S
C3002 H2994 0.950 . S
C3002 C3000 1.391 . S
C3002 C3003 1.400 1_545 S
C3003 C3002 1.400 1_565 S
C3003 C3004 1.398 . S
C3003 C3009 1.491 . S
C3004 H2995 0.950 . S
C3004 C3003 1.398 . S
C3004 C3005 1.391 . S
C3005 H2993 0.950 . S
C3005 C3001 1.393 1_565 S
C3005 C3004 1.391 . S
C3006 H2996 0.950 . S
C3006 C3007 1.386 . S
C3006 C3008 1.391 . S
C3007 C3006 1.386 . S
C3007 C3011 1.393 . S
C3008 H2997 0.950 . S
C3008 C3006 1.391 . S
C3008 C3009 1.400 . S
C3009 C3003 1.491 . S
C3009 C3008 1.400 . S
C3009 C3010 1.398 . S
C3010 H2998 0.927 1_565 S
C3010 C3009 1.398 . S
C3010 C3011 1.391 . S
C3011 H2999 0.950 . S
C3011 C3007 1.393 . S
C3011 C3010 1.391 . S
H3012 C3020 0.950 . S
H3013 C3025 0.950 . S
H3014 C3022 0.950 . S
H3015 C3024 0.950 . S
H3016 C3026 0.950 . S
H3017 C3028 0.950 . S
H3018 C3030 0.950 . S
H3019 C3031 0.950 . S
C3020 H3012 0.950 . S
C3020 C3021 1.386 . S
C3020 C3022 1.391 . S
C3021 C3020 1.386 . S
C3021 C3025 1.393 . S
C3022 H3014 0.950 . S
C3022 C3020 1.391 . S
C3022 C3023 1.400 . S
C3023 C3022 1.400 . S
C3023 C3024 1.398 . S
C3023 C3029 1.491 . S
C3024 H3015 0.950 . S
C3024 C3023 1.398 . S
C3024 C3025 1.391 . S
C3025 H3013 0.950 . S
C3025 C3021 1.393 . S
C3025 C3024 1.391 . S
C3026 H3016 0.950 . S
C3026 C3027 1.386 . S
C3026 C3028 1.391 . S
C3027 C3026 1.386 . S
C3027 C3031 1.393 . S
C3028 H3017 0.950 . S
C3028 C3026 1.391 . S
C3028 C3029 1.400 . S
C3029 C3023 1.491 . S
C3029 C3028 1.400 . S
C3029 C3030 1.398 . S
C3030 H3018 0.950 . S
C3030 C3029 1.398 . S
C3030 C3031 1.391 . S
C3031 H3019 0.950 . S
C3031 C3027 1.393 . S
C3031 C3030 1.391 . S
H3032 C3040 0.950 . S
H3033 C3045 0.950 . S
H3034 C3042 0.950 . S
H3035 C3044 0.950 . S
H3036 C3046 0.950 . S
H3037 C3048 0.950 . S
H3038 C3050 0.950 . S
H3039 C3051 0.950 . S
C3040 H3032 0.950 . S
C3040 C3041 1.386 . S
C3040 C3042 1.391 . S
C3041 C3040 1.386 . S
C3041 C3045 1.393 . S
C3042 H3034 0.950 . S
C3042 C3040 1.391 . S
C3042 C3043 1.400 . S
C3043 C3042 1.400 . S
C3043 C3044 1.398 . S
C3043 C3049 1.491 . S
C3044 H3035 0.950 . S
C3044 C3043 1.398 . S
C3044 C3045 1.391 . S
C3045 H3033 0.950 . S
C3045 C3041 1.393 . S
C3045 C3044 1.391 . S
C3046 H3036 0.950 . S
C3046 C3047 1.386 . S
C3046 C3048 1.391 . S
C3047 C3046 1.386 . S
C3047 C3051 1.393 . S
C3048 H3037 0.950 . S
C3048 C3046 1.391 . S
C3048 C3049 1.400 . S
C3049 C3043 1.491 . S
C3049 C3048 1.400 . S
C3049 C3050 1.398 . S
C3050 H3038 0.950 . S
C3050 C3049 1.398 . S
C3050 C3051 1.391 . S
C3051 H3039 0.950 . S
C3051 C3047 1.393 . S
C3051 C3050 1.391 . S
H3052 C3060 0.950 . S
H3053 C3065 0.950 . S
H3054 C3062 0.950 . S
H3055 C3064 0.950 . S
H3056 C3066 0.950 . S
H3057 C3068 0.950 . S
H3058 C3070 0.950 . S
H3059 C3071 0.950 . S
C3060 H3052 0.950 . S
C3060 C3061 1.386 . S
C3060 C3062 1.391 . S
C3061 C3060 1.386 . S
C3061 C3065 1.393 1_455 S
C3062 H3054 0.950 . S
C3062 C3060 1.391 . S
C3062 C3063 1.401 1_455 S
C3063 C3062 1.401 1_655 S
C3063 C3064 1.398 . S
C3063 C3069 1.491 . S
C3064 H3055 0.950 . S
C3064 C3063 1.398 . S
C3064 C3065 1.391 . S
C3065 H3053 0.950 . S
C3065 C3061 1.393 1_655 S
C3065 C3064 1.391 . S
C3066 H3056 0.950 . S
C3066 C3067 1.386 . S
C3066 C3068 1.391 . S
C3067 C3066 1.386 . S
C3067 C3071 1.393 . S
C3068 H3057 0.950 . S
C3068 C3066 1.391 . S
C3068 C3069 1.400 . S
C3069 C3063 1.491 . S
C3069 C3068 1.400 . S
C3069 C3070 1.398 . S
C3070 H3058 0.950 . S
C3070 C3069 1.398 . S
C3070 C3071 1.391 . S
C3071 H3059 0.950 . S
C3071 C3067 1.393 . S
C3071 C3070 1.391 . S
H3072 C3080 0.950 . S
H3073 C3085 0.950 . S
H3074 C3082 0.950 . S
H3075 C3084 0.950 . S
H3076 C3086 0.950 . S
H3077 C3088 0.950 . S
H3078 C3090 0.950 . S
H3079 C3091 0.950 . S
C3080 H3072 0.950 . S
C3080 C3081 1.386 . S
C3080 C3082 1.391 . S
C3081 C3080 1.386 . S
C3081 C3085 1.393 . S
C3082 H3074 0.950 . S
C3082 C3080 1.391 . S
C3082 C3083 1.400 . S
C3083 C3082 1.400 . S
C3083 C3084 1.398 . S
C3083 C3089 1.491 . S
C3084 H3075 0.950 . S
C3084 C3083 1.398 . S
C3084 C3085 1.391 . S
C3085 H3073 0.950 . S
C3085 C3081 1.393 . S
C3085 C3084 1.391 . S
C3086 H3076 0.950 . S
C3086 C3087 1.386 . S
C3086 C3088 1.391 . S
C3087 C3086 1.386 . S
C3087 C3091 1.393 . S
C3088 H3077 0.950 . S
C3088 C3086 1.391 . S
C3088 C3089 1.400 . S
C3089 C3083 1.491 . S
C3089 C3088 1.400 . S
C3089 C3090 1.398 . S
C3090 H3078 0.950 . S
C3090 C3089 1.398 . S
C3090 C3091 1.391 . S
C3091 H3079 0.950 . S
C3091 C3087 1.393 . S
C3091 C3090 1.391 . S
H3092 C3100 0.950 . S
H3093 C3105 0.950 . S
H3094 C3102 0.950 . S
H3095 C3104 0.950 . S
H3096 C3106 0.950 . S
H3097 C3108 0.950 1_455 S
H3098 C3110 0.950 . S
H3099 C3111 0.950 . S
C3100 H3092 0.950 . S
C3100 C3101 1.386 1_655 S
C3100 C3102 1.391 . S
C3101 C3100 1.386 1_455 S
C3101 C3105 1.393 . S
C3102 H3094 0.950 . S
C3102 C3100 1.391 . S
C3102 C3103 1.400 . S
C3103 C3102 1.400 . S
C3103 C3104 1.398 1_655 S
C3103 C3109 1.491 . S
C3104 H3095 0.950 . S
C3104 C3103 1.398 1_455 S
C3104 C3105 1.391 . S
C3105 H3093 0.950 . S
C3105 C3101 1.393 . S
C3105 C3104 1.391 . S
C3106 H3096 0.950 . S
C3106 C3107 1.386 . S
C3106 C3108 1.391 . S
C3107 C3106 1.386 . S
C3107 C3111 1.393 . S
C3108 H3097 0.950 1_655 S
C3108 C3106 1.391 . S
C3108 C3109 1.400 . S
C3109 C3103 1.491 . S
C3109 C3108 1.400 . S
C3109 C3110 1.398 . S
C3110 H3098 0.950 . S
C3110 C3109 1.398 . S
C3110 C3111 1.391 . S
C3111 H3099 0.950 . S
C3111 C3107 1.393 . S
C3111 C3110 1.391 . S
H3112 C3120 0.950 . S
H3113 C3125 0.950 . S
H3114 C3122 0.950 . S
H3115 C3124 0.950 1_545 S
H3116 C3126 0.950 . S
H3117 C3128 0.950 . S
H3118 C3130 0.950 . S
H3119 C3131 0.950 . S
C3120 H3112 0.950 . S
C3120 C3121 1.386 . S
C3120 C3122 1.391 . S
C3121 C3120 1.386 . S
C3121 C3125 1.393 . S
C3122 H3114 0.950 . S
C3122 C3120 1.391 . S
C3122 C3123 1.400 . S
C3123 C3122 1.400 . S
C3123 C3124 1.398 . S
C3123 C3129 1.491 . S
C3124 H3115 0.950 1_565 S
C3124 C3123 1.398 . S
C3124 C3125 1.391 . S
C3125 H3113 0.950 . S
C3125 C3121 1.393 . S
C3125 C3124 1.391 . S
C3126 H3116 0.950 . S
C3126 C3127 1.386 . S
C3126 C3128 1.391 . S
C3127 C3126 1.386 . S
C3127 C3131 1.393 1_545 S
C3128 H3117 0.950 . S
C3128 C3126 1.391 . S
C3128 C3129 1.400 1_545 S
C3129 C3123 1.491 . S
C3129 C3128 1.400 1_565 S
C3129 C3130 1.398 . S
C3130 H3118 0.950 . S
C3130 C3129 1.398 . S
C3130 C3131 1.391 . S
C3131 H3119 0.950 . S
C3131 C3127 1.393 1_565 S
C3131 C3130 1.391 . S
H3132 C3140 0.950 . S
H3133 C3145 0.950 . S
H3134 C3142 0.950 . S
H3135 C3144 0.950 . S
H3136 C3146 0.950 . S
H3137 C3148 0.950 . S
H3138 C3150 0.950 . S
H3139 C3151 0.950 . S
C3140 H3132 0.950 . S
C3140 C3141 1.386 . S
C3140 C3142 1.391 . S
C3141 C3140 1.386 . S
C3141 C3145 1.393 . S
C3142 H3134 0.950 . S
C3142 C3140 1.391 . S
C3142 C3143 1.400 . S
C3143 C3142 1.400 . S
C3143 C3144 1.398 . S
C3143 C3149 1.491 . S
C3144 H3135 0.950 . S
C3144 C3143 1.398 . S
C3144 C3145 1.391 . S
C3145 H3133 0.950 . S
C3145 C3141 1.393 . S
C3145 C3144 1.391 . S
C3146 H3136 0.950 . S
C3146 C3147 1.386 . S
C3146 C3148 1.391 . S
C3147 C3146 1.386 . S
C3147 C3151 1.393 . S
C3148 H3137 0.950 . S
C3148 C3146 1.391 . S
C3148 C3149 1.400 . S
C3149 C3143 1.491 . S
C3149 C3148 1.400 . S
C3149 C3150 1.398 . S
C3150 H3138 0.950 . S
C3150 C3149 1.398 . S
C3150 C3151 1.391 . S
C3151 H3139 0.950 . S
C3151 C3147 1.393 . S
C3151 C3150 1.391 . S
H3152 C3160 0.950 . S
H3153 C3165 0.950 . S
H3154 C3162 0.950 1_554 S
H3155 C3164 0.950 . S
H3156 C3166 0.950 . S
H3157 C3168 0.950 . S
H3158 C3170 0.950 . S
H3159 C3171 0.950 . S
C3160 H3152 0.950 . S
C3160 C3161 1.386 . S
C3160 C3162 1.391 . S
C3161 C3160 1.386 . S
C3161 C3165 1.393 . S
C3162 H3154 0.950 1_556 S
C3162 C3160 1.391 . S
C3162 C3163 1.400 . S
C3163 C3162 1.400 . S
C3163 C3164 1.398 . S
C3163 C3169 1.491 . S
C3164 H3155 0.950 . S
C3164 C3163 1.398 . S
C3164 C3165 1.391 . S
C3165 H3153 0.950 . S
C3165 C3161 1.393 . S
C3165 C3164 1.391 . S
C3166 H3156 0.950 . S
C3166 C3167 1.386 1_556 S
C3166 C3168 1.391 . S
C3167 C3166 1.386 1_554 S
C3167 C3171 1.393 . S
C3168 H3157 0.950 . S
C3168 C3166 1.391 . S
C3168 C3169 1.400 . S
C3169 C3163 1.491 . S
C3169 C3168 1.400 . S
C3169 C3170 1.398 1_556 S
C3170 H3158 0.950 . S
C3170 C3169 1.398 1_554 S
C3170 C3171 1.391 . S
C3171 H3159 0.950 . S
C3171 C3167 1.393 . S
C3171 C3170 1.391 . S
H3172 C3180 0.950 . S
H3173 C3185 0.950 . S
H3174 C3182 0.950 . S
H3175 C3184 0.950 . S
H3176 C3186 0.950 . S
H3177 C3188 0.950 . S
H3178 C3190 0.950 . S
H3179 C3191 0.950 . S
C3180 H3172 0.950 . S
C3180 C3181 1.386 . S
C3180 C3182 1.391 . S
C3181 C3180 1.386 . S
C3181 C3185 1.393 . S
C3182 H3174 0.950 . S
C3182 C3180 1.391 . S
C3182 C3183 1.400 . S
C3183 C3182 1.400 . S
C3183 C3184 1.398 . S
C3183 C3189 1.491 . S
C3184 H3175 0.950 . S
C3184 C3183 1.398 . S
C3184 C3185 1.391 . S
C3185 H3173 0.950 . S
C3185 C3181 1.393 . S
C3185 C3184 1.391 . S
C3186 H3176 0.950 . S
C3186 C3187 1.386 . S
C3186 C3188 1.391 . S
C3187 C3186 1.386 . S
C3187 C3191 1.393 . S
C3188 H3177 0.950 . S
C3188 C3186 1.391 . S
C3188 C3189 1.400 . S
C3189 C3183 1.491 . S
C3189 C3188 1.400 . S
C3189 C3190 1.398 . S
C3190 H3178 0.950 . S
C3190 C3189 1.398 . S
C3190 C3191 1.391 . S
C3191 H3179 0.950 . S
C3191 C3187 1.393 . S
C3191 C3190 1.391 . S
H3192 C3200 0.950 . S
H3193 C3205 0.950 . S
H3194 C3202 0.950 . S
H3195 C3204 0.950 . S
H3196 C3206 0.950 . S
H3197 C3208 0.950 . S
H3198 C3210 0.950 . S
H3199 C3211 0.950 . S
C3200 H3192 0.950 . S
C3200 C3201 1.386 . S
C3200 C3202 1.391 . S
C3201 C3200 1.386 . S
C3201 C3205 1.393 . S
C3202 H3194 0.950 . S
C3202 C3200 1.391 . S
C3202 C3203 1.400 . S
C3203 C3202 1.400 . S
C3203 C3204 1.398 . S
C3203 C3209 1.491 . S
C3204 H3195 0.950 . S
C3204 C3203 1.398 . S
C3204 C3205 1.391 . S
C3205 H3193 0.950 . S
C3205 C3201 1.393 . S
C3205 C3204 1.391 . S
C3206 H3196 0.950 . S
C3206 C3207 1.386 . S
C3206 C3208 1.391 . S
C3207 C3206 1.386 . S
C3207 C3211 1.393 . S
C3208 H3197 0.950 . S
C3208 C3206 1.391 . S
C3208 C3209 1.400 . S
C3209 C3203 1.491 . S
C3209 C3208 1.400 . S
C3209 C3210 1.398 . S
C3210 H3198 0.950 . S
C3210 C3209 1.398 . S
C3210 C3211 1.391 . S
C3211 H3199 0.950 . S
C3211 C3207 1.393 . S
C3211 C3210 1.391 . S
H3212 C3220 0.950 . S
H3213 C3225 0.950 . S
H3214 C3222 0.950 . S
H3215 C3224 0.950 . S
H3216 C3226 0.950 . S
H3217 C3228 0.950 . S
H3218 C3230 0.950 . S
H3219 C3231 0.950 . S
C3220 H3212 0.950 . S
C3220 C3221 1.386 . S
C3220 C3222 1.391 . S
C3221 C3220 1.386 . S
C3221 C3225 1.393 . S
C3222 H3214 0.950 . S
C3222 C3220 1.391 . S
C3222 C3223 1.400 . S
C3223 C3222 1.400 . S
C3223 C3224 1.398 . S
C3223 C3229 1.491 . S
C3224 H3215 0.950 . S
C3224 C3223 1.398 . S
C3224 C3225 1.391 . S
C3225 H3213 0.950 . S
C3225 C3221 1.393 . S
C3225 C3224 1.391 . S
C3226 H3216 0.950 . S
C3226 C3227 1.386 . S
C3226 C3228 1.391 . S
C3227 C3226 1.386 . S
C3227 C3231 1.393 . S
C3228 H3217 0.950 . S
C3228 C3226 1.391 . S
C3228 C3229 1.400 . S
C3229 C3223 1.491 . S
C3229 C3228 1.400 . S
C3229 C3230 1.398 . S
C3230 H3218 0.950 . S
C3230 C3229 1.398 . S
C3230 C3231 1.391 . S
C3231 H3219 0.950 . S
C3231 C3227 1.393 . S
C3231 C3230 1.391 . S
H3232 C3240 0.950 . S
H3233 C3245 0.950 . S
H3234 C3242 0.950 . S
H3235 C3244 0.950 . S
H3236 C3246 0.950 . S
H3237 C3248 0.950 . S
H3238 C3250 0.950 . S
H3239 C3251 0.950 . S
C3240 H3232 0.950 . S
C3240 C3241 1.386 . S
C3240 C3242 1.391 . S
C3241 C3240 1.386 . S
C3241 C3245 1.393 . S
C3242 H3234 0.950 . S
C3242 C3240 1.391 . S
C3242 C3243 1.400 . S
C3243 C3242 1.400 . S
C3243 C3244 1.398 . S
C3243 C3249 1.491 . S
C3244 H3235 0.950 . S
C3244 C3243 1.398 . S
C3244 C3245 1.391 . S
C3245 H3233 0.950 . S
C3245 C3241 1.393 . S
C3245 C3244 1.391 . S
C3246 H3236 0.950 . S
C3246 C3247 1.386 . S
C3246 C3248 1.391 . S
C3247 C3246 1.386 . S
C3247 C3251 1.393 . S
C3248 H3237 0.950 . S
C3248 C3246 1.391 . S
C3248 C3249 1.400 . S
C3249 C3243 1.491 . S
C3249 C3248 1.400 . S
C3249 C3250 1.398 . S
C3250 H3238 0.950 . S
C3250 C3249 1.398 . S
C3250 C3251 1.391 . S
C3251 H3239 0.950 . S
C3251 C3247 1.393 . S
C3251 C3250 1.391 . S
H3252 C3260 0.950 . S
H3253 C3265 0.950 . S
H3254 C3262 0.950 1_554 S
H3255 C3264 0.950 . S
H3256 C3266 0.950 . S
H3257 C3268 0.950 . S
H3258 C3270 0.950 . S
H3259 C3271 0.950 . S
C3260 H3252 0.950 . S
C3260 C3261 1.386 . S
C3260 C3262 1.391 . S
C3261 C3260 1.386 . S
C3261 C3265 1.393 . S
C3262 H3254 0.950 1_556 S
C3262 C3260 1.391 . S
C3262 C3263 1.400 . S
C3263 C3262 1.400 . S
C3263 C3264 1.398 . S
C3263 C3269 1.491 . S
C3264 H3255 0.950 . S
C3264 C3263 1.398 . S
C3264 C3265 1.391 . S
C3265 H3253 0.950 . S
C3265 C3261 1.393 . S
C3265 C3264 1.391 . S
C3266 H3256 0.950 . S
C3266 C3267 1.386 1_556 S
C3266 C3268 1.391 . S
C3267 C3266 1.386 1_554 S
C3267 C3271 1.393 . S
C3268 H3257 0.950 . S
C3268 C3266 1.391 . S
C3268 C3269 1.400 . S
C3269 C3263 1.491 . S
C3269 C3268 1.400 . S
C3269 C3270 1.398 1_556 S
C3270 H3258 0.950 . S
C3270 C3269 1.398 1_554 S
C3270 C3271 1.391 . S
C3271 H3259 0.950 . S
C3271 C3267 1.393 . S
C3271 C3270 1.391 . S
H3272 C3280 0.950 . S
H3273 C3285 0.950 . S
H3274 C3282 0.950 . S
H3275 C3284 0.950 1_554 S
H3276 C3286 0.950 . S
H3277 C3288 0.950 . S
H3278 C3290 0.950 . S
H3279 C3291 0.950 . S
C3280 H3272 0.950 . S
C3280 C3281 1.386 . S
C3280 C3282 1.391 . S
C3281 C3280 1.386 . S
C3281 C3285 1.393 . S
C3282 H3274 0.950 . S
C3282 C3280 1.391 . S
C3282 C3283 1.400 . S
C3283 C3282 1.400 . S
C3283 C3284 1.398 . S
C3283 C3289 1.491 . S
C3284 H3275 0.950 1_556 S
C3284 C3283 1.398 . S
C3284 C3285 1.391 . S
C3285 H3273 0.950 . S
C3285 C3281 1.393 . S
C3285 C3284 1.391 . S
C3286 H3276 0.950 . S
C3286 C3287 1.386 . S
C3286 C3288 1.391 . S
C3287 C3286 1.386 . S
C3287 C3291 1.393 1_554 S
C3288 H3277 0.950 . S
C3288 C3286 1.391 . S
C3288 C3289 1.400 1_554 S
C3289 C3283 1.491 . S
C3289 C3288 1.400 1_556 S
C3289 C3290 1.398 . S
C3290 H3278 0.950 . S
C3290 C3289 1.398 . S
C3290 C3291 1.391 . S
C3291 H3279 0.950 . S
C3291 C3287 1.393 1_556 S
C3291 C3290 1.391 . S
H3292 C3300 0.950 . S
H3293 C3305 0.950 . S
H3294 C3302 0.950 . S
H3295 C3304 0.950 . S
H3296 C3306 0.950 . S
H3297 C3308 0.950 . S
H3298 C3310 0.950 . S
H3299 C3311 0.945 1_554 S
C3300 H3292 0.950 . S
C3300 C3301 1.386 . S
C3300 C3302 1.391 . S
C3301 C3300 1.386 . S
C3301 C3305 1.393 . S
C3302 H3294 0.950 . S
C3302 C3300 1.391 . S
C3302 C3303 1.400 . S
C3303 C3302 1.400 . S
C3303 C3304 1.398 . S
C3303 C3309 1.491 . S
C3304 H3295 0.950 . S
C3304 C3303 1.398 . S
C3304 C3305 1.391 . S
C3305 H3293 0.950 . S
C3305 C3301 1.393 . S
C3305 C3304 1.391 . S
C3306 H3296 0.950 . S
C3306 C3307 1.386 . S
C3306 C3308 1.391 1_554 S
C3307 C3306 1.386 . S
C3307 C3311 1.381 1_554 S
C3308 H3297 0.950 . S
C3308 C3306 1.391 1_556 S
C3308 C3309 1.400 . S
C3309 C3303 1.491 . S
C3309 C3308 1.400 . S
C3309 C3310 1.398 . S
C3310 H3298 0.950 . S
C3310 C3309 1.398 . S
C3310 C3311 1.411 . S
C3311 H3299 0.945 1_556 S
C3311 C3307 1.381 1_556 S
C3311 C3310 1.411 . S
H3312 C3320 0.950 . S
H3313 C3325 0.950 . S
H3314 C3322 0.950 . S
H3315 C3324 0.950 . S
H3316 C3326 0.950 . S
H3317 C3328 0.950 . S
H3318 C3330 0.950 . S
H3319 C3331 0.952 . S
C3320 H3312 0.950 . S
C3320 C3321 1.386 . S
C3320 C3322 1.391 . S
C3321 C3320 1.386 . S
C3321 C3325 1.393 . S
C3322 H3314 0.950 . S
C3322 C3320 1.391 . S
C3322 C3323 1.400 . S
C3323 C3322 1.400 . S
C3323 C3324 1.398 . S
C3323 C3329 1.491 . S
C3324 H3315 0.950 . S
C3324 C3323 1.398 . S
C3324 C3325 1.391 . S
C3325 H3313 0.950 . S
C3325 C3321 1.393 . S
C3325 C3324 1.391 . S
C3326 H3316 0.950 . S
C3326 C3327 1.386 . S
C3326 C3328 1.391 1_655 S
C3327 C3326 1.386 . S
C3327 C3331 1.393 1_655 S
C3328 H3317 0.950 . S
C3328 C3326 1.391 1_455 S
C3328 C3329 1.400 . S
C3329 C3323 1.491 . S
C3329 C3328 1.400 . S
C3329 C3330 1.398 . S
C3330 H3318 0.950 . S
C3330 C3329 1.398 . S
C3330 C3331 1.391 . S
C3331 H3319 0.952 . S
C3331 C3327 1.393 1_455 S
C3331 C3330 1.391 . S
H3332 C3340 0.950 . S
H3333 C3345 0.950 . S
H3334 C3342 0.950 1_565 S
H3335 C3344 0.950 . S
H3336 C3346 0.950 . S
H3337 C3348 0.950 . S
H3338 C3350 0.950 . S
H3339 C3351 0.950 . S
C3340 H3332 0.950 . S
C3340 C3341 1.386 . S
C3340 C3342 1.391 . S
C3341 C3340 1.386 . S
C3341 C3345 1.393 . S
C3342 H3334 0.950 1_545 S
C3342 C3340 1.391 . S
C3342 C3343 1.400 . S
C3343 C3342 1.400 . S
C3343 C3344 1.398 . S
C3343 C3349 1.491 . S
C3344 H3335 0.950 . S
C3344 C3343 1.398 . S
C3344 C3345 1.391 . S
C3345 H3333 0.950 . S
C3345 C3341 1.393 . S
C3345 C3344 1.391 . S
C3346 H3336 0.950 . S
C3346 C3347 1.386 1_545 S
C3346 C3348 1.391 . S
C3347 C3346 1.386 1_565 S
C3347 C3351 1.393 . S
C3348 H3337 0.950 . S
C3348 C3346 1.391 . S
C3348 C3349 1.400 . S
C3349 C3343 1.491 . S
C3349 C3348 1.400 . S
C3349 C3350 1.398 1_545 S
C3350 H3338 0.950 . S
C3350 C3349 1.398 1_565 S
C3350 C3351 1.391 . S
C3351 H3339 0.950 . S
C3351 C3347 1.393 . S
C3351 C3350 1.391 . S
H3352 C3360 0.950 . S
H3353 C3365 0.950 . S
H3354 C3362 0.950 . S
H3355 C3364 0.950 . S
H3356 C3366 0.950 . S
H3357 C3368 0.950 . S
H3358 C3370 0.950 . S
H3359 C3371 0.950 . S
C3360 H3352 0.950 . S
C3360 C3361 1.386 . S
C3360 C3362 1.391 . S
C3361 C3360 1.386 . S
C3361 C3365 1.393 . S
C3362 H3354 0.950 . S
C3362 C3360 1.391 . S
C3362 C3363 1.400 . S
C3363 C3362 1.400 . S
C3363 C3364 1.398 . S
C3363 C3369 1.491 . S
C3364 H3355 0.950 . S
C3364 C3363 1.398 . S
C3364 C3365 1.391 . S
C3365 H3353 0.950 . S
C3365 C3361 1.393 . S
C3365 C3364 1.391 . S
C3366 H3356 0.950 . S
C3366 C3367 1.386 . S
C3366 C3368 1.391 . S
C3367 C3366 1.386 . S
C3367 C3371 1.393 . S
C3368 H3357 0.950 . S
C3368 C3366 1.391 . S
C3368 C3369 1.400 . S
C3369 C3363 1.491 . S
C3369 C3368 1.400 . S
C3369 C3370 1.398 . S
C3370 H3358 0.950 . S
C3370 C3369 1.398 . S
C3370 C3371 1.391 . S
C3371 H3359 0.950 . S
C3371 C3367 1.393 . S
C3371 C3370 1.391 . S
H3372 C3380 0.950 . S
H3373 C3385 0.950 . S
H3374 C3382 0.950 . S
H3375 C3384 0.950 . S
H3376 C3386 0.950 . S
H3377 C3388 0.950 . S
H3378 C3390 0.950 . S
H3379 C3391 0.950 . S
C3380 H3372 0.950 . S
C3380 C3381 1.386 . S
C3380 C3382 1.391 . S
C3381 C3380 1.386 . S
C3381 C3385 1.393 . S
C3382 H3374 0.950 . S
C3382 C3380 1.391 . S
C3382 C3383 1.400 . S
C3383 C3382 1.400 . S
C3383 C3384 1.398 . S
C3383 C3389 1.491 . S
C3384 H3375 0.950 . S
C3384 C3383 1.398 . S
C3384 C3385 1.391 . S
C3385 H3373 0.950 . S
C3385 C3381 1.393 . S
C3385 C3384 1.391 . S
C3386 H3376 0.950 . S
C3386 C3387 1.386 . S
C3386 C3388 1.391 . S
C3387 C3386 1.386 . S
C3387 C3391 1.393 . S
C3388 H3377 0.950 . S
C3388 C3386 1.391 . S
C3388 C3389 1.400 . S
C3389 C3383 1.491 . S
C3389 C3388 1.400 . S
C3389 C3390 1.398 . S
C3390 H3378 0.950 . S
C3390 C3389 1.398 . S
C3390 C3391 1.391 . S
C3391 H3379 0.950 . S
C3391 C3387 1.393 . S
C3391 C3390 1.391 . S
H3392 C3400 0.950 . S
H3393 C3405 0.950 . S
H3394 C3402 0.950 . S
H3395 C3404 0.950 . S
H3396 C3406 0.950 . S
H3397 C3408 0.950 . S
H3398 C3410 0.950 . S
H3399 C3411 0.950 . S
C3400 H3392 0.950 . S
C3400 C3401 1.386 1_455 S
C3400 C3402 1.391 . S
C3401 C3400 1.386 1_655 S
C3401 C3405 1.393 . S
C3402 H3394 0.950 . S
C3402 C3400 1.391 . S
C3402 C3403 1.400 . S
C3403 C3402 1.400 . S
C3403 C3404 1.398 1_455 S
C3403 C3409 1.491 . S
C3404 H3395 0.950 . S
C3404 C3403 1.398 1_655 S
C3404 C3405 1.391 . S
C3405 H3393 0.950 . S
C3405 C3401 1.393 . S
C3405 C3404 1.391 . S
C3406 H3396 0.950 . S
C3406 C3407 1.386 . S
C3406 C3408 1.391 . S
C3407 C3406 1.386 . S
C3407 C3411 1.393 . S
C3408 H3397 0.950 . S
C3408 C3406 1.391 . S
C3408 C3409 1.400 . S
C3409 C3403 1.491 . S
C3409 C3408 1.400 . S
C3409 C3410 1.398 . S
C3410 H3398 0.950 . S
C3410 C3409 1.398 . S
C3410 C3411 1.391 . S
C3411 H3399 0.950 . S
C3411 C3407 1.393 . S
C3411 C3410 1.391 . S
H3412 C3420 0.950 . S
H3413 C3425 0.950 . S
H3414 C3422 0.950 . S
H3415 C3424 0.950 . S
H3416 C3426 0.950 . S
H3417 C3428 0.950 1_565 S
H3418 C3430 0.950 . S
H3419 C3431 0.950 . S
C3420 H3412 0.950 . S
C3420 C3421 1.386 1_545 S
C3420 C3422 1.391 . S
C3421 C3420 1.386 1_565 S
C3421 C3425 1.393 . S
C3422 H3414 0.950 . S
C3422 C3420 1.391 . S
C3422 C3423 1.400 . S
C3423 C3422 1.400 . S
C3423 C3424 1.398 1_545 S
C3423 C3429 1.491 . S
C3424 H3415 0.950 . S
C3424 C3423 1.398 1_565 S
C3424 C3425 1.391 . S
C3425 H3413 0.950 . S
C3425 C3421 1.393 . S
C3425 C3424 1.391 . S
C3426 H3416 0.950 . S
C3426 C3427 1.386 . S
C3426 C3428 1.391 . S
C3427 C3426 1.386 . S
C3427 C3431 1.393 . S
C3428 H3417 0.950 1_545 S
C3428 C3426 1.391 . S
C3428 C3429 1.400 . S
C3429 C3423 1.491 . S
C3429 C3428 1.400 . S
C3429 C3430 1.398 . S
C3430 H3418 0.950 . S
C3430 C3429 1.398 . S
C3430 C3431 1.391 . S
C3431 H3419 0.950 . S
C3431 C3427 1.393 . S
C3431 C3430 1.391 . S
H3432 C3440 0.950 . S
H3433 C3445 0.950 . S
H3434 C3442 0.950 . S
H3435 C3444 0.950 . S
H3436 C3446 0.950 . S
H3437 C3448 0.950 . S
H3438 C3450 0.950 . S
H3439 C3451 0.950 . S
C3440 H3432 0.950 . S
C3440 C3441 1.386 . S
C3440 C3442 1.391 . S
C3441 C3440 1.386 . S
C3441 C3445 1.393 . S
C3442 H3434 0.950 . S
C3442 C3440 1.391 . S
C3442 C3443 1.400 . S
C3443 C3442 1.400 . S
C3443 C3444 1.398 . S
C3443 C3449 1.491 . S
C3444 H3435 0.950 . S
C3444 C3443 1.398 . S
C3444 C3445 1.391 . S
C3445 H3433 0.950 . S
C3445 C3441 1.393 . S
C3445 C3444 1.391 . S
C3446 H3436 0.950 . S
C3446 C3447 1.386 . S
C3446 C3448 1.391 . S
C3447 C3446 1.386 . S
C3447 C3451 1.393 . S
C3448 H3437 0.950 . S
C3448 C3446 1.391 . S
C3448 C3449 1.400 . S
C3449 C3443 1.491 . S
C3449 C3448 1.400 . S
C3449 C3450 1.398 . S
C3450 H3438 0.950 . S
C3450 C3449 1.398 . S
C3450 C3451 1.391 . S
C3451 H3439 0.950 . S
C3451 C3447 1.393 . S
C3451 C3450 1.391 . S
H3452 C3460 0.950 . S
H3453 C3465 0.950 . S
H3454 C3462 0.950 . S
H3455 C3464 0.950 . S
H3456 C3466 0.950 . S
H3457 C3468 0.950 . S
H3458 C3470 0.950 . S
H3459 C3471 0.950 . S
C3460 H3452 0.950 . S
C3460 C3461 1.386 . S
C3460 C3462 1.391 . S
C3461 C3460 1.386 . S
C3461 C3465 1.393 . S
C3462 H3454 0.950 . S
C3462 C3460 1.391 . S
C3462 C3463 1.400 . S
C3463 C3462 1.400 . S
C3463 C3464 1.398 . S
C3463 C3469 1.491 . S
C3464 H3455 0.950 . S
C3464 C3463 1.398 . S
C3464 C3465 1.391 . S
C3465 H3453 0.950 . S
C3465 C3461 1.393 . S
C3465 C3464 1.391 . S
C3466 H3456 0.950 . S
C3466 C3467 1.386 . S
C3466 C3468 1.391 . S
C3467 C3466 1.386 . S
C3467 C3471 1.393 . S
C3468 H3457 0.950 . S
C3468 C3466 1.391 . S
C3468 C3469 1.400 . S
C3469 C3463 1.491 . S
C3469 C3468 1.400 . S
C3469 C3470 1.398 . S
C3470 H3458 0.950 . S
C3470 C3469 1.398 . S
C3470 C3471 1.391 . S
C3471 H3459 0.950 . S
C3471 C3467 1.393 . S
C3471 C3470 1.391 . S
H3472 C3480 0.950 . S
H3473 C3485 0.950 . S
H3474 C3482 0.950 . S
H3475 C3484 0.950 . S
H3476 C3486 0.950 . S
H3477 C3488 0.950 . S
H3478 C3490 0.950 . S
H3479 C3491 0.949 . S
C3480 H3472 0.950 . S
C3480 C3481 1.386 . S
C3480 C3482 1.391 . S
C3481 C3480 1.386 . S
C3481 C3485 1.393 . S
C3482 H3474 0.950 . S
C3482 C3480 1.391 . S
C3482 C3483 1.400 . S
C3483 C3482 1.400 . S
C3483 C3484 1.398 . S
C3483 C3489 1.491 . S
C3484 H3475 0.950 . S
C3484 C3483 1.398 . S
C3484 C3485 1.391 . S
C3485 H3473 0.950 . S
C3485 C3481 1.393 . S
C3485 C3484 1.391 . S
C3486 H3476 0.950 . S
C3486 C3487 1.386 . S
C3486 C3488 1.391 1_565 S
C3487 C3486 1.386 . S
C3487 C3491 1.377 1_565 S
C3488 H3477 0.950 . S
C3488 C3486 1.391 1_545 S
C3488 C3489 1.400 . S
C3489 C3483 1.491 . S
C3489 C3488 1.400 . S
C3489 C3490 1.398 . S
C3490 H3478 0.950 . S
C3490 C3489 1.398 . S
C3490 C3491 1.410 . S
C3491 H3479 0.949 . S
C3491 C3487 1.377 1_545 S
C3491 C3490 1.410 . S
H3492 C3500 0.950 . S
H3493 C3505 0.950 . S
H3494 C3502 0.950 . S
H3495 C3504 0.950 . S
H3496 C3506 0.950 . S
H3497 C3508 0.950 . S
H3498 C3510 0.950 . S
H3499 C3511 0.950 . S
C3500 H3492 0.950 . S
C3500 C3501 1.386 . S
C3500 C3502 1.391 . S
C3501 C3500 1.386 . S
C3501 C3505 1.393 . S
C3502 H3494 0.950 . S
C3502 C3500 1.391 . S
C3502 C3503 1.400 . S
C3503 C3502 1.400 . S
C3503 C3504 1.398 . S
C3503 C3509 1.491 . S
C3504 H3495 0.950 . S
C3504 C3503 1.398 . S
C3504 C3505 1.391 . S
C3505 H3493 0.950 . S
C3505 C3501 1.393 . S
C3505 C3504 1.391 . S
C3506 H3496 0.950 . S
C3506 C3507 1.386 . S
C3506 C3508 1.391 . S
C3507 C3506 1.386 . S
C3507 C3511 1.393 . S
C3508 H3497 0.950 . S
C3508 C3506 1.391 . S
C3508 C3509 1.400 . S
C3509 C3503 1.491 . S
C3509 C3508 1.400 . S
C3509 C3510 1.398 . S
C3510 H3498 0.950 . S
C3510 C3509 1.398 . S
C3510 C3511 1.391 . S
C3511 H3499 0.950 . S
C3511 C3507 1.393 . S
C3511 C3510 1.391 . S
H3512 C3520 0.950 . S
H3513 C3525 0.950 . S
H3514 C3522 0.950 . S
H3515 C3524 0.950 . S
H3516 C3526 0.950 . S
H3517 C3528 0.950 . S
H3518 C3530 0.950 . S
H3519 C3531 0.950 . S
C3520 H3512 0.950 . S
C3520 C3521 1.386 . S
C3520 C3522 1.391 . S
C3521 C3520 1.386 . S
C3521 C3525 1.393 . S
C3522 H3514 0.950 . S
C3522 C3520 1.391 . S
C3522 C3523 1.400 . S
C3523 C3522 1.400 . S
C3523 C3524 1.398 . S
C3523 C3529 1.491 . S
C3524 H3515 0.950 . S
C3524 C3523 1.398 . S
C3524 C3525 1.391 . S
C3525 H3513 0.950 . S
C3525 C3521 1.393 . S
C3525 C3524 1.391 . S
C3526 H3516 0.950 . S
C3526 C3527 1.386 . S
C3526 C3528 1.391 . S
C3527 C3526 1.386 . S
C3527 C3531 1.393 . S
C3528 H3517 0.950 . S
C3528 C3526 1.391 . S
C3528 C3529 1.400 . S
C3529 C3523 1.491 . S
C3529 C3528 1.400 . S
C3529 C3530 1.398 . S
C3530 H3518 0.950 . S
C3530 C3529 1.398 . S
C3530 C3531 1.391 . S
C3531 H3519 0.950 . S
C3531 C3527 1.393 . S
C3531 C3530 1.391 . S
H3532 C3540 0.950 . S
H3533 C3545 0.950 . S
H3534 C3542 0.950 1_655 S
H3535 C3544 0.950 . S
H3536 C3546 0.950 . S
H3537 C3548 0.950 . S
H3538 C3550 0.950 . S
H3539 C3551 0.950 . S
C3540 H3532 0.950 . S
C3540 C3541 1.386 . S
C3540 C3542 1.391 . S
C3541 C3540 1.386 . S
C3541 C3545 1.393 . S
C3542 H3534 0.950 1_455 S
C3542 C3540 1.391 . S
C3542 C3543 1.400 . S
C3543 C3542 1.400 . S
C3543 C3544 1.398 . S
C3543 C3549 1.491 . S
C3544 H3535 0.950 . S
C3544 C3543 1.398 . S
C3544 C3545 1.391 . S
C3545 H3533 0.950 . S
C3545 C3541 1.393 . S
C3545 C3544 1.391 . S
C3546 H3536 0.950 . S
C3546 C3547 1.386 1_455 S
C3546 C3548 1.391 . S
C3547 C3546 1.386 1_655 S
C3547 C3551 1.393 . S
C3548 H3537 0.950 . S
C3548 C3546 1.391 . S
C3548 C3549 1.400 . S
C3549 C3543 1.491 . S
C3549 C3548 1.400 . S
C3549 C3550 1.398 1_455 S
C3550 H3538 0.950 . S
C3550 C3549 1.398 1_655 S
C3550 C3551 1.391 . S
C3551 H3539 0.950 . S
C3551 C3547 1.393 . S
C3551 C3550 1.391 . S
H3552 C3560 0.950 . S
H3553 C3565 0.950 . S
H3554 C3562 0.950 . S
H3555 C3564 0.950 . S
H3556 C3566 0.950 . S
H3557 C3568 0.950 . S
H3558 C3570 0.950 . S
H3559 C3571 0.950 . S
C3560 H3552 0.950 . S
C3560 C3561 1.386 . S
C3560 C3562 1.391 . S
C3561 C3560 1.386 . S
C3561 C3565 1.393 . S
C3562 H3554 0.950 . S
C3562 C3560 1.391 . S
C3562 C3563 1.400 . S
C3563 C3562 1.400 . S
C3563 C3564 1.398 . S
C3563 C3569 1.491 . S
C3564 H3555 0.950 . S
C3564 C3563 1.398 . S
C3564 C3565 1.391 . S
C3565 H3553 0.950 . S
C3565 C3561 1.393 . S
C3565 C3564 1.391 . S
C3566 H3556 0.950 . S
C3566 C3567 1.386 . S
C3566 C3568 1.391 . S
C3567 C3566 1.386 . S
C3567 C3571 1.393 . S
C3568 H3557 0.950 . S
C3568 C3566 1.391 . S
C3568 C3569 1.400 . S
C3569 C3563 1.491 . S
C3569 C3568 1.400 . S
C3569 C3570 1.398 . S
C3570 H3558 0.950 . S
C3570 C3569 1.398 . S
C3570 C3571 1.391 . S
C3571 H3559 0.950 . S
C3571 C3567 1.393 . S
C3571 C3570 1.391 . S
H3572 C3580 0.950 . S
H3573 C3585 0.950 . S
H3574 C3582 0.950 . S
H3575 C3584 0.950 . S
H3576 C3586 0.950 . S
H3577 C3588 0.950 . S
H3578 C3590 0.950 . S
H3579 C3591 0.950 . S
C3580 H3572 0.950 . S
C3580 C3581 1.386 . S
C3580 C3582 1.391 . S
C3581 C3580 1.386 . S
C3581 C3585 1.393 . S
C3582 H3574 0.950 . S
C3582 C3580 1.391 . S
C3582 C3583 1.400 . S
C3583 C3582 1.400 . S
C3583 C3584 1.398 . S
C3583 C3589 1.491 . S
C3584 H3575 0.950 . S
C3584 C3583 1.398 . S
C3584 C3585 1.391 . S
C3585 H3573 0.950 . S
C3585 C3581 1.393 . S
C3585 C3584 1.391 . S
C3586 H3576 0.950 . S
C3586 C3587 1.386 . S
C3586 C3588 1.391 1_655 S
C3587 C3586 1.386 . S
C3587 C3591 1.393 1_655 S
C3588 H3577 0.950 . S
C3588 C3586 1.391 1_455 S
C3588 C3589 1.400 . S
C3589 C3583 1.491 . S
C3589 C3588 1.400 . S
C3589 C3590 1.398 . S
C3590 H3578 0.950 . S
C3590 C3589 1.398 . S
C3590 C3591 1.391 . S
C3591 H3579 0.950 . S
C3591 C3587 1.393 1_455 S
C3591 C3590 1.391 . S
H3592 C3600 0.950 . S
H3593 C3605 0.950 . S
H3594 C3602 0.950 . S
H3595 C3604 0.950 . S
H3596 C3606 0.950 . S
H3597 C3608 0.950 1_565 S
H3598 C3610 0.950 . S
H3599 C3611 0.950 . S
C3600 H3592 0.950 . S
C3600 C3601 1.386 1_545 S
C3600 C3602 1.391 . S
C3601 C3600 1.386 1_565 S
C3601 C3605 1.393 . S
C3602 H3594 0.950 . S
C3602 C3600 1.391 . S
C3602 C3603 1.400 . S
C3603 C3602 1.400 . S
C3603 C3604 1.398 1_545 S
C3603 C3609 1.491 . S
C3604 H3595 0.950 . S
C3604 C3603 1.398 1_565 S
C3604 C3605 1.391 . S
C3605 H3593 0.950 . S
C3605 C3601 1.393 . S
C3605 C3604 1.391 . S
C3606 H3596 0.950 . S
C3606 C3607 1.386 . S
C3606 C3608 1.391 . S
C3607 C3606 1.386 . S
C3607 C3611 1.393 . S
C3608 H3597 0.950 1_545 S
C3608 C3606 1.391 . S
C3608 C3609 1.400 . S
C3609 C3603 1.491 . S
C3609 C3608 1.400 . S
C3609 C3610 1.398 . S
C3610 H3598 0.950 . S
C3610 C3609 1.398 . S
C3610 C3611 1.391 . S
C3611 H3599 0.950 . S
C3611 C3607 1.393 . S
C3611 C3610 1.391 . S
H3612 C3620 0.950 . S
H3613 C3625 0.950 . S
H3614 C3622 0.950 . S
H3615 C3624 0.950 . S
H3616 C3626 0.950 . S
H3617 C3628 0.950 . S
H3618 C3630 0.950 . S
H3619 C3631 0.950 . S
C3620 H3612 0.950 . S
C3620 C3621 1.386 . S
C3620 C3622 1.391 . S
C3621 C3620 1.386 . S
C3621 C3625 1.393 . S
C3622 H3614 0.950 . S
C3622 C3620 1.391 . S
C3622 C3623 1.400 . S
C3623 C3622 1.400 . S
C3623 C3624 1.398 . S
C3623 C3629 1.491 . S
C3624 H3615 0.950 . S
C3624 C3623 1.398 . S
C3624 C3625 1.391 . S
C3625 H3613 0.950 . S
C3625 C3621 1.393 . S
C3625 C3624 1.391 . S
C3626 H3616 0.950 . S
C3626 C3627 1.386 . S
C3626 C3628 1.391 . S
C3627 C3626 1.386 . S
C3627 C3631 1.393 . S
C3628 H3617 0.950 . S
C3628 C3626 1.391 . S
C3628 C3629 1.400 . S
C3629 C3623 1.491 . S
C3629 C3628 1.400 . S
C3629 C3630 1.398 . S
C3630 H3618 0.950 . S
C3630 C3629 1.398 . S
C3630 C3631 1.391 . S
C3631 H3619 0.950 . S
C3631 C3627 1.393 . S
C3631 C3630 1.391 . S
H3632 C3640 0.950 . S
H3633 C3645 0.950 . S
H3634 C3642 0.950 . S
H3635 C3644 0.950 . S
H3636 C3646 0.950 . S
H3637 C3648 0.950 . S
H3638 C3650 0.950 . S
H3639 C3651 0.950 . S
C3640 H3632 0.950 . S
C3640 C3641 1.386 . S
C3640 C3642 1.391 . S
C3641 C3640 1.386 . S
C3641 C3645 1.393 1_556 S
C3642 H3634 0.950 . S
C3642 C3640 1.391 . S
C3642 C3643 1.400 1_556 S
C3643 C3642 1.400 1_554 S
C3643 C3644 1.398 . S
C3643 C3649 1.491 . S
C3644 H3635 0.950 . S
C3644 C3643 1.398 . S
C3644 C3645 1.391 . S
C3645 H3633 0.950 . S
C3645 C3641 1.393 1_554 S
C3645 C3644 1.391 . S
C3646 H3636 0.950 . S
C3646 C3647 1.386 . S
C3646 C3648 1.391 . S
C3647 C3646 1.386 . S
C3647 C3651 1.393 . S
C3648 H3637 0.950 . S
C3648 C3646 1.391 . S
C3648 C3649 1.400 . S
C3649 C3643 1.491 . S
C3649 C3648 1.400 . S
C3649 C3650 1.398 . S
C3650 H3638 0.950 . S
C3650 C3649 1.398 . S
C3650 C3651 1.391 . S
C3651 H3639 0.950 . S
C3651 C3647 1.393 . S
C3651 C3650 1.391 . S
H3652 C3660 0.950 . S
H3653 C3665 0.950 . S
H3654 C3662 0.950 . S
H3655 C3664 0.950 . S
H3656 C3666 0.950 . S
H3657 C3668 0.950 . S
H3658 C3670 0.950 . S
H3659 C3671 0.950 . S
C3660 H3652 0.950 . S
C3660 C3661 1.386 . S
C3660 C3662 1.391 . S
C3661 C3660 1.386 . S
C3661 C3665 1.393 . S
C3662 H3654 0.950 . S
C3662 C3660 1.391 . S
C3662 C3663 1.400 . S
C3663 C3662 1.400 . S
C3663 C3664 1.398 . S
C3663 C3669 1.491 . S
C3664 H3655 0.950 . S
C3664 C3663 1.398 . S
C3664 C3665 1.391 . S
C3665 H3653 0.950 . S
C3665 C3661 1.393 . S
C3665 C3664 1.391 . S
C3666 H3656 0.950 . S
C3666 C3667 1.386 . S
C3666 C3668 1.391 . S
C3667 C3666 1.386 . S
C3667 C3671 1.393 . S
C3668 H3657 0.950 . S
C3668 C3666 1.391 . S
C3668 C3669 1.400 . S
C3669 C3663 1.491 . S
C3669 C3668 1.400 . S
C3669 C3670 1.398 . S
C3670 H3658 0.950 . S
C3670 C3669 1.398 . S
C3670 C3671 1.391 . S
C3671 H3659 0.950 . S
C3671 C3667 1.393 . S
C3671 C3670 1.391 . S
H3672 C3680 0.950 . S
H3673 C3685 0.950 . S
H3674 C3682 0.950 . S
H3675 C3684 0.950 . S
H3676 C3686 0.950 . S
H3677 C3688 0.950 . S
H3678 C3690 0.950 . S
H3679 C3691 0.950 . S
C3680 H3672 0.950 . S
C3680 C3681 1.386 . S
C3680 C3682 1.391 . S
C3681 C3680 1.386 . S
C3681 C3685 1.393 . S
C3682 H3674 0.950 . S
C3682 C3680 1.391 . S
C3682 C3683 1.400 . S
C3683 C3682 1.400 . S
C3683 C3684 1.398 . S
C3683 C3689 1.491 . S
C3684 H3675 0.950 . S
C3684 C3683 1.398 . S
C3684 C3685 1.391 . S
C3685 H3673 0.950 . S
C3685 C3681 1.393 . S
C3685 C3684 1.391 . S
C3686 H3676 0.950 . S
C3686 C3687 1.386 . S
C3686 C3688 1.391 . S
C3687 C3686 1.386 . S
C3687 C3691 1.393 . S
C3688 H3677 0.950 . S
C3688 C3686 1.391 . S
C3688 C3689 1.400 . S
C3689 C3683 1.491 . S
C3689 C3688 1.400 . S
C3689 C3690 1.398 . S
C3690 H3678 0.950 . S
C3690 C3689 1.398 . S
C3690 C3691 1.391 . S
C3691 H3679 0.950 . S
C3691 C3687 1.393 . S
C3691 C3690 1.391 . S
H3692 C3700 0.950 . S
H3693 C3705 0.950 . S
H3694 C3702 0.950 . S
H3695 C3704 0.950 . S
H3696 C3706 0.950 . S
H3697 C3708 0.950 . S
H3698 C3710 0.950 . S
H3699 C3711 0.950 . S
C3700 H3692 0.950 . S
C3700 C3701 1.386 . S
C3700 C3702 1.391 . S
C3701 C3700 1.386 . S
C3701 C3705 1.393 . S
C3702 H3694 0.950 . S
C3702 C3700 1.391 . S
C3702 C3703 1.400 . S
C3703 C3702 1.400 . S
C3703 C3704 1.398 . S
C3703 C3709 1.491 . S
C3704 H3695 0.950 . S
C3704 C3703 1.398 . S
C3704 C3705 1.391 . S
C3705 H3693 0.950 . S
C3705 C3701 1.393 . S
C3705 C3704 1.391 . S
C3706 H3696 0.950 . S
C3706 C3707 1.386 . S
C3706 C3708 1.391 . S
C3707 C3706 1.386 . S
C3707 C3711 1.393 . S
C3708 H3697 0.950 . S
C3708 C3706 1.391 . S
C3708 C3709 1.400 . S
C3709 C3703 1.491 . S
C3709 C3708 1.400 . S
C3709 C3710 1.398 . S
C3710 H3698 0.950 . S
C3710 C3709 1.398 . S
C3710 C3711 1.391 . S
C3711 H3699 0.950 . S
C3711 C3707 1.393 . S
C3711 C3710 1.391 . S
H3712 C3720 0.950 . S
H3713 C3725 0.950 . S
H3714 C3722 0.950 . S
H3715 C3724 0.950 . S
H3716 C3726 0.950 . S
H3717 C3728 0.950 . S
H3718 C3730 0.950 . S
H3719 C3731 0.950 . S
C3720 H3712 0.950 . S
C3720 C3721 1.386 . S
C3720 C3722 1.391 . S
C3721 C3720 1.386 . S
C3721 C3725 1.393 . S
C3722 H3714 0.950 . S
C3722 C3720 1.391 . S
C3722 C3723 1.400 . S
C3723 C3722 1.400 . S
C3723 C3724 1.398 . S
C3723 C3729 1.491 . S
C3724 H3715 0.950 . S
C3724 C3723 1.398 . S
C3724 C3725 1.391 . S
C3725 H3713 0.950 . S
C3725 C3721 1.393 . S
C3725 C3724 1.391 . S
C3726 H3716 0.950 . S
C3726 C3727 1.386 . S
C3726 C3728 1.391 . S
C3727 C3726 1.386 . S
C3727 C3731 1.393 . S
C3728 H3717 0.950 . S
C3728 C3726 1.391 . S
C3728 C3729 1.400 . S
C3729 C3723 1.491 . S
C3729 C3728 1.400 . S
C3729 C3730 1.398 . S
C3730 H3718 0.950 . S
C3730 C3729 1.398 . S
C3730 C3731 1.391 . S
C3731 H3719 0.950 . S
C3731 C3727 1.393 . S
C3731 C3730 1.391 . S
H3732 C3740 0.950 . S
H3733 C3745 0.950 . S
H3734 C3742 0.950 . S
H3735 C3744 0.950 . S
H3736 C3746 0.950 . S
H3737 C3748 0.950 . S
H3738 C3750 0.970 . S
H3739 C3751 0.950 . S
C3740 H3732 0.950 . S
C3740 C3741 1.386 . S
C3740 C3742 1.391 . S
C3741 C3740 1.386 . S
C3741 C3745 1.393 1_556 S
C3742 H3734 0.950 . S
C3742 C3740 1.391 . S
C3742 C3743 1.400 1_556 S
C3743 C3742 1.400 1_554 S
C3743 C3744 1.398 . S
C3743 C3749 1.491 . S
C3744 H3735 0.950 . S
C3744 C3743 1.398 . S
C3744 C3745 1.391 . S
C3745 H3733 0.950 . S
C3745 C3741 1.393 1_554 S
C3745 C3744 1.391 . S
C3746 H3736 0.950 . S
C3746 C3747 1.386 . S
C3746 C3748 1.391 . S
C3747 C3746 1.386 . S
C3747 C3751 1.393 . S
C3748 H3737 0.950 . S
C3748 C3746 1.391 . S
C3748 C3749 1.400 . S
C3749 C3743 1.491 . S
C3749 C3748 1.400 . S
C3749 C3750 1.398 . S
C3750 H3738 0.970 . S
C3750 C3749 1.398 . S
C3750 C3751 1.391 . S
C3751 H3739 0.950 . S
C3751 C3747 1.393 . S
C3751 C3750 1.391 . S
H3752 C3760 0.950 . S
H3753 C3765 0.950 . S
H3754 C3762 0.950 . S
H3755 C3764 0.950 . S
H3756 C3766 0.950 . S
H3757 C3768 0.950 . S
H3758 C3770 0.950 1_556 S
H3759 C3771 0.950 . S
C3760 H3752 0.950 . S
C3760 C3761 1.386 . S
C3760 C3762 1.391 . S
C3761 C3760 1.386 . S
C3761 C3765 1.393 1_556 S
C3762 H3754 0.950 . S
C3762 C3760 1.391 . S
C3762 C3763 1.400 1_556 S
C3763 C3762 1.400 1_554 S
C3763 C3764 1.398 . S
C3763 C3769 1.491 . S
C3764 H3755 0.950 . S
C3764 C3763 1.398 . S
C3764 C3765 1.391 . S
C3765 H3753 0.950 . S
C3765 C3761 1.393 1_554 S
C3765 C3764 1.391 . S
C3766 H3756 0.950 . S
C3766 C3767 1.386 . S
C3766 C3768 1.391 . S
C3767 C3766 1.386 . S
C3767 C3771 1.393 . S
C3768 H3757 0.950 . S
C3768 C3766 1.391 . S
C3768 C3769 1.400 . S
C3769 C3763 1.491 . S
C3769 C3768 1.400 . S
C3769 C3770 1.398 . S
C3770 H3758 0.950 1_554 S
C3770 C3769 1.398 . S
C3770 C3771 1.391 . S
C3771 H3759 0.950 . S
C3771 C3767 1.393 . S
C3771 C3770 1.391 . S
H3772 C3780 0.950 . S
H3773 C3785 0.950 . S
H3774 C3782 0.950 . S
H3775 C3784 0.950 . S
H3776 C3786 0.950 . S
H3777 C3788 0.950 . S
H3778 C3790 0.961 . S
H3779 C3791 0.950 . S
C3780 H3772 0.950 . S
C3780 C3781 1.386 . S
C3780 C3782 1.391 . S
C3781 C3780 1.386 . S
C3781 C3785 1.393 . S
C3782 H3774 0.950 . S
C3782 C3780 1.391 . S
C3782 C3783 1.400 . S
C3783 C3782 1.400 . S
C3783 C3784 1.398 . S
C3783 C3789 1.491 . S
C3784 H3775 0.950 . S
C3784 C3783 1.398 . S
C3784 C3785 1.391 . S
C3785 H3773 0.950 . S
C3785 C3781 1.393 . S
C3785 C3784 1.391 . S
C3786 H3776 0.950 . S
C3786 C3787 1.386 1_554 S
C3786 C3788 1.391 . S
C3787 C3786 1.386 1_556 S
C3787 C3791 1.393 . S
C3788 H3777 0.950 . S
C3788 C3786 1.391 . S
C3788 C3789 1.400 . S
C3789 C3783 1.491 . S
C3789 C3788 1.400 . S
C3789 C3790 1.372 1_554 S
C3790 H3778 0.961 . S
C3790 C3789 1.372 1_556 S
C3790 C3791 1.410 . S
C3791 H3779 0.950 . S
C3791 C3787 1.393 . S
C3791 C3790 1.410 . S
H3792 C3800 0.950 . S
H3793 C3805 0.950 . S
H3794 C3802 0.950 . S
H3795 C3804 0.950 . S
H3796 C3806 0.950 . S
H3797 C3808 0.950 . S
H3798 C3810 0.950 . S
H3799 C3811 0.950 . S
C3800 H3792 0.950 . S
C3800 C3801 1.386 . S
C3800 C3802 1.391 . S
C3801 C3800 1.386 . S
C3801 C3805 1.393 . S
C3802 H3794 0.950 . S
C3802 C3800 1.391 . S
C3802 C3803 1.400 . S
C3803 C3802 1.400 . S
C3803 C3804 1.398 . S
C3803 C3809 1.491 . S
C3804 H3795 0.950 . S
C3804 C3803 1.398 . S
C3804 C3805 1.391 . S
C3805 H3793 0.950 . S
C3805 C3801 1.393 . S
C3805 C3804 1.391 . S
C3806 H3796 0.950 . S
C3806 C3807 1.386 . S
C3806 C3808 1.391 . S
C3807 C3806 1.386 . S
C3807 C3811 1.393 . S
C3808 H3797 0.950 . S
C3808 C3806 1.391 . S
C3808 C3809 1.400 . S
C3809 C3803 1.491 . S
C3809 C3808 1.400 . S
C3809 C3810 1.398 . S
C3810 H3798 0.950 . S
C3810 C3809 1.398 . S
C3810 C3811 1.391 . S
C3811 H3799 0.950 . S
C3811 C3807 1.393 . S
C3811 C3810 1.391 . S
H3812 C3820 0.950 . S
H3813 C3825 0.950 . S
H3814 C3822 0.950 . S
H3815 C3824 0.950 . S
H3816 C3826 0.950 . S
H3817 C3828 0.950 . S
H3818 C3830 0.950 . S
H3819 C3831 0.950 . S
C3820 H3812 0.950 . S
C3820 C3821 1.386 . S
C3820 C3822 1.391 . S
C3821 C3820 1.386 . S
C3821 C3825 1.393 . S
C3822 H3814 0.950 . S
C3822 C3820 1.391 . S
C3822 C3823 1.400 . S
C3823 C3822 1.400 . S
C3823 C3824 1.398 . S
C3823 C3829 1.491 . S
C3824 H3815 0.950 . S
C3824 C3823 1.398 . S
C3824 C3825 1.391 . S
C3825 H3813 0.950 . S
C3825 C3821 1.393 . S
C3825 C3824 1.391 . S
C3826 H3816 0.950 . S
C3826 C3827 1.386 . S
C3826 C3828 1.391 . S
C3827 C3826 1.386 . S
C3827 C3831 1.393 . S
C3828 H3817 0.950 . S
C3828 C3826 1.391 . S
C3828 C3829 1.400 . S
C3829 C3823 1.491 . S
C3829 C3828 1.400 . S
C3829 C3830 1.398 . S
C3830 H3818 0.950 . S
C3830 C3829 1.398 . S
C3830 C3831 1.391 . S
C3831 H3819 0.950 . S
C3831 C3827 1.393 . S
C3831 C3830 1.391 . S
H3832 C3840 0.950 . S
H3833 C3845 0.950 . S
H3834 C3842 0.950 . S
H3835 C3844 0.950 . S
H3836 C3846 0.950 . S
H3837 C3848 0.950 . S
H3838 C3850 0.950 . S
H3839 C3851 0.950 . S
C3840 H3832 0.950 . S
C3840 C3841 1.386 . S
C3840 C3842 1.391 . S
C3841 C3840 1.386 . S
C3841 C3845 1.393 . S
C3842 H3834 0.950 . S
C3842 C3840 1.391 . S
C3842 C3843 1.400 . S
C3843 C3842 1.400 . S
C3843 C3844 1.398 . S
C3843 C3849 1.491 . S
C3844 H3835 0.950 . S
C3844 C3843 1.398 . S
C3844 C3845 1.391 . S
C3845 H3833 0.950 . S
C3845 C3841 1.393 . S
C3845 C3844 1.391 . S
C3846 H3836 0.950 . S
C3846 C3847 1.386 . S
C3846 C3848 1.391 . S
C3847 C3846 1.386 . S
C3847 C3851 1.393 . S
C3848 H3837 0.950 . S
C3848 C3846 1.391 . S
C3848 C3849 1.400 . S
C3849 C3843 1.491 . S
C3849 C3848 1.400 . S
C3849 C3850 1.398 . S
C3850 H3838 0.950 . S
C3850 C3849 1.398 . S
C3850 C3851 1.391 . S
C3851 H3839 0.950 . S
C3851 C3847 1.393 . S
C3851 C3850 1.391 . S
H3852 C3860 0.950 . S
H3853 C3865 0.950 . S
H3854 C3862 0.950 . S
H3855 C3864 0.950 . S
H3856 C3866 0.950 . S
H3857 C3868 0.950 . S
H3858 C3870 0.950 . S
H3859 C3871 0.950 . S
C3860 H3852 0.950 . S
C3860 C3861 1.386 . S
C3860 C3862 1.391 . S
C3861 C3860 1.386 . S
C3861 C3865 1.393 . S
C3862 H3854 0.950 . S
C3862 C3860 1.391 . S
C3862 C3863 1.400 . S
C3863 C3862 1.400 . S
C3863 C3864 1.398 . S
C3863 C3869 1.491 . S
C3864 H3855 0.950 . S
C3864 C3863 1.398 . S
C3864 C3865 1.391 . S
C3865 H3853 0.950 . S
C3865 C3861 1.393 . S
C3865 C3864 1.391 . S
C3866 H3856 0.950 . S
C3866 C3867 1.386 . S
C3866 C3868 1.391 . S
C3867 C3866 1.386 . S
C3867 C3871 1.393 . S
C3868 H3857 0.950 . S
C3868 C3866 1.391 . S
C3868 C3869 1.400 . S
C3869 C3863 1.491 . S
C3869 C3868 1.400 . S
C3869 C3870 1.398 . S
C3870 H3858 0.950 . S
C3870 C3869 1.398 . S
C3870 C3871 1.391 . S
C3871 H3859 0.950 . S
C3871 C3867 1.393 . S
C3871 C3870 1.391 . S
H3872 C3880 0.950 . S
H3873 C3885 0.950 . S
H3874 C3882 0.950 . S
H3875 C3884 0.950 . S
H3876 C3886 0.950 . S
H3877 C3888 0.950 . S
H3878 C3890 0.950 . S
H3879 C3891 0.950 . S
C3880 H3872 0.950 . S
C3880 C3881 1.386 . S
C3880 C3882 1.391 . S
C3881 C3880 1.386 . S
C3881 C3885 1.393 . S
C3882 H3874 0.950 . S
C3882 C3880 1.391 . S
C3882 C3883 1.400 . S
C3883 C3882 1.400 . S
C3883 C3884 1.398 . S
C3883 C3889 1.491 . S
C3884 H3875 0.950 . S
C3884 C3883 1.398 . S
C3884 C3885 1.391 . S
C3885 H3873 0.950 . S
C3885 C3881 1.393 . S
C3885 C3884 1.391 . S
C3886 H3876 0.950 . S
C3886 C3887 1.386 . S
C3886 C3888 1.391 . S
C3887 C3886 1.386 . S
C3887 C3891 1.393 . S
C3888 H3877 0.950 . S
C3888 C3886 1.391 . S
C3888 C3889 1.400 . S
C3889 C3883 1.491 . S
C3889 C3888 1.400 . S
C3889 C3890 1.398 . S
C3890 H3878 0.950 . S
C3890 C3889 1.398 . S
C3890 C3891 1.391 . S
C3891 H3879 0.950 . S
C3891 C3887 1.393 . S
C3891 C3890 1.391 . S
H3892 C3900 0.950 . S
H3893 C3905 0.950 . S
H3894 C3902 0.950 . S
H3895 C3904 0.950 . S
H3896 C3906 0.950 . S
H3897 C3908 0.950 . S
H3898 C3910 0.950 . S
H3899 C3911 0.950 . S
C3900 H3892 0.950 . S
C3900 C3901 1.386 . S
C3900 C3902 1.391 . S
C3901 C3900 1.386 . S
C3901 C3905 1.393 . S
C3902 H3894 0.950 . S
C3902 C3900 1.391 . S
C3902 C3903 1.400 . S
C3903 C3902 1.400 . S
C3903 C3904 1.398 . S
C3903 C3909 1.491 . S
C3904 H3895 0.950 . S
C3904 C3903 1.398 . S
C3904 C3905 1.391 . S
C3905 H3893 0.950 . S
C3905 C3901 1.393 . S
C3905 C3904 1.391 . S
C3906 H3896 0.950 . S
C3906 C3907 1.386 . S
C3906 C3908 1.391 . S
C3907 C3906 1.386 . S
C3907 C3911 1.393 . S
C3908 H3897 0.950 . S
C3908 C3906 1.391 . S
C3908 C3909 1.400 . S
C3909 C3903 1.491 . S
C3909 C3908 1.400 . S
C3909 C3910 1.398 . S
C3910 H3898 0.950 . S
C3910 C3909 1.398 . S
C3910 C3911 1.391 . S
C3911 H3899 0.950 . S
C3911 C3907 1.393 . S
C3911 C3910 1.391 . S
H3912 C3920 0.950 . S
H3913 C3925 0.950 . S
H3914 C3922 0.950 . S
H3915 C3924 0.950 . S
H3916 C3926 0.950 . S
H3917 C3928 0.950 . S
H3918 C3930 0.950 . S
H3919 C3931 0.950 . S
C3920 H3912 0.950 . S
C3920 C3921 1.386 . S
C3920 C3922 1.391 . S
C3921 C3920 1.386 . S
C3921 C3925 1.393 . S
C3922 H3914 0.950 . S
C3922 C3920 1.391 . S
C3922 C3923 1.400 . S
C3923 C3922 1.400 . S
C3923 C3924 1.398 . S
C3923 C3929 1.491 . S
C3924 H3915 0.950 . S
C3924 C3923 1.398 . S
C3924 C3925 1.391 . S
C3925 H3913 0.950 . S
C3925 C3921 1.393 . S
C3925 C3924 1.391 . S
C3926 H3916 0.950 . S
C3926 C3927 1.386 . S
C3926 C3928 1.391 . S
C3927 C3926 1.386 . S
C3927 C3931 1.393 . S
C3928 H3917 0.950 . S
C3928 C3926 1.391 . S
C3928 C3929 1.400 . S
C3929 C3923 1.491 . S
C3929 C3928 1.400 . S
C3929 C3930 1.398 . S
C3930 H3918 0.950 . S
C3930 C3929 1.398 . S
C3930 C3931 1.391 . S
C3931 H3919 0.950 . S
C3931 C3927 1.393 . S
C3931 C3930 1.391 . S
H3932 C3940 0.950 . S
H3933 C3945 0.950 . S
H3934 C3942 0.950 . S
H3935 C3944 0.950 . S
H3936 C3946 0.950 . S
H3937 C3948 0.950 . S
H3938 C3950 0.950 . S
H3939 C3951 0.950 . S
C3940 H3932 0.950 . S
C3940 C3941 1.386 . S
C3940 C3942 1.391 . S
C3941 C3940 1.386 . S
C3941 C3945 1.393 . S
C3942 H3934 0.950 . S
C3942 C3940 1.391 . S
C3942 C3943 1.400 . S
C3943 C3942 1.400 . S
C3943 C3944 1.398 . S
C3943 C3949 1.491 . S
C3944 H3935 0.950 . S
C3944 C3943 1.398 . S
C3944 C3945 1.391 . S
C3945 H3933 0.950 . S
C3945 C3941 1.393 . S
C3945 C3944 1.391 . S
C3946 H3936 0.950 . S
C3946 C3947 1.386 . S
C3946 C3948 1.391 . S
C3947 C3946 1.386 . S
C3947 C3951 1.393 . S
C3948 H3937 0.950 . S
C3948 C3946 1.391 . S
C3948 C3949 1.400 . S
C3949 C3943 1.491 . S
C3949 C3948 1.400 . S
C3949 C3950 1.398 . S
C3950 H3938 0.950 . S
C3950 C3949 1.398 . S
C3950 C3951 1.391 . S
C3951 H3939 0.950 . S
C3951 C3947 1.393 . S
C3951 C3950 1.391 . S
H3952 C3960 0.950 . S
H3953 C3965 0.950 . S
H3954 C3962 0.950 . S
H3955 C3964 0.950 . S
H3956 C3966 0.950 . S
H3957 C3968 0.950 . S
H3958 C3970 0.950 . S
H3959 C3971 0.950 . S
C3960 H3952 0.950 . S
C3960 C3961 1.386 . S
C3960 C3962 1.391 . S
C3961 C3960 1.386 . S
C3961 C3965 1.393 . S
C3962 H3954 0.950 . S
C3962 C3960 1.391 . S
C3962 C3963 1.400 . S
C3963 C3962 1.400 . S
C3963 C3964 1.398 . S
C3963 C3969 1.491 . S
C3964 H3955 0.950 . S
C3964 C3963 1.398 . S
C3964 C3965 1.391 . S
C3965 H3953 0.950 . S
C3965 C3961 1.393 . S
C3965 C3964 1.391 . S
C3966 H3956 0.950 . S
C3966 C3967 1.386 . S
C3966 C3968 1.391 . S
C3967 C3966 1.386 . S
C3967 C3971 1.393 . S
C3968 H3957 0.950 . S
C3968 C3966 1.391 . S
C3968 C3969 1.400 . S
C3969 C3963 1.491 . S
C3969 C3968 1.400 . S
C3969 C3970 1.398 . S
C3970 H3958 0.950 . S
C3970 C3969 1.398 . S
C3970 C3971 1.391 . S
C3971 H3959 0.950 . S
C3971 C3967 1.393 . S
C3971 C3970 1.391 . S
H3972 C3980 0.950 . S
H3973 C3985 0.950 . S
H3974 C3982 0.950 . S
H3975 C3984 0.950 . S
H3976 C3986 0.950 . S
H3977 C3988 0.950 . S
H3978 C3990 0.950 . S
H3979 C3991 0.950 . S
C3980 H3972 0.950 . S
C3980 C3981 1.386 . S
C3980 C3982 1.391 . S
C3981 C3980 1.386 . S
C3981 C3985 1.393 . S
C3982 H3974 0.950 . S
C3982 C3980 1.391 . S
C3982 C3983 1.400 . S
C3983 C3982 1.400 . S
C3983 C3984 1.398 . S
C3983 C3989 1.491 . S
C3984 H3975 0.950 . S
C3984 C3983 1.398 . S
C3984 C3985 1.391 . S
C3985 H3973 0.950 . S
C3985 C3981 1.393 . S
C3985 C3984 1.391 . S
C3986 H3976 0.950 . S
C3986 C3987 1.386 . S
C3986 C3988 1.391 . S
C3987 C3986 1.386 . S
C3987 C3991 1.393 . S
C3988 H3977 0.950 . S
C3988 C3986 1.391 . S
C3988 C3989 1.400 . S
C3989 C3983 1.491 . S
C3989 C3988 1.400 . S
C3989 C3990 1.398 . S
C3990 H3978 0.950 . S
C3990 C3989 1.398 . S
C3990 C3991 1.391 . S
C3991 H3979 0.950 . S
C3991 C3987 1.393 . S
C3991 C3990 1.391 . S
H3992 C4000 0.950 . S
H3993 C4005 0.950 . S
H3994 C4002 0.950 . S
H3995 C4004 0.950 . S
H3996 C4006 0.950 . S
H3997 C4008 0.950 . S
H3998 C4010 0.950 . S
H3999 C4011 0.950 . S
C4000 H3992 0.950 . S
C4000 C4001 1.386 . S
C4000 C4002 1.391 . S
C4001 C4000 1.386 . S
C4001 C4005 1.393 . S
C4002 H3994 0.950 . S
C4002 C4000 1.391 . S
C4002 C4003 1.400 . S
C4003 C4002 1.400 . S
C4003 C4004 1.398 . S
C4003 C4009 1.491 . S
C4004 H3995 0.950 . S
C4004 C4003 1.398 . S
C4004 C4005 1.391 . S
C4005 H3993 0.950 . S
C4005 C4001 1.393 . S
C4005 C4004 1.391 . S
C4006 H3996 0.950 . S
C4006 C4007 1.386 . S
C4006 C4008 1.391 . S
C4007 C4006 1.386 . S
C4007 C4011 1.393 . S
C4008 H3997 0.950 . S
C4008 C4006 1.391 . S
C4008 C4009 1.400 . S
C4009 C4003 1.491 . S
C4009 C4008 1.400 . S
C4009 C4010 1.398 . S
C4010 H3998 0.950 . S
C4010 C4009 1.398 . S
C4010 C4011 1.391 . S
C4011 H3999 0.950 . S
C4011 C4007 1.393 . S
C4011 C4010 1.391 . S
H4012 C4020 0.950 . S
H4013 C4025 0.950 . S
H4014 C4022 0.950 . S
H4015 C4024 0.950 . S
H4016 C4026 0.950 . S
H4017 C4028 0.950 . S
H4018 C4030 0.950 . S
H4019 C4031 0.950 . S
C4020 H4012 0.950 . S
C4020 C4021 1.386 . S
C4020 C4022 1.391 . S
C4021 C4020 1.386 . S
C4021 C4025 1.393 . S
C4022 H4014 0.950 . S
C4022 C4020 1.391 . S
C4022 C4023 1.400 . S
C4023 C4022 1.400 . S
C4023 C4024 1.398 . S
C4023 C4029 1.491 . S
C4024 H4015 0.950 . S
C4024 C4023 1.398 . S
C4024 C4025 1.391 . S
C4025 H4013 0.950 . S
C4025 C4021 1.393 . S
C4025 C4024 1.391 . S
C4026 H4016 0.950 . S
C4026 C4027 1.386 . S
C4026 C4028 1.391 . S
C4027 C4026 1.386 . S
C4027 C4031 1.393 . S
C4028 H4017 0.950 . S
C4028 C4026 1.391 . S
C4028 C4029 1.400 . S
C4029 C4023 1.491 . S
C4029 C4028 1.400 . S
C4029 C4030 1.398 . S
C4030 H4018 0.950 . S
C4030 C4029 1.398 . S
C4030 C4031 1.391 . S
C4031 H4019 0.950 . S
C4031 C4027 1.393 . S
C4031 C4030 1.391 . S
H4032 C4040 0.950 . S
H4033 C4045 0.950 . S
H4034 C4042 0.950 . S
H4035 C4044 0.950 . S
H4036 C4046 0.950 . S
H4037 C4048 0.950 . S
H4038 C4050 0.950 . S
H4039 C4051 0.950 . S
C4040 H4032 0.950 . S
C4040 C4041 1.386 . S
C4040 C4042 1.391 . S
C4041 C4040 1.386 . S
C4041 C4045 1.393 . S
C4042 H4034 0.950 . S
C4042 C4040 1.391 . S
C4042 C4043 1.400 . S
C4043 C4042 1.400 . S
C4043 C4044 1.398 . S
C4043 C4049 1.491 . S
C4044 H4035 0.950 . S
C4044 C4043 1.398 . S
C4044 C4045 1.391 . S
C4045 H4033 0.950 . S
C4045 C4041 1.393 . S
C4045 C4044 1.391 . S
C4046 H4036 0.950 . S
C4046 C4047 1.386 . S
C4046 C4048 1.391 . S
C4047 C4046 1.386 . S
C4047 C4051 1.393 . S
C4048 H4037 0.950 . S
C4048 C4046 1.391 . S
C4048 C4049 1.400 . S
C4049 C4043 1.491 . S
C4049 C4048 1.400 . S
C4049 C4050 1.398 . S
C4050 H4038 0.950 . S
C4050 C4049 1.398 . S
C4050 C4051 1.391 . S
C4051 H4039 0.950 . S
C4051 C4047 1.393 . S
C4051 C4050 1.391 . S
H4052 C4060 0.950 . S
H4053 C4065 0.950 . S
H4054 C4062 0.950 . S
H4055 C4064 0.950 . S
H4056 C4066 0.950 . S
H4057 C4068 0.950 . S
H4058 C4070 0.950 . S
H4059 C4071 0.950 . S
C4060 H4052 0.950 . S
C4060 C4061 1.386 . S
C4060 C4062 1.391 . S
C4061 C4060 1.386 . S
C4061 C4065 1.393 . S
C4062 H4054 0.950 . S
C4062 C4060 1.391 . S
C4062 C4063 1.400 . S
C4063 C4062 1.400 . S
C4063 C4064 1.398 . S
C4063 C4069 1.491 . S
C4064 H4055 0.950 . S
C4064 C4063 1.398 . S
C4064 C4065 1.391 . S
C4065 H4053 0.950 . S
C4065 C4061 1.393 . S
C4065 C4064 1.391 . S
C4066 H4056 0.950 . S
C4066 C4067 1.386 . S
C4066 C4068 1.391 . S
C4067 C4066 1.386 . S
C4067 C4071 1.393 . S
C4068 H4057 0.950 . S
C4068 C4066 1.391 . S
C4068 C4069 1.400 . S
C4069 C4063 1.491 . S
C4069 C4068 1.400 . S
C4069 C4070 1.398 . S
C4070 H4058 0.950 . S
C4070 C4069 1.398 . S
C4070 C4071 1.391 . S
C4071 H4059 0.950 . S
C4071 C4067 1.393 . S
C4071 C4070 1.391 . S
H4072 C4080 0.950 . S
H4073 C4085 0.950 . S
H4074 C4082 0.950 . S
H4075 C4084 0.950 . S
H4076 C4086 0.950 . S
H4077 C4088 0.950 . S
H4078 C4090 0.950 . S
H4079 C4091 0.950 . S
C4080 H4072 0.950 . S
C4080 C4081 1.386 . S
C4080 C4082 1.391 . S
C4081 C4080 1.386 . S
C4081 C4085 1.393 . S
C4082 H4074 0.950 . S
C4082 C4080 1.391 . S
C4082 C4083 1.400 . S
C4083 C4082 1.400 . S
C4083 C4084 1.398 . S
C4083 C4089 1.491 . S
C4084 H4075 0.950 . S
C4084 C4083 1.398 . S
C4084 C4085 1.391 . S
C4085 H4073 0.950 . S
C4085 C4081 1.393 . S
C4085 C4084 1.391 . S
C4086 H4076 0.950 . S
C4086 C4087 1.386 . S
C4086 C4088 1.391 . S
C4087 C4086 1.386 . S
C4087 C4091 1.393 . S
C4088 H4077 0.950 . S
C4088 C4086 1.391 . S
C4088 C4089 1.400 . S
C4089 C4083 1.491 . S
C4089 C4088 1.400 . S
C4089 C4090 1.398 . S
C4090 H4078 0.950 . S
C4090 C4089 1.398 . S
C4090 C4091 1.391 . S
C4091 H4079 0.950 . S
C4091 C4087 1.393 . S
C4091 C4090 1.391 . S
H4092 C4100 0.950 . S
H4093 C4105 0.950 . S
H4094 C4102 0.950 . S
H4095 C4104 0.950 . S
H4096 C4106 0.950 . S
H4097 C4108 0.950 . S
H4098 C4110 0.950 . S
H4099 C4111 0.950 . S
C4100 H4092 0.950 . S
C4100 C4101 1.386 . S
C4100 C4102 1.391 . S
C4101 C4100 1.386 . S
C4101 C4105 1.393 . S
C4102 H4094 0.950 . S
C4102 C4100 1.391 . S
C4102 C4103 1.400 . S
C4103 C4102 1.400 . S
C4103 C4104 1.398 . S
C4103 C4109 1.491 . S
C4104 H4095 0.950 . S
C4104 C4103 1.398 . S
C4104 C4105 1.391 . S
C4105 H4093 0.950 . S
C4105 C4101 1.393 . S
C4105 C4104 1.391 . S
C4106 H4096 0.950 . S
C4106 C4107 1.386 . S
C4106 C4108 1.391 . S
C4107 C4106 1.386 . S
C4107 C4111 1.393 . S
C4108 H4097 0.950 . S
C4108 C4106 1.391 . S
C4108 C4109 1.400 . S
C4109 C4103 1.491 . S
C4109 C4108 1.400 . S
C4109 C4110 1.398 . S
C4110 H4098 0.950 . S
C4110 C4109 1.398 . S
C4110 C4111 1.391 . S
C4111 H4099 0.950 . S
C4111 C4107 1.393 . S
C4111 C4110 1.391 . S
H4112 C4120 0.950 . S
H4113 C4125 0.950 . S
H4114 C4122 0.950 . S
H4115 C4124 0.950 . S
H4116 C4126 0.950 . S
H4117 C4128 0.950 . S
H4118 C4130 0.950 . S
H4119 C4131 0.950 . S
C4120 H4112 0.950 . S
C4120 C4121 1.386 . S
C4120 C4122 1.391 . S
C4121 C4120 1.386 . S
C4121 C4125 1.393 . S
C4122 H4114 0.950 . S
C4122 C4120 1.391 . S
C4122 C4123 1.400 . S
C4123 C4122 1.400 . S
C4123 C4124 1.398 . S
C4123 C4129 1.491 . S
C4124 H4115 0.950 . S
C4124 C4123 1.398 . S
C4124 C4125 1.391 . S
C4125 H4113 0.950 . S
C4125 C4121 1.393 . S
C4125 C4124 1.391 . S
C4126 H4116 0.950 . S
C4126 C4127 1.386 . S
C4126 C4128 1.391 . S
C4127 C4126 1.386 . S
C4127 C4131 1.393 . S
C4128 H4117 0.950 . S
C4128 C4126 1.391 . S
C4128 C4129 1.400 . S
C4129 C4123 1.491 . S
C4129 C4128 1.400 . S
C4129 C4130 1.398 . S
C4130 H4118 0.950 . S
C4130 C4129 1.398 . S
C4130 C4131 1.391 . S
C4131 H4119 0.950 . S
C4131 C4127 1.393 . S
C4131 C4130 1.391 . S
H4132 C4140 0.950 . S
H4133 C4145 0.950 . S
H4134 C4142 0.950 . S
H4135 C4144 0.950 . S
H4136 C4146 0.950 . S
H4137 C4148 0.950 . S
H4138 C4150 0.950 . S
H4139 C4151 0.950 . S
C4140 H4132 0.950 . S
C4140 C4141 1.386 . S
C4140 C4142 1.391 . S
C4141 C4140 1.386 . S
C4141 C4145 1.393 . S
C4142 H4134 0.950 . S
C4142 C4140 1.391 . S
C4142 C4143 1.400 . S
C4143 C4142 1.400 . S
C4143 C4144 1.398 . S
C4143 C4149 1.491 . S
C4144 H4135 0.950 . S
C4144 C4143 1.398 . S
C4144 C4145 1.391 . S
C4145 H4133 0.950 . S
C4145 C4141 1.393 . S
C4145 C4144 1.391 . S
C4146 H4136 0.950 . S
C4146 C4147 1.386 . S
C4146 C4148 1.391 . S
C4147 C4146 1.386 . S
C4147 C4151 1.393 . S
C4148 H4137 0.950 . S
C4148 C4146 1.391 . S
C4148 C4149 1.400 . S
C4149 C4143 1.491 . S
C4149 C4148 1.400 . S
C4149 C4150 1.398 . S
C4150 H4138 0.950 . S
C4150 C4149 1.398 . S
C4150 C4151 1.391 . S
C4151 H4139 0.950 . S
C4151 C4147 1.393 . S
C4151 C4150 1.391 . S
H4152 C4160 0.950 . S
H4153 C4165 0.950 . S
H4154 C4162 0.950 . S
H4155 C4164 0.950 . S
H4156 C4166 0.950 . S
H4157 C4168 0.950 . S
H4158 C4170 0.950 . S
H4159 C4171 0.950 . S
C4160 H4152 0.950 . S
C4160 C4161 1.386 . S
C4160 C4162 1.391 . S
C4161 C4160 1.386 . S
C4161 C4165 1.393 . S
C4162 H4154 0.950 . S
C4162 C4160 1.391 . S
C4162 C4163 1.400 . S
C4163 C4162 1.400 . S
C4163 C4164 1.398 . S
C4163 C4169 1.491 . S
C4164 H4155 0.950 . S
C4164 C4163 1.398 . S
C4164 C4165 1.391 . S
C4165 H4153 0.950 . S
C4165 C4161 1.393 . S
C4165 C4164 1.391 . S
C4166 H4156 0.950 . S
C4166 C4167 1.386 . S
C4166 C4168 1.391 . S
C4167 C4166 1.386 . S
C4167 C4171 1.393 . S
C4168 H4157 0.950 . S
C4168 C4166 1.391 . S
C4168 C4169 1.400 . S
C4169 C4163 1.491 . S
C4169 C4168 1.400 . S
C4169 C4170 1.398 . S
C4170 H4158 0.950 . S
C4170 C4169 1.398 . S
C4170 C4171 1.391 . S
C4171 H4159 0.950 . S
C4171 C4167 1.393 . S
C4171 C4170 1.391 . S
H4172 C4180 0.950 . S
H4173 C4185 0.950 . S
H4174 C4182 0.950 . S
H4175 C4184 0.950 . S
H4176 C4186 0.950 . S
H4177 C4188 0.950 . S
H4178 C4190 0.950 . S
H4179 C4191 0.950 . S
C4180 H4172 0.950 . S
C4180 C4181 1.386 . S
C4180 C4182 1.391 . S
C4181 C4180 1.386 . S
C4181 C4185 1.393 . S
C4182 H4174 0.950 . S
C4182 C4180 1.391 . S
C4182 C4183 1.400 . S
C4183 C4182 1.400 . S
C4183 C4184 1.398 . S
C4183 C4189 1.491 . S
C4184 H4175 0.950 . S
C4184 C4183 1.398 . S
C4184 C4185 1.391 . S
C4185 H4173 0.950 . S
C4185 C4181 1.393 . S
C4185 C4184 1.391 . S
C4186 H4176 0.950 . S
C4186 C4187 1.386 . S
C4186 C4188 1.391 . S
C4187 C4186 1.386 . S
C4187 C4191 1.393 . S
C4188 H4177 0.950 . S
C4188 C4186 1.391 . S
C4188 C4189 1.400 . S
C4189 C4183 1.491 . S
C4189 C4188 1.400 . S
C4189 C4190 1.398 . S
C4190 H4178 0.950 . S
C4190 C4189 1.398 . S
C4190 C4191 1.391 . S
C4191 H4179 0.950 . S
C4191 C4187 1.393 . S
C4191 C4190 1.391 . S
H4192 C4200 0.950 . S
H4193 C4205 0.950 . S
H4194 C4202 0.950 . S
H4195 C4204 0.950 . S
H4196 C4206 0.950 . S
H4197 C4208 0.950 . S
H4198 C4210 0.950 . S
H4199 C4211 0.950 . S
C4200 H4192 0.950 . S
C4200 C4201 1.386 . S
C4200 C4202 1.391 . S
C4201 C4200 1.386 . S
C4201 C4205 1.393 . S
C4202 H4194 0.950 . S
C4202 C4200 1.391 . S
C4202 C4203 1.400 . S
C4203 C4202 1.400 . S
C4203 C4204 1.398 . S
C4203 C4209 1.491 . S
C4204 H4195 0.950 . S
C4204 C4203 1.398 . S
C4204 C4205 1.391 . S
C4205 H4193 0.950 . S
C4205 C4201 1.393 . S
C4205 C4204 1.391 . S
C4206 H4196 0.950 . S
C4206 C4207 1.386 . S
C4206 C4208 1.391 . S
C4207 C4206 1.386 . S
C4207 C4211 1.393 . S
C4208 H4197 0.950 . S
C4208 C4206 1.391 . S
C4208 C4209 1.400 . S
C4209 C4203 1.491 . S
C4209 C4208 1.400 . S
C4209 C4210 1.398 . S
C4210 H4198 0.950 . S
C4210 C4209 1.398 . S
C4210 C4211 1.391 . S
C4211 H4199 0.950 . S
C4211 C4207 1.393 . S
C4211 C4210 1.391 . S
H4212 C4220 0.950 . S
H4213 C4225 0.950 . S
H4214 C4222 0.950 . S
H4215 C4224 0.950 . S
H4216 C4226 0.950 . S
H4217 C4228 0.950 . S
H4218 C4230 0.950 . S
H4219 C4231 0.950 . S
C4220 H4212 0.950 . S
C4220 C4221 1.386 . S
C4220 C4222 1.391 . S
C4221 C4220 1.386 . S
C4221 C4225 1.393 . S
C4222 H4214 0.950 . S
C4222 C4220 1.391 . S
C4222 C4223 1.400 . S
C4223 C4222 1.400 . S
C4223 C4224 1.398 . S
C4223 C4229 1.491 . S
C4224 H4215 0.950 . S
C4224 C4223 1.398 . S
C4224 C4225 1.391 . S
C4225 H4213 0.950 . S
C4225 C4221 1.393 . S
C4225 C4224 1.391 . S
C4226 H4216 0.950 . S
C4226 C4227 1.386 . S
C4226 C4228 1.391 . S
C4227 C4226 1.386 . S
C4227 C4231 1.393 . S
C4228 H4217 0.950 . S
C4228 C4226 1.391 . S
C4228 C4229 1.400 . S
C4229 C4223 1.491 . S
C4229 C4228 1.400 . S
C4229 C4230 1.398 . S
C4230 H4218 0.950 . S
C4230 C4229 1.398 . S
C4230 C4231 1.391 . S
C4231 H4219 0.950 . S
C4231 C4227 1.393 . S
C4231 C4230 1.391 . S
H4232 C4240 0.950 . S
H4233 C4245 0.950 . S
H4234 C4242 0.950 . S
H4235 C4244 0.950 . S
H4236 C4246 0.950 . S
H4237 C4248 0.950 . S
H4238 C4250 0.950 . S
H4239 C4251 0.950 . S
C4240 H4232 0.950 . S
C4240 C4241 1.386 . S
C4240 C4242 1.391 . S
C4241 C4240 1.386 . S
C4241 C4245 1.393 . S
C4242 H4234 0.950 . S
C4242 C4240 1.391 . S
C4242 C4243 1.400 . S
C4243 C4242 1.400 . S
C4243 C4244 1.398 . S
C4243 C4249 1.491 . S
C4244 H4235 0.950 . S
C4244 C4243 1.398 . S
C4244 C4245 1.391 . S
C4245 H4233 0.950 . S
C4245 C4241 1.393 . S
C4245 C4244 1.391 . S
C4246 H4236 0.950 . S
C4246 C4247 1.386 . S
C4246 C4248 1.391 . S
C4247 C4246 1.386 . S
C4247 C4251 1.393 . S
C4248 H4237 0.950 . S
C4248 C4246 1.391 . S
C4248 C4249 1.400 . S
C4249 C4243 1.491 . S
C4249 C4248 1.400 . S
C4249 C4250 1.398 . S
C4250 H4238 0.950 . S
C4250 C4249 1.398 . S
C4250 C4251 1.391 . S
C4251 H4239 0.950 . S
C4251 C4247 1.393 . S
C4251 C4250 1.391 . S
H4252 C4260 0.950 . S
H4253 C4265 0.950 . S
H4254 C4262 0.950 . S
H4255 C4264 0.950 . S
H4256 C4266 0.950 . S
H4257 C4268 0.950 . S
H4258 C4270 0.950 . S
H4259 C4271 0.950 . S
C4260 H4252 0.950 . S
C4260 C4261 1.386 . S
C4260 C4262 1.391 . S
C4261 C4260 1.386 . S
C4261 C4265 1.393 . S
C4262 H4254 0.950 . S
C4262 C4260 1.391 . S
C4262 C4263 1.400 . S
C4263 C4262 1.400 . S
C4263 C4264 1.398 . S
C4263 C4269 1.491 . S
C4264 H4255 0.950 . S
C4264 C4263 1.398 . S
C4264 C4265 1.391 . S
C4265 H4253 0.950 . S
C4265 C4261 1.393 . S
C4265 C4264 1.391 . S
C4266 H4256 0.950 . S
C4266 C4267 1.386 . S
C4266 C4268 1.391 . S
C4267 C4266 1.386 . S
C4267 C4271 1.393 . S
C4268 H4257 0.950 . S
C4268 C4266 1.391 . S
C4268 C4269 1.400 . S
C4269 C4263 1.491 . S
C4269 C4268 1.400 . S
C4269 C4270 1.398 . S
C4270 H4258 0.950 . S
C4270 C4269 1.398 . S
C4270 C4271 1.391 . S
C4271 H4259 0.950 . S
C4271 C4267 1.393 . S
C4271 C4270 1.391 . S
H4272 C4280 0.950 . S
H4273 C4285 0.950 . S
H4274 C4282 0.950 . S
H4275 C4284 0.950 . S
H4276 C4286 0.950 . S
H4277 C4288 0.950 . S
H4278 C4290 0.950 . S
H4279 C4291 0.950 . S
C4280 H4272 0.950 . S
C4280 C4281 1.386 . S
C4280 C4282 1.391 . S
C4281 C4280 1.386 . S
C4281 C4285 1.393 . S
C4282 H4274 0.950 . S
C4282 C4280 1.391 . S
C4282 C4283 1.400 . S
C4283 C4282 1.400 . S
C4283 C4284 1.398 . S
C4283 C4289 1.491 . S
C4284 H4275 0.950 . S
C4284 C4283 1.398 . S
C4284 C4285 1.391 . S
C4285 H4273 0.950 . S
C4285 C4281 1.393 . S
C4285 C4284 1.391 . S
C4286 H4276 0.950 . S
C4286 C4287 1.386 . S
C4286 C4288 1.391 . S
C4287 C4286 1.386 . S
C4287 C4291 1.393 . S
C4288 H4277 0.950 . S
C4288 C4286 1.391 . S
C4288 C4289 1.400 . S
C4289 C4283 1.491 . S
C4289 C4288 1.400 . S
C4289 C4290 1.398 . S
C4290 H4278 0.950 . S
C4290 C4289 1.398 . S
C4290 C4291 1.391 . S
C4291 H4279 0.950 . S
C4291 C4287 1.393 . S
C4291 C4290 1.391 . S
H4292 C4300 0.950 . S
H4293 C4305 0.950 . S
H4294 C4302 0.950 . S
H4295 C4304 0.950 . S
H4296 C4306 0.950 . S
H4297 C4308 0.950 . S
H4298 C4310 0.950 . S
H4299 C4311 0.950 . S
C4300 H4292 0.950 . S
C4300 C4301 1.386 . S
C4300 C4302 1.391 . S
C4301 C4300 1.386 . S
C4301 C4305 1.393 . S
C4302 H4294 0.950 . S
C4302 C4300 1.391 . S
C4302 C4303 1.400 . S
C4303 C4302 1.400 . S
C4303 C4304 1.398 . S
C4303 C4309 1.491 . S
C4304 H4295 0.950 . S
C4304 C4303 1.398 . S
C4304 C4305 1.391 . S
C4305 H4293 0.950 . S
C4305 C4301 1.393 . S
C4305 C4304 1.391 . S
C4306 H4296 0.950 . S
C4306 C4307 1.386 . S
C4306 C4308 1.391 . S
C4307 C4306 1.386 . S
C4307 C4311 1.393 . S
C4308 H4297 0.950 . S
C4308 C4306 1.391 . S
C4308 C4309 1.400 . S
C4309 C4303 1.491 . S
C4309 C4308 1.400 . S
C4309 C4310 1.398 . S
C4310 H4298 0.950 . S
C4310 C4309 1.398 . S
C4310 C4311 1.391 . S
C4311 H4299 0.950 . S
C4311 C4307 1.393 . S
C4311 C4310 1.391 . S
H4312 C4320 0.950 . S
H4313 C4325 0.950 . S
H4314 C4322 0.950 . S
H4315 C4324 0.950 . S
H4316 C4326 0.950 . S
H4317 C4328 0.950 . S
H4318 C4330 0.950 . S
H4319 C4331 0.950 . S
C4320 H4312 0.950 . S
C4320 C4321 1.386 . S
C4320 C4322 1.391 . S
C4321 C4320 1.386 . S
C4321 C4325 1.393 . S
C4322 H4314 0.950 . S
C4322 C4320 1.391 . S
C4322 C4323 1.400 . S
C4323 C4322 1.400 . S
C4323 C4324 1.398 . S
C4323 C4329 1.491 . S
C4324 H4315 0.950 . S
C4324 C4323 1.398 . S
C4324 C4325 1.391 . S
C4325 H4313 0.950 . S
C4325 C4321 1.393 . S
C4325 C4324 1.391 . S
C4326 H4316 0.950 . S
C4326 C4327 1.386 . S
C4326 C4328 1.391 . S
C4327 C4326 1.386 . S
C4327 C4331 1.393 . S
C4328 H4317 0.950 . S
C4328 C4326 1.391 . S
C4328 C4329 1.400 . S
C4329 C4323 1.491 . S
C4329 C4328 1.400 . S
C4329 C4330 1.398 . S
C4330 H4318 0.950 . S
C4330 C4329 1.398 . S
C4330 C4331 1.391 . S
C4331 H4319 0.950 . S
C4331 C4327 1.393 . S
C4331 C4330 1.391 . S
H4332 C4340 0.950 . S
H4333 C4345 0.950 . S
H4334 C4342 0.950 . S
H4335 C4344 0.950 . S
H4336 C4346 0.950 . S
H4337 C4348 0.950 . S
H4338 C4350 0.950 . S
H4339 C4351 0.950 . S
C4340 H4332 0.950 . S
C4340 C4341 1.386 . S
C4340 C4342 1.391 . S
C4341 C4340 1.386 . S
C4341 C4345 1.393 . S
C4342 H4334 0.950 . S
C4342 C4340 1.391 . S
C4342 C4343 1.400 . S
C4343 C4342 1.400 . S
C4343 C4344 1.398 . S
C4343 C4349 1.491 . S
C4344 H4335 0.950 . S
C4344 C4343 1.398 . S
C4344 C4345 1.391 . S
C4345 H4333 0.950 . S
C4345 C4341 1.393 . S
C4345 C4344 1.391 . S
C4346 H4336 0.950 . S
C4346 C4347 1.386 . S
C4346 C4348 1.391 . S
C4347 C4346 1.386 . S
C4347 C4351 1.393 . S
C4348 H4337 0.950 . S
C4348 C4346 1.391 . S
C4348 C4349 1.400 . S
C4349 C4343 1.491 . S
C4349 C4348 1.400 . S
C4349 C4350 1.398 . S
C4350 H4338 0.950 . S
C4350 C4349 1.398 . S
C4350 C4351 1.391 . S
C4351 H4339 0.950 . S
C4351 C4347 1.393 . S
C4351 C4350 1.391 . S
H4352 C4360 0.950 . S
H4353 C4365 0.950 . S
H4354 C4362 0.950 . S
H4355 C4364 0.950 . S
H4356 C4366 0.950 . S
H4357 C4368 0.950 . S
H4358 C4370 0.950 . S
H4359 C4371 0.950 . S
C4360 H4352 0.950 . S
C4360 C4361 1.386 . S
C4360 C4362 1.391 . S
C4361 C4360 1.386 . S
C4361 C4365 1.393 . S
C4362 H4354 0.950 . S
C4362 C4360 1.391 . S
C4362 C4363 1.400 . S
C4363 C4362 1.400 . S
C4363 C4364 1.398 . S
C4363 C4369 1.491 . S
C4364 H4355 0.950 . S
C4364 C4363 1.398 . S
C4364 C4365 1.391 . S
C4365 H4353 0.950 . S
C4365 C4361 1.393 . S
C4365 C4364 1.391 . S
C4366 H4356 0.950 . S
C4366 C4367 1.386 . S
C4366 C4368 1.391 . S
C4367 C4366 1.386 . S
C4367 C4371 1.393 . S
C4368 H4357 0.950 . S
C4368 C4366 1.391 . S
C4368 C4369 1.400 . S
C4369 C4363 1.491 . S
C4369 C4368 1.400 . S
C4369 C4370 1.398 . S
C4370 H4358 0.950 . S
C4370 C4369 1.398 . S
C4370 C4371 1.391 . S
C4371 H4359 0.950 . S
C4371 C4367 1.393 . S
C4371 C4370 1.391 . S
H4372 C4380 0.950 . S
H4373 C4385 0.950 . S
H4374 C4382 0.950 . S
H4375 C4384 0.950 . S
H4376 C4386 0.950 . S
H4377 C4388 0.950 . S
H4378 C4390 0.950 . S
H4379 C4391 0.950 . S
C4380 H4372 0.950 . S
C4380 C4381 1.386 . S
C4380 C4382 1.391 . S
C4381 C4380 1.386 . S
C4381 C4385 1.393 . S
C4382 H4374 0.950 . S
C4382 C4380 1.391 . S
C4382 C4383 1.400 . S
C4383 C4382 1.400 . S
C4383 C4384 1.398 . S
C4383 C4389 1.491 . S
C4384 H4375 0.950 . S
C4384 C4383 1.398 . S
C4384 C4385 1.391 . S
C4385 H4373 0.950 . S
C4385 C4381 1.393 . S
C4385 C4384 1.391 . S
C4386 H4376 0.950 . S
C4386 C4387 1.386 . S
C4386 C4388 1.391 . S
C4387 C4386 1.386 . S
C4387 C4391 1.393 . S
C4388 H4377 0.950 . S
C4388 C4386 1.391 . S
C4388 C4389 1.400 . S
C4389 C4383 1.491 . S
C4389 C4388 1.400 . S
C4389 C4390 1.398 . S
C4390 H4378 0.950 . S
C4390 C4389 1.398 . S
C4390 C4391 1.391 . S
C4391 H4379 0.950 . S
C4391 C4387 1.393 . S
C4391 C4390 1.391 . S
H4392 C4400 0.950 . S
H4393 C4405 0.950 . S
H4394 C4402 0.950 . S
H4395 C4404 0.950 . S
H4396 C4406 0.950 . S
H4397 C4408 0.950 . S
H4398 C4410 0.950 . S
H4399 C4411 0.950 . S
C4400 H4392 0.950 . S
C4400 C4401 1.386 . S
C4400 C4402 1.391 . S
C4401 C4400 1.386 . S
C4401 C4405 1.393 . S
C4402 H4394 0.950 . S
C4402 C4400 1.391 . S
C4402 C4403 1.400 . S
C4403 C4402 1.400 . S
C4403 C4404 1.398 . S
C4403 C4409 1.491 . S
C4404 H4395 0.950 . S
C4404 C4403 1.398 . S
C4404 C4405 1.391 . S
C4405 H4393 0.950 . S
C4405 C4401 1.393 . S
C4405 C4404 1.391 . S
C4406 H4396 0.950 . S
C4406 C4407 1.386 . S
C4406 C4408 1.391 . S
C4407 C4406 1.386 . S
C4407 C4411 1.393 . S
C4408 H4397 0.950 . S
C4408 C4406 1.391 . S
C4408 C4409 1.400 . S
C4409 C4403 1.491 . S
C4409 C4408 1.400 . S
C4409 C4410 1.398 . S
C4410 H4398 0.950 . S
C4410 C4409 1.398 . S
C4410 C4411 1.391 . S
C4411 H4399 0.950 . S
C4411 C4407 1.393 . S
C4411 C4410 1.391 . S
H4412 C4420 0.950 . S
H4413 C4425 0.950 . S
H4414 C4422 0.950 . S
H4415 C4424 0.950 . S
H4416 C4426 0.950 . S
H4417 C4428 0.950 . S
H4418 C4430 0.950 . S
H4419 C4431 0.950 . S
C4420 H4412 0.950 . S
C4420 C4421 1.386 . S
C4420 C4422 1.391 . S
C4421 C4420 1.386 . S
C4421 C4425 1.393 . S
C4422 H4414 0.950 . S
C4422 C4420 1.391 . S
C4422 C4423 1.400 . S
C4423 C4422 1.400 . S
C4423 C4424 1.398 . S
C4423 C4429 1.491 . S
C4424 H4415 0.950 . S
C4424 C4423 1.398 . S
C4424 C4425 1.391 . S
C4425 H4413 0.950 . S
C4425 C4421 1.393 . S
C4425 C4424 1.391 . S
C4426 H4416 0.950 . S
C4426 C4427 1.386 . S
C4426 C4428 1.391 . S
C4427 C4426 1.386 . S
C4427 C4431 1.393 . S
C4428 H4417 0.950 . S
C4428 C4426 1.391 . S
C4428 C4429 1.400 . S
C4429 C4423 1.491 . S
C4429 C4428 1.400 . S
C4429 C4430 1.398 . S
C4430 H4418 0.950 . S
C4430 C4429 1.398 . S
C4430 C4431 1.391 . S
C4431 H4419 0.950 . S
C4431 C4427 1.393 . S
C4431 C4430 1.391 . S
H4432 C4440 0.950 . S
H4433 C4445 0.950 . S
H4434 C4442 0.950 . S
H4435 C4444 0.950 . S
H4436 C4446 0.950 . S
H4437 C4448 0.950 . S
H4438 C4450 0.950 . S
H4439 C4451 0.950 . S
C4440 H4432 0.950 . S
C4440 C4441 1.386 . S
C4440 C4442 1.391 . S
C4441 C4440 1.386 . S
C4441 C4445 1.393 . S
C4442 H4434 0.950 . S
C4442 C4440 1.391 . S
C4442 C4443 1.400 . S
C4443 C4442 1.400 . S
C4443 C4444 1.398 . S
C4443 C4449 1.491 . S
C4444 H4435 0.950 . S
C4444 C4443 1.398 . S
C4444 C4445 1.391 . S
C4445 H4433 0.950 . S
C4445 C4441 1.393 . S
C4445 C4444 1.391 . S
C4446 H4436 0.950 . S
C4446 C4447 1.386 . S
C4446 C4448 1.391 . S
C4447 C4446 1.386 . S
C4447 C4451 1.393 . S
C4448 H4437 0.950 . S
C4448 C4446 1.391 . S
C4448 C4449 1.400 . S
C4449 C4443 1.491 . S
C4449 C4448 1.400 . S
C4449 C4450 1.398 . S
C4450 H4438 0.950 . S
C4450 C4449 1.398 . S
C4450 C4451 1.391 . S
C4451 H4439 0.950 . S
C4451 C4447 1.393 . S
C4451 C4450 1.391 . S
H4452 C4460 0.950 . S
H4453 C4465 0.950 . S
H4454 C4462 0.950 . S
H4455 C4464 0.950 . S
H4456 C4466 0.950 . S
H4457 C4468 0.950 . S
H4458 C4470 0.950 . S
H4459 C4471 0.950 . S
C4460 H4452 0.950 . S
C4460 C4461 1.386 . S
C4460 C4462 1.391 . S
C4461 C4460 1.386 . S
C4461 C4465 1.393 . S
C4462 H4454 0.950 . S
C4462 C4460 1.391 . S
C4462 C4463 1.400 . S
C4463 C4462 1.400 . S
C4463 C4464 1.398 . S
C4463 C4469 1.491 . S
C4464 H4455 0.950 . S
C4464 C4463 1.398 . S
C4464 C4465 1.391 . S
C4465 H4453 0.950 . S
C4465 C4461 1.393 . S
C4465 C4464 1.391 . S
C4466 H4456 0.950 . S
C4466 C4467 1.386 . S
C4466 C4468 1.391 . S
C4467 C4466 1.386 . S
C4467 C4471 1.393 . S
C4468 H4457 0.950 . S
C4468 C4466 1.391 . S
C4468 C4469 1.400 . S
C4469 C4463 1.491 . S
C4469 C4468 1.400 . S
C4469 C4470 1.398 . S
C4470 H4458 0.950 . S
C4470 C4469 1.398 . S
C4470 C4471 1.391 . S
C4471 H4459 0.950 . S
C4471 C4467 1.393 . S
C4471 C4470 1.391 . S
H4472 C4480 0.950 . S
H4473 C4485 0.950 . S
H4474 C4482 0.950 . S
H4475 C4484 0.950 . S
H4476 C4486 0.950 . S
H4477 C4488 0.950 . S
H4478 C4490 0.950 . S
H4479 C4491 0.950 . S
C4480 H4472 0.950 . S
C4480 C4481 1.386 . S
C4480 C4482 1.391 . S
C4481 C4480 1.386 . S
C4481 C4485 1.393 . S
C4482 H4474 0.950 . S
C4482 C4480 1.391 . S
C4482 C4483 1.400 . S
C4483 C4482 1.400 . S
C4483 C4484 1.398 . S
C4483 C4489 1.491 . S
C4484 H4475 0.950 . S
C4484 C4483 1.398 . S
C4484 C4485 1.391 . S
C4485 H4473 0.950 . S
C4485 C4481 1.393 . S
C4485 C4484 1.391 . S
C4486 H4476 0.950 . S
C4486 C4487 1.386 . S
C4486 C4488 1.391 . S
C4487 C4486 1.386 . S
C4487 C4491 1.393 . S
C4488 H4477 0.950 . S
C4488 C4486 1.391 . S
C4488 C4489 1.400 . S
C4489 C4483 1.491 . S
C4489 C4488 1.400 . S
C4489 C4490 1.398 . S
C4490 H4478 0.950 . S
C4490 C4489 1.398 . S
C4490 C4491 1.391 . S
C4491 H4479 0.950 . S
C4491 C4487 1.393 . S
C4491 C4490 1.391 . S
H4492 C4500 0.950 . S
H4493 C4505 0.950 . S
H4494 C4502 0.950 . S
H4495 C4504 0.950 . S
H4496 C4506 0.950 . S
H4497 C4508 0.950 . S
H4498 C4510 0.950 . S
H4499 C4511 0.950 . S
C4500 H4492 0.950 . S
C4500 C4501 1.386 . S
C4500 C4502 1.391 . S
C4501 C4500 1.386 . S
C4501 C4505 1.393 . S
C4502 H4494 0.950 . S
C4502 C4500 1.391 . S
C4502 C4503 1.400 . S
C4503 C4502 1.400 . S
C4503 C4504 1.398 . S
C4503 C4509 1.491 . S
C4504 H4495 0.950 . S
C4504 C4503 1.398 . S
C4504 C4505 1.391 . S
C4505 H4493 0.950 . S
C4505 C4501 1.393 . S
C4505 C4504 1.391 . S
C4506 H4496 0.950 . S
C4506 C4507 1.386 . S
C4506 C4508 1.391 . S
C4507 C4506 1.386 . S
C4507 C4511 1.393 . S
C4508 H4497 0.950 . S
C4508 C4506 1.391 . S
C4508 C4509 1.400 . S
C4509 C4503 1.491 . S
C4509 C4508 1.400 . S
C4509 C4510 1.398 . S
C4510 H4498 0.950 . S
C4510 C4509 1.398 . S
C4510 C4511 1.391 . S
C4511 H4499 0.950 . S
C4511 C4507 1.393 . S
C4511 C4510 1.391 . S
H4512 C4520 0.950 . S
H4513 C4525 0.950 . S
H4514 C4522 0.950 . S
H4515 C4524 0.950 . S
H4516 C4526 0.950 . S
H4517 C4528 0.950 . S
H4518 C4530 0.950 . S
H4519 C4531 0.950 . S
C4520 H4512 0.950 . S
C4520 C4521 1.386 . S
C4520 C4522 1.391 . S
C4521 C4520 1.386 . S
C4521 C4525 1.393 . S
C4522 H4514 0.950 . S
C4522 C4520 1.391 . S
C4522 C4523 1.400 . S
C4523 C4522 1.400 . S
C4523 C4524 1.398 . S
C4523 C4529 1.491 . S
C4524 H4515 0.950 . S
C4524 C4523 1.398 . S
C4524 C4525 1.391 . S
C4525 H4513 0.950 . S
C4525 C4521 1.393 . S
C4525 C4524 1.391 . S
C4526 H4516 0.950 . S
C4526 C4527 1.386 . S
C4526 C4528 1.391 . S
C4527 C4526 1.386 . S
C4527 C4531 1.393 . S
C4528 H4517 0.950 . S
C4528 C4526 1.391 . S
C4528 C4529 1.400 . S
C4529 C4523 1.491 . S
C4529 C4528 1.400 . S
C4529 C4530 1.398 . S
C4530 H4518 0.950 . S
C4530 C4529 1.398 . S
C4530 C4531 1.391 . S
C4531 H4519 0.950 . S
C4531 C4527 1.393 . S
C4531 C4530 1.391 . S
H4532 C4540 0.950 . S
H4533 C4545 0.950 . S
H4534 C4542 0.950 . S
H4535 C4544 0.950 . S
H4536 C4546 0.950 . S
H4537 C4548 0.950 . S
H4538 C4550 0.950 . S
H4539 C4551 0.950 . S
C4540 H4532 0.950 . S
C4540 C4541 1.386 . S
C4540 C4542 1.391 . S
C4541 C4540 1.386 . S
C4541 C4545 1.393 . S
C4542 H4534 0.950 . S
C4542 C4540 1.391 . S
C4542 C4543 1.400 . S
C4543 C4542 1.400 . S
C4543 C4544 1.398 . S
C4543 C4549 1.491 . S
C4544 H4535 0.950 . S
C4544 C4543 1.398 . S
C4544 C4545 1.391 . S
C4545 H4533 0.950 . S
C4545 C4541 1.393 . S
C4545 C4544 1.391 . S
C4546 H4536 0.950 . S
C4546 C4547 1.386 . S
C4546 C4548 1.391 . S
C4547 C4546 1.386 . S
C4547 C4551 1.393 . S
C4548 H4537 0.950 . S
C4548 C4546 1.391 . S
C4548 C4549 1.400 . S
C4549 C4543 1.491 . S
C4549 C4548 1.400 . S
C4549 C4550 1.398 . S
C4550 H4538 0.950 . S
C4550 C4549 1.398 . S
C4550 C4551 1.391 . S
C4551 H4539 0.950 . S
C4551 C4547 1.393 . S
C4551 C4550 1.391 . S
H4552 C4560 0.950 . S
H4553 C4565 0.950 . S
H4554 C4562 0.950 . S
H4555 C4564 0.950 . S
H4556 C4566 0.950 . S
H4557 C4568 0.950 . S
H4558 C4570 0.950 . S
H4559 C4571 0.950 . S
C4560 H4552 0.950 . S
C4560 C4561 1.386 . S
C4560 C4562 1.391 . S
C4561 C4560 1.386 . S
C4561 C4565 1.393 . S
C4562 H4554 0.950 . S
C4562 C4560 1.391 . S
C4562 C4563 1.400 . S
C4563 C4562 1.400 . S
C4563 C4564 1.398 . S
C4563 C4569 1.491 . S
C4564 H4555 0.950 . S
C4564 C4563 1.398 . S
C4564 C4565 1.391 . S
C4565 H4553 0.950 . S
C4565 C4561 1.393 . S
C4565 C4564 1.391 . S
C4566 H4556 0.950 . S
C4566 C4567 1.386 . S
C4566 C4568 1.391 . S
C4567 C4566 1.386 . S
C4567 C4571 1.393 . S
C4568 H4557 0.950 . S
C4568 C4566 1.391 . S
C4568 C4569 1.400 . S
C4569 C4563 1.491 . S
C4569 C4568 1.400 . S
C4569 C4570 1.398 . S
C4570 H4558 0.950 . S
C4570 C4569 1.398 . S
C4570 C4571 1.391 . S
C4571 H4559 0.950 . S
C4571 C4567 1.393 . S
C4571 C4570 1.391 . S
H4572 C4580 0.950 . S
H4573 C4585 0.950 . S
H4574 C4582 0.950 . S
H4575 C4584 0.950 . S
H4576 C4586 0.950 . S
H4577 C4588 0.950 . S
H4578 C4590 0.950 . S
H4579 C4591 0.950 . S
C4580 H4572 0.950 . S
C4580 C4581 1.386 . S
C4580 C4582 1.391 . S
C4581 C4580 1.386 . S
C4581 C4585 1.393 . S
C4582 H4574 0.950 . S
C4582 C4580 1.391 . S
C4582 C4583 1.400 . S
C4583 C4582 1.400 . S
C4583 C4584 1.398 . S
C4583 C4589 1.491 . S
C4584 H4575 0.950 . S
C4584 C4583 1.398 . S
C4584 C4585 1.391 . S
C4585 H4573 0.950 . S
C4585 C4581 1.393 . S
C4585 C4584 1.391 . S
C4586 H4576 0.950 . S
C4586 C4587 1.386 . S
C4586 C4588 1.391 . S
C4587 C4586 1.386 . S
C4587 C4591 1.393 . S
C4588 H4577 0.950 . S
C4588 C4586 1.391 . S
C4588 C4589 1.400 . S
C4589 C4583 1.491 . S
C4589 C4588 1.400 . S
C4589 C4590 1.398 . S
C4590 H4578 0.950 . S
C4590 C4589 1.398 . S
C4590 C4591 1.391 . S
C4591 H4579 0.950 . S
C4591 C4587 1.393 . S
C4591 C4590 1.391 . S
H4592 C4600 0.950 . S
H4593 C4605 0.950 . S
H4594 C4602 0.950 . S
H4595 C4604 0.950 . S
H4596 C4606 0.950 . S
H4597 C4608 0.950 . S
H4598 C4610 0.950 . S
H4599 C4611 0.950 . S
C4600 H4592 0.950 . S
C4600 C4601 1.386 . S
C4600 C4602 1.391 . S
C4601 C4600 1.386 . S
C4601 C4605 1.393 . S
C4602 H4594 0.950 . S
C4602 C4600 1.391 . S
C4602 C4603 1.400 . S
C4603 C4602 1.400 . S
C4603 C4604 1.398 . S
C4603 C4609 1.491 . S
C4604 H4595 0.950 . S
C4604 C4603 1.398 . S
C4604 C4605 1.391 . S
C4605 H4593 0.950 . S
C4605 C4601 1.393 . S
C4605 C4604 1.391 . S
C4606 H4596 0.950 . S
C4606 C4607 1.386 . S
C4606 C4608 1.391 . S
C4607 C4606 1.386 . S
C4607 C4611 1.393 . S
C4608 H4597 0.950 . S
C4608 C4606 1.391 . S
C4608 C4609 1.400 . S
C4609 C4603 1.491 . S
C4609 C4608 1.400 . S
C4609 C4610 1.398 . S
C4610 H4598 0.950 . S
C4610 C4609 1.398 . S
C4610 C4611 1.391 . S
C4611 H4599 0.950 . S
C4611 C4607 1.393 . S
C4611 C4610 1.391 . S
H4612 C4620 0.950 . S
H4613 C4625 0.950 . S
H4614 C4622 0.950 . S
H4615 C4624 0.950 . S
H4616 C4626 0.950 . S
H4617 C4628 0.950 . S
H4618 C4630 0.950 . S
H4619 C4631 0.950 . S
C4620 H4612 0.950 . S
C4620 C4621 1.386 . S
C4620 C4622 1.391 . S
C4621 C4620 1.386 . S
C4621 C4625 1.393 . S
C4622 H4614 0.950 . S
C4622 C4620 1.391 . S
C4622 C4623 1.400 . S
C4623 C4622 1.400 . S
C4623 C4624 1.398 . S
C4623 C4629 1.491 . S
C4624 H4615 0.950 . S
C4624 C4623 1.398 . S
C4624 C4625 1.391 . S
C4625 H4613 0.950 . S
C4625 C4621 1.393 . S
C4625 C4624 1.391 . S
C4626 H4616 0.950 . S
C4626 C4627 1.386 . S
C4626 C4628 1.391 . S
C4627 C4626 1.386 . S
C4627 C4631 1.393 . S
C4628 H4617 0.950 . S
C4628 C4626 1.391 . S
C4628 C4629 1.400 . S
C4629 C4623 1.491 . S
C4629 C4628 1.400 . S
C4629 C4630 1.398 . S
C4630 H4618 0.950 . S
C4630 C4629 1.398 . S
C4630 C4631 1.391 . S
C4631 H4619 0.950 . S
C4631 C4627 1.393 . S
C4631 C4630 1.391 . S
H4632 C4640 0.950 . S
H4633 C4645 0.950 . S
H4634 C4642 0.950 . S
H4635 C4644 0.950 . S
H4636 C4646 0.950 . S
H4637 C4648 0.950 . S
H4638 C4650 0.950 . S
H4639 C4651 0.950 . S
C4640 H4632 0.950 . S
C4640 C4641 1.386 . S
C4640 C4642 1.391 . S
C4641 C4640 1.386 . S
C4641 C4645 1.393 . S
C4642 H4634 0.950 . S
C4642 C4640 1.391 . S
C4642 C4643 1.400 . S
C4643 C4642 1.400 . S
C4643 C4644 1.398 . S
C4643 C4649 1.491 . S
C4644 H4635 0.950 . S
C4644 C4643 1.398 . S
C4644 C4645 1.391 . S
C4645 H4633 0.950 . S
C4645 C4641 1.393 . S
C4645 C4644 1.391 . S
C4646 H4636 0.950 . S
C4646 C4647 1.386 . S
C4646 C4648 1.391 . S
C4647 C4646 1.386 . S
C4647 C4651 1.393 . S
C4648 H4637 0.950 . S
C4648 C4646 1.391 . S
C4648 C4649 1.400 . S
C4649 C4643 1.491 . S
C4649 C4648 1.400 . S
C4649 C4650 1.398 . S
C4650 H4638 0.950 . S
C4650 C4649 1.398 . S
C4650 C4651 1.391 . S
C4651 H4639 0.950 . S
C4651 C4647 1.393 . S
C4651 C4650 1.391 . S
H4652 C4660 0.950 . S
H4653 C4665 0.950 . S
H4654 C4662 0.950 . S
H4655 C4664 0.950 . S
H4656 C4666 0.950 . S
H4657 C4668 0.950 . S
H4658 C4670 0.950 . S
H4659 C4671 0.950 . S
C4660 H4652 0.950 . S
C4660 C4661 1.386 . S
C4660 C4662 1.391 . S
C4661 C4660 1.386 . S
C4661 C4665 1.393 . S
C4662 H4654 0.950 . S
C4662 C4660 1.391 . S
C4662 C4663 1.400 . S
C4663 C4662 1.400 . S
C4663 C4664 1.398 . S
C4663 C4669 1.491 . S
C4664 H4655 0.950 . S
C4664 C4663 1.398 . S
C4664 C4665 1.391 . S
C4665 H4653 0.950 . S
C4665 C4661 1.393 . S
C4665 C4664 1.391 . S
C4666 H4656 0.950 . S
C4666 C4667 1.386 . S
C4666 C4668 1.391 . S
C4667 C4666 1.386 . S
C4667 C4671 1.393 . S
C4668 H4657 0.950 . S
C4668 C4666 1.391 . S
C4668 C4669 1.400 . S
C4669 C4663 1.491 . S
C4669 C4668 1.400 . S
C4669 C4670 1.398 . S
C4670 H4658 0.950 . S
C4670 C4669 1.398 . S
C4670 C4671 1.391 . S
C4671 H4659 0.950 . S
C4671 C4667 1.393 . S
C4671 C4670 1.391 . S
H4672 C4680 0.950 . S
H4673 C4685 0.950 . S
H4674 C4682 0.950 . S
H4675 C4684 0.950 . S
H4676 C4686 0.950 . S
H4677 C4688 0.950 . S
H4678 C4690 0.950 . S
H4679 C4691 0.950 . S
C4680 H4672 0.950 . S
C4680 C4681 1.386 . S
C4680 C4682 1.391 . S
C4681 C4680 1.386 . S
C4681 C4685 1.393 . S
C4682 H4674 0.950 . S
C4682 C4680 1.391 . S
C4682 C4683 1.400 . S
C4683 C4682 1.400 . S
C4683 C4684 1.398 . S
C4683 C4689 1.491 . S
C4684 H4675 0.950 . S
C4684 C4683 1.398 . S
C4684 C4685 1.391 . S
C4685 H4673 0.950 . S
C4685 C4681 1.393 . S
C4685 C4684 1.391 . S
C4686 H4676 0.950 . S
C4686 C4687 1.386 . S
C4686 C4688 1.391 . S
C4687 C4686 1.386 . S
C4687 C4691 1.393 . S
C4688 H4677 0.950 . S
C4688 C4686 1.391 . S
C4688 C4689 1.400 . S
C4689 C4683 1.491 . S
C4689 C4688 1.400 . S
C4689 C4690 1.398 . S
C4690 H4678 0.950 . S
C4690 C4689 1.398 . S
C4690 C4691 1.391 . S
C4691 H4679 0.950 . S
C4691 C4687 1.393 . S
C4691 C4690 1.391 . S
H4692 C4700 0.950 . S
H4693 C4705 0.950 . S
H4694 C4702 0.950 . S
H4695 C4704 0.950 . S
H4696 C4706 0.950 . S
H4697 C4708 0.950 . S
H4698 C4710 0.950 . S
H4699 C4711 0.950 . S
C4700 H4692 0.950 . S
C4700 C4701 1.386 . S
C4700 C4702 1.391 . S
C4701 C4700 1.386 . S
C4701 C4705 1.393 . S
C4702 H4694 0.950 . S
C4702 C4700 1.391 . S
C4702 C4703 1.400 . S
C4703 C4702 1.400 . S
C4703 C4704 1.398 . S
C4703 C4709 1.491 . S
C4704 H4695 0.950 . S
C4704 C4703 1.398 . S
C4704 C4705 1.391 . S
C4705 H4693 0.950 . S
C4705 C4701 1.393 . S
C4705 C4704 1.391 . S
C4706 H4696 0.950 . S
C4706 C4707 1.386 . S
C4706 C4708 1.391 . S
C4707 C4706 1.386 . S
C4707 C4711 1.393 . S
C4708 H4697 0.950 . S
C4708 C4706 1.391 . S
C4708 C4709 1.400 . S
C4709 C4703 1.491 . S
C4709 C4708 1.400 . S
C4709 C4710 1.398 . S
C4710 H4698 0.950 . S
C4710 C4709 1.398 . S
C4710 C4711 1.391 . S
C4711 H4699 0.950 . S
C4711 C4707 1.393 . S
C4711 C4710 1.391 . S
H4712 C4720 0.950 . S
H4713 C4725 0.950 . S
H4714 C4722 0.950 . S
H4715 C4724 0.950 . S
H4716 C4726 0.950 . S
H4717 C4728 0.950 . S
H4718 C4730 0.950 . S
H4719 C4731 0.950 . S
C4720 H4712 0.950 . S
C4720 C4721 1.386 . S
C4720 C4722 1.391 . S
C4721 C4720 1.386 . S
C4721 C4725 1.393 . S
C4722 H4714 0.950 . S
C4722 C4720 1.391 . S
C4722 C4723 1.400 . S
C4723 C4722 1.400 . S
C4723 C4724 1.398 . S
C4723 C4729 1.491 . S
C4724 H4715 0.950 . S
C4724 C4723 1.398 . S
C4724 C4725 1.391 . S
C4725 H4713 0.950 . S
C4725 C4721 1.393 . S
C4725 C4724 1.391 . S
C4726 H4716 0.950 . S
C4726 C4727 1.386 . S
C4726 C4728 1.391 . S
C4727 C4726 1.386 . S
C4727 C4731 1.393 . S
C4728 H4717 0.950 . S
C4728 C4726 1.391 . S
C4728 C4729 1.400 . S
C4729 C4723 1.491 . S
C4729 C4728 1.400 . S
C4729 C4730 1.398 . S
C4730 H4718 0.950 . S
C4730 C4729 1.398 . S
C4730 C4731 1.391 . S
C4731 H4719 0.950 . S
C4731 C4727 1.393 . S
C4731 C4730 1.391 . S
H4732 C4740 0.950 . S
H4733 C4745 0.950 . S
H4734 C4742 0.950 . S
H4735 C4744 0.950 . S
H4736 C4746 0.950 . S
H4737 C4748 0.950 . S
H4738 C4750 0.950 . S
H4739 C4751 0.950 . S
C4740 H4732 0.950 . S
C4740 C4741 1.386 . S
C4740 C4742 1.391 . S
C4741 C4740 1.386 . S
C4741 C4745 1.393 . S
C4742 H4734 0.950 . S
C4742 C4740 1.391 . S
C4742 C4743 1.400 . S
C4743 C4742 1.400 . S
C4743 C4744 1.398 . S
C4743 C4749 1.491 . S
C4744 H4735 0.950 . S
C4744 C4743 1.398 . S
C4744 C4745 1.391 . S
C4745 H4733 0.950 . S
C4745 C4741 1.393 . S
C4745 C4744 1.391 . S
C4746 H4736 0.950 . S
C4746 C4747 1.386 . S
C4746 C4748 1.391 . S
C4747 C4746 1.386 . S
C4747 C4751 1.393 . S
C4748 H4737 0.950 . S
C4748 C4746 1.391 . S
C4748 C4749 1.400 . S
C4749 C4743 1.491 . S
C4749 C4748 1.400 . S
C4749 C4750 1.398 . S
C4750 H4738 0.950 . S
C4750 C4749 1.398 . S
C4750 C4751 1.391 . S
C4751 H4739 0.950 . S
C4751 C4747 1.393 . S
C4751 C4750 1.391 . S
C1401 C5 2.033 . S
C1407 C208 2.019 . S
C1421 C34 2.001 . S
C1427 C121 2.017 . S
C1441 C150 2.032 . S
C1447 C63 2.022 . S
C1461 C92 2.021 . S
C1467 C179 2.001 . S
C1481 C237 2.021 . S
C1487 C585 2.032 . S
C1501 C266 2.003 . S
C1507 C498 2.012 . S
C1521 C527 2.033 . S
C1527 C295 2.016 . S
C1541 C556 2.002 . S
C1547 C324 2.014 . S
C1561 C672 2.003 . S
C1567 C353 2.011 . S
C1581 C614 2.001 . S
C1587 C382 2.019 . S
C1601 C411 2.001 . S
C1607 C643 2.017 . S
C1621 C440 2.033 . S
C1627 C469 2.019 . S
C1641 C701 2.006 . S
C1647 C904 2.007 . S
C1661 C817 2.001 . S
C1667 C730 2.016 . S
C1681 C846 2.033 . S
C1687 C759 2.019 . S
C1701 C788 2.033 . S
C1707 C875 2.013 . S
C1721 C933 2.032 . S
C1727 C1281 2.009 . S
C1741 C1194 2.002 . S
C1747 C962 2.024 . S
C1761 C1223 2.010 . S
C1767 C991 2.004 . S
C1781 C1252 2.031 . S
C1787 C1020 2.008 . S
C1801 C1049 2.002 . S
C1807 C1368 2.013 . S
C1821 C1078 2.029 . S
C1827 C1310 2.026 . S
C1841 C1107 2.008 . S
C1847 C1339 2.031 . S
C1861 C1136 2.032 . S
C1867 C1165 2.021 . S
C1881 C13 1.535 . S
C1887 C670 1.714 . S
C1901 C612 1.720 . S
C1907 C42 1.537 . S
C1921 C641 1.720 . S
C1927 C71 1.541 . S
C1941 C467 1.714 . S
C1947 C100 1.535 . S
C1961 C129 1.569 . S
C1967 C583 1.716 . S
C1981 C496 1.715 . S
C1987 C158 1.568 . S
C2001 C187 1.541 . S
C2007 C525 1.713 . S
C2021 C216 1.562 . S
C2027 C554 1.719 . S
C2041 C322 1.719 . S
C2047 C245 1.535 . S
C2061 C235 1.720 . S
C2067 C274 1.537 . S
C2081 C303 1.533 . S
C2087 C264 1.715 . S
C2101 C293 1.714 . S
C2107 C332 1.536 . S
C2121 C380 1.712 . S
C2127 C361 1.559 . S
C2141 C390 1.531 . S
C2147 C409 1.717 . S
C2161 C438 1.714 . S
C2167 C419 1.536 . S
C2181 C351 1.713 . S
C2187 C448 1.565 . S
C2201 C477 1.549 . S
C2207 C148 1.721 . S
C2221 C506 1.535 . S
C2227 C90 1.714 . S
C2241 C3 1.712 . S
C2247 C535 1.559 . S
C2261 C564 1.569 . S
C2267 C32 1.715 . S
C2281 C61 1.713 . S
C2287 C593 1.563 . S
C2301 C206 1.716 . S
C2307 C622 1.531 . S
C2321 C651 1.561 . S
C2327 C119 1.712 . S
C2341 C680 1.567 . S
C2347 C177 1.718 . S
C2361 C709 1.547 . S
C2367 C1366 1.721 . S
C2381 C738 1.566 . S
C2387 C1308 1.718 . S
C2401 C767 1.565 . S
C2407 C1337 1.713 . S
C2421 C796 1.568 . S
C2427 C1163 1.717 . S
C2441 C825 1.533 . S
C2447 C1279 1.715 . S
C2461 C854 1.532 . S
C2467 C1192 1.718 . S
C2481 C883 1.566 . S
C2487 C1221 1.718 . S
C2501 C912 1.531 . S
C2507 C1250 1.718 . S
C2521 C941 1.565 . S
C2527 C1018 1.713 . S
C2541 C931 1.712 . S
C2547 C970 1.558 . S
C2561 C999 1.559 . S
C2567 C960 1.712 . S
C2581 C1028 1.541 . S
C2587 C989 1.720 . S
C2601 C1057 1.536 . S
C2607 C1076 1.714 . S
C2621 C1105 1.712 . S
C2627 C1086 1.561 . S
C2641 C1134 1.720 . S
C2647 C1115 1.539 . S
C2661 C1047 1.720 . S
C2667 C1144 1.538 . S
C2681 C844 1.712 . S
C2687 C1173 1.552 . S
C2701 C786 1.717 . S
C2707 C1202 1.568 . S
C2721 C699 1.718 . S
C2727 C1231 1.565 . S
C2741 C728 1.715 . S
C2747 C1260 1.532 . S
C2761 C1289 1.536 . S
C2767 C757 1.714 . S
C2781 C1318 1.567 . S
C2787 C902 1.714 . S
C2801 C1347 1.536 . S
C2807 C815 1.714 . S
C2821 C873 1.720 . S
C2827 C1376 1.539 . S
C2841 C1025 2.209 . S
C2847 C21 2.007 . S
C2861 C938 2.210 . S
C2867 C50 2.007 . S
C2881 C79 1.977 . S
C2887 C967 2.216 . S
C2901 C108 2.004 . S
C2907 C996 2.209 . S
C2921 C1083 2.213 . S
C2927 C137 2.000 . S
C2941 C166 2.003 . S
C2947 C1112 2.209 . S
C2961 C1141 2.209 . S
C2967 C195 2.001 . S
C2981 C224 1.986 . S
C2987 C1054 2.212 . S
C3001 C253 1.977 . S
C3007 C851 2.216 . S
C3021 C282 1.978 . S
C3027 C880 2.216 . S
C3041 C909 2.214 . S
C3047 C311 1.980 . S
C3061 C340 1.977 . S
C3067 C822 2.215 . S
C3081 C369 2.002 . S
C3087 C793 2.209 . S
C3101 C398 1.989 . S
C3107 C706 2.211 . S
C3121 C735 2.211 . S
C3127 C427 1.991 . S
C3141 C764 2.211 . S
C3147 C456 2.005 . S
C3161 C1373 2.214 . S
C3167 C485 1.994 . S
C3181 C514 1.995 . S
C3187 C1286 2.214 . S
C3201 C1199 2.215 . S
C3207 C543 1.977 . S
C3221 C572 1.979 . S
C3227 C1228 2.216 . S
C3241 C601 1.978 . S
C3247 C1257 2.216 . S
C3261 C1344 2.214 . S
C3267 C630 1.993 . S
C3281 C1170 2.210 . S
C3287 C659 1.996 . S
C3301 C1315 2.211 . S
C3307 C688 2.004 . S
C3321 C329 2.211 . S
C3327 C717 2.005 . S
C3341 C242 2.210 . S
C3347 C746 1.993 . S
C3361 C271 2.216 . S
C3367 C775 1.979 . S
C3381 C804 1.987 . S
C3387 C300 2.215 . S
C3401 C833 1.977 . S
C3407 C387 2.215 . S
C3421 C862 1.977 . S
C3427 C416 2.216 . S
C3441 C891 1.983 . S
C3447 C445 2.213 . S
C3461 C920 1.991 . S
C3467 C358 2.211 . S
C3481 C155 2.215 . S
C3487 C949 1.977 . S
C3501 C184 2.215 . S
C3507 C978 1.991 . S
C3521 C1007 2.007 . S
C3527 C213 2.210 . S
C3541 C126 2.210 . S
C3547 C1036 1.992 . S
C3561 C97 2.216 . S
C3567 C1065 1.979 . S
C3581 C10 2.211 . S
C3587 C1094 2.004 . S
C3601 C1123 1.986 . S
C3607 C39 2.216 . S
C3621 C68 2.215 . S
C3627 C1152 1.977 . S
C3641 C1181 1.987 . S
C3647 C677 2.211 . S
C3661 C1210 1.982 . S
C3667 C590 2.213 . S
C3681 C1239 2.004 . S
C3687 C503 2.211 . S
C3701 C532 2.211 . S
C3707 C1268 1.990 . S
C3721 C561 2.216 . S
C3727 C1297 1.978 . S
C3741 C1326 1.990 . S
C3747 C648 2.211 . S
C3761 C1355 2.005 . S
C3767 C474 2.209 . S
C3781 C619 2.213 . S
C3787 C1384 1.982 . S
C3801 C1313 0.888 . S
C3807 C15 0.927 . S
C3821 C44 0.908 . S
C3827 C1342 0.921 . S
C3841 C1168 0.910 . S
C3847 C73 0.904 . S
C3861 C102 0.924 . S
C3867 C1371 0.878 . S
C3881 C1255 0.878 . S
C3887 C131 0.926 . S
C3901 C160 0.912 . S
C3907 C1284 0.891 . S
C3921 C189 0.903 . S
C3927 C1197 0.916 . S
C3941 C1226 0.900 . S
C3947 C218 0.923 . S
C3961 C820 0.898 . S
C3967 C247 0.908 . S
C3981 C849 0.921 . S
C3987 C276 0.905 . S
C4001 C878 0.878 . S
C4007 C305 0.926 . S
C4021 C907 0.896 . S
C4027 C334 0.925 . S
C4041 C704 0.895 . S
C4047 C363 0.925 . S
C4061 C392 0.911 . S
C4067 C733 0.919 . S
C4081 C762 0.920 . S
C4087 C421 0.904 . S
C4101 C791 0.912 . S
C4107 C450 0.917 . S
C4121 C479 0.917 . S
C4127 C1110 0.913 . S
C4141 C994 0.904 . S
C4147 C508 0.906 . S
C4161 C537 0.909 . S
C4167 C1023 0.921 . S
C4181 C936 0.882 . S
C4187 C566 0.918 . S
C4201 C965 0.886 . S
C4207 C595 0.927 . S
C4221 C624 0.926 . S
C4227 C1052 0.892 . S
C4241 C1081 0.913 . S
C4247 C653 0.904 . S
C4261 C682 0.923 . S
C4267 C1139 0.878 . S
C4281 C711 0.926 . S
C4287 C617 0.892 . S
C4301 C646 0.918 . S
C4307 C740 0.912 . S
C4321 C769 0.904 . S
C4327 C472 0.911 . S
C4341 C675 0.878 . S
C4347 C798 0.923 . S
C4361 C559 0.915 . S
C4367 C827 0.915 . S
C4381 C588 0.893 . S
C4387 C856 0.926 . S
C4401 C501 0.881 . S
C4407 C885 0.919 . S
C4421 C530 0.878 . S
C4427 C914 0.924 . S
C4441 C124 0.921 . S
C4447 C943 0.907 . S
C4461 C153 0.919 . S
C4467 C972 0.904 . S
C4481 C182 0.918 . S
C4487 C1001 0.913 . S
C4501 C1030 0.923 . S
C4507 C211 0.878 . S
C4521 C1059 0.906 . S
C4527 C8 0.904 . S
C4541 C1088 0.927 . S
C4547 C37 0.880 . S
C4561 C66 0.887 . S
C4567 C1117 0.915 . S
C4581 C1146 0.906 . S
C4587 C95 0.904 . S
C4601 C1175 0.927 . S
C4607 C414 0.881 . S
C4621 C1204 0.920 . S
C4627 C298 0.880 . S
C4641 C1233 0.927 . S
C4647 C327 0.890 . S
C4661 C1262 0.908 . S
C4667 C240 0.899 . S
C4681 C1291 0.923 . S
C4687 C269 0.878 . S
C4701 C1320 0.912 . S
C4707 C356 0.918 . S
C4721 C385 0.895 . S
C4727 C1349 0.925 . S
C4741 C1378 0.927 . S
C4747 C443 0.887 . S
