# Generated by pormake.
# Topology vbe, (5)-cn, num edge types: 1
# Building blocks:
#     Node 0, Type 0, BuildingBlock: XOMCOT_clean_sbu_0, # of connection points: 5
#     Node 1, Type 0, BuildingBlock: XOMCOT_clean_sbu_0, # of connection points: 5
#     Node 2, Type 0, BuildingBlock: XOMCOT_clean_sbu_0, # of connection points: 5
#     Node 3, Type 0, BuildingBlock: XOMCOT_clean_sbu_0, # of connection points: 5
#     Node 4, Type 0, BuildingBlock: XOMCOT_clean_sbu_0, # of connection points: 5
#     Node 5, Type 0, BuildingBlock: XOMCOT_clean_sbu_0, # of connection points: 5
#     Node 6, Type 0, BuildingBlock: XOMCOT_clean_sbu_0, # of connection points: 5
#     Node 7, Type 0, BuildingBlock: XOMCOT_clean_sbu_0, # of connection points: 5
#     Node 8, Type 0, BuildingBlock: XOMCOT_clean_sbu_0, # of connection points: 5
#     Node 9, Type 0, BuildingBlock: XOMCOT_clean_sbu_0, # of connection points: 5
#     Node 10, Type 0, BuildingBlock: XOMCOT_clean_sbu_0, # of connection points: 5
#     Node 11, Type 0, BuildingBlock: XOMCOT_clean_sbu_0, # of connection points: 5
#     Node 12, Type 0, BuildingBlock: XOMCOT_clean_sbu_0, # of connection points: 5
#     Node 13, Type 0, BuildingBlock: XOMCOT_clean_sbu_0, # of connection points: 5
#     Node 14, Type 0, BuildingBlock: XOMCOT_clean_sbu_0, # of connection points: 5
#     Node 15, Type 0, BuildingBlock: XOMCOT_clean_sbu_0, # of connection points: 5
#     Edge 16, Type (0, 0), BuildingBlock: AJUNOK_clean_linker_0, # of connection points: 2
#     Edge 17, Type (0, 0), BuildingBlock: AJUNOK_clean_linker_0, # of connection points: 2
#     Edge 18, Type (0, 0), BuildingBlock: AJUNOK_clean_linker_0, # of connection points: 2
#     Edge 19, Type (0, 0), BuildingBlock: AJUNOK_clean_linker_0, # of connection points: 2
#     Edge 20, Type (0, 0), BuildingBlock: AJUNOK_clean_linker_0, # of connection points: 2
#     Edge 21, Type (0, 0), BuildingBlock: AJUNOK_clean_linker_0, # of connection points: 2
#     Edge 22, Type (0, 0), BuildingBlock: AJUNOK_clean_linker_0, # of connection points: 2
#     Edge 23, Type (0, 0), BuildingBlock: AJUNOK_clean_linker_0, # of connection points: 2
#     Edge 24, Type (0, 0), BuildingBlock: AJUNOK_clean_linker_0, # of connection points: 2
#     Edge 25, Type (0, 0), BuildingBlock: AJUNOK_clean_linker_0, # of connection points: 2
#     Edge 26, Type (0, 0), BuildingBlock: AJUNOK_clean_linker_0, # of connection points: 2
#     Edge 27, Type (0, 0), BuildingBlock: AJUNOK_clean_linker_0, # of connection points: 2
#     Edge 28, Type (0, 0), BuildingBlock: AJUNOK_clean_linker_0, # of connection points: 2
#     Edge 29, Type (0, 0), BuildingBlock: AJUNOK_clean_linker_0, # of connection points: 2
#     Edge 30, Type (0, 0), BuildingBlock: AJUNOK_clean_linker_0, # of connection points: 2
#     Edge 31, Type (0, 0), BuildingBlock: AJUNOK_clean_linker_0, # of connection points: 2
#     Edge 32, Type (0, 0), BuildingBlock: AJUNOK_clean_linker_0, # of connection points: 2
#     Edge 33, Type (0, 0), BuildingBlock: AJUNOK_clean_linker_0, # of connection points: 2
#     Edge 34, Type (0, 0), BuildingBlock: AJUNOK_clean_linker_0, # of connection points: 2
#     Edge 35, Type (0, 0), BuildingBlock: AJUNOK_clean_linker_0, # of connection points: 2
#     Edge 36, Type (0, 0), BuildingBlock: AJUNOK_clean_linker_0, # of connection points: 2
#     Edge 37, Type (0, 0), BuildingBlock: AJUNOK_clean_linker_0, # of connection points: 2
#     Edge 38, Type (0, 0), BuildingBlock: AJUNOK_clean_linker_0, # of connection points: 2
#     Edge 39, Type (0, 0), BuildingBlock: AJUNOK_clean_linker_0, # of connection points: 2
#     Edge 40, Type (0, 0), BuildingBlock: AJUNOK_clean_linker_0, # of connection points: 2
#     Edge 41, Type (0, 0), BuildingBlock: AJUNOK_clean_linker_0, # of connection points: 2
#     Edge 42, Type (0, 0), BuildingBlock: AJUNOK_clean_linker_0, # of connection points: 2
#     Edge 43, Type (0, 0), BuildingBlock: AJUNOK_clean_linker_0, # of connection points: 2
#     Edge 44, Type (0, 0), BuildingBlock: AJUNOK_clean_linker_0, # of connection points: 2
#     Edge 45, Type (0, 0), BuildingBlock: AJUNOK_clean_linker_0, # of connection points: 2
#     Edge 46, Type (0, 0), BuildingBlock: AJUNOK_clean_linker_0, # of connection points: 2
#     Edge 47, Type (0, 0), BuildingBlock: AJUNOK_clean_linker_0, # of connection points: 2
#     Edge 48, Type (0, 0), BuildingBlock: AJUNOK_clean_linker_0, # of connection points: 2
#     Edge 49, Type (0, 0), BuildingBlock: AJUNOK_clean_linker_0, # of connection points: 2
#     Edge 50, Type (0, 0), BuildingBlock: AJUNOK_clean_linker_0, # of connection points: 2
#     Edge 51, Type (0, 0), BuildingBlock: AJUNOK_clean_linker_0, # of connection points: 2
#     Edge 52, Type (0, 0), BuildingBlock: AJUNOK_clean_linker_0, # of connection points: 2
#     Edge 53, Type (0, 0), BuildingBlock: AJUNOK_clean_linker_0, # of connection points: 2
#     Edge 54, Type (0, 0), BuildingBlock: AJUNOK_clean_linker_0, # of connection points: 2
#     Edge 55, Type (0, 0), BuildingBlock: AJUNOK_clean_linker_0, # of connection points: 2
# Relax obj value: 0.342
# Max RMSD: 0.249
# Mean RMSD: 0.249
data_MOF--net-vbe--node1-XOMCOT_clean_sbu_0--edge1-AJUNOK_clean_linker_0
_symmetry_space_group_name_H-M    P1
_symmetry_Int_Tables_number       1
_symmetry_cell_setting            triclinic
loop_
_symmetry_equiv_pos_as_xyz
'x, y, z'
_cell_length_a     36.525388
_cell_length_b     28.099943
_cell_length_c     42.244151
_cell_angle_alpha  89.977221
_cell_angle_beta   90.079923
_cell_angle_gamma 90.066181
loop_
_atom_site_label
_atom_site_type_symbol
_atom_site_fract_x
_atom_site_fract_y
_atom_site_fract_z
_atom_type_partial_charge
Co0 Co 0.07409 0.08754 0.36488 0.0
C1 C 0.05214 0.02983 0.41856 0.0
C2 C 1.00982 0.03165 0.38339 0.0
C3 C 0.99568 0.01199 0.4106 0.0
N4 N 0.04538 0.04225 0.38831 0.0
N5 N 0.02221 0.0118 0.43285 0.0
H6 H 0.07713 0.0389 0.43094 0.0
H7 H 0.99442 0.04127 0.36246 0.0
C8 C 0.04742 0.01796 0.313 0.0
O9 O 0.04379 0.9815 0.3322 0.0
N10 N 0.10291 0.1339 0.34258 0.0
C11 C 0.1305 0.16045 0.35444 0.0
C12 C 0.14163 0.19226 0.3317 0.0
C13 C 0.09736 0.15012 0.31308 0.0
N14 N 0.1208 0.18542 0.30575 0.0
C15 C 0.14127 0.06423 0.39592 0.0
C16 C 0.1665 -0.00097 0.35241 0.0
C17 C 0.19125 0.01705 0.37493 0.0
C18 C 0.17758 0.04887 0.39759 0.0
C19 C 0.13083 0.01705 0.35066 0.0
N20 N 0.11883 0.05055 0.37166 0.0
H21 H 0.13215 0.08996 0.4131 0.0
H22 H 0.1139 0.00491 0.33156 0.0
H23 H 0.14076 0.15856 0.37839 0.0
H24 H 0.07606 0.13734 0.29752 0.0
O25 O 0.07532 0.12903 0.40192 0.0
O26 O 0.03299 0.13034 0.3644 0.0
O27 O 0.06172 0.05694 0.32269 0.0
C28 C 0.0458 0.14833 0.3904 0.0
H29 H 0.96751 0.00139 0.41422 0.0
H30 H 0.1621 0.21979 0.33461 0.0
H31 H 0.17469 0.97211 0.33556 0.0
H32 H 0.19512 0.06378 0.41573 0.0
Co33 Co 0.46617 0.90106 0.36955 0.0
C34 C 0.48557 0.96019 0.42334 0.0
C35 C 0.52963 0.95715 0.38993 0.0
C36 C 0.54255 0.97706 0.41759 0.0
N37 N 0.49383 0.94681 0.39359 0.0
N38 N 0.51481 0.9783 0.4386 0.0
H39 H 0.46 0.95165 0.43489 0.0
H40 H 0.54598 0.94689 0.36973 0.0
C41 C 0.49361 0.97062 0.31831 0.0
O42 O 0.49377 0.00816 0.3368 0.0
N43 N 0.43828 0.8545 0.34666 0.0
C44 C 0.41031 0.82844 0.35822 0.0
C45 C 0.39901 0.7971 0.33532 0.0
C46 C 0.44389 0.83859 0.31708 0.0
N47 N 0.41997 0.80389 0.30949 0.0
C48 C 0.3985 0.92625 0.39891 0.0
C49 C 0.37315 0.98709 0.35265 0.0
C50 C 0.34843 0.97124 0.37586 0.0
C51 C 0.36213 0.94151 0.39977 0.0
C52 C 0.40885 0.96904 0.35175 0.0
N53 N 0.42109 0.9381 0.37438 0.0
H54 H 0.40755 0.90202 0.41708 0.0
H55 H 0.42551 0.97883 0.33193 0.0
H56 H 0.39965 0.83074 0.382 0.0
H57 H 0.46524 0.85156 0.30157 0.0
O58 O 0.46314 0.86008 0.40678 0.0
O59 O 0.50713 0.85808 0.3709 0.0
O60 O 0.48078 0.93079 0.3278 0.0
C61 C 0.49293 0.8402 0.39636 0.0
H62 H 0.57066 0.98675 0.42257 0.0
H63 H 0.37802 0.77018 0.33795 0.0
H64 H 0.36493 0.01224 0.33462 0.0
H65 H 0.34458 0.92809 0.41837 0.0
Co66 Co 0.57382 0.89386 0.13684 0.0
C67 C 0.55547 0.956 0.08429 0.0
C68 C 0.51194 0.95447 0.11817 0.0
C69 C 0.49932 0.97607 0.09092 0.0
N70 N 0.54734 0.9423 0.11403 0.0
N71 N 0.52671 0.97612 0.06962 0.0
H72 H 0.58057 0.94714 0.07231 0.0
H73 H 0.49548 0.94423 0.13833 0.0
C74 C 0.55153 0.96383 0.1897 0.0
O75 O 0.54939 0.00023 0.1703 0.0
N76 N 0.60035 0.84459 0.15819 0.0
C77 C 0.6303 0.82178 0.1475 0.0
C78 C 0.64034 0.78813 0.16941 0.0
C79 C 0.59197 0.82399 0.18589 0.0
N80 N 0.61647 0.79014 0.19371 0.0
C81 C 0.63996 0.92158 0.10521 0.0
C82 C 0.67087 0.97174 0.15471 0.0
C83 C 0.69159 0.96385 0.12741 0.0
C84 C 0.67574 0.93869 0.10238 0.0
C85 C 0.6354 0.95321 0.15687 0.0
N86 N 0.62003 0.92865 0.13221 0.0
H87 H 0.6291 0.90039 0.0861 0.0
H88 H 0.62162 0.95687 0.17915 0.0
H89 H 0.64351 0.82834 0.12505 0.0
H90 H 0.56825 0.83323 0.19981 0.0
O91 O 0.5747 0.85465 0.09876 0.0
O92 O 0.53124 0.85345 0.13518 0.0
O93 O 0.56198 0.92309 0.17963 0.0
C94 C 0.54428 0.83613 0.10907 0.0
H95 H 0.47135 0.98654 0.08605 0.0
H96 H 0.66287 0.76341 0.1672 0.0
H97 H 0.68265 0.99011 0.17485 0.0
H98 H 0.69117 0.93141 0.08104 0.0
Co99 Co 0.96163 0.09145 0.13247 0.0
C100 C 0.9804 0.02884 0.08019 0.0
C101 C 0.02476 0.03377 0.11323 0.0
C102 C 0.03716 0.01146 0.08623 0.0
N103 N 0.98903 0.04435 0.10941 0.0
N104 N 1.0091 0.00859 0.06553 0.0
H105 H 0.95517 0.03742 0.06824 0.0
H106 H 0.04141 0.04528 0.133 0.0
C107 C 0.9869 0.02202 0.18433 0.0
O108 O 0.98637 0.98511 0.16528 0.0
N109 N 0.93391 0.13919 0.15423 0.0
C110 C 0.90544 0.16389 0.14219 0.0
C111 C 0.89434 0.19682 0.16418 0.0
C112 C 0.93973 0.15701 0.18328 0.0
N113 N 0.91593 0.1921 0.1898 0.0
C114 C 0.89566 0.06136 0.10166 0.0
C115 C 0.86622 0.01171 0.15202 0.0
C116 C 0.84473 0.01951 0.12514 0.0
C117 C 0.85987 0.04409 0.09958 0.0
C118 C 0.90175 0.03026 0.15339 0.0
N119 N 0.9163 0.05476 0.12836 0.0
H120 H 0.90589 0.08253 0.0823 0.0
H121 H 0.91617 0.02705 0.17545 0.0
H122 H 0.89396 0.15894 0.11883 0.0
H123 H 0.96137 0.14567 0.199 0.0
O124 O 0.95916 0.13095 0.09446 0.0
O125 O 1.00302 0.13379 0.13055 0.0
O126 O 0.97562 0.06262 0.17473 0.0
C127 C 0.98921 0.15076 0.10463 0.0
H128 H 0.06517 0.00142 0.08128 0.0
H129 H 0.87221 0.22215 0.1617 0.0
H130 H 0.85494 -0.00634 0.17248 0.0
H131 H 0.84371 0.05132 0.0786 0.0
Co132 Co 0.96068 0.89418 0.63283 0.0
C133 C 0.98092 0.95427 0.57885 0.0
C134 C 0.02205 0.95602 0.61501 0.0
C135 C 0.03554 0.97866 0.58849 0.0
N136 N 0.98764 0.94104 0.60895 0.0
N137 N 1.00944 0.97755 0.56594 0.0
H138 H 0.95746 0.94289 0.56535 0.0
H139 H 0.03736 0.94767 0.63622 0.0
C140 C 0.98359 0.96472 0.68538 0.0
O141 O 0.97741 0.00345 0.66881 0.0
N142 N 0.9343 0.84712 0.6563 0.0
C143 C 0.90073 0.82955 0.65019 0.0
C144 C 0.89133 0.79917 0.67433 0.0
C145 C 0.9453 0.82663 0.68334 0.0
N146 N 0.91929 0.79772 0.69525 0.0
C147 C 0.89575 0.92639 0.60131 0.0
C148 C 0.8622 0.966 0.65357 0.0
C149 C 0.8419 0.96062 0.62562 0.0
C150 C 0.85944 0.94163 0.59907 0.0
C151 C 0.89853 0.94999 0.65492 0.0
N152 N 0.91502 0.93026 0.62898 0.0
H153 H 0.9072 0.90794 0.58131 0.0
H154 H 0.91207 0.95041 0.67756 0.0
H155 H 0.88402 0.83863 0.62996 0.0
H156 H 0.972 0.83255 0.69366 0.0
O157 O 0.95708 0.85311 0.59571 0.0
O158 O 1.00224 0.85245 0.63068 0.0
O159 O 0.97574 0.92375 0.67432 0.0
C160 C 0.98757 0.83407 0.60557 0.0
H161 H 0.06303 -0.0077 0.58535 0.0
H162 H 0.86555 0.78048 0.67664 0.0
H163 H 0.84941 0.9798 0.67479 0.0
H164 H 0.84472 0.93678 0.57702 0.0
Co165 Co 0.57094 0.07488 0.64526 0.0
C166 C 0.54833 0.02134 0.58944 0.0
C167 C 0.5029 0.03268 0.62048 0.0
C168 C 0.48987 0.01499 0.5922 0.0
N169 N 0.53972 0.03598 0.61889 0.0
N170 N 0.51857 0.00808 0.57272 0.0
H171 H 0.57518 0.02534 0.57916 0.0
H172 H 0.48642 0.04544 0.63995 0.0
C173 C 0.5397 0.0023 0.69255 0.0
O174 O 0.52587 0.97472 0.67054 0.0
N175 N 0.60234 0.11492 0.67027 0.0
C176 C 0.63162 0.13988 0.66006 0.0
C177 C 0.64293 0.16973 0.68383 0.0
C178 C 0.59604 0.13016 0.69989 0.0
N179 N 0.62052 0.16341 0.70874 0.0
C180 C 0.6355 0.05529 0.60902 0.0
C181 C 0.66292 0.98466 0.64787 0.0
C182 C 0.68595 0.00515 0.62517 0.0
C183 C 0.67157 0.03982 0.60495 0.0
C184 C 0.62718 0.00182 0.65161 0.0
N185 N 0.61434 0.03825 0.63319 0.0
H186 H 0.6255 0.08361 0.59408 0.0
H187 H 0.61092 0.98708 0.67044 0.0
H188 H 0.64252 0.13929 0.63635 0.0
H189 H 0.572 0.12079 0.71341 0.0
O190 O 0.57007 0.12498 0.61268 0.0
O191 O 0.53128 0.11784 0.65241 0.0
O192 O 0.56137 0.03634 0.68512 0.0
C193 C 0.5427 0.14272 0.6286 0.0
H194 H 0.46138 0.01045 0.5858 0.0
H195 H 0.66462 0.19594 0.68237 0.0
H196 H 0.67313 0.95745 0.66377 0.0
H197 H 0.68851 0.05608 0.58689 0.0
Co198 Co 0.4581 0.09219 0.86992 0.0
C199 C 0.48129 0.03699 0.92495 0.0
C200 C 0.51683 0.02369 0.88578 0.0
C201 C 0.53161 0.00267 0.91246 0.0
N202 N 0.48482 0.04452 0.8936 0.0
N203 N 0.50912 0.01148 0.93703 0.0
H204 H 0.46067 0.05336 0.93947 0.0
H205 H 0.5302 0.02695 0.86306 0.0
C206 C 0.47452 0.01943 0.81823 0.0
O207 O 0.46182 0.98434 0.8356 0.0
N208 N 0.43128 0.14063 0.84801 0.0
C209 C 0.40066 0.1612 0.85932 0.0
C210 C 0.3898 0.19602 0.83871 0.0
C211 C 0.43909 0.16336 0.82087 0.0
N212 N 0.41382 0.19705 0.81458 0.0
C213 C 0.39453 0.0515 0.90066 0.0
C214 C 0.35789 0.0286 0.84548 0.0
C215 C 0.3394 0.02362 0.87434 0.0
C216 C 0.35862 0.0342 0.90224 0.0
C217 C 0.39396 0.04526 0.84498 0.0
N218 N 0.41221 0.05621 0.87235 0.0
H219 H 0.40681 0.06431 0.92213 0.0
H220 H 0.40607 0.05275 0.82224 0.0
H221 H 0.38751 0.15201 0.88142 0.0
H222 H 0.46259 0.15558 0.80617 0.0
O223 O 0.45465 0.13218 0.90771 0.0
O224 O 0.49987 0.13341 0.87282 0.0
O225 O 0.47315 0.06233 0.82825 0.0
C226 C 0.48546 0.15101 0.89826 0.0
H227 H 0.55815 0.98576 0.91413 0.0
H228 H 0.3666 0.21955 0.84159 0.0
H229 H 0.34398 0.02211 0.82323 0.0
H230 H 0.34569 0.03071 0.92517 0.0
Co231 Co 0.06887 0.89382 0.86669 0.0
C232 C 0.04633 0.95489 0.91904 0.0
C233 C 1.00503 0.95225 0.88312 0.0
C234 C 0.99051 0.9739 0.9096 0.0
N235 N 0.04025 0.94073 0.88903 0.0
N236 N 0.01663 0.975 0.93214 0.0
H237 H 0.07024 0.94571 0.93259 0.0
H238 H 0.99002 0.94197 0.86212 0.0
C239 C 0.04535 0.96159 0.81317 0.0
O240 O 0.04558 -0.00082 0.83164 0.0
N241 N 0.09707 0.84616 0.84548 0.0
C242 C 0.13109 0.83119 0.85302 0.0
C243 C 0.14141 0.79689 0.83166 0.0
C244 C 0.08661 0.82003 0.82049 0.0
N245 N 0.11325 0.79002 0.81166 0.0
C246 C 0.13235 0.93297 0.89782 0.0
C247 C 0.16548 0.96825 0.84396 0.0
C248 C 0.18484 0.96926 0.87255 0.0
C249 C 0.16765 0.9521 0.89983 0.0
C250 C 0.12995 0.94964 0.84305 0.0
N251 N 0.1135 0.93233 0.86981 0.0
H252 H 0.12162 0.91513 0.91838 0.0
H253 H 0.11715 0.94606 0.82022 0.0
H254 H 0.14741 0.84444 0.87245 0.0
H255 H 0.06043 0.82339 0.80872 0.0
O256 O 0.07272 0.85549 0.90506 0.0
O257 O 0.02832 0.85039 0.86945 0.0
O258 O 0.05468 0.92085 0.82397 0.0
C259 C 0.04294 0.83438 0.89532 0.0
H260 H 0.96241 0.98517 0.91264 0.0
H261 H 0.16755 0.77886 0.83052 0.0
H262 H 0.17821 0.98027 0.82222 0.0
H263 H 0.18224 0.9507 0.92215 0.0
Co264 Co 0.56777 0.58826 0.36892 0.0
C265 C 0.54613 0.53022 0.42274 0.0
C266 C 0.5021 0.53668 0.38945 0.0
C267 C 0.48858 0.51703 0.41696 0.0
N268 N 0.53831 0.54444 0.39302 0.0
N269 N 0.5163 0.51377 0.43798 0.0
H270 H 0.57208 0.53678 0.43425 0.0
H271 H 0.48608 0.54808 0.36928 0.0
C272 C 0.53826 0.51958 0.31765 0.0
O273 O 0.53288 0.48454 0.33767 0.0
N274 N 0.59737 0.63312 0.34609 0.0
C275 C 0.62765 0.65558 0.35662 0.0
C276 C 0.63902 0.68721 0.33387 0.0
C277 C 0.59031 0.65183 0.3175 0.0
N278 N 0.61568 0.68434 0.30919 0.0
C279 C 0.6341 0.55966 0.39954 0.0
C280 C 0.65837 0.49778 0.35353 0.0
C281 C 0.68324 0.51283 0.37687 0.0
C282 C 0.67005 0.54287 0.40076 0.0
C283 C 0.62306 0.517 0.35242 0.0
N284 N 0.61153 0.54887 0.37472 0.0
H285 H 0.6255 0.5844 0.41755 0.0
H286 H 0.60614 0.50734 0.33268 0.0
H287 H 0.63987 0.65092 0.37969 0.0
H288 H 0.56666 0.64276 0.30344 0.0
O289 O 0.57154 0.62948 0.40591 0.0
O290 O 0.52814 0.63346 0.36943 0.0
O291 O 0.55364 0.55817 0.32686 0.0
C292 C 0.54255 0.65084 0.39502 0.0
H293 H 0.46021 0.50853 0.4217 0.0
H294 H 0.66176 0.71171 0.33597 0.0
H295 H 0.6663 0.47244 0.33553 0.0
H296 H 0.68781 0.55548 0.41951 0.0
Co297 Co 0.95694 0.39324 0.36557 0.0
C298 C 0.97586 0.45412 0.41869 0.0
C299 C 0.02042 0.44972 0.38584 0.0
C300 C 0.03256 0.47253 0.41274 0.0
N301 N 0.98468 0.439 0.38945 0.0
N302 N 1.00449 0.47484 0.43336 0.0
H303 H 0.95001 0.44648 0.43007 0.0
H304 H 0.03717 0.43843 0.36613 0.0
C305 C 0.98379 0.46388 0.31443 0.0
O306 O 0.98825 0.49952 0.33415 0.0
N307 N 0.92896 0.34646 0.34273 0.0
C308 C 0.9018 0.31862 0.35402 0.0
C309 C 0.89107 0.28761 0.33061 0.0
C310 C 0.93456 0.33187 0.31288 0.0
N311 N 0.91154 0.29654 0.30482 0.0
C312 C 0.88863 0.41344 0.3956 0.0
C313 C 0.86477 0.48282 0.35432 0.0
C314 C 0.83953 0.46331 0.37581 0.0
C315 C 0.85247 0.42926 0.39735 0.0
C316 C 0.90035 0.46455 0.35249 0.0
N317 N 0.91164 0.42902 0.37231 0.0
H318 H 0.89733 0.38634 0.41201 0.0
H319 H 0.91792 0.47844 0.3344 0.0
H320 H 0.89132 0.31936 0.37789 0.0
H321 H 0.95608 0.34506 0.29784 0.0
O322 O 0.95622 0.3513 0.4024 0.0
O323 O 0.99867 0.35147 0.3651 0.0
O324 O 0.96892 0.42496 0.32362 0.0
C325 C 0.98594 0.33262 0.39085 0.0
H326 H 0.06055 0.48266 0.41787 0.0
H327 H 0.87035 0.26017 0.33247 0.0
H328 H 0.85704 0.51128 0.33841 0.0
H329 H 0.83447 0.4132 0.41468 0.0
Co330 Co 0.07093 0.39435 0.13411 0.0
C331 C 0.05125 0.45652 0.0814 0.0
C332 C 1.00801 0.45319 0.11545 0.0
C333 C 0.99503 0.47548 0.08857 0.0
N334 N 0.04346 0.44162 0.11094 0.0
N335 N 0.02245 0.47747 0.06729 0.0
H336 H 0.07572 0.44706 0.06877 0.0
H337 H 0.99182 0.44231 0.13563 0.0
C338 C 0.04566 0.46261 0.1864 0.0
O339 O 0.04922 0.50043 0.16838 0.0
N340 N 0.09854 0.34663 0.15599 0.0
C341 C 0.12878 0.32483 0.14495 0.0
C342 C 0.14067 0.29285 0.16726 0.0
C343 C 0.09219 0.3277 0.18463 0.0
N344 N 0.11777 0.2951 0.1922 0.0
C345 C 0.13595 0.43185 0.10502 0.0
C346 C 0.16638 0.46898 0.15955 0.0
C347 C 0.18709 0.46968 0.13164 0.0
C348 C 0.17118 0.45123 0.10404 0.0
C349 C 0.13101 0.44996 0.1594 0.0
N350 N 0.11581 0.43215 0.13226 0.0
H351 H 0.12603 0.41373 0.08424 0.0
H352 H 0.11732 0.44655 0.18182 0.0
H353 H 0.14109 0.33139 0.12209 0.0
H354 H 0.0695 0.33754 0.19964 0.0
O355 O 0.07556 0.35602 0.09574 0.0
O356 O 0.03028 0.35148 0.13045 0.0
O357 O 0.05499 0.42163 0.17611 0.0
C358 C 0.04525 0.33557 0.10478 0.0
H359 H 0.96702 0.48618 0.08416 0.0
H360 H 0.16377 0.26902 0.16497 0.0
H361 H 0.17808 0.48052 0.18183 0.0
H362 H 0.18634 0.45009 0.08204 0.0
Co363 Co 0.4589 0.59455 0.1361 0.0
C364 C 0.47972 0.53925 0.08065 0.0
C365 C 0.51719 0.52669 0.11869 0.0
C366 C 0.53127 0.50659 0.09146 0.0
N367 N 0.48451 0.54669 0.11188 0.0
N368 N 0.50777 0.51545 0.0676 0.0
H369 H 0.45784 0.55437 0.0669 0.0
H370 H 0.53141 0.53009 0.14103 0.0
C371 C 0.47846 0.52359 0.18889 0.0
O372 O 0.46749 0.48643 0.17256 0.0
N373 N 0.43338 0.64298 0.15898 0.0
C374 C 0.4034 0.66619 0.14866 0.0
C375 C 0.3935 0.69904 0.17105 0.0
C376 C 0.44156 0.66183 0.18731 0.0
N377 N 0.41734 0.69587 0.19535 0.0
C378 C 0.39418 0.55566 0.10693 0.0
C379 C 0.36018 0.5291 0.1626 0.0
C380 C 0.34093 0.52512 0.13408 0.0
C381 C 0.35848 0.53783 0.10594 0.0
C382 C 0.39611 0.54629 0.16248 0.0
N383 N 0.41303 0.55884 0.13482 0.0
H384 H 0.40531 0.57027 0.08551 0.0
H385 H 0.40913 0.55265 0.185 0.0
H386 H 0.38997 0.65995 0.12621 0.0
H387 H 0.46453 0.65082 0.20177 0.0
O388 O 0.45381 0.63415 0.09835 0.0
O389 O 0.50052 0.63565 0.13189 0.0
O390 O 0.4753 0.56549 0.17751 0.0
C391 C 0.48494 0.65304 0.10685 0.0
H392 H 0.55793 0.49025 0.08887 0.0
H393 H 0.37106 0.724 0.16924 0.0
H394 H 0.34711 0.52057 0.1849 0.0
H395 H 0.34392 0.53674 0.08359 0.0
Co396 Co 0.46192 0.40569 0.64257 0.0
C397 C 0.48284 0.4617 0.58755 0.0
C398 C 0.52813 0.45433 0.61945 0.0
C399 C 0.54072 0.47373 0.59151 0.0
N400 N 0.49168 0.44734 0.61702 0.0
N401 N 0.5121 0.47823 0.57155 0.0
H402 H 0.45643 0.45549 0.57679 0.0
H403 H 0.54482 0.44299 0.63923 0.0
C404 C 0.48871 0.47995 0.69052 0.0
O405 O 0.49943 0.51121 0.66941 0.0
N406 N 0.43186 0.36287 0.66675 0.0
C407 C 0.40636 0.33305 0.65489 0.0
C408 C 0.39424 0.30395 0.67866 0.0
C409 C 0.4352 0.35126 0.6975 0.0
N410 N 0.41222 0.31561 0.70543 0.0
C411 C 0.39608 0.41978 0.60667 0.0
C412 C 0.36796 0.49229 0.64348 0.0
C413 C 0.34482 0.46921 0.62194 0.0
C414 C 0.35961 0.43372 0.60256 0.0
C415 C 0.4041 0.47669 0.64725 0.0
N416 N 0.41726 0.43924 0.63002 0.0
H417 H 0.4066 0.39115 0.5923 0.0
H418 H 0.42053 0.49366 0.66513 0.0
H419 H 0.3988 0.33014 0.63027 0.0
H420 H 0.45512 0.36692 0.71336 0.0
O421 O 0.46589 0.35574 0.60993 0.0
O422 O 0.50325 0.36607 0.65034 0.0
O423 O 0.46913 0.44414 0.68264 0.0
C424 C 0.49337 0.33987 0.62672 0.0
H425 H 0.56898 0.48129 0.58568 0.0
H426 H 0.37568 0.2742 0.67584 0.0
H427 H 0.35762 0.52039 0.65856 0.0
H428 H 0.34277 0.4158 0.58511 0.0
Co429 Co 0.07252 0.58781 0.6347 0.0
C430 C 0.05028 0.53275 0.57937 0.0
C431 C 1.00968 0.52931 0.6158 0.0
C432 C 0.99498 0.51064 0.58838 0.0
N433 N 0.04449 0.54291 0.61009 0.0
N434 N 0.02048 0.51376 0.56547 0.0
H435 H 0.07474 0.5423 0.56668 0.0
H436 H 0.99488 0.53652 0.63743 0.0
C437 C 0.04825 0.51599 0.68607 0.0
O438 O 0.05246 0.4777 0.66865 0.0
N439 N 0.09994 0.63304 0.65887 0.0
C440 C 0.13374 0.64999 0.65299 0.0
C441 C 0.1436 0.67954 0.67746 0.0
C442 C 0.08931 0.65301 0.68617 0.0
N443 N 0.1157 0.68107 0.69836 0.0
C444 C 0.1368 0.55613 0.6022 0.0
C445 C 0.16898 0.50931 0.65252 0.0
C446 C 0.18929 0.516 0.62475 0.0
C447 C 0.17258 0.53919 0.59927 0.0
C448 C 0.13332 0.52745 0.65468 0.0
N449 N 0.11746 0.55058 0.62966 0.0
H450 H 0.12584 0.57692 0.58297 0.0
H451 H 0.11983 0.5255 0.67727 0.0
H452 H 0.15022 0.64126 0.63259 0.0
H453 H 0.06253 0.64756 0.69641 0.0
O454 O 0.07613 0.63036 0.59821 0.0
O455 O 0.03155 0.63065 0.63364 0.0
O456 O 0.05756 0.55691 0.67576 0.0
C457 C 0.04577 0.64922 0.60841 0.0
H458 H 0.96689 0.49946 0.58487 0.0
H459 H 0.16952 0.69789 0.6799 0.0
H460 H 0.18132 0.49265 0.67305 0.0
H461 H 0.18756 0.54569 0.57757 0.0
Co462 Co 0.96281 0.58839 0.86662 0.0
C463 C 0.98448 0.52868 0.92 0.0
C464 C 0.02589 0.5292 0.88424 0.0
C465 C 0.0401 0.5083 0.91115 0.0
N466 N 0.99079 0.54159 0.88978 0.0
N467 N 1.01392 0.50854 0.9336 0.0
H468 H 0.96066 0.53887 0.9333 0.0
H469 H 0.04109 0.53849 0.86316 0.0
C470 C 0.98632 0.51946 0.81363 0.0
O471 O 0.98608 0.48198 0.83221 0.0
N472 N 0.93522 0.63593 0.84459 0.0
C473 C 0.9008 0.65055 0.85091 0.0
C474 C 0.89098 0.68409 0.82881 0.0
C475 C 0.9464 0.66166 0.81966 0.0
N476 N 0.91982 0.69094 0.80961 0.0
C477 C 0.89887 0.5507 0.89769 0.0
C478 C 0.86629 0.51335 0.84416 0.0
C479 C 0.8466 0.51284 0.87264 0.0
C480 C 0.86366 0.53134 0.89973 0.0
C481 C 0.9017 0.53229 0.84324 0.0
N482 N 0.9179 0.5505 0.86984 0.0
H483 H 0.90948 0.56909 0.91809 0.0
H484 H 0.91456 0.53547 0.82043 0.0
H485 H 0.88378 0.63737 0.86988 0.0
H486 H 0.97302 0.65833 0.8087 0.0
O487 O 0.95908 0.62779 0.90455 0.0
O488 O 1.00373 0.63112 0.86918 0.0
O489 O 0.97706 0.56027 0.82428 0.0
C490 C 0.98929 0.64785 0.89486 0.0
H491 H 0.06807 0.49668 0.91452 0.0
H492 H 0.86469 0.70154 0.82658 0.0
H493 H 0.85375 0.50175 0.82224 0.0
H494 H 0.84938 0.5326 0.92216 0.0
Co495 Co 0.57301 0.39249 0.86954 0.0
C496 C 0.55314 0.45297 0.92285 0.0
C497 C 0.51357 0.45928 0.88571 0.0
C498 C 0.50042 0.48249 0.91217 0.0
N499 N 0.54705 0.44154 0.89233 0.0
N500 N 0.52543 0.47796 0.93543 0.0
H501 H 0.57554 0.43957 0.93678 0.0
H502 H 0.49842 0.45242 0.86418 0.0
C503 C 0.55358 0.4632 0.81663 0.0
O504 O 0.55874 0.50014 0.83515 0.0
N505 N 0.59905 0.34265 0.84847 0.0
C506 C 0.62967 0.32141 0.85945 0.0
C507 C 0.6385 0.2845 0.83965 0.0
C508 C 0.58936 0.31841 0.82241 0.0
N509 N 0.61312 0.283 0.81662 0.0
C510 C 0.63837 0.42855 0.89975 0.0
C511 C 0.67257 0.4577 0.84475 0.0
C512 C 0.69207 0.45938 0.87323 0.0
C513 C 0.67441 0.44544 0.90108 0.0
C514 C 0.63642 0.44139 0.84452 0.0
N515 N 0.61936 0.42741 0.87184 0.0
H516 H 0.62708 0.41283 0.92081 0.0
H517 H 0.62346 0.43675 0.82183 0.0
H518 H 0.64416 0.3315 0.88075 0.0
H519 H 0.56503 0.32546 0.80859 0.0
O520 O 0.57563 0.35386 0.90797 0.0
O521 O 0.53062 0.35218 0.87285 0.0
O522 O 0.55923 0.421 0.82699 0.0
C523 C 0.54485 0.33494 0.89853 0.0
H524 H 0.4734 0.4977 0.91495 0.0
H525 H 0.66178 0.26088 0.8417 0.0
H526 H 0.68566 0.46724 0.82264 0.0
H527 H 0.6891 0.44479 0.92338 0.0
C528 C 1.00919 0.06038 0.23421 0.0
C529 C 1.00191 0.01831 0.21721 0.0
C530 C 0.02396 0.05941 0.26476 0.0
C531 C 0.0325 0.01634 0.28008 0.0
H532 H 1.00379 0.09484 0.22383 0.0
H533 H 0.02807 0.09309 0.27662 0.0
S534 S 0.01882 0.89556 0.24646 0.0
N535 N 1.00435 0.93176 0.21828 0.0
N536 N 0.03231 0.93004 0.27593 0.0
C537 C 0.02529 0.97374 0.26361 0.0
C538 C 1.01015 0.9747 0.23217 0.0
C539 C 0.51658 0.00576 0.23323 0.0
C540 C 0.5403 0.96885 0.22359 0.0
C541 C 0.5024 0.00758 0.2643 0.0
C542 C 0.51102 0.97213 0.28661 0.0
H543 H 0.50792 0.03259 0.21641 0.0
H544 H 0.48348 0.03573 0.27048 0.0
S545 S 0.57617 0.87248 0.27537 0.0
N546 N 0.57551 0.90006 0.24087 0.0
N547 N 0.54738 0.90202 0.29811 0.0
C548 C 0.53586 0.93645 0.27777 0.0
C549 C 0.55089 0.93519 0.2466 0.0
C550 C 0.99527 0.00393 0.73847 0.0
C551 C 1.00184 0.9667 0.71692 0.0
C552 C 1.01032 0.00305 0.7693 0.0
C553 C 0.03273 0.96512 0.77956 0.0
H554 H 0.97738 0.03302 0.73189 0.0
H555 H 1.00339 0.03153 0.78547 0.0
S556 S 0.06282 0.86283 0.73027 0.0
N557 N 0.03524 0.89342 0.70698 0.0
N558 N 0.06391 0.89234 0.764 0.0
C559 C 0.04103 0.92918 0.75747 0.0
C560 C 0.0255 0.92982 0.72644 0.0
C561 C 0.53963 0.03191 0.74869 0.0
C562 C 0.52587 -0.00021 0.72595 0.0
C563 C 0.52301 0.03744 0.77838 0.0
C564 C 0.49259 0.00991 0.78731 0.0
H565 H 0.56294 0.05412 0.74333 0.0
H566 H 0.53401 0.06384 0.79447 0.0
S567 S 0.44808 0.91648 0.73869 0.0
N568 N 0.48101 0.93736 0.71577 0.0
N569 N 0.45095 0.94649 0.77222 0.0
C570 C 0.47989 0.97534 0.76589 0.0
C571 C 0.49628 0.97046 0.73515 0.0
C572 C 0.53221 0.55428 0.26316 0.0
C573 C 0.52527 0.51623 0.28404 0.0
C574 C 0.51742 0.55557 0.2326 0.0
C575 C 0.4953 0.51847 0.22093 0.0
H576 H 0.54883 0.58408 0.27048 0.0
H577 H 0.52333 0.58638 0.21803 0.0
S578 S 0.47074 0.40833 0.26455 0.0
N579 N 0.49596 0.43884 0.28993 0.0
N580 N 0.46872 0.44093 0.23204 0.0
C581 C 0.48931 0.479 0.24082 0.0
C582 C 0.50413 0.47793 0.27237 0.0
C583 C 1.00587 0.4236 0.26535 0.0
C584 C 0.99855 0.4663 0.2815 0.0
C585 C 0.02081 0.42329 0.23492 0.0
C586 C 0.02972 0.46572 0.21891 0.0
H587 H 1.0009 0.38962 0.2765 0.0
H588 H 0.02536 0.38902 0.22394 0.0
S589 S 0.01628 0.58781 0.25049 0.0
N590 N 1.00138 0.5527 0.2791 0.0
N591 N 0.02992 0.55222 0.22171 0.0
C592 C 0.02261 0.50899 0.23465 0.0
C593 C 1.00714 0.50926 0.26594 0.0
C594 C 0.52048 0.51105 0.77444 0.0
C595 C 0.53975 0.46962 0.78355 0.0
C596 C 0.50453 0.51529 0.74405 0.0
C597 C 0.50699 0.47802 0.72193 0.0
H598 H 0.51685 0.53987 0.79116 0.0
H599 H 0.48935 0.54719 0.73818 0.0
S600 S 0.55873 0.36566 0.73189 0.0
N601 N 0.5637 0.39338 0.76602 0.0
N602 N 0.53304 0.40084 0.70995 0.0
C603 C 0.52735 0.43757 0.73027 0.0
C604 C 0.54388 0.43348 0.76077 0.0
C605 C 0.02076 0.47737 0.76971 0.0
C606 C 0.9989 0.51577 0.78002 0.0
C607 C 0.03584 0.47636 0.73891 0.0
C608 C 0.02987 0.51396 0.71749 0.0
H609 H 0.02724 0.44859 0.78582 0.0
H610 H 0.0533 0.44689 0.73228 0.0
S611 S 0.97047 0.61921 0.73088 0.0
N612 N 0.9688 0.58943 0.76449 0.0
N613 N 0.99765 0.58813 0.70763 0.0
C614 C 1.00675 0.55132 0.72703 0.0
C615 C 0.99115 0.55207 0.75798 0.0
C616 C 0.08748 0.22418 0.26234 0.0
C617 C 0.12081 0.21294 0.2772 0.0
C618 C 0.08674 0.25113 0.23459 0.0
C619 C 0.1193 0.2675 0.22068 0.0
H620 H 0.06176 0.21257 0.27245 0.0
H621 H 0.06052 0.25881 0.22374 0.0
S622 S 0.21363 0.24777 0.25043 0.0
N623 N 0.18713 0.2196 0.27595 0.0
N624 N 0.18571 0.27152 0.22404 0.0
C625 C 0.15282 0.25661 0.23531 0.0
C626 C 0.15357 0.22911 0.26359 0.0
C627 C 0.45072 0.73847 0.23716 0.0
C628 C 0.41739 0.72343 0.22385 0.0
C629 C 0.45136 0.76526 0.265 0.0
C630 C 0.4187 0.77752 0.28051 0.0
H631 H 0.47642 0.72979 0.22581 0.0
H632 H 0.47759 0.77576 0.27474 0.0
S633 S 0.32436 0.74681 0.2552 0.0
N634 N 0.35103 0.72204 0.22836 0.0
N635 N 0.3522 0.77378 0.28026 0.0
C636 C 0.38521 0.76294 0.26735 0.0
C637 C 0.38455 0.7356 0.23906 0.0
C638 C 0.58369 0.72449 0.26544 0.0
C639 C 0.61659 0.7111 0.28026 0.0
C640 C 0.58389 0.74988 0.23702 0.0
C641 C 0.61698 0.76284 0.22242 0.0
H642 H 0.55757 0.71574 0.27603 0.0
H643 H 0.55792 0.75921 0.22632 0.0
S644 S 0.71061 0.73653 0.25174 0.0
N645 N 0.68311 0.71173 0.27797 0.0
N646 N 0.6835 0.76155 0.22526 0.0
C647 C 0.65009 0.7499 0.23705 0.0
C648 C 0.64988 0.72364 0.26587 0.0
C649 C 0.90972 0.22099 0.2758 0.0
C650 C 0.91141 0.27092 0.2756 0.0
C651 C 0.91147 0.19529 0.24753 0.0
C652 C 0.91413 0.21892 0.21837 0.0
H653 H 0.90791 0.2018 0.29798 0.0
H654 H 0.9105 0.15678 0.24832 0.0
S655 S 0.91963 0.34888 0.20517 0.0
N656 N 0.91611 0.34299 0.24397 0.0
N657 N 0.91887 0.29428 0.19066 0.0
C658 C 0.91554 0.26868 0.21779 0.0
C659 C 0.91435 0.29484 0.24653 0.0
C660 C 0.89995 0.70277 0.75514 0.0
C661 C 0.92025 0.71816 0.78129 0.0
C662 C 0.9003 0.72864 0.72695 0.0
C663 C 0.92046 0.77118 0.72432 0.0
H664 H 0.88418 0.67017 0.7565 0.0
H665 H 0.88486 0.715 0.70704 0.0
S666 S 0.97664 0.82684 0.78787 0.0
N667 N 0.9607 0.77734 0.80385 0.0
N668 N 0.96008 0.82829 0.75147 0.0
C669 C 0.94067 0.78703 0.75082 0.0
C670 C 0.94082 0.7599 0.77924 0.0
C671 C 0.61971 0.2719 0.75973 0.0
C672 C 0.61351 0.25256 0.78978 0.0
C673 C 0.62226 0.24242 0.73326 0.0
C674 C 0.61842 0.19285 0.73624 0.0
H675 H 0.62338 0.3099 0.75696 0.0
H676 H 0.62685 0.25843 0.71029 0.0
S677 S 0.60194 0.12563 0.81032 0.0
N678 N 0.6037 0.18191 0.82155 0.0
N679 N 0.60823 0.12583 0.77157 0.0
C680 C 0.61191 0.17325 0.76627 0.0
C681 C 0.60966 0.20334 0.7932 0.0
C682 C 0.44425 0.28112 0.75127 0.0
C683 C 0.41157 0.28942 0.73453 0.0
C684 C 0.44492 0.25056 0.77737 0.0
C685 C 0.41275 0.22836 0.78793 0.0
H686 H 0.46964 0.29722 0.74363 0.0
H687 H 0.47063 0.24434 0.78947 0.0
S688 S 0.31965 0.24188 0.75414 0.0
N689 N 0.34591 0.27586 0.73176 0.0
N690 N 0.34721 0.21799 0.78075 0.0
C691 C 0.37969 0.23778 0.77221 0.0
C692 C 0.37907 0.26853 0.74553 0.0
C693 C 0.13421 0.75072 0.7297 0.0
C694 C 0.11449 0.70781 0.72731 0.0
C695 C 0.13395 0.77725 0.7576 0.0
C696 C 0.1136 0.762 0.78371 0.0
H697 H 0.14963 0.76423 0.70977 0.0
H698 H 0.14926 0.81023 0.75876 0.0
S699 S 0.0584 0.65237 0.79086 0.0
N700 N 0.07527 0.65052 0.75461 0.0
N701 N 0.07371 0.70244 0.80654 0.0
C702 C 0.09362 0.71975 0.78194 0.0
C703 C 0.09429 0.69208 0.75378 0.0
C704 C 0.04751 0.98334 0.48356 0.0
C705 C 0.01839 0.0035 0.46633 0.0
C706 C 0.04497 0.97624 0.51634 0.0
C707 C 1.01319 0.98905 0.53297 0.0
H708 H 0.07224 0.97244 0.47147 0.0
H709 H 0.06756 0.95943 0.5286 0.0
S710 S 0.931 0.04807 0.49987 0.0
N711 N 0.95804 0.03999 0.46905 0.0
N712 N 0.95316 0.02567 0.53052 0.0
C713 C 0.98429 0.01028 0.51625 0.0
C714 C 0.98688 0.01773 0.48296 0.0
C715 C 0.48865 0.01127 0.48753 0.0
C716 C 0.51693 0.9866 0.47214 0.0
C717 C 0.48897 0.01753 0.52044 0.0
C718 C 0.51747 -0.00108 0.53917 0.0
H719 H 0.46627 0.02607 0.47389 0.0
H720 H 0.46712 0.03783 0.5312 0.0
S721 S 0.59575 0.92684 0.51066 0.0
N722 N 0.57276 0.9405 0.47823 0.0
N723 N 0.57327 0.95195 0.54013 0.0
C724 C 0.54547 0.97322 0.52411 0.0
C725 C 0.54524 0.96712 0.49059 0.0
C726 C 0.50478 0.03666 0.99293 0.0
C727 C 0.51542 0.00263 0.97019 0.0
C728 C 0.5085 0.02775 0.0254 0.0
C729 C 0.52346 0.98487 0.03625 0.0
H730 H 0.49357 0.07056 0.98562 0.0
H731 H 0.49993 0.05463 0.04219 0.0
S732 S 0.55372 0.88319 0.98682 0.0
N733 N 0.54027 0.92376 0.96101 0.0
N734 N 0.54769 0.90718 0.02211 0.0
C735 C 0.53432 0.95057 0.0139 0.0
C736 C 0.53031 0.9595 0.98083 0.0
C737 C 0.04126 0.0136 0.01437 0.0
C738 C 1.01098 -0.00156 0.03221 0.0
C739 C 0.04225 0.00716 0.98152 0.0
C740 C 1.013 0.98547 0.96531 0.0
H741 H 0.06404 0.03138 0.02578 0.0
H742 H 0.06613 0.01913 0.96859 0.0
S743 S 0.92858 0.93648 1.00158 0.0
N744 N 0.95177 0.95904 0.03164 0.0
N745 N 0.95372 0.94663 0.96982 0.0
C746 C 0.98266 0.96982 0.9829 0.0
C747 C 0.98168 0.97634 0.01638 0.0
C748 C 0.54286 0.47999 0.48667 0.0
C749 C 0.51412 0.50417 0.47142 0.0
C750 C 0.54243 0.47234 0.51946 0.0
C751 C 0.51326 0.48876 0.5382 0.0
H752 H 0.56572 0.46662 0.47303 0.0
H753 H 0.56471 0.45263 0.53012 0.0
S754 S 0.43324 0.55827 0.51039 0.0
N755 N 0.45697 0.54741 0.47795 0.0
N756 N 0.45611 0.53274 0.53954 0.0
C757 C 0.48469 0.51371 0.52336 0.0
C758 C 0.4851 0.52149 0.48998 0.0
C759 C 0.99591 0.46543 0.52169 0.0
C760 C 1.01522 0.50571 0.53215 0.0
C761 C 0.99184 0.45596 0.4893 0.0
C762 C 1.00695 0.48654 0.46637 0.0
H763 H 0.98469 0.44055 0.5387 0.0
H764 H 0.97768 0.42384 0.48215 0.0
S765 S 0.05555 0.59995 0.48129 0.0
N766 N 0.04624 0.57898 0.51691 0.0
N767 N 0.03923 0.56032 0.45608 0.0
C768 C 0.02526 0.52763 0.47647 0.0
C769 C 0.0292 0.5375 0.50937 0.0
C770 C 0.98933 0.47274 0.01646 0.0
C771 C 0.01995 0.48772 0.034 0.0
C772 C 0.9881 0.47854 0.98353 0.0
C773 C 0.01745 0.49935 0.96697 0.0
H774 H 0.96657 0.45543 0.02815 0.0
H775 H 0.96404 0.46657 0.9708 0.0
S776 S 0.10244 0.54823 1.00245 0.0
N777 N 0.07937 0.52652 0.0328 0.0
N778 N 0.07696 0.53771 0.97089 0.0
C779 C 0.04798 0.51512 0.98431 0.0
C780 C 0.0492 0.50928 0.01783 0.0
C781 C 0.53029 0.45384 0.99141 0.0
C782 C 0.52083 0.48816 0.9685 0.0
C783 C 0.52661 0.46329 0.0238 0.0
C784 C 0.51331 0.50731 0.03435 0.0
H785 H 0.54008 0.41915 0.98418 0.0
H786 H 0.53346 0.43574 0.04073 0.0
S787 S 0.48871 0.61075 0.98388 0.0
N788 N 0.49993 0.56857 0.95848 0.0
N789 N 0.49363 0.58702 0.01941 0.0
C790 C 0.50468 0.54238 0.01167 0.0
C791 C 0.50821 0.53256 0.97871 0.0
C792 C 0.25101 6e-05 0.40285 0.0
C793 C 0.2312 0.00455 0.37434 0.0
C794 C 0.28871 0.99049 0.40304 0.0
C795 C 0.30847 0.98371 0.37475 0.0
H796 H 0.23733 0.00379 0.42543 0.0
H797 H 0.30242 0.98859 0.42574 0.0
S798 S 0.26974 0.991 0.29338 0.0
N799 N 0.23495 0.00346 0.31678 0.0
N800 N 0.30458 0.98035 0.31721 0.0
C801 C 0.28891 0.98732 0.346 0.0
C802 C 0.2507 -0.00128 0.34579 0.0
C803 C 0.79531 0.95795 0.12212 0.0
C804 C 0.80564 0.00591 0.12492 0.0
C805 C 0.75821 0.9447 0.12231 0.0
C806 C 0.73042 0.97895 0.12593 0.0
H807 H 0.81601 0.93061 0.11972 0.0
H808 H 0.75121 0.90736 0.1202 0.0
S809 S 0.74354 0.10912 0.13412 0.0
N810 N 0.7855 0.08769 0.13102 0.0
N811 N 0.71581 0.0627 0.13214 0.0
C812 C 0.74052 0.02696 0.12882 0.0
C813 C 0.77817 0.04047 0.1281 0.0
C814 C 0.7516 0.02745 0.63352 0.0
C815 C 0.7255 -0.00673 0.62428 0.0
C816 C 0.78918 0.01667 0.63406 0.0
C817 C 0.80202 0.9716 0.62477 0.0
H818 H 0.74281 0.06257 0.64085 0.0
H819 H 0.80836 0.04386 0.64157 0.0
S820 S 0.74458 0.86979 0.59867 0.0
N821 N 0.71485 0.91267 0.60596 0.0
N822 N 0.7854 0.89243 0.60637 0.0
C823 C 0.77609 0.93726 0.61528 0.0
C824 C 0.73785 0.94807 0.61522 0.0
C825 C 0.28685 0.97349 0.85484 0.0
C826 C 0.29982 0.0099 0.87489 0.0
C827 C 0.24963 0.96098 0.85401 0.0
C828 C 0.2239 0.98405 0.87339 0.0
H829 H 0.30565 0.95423 0.83976 0.0
H830 H 0.24097 0.93255 0.83837 0.0
S831 S 0.24262 0.08363 0.92853 0.0
N832 N 0.28302 0.07072 0.91329 0.0
N833 N 0.21342 0.04582 0.9124 0.0
C834 C 0.23627 0.02045 0.89348 0.0
C835 C 0.27409 0.0337 0.89408 0.0
C836 C 0.77995 0.48011 0.40382 0.0
C837 C 0.79982 0.47679 0.37532 0.0
C838 C 0.74241 0.49069 0.40402 0.0
C839 C 0.72294 0.49939 0.37578 0.0
H840 H 0.79347 0.47469 0.42635 0.0
H841 H 0.72856 0.49185 0.42665 0.0
S842 S 0.76198 0.49591 0.29454 0.0
N843 N 0.79651 0.48146 0.31782 0.0
N844 N 0.7271 0.50579 0.31839 0.0
C845 C 0.74256 0.4969 0.34708 0.0
C846 C 0.78061 0.48477 0.34681 0.0
C847 C 0.29003 0.47133 0.11691 0.0
C848 C 0.30175 0.51157 0.13382 0.0
C849 C 0.25294 0.45829 0.11618 0.0
C850 C 0.2261 0.48545 0.13194 0.0
H851 H 0.30976 0.44944 0.10453 0.0
H852 H 0.24538 0.42619 0.10358 0.0
S853 S 0.2428 0.59688 0.17696 0.0
N854 N 0.2839 0.57989 0.16532 0.0
N855 N 0.21403 0.55647 0.1632 0.0
C856 C 0.23757 0.52652 0.1483 0.0
C857 C 0.2754 0.53934 0.14939 0.0
C858 C 0.29267 0.52664 0.61559 0.0
C859 C 0.30499 0.48003 0.62131 0.0
C860 C 0.25516 0.5377 0.61617 0.0
C861 C 0.22867 0.50277 0.62318 0.0
H862 H 0.31219 0.55471 0.61061 0.0
H863 H 0.24684 0.57409 0.61173 0.0
S864 S 0.24681 0.37563 0.6404 0.0
N865 N 0.2878 0.39875 0.63424 0.0
N866 N 0.21742 0.41978 0.6359 0.0
C867 C 0.24066 0.45612 0.62907 0.0
C868 C 0.27877 0.44469 0.62794 0.0
C869 C 0.74412 0.51155 0.89042 0.0
C870 C 0.73153 0.47182 0.87343 0.0
C871 C 0.78134 0.52422 0.89027 0.0
C872 C 0.80748 0.49719 0.87352 0.0
H873 H 0.72494 0.5335 0.90339 0.0
H874 H 0.7895 0.55606 0.90289 0.0
S875 S 0.78844 0.38676 0.82807 0.0
N876 N 0.74789 0.40396 0.84092 0.0
N877 N 0.81795 0.42656 0.84145 0.0
C878 C 0.79515 0.45646 0.85722 0.0
C879 C 0.7572 0.44405 0.85703 0.0
C880 C 0.05409 0.234 0.4017 0.0
C881 C 0.03121 0.1938 0.40197 0.0
C882 C 0.03919 0.28 0.40127 0.0
C883 C 1.00109 0.28709 0.40212 0.0
H884 H 0.08335 0.22992 0.39852 0.0
H885 H 0.05744 0.31002 0.39795 0.0
S886 S 0.93009 0.1932 0.40778 0.0
N887 N 0.96914 0.1637 0.40611 0.0
N888 N 0.94117 0.25021 0.40709 0.0
C889 C 0.97826 0.24723 0.40584 0.0
C890 C 0.99335 0.20043 0.40525 0.0
C891 C 0.48061 0.75552 0.40844 0.0
C892 C 0.50563 0.79354 0.40768 0.0
C893 C 0.49288 0.70824 0.40738 0.0
C894 C 0.53048 0.69765 0.40665 0.0
H895 H 0.45149 0.76226 0.40648 0.0
H896 H 0.47288 0.67998 0.40486 0.0
S897 S 0.60674 0.78463 0.40917 0.0
N898 N 0.56938 0.81772 0.40918 0.0
N899 N 0.5925 0.72882 0.40901 0.0
C900 C 0.55564 0.73527 0.40937 0.0
C901 C 0.54317 0.78336 0.4094 0.0
C902 C 0.49062 0.78452 0.09738 0.0
C903 C 0.52871 0.79177 0.09612 0.0
C904 C 0.47566 0.73854 0.09591 0.0
C905 C 0.49849 0.69845 0.09408 0.0
H906 H 0.47251 0.8142 0.10212 0.0
H907 H 0.44655 0.73419 0.09994 0.0
S908 S 0.5994 0.69866 0.08579 0.0
N909 N 0.58841 0.75552 0.08856 0.0
N910 N 0.56037 0.66898 0.08731 0.0
C911 C 0.53621 0.70552 0.08979 0.0
C912 C 0.55135 0.75235 0.09042 0.0
C913 C 0.04141 0.20442 0.09231 0.0
C914 C 1.00341 0.19607 0.09195 0.0
C915 C 0.05552 0.25091 0.0916 0.0
C916 C 0.03194 0.29037 0.09147 0.0
H917 H 0.0602 0.17507 0.09582 0.0
H918 H 0.0847 0.25593 0.09487 0.0
S919 S 0.93073 0.28752 0.08637 0.0
N920 N 0.94283 0.23091 0.08717 0.0
N921 N 0.96928 0.31828 0.08748 0.0
C922 C 0.99418 0.28238 0.08818 0.0
C923 C 0.97988 0.2351 0.08797 0.0
C924 C 0.03929 0.78014 0.59253 0.0
C925 C 1.00126 0.78789 0.59403 0.0
C926 C 0.05382 0.73387 0.59298 0.0
C927 C 0.03072 0.69412 0.59592 0.0
H928 H 0.05799 0.81007 0.59356 0.0
H929 H 0.08325 0.72958 0.59442 0.0
S930 S 0.92929 0.69507 0.59714 0.0
N931 N 0.94084 0.75183 0.59489 0.0
N932 N 0.96814 0.66502 0.59703 0.0
C933 C 0.99268 0.70125 0.59477 0.0
C934 C 0.9779 0.74822 0.59346 0.0
C935 C 0.51043 0.26392 0.59716 0.0
C936 C 0.50674 0.28997 0.62552 0.0
C937 C 0.52311 0.21624 0.59753 0.0
C938 C 0.53121 0.19318 0.62634 0.0
H939 H 0.50383 0.2805 0.57473 0.0
H940 H 0.52573 0.19711 0.5754 0.0
S941 S 0.52551 0.24531 0.70692 0.0
N942 N 0.51218 0.28828 0.68303 0.0
N943 N 0.53498 0.20023 0.68353 0.0
C944 C 0.52742 0.21903 0.65457 0.0
C945 C 0.51536 0.26698 0.65422 0.0
C946 C 0.47745 0.23607 0.91239 0.0
C947 C 0.5003 0.19593 0.91103 0.0
C948 C 0.49233 0.28222 0.91198 0.0
C949 C 0.53046 0.2896 0.91115 0.0
H950 H 0.44805 0.23198 0.91019 0.0
H951 H 0.47389 0.31221 0.90966 0.0
S952 S 0.60173 0.19593 0.91215 0.0
N953 N 0.56265 0.16627 0.91206 0.0
N954 N 0.59056 0.25286 0.91281 0.0
C955 C 0.55345 0.24972 0.91342 0.0
C956 C 0.53834 0.20283 0.91294 0.0
C957 C 0.97908 0.73209 0.90985 0.0
C958 C 1.00312 0.69323 0.90766 0.0
C959 C 0.99249 0.77896 0.9095 0.0
C960 C 0.03031 0.78828 0.90794 0.0
H961 H 0.94978 0.7265 0.90823 0.0
H962 H 0.9731 0.80801 0.90779 0.0
S963 S 0.10446 0.69853 0.90649 0.0
N964 N 0.06635 0.66682 0.90711 0.0
N965 N 0.09156 0.75481 0.90782 0.0
C966 C 0.0546 0.74967 0.90933 0.0
C967 C 0.04096 0.70205 0.90882 0.0
loop_
_geom_bond_atom_site_label_1
_geom_bond_atom_site_label_2
_geom_bond_distance
_geom_bond_site_symmetry_2
_ccdc_geom_bond_type
Co0 N4 2.148 . S
Co0 N10 2.128 . S
Co0 N20 2.194 . S
Co0 O25 2.351 . S
Co0 O26 2.155 . S
Co0 O27 2.096 . S
C1 N4 1.301 . S
C1 N5 1.328 . S
C1 H6 0.930 . S
C2 C3 1.333 . S
C2 N4 1.317 . S
C2 H7 0.930 . S
C3 C2 1.333 . S
C3 N5 1.350 . S
C3 H29 0.931 1_445 S
N4 Co0 2.148 . S
N4 C1 1.301 . S
N4 C2 1.317 . S
N5 C1 1.328 . S
N5 C3 1.350 . S
H6 C1 0.930 . S
H7 C2 0.930 . S
C8 O9 1.224 . S
C8 O27 1.247 . S
O9 C8 1.224 . S
N10 Co0 2.128 . S
N10 C11 1.355 . S
N10 C13 1.311 . S
C11 N10 1.355 . S
C11 C12 1.363 . S
C11 H23 0.929 . S
C12 C11 1.363 . S
C12 N14 1.375 . S
C12 H30 0.931 . S
C13 N10 1.311 . S
C13 N14 1.347 . S
C13 H24 0.929 . S
N14 C12 1.375 . S
N14 C13 1.347 . S
C15 C18 1.365 . S
C15 N20 1.328 . S
C15 H21 0.929 . S
C16 C17 1.362 . S
C16 C19 1.378 . S
C16 H31 0.929 . S
C17 C16 1.362 . S
C17 C18 1.366 . S
C18 C15 1.365 . S
C18 C17 1.366 . S
C18 H32 0.930 . S
C19 C16 1.378 . S
C19 N20 1.315 . S
C19 H22 0.930 . S
N20 Co0 2.194 . S
N20 C15 1.328 . S
N20 C19 1.315 . S
H21 C15 0.929 . S
H22 C19 0.930 . S
H23 C11 0.929 . S
H24 C13 0.929 . S
O25 Co0 2.351 . S
O25 C28 1.244 . S
O26 Co0 2.155 . S
O26 C28 1.240 . S
O27 Co0 2.096 . S
O27 C8 1.247 . S
C28 O25 1.244 . S
C28 O26 1.240 . S
H29 C3 0.931 1_665 S
H30 C12 0.931 . S
H31 C16 0.929 . S
H32 C18 0.930 . S
Co33 N37 2.148 . S
Co33 N43 2.128 . S
Co33 N53 2.194 . S
Co33 O58 2.351 . S
Co33 O59 2.155 . S
Co33 O60 2.096 . S
C34 N37 1.301 . S
C34 N38 1.328 . S
C34 H39 0.930 . S
C35 C36 1.333 . S
C35 N37 1.317 . S
C35 H40 0.930 . S
C36 C35 1.333 . S
C36 N38 1.350 . S
C36 H62 0.931 1_565 S
N37 Co33 2.148 . S
N37 C34 1.301 . S
N37 C35 1.317 . S
N38 C34 1.328 . S
N38 C36 1.350 . S
H39 C34 0.930 . S
H40 C35 0.930 . S
C41 O42 1.224 . S
C41 O60 1.247 . S
O42 C41 1.224 . S
N43 Co33 2.128 . S
N43 C44 1.355 . S
N43 C46 1.311 . S
C44 N43 1.355 . S
C44 C45 1.363 . S
C44 H56 0.929 . S
C45 C44 1.363 . S
C45 N47 1.375 . S
C45 H63 0.931 . S
C46 N43 1.311 . S
C46 N47 1.347 . S
C46 H57 0.929 . S
N47 C45 1.375 . S
N47 C46 1.347 . S
C48 C51 1.365 . S
C48 N53 1.328 . S
C48 H54 0.929 . S
C49 C50 1.362 . S
C49 C52 1.378 . S
C49 H64 0.929 . S
C50 C49 1.362 . S
C50 C51 1.366 . S
C51 C48 1.365 . S
C51 C50 1.366 . S
C51 H65 0.930 . S
C52 C49 1.378 . S
C52 N53 1.315 . S
C52 H55 0.930 . S
N53 Co33 2.194 . S
N53 C48 1.328 . S
N53 C52 1.315 . S
H54 C48 0.929 . S
H55 C52 0.930 . S
H56 C44 0.929 . S
H57 C46 0.929 . S
O58 Co33 2.351 . S
O58 C61 1.244 . S
O59 Co33 2.155 . S
O59 C61 1.240 . S
O60 Co33 2.096 . S
O60 C41 1.247 . S
C61 O58 1.244 . S
C61 O59 1.240 . S
H62 C36 0.931 1_545 S
H63 C45 0.931 . S
H64 C49 0.929 . S
H65 C51 0.930 . S
Co66 N70 2.148 . S
Co66 N76 2.128 . S
Co66 N86 2.194 . S
Co66 O91 2.351 . S
Co66 O92 2.155 . S
Co66 O93 2.096 . S
C67 N70 1.301 . S
C67 N71 1.328 . S
C67 H72 0.930 . S
C68 C69 1.333 . S
C68 N70 1.317 . S
C68 H73 0.930 . S
C69 C68 1.333 . S
C69 N71 1.350 . S
C69 H95 0.931 1_565 S
N70 Co66 2.148 . S
N70 C67 1.301 . S
N70 C68 1.317 . S
N71 C67 1.328 . S
N71 C69 1.350 . S
H72 C67 0.930 . S
H73 C68 0.930 . S
C74 O75 1.224 . S
C74 O93 1.247 . S
O75 C74 1.224 . S
N76 Co66 2.128 . S
N76 C77 1.355 . S
N76 C79 1.311 . S
C77 N76 1.355 . S
C77 C78 1.363 . S
C77 H89 0.929 . S
C78 C77 1.363 . S
C78 N80 1.375 . S
C78 H96 0.931 . S
C79 N76 1.311 . S
C79 N80 1.347 . S
C79 H90 0.929 . S
N80 C78 1.375 . S
N80 C79 1.347 . S
C81 C84 1.365 . S
C81 N86 1.328 . S
C81 H87 0.929 . S
C82 C83 1.362 . S
C82 C85 1.378 . S
C82 H97 0.929 . S
C83 C82 1.362 . S
C83 C84 1.366 . S
C84 C81 1.365 . S
C84 C83 1.366 . S
C84 H98 0.930 . S
C85 C82 1.378 . S
C85 N86 1.315 . S
C85 H88 0.930 . S
N86 Co66 2.194 . S
N86 C81 1.328 . S
N86 C85 1.315 . S
H87 C81 0.929 . S
H88 C85 0.930 . S
H89 C77 0.929 . S
H90 C79 0.929 . S
O91 Co66 2.351 . S
O91 C94 1.244 . S
O92 Co66 2.155 . S
O92 C94 1.240 . S
O93 Co66 2.096 . S
O93 C74 1.247 . S
C94 O91 1.244 . S
C94 O92 1.240 . S
H95 C69 0.931 1_545 S
H96 C78 0.931 . S
H97 C82 0.929 . S
H98 C84 0.930 . S
Co99 N103 2.148 . S
Co99 N109 2.128 . S
Co99 N119 2.194 . S
Co99 O124 2.351 . S
Co99 O125 2.155 . S
Co99 O126 2.096 . S
C100 N103 1.301 . S
C100 N104 1.328 . S
C100 H105 0.930 . S
C101 C102 1.333 . S
C101 N103 1.317 . S
C101 H106 0.930 . S
C102 C101 1.333 . S
C102 N104 1.350 . S
C102 H128 0.931 1_645 S
N103 Co99 2.148 . S
N103 C100 1.301 . S
N103 C101 1.317 . S
N104 C100 1.328 . S
N104 C102 1.350 . S
H105 C100 0.930 . S
H106 C101 0.930 . S
C107 O108 1.224 . S
C107 O126 1.247 . S
O108 C107 1.224 . S
N109 Co99 2.128 . S
N109 C110 1.355 . S
N109 C112 1.311 . S
C110 N109 1.355 . S
C110 C111 1.363 . S
C110 H122 0.929 . S
C111 C110 1.363 . S
C111 N113 1.375 . S
C111 H129 0.931 . S
C112 N109 1.311 . S
C112 N113 1.347 . S
C112 H123 0.929 . S
N113 C111 1.375 . S
N113 C112 1.347 . S
C114 C117 1.365 . S
C114 N119 1.328 . S
C114 H120 0.929 . S
C115 C116 1.362 . S
C115 C118 1.378 . S
C115 H130 0.929 . S
C116 C115 1.362 . S
C116 C117 1.366 . S
C117 C114 1.365 . S
C117 C116 1.366 . S
C117 H131 0.930 . S
C118 C115 1.378 . S
C118 N119 1.315 . S
C118 H121 0.930 . S
N119 Co99 2.194 . S
N119 C114 1.328 . S
N119 C118 1.315 . S
H120 C114 0.929 . S
H121 C118 0.930 . S
H122 C110 0.929 . S
H123 C112 0.929 . S
O124 Co99 2.351 . S
O124 C127 1.244 . S
O125 Co99 2.155 . S
O125 C127 1.240 . S
O126 Co99 2.096 . S
O126 C107 1.247 . S
C127 O124 1.244 . S
C127 O125 1.240 . S
H128 C102 0.931 1_465 S
H129 C111 0.931 . S
H130 C115 0.929 . S
H131 C117 0.930 . S
Co132 N136 2.148 . S
Co132 N142 2.128 . S
Co132 N152 2.194 . S
Co132 O157 2.351 . S
Co132 O158 2.155 . S
Co132 O159 2.096 . S
C133 N136 1.301 . S
C133 N137 1.328 . S
C133 H138 0.930 . S
C134 C135 1.333 . S
C134 N136 1.317 . S
C134 H139 0.930 . S
C135 C134 1.333 . S
C135 N137 1.350 . S
C135 H161 0.931 1_665 S
N136 Co132 2.148 . S
N136 C133 1.301 . S
N136 C134 1.317 . S
N137 C133 1.328 . S
N137 C135 1.350 . S
H138 C133 0.930 . S
H139 C134 0.930 . S
C140 O141 1.224 . S
C140 O159 1.247 . S
O141 C140 1.224 . S
N142 Co132 2.128 . S
N142 C143 1.355 . S
N142 C145 1.311 . S
C143 N142 1.355 . S
C143 C144 1.363 . S
C143 H155 0.929 . S
C144 C143 1.363 . S
C144 N146 1.375 . S
C144 H162 0.931 . S
C145 N142 1.311 . S
C145 N146 1.347 . S
C145 H156 0.929 . S
N146 C144 1.375 . S
N146 C145 1.347 . S
C147 C150 1.365 . S
C147 N152 1.328 . S
C147 H153 0.929 . S
C148 C149 1.362 . S
C148 C151 1.378 . S
C148 H163 0.929 . S
C149 C148 1.362 . S
C149 C150 1.366 . S
C150 C147 1.365 . S
C150 C149 1.366 . S
C150 H164 0.930 . S
C151 C148 1.378 . S
C151 N152 1.315 . S
C151 H154 0.930 . S
N152 Co132 2.194 . S
N152 C147 1.328 . S
N152 C151 1.315 . S
H153 C147 0.929 . S
H154 C151 0.930 . S
H155 C143 0.929 . S
H156 C145 0.929 . S
O157 Co132 2.351 . S
O157 C160 1.244 . S
O158 Co132 2.155 . S
O158 C160 1.240 . S
O159 Co132 2.096 . S
O159 C140 1.247 . S
C160 O157 1.244 . S
C160 O158 1.240 . S
H161 C135 0.931 1_445 S
H162 C144 0.931 . S
H163 C148 0.929 . S
H164 C150 0.930 . S
Co165 N169 2.148 . S
Co165 N175 2.128 . S
Co165 N185 2.194 . S
Co165 O190 2.351 . S
Co165 O191 2.155 . S
Co165 O192 2.096 . S
C166 N169 1.301 . S
C166 N170 1.328 . S
C166 H171 0.930 . S
C167 C168 1.333 . S
C167 N169 1.317 . S
C167 H172 0.930 . S
C168 C167 1.333 . S
C168 N170 1.350 . S
C168 H194 0.931 1_545 S
N169 Co165 2.148 . S
N169 C166 1.301 . S
N169 C167 1.317 . S
N170 C166 1.328 . S
N170 C168 1.350 . S
H171 C166 0.930 . S
H172 C167 0.930 . S
C173 O174 1.224 . S
C173 O192 1.247 . S
O174 C173 1.224 . S
N175 Co165 2.128 . S
N175 C176 1.355 . S
N175 C178 1.311 . S
C176 N175 1.355 . S
C176 C177 1.363 . S
C176 H188 0.929 . S
C177 C176 1.363 . S
C177 N179 1.375 . S
C177 H195 0.931 . S
C178 N175 1.311 . S
C178 N179 1.347 . S
C178 H189 0.929 . S
N179 C177 1.375 . S
N179 C178 1.347 . S
C180 C183 1.365 . S
C180 N185 1.328 . S
C180 H186 0.929 . S
C181 C182 1.362 . S
C181 C184 1.378 . S
C181 H196 0.929 . S
C182 C181 1.362 . S
C182 C183 1.366 . S
C183 C180 1.365 . S
C183 C182 1.366 . S
C183 H197 0.930 . S
C184 C181 1.378 . S
C184 N185 1.315 . S
C184 H187 0.930 . S
N185 Co165 2.194 . S
N185 C180 1.328 . S
N185 C184 1.315 . S
H186 C180 0.929 . S
H187 C184 0.930 . S
H188 C176 0.929 . S
H189 C178 0.929 . S
O190 Co165 2.351 . S
O190 C193 1.244 . S
O191 Co165 2.155 . S
O191 C193 1.240 . S
O192 Co165 2.096 . S
O192 C173 1.247 . S
C193 O190 1.244 . S
C193 O191 1.240 . S
H194 C168 0.931 1_565 S
H195 C177 0.931 . S
H196 C181 0.929 . S
H197 C183 0.930 . S
Co198 N202 2.148 . S
Co198 N208 2.128 . S
Co198 N218 2.194 . S
Co198 O223 2.351 . S
Co198 O224 2.155 . S
Co198 O225 2.096 . S
C199 N202 1.301 . S
C199 N203 1.328 . S
C199 H204 0.930 . S
C200 C201 1.333 . S
C200 N202 1.317 . S
C200 H205 0.930 . S
C201 C200 1.333 . S
C201 N203 1.350 . S
C201 H227 0.931 1_545 S
N202 Co198 2.148 . S
N202 C199 1.301 . S
N202 C200 1.317 . S
N203 C199 1.328 . S
N203 C201 1.350 . S
H204 C199 0.930 . S
H205 C200 0.930 . S
C206 O207 1.224 . S
C206 O225 1.247 . S
O207 C206 1.224 . S
N208 Co198 2.128 . S
N208 C209 1.355 . S
N208 C211 1.311 . S
C209 N208 1.355 . S
C209 C210 1.363 . S
C209 H221 0.929 . S
C210 C209 1.363 . S
C210 N212 1.375 . S
C210 H228 0.931 . S
C211 N208 1.311 . S
C211 N212 1.347 . S
C211 H222 0.929 . S
N212 C210 1.375 . S
N212 C211 1.347 . S
C213 C216 1.365 . S
C213 N218 1.328 . S
C213 H219 0.929 . S
C214 C215 1.362 . S
C214 C217 1.378 . S
C214 H229 0.929 . S
C215 C214 1.362 . S
C215 C216 1.366 . S
C216 C213 1.365 . S
C216 C215 1.366 . S
C216 H230 0.930 . S
C217 C214 1.378 . S
C217 N218 1.315 . S
C217 H220 0.930 . S
N218 Co198 2.194 . S
N218 C213 1.328 . S
N218 C217 1.315 . S
H219 C213 0.929 . S
H220 C217 0.930 . S
H221 C209 0.929 . S
H222 C211 0.929 . S
O223 Co198 2.351 . S
O223 C226 1.244 . S
O224 Co198 2.155 . S
O224 C226 1.240 . S
O225 Co198 2.096 . S
O225 C206 1.247 . S
C226 O223 1.244 . S
C226 O224 1.240 . S
H227 C201 0.931 1_565 S
H228 C210 0.931 . S
H229 C214 0.929 . S
H230 C216 0.930 . S
Co231 N235 2.148 . S
Co231 N241 2.128 . S
Co231 N251 2.194 . S
Co231 O256 2.351 . S
Co231 O257 2.155 . S
Co231 O258 2.096 . S
C232 N235 1.301 . S
C232 N236 1.328 . S
C232 H237 0.930 . S
C233 C234 1.333 . S
C233 N235 1.317 . S
C233 H238 0.930 . S
C234 C233 1.333 . S
C234 N236 1.350 . S
C234 H260 0.931 1_465 S
N235 Co231 2.148 . S
N235 C232 1.301 . S
N235 C233 1.317 . S
N236 C232 1.328 . S
N236 C234 1.350 . S
H237 C232 0.930 . S
H238 C233 0.930 . S
C239 O240 1.224 . S
C239 O258 1.247 . S
O240 C239 1.224 . S
N241 Co231 2.128 . S
N241 C242 1.355 . S
N241 C244 1.311 . S
C242 N241 1.355 . S
C242 C243 1.363 . S
C242 H254 0.929 . S
C243 C242 1.363 . S
C243 N245 1.375 . S
C243 H261 0.931 . S
C244 N241 1.311 . S
C244 N245 1.347 . S
C244 H255 0.929 . S
N245 C243 1.375 . S
N245 C244 1.347 . S
C246 C249 1.365 . S
C246 N251 1.328 . S
C246 H252 0.929 . S
C247 C248 1.362 . S
C247 C250 1.378 . S
C247 H262 0.929 . S
C248 C247 1.362 . S
C248 C249 1.366 . S
C249 C246 1.365 . S
C249 C248 1.366 . S
C249 H263 0.930 . S
C250 C247 1.378 . S
C250 N251 1.315 . S
C250 H253 0.930 . S
N251 Co231 2.194 . S
N251 C246 1.328 . S
N251 C250 1.315 . S
H252 C246 0.929 . S
H253 C250 0.930 . S
H254 C242 0.929 . S
H255 C244 0.929 . S
O256 Co231 2.351 . S
O256 C259 1.244 . S
O257 Co231 2.155 . S
O257 C259 1.240 . S
O258 Co231 2.096 . S
O258 C239 1.247 . S
C259 O256 1.244 . S
C259 O257 1.240 . S
H260 C234 0.931 1_645 S
H261 C243 0.931 . S
H262 C247 0.929 . S
H263 C249 0.930 . S
Co264 N268 2.148 . S
Co264 N274 2.128 . S
Co264 N284 2.194 . S
Co264 O289 2.351 . S
Co264 O290 2.155 . S
Co264 O291 2.096 . S
C265 N268 1.301 . S
C265 N269 1.328 . S
C265 H270 0.930 . S
C266 C267 1.333 . S
C266 N268 1.317 . S
C266 H271 0.930 . S
C267 C266 1.333 . S
C267 N269 1.350 . S
C267 H293 0.931 . S
N268 Co264 2.148 . S
N268 C265 1.301 . S
N268 C266 1.317 . S
N269 C265 1.328 . S
N269 C267 1.350 . S
H270 C265 0.930 . S
H271 C266 0.930 . S
C272 O273 1.224 . S
C272 O291 1.247 . S
O273 C272 1.224 . S
N274 Co264 2.128 . S
N274 C275 1.355 . S
N274 C277 1.311 . S
C275 N274 1.355 . S
C275 C276 1.363 . S
C275 H287 0.929 . S
C276 C275 1.363 . S
C276 N278 1.375 . S
C276 H294 0.931 . S
C277 N274 1.311 . S
C277 N278 1.347 . S
C277 H288 0.929 . S
N278 C276 1.375 . S
N278 C277 1.347 . S
C279 C282 1.365 . S
C279 N284 1.328 . S
C279 H285 0.929 . S
C280 C281 1.362 . S
C280 C283 1.378 . S
C280 H295 0.929 . S
C281 C280 1.362 . S
C281 C282 1.366 . S
C282 C279 1.365 . S
C282 C281 1.366 . S
C282 H296 0.930 . S
C283 C280 1.378 . S
C283 N284 1.315 . S
C283 H286 0.930 . S
N284 Co264 2.194 . S
N284 C279 1.328 . S
N284 C283 1.315 . S
H285 C279 0.929 . S
H286 C283 0.930 . S
H287 C275 0.929 . S
H288 C277 0.929 . S
O289 Co264 2.351 . S
O289 C292 1.244 . S
O290 Co264 2.155 . S
O290 C292 1.240 . S
O291 Co264 2.096 . S
O291 C272 1.247 . S
C292 O289 1.244 . S
C292 O290 1.240 . S
H293 C267 0.931 . S
H294 C276 0.931 . S
H295 C280 0.929 . S
H296 C282 0.930 . S
Co297 N301 2.148 . S
Co297 N307 2.128 . S
Co297 N317 2.194 . S
Co297 O322 2.351 . S
Co297 O323 2.155 . S
Co297 O324 2.096 . S
C298 N301 1.301 . S
C298 N302 1.328 . S
C298 H303 0.930 . S
C299 C300 1.333 . S
C299 N301 1.317 . S
C299 H304 0.930 . S
C300 C299 1.333 . S
C300 N302 1.350 . S
C300 H326 0.931 1_655 S
N301 Co297 2.148 . S
N301 C298 1.301 . S
N301 C299 1.317 . S
N302 C298 1.328 . S
N302 C300 1.350 . S
H303 C298 0.930 . S
H304 C299 0.930 . S
C305 O306 1.224 . S
C305 O324 1.247 . S
O306 C305 1.224 . S
N307 Co297 2.128 . S
N307 C308 1.355 . S
N307 C310 1.311 . S
C308 N307 1.355 . S
C308 C309 1.363 . S
C308 H320 0.929 . S
C309 C308 1.363 . S
C309 N311 1.375 . S
C309 H327 0.931 . S
C310 N307 1.311 . S
C310 N311 1.347 . S
C310 H321 0.929 . S
N311 C309 1.375 . S
N311 C310 1.347 . S
C312 C315 1.365 . S
C312 N317 1.328 . S
C312 H318 0.929 . S
C313 C314 1.362 . S
C313 C316 1.378 . S
C313 H328 0.929 . S
C314 C313 1.362 . S
C314 C315 1.366 . S
C315 C312 1.365 . S
C315 C314 1.366 . S
C315 H329 0.930 . S
C316 C313 1.378 . S
C316 N317 1.315 . S
C316 H319 0.930 . S
N317 Co297 2.194 . S
N317 C312 1.328 . S
N317 C316 1.315 . S
H318 C312 0.929 . S
H319 C316 0.930 . S
H320 C308 0.929 . S
H321 C310 0.929 . S
O322 Co297 2.351 . S
O322 C325 1.244 . S
O323 Co297 2.155 . S
O323 C325 1.240 . S
O324 Co297 2.096 . S
O324 C305 1.247 . S
C325 O322 1.244 . S
C325 O323 1.240 . S
H326 C300 0.931 1_455 S
H327 C309 0.931 . S
H328 C313 0.929 . S
H329 C315 0.930 . S
Co330 N334 2.148 . S
Co330 N340 2.128 . S
Co330 N350 2.194 . S
Co330 O355 2.351 . S
Co330 O356 2.155 . S
Co330 O357 2.096 . S
C331 N334 1.301 . S
C331 N335 1.328 . S
C331 H336 0.930 . S
C332 C333 1.333 . S
C332 N334 1.317 . S
C332 H337 0.930 . S
C333 C332 1.333 . S
C333 N335 1.350 . S
C333 H359 0.931 1_455 S
N334 Co330 2.148 . S
N334 C331 1.301 . S
N334 C332 1.317 . S
N335 C331 1.328 . S
N335 C333 1.350 . S
H336 C331 0.930 . S
H337 C332 0.930 . S
C338 O339 1.224 . S
C338 O357 1.247 . S
O339 C338 1.224 . S
N340 Co330 2.128 . S
N340 C341 1.355 . S
N340 C343 1.311 . S
C341 N340 1.355 . S
C341 C342 1.363 . S
C341 H353 0.929 . S
C342 C341 1.363 . S
C342 N344 1.375 . S
C342 H360 0.931 . S
C343 N340 1.311 . S
C343 N344 1.347 . S
C343 H354 0.929 . S
N344 C342 1.375 . S
N344 C343 1.347 . S
C345 C348 1.365 . S
C345 N350 1.328 . S
C345 H351 0.929 . S
C346 C347 1.362 . S
C346 C349 1.378 . S
C346 H361 0.929 . S
C347 C346 1.362 . S
C347 C348 1.366 . S
C348 C345 1.365 . S
C348 C347 1.366 . S
C348 H362 0.930 . S
C349 C346 1.378 . S
C349 N350 1.315 . S
C349 H352 0.930 . S
N350 Co330 2.194 . S
N350 C345 1.328 . S
N350 C349 1.315 . S
H351 C345 0.929 . S
H352 C349 0.930 . S
H353 C341 0.929 . S
H354 C343 0.929 . S
O355 Co330 2.351 . S
O355 C358 1.244 . S
O356 Co330 2.155 . S
O356 C358 1.240 . S
O357 Co330 2.096 . S
O357 C338 1.247 . S
C358 O355 1.244 . S
C358 O356 1.240 . S
H359 C333 0.931 1_655 S
H360 C342 0.931 . S
H361 C346 0.929 . S
H362 C348 0.930 . S
Co363 N367 2.148 . S
Co363 N373 2.128 . S
Co363 N383 2.194 . S
Co363 O388 2.351 . S
Co363 O389 2.155 . S
Co363 O390 2.096 . S
C364 N367 1.301 . S
C364 N368 1.328 . S
C364 H369 0.930 . S
C365 C366 1.333 . S
C365 N367 1.317 . S
C365 H370 0.930 . S
C366 C365 1.333 . S
C366 N368 1.350 . S
C366 H392 0.931 . S
N367 Co363 2.148 . S
N367 C364 1.301 . S
N367 C365 1.317 . S
N368 C364 1.328 . S
N368 C366 1.350 . S
H369 C364 0.930 . S
H370 C365 0.930 . S
C371 O372 1.224 . S
C371 O390 1.247 . S
O372 C371 1.224 . S
N373 Co363 2.128 . S
N373 C374 1.355 . S
N373 C376 1.311 . S
C374 N373 1.355 . S
C374 C375 1.363 . S
C374 H386 0.929 . S
C375 C374 1.363 . S
C375 N377 1.375 . S
C375 H393 0.931 . S
C376 N373 1.311 . S
C376 N377 1.347 . S
C376 H387 0.929 . S
N377 C375 1.375 . S
N377 C376 1.347 . S
C378 C381 1.365 . S
C378 N383 1.328 . S
C378 H384 0.929 . S
C379 C380 1.362 . S
C379 C382 1.378 . S
C379 H394 0.929 . S
C380 C379 1.362 . S
C380 C381 1.366 . S
C381 C378 1.365 . S
C381 C380 1.366 . S
C381 H395 0.930 . S
C382 C379 1.378 . S
C382 N383 1.315 . S
C382 H385 0.930 . S
N383 Co363 2.194 . S
N383 C378 1.328 . S
N383 C382 1.315 . S
H384 C378 0.929 . S
H385 C382 0.930 . S
H386 C374 0.929 . S
H387 C376 0.929 . S
O388 Co363 2.351 . S
O388 C391 1.244 . S
O389 Co363 2.155 . S
O389 C391 1.240 . S
O390 Co363 2.096 . S
O390 C371 1.247 . S
C391 O388 1.244 . S
C391 O389 1.240 . S
H392 C366 0.931 . S
H393 C375 0.931 . S
H394 C379 0.929 . S
H395 C381 0.930 . S
Co396 N400 2.148 . S
Co396 N406 2.128 . S
Co396 N416 2.194 . S
Co396 O421 2.351 . S
Co396 O422 2.155 . S
Co396 O423 2.096 . S
C397 N400 1.301 . S
C397 N401 1.328 . S
C397 H402 0.930 . S
C398 C399 1.333 . S
C398 N400 1.317 . S
C398 H403 0.930 . S
C399 C398 1.333 . S
C399 N401 1.350 . S
C399 H425 0.931 . S
N400 Co396 2.148 . S
N400 C397 1.301 . S
N400 C398 1.317 . S
N401 C397 1.328 . S
N401 C399 1.350 . S
H402 C397 0.930 . S
H403 C398 0.930 . S
C404 O405 1.224 . S
C404 O423 1.247 . S
O405 C404 1.224 . S
N406 Co396 2.128 . S
N406 C407 1.355 . S
N406 C409 1.311 . S
C407 N406 1.355 . S
C407 C408 1.363 . S
C407 H419 0.929 . S
C408 C407 1.363 . S
C408 N410 1.375 . S
C408 H426 0.931 . S
C409 N406 1.311 . S
C409 N410 1.347 . S
C409 H420 0.929 . S
N410 C408 1.375 . S
N410 C409 1.347 . S
C411 C414 1.365 . S
C411 N416 1.328 . S
C411 H417 0.929 . S
C412 C413 1.362 . S
C412 C415 1.378 . S
C412 H427 0.929 . S
C413 C412 1.362 . S
C413 C414 1.366 . S
C414 C411 1.365 . S
C414 C413 1.366 . S
C414 H428 0.930 . S
C415 C412 1.378 . S
C415 N416 1.315 . S
C415 H418 0.930 . S
N416 Co396 2.194 . S
N416 C411 1.328 . S
N416 C415 1.315 . S
H417 C411 0.929 . S
H418 C415 0.930 . S
H419 C407 0.929 . S
H420 C409 0.929 . S
O421 Co396 2.351 . S
O421 C424 1.244 . S
O422 Co396 2.155 . S
O422 C424 1.240 . S
O423 Co396 2.096 . S
O423 C404 1.247 . S
C424 O421 1.244 . S
C424 O422 1.240 . S
H425 C399 0.931 . S
H426 C408 0.931 . S
H427 C412 0.929 . S
H428 C414 0.930 . S
Co429 N433 2.148 . S
Co429 N439 2.128 . S
Co429 N449 2.194 . S
Co429 O454 2.351 . S
Co429 O455 2.155 . S
Co429 O456 2.096 . S
C430 N433 1.301 . S
C430 N434 1.328 . S
C430 H435 0.930 . S
C431 C432 1.333 . S
C431 N433 1.317 . S
C431 H436 0.930 . S
C432 C431 1.333 . S
C432 N434 1.350 . S
C432 H458 0.931 1_455 S
N433 Co429 2.148 . S
N433 C430 1.301 . S
N433 C431 1.317 . S
N434 C430 1.328 . S
N434 C432 1.350 . S
H435 C430 0.930 . S
H436 C431 0.930 . S
C437 O438 1.224 . S
C437 O456 1.247 . S
O438 C437 1.224 . S
N439 Co429 2.128 . S
N439 C440 1.355 . S
N439 C442 1.311 . S
C440 N439 1.355 . S
C440 C441 1.363 . S
C440 H452 0.929 . S
C441 C440 1.363 . S
C441 N443 1.375 . S
C441 H459 0.931 . S
C442 N439 1.311 . S
C442 N443 1.347 . S
C442 H453 0.929 . S
N443 C441 1.375 . S
N443 C442 1.347 . S
C444 C447 1.365 . S
C444 N449 1.328 . S
C444 H450 0.929 . S
C445 C446 1.362 . S
C445 C448 1.378 . S
C445 H460 0.929 . S
C446 C445 1.362 . S
C446 C447 1.366 . S
C447 C444 1.365 . S
C447 C446 1.366 . S
C447 H461 0.930 . S
C448 C445 1.378 . S
C448 N449 1.315 . S
C448 H451 0.930 . S
N449 Co429 2.194 . S
N449 C444 1.328 . S
N449 C448 1.315 . S
H450 C444 0.929 . S
H451 C448 0.930 . S
H452 C440 0.929 . S
H453 C442 0.929 . S
O454 Co429 2.351 . S
O454 C457 1.244 . S
O455 Co429 2.155 . S
O455 C457 1.240 . S
O456 Co429 2.096 . S
O456 C437 1.247 . S
C457 O454 1.244 . S
C457 O455 1.240 . S
H458 C432 0.931 1_655 S
H459 C441 0.931 . S
H460 C445 0.929 . S
H461 C447 0.930 . S
Co462 N466 2.148 . S
Co462 N472 2.128 . S
Co462 N482 2.194 . S
Co462 O487 2.351 . S
Co462 O488 2.155 . S
Co462 O489 2.096 . S
C463 N466 1.301 . S
C463 N467 1.328 . S
C463 H468 0.930 . S
C464 C465 1.333 . S
C464 N466 1.317 . S
C464 H469 0.930 . S
C465 C464 1.333 . S
C465 N467 1.350 . S
C465 H491 0.931 1_655 S
N466 Co462 2.148 . S
N466 C463 1.301 . S
N466 C464 1.317 . S
N467 C463 1.328 . S
N467 C465 1.350 . S
H468 C463 0.930 . S
H469 C464 0.930 . S
C470 O471 1.224 . S
C470 O489 1.247 . S
O471 C470 1.224 . S
N472 Co462 2.128 . S
N472 C473 1.355 . S
N472 C475 1.311 . S
C473 N472 1.355 . S
C473 C474 1.363 . S
C473 H485 0.929 . S
C474 C473 1.363 . S
C474 N476 1.375 . S
C474 H492 0.931 . S
C475 N472 1.311 . S
C475 N476 1.347 . S
C475 H486 0.929 . S
N476 C474 1.375 . S
N476 C475 1.347 . S
C477 C480 1.365 . S
C477 N482 1.328 . S
C477 H483 0.929 . S
C478 C479 1.362 . S
C478 C481 1.378 . S
C478 H493 0.929 . S
C479 C478 1.362 . S
C479 C480 1.366 . S
C480 C477 1.365 . S
C480 C479 1.366 . S
C480 H494 0.930 . S
C481 C478 1.378 . S
C481 N482 1.315 . S
C481 H484 0.930 . S
N482 Co462 2.194 . S
N482 C477 1.328 . S
N482 C481 1.315 . S
H483 C477 0.929 . S
H484 C481 0.930 . S
H485 C473 0.929 . S
H486 C475 0.929 . S
O487 Co462 2.351 . S
O487 C490 1.244 . S
O488 Co462 2.155 . S
O488 C490 1.240 . S
O489 Co462 2.096 . S
O489 C470 1.247 . S
C490 O487 1.244 . S
C490 O488 1.240 . S
H491 C465 0.931 1_455 S
H492 C474 0.931 . S
H493 C478 0.929 . S
H494 C480 0.930 . S
Co495 N499 2.148 . S
Co495 N505 2.128 . S
Co495 N515 2.194 . S
Co495 O520 2.351 . S
Co495 O521 2.155 . S
Co495 O522 2.096 . S
C496 N499 1.301 . S
C496 N500 1.328 . S
C496 H501 0.930 . S
C497 C498 1.333 . S
C497 N499 1.317 . S
C497 H502 0.930 . S
C498 C497 1.333 . S
C498 N500 1.350 . S
C498 H524 0.931 . S
N499 Co495 2.148 . S
N499 C496 1.301 . S
N499 C497 1.317 . S
N500 C496 1.328 . S
N500 C498 1.350 . S
H501 C496 0.930 . S
H502 C497 0.930 . S
C503 O504 1.224 . S
C503 O522 1.247 . S
O504 C503 1.224 . S
N505 Co495 2.128 . S
N505 C506 1.355 . S
N505 C508 1.311 . S
C506 N505 1.355 . S
C506 C507 1.363 . S
C506 H518 0.929 . S
C507 C506 1.363 . S
C507 N509 1.375 . S
C507 H525 0.931 . S
C508 N505 1.311 . S
C508 N509 1.347 . S
C508 H519 0.929 . S
N509 C507 1.375 . S
N509 C508 1.347 . S
C510 C513 1.365 . S
C510 N515 1.328 . S
C510 H516 0.929 . S
C511 C512 1.362 . S
C511 C514 1.378 . S
C511 H526 0.929 . S
C512 C511 1.362 . S
C512 C513 1.366 . S
C513 C510 1.365 . S
C513 C512 1.366 . S
C513 H527 0.930 . S
C514 C511 1.378 . S
C514 N515 1.315 . S
C514 H517 0.930 . S
N515 Co495 2.194 . S
N515 C510 1.328 . S
N515 C514 1.315 . S
H516 C510 0.929 . S
H517 C514 0.930 . S
H518 C506 0.929 . S
H519 C508 0.929 . S
O520 Co495 2.351 . S
O520 C523 1.244 . S
O521 Co495 2.155 . S
O521 C523 1.240 . S
O522 Co495 2.096 . S
O522 C503 1.247 . S
C523 O520 1.244 . S
C523 O521 1.240 . S
H524 C498 0.931 . S
H525 C507 0.931 . S
H526 C511 0.929 . S
H527 C513 0.930 . S
C528 C529 1.369 . S
C528 C530 1.419 . S
C528 H532 0.930 . S
C529 C528 1.369 . S
C529 C538 1.429 1_655 S
C530 C528 1.419 . S
C530 C531 1.363 1_655 S
C530 H533 0.929 . S
C531 C530 1.363 1_455 S
C531 C537 1.428 . S
H532 C528 0.930 . S
H533 C530 0.929 . S
S534 N535 1.613 1_565 S
S534 N536 1.610 1_565 S
N535 S534 1.613 1_545 S
N535 C538 1.350 . S
N536 S534 1.610 1_545 S
N536 C537 1.351 . S
C537 C531 1.428 . S
C537 N536 1.351 . S
C537 C538 1.434 . S
C538 C529 1.429 1_455 S
C538 N535 1.350 . S
C538 C537 1.434 . S
C539 C540 1.369 . S
C539 C541 1.419 . S
C539 H543 0.930 . S
C540 C539 1.369 . S
C540 C549 1.429 . S
C541 C539 1.419 . S
C541 C542 1.363 . S
C541 H544 0.929 . S
C542 C541 1.363 . S
C542 C548 1.428 . S
H543 C539 0.930 . S
H544 C541 0.929 . S
S545 N546 1.613 . S
S545 N547 1.610 . S
N546 S545 1.613 . S
N546 C549 1.350 . S
N547 S545 1.610 . S
N547 C548 1.351 . S
C548 C542 1.428 . S
C548 N547 1.351 . S
C548 C549 1.434 . S
C549 C540 1.429 . S
C549 N546 1.350 . S
C549 C548 1.434 . S
C550 C551 1.369 . S
C550 C552 1.419 . S
C550 H554 0.930 . S
C551 C550 1.369 . S
C551 C560 1.429 1_655 S
C552 C550 1.419 . S
C552 C553 1.363 1_655 S
C552 H555 0.929 . S
C553 C552 1.363 1_455 S
C553 C559 1.428 . S
H554 C550 0.930 . S
H555 C552 0.929 . S
S556 N557 1.613 . S
S556 N558 1.610 . S
N557 S556 1.613 . S
N557 C560 1.350 . S
N558 S556 1.610 . S
N558 C559 1.351 . S
C559 C553 1.428 . S
C559 N558 1.351 . S
C559 C560 1.434 . S
C560 C551 1.429 1_455 S
C560 N557 1.350 . S
C560 C559 1.434 . S
C561 C562 1.369 . S
C561 C563 1.419 . S
C561 H565 0.930 . S
C562 C561 1.369 . S
C562 C571 1.429 . S
C563 C561 1.419 . S
C563 C564 1.363 . S
C563 H566 0.929 . S
C564 C563 1.363 . S
C564 C570 1.428 . S
H565 C561 0.930 . S
H566 C563 0.929 . S
S567 N568 1.613 . S
S567 N569 1.610 . S
N568 S567 1.613 . S
N568 C571 1.350 1_565 S
N569 S567 1.610 . S
N569 C570 1.351 1_565 S
C570 C564 1.428 . S
C570 N569 1.351 1_545 S
C570 C571 1.434 . S
C571 C562 1.429 . S
C571 N568 1.350 1_545 S
C571 C570 1.434 . S
C572 C573 1.369 . S
C572 C574 1.419 . S
C572 H576 0.930 . S
C573 C572 1.369 . S
C573 C582 1.429 . S
C574 C572 1.419 . S
C574 C575 1.363 . S
C574 H577 0.929 . S
C575 C574 1.363 . S
C575 C581 1.428 . S
H576 C572 0.930 . S
H577 C574 0.929 . S
S578 N579 1.613 . S
S578 N580 1.610 . S
N579 S578 1.613 . S
N579 C582 1.350 . S
N580 S578 1.610 . S
N580 C581 1.351 . S
C581 C575 1.428 . S
C581 N580 1.351 . S
C581 C582 1.434 . S
C582 C573 1.429 . S
C582 N579 1.350 . S
C582 C581 1.434 . S
C583 C584 1.369 1_455 S
C583 C585 1.419 . S
C583 H587 0.930 . S
C584 C583 1.369 1_655 S
C584 C593 1.429 . S
C585 C583 1.419 . S
C585 C586 1.363 . S
C585 H588 0.929 . S
C586 C585 1.363 . S
C586 C592 1.428 1_455 S
H587 C583 0.930 . S
H588 C585 0.929 . S
S589 N590 1.613 . S
S589 N591 1.610 . S
N590 S589 1.613 . S
N590 C593 1.350 . S
N591 S589 1.610 . S
N591 C592 1.351 . S
C592 C586 1.428 1_655 S
C592 N591 1.351 . S
C592 C593 1.434 . S
C593 C584 1.429 . S
C593 N590 1.350 . S
C593 C592 1.434 . S
C594 C595 1.369 . S
C594 C596 1.419 . S
C594 H598 0.930 . S
C595 C594 1.369 . S
C595 C604 1.429 . S
C596 C594 1.419 . S
C596 C597 1.363 . S
C596 H599 0.929 . S
C597 C596 1.363 . S
C597 C603 1.428 . S
H598 C594 0.930 . S
H599 C596 0.929 . S
S600 N601 1.613 . S
S600 N602 1.610 . S
N601 S600 1.613 . S
N601 C604 1.350 . S
N602 S600 1.610 . S
N602 C603 1.351 . S
C603 C597 1.428 . S
C603 N602 1.351 . S
C603 C604 1.434 . S
C604 C595 1.429 . S
C604 N601 1.350 . S
C604 C603 1.434 . S
C605 C606 1.369 1_455 S
C605 C607 1.419 . S
C605 H609 0.930 . S
C606 C605 1.369 1_655 S
C606 C615 1.429 . S
C607 C605 1.419 . S
C607 C608 1.363 . S
C607 H610 0.929 . S
C608 C607 1.363 . S
C608 C614 1.428 1_455 S
H609 C605 0.930 . S
H610 C607 0.929 . S
S611 N612 1.613 . S
S611 N613 1.610 . S
N612 S611 1.613 . S
N612 C615 1.350 . S
N613 S611 1.610 . S
N613 C614 1.351 . S
C614 C608 1.428 1_655 S
C614 N613 1.351 . S
C614 C615 1.434 . S
C615 C606 1.429 . S
C615 N612 1.350 . S
C615 C614 1.434 . S
C616 C617 1.369 . S
C616 C618 1.419 . S
C616 H620 0.930 . S
C617 C616 1.369 . S
C617 C626 1.429 . S
C618 C616 1.419 . S
C618 C619 1.363 . S
C618 H621 0.929 . S
C619 C618 1.363 . S
C619 C625 1.428 . S
H620 C616 0.930 . S
H621 C618 0.929 . S
S622 N623 1.613 . S
S622 N624 1.610 . S
N623 S622 1.613 . S
N623 C626 1.350 . S
N624 S622 1.610 . S
N624 C625 1.351 . S
C625 C619 1.428 . S
C625 N624 1.351 . S
C625 C626 1.434 . S
C626 C617 1.429 . S
C626 N623 1.350 . S
C626 C625 1.434 . S
C627 C628 1.369 . S
C627 C629 1.419 . S
C627 H631 0.930 . S
C628 C627 1.369 . S
C628 C637 1.429 . S
C629 C627 1.419 . S
C629 C630 1.363 . S
C629 H632 0.929 . S
C630 C629 1.363 . S
C630 C636 1.428 . S
H631 C627 0.930 . S
H632 C629 0.929 . S
S633 N634 1.613 . S
S633 N635 1.610 . S
N634 S633 1.613 . S
N634 C637 1.350 . S
N635 S633 1.610 . S
N635 C636 1.351 . S
C636 C630 1.428 . S
C636 N635 1.351 . S
C636 C637 1.434 . S
C637 C628 1.429 . S
C637 N634 1.350 . S
C637 C636 1.434 . S
C638 C639 1.369 . S
C638 C640 1.419 . S
C638 H642 0.930 . S
C639 C638 1.369 . S
C639 C648 1.429 . S
C640 C638 1.419 . S
C640 C641 1.363 . S
C640 H643 0.929 . S
C641 C640 1.363 . S
C641 C647 1.428 . S
H642 C638 0.930 . S
H643 C640 0.929 . S
S644 N645 1.613 . S
S644 N646 1.610 . S
N645 S644 1.613 . S
N645 C648 1.350 . S
N646 S644 1.610 . S
N646 C647 1.351 . S
C647 C641 1.428 . S
C647 N646 1.351 . S
C647 C648 1.434 . S
C648 C639 1.429 . S
C648 N645 1.350 . S
C648 C647 1.434 . S
C649 C650 1.369 . S
C649 C651 1.419 . S
C649 H653 0.930 . S
C650 C649 1.369 . S
C650 C659 1.429 . S
C651 C649 1.419 . S
C651 C652 1.363 . S
C651 H654 0.929 . S
C652 C651 1.363 . S
C652 C658 1.428 . S
H653 C649 0.930 . S
H654 C651 0.929 . S
S655 N656 1.613 . S
S655 N657 1.610 . S
N656 S655 1.613 . S
N656 C659 1.350 . S
N657 S655 1.610 . S
N657 C658 1.351 . S
C658 C652 1.428 . S
C658 N657 1.351 . S
C658 C659 1.434 . S
C659 C650 1.429 . S
C659 N656 1.350 . S
C659 C658 1.434 . S
C660 C661 1.369 . S
C660 C662 1.419 . S
C660 H664 0.930 . S
C661 C660 1.369 . S
C661 C670 1.429 . S
C662 C660 1.419 . S
C662 C663 1.363 . S
C662 H665 0.929 . S
C663 C662 1.363 . S
C663 C669 1.428 . S
H664 C660 0.930 . S
H665 C662 0.929 . S
S666 N667 1.613 . S
S666 N668 1.610 . S
N667 S666 1.613 . S
N667 C670 1.350 . S
N668 S666 1.610 . S
N668 C669 1.351 . S
C669 C663 1.428 . S
C669 N668 1.351 . S
C669 C670 1.434 . S
C670 C661 1.429 . S
C670 N667 1.350 . S
C670 C669 1.434 . S
C671 C672 1.369 . S
C671 C673 1.419 . S
C671 H675 0.930 . S
C672 C671 1.369 . S
C672 C681 1.429 . S
C673 C671 1.419 . S
C673 C674 1.363 . S
C673 H676 0.929 . S
C674 C673 1.363 . S
C674 C680 1.428 . S
H675 C671 0.930 . S
H676 C673 0.929 . S
S677 N678 1.613 . S
S677 N679 1.610 . S
N678 S677 1.613 . S
N678 C681 1.350 . S
N679 S677 1.610 . S
N679 C680 1.351 . S
C680 C674 1.428 . S
C680 N679 1.351 . S
C680 C681 1.434 . S
C681 C672 1.429 . S
C681 N678 1.350 . S
C681 C680 1.434 . S
C682 C683 1.369 . S
C682 C684 1.419 . S
C682 H686 0.930 . S
C683 C682 1.369 . S
C683 C692 1.429 . S
C684 C682 1.419 . S
C684 C685 1.363 . S
C684 H687 0.929 . S
C685 C684 1.363 . S
C685 C691 1.428 . S
H686 C682 0.930 . S
H687 C684 0.929 . S
S688 N689 1.613 . S
S688 N690 1.610 . S
N689 S688 1.613 . S
N689 C692 1.350 . S
N690 S688 1.610 . S
N690 C691 1.351 . S
C691 C685 1.428 . S
C691 N690 1.351 . S
C691 C692 1.434 . S
C692 C683 1.429 . S
C692 N689 1.350 . S
C692 C691 1.434 . S
C693 C694 1.369 . S
C693 C695 1.419 . S
C693 H697 0.930 . S
C694 C693 1.369 . S
C694 C703 1.429 . S
C695 C693 1.419 . S
C695 C696 1.363 . S
C695 H698 0.929 . S
C696 C695 1.363 . S
C696 C702 1.428 . S
H697 C693 0.930 . S
H698 C695 0.929 . S
S699 N700 1.613 . S
S699 N701 1.610 . S
N700 S699 1.613 . S
N700 C703 1.350 . S
N701 S699 1.610 . S
N701 C702 1.351 . S
C702 C696 1.428 . S
C702 N701 1.351 . S
C702 C703 1.434 . S
C703 C694 1.429 . S
C703 N700 1.350 . S
C703 C702 1.434 . S
C704 C705 1.369 . S
C704 C706 1.419 1_545 S
C704 H708 0.930 . S
C705 C704 1.369 . S
C705 C714 1.429 1_455 S
C706 C704 1.419 1_565 S
C706 C707 1.363 1_455 S
C706 H709 0.929 . S
C707 C706 1.363 1_655 S
C707 C713 1.428 . S
H708 C704 0.930 . S
H709 C706 0.929 . S
S710 N711 1.613 1_565 S
S710 N712 1.610 . S
N711 S710 1.613 1_545 S
N711 C714 1.350 . S
N712 S710 1.610 . S
N712 C713 1.351 . S
C713 C707 1.428 . S
C713 N712 1.351 . S
C713 C714 1.434 1_565 S
C714 C705 1.429 1_655 S
C714 N711 1.350 . S
C714 C713 1.434 1_545 S
C715 C716 1.369 1_545 S
C715 C717 1.419 . S
C715 H719 0.930 . S
C716 C715 1.369 1_565 S
C716 C725 1.429 . S
C717 C715 1.419 . S
C717 C718 1.363 . S
C717 H720 0.929 . S
C718 C717 1.363 . S
C718 C724 1.428 1_545 S
H719 C715 0.930 . S
H720 C717 0.929 . S
S721 N722 1.613 . S
S721 N723 1.610 . S
N722 S721 1.613 . S
N722 C725 1.350 . S
N723 S721 1.610 . S
N723 C724 1.351 . S
C724 C718 1.428 1_565 S
C724 N723 1.351 . S
C724 C725 1.434 . S
C725 C716 1.429 . S
C725 N722 1.350 . S
C725 C724 1.434 . S
C726 C727 1.369 . S
C726 C728 1.419 1_556 S
C726 H730 0.931 . S
C727 C726 1.369 . S
C727 C736 1.429 1_545 S
C728 C726 1.419 1_554 S
C728 C729 1.363 1_545 S
C728 H731 0.929 . S
C729 C728 1.363 1_565 S
C729 C735 1.431 . S
H730 C726 0.931 . S
H731 C728 0.929 . S
S732 N733 1.613 . S
S732 N734 1.610 . S
N733 S732 1.613 . S
N733 C736 1.350 . S
N734 S732 1.610 . S
N734 C735 1.351 1_556 S
C735 C729 1.431 . S
C735 N734 1.351 1_554 S
C735 C736 1.431 1_554 S
C736 C727 1.429 1_565 S
C736 N733 1.350 . S
C736 C735 1.431 1_556 S
C737 C738 1.369 1_455 S
C737 C739 1.419 1_554 S
C737 H741 0.930 . S
C738 C737 1.369 1_655 S
C738 C747 1.429 1_545 S
C739 C737 1.419 1_556 S
C739 C740 1.363 1_545 S
C739 H742 0.929 . S
C740 C739 1.363 1_565 S
C740 C746 1.428 1_455 S
H741 C737 0.930 . S
H742 C739 0.929 . S
S743 N744 1.613 1_556 S
S743 N745 1.610 . S
N744 S743 1.613 1_554 S
N744 C747 1.350 . S
N745 S743 1.610 . S
N745 C746 1.351 . S
C746 C740 1.428 1_655 S
C746 N745 1.351 . S
C746 C747 1.434 1_556 S
C747 C738 1.429 1_565 S
C747 N744 1.350 . S
C747 C746 1.434 1_554 S
C748 C749 1.369 . S
C748 C750 1.419 . S
C748 H752 0.930 . S
C749 C748 1.369 . S
C749 C758 1.429 . S
C750 C748 1.419 . S
C750 C751 1.363 . S
C750 H753 0.929 . S
C751 C750 1.363 . S
C751 C757 1.428 . S
H752 C748 0.930 . S
H753 C750 0.929 . S
S754 N755 1.613 . S
S754 N756 1.610 . S
N755 S754 1.613 . S
N755 C758 1.350 . S
N756 S754 1.610 . S
N756 C757 1.351 . S
C757 C751 1.428 . S
C757 N756 1.351 . S
C757 C758 1.434 . S
C758 C749 1.429 . S
C758 N755 1.350 . S
C758 C757 1.434 . S
C759 C760 1.369 . S
C759 C761 1.419 1_455 S
C759 H763 0.930 . S
C760 C759 1.369 . S
C760 C769 1.429 . S
C761 C759 1.419 1_655 S
C761 C762 1.363 . S
C761 H764 0.929 . S
C762 C761 1.363 . S
C762 C768 1.428 . S
H763 C759 0.930 . S
H764 C761 0.929 . S
S765 N766 1.613 . S
S765 N767 1.610 1_455 S
N766 S765 1.613 . S
N766 C769 1.350 . S
N767 S765 1.610 1_655 S
N767 C768 1.351 . S
C768 C762 1.428 . S
C768 N767 1.351 . S
C768 C769 1.434 1_655 S
C769 C760 1.429 . S
C769 N766 1.350 . S
C769 C768 1.434 1_455 S
C770 C771 1.369 1_655 S
C770 C772 1.419 1_554 S
C770 H774 0.930 . S
C771 C770 1.369 1_455 S
C771 C780 1.429 . S
C772 C770 1.419 1_556 S
C772 C773 1.363 . S
C772 H775 0.929 . S
C773 C772 1.363 . S
C773 C779 1.428 1_655 S
H774 C770 0.930 . S
H775 C772 0.929 . S
S776 N777 1.613 1_556 S
S776 N778 1.610 . S
N777 S776 1.613 1_554 S
N777 C780 1.350 . S
N778 S776 1.610 . S
N778 C779 1.351 . S
C779 C773 1.428 1_455 S
C779 N778 1.351 . S
C779 C780 1.434 1_556 S
C780 C771 1.429 . S
C780 N777 1.350 . S
C780 C779 1.434 1_554 S
C781 C782 1.369 . S
C781 C783 1.419 1_556 S
C781 H785 0.930 . S
C782 C781 1.369 . S
C782 C791 1.429 . S
C783 C781 1.419 1_554 S
C783 C784 1.363 . S
C783 H786 0.929 . S
C784 C783 1.363 . S
C784 C790 1.428 . S
H785 C781 0.930 . S
H786 C783 0.929 . S
S787 N788 1.613 . S
S787 N789 1.610 1_556 S
N788 S787 1.613 . S
N788 C791 1.350 . S
N789 S787 1.610 1_554 S
N789 C790 1.351 . S
C790 C784 1.428 . S
C790 N789 1.351 . S
C790 C791 1.434 1_554 S
C791 C782 1.429 . S
C791 N788 1.350 . S
C791 C790 1.434 1_556 S
C792 C793 1.362 1_565 S
C792 C794 1.425 . S
C792 H796 0.931 . S
C793 C792 1.362 1_545 S
C793 C802 1.429 . S
C794 C792 1.425 . S
C794 C795 1.363 . S
C794 H797 0.929 . S
C795 C794 1.363 . S
C795 C801 1.428 1_565 S
H796 C792 0.931 . S
H797 C794 0.929 . S
S798 N799 1.613 . S
S798 N800 1.610 . S
N799 S798 1.613 . S
N799 C802 1.350 . S
N800 S798 1.610 . S
N800 C801 1.351 . S
C801 C795 1.428 1_545 S
C801 N800 1.351 . S
C801 C802 1.434 . S
C802 C793 1.429 . S
C802 N799 1.350 . S
C802 C801 1.434 . S
C803 C804 1.369 1_565 S
C803 C805 1.419 . S
C803 H807 0.930 . S
C804 C803 1.369 1_545 S
C804 C813 1.429 . S
C805 C803 1.419 . S
C805 C806 1.363 . S
C805 H808 0.929 . S
C806 C805 1.363 . S
C806 C812 1.428 1_565 S
H807 C803 0.930 . S
H808 C805 0.929 . S
S809 N810 1.613 . S
S809 N811 1.610 . S
N810 S809 1.613 . S
N810 C813 1.350 . S
N811 S809 1.610 . S
N811 C812 1.351 . S
C812 C806 1.428 1_545 S
C812 N811 1.351 . S
C812 C813 1.434 . S
C813 C804 1.429 . S
C813 N810 1.350 . S
C813 C812 1.434 . S
C814 C815 1.369 . S
C814 C816 1.419 . S
C814 H818 0.930 . S
C815 C814 1.369 . S
C815 C824 1.429 1_545 S
C816 C814 1.419 . S
C816 C817 1.363 1_545 S
C816 H819 0.929 . S
C817 C816 1.363 1_565 S
C817 C823 1.428 . S
H818 C814 0.930 . S
H819 C816 0.929 . S
S820 N821 1.613 . S
S820 N822 1.610 . S
N821 S820 1.613 . S
N821 C824 1.350 . S
N822 S820 1.610 . S
N822 C823 1.351 . S
C823 C817 1.428 . S
C823 N822 1.351 . S
C823 C824 1.434 . S
C824 C815 1.429 1_565 S
C824 N821 1.350 . S
C824 C823 1.434 . S
C825 C826 1.369 1_565 S
C825 C827 1.419 . S
C825 H829 0.930 . S
C826 C825 1.369 1_545 S
C826 C835 1.429 . S
C827 C825 1.419 . S
C827 C828 1.363 . S
C827 H830 0.929 . S
C828 C827 1.363 . S
C828 C834 1.428 1_565 S
H829 C825 0.930 . S
H830 C827 0.929 . S
S831 N832 1.613 . S
S831 N833 1.610 . S
N832 S831 1.613 . S
N832 C835 1.350 . S
N833 S831 1.610 . S
N833 C834 1.351 . S
C834 C828 1.428 1_545 S
C834 N833 1.351 . S
C834 C835 1.434 . S
C835 C826 1.429 . S
C835 N832 1.350 . S
C835 C834 1.434 . S
C836 C837 1.369 . S
C836 C838 1.419 . S
C836 H840 0.930 . S
C837 C836 1.369 . S
C837 C846 1.429 . S
C838 C836 1.419 . S
C838 C839 1.363 . S
C838 H841 0.929 . S
C839 C838 1.363 . S
C839 C845 1.428 . S
H840 C836 0.930 . S
H841 C838 0.929 . S
S842 N843 1.613 . S
S842 N844 1.610 . S
N843 S842 1.613 . S
N843 C846 1.350 . S
N844 S842 1.610 . S
N844 C845 1.351 . S
C845 C839 1.428 . S
C845 N844 1.351 . S
C845 C846 1.434 . S
C846 C837 1.429 . S
C846 N843 1.350 . S
C846 C845 1.434 . S
C847 C848 1.369 . S
C847 C849 1.419 . S
C847 H851 0.930 . S
C848 C847 1.369 . S
C848 C857 1.429 . S
C849 C847 1.419 . S
C849 C850 1.363 . S
C849 H852 0.929 . S
C850 C849 1.363 . S
C850 C856 1.428 . S
H851 C847 0.930 . S
H852 C849 0.929 . S
S853 N854 1.613 . S
S853 N855 1.610 . S
N854 S853 1.613 . S
N854 C857 1.350 . S
N855 S853 1.610 . S
N855 C856 1.351 . S
C856 C850 1.428 . S
C856 N855 1.351 . S
C856 C857 1.434 . S
C857 C848 1.429 . S
C857 N854 1.350 . S
C857 C856 1.434 . S
C858 C859 1.369 . S
C858 C860 1.419 . S
C858 H862 0.930 . S
C859 C858 1.369 . S
C859 C868 1.429 . S
C860 C858 1.419 . S
C860 C861 1.363 . S
C860 H863 0.929 . S
C861 C860 1.363 . S
C861 C867 1.428 . S
H862 C858 0.930 . S
H863 C860 0.929 . S
S864 N865 1.613 . S
S864 N866 1.610 . S
N865 S864 1.613 . S
N865 C868 1.350 . S
N866 S864 1.610 . S
N866 C867 1.351 . S
C867 C861 1.428 . S
C867 N866 1.351 . S
C867 C868 1.434 . S
C868 C859 1.429 . S
C868 N865 1.350 . S
C868 C867 1.434 . S
C869 C870 1.369 . S
C869 C871 1.419 . S
C869 H873 0.930 . S
C870 C869 1.369 . S
C870 C879 1.429 . S
C871 C869 1.419 . S
C871 C872 1.363 . S
C871 H874 0.929 . S
C872 C871 1.363 . S
C872 C878 1.428 . S
H873 C869 0.930 . S
H874 C871 0.929 . S
S875 N876 1.613 . S
S875 N877 1.610 . S
N876 S875 1.613 . S
N876 C879 1.350 . S
N877 S875 1.610 . S
N877 C878 1.351 . S
C878 C872 1.428 . S
C878 N877 1.351 . S
C878 C879 1.434 . S
C879 C870 1.429 . S
C879 N876 1.350 . S
C879 C878 1.434 . S
C880 C881 1.369 . S
C880 C882 1.419 1_455 S
C880 H884 0.930 . S
C881 C880 1.369 . S
C881 C890 1.429 . S
C882 C880 1.419 1_655 S
C882 C883 1.363 . S
C882 H885 0.929 . S
C883 C882 1.363 . S
C883 C889 1.428 . S
H884 C880 0.930 . S
H885 C882 0.929 . S
S886 N887 1.613 1_655 S
S886 N888 1.610 . S
N887 S886 1.613 1_455 S
N887 C890 1.350 . S
N888 S886 1.610 . S
N888 C889 1.351 . S
C889 C883 1.428 . S
C889 N888 1.351 . S
C889 C890 1.434 1_655 S
C890 C881 1.429 . S
C890 N887 1.350 . S
C890 C889 1.434 1_455 S
C891 C892 1.369 . S
C891 C893 1.419 . S
C891 H895 0.930 . S
C892 C891 1.369 . S
C892 C901 1.429 . S
C893 C891 1.419 . S
C893 C894 1.363 . S
C893 H896 0.929 . S
C894 C893 1.363 . S
C894 C900 1.428 . S
H895 C891 0.930 . S
H896 C893 0.929 . S
S897 N898 1.613 . S
S897 N899 1.610 . S
N898 S897 1.613 . S
N898 C901 1.350 . S
N899 S897 1.610 . S
N899 C900 1.351 . S
C900 C894 1.428 . S
C900 N899 1.351 . S
C900 C901 1.434 . S
C901 C892 1.429 . S
C901 N898 1.350 . S
C901 C900 1.434 . S
C902 C903 1.369 . S
C902 C904 1.419 . S
C902 H906 0.930 . S
C903 C902 1.369 . S
C903 C912 1.429 . S
C904 C902 1.419 . S
C904 C905 1.363 . S
C904 H907 0.929 . S
C905 C904 1.363 . S
C905 C911 1.428 . S
H906 C902 0.930 . S
H907 C904 0.929 . S
S908 N909 1.613 . S
S908 N910 1.610 . S
N909 S908 1.613 . S
N909 C912 1.350 . S
N910 S908 1.610 . S
N910 C911 1.351 . S
C911 C905 1.428 . S
C911 N910 1.351 . S
C911 C912 1.434 . S
C912 C903 1.429 . S
C912 N909 1.350 . S
C912 C911 1.434 . S
C913 C914 1.369 . S
C913 C915 1.419 1_655 S
C913 H917 0.930 . S
C914 C913 1.369 . S
C914 C923 1.429 . S
C915 C913 1.419 1_455 S
C915 C916 1.363 . S
C915 H918 0.929 . S
C916 C915 1.363 . S
C916 C922 1.453 . S
H917 C913 0.930 . S
H918 C915 0.929 . S
S919 N920 1.613 . S
S919 N921 1.610 . S
N920 S919 1.613 . S
N920 C923 1.350 . S
N921 S919 1.610 . S
N921 C922 1.349 1_655 S
C922 C916 1.453 . S
C922 N921 1.349 1_455 S
C922 C923 1.410 1_455 S
C923 C914 1.429 . S
C923 N920 1.350 . S
C923 C922 1.410 1_655 S
C924 C925 1.369 . S
C924 C926 1.419 1_655 S
C924 H928 0.930 . S
C925 C924 1.369 . S
C925 C934 1.429 . S
C926 C924 1.419 1_455 S
C926 C927 1.363 . S
C926 H929 0.929 . S
C927 C926 1.363 . S
C927 C933 1.428 . S
H928 C924 0.930 . S
H929 C926 0.929 . S
S930 N931 1.613 . S
S930 N932 1.610 1_655 S
N931 S930 1.613 . S
N931 C934 1.350 . S
N932 S930 1.610 1_455 S
N932 C933 1.351 . S
C933 C927 1.428 . S
C933 N932 1.351 . S
C933 C934 1.434 1_455 S
C934 C925 1.429 . S
C934 N931 1.350 . S
C934 C933 1.434 1_655 S
C935 C936 1.369 . S
C935 C937 1.419 . S
C935 H939 0.930 . S
C936 C935 1.369 . S
C936 C945 1.429 . S
C937 C935 1.419 . S
C937 C938 1.363 . S
C937 H940 0.929 . S
C938 C937 1.363 . S
C938 C944 1.428 . S
H939 C935 0.930 . S
H940 C937 0.929 . S
S941 N942 1.613 . S
S941 N943 1.610 . S
N942 S941 1.613 . S
N942 C945 1.350 . S
N943 S941 1.610 . S
N943 C944 1.351 . S
C944 C938 1.428 . S
C944 N943 1.351 . S
C944 C945 1.434 . S
C945 C936 1.429 . S
C945 N942 1.350 . S
C945 C944 1.434 . S
C946 C947 1.369 . S
C946 C948 1.419 . S
C946 H950 0.930 . S
C947 C946 1.369 . S
C947 C956 1.429 . S
C948 C946 1.419 . S
C948 C949 1.363 . S
C948 H951 0.929 . S
C949 C948 1.363 . S
C949 C955 1.428 . S
H950 C946 0.930 . S
H951 C948 0.929 . S
S952 N953 1.613 . S
S952 N954 1.610 . S
N953 S952 1.613 . S
N953 C956 1.350 . S
N954 S952 1.610 . S
N954 C955 1.351 . S
C955 C949 1.428 . S
C955 N954 1.351 . S
C955 C956 1.434 . S
C956 C947 1.429 . S
C956 N953 1.350 . S
C956 C955 1.434 . S
C957 C958 1.369 . S
C957 C959 1.418 . S
C957 H961 0.930 . S
C958 C957 1.369 . S
C958 C967 1.429 1_655 S
C959 C957 1.418 . S
C959 C960 1.363 1_655 S
C959 H962 0.929 . S
C960 C959 1.363 1_455 S
C960 C966 1.428 . S
H961 C957 0.930 . S
H962 C959 0.929 . S
S963 N964 1.613 . S
S963 N965 1.610 . S
N964 S963 1.613 . S
N964 C967 1.350 . S
N965 S963 1.610 . S
N965 C966 1.351 . S
C966 C960 1.428 . S
C966 N965 1.351 . S
C966 C967 1.434 . S
C967 C958 1.429 1_455 S
C967 N964 1.350 . S
C967 C966 1.434 . S
C529 C107 1.651 . S
C531 C8 1.649 . S
C540 C74 1.645 . S
C542 C41 1.647 . S
C551 C140 1.648 . S
C553 C239 1.647 . S
C562 C173 1.651 . S
C564 C206 1.649 . S
C573 C272 1.651 . S
C575 C371 1.650 . S
C584 C305 1.648 . S
C586 C338 1.650 . S
C595 C503 1.645 . S
C597 C404 1.646 . S
C606 C470 1.647 . S
C608 C437 1.649 . S
C617 N14 0.704 . S
C619 N344 0.703 . S
C628 N377 0.699 . S
C630 N47 0.707 . S
C639 N278 0.697 . S
C641 N80 0.708 . S
C650 N311 0.711 . S
C652 N113 0.697 . S
C661 N476 0.696 . S
C663 N146 0.709 . S
C672 N509 0.695 . S
C674 N179 0.709 . S
C683 N410 0.707 . S
C685 N212 0.701 . S
C694 N443 0.710 . S
C696 N245 0.697 . S
C705 N5 1.488 . S
C707 N137 1.493 . S
C716 N38 1.489 . S
C718 N170 1.492 . S
C727 N203 1.489 . S
C729 N71 1.492 . S
C738 N104 1.492 . S
C740 N236 1.490 . S
C749 N269 1.490 . S
C751 N401 1.492 . S
C760 N434 1.491 . S
C762 N302 1.491 . S
C771 N335 1.493 . S
C773 N467 1.489 . S
C782 N500 1.493 . S
C784 N368 1.490 . S
C793 C17 1.431 . S
C795 C50 1.431 . S
C804 C116 1.434 . S
C806 C83 1.430 . S
C815 C182 1.429 . S
C817 C149 1.434 . S
C826 C215 1.435 . S
C828 C248 1.430 . S
C837 C314 1.430 . S
C839 C281 1.431 . S
C848 C380 1.432 . S
C850 C347 1.430 . S
C859 C413 1.435 . S
C861 C446 1.430 . S
C870 C512 1.435 . S
C872 C479 1.430 . S
C881 C28 1.066 . S
C883 C325 1.070 . S
C892 C61 1.056 . S
C894 C292 1.065 . S
C903 C94 1.070 . S
C905 C391 1.069 . S
C914 C127 1.072 . S
C916 C358 1.065 . S
C925 C160 1.056 . S
C927 C457 1.057 . S
C936 C424 1.054 . S
C938 C193 1.058 . S
C947 C226 1.058 . S
C949 C523 1.066 . S
C958 C490 1.062 . S
C960 C259 1.069 . S
