# Generated by pormake.
# Topology pcl, (4)-cn, num edge types: 1
# Building blocks:
#     Node 0, Type 0, BuildingBlock: ICAMEG_clean_sbu_1, # of connection points: 4
#     Node 1, Type 0, BuildingBlock: ICAMEG_clean_sbu_1, # of connection points: 4
#     Node 2, Type 0, BuildingBlock: ICAMEG_clean_sbu_1, # of connection points: 4
#     Node 3, Type 0, BuildingBlock: ICAMEG_clean_sbu_1, # of connection points: 4
#     Node 4, Type 0, BuildingBlock: ICAMEG_clean_sbu_1, # of connection points: 4
#     Node 5, Type 0, BuildingBlock: ICAMEG_clean_sbu_1, # of connection points: 4
#     Node 6, Type 0, BuildingBlock: ICAMEG_clean_sbu_1, # of connection points: 4
#     Node 7, Type 0, BuildingBlock: ICAMEG_clean_sbu_1, # of connection points: 4
#     Node 8, Type 0, BuildingBlock: ICAMEG_clean_sbu_1, # of connection points: 4
#     Node 9, Type 0, BuildingBlock: ICAMEG_clean_sbu_1, # of connection points: 4
#     Node 10, Type 0, BuildingBlock: ICAMEG_clean_sbu_1, # of connection points: 4
#     Node 11, Type 0, BuildingBlock: ICAMEG_clean_sbu_1, # of connection points: 4
#     Node 12, Type 0, BuildingBlock: ICAMEG_clean_sbu_1, # of connection points: 4
#     Node 13, Type 0, BuildingBlock: ICAMEG_clean_sbu_1, # of connection points: 4
#     Node 14, Type 0, BuildingBlock: ICAMEG_clean_sbu_1, # of connection points: 4
#     Node 15, Type 0, BuildingBlock: ICAMEG_clean_sbu_1, # of connection points: 4
#     Edge 16, Type (0, 0), BuildingBlock: MIFKUJ_clean_linker_0, # of connection points: 2
#     Edge 17, Type (0, 0), BuildingBlock: MIFKUJ_clean_linker_0, # of connection points: 2
#     Edge 18, Type (0, 0), BuildingBlock: MIFKUJ_clean_linker_0, # of connection points: 2
#     Edge 19, Type (0, 0), BuildingBlock: MIFKUJ_clean_linker_0, # of connection points: 2
#     Edge 20, Type (0, 0), BuildingBlock: MIFKUJ_clean_linker_0, # of connection points: 2
#     Edge 21, Type (0, 0), BuildingBlock: MIFKUJ_clean_linker_0, # of connection points: 2
#     Edge 22, Type (0, 0), BuildingBlock: MIFKUJ_clean_linker_0, # of connection points: 2
#     Edge 23, Type (0, 0), BuildingBlock: MIFKUJ_clean_linker_0, # of connection points: 2
#     Edge 24, Type (0, 0), BuildingBlock: MIFKUJ_clean_linker_0, # of connection points: 2
#     Edge 25, Type (0, 0), BuildingBlock: MIFKUJ_clean_linker_0, # of connection points: 2
#     Edge 26, Type (0, 0), BuildingBlock: MIFKUJ_clean_linker_0, # of connection points: 2
#     Edge 27, Type (0, 0), BuildingBlock: MIFKUJ_clean_linker_0, # of connection points: 2
#     Edge 28, Type (0, 0), BuildingBlock: MIFKUJ_clean_linker_0, # of connection points: 2
#     Edge 29, Type (0, 0), BuildingBlock: MIFKUJ_clean_linker_0, # of connection points: 2
#     Edge 30, Type (0, 0), BuildingBlock: MIFKUJ_clean_linker_0, # of connection points: 2
#     Edge 31, Type (0, 0), BuildingBlock: MIFKUJ_clean_linker_0, # of connection points: 2
#     Edge 32, Type (0, 0), BuildingBlock: MIFKUJ_clean_linker_0, # of connection points: 2
#     Edge 33, Type (0, 0), BuildingBlock: MIFKUJ_clean_linker_0, # of connection points: 2
#     Edge 34, Type (0, 0), BuildingBlock: MIFKUJ_clean_linker_0, # of connection points: 2
#     Edge 35, Type (0, 0), BuildingBlock: MIFKUJ_clean_linker_0, # of connection points: 2
#     Edge 36, Type (0, 0), BuildingBlock: MIFKUJ_clean_linker_0, # of connection points: 2
#     Edge 37, Type (0, 0), BuildingBlock: MIFKUJ_clean_linker_0, # of connection points: 2
#     Edge 38, Type (0, 0), BuildingBlock: MIFKUJ_clean_linker_0, # of connection points: 2
#     Edge 39, Type (0, 0), BuildingBlock: MIFKUJ_clean_linker_0, # of connection points: 2
#     Edge 40, Type (0, 0), BuildingBlock: MIFKUJ_clean_linker_0, # of connection points: 2
#     Edge 41, Type (0, 0), BuildingBlock: MIFKUJ_clean_linker_0, # of connection points: 2
#     Edge 42, Type (0, 0), BuildingBlock: MIFKUJ_clean_linker_0, # of connection points: 2
#     Edge 43, Type (0, 0), BuildingBlock: MIFKUJ_clean_linker_0, # of connection points: 2
#     Edge 44, Type (0, 0), BuildingBlock: MIFKUJ_clean_linker_0, # of connection points: 2
#     Edge 45, Type (0, 0), BuildingBlock: MIFKUJ_clean_linker_0, # of connection points: 2
#     Edge 46, Type (0, 0), BuildingBlock: MIFKUJ_clean_linker_0, # of connection points: 2
#     Edge 47, Type (0, 0), BuildingBlock: MIFKUJ_clean_linker_0, # of connection points: 2
# Relax obj value: 0.090
# Max RMSD: 0.122
# Mean RMSD: 0.117
data_MOF--net-pcl--node1-ICAMEG_clean_sbu_1--edge1-MIFKUJ_clean_linker_0
_symmetry_space_group_name_H-M    P1
_symmetry_Int_Tables_number       1
_symmetry_cell_setting            triclinic
loop_
_symmetry_equiv_pos_as_xyz
'x, y, z'
_cell_length_a     71.335049
_cell_length_b     55.625071
_cell_length_c     60.274776
_cell_angle_alpha  89.992899
_cell_angle_beta   90.035938
_cell_angle_gamma 89.945354
loop_
_atom_site_label
_atom_site_type_symbol
_atom_site_fract_x
_atom_site_fract_y
_atom_site_fract_z
_atom_type_partial_charge
Co0 Co 0.13747 0.3617 0.10646 0.0
Co1 Co 0.13327 0.30326 0.0888 0.0
O2 O 0.14409 0.33566 0.08597 0.0
C3 C 0.13263 0.38627 0.06269 0.0
O4 O 0.12473 0.36691 0.05446 0.0
C5 C 0.17455 0.29377 0.08366 0.0
O6 O 0.17789 0.31077 0.09824 0.0
O7 O 0.14142 0.30112 0.1206 0.0
O8 O 0.13549 0.33873 0.13174 0.0
H9 H 0.09556 0.23846 0.12586 0.0
H10 H 0.17154 0.36624 0.07891 0.0
O11 O 0.13917 0.38627 0.08232 0.0
H12 H 0.19388 0.37015 0.15627 0.0
H13 H 0.14263 0.44465 0.13948 0.0
H14 H 0.10896 0.3673 0.14185 0.0
H15 H 0.16018 0.36625 0.14803 0.0
H16 H 0.15136 0.41167 0.11417 0.0
O17 O 0.15768 0.28847 0.07862 0.0
H18 H 0.10899 0.27907 0.12184 0.0
H19 H 0.13533 0.25849 0.06158 0.0
H20 H 0.09987 0.39974 0.16758 0.0
H21 H 0.2054 0.37054 0.08636 0.0
H22 H 0.11676 0.43876 0.1665 0.0
H23 H 0.21676 0.37239 0.12529 0.0
O24 O 0.11045 0.35714 0.09951 0.0
H25 H 0.14171 0.32119 0.0077 0.0
H26 H 0.09738 0.29333 0.06491 0.0
H27 H 0.0869 0.29641 0.02606 0.0
H28 H 0.10911 0.31046 0.99713 0.0
H29 H 0.15162 0.3179 0.0468 0.0
H30 H 0.12232 0.2176 0.06504 0.0
H31 H 0.10221 0.20739 0.09731 0.0
O32 O 0.10828 0.31692 0.09823 0.0
C33 C 0.13908 0.31675 0.13588 0.0
C34 C 0.10427 0.2427 0.11169 0.0
C35 C 0.11931 0.23098 0.07757 0.0
N36 N 0.12285 0.27118 0.09144 0.0
C37 C 0.11188 0.26568 0.1093 0.0
C38 C 0.12669 0.25415 0.07574 0.0
C39 C 0.10802 0.22528 0.09568 0.0
C40 C 0.17638 0.36729 0.09588 0.0
N41 N 0.1639 0.36597 0.11301 0.0
C42 C 0.19556 0.36963 0.1 0.0
C43 C 0.20193 0.37063 0.12185 0.0
C44 C 0.18911 0.36935 0.13924 0.0
C45 C 0.17003 0.36702 0.13448 0.0
C46 C 0.13519 0.42771 0.14015 0.0
C47 C 0.11644 0.38419 0.14135 0.0
C48 C 0.14005 0.40898 0.12583 0.0
N49 N 0.13077 0.38751 0.12663 0.0
C50 C 0.1112 0.40251 0.15593 0.0
C51 C 0.12068 0.4244 0.1553 0.0
C52 C 0.10082 0.33784 0.09894 0.0
C53 C 0.1319 0.31502 0.02015 0.0
C54 C 0.10714 0.29952 0.05245 0.0
C55 C 0.10111 0.3012 0.03046 0.0
C56 C 0.1136 0.30904 0.01423 0.0
N57 N 0.12514 0.30534 0.05812 0.0
C58 C 0.13745 0.31305 0.0423 0.0
Co59 Co 0.86727 0.63844 0.60521 0.0
Co60 Co 0.87355 0.69637 0.5855 0.0
O61 O 0.86256 0.664 0.58347 0.0
C62 C 0.87765 0.61352 0.56303 0.0
O63 O 0.887 0.63269 0.55678 0.0
C64 C 0.83237 0.70639 0.57987 0.0
O65 O 0.82885 0.68996 0.59495 0.0
O66 O 0.86533 0.69998 0.61715 0.0
O67 O 0.86575 0.66204 0.63009 0.0
H68 H 0.91212 0.76184 0.62032 0.0
H69 H 0.83662 0.63401 0.57239 0.0
O70 O 0.86858 0.61357 0.58121 0.0
H71 H 0.80602 0.62713 0.64546 0.0
H72 H 0.8602 0.55568 0.6382 0.0
H73 H 0.89109 0.63458 0.6453 0.0
H74 H 0.84032 0.63196 0.64264 0.0
H75 H 0.8538 0.58795 0.61117 0.0
O76 O 0.8493 0.71112 0.57465 0.0
H77 H 0.89828 0.72134 0.61762 0.0
H78 H 0.87182 0.74017 0.55692 0.0
H79 H 0.89768 0.60292 0.67289 0.0
H80 H 0.80229 0.62893 0.57437 0.0
H81 H 0.88221 0.56312 0.6694 0.0
H82 H 0.78677 0.62556 0.61112 0.0
O83 O 0.89494 0.6433 0.60273 0.0
H84 H 0.86538 0.67535 0.50501 0.0
H85 H 0.90967 0.70476 0.56168 0.0
H86 H 0.92029 0.70012 0.52301 0.0
H87 H 0.89812 0.68524 0.49438 0.0
H88 H 0.85529 0.68035 0.54387 0.0
H89 H 0.88524 0.78094 0.55904 0.0
H90 H 0.90561 0.79198 0.59088 0.0
O91 O 0.89817 0.68273 0.59569 0.0
C92 C 0.86414 0.68466 0.6329 0.0
C93 C 0.90327 0.75725 0.60636 0.0
C94 C 0.88816 0.76798 0.57198 0.0
N95 N 0.88426 0.72838 0.58715 0.0
C96 C 0.89541 0.73434 0.60474 0.0
C97 C 0.88054 0.74489 0.57092 0.0
C98 C 0.89961 0.77415 0.58984 0.0
C99 C 0.82995 0.63246 0.58843 0.0
N100 N 0.84041 0.63352 0.6074 0.0
C101 C 0.81052 0.62962 0.58945 0.0
C102 C 0.80182 0.62776 0.61008 0.0
C103 C 0.81261 0.62868 0.62935 0.0
C104 C 0.832 0.63157 0.62767 0.0
C105 C 0.86702 0.57295 0.6399 0.0
C106 C 0.88421 0.61736 0.64375 0.0
C107 C 0.86351 0.59126 0.62459 0.0
N108 N 0.87201 0.61316 0.6267 0.0
C109 C 0.88804 0.59948 0.65939 0.0
C110 C 0.87936 0.57714 0.65741 0.0
C111 C 0.905 0.66207 0.60023 0.0
C112 C 0.87518 0.68187 0.51733 0.0
C113 C 0.89991 0.69827 0.54933 0.0
C114 C 0.90602 0.69568 0.52745 0.0
C115 C 0.89355 0.68738 0.51139 0.0
N116 N 0.88183 0.69297 0.55501 0.0
C117 C 0.86953 0.6848 0.53935 0.0
Co118 Co 0.14455 0.63792 0.90445 0.0
Co119 Co 0.13979 0.69689 0.92187 0.0
O120 O 0.15029 0.66423 0.9251 0.0
C121 C 0.13547 0.61365 0.9475 0.0
O122 O 0.12584 0.63256 0.95389 0.0
C123 C 0.18114 0.70409 0.93031 0.0
O124 O 0.18458 0.68355 0.92046 0.0
O125 O 0.14778 0.69871 0.88999 0.0
O126 O 0.14478 0.66049 0.87877 0.0
H127 H 0.1021 0.76139 0.88418 0.0
H128 H 0.17631 0.63181 0.93552 0.0
O129 O 0.14422 0.61383 0.92911 0.0
H130 H 0.20415 0.62579 0.86088 0.0
H131 H 0.15054 0.5543 0.87305 0.0
H132 H 0.11846 0.63255 0.86652 0.0
H133 H 0.17018 0.63202 0.86549 0.0
H134 H 0.15816 0.58746 0.89864 0.0
O135 O 0.16437 0.71199 0.93155 0.0
H136 H 0.11538 0.72073 0.88871 0.0
H137 H 0.14217 0.7421 0.94849 0.0
H138 H 0.11053 0.59995 0.84043 0.0
H139 H 0.21033 0.62505 0.93173 0.0
H140 H 0.12661 0.56047 0.84362 0.0
H141 H 0.22449 0.62217 0.89418 0.0
O142 O 0.11714 0.64332 0.90851 0.0
H143 H 0.14846 0.67906 1.00298 0.0
H144 H 0.10416 0.70761 0.94591 0.0
H145 H 0.09375 0.70457 0.9848 0.0
H146 H 0.11599 0.69026 0.01366 0.0
H147 H 0.15824 0.68217 0.96386 0.0
H148 H 0.1293 0.78305 0.94451 0.0
H149 H 0.10905 0.79288 0.91221 0.0
O150 O 0.11476 0.6833 0.91281 0.0
C151 C 0.14721 0.68276 0.87475 0.0
C152 C 0.11087 0.75731 0.89835 0.0
C153 C 0.12616 0.76947 0.9322 0.0
N154 N 0.12946 0.72901 0.91889 0.0
C155 C 0.1184 0.73431 0.90103 0.0
C156 C 0.13345 0.74627 0.93433 0.0
C157 C 0.11479 0.77498 0.91408 0.0
C158 C 0.18234 0.63033 0.91913 0.0
N159 N 0.17126 0.63254 0.90073 0.0
C160 C 0.20163 0.62661 0.91709 0.0
C161 C 0.20956 0.62504 0.89602 0.0
C162 C 0.19817 0.62714 0.87733 0.0
C163 C 0.17894 0.63087 0.88003 0.0
C164 C 0.14344 0.57142 0.87148 0.0
C165 C 0.12557 0.61546 0.86796 0.0
C166 C 0.14765 0.59025 0.88598 0.0
N167 N 0.1388 0.61195 0.88405 0.0
C168 C 0.121 0.59705 0.85316 0.0
C169 C 0.13002 0.5749 0.85497 0.0
C170 C 0.10744 0.66253 0.91009 0.0
C171 C 0.13866 0.6854 0.99057 0.0
C172 C 0.11392 0.70132 0.95835 0.0
C173 C 0.10795 0.69968 0.98036 0.0
C174 C 0.12043 0.69166 0.99655 0.0
N175 N 0.13185 0.69525 0.95263 0.0
C176 C 0.14415 0.6873 0.9684 0.0
Co177 Co 0.87089 0.36583 0.40069 0.0
Co178 Co 0.87552 0.30707 0.41957 0.0
O179 O 0.86548 0.34 0.42203 0.0
C180 C 0.88137 0.38879 0.44413 0.0
O181 O 0.88746 0.36818 0.45193 0.0
C182 C 0.83385 0.29939 0.42473 0.0
O183 O 0.8307 0.31775 0.41154 0.0
O184 O 0.86806 0.30471 0.38746 0.0
O185 O 0.86773 0.34301 0.37552 0.0
H186 H 0.91296 0.24084 0.38421 0.0
H187 H 0.84139 0.37209 0.43466 0.0
O188 O 0.87405 0.3901 0.42492 0.0
H189 H 0.80931 0.38297 0.36286 0.0
H190 H 0.8668 0.44989 0.36983 0.0
H191 H 0.89383 0.36898 0.35986 0.0
H192 H 0.84332 0.37506 0.36435 0.0
H193 H 0.85963 0.41744 0.39635 0.0
O194 O 0.85065 0.29297 0.42897 0.0
H195 H 0.90022 0.28191 0.38759 0.0
H196 H 0.87204 0.26257 0.44701 0.0
H197 H 0.9012 0.40087 0.3328 0.0
H198 H 0.80739 0.38032 0.43402 0.0
H199 H 0.88765 0.44168 0.33772 0.0
H200 H 0.79112 0.3857 0.39791 0.0
O201 O 0.89837 0.35895 0.4021 0.0
H202 H 0.86517 0.32569 0.50022 0.0
H203 H 0.91059 0.29632 0.44485 0.0
H204 H 0.92017 0.29966 0.48403 0.0
H205 H 0.89735 0.31435 0.51205 0.0
H206 H 0.85629 0.32243 0.46079 0.0
H207 H 0.88434 0.22124 0.44419 0.0
H208 H 0.90502 0.21017 0.41265 0.0
O209 O 0.90076 0.31985 0.41089 0.0
C210 C 0.86633 0.32048 0.37216 0.0
C211 C 0.90398 0.24545 0.39805 0.0
C212 C 0.8879 0.23444 0.43169 0.0
N213 N 0.88542 0.27465 0.41748 0.0
C214 C 0.89675 0.26868 0.40006 0.0
C215 C 0.88092 0.25785 0.43315 0.0
C216 C 0.89951 0.22825 0.414 0.0
C217 C 0.8344 0.37452 0.4189 0.0
N218 N 0.84427 0.37286 0.39954 0.0
C219 C 0.81515 0.37913 0.41863 0.0
C220 C 0.80603 0.38212 0.39837 0.0
C221 C 0.81622 0.38055 0.3787 0.0
C222 C 0.83544 0.37589 0.37962 0.0
C223 C 0.87276 0.43218 0.36748 0.0
C224 C 0.88777 0.38665 0.36202 0.0
C225 C 0.86879 0.41373 0.38248 0.0
N226 N 0.8762 0.39127 0.37956 0.0
C227 C 0.89204 0.40465 0.34668 0.0
C228 C 0.88445 0.42755 0.34947 0.0
C229 C 0.90804 0.33999 0.40553 0.0
C230 C 0.87523 0.31922 0.48817 0.0
C231 C 0.90064 0.30291 0.45689 0.0
C232 C 0.90611 0.30467 0.47908 0.0
C233 C 0.8933 0.31289 0.4948 0.0
N234 N 0.88289 0.30914 0.45052 0.0
C235 C 0.87026 0.31724 0.46583 0.0
Co236 Co 0.86814 0.63793 0.90195 0.0
Co237 Co 0.87225 0.67041 0.95007 0.0
O238 O 0.861 0.66525 0.92074 0.0
C239 C 0.87345 0.67639 0.86749 0.0
O240 O 0.88617 0.68664 0.88008 0.0
C241 C 0.83116 0.67462 0.96077 0.0
O242 O 0.82823 0.65441 0.95006 0.0
O243 O 0.86509 0.63715 0.95939 0.0
O244 O 0.87176 0.61653 0.92841 0.0
H245 H 0.91171 0.64769 0.01587 0.0
H246 H 0.83267 0.66385 0.89303 0.0
O247 O 0.86451 0.65804 0.87447 0.0
H248 H 0.81415 0.58 0.90794 0.0
H249 H 0.863 0.58431 0.83489 0.0
H250 H 0.89799 0.60081 0.9038 0.0
H251 H 0.84745 0.59179 0.90852 0.0
H252 H 0.85378 0.61791 0.85925 0.0
O253 O 0.84769 0.68331 0.96186 0.0
H254 H 0.89782 0.64216 0.97874 0.0
H255 H 0.8699 0.70939 0.98405 0.0
H256 H 0.90759 0.56691 0.88002 0.0
H257 H 0.79919 0.65278 0.89207 0.0
H258 H 0.89004 0.55848 0.84528 0.0
H259 H 0.78975 0.6106 0.89963 0.0
O260 O 0.89498 0.6475 0.90363 0.0
H261 H 0.86064 0.75089 0.91485 0.0
H262 H 0.90728 0.69976 0.95263 0.0
H263 H 0.91634 0.7403 0.94008 0.0
H264 H 0.89291 0.7662 0.92108 0.0
H265 H 0.85222 0.71012 0.92752 0.0
H266 H 0.88338 0.71557 0.02131 0.0
H267 H 0.9045 0.68462 0.03742 0.0
O268 O 0.89744 0.65851 0.93932 0.0
C269 C 0.86804 0.61746 0.94909 0.0
C270 C 0.90257 0.66134 0.00901 0.0
C271 C 0.88664 0.69942 0.01207 0.0
N272 N 0.88315 0.67548 0.97919 0.0
C273 C 0.89469 0.65833 0.98797 0.0
C274 C 0.87901 0.69579 0.99099 0.0
C275 C 0.8985 0.68205 0.0211 0.0
C276 C 0.82867 0.64541 0.89614 0.0
N277 N 0.842 0.62848 0.90072 0.0
C278 C 0.80969 0.63927 0.89566 0.0
C279 C 0.8044 0.61561 0.89993 0.0
C280 C 0.81808 0.59843 0.9046 0.0
C281 C 0.83692 0.60523 0.90496 0.0
C282 C 0.87073 0.58777 0.85001 0.0
C283 C 0.8902 0.59717 0.88879 0.0
C284 C 0.8656 0.6068 0.86386 0.0
N285 N 0.87524 0.61121 0.88303 0.0
C286 C 0.89574 0.57799 0.87536 0.0
C287 C 0.8859 0.57328 0.85585 0.0
C288 C 0.90476 0.65297 0.92062 0.0
C289 C 0.87096 0.73979 0.92315 0.0
C290 C 0.89703 0.71087 0.9443 0.0
C291 C 0.90222 0.73384 0.93728 0.0
C292 C 0.88907 0.74836 0.92663 0.0
N293 N 0.87921 0.70261 0.94087 0.0
C294 C 0.86626 0.71673 0.93041 0.0
Co295 Co 0.14732 0.36797 0.40158 0.0
Co296 Co 0.14243 0.3342 0.44969 0.0
O297 O 0.15428 0.34069 0.42072 0.0
C298 C 0.14286 0.32734 0.36921 0.0
O299 O 0.13311 0.31529 0.38396 0.0
C300 C 0.18431 0.32732 0.45766 0.0
O301 O 0.18826 0.338 0.43886 0.0
O302 O 0.14632 0.3683 0.4595 0.0
O303 O 0.1446 0.38936 0.42785 0.0
H304 H 0.09813 0.35144 0.51248 0.0
H305 H 0.18201 0.34127 0.39028 0.0
O306 O 0.14989 0.34769 0.37419 0.0
H307 H 0.20264 0.424 0.40662 0.0
H308 H 0.15283 0.42137 0.33439 0.0
H309 H 0.11835 0.40615 0.40386 0.0
H310 H 0.1692 0.41317 0.40854 0.0
H311 H 0.16165 0.38751 0.35866 0.0
O312 O 0.16728 0.32497 0.46384 0.0
H313 H 0.11325 0.35878 0.47631 0.0
H314 H 0.14653 0.29599 0.48425 0.0
H315 H 0.10917 0.44034 0.38017 0.0
H316 H 0.21559 0.35147 0.38764 0.0
H317 H 0.12646 0.44812 0.34514 0.0
H318 H 0.2261 0.39305 0.396 0.0
O319 O 0.12025 0.35942 0.40346 0.0
H320 H 0.16168 0.25588 0.41473 0.0
H321 H 0.11029 0.29995 0.45126 0.0
H322 H 0.10497 0.25845 0.43841 0.0
H323 H 0.13082 0.23608 0.42006 0.0
H324 H 0.16627 0.2975 0.42755 0.0
H325 H 0.13191 0.28811 0.52058 0.0
H326 H 0.10745 0.3159 0.53487 0.0
O327 O 0.11706 0.3426 0.43714 0.0
C328 C 0.14543 0.38817 0.44893 0.0
C329 C 0.10872 0.33917 0.50639 0.0
C330 C 0.1277 0.30365 0.51096 0.0
N331 N 0.13067 0.32777 0.4781 0.0
C332 C 0.1173 0.3432 0.4859 0.0
C333 C 0.13597 0.30824 0.4904 0.0
C334 C 0.11398 0.31923 0.51896 0.0
C335 C 0.18646 0.35948 0.39368 0.0
N336 N 0.17365 0.37655 0.39966 0.0
C337 C 0.2055 0.36511 0.39227 0.0
C338 C 0.21139 0.38844 0.397 0.0
C339 C 0.19824 0.40579 0.403 0.0
C340 C 0.17932 0.3995 0.40422 0.0
C341 C 0.14519 0.41817 0.34961 0.0
C342 C 0.12599 0.40946 0.38868 0.0
C343 C 0.15008 0.39897 0.36339 0.0
N344 N 0.14054 0.39486 0.38268 0.0
C345 C 0.12071 0.42883 0.37532 0.0
C346 C 0.1304 0.43318 0.35566 0.0
C347 C 0.11019 0.35095 0.41911 0.0
C348 C 0.15033 0.26541 0.42278 0.0
C349 C 0.12156 0.29041 0.44319 0.0
C350 C 0.11849 0.26687 0.43601 0.0
C351 C 0.133 0.25432 0.42574 0.0
N352 N 0.13861 0.30116 0.4403 0.0
C353 C 0.15288 0.28898 0.43018 0.0
Co354 Co 0.86224 0.36164 0.10186 0.0
Co355 Co 0.86572 0.3316 0.05258 0.0
O356 O 0.85455 0.33541 0.08212 0.0
C357 C 0.86684 0.32229 0.13571 0.0
O358 O 0.87969 0.31205 0.12329 0.0
C359 C 0.82461 0.32754 0.04172 0.0
O360 O 0.82153 0.34752 0.05274 0.0
O361 O 0.85835 0.36521 0.04472 0.0
O362 O 0.86653 0.38398 0.07615 0.0
H363 H 0.90421 0.35781 0.98714 0.0
H364 H 0.82606 0.33705 0.10952 0.0
O365 O 0.85797 0.3407 0.12865 0.0
H366 H 0.80989 0.42233 0.09782 0.0
H367 H 0.85845 0.41238 0.17092 0.0
H368 H 0.89328 0.39713 0.10168 0.0
H369 H 0.84286 0.409 0.09697 0.0
H370 H 0.84814 0.38074 0.14504 0.0
O371 O 0.84118 0.31899 0.04054 0.0
H372 H 0.89082 0.36139 0.02471 0.0
H373 H 0.86338 0.29415 0.01717 0.0
H374 H 0.90413 0.42891 0.12715 0.0
H375 H 0.79289 0.34964 0.11071 0.0
H376 H 0.88668 0.43668 0.16208 0.0
H377 H 0.78464 0.39255 0.10478 0.0
O378 O 0.88874 0.35081 0.09995 0.0
H379 H 0.85492 0.24946 0.08469 0.0
H380 H 0.90095 0.30278 0.04865 0.0
H381 H 0.91038 0.26178 0.0595 0.0
H382 H 0.88727 0.23478 0.07761 0.0
H383 H 0.84613 0.2907 0.07372 0.0
H384 H 0.87639 0.2899 0.97947 0.0
H385 H 0.89701 0.32185 0.96425 0.0
O386 O 0.89093 0.34324 0.06352 0.0
C387 C 0.86218 0.38425 0.05561 0.0
C388 C 0.89529 0.34373 0.99362 0.0
C389 C 0.87966 0.30563 0.9893 0.0
N390 N 0.87641 0.32795 0.02318 0.0
C391 C 0.8877 0.34563 0.0149 0.0
C392 C 0.8723 0.30816 0.01064 0.0
C393 C 0.89123 0.32356 0.98077 0.0
C394 C 0.82257 0.35578 0.1071 0.0
N395 N 0.83637 0.37227 0.10328 0.0
C396 C 0.80377 0.36279 0.10772 0.0
C397 C 0.79915 0.38687 0.10436 0.0
C398 C 0.81331 0.40358 0.10045 0.0
C399 C 0.83195 0.39592 0.09993 0.0
C400 C 0.86618 0.40917 0.15575 0.0
C401 C 0.88554 0.4005 0.11678 0.0
C402 C 0.8604 0.39127 0.14103 0.0
N403 N 0.87001 0.3872 0.12177 0.0
C404 C 0.89178 0.41848 0.13116 0.0
C405 C 0.882 0.42281 0.15077 0.0
C406 C 0.89839 0.34673 0.08256 0.0
C407 C 0.8651 0.26103 0.07676 0.0
C408 C 0.89082 0.29118 0.05659 0.0
C409 C 0.89623 0.26795 0.06265 0.0
C410 C 0.88326 0.25282 0.0728 0.0
N411 N 0.87297 0.29908 0.06047 0.0
C412 C 0.86019 0.28437 0.07046 0.0
Co413 Co 0.14441 0.63968 0.60679 0.0
Co414 Co 0.13989 0.67182 0.55848 0.0
O415 O 0.15143 0.66684 0.58776 0.0
C416 C 0.14053 0.67923 0.64067 0.0
O417 O 0.12947 0.69135 0.62728 0.0
C418 C 0.18084 0.67559 0.547 0.0
O419 O 0.18377 0.65524 0.5575 0.0
O420 O 0.14677 0.63845 0.54913 0.0
O421 O 0.1409 0.61821 0.58047 0.0
H422 H 0.09988 0.64918 0.49313 0.0
H423 H 0.17978 0.66583 0.61511 0.0
O424 O 0.14801 0.65961 0.63427 0.0
H425 H 0.19868 0.58185 0.60142 0.0
H426 H 0.14978 0.58545 0.67349 0.0
H427 H 0.11433 0.60303 0.60512 0.0
H428 H 0.16532 0.59343 0.60092 0.0
H429 H 0.15918 0.61893 0.64909 0.0
O430 O 0.16437 0.68455 0.54634 0.0
H431 H 0.11406 0.64359 0.5301 0.0
H432 H 0.14201 0.7107 0.52442 0.0
H433 H 0.10453 0.56927 0.62894 0.0
H434 H 0.21332 0.655 0.61602 0.0
H435 H 0.1223 0.5603 0.66342 0.0
H436 H 0.22296 0.61275 0.60907 0.0
O437 O 0.11756 0.64948 0.60532 0.0
H438 H 0.15189 0.75252 0.59301 0.0
H439 H 0.10477 0.70106 0.55658 0.0
H440 H 0.09582 0.74168 0.5691 0.0
H441 H 0.11948 0.76773 0.58743 0.0
H442 H 0.1602 0.71169 0.58038 0.0
H443 H 0.12827 0.7169 0.4873 0.0
H444 H 0.10698 0.68605 0.47146 0.0
O445 O 0.11487 0.65992 0.56951 0.0
C446 C 0.1442 0.61883 0.55969 0.0
C447 C 0.10909 0.66278 0.49988 0.0
C448 C 0.12505 0.70078 0.4966 0.0
N449 N 0.12876 0.67686 0.52947 0.0
C450 C 0.11713 0.65975 0.52083 0.0
C451 C 0.13283 0.69714 0.5176 0.0
C452 C 0.1131 0.68346 0.48772 0.0
C453 C 0.18387 0.64738 0.61222 0.0
N454 N 0.1706 0.63029 0.60798 0.0
C455 C 0.20288 0.64137 0.61269 0.0
C456 C 0.20827 0.61766 0.60877 0.0
C457 C 0.19466 0.60032 0.60445 0.0
C458 C 0.17579 0.607 0.6041 0.0
C459 C 0.14192 0.58918 0.65852 0.0
C460 C 0.12217 0.59921 0.62006 0.0
C461 C 0.14713 0.60818 0.64468 0.0
N462 N 0.13732 0.61294 0.6257 0.0
C463 C 0.11654 0.58008 0.6335 0.0
C464 C 0.12651 0.57507 0.65285 0.0
C465 C 0.10767 0.65458 0.58831 0.0
C466 C 0.14147 0.74136 0.585 0.0
C467 C 0.11514 0.71226 0.5646 0.0
C468 C 0.10999 0.73526 0.57161 0.0
C469 C 0.12327 0.74988 0.58188 0.0
N470 N 0.13303 0.70407 0.56766 0.0
C471 C 0.14611 0.71827 0.57775 0.0
Co472 Co 0.64211 0.86206 0.10424 0.0
Co473 Co 0.63847 0.80502 0.08311 0.0
O474 O 0.64913 0.83758 0.08231 0.0
C475 C 0.63671 0.88919 0.06209 0.0
O476 O 0.62755 0.87066 0.05406 0.0
C477 C 0.67978 0.79574 0.07729 0.0
O478 O 0.68322 0.81175 0.09277 0.0
O479 O 0.64702 0.80088 0.11449 0.0
O480 O 0.64 0.83732 0.12825 0.0
H481 H 0.60164 0.73727 0.11672 0.0
H482 H 0.67656 0.86886 0.07769 0.0
O483 O 0.64407 0.88807 0.08131 0.0
H484 H 0.69769 0.86757 0.1556 0.0
H485 H 0.64615 0.94286 0.14166 0.0
H486 H 0.61313 0.86506 0.13933 0.0
H487 H 0.66415 0.86368 0.14643 0.0
H488 H 0.6556 0.91153 0.11496 0.0
O489 O 0.66288 0.7911 0.07184 0.0
H490 H 0.61477 0.77823 0.11499 0.0
H491 H 0.64039 0.76238 0.05309 0.0
H492 H 0.60325 0.89586 0.16635 0.0
H493 H 0.71026 0.8731 0.08613 0.0
H494 H 0.61982 0.93509 0.16764 0.0
H495 H 0.72101 0.87238 0.12533 0.0
O496 O 0.61521 0.85774 0.09664 0.0
H497 H 0.64622 0.82924 0.00336 0.0
H498 H 0.60242 0.79667 0.05902 0.0
H499 H 0.59154 0.80306 0.02063 0.0
H500 H 0.61352 0.8194 0.99248 0.0
H501 H 0.65646 0.8228 0.04201 0.0
H502 H 0.62767 0.72118 0.05425 0.0
H503 H 0.60807 0.70842 0.0862 0.0
O504 O 0.61341 0.81763 0.09369 0.0
C505 C 0.64442 0.81528 0.13067 0.0
C506 C 0.61012 0.74263 0.10269 0.0
C507 C 0.62475 0.73359 0.06764 0.0
N508 N 0.62825 0.77273 0.08391 0.0
C509 C 0.61756 0.76581 0.10159 0.0
C510 C 0.63196 0.75692 0.06711 0.0
C511 C 0.61375 0.72645 0.08556 0.0
C512 C 0.68114 0.86878 0.09479 0.0
N513 N 0.66841 0.8661 0.11153 0.0
C514 C 0.70023 0.87109 0.09947 0.0
C515 C 0.70626 0.87064 0.12146 0.0
C516 C 0.69318 0.86793 0.13845 0.0
C517 C 0.67421 0.86566 0.13315 0.0
C518 C 0.63884 0.92583 0.14129 0.0
C519 C 0.62046 0.88204 0.13986 0.0
C520 C 0.64411 0.90803 0.12618 0.0
N521 N 0.63499 0.88643 0.12567 0.0
C522 C 0.61479 0.89943 0.15517 0.0
C523 C 0.62407 0.92145 0.15586 0.0
C524 C 0.60575 0.83836 0.09528 0.0
C525 C 0.63652 0.82204 0.01546 0.0
C526 C 0.61206 0.80387 0.04689 0.0
C527 C 0.60583 0.80739 0.02516 0.0
C528 C 0.61817 0.81655 0.00937 0.0
N529 N 0.63009 0.80927 0.05273 0.0
C530 C 0.64227 0.81827 0.03734 0.0
Co531 Co 0.37375 0.13969 0.6064 0.0
Co532 Co 0.37207 0.19807 0.58868 0.0
O533 O 0.36294 0.16464 0.58714 0.0
C534 C 0.37333 0.11478 0.56244 0.0
O535 O 0.37914 0.13458 0.5528 0.0
C536 C 0.33001 0.20159 0.58019 0.0
O537 O 0.32782 0.17892 0.58553 0.0
O538 O 0.36612 0.1991 0.62115 0.0
O539 O 0.37815 0.16346 0.63079 0.0
H540 H 0.40874 0.266 0.6223 0.0
H541 H 0.33654 0.12989 0.58657 0.0
O542 O 0.36985 0.11449 0.58314 0.0
H543 H 0.32643 0.12785 0.66748 0.0
H544 H 0.37843 0.05719 0.6405 0.0
H545 H 0.40743 0.13741 0.63518 0.0
H546 H 0.35793 0.13511 0.65216 0.0
H547 H 0.36401 0.08884 0.61746 0.0
O548 O 0.34619 0.21135 0.58146 0.0
H549 H 0.39736 0.22428 0.61928 0.0
H550 H 0.36555 0.24271 0.56213 0.0
H551 H 0.42229 0.1063 0.65844 0.0
H552 H 0.30482 0.12209 0.60119 0.0
H553 H 0.40778 0.06585 0.66121 0.0
H554 H 0.29959 0.1212 0.64193 0.0
O555 O 0.39886 0.14652 0.59398 0.0
H556 H 0.35902 0.17885 0.50856 0.0
H557 H 0.40515 0.212 0.56124 0.0
H558 H 0.41295 0.21005 0.52146 0.0
H559 H 0.38976 0.19351 0.49478 0.0
H560 H 0.35191 0.18078 0.54848 0.0
H561 H 0.37644 0.28466 0.56467 0.0
H562 H 0.39827 0.29653 0.59487 0.0
O563 O 0.39857 0.18674 0.59527 0.0
C564 C 0.37205 0.18432 0.63578 0.0
C565 C 0.39927 0.26104 0.60904 0.0
C566 C 0.38112 0.27152 0.57671 0.0
N567 N 0.38089 0.23101 0.59049 0.0
C568 C 0.39281 0.23743 0.60721 0.0
C569 C 0.37496 0.24774 0.57541 0.0
C570 C 0.39338 0.27816 0.59365 0.0
C571 C 0.33439 0.12933 0.60431 0.0
N572 N 0.34904 0.13316 0.61846 0.0
C573 C 0.3164 0.12498 0.6125 0.0
C574 C 0.31347 0.12451 0.63535 0.0
C575 C 0.32851 0.12828 0.6497 0.0
C576 C 0.34631 0.13254 0.64091 0.0
C577 C 0.38487 0.07477 0.63947 0.0
C578 C 0.40097 0.1199 0.63638 0.0
C579 C 0.37677 0.09276 0.62644 0.0
N580 N 0.38479 0.11503 0.62509 0.0
C581 C 0.40947 0.10234 0.64955 0.0
C582 C 0.40133 0.07963 0.65108 0.0
C583 C 0.40727 0.16669 0.59348 0.0
C584 C 0.3692 0.18625 0.52 0.0
C585 C 0.39498 0.20471 0.54977 0.0
C586 C 0.39948 0.2037 0.52725 0.0
C587 C 0.38646 0.19443 0.51229 0.0
N588 N 0.37795 0.19683 0.55721 0.0
C589 C 0.36519 0.18755 0.54264 0.0
Co590 Co 0.63799 0.13799 0.90029 0.0
Co591 Co 0.6342 0.1972 0.91555 0.0
O592 O 0.64461 0.16476 0.91997 0.0
C593 C 0.63254 0.11522 0.94489 0.0
O594 O 0.62452 0.13489 0.95232 0.0
C595 C 0.67545 0.20626 0.9218 0.0
O596 O 0.67904 0.18854 0.90806 0.0
O597 O 0.64319 0.19771 0.88403 0.0
O598 O 0.63658 0.15991 0.8741 0.0
H599 H 0.59822 0.26091 0.87451 0.0
H600 H 0.67168 0.13403 0.92864 0.0
O601 O 0.63924 0.11443 0.92535 0.0
H602 H 0.69486 0.12581 0.85195 0.0
H603 H 0.64272 0.05362 0.87037 0.0
H604 H 0.60983 0.1314 0.86465 0.0
H605 H 0.66114 0.13121 0.85935 0.0
H606 H 0.65151 0.08749 0.89461 0.0
O607 O 0.6585 0.21201 0.92599 0.0
H608 H 0.61105 0.22027 0.88068 0.0
H609 H 0.63605 0.24318 0.94106 0.0
H610 H 0.60069 0.09805 0.83996 0.0
H611 H 0.70553 0.12835 0.92202 0.0
H612 H 0.61718 0.05881 0.84274 0.0
H613 H 0.71732 0.12428 0.88344 0.0
O614 O 0.61095 0.14335 0.90658 0.0
H615 H 0.64076 0.1832 0.99754 0.0
H616 H 0.59791 0.20897 0.93784 0.0
H617 H 0.58665 0.20822 0.97648 0.0
H618 H 0.60811 0.19523 0.00665 0.0
H619 H 0.65145 0.18418 0.95865 0.0
H620 H 0.6236 0.28412 0.93545 0.0
H621 H 0.60447 0.29317 0.90203 0.0
O622 O 0.60924 0.18361 0.90579 0.0
C623 C 0.64084 0.18153 0.86927 0.0
C624 C 0.60649 0.25718 0.88917 0.0
C625 C 0.62076 0.27021 0.92336 0.0
N626 N 0.6242 0.22932 0.91126 0.0
C627 C 0.61377 0.23418 0.89278 0.0
C628 C 0.62782 0.24701 0.92641 0.0
C629 C 0.61002 0.27527 0.9046 0.0
C630 C 0.6767 0.13206 0.91182 0.0
N631 N 0.66445 0.13295 0.89441 0.0
C632 C 0.69588 0.12894 0.90817 0.0
C633 C 0.70249 0.1267 0.88651 0.0
C634 C 0.6899 0.12758 0.86884 0.0
C635 C 0.67082 0.13075 0.87312 0.0
C636 C 0.63545 0.07064 0.86897 0.0
C637 C 0.61713 0.11441 0.86589 0.0
C638 C 0.64034 0.08988 0.88268 0.0
N639 N 0.63127 0.11146 0.88095 0.0
C640 C 0.61187 0.09558 0.85189 0.0
C641 C 0.62112 0.07357 0.85347 0.0
C642 C 0.60154 0.16284 0.90595 0.0
C643 C 0.63126 0.1889 0.98454 0.0
C644 C 0.60733 0.2032 0.95085 0.0
C645 C 0.60087 0.20285 0.97271 0.0
C646 C 0.61294 0.19562 0.98964 0.0
N647 N 0.62536 0.1967 0.94599 0.0
C648 C 0.63726 0.18956 0.9625 0.0
Co649 Co 0.36818 0.86202 0.40389 0.0
Co650 Co 0.37229 0.80401 0.4224 0.0
O651 O 0.36079 0.83607 0.42406 0.0
C652 C 0.37098 0.88746 0.44728 0.0
O653 O 0.38078 0.86932 0.45508 0.0
C654 C 0.33089 0.79375 0.42601 0.0
O655 O 0.32752 0.81112 0.41182 0.0
O656 O 0.36556 0.80139 0.39013 0.0
O657 O 0.37241 0.83882 0.37912 0.0
H658 H 0.41284 0.73992 0.38853 0.0
H659 H 0.33223 0.86642 0.42806 0.0
O660 O 0.36423 0.88659 0.42775 0.0
H661 H 0.31523 0.86732 0.34874 0.0
H662 H 0.36307 0.94435 0.36959 0.0
H663 H 0.399 0.8686 0.37146 0.0
H664 H 0.34832 0.86442 0.36025 0.0
H665 H 0.35349 0.9112 0.39425 0.0
O666 O 0.34775 0.78855 0.43121 0.0
H667 H 0.39847 0.78016 0.39123 0.0
H668 H 0.36986 0.7595 0.44999 0.0
H669 H 0.40899 0.9012 0.3464 0.0
H670 H 0.29895 0.86975 0.41728 0.0
H671 H 0.39097 0.93942 0.34536 0.0
H672 H 0.29027 0.87009 0.37736 0.0
O673 O 0.3948 0.85838 0.41311 0.0
H674 H 0.35956 0.82293 0.50249 0.0
H675 H 0.40709 0.79525 0.44888 0.0
H676 H 0.41563 0.79941 0.48833 0.0
H677 H 0.39175 0.81325 0.51547 0.0
H678 H 0.35169 0.81884 0.46283 0.0
H679 H 0.38378 0.71897 0.4478 0.0
H680 H 0.4055 0.709 0.41695 0.0
O681 O 0.3975 0.81824 0.41446 0.0
C682 C 0.36899 0.8168 0.37493 0.0
C683 C 0.40342 0.74406 0.40207 0.0
C684 C 0.38709 0.7323 0.43532 0.0
N685 N 0.38341 0.77221 0.42079 0.0
C686 C 0.39527 0.76683 0.40371 0.0
C687 C 0.3792 0.75526 0.43643 0.0
C688 C 0.39929 0.72671 0.41801 0.0
C689 C 0.32856 0.86685 0.41066 0.0
N690 N 0.3422 0.86528 0.39483 0.0
C691 C 0.3097 0.86862 0.40465 0.0
C692 C 0.30484 0.86877 0.38225 0.0
C693 C 0.31883 0.8672 0.36619 0.0
C694 C 0.33754 0.86546 0.37282 0.0
C695 C 0.37102 0.92776 0.36985 0.0
C696 C 0.39102 0.88511 0.371 0.0
C697 C 0.36568 0.90894 0.38382 0.0
N698 N 0.37559 0.8879 0.38417 0.0
C699 C 0.39677 0.90354 0.35682 0.0
C700 C 0.38667 0.92498 0.35626 0.0
C701 C 0.4047 0.83932 0.41414 0.0
C702 C 0.37008 0.81684 0.49084 0.0
C703 C 0.39665 0.80144 0.46054 0.0
C704 C 0.40155 0.80368 0.48288 0.0
C705 C 0.38815 0.81143 0.4981 0.0
N706 N 0.37889 0.80672 0.45355 0.0
C707 C 0.36569 0.8144 0.46837 0.0
Co708 Co 0.36181 0.14083 0.90502 0.0
Co709 Co 0.36718 0.17265 0.95349 0.0
O710 O 0.35516 0.16776 0.9245 0.0
C711 C 0.3662 0.18068 0.87186 0.0
O712 O 0.37783 0.19165 0.88539 0.0
C713 C 0.32635 0.17564 0.96549 0.0
O714 O 0.32353 0.15565 0.9544 0.0
O715 O 0.36094 0.13907 0.96275 0.0
O716 O 0.36549 0.11891 0.93102 0.0
H717 H 0.40886 0.15027 0.01747 0.0
H718 H 0.3265 0.16753 0.89751 0.0
O719 O 0.35806 0.16138 0.87793 0.0
H720 H 0.3073 0.08362 0.91079 0.0
H721 H 0.35553 0.0885 0.8372 0.0
H722 H 0.39145 0.10347 0.90573 0.0
H723 H 0.34073 0.0948 0.91077 0.0
H724 H 0.34665 0.12155 0.86236 0.0
O725 O 0.34276 0.18471 0.96637 0.0
H726 H 0.39393 0.14469 0.98091 0.0
H727 H 0.36521 0.21117 0.9879 0.0
H728 H 0.40074 0.07013 0.88111 0.0
H729 H 0.29288 0.15711 0.89716 0.0
H730 H 0.38272 0.06247 0.84655 0.0
H731 H 0.2831 0.11489 0.90391 0.0
O732 O 0.38878 0.15015 0.90615 0.0
H733 H 0.35336 0.25344 0.92 0.0
H734 H 0.40191 0.20261 0.95463 0.0
H735 H 0.41004 0.24352 0.94219 0.0
H736 H 0.38566 0.26926 0.92478 0.0
H737 H 0.34587 0.21233 0.93252 0.0
H738 H 0.3797 0.21738 0.02461 0.0
H739 H 0.40176 0.18684 0.03958 0.0
O740 O 0.39211 0.16143 0.94167 0.0
C741 C 0.36301 0.11949 0.95196 0.0
C742 C 0.39931 0.16374 0.0111 0.0
C743 C 0.38293 0.20139 0.01512 0.0
N744 N 0.37881 0.17765 0.98222 0.0
C745 C 0.39085 0.1607 0.99039 0.0
C746 C 0.37472 0.19774 0.99434 0.0
C747 C 0.39531 0.18425 0.02351 0.0
C748 C 0.32234 0.14909 0.90028 0.0
N749 N 0.33556 0.1318 0.90412 0.0
C750 C 0.30329 0.14331 0.90014 0.0
C751 C 0.29781 0.11963 0.90396 0.0
C752 C 0.31138 0.10208 0.90783 0.0
C753 C 0.33029 0.10853 0.90788 0.0
C754 C 0.36347 0.09163 0.85222 0.0
C755 C 0.38348 0.10018 0.89078 0.0
C756 C 0.35854 0.11036 0.86651 0.0
N757 N 0.36847 0.11437 0.88556 0.0
C758 C 0.38883 0.0813 0.87688 0.0
C759 C 0.37873 0.07703 0.85748 0.0
C760 C 0.39895 0.15578 0.92277 0.0
C761 C 0.36409 0.24242 0.92762 0.0
C762 C 0.39123 0.21367 0.94701 0.0
C763 C 0.39591 0.23684 0.94004 0.0
C764 C 0.38222 0.25128 0.93028 0.0
N765 N 0.3734 0.20514 0.94439 0.0
C766 C 0.35992 0.21916 0.9348 0.0
Co767 Co 0.64437 0.86066 0.4028 0.0
Co768 Co 0.63971 0.83249 0.45366 0.0
O769 O 0.65027 0.83447 0.42355 0.0
C770 C 0.63179 0.8349 0.3625 0.0
O771 O 0.61584 0.84631 0.36515 0.0
C772 C 0.68104 0.82751 0.46294 0.0
O773 O 0.68419 0.84627 0.45024 0.0
O774 O 0.64748 0.86631 0.46033 0.0
O775 O 0.64398 0.88468 0.42746 0.0
H776 H 0.60208 0.86205 0.5186 0.0
H777 H 0.67684 0.82906 0.39366 0.0
O778 O 0.6448 0.83727 0.37698 0.0
H779 H 0.70331 0.91053 0.40098 0.0
H780 H 0.65223 0.90937 0.33289 0.0
H781 H 0.61732 0.90111 0.40304 0.0
H782 H 0.66929 0.90387 0.40454 0.0
H783 H 0.65903 0.87588 0.35845 0.0
O784 O 0.66432 0.81994 0.46564 0.0
H785 H 0.61527 0.86394 0.48082 0.0
H786 H 0.64226 0.79665 0.49045 0.0
H787 H 0.60982 0.9346 0.37771 0.0
H788 H 0.71095 0.83495 0.38972 0.0
H789 H 0.62736 0.9389 0.34234 0.0
H790 H 0.72439 0.87592 0.39344 0.0
O791 O 0.61697 0.85499 0.4071 0.0
H792 H 0.64926 0.74846 0.42526 0.0
H793 H 0.60421 0.80468 0.45933 0.0
H794 H 0.59424 0.76331 0.45067 0.0
H795 H 0.61687 0.73484 0.43358 0.0
H796 H 0.65859 0.79011 0.434 0.0
H797 H 0.6295 0.79413 0.5284 0.0
H798 H 0.60919 0.82695 0.54267 0.0
O799 O 0.61461 0.84415 0.44284 0.0
C800 C 0.6466 0.88525 0.44839 0.0
C801 C 0.61088 0.84761 0.51255 0.0
C802 C 0.62629 0.80951 0.51806 0.0
N803 N 0.62944 0.83037 0.4834 0.0
C804 C 0.61835 0.84855 0.49116 0.0
C805 C 0.63352 0.81107 0.49658 0.0
C806 C 0.61489 0.82792 0.52606 0.0
C807 C 0.68257 0.84697 0.39509 0.0
N808 N 0.67107 0.8661 0.39919 0.0
C809 C 0.7019 0.85018 0.39293 0.0
C810 C 0.70944 0.87317 0.39506 0.0
C811 C 0.69762 0.89259 0.39931 0.0
C812 C 0.67836 0.8887 0.40138 0.0
C813 C 0.6444 0.90759 0.34816 0.0
C814 C 0.62495 0.90279 0.38762 0.0
C815 C 0.64823 0.88871 0.36274 0.0
N816 N 0.63863 0.88659 0.38227 0.0
C817 C 0.62065 0.9218 0.37336 0.0
C818 C 0.63049 0.9242 0.35351 0.0
C819 C 0.60727 0.85028 0.42434 0.0
C820 C 0.63929 0.76068 0.43275 0.0
C821 C 0.61411 0.79246 0.45177 0.0
C822 C 0.6084 0.76902 0.44697 0.0
C823 C 0.6211 0.75306 0.4374 0.0
N824 N 0.63199 0.79978 0.44723 0.0
C825 C 0.6445 0.78426 0.43778 0.0
Co826 Co 0.36621 0.86603 0.10867 0.0
Co827 Co 0.3705 0.83525 0.05893 0.0
O828 O 0.35965 0.83885 0.08901 0.0
C829 C 0.36584 0.82296 0.1403 0.0
O830 O 0.36503 0.80711 0.1242 0.0
C831 C 0.32895 0.82693 0.05187 0.0
O832 O 0.32508 0.84098 0.06873 0.0
O833 O 0.36307 0.86872 0.05082 0.0
O834 O 0.36696 0.88854 0.0828 0.0
H835 H 0.40929 0.86156 0.9938 0.0
H836 H 0.33275 0.83659 0.11935 0.0
O837 O 0.36596 0.8454 0.13609 0.0
H838 H 0.30889 0.91907 0.10934 0.0
H839 H 0.36175 0.91736 0.17738 0.0
H840 H 0.39368 0.90581 0.10562 0.0
H841 H 0.34259 0.91031 0.10541 0.0
H842 H 0.35311 0.88361 0.15293 0.0
O843 O 0.34595 0.823 0.04638 0.0
H844 H 0.39555 0.8652 0.03117 0.0
H845 H 0.36822 0.79791 0.02337 0.0
H846 H 0.40263 0.93994 0.12948 0.0
H847 H 0.29898 0.8446 0.12384 0.0
H848 H 0.38662 0.94587 0.16566 0.0
H849 H 0.28682 0.88609 0.11872 0.0
O850 O 0.39339 0.85873 0.10526 0.0
H851 H 0.35953 0.75226 0.08916 0.0
H852 H 0.40592 0.80677 0.0554 0.0
H853 H 0.41532 0.76556 0.06548 0.0
H854 H 0.39204 0.73796 0.08247 0.0
H855 H 0.35077 0.79375 0.079 0.0
H856 H 0.38157 0.79363 0.98584 0.0
H857 H 0.40233 0.82556 0.97086 0.0
O858 O 0.3956 0.84685 0.0698 0.0
C859 C 0.36423 0.88818 0.06191 0.0
C860 C 0.40032 0.84749 1.00017 0.0
C861 C 0.38474 0.80938 0.99569 0.0
N862 N 0.3812 0.83172 0.02952 0.0
C863 C 0.39253 0.84942 0.02134 0.0
C864 C 0.37719 0.81193 0.01694 0.0
C865 C 0.39639 0.8273 0.9873 0.0
C866 C 0.32763 0.85473 0.11741 0.0
N867 N 0.33969 0.87295 0.11222 0.0
C868 C 0.30846 0.85915 0.11983 0.0
C869 C 0.30165 0.88241 0.11691 0.0
C870 C 0.31402 0.90092 0.11161 0.0
C871 C 0.33309 0.89582 0.1093 0.0
C872 C 0.3688 0.91499 0.16163 0.0
C873 C 0.38657 0.90835 0.12128 0.0
C874 C 0.36399 0.89588 0.14773 0.0
N875 N 0.37279 0.89283 0.12777 0.0
C876 C 0.39173 0.92767 0.13475 0.0
C877 C 0.38275 0.93098 0.15505 0.0
C878 C 0.40301 0.85316 0.0882 0.0
C879 C 0.36979 0.76411 0.08174 0.0
C880 C 0.39572 0.79495 0.06292 0.0
C881 C 0.40112 0.77159 0.06853 0.0
C882 C 0.38804 0.7561 0.07802 0.0
N883 N 0.37778 0.80266 0.06659 0.0
C884 C 0.36489 0.78758 0.07588 0.0
Co885 Co 0.64648 0.13935 0.59938 0.0
Co886 Co 0.64198 0.17259 0.55166 0.0
O887 O 0.65351 0.16697 0.58089 0.0
C888 C 0.64351 0.17885 0.63342 0.0
O889 O 0.63478 0.19289 0.61927 0.0
C890 C 0.68297 0.17663 0.54036 0.0
O891 O 0.68592 0.15603 0.55043 0.0
O892 O 0.64877 0.13936 0.54165 0.0
O893 O 0.64298 0.11856 0.57267 0.0
H894 H 0.60168 0.15161 0.48608 0.0
H895 H 0.68179 0.16524 0.60858 0.0
O896 O 0.64978 0.15844 0.62735 0.0
H897 H 0.7008 0.08182 0.5923 0.0
H898 H 0.65204 0.0836 0.66495 0.0
H899 H 0.61652 0.10255 0.59694 0.0
H900 H 0.66743 0.09332 0.59229 0.0
H901 H 0.66118 0.11786 0.64137 0.0
O902 O 0.66648 0.18552 0.53978 0.0
H903 H 0.61595 0.14515 0.52289 0.0
H904 H 0.64424 0.21212 0.51824 0.0
H905 H 0.607 0.06798 0.61994 0.0
H906 H 0.71536 0.15445 0.60912 0.0
H907 H 0.62481 0.05833 0.65423 0.0
H908 H 0.72505 0.11249 0.60085 0.0
O909 O 0.61966 0.14927 0.59813 0.0
H910 H 0.65409 0.25269 0.58739 0.0
H911 H 0.60691 0.20197 0.55021 0.0
H912 H 0.59804 0.24241 0.56323 0.0
H913 H 0.62171 0.26809 0.58196 0.0
H914 H 0.66235 0.21203 0.57422 0.0
H915 H 0.63043 0.21919 0.4813 0.0
H916 H 0.60891 0.18885 0.46502 0.0
O917 O 0.61694 0.16064 0.56255 0.0
C918 C 0.64615 0.11955 0.55189 0.0
C919 C 0.611 0.16499 0.49302 0.0
C920 C 0.62715 0.2029 0.49033 0.0
N921 N 0.63084 0.17828 0.52276 0.0
C922 C 0.61909 0.16146 0.51388 0.0
C923 C 0.63498 0.19876 0.51123 0.0
C924 C 0.61507 0.18588 0.48121 0.0
C925 C 0.68591 0.1469 0.60516 0.0
N926 N 0.67267 0.12994 0.60042 0.0
C927 C 0.70493 0.14091 0.60541 0.0
C928 C 0.71036 0.11738 0.60074 0.0
C929 C 0.69676 0.10016 0.59593 0.0
C930 C 0.67788 0.10681 0.59585 0.0
C931 C 0.64418 0.08761 0.65003 0.0
C932 C 0.62439 0.0984 0.61178 0.0
C933 C 0.64927 0.10702 0.63663 0.0
N934 N 0.63944 0.11215 0.61773 0.0
C935 C 0.61891 0.07883 0.62476 0.0
C936 C 0.62891 0.07343 0.64401 0.0
C937 C 0.60977 0.15504 0.5813 0.0
C938 C 0.64366 0.24168 0.57922 0.0
C939 C 0.61729 0.21299 0.55841 0.0
C940 C 0.61218 0.2359 0.56571 0.0
C941 C 0.62548 0.2503 0.57619 0.0
N942 N 0.63517 0.20468 0.56139 0.0
C943 C 0.64827 0.21869 0.57167 0.0
H944 H 0.07516 0.30151 0.1038 0.0
H945 H 0.04107 0.30417 0.10167 0.0
H946 H 0.04496 0.38063 0.09066 0.0
H947 H 0.07911 0.37824 0.09345 0.0
H948 H 0.01659 0.37247 0.11659 0.0
H949 H 0.03658 0.34053 0.0472 0.0
H950 H 0.05366 0.31309 0.02226 0.0
H951 H 0.02286 0.2531 0.04829 0.0
H952 H 0.00566 0.28022 0.07352 0.0
H953 H 0.9242 0.34801 0.04887 0.0
H954 H 0.95834 0.34791 0.05186 0.0
H955 H 0.95398 0.34337 0.12313 0.0
H956 H 0.91983 0.34442 0.12031 0.0
H957 H 0.98286 0.31777 0.06528 0.0
H958 H 0.99067 0.3699 0.1483 0.0
H959 H 0.97374 0.40111 0.16941 0.0
H960 H 0.94944 0.42798 0.10911 0.0
H961 H 0.96646 0.39721 0.08761 0.0
C962 C 0.06881 0.31895 0.10103 0.0
C963 C 0.07998 0.33964 0.09867 0.0
C964 C 0.04925 0.32042 0.09971 0.0
C965 C 0.04034 0.34254 0.0956 0.0
C966 C 0.05142 0.36333 0.0938 0.0
C967 C 0.071 0.36192 0.09535 0.0
C968 C 0.01954 0.34387 0.09274 0.0
C969 C 0.00923 0.36048 0.10538 0.0
C970 C 0.00985 0.32873 0.0777 0.0
C971 C 0.01995 0.31237 0.06237 0.0
C972 C 0.03352 0.32147 0.04769 0.0
C973 C 0.04322 0.30597 0.03349 0.0
C974 C 0.03942 0.28134 0.03376 0.0
C975 C 0.02582 0.27218 0.04813 0.0
C976 C 0.01606 0.28761 0.06235 0.0
C977 C 0.93048 0.34711 0.06521 0.0
C978 C 0.9192 0.34644 0.08436 0.0
C979 C 0.95007 0.34695 0.06689 0.0
C980 C 0.95889 0.34595 0.08774 0.0
C981 C 0.94763 0.34474 0.10686 0.0
C982 C 0.92804 0.34524 0.10521 0.0
C983 C 0.97981 0.34608 0.08942 0.0
C984 C 0.99018 0.32974 0.07653 0.0
C985 C 0.98958 0.36206 0.10367 0.0
C986 C 0.9797 0.38108 0.11639 0.0
C987 C 0.98181 0.38256 0.13954 0.0
C988 C 0.97218 0.40017 0.15157 0.0
C989 C 0.96048 0.41647 0.14061 0.0
C990 C 0.95846 0.4153 0.11758 0.0
C991 C 0.96809 0.39778 0.10547 0.0
H992 H 0.95299 0.43003 0.14997 0.0
H993 H 0.04698 0.26936 0.02279 0.0
H994 H 0.93069 0.69793 0.60667 0.0
H995 H 0.96479 0.69489 0.60619 0.0
H996 H 0.96074 0.61839 0.59547 0.0
H997 H 0.92649 0.62118 0.59682 0.0
H998 H 0.98914 0.62605 0.62108 0.0
H999 H 0.9701 0.65852 0.55176 0.0
H1000 H 0.95328 0.68584 0.52645 0.0
H1001 H 0.983 0.74615 0.55363 0.0
H1002 H 0.99999 0.71912 0.57919 0.0
H1003 H 0.08187 0.65397 0.55464 0.0
H1004 H 0.04778 0.65304 0.55748 0.0
H1005 H 0.05197 0.6543 0.6289 0.0
H1006 H 0.08617 0.65421 0.62615 0.0
H1007 H 0.02322 0.68188 0.57121 0.0
H1008 H 0.01484 0.62733 0.65305 0.0
H1009 H 0.03143 0.59517 0.67336 0.0
H1010 H 0.05608 0.57038 0.61253 0.0
H1011 H 0.03942 0.60212 0.59183 0.0
C1012 C 0.93701 0.68039 0.60438 0.0
C1013 C 0.92578 0.65982 0.60161 0.0
C1014 C 0.95658 0.67869 0.60399 0.0
C1015 C 0.96548 0.65648 0.60027 0.0
C1016 C 0.95431 0.63577 0.59829 0.0
C1017 C 0.93468 0.6374 0.59903 0.0
C1018 C 0.98634 0.65512 0.59771 0.0
C1019 C 0.99658 0.63829 0.6102 0.0
C1020 C 0.99616 0.67051 0.583 0.0
C1021 C 0.98619 0.68683 0.56751 0.0
C1022 C 0.97298 0.67763 0.55241 0.0
C1023 C 0.96342 0.69306 0.53802 0.0
C1024 C 0.96698 0.71775 0.53851 0.0
C1025 C 0.98023 0.72702 0.5533 0.0
C1026 C 0.98987 0.71165 0.56771 0.0
C1027 C 0.07558 0.65392 0.57099 0.0
C1028 C 0.08685 0.65404 0.59017 0.0
C1029 C 0.056 0.65347 0.57259 0.0
C1030 C 0.04711 0.65334 0.59341 0.0
C1031 C 0.05835 0.65382 0.61261 0.0
C1032 C 0.07797 0.6539 0.61102 0.0
C1033 C 0.02615 0.6531 0.59491 0.0
C1034 C 0.01584 0.66965 0.58216 0.0
C1035 C 0.01627 0.63675 0.60868 0.0
C1036 C 0.02603 0.61728 0.62094 0.0
C1037 C 0.02373 0.61494 0.644 0.0
C1038 C 0.03315 0.59679 0.65558 0.0
C1039 C 0.04485 0.5808 0.64425 0.0
C1040 C 0.04707 0.58283 0.6213 0.0
C1041 C 0.03765 0.6009 0.60964 0.0
H1042 H 0.05216 0.56681 0.65326 0.0
H1043 H 0.95953 0.72967 0.52738 0.0
H1044 H 0.92627 0.64166 0.8842 0.0
H1045 H 0.96047 0.64167 0.88121 0.0
H1046 H 0.96484 0.66453 0.94937 0.0
H1047 H 0.93075 0.66412 0.95267 0.0
H1048 H 0.9861 0.67577 0.88455 0.0
H1049 H 1.00411 0.64147 0.97286 0.0
H1050 H 0.99037 0.6154 1.0017 0.0
H1051 H 0.95964 0.57674 0.95191 0.0
H1052 H 0.97339 0.60233 0.92276 0.0
H1053 H 0.08155 0.69916 0.91083 0.0
H1054 H 0.04741 0.69599 0.91115 0.0
H1055 H 0.05162 0.61874 0.90813 0.0
H1056 H 0.08583 0.62167 0.90799 0.0
H1057 H 0.02612 0.63172 0.93829 0.0
H1058 H 0.03878 0.65103 0.86271 0.0
H1059 H 0.05211 0.67389 0.83142 0.0
H1060 H 0.0214 0.7366 0.8516 0.0
H1061 H 0.00809 0.71422 0.88322 0.0
C1062 C 0.93447 0.64662 0.89861 0.0
C1063 C 0.92563 0.65283 0.91871 0.0
C1064 C 0.95408 0.64671 0.89683 0.0
C1065 C 0.96534 0.65288 0.91511 0.0
C1066 C 0.95654 0.65931 0.93511 0.0
C1067 C 0.93697 0.65916 0.93693 0.0
C1068 C 0.98624 0.65269 0.91325 0.0
C1069 C 0.99482 0.66615 0.89633 0.0
C1070 C 0.99775 0.63977 0.92829 0.0
C1071 C 0.98966 0.62398 0.94566 0.0
C1072 C 0.99449 0.62733 0.96806 0.0
C1073 C 0.98669 0.61265 0.98446 0.0
C1074 C 0.9741 0.59448 0.97865 0.0
C1075 C 0.96934 0.59088 0.95641 0.0
C1076 C 0.97713 0.60548 0.93994 0.0
C1077 C 0.07528 0.68145 0.91014 0.0
C1078 C 0.08657 0.66067 0.90935 0.0
C1079 C 0.05569 0.67968 0.91025 0.0
C1080 C 0.04685 0.65712 0.90951 0.0
C1081 C 0.05806 0.63635 0.90873 0.0
C1082 C 0.07767 0.63809 0.90855 0.0
C1083 C 0.02596 0.65522 0.90989 0.0
C1084 C 0.01739 0.64138 0.92653 0.0
C1085 C 0.01446 0.6674 0.89433 0.0
C1086 C 0.02256 0.68099 0.87544 0.0
C1087 C 0.035 0.66976 0.8606 0.0
C1088 C 0.04253 0.68262 0.84278 0.0
C1089 C 0.03762 0.70668 0.83954 0.0
C1090 C 0.0252 0.71796 0.85414 0.0
C1091 C 0.01764 0.70519 0.872 0.0
H1092 H 0.04335 0.71655 0.82566 0.0
H1093 H 0.96805 0.58316 0.99137 0.0
H1094 H 0.08418 0.3241 0.44175 0.0
H1095 H 0.05018 0.32344 0.43659 0.0
H1096 H 0.05475 0.37764 0.38584 0.0
H1097 H 0.08895 0.37779 0.39021 0.0
H1098 H 0.02503 0.38243 0.42605 0.0
H1099 H 0.04659 0.33432 0.36399 0.0
H1100 H 0.06542 0.30183 0.34735 0.0
H1101 H 0.03755 0.24997 0.38848 0.0
H1102 H 0.01886 0.28229 0.40578 0.0
H1103 H 0.92972 0.37822 0.39196 0.0
H1104 H 0.96392 0.38105 0.39161 0.0
H1105 H 0.96793 0.30843 0.41627 0.0
H1106 H 0.93389 0.3051 0.41579 0.0
H1107 H 0.99406 0.31441 0.38743 0.0
H1108 H 0.97322 0.35998 0.45023 0.0
H1109 H 0.95496 0.39109 0.4698 0.0
H1110 H 0.98154 0.44605 0.43095 0.0
H1111 H 0.99977 0.4152 0.4109 0.0
C1112 C 0.07805 0.33581 0.42938 0.0
C1113 C 0.08943 0.35084 0.41627 0.0
C1114 C 0.05857 0.33543 0.42651 0.0
C1115 C 0.04996 0.35046 0.41083 0.0
C1116 C 0.06114 0.36589 0.39803 0.0
C1117 C 0.08069 0.36586 0.40051 0.0
C1118 C 0.02928 0.34971 0.40773 0.0
C1119 C 0.01822 0.36782 0.41728 0.0
C1120 C 0.02044 0.33026 0.39689 0.0
C1121 C 0.03149 0.31077 0.38637 0.0
C1122 C 0.04463 0.31603 0.36967 0.0
C1123 C 0.05524 0.29764 0.36008 0.0
C1124 C 0.0527 0.27385 0.36686 0.0
C1125 C 0.03952 0.26841 0.38326 0.0
C1126 C 0.02891 0.28676 0.39297 0.0
C1127 C 0.93786 0.36278 0.3972 0.0
C1128 C 0.9289 0.34152 0.40415 0.0
C1129 C 0.95748 0.36448 0.39712 0.0
C1130 C 0.96865 0.34513 0.40435 0.0
C1131 C 0.95974 0.32368 0.41068 0.0
C1132 C 0.94017 0.32186 0.41052 0.0
C1133 C 0.98955 0.34724 0.40573 0.0
C1134 C 1.00074 0.32925 0.39601 0.0
C1135 C 0.9985 0.36667 0.41673 0.0
C1136 C 0.9877 0.38527 0.4289 0.0
C1137 C 0.97508 0.37869 0.44575 0.0
C1138 C 0.96474 0.39627 0.45694 0.0
C1139 C 0.96704 0.42053 0.45157 0.0
C1140 C 0.97974 0.42725 0.43506 0.0
C1141 C 0.99009 0.40972 0.42378 0.0
H1142 H 0.95902 0.43411 0.46025 0.0
H1143 H 0.06092 0.25963 0.35939 0.0
H1144 H 0.42854 0.85064 0.05429 0.0
H1145 H 0.46263 0.8489 0.0569 0.0
H1146 H 0.45909 0.85343 0.12821 0.0
H1147 H 0.4249 0.85604 0.12569 0.0
H1148 H 0.48756 0.87865 0.11545 0.0
H1149 H 0.46709 0.79895 0.10067 0.0
H1150 H 0.44965 0.76717 0.08103 0.0
H1151 H 0.48054 0.78192 0.02145 0.0
H1152 H 0.49802 0.81402 0.04068 0.0
H1153 H 0.58043 0.80234 0.10355 0.0
H1154 H 0.54622 0.80511 0.10419 0.0
H1155 H 0.54961 0.8803 0.08705 0.0
H1156 H 0.58377 0.87788 0.08738 0.0
H1157 H 0.52091 0.81327 0.07571 0.0
H1158 H 0.51315 0.91183 0.10659 0.0
H1159 H 0.53021 0.94049 0.13044 0.0
H1160 H 0.55531 0.88183 0.16603 0.0
H1161 H 0.53818 0.85284 0.14265 0.0
C1162 C 0.43497 0.85139 0.07056 0.0
C1163 C 0.42387 0.85331 0.0898 0.0
C1164 C 0.45454 0.85026 0.07204 0.0
C1165 C 0.46356 0.85052 0.09279 0.0
C1166 C 0.45255 0.85311 0.11199 0.0
C1167 C 0.43295 0.85455 0.11052 0.0
C1168 C 0.48438 0.84763 0.09441 0.0
C1169 C 0.49483 0.86435 0.10674 0.0
C1170 C 0.49398 0.82859 0.08362 0.0
C1171 C 0.48375 0.80903 0.07207 0.0
C1172 C 0.47009 0.7955 0.08335 0.0
C1173 C 0.4602 0.77743 0.07229 0.0
C1174 C 0.46393 0.77259 0.04998 0.0
C1175 C 0.47764 0.78573 0.03872 0.0
C1176 C 0.48757 0.80384 0.0497 0.0
C1177 C 0.57389 0.81952 0.10007 0.0
C1178 C 0.58491 0.83994 0.09564 0.0
C1179 C 0.55428 0.82107 0.10035 0.0
C1180 C 0.54515 0.843 0.096 0.0
C1181 C 0.55617 0.86329 0.09107 0.0
C1182 C 0.57578 0.86185 0.09117 0.0
C1183 C 0.52419 0.84459 0.09639 0.0
C1184 C 0.51368 0.82759 0.08443 0.0
C1185 C 0.51451 0.86287 0.10818 0.0
C1186 C 0.52451 0.88018 0.12271 0.0
C1187 C 0.52222 0.90506 0.11959 0.0
C1188 C 0.53192 0.92135 0.13302 0.0
C1189 C 0.54388 0.91298 0.14969 0.0
C1190 C 0.54609 0.88829 0.15306 0.0
C1191 C 0.53639 0.87192 0.13973 0.0
H1192 H 0.55141 0.92563 0.16002 0.0
H1193 H 0.45623 0.75861 0.04144 0.0
H1194 H 0.5837 0.1591 0.54808 0.0
H1195 H 0.54971 0.16146 0.55149 0.0
H1196 H 0.5544 0.15535 0.62262 0.0
H1197 H 0.58851 0.15218 0.61929 0.0
H1198 H 0.52572 0.13034 0.60978 0.0
H1199 H 0.54597 0.21035 0.59646 0.0
H1200 H 0.56314 0.24271 0.57731 0.0
H1201 H 0.53147 0.22969 0.51792 0.0
H1202 H 0.51424 0.19703 0.53665 0.0
H1203 H 0.43167 0.2039 0.60176 0.0
H1204 H 0.46599 0.20278 0.60119 0.0
H1205 H 0.46433 0.12865 0.58025 0.0
H1206 H 0.43018 0.12937 0.58161 0.0
H1207 H 0.49176 0.19646 0.57175 0.0
H1208 H 0.50032 0.09713 0.60025 0.0
H1209 H 0.48317 0.06766 0.62312 0.0
H1210 H 0.45766 0.12505 0.65999 0.0
H1211 H 0.47487 0.15484 0.6376 0.0
C1212 C 0.57756 0.15817 0.56449 0.0
C1213 C 0.58895 0.15559 0.58343 0.0
C1214 C 0.55805 0.15966 0.56642 0.0
C1215 C 0.54938 0.15907 0.58735 0.0
C1216 C 0.56067 0.15593 0.60627 0.0
C1217 C 0.58023 0.15417 0.60434 0.0
C1218 C 0.5286 0.16194 0.58942 0.0
C1219 C 0.51833 0.14481 0.60147 0.0
C1220 C 0.51885 0.1812 0.57915 0.0
C1221 C 0.52892 0.20111 0.56791 0.0
C1222 C 0.54273 0.21431 0.57928 0.0
C1223 C 0.55247 0.2327 0.5685 0.0
C1224 C 0.54844 0.2382 0.54639 0.0
C1225 C 0.53459 0.22539 0.53504 0.0
C1226 C 0.52481 0.20695 0.54574 0.0
C1227 C 0.43861 0.18735 0.59704 0.0
C1228 C 0.42811 0.16664 0.59199 0.0
C1229 C 0.45827 0.18675 0.59666 0.0
C1230 C 0.46788 0.1655 0.59109 0.0
C1231 C 0.45736 0.1451 0.58521 0.0
C1232 C 0.43776 0.14558 0.58589 0.0
C1233 C 0.48883 0.16448 0.5916 0.0
C1234 C 0.49914 0.182 0.58008 0.0
C1235 C 0.49866 0.14604 0.603 0.0
C1236 C 0.48877 0.12821 0.6171 0.0
C1237 C 0.49116 0.10345 0.61334 0.0
C1238 C 0.4814 0.08669 0.6262 0.0
C1239 C 0.46928 0.09448 0.64294 0.0
C1240 C 0.467 0.11904 0.64697 0.0
C1241 C 0.47675 0.13587 0.6342 0.0
H1242 H 0.46169 0.08148 0.65282 0.0
H1243 H 0.55602 0.25243 0.53807 0.0
H1244 H 0.57633 0.19917 0.89799 0.0
H1245 H 0.54216 0.19723 0.89928 0.0
H1246 H 0.5451 0.12178 0.91543 0.0
H1247 H 0.5793 0.12337 0.91343 0.0
H1248 H 0.51721 0.12811 0.88859 0.0
H1249 H 0.53634 0.16594 0.95607 0.0
H1250 H 0.55306 0.19547 0.97926 0.0
H1251 H 0.52325 0.25309 0.9475 0.0
H1252 H 0.50634 0.22385 0.92408 0.0
H1253 H 0.42551 0.15757 0.95557 0.0
H1254 H 0.45952 0.15776 0.95164 0.0
H1255 H 0.45372 0.1556 0.8804 0.0
H1256 H 0.4196 0.15447 0.88426 0.0
H1257 H 0.48321 0.18702 0.9355 0.0
H1258 H 0.49096 0.12822 0.85658 0.0
H1259 H 0.47437 0.09501 0.83785 0.0
H1260 H 0.45094 0.07255 0.9001 0.0
H1261 H 0.46761 0.10538 0.91923 0.0
C1262 C 0.56974 0.1821 0.90171 0.0
C1263 C 0.58067 0.16145 0.90573 0.0
C1264 C 0.55014 0.18104 0.90255 0.0
C1265 C 0.54092 0.15945 0.90786 0.0
C1266 C 0.55178 0.13868 0.91133 0.0
C1267 C 0.5714 0.13965 0.91024 0.0
C1268 C 0.52005 0.15865 0.91031 0.0
C1269 C 0.50979 0.14104 0.89881 0.0
C1270 C 0.51025 0.1751 0.92403 0.0
C1271 C 0.52022 0.19274 0.9382 0.0
C1272 C 0.53343 0.18492 0.95396 0.0
C1273 C 0.54293 0.2016 0.96715 0.0
C1274 C 0.53931 0.22616 0.96477 0.0
C1275 C 0.52607 0.23407 0.94929 0.0
C1276 C 0.51648 0.21745 0.9361 0.0
C1277 C 0.43142 0.157 0.93903 0.0
C1278 C 0.41973 0.15583 0.92024 0.0
C1279 C 0.45095 0.15722 0.9368 0.0
C1280 C 0.45936 0.15644 0.91573 0.0
C1281 C 0.4477 0.15567 0.89689 0.0
C1282 C 0.42813 0.15512 0.89912 0.0
C1283 C 0.48028 0.1566 0.91362 0.0
C1284 C 0.49057 0.17413 0.92518 0.0
C1285 C 0.49013 0.13955 0.90056 0.0
C1286 C 0.48038 0.11942 0.88928 0.0
C1287 C 0.48234 0.11612 0.86628 0.0
C1288 C 0.47292 0.09737 0.85559 0.0
C1289 C 0.46156 0.08173 0.86777 0.0
C1290 C 0.45969 0.08472 0.89067 0.0
C1291 C 0.46912 0.1034 0.90144 0.0
H1292 H 0.45424 0.06727 0.85945 0.0
H1293 H 0.54672 0.23905 0.97497 0.0
H1294 H 0.42585 0.88055 0.41175 0.0
H1295 H 0.46 0.88417 0.41237 0.0
H1296 H 0.46504 0.80723 0.41892 0.0
H1297 H 0.43098 0.80336 0.41781 0.0
H1298 H 0.48603 0.87421 0.442 0.0
H1299 H 0.5041 0.78743 0.39302 0.0
H1300 H 0.49026 0.76203 0.36373 0.0
H1301 H 0.459 0.82248 0.33922 0.0
H1302 H 0.47285 0.8483 0.36814 0.0
H1303 H 0.58148 0.84174 0.45725 0.0
H1304 H 0.54735 0.84195 0.45439 0.0
H1305 H 0.55129 0.86152 0.38535 0.0
H1306 H 0.58549 0.86136 0.38799 0.0
H1307 H 0.52589 0.82626 0.39106 0.0
H1308 H 0.53813 0.90292 0.42285 0.0
H1309 H 0.55207 0.93157 0.44932 0.0
H1310 H 0.52279 0.89745 0.50299 0.0
H1311 H 0.50882 0.8684 0.47683 0.0
C1312 C 0.43419 0.86435 0.41329 0.0
C1313 C 0.42554 0.84164 0.41466 0.0
C1314 C 0.45377 0.86648 0.41372 0.0
C1315 C 0.46521 0.84599 0.41547 0.0
C1316 C 0.4566 0.82333 0.41717 0.0
C1317 C 0.43705 0.82115 0.41664 0.0
C1318 C 0.48609 0.84826 0.41546 0.0
C1319 C 0.49471 0.86369 0.43086 0.0
C1320 C 0.49755 0.83501 0.40061 0.0
C1321 C 0.48939 0.81973 0.38289 0.0
C1322 C 0.49435 0.79532 0.38131 0.0
C1323 C 0.48648 0.78085 0.36478 0.0
C1324 C 0.47372 0.79062 0.34967 0.0
C1325 C 0.46884 0.81491 0.35098 0.0
C1326 C 0.47668 0.82947 0.36745 0.0
C1327 C 0.57517 0.84618 0.44142 0.0
C1328 C 0.5864 0.8514 0.42281 0.0
C1329 C 0.55558 0.84635 0.43985 0.0
C1330 C 0.54667 0.85183 0.41967 0.0
C1331 C 0.5578 0.85714 0.40108 0.0
C1332 C 0.57741 0.85708 0.40265 0.0
C1333 C 0.52579 0.85173 0.41795 0.0
C1334 C 0.51719 0.83674 0.40221 0.0
C1335 C 0.51435 0.8658 0.43212 0.0
C1336 C 0.52256 0.88335 0.44791 0.0
C1337 C 0.53476 0.90142 0.44032 0.0
C1338 C 0.54266 0.91775 0.45526 0.0
C1339 C 0.53837 0.91628 0.47784 0.0
C1340 C 0.52612 0.89854 0.4855 0.0
C1341 C 0.51818 0.88216 0.47061 0.0
H1342 H 0.54452 0.92893 0.48938 0.0
H1343 H 0.46763 0.77938 0.33691 0.0
H1344 H 0.13739 0.34676 0.17152 0.0
H1345 H 0.13983 0.33706 0.21053 0.0
H1346 H 0.14518 0.26184 0.19475 0.0
H1347 H 0.14318 0.27145 0.1548 0.0
H1348 H 0.11598 0.28398 0.23363 0.0
H1349 H 0.18066 0.27396 0.21025 0.0
H1350 H 0.20822 0.28627 0.18835 0.0
H1351 H 0.20846 0.35488 0.22099 0.0
H1352 H 0.18072 0.3431 0.24285 0.0
H1353 H 0.13233 0.28351 0.35158 0.0
H1354 H 0.13379 0.27103 0.31252 0.0
H1355 H 0.15776 0.33972 0.29522 0.0
H1356 H 0.15709 0.35174 0.33384 0.0
H1357 H 0.17443 0.30808 0.27227 0.0
H1358 H 0.10888 0.32412 0.28887 0.0
H1359 H 0.07911 0.31784 0.30887 0.0
H1360 H 0.07839 0.24396 0.2882 0.0
H1361 H 0.10826 0.24979 0.26823 0.0
C1362 C 0.1392 0.32807 0.17603 0.0
C1363 C 0.14034 0.30991 0.15976 0.0
C1364 C 0.14048 0.32259 0.19851 0.0
C1365 C 0.14269 0.2988 0.20552 0.0
C1366 C 0.14344 0.28036 0.18959 0.0
C1367 C 0.1424 0.28589 0.16681 0.0
C1368 C 0.14485 0.29418 0.22965 0.0
C1369 C 0.12891 0.2884 0.24218 0.0
C1370 C 0.16153 0.3008 0.24071 0.0
C1371 C 0.17858 0.30766 0.22813 0.0
C1372 C 0.18654 0.29171 0.21268 0.0
C1373 C 0.2022 0.29859 0.20028 0.0
C1374 C 0.21008 0.32135 0.20326 0.0
C1375 C 0.20235 0.33724 0.21871 0.0
C1376 C 0.18669 0.33045 0.23115 0.0
C1377 C 0.13808 0.29582 0.33944 0.0
C1378 C 0.14452 0.31868 0.34593 0.0
C1379 C 0.13881 0.28872 0.31707 0.0
C1380 C 0.14568 0.30451 0.30071 0.0
C1381 C 0.15247 0.32707 0.30736 0.0
C1382 C 0.15199 0.334 0.3296 0.0
C1383 C 0.14538 0.2984 0.27654 0.0
C1384 C 0.16165 0.30255 0.26395 0.0
C1385 C 0.12886 0.29077 0.26545 0.0
C1386 C 0.11089 0.2873 0.27732 0.0
C1387 C 0.10242 0.3065 0.28872 0.0
C1388 C 0.08553 0.30303 0.30003 0.0
C1389 C 0.0769 0.28048 0.29988 0.0
C1390 C 0.08511 0.2614 0.28835 0.0
C1391 C 0.10201 0.26478 0.27702 0.0
H1392 H 0.06383 0.27782 0.30864 0.0
H1393 H 0.22217 0.32667 0.1936 0.0
H1394 H 0.88332 0.72015 0.65482 0.0
H1395 H 0.88368 0.72716 0.6951 0.0
H1396 H 0.84018 0.67414 0.70346 0.0
H1397 H 0.8398 0.66721 0.66348 0.0
H1398 H 0.83564 0.71275 0.73201 0.0
H1399 H 0.88423 0.65768 0.70877 0.0
H1400 H 0.91184 0.64598 0.68666 0.0
H1401 H 0.94356 0.70361 0.71556 0.0
H1402 H 0.91599 0.71594 0.73757 0.0
H1403 H 0.84698 0.6608 0.83798 0.0
H1404 H 0.84442 0.6703 0.79862 0.0
H1405 H 0.89125 0.71891 0.8041 0.0
H1406 H 0.89406 0.70928 0.84368 0.0
H1407 H 0.89521 0.6894 0.76876 0.0
H1408 H 0.8469 0.74057 0.79634 0.0
H1409 H 0.81883 0.75128 0.81807 0.0
H1410 H 0.78622 0.70021 0.78116 0.0
H1411 H 0.81415 0.68894 0.75942 0.0
C1412 C 0.87349 0.71052 0.66522 0.0
C1413 C 0.86165 0.69295 0.65605 0.0
C1414 C 0.87379 0.7144 0.68824 0.0
C1415 C 0.86212 0.70093 0.70237 0.0
C1416 C 0.84935 0.6847 0.69297 0.0
C1417 C 0.84923 0.68063 0.6701 0.0
C1418 C 0.86426 0.70185 0.72695 0.0
C1419 C 0.84865 0.70765 0.74007 0.0
C1420 C 0.88132 0.69556 0.7375 0.0
C1421 C 0.898 0.68791 0.72461 0.0
C1422 C 0.89705 0.66797 0.71029 0.0
C1423 C 0.91269 0.66121 0.69779 0.0
C1424 C 0.92942 0.67408 0.69966 0.0
C1425 C 0.93057 0.69369 0.7141 0.0
C1426 C 0.91494 0.70058 0.72658 0.0
C1427 C 0.85663 0.67375 0.83096 0.0
C1428 C 0.87073 0.68428 0.8441 0.0
C1429 C 0.85509 0.67925 0.80838 0.0
C1430 C 0.86753 0.6955 0.79833 0.0
C1431 C 0.88145 0.70636 0.81145 0.0
C1432 C 0.88297 0.70092 0.83412 0.0
C1433 C 0.86648 0.70005 0.77394 0.0
C1434 C 0.88229 0.69507 0.7608 0.0
C1435 C 0.84955 0.70698 0.76339 0.0
C1436 C 0.83267 0.7138 0.77634 0.0
C1437 C 0.83377 0.7315 0.79296 0.0
C1438 C 0.81788 0.73769 0.80526 0.0
C1439 C 0.80076 0.7264 0.80102 0.0
C1440 C 0.79949 0.70894 0.78443 0.0
C1441 C 0.81534 0.70267 0.77209 0.0
H1442 H 0.78847 0.73121 0.81057 0.0
H1443 H 0.94152 0.66883 0.68996 0.0
H1444 H 0.14477 0.72805 0.85559 0.0
H1445 H 0.14573 0.73777 0.81566 0.0
H1446 H 0.1545 0.66289 0.80049 0.0
H1447 H 0.15298 0.653 0.83951 0.0
H1448 H 0.17916 0.69582 0.77749 0.0
H1449 H 0.11236 0.68452 0.79674 0.0
H1450 H 0.08409 0.69678 0.81746 0.0
H1451 H 0.0875 0.76748 0.78914 0.0
H1452 H 0.11594 0.75571 0.7685 0.0
H1453 H 0.1563 0.65319 0.67406 0.0
H1454 H 0.15916 0.66345 0.7129 0.0
H1455 H 0.13407 0.73273 0.70029 0.0
H1456 H 0.13033 0.72194 0.66093 0.0
H1457 H 0.1205 0.71601 0.7373 0.0
H1458 H 0.18246 0.72632 0.71203 0.0
H1459 H 0.21165 0.71706 0.69188 0.0
H1460 H 0.21951 0.65379 0.73164 0.0
H1461 H 0.19023 0.66245 0.75182 0.0
C1462 C 0.14709 0.71373 0.84373 0.0
C1463 C 0.14901 0.68975 0.85095 0.0
C1464 C 0.14759 0.7193 0.82094 0.0
C1465 C 0.15029 0.70103 0.80511 0.0
C1466 C 0.15258 0.67731 0.81237 0.0
C1467 C 0.15174 0.67171 0.83486 0.0
C1468 C 0.15017 0.70573 0.78081 0.0
C1469 C 0.16639 0.70036 0.76864 0.0
C1470 C 0.13372 0.71261 0.76933 0.0
C1471 C 0.11637 0.71934 0.7813 0.0
C1472 C 0.10713 0.70272 0.79505 0.0
C1473 C 0.09108 0.70957 0.80676 0.0
C1474 C 0.08405 0.73292 0.80468 0.0
C1475 C 0.09299 0.74942 0.79077 0.0
C1476 C 0.10906 0.74267 0.77906 0.0
C1477 C 0.15148 0.67073 0.67933 0.0
C1478 C 0.14319 0.68678 0.66418 0.0
C1479 C 0.15326 0.67668 0.7017 0.0
C1480 C 0.1473 0.69916 0.70964 0.0
C1481 C 0.13895 0.71534 0.69462 0.0
C1482 C 0.13688 0.7092 0.6721 0.0
C1483 C 0.14933 0.70488 0.73378 0.0
C1484 C 0.13349 0.71216 0.74596 0.0
C1485 C 0.1663 0.70024 0.74533 0.0
C1486 C 0.18409 0.69503 0.73342 0.0
C1487 C 0.19036 0.71037 0.71642 0.0
C1488 C 0.20693 0.70522 0.70499 0.0
C1489 C 0.21742 0.68484 0.71046 0.0
C1490 C 0.21138 0.66959 0.72743 0.0
C1491 C 0.19481 0.67464 0.73891 0.0
H1492 H 0.23023 0.68088 0.70158 0.0
H1493 H 0.07169 0.73827 0.81383 0.0
H1494 H 0.84121 0.33939 0.16548 0.0
H1495 H 0.84044 0.33278 0.20544 0.0
H1496 H 0.8864 0.28277 0.20003 0.0
H1497 H 0.88731 0.28927 0.15975 0.0
H1498 H 0.859 0.26874 0.23212 0.0
H1499 H 0.89651 0.33716 0.21385 0.0
H1500 H 0.90372 0.37575 0.19563 0.0
H1501 H 0.85796 0.40938 0.22995 0.0
H1502 H 0.85023 0.37086 0.24806 0.0
H1503 H 0.88357 0.2841 0.34888 0.0
H1504 H 0.88288 0.27823 0.30841 0.0
H1505 H 0.84159 0.33459 0.30254 0.0
H1506 H 0.84245 0.34056 0.34253 0.0
H1507 H 0.86977 0.34312 0.27569 0.0
H1508 H 0.83149 0.27411 0.29294 0.0
H1509 H 0.82431 0.23542 0.31099 0.0
H1510 H 0.8718 0.20292 0.2791 0.0
H1511 H 0.87941 0.24153 0.26107 0.0
C1512 C 0.85101 0.32668 0.17263 0.0
C1513 C 0.86449 0.31509 0.15934 0.0
C1514 C 0.85054 0.32293 0.19555 0.0
C1515 C 0.86355 0.30757 0.20581 0.0
C1516 C 0.87626 0.29476 0.19249 0.0
C1517 C 0.87676 0.29853 0.16945 0.0
C1518 C 0.86477 0.30668 0.23048 0.0
C1519 C 0.8616 0.28491 0.24169 0.0
C1520 C 0.86804 0.3278 0.24299 0.0
C1521 C 0.87271 0.35106 0.2322 0.0
C1522 C 0.88788 0.35273 0.21738 0.0
C1523 C 0.89208 0.3746 0.20709 0.0
C1524 C 0.88132 0.395 0.21165 0.0
C1525 C 0.8663 0.39356 0.22646 0.0
C1526 C 0.862 0.37171 0.23675 0.0
C1527 C 0.87401 0.29475 0.33895 0.0
C1528 C 0.86319 0.31297 0.34885 0.0
C1529 C 0.87366 0.29145 0.31581 0.0
C1530 C 0.86229 0.30612 0.30229 0.0
C1531 C 0.85066 0.32325 0.31246 0.0
C1532 C 0.85115 0.32665 0.33539 0.0
C1533 C 0.86338 0.30531 0.27754 0.0
C1534 C 0.86718 0.32686 0.26623 0.0
C1535 C 0.86072 0.28398 0.26507 0.0
C1536 C 0.85614 0.26078 0.27586 0.0
C1537 C 0.8405 0.25877 0.28993 0.0
C1538 C 0.83633 0.23684 0.30012 0.0
C1539 C 0.84763 0.21674 0.29625 0.0
C1540 C 0.86308 0.21852 0.28211 0.0
C1541 C 0.86732 0.24041 0.27189 0.0
H1542 H 0.84438 0.19978 0.30416 0.0
H1543 H 0.88464 0.41193 0.20374 0.0
H1544 H 0.6659 0.82611 0.34288 0.0
H1545 H 0.67149 0.81455 0.30415 0.0
H1546 H 0.61195 0.80738 0.2938 0.0
H1547 H 0.60627 0.81888 0.33233 0.0
H1548 H 0.63161 0.77249 0.27115 0.0
H1549 H 0.6322 0.85885 0.27889 0.0
H1550 H 0.64255 0.89739 0.29489 0.0
H1551 H 0.69932 0.88202 0.27582 0.0
H1552 H 0.68922 0.84335 0.25959 0.0
H1553 H 0.61608 0.80195 0.1577 0.0
H1554 H 0.61751 0.79682 0.19806 0.0
H1555 H 0.67751 0.80646 0.19613 0.0
H1556 H 0.67596 0.8117 0.15566 0.0
H1557 H 0.66167 0.836 0.22566 0.0
H1558 H 0.65817 0.75195 0.21076 0.0
H1559 H 0.64573 0.71497 0.19372 0.0
H1560 H 0.59276 0.72644 0.22583 0.0
H1561 H 0.60479 0.7637 0.24281 0.0
C1562 C 0.65403 0.82147 0.33251 0.0
C1563 C 0.63563 0.82353 0.34067 0.0
C1564 C 0.65724 0.81502 0.31033 0.0
C1565 C 0.64212 0.81036 0.29595 0.0
C1566 C 0.62384 0.81088 0.30451 0.0
C1567 C 0.62062 0.81753 0.32656 0.0
C1568 C 0.64507 0.80709 0.27165 0.0
C1569 C 0.63817 0.78635 0.26117 0.0
C1570 C 0.65387 0.82499 0.25861 0.0
C1571 C 0.66001 0.84814 0.26829 0.0
C1572 C 0.64691 0.86363 0.27825 0.0
C1573 C 0.65272 0.88551 0.28732 0.0
C1574 C 0.67161 0.89208 0.28653 0.0
C1575 C 0.6847 0.87686 0.27649 0.0
C1576 C 0.67894 0.855 0.26729 0.0
C1577 C 0.62962 0.80207 0.16587 0.0
C1578 C 0.64597 0.80659 0.15366 0.0
C1579 C 0.63045 0.79921 0.18893 0.0
C1580 C 0.64766 0.80101 0.20022 0.0
C1581 C 0.6641 0.80481 0.18783 0.0
C1582 C 0.66326 0.80756 0.16473 0.0
C1583 C 0.64812 0.80139 0.22498 0.0
C1584 C 0.65554 0.82176 0.23559 0.0
C1585 C 0.63963 0.78321 0.23803 0.0
C1586 C 0.63236 0.76073 0.22795 0.0
C1587 C 0.64382 0.74669 0.21406 0.0
C1588 C 0.63685 0.72566 0.20443 0.0
C1589 C 0.61846 0.71838 0.20866 0.0
C1590 C 0.60701 0.73211 0.22257 0.0
C1591 C 0.6139 0.75317 0.23223 0.0
H1592 H 0.61308 0.7021 0.20118 0.0
H1593 H 0.67609 0.90901 0.29361 0.0
H1594 H 0.34481 0.16018 0.83933 0.0
H1595 H 0.34512 0.16886 0.79979 0.0
H1596 H 0.38306 0.22796 0.81107 0.0
H1597 H 0.38334 0.21879 0.85085 0.0
H1598 H 0.3363 0.20306 0.77259 0.0
H1599 H 0.41398 0.23128 0.76807 0.0
H1600 H 0.44341 0.22583 0.78907 0.0
H1601 H 0.4232 0.15865 0.8147 0.0
H1602 H 0.39379 0.16356 0.79363 0.0
H1603 H 0.35522 0.22308 0.65679 0.0
H1604 H 0.35387 0.23081 0.69697 0.0
H1605 H 0.38746 0.16759 0.70889 0.0
H1606 H 0.38917 0.16009 0.66939 0.0
H1607 H 0.39841 0.20139 0.7357 0.0
H1608 H 0.33932 0.1671 0.71335 0.0
H1609 H 0.30991 0.16545 0.69187 0.0
H1610 H 0.29278 0.23312 0.71955 0.0
H1611 H 0.32225 0.23533 0.74096 0.0
C1612 C 0.35312 0.1752 0.83354 0.0
C1613 C 0.36429 0.18855 0.84835 0.0
C1614 C 0.35318 0.18024 0.81082 0.0
C1615 C 0.36433 0.19884 0.80225 0.0
C1616 C 0.3746 0.21321 0.81715 0.0
C1617 C 0.37468 0.20802 0.83995 0.0
C1618 C 0.36619 0.20172 0.77769 0.0
C1619 C 0.3499 0.20302 0.76457 0.0
C1620 C 0.38389 0.20125 0.76701 0.0
C1621 C 0.40161 0.19797 0.77952 0.0
C1622 C 0.41585 0.21533 0.77816 0.0
C1623 C 0.43252 0.21233 0.79006 0.0
C1624 C 0.43514 0.19195 0.80328 0.0
C1625 C 0.42113 0.17447 0.80453 0.0
C1626 C 0.40446 0.17736 0.79262 0.0
C1627 C 0.3625 0.21104 0.668 0.0
C1628 C 0.37216 0.19085 0.65976 0.0
C1629 C 0.36166 0.21541 0.69097 0.0
C1630 C 0.37045 0.19967 0.70606 0.0
C1631 C 0.38061 0.18008 0.69772 0.0
C1632 C 0.38145 0.17573 0.67497 0.0
C1633 C 0.36853 0.20243 0.7306 0.0
C1634 C 0.38482 0.20214 0.74373 0.0
C1635 C 0.35083 0.20291 0.74124 0.0
C1636 C 0.33307 0.20153 0.72853 0.0
C1637 C 0.32934 0.18171 0.71472 0.0
C1638 C 0.31266 0.18066 0.70258 0.0
C1639 C 0.29951 0.19921 0.70429 0.0
C1640 C 0.303 0.2188 0.71821 0.0
C1641 C 0.31969 0.21997 0.73034 0.0
H1642 H 0.2866 0.19836 0.69489 0.0
H1643 H 0.44804 0.18968 0.81251 0.0
H1644 H 0.64829 0.22546 0.84909 0.0
H1645 H 0.65168 0.23334 0.80902 0.0
H1646 H 0.6413 0.15846 0.79532 0.0
H1647 H 0.63781 0.1505 0.83451 0.0
H1648 H 0.67217 0.17567 0.77303 0.0
H1649 H 0.60742 0.20053 0.78867 0.0
H1650 H 0.58415 0.22644 0.80726 0.0
H1651 H 0.6097 0.28904 0.77861 0.0
H1652 H 0.63328 0.26349 0.76009 0.0
H1653 H 0.64333 0.14763 0.66778 0.0
H1654 H 0.64521 0.15607 0.70717 0.0
H1655 H 0.64783 0.23212 0.69346 0.0
H1656 H 0.64504 0.22362 0.6534 0.0
H1657 H 0.62706 0.22459 0.72951 0.0
H1658 H 0.68809 0.19955 0.70826 0.0
H1659 H 0.71162 0.17419 0.68952 0.0
H1660 H 0.69495 0.11365 0.72903 0.0
H1661 H 0.67113 0.13853 0.74778 0.0
C1662 C 0.64676 0.21071 0.8375 0.0
C1663 C 0.64292 0.18731 0.84521 0.0
C1664 C 0.64866 0.21525 0.81462 0.0
C1665 C 0.64683 0.19644 0.79914 0.0
C1666 C 0.64295 0.17323 0.80688 0.0
C1667 C 0.64094 0.16874 0.82948 0.0
C1668 C 0.64885 0.20014 0.77477 0.0
C1669 C 0.66235 0.18643 0.76351 0.0
C1670 C 0.63656 0.21492 0.76234 0.0
C1671 C 0.62223 0.23015 0.77323 0.0
C1672 C 0.60815 0.21984 0.78647 0.0
C1673 C 0.5949 0.23445 0.79697 0.0
C1674 C 0.59548 0.25938 0.79418 0.0
C1675 C 0.60928 0.26973 0.7808 0.0
C1676 C 0.62259 0.2552 0.7703 0.0
C1677 C 0.64443 0.16619 0.67302 0.0
C1678 C 0.64442 0.18494 0.65739 0.0
C1679 C 0.64555 0.17102 0.69566 0.0
C1680 C 0.64731 0.19471 0.70342 0.0
C1681 C 0.64673 0.21366 0.68792 0.0
C1682 C 0.64518 0.20881 0.66506 0.0
C1683 C 0.64977 0.19906 0.72772 0.0
C1684 C 0.63723 0.21431 0.73896 0.0
C1685 C 0.66312 0.18586 0.74024 0.0
C1686 C 0.67779 0.17094 0.72941 0.0
C1687 C 0.68941 0.18082 0.71292 0.0
C1688 C 0.70279 0.16652 0.70228 0.0
C1689 C 0.70477 0.14232 0.70808 0.0
C1690 C 0.69342 0.1324 0.72458 0.0
C1691 C 0.68 0.14661 0.73526 0.0
H1692 H 0.71511 0.13127 0.69979 0.0
H1693 H 0.58522 0.27066 0.80233 0.0
H1694 H 0.37782 0.84939 0.17543 0.0
H1695 H 0.37839 0.8383 0.2145 0.0
H1696 H 0.35559 0.76869 0.19854 0.0
H1697 H 0.35523 0.77959 0.15887 0.0
H1698 H 0.33766 0.79587 0.23658 0.0
H1699 H 0.3972 0.76648 0.21202 0.0
H1700 H 0.42724 0.76864 0.19193 0.0
H1701 H 0.44385 0.82915 0.23152 0.0
H1702 H 0.41377 0.82761 0.25162 0.0
H1703 H 0.35342 0.7768 0.35446 0.0
H1704 H 0.35299 0.76795 0.31435 0.0
H1705 H 0.38529 0.83205 0.30193 0.0
H1706 H 0.38589 0.84079 0.34126 0.0
H1707 H 0.39812 0.79581 0.27731 0.0
H1708 H 0.33787 0.83105 0.29572 0.0
H1709 H 0.3076 0.83254 0.31542 0.0
H1710 H 0.29222 0.76441 0.2873 0.0
H1711 H 0.32256 0.76236 0.2677 0.0
C1712 C 0.37293 0.83166 0.1801 0.0
C1713 C 0.36648 0.81536 0.16395 0.0
C1714 C 0.3733 0.82535 0.2025 0.0
C1715 C 0.36707 0.80268 0.20946 0.0
C1716 C 0.36046 0.7863 0.19351 0.0
C1717 C 0.36036 0.7925 0.17087 0.0
C1718 C 0.36772 0.79661 0.2335 0.0
C1719 C 0.35088 0.79513 0.24547 0.0
C1720 C 0.38495 0.79614 0.24513 0.0
C1721 C 0.40317 0.79698 0.23327 0.0
C1722 C 0.4072 0.78035 0.21635 0.0
C1723 C 0.42424 0.78145 0.20497 0.0
C1724 C 0.43743 0.79904 0.21042 0.0
C1725 C 0.43362 0.81553 0.22731 0.0
C1726 C 0.41658 0.81453 0.23873 0.0
C1727 C 0.36058 0.7888 0.34314 0.0
C1728 C 0.36954 0.8096 0.35114 0.0
C1729 C 0.36026 0.7838 0.32023 0.0
C1730 C 0.36904 0.79942 0.30505 0.0
C1731 C 0.37847 0.81966 0.31321 0.0
C1732 C 0.37867 0.82472 0.33583 0.0
C1733 C 0.36806 0.79579 0.28054 0.0
C1734 C 0.38489 0.79565 0.26844 0.0
C1735 C 0.35082 0.7951 0.26886 0.0
C1736 C 0.33257 0.79639 0.28051 0.0
C1737 C 0.3281 0.81629 0.2939 0.0
C1738 C 0.31092 0.81726 0.30502 0.0
C1739 C 0.29802 0.79854 0.30267 0.0
C1740 C 0.30225 0.77886 0.28915 0.0
C1741 C 0.31943 0.77778 0.27804 0.0
H1742 H 0.28472 0.79932 0.31128 0.0
H1743 H 0.45062 0.79987 0.20158 0.0
H1744 H 0.28894 0.16351 0.96564 0.0
H1745 H 0.26334 0.1832 0.98577 0.0
H1746 H 0.30235 0.2347 0.01265 0.0
H1747 H 0.32798 0.21508 0.99274 0.0
H1748 H 0.27884 0.21887 0.04449 0.0
H1749 H 0.27249 0.24978 0.97043 0.0
H1750 H 0.26911 0.24702 0.92979 0.0
H1751 H 0.2174 0.2085 0.93765 0.0
H1752 H 0.22061 0.21073 0.97836 0.0
H1753 H 0.21233 0.30347 0.08608 0.0
H1754 H 0.23791 0.28343 0.0663 0.0
H1755 H 0.19822 0.23528 0.0357 0.0
H1756 H 0.17259 0.25558 0.05497 0.0
H1757 H 0.22217 0.24911 0.00576 0.0
H1758 H 0.22819 0.21782 0.07949 0.0
H1759 H 0.23146 0.21976 0.12018 0.0
H1760 H 0.28345 0.25787 0.11318 0.0
H1761 H 0.28036 0.25643 0.07243 0.0
C1762 C 0.29209 0.17904 0.9758 0.0
C1763 C 0.31059 0.18768 0.97746 0.0
C1764 C 0.2774 0.19036 0.98727 0.0
C1765 C 0.28081 0.21063 1.00066 0.0
C1766 C 0.29929 0.21913 1.00248 0.0
C1767 C 0.31396 0.2079 0.99097 0.0
C1768 C 0.2652 0.22294 0.01284 0.0
C1769 C 0.26655 0.22575 0.03596 0.0
C1770 C 0.2489 0.23147 1.00191 0.0
C1771 C 0.24689 0.23021 0.97744 0.0
C1772 C 0.26047 0.24056 0.96349 0.0
C1773 C 0.25858 0.23911 0.94045 0.0
C1774 C 0.24308 0.22753 0.93114 0.0
C1775 C 0.22942 0.21743 0.94488 0.0
C1776 C 0.23126 0.21879 0.96794 0.0
C1777 C 0.20904 0.28854 0.07523 0.0
C1778 C 0.19034 0.28114 0.07226 0.0
C1779 C 0.22373 0.27699 0.06395 0.0
C1780 C 0.22015 0.25753 0.04961 0.0
C1781 C 0.20147 0.25019 0.0466 0.0
C1782 C 0.18678 0.2618 0.05776 0.0
C1783 C 0.23575 0.24505 0.03748 0.0
C1784 C 0.23442 0.24222 0.01434 0.0
C1785 C 0.25203 0.23639 0.04842 0.0
C1786 C 0.25395 0.23723 0.07291 0.0
C1787 C 0.24025 0.22677 0.08663 0.0
C1788 C 0.24208 0.22775 0.1097 0.0
C1789 C 0.25763 0.23899 0.11926 0.0
C1790 C 0.2714 0.2492 0.10576 0.0
C1791 C 0.26962 0.2483 0.08267 0.0
H1792 H 0.25902 0.23973 0.13713 0.0
H1793 H 0.24163 0.22644 0.9133 0.0
H1794 H 0.79437 0.699 0.58404 0.0
H1795 H 0.76893 0.71961 0.56441 0.0
H1796 H 0.80935 0.76318 0.52968 0.0
H1797 H 0.8348 0.74287 0.54936 0.0
H1798 H 0.78039 0.79034 0.54315 0.0
H1799 H 0.7874 0.71544 0.50437 0.0
H1800 H 0.78915 0.67132 0.50093 0.0
H1801 H 0.73322 0.66499 0.52657 0.0
H1802 H 0.73124 0.70908 0.53046 0.0
H1803 H 0.71891 0.83674 0.46009 0.0
H1804 H 0.74452 0.81642 0.47966 0.0
H1805 H 0.7046 0.77008 0.51209 0.0
H1806 H 0.67904 0.78991 0.49229 0.0
H1807 H 0.73346 0.74433 0.49979 0.0
H1808 H 0.72626 0.81876 0.539 0.0
H1809 H 0.72434 0.86279 0.54318 0.0
H1810 H 0.78022 0.87001 0.51761 0.0
H1811 H 0.78238 0.82601 0.51299 0.0
C1812 C 0.79787 0.71301 0.57228 0.0
C1813 C 0.81672 0.71918 0.56832 0.0
C1814 C 0.78327 0.72474 0.56095 0.0
C1815 C 0.78713 0.74287 0.5453 0.0
C1816 C 0.80592 0.7493 0.54161 0.0
C1817 C 0.82051 0.73756 0.55287 0.0
C1818 C 0.77167 0.75507 0.53272 0.0
C1819 C 0.77028 0.78027 0.53344 0.0
C1820 C 0.75814 0.74204 0.52039 0.0
C1821 C 0.75924 0.71555 0.51791 0.0
C1822 C 0.77553 0.70463 0.50942 0.0
C1823 C 0.77655 0.67963 0.50737 0.0
C1824 C 0.76132 0.66536 0.51358 0.0
C1825 C 0.74502 0.67607 0.52179 0.0
C1826 C 0.74393 0.70106 0.52391 0.0
C1827 C 0.71556 0.82223 0.47138 0.0
C1828 C 0.69682 0.81511 0.47461 0.0
C1829 C 0.73025 0.81065 0.48269 0.0
C1830 C 0.72659 0.79182 0.49769 0.0
C1831 C 0.70791 0.78451 0.50069 0.0
C1832 C 0.69324 0.79598 0.48934 0.0
C1833 C 0.74213 0.77965 0.51023 0.0
C1834 C 0.74355 0.75444 0.50949 0.0
C1835 C 0.75565 0.79267 0.52263 0.0
C1836 C 0.75441 0.81911 0.52544 0.0
C1837 C 0.73809 0.82975 0.53411 0.0
C1838 C 0.73696 0.8547 0.53659 0.0
C1839 C 0.75213 0.86919 0.53061 0.0
C1840 C 0.76847 0.85876 0.5222 0.0
C1841 C 0.76966 0.83382 0.51967 0.0
H1842 H 0.75123 0.8885 0.53254 0.0
H1843 H 0.76215 0.64601 0.51198 0.0
H1844 H 0.32925 0.81328 0.00833 0.0
H1845 H 0.30411 0.79444 0.98701 0.0
H1846 H 0.26933 0.79325 0.04561 0.0
H1847 H 0.29401 0.81379 0.06646 0.0
H1848 H 0.28844 0.75576 0.98569 0.0
H1849 H 0.22357 0.79072 0.03473 0.0
H1850 H 0.21374 0.82696 0.05528 0.0
H1851 H 0.25311 0.86953 0.01845 0.0
H1852 H 0.263 0.83362 0.9975 0.0
H1853 H 0.21162 0.68513 0.95141 0.0
H1854 H 0.23604 0.70637 0.97193 0.0
H1855 H 0.21053 0.77423 0.95443 0.0
H1856 H 0.18518 0.75272 0.93555 0.0
H1857 H 0.22181 0.78014 0.99197 0.0
H1858 H 0.25408 0.74815 0.92961 0.0
H1859 H 0.26478 0.71742 0.90295 0.0
H1860 H 0.29216 0.67891 0.95555 0.0
H1861 H 0.28143 0.70925 0.98257 0.0
C1862 C 0.31615 0.80921 0.01661 0.0
C1863 C 0.31358 0.81526 0.03906 0.0
C1864 C 0.30174 0.79828 0.0044 0.0
C1865 C 0.28447 0.79255 0.0144 0.0
C1866 C 0.28213 0.79807 0.03707 0.0
C1867 C 0.29635 0.80969 0.04911 0.0
C1868 C 0.2692 0.78047 1.0012 0.0
C1869 C 0.27389 0.76123 0.98708 0.0
C1870 C 0.25012 0.7877 1.00231 0.0
C1871 C 0.24416 0.80942 0.01472 0.0
C1872 C 0.23008 0.80783 0.03097 0.0
C1873 C 0.22451 0.82831 0.0427 0.0
C1874 C 0.23284 0.85052 0.03823 0.0
C1875 C 0.24671 0.85231 0.02196 0.0
C1876 C 0.25232 0.83189 0.01017 0.0
C1877 C 0.21129 0.7046 0.95187 0.0
C1878 C 0.19656 0.71725 0.94167 0.0
C1879 C 0.2254 0.71684 0.96351 0.0
C1880 C 0.22566 0.74216 0.96444 0.0
C1881 C 0.21087 0.75477 0.95414 0.0
C1882 C 0.19639 0.74247 0.94317 0.0
C1883 C 0.24106 0.75542 0.97644 0.0
C1884 C 0.23637 0.77477 0.99045 0.0
C1885 C 0.26028 0.74913 0.97432 0.0
C1886 C 0.2668 0.73086 0.95813 0.0
C1887 C 0.26229 0.73305 0.9355 0.0
C1888 C 0.26837 0.71571 0.92033 0.0
C1889 C 0.2791 0.69619 0.92756 0.0
C1890 C 0.28383 0.69401 0.94998 0.0
C1891 C 0.27777 0.71129 0.96522 0.0
H1892 H 0.28379 0.68279 0.91579 0.0
H1893 H 0.22852 0.86634 0.04734 0.0
H1894 H 0.6814 0.21898 0.51708 0.0
H1895 H 0.70673 0.23965 0.49767 0.0
H1896 H 0.74552 0.18443 0.5181 0.0
H1897 H 0.7202 0.16369 0.53784 0.0
H1898 H 0.7612 0.22837 0.52228 0.0
H1899 H 0.72784 0.18639 0.4649 0.0
H1900 H 0.69992 0.17459 0.44337 0.0
H1901 H 0.69081 0.24819 0.42472 0.0
H1902 H 0.71854 0.26048 0.44641 0.0
H1903 H 0.83529 0.25796 0.44928 0.0
H1904 H 0.80975 0.23747 0.46837 0.0
H1905 H 0.77083 0.29111 0.44485 0.0
H1906 H 0.79637 0.31148 0.42518 0.0
H1907 H 0.75501 0.24832 0.44238 0.0
H1908 H 0.78811 0.29063 0.49928 0.0
H1909 H 0.81583 0.30301 0.52089 0.0
H1910 H 0.82506 0.22984 0.54084 0.0
H1911 H 0.79756 0.21695 0.51905 0.0
C1912 C 0.6953 0.21116 0.51752 0.0
C1913 C 0.69866 0.18951 0.529 0.0
C1914 C 0.70981 0.22301 0.50628 0.0
C1915 C 0.72808 0.2135 0.50607 0.0
C1916 C 0.73158 0.19215 0.5179 0.0
C1917 C 0.71704 0.18025 0.52915 0.0
C1918 C 0.74347 0.2258 0.49348 0.0
C1919 C 0.75993 0.23242 0.50474 0.0
C1920 C 0.74173 0.23175 0.47068 0.0
C1921 C 0.72517 0.22438 0.45745 0.0
C1922 C 0.71981 0.20008 0.45633 0.0
C1923 C 0.70403 0.1933 0.44408 0.0
C1924 C 0.69357 0.21063 0.43273 0.0
C1925 C 0.69891 0.23478 0.43355 0.0
C1926 C 0.71467 0.24166 0.4458 0.0
C1927 C 0.82131 0.26545 0.44808 0.0
C1928 C 0.81798 0.28651 0.43571 0.0
C1929 C 0.80666 0.25372 0.45916 0.0
C1930 C 0.78829 0.26289 0.4585 0.0
C1931 C 0.78484 0.28364 0.44576 0.0
C1932 C 0.79949 0.29532 0.43451 0.0
C1933 C 0.77279 0.25086 0.47116 0.0
C1934 C 0.7563 0.2443 0.45992 0.0
C1935 C 0.77445 0.24506 0.49402 0.0
C1936 C 0.79087 0.2528 0.50736 0.0
C1937 C 0.79612 0.27715 0.50816 0.0
C1938 C 0.81179 0.28427 0.52045 0.0
C1939 C 0.82222 0.26722 0.53219 0.0
C1940 C 0.81698 0.24302 0.53171 0.0
C1941 C 0.80134 0.23581 0.51941 0.0
H1942 H 0.83435 0.27276 0.54169 0.0
H1943 H 0.68135 0.20535 0.42326 0.0
H1944 H 0.71765 0.8048 0.08005 0.0
H1945 H 0.74317 0.78436 0.06038 0.0
H1946 H 0.70311 0.7377 0.02858 0.0
H1947 H 0.67758 0.75796 0.04815 0.0
H1948 H 0.7335 0.71247 0.04325 0.0
H1949 H 0.72263 0.78404 1.00044 0.0
H1950 H 0.71926 0.8277 0.99453 0.0
H1951 H 0.77566 0.83879 0.01722 0.0
H1952 H 0.77928 0.79521 0.02357 0.0
H1953 H 0.79359 0.66325 0.96053 0.0
H1954 H 0.76805 0.68371 0.98001 0.0
H1955 H 0.80743 0.73472 0.00699 0.0
H1956 H 0.83291 0.71474 0.98717 0.0
H1957 H 0.77729 0.75781 0.99501 0.0
H1958 H 0.78855 0.68704 0.03824 0.0
H1959 H 0.79231 0.64361 0.04515 0.0
H1960 H 0.7359 0.63113 0.02307 0.0
H1961 H 0.73189 0.67448 0.01574 0.0
C1962 C 0.71425 0.79016 0.06891 0.0
C1963 C 0.69548 0.78313 0.0657 0.0
C1964 C 0.72888 0.77852 0.05758 0.0
C1965 C 0.72513 0.75954 0.04279 0.0
C1966 C 0.70644 0.75226 0.03985 0.0
C1967 C 0.69181 0.76397 0.05104 0.0
C1968 C 0.7406 0.74734 0.03029 0.0
C1969 C 0.74292 0.72236 0.03248 0.0
C1970 C 0.75326 0.7602 0.01661 0.0
C1971 C 0.75116 0.78639 0.01269 0.0
C1972 C 0.73426 0.79581 0.00433 0.0
C1973 C 0.73232 0.82054 1.00088 0.0
C1974 C 0.74722 0.83602 0.00555 0.0
C1975 C 0.76412 0.82679 0.01364 0.0
C1976 C 0.76613 0.80207 0.01716 0.0
C1977 C 0.79684 0.67884 0.97059 0.0
C1978 C 0.8154 0.68721 0.97229 0.0
C1979 C 0.78219 0.69049 0.98186 0.0
C1980 C 0.78572 0.71066 0.99535 0.0
C1981 C 0.80422 0.71924 0.99678 0.0
C1982 C 0.81884 0.70769 0.98543 0.0
C1983 C 0.77025 0.72286 0.00794 0.0
C1984 C 0.76791 0.74787 0.00578 0.0
C1985 C 0.75765 0.71004 0.02178 0.0
C1986 C 0.75999 0.68398 0.02622 0.0
C1987 C 0.77699 0.67501 0.0347 0.0
C1988 C 0.77916 0.65041 0.03871 0.0
C1989 C 0.76437 0.63461 0.03449 0.0
C1990 C 0.74736 0.64339 0.0263 0.0
C1991 C 0.74513 0.66797 0.02222 0.0
H1992 H 0.76608 0.61557 0.03761 0.0
H1993 H 0.74569 0.85516 1.00287 0.0
H1994 H 0.29867 0.18339 0.56005 0.0
H1995 H 0.27431 0.20526 0.53992 0.0
H1996 H 0.30063 0.27246 0.5575 0.0
H1997 H 0.32566 0.25048 0.5765 0.0
H1998 H 0.24825 0.23367 0.54748 0.0
H1999 H 0.293 0.31572 0.51999 0.0
H2000 H 0.32598 0.32504 0.51117 0.0
H2001 H 0.33585 0.25109 0.49437 0.0
H2002 H 0.30288 0.24141 0.50276 0.0
H2003 H 0.18458 0.31779 0.50225 0.0
H2004 H 0.20921 0.29825 0.52399 0.0
H2005 H 0.24262 0.29022 0.46475 0.0
H2006 H 0.21854 0.31128 0.44335 0.0
H2007 H 0.26524 0.29852 0.49477 0.0
H2008 H 0.2149 0.24241 0.49093 0.0
H2009 H 0.18237 0.22803 0.49475 0.0
H2010 H 0.18455 0.24069 0.56498 0.0
H2011 H 0.21703 0.25547 0.56152 0.0
C2012 C 0.29925 0.20284 0.55971 0.0
C2013 C 0.31422 0.21514 0.56981 0.0
C2014 C 0.28524 0.2154 0.54817 0.0
C2015 C 0.28563 0.24066 0.54666 0.0
C2016 C 0.30015 0.25301 0.55768 0.0
C2017 C 0.31442 0.24041 0.56877 0.0
C2018 C 0.27106 0.25388 0.53333 0.0
C2019 C 0.25204 0.24785 0.53599 0.0
C2020 C 0.27576 0.27206 0.51776 0.0
C2021 C 0.29552 0.27781 0.51224 0.0
C2022 C 0.30219 0.30148 0.51431 0.0
C2023 C 0.32088 0.30682 0.5094 0.0
C2024 C 0.33302 0.28865 0.50229 0.0
C2025 C 0.32646 0.26513 0.49995 0.0
C2026 C 0.30777 0.25971 0.50478 0.0
C2027 C 0.19724 0.31199 0.49391 0.0
C2028 C 0.19955 0.31607 0.47104 0.0
C2029 C 0.21132 0.30057 0.50633 0.0
C2030 C 0.22778 0.29204 0.49608 0.0
C2031 C 0.23017 0.2965 0.47325 0.0
C2032 C 0.21633 0.30853 0.46094 0.0
C2033 C 0.2424 0.27839 0.50899 0.0
C2034 C 0.26144 0.28435 0.50628 0.0
C2035 C 0.23778 0.25938 0.52374 0.0
C2036 C 0.21833 0.25026 0.52593 0.0
C2037 C 0.20841 0.24225 0.50716 0.0
C2038 C 0.18998 0.23402 0.50926 0.0
C2039 C 0.18138 0.23351 0.53008 0.0
C2040 C 0.19122 0.24114 0.54886 0.0
C2041 C 0.20964 0.24942 0.54684 0.0
H2042 H 0.16711 0.22715 0.53167 0.0
H2043 H 0.34749 0.29282 0.49854 0.0
H2044 H 0.82663 0.28698 0.01597 0.0
H2045 H 0.80141 0.26688 0.99586 0.0
H2046 H 0.76188 0.31921 0.02027 0.0
H2047 H 0.7871 0.33942 0.04069 0.0
H2048 H 0.74733 0.2741 0.02218 0.0
H2049 H 0.77831 0.32195 0.96703 0.0
H2050 H 0.80543 0.33681 0.94573 0.0
H2051 H 0.81633 0.26539 0.92196 0.0
H2052 H 0.78942 0.25003 0.94339 0.0
H2053 H 0.67297 0.24581 0.94878 0.0
H2054 H 0.69809 0.26634 0.96866 0.0
H2055 H 0.73837 0.21652 0.94154 0.0
H2056 H 0.71325 0.19613 0.92114 0.0
H2057 H 0.75261 0.26044 0.94108 0.0
H2058 H 0.72204 0.21229 0.99598 0.0
H2059 H 0.69517 0.19685 0.01738 0.0
H2060 H 0.68387 0.26786 0.04191 0.0
H2061 H 0.71051 0.28381 0.02038 0.0
C2062 C 0.81258 0.29429 0.01715 0.0
C2063 C 0.80899 0.31499 0.02994 0.0
C2064 C 0.79814 0.28277 0.0055 0.0
C2065 C 0.7797 0.29164 0.00622 0.0
C2066 C 0.77597 0.31201 0.01934 0.0
C2067 C 0.79044 0.32361 0.03099 0.0
C2068 C 0.7644 0.27971 0.99322 0.0
C2069 C 0.74838 0.27144 0.0044 0.0
C2070 C 0.76588 0.27558 0.97006 0.0
C2071 C 0.78195 0.28481 0.95698 0.0
C2072 C 0.78657 0.30938 0.95739 0.0
C2073 C 0.80189 0.3179 0.94527 0.0
C2074 C 0.81263 0.30204 0.93254 0.0
C2075 C 0.80802 0.27764 0.93185 0.0
C2076 C 0.79272 0.26903 0.94396 0.0
C2077 C 0.68716 0.23919 0.94695 0.0
C2078 C 0.691 0.21918 0.93335 0.0
C2079 C 0.70156 0.25092 0.95848 0.0
C2080 C 0.7202 0.24282 0.957 0.0
C2081 C 0.72415 0.22315 0.94308 0.0
C2082 C 0.70973 0.21145 0.93142 0.0
C2083 C 0.73549 0.25482 0.97003 0.0
C2084 C 0.75153 0.2631 0.95886 0.0
C2085 C 0.73406 0.25885 0.99322 0.0
C2086 C 0.71816 0.24928 0.0064 0.0
C2087 C 0.71375 0.22464 0.00582 0.0
C2088 C 0.69857 0.21579 0.01799 0.0
C2089 C 0.68779 0.23137 0.03096 0.0
C2090 C 0.69222 0.25582 0.03184 0.0
C2091 C 0.70736 0.26477 0.01967 0.0
H2092 H 0.67604 0.22449 0.04035 0.0
H2093 H 0.82449 0.30867 0.92318 0.0
H2094 H 0.17914 0.7167 0.5219 0.0
H2095 H 0.20439 0.73637 0.50147 0.0
H2096 H 0.24333 0.68245 0.5243 0.0
H2097 H 0.2181 0.6627 0.54502 0.0
H2098 H 0.25883 0.72693 0.52642 0.0
H2099 H 0.2257 0.68114 0.47136 0.0
H2100 H 0.19782 0.6678 0.45053 0.0
H2101 H 0.18834 0.74005 0.42805 0.0
H2102 H 0.21602 0.75389 0.44901 0.0
H2103 H 0.33282 0.75366 0.45238 0.0
H2104 H 0.30746 0.73361 0.47222 0.0
H2105 H 0.26787 0.78476 0.44573 0.0
H2106 H 0.29321 0.80459 0.42527 0.0
H2107 H 0.25254 0.74181 0.44559 0.0
H2108 H 0.28523 0.78801 0.50022 0.0
H2109 H 0.31286 0.80208 0.5211 0.0
H2110 H 0.32273 0.73038 0.5448 0.0
H2111 H 0.29532 0.71579 0.52377 0.0
C2112 C 0.19306 0.70897 0.52267 0.0
C2113 C 0.19648 0.68796 0.5351 0.0
C2114 C 0.20753 0.72024 0.51084 0.0
C2115 C 0.22581 0.71078 0.51101 0.0
C2116 C 0.22937 0.69011 0.5238 0.0
C2117 C 0.21488 0.67877 0.53561 0.0
C2118 C 0.24113 0.7224 0.4978 0.0
C2119 C 0.25754 0.72987 0.50869 0.0
C2120 C 0.23937 0.7269 0.47472 0.0
C2121 C 0.22283 0.71858 0.46193 0.0
C2122 C 0.21759 0.69421 0.4621 0.0
C2123 C 0.20184 0.68656 0.45025 0.0
C2124 C 0.19129 0.70308 0.43802 0.0
C2125 C 0.19651 0.72728 0.43755 0.0
C2126 C 0.21224 0.73503 0.4494 0.0
C2127 C 0.31872 0.76066 0.45066 0.0
C2128 C 0.31515 0.78089 0.43724 0.0
C2129 C 0.30419 0.7492 0.46217 0.0
C2130 C 0.28568 0.75786 0.46094 0.0
C2131 C 0.28198 0.7777 0.44711 0.0
C2132 C 0.29652 0.78907 0.4354 0.0
C2133 C 0.2703 0.74634 0.47419 0.0
C2134 C 0.25386 0.73889 0.46332 0.0
C2135 C 0.27199 0.742 0.49732 0.0
C2136 C 0.28832 0.75077 0.51025 0.0
C2137 C 0.29336 0.77521 0.50977 0.0
C2138 C 0.30898 0.78328 0.52164 0.0
C2139 C 0.31957 0.76712 0.53423 0.0
C2140 C 0.31453 0.74287 0.53502 0.0
C2141 C 0.29894 0.73469 0.52314 0.0
H2142 H 0.33166 0.7734 0.54339 0.0
H2143 H 0.17909 0.69712 0.42886 0.0
H2144 H 0.12381 0.60639 0.99061 0.0
H2145 H 0.1227 0.56799 0.01086 0.0
H2146 H 0.14462 0.53127 0.95348 0.0
H2147 H 0.14603 0.56916 0.93341 0.0
H2148 H 0.11275 0.50871 0.97274 0.0
H2149 H 0.17311 0.54166 0.99392 0.0
H2150 H 0.19383 0.57278 0.00965 0.0
H2151 H 0.1647 0.56835 0.07184 0.0
H2152 H 0.14363 0.53743 0.05636 0.0
H2153 H 0.13464 0.39365 0.01765 0.0
H2154 H 0.13501 0.43243 0.9982 0.0
H2155 H 0.12899 0.46931 0.06086 0.0
H2156 H 0.12986 0.43094 0.0802 0.0
H2157 H 0.152 0.49283 0.03908 0.0
H2158 H 0.09169 0.46079 0.02011 0.0
H2159 H 0.06931 0.43092 0.00554 0.0
H2160 H 0.09523 0.43505 0.94138 0.0
H2161 H 0.11792 0.46474 0.95564 0.0
C2162 C 0.12845 0.59014 0.98238 0.0
C2163 C 0.13508 0.59093 0.96042 0.0
C2164 C 0.12781 0.56824 0.99395 0.0
C2165 C 0.13356 0.5468 0.98362 0.0
C2166 C 0.14006 0.54757 0.96172 0.0
C2167 C 0.14095 0.56936 0.95033 0.0
C2168 C 0.13299 0.5234 0.99547 0.0
C2169 C 0.1214 0.50511 0.98719 0.0
C2170 C 0.14394 0.51896 0.01457 0.0
C2171 C 0.15667 0.53743 0.0239 0.0
C2172 C 0.17102 0.54747 0.01088 0.0
C2173 C 0.18285 0.56504 0.01977 0.0
C2174 C 0.18054 0.57259 0.04171 0.0
C2175 C 0.16645 0.56252 0.05484 0.0
C2176 C 0.15457 0.54496 0.04602 0.0
C2177 C 0.13341 0.4101 0.02717 0.0
C2178 C 0.13232 0.40929 0.0504 0.0
C2179 C 0.13348 0.43228 0.01607 0.0
C2180 C 0.13174 0.454 0.02797 0.0
C2181 C 0.13046 0.453 0.0512 0.0
C2182 C 0.13093 0.43098 0.06227 0.0
C2183 C 0.13159 0.47784 0.01652 0.0
C2184 C 0.14314 0.49629 0.02479 0.0
C2185 C 0.12029 0.48256 0.99765 0.0
C2186 C 0.10661 0.46481 0.989 0.0
C2187 C 0.09268 0.45521 1.00293 0.0
C2188 C 0.07994 0.43833 0.99472 0.0
C2189 C 0.08088 0.43105 0.97256 0.0
C2190 C 0.09454 0.44069 0.95855 0.0
C2191 C 0.10733 0.45756 0.96667 0.0
H2192 H 0.071 0.41797 0.96625 0.0
H2193 H 0.18971 0.58619 0.04857 0.0
H2194 H 0.86794 0.56852 0.57671 0.0
H2195 H 0.87019 0.53089 0.5562 0.0
H2196 H 0.89147 0.56905 0.49931 0.0
H2197 H 0.8895 0.60711 0.51995 0.0
H2198 H 0.86166 0.53424 0.49042 0.0
H2199 H 0.92142 0.53946 0.52746 0.0
H2200 H 0.94196 0.54506 0.55996 0.0
H2201 H 0.91708 0.48367 0.5915 0.0
H2202 H 0.89618 0.47793 0.55931 0.0
H2203 H 0.88676 0.43355 0.42775 0.0
H2204 H 0.88794 0.47142 0.44795 0.0
H2205 H 0.88071 0.43327 0.50971 0.0
H2206 H 0.88053 0.3949 0.48942 0.0
H2207 H 0.90362 0.46871 0.51627 0.0
H2208 H 0.84349 0.46311 0.4819 0.0
H2209 H 0.82122 0.45684 0.45114 0.0
H2210 H 0.84393 0.51795 0.41695 0.0
H2211 H 0.86655 0.52436 0.44736 0.0
C2212 C 0.87304 0.56906 0.55981 0.0
C2213 C 0.87854 0.59091 0.54997 0.0
C2214 C 0.87439 0.54744 0.54815 0.0
C2215 C 0.88112 0.54714 0.52631 0.0
C2216 C 0.88629 0.56891 0.5162 0.0
C2217 C 0.88519 0.59062 0.52801 0.0
C2218 C 0.88266 0.52396 0.5142 0.0
C2219 C 0.87105 0.52003 0.4958 0.0
C2220 C 0.8944 0.50514 0.5218 0.0
C2221 C 0.90712 0.50839 0.54105 0.0
C2222 C 0.92023 0.52726 0.54139 0.0
C2223 C 0.93195 0.53045 0.55975 0.0
C2224 C 0.9308 0.51476 0.5778 0.0
C2225 C 0.91795 0.49582 0.57751 0.0
C2226 C 0.90617 0.49258 0.55921 0.0
C2227 C 0.88552 0.43319 0.44567 0.0
C2228 C 0.8833 0.41129 0.45701 0.0
C2229 C 0.88609 0.45491 0.45721 0.0
C2230 C 0.88383 0.4554 0.48034 0.0
C2231 C 0.88233 0.43344 0.49185 0.0
C2232 C 0.8822 0.41153 0.48028 0.0
C2233 C 0.88265 0.47888 0.49227 0.0
C2234 C 0.89426 0.48288 0.51074 0.0
C2235 C 0.87062 0.49765 0.48499 0.0
C2236 C 0.85682 0.49409 0.46683 0.0
C2237 C 0.8438 0.47514 0.46776 0.0
C2238 C 0.83112 0.47156 0.45039 0.0
C2239 C 0.83119 0.48695 0.43208 0.0
C2240 C 0.84391 0.50602 0.43113 0.0
C2241 C 0.85665 0.50965 0.44844 0.0
H2242 H 0.82137 0.48414 0.41863 0.0
H2243 H 0.93989 0.51726 0.592 0.0
H2244 H 0.84056 0.39923 0.02048 0.0
H2245 H 0.84026 0.4391 1.00313 0.0
H2246 H 0.88475 0.46188 0.04694 0.0
H2247 H 0.8842 0.42275 0.06509 0.0
H2248 H 0.86327 0.49658 0.0439 0.0
H2249 H 0.89066 0.44563 0.98901 0.0
H2250 H 0.89268 0.4107 0.96392 0.0
H2251 H 0.8432 0.43442 0.92968 0.0
H2252 H 0.84072 0.46931 0.95481 0.0
H2253 H 0.8889 0.57755 0.94101 0.0
H2254 H 0.88756 0.53874 0.95969 0.0
H2255 H 0.84354 0.56541 1.00226 0.0
H2256 H 0.84574 0.60491 0.98436 0.0
H2257 H 0.8643 0.50601 0.96214 0.0
H2258 H 0.84155 0.5353 0.0506 0.0
H2259 H 0.84544 0.56983 0.07589 0.0
H2260 H 0.89669 0.58905 0.04306 0.0
H2261 H 0.89324 0.55445 0.0178 0.0
C2262 C 0.85029 0.41278 0.02631 0.0
C2263 C 0.86242 0.40783 0.0441 0.0
C2264 C 0.85018 0.43558 0.01633 0.0
C2265 C 0.86268 0.45365 0.02342 0.0
C2266 C 0.87487 0.44851 0.04114 0.0
C2267 C 0.87462 0.42601 0.05146 0.0
C2268 C 0.86319 0.47788 0.01256 0.0
C2269 C 0.86349 0.49857 0.026 0.0
C2270 C 0.86387 0.48077 0.9892 0.0
C2271 C 0.8654 0.45994 0.97394 0.0
C2272 C 0.88015 0.44331 0.97622 0.0
C2273 C 0.88138 0.42353 0.96199 0.0
C2274 C 0.86805 0.42031 0.94525 0.0
C2275 C 0.85349 0.43692 0.94268 0.0
C2276 C 0.85217 0.4567 0.9569 0.0
C2277 C 0.87906 0.57522 0.95452 0.0
C2278 C 0.86751 0.59434 0.96133 0.0
C2279 C 0.87821 0.55291 0.96514 0.0
C2280 C 0.86553 0.54892 0.9826 0.0
C2281 C 0.8538 0.568 0.98926 0.0
C2282 C 0.855 0.5906 0.97898 0.0
C2283 C 0.86461 0.52471 0.99348 0.0
C2284 C 0.86409 0.50403 0.98004 0.0
C2285 C 0.86467 0.52179 0.01684 0.0
C2286 C 0.867 0.54245 0.03216 0.0
C2287 C 0.85367 0.54685 0.04885 0.0
C2288 C 0.8558 0.56644 0.06317 0.0
C2289 C 0.87126 0.58167 0.06103 0.0
C2290 C 0.88468 0.57729 0.04465 0.0
C2291 C 0.88264 0.5577 0.03032 0.0
H2292 H 0.87287 0.59684 0.07211 0.0
H2293 H 0.86902 0.40499 0.93425 0.0
H2294 H 0.1443 0.43347 0.43141 0.0
H2295 H 0.14438 0.47172 0.45072 0.0
H2296 H 0.14607 0.4349 0.51362 0.0
H2297 H 0.14598 0.39597 0.49428 0.0
H2298 H 0.12036 0.47312 0.51267 0.0
H2299 H 0.18504 0.4601 0.49408 0.0
H2300 H 0.21111 0.45032 0.46879 0.0
H2301 H 0.19781 0.5119 0.42879 0.0
H2302 H 0.17145 0.52183 0.45364 0.0
H2303 H 0.14202 0.57385 0.57771 0.0
H2304 H 0.14277 0.53533 0.55898 0.0
H2305 H 0.14753 0.57116 0.49578 0.0
H2306 H 0.14753 0.6103 0.51466 0.0
H2307 H 0.17006 0.53312 0.49687 0.0
H2308 H 0.10551 0.5463 0.51401 0.0
H2309 H 0.07858 0.5563 0.53793 0.0
H2310 H 0.09044 0.49505 0.57898 0.0
H2311 H 0.11762 0.48487 0.5555 0.0
C2312 C 0.14479 0.43326 0.44936 0.0
C2313 C 0.14535 0.41142 0.46123 0.0
C2314 C 0.14484 0.45531 0.46039 0.0
C2315 C 0.14549 0.45625 0.4836 0.0
C2316 C 0.14566 0.43459 0.49565 0.0
C2317 C 0.14568 0.41236 0.48458 0.0
C2318 C 0.14601 0.47998 0.49504 0.0
C2319 C 0.13139 0.4861 0.50953 0.0
C2320 C 0.16007 0.49724 0.49034 0.0
C2321 C 0.17617 0.4916 0.47564 0.0
C2322 C 0.1876 0.47148 0.47982 0.0
C2323 C 0.20243 0.46591 0.46557 0.0
C2324 C 0.20609 0.48045 0.44717 0.0
C2325 C 0.19495 0.50064 0.44304 0.0
C2326 C 0.18007 0.50627 0.45721 0.0
C2327 C 0.14335 0.57376 0.55982 0.0
C2328 C 0.14474 0.59539 0.54774 0.0
C2329 C 0.14362 0.55155 0.54909 0.0
C2330 C 0.14484 0.55021 0.5259 0.0
C2331 C 0.1465 0.57169 0.5137 0.0
C2332 C 0.14644 0.59407 0.52451 0.0
C2333 C 0.14441 0.52633 0.51462 0.0
C2334 C 0.15903 0.52017 0.5001 0.0
C2335 C 0.13024 0.5091 0.51913 0.0
C2336 C 0.11371 0.51494 0.53309 0.0
C2337 C 0.10245 0.53503 0.52822 0.0
C2338 C 0.08713 0.54073 0.54169 0.0
C2339 C 0.08283 0.52635 0.56 0.0
C2340 C 0.0938 0.50619 0.56481 0.0
C2341 C 0.10915 0.50043 0.55141 0.0
H2342 H 0.07098 0.53081 0.57043 0.0
H2343 H 0.21756 0.47609 0.43613 0.0
H2344 H 0.63208 0.1102 0.99036 0.0
H2345 H 0.63281 0.07231 0.01158 0.0
H2346 H 0.63313 0.03207 0.95047 0.0
H2347 H 0.63292 0.06947 0.92934 0.0
H2348 H 0.60583 0.01661 0.98501 0.0
H2349 H 0.67158 0.03539 0.97292 0.0
H2350 H 0.69941 0.06152 0.97534 0.0
H2351 H 0.69428 0.06349 0.0463 0.0
H2352 H 0.66621 0.03765 0.04425 0.0
H2353 H 0.62743 0.8979 0.01856 0.0
H2354 H 0.62686 0.93675 0.99944 0.0
H2355 H 0.64556 0.97187 0.05933 0.0
H2356 H 0.64689 0.93317 0.07815 0.0
H2357 H 0.66246 0.99154 0.02688 0.0
H2358 H 0.59836 0.97261 0.04097 0.0
H2359 H 0.56958 0.9481 0.04054 0.0
H2360 H 0.56973 0.94849 0.9693 0.0
H2361 H 0.59868 0.97274 0.9693 0.0
C2362 C 0.63231 0.09325 0.98152 0.0
C2363 C 0.63259 0.09282 0.95821 0.0
C2364 C 0.63273 0.07167 0.99362 0.0
C2365 C 0.63302 0.04943 0.98254 0.0
C2366 C 0.63289 0.04903 0.95931 0.0
C2367 C 0.63289 0.07046 0.94728 0.0
C2368 C 0.63376 0.0264 0.99494 0.0
C2369 C 0.61823 0.01099 0.99407 0.0
C2370 C 0.64977 0.01943 0.00717 0.0
C2371 C 0.66667 0.03486 0.00841 0.0
C2372 C 0.67627 0.0416 0.98902 0.0
C2373 C 0.69211 0.05631 0.99032 0.0
C2374 C 0.69857 0.06423 0.01095 0.0
C2375 C 0.68923 0.05739 0.03032 0.0
C2376 C 0.67337 0.04271 0.0291 0.0
C2377 C 0.63152 0.91389 0.02759 0.0
C2378 C 0.63714 0.91239 0.0499 0.0
C2379 C 0.63107 0.93616 0.0167 0.0
C2380 C 0.63582 0.95744 0.02803 0.0
C2381 C 0.6418 0.95582 0.05017 0.0
C2382 C 0.64253 0.9336 0.06094 0.0
C2383 C 0.6345 0.9814 0.01696 0.0
C2384 C 0.64994 0.99707 0.01802 0.0
C2385 C 0.61824 0.9888 0.00523 0.0
C2386 C 0.60079 0.97429 0.00514 0.0
C2387 C 0.59233 0.96732 0.02521 0.0
C2388 C 0.57598 0.9535 0.02504 0.0
C2389 C 0.56786 0.94669 0.0049 0.0
C2390 C 0.57605 0.95375 0.98489 0.0
C2391 C 0.59242 0.96755 0.98496 0.0
H2392 H 0.55519 0.93599 0.00481 0.0
H2393 H 0.71084 0.07561 0.01193 0.0
H2394 H 0.38108 0.89627 0.49061 0.0
H2395 H 0.38019 0.93495 0.51022 0.0
H2396 H 0.35681 0.96885 0.45212 0.0
H2397 H 0.35742 0.93052 0.43257 0.0
H2398 H 0.38761 0.99368 0.47016 0.0
H2399 H 0.32913 0.95862 0.4942 0.0
H2400 H 0.30948 0.92702 0.51096 0.0
H2401 H 0.33995 0.93337 0.57214 0.0
H2402 H 0.35997 0.96479 0.55563 0.0
H2403 H 0.36766 0.10805 0.51774 0.0
H2404 H 0.36567 0.06963 0.49789 0.0
H2405 H 0.37562 0.03161 0.55925 0.0
H2406 H 0.37653 0.06964 0.57913 0.0
H2407 H 0.35104 0.00854 0.53874 0.0
H2408 H 0.41038 0.04121 0.51624 0.0
H2409 H 0.43187 0.07145 0.50053 0.0
H2410 H 0.40274 0.06812 0.43825 0.0
H2411 H 0.38092 0.03806 0.45368 0.0
C2412 C 0.3756 0.91191 0.48209 0.0
C2413 C 0.36933 0.91023 0.46001 0.0
C2414 C 0.37509 0.93399 0.49331 0.0
C2415 C 0.36845 0.95478 0.48259 0.0
C2416 C 0.36204 0.95307 0.46067 0.0
C2417 C 0.36233 0.93105 0.44956 0.0
C2418 C 0.36852 0.97848 0.49396 0.0
C2419 C 0.37946 0.99707 0.48503 0.0
C2420 C 0.35827 0.98266 0.51364 0.0
C2421 C 0.34616 0.96389 0.52361 0.0
C2422 C 0.33174 0.95314 0.51117 0.0
C2423 C 0.32052 0.93529 0.52063 0.0
C2424 C 0.3235 0.92815 0.54258 0.0
C2425 C 0.33767 0.9389 0.55513 0.0
C2426 C 0.34895 0.95674 0.54574 0.0
C2427 C 0.36937 0.09145 0.52692 0.0
C2428 C 0.37221 0.09188 0.54998 0.0
C2429 C 0.36836 0.06947 0.51557 0.0
C2430 C 0.37079 0.04755 0.52695 0.0
C2431 C 0.37361 0.04812 0.55 0.0
C2432 C 0.37417 0.06995 0.56138 0.0
C2433 C 0.37033 0.02395 0.51513 0.0
C2434 C 0.35926 0.0053 0.52391 0.0
C2435 C 0.38077 0.01957 0.49552 0.0
C2436 C 0.3939 0.03758 0.48619 0.0
C2437 C 0.40848 0.04705 0.49924 0.0
C2438 C 0.42073 0.06414 0.49038 0.0
C2439 C 0.41864 0.07176 0.46843 0.0
C2440 C 0.40432 0.06224 0.45526 0.0
C2441 C 0.39202 0.04516 0.46405 0.0
H2442 H 0.42813 0.08499 0.4616 0.0
H2443 H 0.31479 0.91432 0.54988 0.0
H2444 H 0.36188 0.89702 0.01695 0.0
H2445 H 0.36084 0.93621 0.99835 0.0
H2446 H 0.36262 0.97186 0.06183 0.0
H2447 H 0.36366 0.93309 0.08049 0.0
H2448 H 0.33706 0.99285 0.03424 0.0
H2449 H 0.40156 0.96733 0.03084 0.0
H2450 H 0.42716 0.93919 0.02176 0.0
H2451 H 0.41234 0.94264 0.95277 0.0
H2452 H 0.38645 0.97053 0.9615 0.0
H2453 H 0.36061 0.11102 0.99704 0.0
H2454 H 0.36041 0.072 0.01596 0.0
H2455 H 0.36425 0.03588 0.9528 0.0
H2456 H 0.36504 0.07444 0.93394 0.0
H2457 H 0.38676 0.01493 0.98047 0.0
H2458 H 0.32239 0.03994 0.98309 0.0
H2459 H 0.29613 0.06728 0.99158 0.0
H2460 H 0.30979 0.06415 0.06091 0.0
H2461 H 0.33632 0.03704 0.05279 0.0
C2462 C 0.36192 0.91318 0.02697 0.0
C2463 C 0.36283 0.91175 0.05027 0.0
C2464 C 0.3614 0.9356 0.0163 0.0
C2465 C 0.36177 0.95703 0.02869 0.0
C2466 C 0.36227 0.95562 0.0519 0.0
C2467 C 0.3629 0.93332 0.06255 0.0
C2468 C 0.36212 0.98098 0.0176 0.0
C2469 C 0.34803 0.99778 0.02264 0.0
C2470 C 0.37623 0.98731 1.00217 0.0
C2471 C 0.39195 0.97082 0.99686 0.0
C2472 C 0.40368 0.96196 0.01376 0.0
C2473 C 0.41825 0.94607 0.00867 0.0
C2474 C 0.42134 0.93908 0.98671 0.0
C2475 C 0.40991 0.94804 0.96978 0.0
C2476 C 0.39529 0.9639 0.97478 0.0
C2477 C 0.36137 0.09477 0.98718 0.0
C2478 C 0.36269 0.09602 0.96391 0.0
C2479 C 0.36119 0.07242 0.99802 0.0
C2480 C 0.36209 0.05086 0.98582 0.0
C2481 C 0.36355 0.05215 0.96265 0.0
C2482 C 0.36388 0.07436 0.95185 0.0
C2483 C 0.36163 0.02689 0.99699 0.0
C2484 C 0.37574 0.01006 0.99201 0.0
C2485 C 0.34746 0.02048 0.01236 0.0
C2486 C 0.33145 0.03666 0.01731 0.0
C2487 C 0.31988 0.04522 1.00013 0.0
C2488 C 0.30493 0.06065 0.00488 0.0
C2489 C 0.30132 0.0675 0.02676 0.0
C2490 C 0.31262 0.05886 0.04396 0.0
C2491 C 0.32761 0.04345 0.0393 0.0
H2492 H 0.28975 0.07945 0.03041 0.0
H2493 H 0.43262 0.92676 0.9828 0.0
H2494 H 0.64339 0.07442 0.56941 0.0
H2495 H 0.64468 0.03602 0.55042 0.0
H2496 H 0.65065 0.07231 0.48765 0.0
H2497 H 0.64967 0.11144 0.50672 0.0
H2498 H 0.62343 0.03294 0.48858 0.0
H2499 H 0.68775 0.04832 0.50796 0.0
H2500 H 0.71305 0.05974 0.53376 0.0
H2501 H 0.70014 0.99907 0.57504 0.0
H2502 H 0.67452 0.98753 0.54969 0.0
H2503 H 0.64674 0.92914 0.4279 0.0
H2504 H 0.64769 0.96878 0.44478 0.0
H2505 H 0.65043 0.93656 0.50977 0.0
H2506 H 0.64975 0.8964 0.49291 0.0
H2507 H 0.67391 0.97468 0.50688 0.0
H2508 H 0.60965 0.95978 0.49102 0.0
H2509 H 0.58249 0.94791 0.46826 0.0
H2510 H 0.59317 0.0065 0.42363 0.0
H2511 H 0.6206 0.01853 0.446 0.0
C2512 C 0.64512 0.0745 0.55157 0.0
C2513 C 0.64668 0.09624 0.53968 0.0
C2514 C 0.64582 0.05237 0.54073 0.0
C2515 C 0.64795 0.05124 0.51766 0.0
C2516 C 0.64907 0.07279 0.50552 0.0
C2517 C 0.64858 0.09512 0.51644 0.0
C2518 C 0.64912 0.02737 0.50659 0.0
C2519 C 0.63467 0.02037 0.49219 0.0
C2520 C 0.66338 0.01063 0.51203 0.0
C2521 C 0.67911 0.01716 0.527 0.0
C2522 C 0.69023 0.03749 0.52261 0.0
C2523 C 0.70463 0.04399 0.53715 0.0
C2524 C 0.70817 0.03017 0.55605 0.0
C2525 C 0.69737 0.00977 0.5604 0.0
C2526 C 0.68291 0.00323 0.54594 0.0
C2527 C 0.64766 0.93029 0.4458 0.0
C2528 C 0.64811 0.90938 0.45901 0.0
C2529 C 0.64811 0.95311 0.45544 0.0
C2530 C 0.64885 0.95575 0.47857 0.0
C2531 C 0.64981 0.935 0.49187 0.0
C2532 C 0.64939 0.91203 0.4822 0.0
C2533 C 0.64827 0.98023 0.48869 0.0
C2534 C 0.66277 0.9873 0.50303 0.0
C2535 C 0.63387 0.99692 0.48349 0.0
C2536 C 0.6173 0.98991 0.47006 0.0
C2537 C 0.6063 0.97003 0.47626 0.0
C2538 C 0.59084 0.96329 0.46344 0.0
C2539 C 0.58613 0.9764 0.44447 0.0
C2540 C 0.59685 0.99634 0.43832 0.0
C2541 C 0.61235 0.00315 0.45108 0.0
H2542 H 0.57416 0.97115 0.43456 0.0
H2543 H 0.71931 0.03525 0.56731 0.0
loop_
_geom_bond_atom_site_label_1
_geom_bond_atom_site_label_2
_geom_bond_distance
_geom_bond_site_symmetry_2
_ccdc_geom_bond_type
Co0 O2 2.143 . S
Co0 O8 2.074 . S
Co0 O11 2.093 . S
Co0 O24 2.097 . S
Co0 N41 2.151 . S
Co0 N49 2.214 . S
Co1 O2 2.160 . S
Co1 O7 2.058 . S
Co1 O17 2.057 . S
Co1 O32 2.037 . S
Co1 N36 2.145 . S
Co1 N57 2.257 . S
O2 Co0 2.143 . S
O2 Co1 2.160 . S
C3 O4 1.278 . S
C3 O11 1.224 . S
O4 C3 1.278 . S
C5 O6 1.245 . S
C5 O17 1.232 . S
O6 C5 1.245 . S
O7 Co1 2.058 . S
O7 C33 1.269 . S
O8 Co0 2.074 . S
O8 C33 1.257 . S
H9 C34 0.930 . S
H10 C40 0.930 . S
O11 Co0 2.093 . S
O11 C3 1.224 . S
H12 C44 0.929 . S
H13 C46 0.930 . S
H14 C47 0.930 . S
H15 C45 0.929 . S
H16 C48 0.928 . S
O17 Co1 2.057 . S
O17 C5 1.232 . S
H18 C37 0.929 . S
H19 C38 0.929 . S
H20 C50 0.931 . S
H21 C42 0.929 . S
H22 C51 0.930 . S
H23 C43 0.931 . S
O24 Co0 2.097 . S
O24 C52 1.214 . S
H25 C53 0.891 1_556 S
H26 C54 0.929 . S
H27 C55 0.930 . S
H28 C56 0.929 . S
H29 C58 0.930 . S
H30 C35 0.930 . S
H31 C39 0.930 . S
O32 Co1 2.037 . S
O32 C52 1.234 . S
C33 O7 1.269 . S
C33 O8 1.257 . S
C34 H9 0.930 . S
C34 C37 1.388 . S
C34 C39 1.418 . S
C35 H30 0.930 . S
C35 C38 1.404 . S
C35 C39 1.353 . S
N36 Co1 2.145 . S
N36 C37 1.397 . S
N36 C38 1.334 . S
C37 H18 0.929 . S
C37 C34 1.388 . S
C37 N36 1.397 . S
C38 H19 0.929 . S
C38 C35 1.404 . S
C38 N36 1.334 . S
C39 H31 0.930 . S
C39 C34 1.418 . S
C39 C35 1.353 . S
C40 H10 0.930 . S
C40 N41 1.330 . S
C40 C42 1.446 . S
N41 Co0 2.151 . S
N41 C40 1.330 . S
N41 C45 1.418 . S
C42 H21 0.929 . S
C42 C40 1.446 . S
C42 C43 1.332 . S
C43 H23 0.931 . S
C43 C42 1.332 . S
C43 C44 1.267 . S
C44 H12 0.929 . S
C44 C43 1.267 . S
C44 C45 1.251 . S
C45 H15 0.929 . S
C45 N41 1.418 . S
C45 C44 1.251 . S
C46 H13 0.930 . S
C46 C48 1.406 . S
C46 C51 1.261 . S
C47 H14 0.930 . S
C47 N49 1.325 . S
C47 C50 1.357 . S
C48 H16 0.928 . S
C48 C46 1.406 . S
C48 N49 1.261 . S
N49 Co0 2.214 . S
N49 C47 1.325 . S
N49 C48 1.261 . S
C50 H20 0.931 . S
C50 C47 1.357 . S
C50 C51 1.312 . S
C51 H22 0.930 . S
C51 C46 1.261 . S
C51 C50 1.312 . S
C52 O24 1.214 . S
C52 O32 1.234 . S
C53 H25 0.891 1_554 S
C53 C56 1.380 1_554 S
C53 C58 1.442 . S
C54 H26 0.929 . S
C54 C55 1.390 . S
C54 N57 1.391 . S
C55 H27 0.930 . S
C55 C54 1.390 . S
C55 C56 1.392 1_554 S
C56 H28 0.929 . S
C56 C53 1.380 1_556 S
C56 C55 1.392 1_556 S
N57 Co1 2.257 . S
N57 C54 1.391 . S
N57 C58 1.388 . S
C58 H29 0.930 . S
C58 C53 1.442 . S
C58 N57 1.388 . S
Co59 O61 2.143 . S
Co59 O67 2.074 . S
Co59 O70 2.093 . S
Co59 O83 2.097 . S
Co59 N100 2.151 . S
Co59 N108 2.214 . S
Co60 O61 2.160 . S
Co60 O66 2.058 . S
Co60 O76 2.057 . S
Co60 O91 2.037 . S
Co60 N95 2.145 . S
Co60 N116 2.257 . S
O61 Co59 2.143 . S
O61 Co60 2.160 . S
C62 O63 1.278 . S
C62 O70 1.224 . S
O63 C62 1.278 . S
C64 O65 1.245 . S
C64 O76 1.232 . S
O65 C64 1.245 . S
O66 Co60 2.058 . S
O66 C92 1.269 . S
O67 Co59 2.074 . S
O67 C92 1.257 . S
H68 C93 0.930 . S
H69 C99 0.930 . S
O70 Co59 2.093 . S
O70 C62 1.224 . S
H71 C103 0.929 . S
H72 C105 0.930 . S
H73 C106 0.930 . S
H74 C104 0.929 . S
H75 C107 0.928 . S
O76 Co60 2.057 . S
O76 C64 1.232 . S
H77 C96 0.929 . S
H78 C97 0.929 . S
H79 C109 0.931 . S
H80 C101 0.929 . S
H81 C110 0.930 . S
H82 C102 0.931 . S
O83 Co59 2.097 . S
O83 C111 1.214 . S
H84 C112 0.929 . S
H85 C113 0.929 . S
H86 C114 0.930 . S
H87 C115 0.929 . S
H88 C117 0.930 . S
H89 C94 0.930 . S
H90 C98 0.930 . S
O91 Co60 2.037 . S
O91 C111 1.234 . S
C92 O66 1.269 . S
C92 O67 1.257 . S
C93 H68 0.930 . S
C93 C96 1.388 . S
C93 C98 1.418 . S
C94 H89 0.930 . S
C94 C97 1.404 . S
C94 C98 1.353 . S
N95 Co60 2.145 . S
N95 C96 1.397 . S
N95 C97 1.334 . S
C96 H77 0.929 . S
C96 C93 1.388 . S
C96 N95 1.397 . S
C97 H78 0.929 . S
C97 C94 1.404 . S
C97 N95 1.334 . S
C98 H90 0.930 . S
C98 C93 1.418 . S
C98 C94 1.353 . S
C99 H69 0.930 . S
C99 N100 1.330 . S
C99 C101 1.446 . S
N100 Co59 2.151 . S
N100 C99 1.330 . S
N100 C104 1.418 . S
C101 H80 0.929 . S
C101 C99 1.446 . S
C101 C102 1.332 . S
C102 H82 0.931 . S
C102 C101 1.332 . S
C102 C103 1.267 . S
C103 H71 0.929 . S
C103 C102 1.267 . S
C103 C104 1.251 . S
C104 H74 0.929 . S
C104 N100 1.418 . S
C104 C103 1.251 . S
C105 H72 0.930 . S
C105 C107 1.406 . S
C105 C110 1.261 . S
C106 H73 0.930 . S
C106 N108 1.325 . S
C106 C109 1.357 . S
C107 H75 0.928 . S
C107 C105 1.406 . S
C107 N108 1.261 . S
N108 Co59 2.214 . S
N108 C106 1.325 . S
N108 C107 1.261 . S
C109 H79 0.931 . S
C109 C106 1.357 . S
C109 C110 1.312 . S
C110 H81 0.930 . S
C110 C105 1.261 . S
C110 C109 1.312 . S
C111 O83 1.214 . S
C111 O91 1.234 . S
C112 H84 0.929 . S
C112 C115 1.391 . S
C112 C117 1.391 . S
C113 H85 0.929 . S
C113 C114 1.390 . S
C113 N116 1.391 . S
C114 H86 0.930 . S
C114 C113 1.390 . S
C114 C115 1.392 . S
C115 H87 0.929 . S
C115 C112 1.391 . S
C115 C114 1.392 . S
N116 Co60 2.257 . S
N116 C113 1.391 . S
N116 C117 1.388 . S
C117 H88 0.930 . S
C117 C112 1.391 . S
C117 N116 1.388 . S
Co118 O120 2.143 . S
Co118 O126 2.074 . S
Co118 O129 2.093 . S
Co118 O142 2.097 . S
Co118 N159 2.151 . S
Co118 N167 2.214 . S
Co119 O120 2.160 . S
Co119 O125 2.058 . S
Co119 O135 2.057 . S
Co119 O150 2.037 . S
Co119 N154 2.145 . S
Co119 N175 2.257 . S
O120 Co118 2.143 . S
O120 Co119 2.160 . S
C121 O122 1.278 . S
C121 O129 1.224 . S
O122 C121 1.278 . S
C123 O124 1.245 . S
C123 O135 1.232 . S
O124 C123 1.245 . S
O125 Co119 2.058 . S
O125 C151 1.269 . S
O126 Co118 2.074 . S
O126 C151 1.257 . S
H127 C152 0.930 . S
H128 C158 0.930 . S
O129 Co118 2.093 . S
O129 C121 1.224 . S
H130 C162 0.929 . S
H131 C164 0.930 . S
H132 C165 0.930 . S
H133 C163 0.929 . S
H134 C166 0.928 . S
O135 Co119 2.057 . S
O135 C123 1.232 . S
H136 C155 0.929 . S
H137 C156 0.929 . S
H138 C168 0.931 . S
H139 C160 0.929 . S
H140 C169 0.930 . S
H141 C161 0.931 . S
O142 Co118 2.097 . S
O142 C170 1.214 . S
H143 C171 0.891 1_554 S
H144 C172 0.929 . S
H145 C173 0.930 . S
H146 C174 0.929 . S
H147 C176 0.930 . S
H148 C153 0.930 . S
H149 C157 0.930 . S
O150 Co119 2.037 . S
O150 C170 1.234 . S
C151 O125 1.269 . S
C151 O126 1.257 . S
C152 H127 0.930 . S
C152 C155 1.388 . S
C152 C157 1.418 . S
C153 H148 0.930 . S
C153 C156 1.404 . S
C153 C157 1.353 . S
N154 Co119 2.145 . S
N154 C155 1.397 . S
N154 C156 1.334 . S
C155 H136 0.929 . S
C155 C152 1.388 . S
C155 N154 1.397 . S
C156 H137 0.929 . S
C156 C153 1.404 . S
C156 N154 1.334 . S
C157 H149 0.930 . S
C157 C152 1.418 . S
C157 C153 1.353 . S
C158 H128 0.930 . S
C158 N159 1.330 . S
C158 C160 1.446 . S
N159 Co118 2.151 . S
N159 C158 1.330 . S
N159 C163 1.418 . S
C160 H139 0.929 . S
C160 C158 1.446 . S
C160 C161 1.332 . S
C161 H141 0.931 . S
C161 C160 1.332 . S
C161 C162 1.267 . S
C162 H130 0.929 . S
C162 C161 1.267 . S
C162 C163 1.251 . S
C163 H133 0.929 . S
C163 N159 1.418 . S
C163 C162 1.251 . S
C164 H131 0.930 . S
C164 C166 1.406 . S
C164 C169 1.261 . S
C165 H132 0.930 . S
C165 N167 1.325 . S
C165 C168 1.357 . S
C166 H134 0.928 . S
C166 C164 1.406 . S
C166 N167 1.261 . S
N167 Co118 2.214 . S
N167 C165 1.325 . S
N167 C166 1.261 . S
C168 H138 0.931 . S
C168 C165 1.357 . S
C168 C169 1.312 . S
C169 H140 0.930 . S
C169 C164 1.261 . S
C169 C168 1.312 . S
C170 O142 1.214 . S
C170 O150 1.234 . S
C171 H143 0.891 1_556 S
C171 C174 1.380 1_556 S
C171 C176 1.442 . S
C172 H144 0.929 . S
C172 C173 1.390 . S
C172 N175 1.391 . S
C173 H145 0.930 . S
C173 C172 1.390 . S
C173 C174 1.392 1_556 S
C174 H146 0.929 . S
C174 C171 1.380 1_554 S
C174 C173 1.392 1_554 S
N175 Co119 2.257 . S
N175 C172 1.391 . S
N175 C176 1.388 . S
C176 H147 0.930 . S
C176 C171 1.442 . S
C176 N175 1.388 . S
Co177 O179 2.143 . S
Co177 O185 2.074 . S
Co177 O188 2.093 . S
Co177 O201 2.097 . S
Co177 N218 2.151 . S
Co177 N226 2.214 . S
Co178 O179 2.160 . S
Co178 O184 2.058 . S
Co178 O194 2.057 . S
Co178 O209 2.037 . S
Co178 N213 2.145 . S
Co178 N234 2.257 . S
O179 Co177 2.143 . S
O179 Co178 2.160 . S
C180 O181 1.278 . S
C180 O188 1.224 . S
O181 C180 1.278 . S
C182 O183 1.245 . S
C182 O194 1.232 . S
O183 C182 1.245 . S
O184 Co178 2.058 . S
O184 C210 1.269 . S
O185 Co177 2.074 . S
O185 C210 1.257 . S
H186 C211 0.930 . S
H187 C217 0.930 . S
O188 Co177 2.093 . S
O188 C180 1.224 . S
H189 C221 0.929 . S
H190 C223 0.930 . S
H191 C224 0.930 . S
H192 C222 0.929 . S
H193 C225 0.928 . S
O194 Co178 2.057 . S
O194 C182 1.232 . S
H195 C214 0.929 . S
H196 C215 0.929 . S
H197 C227 0.931 . S
H198 C219 0.929 . S
H199 C228 0.930 . S
H200 C220 0.931 . S
O201 Co177 2.097 . S
O201 C229 1.214 . S
H202 C230 0.929 . S
H203 C231 0.929 . S
H204 C232 0.930 . S
H205 C233 0.929 . S
H206 C235 0.930 . S
H207 C212 0.930 . S
H208 C216 0.930 . S
O209 Co178 2.037 . S
O209 C229 1.234 . S
C210 O184 1.269 . S
C210 O185 1.257 . S
C211 H186 0.930 . S
C211 C214 1.388 . S
C211 C216 1.418 . S
C212 H207 0.930 . S
C212 C215 1.404 . S
C212 C216 1.353 . S
N213 Co178 2.145 . S
N213 C214 1.397 . S
N213 C215 1.334 . S
C214 H195 0.929 . S
C214 C211 1.388 . S
C214 N213 1.397 . S
C215 H196 0.929 . S
C215 C212 1.404 . S
C215 N213 1.334 . S
C216 H208 0.930 . S
C216 C211 1.418 . S
C216 C212 1.353 . S
C217 H187 0.930 . S
C217 N218 1.330 . S
C217 C219 1.446 . S
N218 Co177 2.151 . S
N218 C217 1.330 . S
N218 C222 1.418 . S
C219 H198 0.929 . S
C219 C217 1.446 . S
C219 C220 1.332 . S
C220 H200 0.931 . S
C220 C219 1.332 . S
C220 C221 1.267 . S
C221 H189 0.929 . S
C221 C220 1.267 . S
C221 C222 1.251 . S
C222 H192 0.929 . S
C222 N218 1.418 . S
C222 C221 1.251 . S
C223 H190 0.930 . S
C223 C225 1.406 . S
C223 C228 1.261 . S
C224 H191 0.930 . S
C224 N226 1.325 . S
C224 C227 1.357 . S
C225 H193 0.928 . S
C225 C223 1.406 . S
C225 N226 1.261 . S
N226 Co177 2.214 . S
N226 C224 1.325 . S
N226 C225 1.261 . S
C227 H197 0.931 . S
C227 C224 1.357 . S
C227 C228 1.312 . S
C228 H199 0.930 . S
C228 C223 1.261 . S
C228 C227 1.312 . S
C229 O201 1.214 . S
C229 O209 1.234 . S
C230 H202 0.929 . S
C230 C233 1.391 . S
C230 C235 1.391 . S
C231 H203 0.929 . S
C231 C232 1.390 . S
C231 N234 1.391 . S
C232 H204 0.930 . S
C232 C231 1.390 . S
C232 C233 1.392 . S
C233 H205 0.929 . S
C233 C230 1.391 . S
C233 C232 1.392 . S
N234 Co178 2.257 . S
N234 C231 1.391 . S
N234 C235 1.388 . S
C235 H206 0.930 . S
C235 C230 1.391 . S
C235 N234 1.388 . S
Co236 O238 2.143 . S
Co236 O244 2.074 . S
Co236 O247 2.093 . S
Co236 O260 2.097 . S
Co236 N277 2.151 . S
Co236 N285 2.214 . S
Co237 O238 2.160 . S
Co237 O243 2.058 . S
Co237 O253 2.057 . S
Co237 O268 2.037 . S
Co237 N272 2.145 . S
Co237 N293 2.257 . S
O238 Co236 2.143 . S
O238 Co237 2.160 . S
C239 O240 1.278 . S
C239 O247 1.224 . S
O240 C239 1.278 . S
C241 O242 1.245 . S
C241 O253 1.232 . S
O242 C241 1.245 . S
O243 Co237 2.058 . S
O243 C269 1.269 . S
O244 Co236 2.074 . S
O244 C269 1.257 . S
H245 C270 0.930 . S
H246 C276 0.930 . S
O247 Co236 2.093 . S
O247 C239 1.224 . S
H248 C280 0.929 . S
H249 C282 0.930 . S
H250 C283 0.930 . S
H251 C281 0.929 . S
H252 C284 0.928 . S
O253 Co237 2.057 . S
O253 C241 1.232 . S
H254 C273 0.929 . S
H255 C274 0.929 . S
H256 C286 0.931 . S
H257 C278 0.929 . S
H258 C287 0.930 . S
H259 C279 0.931 . S
O260 Co236 2.097 . S
O260 C288 1.214 . S
H261 C289 0.929 . S
H262 C290 0.929 . S
H263 C291 0.930 . S
H264 C292 0.929 . S
H265 C294 0.930 . S
H266 C271 0.930 . S
H267 C275 0.930 . S
O268 Co237 2.037 . S
O268 C288 1.234 . S
C269 O243 1.269 . S
C269 O244 1.257 . S
C270 H245 0.930 . S
C270 C273 1.388 1_554 S
C270 C275 1.418 . S
C271 H266 0.930 . S
C271 C274 1.404 1_554 S
C271 C275 1.353 . S
N272 Co237 2.145 . S
N272 C273 1.397 . S
N272 C274 1.334 . S
C273 H254 0.929 . S
C273 C270 1.388 1_556 S
C273 N272 1.397 . S
C274 H255 0.929 . S
C274 C271 1.404 1_556 S
C274 N272 1.334 . S
C275 H267 0.930 . S
C275 C270 1.418 . S
C275 C271 1.353 . S
C276 H246 0.930 . S
C276 N277 1.330 . S
C276 C278 1.446 . S
N277 Co236 2.151 . S
N277 C276 1.330 . S
N277 C281 1.418 . S
C278 H257 0.929 . S
C278 C276 1.446 . S
C278 C279 1.332 . S
C279 H259 0.931 . S
C279 C278 1.332 . S
C279 C280 1.267 . S
C280 H248 0.929 . S
C280 C279 1.267 . S
C280 C281 1.251 . S
C281 H251 0.929 . S
C281 N277 1.418 . S
C281 C280 1.251 . S
C282 H249 0.930 . S
C282 C284 1.406 . S
C282 C287 1.261 . S
C283 H250 0.930 . S
C283 N285 1.325 . S
C283 C286 1.357 . S
C284 H252 0.928 . S
C284 C282 1.406 . S
C284 N285 1.261 . S
N285 Co236 2.214 . S
N285 C283 1.325 . S
N285 C284 1.261 . S
C286 H256 0.931 . S
C286 C283 1.357 . S
C286 C287 1.312 . S
C287 H258 0.930 . S
C287 C282 1.261 . S
C287 C286 1.312 . S
C288 O260 1.214 . S
C288 O268 1.234 . S
C289 H261 0.929 . S
C289 C292 1.391 . S
C289 C294 1.391 . S
C290 H262 0.929 . S
C290 C291 1.390 . S
C290 N293 1.391 . S
C291 H263 0.930 . S
C291 C290 1.390 . S
C291 C292 1.392 . S
C292 H264 0.929 . S
C292 C289 1.391 . S
C292 C291 1.392 . S
N293 Co237 2.257 . S
N293 C290 1.391 . S
N293 C294 1.388 . S
C294 H265 0.930 . S
C294 C289 1.391 . S
C294 N293 1.388 . S
Co295 O297 2.143 . S
Co295 O303 2.074 . S
Co295 O306 2.093 . S
Co295 O319 2.097 . S
Co295 N336 2.151 . S
Co295 N344 2.214 . S
Co296 O297 2.160 . S
Co296 O302 2.058 . S
Co296 O312 2.057 . S
Co296 O327 2.037 . S
Co296 N331 2.145 . S
Co296 N352 2.257 . S
O297 Co295 2.143 . S
O297 Co296 2.160 . S
C298 O299 1.278 . S
C298 O306 1.224 . S
O299 C298 1.278 . S
C300 O301 1.245 . S
C300 O312 1.232 . S
O301 C300 1.245 . S
O302 Co296 2.058 . S
O302 C328 1.269 . S
O303 Co295 2.074 . S
O303 C328 1.257 . S
H304 C329 0.930 . S
H305 C335 0.930 . S
O306 Co295 2.093 . S
O306 C298 1.224 . S
H307 C339 0.929 . S
H308 C341 0.930 . S
H309 C342 0.930 . S
H310 C340 0.929 . S
H311 C343 0.928 . S
O312 Co296 2.057 . S
O312 C300 1.232 . S
H313 C332 0.929 . S
H314 C333 0.929 . S
H315 C345 0.931 . S
H316 C337 0.929 . S
H317 C346 0.930 . S
H318 C338 0.931 . S
O319 Co295 2.097 . S
O319 C347 1.214 . S
H320 C348 0.929 . S
H321 C349 0.929 . S
H322 C350 0.930 . S
H323 C351 0.929 . S
H324 C353 0.930 . S
H325 C330 0.930 . S
H326 C334 0.930 . S
O327 Co296 2.037 . S
O327 C347 1.234 . S
C328 O302 1.269 . S
C328 O303 1.257 . S
C329 H304 0.930 . S
C329 C332 1.388 . S
C329 C334 1.418 . S
C330 H325 0.930 . S
C330 C333 1.404 . S
C330 C334 1.353 . S
N331 Co296 2.145 . S
N331 C332 1.397 . S
N331 C333 1.334 . S
C332 H313 0.929 . S
C332 C329 1.388 . S
C332 N331 1.397 . S
C333 H314 0.929 . S
C333 C330 1.404 . S
C333 N331 1.334 . S
C334 H326 0.930 . S
C334 C329 1.418 . S
C334 C330 1.353 . S
C335 H305 0.930 . S
C335 N336 1.330 . S
C335 C337 1.446 . S
N336 Co295 2.151 . S
N336 C335 1.330 . S
N336 C340 1.418 . S
C337 H316 0.929 . S
C337 C335 1.446 . S
C337 C338 1.332 . S
C338 H318 0.931 . S
C338 C337 1.332 . S
C338 C339 1.267 . S
C339 H307 0.929 . S
C339 C338 1.267 . S
C339 C340 1.251 . S
C340 H310 0.929 . S
C340 N336 1.418 . S
C340 C339 1.251 . S
C341 H308 0.930 . S
C341 C343 1.406 . S
C341 C346 1.261 . S
C342 H309 0.930 . S
C342 N344 1.325 . S
C342 C345 1.357 . S
C343 H311 0.928 . S
C343 C341 1.406 . S
C343 N344 1.261 . S
N344 Co295 2.214 . S
N344 C342 1.325 . S
N344 C343 1.261 . S
C345 H315 0.931 . S
C345 C342 1.357 . S
C345 C346 1.312 . S
C346 H317 0.930 . S
C346 C341 1.261 . S
C346 C345 1.312 . S
C347 O319 1.214 . S
C347 O327 1.234 . S
C348 H320 0.929 . S
C348 C351 1.391 . S
C348 C353 1.391 . S
C349 H321 0.929 . S
C349 C350 1.390 . S
C349 N352 1.391 . S
C350 H322 0.930 . S
C350 C349 1.390 . S
C350 C351 1.392 . S
C351 H323 0.929 . S
C351 C348 1.391 . S
C351 C350 1.392 . S
N352 Co296 2.257 . S
N352 C349 1.391 . S
N352 C353 1.388 . S
C353 H324 0.930 . S
C353 C348 1.391 . S
C353 N352 1.388 . S
Co354 O356 2.143 . S
Co354 O362 2.074 . S
Co354 O365 2.093 . S
Co354 O378 2.097 . S
Co354 N395 2.151 . S
Co354 N403 2.214 . S
Co355 O356 2.160 . S
Co355 O361 2.058 . S
Co355 O371 2.057 . S
Co355 O386 2.037 . S
Co355 N390 2.145 . S
Co355 N411 2.257 . S
O356 Co354 2.143 . S
O356 Co355 2.160 . S
C357 O358 1.278 . S
C357 O365 1.224 . S
O358 C357 1.278 . S
C359 O360 1.245 . S
C359 O371 1.232 . S
O360 C359 1.245 . S
O361 Co355 2.058 . S
O361 C387 1.269 . S
O362 Co354 2.074 . S
O362 C387 1.257 . S
H363 C388 0.930 . S
H364 C394 0.930 . S
O365 Co354 2.093 . S
O365 C357 1.224 . S
H366 C398 0.929 . S
H367 C400 0.930 . S
H368 C401 0.930 . S
H369 C399 0.929 . S
H370 C402 0.928 . S
O371 Co355 2.057 . S
O371 C359 1.232 . S
H372 C391 0.929 . S
H373 C392 0.929 . S
H374 C404 0.931 . S
H375 C396 0.929 . S
H376 C405 0.930 . S
H377 C397 0.931 . S
O378 Co354 2.097 . S
O378 C406 1.214 . S
H379 C407 0.929 . S
H380 C408 0.929 . S
H381 C409 0.930 . S
H382 C410 0.929 . S
H383 C412 0.930 . S
H384 C389 0.930 . S
H385 C393 0.930 . S
O386 Co355 2.037 . S
O386 C406 1.234 . S
C387 O361 1.269 . S
C387 O362 1.257 . S
C388 H363 0.930 . S
C388 C391 1.388 1_556 S
C388 C393 1.418 . S
C389 H384 0.930 . S
C389 C392 1.404 1_556 S
C389 C393 1.353 . S
N390 Co355 2.145 . S
N390 C391 1.397 . S
N390 C392 1.334 . S
C391 H372 0.929 . S
C391 C388 1.388 1_554 S
C391 N390 1.397 . S
C392 H373 0.929 . S
C392 C389 1.404 1_554 S
C392 N390 1.334 . S
C393 H385 0.930 . S
C393 C388 1.418 . S
C393 C389 1.353 . S
C394 H364 0.930 . S
C394 N395 1.330 . S
C394 C396 1.446 . S
N395 Co354 2.151 . S
N395 C394 1.330 . S
N395 C399 1.418 . S
C396 H375 0.929 . S
C396 C394 1.446 . S
C396 C397 1.332 . S
C397 H377 0.931 . S
C397 C396 1.332 . S
C397 C398 1.267 . S
C398 H366 0.929 . S
C398 C397 1.267 . S
C398 C399 1.251 . S
C399 H369 0.929 . S
C399 N395 1.418 . S
C399 C398 1.251 . S
C400 H367 0.930 . S
C400 C402 1.406 . S
C400 C405 1.261 . S
C401 H368 0.930 . S
C401 N403 1.325 . S
C401 C404 1.357 . S
C402 H370 0.928 . S
C402 C400 1.406 . S
C402 N403 1.261 . S
N403 Co354 2.214 . S
N403 C401 1.325 . S
N403 C402 1.261 . S
C404 H374 0.931 . S
C404 C401 1.357 . S
C404 C405 1.312 . S
C405 H376 0.930 . S
C405 C400 1.261 . S
C405 C404 1.312 . S
C406 O378 1.214 . S
C406 O386 1.234 . S
C407 H379 0.929 . S
C407 C410 1.391 . S
C407 C412 1.391 . S
C408 H380 0.929 . S
C408 C409 1.390 . S
C408 N411 1.391 . S
C409 H381 0.930 . S
C409 C408 1.390 . S
C409 C410 1.392 . S
C410 H382 0.929 . S
C410 C407 1.391 . S
C410 C409 1.392 . S
N411 Co355 2.257 . S
N411 C408 1.391 . S
N411 C412 1.388 . S
C412 H383 0.930 . S
C412 C407 1.391 . S
C412 N411 1.388 . S
Co413 O415 2.143 . S
Co413 O421 2.074 . S
Co413 O424 2.093 . S
Co413 O437 2.097 . S
Co413 N454 2.151 . S
Co413 N462 2.214 . S
Co414 O415 2.160 . S
Co414 O420 2.058 . S
Co414 O430 2.057 . S
Co414 O445 2.037 . S
Co414 N449 2.145 . S
Co414 N470 2.257 . S
O415 Co413 2.143 . S
O415 Co414 2.160 . S
C416 O417 1.278 . S
C416 O424 1.224 . S
O417 C416 1.278 . S
C418 O419 1.245 . S
C418 O430 1.232 . S
O419 C418 1.245 . S
O420 Co414 2.058 . S
O420 C446 1.269 . S
O421 Co413 2.074 . S
O421 C446 1.257 . S
H422 C447 0.930 . S
H423 C453 0.930 . S
O424 Co413 2.093 . S
O424 C416 1.224 . S
H425 C457 0.929 . S
H426 C459 0.930 . S
H427 C460 0.930 . S
H428 C458 0.929 . S
H429 C461 0.928 . S
O430 Co414 2.057 . S
O430 C418 1.232 . S
H431 C450 0.929 . S
H432 C451 0.929 . S
H433 C463 0.931 . S
H434 C455 0.929 . S
H435 C464 0.930 . S
H436 C456 0.931 . S
O437 Co413 2.097 . S
O437 C465 1.214 . S
H438 C466 0.929 . S
H439 C467 0.929 . S
H440 C468 0.930 . S
H441 C469 0.929 . S
H442 C471 0.930 . S
H443 C448 0.930 . S
H444 C452 0.930 . S
O445 Co414 2.037 . S
O445 C465 1.234 . S
C446 O420 1.269 . S
C446 O421 1.257 . S
C447 H422 0.930 . S
C447 C450 1.388 . S
C447 C452 1.418 . S
C448 H443 0.930 . S
C448 C451 1.404 . S
C448 C452 1.353 . S
N449 Co414 2.145 . S
N449 C450 1.397 . S
N449 C451 1.334 . S
C450 H431 0.929 . S
C450 C447 1.388 . S
C450 N449 1.397 . S
C451 H432 0.929 . S
C451 C448 1.404 . S
C451 N449 1.334 . S
C452 H444 0.930 . S
C452 C447 1.418 . S
C452 C448 1.353 . S
C453 H423 0.930 . S
C453 N454 1.330 . S
C453 C455 1.446 . S
N454 Co413 2.151 . S
N454 C453 1.330 . S
N454 C458 1.418 . S
C455 H434 0.929 . S
C455 C453 1.446 . S
C455 C456 1.332 . S
C456 H436 0.931 . S
C456 C455 1.332 . S
C456 C457 1.267 . S
C457 H425 0.929 . S
C457 C456 1.267 . S
C457 C458 1.251 . S
C458 H428 0.929 . S
C458 N454 1.418 . S
C458 C457 1.251 . S
C459 H426 0.930 . S
C459 C461 1.406 . S
C459 C464 1.261 . S
C460 H427 0.930 . S
C460 N462 1.325 . S
C460 C463 1.357 . S
C461 H429 0.928 . S
C461 C459 1.406 . S
C461 N462 1.261 . S
N462 Co413 2.214 . S
N462 C460 1.325 . S
N462 C461 1.261 . S
C463 H433 0.931 . S
C463 C460 1.357 . S
C463 C464 1.312 . S
C464 H435 0.930 . S
C464 C459 1.261 . S
C464 C463 1.312 . S
C465 O437 1.214 . S
C465 O445 1.234 . S
C466 H438 0.929 . S
C466 C469 1.391 . S
C466 C471 1.391 . S
C467 H439 0.929 . S
C467 C468 1.390 . S
C467 N470 1.391 . S
C468 H440 0.930 . S
C468 C467 1.390 . S
C468 C469 1.392 . S
C469 H441 0.929 . S
C469 C466 1.391 . S
C469 C468 1.392 . S
N470 Co414 2.257 . S
N470 C467 1.391 . S
N470 C471 1.388 . S
C471 H442 0.930 . S
C471 C466 1.391 . S
C471 N470 1.388 . S
Co472 O474 2.143 . S
Co472 O480 2.074 . S
Co472 O483 2.093 . S
Co472 O496 2.097 . S
Co472 N513 2.151 . S
Co472 N521 2.214 . S
Co473 O474 2.160 . S
Co473 O479 2.058 . S
Co473 O489 2.057 . S
Co473 O504 2.037 . S
Co473 N508 2.145 . S
Co473 N529 2.257 . S
O474 Co472 2.143 . S
O474 Co473 2.160 . S
C475 O476 1.278 . S
C475 O483 1.224 . S
O476 C475 1.278 . S
C477 O478 1.245 . S
C477 O489 1.232 . S
O478 C477 1.245 . S
O479 Co473 2.058 . S
O479 C505 1.269 . S
O480 Co472 2.074 . S
O480 C505 1.257 . S
H481 C506 0.930 . S
H482 C512 0.930 . S
O483 Co472 2.093 . S
O483 C475 1.224 . S
H484 C516 0.929 . S
H485 C518 0.930 . S
H486 C519 0.930 . S
H487 C517 0.929 . S
H488 C520 0.928 . S
O489 Co473 2.057 . S
O489 C477 1.232 . S
H490 C509 0.929 . S
H491 C510 0.929 . S
H492 C522 0.931 . S
H493 C514 0.929 . S
H494 C523 0.930 . S
H495 C515 0.931 . S
O496 Co472 2.097 . S
O496 C524 1.214 . S
H497 C525 0.891 1_556 S
H498 C526 0.929 . S
H499 C527 0.930 . S
H500 C528 0.929 . S
H501 C530 0.930 . S
H502 C507 0.930 . S
H503 C511 0.930 . S
O504 Co473 2.037 . S
O504 C524 1.234 . S
C505 O479 1.269 . S
C505 O480 1.257 . S
C506 H481 0.930 . S
C506 C509 1.388 . S
C506 C511 1.418 . S
C507 H502 0.930 . S
C507 C510 1.404 . S
C507 C511 1.353 . S
N508 Co473 2.145 . S
N508 C509 1.397 . S
N508 C510 1.334 . S
C509 H490 0.929 . S
C509 C506 1.388 . S
C509 N508 1.397 . S
C510 H491 0.929 . S
C510 C507 1.404 . S
C510 N508 1.334 . S
C511 H503 0.930 . S
C511 C506 1.418 . S
C511 C507 1.353 . S
C512 H482 0.930 . S
C512 N513 1.330 . S
C512 C514 1.446 . S
N513 Co472 2.151 . S
N513 C512 1.330 . S
N513 C517 1.418 . S
C514 H493 0.929 . S
C514 C512 1.446 . S
C514 C515 1.332 . S
C515 H495 0.931 . S
C515 C514 1.332 . S
C515 C516 1.267 . S
C516 H484 0.929 . S
C516 C515 1.267 . S
C516 C517 1.251 . S
C517 H487 0.929 . S
C517 N513 1.418 . S
C517 C516 1.251 . S
C518 H485 0.930 . S
C518 C520 1.406 . S
C518 C523 1.261 . S
C519 H486 0.930 . S
C519 N521 1.325 . S
C519 C522 1.357 . S
C520 H488 0.928 . S
C520 C518 1.406 . S
C520 N521 1.261 . S
N521 Co472 2.214 . S
N521 C519 1.325 . S
N521 C520 1.261 . S
C522 H492 0.931 . S
C522 C519 1.357 . S
C522 C523 1.312 . S
C523 H494 0.930 . S
C523 C518 1.261 . S
C523 C522 1.312 . S
C524 O496 1.214 . S
C524 O504 1.234 . S
C525 H497 0.891 1_554 S
C525 C528 1.380 1_554 S
C525 C530 1.442 . S
C526 H498 0.929 . S
C526 C527 1.390 . S
C526 N529 1.391 . S
C527 H499 0.930 . S
C527 C526 1.390 . S
C527 C528 1.392 1_554 S
C528 H500 0.929 . S
C528 C525 1.380 1_556 S
C528 C527 1.392 1_556 S
N529 Co473 2.257 . S
N529 C526 1.391 . S
N529 C530 1.388 . S
C530 H501 0.930 . S
C530 C525 1.442 . S
C530 N529 1.388 . S
Co531 O533 2.143 . S
Co531 O539 2.074 . S
Co531 O542 2.093 . S
Co531 O555 2.097 . S
Co531 N572 2.151 . S
Co531 N580 2.214 . S
Co532 O533 2.160 . S
Co532 O538 2.058 . S
Co532 O548 2.057 . S
Co532 O563 2.037 . S
Co532 N567 2.145 . S
Co532 N588 2.257 . S
O533 Co531 2.143 . S
O533 Co532 2.160 . S
C534 O535 1.278 . S
C534 O542 1.224 . S
O535 C534 1.278 . S
C536 O537 1.245 . S
C536 O548 1.232 . S
O537 C536 1.245 . S
O538 Co532 2.058 . S
O538 C564 1.269 . S
O539 Co531 2.074 . S
O539 C564 1.257 . S
H540 C565 0.930 . S
H541 C571 0.930 . S
O542 Co531 2.093 . S
O542 C534 1.224 . S
H543 C575 0.929 . S
H544 C577 0.930 . S
H545 C578 0.930 . S
H546 C576 0.929 . S
H547 C579 0.928 . S
O548 Co532 2.057 . S
O548 C536 1.232 . S
H549 C568 0.929 . S
H550 C569 0.929 . S
H551 C581 0.931 . S
H552 C573 0.929 . S
H553 C582 0.930 . S
H554 C574 0.931 . S
O555 Co531 2.097 . S
O555 C583 1.214 . S
H556 C584 0.929 . S
H557 C585 0.929 . S
H558 C586 0.930 . S
H559 C587 0.929 . S
H560 C589 0.930 . S
H561 C566 0.930 . S
H562 C570 0.930 . S
O563 Co532 2.037 . S
O563 C583 1.234 . S
C564 O538 1.269 . S
C564 O539 1.257 . S
C565 H540 0.930 . S
C565 C568 1.388 . S
C565 C570 1.418 . S
C566 H561 0.930 . S
C566 C569 1.404 . S
C566 C570 1.353 . S
N567 Co532 2.145 . S
N567 C568 1.397 . S
N567 C569 1.334 . S
C568 H549 0.929 . S
C568 C565 1.388 . S
C568 N567 1.397 . S
C569 H550 0.929 . S
C569 C566 1.404 . S
C569 N567 1.334 . S
C570 H562 0.930 . S
C570 C565 1.418 . S
C570 C566 1.353 . S
C571 H541 0.930 . S
C571 N572 1.330 . S
C571 C573 1.446 . S
N572 Co531 2.151 . S
N572 C571 1.330 . S
N572 C576 1.418 . S
C573 H552 0.929 . S
C573 C571 1.446 . S
C573 C574 1.332 . S
C574 H554 0.931 . S
C574 C573 1.332 . S
C574 C575 1.267 . S
C575 H543 0.929 . S
C575 C574 1.267 . S
C575 C576 1.251 . S
C576 H546 0.929 . S
C576 N572 1.418 . S
C576 C575 1.251 . S
C577 H544 0.930 . S
C577 C579 1.406 . S
C577 C582 1.261 . S
C578 H545 0.930 . S
C578 N580 1.325 . S
C578 C581 1.357 . S
C579 H547 0.928 . S
C579 C577 1.406 . S
C579 N580 1.261 . S
N580 Co531 2.214 . S
N580 C578 1.325 . S
N580 C579 1.261 . S
C581 H551 0.931 . S
C581 C578 1.357 . S
C581 C582 1.312 . S
C582 H553 0.930 . S
C582 C577 1.261 . S
C582 C581 1.312 . S
C583 O555 1.214 . S
C583 O563 1.234 . S
C584 H556 0.929 . S
C584 C587 1.391 . S
C584 C589 1.391 . S
C585 H557 0.929 . S
C585 C586 1.390 . S
C585 N588 1.391 . S
C586 H558 0.930 . S
C586 C585 1.390 . S
C586 C587 1.392 . S
C587 H559 0.929 . S
C587 C584 1.391 . S
C587 C586 1.392 . S
N588 Co532 2.257 . S
N588 C585 1.391 . S
N588 C589 1.388 . S
C589 H560 0.930 . S
C589 C584 1.391 . S
C589 N588 1.388 . S
Co590 O592 2.143 . S
Co590 O598 2.074 . S
Co590 O601 2.093 . S
Co590 O614 2.097 . S
Co590 N631 2.151 . S
Co590 N639 2.214 . S
Co591 O592 2.160 . S
Co591 O597 2.058 . S
Co591 O607 2.057 . S
Co591 O622 2.037 . S
Co591 N626 2.145 . S
Co591 N647 2.257 . S
O592 Co590 2.143 . S
O592 Co591 2.160 . S
C593 O594 1.278 . S
C593 O601 1.224 . S
O594 C593 1.278 . S
C595 O596 1.245 . S
C595 O607 1.232 . S
O596 C595 1.245 . S
O597 Co591 2.058 . S
O597 C623 1.269 . S
O598 Co590 2.074 . S
O598 C623 1.257 . S
H599 C624 0.930 . S
H600 C630 0.930 . S
O601 Co590 2.093 . S
O601 C593 1.224 . S
H602 C634 0.929 . S
H603 C636 0.930 . S
H604 C637 0.930 . S
H605 C635 0.929 . S
H606 C638 0.928 . S
O607 Co591 2.057 . S
O607 C595 1.232 . S
H608 C627 0.929 . S
H609 C628 0.929 . S
H610 C640 0.931 . S
H611 C632 0.929 . S
H612 C641 0.930 . S
H613 C633 0.931 . S
O614 Co590 2.097 . S
O614 C642 1.214 . S
H615 C643 0.891 1_554 S
H616 C644 0.929 . S
H617 C645 0.930 . S
H618 C646 0.929 . S
H619 C648 0.930 . S
H620 C625 0.930 . S
H621 C629 0.930 . S
O622 Co591 2.037 . S
O622 C642 1.234 . S
C623 O597 1.269 . S
C623 O598 1.257 . S
C624 H599 0.930 . S
C624 C627 1.388 . S
C624 C629 1.418 . S
C625 H620 0.930 . S
C625 C628 1.404 . S
C625 C629 1.353 . S
N626 Co591 2.145 . S
N626 C627 1.397 . S
N626 C628 1.334 . S
C627 H608 0.929 . S
C627 C624 1.388 . S
C627 N626 1.397 . S
C628 H609 0.929 . S
C628 C625 1.404 . S
C628 N626 1.334 . S
C629 H621 0.930 . S
C629 C624 1.418 . S
C629 C625 1.353 . S
C630 H600 0.930 . S
C630 N631 1.330 . S
C630 C632 1.446 . S
N631 Co590 2.151 . S
N631 C630 1.330 . S
N631 C635 1.418 . S
C632 H611 0.929 . S
C632 C630 1.446 . S
C632 C633 1.332 . S
C633 H613 0.931 . S
C633 C632 1.332 . S
C633 C634 1.267 . S
C634 H602 0.929 . S
C634 C633 1.267 . S
C634 C635 1.251 . S
C635 H605 0.929 . S
C635 N631 1.418 . S
C635 C634 1.251 . S
C636 H603 0.930 . S
C636 C638 1.406 . S
C636 C641 1.261 . S
C637 H604 0.930 . S
C637 N639 1.325 . S
C637 C640 1.357 . S
C638 H606 0.928 . S
C638 C636 1.406 . S
C638 N639 1.261 . S
N639 Co590 2.214 . S
N639 C637 1.325 . S
N639 C638 1.261 . S
C640 H610 0.931 . S
C640 C637 1.357 . S
C640 C641 1.312 . S
C641 H612 0.930 . S
C641 C636 1.261 . S
C641 C640 1.312 . S
C642 O614 1.214 . S
C642 O622 1.234 . S
C643 H615 0.891 1_556 S
C643 C646 1.380 1_556 S
C643 C648 1.442 . S
C644 H616 0.929 . S
C644 C645 1.390 . S
C644 N647 1.391 . S
C645 H617 0.930 . S
C645 C644 1.390 . S
C645 C646 1.392 1_556 S
C646 H618 0.929 . S
C646 C643 1.380 1_554 S
C646 C645 1.392 1_554 S
N647 Co591 2.257 . S
N647 C644 1.391 . S
N647 C648 1.388 . S
C648 H619 0.930 . S
C648 C643 1.442 . S
C648 N647 1.388 . S
Co649 O651 2.143 . S
Co649 O657 2.074 . S
Co649 O660 2.093 . S
Co649 O673 2.097 . S
Co649 N690 2.151 . S
Co649 N698 2.214 . S
Co650 O651 2.160 . S
Co650 O656 2.058 . S
Co650 O666 2.057 . S
Co650 O681 2.037 . S
Co650 N685 2.145 . S
Co650 N706 2.257 . S
O651 Co649 2.143 . S
O651 Co650 2.160 . S
C652 O653 1.278 . S
C652 O660 1.224 . S
O653 C652 1.278 . S
C654 O655 1.245 . S
C654 O666 1.232 . S
O655 C654 1.245 . S
O656 Co650 2.058 . S
O656 C682 1.269 . S
O657 Co649 2.074 . S
O657 C682 1.257 . S
H658 C683 0.930 . S
H659 C689 0.930 . S
O660 Co649 2.093 . S
O660 C652 1.224 . S
H661 C693 0.929 . S
H662 C695 0.930 . S
H663 C696 0.930 . S
H664 C694 0.929 . S
H665 C697 0.928 . S
O666 Co650 2.057 . S
O666 C654 1.232 . S
H667 C686 0.929 . S
H668 C687 0.929 . S
H669 C699 0.931 . S
H670 C691 0.929 . S
H671 C700 0.930 . S
H672 C692 0.931 . S
O673 Co649 2.097 . S
O673 C701 1.214 . S
H674 C702 0.929 . S
H675 C703 0.929 . S
H676 C704 0.930 . S
H677 C705 0.929 . S
H678 C707 0.930 . S
H679 C684 0.930 . S
H680 C688 0.930 . S
O681 Co650 2.037 . S
O681 C701 1.234 . S
C682 O656 1.269 . S
C682 O657 1.257 . S
C683 H658 0.930 . S
C683 C686 1.388 . S
C683 C688 1.418 . S
C684 H679 0.930 . S
C684 C687 1.404 . S
C684 C688 1.353 . S
N685 Co650 2.145 . S
N685 C686 1.397 . S
N685 C687 1.334 . S
C686 H667 0.929 . S
C686 C683 1.388 . S
C686 N685 1.397 . S
C687 H668 0.929 . S
C687 C684 1.404 . S
C687 N685 1.334 . S
C688 H680 0.930 . S
C688 C683 1.418 . S
C688 C684 1.353 . S
C689 H659 0.930 . S
C689 N690 1.330 . S
C689 C691 1.446 . S
N690 Co649 2.151 . S
N690 C689 1.330 . S
N690 C694 1.418 . S
C691 H670 0.929 . S
C691 C689 1.446 . S
C691 C692 1.332 . S
C692 H672 0.931 . S
C692 C691 1.332 . S
C692 C693 1.267 . S
C693 H661 0.929 . S
C693 C692 1.267 . S
C693 C694 1.251 . S
C694 H664 0.929 . S
C694 N690 1.418 . S
C694 C693 1.251 . S
C695 H662 0.930 . S
C695 C697 1.406 . S
C695 C700 1.261 . S
C696 H663 0.930 . S
C696 N698 1.325 . S
C696 C699 1.357 . S
C697 H665 0.928 . S
C697 C695 1.406 . S
C697 N698 1.261 . S
N698 Co649 2.214 . S
N698 C696 1.325 . S
N698 C697 1.261 . S
C699 H669 0.931 . S
C699 C696 1.357 . S
C699 C700 1.312 . S
C700 H671 0.930 . S
C700 C695 1.261 . S
C700 C699 1.312 . S
C701 O673 1.214 . S
C701 O681 1.234 . S
C702 H674 0.929 . S
C702 C705 1.391 . S
C702 C707 1.391 . S
C703 H675 0.929 . S
C703 C704 1.390 . S
C703 N706 1.391 . S
C704 H676 0.930 . S
C704 C703 1.390 . S
C704 C705 1.392 . S
C705 H677 0.929 . S
C705 C702 1.391 . S
C705 C704 1.392 . S
N706 Co650 2.257 . S
N706 C703 1.391 . S
N706 C707 1.388 . S
C707 H678 0.930 . S
C707 C702 1.391 . S
C707 N706 1.388 . S
Co708 O710 2.143 . S
Co708 O716 2.074 . S
Co708 O719 2.093 . S
Co708 O732 2.097 . S
Co708 N749 2.151 . S
Co708 N757 2.214 . S
Co709 O710 2.160 . S
Co709 O715 2.058 . S
Co709 O725 2.057 . S
Co709 O740 2.037 . S
Co709 N744 2.145 . S
Co709 N765 2.257 . S
O710 Co708 2.143 . S
O710 Co709 2.160 . S
C711 O712 1.278 . S
C711 O719 1.224 . S
O712 C711 1.278 . S
C713 O714 1.245 . S
C713 O725 1.232 . S
O714 C713 1.245 . S
O715 Co709 2.058 . S
O715 C741 1.269 . S
O716 Co708 2.074 . S
O716 C741 1.257 . S
H717 C742 0.930 . S
H718 C748 0.930 . S
O719 Co708 2.093 . S
O719 C711 1.224 . S
H720 C752 0.929 . S
H721 C754 0.930 . S
H722 C755 0.930 . S
H723 C753 0.929 . S
H724 C756 0.928 . S
O725 Co709 2.057 . S
O725 C713 1.232 . S
H726 C745 0.929 . S
H727 C746 0.929 . S
H728 C758 0.931 . S
H729 C750 0.929 . S
H730 C759 0.930 . S
H731 C751 0.931 . S
O732 Co708 2.097 . S
O732 C760 1.214 . S
H733 C761 0.929 . S
H734 C762 0.929 . S
H735 C763 0.930 . S
H736 C764 0.929 . S
H737 C766 0.930 . S
H738 C743 0.930 . S
H739 C747 0.930 . S
O740 Co709 2.037 . S
O740 C760 1.234 . S
C741 O715 1.269 . S
C741 O716 1.257 . S
C742 H717 0.930 . S
C742 C745 1.388 1_554 S
C742 C747 1.418 . S
C743 H738 0.930 . S
C743 C746 1.404 1_554 S
C743 C747 1.353 . S
N744 Co709 2.145 . S
N744 C745 1.397 . S
N744 C746 1.334 . S
C745 H726 0.929 . S
C745 C742 1.388 1_556 S
C745 N744 1.397 . S
C746 H727 0.929 . S
C746 C743 1.404 1_556 S
C746 N744 1.334 . S
C747 H739 0.930 . S
C747 C742 1.418 . S
C747 C743 1.353 . S
C748 H718 0.930 . S
C748 N749 1.330 . S
C748 C750 1.446 . S
N749 Co708 2.151 . S
N749 C748 1.330 . S
N749 C753 1.418 . S
C750 H729 0.929 . S
C750 C748 1.446 . S
C750 C751 1.332 . S
C751 H731 0.931 . S
C751 C750 1.332 . S
C751 C752 1.267 . S
C752 H720 0.929 . S
C752 C751 1.267 . S
C752 C753 1.251 . S
C753 H723 0.929 . S
C753 N749 1.418 . S
C753 C752 1.251 . S
C754 H721 0.930 . S
C754 C756 1.406 . S
C754 C759 1.261 . S
C755 H722 0.930 . S
C755 N757 1.325 . S
C755 C758 1.357 . S
C756 H724 0.928 . S
C756 C754 1.406 . S
C756 N757 1.261 . S
N757 Co708 2.214 . S
N757 C755 1.325 . S
N757 C756 1.261 . S
C758 H728 0.931 . S
C758 C755 1.357 . S
C758 C759 1.312 . S
C759 H730 0.930 . S
C759 C754 1.261 . S
C759 C758 1.312 . S
C760 O732 1.214 . S
C760 O740 1.234 . S
C761 H733 0.929 . S
C761 C764 1.391 . S
C761 C766 1.391 . S
C762 H734 0.929 . S
C762 C763 1.390 . S
C762 N765 1.391 . S
C763 H735 0.930 . S
C763 C762 1.390 . S
C763 C764 1.392 . S
C764 H736 0.929 . S
C764 C761 1.391 . S
C764 C763 1.392 . S
N765 Co709 2.257 . S
N765 C762 1.391 . S
N765 C766 1.388 . S
C766 H737 0.930 . S
C766 C761 1.391 . S
C766 N765 1.388 . S
Co767 O769 2.143 . S
Co767 O775 2.074 . S
Co767 O778 2.093 . S
Co767 O791 2.097 . S
Co767 N808 2.151 . S
Co767 N816 2.214 . S
Co768 O769 2.160 . S
Co768 O774 2.058 . S
Co768 O784 2.057 . S
Co768 O799 2.037 . S
Co768 N803 2.145 . S
Co768 N824 2.257 . S
O769 Co767 2.143 . S
O769 Co768 2.160 . S
C770 O771 1.278 . S
C770 O778 1.224 . S
O771 C770 1.278 . S
C772 O773 1.245 . S
C772 O784 1.232 . S
O773 C772 1.245 . S
O774 Co768 2.058 . S
O774 C800 1.269 . S
O775 Co767 2.074 . S
O775 C800 1.257 . S
H776 C801 0.930 . S
H777 C807 0.930 . S
O778 Co767 2.093 . S
O778 C770 1.224 . S
H779 C811 0.929 . S
H780 C813 0.930 . S
H781 C814 0.930 . S
H782 C812 0.929 . S
H783 C815 0.928 . S
O784 Co768 2.057 . S
O784 C772 1.232 . S
H785 C804 0.929 . S
H786 C805 0.929 . S
H787 C817 0.931 . S
H788 C809 0.929 . S
H789 C818 0.930 . S
H790 C810 0.931 . S
O791 Co767 2.097 . S
O791 C819 1.214 . S
H792 C820 0.929 . S
H793 C821 0.929 . S
H794 C822 0.930 . S
H795 C823 0.929 . S
H796 C825 0.930 . S
H797 C802 0.930 . S
H798 C806 0.930 . S
O799 Co768 2.037 . S
O799 C819 1.234 . S
C800 O774 1.269 . S
C800 O775 1.257 . S
C801 H776 0.930 . S
C801 C804 1.388 . S
C801 C806 1.418 . S
C802 H797 0.930 . S
C802 C805 1.404 . S
C802 C806 1.353 . S
N803 Co768 2.145 . S
N803 C804 1.397 . S
N803 C805 1.334 . S
C804 H785 0.929 . S
C804 C801 1.388 . S
C804 N803 1.397 . S
C805 H786 0.929 . S
C805 C802 1.404 . S
C805 N803 1.334 . S
C806 H798 0.930 . S
C806 C801 1.418 . S
C806 C802 1.353 . S
C807 H777 0.930 . S
C807 N808 1.330 . S
C807 C809 1.446 . S
N808 Co767 2.151 . S
N808 C807 1.330 . S
N808 C812 1.418 . S
C809 H788 0.929 . S
C809 C807 1.446 . S
C809 C810 1.332 . S
C810 H790 0.931 . S
C810 C809 1.332 . S
C810 C811 1.267 . S
C811 H779 0.929 . S
C811 C810 1.267 . S
C811 C812 1.251 . S
C812 H782 0.929 . S
C812 N808 1.418 . S
C812 C811 1.251 . S
C813 H780 0.930 . S
C813 C815 1.406 . S
C813 C818 1.261 . S
C814 H781 0.930 . S
C814 N816 1.325 . S
C814 C817 1.357 . S
C815 H783 0.928 . S
C815 C813 1.406 . S
C815 N816 1.261 . S
N816 Co767 2.214 . S
N816 C814 1.325 . S
N816 C815 1.261 . S
C817 H787 0.931 . S
C817 C814 1.357 . S
C817 C818 1.312 . S
C818 H789 0.930 . S
C818 C813 1.261 . S
C818 C817 1.312 . S
C819 O791 1.214 . S
C819 O799 1.234 . S
C820 H792 0.929 . S
C820 C823 1.391 . S
C820 C825 1.391 . S
C821 H793 0.929 . S
C821 C822 1.390 . S
C821 N824 1.391 . S
C822 H794 0.930 . S
C822 C821 1.390 . S
C822 C823 1.392 . S
C823 H795 0.929 . S
C823 C820 1.391 . S
C823 C822 1.392 . S
N824 Co768 2.257 . S
N824 C821 1.391 . S
N824 C825 1.388 . S
C825 H796 0.930 . S
C825 C820 1.391 . S
C825 N824 1.388 . S
Co826 O828 2.143 . S
Co826 O834 2.074 . S
Co826 O837 2.093 . S
Co826 O850 2.097 . S
Co826 N867 2.151 . S
Co826 N875 2.214 . S
Co827 O828 2.160 . S
Co827 O833 2.058 . S
Co827 O843 2.057 . S
Co827 O858 2.037 . S
Co827 N862 2.145 . S
Co827 N883 2.257 . S
O828 Co826 2.143 . S
O828 Co827 2.160 . S
C829 O830 1.278 . S
C829 O837 1.224 . S
O830 C829 1.278 . S
C831 O832 1.245 . S
C831 O843 1.232 . S
O832 C831 1.245 . S
O833 Co827 2.058 . S
O833 C859 1.269 . S
O834 Co826 2.074 . S
O834 C859 1.257 . S
H835 C860 0.930 . S
H836 C866 0.930 . S
O837 Co826 2.093 . S
O837 C829 1.224 . S
H838 C870 0.929 . S
H839 C872 0.930 . S
H840 C873 0.930 . S
H841 C871 0.929 . S
H842 C874 0.928 . S
O843 Co827 2.057 . S
O843 C831 1.232 . S
H844 C863 0.929 . S
H845 C864 0.929 . S
H846 C876 0.931 . S
H847 C868 0.929 . S
H848 C877 0.930 . S
H849 C869 0.931 . S
O850 Co826 2.097 . S
O850 C878 1.214 . S
H851 C879 0.929 . S
H852 C880 0.929 . S
H853 C881 0.930 . S
H854 C882 0.929 . S
H855 C884 0.930 . S
H856 C861 0.930 . S
H857 C865 0.930 . S
O858 Co827 2.037 . S
O858 C878 1.234 . S
C859 O833 1.269 . S
C859 O834 1.257 . S
C860 H835 0.930 . S
C860 C863 1.388 1_556 S
C860 C865 1.418 . S
C861 H856 0.930 . S
C861 C864 1.404 1_556 S
C861 C865 1.353 . S
N862 Co827 2.145 . S
N862 C863 1.397 . S
N862 C864 1.334 . S
C863 H844 0.929 . S
C863 C860 1.388 1_554 S
C863 N862 1.397 . S
C864 H845 0.929 . S
C864 C861 1.404 1_554 S
C864 N862 1.334 . S
C865 H857 0.930 . S
C865 C860 1.418 . S
C865 C861 1.353 . S
C866 H836 0.930 . S
C866 N867 1.330 . S
C866 C868 1.446 . S
N867 Co826 2.151 . S
N867 C866 1.330 . S
N867 C871 1.418 . S
C868 H847 0.929 . S
C868 C866 1.446 . S
C868 C869 1.332 . S
C869 H849 0.931 . S
C869 C868 1.332 . S
C869 C870 1.267 . S
C870 H838 0.929 . S
C870 C869 1.267 . S
C870 C871 1.251 . S
C871 H841 0.929 . S
C871 N867 1.418 . S
C871 C870 1.251 . S
C872 H839 0.930 . S
C872 C874 1.406 . S
C872 C877 1.261 . S
C873 H840 0.930 . S
C873 N875 1.325 . S
C873 C876 1.357 . S
C874 H842 0.928 . S
C874 C872 1.406 . S
C874 N875 1.261 . S
N875 Co826 2.214 . S
N875 C873 1.325 . S
N875 C874 1.261 . S
C876 H846 0.931 . S
C876 C873 1.357 . S
C876 C877 1.312 . S
C877 H848 0.930 . S
C877 C872 1.261 . S
C877 C876 1.312 . S
C878 O850 1.214 . S
C878 O858 1.234 . S
C879 H851 0.929 . S
C879 C882 1.391 . S
C879 C884 1.391 . S
C880 H852 0.929 . S
C880 C881 1.390 . S
C880 N883 1.391 . S
C881 H853 0.930 . S
C881 C880 1.390 . S
C881 C882 1.392 . S
C882 H854 0.929 . S
C882 C879 1.391 . S
C882 C881 1.392 . S
N883 Co827 2.257 . S
N883 C880 1.391 . S
N883 C884 1.388 . S
C884 H855 0.930 . S
C884 C879 1.391 . S
C884 N883 1.388 . S
Co885 O887 2.143 . S
Co885 O893 2.074 . S
Co885 O896 2.093 . S
Co885 O909 2.097 . S
Co885 N926 2.151 . S
Co885 N934 2.214 . S
Co886 O887 2.160 . S
Co886 O892 2.058 . S
Co886 O902 2.057 . S
Co886 O917 2.037 . S
Co886 N921 2.145 . S
Co886 N942 2.257 . S
O887 Co885 2.143 . S
O887 Co886 2.160 . S
C888 O889 1.278 . S
C888 O896 1.224 . S
O889 C888 1.278 . S
C890 O891 1.245 . S
C890 O902 1.232 . S
O891 C890 1.245 . S
O892 Co886 2.058 . S
O892 C918 1.269 . S
O893 Co885 2.074 . S
O893 C918 1.257 . S
H894 C919 0.930 . S
H895 C925 0.930 . S
O896 Co885 2.093 . S
O896 C888 1.224 . S
H897 C929 0.929 . S
H898 C931 0.930 . S
H899 C932 0.930 . S
H900 C930 0.929 . S
H901 C933 0.928 . S
O902 Co886 2.057 . S
O902 C890 1.232 . S
H903 C922 0.929 . S
H904 C923 0.929 . S
H905 C935 0.931 . S
H906 C927 0.929 . S
H907 C936 0.930 . S
H908 C928 0.931 . S
O909 Co885 2.097 . S
O909 C937 1.214 . S
H910 C938 0.929 . S
H911 C939 0.929 . S
H912 C940 0.930 . S
H913 C941 0.929 . S
H914 C943 0.930 . S
H915 C920 0.930 . S
H916 C924 0.930 . S
O917 Co886 2.037 . S
O917 C937 1.234 . S
C918 O892 1.269 . S
C918 O893 1.257 . S
C919 H894 0.930 . S
C919 C922 1.388 . S
C919 C924 1.418 . S
C920 H915 0.930 . S
C920 C923 1.404 . S
C920 C924 1.353 . S
N921 Co886 2.145 . S
N921 C922 1.397 . S
N921 C923 1.334 . S
C922 H903 0.929 . S
C922 C919 1.388 . S
C922 N921 1.397 . S
C923 H904 0.929 . S
C923 C920 1.404 . S
C923 N921 1.334 . S
C924 H916 0.930 . S
C924 C919 1.418 . S
C924 C920 1.353 . S
C925 H895 0.930 . S
C925 N926 1.330 . S
C925 C927 1.446 . S
N926 Co885 2.151 . S
N926 C925 1.330 . S
N926 C930 1.418 . S
C927 H906 0.929 . S
C927 C925 1.446 . S
C927 C928 1.332 . S
C928 H908 0.931 . S
C928 C927 1.332 . S
C928 C929 1.267 . S
C929 H897 0.929 . S
C929 C928 1.267 . S
C929 C930 1.251 . S
C930 H900 0.929 . S
C930 N926 1.418 . S
C930 C929 1.251 . S
C931 H898 0.930 . S
C931 C933 1.406 . S
C931 C936 1.261 . S
C932 H899 0.930 . S
C932 N934 1.325 . S
C932 C935 1.357 . S
C933 H901 0.928 . S
C933 C931 1.406 . S
C933 N934 1.261 . S
N934 Co885 2.214 . S
N934 C932 1.325 . S
N934 C933 1.261 . S
C935 H905 0.931 . S
C935 C932 1.357 . S
C935 C936 1.312 . S
C936 H907 0.930 . S
C936 C931 1.261 . S
C936 C935 1.312 . S
C937 O909 1.214 . S
C937 O917 1.234 . S
C938 H910 0.929 . S
C938 C941 1.391 . S
C938 C943 1.391 . S
C939 H911 0.929 . S
C939 C940 1.390 . S
C939 N942 1.391 . S
C940 H912 0.930 . S
C940 C939 1.390 . S
C940 C941 1.392 . S
C941 H913 0.929 . S
C941 C938 1.391 . S
C941 C940 1.392 . S
N942 Co886 2.257 . S
N942 C939 1.391 . S
N942 C943 1.388 . S
C943 H914 0.930 . S
C943 C938 1.391 . S
C943 N942 1.388 . S
H944 C962 0.951 . S
H945 C964 0.951 . S
H946 C966 0.950 . S
H947 C967 0.950 . S
H948 C969 0.950 . S
H949 C972 0.950 . S
H950 C973 0.950 . S
H951 C975 0.950 . S
H952 C976 0.950 . S
H953 C977 0.951 . S
H954 C979 0.951 . S
H955 C981 0.950 . S
H956 C982 0.950 . S
H957 C984 0.950 . S
H958 C987 0.950 . S
H959 C988 0.950 . S
H960 C990 0.950 . S
H961 C991 0.950 1_455 S
C962 H944 0.951 . S
C962 C963 1.366 . S
C962 C964 1.388 . S
C963 C962 1.366 . S
C963 C967 1.385 . S
C964 H945 0.951 . S
C964 C962 1.388 . S
C964 C965 1.366 . S
C965 C964 1.366 . S
C965 C966 1.414 . S
C965 C968 1.499 . S
C966 H946 0.950 . S
C966 C965 1.414 . S
C966 C967 1.374 . S
C967 H947 0.950 . S
C967 C963 1.385 . S
C967 C966 1.374 . S
C968 C965 1.499 . S
C968 C969 1.373 . S
C968 C970 1.389 . S
C969 H948 0.950 . S
C969 C968 1.373 . S
C969 C985 1.377 1_455 S
C970 C968 1.389 . S
C970 C971 1.524 . S
C970 C984 1.377 1_455 S
C971 C970 1.524 . S
C971 C972 1.397 . S
C971 C976 1.363 . S
C972 H949 0.950 . S
C972 C971 1.397 . S
C972 C973 1.334 . S
C973 H950 0.950 . S
C973 C972 1.334 . S
C973 C974 1.287 . S
C974 C973 1.287 . S
C974 C975 1.524 . S
C974 H993 0.913 . S
C975 H951 0.950 . S
C975 C974 1.524 . S
C975 C976 1.415 . S
C976 H952 0.950 . S
C976 C971 1.363 . S
C976 C975 1.415 . S
C977 H953 0.951 . S
C977 C978 1.366 . S
C977 C979 1.388 . S
C978 C977 1.366 . S
C978 C982 1.385 . S
C979 H954 0.951 . S
C979 C977 1.388 . S
C979 C980 1.366 . S
C980 C979 1.366 . S
C980 C981 1.414 . S
C980 C983 1.499 . S
C981 H955 0.950 . S
C981 C980 1.414 . S
C981 C982 1.374 . S
C982 H956 0.950 . S
C982 C978 1.385 . S
C982 C981 1.374 . S
C983 C980 1.499 . S
C983 C984 1.373 . S
C983 C985 1.389 . S
C984 H957 0.950 . S
C984 C970 1.377 1_655 S
C984 C983 1.373 . S
C985 C969 1.377 1_655 S
C985 C983 1.389 . S
C985 C986 1.524 . S
C986 C985 1.524 . S
C986 C987 1.397 . S
C986 C991 1.363 . S
C987 H958 0.950 . S
C987 C986 1.397 . S
C987 C988 1.334 . S
C988 H959 0.950 . S
C988 C987 1.334 . S
C988 C989 1.287 . S
C989 C988 1.287 . S
C989 C990 1.524 . S
C989 H992 0.999 . S
C990 H960 0.950 . S
C990 C989 1.524 . S
C990 C991 1.415 . S
C991 H961 0.950 1_655 S
C991 C986 1.363 . S
C991 C990 1.415 . S
H992 C989 0.999 . S
H993 C974 0.913 . S
H994 C1012 0.951 . S
H995 C1014 0.951 . S
H996 C1016 0.950 . S
H997 C1017 0.950 . S
H998 C1019 0.950 . S
H999 C1022 0.950 . S
H1000 C1023 0.950 . S
H1001 C1025 0.950 . S
H1002 C1026 0.950 . S
H1003 C1027 0.951 . S
H1004 C1029 0.951 . S
H1005 C1031 0.950 . S
H1006 C1032 0.950 . S
H1007 C1034 0.950 . S
H1008 C1037 0.950 . S
H1009 C1038 0.950 . S
H1010 C1040 0.950 . S
H1011 C1041 0.950 1_655 S
C1012 H994 0.951 . S
C1012 C1013 1.366 . S
C1012 C1014 1.388 . S
C1013 C1012 1.366 . S
C1013 C1017 1.385 . S
C1014 H995 0.951 . S
C1014 C1012 1.388 . S
C1014 C1015 1.366 . S
C1015 C1014 1.366 . S
C1015 C1016 1.414 . S
C1015 C1018 1.499 . S
C1016 H996 0.950 . S
C1016 C1015 1.414 . S
C1016 C1017 1.374 . S
C1017 H997 0.950 . S
C1017 C1013 1.385 . S
C1017 C1016 1.374 . S
C1018 C1015 1.499 . S
C1018 C1019 1.373 . S
C1018 C1020 1.389 . S
C1019 H998 0.950 . S
C1019 C1018 1.373 . S
C1019 C1035 1.377 1_655 S
C1020 C1018 1.389 . S
C1020 C1021 1.524 . S
C1020 C1034 1.377 1_655 S
C1021 C1020 1.524 . S
C1021 C1022 1.397 . S
C1021 C1026 1.363 . S
C1022 H999 0.950 . S
C1022 C1021 1.397 . S
C1022 C1023 1.334 . S
C1023 H1000 0.950 . S
C1023 C1022 1.334 . S
C1023 C1024 1.287 . S
C1024 C1023 1.287 . S
C1024 C1025 1.524 . S
C1024 H1043 0.913 . S
C1025 H1001 0.950 . S
C1025 C1024 1.524 . S
C1025 C1026 1.415 . S
C1026 H1002 0.950 . S
C1026 C1021 1.363 . S
C1026 C1025 1.415 . S
C1027 H1003 0.951 . S
C1027 C1028 1.366 . S
C1027 C1029 1.388 . S
C1028 C1027 1.366 . S
C1028 C1032 1.385 . S
C1029 H1004 0.951 . S
C1029 C1027 1.388 . S
C1029 C1030 1.366 . S
C1030 C1029 1.366 . S
C1030 C1031 1.414 . S
C1030 C1033 1.499 . S
C1031 H1005 0.950 . S
C1031 C1030 1.414 . S
C1031 C1032 1.374 . S
C1032 H1006 0.950 . S
C1032 C1028 1.385 . S
C1032 C1031 1.374 . S
C1033 C1030 1.499 . S
C1033 C1034 1.373 . S
C1033 C1035 1.389 . S
C1034 H1007 0.950 . S
C1034 C1020 1.377 1_455 S
C1034 C1033 1.373 . S
C1035 C1019 1.377 1_455 S
C1035 C1033 1.389 . S
C1035 C1036 1.524 . S
C1036 C1035 1.524 . S
C1036 C1037 1.397 . S
C1036 C1041 1.363 . S
C1037 H1008 0.950 . S
C1037 C1036 1.397 . S
C1037 C1038 1.334 . S
C1038 H1009 0.950 . S
C1038 C1037 1.334 . S
C1038 C1039 1.287 . S
C1039 C1038 1.287 . S
C1039 C1040 1.524 . S
C1039 H1042 0.999 . S
C1040 H1010 0.950 . S
C1040 C1039 1.524 . S
C1040 C1041 1.415 . S
C1041 H1011 0.950 1_455 S
C1041 C1036 1.363 . S
C1041 C1040 1.415 . S
H1042 C1039 0.999 . S
H1043 C1024 0.913 . S
H1044 C1062 0.951 . S
H1045 C1064 0.951 . S
H1046 C1066 0.950 . S
H1047 C1067 0.950 . S
H1048 C1069 0.950 . S
H1049 C1072 0.950 . S
H1050 C1073 0.950 . S
H1051 C1075 0.950 . S
H1052 C1076 0.950 1_455 S
H1053 C1077 0.951 . S
H1054 C1079 0.951 . S
H1055 C1081 0.950 . S
H1056 C1082 0.950 . S
H1057 C1084 0.950 . S
H1058 C1087 0.950 . S
H1059 C1088 0.950 . S
H1060 C1090 0.950 . S
H1061 C1091 0.950 . S
C1062 H1044 0.951 . S
C1062 C1063 1.366 . S
C1062 C1064 1.388 . S
C1063 C1062 1.366 . S
C1063 C1067 1.385 . S
C1064 H1045 0.951 . S
C1064 C1062 1.388 . S
C1064 C1065 1.366 . S
C1065 C1064 1.366 . S
C1065 C1066 1.414 . S
C1065 C1068 1.499 . S
C1066 H1046 0.950 . S
C1066 C1065 1.414 . S
C1066 C1067 1.374 . S
C1067 H1047 0.950 . S
C1067 C1063 1.385 . S
C1067 C1066 1.374 . S
C1068 C1065 1.499 . S
C1068 C1069 1.373 . S
C1068 C1070 1.389 . S
C1069 H1048 0.950 . S
C1069 C1068 1.373 . S
C1069 C1085 1.377 1_655 S
C1070 C1068 1.389 . S
C1070 C1071 1.524 . S
C1070 C1084 1.377 1_655 S
C1071 C1070 1.524 . S
C1071 C1072 1.397 . S
C1071 C1076 1.363 . S
C1072 H1049 0.950 . S
C1072 C1071 1.397 . S
C1072 C1073 1.334 . S
C1073 H1050 0.950 . S
C1073 C1072 1.334 . S
C1073 C1074 1.287 . S
C1074 C1073 1.287 . S
C1074 C1075 1.524 . S
C1074 H1093 0.913 1_556 S
C1075 H1051 0.950 . S
C1075 C1074 1.524 . S
C1075 C1076 1.415 . S
C1076 H1052 0.950 1_655 S
C1076 C1071 1.363 . S
C1076 C1075 1.415 . S
C1077 H1053 0.951 . S
C1077 C1078 1.366 . S
C1077 C1079 1.388 . S
C1078 C1077 1.366 . S
C1078 C1082 1.385 . S
C1079 H1054 0.951 . S
C1079 C1077 1.388 . S
C1079 C1080 1.366 . S
C1080 C1079 1.366 . S
C1080 C1081 1.414 . S
C1080 C1083 1.499 . S
C1081 H1055 0.950 . S
C1081 C1080 1.414 . S
C1081 C1082 1.374 . S
C1082 H1056 0.950 . S
C1082 C1078 1.385 . S
C1082 C1081 1.374 . S
C1083 C1080 1.499 . S
C1083 C1084 1.373 . S
C1083 C1085 1.389 . S
C1084 H1057 0.950 . S
C1084 C1070 1.377 1_455 S
C1084 C1083 1.373 . S
C1085 C1069 1.377 1_455 S
C1085 C1083 1.389 . S
C1085 C1086 1.524 . S
C1086 C1085 1.524 . S
C1086 C1087 1.397 . S
C1086 C1091 1.363 . S
C1087 H1058 0.950 . S
C1087 C1086 1.397 . S
C1087 C1088 1.334 . S
C1088 H1059 0.950 . S
C1088 C1087 1.334 . S
C1088 C1089 1.287 . S
C1089 C1088 1.287 . S
C1089 C1090 1.524 . S
C1089 H1092 0.999 . S
C1090 H1060 0.950 . S
C1090 C1089 1.524 . S
C1090 C1091 1.415 . S
C1091 H1061 0.950 . S
C1091 C1086 1.363 . S
C1091 C1090 1.415 . S
H1092 C1089 0.999 . S
H1093 C1074 0.913 1_554 S
H1094 C1112 0.951 . S
H1095 C1114 0.951 . S
H1096 C1116 0.950 . S
H1097 C1117 0.950 . S
H1098 C1119 0.950 . S
H1099 C1122 0.950 . S
H1100 C1123 0.950 . S
H1101 C1125 0.950 . S
H1102 C1126 0.950 . S
H1103 C1127 0.951 . S
H1104 C1129 0.951 . S
H1105 C1131 0.950 . S
H1106 C1132 0.950 . S
H1107 C1134 0.950 . S
H1108 C1137 0.950 . S
H1109 C1138 0.950 . S
H1110 C1140 0.950 . S
H1111 C1141 0.950 . S
C1112 H1094 0.951 . S
C1112 C1113 1.366 . S
C1112 C1114 1.388 . S
C1113 C1112 1.366 . S
C1113 C1117 1.385 . S
C1114 H1095 0.951 . S
C1114 C1112 1.388 . S
C1114 C1115 1.366 . S
C1115 C1114 1.366 . S
C1115 C1116 1.414 . S
C1115 C1118 1.499 . S
C1116 H1096 0.950 . S
C1116 C1115 1.414 . S
C1116 C1117 1.374 . S
C1117 H1097 0.950 . S
C1117 C1113 1.385 . S
C1117 C1116 1.374 . S
C1118 C1115 1.499 . S
C1118 C1119 1.373 . S
C1118 C1120 1.389 . S
C1119 H1098 0.950 . S
C1119 C1118 1.373 . S
C1119 C1135 1.377 1_455 S
C1120 C1118 1.389 . S
C1120 C1121 1.524 . S
C1120 C1134 1.377 1_455 S
C1121 C1120 1.524 . S
C1121 C1122 1.397 . S
C1121 C1126 1.363 . S
C1122 H1099 0.950 . S
C1122 C1121 1.397 . S
C1122 C1123 1.334 . S
C1123 H1100 0.950 . S
C1123 C1122 1.334 . S
C1123 C1124 1.287 . S
C1124 C1123 1.287 . S
C1124 C1125 1.524 . S
C1124 H1143 0.913 . S
C1125 H1101 0.950 . S
C1125 C1124 1.524 . S
C1125 C1126 1.415 . S
C1126 H1102 0.950 . S
C1126 C1121 1.363 . S
C1126 C1125 1.415 . S
C1127 H1103 0.951 . S
C1127 C1128 1.366 . S
C1127 C1129 1.388 . S
C1128 C1127 1.366 . S
C1128 C1132 1.385 . S
C1129 H1104 0.951 . S
C1129 C1127 1.388 . S
C1129 C1130 1.366 . S
C1130 C1129 1.366 . S
C1130 C1131 1.414 . S
C1130 C1133 1.499 . S
C1131 H1105 0.950 . S
C1131 C1130 1.414 . S
C1131 C1132 1.374 . S
C1132 H1106 0.950 . S
C1132 C1128 1.385 . S
C1132 C1131 1.374 . S
C1133 C1130 1.499 . S
C1133 C1134 1.373 . S
C1133 C1135 1.389 . S
C1134 H1107 0.950 . S
C1134 C1120 1.377 1_655 S
C1134 C1133 1.373 . S
C1135 C1119 1.377 1_655 S
C1135 C1133 1.389 . S
C1135 C1136 1.524 . S
C1136 C1135 1.524 . S
C1136 C1137 1.397 . S
C1136 C1141 1.363 . S
C1137 H1108 0.950 . S
C1137 C1136 1.397 . S
C1137 C1138 1.334 . S
C1138 H1109 0.950 . S
C1138 C1137 1.334 . S
C1138 C1139 1.287 . S
C1139 C1138 1.287 . S
C1139 C1140 1.524 . S
C1139 H1142 0.999 . S
C1140 H1110 0.950 . S
C1140 C1139 1.524 . S
C1140 C1141 1.415 . S
C1141 H1111 0.950 . S
C1141 C1136 1.363 . S
C1141 C1140 1.415 . S
H1142 C1139 0.999 . S
H1143 C1124 0.913 . S
H1144 C1162 0.951 . S
H1145 C1164 0.951 . S
H1146 C1166 0.950 . S
H1147 C1167 0.950 . S
H1148 C1169 0.950 . S
H1149 C1172 0.950 . S
H1150 C1173 0.950 . S
H1151 C1175 0.950 . S
H1152 C1176 0.950 . S
H1153 C1177 0.951 . S
H1154 C1179 0.951 . S
H1155 C1181 0.950 . S
H1156 C1182 0.950 . S
H1157 C1184 0.950 . S
H1158 C1187 0.950 . S
H1159 C1188 0.950 . S
H1160 C1190 0.950 . S
H1161 C1191 0.950 . S
C1162 H1144 0.951 . S
C1162 C1163 1.366 . S
C1162 C1164 1.388 . S
C1163 C1162 1.366 . S
C1163 C1167 1.385 . S
C1164 H1145 0.951 . S
C1164 C1162 1.388 . S
C1164 C1165 1.366 . S
C1165 C1164 1.366 . S
C1165 C1166 1.414 . S
C1165 C1168 1.499 . S
C1166 H1146 0.950 . S
C1166 C1165 1.414 . S
C1166 C1167 1.374 . S
C1167 H1147 0.950 . S
C1167 C1163 1.385 . S
C1167 C1166 1.374 . S
C1168 C1165 1.499 . S
C1168 C1169 1.373 . S
C1168 C1170 1.389 . S
C1169 H1148 0.950 . S
C1169 C1168 1.373 . S
C1169 C1185 1.377 . S
C1170 C1168 1.389 . S
C1170 C1171 1.524 . S
C1170 C1184 1.377 . S
C1171 C1170 1.524 . S
C1171 C1172 1.397 . S
C1171 C1176 1.363 . S
C1172 H1149 0.950 . S
C1172 C1171 1.397 . S
C1172 C1173 1.334 . S
C1173 H1150 0.950 . S
C1173 C1172 1.334 . S
C1173 C1174 1.287 . S
C1174 C1173 1.287 . S
C1174 C1175 1.524 . S
C1174 H1193 0.913 . S
C1175 H1151 0.950 . S
C1175 C1174 1.524 . S
C1175 C1176 1.415 . S
C1176 H1152 0.950 . S
C1176 C1171 1.363 . S
C1176 C1175 1.415 . S
C1177 H1153 0.951 . S
C1177 C1178 1.366 . S
C1177 C1179 1.388 . S
C1178 C1177 1.366 . S
C1178 C1182 1.385 . S
C1179 H1154 0.951 . S
C1179 C1177 1.388 . S
C1179 C1180 1.366 . S
C1180 C1179 1.366 . S
C1180 C1181 1.414 . S
C1180 C1183 1.499 . S
C1181 H1155 0.950 . S
C1181 C1180 1.414 . S
C1181 C1182 1.374 . S
C1182 H1156 0.950 . S
C1182 C1178 1.385 . S
C1182 C1181 1.374 . S
C1183 C1180 1.499 . S
C1183 C1184 1.373 . S
C1183 C1185 1.389 . S
C1184 H1157 0.950 . S
C1184 C1170 1.377 . S
C1184 C1183 1.373 . S
C1185 C1169 1.377 . S
C1185 C1183 1.389 . S
C1185 C1186 1.524 . S
C1186 C1185 1.524 . S
C1186 C1187 1.397 . S
C1186 C1191 1.363 . S
C1187 H1158 0.950 . S
C1187 C1186 1.397 . S
C1187 C1188 1.334 . S
C1188 H1159 0.950 . S
C1188 C1187 1.334 . S
C1188 C1189 1.287 . S
C1189 C1188 1.287 . S
C1189 C1190 1.524 . S
C1189 H1192 0.999 . S
C1190 H1160 0.950 . S
C1190 C1189 1.524 . S
C1190 C1191 1.415 . S
C1191 H1161 0.950 . S
C1191 C1186 1.363 . S
C1191 C1190 1.415 . S
H1192 C1189 0.999 . S
H1193 C1174 0.913 . S
H1194 C1212 0.951 . S
H1195 C1214 0.951 . S
H1196 C1216 0.950 . S
H1197 C1217 0.950 . S
H1198 C1219 0.950 . S
H1199 C1222 0.950 . S
H1200 C1223 0.950 . S
H1201 C1225 0.950 . S
H1202 C1226 0.950 . S
H1203 C1227 0.951 . S
H1204 C1229 0.951 . S
H1205 C1231 0.950 . S
H1206 C1232 0.950 . S
H1207 C1234 0.950 . S
H1208 C1237 0.950 . S
H1209 C1238 0.950 . S
H1210 C1240 0.950 . S
H1211 C1241 0.950 . S
C1212 H1194 0.951 . S
C1212 C1213 1.366 . S
C1212 C1214 1.388 . S
C1213 C1212 1.366 . S
C1213 C1217 1.385 . S
C1214 H1195 0.951 . S
C1214 C1212 1.388 . S
C1214 C1215 1.366 . S
C1215 C1214 1.366 . S
C1215 C1216 1.414 . S
C1215 C1218 1.499 . S
C1216 H1196 0.950 . S
C1216 C1215 1.414 . S
C1216 C1217 1.374 . S
C1217 H1197 0.950 . S
C1217 C1213 1.385 . S
C1217 C1216 1.374 . S
C1218 C1215 1.499 . S
C1218 C1219 1.373 . S
C1218 C1220 1.389 . S
C1219 H1198 0.950 . S
C1219 C1218 1.373 . S
C1219 C1235 1.377 . S
C1220 C1218 1.389 . S
C1220 C1221 1.524 . S
C1220 C1234 1.377 . S
C1221 C1220 1.524 . S
C1221 C1222 1.397 . S
C1221 C1226 1.363 . S
C1222 H1199 0.950 . S
C1222 C1221 1.397 . S
C1222 C1223 1.334 . S
C1223 H1200 0.950 . S
C1223 C1222 1.334 . S
C1223 C1224 1.287 . S
C1224 C1223 1.287 . S
C1224 C1225 1.524 . S
C1224 H1243 0.913 . S
C1225 H1201 0.950 . S
C1225 C1224 1.524 . S
C1225 C1226 1.415 . S
C1226 H1202 0.950 . S
C1226 C1221 1.363 . S
C1226 C1225 1.415 . S
C1227 H1203 0.951 . S
C1227 C1228 1.366 . S
C1227 C1229 1.388 . S
C1228 C1227 1.366 . S
C1228 C1232 1.385 . S
C1229 H1204 0.951 . S
C1229 C1227 1.388 . S
C1229 C1230 1.366 . S
C1230 C1229 1.366 . S
C1230 C1231 1.414 . S
C1230 C1233 1.499 . S
C1231 H1205 0.950 . S
C1231 C1230 1.414 . S
C1231 C1232 1.374 . S
C1232 H1206 0.950 . S
C1232 C1228 1.385 . S
C1232 C1231 1.374 . S
C1233 C1230 1.499 . S
C1233 C1234 1.373 . S
C1233 C1235 1.389 . S
C1234 H1207 0.950 . S
C1234 C1220 1.377 . S
C1234 C1233 1.373 . S
C1235 C1219 1.377 . S
C1235 C1233 1.389 . S
C1235 C1236 1.524 . S
C1236 C1235 1.524 . S
C1236 C1237 1.397 . S
C1236 C1241 1.363 . S
C1237 H1208 0.950 . S
C1237 C1236 1.397 . S
C1237 C1238 1.334 . S
C1238 H1209 0.950 . S
C1238 C1237 1.334 . S
C1238 C1239 1.287 . S
C1239 C1238 1.287 . S
C1239 C1240 1.524 . S
C1239 H1242 0.999 . S
C1240 H1210 0.950 . S
C1240 C1239 1.524 . S
C1240 C1241 1.415 . S
C1241 H1211 0.950 . S
C1241 C1236 1.363 . S
C1241 C1240 1.415 . S
H1242 C1239 0.999 . S
H1243 C1224 0.913 . S
H1244 C1262 0.951 . S
H1245 C1264 0.951 . S
H1246 C1266 0.950 . S
H1247 C1267 0.950 . S
H1248 C1269 0.950 . S
H1249 C1272 0.950 . S
H1250 C1273 0.950 . S
H1251 C1275 0.950 . S
H1252 C1276 0.950 . S
H1253 C1277 0.951 . S
H1254 C1279 0.951 . S
H1255 C1281 0.950 . S
H1256 C1282 0.950 . S
H1257 C1284 0.950 . S
H1258 C1287 0.950 . S
H1259 C1288 0.950 . S
H1260 C1290 0.950 . S
H1261 C1291 0.950 . S
C1262 H1244 0.951 . S
C1262 C1263 1.366 . S
C1262 C1264 1.388 . S
C1263 C1262 1.366 . S
C1263 C1267 1.385 . S
C1264 H1245 0.951 . S
C1264 C1262 1.388 . S
C1264 C1265 1.366 . S
C1265 C1264 1.366 . S
C1265 C1266 1.414 . S
C1265 C1268 1.499 . S
C1266 H1246 0.950 . S
C1266 C1265 1.414 . S
C1266 C1267 1.374 . S
C1267 H1247 0.950 . S
C1267 C1263 1.385 . S
C1267 C1266 1.374 . S
C1268 C1265 1.499 . S
C1268 C1269 1.373 . S
C1268 C1270 1.389 . S
C1269 H1248 0.950 . S
C1269 C1268 1.373 . S
C1269 C1285 1.377 . S
C1270 C1268 1.389 . S
C1270 C1271 1.524 . S
C1270 C1284 1.377 . S
C1271 C1270 1.524 . S
C1271 C1272 1.397 . S
C1271 C1276 1.363 . S
C1272 H1249 0.950 . S
C1272 C1271 1.397 . S
C1272 C1273 1.334 . S
C1273 H1250 0.950 . S
C1273 C1272 1.334 . S
C1273 C1274 1.287 . S
C1274 C1273 1.287 . S
C1274 C1275 1.524 . S
C1274 H1293 0.913 . S
C1275 H1251 0.950 . S
C1275 C1274 1.524 . S
C1275 C1276 1.415 . S
C1276 H1252 0.950 . S
C1276 C1271 1.363 . S
C1276 C1275 1.415 . S
C1277 H1253 0.951 . S
C1277 C1278 1.366 . S
C1277 C1279 1.388 . S
C1278 C1277 1.366 . S
C1278 C1282 1.385 . S
C1279 H1254 0.951 . S
C1279 C1277 1.388 . S
C1279 C1280 1.366 . S
C1280 C1279 1.366 . S
C1280 C1281 1.414 . S
C1280 C1283 1.499 . S
C1281 H1255 0.950 . S
C1281 C1280 1.414 . S
C1281 C1282 1.374 . S
C1282 H1256 0.950 . S
C1282 C1278 1.385 . S
C1282 C1281 1.374 . S
C1283 C1280 1.499 . S
C1283 C1284 1.373 . S
C1283 C1285 1.389 . S
C1284 H1257 0.950 . S
C1284 C1270 1.377 . S
C1284 C1283 1.373 . S
C1285 C1269 1.377 . S
C1285 C1283 1.389 . S
C1285 C1286 1.524 . S
C1286 C1285 1.524 . S
C1286 C1287 1.397 . S
C1286 C1291 1.363 . S
C1287 H1258 0.950 . S
C1287 C1286 1.397 . S
C1287 C1288 1.334 . S
C1288 H1259 0.950 . S
C1288 C1287 1.334 . S
C1288 C1289 1.287 . S
C1289 C1288 1.287 . S
C1289 C1290 1.524 . S
C1289 H1292 0.999 . S
C1290 H1260 0.950 . S
C1290 C1289 1.524 . S
C1290 C1291 1.415 . S
C1291 H1261 0.950 . S
C1291 C1286 1.363 . S
C1291 C1290 1.415 . S
H1292 C1289 0.999 . S
H1293 C1274 0.913 . S
H1294 C1312 0.951 . S
H1295 C1314 0.951 . S
H1296 C1316 0.950 . S
H1297 C1317 0.950 . S
H1298 C1319 0.950 . S
H1299 C1322 0.950 . S
H1300 C1323 0.950 . S
H1301 C1325 0.950 . S
H1302 C1326 0.950 . S
H1303 C1327 0.951 . S
H1304 C1329 0.951 . S
H1305 C1331 0.950 . S
H1306 C1332 0.950 . S
H1307 C1334 0.950 . S
H1308 C1337 0.950 . S
H1309 C1338 0.950 . S
H1310 C1340 0.950 . S
H1311 C1341 0.950 . S
C1312 H1294 0.951 . S
C1312 C1313 1.366 . S
C1312 C1314 1.388 . S
C1313 C1312 1.366 . S
C1313 C1317 1.385 . S
C1314 H1295 0.951 . S
C1314 C1312 1.388 . S
C1314 C1315 1.366 . S
C1315 C1314 1.366 . S
C1315 C1316 1.414 . S
C1315 C1318 1.499 . S
C1316 H1296 0.950 . S
C1316 C1315 1.414 . S
C1316 C1317 1.374 . S
C1317 H1297 0.950 . S
C1317 C1313 1.385 . S
C1317 C1316 1.374 . S
C1318 C1315 1.499 . S
C1318 C1319 1.373 . S
C1318 C1320 1.389 . S
C1319 H1298 0.950 . S
C1319 C1318 1.373 . S
C1319 C1335 1.377 . S
C1320 C1318 1.389 . S
C1320 C1321 1.524 . S
C1320 C1334 1.377 . S
C1321 C1320 1.524 . S
C1321 C1322 1.397 . S
C1321 C1326 1.363 . S
C1322 H1299 0.950 . S
C1322 C1321 1.397 . S
C1322 C1323 1.334 . S
C1323 H1300 0.950 . S
C1323 C1322 1.334 . S
C1323 C1324 1.287 . S
C1324 C1323 1.287 . S
C1324 C1325 1.524 . S
C1324 H1343 0.913 . S
C1325 H1301 0.950 . S
C1325 C1324 1.524 . S
C1325 C1326 1.415 . S
C1326 H1302 0.950 . S
C1326 C1321 1.363 . S
C1326 C1325 1.415 . S
C1327 H1303 0.951 . S
C1327 C1328 1.366 . S
C1327 C1329 1.388 . S
C1328 C1327 1.366 . S
C1328 C1332 1.385 . S
C1329 H1304 0.951 . S
C1329 C1327 1.388 . S
C1329 C1330 1.366 . S
C1330 C1329 1.366 . S
C1330 C1331 1.414 . S
C1330 C1333 1.499 . S
C1331 H1305 0.950 . S
C1331 C1330 1.414 . S
C1331 C1332 1.374 . S
C1332 H1306 0.950 . S
C1332 C1328 1.385 . S
C1332 C1331 1.374 . S
C1333 C1330 1.499 . S
C1333 C1334 1.373 . S
C1333 C1335 1.389 . S
C1334 H1307 0.950 . S
C1334 C1320 1.377 . S
C1334 C1333 1.373 . S
C1335 C1319 1.377 . S
C1335 C1333 1.389 . S
C1335 C1336 1.524 . S
C1336 C1335 1.524 . S
C1336 C1337 1.397 . S
C1336 C1341 1.363 . S
C1337 H1308 0.950 . S
C1337 C1336 1.397 . S
C1337 C1338 1.334 . S
C1338 H1309 0.950 . S
C1338 C1337 1.334 . S
C1338 C1339 1.287 . S
C1339 C1338 1.287 . S
C1339 C1340 1.524 . S
C1339 H1342 0.999 . S
C1340 H1310 0.950 . S
C1340 C1339 1.524 . S
C1340 C1341 1.415 . S
C1341 H1311 0.950 . S
C1341 C1336 1.363 . S
C1341 C1340 1.415 . S
H1342 C1339 0.999 . S
H1343 C1324 0.913 . S
H1344 C1362 0.951 . S
H1345 C1364 0.951 . S
H1346 C1366 0.950 . S
H1347 C1367 0.950 . S
H1348 C1369 0.950 . S
H1349 C1372 0.950 . S
H1350 C1373 0.950 . S
H1351 C1375 0.950 . S
H1352 C1376 0.950 . S
H1353 C1377 0.951 . S
H1354 C1379 0.951 . S
H1355 C1381 0.950 . S
H1356 C1382 0.950 . S
H1357 C1384 0.950 . S
H1358 C1387 0.950 . S
H1359 C1388 0.950 . S
H1360 C1390 0.950 . S
H1361 C1391 0.950 . S
C1362 H1344 0.951 . S
C1362 C1363 1.366 . S
C1362 C1364 1.388 . S
C1363 C1362 1.366 . S
C1363 C1367 1.385 . S
C1364 H1345 0.951 . S
C1364 C1362 1.388 . S
C1364 C1365 1.366 . S
C1365 C1364 1.366 . S
C1365 C1366 1.414 . S
C1365 C1368 1.499 . S
C1366 H1346 0.950 . S
C1366 C1365 1.414 . S
C1366 C1367 1.374 . S
C1367 H1347 0.950 . S
C1367 C1363 1.385 . S
C1367 C1366 1.374 . S
C1368 C1365 1.499 . S
C1368 C1369 1.373 . S
C1368 C1370 1.389 . S
C1369 H1348 0.950 . S
C1369 C1368 1.373 . S
C1369 C1385 1.377 . S
C1370 C1368 1.389 . S
C1370 C1371 1.524 . S
C1370 C1384 1.377 . S
C1371 C1370 1.524 . S
C1371 C1372 1.397 . S
C1371 C1376 1.363 . S
C1372 H1349 0.950 . S
C1372 C1371 1.397 . S
C1372 C1373 1.334 . S
C1373 H1350 0.950 . S
C1373 C1372 1.334 . S
C1373 C1374 1.287 . S
C1374 C1373 1.287 . S
C1374 C1375 1.524 . S
C1374 H1393 0.913 . S
C1375 H1351 0.950 . S
C1375 C1374 1.524 . S
C1375 C1376 1.415 . S
C1376 H1352 0.950 . S
C1376 C1371 1.363 . S
C1376 C1375 1.415 . S
C1377 H1353 0.951 . S
C1377 C1378 1.366 . S
C1377 C1379 1.388 . S
C1378 C1377 1.366 . S
C1378 C1382 1.385 . S
C1379 H1354 0.951 . S
C1379 C1377 1.388 . S
C1379 C1380 1.366 . S
C1380 C1379 1.366 . S
C1380 C1381 1.414 . S
C1380 C1383 1.499 . S
C1381 H1355 0.950 . S
C1381 C1380 1.414 . S
C1381 C1382 1.374 . S
C1382 H1356 0.950 . S
C1382 C1378 1.385 . S
C1382 C1381 1.374 . S
C1383 C1380 1.499 . S
C1383 C1384 1.373 . S
C1383 C1385 1.389 . S
C1384 H1357 0.950 . S
C1384 C1370 1.377 . S
C1384 C1383 1.373 . S
C1385 C1369 1.377 . S
C1385 C1383 1.389 . S
C1385 C1386 1.524 . S
C1386 C1385 1.524 . S
C1386 C1387 1.397 . S
C1386 C1391 1.363 . S
C1387 H1358 0.950 . S
C1387 C1386 1.397 . S
C1387 C1388 1.334 . S
C1388 H1359 0.950 . S
C1388 C1387 1.334 . S
C1388 C1389 1.287 . S
C1389 C1388 1.287 . S
C1389 C1390 1.524 . S
C1389 H1392 0.999 . S
C1390 H1360 0.950 . S
C1390 C1389 1.524 . S
C1390 C1391 1.415 . S
C1391 H1361 0.950 . S
C1391 C1386 1.363 . S
C1391 C1390 1.415 . S
H1392 C1389 0.999 . S
H1393 C1374 0.913 . S
H1394 C1412 0.951 . S
H1395 C1414 0.951 . S
H1396 C1416 0.950 . S
H1397 C1417 0.950 . S
H1398 C1419 0.950 . S
H1399 C1422 0.950 . S
H1400 C1423 0.950 . S
H1401 C1425 0.950 . S
H1402 C1426 0.950 . S
H1403 C1427 0.951 . S
H1404 C1429 0.951 . S
H1405 C1431 0.950 . S
H1406 C1432 0.950 . S
H1407 C1434 0.950 . S
H1408 C1437 0.950 . S
H1409 C1438 0.950 . S
H1410 C1440 0.950 . S
H1411 C1441 0.950 . S
C1412 H1394 0.951 . S
C1412 C1413 1.366 . S
C1412 C1414 1.388 . S
C1413 C1412 1.366 . S
C1413 C1417 1.385 . S
C1414 H1395 0.951 . S
C1414 C1412 1.388 . S
C1414 C1415 1.366 . S
C1415 C1414 1.366 . S
C1415 C1416 1.414 . S
C1415 C1418 1.499 . S
C1416 H1396 0.950 . S
C1416 C1415 1.414 . S
C1416 C1417 1.374 . S
C1417 H1397 0.950 . S
C1417 C1413 1.385 . S
C1417 C1416 1.374 . S
C1418 C1415 1.499 . S
C1418 C1419 1.373 . S
C1418 C1420 1.389 . S
C1419 H1398 0.950 . S
C1419 C1418 1.373 . S
C1419 C1435 1.377 . S
C1420 C1418 1.389 . S
C1420 C1421 1.524 . S
C1420 C1434 1.377 . S
C1421 C1420 1.524 . S
C1421 C1422 1.397 . S
C1421 C1426 1.363 . S
C1422 H1399 0.950 . S
C1422 C1421 1.397 . S
C1422 C1423 1.334 . S
C1423 H1400 0.950 . S
C1423 C1422 1.334 . S
C1423 C1424 1.287 . S
C1424 C1423 1.287 . S
C1424 C1425 1.524 . S
C1424 H1443 0.913 . S
C1425 H1401 0.950 . S
C1425 C1424 1.524 . S
C1425 C1426 1.415 . S
C1426 H1402 0.950 . S
C1426 C1421 1.363 . S
C1426 C1425 1.415 . S
C1427 H1403 0.951 . S
C1427 C1428 1.366 . S
C1427 C1429 1.388 . S
C1428 C1427 1.366 . S
C1428 C1432 1.385 . S
C1429 H1404 0.951 . S
C1429 C1427 1.388 . S
C1429 C1430 1.366 . S
C1430 C1429 1.366 . S
C1430 C1431 1.414 . S
C1430 C1433 1.499 . S
C1431 H1405 0.950 . S
C1431 C1430 1.414 . S
C1431 C1432 1.374 . S
C1432 H1406 0.950 . S
C1432 C1428 1.385 . S
C1432 C1431 1.374 . S
C1433 C1430 1.499 . S
C1433 C1434 1.373 . S
C1433 C1435 1.389 . S
C1434 H1407 0.950 . S
C1434 C1420 1.377 . S
C1434 C1433 1.373 . S
C1435 C1419 1.377 . S
C1435 C1433 1.389 . S
C1435 C1436 1.524 . S
C1436 C1435 1.524 . S
C1436 C1437 1.397 . S
C1436 C1441 1.363 . S
C1437 H1408 0.950 . S
C1437 C1436 1.397 . S
C1437 C1438 1.334 . S
C1438 H1409 0.950 . S
C1438 C1437 1.334 . S
C1438 C1439 1.287 . S
C1439 C1438 1.287 . S
C1439 C1440 1.524 . S
C1439 H1442 0.999 . S
C1440 H1410 0.950 . S
C1440 C1439 1.524 . S
C1440 C1441 1.415 . S
C1441 H1411 0.950 . S
C1441 C1436 1.363 . S
C1441 C1440 1.415 . S
H1442 C1439 0.999 . S
H1443 C1424 0.913 . S
H1444 C1462 0.951 . S
H1445 C1464 0.951 . S
H1446 C1466 0.950 . S
H1447 C1467 0.950 . S
H1448 C1469 0.950 . S
H1449 C1472 0.950 . S
H1450 C1473 0.950 . S
H1451 C1475 0.950 . S
H1452 C1476 0.950 . S
H1453 C1477 0.951 . S
H1454 C1479 0.951 . S
H1455 C1481 0.950 . S
H1456 C1482 0.950 . S
H1457 C1484 0.950 . S
H1458 C1487 0.950 . S
H1459 C1488 0.950 . S
H1460 C1490 0.950 . S
H1461 C1491 0.950 . S
C1462 H1444 0.951 . S
C1462 C1463 1.366 . S
C1462 C1464 1.388 . S
C1463 C1462 1.366 . S
C1463 C1467 1.385 . S
C1464 H1445 0.951 . S
C1464 C1462 1.388 . S
C1464 C1465 1.366 . S
C1465 C1464 1.366 . S
C1465 C1466 1.414 . S
C1465 C1468 1.499 . S
C1466 H1446 0.950 . S
C1466 C1465 1.414 . S
C1466 C1467 1.374 . S
C1467 H1447 0.950 . S
C1467 C1463 1.385 . S
C1467 C1466 1.374 . S
C1468 C1465 1.499 . S
C1468 C1469 1.373 . S
C1468 C1470 1.389 . S
C1469 H1448 0.950 . S
C1469 C1468 1.373 . S
C1469 C1485 1.377 . S
C1470 C1468 1.389 . S
C1470 C1471 1.524 . S
C1470 C1484 1.377 . S
C1471 C1470 1.524 . S
C1471 C1472 1.397 . S
C1471 C1476 1.363 . S
C1472 H1449 0.950 . S
C1472 C1471 1.397 . S
C1472 C1473 1.334 . S
C1473 H1450 0.950 . S
C1473 C1472 1.334 . S
C1473 C1474 1.287 . S
C1474 C1473 1.287 . S
C1474 C1475 1.524 . S
C1474 H1493 0.913 . S
C1475 H1451 0.950 . S
C1475 C1474 1.524 . S
C1475 C1476 1.415 . S
C1476 H1452 0.950 . S
C1476 C1471 1.363 . S
C1476 C1475 1.415 . S
C1477 H1453 0.951 . S
C1477 C1478 1.366 . S
C1477 C1479 1.388 . S
C1478 C1477 1.366 . S
C1478 C1482 1.385 . S
C1479 H1454 0.951 . S
C1479 C1477 1.388 . S
C1479 C1480 1.366 . S
C1480 C1479 1.366 . S
C1480 C1481 1.414 . S
C1480 C1483 1.499 . S
C1481 H1455 0.950 . S
C1481 C1480 1.414 . S
C1481 C1482 1.374 . S
C1482 H1456 0.950 . S
C1482 C1478 1.385 . S
C1482 C1481 1.374 . S
C1483 C1480 1.499 . S
C1483 C1484 1.373 . S
C1483 C1485 1.389 . S
C1484 H1457 0.950 . S
C1484 C1470 1.377 . S
C1484 C1483 1.373 . S
C1485 C1469 1.377 . S
C1485 C1483 1.389 . S
C1485 C1486 1.524 . S
C1486 C1485 1.524 . S
C1486 C1487 1.397 . S
C1486 C1491 1.363 . S
C1487 H1458 0.950 . S
C1487 C1486 1.397 . S
C1487 C1488 1.334 . S
C1488 H1459 0.950 . S
C1488 C1487 1.334 . S
C1488 C1489 1.287 . S
C1489 C1488 1.287 . S
C1489 C1490 1.524 . S
C1489 H1492 0.999 . S
C1490 H1460 0.950 . S
C1490 C1489 1.524 . S
C1490 C1491 1.415 . S
C1491 H1461 0.950 . S
C1491 C1486 1.363 . S
C1491 C1490 1.415 . S
H1492 C1489 0.999 . S
H1493 C1474 0.913 . S
H1494 C1512 0.951 . S
H1495 C1514 0.951 . S
H1496 C1516 0.950 . S
H1497 C1517 0.950 . S
H1498 C1519 0.950 . S
H1499 C1522 0.950 . S
H1500 C1523 0.950 . S
H1501 C1525 0.950 . S
H1502 C1526 0.950 . S
H1503 C1527 0.951 . S
H1504 C1529 0.951 . S
H1505 C1531 0.950 . S
H1506 C1532 0.950 . S
H1507 C1534 0.950 . S
H1508 C1537 0.950 . S
H1509 C1538 0.950 . S
H1510 C1540 0.950 . S
H1511 C1541 0.950 . S
C1512 H1494 0.951 . S
C1512 C1513 1.366 . S
C1512 C1514 1.388 . S
C1513 C1512 1.366 . S
C1513 C1517 1.385 . S
C1514 H1495 0.951 . S
C1514 C1512 1.388 . S
C1514 C1515 1.366 . S
C1515 C1514 1.366 . S
C1515 C1516 1.414 . S
C1515 C1518 1.499 . S
C1516 H1496 0.950 . S
C1516 C1515 1.414 . S
C1516 C1517 1.374 . S
C1517 H1497 0.950 . S
C1517 C1513 1.385 . S
C1517 C1516 1.374 . S
C1518 C1515 1.499 . S
C1518 C1519 1.373 . S
C1518 C1520 1.389 . S
C1519 H1498 0.950 . S
C1519 C1518 1.373 . S
C1519 C1535 1.377 . S
C1520 C1518 1.389 . S
C1520 C1521 1.524 . S
C1520 C1534 1.377 . S
C1521 C1520 1.524 . S
C1521 C1522 1.397 . S
C1521 C1526 1.363 . S
C1522 H1499 0.950 . S
C1522 C1521 1.397 . S
C1522 C1523 1.334 . S
C1523 H1500 0.950 . S
C1523 C1522 1.334 . S
C1523 C1524 1.287 . S
C1524 C1523 1.287 . S
C1524 C1525 1.524 . S
C1524 H1543 0.913 . S
C1525 H1501 0.950 . S
C1525 C1524 1.524 . S
C1525 C1526 1.415 . S
C1526 H1502 0.950 . S
C1526 C1521 1.363 . S
C1526 C1525 1.415 . S
C1527 H1503 0.951 . S
C1527 C1528 1.366 . S
C1527 C1529 1.388 . S
C1528 C1527 1.366 . S
C1528 C1532 1.385 . S
C1529 H1504 0.951 . S
C1529 C1527 1.388 . S
C1529 C1530 1.366 . S
C1530 C1529 1.366 . S
C1530 C1531 1.414 . S
C1530 C1533 1.499 . S
C1531 H1505 0.950 . S
C1531 C1530 1.414 . S
C1531 C1532 1.374 . S
C1532 H1506 0.950 . S
C1532 C1528 1.385 . S
C1532 C1531 1.374 . S
C1533 C1530 1.499 . S
C1533 C1534 1.373 . S
C1533 C1535 1.389 . S
C1534 H1507 0.950 . S
C1534 C1520 1.377 . S
C1534 C1533 1.373 . S
C1535 C1519 1.377 . S
C1535 C1533 1.389 . S
C1535 C1536 1.524 . S
C1536 C1535 1.524 . S
C1536 C1537 1.397 . S
C1536 C1541 1.363 . S
C1537 H1508 0.950 . S
C1537 C1536 1.397 . S
C1537 C1538 1.334 . S
C1538 H1509 0.950 . S
C1538 C1537 1.334 . S
C1538 C1539 1.287 . S
C1539 C1538 1.287 . S
C1539 C1540 1.524 . S
C1539 H1542 0.999 . S
C1540 H1510 0.950 . S
C1540 C1539 1.524 . S
C1540 C1541 1.415 . S
C1541 H1511 0.950 . S
C1541 C1536 1.363 . S
C1541 C1540 1.415 . S
H1542 C1539 0.999 . S
H1543 C1524 0.913 . S
H1544 C1562 0.951 . S
H1545 C1564 0.951 . S
H1546 C1566 0.950 . S
H1547 C1567 0.950 . S
H1548 C1569 0.950 . S
H1549 C1572 0.950 . S
H1550 C1573 0.950 . S
H1551 C1575 0.950 . S
H1552 C1576 0.950 . S
H1553 C1577 0.951 . S
H1554 C1579 0.951 . S
H1555 C1581 0.950 . S
H1556 C1582 0.950 . S
H1557 C1584 0.950 . S
H1558 C1587 0.950 . S
H1559 C1588 0.950 . S
H1560 C1590 0.950 . S
H1561 C1591 0.950 . S
C1562 H1544 0.951 . S
C1562 C1563 1.366 . S
C1562 C1564 1.388 . S
C1563 C1562 1.366 . S
C1563 C1567 1.385 . S
C1564 H1545 0.951 . S
C1564 C1562 1.388 . S
C1564 C1565 1.366 . S
C1565 C1564 1.366 . S
C1565 C1566 1.414 . S
C1565 C1568 1.499 . S
C1566 H1546 0.950 . S
C1566 C1565 1.414 . S
C1566 C1567 1.374 . S
C1567 H1547 0.950 . S
C1567 C1563 1.385 . S
C1567 C1566 1.374 . S
C1568 C1565 1.499 . S
C1568 C1569 1.373 . S
C1568 C1570 1.389 . S
C1569 H1548 0.950 . S
C1569 C1568 1.373 . S
C1569 C1585 1.377 . S
C1570 C1568 1.389 . S
C1570 C1571 1.524 . S
C1570 C1584 1.377 . S
C1571 C1570 1.524 . S
C1571 C1572 1.397 . S
C1571 C1576 1.363 . S
C1572 H1549 0.950 . S
C1572 C1571 1.397 . S
C1572 C1573 1.334 . S
C1573 H1550 0.950 . S
C1573 C1572 1.334 . S
C1573 C1574 1.287 . S
C1574 C1573 1.287 . S
C1574 C1575 1.524 . S
C1574 H1593 0.913 . S
C1575 H1551 0.950 . S
C1575 C1574 1.524 . S
C1575 C1576 1.415 . S
C1576 H1552 0.950 . S
C1576 C1571 1.363 . S
C1576 C1575 1.415 . S
C1577 H1553 0.951 . S
C1577 C1578 1.366 . S
C1577 C1579 1.388 . S
C1578 C1577 1.366 . S
C1578 C1582 1.385 . S
C1579 H1554 0.951 . S
C1579 C1577 1.388 . S
C1579 C1580 1.366 . S
C1580 C1579 1.366 . S
C1580 C1581 1.414 . S
C1580 C1583 1.499 . S
C1581 H1555 0.950 . S
C1581 C1580 1.414 . S
C1581 C1582 1.374 . S
C1582 H1556 0.950 . S
C1582 C1578 1.385 . S
C1582 C1581 1.374 . S
C1583 C1580 1.499 . S
C1583 C1584 1.373 . S
C1583 C1585 1.389 . S
C1584 H1557 0.950 . S
C1584 C1570 1.377 . S
C1584 C1583 1.373 . S
C1585 C1569 1.377 . S
C1585 C1583 1.389 . S
C1585 C1586 1.524 . S
C1586 C1585 1.524 . S
C1586 C1587 1.397 . S
C1586 C1591 1.363 . S
C1587 H1558 0.950 . S
C1587 C1586 1.397 . S
C1587 C1588 1.334 . S
C1588 H1559 0.950 . S
C1588 C1587 1.334 . S
C1588 C1589 1.287 . S
C1589 C1588 1.287 . S
C1589 C1590 1.524 . S
C1589 H1592 0.999 . S
C1590 H1560 0.950 . S
C1590 C1589 1.524 . S
C1590 C1591 1.415 . S
C1591 H1561 0.950 . S
C1591 C1586 1.363 . S
C1591 C1590 1.415 . S
H1592 C1589 0.999 . S
H1593 C1574 0.913 . S
H1594 C1612 0.951 . S
H1595 C1614 0.951 . S
H1596 C1616 0.950 . S
H1597 C1617 0.950 . S
H1598 C1619 0.950 . S
H1599 C1622 0.950 . S
H1600 C1623 0.950 . S
H1601 C1625 0.950 . S
H1602 C1626 0.950 . S
H1603 C1627 0.951 . S
H1604 C1629 0.951 . S
H1605 C1631 0.950 . S
H1606 C1632 0.950 . S
H1607 C1634 0.950 . S
H1608 C1637 0.950 . S
H1609 C1638 0.950 . S
H1610 C1640 0.950 . S
H1611 C1641 0.950 . S
C1612 H1594 0.951 . S
C1612 C1613 1.366 . S
C1612 C1614 1.388 . S
C1613 C1612 1.366 . S
C1613 C1617 1.385 . S
C1614 H1595 0.951 . S
C1614 C1612 1.388 . S
C1614 C1615 1.366 . S
C1615 C1614 1.366 . S
C1615 C1616 1.414 . S
C1615 C1618 1.499 . S
C1616 H1596 0.950 . S
C1616 C1615 1.414 . S
C1616 C1617 1.374 . S
C1617 H1597 0.950 . S
C1617 C1613 1.385 . S
C1617 C1616 1.374 . S
C1618 C1615 1.499 . S
C1618 C1619 1.373 . S
C1618 C1620 1.389 . S
C1619 H1598 0.950 . S
C1619 C1618 1.373 . S
C1619 C1635 1.377 . S
C1620 C1618 1.389 . S
C1620 C1621 1.524 . S
C1620 C1634 1.377 . S
C1621 C1620 1.524 . S
C1621 C1622 1.397 . S
C1621 C1626 1.363 . S
C1622 H1599 0.950 . S
C1622 C1621 1.397 . S
C1622 C1623 1.334 . S
C1623 H1600 0.950 . S
C1623 C1622 1.334 . S
C1623 C1624 1.287 . S
C1624 C1623 1.287 . S
C1624 C1625 1.524 . S
C1624 H1643 0.913 . S
C1625 H1601 0.950 . S
C1625 C1624 1.524 . S
C1625 C1626 1.415 . S
C1626 H1602 0.950 . S
C1626 C1621 1.363 . S
C1626 C1625 1.415 . S
C1627 H1603 0.951 . S
C1627 C1628 1.366 . S
C1627 C1629 1.388 . S
C1628 C1627 1.366 . S
C1628 C1632 1.385 . S
C1629 H1604 0.951 . S
C1629 C1627 1.388 . S
C1629 C1630 1.366 . S
C1630 C1629 1.366 . S
C1630 C1631 1.414 . S
C1630 C1633 1.499 . S
C1631 H1605 0.950 . S
C1631 C1630 1.414 . S
C1631 C1632 1.374 . S
C1632 H1606 0.950 . S
C1632 C1628 1.385 . S
C1632 C1631 1.374 . S
C1633 C1630 1.499 . S
C1633 C1634 1.373 . S
C1633 C1635 1.389 . S
C1634 H1607 0.950 . S
C1634 C1620 1.377 . S
C1634 C1633 1.373 . S
C1635 C1619 1.377 . S
C1635 C1633 1.389 . S
C1635 C1636 1.524 . S
C1636 C1635 1.524 . S
C1636 C1637 1.397 . S
C1636 C1641 1.363 . S
C1637 H1608 0.950 . S
C1637 C1636 1.397 . S
C1637 C1638 1.334 . S
C1638 H1609 0.950 . S
C1638 C1637 1.334 . S
C1638 C1639 1.287 . S
C1639 C1638 1.287 . S
C1639 C1640 1.524 . S
C1639 H1642 0.999 . S
C1640 H1610 0.950 . S
C1640 C1639 1.524 . S
C1640 C1641 1.415 . S
C1641 H1611 0.950 . S
C1641 C1636 1.363 . S
C1641 C1640 1.415 . S
H1642 C1639 0.999 . S
H1643 C1624 0.913 . S
H1644 C1662 0.951 . S
H1645 C1664 0.951 . S
H1646 C1666 0.950 . S
H1647 C1667 0.950 . S
H1648 C1669 0.950 . S
H1649 C1672 0.950 . S
H1650 C1673 0.950 . S
H1651 C1675 0.950 . S
H1652 C1676 0.950 . S
H1653 C1677 0.951 . S
H1654 C1679 0.951 . S
H1655 C1681 0.950 . S
H1656 C1682 0.950 . S
H1657 C1684 0.950 . S
H1658 C1687 0.950 . S
H1659 C1688 0.950 . S
H1660 C1690 0.950 . S
H1661 C1691 0.950 . S
C1662 H1644 0.951 . S
C1662 C1663 1.366 . S
C1662 C1664 1.388 . S
C1663 C1662 1.366 . S
C1663 C1667 1.385 . S
C1664 H1645 0.951 . S
C1664 C1662 1.388 . S
C1664 C1665 1.366 . S
C1665 C1664 1.366 . S
C1665 C1666 1.414 . S
C1665 C1668 1.499 . S
C1666 H1646 0.950 . S
C1666 C1665 1.414 . S
C1666 C1667 1.374 . S
C1667 H1647 0.950 . S
C1667 C1663 1.385 . S
C1667 C1666 1.374 . S
C1668 C1665 1.499 . S
C1668 C1669 1.373 . S
C1668 C1670 1.389 . S
C1669 H1648 0.950 . S
C1669 C1668 1.373 . S
C1669 C1685 1.377 . S
C1670 C1668 1.389 . S
C1670 C1671 1.524 . S
C1670 C1684 1.377 . S
C1671 C1670 1.524 . S
C1671 C1672 1.397 . S
C1671 C1676 1.363 . S
C1672 H1649 0.950 . S
C1672 C1671 1.397 . S
C1672 C1673 1.334 . S
C1673 H1650 0.950 . S
C1673 C1672 1.334 . S
C1673 C1674 1.287 . S
C1674 C1673 1.287 . S
C1674 C1675 1.524 . S
C1674 H1693 0.913 . S
C1675 H1651 0.950 . S
C1675 C1674 1.524 . S
C1675 C1676 1.415 . S
C1676 H1652 0.950 . S
C1676 C1671 1.363 . S
C1676 C1675 1.415 . S
C1677 H1653 0.951 . S
C1677 C1678 1.366 . S
C1677 C1679 1.388 . S
C1678 C1677 1.366 . S
C1678 C1682 1.385 . S
C1679 H1654 0.951 . S
C1679 C1677 1.388 . S
C1679 C1680 1.366 . S
C1680 C1679 1.366 . S
C1680 C1681 1.414 . S
C1680 C1683 1.499 . S
C1681 H1655 0.950 . S
C1681 C1680 1.414 . S
C1681 C1682 1.374 . S
C1682 H1656 0.950 . S
C1682 C1678 1.385 . S
C1682 C1681 1.374 . S
C1683 C1680 1.499 . S
C1683 C1684 1.373 . S
C1683 C1685 1.389 . S
C1684 H1657 0.950 . S
C1684 C1670 1.377 . S
C1684 C1683 1.373 . S
C1685 C1669 1.377 . S
C1685 C1683 1.389 . S
C1685 C1686 1.524 . S
C1686 C1685 1.524 . S
C1686 C1687 1.397 . S
C1686 C1691 1.363 . S
C1687 H1658 0.950 . S
C1687 C1686 1.397 . S
C1687 C1688 1.334 . S
C1688 H1659 0.950 . S
C1688 C1687 1.334 . S
C1688 C1689 1.287 . S
C1689 C1688 1.287 . S
C1689 C1690 1.524 . S
C1689 H1692 0.999 . S
C1690 H1660 0.950 . S
C1690 C1689 1.524 . S
C1690 C1691 1.415 . S
C1691 H1661 0.950 . S
C1691 C1686 1.363 . S
C1691 C1690 1.415 . S
H1692 C1689 0.999 . S
H1693 C1674 0.913 . S
H1694 C1712 0.951 . S
H1695 C1714 0.951 . S
H1696 C1716 0.950 . S
H1697 C1717 0.950 . S
H1698 C1719 0.950 . S
H1699 C1722 0.950 . S
H1700 C1723 0.950 . S
H1701 C1725 0.950 . S
H1702 C1726 0.950 . S
H1703 C1727 0.951 . S
H1704 C1729 0.951 . S
H1705 C1731 0.950 . S
H1706 C1732 0.950 . S
H1707 C1734 0.950 . S
H1708 C1737 0.950 . S
H1709 C1738 0.950 . S
H1710 C1740 0.950 . S
H1711 C1741 0.950 . S
C1712 H1694 0.951 . S
C1712 C1713 1.366 . S
C1712 C1714 1.388 . S
C1713 C1712 1.366 . S
C1713 C1717 1.385 . S
C1714 H1695 0.951 . S
C1714 C1712 1.388 . S
C1714 C1715 1.366 . S
C1715 C1714 1.366 . S
C1715 C1716 1.414 . S
C1715 C1718 1.499 . S
C1716 H1696 0.950 . S
C1716 C1715 1.414 . S
C1716 C1717 1.374 . S
C1717 H1697 0.950 . S
C1717 C1713 1.385 . S
C1717 C1716 1.374 . S
C1718 C1715 1.499 . S
C1718 C1719 1.373 . S
C1718 C1720 1.389 . S
C1719 H1698 0.950 . S
C1719 C1718 1.373 . S
C1719 C1735 1.377 . S
C1720 C1718 1.389 . S
C1720 C1721 1.524 . S
C1720 C1734 1.377 . S
C1721 C1720 1.524 . S
C1721 C1722 1.397 . S
C1721 C1726 1.363 . S
C1722 H1699 0.950 . S
C1722 C1721 1.397 . S
C1722 C1723 1.334 . S
C1723 H1700 0.950 . S
C1723 C1722 1.334 . S
C1723 C1724 1.287 . S
C1724 C1723 1.287 . S
C1724 C1725 1.524 . S
C1724 H1743 0.913 . S
C1725 H1701 0.950 . S
C1725 C1724 1.524 . S
C1725 C1726 1.415 . S
C1726 H1702 0.950 . S
C1726 C1721 1.363 . S
C1726 C1725 1.415 . S
C1727 H1703 0.951 . S
C1727 C1728 1.366 . S
C1727 C1729 1.388 . S
C1728 C1727 1.366 . S
C1728 C1732 1.385 . S
C1729 H1704 0.951 . S
C1729 C1727 1.388 . S
C1729 C1730 1.366 . S
C1730 C1729 1.366 . S
C1730 C1731 1.414 . S
C1730 C1733 1.499 . S
C1731 H1705 0.950 . S
C1731 C1730 1.414 . S
C1731 C1732 1.374 . S
C1732 H1706 0.950 . S
C1732 C1728 1.385 . S
C1732 C1731 1.374 . S
C1733 C1730 1.499 . S
C1733 C1734 1.373 . S
C1733 C1735 1.389 . S
C1734 H1707 0.950 . S
C1734 C1720 1.377 . S
C1734 C1733 1.373 . S
C1735 C1719 1.377 . S
C1735 C1733 1.389 . S
C1735 C1736 1.524 . S
C1736 C1735 1.524 . S
C1736 C1737 1.397 . S
C1736 C1741 1.363 . S
C1737 H1708 0.950 . S
C1737 C1736 1.397 . S
C1737 C1738 1.334 . S
C1738 H1709 0.950 . S
C1738 C1737 1.334 . S
C1738 C1739 1.287 . S
C1739 C1738 1.287 . S
C1739 C1740 1.524 . S
C1739 H1742 0.999 . S
C1740 H1710 0.950 . S
C1740 C1739 1.524 . S
C1740 C1741 1.415 . S
C1741 H1711 0.950 . S
C1741 C1736 1.363 . S
C1741 C1740 1.415 . S
H1742 C1739 0.999 . S
H1743 C1724 0.913 . S
H1744 C1762 0.951 . S
H1745 C1764 0.951 . S
H1746 C1766 0.950 . S
H1747 C1767 0.950 . S
H1748 C1769 0.950 . S
H1749 C1772 0.950 . S
H1750 C1773 0.950 . S
H1751 C1775 0.950 . S
H1752 C1776 0.950 . S
H1753 C1777 0.951 . S
H1754 C1779 0.951 . S
H1755 C1781 0.950 . S
H1756 C1782 0.950 . S
H1757 C1784 0.950 . S
H1758 C1787 0.950 . S
H1759 C1788 0.950 . S
H1760 C1790 0.950 . S
H1761 C1791 0.950 . S
C1762 H1744 0.951 . S
C1762 C1763 1.366 . S
C1762 C1764 1.388 . S
C1763 C1762 1.366 . S
C1763 C1767 1.385 . S
C1764 H1745 0.951 . S
C1764 C1762 1.388 . S
C1764 C1765 1.366 . S
C1765 C1764 1.366 . S
C1765 C1766 1.414 . S
C1765 C1768 1.499 . S
C1766 H1746 0.950 . S
C1766 C1765 1.414 . S
C1766 C1767 1.374 . S
C1767 H1747 0.950 . S
C1767 C1763 1.385 . S
C1767 C1766 1.374 . S
C1768 C1765 1.499 . S
C1768 C1769 1.373 1_556 S
C1768 C1770 1.389 . S
C1769 H1748 0.950 . S
C1769 C1768 1.373 1_554 S
C1769 C1785 1.377 . S
C1770 C1768 1.389 . S
C1770 C1771 1.524 . S
C1770 C1784 1.377 . S
C1771 C1770 1.524 . S
C1771 C1772 1.397 . S
C1771 C1776 1.363 . S
C1772 H1749 0.950 . S
C1772 C1771 1.397 . S
C1772 C1773 1.334 . S
C1773 H1750 0.950 . S
C1773 C1772 1.334 . S
C1773 C1774 1.287 . S
C1774 C1773 1.287 . S
C1774 C1775 1.524 . S
C1774 H1793 0.913 . S
C1775 H1751 0.950 . S
C1775 C1774 1.524 . S
C1775 C1776 1.415 . S
C1776 H1752 0.950 . S
C1776 C1771 1.363 . S
C1776 C1775 1.415 . S
C1777 H1753 0.951 . S
C1777 C1778 1.366 . S
C1777 C1779 1.388 . S
C1778 C1777 1.366 . S
C1778 C1782 1.385 . S
C1779 H1754 0.951 . S
C1779 C1777 1.388 . S
C1779 C1780 1.366 . S
C1780 C1779 1.366 . S
C1780 C1781 1.414 . S
C1780 C1783 1.499 . S
C1781 H1755 0.950 . S
C1781 C1780 1.414 . S
C1781 C1782 1.374 . S
C1782 H1756 0.950 . S
C1782 C1778 1.385 . S
C1782 C1781 1.374 . S
C1783 C1780 1.499 . S
C1783 C1784 1.373 1_554 S
C1783 C1785 1.389 . S
C1784 H1757 0.950 . S
C1784 C1770 1.377 . S
C1784 C1783 1.373 1_556 S
C1785 C1769 1.377 . S
C1785 C1783 1.389 . S
C1785 C1786 1.524 . S
C1786 C1785 1.524 . S
C1786 C1787 1.397 . S
C1786 C1791 1.363 . S
C1787 H1758 0.950 . S
C1787 C1786 1.397 . S
C1787 C1788 1.334 . S
C1788 H1759 0.950 . S
C1788 C1787 1.334 . S
C1788 C1789 1.287 . S
C1789 C1788 1.287 . S
C1789 C1790 1.524 . S
C1789 H1792 0.999 . S
C1790 H1760 0.950 . S
C1790 C1789 1.524 . S
C1790 C1791 1.415 . S
C1791 H1761 0.950 . S
C1791 C1786 1.363 . S
C1791 C1790 1.415 . S
H1792 C1789 0.999 . S
H1793 C1774 0.913 . S
H1794 C1812 0.951 . S
H1795 C1814 0.951 . S
H1796 C1816 0.950 . S
H1797 C1817 0.950 . S
H1798 C1819 0.950 . S
H1799 C1822 0.950 . S
H1800 C1823 0.950 . S
H1801 C1825 0.950 . S
H1802 C1826 0.950 . S
H1803 C1827 0.951 . S
H1804 C1829 0.951 . S
H1805 C1831 0.950 . S
H1806 C1832 0.950 . S
H1807 C1834 0.950 . S
H1808 C1837 0.950 . S
H1809 C1838 0.950 . S
H1810 C1840 0.950 . S
H1811 C1841 0.950 . S
C1812 H1794 0.951 . S
C1812 C1813 1.366 . S
C1812 C1814 1.388 . S
C1813 C1812 1.366 . S
C1813 C1817 1.385 . S
C1814 H1795 0.951 . S
C1814 C1812 1.388 . S
C1814 C1815 1.366 . S
C1815 C1814 1.366 . S
C1815 C1816 1.414 . S
C1815 C1818 1.499 . S
C1816 H1796 0.950 . S
C1816 C1815 1.414 . S
C1816 C1817 1.374 . S
C1817 H1797 0.950 . S
C1817 C1813 1.385 . S
C1817 C1816 1.374 . S
C1818 C1815 1.499 . S
C1818 C1819 1.373 . S
C1818 C1820 1.389 . S
C1819 H1798 0.950 . S
C1819 C1818 1.373 . S
C1819 C1835 1.377 . S
C1820 C1818 1.389 . S
C1820 C1821 1.524 . S
C1820 C1834 1.377 . S
C1821 C1820 1.524 . S
C1821 C1822 1.397 . S
C1821 C1826 1.363 . S
C1822 H1799 0.950 . S
C1822 C1821 1.397 . S
C1822 C1823 1.334 . S
C1823 H1800 0.950 . S
C1823 C1822 1.334 . S
C1823 C1824 1.287 . S
C1824 C1823 1.287 . S
C1824 C1825 1.524 . S
C1824 H1843 0.913 . S
C1825 H1801 0.950 . S
C1825 C1824 1.524 . S
C1825 C1826 1.415 . S
C1826 H1802 0.950 . S
C1826 C1821 1.363 . S
C1826 C1825 1.415 . S
C1827 H1803 0.951 . S
C1827 C1828 1.366 . S
C1827 C1829 1.388 . S
C1828 C1827 1.366 . S
C1828 C1832 1.385 . S
C1829 H1804 0.951 . S
C1829 C1827 1.388 . S
C1829 C1830 1.366 . S
C1830 C1829 1.366 . S
C1830 C1831 1.414 . S
C1830 C1833 1.499 . S
C1831 H1805 0.950 . S
C1831 C1830 1.414 . S
C1831 C1832 1.374 . S
C1832 H1806 0.950 . S
C1832 C1828 1.385 . S
C1832 C1831 1.374 . S
C1833 C1830 1.499 . S
C1833 C1834 1.373 . S
C1833 C1835 1.389 . S
C1834 H1807 0.950 . S
C1834 C1820 1.377 . S
C1834 C1833 1.373 . S
C1835 C1819 1.377 . S
C1835 C1833 1.389 . S
C1835 C1836 1.524 . S
C1836 C1835 1.524 . S
C1836 C1837 1.397 . S
C1836 C1841 1.363 . S
C1837 H1808 0.950 . S
C1837 C1836 1.397 . S
C1837 C1838 1.334 . S
C1838 H1809 0.950 . S
C1838 C1837 1.334 . S
C1838 C1839 1.287 . S
C1839 C1838 1.287 . S
C1839 C1840 1.524 . S
C1839 H1842 0.999 . S
C1840 H1810 0.950 . S
C1840 C1839 1.524 . S
C1840 C1841 1.415 . S
C1841 H1811 0.950 . S
C1841 C1836 1.363 . S
C1841 C1840 1.415 . S
H1842 C1839 0.999 . S
H1843 C1824 0.913 . S
H1844 C1862 0.951 . S
H1845 C1864 0.951 . S
H1846 C1866 0.950 . S
H1847 C1867 0.950 . S
H1848 C1869 0.950 . S
H1849 C1872 0.950 . S
H1850 C1873 0.950 . S
H1851 C1875 0.950 . S
H1852 C1876 0.950 1_556 S
H1853 C1877 0.951 . S
H1854 C1879 0.951 . S
H1855 C1881 0.950 . S
H1856 C1882 0.950 . S
H1857 C1884 0.950 . S
H1858 C1887 0.950 . S
H1859 C1888 0.950 . S
H1860 C1890 0.950 . S
H1861 C1891 0.950 1_554 S
C1862 H1844 0.951 . S
C1862 C1863 1.366 . S
C1862 C1864 1.388 . S
C1863 C1862 1.366 . S
C1863 C1867 1.385 . S
C1864 H1845 0.951 . S
C1864 C1862 1.388 . S
C1864 C1865 1.366 . S
C1865 C1864 1.366 . S
C1865 C1866 1.414 . S
C1865 C1868 1.499 . S
C1866 H1846 0.950 . S
C1866 C1865 1.414 . S
C1866 C1867 1.374 . S
C1867 H1847 0.950 . S
C1867 C1863 1.385 . S
C1867 C1866 1.374 . S
C1868 C1865 1.499 . S
C1868 C1869 1.373 . S
C1868 C1870 1.389 . S
C1869 H1848 0.950 . S
C1869 C1868 1.373 . S
C1869 C1885 1.377 1_554 S
C1870 C1868 1.389 . S
C1870 C1871 1.524 . S
C1870 C1884 1.377 1_554 S
C1871 C1870 1.524 . S
C1871 C1872 1.397 . S
C1871 C1876 1.363 . S
C1872 H1849 0.950 . S
C1872 C1871 1.397 . S
C1872 C1873 1.334 . S
C1873 H1850 0.950 . S
C1873 C1872 1.334 . S
C1873 C1874 1.287 . S
C1874 C1873 1.287 . S
C1874 C1875 1.524 . S
C1874 H1893 0.913 . S
C1875 H1851 0.950 . S
C1875 C1874 1.524 . S
C1875 C1876 1.415 . S
C1876 H1852 0.950 1_554 S
C1876 C1871 1.363 . S
C1876 C1875 1.415 . S
C1877 H1853 0.951 . S
C1877 C1878 1.366 . S
C1877 C1879 1.388 . S
C1878 C1877 1.366 . S
C1878 C1882 1.385 . S
C1879 H1854 0.951 . S
C1879 C1877 1.388 . S
C1879 C1880 1.366 . S
C1880 C1879 1.366 . S
C1880 C1881 1.414 . S
C1880 C1883 1.499 . S
C1881 H1855 0.950 . S
C1881 C1880 1.414 . S
C1881 C1882 1.374 . S
C1882 H1856 0.950 . S
C1882 C1878 1.385 . S
C1882 C1881 1.374 . S
C1883 C1880 1.499 . S
C1883 C1884 1.373 . S
C1883 C1885 1.389 . S
C1884 H1857 0.950 . S
C1884 C1870 1.377 1_556 S
C1884 C1883 1.373 . S
C1885 C1869 1.377 1_556 S
C1885 C1883 1.389 . S
C1885 C1886 1.524 . S
C1886 C1885 1.524 . S
C1886 C1887 1.397 . S
C1886 C1891 1.363 . S
C1887 H1858 0.950 . S
C1887 C1886 1.397 . S
C1887 C1888 1.334 . S
C1888 H1859 0.950 . S
C1888 C1887 1.334 . S
C1888 C1889 1.287 . S
C1889 C1888 1.287 . S
C1889 C1890 1.524 . S
C1889 H1892 0.999 . S
C1890 H1860 0.950 . S
C1890 C1889 1.524 . S
C1890 C1891 1.415 . S
C1891 H1861 0.950 1_556 S
C1891 C1886 1.363 . S
C1891 C1890 1.415 . S
H1892 C1889 0.999 . S
H1893 C1874 0.913 . S
H1894 C1912 0.951 . S
H1895 C1914 0.951 . S
H1896 C1916 0.950 . S
H1897 C1917 0.950 . S
H1898 C1919 0.950 . S
H1899 C1922 0.950 . S
H1900 C1923 0.950 . S
H1901 C1925 0.950 . S
H1902 C1926 0.950 . S
H1903 C1927 0.951 . S
H1904 C1929 0.951 . S
H1905 C1931 0.950 . S
H1906 C1932 0.950 . S
H1907 C1934 0.950 . S
H1908 C1937 0.950 . S
H1909 C1938 0.950 . S
H1910 C1940 0.950 . S
H1911 C1941 0.950 . S
C1912 H1894 0.951 . S
C1912 C1913 1.366 . S
C1912 C1914 1.388 . S
C1913 C1912 1.366 . S
C1913 C1917 1.385 . S
C1914 H1895 0.951 . S
C1914 C1912 1.388 . S
C1914 C1915 1.366 . S
C1915 C1914 1.366 . S
C1915 C1916 1.414 . S
C1915 C1918 1.499 . S
C1916 H1896 0.950 . S
C1916 C1915 1.414 . S
C1916 C1917 1.374 . S
C1917 H1897 0.950 . S
C1917 C1913 1.385 . S
C1917 C1916 1.374 . S
C1918 C1915 1.499 . S
C1918 C1919 1.373 . S
C1918 C1920 1.389 . S
C1919 H1898 0.950 . S
C1919 C1918 1.373 . S
C1919 C1935 1.377 . S
C1920 C1918 1.389 . S
C1920 C1921 1.524 . S
C1920 C1934 1.377 . S
C1921 C1920 1.524 . S
C1921 C1922 1.397 . S
C1921 C1926 1.363 . S
C1922 H1899 0.950 . S
C1922 C1921 1.397 . S
C1922 C1923 1.334 . S
C1923 H1900 0.950 . S
C1923 C1922 1.334 . S
C1923 C1924 1.287 . S
C1924 C1923 1.287 . S
C1924 C1925 1.524 . S
C1924 H1943 0.913 . S
C1925 H1901 0.950 . S
C1925 C1924 1.524 . S
C1925 C1926 1.415 . S
C1926 H1902 0.950 . S
C1926 C1921 1.363 . S
C1926 C1925 1.415 . S
C1927 H1903 0.951 . S
C1927 C1928 1.366 . S
C1927 C1929 1.388 . S
C1928 C1927 1.366 . S
C1928 C1932 1.385 . S
C1929 H1904 0.951 . S
C1929 C1927 1.388 . S
C1929 C1930 1.366 . S
C1930 C1929 1.366 . S
C1930 C1931 1.414 . S
C1930 C1933 1.499 . S
C1931 H1905 0.950 . S
C1931 C1930 1.414 . S
C1931 C1932 1.374 . S
C1932 H1906 0.950 . S
C1932 C1928 1.385 . S
C1932 C1931 1.374 . S
C1933 C1930 1.499 . S
C1933 C1934 1.373 . S
C1933 C1935 1.389 . S
C1934 H1907 0.950 . S
C1934 C1920 1.377 . S
C1934 C1933 1.373 . S
C1935 C1919 1.377 . S
C1935 C1933 1.389 . S
C1935 C1936 1.524 . S
C1936 C1935 1.524 . S
C1936 C1937 1.397 . S
C1936 C1941 1.363 . S
C1937 H1908 0.950 . S
C1937 C1936 1.397 . S
C1937 C1938 1.334 . S
C1938 H1909 0.950 . S
C1938 C1937 1.334 . S
C1938 C1939 1.287 . S
C1939 C1938 1.287 . S
C1939 C1940 1.524 . S
C1939 H1942 0.999 . S
C1940 H1910 0.950 . S
C1940 C1939 1.524 . S
C1940 C1941 1.415 . S
C1941 H1911 0.950 . S
C1941 C1936 1.363 . S
C1941 C1940 1.415 . S
H1942 C1939 0.999 . S
H1943 C1924 0.913 . S
H1944 C1962 0.951 . S
H1945 C1964 0.951 . S
H1946 C1966 0.950 . S
H1947 C1967 0.950 . S
H1948 C1969 0.950 . S
H1949 C1972 0.950 . S
H1950 C1973 0.950 . S
H1951 C1975 0.950 . S
H1952 C1976 0.950 . S
H1953 C1977 0.951 . S
H1954 C1979 0.951 . S
H1955 C1981 0.950 . S
H1956 C1982 0.950 . S
H1957 C1984 0.950 . S
H1958 C1987 0.950 . S
H1959 C1988 0.950 . S
H1960 C1990 0.950 . S
H1961 C1991 0.950 . S
C1962 H1944 0.951 . S
C1962 C1963 1.366 . S
C1962 C1964 1.388 . S
C1963 C1962 1.366 . S
C1963 C1967 1.385 . S
C1964 H1945 0.951 . S
C1964 C1962 1.388 . S
C1964 C1965 1.366 . S
C1965 C1964 1.366 . S
C1965 C1966 1.414 . S
C1965 C1968 1.499 . S
C1966 H1946 0.950 . S
C1966 C1965 1.414 . S
C1966 C1967 1.374 . S
C1967 H1947 0.950 . S
C1967 C1963 1.385 . S
C1967 C1966 1.374 . S
C1968 C1965 1.499 . S
C1968 C1969 1.373 . S
C1968 C1970 1.389 1_554 S
C1969 H1948 0.950 . S
C1969 C1968 1.373 . S
C1969 C1985 1.377 . S
C1970 C1968 1.389 1_556 S
C1970 C1971 1.524 . S
C1970 C1984 1.377 . S
C1971 C1970 1.524 . S
C1971 C1972 1.397 . S
C1971 C1976 1.363 . S
C1972 H1949 0.950 . S
C1972 C1971 1.397 . S
C1972 C1973 1.334 . S
C1973 H1950 0.950 . S
C1973 C1972 1.334 . S
C1973 C1974 1.287 . S
C1974 C1973 1.287 . S
C1974 C1975 1.524 . S
C1974 H1993 0.913 . S
C1975 H1951 0.950 . S
C1975 C1974 1.524 . S
C1975 C1976 1.415 . S
C1976 H1952 0.950 . S
C1976 C1971 1.363 . S
C1976 C1975 1.415 . S
C1977 H1953 0.951 . S
C1977 C1978 1.366 . S
C1977 C1979 1.388 . S
C1978 C1977 1.366 . S
C1978 C1982 1.385 . S
C1979 H1954 0.951 . S
C1979 C1977 1.388 . S
C1979 C1980 1.366 . S
C1980 C1979 1.366 . S
C1980 C1981 1.414 . S
C1980 C1983 1.499 . S
C1981 H1955 0.950 . S
C1981 C1980 1.414 . S
C1981 C1982 1.374 . S
C1982 H1956 0.950 . S
C1982 C1978 1.385 . S
C1982 C1981 1.374 . S
C1983 C1980 1.499 . S
C1983 C1984 1.373 . S
C1983 C1985 1.389 1_556 S
C1984 H1957 0.950 . S
C1984 C1970 1.377 . S
C1984 C1983 1.373 . S
C1985 C1969 1.377 . S
C1985 C1983 1.389 1_554 S
C1985 C1986 1.524 . S
C1986 C1985 1.524 . S
C1986 C1987 1.397 . S
C1986 C1991 1.363 . S
C1987 H1958 0.950 . S
C1987 C1986 1.397 . S
C1987 C1988 1.334 . S
C1988 H1959 0.950 . S
C1988 C1987 1.334 . S
C1988 C1989 1.287 . S
C1989 C1988 1.287 . S
C1989 C1990 1.524 . S
C1989 H1992 0.999 . S
C1990 H1960 0.950 . S
C1990 C1989 1.524 . S
C1990 C1991 1.415 . S
C1991 H1961 0.950 . S
C1991 C1986 1.363 . S
C1991 C1990 1.415 . S
H1992 C1989 0.999 . S
H1993 C1974 0.913 . S
H1994 C2012 0.951 . S
H1995 C2014 0.951 . S
H1996 C2016 0.950 . S
H1997 C2017 0.950 . S
H1998 C2019 0.950 . S
H1999 C2022 0.950 . S
H2000 C2023 0.950 . S
H2001 C2025 0.950 . S
H2002 C2026 0.950 . S
H2003 C2027 0.951 . S
H2004 C2029 0.951 . S
H2005 C2031 0.950 . S
H2006 C2032 0.950 . S
H2007 C2034 0.950 . S
H2008 C2037 0.950 . S
H2009 C2038 0.950 . S
H2010 C2040 0.950 . S
H2011 C2041 0.950 . S
C2012 H1994 0.951 . S
C2012 C2013 1.366 . S
C2012 C2014 1.388 . S
C2013 C2012 1.366 . S
C2013 C2017 1.385 . S
C2014 H1995 0.951 . S
C2014 C2012 1.388 . S
C2014 C2015 1.366 . S
C2015 C2014 1.366 . S
C2015 C2016 1.414 . S
C2015 C2018 1.499 . S
C2016 H1996 0.950 . S
C2016 C2015 1.414 . S
C2016 C2017 1.374 . S
C2017 H1997 0.950 . S
C2017 C2013 1.385 . S
C2017 C2016 1.374 . S
C2018 C2015 1.499 . S
C2018 C2019 1.373 . S
C2018 C2020 1.389 . S
C2019 H1998 0.950 . S
C2019 C2018 1.373 . S
C2019 C2035 1.377 . S
C2020 C2018 1.389 . S
C2020 C2021 1.524 . S
C2020 C2034 1.377 . S
C2021 C2020 1.524 . S
C2021 C2022 1.397 . S
C2021 C2026 1.363 . S
C2022 H1999 0.950 . S
C2022 C2021 1.397 . S
C2022 C2023 1.334 . S
C2023 H2000 0.950 . S
C2023 C2022 1.334 . S
C2023 C2024 1.287 . S
C2024 C2023 1.287 . S
C2024 C2025 1.524 . S
C2024 H2043 0.913 . S
C2025 H2001 0.950 . S
C2025 C2024 1.524 . S
C2025 C2026 1.415 . S
C2026 H2002 0.950 . S
C2026 C2021 1.363 . S
C2026 C2025 1.415 . S
C2027 H2003 0.951 . S
C2027 C2028 1.366 . S
C2027 C2029 1.388 . S
C2028 C2027 1.366 . S
C2028 C2032 1.385 . S
C2029 H2004 0.951 . S
C2029 C2027 1.388 . S
C2029 C2030 1.366 . S
C2030 C2029 1.366 . S
C2030 C2031 1.414 . S
C2030 C2033 1.499 . S
C2031 H2005 0.950 . S
C2031 C2030 1.414 . S
C2031 C2032 1.374 . S
C2032 H2006 0.950 . S
C2032 C2028 1.385 . S
C2032 C2031 1.374 . S
C2033 C2030 1.499 . S
C2033 C2034 1.373 . S
C2033 C2035 1.389 . S
C2034 H2007 0.950 . S
C2034 C2020 1.377 . S
C2034 C2033 1.373 . S
C2035 C2019 1.377 . S
C2035 C2033 1.389 . S
C2035 C2036 1.524 . S
C2036 C2035 1.524 . S
C2036 C2037 1.397 . S
C2036 C2041 1.363 . S
C2037 H2008 0.950 . S
C2037 C2036 1.397 . S
C2037 C2038 1.334 . S
C2038 H2009 0.950 . S
C2038 C2037 1.334 . S
C2038 C2039 1.287 . S
C2039 C2038 1.287 . S
C2039 C2040 1.524 . S
C2039 H2042 0.999 . S
C2040 H2010 0.950 . S
C2040 C2039 1.524 . S
C2040 C2041 1.415 . S
C2041 H2011 0.950 . S
C2041 C2036 1.363 . S
C2041 C2040 1.415 . S
H2042 C2039 0.999 . S
H2043 C2024 0.913 . S
H2044 C2062 0.951 . S
H2045 C2064 0.996 . S
H2046 C2066 0.950 . S
H2047 C2067 0.950 . S
H2048 C2069 0.950 . S
H2049 C2072 0.950 1_554 S
H2050 C2073 0.950 . S
H2051 C2075 0.950 . S
H2052 C2076 0.950 . S
H2053 C2077 0.951 . S
H2054 C2079 0.951 . S
H2055 C2081 0.950 . S
H2056 C2082 0.950 . S
H2057 C2084 0.950 . S
H2058 C2087 0.950 1_556 S
H2059 C2088 0.950 . S
H2060 C2090 0.950 . S
H2061 C2091 0.950 . S
C2062 H2044 0.951 . S
C2062 C2063 1.366 . S
C2062 C2064 1.388 . S
C2063 C2062 1.366 . S
C2063 C2067 1.385 . S
C2064 H2045 0.996 . S
C2064 C2062 1.388 . S
C2064 C2065 1.366 . S
C2065 C2064 1.366 . S
C2065 C2066 1.414 . S
C2065 C2068 1.499 . S
C2066 H2046 0.950 . S
C2066 C2065 1.414 . S
C2066 C2067 1.374 . S
C2067 H2047 0.950 . S
C2067 C2063 1.385 . S
C2067 C2066 1.374 . S
C2068 C2065 1.499 . S
C2068 C2069 1.373 . S
C2068 C2070 1.389 1_554 S
C2069 H2048 0.950 . S
C2069 C2068 1.373 . S
C2069 C2085 1.377 . S
C2070 C2068 1.389 1_556 S
C2070 C2071 1.524 . S
C2070 C2084 1.377 . S
C2071 C2070 1.524 . S
C2071 C2072 1.397 . S
C2071 C2076 1.363 . S
C2072 H2049 0.950 1_556 S
C2072 C2071 1.397 . S
C2072 C2073 1.334 . S
C2073 H2050 0.950 . S
C2073 C2072 1.334 . S
C2073 C2074 1.287 . S
C2074 C2073 1.287 . S
C2074 C2075 1.524 . S
C2074 H2093 0.913 . S
C2075 H2051 0.950 . S
C2075 C2074 1.524 . S
C2075 C2076 1.415 . S
C2076 H2052 0.950 . S
C2076 C2071 1.363 . S
C2076 C2075 1.415 . S
C2077 H2053 0.951 . S
C2077 C2078 1.366 . S
C2077 C2079 1.388 . S
C2078 C2077 1.366 . S
C2078 C2082 1.385 . S
C2079 H2054 0.951 . S
C2079 C2077 1.388 . S
C2079 C2080 1.366 . S
C2080 C2079 1.366 . S
C2080 C2081 1.414 . S
C2080 C2083 1.499 . S
C2081 H2055 0.950 . S
C2081 C2080 1.414 . S
C2081 C2082 1.374 . S
C2082 H2056 0.950 . S
C2082 C2078 1.385 . S
C2082 C2081 1.374 . S
C2083 C2080 1.499 . S
C2083 C2084 1.373 . S
C2083 C2085 1.389 1_556 S
C2084 H2057 0.950 . S
C2084 C2070 1.377 . S
C2084 C2083 1.373 . S
C2085 C2069 1.377 . S
C2085 C2083 1.389 1_554 S
C2085 C2086 1.524 . S
C2086 C2085 1.524 . S
C2086 C2087 1.397 . S
C2086 C2091 1.363 . S
C2087 H2058 0.950 1_554 S
C2087 C2086 1.397 . S
C2087 C2088 1.334 . S
C2088 H2059 0.950 . S
C2088 C2087 1.334 . S
C2088 C2089 1.287 . S
C2089 C2088 1.287 . S
C2089 C2090 1.524 . S
C2089 H2092 0.999 . S
C2090 H2060 0.950 . S
C2090 C2089 1.524 . S
C2090 C2091 1.415 . S
C2091 H2061 0.950 . S
C2091 C2086 1.363 . S
C2091 C2090 1.415 . S
H2092 C2089 0.999 . S
H2093 C2074 0.913 . S
H2094 C2112 0.951 . S
H2095 C2114 0.951 . S
H2096 C2116 0.950 . S
H2097 C2117 0.950 . S
H2098 C2119 0.950 . S
H2099 C2122 0.950 . S
H2100 C2123 0.950 . S
H2101 C2125 0.950 . S
H2102 C2126 0.950 . S
H2103 C2127 0.951 . S
H2104 C2129 0.951 . S
H2105 C2131 0.950 . S
H2106 C2132 0.950 . S
H2107 C2134 0.950 . S
H2108 C2137 0.950 . S
H2109 C2138 0.950 . S
H2110 C2140 0.950 . S
H2111 C2141 0.950 . S
C2112 H2094 0.951 . S
C2112 C2113 1.366 . S
C2112 C2114 1.388 . S
C2113 C2112 1.366 . S
C2113 C2117 1.385 . S
C2114 H2095 0.951 . S
C2114 C2112 1.388 . S
C2114 C2115 1.366 . S
C2115 C2114 1.366 . S
C2115 C2116 1.414 . S
C2115 C2118 1.499 . S
C2116 H2096 0.950 . S
C2116 C2115 1.414 . S
C2116 C2117 1.374 . S
C2117 H2097 0.950 . S
C2117 C2113 1.385 . S
C2117 C2116 1.374 . S
C2118 C2115 1.499 . S
C2118 C2119 1.373 . S
C2118 C2120 1.389 . S
C2119 H2098 0.950 . S
C2119 C2118 1.373 . S
C2119 C2135 1.377 . S
C2120 C2118 1.389 . S
C2120 C2121 1.524 . S
C2120 C2134 1.377 . S
C2121 C2120 1.524 . S
C2121 C2122 1.397 . S
C2121 C2126 1.363 . S
C2122 H2099 0.950 . S
C2122 C2121 1.397 . S
C2122 C2123 1.334 . S
C2123 H2100 0.950 . S
C2123 C2122 1.334 . S
C2123 C2124 1.287 . S
C2124 C2123 1.287 . S
C2124 C2125 1.524 . S
C2124 H2143 0.913 . S
C2125 H2101 0.950 . S
C2125 C2124 1.524 . S
C2125 C2126 1.415 . S
C2126 H2102 0.950 . S
C2126 C2121 1.363 . S
C2126 C2125 1.415 . S
C2127 H2103 0.951 . S
C2127 C2128 1.366 . S
C2127 C2129 1.388 . S
C2128 C2127 1.366 . S
C2128 C2132 1.385 . S
C2129 H2104 0.951 . S
C2129 C2127 1.388 . S
C2129 C2130 1.366 . S
C2130 C2129 1.366 . S
C2130 C2131 1.414 . S
C2130 C2133 1.499 . S
C2131 H2105 0.950 . S
C2131 C2130 1.414 . S
C2131 C2132 1.374 . S
C2132 H2106 0.950 . S
C2132 C2128 1.385 . S
C2132 C2131 1.374 . S
C2133 C2130 1.499 . S
C2133 C2134 1.373 . S
C2133 C2135 1.389 . S
C2134 H2107 0.950 . S
C2134 C2120 1.377 . S
C2134 C2133 1.373 . S
C2135 C2119 1.377 . S
C2135 C2133 1.389 . S
C2135 C2136 1.524 . S
C2136 C2135 1.524 . S
C2136 C2137 1.397 . S
C2136 C2141 1.363 . S
C2137 H2108 0.950 . S
C2137 C2136 1.397 . S
C2137 C2138 1.334 . S
C2138 H2109 0.950 . S
C2138 C2137 1.334 . S
C2138 C2139 1.287 . S
C2139 C2138 1.287 . S
C2139 C2140 1.524 . S
C2139 H2142 0.999 . S
C2140 H2110 0.950 . S
C2140 C2139 1.524 . S
C2140 C2141 1.415 . S
C2141 H2111 0.950 . S
C2141 C2136 1.363 . S
C2141 C2140 1.415 . S
H2142 C2139 0.999 . S
H2143 C2124 0.913 . S
H2144 C2162 0.951 . S
H2145 C2164 0.947 . S
H2146 C2166 0.950 . S
H2147 C2167 0.950 . S
H2148 C2169 0.950 . S
H2149 C2172 0.950 . S
H2150 C2173 0.950 . S
H2151 C2175 0.950 . S
H2152 C2176 0.950 . S
H2153 C2177 0.951 . S
H2154 C2179 0.947 . S
H2155 C2181 0.950 . S
H2156 C2182 0.950 . S
H2157 C2184 0.950 . S
H2158 C2187 0.950 . S
H2159 C2188 0.950 . S
H2160 C2190 0.950 . S
H2161 C2191 0.950 . S
C2162 H2144 0.951 . S
C2162 C2163 1.366 . S
C2162 C2164 1.388 . S
C2163 C2162 1.366 . S
C2163 C2167 1.385 . S
C2164 H2145 0.947 . S
C2164 C2162 1.388 . S
C2164 C2165 1.366 . S
C2165 C2164 1.366 . S
C2165 C2166 1.414 . S
C2165 C2168 1.499 . S
C2166 H2146 0.950 . S
C2166 C2165 1.414 . S
C2166 C2167 1.374 . S
C2167 H2147 0.950 . S
C2167 C2163 1.385 . S
C2167 C2166 1.374 . S
C2168 C2165 1.499 . S
C2168 C2169 1.373 . S
C2168 C2170 1.389 1_556 S
C2169 H2148 0.950 . S
C2169 C2168 1.373 . S
C2169 C2185 1.377 . S
C2170 C2168 1.389 1_554 S
C2170 C2171 1.524 . S
C2170 C2184 1.377 . S
C2171 C2170 1.524 . S
C2171 C2172 1.397 . S
C2171 C2176 1.363 . S
C2172 H2149 0.950 . S
C2172 C2171 1.397 . S
C2172 C2173 1.334 . S
C2173 H2150 0.950 . S
C2173 C2172 1.334 . S
C2173 C2174 1.287 . S
C2174 C2173 1.287 . S
C2174 C2175 1.524 . S
C2174 H2193 0.913 . S
C2175 H2151 0.950 . S
C2175 C2174 1.524 . S
C2175 C2176 1.415 . S
C2176 H2152 0.950 . S
C2176 C2171 1.363 . S
C2176 C2175 1.415 . S
C2177 H2153 0.951 . S
C2177 C2178 1.366 . S
C2177 C2179 1.388 . S
C2178 C2177 1.366 . S
C2178 C2182 1.385 . S
C2179 H2154 0.947 . S
C2179 C2177 1.388 . S
C2179 C2180 1.366 . S
C2180 C2179 1.366 . S
C2180 C2181 1.414 . S
C2180 C2183 1.499 . S
C2181 H2155 0.950 . S
C2181 C2180 1.414 . S
C2181 C2182 1.374 . S
C2182 H2156 0.950 . S
C2182 C2178 1.385 . S
C2182 C2181 1.374 . S
C2183 C2180 1.499 . S
C2183 C2184 1.373 . S
C2183 C2185 1.389 1_554 S
C2184 H2157 0.950 . S
C2184 C2170 1.377 . S
C2184 C2183 1.373 . S
C2185 C2169 1.377 . S
C2185 C2183 1.389 1_556 S
C2185 C2186 1.524 . S
C2186 C2185 1.524 . S
C2186 C2187 1.397 . S
C2186 C2191 1.363 . S
C2187 H2158 0.950 . S
C2187 C2186 1.397 . S
C2187 C2188 1.334 . S
C2188 H2159 0.950 . S
C2188 C2187 1.334 . S
C2188 C2189 1.287 . S
C2189 C2188 1.287 . S
C2189 C2190 1.524 . S
C2189 H2192 0.999 . S
C2190 H2160 0.950 . S
C2190 C2189 1.524 . S
C2190 C2191 1.415 . S
C2191 H2161 0.950 . S
C2191 C2186 1.363 . S
C2191 C2190 1.415 . S
H2192 C2189 0.999 . S
H2193 C2174 0.913 . S
H2194 C2212 0.951 . S
H2195 C2214 0.951 . S
H2196 C2216 0.950 . S
H2197 C2217 0.950 . S
H2198 C2219 0.950 . S
H2199 C2222 0.950 . S
H2200 C2223 0.950 . S
H2201 C2225 0.950 . S
H2202 C2226 0.950 . S
H2203 C2227 0.951 . S
H2204 C2229 0.951 . S
H2205 C2231 0.950 . S
H2206 C2232 0.950 . S
H2207 C2234 0.950 . S
H2208 C2237 0.950 . S
H2209 C2238 0.950 . S
H2210 C2240 0.950 . S
H2211 C2241 0.950 . S
C2212 H2194 0.951 . S
C2212 C2213 1.366 . S
C2212 C2214 1.388 . S
C2213 C2212 1.366 . S
C2213 C2217 1.385 . S
C2214 H2195 0.951 . S
C2214 C2212 1.388 . S
C2214 C2215 1.366 . S
C2215 C2214 1.366 . S
C2215 C2216 1.414 . S
C2215 C2218 1.499 . S
C2216 H2196 0.950 . S
C2216 C2215 1.414 . S
C2216 C2217 1.374 . S
C2217 H2197 0.950 . S
C2217 C2213 1.385 . S
C2217 C2216 1.374 . S
C2218 C2215 1.499 . S
C2218 C2219 1.373 . S
C2218 C2220 1.389 . S
C2219 H2198 0.950 . S
C2219 C2218 1.373 . S
C2219 C2235 1.377 . S
C2220 C2218 1.389 . S
C2220 C2221 1.524 . S
C2220 C2234 1.377 . S
C2221 C2220 1.524 . S
C2221 C2222 1.397 . S
C2221 C2226 1.363 . S
C2222 H2199 0.950 . S
C2222 C2221 1.397 . S
C2222 C2223 1.334 . S
C2223 H2200 0.950 . S
C2223 C2222 1.334 . S
C2223 C2224 1.287 . S
C2224 C2223 1.287 . S
C2224 C2225 1.524 . S
C2224 H2243 0.913 . S
C2225 H2201 0.950 . S
C2225 C2224 1.524 . S
C2225 C2226 1.415 . S
C2226 H2202 0.950 . S
C2226 C2221 1.363 . S
C2226 C2225 1.415 . S
C2227 H2203 0.951 . S
C2227 C2228 1.366 . S
C2227 C2229 1.388 . S
C2228 C2227 1.366 . S
C2228 C2232 1.385 . S
C2229 H2204 0.951 . S
C2229 C2227 1.388 . S
C2229 C2230 1.366 . S
C2230 C2229 1.366 . S
C2230 C2231 1.414 . S
C2230 C2233 1.499 . S
C2231 H2205 0.950 . S
C2231 C2230 1.414 . S
C2231 C2232 1.374 . S
C2232 H2206 0.950 . S
C2232 C2228 1.385 . S
C2232 C2231 1.374 . S
C2233 C2230 1.499 . S
C2233 C2234 1.373 . S
C2233 C2235 1.389 . S
C2234 H2207 0.950 . S
C2234 C2220 1.377 . S
C2234 C2233 1.373 . S
C2235 C2219 1.377 . S
C2235 C2233 1.389 . S
C2235 C2236 1.524 . S
C2236 C2235 1.524 . S
C2236 C2237 1.397 . S
C2236 C2241 1.363 . S
C2237 H2208 0.950 . S
C2237 C2236 1.397 . S
C2237 C2238 1.334 . S
C2238 H2209 0.950 . S
C2238 C2237 1.334 . S
C2238 C2239 1.287 . S
C2239 C2238 1.287 . S
C2239 C2240 1.524 . S
C2239 H2242 0.999 . S
C2240 H2210 0.950 . S
C2240 C2239 1.524 . S
C2240 C2241 1.415 . S
C2241 H2211 0.950 . S
C2241 C2236 1.363 . S
C2241 C2240 1.415 . S
H2242 C2239 0.999 . S
H2243 C2224 0.913 . S
H2244 C2262 0.951 . S
H2245 C2264 0.951 . S
H2246 C2266 0.950 . S
H2247 C2267 0.950 . S
H2248 C2269 0.950 . S
H2249 C2272 0.950 . S
H2250 C2273 0.950 . S
H2251 C2275 0.950 . S
H2252 C2276 0.950 . S
H2253 C2277 0.951 . S
H2254 C2279 0.951 . S
H2255 C2281 0.950 . S
H2256 C2282 0.950 . S
H2257 C2284 0.950 . S
H2258 C2287 0.950 . S
H2259 C2288 0.950 . S
H2260 C2290 0.950 . S
H2261 C2291 0.950 . S
C2262 H2244 0.951 . S
C2262 C2263 1.366 . S
C2262 C2264 1.388 . S
C2263 C2262 1.366 . S
C2263 C2267 1.385 . S
C2264 H2245 0.951 . S
C2264 C2262 1.388 . S
C2264 C2265 1.366 . S
C2265 C2264 1.366 . S
C2265 C2266 1.414 . S
C2265 C2268 1.499 . S
C2266 H2246 0.950 . S
C2266 C2265 1.414 . S
C2266 C2267 1.374 . S
C2267 H2247 0.950 . S
C2267 C2263 1.385 . S
C2267 C2266 1.374 . S
C2268 C2265 1.499 . S
C2268 C2269 1.373 . S
C2268 C2270 1.389 1_554 S
C2269 H2248 0.950 . S
C2269 C2268 1.373 . S
C2269 C2285 1.377 . S
C2270 C2268 1.389 1_556 S
C2270 C2271 1.524 . S
C2270 C2284 1.377 . S
C2271 C2270 1.524 . S
C2271 C2272 1.397 . S
C2271 C2276 1.363 . S
C2272 H2249 0.950 . S
C2272 C2271 1.397 . S
C2272 C2273 1.334 . S
C2273 H2250 0.950 . S
C2273 C2272 1.334 . S
C2273 C2274 1.287 . S
C2274 C2273 1.287 . S
C2274 C2275 1.524 . S
C2274 H2293 0.913 . S
C2275 H2251 0.950 . S
C2275 C2274 1.524 . S
C2275 C2276 1.415 . S
C2276 H2252 0.950 . S
C2276 C2271 1.363 . S
C2276 C2275 1.415 . S
C2277 H2253 0.951 . S
C2277 C2278 1.366 . S
C2277 C2279 1.388 . S
C2278 C2277 1.366 . S
C2278 C2282 1.385 . S
C2279 H2254 0.951 . S
C2279 C2277 1.388 . S
C2279 C2280 1.366 . S
C2280 C2279 1.366 . S
C2280 C2281 1.414 . S
C2280 C2283 1.499 . S
C2281 H2255 0.950 . S
C2281 C2280 1.414 . S
C2281 C2282 1.374 . S
C2282 H2256 0.950 . S
C2282 C2278 1.385 . S
C2282 C2281 1.374 . S
C2283 C2280 1.499 . S
C2283 C2284 1.373 . S
C2283 C2285 1.389 1_556 S
C2284 H2257 0.950 . S
C2284 C2270 1.377 . S
C2284 C2283 1.373 . S
C2285 C2269 1.377 . S
C2285 C2283 1.389 1_554 S
C2285 C2286 1.524 . S
C2286 C2285 1.524 . S
C2286 C2287 1.397 . S
C2286 C2291 1.363 . S
C2287 H2258 0.950 . S
C2287 C2286 1.397 . S
C2287 C2288 1.334 . S
C2288 H2259 0.950 . S
C2288 C2287 1.334 . S
C2288 C2289 1.287 . S
C2289 C2288 1.287 . S
C2289 C2290 1.524 . S
C2289 H2292 0.999 . S
C2290 H2260 0.950 . S
C2290 C2289 1.524 . S
C2290 C2291 1.415 . S
C2291 H2261 0.950 . S
C2291 C2286 1.363 . S
C2291 C2290 1.415 . S
H2292 C2289 0.999 . S
H2293 C2274 0.913 . S
H2294 C2312 0.951 . S
H2295 C2314 0.951 . S
H2296 C2316 0.950 . S
H2297 C2317 0.950 . S
H2298 C2319 0.950 . S
H2299 C2322 0.950 . S
H2300 C2323 0.950 . S
H2301 C2325 0.950 . S
H2302 C2326 0.950 . S
H2303 C2327 0.951 . S
H2304 C2329 0.951 . S
H2305 C2331 0.950 . S
H2306 C2332 0.950 . S
H2307 C2334 0.950 . S
H2308 C2337 0.950 . S
H2309 C2338 0.950 . S
H2310 C2340 0.950 . S
H2311 C2341 0.950 . S
C2312 H2294 0.951 . S
C2312 C2313 1.366 . S
C2312 C2314 1.388 . S
C2313 C2312 1.366 . S
C2313 C2317 1.385 . S
C2314 H2295 0.951 . S
C2314 C2312 1.388 . S
C2314 C2315 1.366 . S
C2315 C2314 1.366 . S
C2315 C2316 1.414 . S
C2315 C2318 1.499 . S
C2316 H2296 0.950 . S
C2316 C2315 1.414 . S
C2316 C2317 1.374 . S
C2317 H2297 0.950 . S
C2317 C2313 1.385 . S
C2317 C2316 1.374 . S
C2318 C2315 1.499 . S
C2318 C2319 1.373 . S
C2318 C2320 1.389 . S
C2319 H2298 0.950 . S
C2319 C2318 1.373 . S
C2319 C2335 1.377 . S
C2320 C2318 1.389 . S
C2320 C2321 1.524 . S
C2320 C2334 1.377 . S
C2321 C2320 1.524 . S
C2321 C2322 1.397 . S
C2321 C2326 1.363 . S
C2322 H2299 0.950 . S
C2322 C2321 1.397 . S
C2322 C2323 1.334 . S
C2323 H2300 0.950 . S
C2323 C2322 1.334 . S
C2323 C2324 1.287 . S
C2324 C2323 1.287 . S
C2324 C2325 1.524 . S
C2324 H2343 0.913 . S
C2325 H2301 0.950 . S
C2325 C2324 1.524 . S
C2325 C2326 1.415 . S
C2326 H2302 0.950 . S
C2326 C2321 1.363 . S
C2326 C2325 1.415 . S
C2327 H2303 0.951 . S
C2327 C2328 1.366 . S
C2327 C2329 1.388 . S
C2328 C2327 1.366 . S
C2328 C2332 1.385 . S
C2329 H2304 0.951 . S
C2329 C2327 1.388 . S
C2329 C2330 1.366 . S
C2330 C2329 1.366 . S
C2330 C2331 1.414 . S
C2330 C2333 1.499 . S
C2331 H2305 0.950 . S
C2331 C2330 1.414 . S
C2331 C2332 1.374 . S
C2332 H2306 0.950 . S
C2332 C2328 1.385 . S
C2332 C2331 1.374 . S
C2333 C2330 1.499 . S
C2333 C2334 1.373 . S
C2333 C2335 1.389 . S
C2334 H2307 0.950 . S
C2334 C2320 1.377 . S
C2334 C2333 1.373 . S
C2335 C2319 1.377 . S
C2335 C2333 1.389 . S
C2335 C2336 1.524 . S
C2336 C2335 1.524 . S
C2336 C2337 1.397 . S
C2336 C2341 1.363 . S
C2337 H2308 0.950 . S
C2337 C2336 1.397 . S
C2337 C2338 1.334 . S
C2338 H2309 0.950 . S
C2338 C2337 1.334 . S
C2338 C2339 1.287 . S
C2339 C2338 1.287 . S
C2339 C2340 1.524 . S
C2339 H2342 0.999 . S
C2340 H2310 0.950 . S
C2340 C2339 1.524 . S
C2340 C2341 1.415 . S
C2341 H2311 0.950 . S
C2341 C2336 1.363 . S
C2341 C2340 1.415 . S
H2342 C2339 0.999 . S
H2343 C2324 0.913 . S
H2344 C2362 0.951 . S
H2345 C2364 0.951 1_554 S
H2346 C2366 0.950 . S
H2347 C2367 0.950 . S
H2348 C2369 0.950 . S
H2349 C2372 0.950 . S
H2350 C2373 0.950 . S
H2351 C2375 0.952 1_554 S
H2352 C2376 0.903 1_554 S
H2353 C2377 0.951 . S
H2354 C2379 0.951 1_556 S
H2355 C2381 0.950 . S
H2356 C2382 0.950 . S
H2357 C2384 0.950 . S
H2358 C2387 0.950 . S
H2359 C2388 0.950 . S
H2360 C2390 0.952 1_556 S
H2361 C2391 0.903 1_556 S
C2362 H2344 0.951 . S
C2362 C2363 1.366 . S
C2362 C2364 1.388 . S
C2363 C2362 1.366 . S
C2363 C2367 1.385 . S
C2364 H2345 0.951 1_556 S
C2364 C2362 1.388 . S
C2364 C2365 1.366 . S
C2365 C2364 1.366 . S
C2365 C2366 1.414 . S
C2365 C2368 1.499 . S
C2366 H2346 0.950 . S
C2366 C2365 1.414 . S
C2366 C2367 1.374 . S
C2367 H2347 0.950 . S
C2367 C2363 1.385 . S
C2367 C2366 1.374 . S
C2368 C2365 1.499 . S
C2368 C2369 1.373 . S
C2368 C2370 1.389 . S
C2369 H2348 0.950 . S
C2369 C2368 1.373 . S
C2369 C2385 1.377 1_546 S
C2370 C2368 1.389 . S
C2370 C2371 1.524 . S
C2370 C2384 1.377 1_546 S
C2371 C2370 1.524 . S
C2371 C2372 1.397 . S
C2371 C2376 1.393 . S
C2372 H2349 0.950 . S
C2372 C2371 1.397 . S
C2372 C2373 1.334 . S
C2373 H2350 0.950 . S
C2373 C2372 1.334 . S
C2373 C2374 1.287 . S
C2374 C2373 1.287 . S
C2374 C2375 1.524 . S
C2374 H2393 0.913 . S
C2375 H2351 0.952 1_556 S
C2375 C2374 1.524 . S
C2375 C2376 1.432 . S
C2376 H2352 0.903 1_556 S
C2376 C2371 1.393 . S
C2376 C2375 1.432 . S
C2377 H2353 0.951 . S
C2377 C2378 1.366 . S
C2377 C2379 1.388 . S
C2378 C2377 1.366 . S
C2378 C2382 1.385 . S
C2379 H2354 0.951 1_554 S
C2379 C2377 1.388 . S
C2379 C2380 1.366 . S
C2380 C2379 1.366 . S
C2380 C2381 1.414 . S
C2380 C2383 1.499 . S
C2381 H2355 0.950 . S
C2381 C2380 1.414 . S
C2381 C2382 1.374 . S
C2382 H2356 0.950 . S
C2382 C2378 1.385 . S
C2382 C2381 1.374 . S
C2383 C2380 1.499 . S
C2383 C2384 1.373 . S
C2383 C2385 1.389 . S
C2384 H2357 0.950 . S
C2384 C2370 1.377 1_564 S
C2384 C2383 1.373 . S
C2385 C2369 1.377 1_564 S
C2385 C2383 1.389 . S
C2385 C2386 1.524 . S
C2386 C2385 1.524 . S
C2386 C2387 1.397 . S
C2386 C2391 1.393 . S
C2387 H2358 0.950 . S
C2387 C2386 1.397 . S
C2387 C2388 1.334 . S
C2388 H2359 0.950 . S
C2388 C2387 1.334 . S
C2388 C2389 1.287 . S
C2389 C2388 1.287 . S
C2389 C2390 1.524 . S
C2389 H2392 0.999 . S
C2390 H2360 0.952 1_554 S
C2390 C2389 1.524 . S
C2390 C2391 1.432 . S
C2391 H2361 0.903 1_554 S
C2391 C2386 1.393 . S
C2391 C2390 1.432 . S
H2392 C2389 0.999 . S
H2393 C2374 0.913 . S
H2394 C2412 0.951 . S
H2395 C2414 0.951 . S
H2396 C2416 0.950 . S
H2397 C2417 0.950 . S
H2398 C2419 0.950 . S
H2399 C2422 0.950 . S
H2400 C2423 0.950 . S
H2401 C2425 0.950 . S
H2402 C2426 0.950 . S
H2403 C2427 0.951 . S
H2404 C2429 0.951 . S
H2405 C2431 0.950 . S
H2406 C2432 0.950 . S
H2407 C2434 0.950 . S
H2408 C2437 0.950 . S
H2409 C2438 0.950 . S
H2410 C2440 0.950 . S
H2411 C2441 0.950 . S
C2412 H2394 0.951 . S
C2412 C2413 1.366 . S
C2412 C2414 1.388 . S
C2413 C2412 1.366 . S
C2413 C2417 1.385 . S
C2414 H2395 0.951 . S
C2414 C2412 1.388 . S
C2414 C2415 1.366 . S
C2415 C2414 1.366 . S
C2415 C2416 1.414 . S
C2415 C2418 1.499 . S
C2416 H2396 0.950 . S
C2416 C2415 1.414 . S
C2416 C2417 1.374 . S
C2417 H2397 0.950 . S
C2417 C2413 1.385 . S
C2417 C2416 1.374 . S
C2418 C2415 1.499 . S
C2418 C2419 1.373 . S
C2418 C2420 1.389 . S
C2419 H2398 0.950 . S
C2419 C2418 1.373 . S
C2419 C2435 1.377 1_565 S
C2420 C2418 1.389 . S
C2420 C2421 1.524 . S
C2420 C2434 1.377 1_565 S
C2421 C2420 1.524 . S
C2421 C2422 1.397 . S
C2421 C2426 1.363 . S
C2422 H2399 0.950 . S
C2422 C2421 1.397 . S
C2422 C2423 1.334 . S
C2423 H2400 0.950 . S
C2423 C2422 1.334 . S
C2423 C2424 1.287 . S
C2424 C2423 1.287 . S
C2424 C2425 1.524 . S
C2424 H2443 0.913 . S
C2425 H2401 0.950 . S
C2425 C2424 1.524 . S
C2425 C2426 1.415 . S
C2426 H2402 0.950 . S
C2426 C2421 1.363 . S
C2426 C2425 1.415 . S
C2427 H2403 0.951 . S
C2427 C2428 1.366 . S
C2427 C2429 1.388 . S
C2428 C2427 1.366 . S
C2428 C2432 1.385 . S
C2429 H2404 0.951 . S
C2429 C2427 1.388 . S
C2429 C2430 1.366 . S
C2430 C2429 1.366 . S
C2430 C2431 1.414 . S
C2430 C2433 1.499 . S
C2431 H2405 0.950 . S
C2431 C2430 1.414 . S
C2431 C2432 1.374 . S
C2432 H2406 0.950 . S
C2432 C2428 1.385 . S
C2432 C2431 1.374 . S
C2433 C2430 1.499 . S
C2433 C2434 1.373 . S
C2433 C2435 1.389 . S
C2434 H2407 0.950 . S
C2434 C2420 1.377 1_545 S
C2434 C2433 1.373 . S
C2435 C2419 1.377 1_545 S
C2435 C2433 1.389 . S
C2435 C2436 1.524 . S
C2436 C2435 1.524 . S
C2436 C2437 1.397 . S
C2436 C2441 1.363 . S
C2437 H2408 0.950 . S
C2437 C2436 1.397 . S
C2437 C2438 1.334 . S
C2438 H2409 0.950 . S
C2438 C2437 1.334 . S
C2438 C2439 1.287 . S
C2439 C2438 1.287 . S
C2439 C2440 1.524 . S
C2439 H2442 0.999 . S
C2440 H2410 0.950 . S
C2440 C2439 1.524 . S
C2440 C2441 1.415 . S
C2441 H2411 0.950 . S
C2441 C2436 1.363 . S
C2441 C2440 1.415 . S
H2442 C2439 0.999 . S
H2443 C2424 0.913 . S
H2444 C2462 0.951 . S
H2445 C2464 0.951 1_556 S
H2446 C2466 0.950 . S
H2447 C2467 0.950 . S
H2448 C2469 0.950 . S
H2449 C2472 0.950 . S
H2450 C2473 0.950 . S
H2451 C2475 0.950 . S
H2452 C2476 0.950 . S
H2453 C2477 0.951 . S
H2454 C2479 0.951 1_554 S
H2455 C2481 0.950 . S
H2456 C2482 0.950 . S
H2457 C2484 0.950 . S
H2458 C2487 0.950 . S
H2459 C2488 0.950 . S
H2460 C2490 0.950 . S
H2461 C2491 0.950 . S
C2462 H2444 0.951 . S
C2462 C2463 1.366 . S
C2462 C2464 1.388 . S
C2463 C2462 1.366 . S
C2463 C2467 1.385 . S
C2464 H2445 0.951 1_554 S
C2464 C2462 1.388 . S
C2464 C2465 1.366 . S
C2465 C2464 1.366 . S
C2465 C2466 1.414 . S
C2465 C2468 1.499 . S
C2466 H2446 0.950 . S
C2466 C2465 1.414 . S
C2466 C2467 1.374 . S
C2467 H2447 0.950 . S
C2467 C2463 1.385 . S
C2467 C2466 1.374 . S
C2468 C2465 1.499 . S
C2468 C2469 1.373 . S
C2468 C2470 1.389 1_554 S
C2469 H2448 0.950 . S
C2469 C2468 1.373 . S
C2469 C2485 1.377 1_565 S
C2470 C2468 1.389 1_556 S
C2470 C2471 1.524 . S
C2470 C2484 1.377 1_565 S
C2471 C2470 1.524 . S
C2471 C2472 1.397 1_556 S
C2471 C2476 1.363 . S
C2472 H2449 0.950 . S
C2472 C2471 1.397 1_554 S
C2472 C2473 1.334 . S
C2473 H2450 0.950 . S
C2473 C2472 1.334 . S
C2473 C2474 1.287 1_554 S
C2474 C2473 1.287 1_556 S
C2474 C2475 1.524 . S
C2474 H2493 0.913 . S
C2475 H2451 0.950 . S
C2475 C2474 1.524 . S
C2475 C2476 1.415 . S
C2476 H2452 0.950 . S
C2476 C2471 1.363 . S
C2476 C2475 1.415 . S
C2477 H2453 0.951 . S
C2477 C2478 1.366 . S
C2477 C2479 1.388 . S
C2478 C2477 1.366 . S
C2478 C2482 1.385 . S
C2479 H2454 0.951 1_556 S
C2479 C2477 1.388 . S
C2479 C2480 1.366 . S
C2480 C2479 1.366 . S
C2480 C2481 1.414 . S
C2480 C2483 1.499 . S
C2481 H2455 0.950 . S
C2481 C2480 1.414 . S
C2481 C2482 1.374 . S
C2482 H2456 0.950 . S
C2482 C2478 1.385 . S
C2482 C2481 1.374 . S
C2483 C2480 1.499 . S
C2483 C2484 1.373 . S
C2483 C2485 1.389 1_556 S
C2484 H2457 0.950 . S
C2484 C2470 1.377 1_545 S
C2484 C2483 1.373 . S
C2485 C2469 1.377 1_545 S
C2485 C2483 1.389 1_554 S
C2485 C2486 1.524 . S
C2486 C2485 1.524 . S
C2486 C2487 1.397 1_554 S
C2486 C2491 1.363 . S
C2487 H2458 0.950 . S
C2487 C2486 1.397 1_556 S
C2487 C2488 1.334 . S
C2488 H2459 0.950 . S
C2488 C2487 1.334 . S
C2488 C2489 1.287 1_556 S
C2489 C2488 1.287 1_554 S
C2489 C2490 1.524 . S
C2489 H2492 0.999 . S
C2490 H2460 0.950 . S
C2490 C2489 1.524 . S
C2490 C2491 1.415 . S
C2491 H2461 0.950 . S
C2491 C2486 1.363 . S
C2491 C2490 1.415 . S
H2492 C2489 0.999 . S
H2493 C2474 0.913 . S
H2494 C2512 0.951 . S
H2495 C2514 0.951 . S
H2496 C2516 0.950 . S
H2497 C2517 0.950 . S
H2498 C2519 0.950 . S
H2499 C2522 0.950 . S
H2500 C2523 0.950 . S
H2501 C2525 0.950 . S
H2502 C2526 0.950 . S
H2503 C2527 0.951 . S
H2504 C2529 0.951 . S
H2505 C2531 0.950 . S
H2506 C2532 0.950 . S
H2507 C2534 0.950 . S
H2508 C2537 0.950 . S
H2509 C2538 0.950 . S
H2510 C2540 0.950 . S
H2511 C2541 0.950 . S
C2512 H2494 0.951 . S
C2512 C2513 1.366 . S
C2512 C2514 1.388 . S
C2513 C2512 1.366 . S
C2513 C2517 1.385 . S
C2514 H2495 0.951 . S
C2514 C2512 1.388 . S
C2514 C2515 1.366 . S
C2515 C2514 1.366 . S
C2515 C2516 1.414 . S
C2515 C2518 1.499 . S
C2516 H2496 0.950 . S
C2516 C2515 1.414 . S
C2516 C2517 1.374 . S
C2517 H2497 0.950 . S
C2517 C2513 1.385 . S
C2517 C2516 1.374 . S
C2518 C2515 1.499 . S
C2518 C2519 1.373 . S
C2518 C2520 1.389 . S
C2519 H2498 0.950 . S
C2519 C2518 1.373 . S
C2519 C2535 1.377 1_545 S
C2520 C2518 1.389 . S
C2520 C2521 1.524 . S
C2520 C2534 1.377 1_545 S
C2521 C2520 1.524 . S
C2521 C2522 1.397 . S
C2521 C2526 1.363 . S
C2522 H2499 0.950 . S
C2522 C2521 1.397 . S
C2522 C2523 1.334 . S
C2523 H2500 0.950 . S
C2523 C2522 1.334 . S
C2523 C2524 1.287 . S
C2524 C2523 1.287 . S
C2524 C2525 1.524 . S
C2524 H2543 0.913 . S
C2525 H2501 0.950 . S
C2525 C2524 1.524 . S
C2525 C2526 1.415 . S
C2526 H2502 0.950 . S
C2526 C2521 1.363 . S
C2526 C2525 1.415 . S
C2527 H2503 0.951 . S
C2527 C2528 1.366 . S
C2527 C2529 1.388 . S
C2528 C2527 1.366 . S
C2528 C2532 1.385 . S
C2529 H2504 0.951 . S
C2529 C2527 1.388 . S
C2529 C2530 1.366 . S
C2530 C2529 1.366 . S
C2530 C2531 1.414 . S
C2530 C2533 1.499 . S
C2531 H2505 0.950 . S
C2531 C2530 1.414 . S
C2531 C2532 1.374 . S
C2532 H2506 0.950 . S
C2532 C2528 1.385 . S
C2532 C2531 1.374 . S
C2533 C2530 1.499 . S
C2533 C2534 1.373 . S
C2533 C2535 1.389 . S
C2534 H2507 0.950 . S
C2534 C2520 1.377 1_565 S
C2534 C2533 1.373 . S
C2535 C2519 1.377 1_565 S
C2535 C2533 1.389 . S
C2535 C2536 1.524 . S
C2536 C2535 1.524 . S
C2536 C2537 1.397 . S
C2536 C2541 1.363 . S
C2537 H2508 0.950 . S
C2537 C2536 1.397 . S
C2537 C2538 1.334 . S
C2538 H2509 0.950 . S
C2538 C2537 1.334 . S
C2538 C2539 1.287 . S
C2539 C2538 1.287 . S
C2539 C2540 1.524 . S
C2539 H2542 0.999 . S
C2540 H2510 0.950 . S
C2540 C2539 1.524 . S
C2540 C2541 1.415 . S
C2541 H2511 0.950 . S
C2541 C2536 1.363 . S
C2541 C2540 1.415 . S
H2542 C2539 0.999 . S
H2543 C2524 0.913 . S
C963 C52 1.533 . S
C978 C406 1.537 . S
C1013 C111 1.533 . S
C1028 C465 1.537 . S
C1063 C288 1.537 . S
C1078 C170 1.533 . S
C1113 C347 1.538 . S
C1128 C229 1.533 . S
C1163 C878 1.538 . S
C1178 C524 1.533 . S
C1213 C937 1.537 . S
C1228 C583 1.533 . S
C1263 C642 1.533 . S
C1278 C760 1.537 . S
C1313 C701 1.533 . S
C1328 C819 1.537 . S
C1363 C33 1.604 . S
C1378 C298 1.588 . S
C1413 C92 1.604 . S
C1428 C239 1.588 . S
C1463 C151 1.604 . S
C1478 C416 1.588 . S
C1513 C357 1.588 . S
C1528 C210 1.604 . S
C1563 C770 1.588 . S
C1578 C505 1.604 . S
C1613 C711 1.588 . S
C1628 C564 1.604 . S
C1663 C623 1.604 . S
C1678 C888 1.588 . S
C1713 C829 1.588 . S
C1728 C682 1.604 . S
C1763 C713 1.563 . S
C1778 C5 1.567 . S
C1813 C64 1.567 . S
C1828 C772 1.563 . S
C1863 C831 1.563 . S
C1878 C123 1.567 . S
C1913 C890 1.563 . S
C1928 C182 1.567 . S
C1963 C477 1.567 . S
C1978 C241 1.563 . S
C2013 C536 1.567 . S
C2028 C300 1.563 . S
C2063 C359 1.563 . S
C2078 C595 1.567 . S
C2113 C418 1.563 . S
C2128 C654 1.567 . S
C2163 C121 1.132 . S
C2178 C3 1.133 . S
C2213 C62 1.133 . S
C2228 C180 1.133 . S
C2263 C387 2.005 . S
C2278 C269 2.005 . S
C2313 C328 2.005 . S
C2328 C446 2.005 . S
C2363 C593 1.133 . S
C2378 C475 1.133 . S
C2413 C652 1.133 . S
C2428 C534 1.132 . S
C2463 C859 2.005 . S
C2478 C741 2.005 . S
C2513 C918 2.005 . S
C2528 C800 2.005 . S
