# Generated by pormake.
# Topology lcy-a, (4)-cn, num edge types: 1
# Building blocks:
#     Node 0, Type 0, BuildingBlock: QUQFOY_clean_sbu_3, # of connection points: 4
#     Node 1, Type 0, BuildingBlock: QUQFOY_clean_sbu_3, # of connection points: 4
#     Node 2, Type 0, BuildingBlock: QUQFOY_clean_sbu_3, # of connection points: 4
#     Node 3, Type 0, BuildingBlock: QUQFOY_clean_sbu_3, # of connection points: 4
#     Node 4, Type 0, BuildingBlock: QUQFOY_clean_sbu_3, # of connection points: 4
#     Node 5, Type 0, BuildingBlock: QUQFOY_clean_sbu_3, # of connection points: 4
#     Node 6, Type 0, BuildingBlock: QUQFOY_clean_sbu_3, # of connection points: 4
#     Node 7, Type 0, BuildingBlock: QUQFOY_clean_sbu_3, # of connection points: 4
#     Node 8, Type 0, BuildingBlock: QUQFOY_clean_sbu_3, # of connection points: 4
#     Node 9, Type 0, BuildingBlock: QUQFOY_clean_sbu_3, # of connection points: 4
#     Node 10, Type 0, BuildingBlock: QUQFOY_clean_sbu_3, # of connection points: 4
#     Node 11, Type 0, BuildingBlock: QUQFOY_clean_sbu_3, # of connection points: 4
#     Node 12, Type 0, BuildingBlock: QUQFOY_clean_sbu_3, # of connection points: 4
#     Node 13, Type 0, BuildingBlock: QUQFOY_clean_sbu_3, # of connection points: 4
#     Node 14, Type 0, BuildingBlock: QUQFOY_clean_sbu_3, # of connection points: 4
#     Node 15, Type 0, BuildingBlock: QUQFOY_clean_sbu_3, # of connection points: 4
#     Node 16, Type 0, BuildingBlock: QUQFOY_clean_sbu_3, # of connection points: 4
#     Node 17, Type 0, BuildingBlock: QUQFOY_clean_sbu_3, # of connection points: 4
#     Node 18, Type 0, BuildingBlock: QUQFOY_clean_sbu_3, # of connection points: 4
#     Node 19, Type 0, BuildingBlock: QUQFOY_clean_sbu_3, # of connection points: 4
#     Node 20, Type 0, BuildingBlock: QUQFOY_clean_sbu_3, # of connection points: 4
#     Node 21, Type 0, BuildingBlock: QUQFOY_clean_sbu_3, # of connection points: 4
#     Node 22, Type 0, BuildingBlock: QUQFOY_clean_sbu_3, # of connection points: 4
#     Node 23, Type 0, BuildingBlock: QUQFOY_clean_sbu_3, # of connection points: 4
#     Edge 24, Type (0, 0), BuildingBlock: OJICUG_clean_linker_0, # of connection points: 2
#     Edge 25, Type (0, 0), BuildingBlock: OJICUG_clean_linker_0, # of connection points: 2
#     Edge 26, Type (0, 0), BuildingBlock: OJICUG_clean_linker_0, # of connection points: 2
#     Edge 27, Type (0, 0), BuildingBlock: OJICUG_clean_linker_0, # of connection points: 2
#     Edge 28, Type (0, 0), BuildingBlock: OJICUG_clean_linker_0, # of connection points: 2
#     Edge 29, Type (0, 0), BuildingBlock: OJICUG_clean_linker_0, # of connection points: 2
#     Edge 30, Type (0, 0), BuildingBlock: OJICUG_clean_linker_0, # of connection points: 2
#     Edge 31, Type (0, 0), BuildingBlock: OJICUG_clean_linker_0, # of connection points: 2
#     Edge 32, Type (0, 0), BuildingBlock: OJICUG_clean_linker_0, # of connection points: 2
#     Edge 33, Type (0, 0), BuildingBlock: OJICUG_clean_linker_0, # of connection points: 2
#     Edge 34, Type (0, 0), BuildingBlock: OJICUG_clean_linker_0, # of connection points: 2
#     Edge 35, Type (0, 0), BuildingBlock: OJICUG_clean_linker_0, # of connection points: 2
#     Edge 36, Type (0, 0), BuildingBlock: OJICUG_clean_linker_0, # of connection points: 2
#     Edge 37, Type (0, 0), BuildingBlock: OJICUG_clean_linker_0, # of connection points: 2
#     Edge 38, Type (0, 0), BuildingBlock: OJICUG_clean_linker_0, # of connection points: 2
#     Edge 39, Type (0, 0), BuildingBlock: OJICUG_clean_linker_0, # of connection points: 2
#     Edge 40, Type (0, 0), BuildingBlock: OJICUG_clean_linker_0, # of connection points: 2
#     Edge 41, Type (0, 0), BuildingBlock: OJICUG_clean_linker_0, # of connection points: 2
#     Edge 42, Type (0, 0), BuildingBlock: OJICUG_clean_linker_0, # of connection points: 2
#     Edge 43, Type (0, 0), BuildingBlock: OJICUG_clean_linker_0, # of connection points: 2
#     Edge 44, Type (0, 0), BuildingBlock: OJICUG_clean_linker_0, # of connection points: 2
#     Edge 45, Type (0, 0), BuildingBlock: OJICUG_clean_linker_0, # of connection points: 2
#     Edge 46, Type (0, 0), BuildingBlock: OJICUG_clean_linker_0, # of connection points: 2
#     Edge 47, Type (0, 0), BuildingBlock: OJICUG_clean_linker_0, # of connection points: 2
#     Edge 48, Type (0, 0), BuildingBlock: OJICUG_clean_linker_0, # of connection points: 2
#     Edge 49, Type (0, 0), BuildingBlock: OJICUG_clean_linker_0, # of connection points: 2
#     Edge 50, Type (0, 0), BuildingBlock: OJICUG_clean_linker_0, # of connection points: 2
#     Edge 51, Type (0, 0), BuildingBlock: OJICUG_clean_linker_0, # of connection points: 2
#     Edge 52, Type (0, 0), BuildingBlock: OJICUG_clean_linker_0, # of connection points: 2
#     Edge 53, Type (0, 0), BuildingBlock: OJICUG_clean_linker_0, # of connection points: 2
#     Edge 54, Type (0, 0), BuildingBlock: OJICUG_clean_linker_0, # of connection points: 2
#     Edge 55, Type (0, 0), BuildingBlock: OJICUG_clean_linker_0, # of connection points: 2
#     Edge 56, Type (0, 0), BuildingBlock: OJICUG_clean_linker_0, # of connection points: 2
#     Edge 57, Type (0, 0), BuildingBlock: OJICUG_clean_linker_0, # of connection points: 2
#     Edge 58, Type (0, 0), BuildingBlock: OJICUG_clean_linker_0, # of connection points: 2
#     Edge 59, Type (0, 0), BuildingBlock: OJICUG_clean_linker_0, # of connection points: 2
#     Edge 60, Type (0, 0), BuildingBlock: OJICUG_clean_linker_0, # of connection points: 2
#     Edge 61, Type (0, 0), BuildingBlock: OJICUG_clean_linker_0, # of connection points: 2
#     Edge 62, Type (0, 0), BuildingBlock: OJICUG_clean_linker_0, # of connection points: 2
#     Edge 63, Type (0, 0), BuildingBlock: OJICUG_clean_linker_0, # of connection points: 2
#     Edge 64, Type (0, 0), BuildingBlock: OJICUG_clean_linker_0, # of connection points: 2
#     Edge 65, Type (0, 0), BuildingBlock: OJICUG_clean_linker_0, # of connection points: 2
#     Edge 66, Type (0, 0), BuildingBlock: OJICUG_clean_linker_0, # of connection points: 2
#     Edge 67, Type (0, 0), BuildingBlock: OJICUG_clean_linker_0, # of connection points: 2
#     Edge 68, Type (0, 0), BuildingBlock: OJICUG_clean_linker_0, # of connection points: 2
#     Edge 69, Type (0, 0), BuildingBlock: OJICUG_clean_linker_0, # of connection points: 2
#     Edge 70, Type (0, 0), BuildingBlock: OJICUG_clean_linker_0, # of connection points: 2
#     Edge 71, Type (0, 0), BuildingBlock: OJICUG_clean_linker_0, # of connection points: 2
# Relax obj value: 0.405
# Max RMSD: 0.180
# Mean RMSD: 0.180
data_MOF--net-lcy-a--node1-QUQFOY_clean_sbu_3--edge1-OJICUG_clean_linker_0
_symmetry_space_group_name_H-M    P1
_symmetry_Int_Tables_number       1
_symmetry_cell_setting            triclinic
loop_
_symmetry_equiv_pos_as_xyz
'x, y, z'
_cell_length_a     44.079202
_cell_length_b     43.923929
_cell_length_c     43.334964
_cell_angle_alpha  90.296212
_cell_angle_beta   89.481373
_cell_angle_gamma 90.67199
loop_
_atom_site_label
_atom_site_type_symbol
_atom_site_fract_x
_atom_site_fract_y
_atom_site_fract_z
_atom_type_partial_charge
C0 C 0.21283 0.23632 0.3478 0.0
O1 O 0.22112 0.26283 0.33954 0.0
Cd2 Cd 0.2174 0.30317 0.37741 0.0
O3 O 0.19645 0.23292 0.37175 0.0
Cd4 Cd 0.16865 0.2737 0.39756 0.0
C5 C 0.16447 0.3279 0.34469 0.0
O6 O 0.21393 0.28207 0.4279 0.0
O7 O 0.1764 0.31043 0.44097 0.0
O8 O 0.15004 0.22733 0.41799 0.0
C9 C 0.20239 0.30013 0.44738 0.0
O10 O 0.18042 0.34092 0.36508 0.0
C11 C 0.12335 0.2362 0.42376 0.0
O12 O 0.15807 0.29987 0.34838 0.0
O13 O 0.11679 0.26325 0.41611 0.0
C14 C 0.96056 -0.01508 0.61666 0.0
O15 O 0.93837 0.00306 0.61618 0.0
Cd16 Cd 0.89538 7e-05 0.65136 0.0
O17 O 0.95999 0.962 0.63424 0.0
Cd18 Cd 0.9191 0.93936 0.66513 0.0
C19 C 0.86063 0.9415 0.61769 0.0
O20 O 0.90852 -0.0186 0.701 0.0
O21 O 0.88011 0.9412 0.70483 0.0
O22 O 0.96051 0.91913 0.69204 0.0
C23 C 0.88777 0.96703 0.71557 0.0
O24 O 0.85697 0.96783 0.62929 0.0
C25 C 0.95209 0.89159 0.68918 0.0
O26 O 0.88477 0.92682 0.62261 0.0
O27 O 0.92783 0.88608 0.67445 0.0
C28 C 0.20599 0.75472 0.88341 0.0
O29 O 0.19384 0.73722 0.90332 0.0
Cd30 Cd 0.20828 0.68558 0.90552 0.0
O31 O 0.23048 0.74713 0.86972 0.0
Cd32 Cd 0.27131 0.70922 0.8747 0.0
C33 C 0.2265 0.67206 0.82657 0.0
O34 O 0.2576 0.68861 0.92385 0.0
O35 O 0.28288 0.65795 0.89531 0.0
O36 O 0.29715 0.75322 0.89303 0.0
C37 C 0.26906 0.66259 0.92068 0.0
O38 O 0.21033 0.66885 0.85099 0.0
C39 C 0.32276 0.74731 0.88106 0.0
O40 O 0.2512 0.68749 0.82703 0.0
O41 O 0.32446 0.72356 0.86414 0.0
C42 C 0.48304 0.94482 0.13502 0.0
O43 O 0.47971 0.96949 0.12067 0.0
Cd44 Cd 0.51802 0.00264 0.14988 0.0
O45 O 0.501 0.94583 0.15747 0.0
Cd46 Cd 0.51677 -7e-05 0.15307 0.0
C47 C 0.55465 0.00608 0.09396 0.0
O48 O 0.53882 -0.01532 0.19965 0.0
O49 O 0.56554 0.01961 0.17772 0.0
O50 O 0.46692 0.01401 0.17425 0.0
C51 C 0.56221 0.00156 0.20033 0.0
O52 O 0.56226 0.02117 0.11748 0.0
C53 C 0.46862 0.04191 0.16688 0.0
O54 O 0.53057 -0.00946 0.09643 0.0
O55 O 0.49171 0.05042 0.15129 0.0
C56 C 0.77023 0.21371 0.54638 0.0
O57 O 0.78679 0.19274 0.5354 0.0
Cd58 Cd 0.76539 0.14463 0.51971 0.0
O59 O 0.74149 0.21149 0.5451 0.0
Cd60 Cd 0.70305 0.17698 0.52287 0.0
C61 C 0.71947 0.13561 0.58386 0.0
O62 O 0.72983 0.1541 0.47995 0.0
O63 O 0.68981 0.12988 0.49561 0.0
O64 O 0.68179 0.21978 0.49806 0.0
C65 C 0.71113 0.13234 0.47586 0.0
O66 O 0.74218 0.12637 0.56818 0.0
C67 C 0.65525 0.21515 0.50881 0.0
O68 O 0.7018 0.15559 0.57346 0.0
O69 O 0.65109 0.19246 0.52648 0.0
C70 C -0.00697 0.48405 0.8541 0.0
O71 O 0.02069 0.48901 0.86037 0.0
Cd72 Cd 0.05809 0.48454 0.81948 0.0
O73 O -0.01396 0.47147 0.82878 0.0
Cd74 Cd 0.02379 0.44234 0.80039 0.0
C75 C 0.07873 0.43108 0.85205 0.0
O76 O 0.03707 0.48554 0.76867 0.0
O77 O 0.05974 0.44394 0.75603 0.0
O78 O -0.0227 0.4281 0.777 0.0
C79 C 0.05245 0.47091 0.7489 0.0
O80 O 0.09378 0.44546 0.83169 0.0
C81 C -0.01807 0.39975 0.7783 0.0
O82 O 0.05028 0.42837 0.84833 0.0
O83 O 0.00683 0.39094 0.78969 0.0
C84 C 0.68283 0.72619 0.06926 0.0
O85 O 0.70953 0.72435 0.07929 0.0
Cd86 Cd 0.73695 0.76067 0.04285 0.0
O87 O 0.67959 0.74226 0.04548 0.0
Cd88 Cd 0.73352 0.75925 0.04046 0.0
C89 C 0.7481 0.8011 0.09419 0.0
O90 O 0.71754 0.77965 -0.00711 0.0
O91 O 0.75455 0.80545 0.01194 0.0
O92 O 0.75088 0.709 0.02215 0.0
C93 C 0.7356 0.80212 -0.00968 0.0
O94 O 0.76524 0.80228 0.0708 0.0
C95 C 0.77661 0.71026 0.03512 0.0
O96 O 0.72681 0.78171 0.09365 0.0
O97 O 0.78241 0.73357 0.05158 0.0
C98 C 0.50622 0.47078 0.32964 0.0
O99 O 0.49605 0.46111 0.30409 0.0
Cd100 Cd 0.44222 0.46171 0.30332 0.0
O101 O 0.49104 0.49016 0.34516 0.0
Cd102 Cd 0.4487 0.52595 0.33728 0.0
C103 C 0.42351 0.47164 0.38287 0.0
O104 O 0.43113 0.51078 0.28722 0.0
O105 O 0.39676 0.52941 0.31698 0.0
O106 O 0.48973 0.55723 0.32147 0.0
C107 C 0.40348 0.51715 0.29125 0.0
O108 O 0.42631 0.45601 0.35806 0.0
C109 C 0.48041 0.58184 0.33344 0.0
O110 O 0.42992 0.50006 0.3833 0.0
O111 O 0.45558 0.58075 0.34876 0.0
C112 C 0.34309 0.23026 0.22634 0.0
O113 O 0.32743 0.22456 0.25011 0.0
Cd114 Cd 0.36172 0.18922 0.27504 0.0
O115 O 0.36786 0.2164 0.22331 0.0
Cd116 Cd 0.37144 0.17831 0.266 0.0
C117 C 0.30744 0.1699 0.30097 0.0
O118 O 0.40541 0.21623 0.29038 0.0
O119 O 0.39659 0.17792 0.31962 0.0
O120 O 0.40321 0.15959 0.22536 0.0
C121 C 0.41129 0.20259 0.31505 0.0
O122 O 0.32901 0.17595 0.31924 0.0
C123 C 0.39964 0.13166 0.23163 0.0
O124 O 0.31408 0.16772 0.2726 0.0
O125 O 0.38323 0.12508 0.25497 0.0
C126 C 0.95846 0.08129 0.52433 0.0
O127 O 0.96171 0.06781 0.55 0.0
Cd128 Cd -0.01398 0.08819 0.59576 0.0
O129 O -0.02693 0.1057 0.51806 0.0
Cd130 Cd 0.01643 0.12712 0.54603 0.0
C131 C 0.04428 0.06417 0.5732 0.0
O132 O -0.02029 0.14032 0.58545 0.0
O133 O 0.0242 0.15975 0.59304 0.0
O134 O 0.01933 0.16484 0.50511 0.0
C135 C -0.00354 0.1579 0.60098 0.0
O136 O 0.04029 0.08117 0.59646 0.0
C137 C 0.04809 0.16332 0.50325 0.0
O138 O 0.03898 0.07605 0.54727 0.0
O139 O 0.0614 0.14556 0.52165 0.0
C140 C 0.10286 0.71484 0.72236 0.0
O141 O 0.11353 0.70263 0.74631 0.0
Cd142 Cd 0.08524 0.70603 0.79444 0.0
O143 O 0.08012 0.73204 0.72465 0.0
Cd144 Cd 0.05782 0.75367 0.77102 0.0
C145 C 0.11187 0.77076 0.81798 0.0
O146 O 0.03105 0.70812 0.79144 0.0
O147 O 0.0314 0.74844 0.82011 0.0
O148 O 0.01929 0.77032 0.73622 0.0
C149 C 0.02045 0.72214 0.81475 0.0
O150 O 0.1038 0.74505 0.82859 0.0
C151 C 0.0216 0.79794 0.7446 0.0
O152 O 0.10375 0.77838 0.79118 0.0
O153 O 0.0406 0.80448 0.76546 0.0
C154 C 0.52293 0.78939 0.01444 0.0
O155 O 0.52824 0.77357 0.0382 0.0
Cd156 Cd 0.48825 0.7571 0.0719 0.0
O157 O 0.4958 0.79465 0.00633 0.0
Cd158 Cd 0.4425 0.78322 0.0193 0.0
C159 C 0.45586 0.82881 0.08063 0.0
O160 O 0.45133 0.73423 0.03925 0.0
O161 O 0.40827 0.75204 0.05308 0.0
O162 O 0.43611 0.76957 0.96575 0.0
C163 C 0.4268 0.73016 0.05402 0.0
O164 O 0.47065 0.80658 0.09159 0.0
C165 C 0.41287 0.78583 0.96183 0.0
O166 O 0.44389 0.82701 0.054 0.0
O167 O 0.40374 0.80154 -0.01522 0.0
C168 C 0.82324 0.23231 0.74546 0.0
O169 O 0.81433 0.23673 0.71825 0.0
Cd170 Cd 0.86361 0.25762 0.69816 0.0
O171 O 0.85019 0.24015 0.75119 0.0
Cd172 Cd 0.86891 0.2638 0.70241 0.0
C173 C 0.83286 0.27151 0.6428 0.0
O174 O 0.89803 0.21669 0.69317 0.0
O175 O 0.9161 0.25638 0.67058 0.0
O176 O 0.89085 0.2888 0.74547 0.0
C177 C 0.91902 0.22841 0.67685 0.0
O178 O 0.86133 0.26964 0.64239 0.0
C179 C 0.89539 0.31394 0.73193 0.0
O180 O 0.82049 0.27109 0.66921 0.0
O181 O 0.88523 0.31679 0.70471 0.0
C182 C -0.02125 0.61217 0.00607 0.0
O183 O 0.95537 0.59537 0.00529 0.0
Cd184 Cd 0.92951 0.62014 0.95982 0.0
O185 O -0.02095 0.63441 -0.01214 0.0
Cd186 Cd 0.93169 0.62372 0.95917 0.0
C187 C 0.92781 0.56058 0.93155 0.0
O188 O 0.95489 0.66505 0.93473 0.0
O189 O 0.93354 0.63551 0.90169 0.0
O190 O 0.90326 0.64716 0.00212 0.0
C191 C 0.94958 0.65918 0.90674 0.0
O192 O 0.91205 0.58153 0.92029 0.0
C193 C 0.87701 0.64186 -0.00863 0.0
O194 O 0.94243 0.56739 0.95548 0.0
O195 O 0.87551 0.62762 0.96582 0.0
C196 C 0.55614 0.75637 0.21358 0.0
O197 O 0.55766 0.73335 0.23081 0.0
Cd198 Cd 0.53179 0.69677 0.19399 0.0
O199 O 0.54276 0.75245 0.18825 0.0
Cd200 Cd 0.5314 0.69683 0.19389 0.0
C201 C 0.58083 0.69609 0.14719 0.0
O202 O 0.47952 0.70358 0.17895 0.0
O203 O 0.50227 0.66908 0.1524 0.0
O204 O 0.51158 0.69596 0.24838 0.0
C205 C 0.47837 0.68456 0.15693 0.0
O206 O 0.55545 0.70788 0.14205 0.0
C207 C 0.52496 0.67164 0.25562 0.0
O208 O 0.58366 0.68385 0.17329 0.0
O209 O 0.54166 0.65953 0.23504 0.0
C210 C 0.4643 0.35517 0.4917 0.0
O211 O 0.45528 0.3683 0.46756 0.0
Cd212 Cd 0.46272 0.34018 0.41982 0.0
O213 O 0.4815 0.33243 0.48915 0.0
Cd214 Cd 0.50739 0.31744 0.44209 0.0
C215 C 0.52134 0.37361 0.39712 0.0
O216 O 0.46463 0.28585 0.42354 0.0
O217 O 0.5034 0.28918 0.39311 0.0
O218 O 0.52945 0.28253 0.4777 0.0
C219 C 0.47871 0.2757 0.40014 0.0
O220 O 0.49948 0.36024 0.3838 0.0
C221 C 0.55616 0.28635 0.46723 0.0
O222 O 0.52605 0.36795 0.42527 0.0
O223 O 0.55986 0.30472 0.44502 0.0
C224 C 0.22238 0.3729 0.23993 0.0
O225 O 0.24347 0.35536 0.23188 0.0
Cd226 Cd 0.27661 0.39309 0.20593 0.0
O227 O 0.22488 0.40031 0.23155 0.0
Cd228 Cd 0.27134 0.40288 0.19763 0.0
C229 C 0.30384 0.34123 0.18143 0.0
O230 O 0.29586 0.42811 0.24228 0.0
O231 O 0.32192 0.43058 0.20031 0.0
O232 O 0.23757 0.43958 0.1776 0.0
C233 C 0.31859 0.43915 0.22816 0.0
O234 O 0.32097 0.36297 0.18977 0.0
C235 C 0.24715 0.43734 0.15004 0.0
O236 O 0.2758 0.34667 0.18061 0.0
O237 O 0.26843 0.41879 0.14457 0.0
C238 C 0.74095 0.10673 0.70856 0.0
O239 O 0.76586 0.11916 0.7166 0.0
Cd240 Cd 0.80027 0.0954 0.75183 0.0
O241 O 0.72934 0.08487 0.72391 0.0
Cd242 Cd 0.74268 0.06843 0.77552 0.0
C243 C 0.77226 0.13281 0.80297 0.0
O244 O 0.78462 0.04368 0.75142 0.0
O245 O 0.78315 0.03724 0.80068 0.0
O246 O 0.69908 0.034 0.77151 0.0
C247 C 0.79493 0.03046 0.77472 0.0
O248 O 0.79544 0.11609 0.8033 0.0
C249 C 0.68838 0.04169 0.7977 0.0
O250 O 0.74815 0.12164 0.79158 0.0
O251 O 0.70345 0.06108 0.81333 0.0
C252 C 0.12331 0.48 0.96109 0.0
O253 O 0.10628 0.50134 0.96973 0.0
Cd254 Cd 0.14441 0.5323 -0.0027 0.0
O255 O 0.15043 0.4812 0.97015 0.0
Cd256 Cd 0.15353 0.52615 0.00598 0.0
C257 C 0.09463 0.56316 0.02262 0.0
O258 O 0.18215 0.55118 0.96331 0.0
O259 O 0.18419 0.57494 0.00662 0.0
O260 O 0.18733 0.48933 0.02624 0.0
C261 C 0.19378 0.57257 0.97901 0.0
O262 O 0.11754 0.57853 0.014 0.0
C263 C 0.18537 0.49886 0.05381 0.0
O264 O 0.0974 0.53455 0.02223 0.0
O265 O 0.16789 0.52104 0.05925 0.0
C266 C 0.71479 0.88889 0.18219 0.0
O267 O 0.69867 0.90945 0.17028 0.0
Cd268 Cd 0.65785 0.93154 0.19921 0.0
O269 O 0.71286 0.88298 0.21083 0.0
Cd270 Cd 0.69097 0.89974 0.25984 0.0
C271 C 0.62921 0.864 0.23209 0.0
O272 O 0.68008 0.95009 0.24506 0.0
O273 O 0.65719 0.93616 0.28657 0.0
O274 O 0.74261 0.90489 0.2752 0.0
C275 C 0.66065 0.95619 0.26577 0.0
O276 O 0.62728 0.886 0.21305 0.0
C277 C 0.7396 0.88951 0.29977 0.0
O278 O 0.65082 0.86285 0.25139 0.0
O279 O 0.71336 0.87853 0.30585 0.0
C280 C 0.37436 0.4083 0.48922 0.0
O281 O 0.3785 0.37968 0.49131 0.0
Cd282 Cd 0.35226 0.34201 0.52263 0.0
O283 O 0.35603 0.42207 0.50743 0.0
Cd284 Cd 0.32292 0.40657 0.55177 0.0
C285 C 0.37671 0.37143 0.584 0.0
O286 O 0.30537 0.36697 0.5171 0.0
O287 O 0.27747 0.37182 0.55771 0.0
O288 O 0.29793 0.45497 0.54453 0.0
C289 C 0.28203 0.35876 0.53196 0.0
O290 O 0.35831 0.35011 0.57737 0.0
C291 C 0.2934 0.45886 0.57332 0.0
O292 O 0.36534 0.39757 0.58693 0.0
O293 O 0.30277 0.43845 0.5914 0.0
C294 C 0.17164 0.62709 0.71495 0.0
O295 O 0.14314 0.63167 0.71447 0.0
Cd296 Cd 0.10422 0.61139 0.68105 0.0
O297 O 0.18487 0.61097 0.69432 0.0
Cd298 Cd 0.16674 0.58365 0.64708 0.0
C299 C 0.13291 0.64123 0.62232 0.0
O300 O 0.12796 0.56377 0.68136 0.0
O301 O 0.1277 0.5422 0.63673 0.0
O302 O 0.21259 0.5546 0.65163 0.0
C303 C 0.1172 0.54342 0.66402 0.0
O304 O 0.11278 0.62096 0.6268 0.0
C305 C 0.21562 0.5507 0.62267 0.0
O306 O 0.15975 0.63176 0.61921 0.0
O307 O 0.19636 0.56316 0.60532 0.0
C308 C 0.63397 0.96308 -1e-05 0.0
O309 O 0.65737 0.95066 0.01104 0.0
Cd310 Cd 0.68201 0.90812 -0.01298 0.0
O311 O 0.62506 0.95673 0.97278 0.0
Cd312 Cd 0.64003 0.9288 0.92541 0.0
C313 C 0.61557 0.8685 0.96605 0.0
O314 O 0.69233 0.922 0.9359 0.0
O315 O 0.67525 0.89457 0.89878 0.0
O316 O 0.63781 -0.02227 0.90318 0.0
C317 C 0.69647 0.89968 0.91774 0.0
O318 O 0.63961 0.87176 -0.01794 0.0
C319 C 0.6256 0.96933 0.87808 0.0
O320 O 0.60915 0.887 0.9445 0.0
O321 O 0.61821 0.94134 0.87534 0.0
C322 C 0.79529 0.96243 0.51523 0.0
O323 O 0.77954 -0.01434 0.52179 0.0
Cd324 Cd 0.77516 0.02816 0.48849 0.0
O325 O 0.80674 0.95905 0.48838 0.0
Cd326 Cd 0.8049 -0.01697 0.4372 0.0
C327 C 0.85191 0.03431 0.46806 0.0
O328 O 0.75665 0.00614 0.44284 0.0
O329 O 0.78399 0.02627 0.40727 0.0
O330 O 0.78937 0.9335 0.42084 0.0
C331 C 0.7591 0.02622 0.42223 0.0
O332 O 0.82836 0.04521 0.48121 0.0
C333 C 0.8056 0.93303 0.39653 0.0
O334 O 0.85048 0.01021 0.45167 0.0
O335 O 0.82307 0.95584 0.39174 0.0
C336 C 0.05417 0.20762 0.46749 0.0
C337 C 0.06575 0.18108 0.4807 0.0
H338 H 0.06362 0.24638 0.43885 0.0
C339 C 0.09516 0.17176 0.47302 0.0
H340 H 0.03145 0.21514 0.47307 0.0
C341 C 0.11316 0.18913 0.45331 0.0
C342 C 0.10232 0.21647 0.44118 0.0
H343 H 0.10448 0.15117 0.48258 0.0
H344 H 0.13602 0.18154 0.44845 0.0
C345 C 0.07249 0.2254 0.44797 0.0
C346 C 0.96292 0.83669 0.6967 0.0
C347 C 0.96967 0.86735 0.70304 0.0
H348 H -0.02558 0.79032 0.705 0.0
C349 C -0.00661 0.87496 0.72311 0.0
H350 H 0.94471 0.83035 0.68124 0.0
C351 C 0.0101 0.85225 0.73679 0.0
C352 C 0.00351 0.82159 0.73041 0.0
H353 H -0.00102 0.89848 0.72845 0.0
H354 H 0.02831 0.85877 0.75219 0.0
C355 C -0.02012 0.81389 0.71023 0.0
C356 C 0.34588 0.79044 0.90982 0.0
C357 C 0.34979 0.76384 0.89212 0.0
H358 H 0.36331 0.8186 0.94605 0.0
C359 C 0.37808 0.74955 0.89191 0.0
H360 H 0.32445 0.80228 0.90994 0.0
C361 C 0.40041 0.75897 0.91264 0.0
C362 C 0.39457 0.7827 0.93371 0.0
H363 H 0.3818 0.72917 0.87828 0.0
H364 H 0.42094 0.74576 0.91415 0.0
C365 C 0.36809 0.79976 0.9306 0.0
C366 C 0.42602 0.0553 0.20242 0.0
C367 C 0.44724 0.06416 0.17969 0.0
H368 H 0.39437 0.0699 0.23705 0.0
C369 C 0.45064 0.09509 0.17239 0.0
H370 H 0.42294 0.03157 0.2085 0.0
C371 C 0.4344 0.11694 0.18875 0.0
C372 C 0.41455 0.10823 0.21276 0.0
H373 H 0.46678 0.10256 0.15493 0.0
H374 H 0.43821 0.14071 0.18324 0.0
C375 C 0.40984 0.07721 0.21892 0.0
C376 C 0.63521 0.25824 0.47882 0.0
C377 C 0.63014 0.23467 0.50002 0.0
H378 H 0.61556 0.2932 0.45182 0.0
C379 C 0.60079 0.22919 0.51168 0.0
H380 H 0.65767 0.26301 0.46957 0.0
C381 C 0.57667 0.24655 0.50155 0.0
C382 C 0.58165 0.26948 0.47959 0.0
H383 H 0.59635 0.21118 0.52815 0.0
H384 H 0.5541 0.24157 0.5104 0.0
C385 C 0.61112 0.27549 0.46863 0.0
C386 C 0.91588 0.36681 0.73475 0.0
C387 C 0.91533 0.33689 0.74573 0.0
H388 H 0.93763 0.41049 0.73688 0.0
C389 C 0.9363 0.32795 0.76808 0.0
H390 H 0.89999 0.37406 0.71741 0.0
C391 C 0.95823 0.34839 0.77854 0.0
C392 C 0.95901 0.37818 0.7673 0.0
H393 H 0.93652 0.30483 0.77667 0.0
H394 H -0.0255 0.34089 0.7954 0.0
C395 C 0.93741 0.38748 0.74577 0.0
C396 C 0.82827 0.68996 0.04321 0.0
C397 C 0.80025 0.68791 0.02819 0.0
H398 H 0.87463 0.67653 0.04345 0.0
C399 C 0.79653 0.66711 0.00376 0.0
H400 H 0.83166 0.70561 0.06231 0.0
C401 C 0.82123 0.65056 -0.00718 0.0
C402 C 0.84986 0.65449 0.00631 0.0
H403 H 0.7751 0.665 -0.00814 0.0
H404 H 0.81823 0.63595 0.97284 0.0
C405 C 0.85288 0.67332 0.03239 0.0
C406 C 0.53664 0.6316 0.29362 0.0
C407 C 0.51783 0.65532 0.28438 0.0
H408 H 0.53951 0.58975 0.31812 0.0
C409 C 0.48949 0.65901 0.29901 0.0
H410 H 0.55883 0.62863 0.28315 0.0
C411 C 0.47831 0.63659 0.31908 0.0
C412 C 0.49552 0.61053 0.32459 0.0
H413 H 0.47465 0.67732 0.29244 0.0
H414 H 0.45507 0.63799 0.32727 0.0
C415 C 0.5256 0.60942 0.31373 0.0
C416 C 0.2397 0.44783 0.09443 0.0
C417 C 0.23308 0.45461 0.12539 0.0
H418 H 0.22945 0.4566 0.0473 0.0
C419 C 0.21174 0.47705 0.13269 0.0
H420 H 0.25612 0.43063 0.08826 0.0
C421 C 0.19658 0.49196 0.10932 0.0
C422 C 0.20243 0.48444 0.07839 0.0
H423 H 0.20639 0.48279 0.15645 0.0
H424 H 0.17985 0.50886 0.11551 0.0
C425 C 0.22437 0.46258 0.07106 0.0
C426 C 0.63045 0.02111 0.8572 0.0
C427 C 0.62766 -0.01025 0.85149 0.0
H428 H 0.6524 0.06266 0.84395 0.0
C429 C 0.63723 -0.02205 0.82288 0.0
H430 H 0.62275 0.03077 0.87892 0.0
C431 C 0.65445 -0.00379 0.80287 0.0
C432 C 0.6619 0.02623 0.81148 0.0
H433 H 0.63517 0.95382 0.8179 0.0
H434 H 0.66477 -0.01418 0.78268 0.0
C435 C 0.64768 0.03926 0.83735 0.0
C436 C 0.79068 0.90645 0.31697 0.0
C437 C 0.76397 0.88951 0.32268 0.0
H438 H 0.82613 0.93339 0.33691 0.0
C439 C 0.75813 0.87855 0.3525 0.0
H440 H 0.79628 0.9144 0.29397 0.0
C441 C 0.7755 0.88916 0.37708 0.0
C442 C 0.79852 0.91102 0.37192 0.0
H443 H 0.73819 0.86468 0.35739 0.0
H444 H 0.76837 0.88324 0.4003 0.0
C445 C 0.80794 0.91721 0.34158 0.0
C446 C 0.25622 0.51257 0.62955 0.0
C447 C 0.2387 0.53028 0.6098 0.0
H448 H 0.28741 0.47601 0.63333 0.0
C449 C 0.24143 0.52623 0.57771 0.0
H450 H 0.25461 0.51524 0.65437 0.0
C451 C 0.26031 0.5038 0.56562 0.0
C452 C 0.27653 0.48499 0.58549 0.0
H453 H 0.22823 0.53968 0.56195 0.0
H454 H 0.26124 0.50041 0.54086 0.0
C455 C 0.27491 0.49004 0.61749 0.0
C456 C 0.26997 0.3155 0.49769 0.0
C457 C 0.25953 0.33907 0.51676 0.0
H458 H 0.2599 0.28438 0.46127 0.0
C459 C 0.22886 0.34726 0.51581 0.0
H460 H 0.2936 0.30893 0.49801 0.0
C461 C 0.20949 0.33365 0.49412 0.0
C462 C 0.22063 0.31151 0.47351 0.0
H463 H 0.22049 0.36573 0.53007 0.0
H464 H 0.18636 0.34147 0.49248 0.0
C465 C 0.25067 0.30166 0.4765 0.0
C466 C 0.87155 0.01372 0.74395 0.0
C467 C 0.86876 -0.0178 0.73912 0.0
H468 H 0.84971 0.05403 0.76036 0.0
C469 C 0.84477 0.96615 0.75355 0.0
H470 H 0.88986 0.02669 0.73332 0.0
C471 C 0.82203 -0.01816 0.76947 0.0
C472 C 0.82316 0.01365 0.77116 0.0
H473 H 0.84225 0.94176 0.75049 0.0
H474 H 0.80218 0.96943 0.77765 0.0
C475 C 0.84875 0.02936 0.75969 0.0
C476 C 0.24271 0.64275 0.96749 0.0
C477 C 0.25554 0.63713 0.93825 0.0
H478 H 0.21308 0.62662 0.00338 0.0
C479 C 0.2502 0.60888 0.92384 0.0
H480 H 0.2464 0.66441 0.97902 0.0
C481 C 0.23056 0.58755 0.93744 0.0
C482 C 0.21636 0.59394 0.96586 0.0
H483 H 0.25955 0.60403 0.90117 0.0
H484 H 0.22583 0.56644 0.92528 0.0
C485 C 0.22345 0.62125 -0.01871 0.0
C486 C 0.58101 -0.0222 0.24855 0.0
C487 C 0.58608 -0.00266 0.22342 0.0
H488 H 0.60113 0.95008 0.283 0.0
C489 C 0.61538 0.0091 0.21803 0.0
H490 H 0.55851 0.9688 0.25352 0.0
C491 C 0.63982 -0.00169 0.23485 0.0
C492 C 0.63521 -0.02414 0.25743 0.0
H493 H 0.61988 0.02451 0.19905 0.0
H494 H 0.66258 0.00543 0.22825 0.0
C495 C 0.60542 0.9673 0.26564 0.0
C496 C 0.74415 0.10897 0.43524 0.0
C497 C 0.71849 0.10703 0.45466 0.0
H498 H 0.77695 0.08452 0.40853 0.0
C499 C 0.70243 0.0793 0.45667 0.0
H500 H 0.75668 0.1302 0.43282 0.0
C501 C 0.714 0.05317 0.44268 0.0
C502 C 0.74168 0.05441 0.42637 0.0
H503 H 0.68229 0.0772 0.47104 0.0
H504 H 0.70268 0.03154 0.44689 0.0
C505 C 0.75562 0.08283 0.42105 0.0
C506 C 0.10249 0.49124 0.6805 0.0
C507 C 0.09488 0.52192 0.67676 0.0
H508 H 0.09487 0.45056 0.70688 0.0
C509 C 0.07017 0.53384 0.69312 0.0
H510 H 0.12194 0.48187 0.66848 0.0
C511 C 0.05487 0.51622 0.71496 0.0
C512 C 0.06438 0.48647 0.72119 0.0
H513 H 0.06423 0.5576 0.69078 0.0
H514 H 0.03696 0.52669 0.72844 0.0
C515 C 0.08728 0.47353 0.70271 0.0
C516 C 0.70429 0.84383 0.92235 0.0
C517 C 0.71424 0.87373 0.9288 0.0
H518 H 0.70303 0.79747 0.93732 0.0
C519 C 0.73622 0.87848 0.95162 0.0
H520 H 0.68748 0.83932 0.90478 0.0
C521 C 0.74529 0.85437 0.9701 0.0
C522 C 0.73227 0.82526 0.96617 0.0
H523 H 0.7444 0.90125 0.95694 0.0
H524 H 0.76054 0.85912 -0.01096 0.0
C525 C 0.71298 0.81983 0.94115 0.0
C526 C 0.33137 0.47494 0.27106 0.0
C527 C 0.33959 0.46089 0.24307 0.0
H528 H 0.34478 0.50467 0.30782 0.0
C529 C 0.36779 0.46805 0.22947 0.0
H530 H 0.30957 0.47016 0.28184 0.0
C531 C 0.38802 0.48778 0.24441 0.0
C532 C 0.38021 0.50101 0.27296 0.0
H533 H 0.37457 0.45774 0.20776 0.0
H534 H 0.41014 0.49195 0.23407 0.0
C535 C 0.35139 0.49501 0.28575 0.0
C536 C 0.44083 0.23409 0.39006 0.0
C537 C 0.46464 0.25299 0.37946 0.0
H538 H 0.4056 0.20224 0.37775 0.0
C539 C 0.47328 0.25178 0.34824 0.0
H540 H 0.43396 0.23441 0.41413 0.0
C541 C 0.45675 0.23394 0.3275 0.0
C542 C 0.43187 0.21639 0.33778 0.0
H543 H 0.49166 0.26597 0.33947 0.0
H544 H 0.4627 0.23472 0.30319 0.0
C545 C 0.42477 0.21557 0.36937 0.0
C546 C -0.013 0.20695 0.6281 0.0
C547 C -0.017 0.17532 0.62641 0.0
H548 H 0.9693 0.24892 0.64556 0.0
C549 C 0.9609 0.16103 0.64503 0.0
H550 H 0.00371 0.21836 0.61362 0.0
C551 C 0.94141 0.17829 0.66334 0.0
C552 C 0.94338 0.21016 0.66282 0.0
H553 H 0.95749 0.13657 0.64395 0.0
H554 H 0.92355 0.16675 0.6762 0.0
C555 C 0.96712 0.22434 0.64609 0.0
C556 C 0.96748 0.66439 0.85204 0.0
C557 C 0.96406 0.67691 0.88176 0.0
H558 H -0.01157 0.66883 0.8074 0.0
C559 C -0.02264 0.70535 0.88838 0.0
H560 H 0.95755 0.64241 0.84639 0.0
C561 C -0.00527 0.7205 0.86612 0.0
C562 C -0.00047 0.70731 0.83691 0.0
H563 H -0.02497 0.71555 0.91108 0.0
H564 H 0.00531 0.74206 0.87223 0.0
C565 C -0.01472 0.67939 0.82983 0.0
C566 C 0.43191 0.70845 0.1361 0.0
C567 C 0.45454 0.68627 0.13333 0.0
H568 H 0.40395 0.73972 0.11199 0.0
C569 C 0.45903 0.6718 0.10472 0.0
H570 H 0.4275 0.71957 0.15803 0.0
C571 C 0.44554 0.68339 0.07835 0.0
C572 C 0.42729 0.70932 0.08045 0.0
H573 H 0.47585 0.65418 0.10198 0.0
H574 H 0.45247 0.67456 0.056 0.0
C575 C 0.41822 0.71991 0.10969 0.0
C576 C 0.17068 0.37171 0.30905 0.0
C577 C 0.16692 0.34018 0.31318 0.0
H578 H 0.1911 0.40705 0.28175 0.0
C579 C 0.17509 0.32035 0.28899 0.0
H580 H 0.16454 0.38745 0.32734 0.0
C581 C 0.19116 0.33144 0.26346 0.0
C582 C 0.19836 0.36256 0.26135 0.0
H583 H 0.17252 0.29592 0.29145 0.0
H584 H 0.19996 0.3154 0.24665 0.0
C585 C 0.18609 0.38288 0.28308 0.0
C586 C 0.7923 0.94654 0.56999 0.0
C587 C 0.8059 0.94341 0.54076 0.0
H588 H 0.79967 0.94733 0.61862 0.0
C589 C 0.83405 0.92879 0.53818 0.0
H590 H 0.77025 0.95693 0.5726 0.0
C591 C 0.85083 0.92304 0.56468 0.0
C592 C 0.8394 0.93193 0.59362 0.0
H593 H 0.84487 0.92555 0.51588 0.0
H594 H 0.87415 0.91583 0.56209 0.0
C595 C 0.80907 0.94091 0.59635 0.0
C596 C 0.17781 0.6267 0.77137 0.0
C597 C 0.18823 0.63692 0.74258 0.0
H598 H 0.18223 0.62911 0.82026 0.0
C599 C 0.21299 0.65724 0.74106 0.0
H600 H 0.15891 0.61076 0.77298 0.0
C601 C 0.22633 0.66818 0.76835 0.0
C602 C 0.21512 0.65867 0.79735 0.0
H603 H 0.22123 0.66545 0.71895 0.0
H604 H 0.24469 0.68472 0.76677 0.0
C605 C 0.19119 0.63726 0.79842 0.0
C606 C 0.56329 -0.00816 0.03893 0.0
C607 C 0.57491 0.00262 0.06702 0.0
H608 H 0.57318 0.97165 -0.00494 0.0
C609 C 0.60647 0.00531 0.07061 0.0
H610 H 0.53903 -0.01027 0.03557 0.0
C611 C 0.62606 -0.00566 0.04771 0.0
C612 C 0.61435 -0.01879 0.02062 0.0
H613 H 0.61599 0.01357 0.09208 0.0
H614 H 0.65025 -0.00542 0.05193 0.0
C615 C 0.58288 -0.01843 0.01573 0.0
C616 C 0.71687 0.0979 0.6264 0.0
C617 C 0.71789 0.12822 0.61664 0.0
H618 H 0.72212 0.06743 0.66435 0.0
C619 C 0.72219 0.15175 0.63826 0.0
H620 H 0.7138 0.07955 0.60988 0.0
C621 C 0.72799 0.14488 0.66898 0.0
C622 C 0.72846 0.11447 0.67851 0.0
H623 H 0.72338 0.1753 0.63093 0.0
H624 H 0.73346 0.16316 0.68496 0.0
C625 C 0.72152 0.09108 0.65741 0.0
C626 C 0.082 0.4508 0.93533 0.0
C627 C 0.11302 0.45753 0.93808 0.0
H628 H 0.04665 0.43487 0.90592 0.0
C629 C 0.13334 0.4468 0.91549 0.0
H630 H 0.06597 0.45836 0.95278 0.0
C631 C 0.12228 0.43377 0.88827 0.0
C632 C 0.09085 0.43089 0.8837 0.0
H633 H 0.15746 0.45142 0.91731 0.0
H634 H 0.13808 0.42896 0.86963 0.0
C635 C 0.07101 0.43704 0.90853 0.0
C636 C 0.74068 0.87695 0.13218 0.0
C637 C 0.73175 0.86806 0.162 0.0
H638 H 0.75438 0.86199 0.08707 0.0
C639 C 0.73469 0.83749 0.17081 0.0
H640 H 0.7388 0.90043 0.12497 0.0
C641 C 0.7428 0.81558 0.14904 0.0
C642 C 0.74912 0.82414 0.11857 0.0
H643 H 0.728 0.83 0.19369 0.0
H644 H 0.74214 0.79177 0.15547 0.0
C645 C 0.74977 0.85506 0.11063 0.0
C646 C 0.38917 0.45712 0.46237 0.0
C647 C 0.38921 0.4251 0.4635 0.0
H648 H 0.40025 0.4971 0.43607 0.0
C649 C 0.40186 0.40888 0.43858 0.0
H650 H 0.37959 0.47028 0.48119 0.0
C651 C 0.41337 0.42413 0.4128 0.0
C652 C 0.41273 0.45607 0.41125 0.0
H653 H 0.40206 0.38423 0.43847 0.0
H654 H 0.4225 0.41076 0.39388 0.0
C655 C 0.40102 0.47247 0.43655 0.0
C656 C 0.23423 0.20994 0.3021 0.0
C657 C 0.22802 0.21009 0.33383 0.0
H658 H 0.26387 0.19481 0.26626 0.0
C659 C 0.24274 0.18936 0.35303 0.0
H660 H 0.22295 0.22566 0.28692 0.0
C661 C 0.26707 0.17252 0.34151 0.0
C662 C 0.27592 0.17553 0.3105 0.0
H663 H 0.23813 0.18909 0.37764 0.0
H664 H 0.28074 0.15969 0.35738 0.0
C665 C 0.25763 0.19215 0.29035 0.0
C666 C 0.01483 -0.00057 0.61804 0.0
C667 C -0.01126 -0.00647 0.60064 0.0
H668 H 0.05501 0.02691 0.62184 0.0
C669 C -0.01191 0.00222 0.56963 0.0
H670 H 0.01591 -0.00757 0.64195 0.0
C671 C 0.01125 0.02069 0.55759 0.0
C672 C 0.03388 0.03233 0.57731 0.0
H673 H 0.96836 -0.00278 0.55566 0.0
H674 H 0.0085 0.02965 0.53456 0.0
C675 C 0.03739 0.01891 0.60642 0.0
C676 C 0.15906 0.78491 0.88447 0.0
C677 C 0.18681 0.77834 0.86985 0.0
H678 H 0.11129 0.78837 0.87784 0.0
C679 C 0.19024 0.78476 0.83822 0.0
H680 H 0.15608 0.7814 0.90905 0.0
C681 C 0.16448 0.78919 0.82035 0.0
C682 C 0.13575 0.78733 0.83439 0.0
H683 H 0.21166 0.78097 0.82644 0.0
H684 H 0.16679 0.78844 0.79544 0.0
C685 C 0.13336 0.78906 0.86662 0.0
C686 C 0.45512 0.91377 0.09551 0.0
C687 C 0.47005 0.91561 0.12398 0.0
H688 H 0.43848 0.88469 0.05949 0.0
C689 C 0.47582 0.88866 0.14011 0.0
H690 H 0.45024 0.93417 0.08261 0.0
C691 C 0.46914 0.86035 0.1269 0.0
C692 C 0.45653 0.85837 0.09727 0.0
H693 H 0.48701 0.88933 0.16226 0.0
H694 H 0.47538 0.84002 0.13927 0.0
C695 C 0.44837 0.88538 0.08228 0.0
C696 C 0.7681 0.24887 0.59169 0.0
C697 C 0.7842 0.23744 0.56603 0.0
H698 H 0.77112 0.26919 0.6366 0.0
C699 C 0.81522 0.24434 0.56295 0.0
H700 H 0.7441 0.24401 0.59463 0.0
C701 C 0.83058 0.25923 0.58676 0.0
C702 C 0.81526 0.26685 0.6143 0.0
H703 H 0.82806 0.23617 0.54321 0.0
H704 H 0.85496 0.26203 0.58473 0.0
C705 C 0.78358 0.26331 0.61578 0.0
C706 C 0.94486 0.51167 0.86315 0.0
C707 C 0.96951 0.49564 0.87493 0.0
H708 H 0.91123 0.5453 0.87265 0.0
C709 C -0.02584 0.49485 0.90682 0.0
H710 H 0.94075 0.5122 0.83855 0.0
C711 C 0.95682 0.513 0.92638 0.0
C712 C 0.93539 0.5329 0.91405 0.0
H713 H -0.00732 0.482 0.91635 0.0
H714 H 0.96263 0.51393 0.95061 0.0
C715 C 0.92789 0.53045 0.88268 0.0
C716 C 0.60206 0.71285 0.09626 0.0
C717 C 0.60644 0.69914 0.12509 0.0
H718 H 0.6228 0.73175 0.05573 0.0
C719 C 0.63593 0.69103 0.13364 0.0
H720 H 0.57958 0.7192 0.08893 0.0
C721 C 0.66074 0.69827 0.1146 0.0
C722 C 0.65651 0.71366 0.08662 0.0
H723 H 0.64001 0.68035 0.15567 0.0
H724 H 0.68333 0.69301 0.12246 0.0
C725 C 0.62684 0.71998 0.07719 0.0
C726 C 0.53041 0.45444 0.37827 0.0
C727 C 0.52808 0.45156 0.346 0.0
H728 H 0.53061 0.4302 0.42096 0.0
C729 C 0.53731 0.42426 0.3319 0.0
H730 H 0.52458 0.47554 0.38982 0.0
C731 C 0.54034 0.39824 0.34979 0.0
C732 C 0.53535 0.39987 0.38173 0.0
H733 H 0.53706 0.42164 0.30703 0.0
H734 H 0.54227 0.37636 0.3383 0.0
C735 C 0.53393 0.42843 0.39621 0.0
C736 C 0.35554 0.27604 0.19517 0.0
C737 C 0.3341 0.25434 0.20519 0.0
H738 H 0.36252 0.3216 0.17901 0.0
C739 C 0.30328 0.25867 0.19923 0.0
H740 H 0.37949 0.27292 0.19939 0.0
C741 C 0.29365 0.28597 0.18666 0.0
C742 C 0.31468 0.30968 0.18116 0.0
H743 H 0.28646 0.24187 0.20638 0.0
H744 H 0.26948 0.28966 0.18474 0.0
C745 C 0.34584 0.30381 0.18344 0.0
C746 C 0.80535 0.17834 0.80975 0.0
C747 C 0.77792 0.16573 0.79913 0.0
H748 H 0.84145 0.20999 0.80077 0.0
C749 C 0.76159 0.18145 0.77657 0.0
H750 H 0.81814 0.167 0.82748 0.0
C751 C 0.77527 0.20558 0.7607 0.0
C752 C 0.80498 0.21472 0.76787 0.0
H753 H 0.7401 0.1727 0.76819 0.0
H754 H 0.76374 0.21503 0.74103 0.0
C755 C 0.81882 0.20278 0.79419 0.0
C756 C 0.03283 0.62121 0.01967 0.0
C757 C 0.00692 0.60231 0.02092 0.0
H758 H 0.08129 0.62357 0.0197 0.0
C759 C 0.01005 0.57177 0.02975 0.0
H760 H 0.03106 0.64493 0.01326 0.0
C761 C 0.03889 0.55945 0.03318 0.0
C762 C 0.06493 0.57755 0.02804 0.0
H763 H -0.00953 0.55667 0.03106 0.0
H764 H 0.04073 0.53525 0.03737 0.0
C765 C 0.06163 0.60893 0.02325 0.0
C766 C 0.58639 0.83668 0.20589 0.0
C767 C 0.60751 0.83815 0.22998 0.0
H768 H 0.55343 0.80965 0.18195 0.0
C769 C 0.60922 0.81358 0.25057 0.0
H770 H 0.58435 0.85524 0.18971 0.0
C771 C 0.59135 0.78748 0.24619 0.0
C772 C 0.57154 0.78541 0.22106 0.0
H773 H 0.6251 0.81406 0.26951 0.0
H774 H 0.59398 0.76848 0.26173 0.0
C775 C 0.56866 0.81054 0.20143 0.0
C776 C 0.42065 0.34205 0.56457 0.0
C777 C 0.40641 0.37025 0.56815 0.0
H778 H 0.45119 0.3154 0.5375 0.0
C779 C 0.41746 0.39545 0.5513 0.0
H780 H 0.41292 0.32245 0.57767 0.0
C781 C 0.43881 0.39125 0.52773 0.0
C782 C 0.44997 0.3621 0.52155 0.0
H783 H 0.40733 0.41768 0.55386 0.0
H784 H 0.44465 0.41019 0.5128 0.0
C785 C 0.44255 0.33807 0.54159 0.0
C786 C 0.15158 0.67896 0.66127 0.0
C787 C 0.129 0.66935 0.6405 0.0
H788 H 0.16058 0.70073 0.70468 0.0
C789 C 0.09992 0.68181 0.64295 0.0
H790 H 0.17439 0.67013 0.65972 0.0
C791 C 0.09228 0.69986 0.66832 0.0
C792 C 0.11353 0.70509 0.69173 0.0
H793 H 0.08227 0.67508 0.62696 0.0
H794 H 0.06893 0.70685 0.67117 0.0
C795 C 0.14371 0.69633 0.68713 0.0
C796 C 0.57764 0.80451 0.01021 0.0
C797 C 0.54814 0.80515 -0.00172 0.0
H798 H 0.62226 0.82396 0.00919 0.0
C799 C 0.54221 0.82389 0.97289 0.0
H800 H 0.58302 0.79014 0.0296 0.0
C801 C 0.56469 0.84333 0.9612 0.0
C802 C 0.59351 0.84443 0.97472 0.0
H803 H 0.51977 0.82468 0.96294 0.0
H804 H 0.55897 0.85853 0.94258 0.0
C805 C 0.60011 0.824 -0.00144 0.0
C806 C 0.90568 0.02772 0.48293 0.0
C807 C 0.88174 0.04728 0.47599 0.0
H808 H 0.94905 0.02341 0.50441 0.0
C809 C 0.88531 0.07872 0.48097 0.0
H810 H 0.90332 0.00335 0.47952 0.0
C811 C 0.91185 0.09023 0.49426 0.0
C812 C 0.93458 0.07029 0.50365 0.0
H813 H 0.86708 0.09417 0.4758 0.0
H814 H 0.91357 0.11437 0.49935 0.0
C815 C 0.93173 0.0391 0.4972 0.0
loop_
_geom_bond_atom_site_label_1
_geom_bond_atom_site_label_2
_geom_bond_distance
_geom_bond_site_symmetry_2
_ccdc_geom_bond_type
C0 O1 1.306 . S
C0 O3 1.160 . S
O1 C0 1.306 . S
O1 Cd2 2.228 . S
Cd2 O1 2.228 . S
Cd2 O6 2.273 . S
Cd2 O10 2.277 . S
O3 C0 1.160 . S
O3 Cd4 2.203 . S
Cd4 O3 2.203 . S
Cd4 O6 2.411 . S
Cd4 O7 2.333 . S
Cd4 O8 2.352 . S
Cd4 O12 2.277 . S
Cd4 O13 2.356 . S
C5 O10 1.209 . S
C5 O12 1.226 . S
O6 Cd2 2.273 . S
O6 Cd4 2.411 . S
O6 C9 1.320 . S
O7 Cd4 2.333 . S
O7 C9 1.214 . S
O8 Cd4 2.352 . S
O8 C11 1.258 . S
C9 O6 1.320 . S
C9 O7 1.214 . S
O10 Cd2 2.277 . S
O10 C5 1.209 . S
C11 O8 1.258 . S
C11 O13 1.282 . S
O12 Cd4 2.277 . S
O12 C5 1.226 . S
O13 Cd4 2.356 . S
O13 C11 1.282 . S
C14 O15 1.306 1_565 S
C14 O17 1.160 . S
O15 C14 1.306 1_545 S
O15 Cd16 2.228 . S
Cd16 O15 2.228 . S
Cd16 O20 2.273 1_545 S
Cd16 O24 2.277 1_545 S
O17 C14 1.160 . S
O17 Cd18 2.203 . S
Cd18 O17 2.203 . S
Cd18 O20 2.411 . S
Cd18 O21 2.333 . S
Cd18 O22 2.352 . S
Cd18 O26 2.277 . S
Cd18 O27 2.356 . S
C19 O24 1.209 . S
C19 O26 1.226 . S
O20 Cd16 2.273 1_565 S
O20 Cd18 2.411 . S
O20 C23 1.320 . S
O21 Cd18 2.333 . S
O21 C23 1.214 . S
O22 Cd18 2.352 . S
O22 C25 1.258 . S
C23 O20 1.320 . S
C23 O21 1.214 . S
O24 Cd16 2.277 1_565 S
O24 C19 1.209 . S
C25 O22 1.258 . S
C25 O27 1.282 . S
O26 Cd18 2.277 . S
O26 C19 1.226 . S
O27 Cd18 2.356 . S
O27 C25 1.282 . S
C28 O29 1.306 . S
C28 O31 1.160 . S
O29 C28 1.306 . S
O29 Cd30 2.228 . S
Cd30 O29 2.228 . S
Cd30 O34 2.273 . S
Cd30 O38 2.277 . S
O31 C28 1.160 . S
O31 Cd32 2.203 . S
Cd32 O31 2.203 . S
Cd32 O34 2.411 . S
Cd32 O35 2.333 . S
Cd32 O36 2.352 . S
Cd32 O40 2.277 . S
Cd32 O41 2.356 . S
C33 O38 1.209 . S
C33 O40 1.226 . S
O34 Cd30 2.273 . S
O34 Cd32 2.411 . S
O34 C37 1.320 . S
O35 Cd32 2.333 . S
O35 C37 1.214 . S
O36 Cd32 2.352 . S
O36 C39 1.258 . S
C37 O34 1.320 . S
C37 O35 1.214 . S
O38 Cd30 2.277 . S
O38 C33 1.209 . S
C39 O36 1.258 . S
C39 O41 1.282 . S
O40 Cd32 2.277 . S
O40 C33 1.226 . S
O41 Cd32 2.356 . S
O41 C39 1.282 . S
C42 O43 1.306 1_545 S
C42 O45 1.160 . S
O43 C42 1.306 1_565 S
O43 Cd44 2.228 . S
Cd44 O43 2.228 . S
Cd44 O48 2.273 1_565 S
Cd44 O52 2.277 1_565 S
O45 C42 1.160 . S
O45 Cd46 2.203 . S
Cd46 O45 2.203 . S
Cd46 O48 2.411 . S
Cd46 O49 2.333 . S
Cd46 O50 2.352 . S
Cd46 O54 2.277 . S
Cd46 O55 2.356 . S
C47 O52 1.209 . S
C47 O54 1.226 . S
O48 Cd44 2.273 1_545 S
O48 Cd46 2.411 . S
O48 C51 1.320 . S
O49 Cd46 2.333 . S
O49 C51 1.214 . S
O50 Cd46 2.352 . S
O50 C53 1.258 . S
C51 O48 1.320 . S
C51 O49 1.214 . S
O52 Cd44 2.277 1_545 S
O52 C47 1.209 . S
C53 O50 1.258 . S
C53 O55 1.282 . S
O54 Cd46 2.277 . S
O54 C47 1.226 . S
O55 Cd46 2.356 . S
O55 C53 1.282 . S
C56 O57 1.306 . S
C56 O59 1.160 . S
O57 C56 1.306 . S
O57 Cd58 2.228 . S
Cd58 O57 2.228 . S
Cd58 O62 2.273 . S
Cd58 O66 2.277 . S
O59 C56 1.160 . S
O59 Cd60 2.203 . S
Cd60 O59 2.203 . S
Cd60 O62 2.411 . S
Cd60 O63 2.333 . S
Cd60 O64 2.352 . S
Cd60 O68 2.277 . S
Cd60 O69 2.356 . S
C61 O66 1.209 . S
C61 O68 1.226 . S
O62 Cd58 2.273 . S
O62 Cd60 2.411 . S
O62 C65 1.320 . S
O63 Cd60 2.333 . S
O63 C65 1.214 . S
O64 Cd60 2.352 . S
O64 C67 1.258 . S
C65 O62 1.320 . S
C65 O63 1.214 . S
O66 Cd58 2.277 . S
O66 C61 1.209 . S
C67 O64 1.258 . S
C67 O69 1.282 . S
O68 Cd60 2.277 . S
O68 C61 1.226 . S
O69 Cd60 2.356 . S
O69 C67 1.282 . S
C70 O71 1.306 . S
C70 O73 1.160 . S
O71 C70 1.306 . S
O71 Cd72 2.228 . S
Cd72 O71 2.228 . S
Cd72 O76 2.273 . S
Cd72 O80 2.277 . S
O73 C70 1.160 . S
O73 Cd74 2.203 . S
Cd74 O73 2.203 . S
Cd74 O76 2.411 . S
Cd74 O77 2.333 . S
Cd74 O78 2.352 . S
Cd74 O82 2.277 . S
Cd74 O83 2.356 . S
C75 O80 1.209 . S
C75 O82 1.226 . S
O76 Cd72 2.273 . S
O76 Cd74 2.411 . S
O76 C79 1.320 . S
O77 Cd74 2.333 . S
O77 C79 1.214 . S
O78 Cd74 2.352 . S
O78 C81 1.258 . S
C79 O76 1.320 . S
C79 O77 1.214 . S
O80 Cd72 2.277 . S
O80 C75 1.209 . S
C81 O78 1.258 . S
C81 O83 1.282 . S
O82 Cd74 2.277 . S
O82 C75 1.226 . S
O83 Cd74 2.356 . S
O83 C81 1.282 . S
C84 O85 1.306 . S
C84 O87 1.160 . S
O85 C84 1.306 . S
O85 Cd86 2.228 . S
Cd86 O85 2.228 . S
Cd86 O90 2.273 . S
Cd86 O94 2.277 . S
O87 C84 1.160 . S
O87 Cd88 2.203 . S
Cd88 O87 2.203 . S
Cd88 O90 2.411 . S
Cd88 O91 2.333 . S
Cd88 O92 2.352 . S
Cd88 O96 2.277 . S
Cd88 O97 2.356 . S
C89 O94 1.209 . S
C89 O96 1.226 . S
O90 Cd86 2.273 . S
O90 Cd88 2.411 . S
O90 C93 1.320 . S
O91 Cd88 2.333 . S
O91 C93 1.214 . S
O92 Cd88 2.352 . S
O92 C95 1.258 . S
C93 O90 1.320 . S
C93 O91 1.214 . S
O94 Cd86 2.277 . S
O94 C89 1.209 . S
C95 O92 1.258 . S
C95 O97 1.282 . S
O96 Cd88 2.277 . S
O96 C89 1.226 . S
O97 Cd88 2.356 . S
O97 C95 1.282 . S
C98 O99 1.306 . S
C98 O101 1.160 . S
O99 C98 1.306 . S
O99 Cd100 2.228 . S
Cd100 O99 2.228 . S
Cd100 O104 2.273 . S
Cd100 O108 2.277 . S
O101 C98 1.160 . S
O101 Cd102 2.203 . S
Cd102 O101 2.203 . S
Cd102 O104 2.411 . S
Cd102 O105 2.333 . S
Cd102 O106 2.352 . S
Cd102 O110 2.277 . S
Cd102 O111 2.356 . S
C103 O108 1.209 . S
C103 O110 1.226 . S
O104 Cd100 2.273 . S
O104 Cd102 2.411 . S
O104 C107 1.320 . S
O105 Cd102 2.333 . S
O105 C107 1.214 . S
O106 Cd102 2.352 . S
O106 C109 1.258 . S
C107 O104 1.320 . S
C107 O105 1.214 . S
O108 Cd100 2.277 . S
O108 C103 1.209 . S
C109 O106 1.258 . S
C109 O111 1.282 . S
O110 Cd102 2.277 . S
O110 C103 1.226 . S
O111 Cd102 2.356 . S
O111 C109 1.282 . S
C112 O113 1.306 . S
C112 O115 1.160 . S
O113 C112 1.306 . S
O113 Cd114 2.228 . S
Cd114 O113 2.228 . S
Cd114 O118 2.273 . S
Cd114 O122 2.277 . S
O115 C112 1.160 . S
O115 Cd116 2.203 . S
Cd116 O115 2.203 . S
Cd116 O118 2.411 . S
Cd116 O119 2.333 . S
Cd116 O120 2.352 . S
Cd116 O124 2.277 . S
Cd116 O125 2.356 . S
C117 O122 1.209 . S
C117 O124 1.226 . S
O118 Cd114 2.273 . S
O118 Cd116 2.411 . S
O118 C121 1.320 . S
O119 Cd116 2.333 . S
O119 C121 1.214 . S
O120 Cd116 2.352 . S
O120 C123 1.258 . S
C121 O118 1.320 . S
C121 O119 1.214 . S
O122 Cd114 2.277 . S
O122 C117 1.209 . S
C123 O120 1.258 . S
C123 O125 1.282 . S
O124 Cd116 2.277 . S
O124 C117 1.226 . S
O125 Cd116 2.356 . S
O125 C123 1.282 . S
C126 O127 1.306 1_455 S
C126 O129 1.160 . S
O127 C126 1.306 1_655 S
O127 Cd128 2.228 . S
Cd128 O127 2.228 . S
Cd128 O132 2.273 1_655 S
Cd128 O136 2.277 1_655 S
O129 C126 1.160 . S
O129 Cd130 2.203 . S
Cd130 O129 2.203 . S
Cd130 O132 2.411 . S
Cd130 O133 2.333 . S
Cd130 O134 2.352 . S
Cd130 O138 2.277 . S
Cd130 O139 2.356 . S
C131 O136 1.209 . S
C131 O138 1.226 . S
O132 Cd128 2.273 1_455 S
O132 Cd130 2.411 . S
O132 C135 1.320 . S
O133 Cd130 2.333 . S
O133 C135 1.214 . S
O134 Cd130 2.352 . S
O134 C137 1.258 . S
C135 O132 1.320 . S
C135 O133 1.214 . S
O136 Cd128 2.277 1_455 S
O136 C131 1.209 . S
C137 O134 1.258 . S
C137 O139 1.282 . S
O138 Cd130 2.277 . S
O138 C131 1.226 . S
O139 Cd130 2.356 . S
O139 C137 1.282 . S
C140 O141 1.306 . S
C140 O143 1.160 . S
O141 C140 1.306 . S
O141 Cd142 2.228 . S
Cd142 O141 2.228 . S
Cd142 O146 2.273 . S
Cd142 O150 2.277 . S
O143 C140 1.160 . S
O143 Cd144 2.203 . S
Cd144 O143 2.203 . S
Cd144 O146 2.411 . S
Cd144 O147 2.333 . S
Cd144 O148 2.352 . S
Cd144 O152 2.277 . S
Cd144 O153 2.356 . S
C145 O150 1.209 . S
C145 O152 1.226 . S
O146 Cd142 2.273 . S
O146 Cd144 2.411 . S
O146 C149 1.320 . S
O147 Cd144 2.333 . S
O147 C149 1.214 . S
O148 Cd144 2.352 . S
O148 C151 1.258 . S
C149 O146 1.320 . S
C149 O147 1.214 . S
O150 Cd142 2.277 . S
O150 C145 1.209 . S
C151 O148 1.258 . S
C151 O153 1.282 . S
O152 Cd144 2.277 . S
O152 C145 1.226 . S
O153 Cd144 2.356 . S
O153 C151 1.282 . S
C154 O155 1.306 . S
C154 O157 1.160 . S
O155 C154 1.306 . S
O155 Cd156 2.228 . S
Cd156 O155 2.228 . S
Cd156 O160 2.273 . S
Cd156 O164 2.277 . S
O157 C154 1.160 . S
O157 Cd158 2.203 . S
Cd158 O157 2.203 . S
Cd158 O160 2.411 . S
Cd158 O161 2.333 . S
Cd158 O162 2.352 . S
Cd158 O166 2.277 . S
Cd158 O167 2.356 . S
C159 O164 1.209 . S
C159 O166 1.226 . S
O160 Cd156 2.273 . S
O160 Cd158 2.411 . S
O160 C163 1.320 . S
O161 Cd158 2.333 . S
O161 C163 1.214 . S
O162 Cd158 2.352 . S
O162 C165 1.258 . S
C163 O160 1.320 . S
C163 O161 1.214 . S
O164 Cd156 2.277 . S
O164 C159 1.209 . S
C165 O162 1.258 . S
C165 O167 1.282 . S
O166 Cd158 2.277 . S
O166 C159 1.226 . S
O167 Cd158 2.356 . S
O167 C165 1.282 . S
C168 O169 1.306 . S
C168 O171 1.160 . S
O169 C168 1.306 . S
O169 Cd170 2.228 . S
Cd170 O169 2.228 . S
Cd170 O174 2.273 . S
Cd170 O178 2.277 . S
O171 C168 1.160 . S
O171 Cd172 2.203 . S
Cd172 O171 2.203 . S
Cd172 O174 2.411 . S
Cd172 O175 2.333 . S
Cd172 O176 2.352 . S
Cd172 O180 2.277 . S
Cd172 O181 2.356 . S
C173 O178 1.209 . S
C173 O180 1.226 . S
O174 Cd170 2.273 . S
O174 Cd172 2.411 . S
O174 C177 1.320 . S
O175 Cd172 2.333 . S
O175 C177 1.214 . S
O176 Cd172 2.352 . S
O176 C179 1.258 . S
C177 O174 1.320 . S
C177 O175 1.214 . S
O178 Cd170 2.277 . S
O178 C173 1.209 . S
C179 O176 1.258 . S
C179 O181 1.282 . S
O180 Cd172 2.277 . S
O180 C173 1.226 . S
O181 Cd172 2.356 . S
O181 C179 1.282 . S
C182 O183 1.306 1_655 S
C182 O185 1.160 . S
O183 C182 1.306 1_455 S
O183 Cd184 2.228 . S
Cd184 O183 2.228 . S
Cd184 O188 2.273 1_455 S
Cd184 O192 2.277 1_455 S
O185 C182 1.160 . S
O185 Cd186 2.203 . S
Cd186 O185 2.203 . S
Cd186 O188 2.411 . S
Cd186 O189 2.333 . S
Cd186 O190 2.352 . S
Cd186 O194 2.277 . S
Cd186 O195 2.356 . S
C187 O192 1.209 . S
C187 O194 1.226 . S
O188 Cd184 2.273 1_655 S
O188 Cd186 2.411 . S
O188 C191 1.320 . S
O189 Cd186 2.333 . S
O189 C191 1.214 . S
O190 Cd186 2.352 . S
O190 C193 1.258 . S
C191 O188 1.320 . S
C191 O189 1.214 . S
O192 Cd184 2.277 1_655 S
O192 C187 1.209 . S
C193 O190 1.258 . S
C193 O195 1.282 . S
O194 Cd186 2.277 . S
O194 C187 1.226 . S
O195 Cd186 2.356 . S
O195 C193 1.282 . S
C196 O197 1.306 . S
C196 O199 1.160 . S
O197 C196 1.306 . S
O197 Cd198 2.228 . S
Cd198 O197 2.228 . S
Cd198 O202 2.273 . S
Cd198 O206 2.277 . S
O199 C196 1.160 . S
O199 Cd200 2.203 . S
Cd200 O199 2.203 . S
Cd200 O202 2.411 . S
Cd200 O203 2.333 . S
Cd200 O204 2.352 . S
Cd200 O208 2.277 . S
Cd200 O209 2.356 . S
C201 O206 1.209 . S
C201 O208 1.226 . S
O202 Cd198 2.273 . S
O202 Cd200 2.411 . S
O202 C205 1.320 . S
O203 Cd200 2.333 . S
O203 C205 1.214 . S
O204 Cd200 2.352 . S
O204 C207 1.258 . S
C205 O202 1.320 . S
C205 O203 1.214 . S
O206 Cd198 2.277 . S
O206 C201 1.209 . S
C207 O204 1.258 . S
C207 O209 1.282 . S
O208 Cd200 2.277 . S
O208 C201 1.226 . S
O209 Cd200 2.356 . S
O209 C207 1.282 . S
C210 O211 1.306 . S
C210 O213 1.160 . S
O211 C210 1.306 . S
O211 Cd212 2.228 . S
Cd212 O211 2.228 . S
Cd212 O216 2.273 . S
Cd212 O220 2.277 . S
O213 C210 1.160 . S
O213 Cd214 2.203 . S
Cd214 O213 2.203 . S
Cd214 O216 2.411 . S
Cd214 O217 2.333 . S
Cd214 O218 2.352 . S
Cd214 O222 2.277 . S
Cd214 O223 2.356 . S
C215 O220 1.209 . S
C215 O222 1.226 . S
O216 Cd212 2.273 . S
O216 Cd214 2.411 . S
O216 C219 1.320 . S
O217 Cd214 2.333 . S
O217 C219 1.214 . S
O218 Cd214 2.352 . S
O218 C221 1.258 . S
C219 O216 1.320 . S
C219 O217 1.214 . S
O220 Cd212 2.277 . S
O220 C215 1.209 . S
C221 O218 1.258 . S
C221 O223 1.282 . S
O222 Cd214 2.277 . S
O222 C215 1.226 . S
O223 Cd214 2.356 . S
O223 C221 1.282 . S
C224 O225 1.306 . S
C224 O227 1.160 . S
O225 C224 1.306 . S
O225 Cd226 2.228 . S
Cd226 O225 2.228 . S
Cd226 O230 2.273 . S
Cd226 O234 2.277 . S
O227 C224 1.160 . S
O227 Cd228 2.203 . S
Cd228 O227 2.203 . S
Cd228 O230 2.411 . S
Cd228 O231 2.333 . S
Cd228 O232 2.352 . S
Cd228 O236 2.277 . S
Cd228 O237 2.356 . S
C229 O234 1.209 . S
C229 O236 1.226 . S
O230 Cd226 2.273 . S
O230 Cd228 2.411 . S
O230 C233 1.320 . S
O231 Cd228 2.333 . S
O231 C233 1.214 . S
O232 Cd228 2.352 . S
O232 C235 1.258 . S
C233 O230 1.320 . S
C233 O231 1.214 . S
O234 Cd226 2.277 . S
O234 C229 1.209 . S
C235 O232 1.258 . S
C235 O237 1.282 . S
O236 Cd228 2.277 . S
O236 C229 1.226 . S
O237 Cd228 2.356 . S
O237 C235 1.282 . S
C238 O239 1.306 . S
C238 O241 1.160 . S
O239 C238 1.306 . S
O239 Cd240 2.228 . S
Cd240 O239 2.228 . S
Cd240 O244 2.273 . S
Cd240 O248 2.277 . S
O241 C238 1.160 . S
O241 Cd242 2.203 . S
Cd242 O241 2.203 . S
Cd242 O244 2.411 . S
Cd242 O245 2.333 . S
Cd242 O246 2.352 . S
Cd242 O250 2.277 . S
Cd242 O251 2.356 . S
C243 O248 1.209 . S
C243 O250 1.226 . S
O244 Cd240 2.273 . S
O244 Cd242 2.411 . S
O244 C247 1.320 . S
O245 Cd242 2.333 . S
O245 C247 1.214 . S
O246 Cd242 2.352 . S
O246 C249 1.258 . S
C247 O244 1.320 . S
C247 O245 1.214 . S
O248 Cd240 2.277 . S
O248 C243 1.209 . S
C249 O246 1.258 . S
C249 O251 1.282 . S
O250 Cd242 2.277 . S
O250 C243 1.226 . S
O251 Cd242 2.356 . S
O251 C249 1.282 . S
C252 O253 1.306 1_554 S
C252 O255 1.160 . S
O253 C252 1.306 1_556 S
O253 Cd254 2.228 . S
Cd254 O253 2.228 . S
Cd254 O258 2.273 1_556 S
Cd254 O262 2.277 1_556 S
O255 C252 1.160 . S
O255 Cd256 2.203 . S
Cd256 O255 2.203 . S
Cd256 O258 2.411 . S
Cd256 O259 2.333 . S
Cd256 O260 2.352 . S
Cd256 O264 2.277 . S
Cd256 O265 2.356 . S
C257 O262 1.209 . S
C257 O264 1.226 . S
O258 Cd254 2.273 1_554 S
O258 Cd256 2.411 . S
O258 C261 1.320 . S
O259 Cd256 2.333 . S
O259 C261 1.214 . S
O260 Cd256 2.352 . S
O260 C263 1.258 . S
C261 O258 1.320 . S
C261 O259 1.214 . S
O262 Cd254 2.277 1_554 S
O262 C257 1.209 . S
C263 O260 1.258 . S
C263 O265 1.282 . S
O264 Cd256 2.277 . S
O264 C257 1.226 . S
O265 Cd256 2.356 . S
O265 C263 1.282 . S
C266 O267 1.306 . S
C266 O269 1.160 . S
O267 C266 1.306 . S
O267 Cd268 2.228 . S
Cd268 O267 2.228 . S
Cd268 O272 2.273 . S
Cd268 O276 2.277 . S
O269 C266 1.160 . S
O269 Cd270 2.203 . S
Cd270 O269 2.203 . S
Cd270 O272 2.411 . S
Cd270 O273 2.333 . S
Cd270 O274 2.352 . S
Cd270 O278 2.277 . S
Cd270 O279 2.356 . S
C271 O276 1.209 . S
C271 O278 1.226 . S
O272 Cd268 2.273 . S
O272 Cd270 2.411 . S
O272 C275 1.320 . S
O273 Cd270 2.333 . S
O273 C275 1.214 . S
O274 Cd270 2.352 . S
O274 C277 1.258 . S
C275 O272 1.320 . S
C275 O273 1.214 . S
O276 Cd268 2.277 . S
O276 C271 1.209 . S
C277 O274 1.258 . S
C277 O279 1.282 . S
O278 Cd270 2.277 . S
O278 C271 1.226 . S
O279 Cd270 2.356 . S
O279 C277 1.282 . S
C280 O281 1.306 . S
C280 O283 1.160 . S
O281 C280 1.306 . S
O281 Cd282 2.228 . S
Cd282 O281 2.228 . S
Cd282 O286 2.273 . S
Cd282 O290 2.277 . S
O283 C280 1.160 . S
O283 Cd284 2.203 . S
Cd284 O283 2.203 . S
Cd284 O286 2.411 . S
Cd284 O287 2.333 . S
Cd284 O288 2.352 . S
Cd284 O292 2.277 . S
Cd284 O293 2.356 . S
C285 O290 1.209 . S
C285 O292 1.226 . S
O286 Cd282 2.273 . S
O286 Cd284 2.411 . S
O286 C289 1.320 . S
O287 Cd284 2.333 . S
O287 C289 1.214 . S
O288 Cd284 2.352 . S
O288 C291 1.258 . S
C289 O286 1.320 . S
C289 O287 1.214 . S
O290 Cd282 2.277 . S
O290 C285 1.209 . S
C291 O288 1.258 . S
C291 O293 1.282 . S
O292 Cd284 2.277 . S
O292 C285 1.226 . S
O293 Cd284 2.356 . S
O293 C291 1.282 . S
C294 O295 1.306 . S
C294 O297 1.160 . S
O295 C294 1.306 . S
O295 Cd296 2.228 . S
Cd296 O295 2.228 . S
Cd296 O300 2.273 . S
Cd296 O304 2.277 . S
O297 C294 1.160 . S
O297 Cd298 2.203 . S
Cd298 O297 2.203 . S
Cd298 O300 2.411 . S
Cd298 O301 2.333 . S
Cd298 O302 2.352 . S
Cd298 O306 2.277 . S
Cd298 O307 2.356 . S
C299 O304 1.209 . S
C299 O306 1.226 . S
O300 Cd296 2.273 . S
O300 Cd298 2.411 . S
O300 C303 1.320 . S
O301 Cd298 2.333 . S
O301 C303 1.214 . S
O302 Cd298 2.352 . S
O302 C305 1.258 . S
C303 O300 1.320 . S
C303 O301 1.214 . S
O304 Cd296 2.277 . S
O304 C299 1.209 . S
C305 O302 1.258 . S
C305 O307 1.282 . S
O306 Cd298 2.277 . S
O306 C299 1.226 . S
O307 Cd298 2.356 . S
O307 C305 1.282 . S
C308 O309 1.306 1_556 S
C308 O311 1.160 . S
O309 C308 1.306 1_554 S
O309 Cd310 2.228 . S
Cd310 O309 2.228 . S
Cd310 O314 2.273 1_554 S
Cd310 O318 2.277 1_554 S
O311 C308 1.160 . S
O311 Cd312 2.203 . S
Cd312 O311 2.203 . S
Cd312 O314 2.411 . S
Cd312 O315 2.333 . S
Cd312 O316 2.352 . S
Cd312 O320 2.277 . S
Cd312 O321 2.356 . S
C313 O318 1.209 . S
C313 O320 1.226 . S
O314 Cd310 2.273 1_556 S
O314 Cd312 2.411 . S
O314 C317 1.320 . S
O315 Cd312 2.333 . S
O315 C317 1.214 . S
O316 Cd312 2.352 . S
O316 C319 1.258 . S
C317 O314 1.320 . S
C317 O315 1.214 . S
O318 Cd310 2.277 1_556 S
O318 C313 1.209 . S
C319 O316 1.258 . S
C319 O321 1.282 . S
O320 Cd312 2.277 . S
O320 C313 1.226 . S
O321 Cd312 2.356 . S
O321 C319 1.282 . S
C322 O323 1.306 . S
C322 O325 1.160 . S
O323 C322 1.306 . S
O323 Cd324 2.228 . S
Cd324 O323 2.228 . S
Cd324 O328 2.273 . S
Cd324 O332 2.277 . S
O325 C322 1.160 . S
O325 Cd326 2.203 . S
Cd326 O325 2.203 . S
Cd326 O328 2.411 . S
Cd326 O329 2.333 . S
Cd326 O330 2.352 . S
Cd326 O334 2.277 . S
Cd326 O335 2.356 . S
C327 O332 1.209 . S
C327 O334 1.226 . S
O328 Cd324 2.273 . S
O328 Cd326 2.411 . S
O328 C331 1.320 . S
O329 Cd326 2.333 . S
O329 C331 1.214 . S
O330 Cd326 2.352 . S
O330 C333 1.258 . S
C331 O328 1.320 . S
C331 O329 1.214 . S
O332 Cd324 2.277 . S
O332 C327 1.209 . S
C333 O330 1.258 . S
C333 O335 1.282 . S
O334 Cd326 2.277 . S
O334 C327 1.226 . S
O335 Cd326 2.356 . S
O335 C333 1.282 . S
C336 C337 1.387 . S
C336 H340 0.950 . S
C336 C345 1.390 . S
C337 C336 1.387 . S
C337 C339 1.387 . S
H338 C345 0.950 . S
C339 C337 1.387 . S
C339 C341 1.390 . S
C339 H343 0.950 . S
H340 C336 0.950 . S
C341 C339 1.390 . S
C341 C342 1.387 . S
C341 H344 0.950 . S
C342 C341 1.387 . S
C342 C345 1.387 . S
H343 C339 0.950 . S
H344 C341 0.950 . S
C345 C336 1.390 . S
C345 H338 0.950 . S
C345 C342 1.387 . S
C346 C347 1.387 . S
C346 H350 0.950 . S
C346 C355 1.390 . S
C347 C346 1.387 . S
C347 C349 1.387 . S
H348 C355 0.950 . S
C349 C347 1.387 . S
C349 C351 1.390 . S
C349 H353 0.950 . S
H350 C346 0.950 . S
C351 C349 1.390 . S
C351 C352 1.387 . S
C351 H354 0.950 . S
C352 C351 1.387 . S
C352 C355 1.387 . S
H353 C349 0.950 . S
H354 C351 0.950 . S
C355 C346 1.390 . S
C355 H348 0.950 . S
C355 C352 1.387 . S
C356 C357 1.387 . S
C356 H360 0.950 . S
C356 C365 1.390 . S
C357 C356 1.387 . S
C357 C359 1.387 . S
H358 C365 0.950 . S
C359 C357 1.387 . S
C359 C361 1.390 1_556 S
C359 H363 0.950 . S
H360 C356 0.950 . S
C361 C359 1.390 1_554 S
C361 C362 1.387 1_554 S
C361 H364 0.950 . S
C362 C361 1.387 1_556 S
C362 C365 1.387 . S
H363 C359 0.950 . S
H364 C361 0.950 . S
C365 C356 1.390 . S
C365 H358 0.950 . S
C365 C362 1.387 . S
C366 C367 1.387 . S
C366 H370 0.950 . S
C366 C375 1.390 . S
C367 C366 1.387 . S
C367 C369 1.387 . S
H368 C375 0.950 . S
C369 C367 1.387 . S
C369 C371 1.390 . S
C369 H373 0.950 . S
H370 C366 0.950 . S
C371 C369 1.390 . S
C371 C372 1.387 . S
C371 H374 0.950 . S
C372 C371 1.387 . S
C372 C375 1.387 . S
H373 C369 0.950 . S
H374 C371 0.950 . S
C375 C366 1.390 . S
C375 H368 0.950 . S
C375 C372 1.387 . S
C376 C377 1.387 . S
C376 H380 0.950 . S
C376 C385 1.390 . S
C377 C376 1.387 . S
C377 C379 1.387 . S
H378 C385 0.950 . S
C379 C377 1.387 . S
C379 C381 1.390 . S
C379 H383 0.950 . S
H380 C376 0.950 . S
C381 C379 1.390 . S
C381 C382 1.387 . S
C381 H384 0.950 . S
C382 C381 1.387 . S
C382 C385 1.387 . S
H383 C379 0.950 . S
H384 C381 0.950 . S
C385 C376 1.390 . S
C385 H378 0.950 . S
C385 C382 1.387 . S
C386 C387 1.387 . S
C386 H390 0.950 . S
C386 C395 1.390 . S
C387 C386 1.387 . S
C387 C389 1.387 . S
H388 C395 0.950 . S
C389 C387 1.387 . S
C389 C391 1.390 . S
C389 H393 0.950 . S
H390 C386 0.950 . S
C391 C389 1.390 . S
C391 C392 1.387 . S
C391 H394 0.950 1_655 S
C392 C391 1.387 . S
C392 C395 1.387 . S
H393 C389 0.950 . S
H394 C391 0.950 1_455 S
C395 C386 1.390 . S
C395 H388 0.950 . S
C395 C392 1.387 . S
C396 C397 1.387 . S
C396 H400 0.950 . S
C396 C405 1.390 . S
C397 C396 1.387 . S
C397 C399 1.387 . S
H398 C405 0.950 . S
C399 C397 1.387 . S
C399 C401 1.390 . S
C399 H403 0.950 . S
H400 C396 0.950 . S
C401 C399 1.390 . S
C401 C402 1.387 . S
C401 H404 0.950 1_554 S
C402 C401 1.387 . S
C402 C405 1.387 . S
H403 C399 0.950 . S
H404 C401 0.950 1_556 S
C405 C396 1.390 . S
C405 H398 0.950 . S
C405 C402 1.387 . S
C406 C407 1.387 . S
C406 H410 0.950 . S
C406 C415 1.390 . S
C407 C406 1.387 . S
C407 C409 1.387 . S
H408 C415 0.950 . S
C409 C407 1.387 . S
C409 C411 1.390 . S
C409 H413 0.950 . S
H410 C406 0.950 . S
C411 C409 1.390 . S
C411 C412 1.387 . S
C411 H414 0.950 . S
C412 C411 1.387 . S
C412 C415 1.387 . S
H413 C409 0.950 . S
H414 C411 0.950 . S
C415 C406 1.390 . S
C415 H408 0.950 . S
C415 C412 1.387 . S
C416 C417 1.387 . S
C416 H420 0.950 . S
C416 C425 1.390 . S
C417 C416 1.387 . S
C417 C419 1.387 . S
H418 C425 0.950 . S
C419 C417 1.387 . S
C419 C421 1.390 . S
C419 H423 0.950 . S
H420 C416 0.950 . S
C421 C419 1.390 . S
C421 C422 1.387 . S
C421 H424 0.950 . S
C422 C421 1.387 . S
C422 C425 1.387 . S
H423 C419 0.950 . S
H424 C421 0.950 . S
C425 C416 1.390 . S
C425 H418 0.950 . S
C425 C422 1.387 . S
C426 C427 1.387 . S
C426 H430 0.950 . S
C426 C435 1.390 . S
C427 C426 1.387 . S
C427 C429 1.386 1_545 S
H428 C435 0.950 . S
C429 C427 1.386 1_565 S
C429 C431 1.378 1_565 S
C429 H433 0.964 . S
H430 C426 0.950 . S
C431 C429 1.378 1_545 S
C431 C432 1.387 . S
C431 H434 0.950 . S
C432 C431 1.387 . S
C432 C435 1.387 . S
H433 C429 0.964 . S
H434 C431 0.950 . S
C435 C426 1.390 . S
C435 H428 0.950 . S
C435 C432 1.387 . S
C436 C437 1.387 . S
C436 H440 0.950 . S
C436 C445 1.390 . S
C437 C436 1.387 . S
C437 C439 1.387 . S
H438 C445 0.950 . S
C439 C437 1.387 . S
C439 C441 1.390 1_565 S
C439 H443 0.950 . S
H440 C436 0.950 . S
C441 C439 1.390 1_545 S
C441 C442 1.387 1_545 S
C441 H444 0.950 . S
C442 C441 1.387 1_565 S
C442 C445 1.387 . S
H443 C439 0.950 . S
H444 C441 0.950 . S
C445 C436 1.390 . S
C445 H438 0.950 . S
C445 C442 1.387 . S
C446 C447 1.387 . S
C446 H450 0.950 . S
C446 C455 1.390 . S
C447 C446 1.387 . S
C447 C449 1.387 . S
H448 C455 0.950 . S
C449 C447 1.387 . S
C449 C451 1.390 . S
C449 H453 0.950 . S
H450 C446 0.950 . S
C451 C449 1.390 . S
C451 C452 1.387 . S
C451 H454 0.950 . S
C452 C451 1.387 . S
C452 C455 1.387 . S
H453 C449 0.950 . S
H454 C451 0.950 . S
C455 C446 1.390 . S
C455 H448 0.950 . S
C455 C452 1.387 . S
C456 C457 1.387 . S
C456 H460 0.950 . S
C456 C465 1.390 . S
C457 C456 1.387 . S
C457 C459 1.387 . S
H458 C465 0.950 . S
C459 C457 1.387 . S
C459 C461 1.390 . S
C459 H463 0.950 . S
H460 C456 0.950 . S
C461 C459 1.390 . S
C461 C462 1.387 . S
C461 H464 0.950 . S
C462 C461 1.387 . S
C462 C465 1.387 . S
H463 C459 0.950 . S
H464 C461 0.950 . S
C465 C456 1.390 . S
C465 H458 0.950 . S
C465 C462 1.387 . S
C466 C467 1.387 1_545 S
C466 H470 0.950 . S
C466 C475 1.390 . S
C467 C466 1.387 1_565 S
C467 C469 1.387 . S
H468 C475 0.950 . S
C469 C467 1.387 . S
C469 C471 1.390 1_565 S
C469 H473 0.950 . S
H470 C466 0.950 . S
C471 C469 1.390 1_545 S
C471 C472 1.387 . S
C471 H474 0.950 1_545 S
C472 C471 1.387 . S
C472 C475 1.387 . S
H473 C469 0.950 . S
H474 C471 0.950 1_565 S
C475 C466 1.390 . S
C475 H468 0.950 . S
C475 C472 1.387 . S
C476 C477 1.387 . S
C476 H480 0.950 . S
C476 C485 1.390 1_556 S
C477 C476 1.387 . S
C477 C479 1.387 . S
H478 C485 0.950 . S
C479 C477 1.387 . S
C479 C481 1.390 . S
C479 H483 0.950 . S
H480 C476 0.950 . S
C481 C479 1.390 . S
C481 C482 1.387 1_556 S
C481 H484 0.950 1_556 S
C482 C481 1.387 1_554 S
C482 C485 1.387 . S
H483 C479 0.950 . S
H484 C481 0.950 1_554 S
C485 C476 1.390 1_554 S
C485 H478 0.950 . S
C485 C482 1.387 . S
C486 C487 1.387 1_565 S
C486 H490 0.950 . S
C486 C495 1.390 . S
C487 C486 1.387 1_545 S
C487 C489 1.387 . S
H488 C495 0.950 . S
C489 C487 1.387 . S
C489 C491 1.390 . S
C489 H493 0.950 . S
H490 C486 0.950 . S
C491 C489 1.390 . S
C491 C492 1.387 1_545 S
C491 H494 0.950 . S
C492 C491 1.387 1_565 S
C492 C495 1.387 . S
H493 C489 0.950 . S
H494 C491 0.950 . S
C495 C486 1.390 . S
C495 H488 0.950 . S
C495 C492 1.387 . S
C496 C497 1.387 . S
C496 H500 0.950 . S
C496 C505 1.390 . S
C497 C496 1.387 . S
C497 C499 1.387 . S
H498 C505 0.950 . S
C499 C497 1.387 . S
C499 C501 1.390 . S
C499 H503 0.950 . S
H500 C496 0.950 . S
C501 C499 1.390 . S
C501 C502 1.387 . S
C501 H504 0.950 . S
C502 C501 1.387 . S
C502 C505 1.387 . S
H503 C499 0.950 . S
H504 C501 0.950 . S
C505 C496 1.390 . S
C505 H498 0.950 . S
C505 C502 1.387 . S
C506 C507 1.387 . S
C506 H510 0.950 . S
C506 C515 1.390 . S
C507 C506 1.387 . S
C507 C509 1.387 . S
H508 C515 0.950 . S
C509 C507 1.387 . S
C509 C511 1.390 . S
C509 H513 0.950 . S
H510 C506 0.950 . S
C511 C509 1.390 . S
C511 C512 1.387 . S
C511 H514 0.950 . S
C512 C511 1.387 . S
C512 C515 1.387 . S
H513 C509 0.950 . S
H514 C511 0.950 . S
C515 C506 1.390 . S
C515 H508 0.950 . S
C515 C512 1.387 . S
C516 C517 1.387 . S
C516 H520 0.950 . S
C516 C525 1.390 1_556 S
C517 C516 1.387 . S
C517 C519 1.387 1_556 S
H518 C525 0.950 . S
C519 C517 1.387 1_554 S
C519 C521 1.390 . S
C519 H523 0.955 . S
H520 C516 0.950 . S
C521 C519 1.390 . S
C521 C522 1.387 . S
C521 H524 0.950 . S
C522 C521 1.387 . S
C522 C525 1.387 . S
H523 C519 0.955 . S
H524 C521 0.950 . S
C525 C516 1.390 1_554 S
C525 H518 0.950 . S
C525 C522 1.387 . S
C526 C527 1.387 . S
C526 H530 0.950 . S
C526 C535 1.390 . S
C527 C526 1.387 . S
C527 C529 1.387 . S
H528 C535 0.950 . S
C529 C527 1.387 . S
C529 C531 1.390 . S
C529 H533 0.950 . S
H530 C526 0.950 . S
C531 C529 1.390 . S
C531 C532 1.387 . S
C531 H534 0.950 . S
C532 C531 1.387 . S
C532 C535 1.387 . S
H533 C529 0.950 . S
H534 C531 0.950 . S
C535 C526 1.390 . S
C535 H528 0.950 . S
C535 C532 1.387 . S
C536 C537 1.387 . S
C536 H540 0.950 . S
C536 C545 1.390 . S
C537 C536 1.387 . S
C537 C539 1.387 . S
H538 C545 0.950 . S
C539 C537 1.387 . S
C539 C541 1.390 . S
C539 H543 0.950 . S
H540 C536 0.950 . S
C541 C539 1.390 . S
C541 C542 1.387 . S
C541 H544 0.950 . S
C542 C541 1.387 . S
C542 C545 1.387 . S
H543 C539 0.950 . S
H544 C541 0.950 . S
C545 C536 1.390 . S
C545 H538 0.950 . S
C545 C542 1.387 . S
C546 C547 1.377 1_655 S
C546 H550 0.944 1_655 S
C546 C555 1.407 . S
C547 C546 1.377 1_455 S
C547 C549 1.387 . S
H548 C555 0.950 . S
C549 C547 1.387 . S
C549 C551 1.390 1_455 S
C549 H553 0.950 . S
H550 C546 0.944 1_455 S
C551 C549 1.390 1_655 S
C551 C552 1.387 . S
C551 H554 0.950 . S
C552 C551 1.387 . S
C552 C555 1.387 . S
H553 C549 0.950 . S
H554 C551 0.950 . S
C555 C546 1.407 . S
C555 H548 0.950 . S
C555 C552 1.387 . S
C556 C557 1.387 . S
C556 H560 0.950 . S
C556 C565 1.390 1_655 S
C557 C556 1.387 . S
C557 C559 1.387 . S
H558 C565 0.950 . S
C559 C557 1.387 . S
C559 C561 1.390 1_655 S
C559 H563 0.950 . S
H560 C556 0.950 . S
C561 C559 1.390 1_455 S
C561 C562 1.387 . S
C561 H564 0.950 . S
C562 C561 1.387 . S
C562 C565 1.387 . S
H563 C559 0.950 . S
H564 C561 0.950 . S
C565 C556 1.390 1_455 S
C565 H558 0.950 . S
C565 C562 1.387 . S
C566 C567 1.387 . S
C566 H570 0.950 . S
C566 C575 1.390 . S
C567 C566 1.387 . S
C567 C569 1.387 . S
H568 C575 0.950 . S
C569 C567 1.387 . S
C569 C571 1.390 . S
C569 H573 0.950 . S
H570 C566 0.950 . S
C571 C569 1.390 . S
C571 C572 1.387 . S
C571 H574 0.950 . S
C572 C571 1.387 . S
C572 C575 1.387 . S
H573 C569 0.950 . S
H574 C571 0.950 . S
C575 C566 1.390 . S
C575 H568 0.950 . S
C575 C572 1.387 . S
C576 C577 1.387 . S
C576 H580 0.950 . S
C576 C585 1.390 . S
C577 C576 1.387 . S
C577 C579 1.387 . S
H578 C585 0.950 . S
C579 C577 1.387 . S
C579 C581 1.390 . S
C579 H583 0.950 . S
H580 C576 0.950 . S
C581 C579 1.390 . S
C581 C582 1.387 . S
C581 H584 0.950 . S
C582 C581 1.387 . S
C582 C585 1.387 . S
H583 C579 0.950 . S
H584 C581 0.950 . S
C585 C576 1.390 . S
C585 H578 0.950 . S
C585 C582 1.387 . S
C586 C587 1.387 . S
C586 H590 0.950 . S
C586 C595 1.390 . S
C587 C586 1.387 . S
C587 C589 1.387 . S
H588 C595 0.950 . S
C589 C587 1.387 . S
C589 C591 1.390 . S
C589 H593 0.950 . S
H590 C586 0.950 . S
C591 C589 1.390 . S
C591 C592 1.387 . S
C591 H594 0.950 . S
C592 C591 1.387 . S
C592 C595 1.387 . S
H593 C589 0.950 . S
H594 C591 0.950 . S
C595 C586 1.390 . S
C595 H588 0.950 . S
C595 C592 1.387 . S
C596 C597 1.387 . S
C596 H600 0.950 . S
C596 C605 1.390 . S
C597 C596 1.387 . S
C597 C599 1.387 . S
H598 C605 0.950 . S
C599 C597 1.387 . S
C599 C601 1.390 . S
C599 H603 0.950 . S
H600 C596 0.950 . S
C601 C599 1.390 . S
C601 C602 1.387 . S
C601 H604 0.950 . S
C602 C601 1.387 . S
C602 C605 1.387 . S
H603 C599 0.950 . S
H604 C601 0.950 . S
C605 C596 1.390 . S
C605 H598 0.950 . S
C605 C602 1.387 . S
C606 C607 1.387 . S
C606 H610 0.950 . S
C606 C615 1.390 . S
C607 C606 1.387 . S
C607 C609 1.387 . S
H608 C615 0.965 . S
C609 C607 1.387 . S
C609 C611 1.390 . S
C609 H613 0.950 . S
H610 C606 0.950 . S
C611 C609 1.390 . S
C611 C612 1.387 . S
C611 H614 0.950 . S
C612 C611 1.387 . S
C612 C615 1.387 . S
H613 C609 0.950 . S
H614 C611 0.950 . S
C615 C606 1.390 . S
C615 H608 0.965 . S
C615 C612 1.387 . S
C616 C617 1.387 . S
C616 H620 0.950 . S
C616 C625 1.390 . S
C617 C616 1.387 . S
C617 C619 1.387 . S
H618 C625 0.950 . S
C619 C617 1.387 . S
C619 C621 1.390 . S
C619 H623 0.950 . S
H620 C616 0.950 . S
C621 C619 1.390 . S
C621 C622 1.387 . S
C621 H624 0.950 . S
C622 C621 1.387 . S
C622 C625 1.387 . S
H623 C619 0.950 . S
H624 C621 0.950 . S
C625 C616 1.390 . S
C625 H618 0.950 . S
C625 C622 1.387 . S
C626 C627 1.387 . S
C626 H630 0.950 . S
C626 C635 1.390 . S
C627 C626 1.387 . S
C627 C629 1.387 . S
H628 C635 0.950 . S
C629 C627 1.387 . S
C629 C631 1.390 . S
C629 H633 0.950 . S
H630 C626 0.950 . S
C631 C629 1.390 . S
C631 C632 1.387 . S
C631 H634 0.950 . S
C632 C631 1.387 . S
C632 C635 1.387 . S
H633 C629 0.950 . S
H634 C631 0.950 . S
C635 C626 1.390 . S
C635 H628 0.950 . S
C635 C632 1.387 . S
C636 C637 1.387 . S
C636 H640 0.950 . S
C636 C645 1.390 . S
C637 C636 1.387 . S
C637 C639 1.387 . S
H638 C645 0.950 . S
C639 C637 1.387 . S
C639 C641 1.390 . S
C639 H643 0.950 . S
H640 C636 0.950 . S
C641 C639 1.390 . S
C641 C642 1.387 . S
C641 H644 0.950 . S
C642 C641 1.387 . S
C642 C645 1.387 . S
H643 C639 0.950 . S
H644 C641 0.950 . S
C645 C636 1.390 . S
C645 H638 0.950 . S
C645 C642 1.387 . S
C646 C647 1.387 . S
C646 H650 0.950 . S
C646 C655 1.390 . S
C647 C646 1.387 . S
C647 C649 1.387 . S
H648 C655 0.950 . S
C649 C647 1.387 . S
C649 C651 1.390 . S
C649 H653 0.950 . S
H650 C646 0.950 . S
C651 C649 1.390 . S
C651 C652 1.387 . S
C651 H654 0.950 . S
C652 C651 1.387 . S
C652 C655 1.387 . S
H653 C649 0.950 . S
H654 C651 0.950 . S
C655 C646 1.390 . S
C655 H648 0.950 . S
C655 C652 1.387 . S
C656 C657 1.387 . S
C656 H660 0.950 . S
C656 C665 1.390 . S
C657 C656 1.387 . S
C657 C659 1.387 . S
H658 C665 0.950 . S
C659 C657 1.387 . S
C659 C661 1.390 . S
C659 H663 0.950 . S
H660 C656 0.950 . S
C661 C659 1.390 . S
C661 C662 1.387 . S
C661 H664 0.950 . S
C662 C661 1.387 . S
C662 C665 1.387 . S
H663 C659 0.950 . S
H664 C661 0.950 . S
C665 C656 1.390 . S
C665 H658 0.950 . S
C665 C662 1.387 . S
C666 C667 1.387 . S
C666 H670 0.950 . S
C666 C675 1.390 . S
C667 C666 1.387 . S
C667 C669 1.387 . S
H668 C675 0.950 . S
C669 C667 1.387 . S
C669 C671 1.390 . S
C669 H673 0.950 . S
H670 C666 0.950 . S
C671 C669 1.390 . S
C671 C672 1.387 . S
C671 H674 0.950 . S
C672 C671 1.387 . S
C672 C675 1.387 . S
H673 C669 0.950 . S
H674 C671 0.950 . S
C675 C666 1.390 . S
C675 H668 0.950 . S
C675 C672 1.387 . S
C676 C677 1.387 . S
C676 H680 0.950 . S
C676 C685 1.390 . S
C677 C676 1.387 . S
C677 C679 1.387 . S
H678 C685 0.950 . S
C679 C677 1.387 . S
C679 C681 1.390 . S
C679 H683 0.950 . S
H680 C676 0.950 . S
C681 C679 1.390 . S
C681 C682 1.387 . S
C681 H684 0.950 . S
C682 C681 1.387 . S
C682 C685 1.387 . S
H683 C679 0.950 . S
H684 C681 0.950 . S
C685 C676 1.390 . S
C685 H678 0.950 . S
C685 C682 1.387 . S
C686 C687 1.387 . S
C686 H690 0.950 . S
C686 C695 1.390 . S
C687 C686 1.387 . S
C687 C689 1.387 . S
H688 C695 0.950 . S
C689 C687 1.387 . S
C689 C691 1.390 . S
C689 H693 0.950 . S
H690 C686 0.950 . S
C691 C689 1.390 . S
C691 C692 1.387 . S
C691 H694 0.950 . S
C692 C691 1.387 . S
C692 C695 1.387 . S
H693 C689 0.950 . S
H694 C691 0.950 . S
C695 C686 1.390 . S
C695 H688 0.950 . S
C695 C692 1.387 . S
C696 C697 1.387 . S
C696 H700 0.950 . S
C696 C705 1.390 . S
C697 C696 1.387 . S
C697 C699 1.387 . S
H698 C705 0.950 . S
C699 C697 1.387 . S
C699 C701 1.390 . S
C699 H703 0.950 . S
H700 C696 0.950 . S
C701 C699 1.390 . S
C701 C702 1.387 . S
C701 H704 0.950 . S
C702 C701 1.387 . S
C702 C705 1.387 . S
H703 C699 0.950 . S
H704 C701 0.950 . S
C705 C696 1.390 . S
C705 H698 0.950 . S
C705 C702 1.387 . S
C706 C707 1.387 . S
C706 H710 0.950 . S
C706 C715 1.390 . S
C707 C706 1.387 . S
C707 C709 1.387 . S
H708 C715 0.950 . S
C709 C707 1.387 . S
C709 C711 1.390 . S
C709 H713 0.950 . S
H710 C706 0.950 . S
C711 C709 1.390 . S
C711 C712 1.387 . S
C711 H714 0.950 . S
C712 C711 1.387 . S
C712 C715 1.387 . S
H713 C709 0.950 . S
H714 C711 0.950 . S
C715 C706 1.390 . S
C715 H708 0.950 . S
C715 C712 1.387 . S
C716 C717 1.387 . S
C716 H720 0.950 . S
C716 C725 1.390 . S
C717 C716 1.387 . S
C717 C719 1.387 . S
H718 C725 0.950 . S
C719 C717 1.387 . S
C719 C721 1.390 . S
C719 H723 0.950 . S
H720 C716 0.950 . S
C721 C719 1.390 . S
C721 C722 1.387 . S
C721 H724 0.950 . S
C722 C721 1.387 . S
C722 C725 1.387 . S
H723 C719 0.950 . S
H724 C721 0.950 . S
C725 C716 1.390 . S
C725 H718 0.950 . S
C725 C722 1.387 . S
C726 C727 1.387 . S
C726 H730 0.950 . S
C726 C735 1.390 . S
C727 C726 1.387 . S
C727 C729 1.387 . S
H728 C735 0.950 . S
C729 C727 1.387 . S
C729 C731 1.390 . S
C729 H733 0.950 . S
H730 C726 0.950 . S
C731 C729 1.390 . S
C731 C732 1.387 . S
C731 H734 0.950 . S
C732 C731 1.387 . S
C732 C735 1.387 . S
H733 C729 0.950 . S
H734 C731 0.950 . S
C735 C726 1.390 . S
C735 H728 0.950 . S
C735 C732 1.387 . S
C736 C737 1.387 . S
C736 H740 0.950 . S
C736 C745 1.390 . S
C737 C736 1.387 . S
C737 C739 1.387 . S
H738 C745 0.950 . S
C739 C737 1.387 . S
C739 C741 1.390 . S
C739 H743 0.950 . S
H740 C736 0.950 . S
C741 C739 1.390 . S
C741 C742 1.387 . S
C741 H744 0.950 . S
C742 C741 1.387 . S
C742 C745 1.387 . S
H743 C739 0.950 . S
H744 C741 0.950 . S
C745 C736 1.390 . S
C745 H738 0.950 . S
C745 C742 1.387 . S
C746 C747 1.387 . S
C746 H750 0.950 . S
C746 C755 1.390 . S
C747 C746 1.387 . S
C747 C749 1.387 . S
H748 C755 0.950 . S
C749 C747 1.387 . S
C749 C751 1.390 . S
C749 H753 0.950 . S
H750 C746 0.950 . S
C751 C749 1.390 . S
C751 C752 1.387 . S
C751 H754 0.950 . S
C752 C751 1.387 . S
C752 C755 1.387 . S
H753 C749 0.950 . S
H754 C751 0.950 . S
C755 C746 1.390 . S
C755 H748 0.950 . S
C755 C752 1.387 . S
C756 C757 1.387 . S
C756 H760 0.950 . S
C756 C765 1.390 . S
C757 C756 1.387 . S
C757 C759 1.387 . S
H758 C765 0.950 . S
C759 C757 1.387 . S
C759 C761 1.390 . S
C759 H763 0.950 . S
H760 C756 0.950 . S
C761 C759 1.390 . S
C761 C762 1.387 . S
C761 H764 0.950 . S
C762 C761 1.387 . S
C762 C765 1.387 . S
H763 C759 0.950 . S
H764 C761 0.950 . S
C765 C756 1.390 . S
C765 H758 0.950 . S
C765 C762 1.387 . S
C766 C767 1.387 . S
C766 H770 0.950 . S
C766 C775 1.390 . S
C767 C766 1.387 . S
C767 C769 1.387 . S
H768 C775 0.950 . S
C769 C767 1.387 . S
C769 C771 1.390 . S
C769 H773 0.950 . S
H770 C766 0.950 . S
C771 C769 1.390 . S
C771 C772 1.387 . S
C771 H774 0.950 . S
C772 C771 1.387 . S
C772 C775 1.387 . S
H773 C769 0.950 . S
H774 C771 0.950 . S
C775 C766 1.390 . S
C775 H768 0.950 . S
C775 C772 1.387 . S
C776 C777 1.387 . S
C776 H780 0.950 . S
C776 C785 1.390 . S
C777 C776 1.387 . S
C777 C779 1.387 . S
H778 C785 0.950 . S
C779 C777 1.387 . S
C779 C781 1.390 . S
C779 H783 0.950 . S
H780 C776 0.950 . S
C781 C779 1.390 . S
C781 C782 1.387 . S
C781 H784 0.950 . S
C782 C781 1.387 . S
C782 C785 1.387 . S
H783 C779 0.950 . S
H784 C781 0.950 . S
C785 C776 1.390 . S
C785 H778 0.950 . S
C785 C782 1.387 . S
C786 C787 1.387 . S
C786 H790 0.950 . S
C786 C795 1.390 . S
C787 C786 1.387 . S
C787 C789 1.387 . S
H788 C795 0.950 . S
C789 C787 1.387 . S
C789 C791 1.390 . S
C789 H793 0.950 . S
H790 C786 0.950 . S
C791 C789 1.390 . S
C791 C792 1.387 . S
C791 H794 0.950 . S
C792 C791 1.387 . S
C792 C795 1.387 . S
H793 C789 0.950 . S
H794 C791 0.950 . S
C795 C786 1.390 . S
C795 H788 0.950 . S
C795 C792 1.387 . S
C796 C797 1.387 . S
C796 H800 0.950 . S
C796 C805 1.390 . S
C797 C796 1.387 . S
C797 C799 1.387 . S
H798 C805 0.950 . S
C799 C797 1.387 . S
C799 C801 1.390 . S
C799 H803 0.950 . S
H800 C796 0.950 . S
C801 C799 1.390 . S
C801 C802 1.387 . S
C801 H804 0.950 . S
C802 C801 1.387 . S
C802 C805 1.387 . S
H803 C799 0.950 . S
H804 C801 0.950 . S
C805 C796 1.390 . S
C805 H798 0.950 . S
C805 C802 1.387 . S
C806 C807 1.387 . S
C806 H810 0.950 . S
C806 C815 1.390 . S
C807 C806 1.387 . S
C807 C809 1.387 . S
H808 C815 0.950 . S
C809 C807 1.387 . S
C809 C811 1.390 . S
C809 H813 0.950 . S
H810 C806 0.950 . S
C811 C809 1.390 . S
C811 C812 1.387 . S
C811 H814 0.950 . S
C812 C811 1.387 . S
C812 C815 1.387 . S
H813 C809 0.950 . S
H814 C811 0.950 . S
C815 C806 1.390 . S
C815 H808 0.950 . S
C815 C812 1.387 . S
C337 C137 1.374 . S
C342 C11 1.374 . S
C347 C25 1.373 1_455 S
C352 C151 1.373 . S
C357 C39 1.374 . S
C362 C165 1.374 1_556 S
C367 C53 1.373 . S
C372 C123 1.372 . S
C377 C67 1.374 . S
C382 C221 1.373 . S
C387 C179 1.373 . S
C392 C81 1.373 1_655 S
C397 C95 1.373 . S
C402 C193 1.374 1_554 S
C407 C207 1.374 . S
C412 C109 1.374 . S
C417 C235 1.373 . S
C422 C263 1.373 . S
C427 C319 1.374 1_545 S
C432 C249 1.374 . S
C437 C277 1.374 . S
C442 C333 1.374 1_565 S
C447 C305 1.373 . S
C452 C291 1.372 . S
C457 C289 1.812 . S
C462 C9 1.813 . S
C467 C23 1.812 . S
C472 C247 1.811 . S
C477 C37 1.813 . S
C482 C261 1.812 . S
C487 C51 1.812 . S
C492 C275 1.811 . S
C497 C65 1.812 . S
C502 C331 1.811 . S
C507 C303 1.814 . S
C512 C79 1.813 . S
C517 C317 1.812 . S
C522 C93 1.813 . S
C527 C233 1.812 . S
C532 C107 1.812 . S
C537 C219 1.813 . S
C542 C121 1.812 . S
C547 C135 1.813 . S
C552 C177 1.812 . S
C557 C191 1.812 . S
C562 C149 1.813 . S
C567 C205 1.813 . S
C572 C163 1.812 . S
C577 C5 1.277 . S
C582 C224 1.310 . S
C587 C322 1.310 1_565 S
C592 C19 1.277 . S
C597 C294 1.309 . S
C602 C33 1.275 . S
C607 C47 1.273 . S
C612 C308 1.313 1_544 S
C617 C61 1.276 . S
C622 C238 1.310 . S
C627 C252 1.313 1_556 S
C632 C75 1.274 . S
C637 C266 1.310 . S
C642 C89 1.276 . S
C647 C280 1.309 . S
C652 C103 1.275 . S
C657 C0 1.313 . S
C662 C117 1.273 . S
C667 C14 1.310 1_445 S
C672 C131 1.276 . S
C677 C28 1.309 . S
C682 C145 1.276 . S
C687 C42 1.313 1_565 S
C692 C159 1.273 . S
C697 C56 1.313 . S
C702 C173 1.274 . S
C707 C70 1.310 1_655 S
C712 C187 1.276 . S
C717 C201 1.275 . S
C722 C84 1.309 . S
C727 C98 1.313 . S
C732 C215 1.273 . S
C737 C112 1.310 . S
C742 C229 1.274 . S
C747 C243 1.274 . S
C752 C168 1.310 . S
C757 C182 1.309 1_454 S
C762 C257 1.276 . S
C767 C271 1.277 . S
C772 C196 1.311 . S
C777 C285 1.276 . S
C782 C210 1.309 . S
C787 C299 1.273 . S
C792 C140 1.313 . S
C797 C154 1.309 1_556 S
C802 C313 1.276 . S
C807 C327 1.273 . S
C812 C126 1.313 1_655 S
