# Generated by pormake.
# Topology ecf, (8)-cn, num edge types: 1
# Building blocks:
#     Node 0, Type 0, BuildingBlock: AJUNOK_clean_sbu_0, # of connection points: 8
#     Node 1, Type 0, BuildingBlock: AJUNOK_clean_sbu_0, # of connection points: 8
#     Node 2, Type 0, BuildingBlock: AJUNOK_clean_sbu_0, # of connection points: 8
#     Node 3, Type 0, BuildingBlock: AJUNOK_clean_sbu_0, # of connection points: 8
#     Node 4, Type 0, BuildingBlock: AJUNOK_clean_sbu_0, # of connection points: 8
#     Node 5, Type 0, BuildingBlock: AJUNOK_clean_sbu_0, # of connection points: 8
#     Edge 6, Type (0, 0), BuildingBlock: TEMPAE_clean_linker_10, # of connection points: 2
#     Edge 7, Type (0, 0), BuildingBlock: TEMPAE_clean_linker_10, # of connection points: 2
#     Edge 8, Type (0, 0), BuildingBlock: TEMPAE_clean_linker_10, # of connection points: 2
#     Edge 9, Type (0, 0), BuildingBlock: TEMPAE_clean_linker_10, # of connection points: 2
#     Edge 10, Type (0, 0), BuildingBlock: TEMPAE_clean_linker_10, # of connection points: 2
#     Edge 11, Type (0, 0), BuildingBlock: TEMPAE_clean_linker_10, # of connection points: 2
#     Edge 12, Type (0, 0), BuildingBlock: TEMPAE_clean_linker_10, # of connection points: 2
#     Edge 13, Type (0, 0), BuildingBlock: TEMPAE_clean_linker_10, # of connection points: 2
#     Edge 14, Type (0, 0), BuildingBlock: TEMPAE_clean_linker_10, # of connection points: 2
#     Edge 15, Type (0, 0), BuildingBlock: TEMPAE_clean_linker_10, # of connection points: 2
#     Edge 16, Type (0, 0), BuildingBlock: TEMPAE_clean_linker_10, # of connection points: 2
#     Edge 17, Type (0, 0), BuildingBlock: TEMPAE_clean_linker_10, # of connection points: 2
#     Edge 18, Type (0, 0), BuildingBlock: TEMPAE_clean_linker_10, # of connection points: 2
#     Edge 19, Type (0, 0), BuildingBlock: TEMPAE_clean_linker_10, # of connection points: 2
#     Edge 20, Type (0, 0), BuildingBlock: TEMPAE_clean_linker_10, # of connection points: 2
#     Edge 21, Type (0, 0), BuildingBlock: TEMPAE_clean_linker_10, # of connection points: 2
#     Edge 22, Type (0, 0), BuildingBlock: TEMPAE_clean_linker_10, # of connection points: 2
#     Edge 23, Type (0, 0), BuildingBlock: TEMPAE_clean_linker_10, # of connection points: 2
#     Edge 24, Type (0, 0), BuildingBlock: TEMPAE_clean_linker_10, # of connection points: 2
#     Edge 25, Type (0, 0), BuildingBlock: TEMPAE_clean_linker_10, # of connection points: 2
#     Edge 26, Type (0, 0), BuildingBlock: TEMPAE_clean_linker_10, # of connection points: 2
#     Edge 27, Type (0, 0), BuildingBlock: TEMPAE_clean_linker_10, # of connection points: 2
#     Edge 28, Type (0, 0), BuildingBlock: TEMPAE_clean_linker_10, # of connection points: 2
#     Edge 29, Type (0, 0), BuildingBlock: TEMPAE_clean_linker_10, # of connection points: 2
# Relax obj value: 0.406
# Max RMSD: 0.282
# Mean RMSD: 0.282
data_MOF--net-ecf--node1-AJUNOK_clean_sbu_0--edge1-TEMPAE_clean_linker_10
_symmetry_space_group_name_H-M    P1
_symmetry_Int_Tables_number       1
_symmetry_cell_setting            triclinic
loop_
_symmetry_equiv_pos_as_xyz
'x, y, z'
_cell_length_a     39.949258
_cell_length_b     39.979995
_cell_length_c     24.241829
_cell_angle_alpha  89.854067
_cell_angle_beta   90.075029
_cell_angle_gamma 119.98669
loop_
_atom_site_label
_atom_site_type_symbol
_atom_site_fract_x
_atom_site_fract_y
_atom_site_fract_z
_atom_type_partial_charge
Cd0 Cd 0.13985 0.33163 0.2456 0.0
Cd1 Cd 0.20913 0.32058 0.34046 0.0
C2 C 0.05326 0.25675 0.24435 0.0
N3 N 0.08648 0.27458 0.21459 0.0
C4 C 0.06342 0.2207 0.1534 0.0
C5 C 0.03008 0.20046 0.18577 0.0
C6 C 0.02458 0.21942 0.23069 0.0
C7 C 0.09135 0.25807 0.16856 0.0
H8 H 0.04973 0.27069 0.2802 0.0
H9 H 0.11772 0.27324 0.14498 0.0
C10 C 0.21101 0.30332 0.19966 0.0
C11 C 0.25671 0.40061 0.27454 0.0
C12 C 0.28327 0.44 0.2688 0.0
C13 C 0.29186 0.4651 0.31409 0.0
C14 C 0.27089 0.44943 0.36327 0.0
C15 C 0.24377 0.40998 0.36668 0.0
N16 N 0.23728 0.38647 0.32271 0.0
H17 H 0.25241 0.38125 0.24087 0.0
H18 H 0.22974 0.39761 0.40559 0.0
C19 C 0.1871 0.2338 0.32662 0.0
N20 N 0.17176 0.25666 0.31565 0.0
C21 C 0.11836 0.20532 0.26844 0.0
C22 C 0.13435 0.18159 0.27746 0.0
C23 C 0.16869 0.19588 0.30796 0.0
C24 C 0.1376 0.24307 0.28874 0.0
H25 H 0.21441 0.24559 0.34814 0.0
H26 H 0.12627 0.26206 0.2818 0.0
C27 C 0.11718 0.30167 0.38999 0.0
C28 C 0.11929 0.37244 0.171 0.0
N29 N 0.17288 0.39484 0.28303 0.0
C30 C 0.16012 0.40276 0.33061 0.0
C31 C 0.17062 0.44082 0.34393 0.0
C32 C 0.1942 0.47103 0.30779 0.0
C33 C 0.20833 0.4623 0.26034 0.0
C34 C 0.19671 0.42386 0.24824 0.0
C35 C 0.2691 0.32621 0.40836 0.0
O36 O 0.18358 0.31084 0.19395 0.0
O37 O 0.2256 0.30604 0.24726 0.0
O38 O 0.15091 0.30678 0.39937 0.0
O39 O 0.10864 0.30749 0.34133 0.0
O40 O 0.14584 0.36491 0.1597 0.0
O41 O 0.101 0.35893 0.21582 0.0
O42 O 0.23531 0.31336 0.42742 0.0
O43 O 0.27416 0.3348 0.35782 0.0
H44 H 0.13972 0.37955 0.35654 0.0
H45 H 0.20547 0.41708 0.20965 0.0
H46 H 0.06852 0.20728 0.11812 0.0
H47 H 0.99943 0.20479 0.25707 0.0
H48 H 0.2974 0.45021 0.22936 0.0
H49 H 0.27678 0.4667 0.40009 0.0
H50 H 0.09184 0.19495 0.24532 0.0
H51 H 0.18211 0.17845 0.31498 0.0
H52 H 0.15889 0.44638 0.38078 0.0
H53 H 0.22609 0.48466 0.23098 0.0
Cd54 Cd 0.89085 0.20575 0.84462 0.0
Cd55 Cd 0.81438 0.13702 0.74652 0.0
C56 C 0.95838 0.18728 0.83724 0.0
N57 N 0.9205 0.17078 0.82339 0.0
C58 C 0.92282 0.11981 0.77581 0.0
C59 C 0.9624 0.13726 0.78732 0.0
C60 C 0.98001 0.17081 0.81968 0.0
C61 C 0.90213 0.13709 0.79502 0.0
H62 H 0.97209 0.21417 0.85986 0.0
H63 H 0.87194 0.12478 0.78567 0.0
C64 C 0.81848 0.11236 0.8907 0.0
C65 C 0.75796 0.15275 0.8255 0.0
C66 C 0.72862 0.16139 0.83549 0.0
C67 C 0.7232 0.18574 0.79912 0.0
C68 C 0.74957 0.20308 0.75562 0.0
C69 C 0.77841 0.19354 0.74701 0.0
N70 N 0.78184 0.16834 0.78127 0.0
H71 H 0.75973 0.13148 0.85087 0.0
H72 H 0.79658 0.20449 0.71085 0.0
C73 C 0.8044 0.05122 0.74475 0.0
N74 N 0.82027 0.08494 0.71613 0.0
C75 C 0.85541 0.06473 0.6586 0.0
C76 C 0.84186 0.03104 0.69022 0.0
C77 C 0.81487 0.02367 0.73238 0.0
C78 C 0.8438 0.0913 0.67207 0.0
H79 H 0.78516 0.04647 0.77891 0.0
H80 H 0.85508 0.11788 0.64903 0.0
C81 C 0.91477 0.20915 0.70542 0.0
C82 C 0.93993 0.26508 0.91732 0.0
N83 N 0.85255 0.23266 0.82373 0.0
C84 C 0.86285 0.25602 0.77864 0.0
C85 C 0.85195 0.28408 0.77403 0.0
C86 C 0.83112 0.28894 0.8169 0.0
C87 C 0.81939 0.26329 0.86189 0.0
C88 C 0.83106 0.23562 0.86494 0.0
C89 C 0.75559 0.1173 0.66801 0.0
O90 O 0.84641 0.14623 0.9011 0.0
O91 O 0.80509 0.10418 0.84156 0.0
O92 O 0.88005 0.18158 0.69885 0.0
O93 O 0.9256 0.22386 0.75318 0.0
O94 O 0.91869 0.23084 0.93454 0.0
O95 O 0.93956 0.27093 0.86623 0.0
O96 O 0.78982 0.14442 0.65898 0.0
O97 O 0.74961 0.09806 0.71226 0.0
H98 H 0.88154 0.25458 0.74779 0.0
H99 H 0.82528 0.21832 0.90185 0.0
H100 H 0.90846 0.09384 0.7513 0.0
H101 H 0.01067 0.18534 0.82869 0.0
H102 H 0.70908 0.14754 0.86976 0.0
H103 H 0.74628 0.22163 0.72615 0.0
H104 H 0.87596 0.07117 0.6255 0.0
H105 H 0.80392 0.99804 0.75791 0.0
H106 H 0.86136 0.30304 0.73843 0.0
H107 H 0.80387 0.26641 0.89624 0.0
Cd108 Cd 0.68017 0.80763 0.24714 0.0
Cd109 Cd 0.68743 0.88492 0.34323 0.0
C110 C 0.75584 0.79711 0.24646 0.0
N111 N 0.73785 0.81247 0.21693 0.0
C112 C 0.79195 0.84432 0.1561 0.0
C113 C 0.81225 0.83109 0.1881 0.0
C114 C 0.79332 0.80619 0.23276 0.0
C115 C 0.7544 0.83436 0.17119 0.0
H116 H 0.74186 0.77921 0.28204 0.0
H117 H 0.73905 0.84541 0.14768 0.0
C118 C 0.70868 0.90774 0.20374 0.0
C119 C 0.60927 0.85657 0.27437 0.0
C120 C 0.57019 0.84477 0.26733 0.0
C121 C 0.54378 0.82461 0.30981 0.0
C122 C 0.55727 0.81553 0.35786 0.0
C123 C 0.59678 0.82849 0.36358 0.0
N124 N 0.6218 0.84823 0.32188 0.0
H125 H 0.62978 0.87406 0.24302 0.0
H126 H 0.60779 0.82431 0.40222 0.0
C127 C 0.77451 0.95066 0.3351 0.0
N128 N 0.7521 0.9129 0.32157 0.0
C129 C 0.80455 0.913 0.27429 0.0
C130 C 0.82784 0.95241 0.28576 0.0
C131 C 0.81278 0.97108 0.3177 0.0
C132 C 0.76647 0.89353 0.29348 0.0
H133 H 0.76211 0.96522 0.35752 0.0
H134 H 0.74777 0.8635 0.28445 0.0
C135 C 0.70791 0.81226 0.39159 0.0
C136 C 0.64093 0.74715 0.17107 0.0
N137 N 0.61631 0.77802 0.28194 0.0
C138 C 0.60708 0.75894 0.33105 0.0
C139 C 0.56857 0.73218 0.34382 0.0
C140 C 0.53917 0.72287 0.30439 0.0
C141 C 0.54969 0.74421 0.25482 0.0
C142 C 0.58824 0.7718 0.24476 0.0
C143 C 0.67918 0.93586 0.4146 0.0
O144 O 0.70172 0.87305 0.19755 0.0
O145 O 0.70442 0.91863 0.25123 0.0
O146 O 0.70215 0.84042 0.40111 0.0
O147 O 0.70285 0.79849 0.34274 0.0
O148 O 0.64967 0.78154 0.15945 0.0
O149 O 0.6526 0.74156 0.21704 0.0
O150 O 0.68998 0.91303 0.43279 0.0
O151 O 0.67422 0.9361 0.36324 0.0
H152 H 0.62956 0.76323 0.35968 0.0
H153 H 0.596 0.78668 0.20555 0.0
H154 H 0.80539 0.86318 0.12102 0.0
H155 H 0.80805 0.79555 0.25878 0.0
H156 H 0.56091 0.85256 0.22985 0.0
H157 H 0.53791 0.80073 0.39195 0.0
H158 H 0.81545 0.89787 0.24993 0.0
H159 H 0.8298 1.00167 0.32662 0.0
H160 H 0.56247 0.71803 0.38357 0.0
H161 H 0.52908 0.7384 0.22215 0.0
Cd162 Cd 0.80895 0.68625 0.8467 0.0
Cd163 Cd 0.87678 0.67776 0.74657 0.0
C164 C 0.82514 0.7713 0.83431 0.0
N165 N 0.8448 0.75188 0.82972 0.0
C166 C 0.90239 0.80967 0.804 0.0
C167 C 0.88223 0.82987 0.80584 0.0
C168 C 0.84337 0.81057 0.82231 0.0
C169 C 0.8829 0.77025 0.8161 0.0
H170 H 0.79492 0.7559 0.84575 0.0
H171 H 0.89793 0.75427 0.81363 0.0
C172 C 0.90205 0.70446 0.89112 0.0
C173 C 0.8629 0.60551 0.82275 0.0
C174 C 0.85235 0.56713 0.83349 0.0
C175 C 0.82398 0.53717 0.80096 0.0
C176 C 0.80618 0.54731 0.75909 0.0
C177 C 0.81824 0.58618 0.74904 0.0
N178 N 0.8458 0.61439 0.78113 0.0
H179 H 0.88661 0.62822 0.84537 0.0
H180 H 0.80643 0.59395 0.71436 0.0
C181 C 0.96225 0.75319 0.74671 0.0
N182 N 0.92671 0.73944 0.72399 0.0
C183 C 0.94484 0.80146 0.6863 0.0
C184 C 0.98028 0.81763 0.71451 0.0
C185 C 0.98979 0.79227 0.74184 0.0
C186 C 0.91851 0.76218 0.69152 0.0
H187 H 0.96863 0.73422 0.77074 0.0
H188 H 0.89072 0.75057 0.67204 0.0
C189 C 0.80317 0.70346 0.70579 0.0
C190 C 0.74932 0.67583 0.91888 0.0
N191 N 0.78139 0.62043 0.82897 0.0
C192 C 0.75526 0.60623 0.78714 0.0
C193 C 0.72911 0.56666 0.78333 0.0
C194 C 0.72924 0.54121 0.82343 0.0
C195 C 0.7568 0.55676 0.8661 0.0
C196 C 0.78225 0.59671 0.86861 0.0
C197 C 0.89892 0.64121 0.66734 0.0
O198 O 0.86859 0.69958 0.90196 0.0
O199 O 0.90982 0.69923 0.84176 0.0
O200 O 0.83002 0.69542 0.69817 0.0
O201 O 0.79056 0.70181 0.7545 0.0
O202 O 0.78331 0.68793 0.93664 0.0
O203 O 0.74398 0.67077 0.86758 0.0
O204 O 0.87101 0.64715 0.65861 0.0
O205 O 0.9182 0.65499 0.71131 0.0
H206 H 0.7533 0.62579 0.75827 0.0
H207 H 0.80172 0.60896 0.90327 0.0
H208 H 0.93256 0.82417 0.79253 0.0
H209 H 0.82687 0.82534 0.82359 0.0
H210 H 0.86822 0.56152 0.86484 0.0
H211 H 0.78376 0.52567 0.73324 0.0
H212 H 0.93595 0.81894 0.66353 0.0
H213 H 0.01757 0.80256 0.76146 0.0
H214 H 0.70772 0.5565 0.75076 0.0
H215 H 0.75814 0.53845 0.89796 0.0
Cd216 Cd 0.20915 0.87776 0.24225 0.0
Cd217 Cd 0.13159 0.80478 0.33974 0.0
C218 C 0.21122 0.95863 0.23772 0.0
N219 N 0.19833 0.92602 0.20728 0.0
C220 C 0.16618 0.94701 0.14466 0.0
C221 C 0.17741 0.97995 0.1771 0.0
C222 C 0.20102 0.98606 0.22336 0.0
C223 C 0.17746 0.92042 0.16032 0.0
H224 H 0.22821 0.96267 0.2744 0.0
H225 H 0.16862 0.89483 0.13588 0.0
C226 C 0.11159 0.80394 0.19698 0.0
C227 C 0.1555 0.74842 0.28408 0.0
C228 C 0.16815 0.72166 0.28089 0.0
C229 C 0.19442 0.72218 0.32016 0.0
C230 C 0.20767 0.75071 0.36151 0.0
C231 C 0.19369 0.77662 0.36366 0.0
N232 N 0.1686 0.77543 0.32464 0.0
H233 H 0.13364 0.74633 0.25576 0.0
H234 H 0.2019 0.79688 0.39741 0.0
C235 C 0.06398 0.82325 0.3294 0.0
N236 N 0.10204 0.83977 0.31669 0.0
C237 C 0.10071 0.89169 0.26972 0.0
C238 C 0.06111 0.87458 0.28089 0.0
C239 C 0.04286 0.84037 0.31202 0.0
C240 C 0.12089 0.87378 0.28894 0.0
H241 H 0.04982 0.79609 0.35148 0.0
H242 H 0.15117 0.88601 0.28056 0.0
C243 C 0.2029 0.89777 0.38756 0.0
C244 C 0.27954 0.91159 0.18432 0.0
N245 N 0.2353 0.83963 0.27036 0.0
C246 C 0.26105 0.85426 0.31258 0.0
C247 C 0.28738 0.84153 0.32174 0.0
C248 C 0.28768 0.81353 0.28691 0.0
C249 C 0.25999 0.79826 0.24436 0.0
C250 C 0.23453 0.81234 0.2361 0.0
C251 C 0.0793 0.74572 0.41034 0.0
O252 O 0.14568 0.83265 0.18973 0.0
O253 O 0.10143 0.78921 0.24499 0.0
O254 O 0.17516 0.86373 0.39765 0.0
O255 O 0.21625 0.90655 0.33856 0.0
O256 O 0.24982 0.88198 0.16559 0.0
O257 O 0.27541 0.92649 0.22804 0.0
O258 O 0.10163 0.77949 0.42826 0.0
O259 O 0.08008 0.74023 0.35925 0.0
H260 H 0.26292 0.87772 0.33696 0.0
H261 H 0.21527 0.8027 0.20095 0.0
H262 H 0.14827 0.94152 0.10845 0.0
H263 H 0.20996 0.01087 0.24988 0.0
H264 H 0.15579 0.69956 0.24947 0.0
H265 H 0.22796 0.75257 0.39265 0.0
H266 H 0.1155 0.91808 0.2459 0.0
H267 H 0.01215 0.82609 0.32066 0.0
H268 H 0.30879 0.85543 0.35382 0.0
H269 H 0.2586 0.77644 0.21661 0.0
Cd270 Cd 0.32341 0.12248 0.83983 0.0
Cd271 Cd 0.34049 0.20277 0.7427 0.0
C272 C 0.25198 0.12308 0.7826 0.0
N273 N 0.26056 0.11026 0.82926 0.0
C274 C 0.19359 0.06924 0.84909 0.0
C275 C 0.18432 0.07873 0.79769 0.0
C276 C 0.21378 0.10751 0.76567 0.0
C277 C 0.23241 0.08527 0.86402 0.0
H278 H 0.27504 0.14251 0.75626 0.0
H279 H 0.24016 0.07528 0.90077 0.0
C280 C 0.30804 0.1963 0.88753 0.0
C281 C 0.41043 0.25809 0.82498 0.0
C282 C 0.44837 0.28597 0.83822 0.0
C283 C 0.47914 0.28974 0.80565 0.0
C284 C 0.471 0.26371 0.76214 0.0
C285 C 0.4326 0.23634 0.75016 0.0
N286 N 0.40313 0.23414 0.78121 0.0
H287 H 0.38683 0.25744 0.84749 0.0
H288 H 0.42622 0.21815 0.71426 0.0
C289 C 0.2681 0.21824 0.74025 0.0
N290 N 0.28551 0.20272 0.70998 0.0
C291 C 0.23207 0.17408 0.64758 0.0
C292 C 0.21195 0.18671 0.68101 0.0
C293 C 0.23102 0.21041 0.72654 0.0
C294 C 0.26919 0.18258 0.66293 0.0
H295 H 0.28199 0.23491 0.77671 0.0
H296 H 0.28402 0.17104 0.63927 0.0
C297 C 0.30899 0.10209 0.69887 0.0
C298 C 0.32849 0.06917 0.90942 0.0
N299 N 0.38916 0.1572 0.81726 0.0
C300 C 0.40192 0.14469 0.7744 0.0
C301 C 0.441 0.15597 0.76968 0.0
C302 C 0.46773 0.18045 0.80947 0.0
C303 C 0.45365 0.19339 0.85291 0.0
C304 C 0.41407 0.18061 0.85672 0.0
C305 C 0.38308 0.26193 0.66581 0.0
O306 O 0.31209 0.16733 0.8988 0.0
O307 O 0.31501 0.21013 0.83841 0.0
O308 O 0.31933 0.1377 0.69132 0.0
O309 O 0.3086 0.08999 0.74765 0.0
O310 O 0.34749 0.10499 0.91891 0.0
O311 O 0.3041 0.05759 0.87055 0.0
O312 O 0.37589 0.22761 0.65756 0.0
O313 O 0.36879 0.26797 0.70883 0.0
H314 H 0.3816 0.12391 0.74568 0.0
H315 H 0.403 0.18847 0.89208 0.0
H316 H 0.17155 0.04642 0.87422 0.0
H317 H 0.20757 0.11453 0.72527 0.0
H318 H 0.45346 0.30569 0.87192 0.0
H319 H 0.49383 0.26602 0.73555 0.0
H320 H 0.21849 0.15613 0.61184 0.0
H321 H 0.21651 0.22066 0.75358 0.0
H322 H 0.44952 0.14368 0.73661 0.0
H323 H 0.47271 0.21261 0.88441 0.0
C324 C 0.16786 0.51511 0.32425 0.0
C325 C 0.19996 0.51044 0.31554 0.0
C326 C 0.17175 0.55197 0.32619 0.0
C327 C 0.20885 0.58518 0.32073 0.0
C328 C 0.2416 0.58069 0.31356 0.0
C329 C 0.23665 0.54333 0.31012 0.0
C330 C 0.13588 0.55528 0.33219 0.0
C331 C 0.28179 0.61524 0.30955 0.0
C332 C 0.20692 0.67424 0.27026 0.0
C333 C 0.20502 0.69114 0.32007 0.0
C334 C 0.20994 0.6407 0.26975 0.0
C335 C 0.21255 0.62426 0.32023 0.0
C336 C 0.21421 0.64307 0.37039 0.0
C337 C 0.20987 0.67589 0.36982 0.0
C338 C 0.20783 0.62152 0.21524 0.0
C339 C 0.21838 0.6273 0.425 0.0
H340 H 0.13935 0.48977 0.32729 0.0
H341 H 0.26142 0.53977 0.30291 0.0
H342 H 0.13816 0.57233 0.36945 0.0
H343 H 0.13305 0.57081 0.29607 0.0
H344 H 0.10917 0.52664 0.33548 0.0
H345 H 0.30375 0.60679 0.30009 0.0
H346 H 0.28307 0.63552 0.27722 0.0
H347 H 0.28952 0.63112 0.34925 0.0
H348 H 0.20464 0.6864 0.23141 0.0
H349 H 0.20838 0.68832 0.40875 0.0
H350 H 0.18064 0.59325 0.21333 0.0
H351 H 0.23215 0.61577 0.21129 0.0
H352 H 0.20853 0.63932 0.17951 0.0
H353 H 0.19091 0.6007 0.43532 0.0
H354 H 0.22547 0.64837 0.45901 0.0
H355 H 0.24129 0.61939 0.42259 0.0
C356 C 0.53025 0.19515 0.85644 0.0
C357 C 0.50905 0.18965 0.80758 0.0
C358 C 0.56741 0.19947 0.85549 0.0
C359 C 0.58339 0.19673 0.80482 0.0
C360 C 0.56305 0.1928 0.7552 0.0
C361 C 0.52667 0.19024 0.75708 0.0
C362 C 0.58894 0.20542 0.90909 0.0
C363 C 0.57891 0.18952 0.70022 0.0
C364 C 0.68967 0.22501 0.79383 0.0
C365 C 0.6879 0.18943 0.80269 0.0
C366 C 0.65606 0.22807 0.79499 0.0
C367 C 0.61967 0.19461 0.80417 0.0
C368 C 0.61767 0.15854 0.81216 0.0
C369 C 0.65173 0.15647 0.81182 0.0
C370 C 0.6597 0.26724 0.78731 0.0
C371 C 0.57938 0.12186 0.81988 0.0
H372 H 0.51742 0.19455 0.89598 0.0
H373 H 0.51166 0.18764 0.71873 0.0
H374 H 0.59031 0.17908 0.91939 0.0
H375 H 0.6191 0.22962 0.90498 0.0
H376 H 0.57488 0.21172 0.94388 0.0
H377 H 0.56011 0.18772 0.6652 0.0
H378 H 0.60817 0.21471 0.69354 0.0
H379 H 0.58178 0.1633 0.69997 0.0
H380 H 0.71736 0.25051 0.78605 0.0
H381 H 0.64988 0.12866 0.81706 0.0
H382 H 0.65672 0.27812 0.82801 0.0
H383 H 0.63653 0.26566 0.76031 0.0
H384 H 0.68809 0.28842 0.76931 0.0
H385 H 0.56479 0.12402 0.85748 0.0
H386 H 0.58266 0.09595 0.82372 0.0
H387 H 0.56013 0.1177 0.78435 0.0
C388 C 0.35614 0.51658 0.27617 0.0
C389 C 0.32444 0.50624 0.31139 0.0
C390 C 0.388 0.55419 0.2753 0.0
C391 C 0.38934 0.58226 0.31206 0.0
C392 C 0.35742 0.57262 0.34702 0.0
C393 C 0.32528 0.53497 0.34586 0.0
C394 C 0.42094 0.56347 0.23612 0.0
C395 C 0.35789 0.60139 0.38769 0.0
C396 C 0.49277 0.65763 0.34602 0.0
C397 C 0.49904 0.68897 0.31225 0.0
C398 C 0.45643 0.62398 0.34932 0.0
C399 C 0.42558 0.62046 0.31639 0.0
C400 C 0.43099 0.65209 0.28358 0.0
C401 C 0.46727 0.68608 0.28274 0.0
C402 C 0.45165 0.59133 0.38616 0.0
C403 C 0.39898 0.64945 0.24736 0.0
H404 H 0.35705 0.49507 0.25026 0.0
H405 H 0.30104 0.52812 0.37268 0.0
H406 H 0.42911 0.59058 0.21327 0.0
H407 H 0.44666 0.56802 0.25979 0.0
H408 H 0.41354 0.54001 0.20578 0.0
H409 H 0.32883 0.59167 0.4055 0.0
H410 H 0.37803 0.60528 0.42187 0.0
H411 H 0.36851 0.63002 0.36808 0.0
H412 H 0.51651 0.65828 0.36841 0.0
H413 H 0.47067 0.70999 0.25767 0.0
H414 H 0.44919 0.56727 0.3605 0.0
H415 H 0.42474 0.57999 0.41082 0.0
H416 H 0.47644 0.60047 0.41481 0.0
H417 H 0.38993 0.62545 0.21749 0.0
H418 H 0.40782 0.67657 0.22405 0.0
H419 H 0.37338 0.64293 0.27276 0.0
C420 C 0.85623 0.35948 0.80224 0.0
C421 C 0.8255 0.32307 0.81716 0.0
C422 C 0.85223 0.39238 0.80279 0.0
C423 C 0.81637 0.38888 0.81778 0.0
C424 C 0.78527 0.35232 0.83349 0.0
C425 C 0.79038 0.31992 0.83368 0.0
C426 C 0.88657 0.43099 0.78751 0.0
C427 C 0.74648 0.34733 0.84909 0.0
C428 C 0.82129 0.48302 0.8585 0.0
C429 C 0.81598 0.49648 0.80739 0.0
C430 C 0.82011 0.44739 0.86308 0.0
C431 C 0.81179 0.42369 0.81595 0.0
C432 C 0.80315 0.43546 0.76539 0.0
C433 C 0.80605 0.47188 0.76143 0.0
C434 C 0.83021 0.4363 0.91761 0.0
C435 C 0.79287 0.41047 0.71455 0.0
H436 H 0.88385 0.36244 0.79107 0.0
H437 H 0.76677 0.29203 0.84615 0.0
H438 H 0.87998 0.44242 0.74982 0.0
H439 H 0.89277 0.45215 0.82105 0.0
H440 H 0.91299 0.42912 0.77974 0.0
H441 H 0.7263 0.31776 0.86452 0.0
H442 H 0.74979 0.36838 0.88133 0.0
H443 H 0.73341 0.3532 0.81258 0.0
H444 H 0.82762 0.50083 0.8949 0.0
H445 H 0.80223 0.48153 0.72139 0.0
H446 H 0.85828 0.43709 0.91375 0.0
H447 H 0.80824 0.4064 0.92921 0.0
H448 H 0.83259 0.45606 0.95144 0.0
H449 H 0.81891 0.4103 0.69911 0.0
H450 H 0.78153 0.42099 0.68092 0.0
H451 H 0.77087 0.3802 0.72457 0.0
C452 C 0.33482 0.79619 0.24481 0.0
C453 C 0.31911 0.80358 0.292 0.0
C454 C 0.36819 0.79287 0.24807 0.0
C455 C 0.38718 0.79829 0.29936 0.0
C456 C 0.37025 0.80331 0.3476 0.0
C457 C 0.33611 0.80515 0.34346 0.0
C458 C 0.38446 0.78601 0.19592 0.0
C459 C 0.38964 0.80955 0.40312 0.0
C460 C 0.47188 0.78021 0.31738 0.0
C461 C 0.50342 0.81694 0.30627 0.0
C462 C 0.43369 0.77321 0.31402 0.0
C463 C 0.42712 0.80411 0.3014 0.0
C464 C 0.45906 0.84143 0.29136 0.0
C465 C 0.49668 0.84721 0.29314 0.0
C466 C 0.40051 0.73271 0.32296 0.0
C467 C 0.45359 0.87552 0.27952 0.0
H468 H 0.32243 0.79501 0.20463 0.0
H469 H 0.32363 0.80939 0.38057 0.0
H470 H 0.41032 0.8133 0.18281 0.0
H471 H 0.39371 0.7644 0.20319 0.0
H472 H 0.36315 0.77578 0.16164 0.0
H473 H 0.37118 0.80966 0.43727 0.0
H474 H 0.39713 0.78679 0.41147 0.0
H475 H 0.41704 0.83768 0.40302 0.0
H476 H 0.47715 0.75694 0.32811 0.0
H477 H 0.52106 0.87582 0.2856 0.0
H478 H 0.3846 0.72147 0.2836 0.0
H479 H 0.37972 0.73255 0.35337 0.0
H480 H 0.41044 0.71274 0.33751 0.0
H481 H 0.43662 0.87041 0.24109 0.0
H482 H 0.48151 0.90289 0.27481 0.0
H483 H 0.43703 0.87909 0.31348 0.0
C484 C 0.55141 0.31927 0.81336 0.0
C485 C 0.51861 0.32354 0.81256 0.0
C486 C 0.58882 0.35174 0.81712 0.0
C487 C 0.59343 0.38929 0.8188 0.0
C488 C 0.56029 0.39355 0.81796 0.0
C489 C 0.52341 0.3607 0.81528 0.0
C490 C 0.62331 0.34587 0.81894 0.0
C491 C 0.56375 0.43296 0.81871 0.0
C492 C 0.68139 0.47991 0.87203 0.0
C493 C 0.69871 0.49946 0.82273 0.0
C494 C 0.6488 0.44261 0.87147 0.0
C495 C 0.6326 0.42456 0.82044 0.0
C496 C 0.65135 0.44305 0.7707 0.0
C497 C 0.68434 0.48002 0.77248 0.0
C498 C 0.63024 0.42361 0.92552 0.0
C499 C 0.63506 0.42502 0.71532 0.0
H500 H 0.54775 0.29054 0.81128 0.0
H501 H 0.49819 0.36417 0.81362 0.0
H502 H 0.64141 0.35875 0.78171 0.0
H503 H 0.64157 0.36082 0.85529 0.0
H504 H 0.61469 0.31482 0.82095 0.0
H505 H 0.53515 0.43129 0.81743 0.0
H506 H 0.57916 0.4488 0.85649 0.0
H507 H 0.58101 0.45017 0.78278 0.0
H508 H 0.69192 0.49446 0.91118 0.0
H509 H 0.69807 0.4943 0.73418 0.0
H510 H 0.62253 0.39282 0.9256 0.0
H511 H 0.60311 0.42447 0.93109 0.0
H512 H 0.64945 0.43831 0.96124 0.0
H513 H 0.62845 0.39459 0.71448 0.0
H514 H 0.65519 0.44097 0.68093 0.0
H515 H 0.60754 0.42486 0.70809 0.0
C516 C 0.1172 0.14088 0.19331 0.0
C517 C 0.11842 0.14353 0.25098 0.0
C518 C 0.11543 0.10873 0.16721 0.0
C519 C 0.11575 0.07953 0.19987 0.0
C520 C 0.11108 0.0796 0.25778 0.0
C521 C 0.11255 0.1118 0.28271 0.0
C522 C 0.11745 0.10803 0.10517 0.0
C523 C 0.10966 0.04815 0.29405 0.0
C524 C 0.12248 0.9919 0.15943 0.0
C525 C 0.16226 0.00643 0.1667 0.0
C526 C 0.1067 0.01626 0.16411 0.0
C527 C 0.13136 0.0557 0.17702 0.0
C528 C 0.17196 0.07107 0.17836 0.0
C529 C 0.18686 0.04622 0.17269 0.0
C530 C 0.06348 0.99878 0.15979 0.0
C531 C 0.19958 0.11296 0.19205 0.0
H532 H 0.12129 0.16536 0.16873 0.0
H533 H 0.11274 0.11376 0.32734 0.0
H534 H 0.14748 0.11731 0.09224 0.0
H535 H 0.09856 0.07828 0.08949 0.0
H536 H 0.10871 0.12771 0.08579 0.0
H537 H 0.10214 0.05056 0.33741 0.0
H538 H 0.08809 0.01933 0.27808 0.0
H539 H 0.13829 0.04991 0.29378 0.0
H540 H 0.10333 0.96114 0.15416 0.0
H541 H 0.21771 0.05755 0.17691 0.0
H542 H 0.05478 0.02078 0.1524 0.0
H543 H 0.04977 0.9831 0.19858 0.0
H544 H 0.05201 0.97735 0.1258 0.0
H545 H 0.19336 0.13227 0.16664 0.0
H546 H 0.23023 0.12105 0.1854 0.0
H547 H 0.19595 0.11829 0.23597 0.0
C548 C 0.98928 0.1239 0.70328 0.0
C549 C 0.98696 0.12408 0.76094 0.0
C550 C 0.02084 0.12415 0.67751 0.0
C551 C 0.05054 0.12511 0.71052 0.0
C552 C 0.04549 0.1201 0.7684 0.0
C553 C 0.01364 0.11967 0.79295 0.0
C554 C 0.02428 0.12709 0.61552 0.0
C555 C 0.07612 0.12032 0.80522 0.0
C556 C 0.14456 0.13186 0.66694 0.0
C557 C 0.17002 0.17167 0.67354 0.0
C558 C 0.10453 0.11609 0.67381 0.0
C559 C 0.09006 0.14082 0.68782 0.0
C560 C 0.11536 0.18136 0.68925 0.0
C561 C 0.15499 0.19624 0.68167 0.0
C562 C 0.07808 0.07296 0.66941 0.0
C563 C 0.10129 0.20891 0.70442 0.0
H564 H 0.96836 0.12702 0.67855 0.0
H565 H 0.01137 0.1193 0.83756 0.0
H566 H 0.04955 0.15515 0.60342 0.0
H567 H 0.02928 0.10402 0.59936 0.0
H568 H 0.998 0.12451 0.5957 0.0
H569 H 0.0649 0.10935 0.84727 0.0
H570 H 0.08751 0.1025 0.78743 0.0
H571 H 0.10063 0.15033 0.80893 0.0
H572 H 0.15604 0.11271 0.66026 0.0
H573 H 0.17458 0.22706 0.68565 0.0
H574 H 0.05733 0.06658 0.63514 0.0
H575 H 0.0608 0.06131 0.70764 0.0
H576 H 0.09421 0.05746 0.66169 0.0
H577 H 0.07471 0.20213 0.68129 0.0
H578 H 0.12341 0.23948 0.69617 0.0
H579 H 0.09407 0.20586 0.74903 0.0
C580 C 0.96341 0.14355 0.18447 0.0
C581 C 1.00314 0.15864 0.17731 0.0
C582 C 0.93847 0.10379 0.19028 0.0
C583 C 0.95368 0.07845 0.18827 0.0
C584 C 0.99303 0.09312 0.17479 0.0
C585 C 0.01743 0.13321 0.16973 0.0
C586 C 0.89659 0.0895 0.20428 0.0
C587 C 0.01042 0.06732 0.17007 0.0
C588 C 0.89725 1.00176 0.29237 0.0
C589 C 0.86608 0.9758 0.25994 0.0
C590 C 0.92928 0.03328 0.2682 0.0
C591 C 0.92972 0.03877 0.21042 0.0
C592 C 0.90117 0.00938 0.177 0.0
C593 C 0.86926 0.9781 0.20231 0.0
C594 C 0.96018 0.06312 0.30516 0.0
C595 C 0.90231 0.0131 0.11504 0.0
H596 H 0.95215 0.16309 0.18888 0.0
H597 H 0.04811 0.14463 0.16367 0.0
H598 H 0.87722 0.06383 0.17928 0.0
H599 H 0.89144 0.08075 0.24834 0.0
H600 H 0.88844 0.11199 0.19735 0.0
H601 H 0.03158 0.07721 0.13567 0.0
H602 H 0.02637 0.06929 0.20857 0.0
H603 H 0.98835 0.03664 0.16305 0.0
H604 H 0.89496 0.99932 0.33694 0.0
H605 H 0.84526 0.95762 0.17719 0.0
H606 H 0.95755 0.08948 0.30594 0.0
H607 H 0.98929 0.07144 0.28905 0.0
H608 H 0.95787 0.05247 0.34816 0.0
H609 H 0.89462 0.03517 0.1028 0.0
H610 H 0.88179 0.98536 0.09482 0.0
H611 H 0.93195 0.0229 0.0996 0.0
C612 C 0.89926 0.02192 0.6867 0.0
C613 C 0.85898 0.00591 0.68474 0.0
C614 C 0.91562 0.99861 0.6972 0.0
C615 C 0.89091 0.95853 0.70547 0.0
C616 C 0.85057 0.94181 0.69656 0.0
C617 C 0.8351 0.96582 0.68656 0.0
C618 C 0.95888 0.01772 0.70405 0.0
C619 C 0.82316 0.89892 0.70312 0.0
C620 C 0.90916 0.87654 0.72846 0.0
C621 C 0.89936 0.86951 0.78442 0.0
C622 C 0.91218 0.90927 0.70241 0.0
C623 C 0.90491 0.93485 0.73339 0.0
C624 C 0.90121 0.93091 0.79149 0.0
C625 C 0.89801 0.89784 0.81637 0.0
C626 C 0.91843 0.9139 0.64092 0.0
C627 C 0.89561 0.95894 0.8264 0.0
H628 H 0.9179 0.05293 0.68437 0.0
H629 H 0.80403 0.95345 0.68367 0.0
H630 H 0.96732 0.03329 0.74402 0.0
H631 H 0.96952 0.99688 0.70306 0.0
H632 H 0.97361 0.03947 0.67095 0.0
H633 H 0.79338 0.89027 0.68932 0.0
H634 H 0.83345 0.88225 0.67909 0.0
H635 H 0.82193 0.8907 0.74716 0.0
H636 H 0.91036 0.85459 0.70392 0.0
H637 H 0.89112 0.89251 0.85992 0.0
H638 H 0.93768 0.94473 0.62999 0.0
H639 H 0.89032 0.90398 0.61994 0.0
H640 H 0.93115 0.89666 0.62501 0.0
H641 H 0.917 0.98912 0.81496 0.0
H642 H 0.89856 0.95485 0.87114 0.0
H643 H 0.86632 0.95473 0.819 0.0
C644 C 0.86887 0.82101 0.18446 0.0
C645 C 0.854 0.84595 0.17919 0.0
C646 C 0.90865 0.83549 0.18931 0.0
C647 C 0.9342 0.876 0.18829 0.0
C648 C 0.91965 0.9011 0.17684 0.0
C649 C 0.87954 0.88574 0.17275 0.0
C650 C 0.92278 0.80746 0.20116 0.0
C651 C 0.94567 0.94431 0.17326 0.0
C652 C 0.01161 0.89422 0.29011 0.0
C653 C 0.03728 0.88941 0.25644 0.0
C654 C 0.97995 0.89517 0.26728 0.0
C655 C 0.97404 0.89108 0.2095 0.0
C656 C 1.00305 0.89209 0.17495 0.0
C657 C 0.03445 0.89093 0.19897 0.0
C658 C 0.95036 0.89557 0.30558 0.0
C659 C 0.99882 0.89021 0.11305 0.0
H660 H 0.84916 0.79018 0.18808 0.0
H661 H 0.86822 0.90521 0.16829 0.0
H662 H 0.94775 0.81362 0.17454 0.0
H663 H 0.9326 0.81072 0.24468 0.0
H664 H 0.89988 0.77697 0.1946 0.0
H665 H 0.93466 0.95671 0.14186 0.0
H666 H 0.94572 0.95749 0.21352 0.0
H667 H 0.97583 0.95258 0.16266 0.0
H668 H 0.01443 0.89376 0.33457 0.0
H669 H 0.05464 0.8876 0.17292 0.0
H670 H 0.92396 0.8666 0.30595 0.0
H671 H 0.94194 0.91664 0.29098 0.0
H672 H 0.96129 0.90308 0.34853 0.0
H673 H 0.97831 0.86009 0.10042 0.0
H674 H 0.02691 0.89961 0.0922 0.0
H675 H 0.98695 0.90858 0.0987 0.0
C676 C 0.11193 0.04088 0.79312 0.0
C677 C 0.14798 0.05068 0.7708 0.0
C678 C 0.07846 0.00747 0.77527 0.0
C679 C 0.08207 0.9824 0.73758 0.0
C680 C 0.11804 0.9941 0.71181 0.0
C681 C 0.15038 0.02864 0.7279 0.0
C682 C 0.03997 0.99764 0.79996 0.0
C683 C 0.12363 0.96804 0.67242 0.0
C684 C 0.02755 0.87572 0.76828 0.0
C685 C 1.00501 0.86043 0.72057 0.0
C686 C 0.05169 0.91546 0.77505 0.0
C687 C 0.05185 0.94111 0.7346 0.0
C688 C 0.02711 0.92643 0.68842 0.0
C689 C 1.00464 0.88625 0.68121 0.0
C690 C 0.07814 0.92978 0.82473 0.0
C691 C 0.02436 0.95318 0.64688 0.0
H692 H 0.11018 0.05824 0.82603 0.0
H693 H 0.17846 0.03634 0.71092 0.0
H694 H 0.01583 0.9802 0.77114 0.0
H695 H 0.03518 0.98069 0.83834 0.0
H696 H 0.03928 0.02428 0.81086 0.0
H697 H 0.15327 0.98229 0.6549 0.0
H698 H 0.11848 0.94148 0.69438 0.0
H699 H 0.10266 0.95908 0.63796 0.0
H700 H 0.02666 0.85671 0.80082 0.0
H701 H 0.98727 0.87538 0.6443 0.0
H702 H 0.07089 0.94803 0.85075 0.0
H703 H 0.10864 0.94784 0.8113 0.0
H704 H 0.07593 0.90579 0.85063 0.0
H705 H 0.01221 0.96957 0.66736 0.0
H706 H 1.0057 0.93732 0.61123 0.0
H707 H 0.05337 0.97469 0.63126 0.0
C708 C 0.26258 0.29408 0.15171 0.0
C709 C 0.22525 0.28956 0.15139 0.0
C710 C 0.27611 0.28017 0.10821 0.0
C711 C 0.25168 0.25996 0.06294 0.0
C712 C 0.21378 0.25496 0.06263 0.0
C713 C 0.20133 0.2701 0.10605 0.0
C714 C 0.3168 0.28704 0.11092 0.0
C715 C 0.18585 0.23261 1.01696 0.0
C716 C 0.29671 0.24946 0.9265 0.0
C717 C 0.29363 0.21292 0.93197 0.0
C718 C 0.28338 0.26497 0.96828 0.0
C719 C 0.26552 0.24344 1.01702 0.0
C720 C 0.26167 0.20623 1.02217 0.0
C721 C 0.27599 0.1918 0.98042 0.0
C722 C 0.28886 0.30484 0.96047 0.0
C723 C 0.24234 0.18142 0.07212 0.0
H724 H 0.28156 0.30888 0.18616 0.0
H725 H 0.17226 0.26564 0.10522 0.0
H726 H 0.31613 0.25901 0.11367 0.0
H727 H 0.3327 0.30163 0.07268 0.0
H728 H 0.33305 0.30498 0.14693 0.0
H729 H 0.15781 0.23184 1.02153 0.0
H730 H 0.19855 0.24557 0.97636 0.0
H731 H 0.18031 0.2025 1.01673 0.0
H732 H 0.3101 0.26632 0.8897 0.0
H733 H 0.27286 0.16344 0.98558 0.0
H734 H 0.30643 0.32381 0.99484 0.0
H735 H 0.26045 0.30349 0.96157 0.0
H736 H 0.30337 0.31819 0.92084 0.0
H737 H 0.26051 0.19472 0.10915 0.0
H738 H 0.23756 0.1517 0.06758 0.0
H739 H 0.21408 0.17957 0.07971 0.0
C740 C 0.97588 0.26056 0.65719 0.0
C741 C 0.94359 0.22296 0.65799 0.0
C742 C 1.00358 0.27366 0.61384 0.0
C743 C 1.00017 0.24849 0.57007 0.0
C744 C 0.968 0.21023 0.57126 0.0
C745 C 0.94012 0.19824 0.61428 0.0
C746 C 0.03667 0.31472 0.61495 0.0
C747 C 0.96343 0.18147 0.52754 0.0
C748 C 0.05311 0.29012 0.43082 0.0
C749 C 0.08729 0.28826 0.43616 0.0
C750 C 0.02506 0.27772 0.47367 0.0
C751 C 0.03023 0.26202 0.52359 0.0
C752 C 0.06441 0.25953 0.52886 0.0
C753 C 0.09241 0.27297 0.4859 0.0
C754 C 0.9898 0.28177 0.46558 0.0
C755 C 0.07165 0.24271 0.58021 0.0
H756 H 0.97935 0.28012 0.69043 0.0
H757 H 0.91602 0.16895 0.61439 0.0
H758 H 0.06444 0.3149 0.61853 0.0
H759 H 0.03756 0.32955 0.57575 0.0
H760 H 0.03443 0.33145 0.64985 0.0
H761 H 0.9374 0.15272 0.5343 0.0
H762 H 0.96133 0.19229 0.48624 0.0
H763 H 0.98929 0.17796 0.52717 0.0
H764 H 0.04839 0.30179 0.39311 0.0
H765 H 0.1183 0.27097 0.49116 0.0
H766 H 0.98802 0.29965 0.49913 0.0
H767 H 0.96331 0.25298 0.46791 0.0
H768 H 0.99011 0.29523 0.4253 0.0
H769 H 0.07966 0.26358 0.6146 0.0
H770 H 0.09538 0.23618 0.57444 0.0
H771 H 0.04513 0.21584 0.59275 0.0
C772 C 0.74531 0.93341 0.11271 0.0
C773 C 0.72363 0.93651 0.15618 0.0
C774 C 0.76122 0.96146 0.06979 0.0
C775 C 0.75473 0.9934 0.06854 0.0
C776 C 0.73246 0.99635 0.11203 0.0
C777 C 0.71784 0.96851 0.15522 0.0
C778 C 0.78588 0.95735 1.0263 0.0
C779 C 0.72397 0.0291 0.11303 0.0
C780 C 0.8222 0.08667 0.98602 0.0
C781 C 0.80203 0.08188 0.93617 0.0
C782 C 0.80773 0.05817 1.02838 0.0
C783 C 0.77137 0.02377 1.02239 0.0
C784 C 0.75076 0.01888 0.97232 0.0
C785 C 0.76634 0.04745 0.93005 0.0
C786 C 0.83156 0.06506 0.07985 0.0
C787 C 0.71179 0.98341 0.96349 0.0
H788 H 0.75084 0.90951 0.11299 0.0
H789 H 0.70137 0.97165 0.18826 0.0
H790 H 0.77366 0.95614 0.98475 0.0
H791 H 0.81536 0.98301 1.02707 0.0
H792 H 0.78823 0.93106 0.03246 0.0
H793 H 0.70477 0.02657 0.14782 0.0
H794 H 0.75135 0.05702 0.11669 0.0
H795 H 0.71006 0.02987 0.07375 0.0
H796 H 0.84986 0.11271 0.99181 0.0
H797 H 0.75016 0.04296 0.89222 0.0
H798 H 0.83322 0.03894 0.09064 0.0
H799 H 0.81758 0.07106 0.11494 0.0
H800 H 0.86139 0.08985 0.07523 0.0
H801 H 0.71448 0.95714 0.96577 0.0
H802 H 0.69893 0.98382 0.92302 0.0
H803 H 0.69166 0.98112 0.99673 0.0
C804 C 0.75234 0.71608 0.66146 0.0
C805 C 0.78829 0.71757 0.65836 0.0
C806 C 0.73867 0.73042 0.6184 0.0
C807 C 0.76174 0.74819 0.57086 0.0
C808 C 0.79827 0.75015 0.56779 0.0
C809 C 0.81067 0.73442 0.61063 0.0
C810 C 0.6992 0.72639 0.62381 0.0
C811 C 0.82482 0.76968 0.51951 0.0
C812 C 0.71569 0.75803 0.43481 0.0
C813 C 0.7213 0.7957 0.43772 0.0
C814 C 0.72802 0.74223 0.47764 0.0
C815 C 0.74779 0.76468 0.52475 0.0
C816 C 0.75409 0.80298 0.52748 0.0
C817 C 0.74041 0.81764 0.48483 0.0
C818 C 0.71946 0.7011 0.47263 0.0
C819 C 0.77588 0.82887 0.57535 0.0
H820 H 0.7345 0.70327 0.69766 0.0
H821 H 0.83857 0.73628 0.60724 0.0
H822 H 0.70192 0.75537 0.62519 0.0
H823 H 0.68133 0.71123 0.58722 0.0
H824 H 0.6838 0.71018 0.66152 0.0
H825 H 0.85268 0.77 0.52355 0.0
H826 H 0.81062 0.75471 0.48065 0.0
H827 H 0.83093 0.7999 0.51586 0.0
H828 H 0.70098 0.74047 0.39915 0.0
H829 H 0.74547 0.84685 0.48793 0.0
H830 H 0.70295 0.68419 0.50923 0.0
H831 H 0.74685 0.70038 0.47163 0.0
H832 H 0.7026 0.68675 0.43489 0.0
H833 H 0.76029 0.81604 0.61446 0.0
H834 H 0.77973 0.85825 0.57093 0.0
H835 H 0.8048 0.83149 0.57893 0.0
C836 C 0.92897 0.73441 0.98555 0.0
C837 C 0.93294 0.71838 0.9359 0.0
C838 C 0.95811 0.74883 1.02694 0.0
C839 C 0.99236 0.74669 1.0201 0.0
C840 C 0.99639 0.73022 0.97029 0.0
C841 C 0.96716 0.71681 0.92901 0.0
C842 C 0.9522 0.76661 0.07818 0.0
C843 C 0.03169 0.72655 0.96062 0.0
C844 C 0.08429 0.8128 0.10597 0.0
C845 C 0.08219 0.78892 0.15026 0.0
C846 C 0.05547 0.79975 0.06414 0.0
C847 C 0.02363 0.76129 0.06492 0.0
C848 C 0.02169 0.73691 0.10916 0.0
C849 C 0.05036 0.75103 0.15119 0.0
C850 C 0.05867 0.82762 1.01961 0.0
C851 C 0.9891 0.69565 0.11222 0.0
H852 H 0.90313 0.73633 0.99185 0.0
H853 H 0.97105 0.70468 0.89127 0.0
H854 H 0.94875 0.7482 0.11446 0.0
H855 H 0.97789 0.79536 0.08591 0.0
H856 H 0.92629 0.76999 0.07519 0.0
H857 H 0.03046 0.71246 0.92063 0.0
H858 H 0.05801 0.75553 0.96115 0.0
H859 H 0.03469 0.70942 0.99438 0.0
H860 H 0.108 0.84228 0.10474 0.0
H861 H 0.04793 0.73208 0.1849 0.0
H862 H 0.03301 0.83145 1.02098 0.0
H863 H 0.05904 0.81582 0.9784 0.0
H864 H 0.08508 0.85638 1.02407 0.0
H865 H 0.96114 0.69499 0.11657 0.0
H866 H 0.99238 0.67969 0.14745 0.0
H867 H 0.98773 0.68032 0.07344 0.0
C868 C 0.29793 0.03979 0.65404 0.0
C869 C 0.2954 0.07366 0.65121 0.0
C870 C 0.28397 0.01193 0.6111 0.0
C871 C 0.26563 0.01683 0.56393 0.0
C872 C 0.26265 0.05085 0.56108 0.0
C873 C 0.27792 0.07884 0.60396 0.0
C874 C 0.28883 0.97699 0.61639 0.0
C875 C 0.24248 0.05734 0.51311 0.0
C876 C 0.25646 0.96061 0.42909 0.0
C877 C 0.21917 0.92799 0.43297 0.0
C878 C 0.27188 0.9892 0.47109 0.0
C879 C 0.2494 0.98631 0.51826 0.0
C880 C 0.21152 0.95368 0.52195 0.0
C881 C 0.19721 0.925 0.48007 0.0
C882 C 0.31263 0.02246 0.46518 0.0
C883 C 0.18549 0.94951 0.56961 0.0
H884 H 0.31124 0.0351 0.69 0.0
H885 H 0.27508 0.10437 0.60118 0.0
H886 H 0.26007 0.95041 0.61807 0.0
H887 H 0.30408 0.97467 0.57963 0.0
H888 H 0.30534 0.97808 0.65391 0.0
H889 H 0.24207 0.08482 0.51679 0.0
H890 H 0.257 0.05781 0.47392 0.0
H891 H 0.21225 0.03311 0.51044 0.0
H892 H 0.27399 0.96359 0.39331 0.0
H893 H 0.16823 0.90047 0.48372 0.0
H894 H 0.33011 0.02338 0.50138 0.0
H895 H 0.31255 0.05016 0.46426 0.0
H896 H 0.3269 0.02033 0.42711 0.0
H897 H 0.20017 0.9518 0.60945 0.0
H898 H 0.1578 0.92164 0.56871 0.0
H899 H 0.17896 0.9734 0.56806 0.0
C900 C 0.67916 0.64583 0.93925 0.0
C901 C 0.7177 0.66944 0.95558 0.0
C902 C 0.64885 0.64279 0.9718 0.0
C903 C 0.65774 0.66501 1.02045 0.0
C904 C 0.69678 0.68707 0.03859 0.0
C905 C 0.72617 0.68845 1.00608 0.0
C906 C 0.6079 0.61707 0.95229 0.0
C907 C 0.70829 0.71147 0.09035 0.0
C908 C 0.62329 0.72631 0.07448 0.0
C909 C 0.62344 0.71638 0.12984 0.0
C910 C 0.62574 0.70344 0.03303 0.0
C911 C 0.62826 0.67068 0.04867 0.0
C912 C 0.61684 0.65522 0.10218 0.0
C913 C 0.61534 0.67893 0.14328 0.0
C914 C 0.63379 0.71866 0.9747 0.0
C915 C 0.61426 0.61758 0.11812 0.0
H916 H 0.67266 0.63021 0.90058 0.0
H917 H 0.75604 0.70628 1.01874 0.0
H918 H 0.58609 0.6117 0.98455 0.0
H919 H 0.60233 0.6305 0.91592 0.0
H920 H 0.60405 0.58887 0.93854 0.0
H921 H 0.73998 0.72674 0.09776 0.0
H922 H 0.69939 0.7336 0.08718 0.0
H923 H 0.69398 0.69317 0.1269 0.0
H924 H 0.62706 0.75435 0.06382 0.0
H925 H 0.61284 0.6701 0.18611 0.0
H926 H 0.61826 0.69475 0.94495 0.0
H927 H 0.66523 0.73227 0.96618 0.0
H928 H 0.62491 0.74061 0.96778 0.0
H929 H 0.60485 0.59741 0.08257 0.0
H930 H 0.59381 0.60379 0.15296 0.0
H931 H 0.64314 0.62307 0.13162 0.0
C932 C 0.04279 0.72389 0.49722 0.0
C933 C 0.05263 0.71462 0.44675 0.0
C934 C 0.01425 0.69529 0.53009 0.0
C935 C 0.99585 0.65615 0.51236 0.0
C936 C 1.00813 0.6463 0.46349 0.0
C937 C 0.03608 0.6759 0.43058 0.0
C938 C 1.00255 0.70777 0.58209 0.0
C939 C 0.99125 0.60511 0.44431 0.0
C940 C 0.94105 0.61558 0.63714 0.0
C941 C 0.91194 0.62429 0.62493 0.0
C942 C 0.96531 0.61622 0.5951 0.0
C943 C 0.96077 0.62765 0.54182 0.0
C944 C 0.92576 0.62623 0.52758 0.0
C945 C 0.90131 0.62453 0.56997 0.0
C946 C 1.00003 0.61263 0.6097 0.0
C947 C 0.91812 0.63453 0.46964 0.0
H948 H 0.05607 0.75387 0.50979 0.0
H949 H 0.04458 0.66871 0.39191 0.0
H950 H 0.97166 0.69957 0.57991 0.0
H951 H 1.00665 0.69349 0.61863 0.0
H952 H 0.0197 0.73947 0.5888 0.0
H953 H 0.01469 0.60005 0.42971 0.0
H954 H 0.97468 0.58371 0.47701 0.0
H955 H 0.97191 0.60012 0.40858 0.0
H956 H 0.94777 0.61288 0.67971 0.0
H957 H 0.87731 0.62899 0.56033 0.0
H958 H 0.02414 0.64128 0.62235 0.0
H959 H 0.00974 0.60251 0.57375 0.0
H960 H 0.99345 0.59232 0.64476 0.0
H961 H 0.93642 0.66588 0.46089 0.0
H962 H 0.88738 0.62638 0.46376 0.0
H963 H 0.9256 0.61858 0.43936 0.0
C964 C 0.30366 0.01129 0.96721 0.0
C965 C 0.33491 0.04244 0.94202 0.0
C966 C 0.30966 0.98825 1.00457 0.0
C967 C 0.34803 0.99579 1.01447 0.0
C968 C 0.3793 0.02514 0.98449 0.0
C969 C 0.37243 0.04896 0.94953 0.0
C970 C 0.27495 0.95786 0.03596 0.0
C971 C 0.42014 0.03275 0.99012 0.0
C972 C 0.33903 0.97147 0.15917 0.0
C973 C 0.31497 0.93171 0.15155 0.0
C974 C 0.35913 0.99476 0.11422 0.0
C975 C 0.35481 0.97702 0.06227 0.0
C976 C 0.34067 0.93692 0.0596 0.0
C977 C 0.31952 0.91408 0.10449 0.0
C978 C 0.37791 0.038 0.11993 0.0
C979 C 0.34098 0.91786 1.00627 0.0
H980 H 0.27476 0.00655 0.96035 0.0
H981 H 0.39643 0.07282 0.92834 0.0
H982 H 0.27115 0.92885 1.02838 0.0
H983 H 0.27904 0.96374 0.08085 0.0
H984 H 0.24769 0.95698 1.02381 0.0
H985 H 0.43276 0.03508 0.94852 0.0
H986 H 0.43816 0.06099 1.01075 0.0
H987 H 0.42207 0.00994 1.01365 0.0
H988 H 0.33742 0.98496 0.19705 0.0
H989 H 0.30282 0.88296 0.09995 0.0
H990 H 0.3593 0.04807 0.1005 0.0
H991 H 0.40622 0.05239 0.09859 0.0
H992 H 0.38248 0.04715 0.16383 0.0
H993 H 0.31437 0.91034 0.98253 0.0
H994 H 0.34152 0.89077 1.01432 0.0
H995 H 0.36635 0.93757 0.98067 0.0
C996 C 0.40607 0.32847 0.63241 0.0
C997 C 0.4008 0.29159 0.62285 0.0
C998 C 0.40241 0.34929 0.58867 0.0
C999 C 0.39231 0.33167 0.53628 0.0
C1000 C 0.398 0.30025 0.5246 0.0
C1001 C 0.40235 0.28022 0.56878 0.0
C1002 C 0.40092 0.38544 0.60077 0.0
C1003 C 0.39084 0.28268 0.46782 0.0
C1004 C 0.29284 0.3086 0.49106 0.0
C1005 C 0.30095 0.33016 0.44271 0.0
C1006 C 0.32258 0.30972 0.52252 0.0
C1007 C 0.36159 0.3338 0.50541 0.0
C1008 C 0.37002 0.35702 0.45773 0.0
C1009 C 0.3394 0.35472 0.42658 0.0
C1010 C 0.31172 0.28406 0.5731 0.0
C1011 C 0.41097 0.38469 0.43975 0.0
H1012 H 0.40743 0.33853 0.67431 0.0
H1013 H 0.40065 0.2527 0.56114 0.0
H1014 H 0.41017 0.40488 0.5643 0.0
H1015 H 0.37078 0.37756 0.61108 0.0
H1016 H 0.41959 0.40112 0.63653 0.0
H1017 H 0.40533 0.26534 0.4625 0.0
H1018 H 0.35929 0.26327 0.46195 0.0
H1019 H 0.40121 0.30531 0.43541 0.0
H1020 H 0.26304 0.2898 0.50338 0.0
H1021 H 0.34555 0.37214 0.38959 0.0
H1022 H 0.32475 0.30178 0.6105 0.0
H1023 H 0.32259 0.26352 0.56918 0.0
H1024 H 0.27996 0.26693 0.57958 0.0
H1025 H 0.42087 0.4129 0.46022 0.0
H1026 H 0.41265 0.3896 0.39446 0.0
H1027 H 0.43127 0.37453 0.45134 0.0
C1028 C 0.07617 0.39762 0.14365 0.0
C1029 C 0.10605 0.39034 0.13016 0.0
C1030 C 0.05086 0.39604 0.10246 0.0
C1031 C 0.0554 0.38542 0.04876 0.0
C1032 C 0.0911 0.38884 0.03328 0.0
C1033 C 0.11649 0.39134 0.07485 0.0
C1034 C 0.01524 0.39759 0.11843 0.0
C1035 C 0.09871 0.38162 0.97485 0.0
C1036 C 0.97623 0.2876 1.00431 0.0
C1037 C 0.96521 0.29642 0.95432 0.0
C1038 C 1.00415 0.31676 0.03713 0.0
C1039 C 0.02059 0.35594 1.01988 0.0
C1040 C 1.0069 0.36513 0.9717 0.0
C1041 C 0.9797 0.33505 0.9388 0.0
C1042 C 0.01747 0.30495 0.08834 0.0
C1043 C 0.02163 0.40619 0.95309 0.0
H1044 H 0.06951 0.39944 0.18651 0.0
H1045 H 0.14111 0.38816 0.0642 0.0
H1046 H 1.00428 0.40709 0.0831 0.0
H1047 H 0.99222 0.36836 0.13124 0.0
H1048 H 0.02135 0.41749 0.15374 0.0
H1049 H 0.12976 0.39134 0.96807 0.0
H1050 H 0.08161 0.35022 0.96592 0.0
H1051 H 0.08975 0.39686 0.9453 0.0
H1052 H 0.96455 0.25765 1.01635 0.0
H1053 H 0.97026 0.34182 0.90051 0.0
H1054 H 0.01321 0.31857 0.12538 0.0
H1055 H 0.04863 0.31438 0.08502 0.0
H1056 H 1.00152 0.27319 0.09503 0.0
H1057 H 0.0377 0.42767 0.98584 0.0
H1058 H 0.99708 0.40981 0.93934 0.0
H1059 H 0.04088 0.41246 0.9169 0.0
C1060 C 0.73661 0.11463 0.57051 0.0
C1061 C 0.72561 0.10475 0.62559 0.0
C1062 C 0.71378 0.08976 0.52855 0.0
C1063 C 0.67995 0.05514 0.54335 0.0
C1064 C 0.66396 0.0515 0.59636 0.0
C1065 C 0.68762 0.07619 0.63798 0.0
C1066 C 0.72985 0.09648 0.47077 0.0
C1067 C 0.62547 0.01723 0.61141 0.0
C1068 C 0.65232 0.9789 0.4339 0.0
C1069 C 0.6743 0.96224 0.45085 0.0
C1070 C 0.65081 0.00714 0.46608 0.0
C1071 C 0.67292 0.01961 0.515 0.0
C1072 C 0.69334 1.001 0.53369 0.0
C1073 C 0.69322 0.97213 0.50153 0.0
C1074 C 0.62681 0.02422 0.44596 0.0
C1075 C 0.71748 0.01294 0.5858 0.0
H1076 H 0.76523 0.13821 0.56064 0.0
H1077 H 0.67814 0.07006 0.68056 0.0
H1078 H 0.74268 0.07785 0.46329 0.0
H1079 H 0.70653 0.08882 0.44011 0.0
H1080 H 0.75265 0.12704 0.46419 0.0
H1081 H 0.61185 0.02443 0.64584 0.0
H1082 H 0.60566 0.00724 0.57537 0.0
H1083 H 0.62974 0.99312 0.62515 0.0
H1084 H 0.63679 0.97037 0.39505 0.0
H1085 H 0.70979 0.95878 0.51467 0.0
H1086 H 0.64139 0.04336 0.41013 0.0
H1087 H 0.62199 0.04103 0.47818 0.0
H1088 H 0.59828 1.00089 0.43124 0.0
H1089 H 0.74052 0.04365 0.58296 0.0
H1090 H 0.7316 0.99545 0.59349 0.0
H1091 H 0.69919 0.00961 0.62205 0.0
loop_
_geom_bond_atom_site_label_1
_geom_bond_atom_site_label_2
_geom_bond_distance
_geom_bond_site_symmetry_2
_ccdc_geom_bond_type
Cd0 N3 2.334 . S
Cd0 N29 2.304 . S
Cd0 O36 2.268 . S
Cd0 O39 2.273 . S
Cd0 O40 2.417 . S
Cd0 O41 2.330 . S
Cd1 N16 2.304 . S
Cd1 N20 2.334 . S
Cd1 O37 2.273 . S
Cd1 O38 2.268 . S
Cd1 O42 2.417 . S
Cd1 O43 2.330 . S
C2 N3 1.332 . S
C2 C6 1.381 . S
C2 H8 0.931 . S
N3 Cd0 2.334 . S
N3 C2 1.332 . S
N3 C7 1.328 . S
C4 C5 1.396 . S
C4 C7 1.378 . S
C4 H46 0.931 . S
C5 C4 1.396 . S
C5 C6 1.382 . S
C6 C2 1.381 . S
C6 C5 1.382 . S
C6 H47 0.930 . S
C7 N3 1.328 . S
C7 C4 1.378 . S
C7 H9 0.930 . S
H8 C2 0.931 . S
H9 C7 0.930 . S
C10 O36 1.238 . S
C10 O37 1.253 . S
C11 C12 1.379 . S
C11 N16 1.337 . S
C11 H17 0.929 . S
C12 C11 1.379 . S
C12 C13 1.380 . S
C12 H48 0.929 . S
C13 C12 1.380 . S
C13 C14 1.399 . S
C14 C13 1.399 . S
C14 C15 1.376 . S
C14 H49 0.931 . S
C15 C14 1.376 . S
C15 N16 1.338 . S
C15 H18 0.930 . S
N16 Cd1 2.304 . S
N16 C11 1.337 . S
N16 C15 1.338 . S
H17 C11 0.929 . S
H18 C15 0.930 . S
C19 N20 1.332 . S
C19 C23 1.381 . S
C19 H25 0.931 . S
N20 Cd1 2.334 . S
N20 C19 1.332 . S
N20 C24 1.328 . S
C21 C22 1.396 . S
C21 C24 1.378 . S
C21 H50 0.931 . S
C22 C21 1.396 . S
C22 C23 1.382 . S
C23 C19 1.381 . S
C23 C22 1.382 . S
C23 H51 0.930 . S
C24 N20 1.328 . S
C24 C21 1.378 . S
C24 H26 0.930 . S
H25 C19 0.931 . S
H26 C24 0.930 . S
C27 O38 1.238 . S
C27 O39 1.253 . S
C28 O40 1.239 . S
C28 O41 1.230 . S
N29 Cd0 2.304 . S
N29 C30 1.337 . S
N29 C34 1.338 . S
C30 N29 1.337 . S
C30 C31 1.379 . S
C30 H44 0.929 . S
C31 C30 1.379 . S
C31 C32 1.380 . S
C31 H52 0.929 . S
C32 C31 1.380 . S
C32 C33 1.399 . S
C33 C32 1.399 . S
C33 C34 1.376 . S
C33 H53 0.931 . S
C34 N29 1.338 . S
C34 C33 1.376 . S
C34 H45 0.930 . S
C35 O42 1.239 . S
C35 O43 1.230 . S
O36 Cd0 2.268 . S
O36 C10 1.238 . S
O37 Cd1 2.273 . S
O37 C10 1.253 . S
O38 Cd1 2.268 . S
O38 C27 1.238 . S
O39 Cd0 2.273 . S
O39 C27 1.253 . S
O40 Cd0 2.417 . S
O40 C28 1.239 . S
O41 Cd0 2.330 . S
O41 C28 1.230 . S
O42 Cd1 2.417 . S
O42 C35 1.239 . S
O43 Cd1 2.330 . S
O43 C35 1.230 . S
H44 C30 0.929 . S
H45 C34 0.930 . S
H46 C4 0.931 . S
H47 C6 0.930 . S
H48 C12 0.929 . S
H49 C14 0.931 . S
H50 C21 0.931 . S
H51 C23 0.930 . S
H52 C31 0.929 . S
H53 C33 0.931 . S
Cd54 N57 2.334 . S
Cd54 N83 2.304 . S
Cd54 O90 2.268 . S
Cd54 O93 2.273 . S
Cd54 O94 2.417 . S
Cd54 O95 2.330 . S
Cd55 N70 2.304 . S
Cd55 N74 2.334 . S
Cd55 O91 2.273 . S
Cd55 O92 2.268 . S
Cd55 O96 2.417 . S
Cd55 O97 2.330 . S
C56 N57 1.332 . S
C56 C60 1.381 . S
C56 H62 0.931 . S
N57 Cd54 2.334 . S
N57 C56 1.332 . S
N57 C61 1.328 . S
C58 C59 1.396 . S
C58 C61 1.378 . S
C58 H100 0.931 . S
C59 C58 1.396 . S
C59 C60 1.382 . S
C60 C56 1.381 . S
C60 C59 1.382 . S
C60 H101 0.930 . S
C61 N57 1.328 . S
C61 C58 1.378 . S
C61 H63 0.930 . S
H62 C56 0.931 . S
H63 C61 0.930 . S
C64 O90 1.238 . S
C64 O91 1.253 . S
C65 C66 1.379 . S
C65 N70 1.337 . S
C65 H71 0.929 . S
C66 C65 1.379 . S
C66 C67 1.380 . S
C66 H102 0.929 . S
C67 C66 1.380 . S
C67 C68 1.399 . S
C68 C67 1.399 . S
C68 C69 1.376 . S
C68 H103 0.931 . S
C69 C68 1.376 . S
C69 N70 1.338 . S
C69 H72 0.930 . S
N70 Cd55 2.304 . S
N70 C65 1.337 . S
N70 C69 1.338 . S
H71 C65 0.929 . S
H72 C69 0.930 . S
C73 N74 1.332 . S
C73 C77 1.381 . S
C73 H79 0.931 . S
N74 Cd55 2.334 . S
N74 C73 1.332 . S
N74 C78 1.328 . S
C75 C76 1.396 . S
C75 C78 1.378 . S
C75 H104 0.931 . S
C76 C75 1.396 . S
C76 C77 1.382 . S
C77 C73 1.381 . S
C77 C76 1.382 . S
C77 H105 0.930 . S
C78 N74 1.328 . S
C78 C75 1.378 . S
C78 H80 0.930 . S
H79 C73 0.931 . S
H80 C78 0.930 . S
C81 O92 1.238 . S
C81 O93 1.253 . S
C82 O94 1.239 . S
C82 O95 1.230 . S
N83 Cd54 2.304 . S
N83 C84 1.337 . S
N83 C88 1.338 . S
C84 N83 1.337 . S
C84 C85 1.379 . S
C84 H98 0.929 . S
C85 C84 1.379 . S
C85 C86 1.380 . S
C85 H106 0.929 . S
C86 C85 1.380 . S
C86 C87 1.399 . S
C87 C86 1.399 . S
C87 C88 1.376 . S
C87 H107 0.931 . S
C88 N83 1.338 . S
C88 C87 1.376 . S
C88 H99 0.930 . S
C89 O96 1.239 . S
C89 O97 1.230 . S
O90 Cd54 2.268 . S
O90 C64 1.238 . S
O91 Cd55 2.273 . S
O91 C64 1.253 . S
O92 Cd55 2.268 . S
O92 C81 1.238 . S
O93 Cd54 2.273 . S
O93 C81 1.253 . S
O94 Cd54 2.417 . S
O94 C82 1.239 . S
O95 Cd54 2.330 . S
O95 C82 1.230 . S
O96 Cd55 2.417 . S
O96 C89 1.239 . S
O97 Cd55 2.330 . S
O97 C89 1.230 . S
H98 C84 0.929 . S
H99 C88 0.930 . S
H100 C58 0.931 . S
H101 C60 0.930 . S
H102 C66 0.929 . S
H103 C68 0.931 . S
H104 C75 0.931 . S
H105 C77 0.930 . S
H106 C85 0.929 . S
H107 C87 0.931 . S
Cd108 N111 2.334 . S
Cd108 N137 2.304 . S
Cd108 O144 2.268 . S
Cd108 O147 2.273 . S
Cd108 O148 2.417 . S
Cd108 O149 2.330 . S
Cd109 N124 2.304 . S
Cd109 N128 2.334 . S
Cd109 O145 2.273 . S
Cd109 O146 2.268 . S
Cd109 O150 2.417 . S
Cd109 O151 2.330 . S
C110 N111 1.332 . S
C110 C114 1.381 . S
C110 H116 0.931 . S
N111 Cd108 2.334 . S
N111 C110 1.332 . S
N111 C115 1.328 . S
C112 C113 1.396 . S
C112 C115 1.378 . S
C112 H154 0.931 . S
C113 C112 1.396 . S
C113 C114 1.382 . S
C114 C110 1.381 . S
C114 C113 1.382 . S
C114 H155 0.930 . S
C115 N111 1.328 . S
C115 C112 1.378 . S
C115 H117 0.930 . S
H116 C110 0.931 . S
H117 C115 0.930 . S
C118 O144 1.238 . S
C118 O145 1.253 . S
C119 C120 1.379 . S
C119 N124 1.337 . S
C119 H125 0.929 . S
C120 C119 1.379 . S
C120 C121 1.380 . S
C120 H156 0.929 . S
C121 C120 1.380 . S
C121 C122 1.399 . S
C122 C121 1.399 . S
C122 C123 1.376 . S
C122 H157 0.931 . S
C123 C122 1.376 . S
C123 N124 1.338 . S
C123 H126 0.930 . S
N124 Cd109 2.304 . S
N124 C119 1.337 . S
N124 C123 1.338 . S
H125 C119 0.929 . S
H126 C123 0.930 . S
C127 N128 1.332 . S
C127 C131 1.381 . S
C127 H133 0.931 . S
N128 Cd109 2.334 . S
N128 C127 1.332 . S
N128 C132 1.328 . S
C129 C130 1.396 . S
C129 C132 1.378 . S
C129 H158 0.931 . S
C130 C129 1.396 . S
C130 C131 1.382 . S
C131 C127 1.381 . S
C131 C130 1.382 . S
C131 H159 0.930 . S
C132 N128 1.328 . S
C132 C129 1.378 . S
C132 H134 0.930 . S
H133 C127 0.931 . S
H134 C132 0.930 . S
C135 O146 1.238 . S
C135 O147 1.253 . S
C136 O148 1.239 . S
C136 O149 1.230 . S
N137 Cd108 2.304 . S
N137 C138 1.337 . S
N137 C142 1.338 . S
C138 N137 1.337 . S
C138 C139 1.379 . S
C138 H152 0.929 . S
C139 C138 1.379 . S
C139 C140 1.380 . S
C139 H160 0.929 . S
C140 C139 1.380 . S
C140 C141 1.399 . S
C141 C140 1.399 . S
C141 C142 1.376 . S
C141 H161 0.931 . S
C142 N137 1.338 . S
C142 C141 1.376 . S
C142 H153 0.930 . S
C143 O150 1.239 . S
C143 O151 1.230 . S
O144 Cd108 2.268 . S
O144 C118 1.238 . S
O145 Cd109 2.273 . S
O145 C118 1.253 . S
O146 Cd109 2.268 . S
O146 C135 1.238 . S
O147 Cd108 2.273 . S
O147 C135 1.253 . S
O148 Cd108 2.417 . S
O148 C136 1.239 . S
O149 Cd108 2.330 . S
O149 C136 1.230 . S
O150 Cd109 2.417 . S
O150 C143 1.239 . S
O151 Cd109 2.330 . S
O151 C143 1.230 . S
H152 C138 0.929 . S
H153 C142 0.930 . S
H154 C112 0.931 . S
H155 C114 0.930 . S
H156 C120 0.929 . S
H157 C122 0.931 . S
H158 C129 0.931 . S
H159 C131 0.930 . S
H160 C139 0.929 . S
H161 C141 0.931 . S
Cd162 N165 2.334 . S
Cd162 N191 2.304 . S
Cd162 O198 2.268 . S
Cd162 O201 2.273 . S
Cd162 O202 2.417 . S
Cd162 O203 2.330 . S
Cd163 N178 2.304 . S
Cd163 N182 2.334 . S
Cd163 O199 2.273 . S
Cd163 O200 2.268 . S
Cd163 O204 2.417 . S
Cd163 O205 2.330 . S
C164 N165 1.332 . S
C164 C168 1.381 . S
C164 H170 0.931 . S
N165 Cd162 2.334 . S
N165 C164 1.332 . S
N165 C169 1.328 . S
C166 C167 1.396 . S
C166 C169 1.378 . S
C166 H208 0.931 . S
C167 C166 1.396 . S
C167 C168 1.382 . S
C168 C164 1.381 . S
C168 C167 1.382 . S
C168 H209 0.930 . S
C169 N165 1.328 . S
C169 C166 1.378 . S
C169 H171 0.930 . S
H170 C164 0.931 . S
H171 C169 0.930 . S
C172 O198 1.238 . S
C172 O199 1.253 . S
C173 C174 1.379 . S
C173 N178 1.337 . S
C173 H179 0.929 . S
C174 C173 1.379 . S
C174 C175 1.380 . S
C174 H210 0.929 . S
C175 C174 1.380 . S
C175 C176 1.399 . S
C176 C175 1.399 . S
C176 C177 1.376 . S
C176 H211 0.931 . S
C177 C176 1.376 . S
C177 N178 1.338 . S
C177 H180 0.930 . S
N178 Cd163 2.304 . S
N178 C173 1.337 . S
N178 C177 1.338 . S
H179 C173 0.929 . S
H180 C177 0.930 . S
C181 N182 1.332 . S
C181 C185 1.381 . S
C181 H187 0.931 . S
N182 Cd163 2.334 . S
N182 C181 1.332 . S
N182 C186 1.328 . S
C183 C184 1.396 . S
C183 C186 1.378 . S
C183 H212 0.931 . S
C184 C183 1.396 . S
C184 C185 1.382 . S
C185 C181 1.381 . S
C185 C184 1.382 . S
C185 H213 0.930 . S
C186 N182 1.328 . S
C186 C183 1.378 . S
C186 H188 0.930 . S
H187 C181 0.931 . S
H188 C186 0.930 . S
C189 O200 1.238 . S
C189 O201 1.253 . S
C190 O202 1.239 . S
C190 O203 1.230 . S
N191 Cd162 2.304 . S
N191 C192 1.337 . S
N191 C196 1.338 . S
C192 N191 1.337 . S
C192 C193 1.379 . S
C192 H206 0.929 . S
C193 C192 1.379 . S
C193 C194 1.380 . S
C193 H214 0.929 . S
C194 C193 1.380 . S
C194 C195 1.399 . S
C195 C194 1.399 . S
C195 C196 1.376 . S
C195 H215 0.931 . S
C196 N191 1.338 . S
C196 C195 1.376 . S
C196 H207 0.930 . S
C197 O204 1.239 . S
C197 O205 1.230 . S
O198 Cd162 2.268 . S
O198 C172 1.238 . S
O199 Cd163 2.273 . S
O199 C172 1.253 . S
O200 Cd163 2.268 . S
O200 C189 1.238 . S
O201 Cd162 2.273 . S
O201 C189 1.253 . S
O202 Cd162 2.417 . S
O202 C190 1.239 . S
O203 Cd162 2.330 . S
O203 C190 1.230 . S
O204 Cd163 2.417 . S
O204 C197 1.239 . S
O205 Cd163 2.330 . S
O205 C197 1.230 . S
H206 C192 0.929 . S
H207 C196 0.930 . S
H208 C166 0.931 . S
H209 C168 0.930 . S
H210 C174 0.929 . S
H211 C176 0.931 . S
H212 C183 0.931 . S
H213 C185 0.930 . S
H214 C193 0.929 . S
H215 C195 0.931 . S
Cd216 N219 2.334 . S
Cd216 N245 2.304 . S
Cd216 O252 2.268 . S
Cd216 O255 2.273 . S
Cd216 O256 2.417 . S
Cd216 O257 2.330 . S
Cd217 N232 2.304 . S
Cd217 N236 2.334 . S
Cd217 O253 2.273 . S
Cd217 O254 2.268 . S
Cd217 O258 2.417 . S
Cd217 O259 2.330 . S
C218 N219 1.332 . S
C218 C222 1.381 . S
C218 H224 0.931 . S
N219 Cd216 2.334 . S
N219 C218 1.332 . S
N219 C223 1.328 . S
C220 C221 1.396 . S
C220 C223 1.378 . S
C220 H262 0.931 . S
C221 C220 1.396 . S
C221 C222 1.382 . S
C222 C218 1.381 . S
C222 C221 1.382 . S
C222 H263 0.930 . S
C223 N219 1.328 . S
C223 C220 1.378 . S
C223 H225 0.930 . S
H224 C218 0.931 . S
H225 C223 0.930 . S
C226 O252 1.238 . S
C226 O253 1.253 . S
C227 C228 1.379 . S
C227 N232 1.337 . S
C227 H233 0.929 . S
C228 C227 1.379 . S
C228 C229 1.380 . S
C228 H264 0.929 . S
C229 C228 1.380 . S
C229 C230 1.399 . S
C230 C229 1.399 . S
C230 C231 1.376 . S
C230 H265 0.931 . S
C231 C230 1.376 . S
C231 N232 1.338 . S
C231 H234 0.930 . S
N232 Cd217 2.304 . S
N232 C227 1.337 . S
N232 C231 1.338 . S
H233 C227 0.929 . S
H234 C231 0.930 . S
C235 N236 1.332 . S
C235 C239 1.381 . S
C235 H241 0.931 . S
N236 Cd217 2.334 . S
N236 C235 1.332 . S
N236 C240 1.328 . S
C237 C238 1.396 . S
C237 C240 1.378 . S
C237 H266 0.931 . S
C238 C237 1.396 . S
C238 C239 1.382 . S
C239 C235 1.381 . S
C239 C238 1.382 . S
C239 H267 0.930 . S
C240 N236 1.328 . S
C240 C237 1.378 . S
C240 H242 0.930 . S
H241 C235 0.931 . S
H242 C240 0.930 . S
C243 O254 1.238 . S
C243 O255 1.253 . S
C244 O256 1.239 . S
C244 O257 1.230 . S
N245 Cd216 2.304 . S
N245 C246 1.337 . S
N245 C250 1.338 . S
C246 N245 1.337 . S
C246 C247 1.379 . S
C246 H260 0.929 . S
C247 C246 1.379 . S
C247 C248 1.380 . S
C247 H268 0.929 . S
C248 C247 1.380 . S
C248 C249 1.399 . S
C249 C248 1.399 . S
C249 C250 1.376 . S
C249 H269 0.931 . S
C250 N245 1.338 . S
C250 C249 1.376 . S
C250 H261 0.930 . S
C251 O258 1.239 . S
C251 O259 1.230 . S
O252 Cd216 2.268 . S
O252 C226 1.238 . S
O253 Cd217 2.273 . S
O253 C226 1.253 . S
O254 Cd217 2.268 . S
O254 C243 1.238 . S
O255 Cd216 2.273 . S
O255 C243 1.253 . S
O256 Cd216 2.417 . S
O256 C244 1.239 . S
O257 Cd216 2.330 . S
O257 C244 1.230 . S
O258 Cd217 2.417 . S
O258 C251 1.239 . S
O259 Cd217 2.330 . S
O259 C251 1.230 . S
H260 C246 0.929 . S
H261 C250 0.930 . S
H262 C220 0.931 . S
H263 C222 0.930 . S
H264 C228 0.929 . S
H265 C230 0.931 . S
H266 C237 0.931 . S
H267 C239 0.930 . S
H268 C247 0.929 . S
H269 C249 0.931 . S
Cd270 N273 2.334 . S
Cd270 N299 2.304 . S
Cd270 O306 2.268 . S
Cd270 O309 2.273 . S
Cd270 O310 2.417 . S
Cd270 O311 2.330 . S
Cd271 N286 2.304 . S
Cd271 N290 2.334 . S
Cd271 O307 2.273 . S
Cd271 O308 2.268 . S
Cd271 O312 2.417 . S
Cd271 O313 2.330 . S
C272 N273 1.332 . S
C272 C276 1.381 . S
C272 H278 0.931 . S
N273 Cd270 2.334 . S
N273 C272 1.332 . S
N273 C277 1.328 . S
C274 C275 1.396 . S
C274 C277 1.378 . S
C274 H316 0.931 . S
C275 C274 1.396 . S
C275 C276 1.382 . S
C276 C272 1.381 . S
C276 C275 1.382 . S
C276 H317 0.930 . S
C277 N273 1.328 . S
C277 C274 1.378 . S
C277 H279 0.930 . S
H278 C272 0.931 . S
H279 C277 0.930 . S
C280 O306 1.238 . S
C280 O307 1.253 . S
C281 C282 1.379 . S
C281 N286 1.337 . S
C281 H287 0.929 . S
C282 C281 1.379 . S
C282 C283 1.380 . S
C282 H318 0.929 . S
C283 C282 1.380 . S
C283 C284 1.399 . S
C284 C283 1.399 . S
C284 C285 1.376 . S
C284 H319 0.931 . S
C285 C284 1.376 . S
C285 N286 1.338 . S
C285 H288 0.930 . S
N286 Cd271 2.304 . S
N286 C281 1.337 . S
N286 C285 1.338 . S
H287 C281 0.929 . S
H288 C285 0.930 . S
C289 N290 1.332 . S
C289 C293 1.381 . S
C289 H295 0.931 . S
N290 Cd271 2.334 . S
N290 C289 1.332 . S
N290 C294 1.328 . S
C291 C292 1.396 . S
C291 C294 1.378 . S
C291 H320 0.931 . S
C292 C291 1.396 . S
C292 C293 1.382 . S
C293 C289 1.381 . S
C293 C292 1.382 . S
C293 H321 0.930 . S
C294 N290 1.328 . S
C294 C291 1.378 . S
C294 H296 0.930 . S
H295 C289 0.931 . S
H296 C294 0.930 . S
C297 O308 1.238 . S
C297 O309 1.253 . S
C298 O310 1.239 . S
C298 O311 1.230 . S
N299 Cd270 2.304 . S
N299 C300 1.337 . S
N299 C304 1.338 . S
C300 N299 1.337 . S
C300 C301 1.379 . S
C300 H314 0.929 . S
C301 C300 1.379 . S
C301 C302 1.380 . S
C301 H322 0.929 . S
C302 C301 1.380 . S
C302 C303 1.399 . S
C303 C302 1.399 . S
C303 C304 1.376 . S
C303 H323 0.931 . S
C304 N299 1.338 . S
C304 C303 1.376 . S
C304 H315 0.930 . S
C305 O312 1.239 . S
C305 O313 1.230 . S
O306 Cd270 2.268 . S
O306 C280 1.238 . S
O307 Cd271 2.273 . S
O307 C280 1.253 . S
O308 Cd271 2.268 . S
O308 C297 1.238 . S
O309 Cd270 2.273 . S
O309 C297 1.253 . S
O310 Cd270 2.417 . S
O310 C298 1.239 . S
O311 Cd270 2.330 . S
O311 C298 1.230 . S
O312 Cd271 2.417 . S
O312 C305 1.239 . S
O313 Cd271 2.330 . S
O313 C305 1.230 . S
H314 C300 0.929 . S
H315 C304 0.930 . S
H316 C274 0.931 . S
H317 C276 0.930 . S
H318 C282 0.929 . S
H319 C284 0.931 . S
H320 C291 0.931 . S
H321 C293 0.930 . S
H322 C301 0.929 . S
H323 C303 0.931 . S
C324 C325 1.391 . S
C324 C326 1.394 . S
C324 H340 0.931 . S
C325 C324 1.391 . S
C325 C329 1.376 . S
C326 C324 1.394 . S
C326 C327 1.369 . S
C326 C330 1.531 . S
C327 C326 1.369 . S
C327 C328 1.410 . S
C327 C335 1.503 . S
C328 C327 1.410 . S
C328 C329 1.392 . S
C328 C331 1.511 . S
C329 C325 1.376 . S
C329 C328 1.392 . S
C329 H341 0.929 . S
C330 C326 1.531 . S
C330 H342 0.960 . S
C330 H343 0.962 . S
C330 H344 0.960 . S
C331 C328 1.511 . S
C331 H345 0.961 . S
C331 H346 0.961 . S
C331 H347 0.961 . S
C332 C333 1.370 . S
C332 C334 1.363 . S
C332 H348 0.931 . S
C333 C332 1.370 . S
C333 C337 1.408 . S
C334 C332 1.363 . S
C334 C335 1.370 . S
C334 C338 1.524 . S
C335 C327 1.503 . S
C335 C334 1.370 . S
C335 C336 1.403 . S
C336 C335 1.403 . S
C336 C337 1.404 . S
C336 C339 1.539 . S
C337 C333 1.408 . S
C337 C336 1.404 . S
C337 H349 0.930 . S
C338 C334 1.524 . S
C338 H350 0.956 . S
C338 H351 0.961 . S
C338 H352 0.961 . S
C339 C336 1.539 . S
C339 H353 0.958 . S
C339 H354 0.961 . S
C339 H355 0.960 . S
H340 C324 0.931 . S
H341 C329 0.929 . S
H342 C330 0.960 . S
H343 C330 0.962 . S
H344 C330 0.960 . S
H345 C331 0.961 . S
H346 C331 0.961 . S
H347 C331 0.961 . S
H348 C332 0.931 . S
H349 C337 0.930 . S
H350 C338 0.956 . S
H351 C338 0.961 . S
H352 C338 0.961 . S
H353 C339 0.958 . S
H354 C339 0.961 . S
H355 C339 0.960 . S
C356 C357 1.391 . S
C356 C358 1.394 . S
C356 H372 0.931 . S
C357 C356 1.391 . S
C357 C361 1.376 . S
C358 C356 1.394 . S
C358 C359 1.369 . S
C358 C362 1.531 . S
C359 C358 1.369 . S
C359 C360 1.410 . S
C359 C367 1.503 . S
C360 C359 1.410 . S
C360 C361 1.392 . S
C360 C363 1.511 . S
C361 C357 1.376 . S
C361 C360 1.392 . S
C361 H373 0.929 . S
C362 C358 1.531 . S
C362 H374 0.960 . S
C362 H375 0.962 . S
C362 H376 0.960 . S
C363 C360 1.511 . S
C363 H377 0.961 . S
C363 H378 0.961 . S
C363 H379 0.961 . S
C364 C365 1.370 . S
C364 C366 1.363 . S
C364 H380 0.931 . S
C365 C364 1.370 . S
C365 C369 1.408 . S
C366 C364 1.363 . S
C366 C367 1.370 . S
C366 C370 1.524 . S
C367 C359 1.503 . S
C367 C366 1.370 . S
C367 C368 1.403 . S
C368 C367 1.403 . S
C368 C369 1.404 . S
C368 C371 1.539 . S
C369 C365 1.408 . S
C369 C368 1.404 . S
C369 H381 0.930 . S
C370 C366 1.524 . S
C370 H382 0.956 . S
C370 H383 0.961 . S
C370 H384 0.961 . S
C371 C368 1.539 . S
C371 H385 0.958 . S
C371 H386 0.961 . S
C371 H387 0.960 . S
H372 C356 0.931 . S
H373 C361 0.929 . S
H374 C362 0.960 . S
H375 C362 0.962 . S
H376 C362 0.960 . S
H377 C363 0.961 . S
H378 C363 0.961 . S
H379 C363 0.961 . S
H380 C364 0.931 . S
H381 C369 0.930 . S
H382 C370 0.956 . S
H383 C370 0.961 . S
H384 C370 0.961 . S
H385 C371 0.958 . S
H386 C371 0.961 . S
H387 C371 0.960 . S
C388 C389 1.391 . S
C388 C390 1.394 . S
C388 H404 0.931 . S
C389 C388 1.391 . S
C389 C393 1.376 . S
C390 C388 1.394 . S
C390 C391 1.369 . S
C390 C394 1.531 . S
C391 C390 1.369 . S
C391 C392 1.410 . S
C391 C399 1.503 . S
C392 C391 1.410 . S
C392 C393 1.392 . S
C392 C395 1.511 . S
C393 C389 1.376 . S
C393 C392 1.392 . S
C393 H405 0.929 . S
C394 C390 1.531 . S
C394 H406 0.960 . S
C394 H407 0.962 . S
C394 H408 0.960 . S
C395 C392 1.511 . S
C395 H409 0.961 . S
C395 H410 0.961 . S
C395 H411 0.961 . S
C396 C397 1.370 . S
C396 C398 1.363 . S
C396 H412 0.931 . S
C397 C396 1.370 . S
C397 C401 1.408 . S
C398 C396 1.363 . S
C398 C399 1.370 . S
C398 C402 1.524 . S
C399 C391 1.503 . S
C399 C398 1.370 . S
C399 C400 1.403 . S
C400 C399 1.403 . S
C400 C401 1.404 . S
C400 C403 1.539 . S
C401 C397 1.408 . S
C401 C400 1.404 . S
C401 H413 0.930 . S
C402 C398 1.524 . S
C402 H414 0.956 . S
C402 H415 0.961 . S
C402 H416 0.961 . S
C403 C400 1.539 . S
C403 H417 0.958 . S
C403 H418 0.961 . S
C403 H419 0.960 . S
H404 C388 0.931 . S
H405 C393 0.929 . S
H406 C394 0.960 . S
H407 C394 0.962 . S
H408 C394 0.960 . S
H409 C395 0.961 . S
H410 C395 0.961 . S
H411 C395 0.961 . S
H412 C396 0.931 . S
H413 C401 0.930 . S
H414 C402 0.956 . S
H415 C402 0.961 . S
H416 C402 0.961 . S
H417 C403 0.958 . S
H418 C403 0.961 . S
H419 C403 0.960 . S
C420 C421 1.391 . S
C420 C422 1.394 . S
C420 H436 0.931 . S
C421 C420 1.391 . S
C421 C425 1.376 . S
C422 C420 1.394 . S
C422 C423 1.369 . S
C422 C426 1.531 . S
C423 C422 1.369 . S
C423 C424 1.410 . S
C423 C431 1.503 . S
C424 C423 1.410 . S
C424 C425 1.392 . S
C424 C427 1.511 . S
C425 C421 1.376 . S
C425 C424 1.392 . S
C425 H437 0.929 . S
C426 C422 1.531 . S
C426 H438 0.960 . S
C426 H439 0.962 . S
C426 H440 0.960 . S
C427 C424 1.511 . S
C427 H441 0.961 . S
C427 H442 0.961 . S
C427 H443 0.961 . S
C428 C429 1.370 . S
C428 C430 1.363 . S
C428 H444 0.931 . S
C429 C428 1.370 . S
C429 C433 1.408 . S
C430 C428 1.363 . S
C430 C431 1.370 . S
C430 C434 1.524 . S
C431 C423 1.503 . S
C431 C430 1.370 . S
C431 C432 1.403 . S
C432 C431 1.403 . S
C432 C433 1.404 . S
C432 C435 1.539 . S
C433 C429 1.408 . S
C433 C432 1.404 . S
C433 H445 0.930 . S
C434 C430 1.524 . S
C434 H446 0.956 . S
C434 H447 0.961 . S
C434 H448 0.961 . S
C435 C432 1.539 . S
C435 H449 0.958 . S
C435 H450 0.961 . S
C435 H451 0.960 . S
H436 C420 0.931 . S
H437 C425 0.929 . S
H438 C426 0.960 . S
H439 C426 0.962 . S
H440 C426 0.960 . S
H441 C427 0.961 . S
H442 C427 0.961 . S
H443 C427 0.961 . S
H444 C428 0.931 . S
H445 C433 0.930 . S
H446 C434 0.956 . S
H447 C434 0.961 . S
H448 C434 0.961 . S
H449 C435 0.958 . S
H450 C435 0.961 . S
H451 C435 0.960 . S
C452 C453 1.391 . S
C452 C454 1.394 . S
C452 H468 0.931 . S
C453 C452 1.391 . S
C453 C457 1.376 . S
C454 C452 1.394 . S
C454 C455 1.369 . S
C454 C458 1.531 . S
C455 C454 1.369 . S
C455 C456 1.410 . S
C455 C463 1.503 . S
C456 C455 1.410 . S
C456 C457 1.392 . S
C456 C459 1.511 . S
C457 C453 1.376 . S
C457 C456 1.392 . S
C457 H469 0.929 . S
C458 C454 1.531 . S
C458 H470 0.960 . S
C458 H471 0.962 . S
C458 H472 0.960 . S
C459 C456 1.511 . S
C459 H473 0.961 . S
C459 H474 0.961 . S
C459 H475 0.961 . S
C460 C461 1.370 . S
C460 C462 1.363 . S
C460 H476 0.931 . S
C461 C460 1.370 . S
C461 C465 1.408 . S
C462 C460 1.363 . S
C462 C463 1.370 . S
C462 C466 1.524 . S
C463 C455 1.503 . S
C463 C462 1.370 . S
C463 C464 1.403 . S
C464 C463 1.403 . S
C464 C465 1.404 . S
C464 C467 1.539 . S
C465 C461 1.408 . S
C465 C464 1.404 . S
C465 H477 0.930 . S
C466 C462 1.524 . S
C466 H478 0.956 . S
C466 H479 0.961 . S
C466 H480 0.961 . S
C467 C464 1.539 . S
C467 H481 0.958 . S
C467 H482 0.961 . S
C467 H483 0.960 . S
H468 C452 0.931 . S
H469 C457 0.929 . S
H470 C458 0.960 . S
H471 C458 0.962 . S
H472 C458 0.960 . S
H473 C459 0.961 . S
H474 C459 0.961 . S
H475 C459 0.961 . S
H476 C460 0.931 . S
H477 C465 0.930 . S
H478 C466 0.956 . S
H479 C466 0.961 . S
H480 C466 0.961 . S
H481 C467 0.958 . S
H482 C467 0.961 . S
H483 C467 0.960 . S
C484 C485 1.391 . S
C484 C486 1.394 . S
C484 H500 0.931 . S
C485 C484 1.391 . S
C485 C489 1.376 . S
C486 C484 1.394 . S
C486 C487 1.369 . S
C486 C490 1.531 . S
C487 C486 1.369 . S
C487 C488 1.410 . S
C487 C495 1.503 . S
C488 C487 1.410 . S
C488 C489 1.392 . S
C488 C491 1.511 . S
C489 C485 1.376 . S
C489 C488 1.392 . S
C489 H501 0.929 . S
C490 C486 1.531 . S
C490 H502 0.960 . S
C490 H503 0.962 . S
C490 H504 0.960 . S
C491 C488 1.511 . S
C491 H505 0.961 . S
C491 H506 0.961 . S
C491 H507 0.961 . S
C492 C493 1.370 . S
C492 C494 1.363 . S
C492 H508 0.931 . S
C493 C492 1.370 . S
C493 C497 1.408 . S
C494 C492 1.363 . S
C494 C495 1.370 . S
C494 C498 1.524 . S
C495 C487 1.503 . S
C495 C494 1.370 . S
C495 C496 1.403 . S
C496 C495 1.403 . S
C496 C497 1.404 . S
C496 C499 1.539 . S
C497 C493 1.408 . S
C497 C496 1.404 . S
C497 H509 0.930 . S
C498 C494 1.524 . S
C498 H510 0.956 . S
C498 H511 0.961 . S
C498 H512 0.961 . S
C499 C496 1.539 . S
C499 H513 0.958 . S
C499 H514 0.961 . S
C499 H515 0.960 . S
H500 C484 0.931 . S
H501 C489 0.929 . S
H502 C490 0.960 . S
H503 C490 0.962 . S
H504 C490 0.960 . S
H505 C491 0.961 . S
H506 C491 0.961 . S
H507 C491 0.961 . S
H508 C492 0.931 . S
H509 C497 0.930 . S
H510 C498 0.956 . S
H511 C498 0.961 . S
H512 C498 0.961 . S
H513 C499 0.958 . S
H514 C499 0.961 . S
H515 C499 0.960 . S
C516 C517 1.391 . S
C516 C518 1.394 . S
C516 H532 0.931 . S
C517 C516 1.391 . S
C517 C521 1.376 . S
C518 C516 1.394 . S
C518 C519 1.369 . S
C518 C522 1.531 . S
C519 C518 1.369 . S
C519 C520 1.410 . S
C519 C527 1.503 . S
C520 C519 1.410 . S
C520 C521 1.392 . S
C520 C523 1.511 . S
C521 C517 1.376 . S
C521 C520 1.392 . S
C521 H533 0.929 . S
C522 C518 1.531 . S
C522 H534 0.960 . S
C522 H535 0.962 . S
C522 H536 0.960 . S
C523 C520 1.511 . S
C523 H537 0.961 . S
C523 H538 0.961 . S
C523 H539 0.961 . S
C524 C525 1.370 . S
C524 C526 1.363 1_565 S
C524 H540 0.931 . S
C525 C524 1.370 . S
C525 C529 1.408 1_565 S
C526 C524 1.363 1_545 S
C526 C527 1.370 . S
C526 C530 1.524 . S
C527 C519 1.503 . S
C527 C526 1.370 . S
C527 C528 1.403 . S
C528 C527 1.403 . S
C528 C529 1.404 . S
C528 C531 1.539 . S
C529 C525 1.408 1_545 S
C529 C528 1.404 . S
C529 H541 0.930 . S
C530 C526 1.524 . S
C530 H542 0.956 . S
C530 H543 0.961 . S
C530 H544 0.961 1_545 S
C531 C528 1.539 . S
C531 H545 0.958 . S
C531 H546 0.961 . S
C531 H547 0.960 . S
H532 C516 0.931 . S
H533 C521 0.929 . S
H534 C522 0.960 . S
H535 C522 0.962 . S
H536 C522 0.960 . S
H537 C523 0.961 . S
H538 C523 0.961 . S
H539 C523 0.961 . S
H540 C524 0.931 . S
H541 C529 0.930 . S
H542 C530 0.956 . S
H543 C530 0.961 . S
H544 C530 0.961 1_565 S
H545 C531 0.958 . S
H546 C531 0.961 . S
H547 C531 0.960 . S
C548 C549 1.391 . S
C548 C550 1.394 1_655 S
C548 H564 0.931 . S
C549 C548 1.391 . S
C549 C553 1.376 . S
C550 C548 1.394 1_455 S
C550 C551 1.369 . S
C550 C554 1.531 . S
C551 C550 1.369 . S
C551 C552 1.410 . S
C551 C559 1.503 . S
C552 C551 1.410 . S
C552 C553 1.392 1_455 S
C552 C555 1.511 . S
C553 C549 1.376 . S
C553 C552 1.392 1_655 S
C553 H565 0.929 . S
C554 C550 1.531 . S
C554 H566 0.960 . S
C554 H567 0.962 . S
C554 H568 0.960 . S
C555 C552 1.511 . S
C555 H569 0.961 . S
C555 H570 0.961 . S
C555 H571 0.961 . S
C556 C557 1.370 . S
C556 C558 1.363 . S
C556 H572 0.931 . S
C557 C556 1.370 . S
C557 C561 1.408 . S
C558 C556 1.363 . S
C558 C559 1.370 . S
C558 C562 1.524 . S
C559 C551 1.503 . S
C559 C558 1.370 . S
C559 C560 1.403 . S
C560 C559 1.403 . S
C560 C561 1.404 . S
C560 C563 1.539 . S
C561 C557 1.408 . S
C561 C560 1.404 . S
C561 H573 0.930 . S
C562 C558 1.524 . S
C562 H574 0.956 . S
C562 H575 0.961 . S
C562 H576 0.961 . S
C563 C560 1.539 . S
C563 H577 0.958 . S
C563 H578 0.961 . S
C563 H579 0.960 . S
H564 C548 0.931 . S
H565 C553 0.929 . S
H566 C554 0.960 . S
H567 C554 0.962 . S
H568 C554 0.960 . S
H569 C555 0.961 . S
H570 C555 0.961 . S
H571 C555 0.961 . S
H572 C556 0.931 . S
H573 C561 0.930 . S
H574 C562 0.956 . S
H575 C562 0.961 . S
H576 C562 0.961 . S
H577 C563 0.958 . S
H578 C563 0.961 . S
H579 C563 0.960 . S
C580 C581 1.391 1_655 S
C580 C582 1.394 . S
C580 H596 0.931 . S
C581 C580 1.391 1_455 S
C581 C585 1.376 . S
C582 C580 1.394 . S
C582 C583 1.369 . S
C582 C586 1.531 . S
C583 C582 1.369 . S
C583 C584 1.410 . S
C583 C591 1.503 . S
C584 C583 1.410 . S
C584 C585 1.392 1_655 S
C584 C587 1.511 . S
C585 C581 1.376 . S
C585 C584 1.392 1_455 S
C585 H597 0.929 . S
C586 C582 1.531 . S
C586 H598 0.960 . S
C586 H599 0.962 . S
C586 H600 0.960 . S
C587 C584 1.511 . S
C587 H601 0.961 1_655 S
C587 H602 0.960 . S
C587 H603 0.961 1_655 S
C588 C589 1.370 1_545 S
C588 C590 1.363 . S
C588 H604 0.931 . S
C589 C588 1.370 1_565 S
C589 C593 1.408 . S
C590 C588 1.363 . S
C590 C591 1.370 . S
C590 C594 1.524 . S
C591 C583 1.503 . S
C591 C590 1.370 . S
C591 C592 1.403 . S
C592 C591 1.403 . S
C592 C593 1.404 1_545 S
C592 C595 1.548 . S
C593 C589 1.408 . S
C593 C592 1.404 1_565 S
C593 H605 0.930 . S
C594 C590 1.524 . S
C594 H606 0.956 . S
C594 H607 0.961 . S
C594 H608 0.961 . S
C595 C592 1.548 . S
C595 H609 0.971 . S
C595 H610 0.937 1_545 S
C595 H611 0.964 . S
H596 C580 0.931 . S
H597 C585 0.929 . S
H598 C586 0.960 . S
H599 C586 0.962 . S
H600 C586 0.960 . S
H601 C587 0.961 1_455 S
H602 C587 0.960 . S
H603 C587 0.961 1_455 S
H604 C588 0.931 . S
H605 C593 0.930 . S
H606 C594 0.956 . S
H607 C594 0.961 . S
H608 C594 0.961 . S
H609 C595 0.971 . S
H610 C595 0.937 1_565 S
H611 C595 0.964 . S
C612 C613 1.391 . S
C612 C614 1.394 1_545 S
C612 H628 0.931 . S
C613 C612 1.391 . S
C613 C617 1.376 1_545 S
C614 C612 1.394 1_565 S
C614 C615 1.369 . S
C614 C618 1.520 . S
C615 C614 1.369 . S
C615 C616 1.410 . S
C615 C623 1.503 . S
C616 C615 1.410 . S
C616 C617 1.392 . S
C616 C619 1.511 . S
C617 C613 1.376 1_565 S
C617 C616 1.392 . S
C617 H629 0.929 . S
C618 C614 1.520 . S
C618 H630 0.979 . S
C618 H631 0.973 . S
C618 H632 0.942 1_565 S
C619 C616 1.511 . S
C619 H633 0.961 . S
C619 H634 0.961 . S
C619 H635 0.961 . S
C620 C621 1.370 . S
C620 C622 1.363 . S
C620 H636 0.931 . S
C621 C620 1.370 . S
C621 C625 1.408 . S
C622 C620 1.363 . S
C622 C623 1.370 . S
C622 C626 1.524 . S
C623 C615 1.503 . S
C623 C622 1.370 . S
C623 C624 1.403 . S
C624 C623 1.403 . S
C624 C625 1.404 . S
C624 C627 1.539 . S
C625 C621 1.408 . S
C625 C624 1.404 . S
C625 H637 0.930 . S
C626 C622 1.524 . S
C626 H638 0.956 . S
C626 H639 0.961 . S
C626 H640 0.961 . S
C627 C624 1.539 . S
C627 H641 0.958 . S
C627 H642 0.961 . S
C627 H643 0.960 . S
H628 C612 0.931 . S
H629 C617 0.929 . S
H630 C618 0.979 . S
H631 C618 0.973 . S
H632 C618 0.942 1_545 S
H633 C619 0.961 . S
H634 C619 0.961 . S
H635 C619 0.961 . S
H636 C620 0.931 . S
H637 C625 0.930 . S
H638 C626 0.956 . S
H639 C626 0.961 . S
H640 C626 0.961 . S
H641 C627 0.958 . S
H642 C627 0.961 . S
H643 C627 0.960 . S
C644 C645 1.391 . S
C644 C646 1.394 . S
C644 H660 0.931 . S
C645 C644 1.391 . S
C645 C649 1.376 . S
C646 C644 1.394 . S
C646 C647 1.369 . S
C646 C650 1.531 . S
C647 C646 1.369 . S
C647 C648 1.410 . S
C647 C655 1.503 . S
C648 C647 1.410 . S
C648 C649 1.392 . S
C648 C651 1.511 . S
C649 C645 1.376 . S
C649 C648 1.392 . S
C649 H661 0.929 . S
C650 C646 1.531 . S
C650 H662 0.960 . S
C650 H663 0.962 . S
C650 H664 0.960 . S
C651 C648 1.511 . S
C651 H665 0.961 . S
C651 H666 0.961 . S
C651 H667 0.961 . S
C652 C653 1.370 1_655 S
C652 C654 1.363 . S
C652 H668 0.931 . S
C653 C652 1.370 1_455 S
C653 C657 1.408 . S
C654 C652 1.363 . S
C654 C655 1.370 . S
C654 C658 1.524 . S
C655 C647 1.503 . S
C655 C654 1.370 . S
C655 C656 1.403 1_655 S
C656 C655 1.403 1_455 S
C656 C657 1.404 . S
C656 C659 1.539 . S
C657 C653 1.408 . S
C657 C656 1.404 . S
C657 H669 0.930 . S
C658 C654 1.524 . S
C658 H670 0.956 . S
C658 H671 0.961 . S
C658 H672 0.961 . S
C659 C656 1.539 . S
C659 H673 0.958 . S
C659 H674 0.961 . S
C659 H675 0.960 1_455 S
H660 C644 0.931 . S
H661 C649 0.929 . S
H662 C650 0.960 . S
H663 C650 0.962 . S
H664 C650 0.960 . S
H665 C651 0.961 . S
H666 C651 0.961 . S
H667 C651 0.961 . S
H668 C652 0.931 . S
H669 C657 0.930 . S
H670 C658 0.956 . S
H671 C658 0.961 . S
H672 C658 0.961 . S
H673 C659 0.958 . S
H674 C659 0.961 . S
H675 C659 0.960 1_655 S
C676 C677 1.391 . S
C676 C678 1.394 1_545 S
C676 H692 0.931 . S
C677 C676 1.391 . S
C677 C681 1.376 1_545 S
C678 C676 1.394 1_565 S
C678 C679 1.369 . S
C678 C682 1.531 . S
C679 C678 1.369 . S
C679 C680 1.410 . S
C679 C687 1.503 . S
C680 C679 1.410 . S
C680 C681 1.392 . S
C680 C683 1.511 . S
C681 C677 1.376 1_565 S
C681 C680 1.392 . S
C681 H693 0.929 . S
C682 C678 1.531 . S
C682 H694 0.960 . S
C682 H695 0.962 . S
C682 H696 0.960 1_565 S
C683 C680 1.511 . S
C683 H697 0.961 . S
C683 H698 0.961 . S
C683 H699 0.961 . S
C684 C685 1.370 . S
C684 C686 1.363 1_655 S
C684 H700 0.931 . S
C685 C684 1.370 . S
C685 C689 1.408 . S
C686 C684 1.363 1_455 S
C686 C687 1.370 . S
C686 C690 1.524 . S
C687 C679 1.503 . S
C687 C686 1.370 . S
C687 C688 1.403 . S
C688 C687 1.403 . S
C688 C689 1.404 1_455 S
C688 C691 1.539 . S
C689 C685 1.408 . S
C689 C688 1.404 1_655 S
C689 H701 0.930 . S
C690 C686 1.524 . S
C690 H702 0.956 . S
C690 H703 0.961 . S
C690 H704 0.961 . S
C691 C688 1.539 . S
C691 H705 0.958 . S
C691 H706 0.961 . S
C691 H707 0.960 . S
H692 C676 0.931 . S
H693 C681 0.929 . S
H694 C682 0.960 . S
H695 C682 0.962 . S
H696 C682 0.960 1_545 S
H697 C683 0.961 . S
H698 C683 0.961 . S
H699 C683 0.961 . S
H700 C684 0.931 . S
H701 C689 0.930 . S
H702 C690 0.956 . S
H703 C690 0.961 . S
H704 C690 0.961 . S
H705 C691 0.958 . S
H706 C691 0.961 . S
H707 C691 0.960 . S
C708 C709 1.391 . S
C708 C710 1.394 . S
C708 H724 0.931 . S
C709 C708 1.391 . S
C709 C713 1.376 . S
C710 C708 1.394 . S
C710 C711 1.369 . S
C710 C714 1.531 . S
C711 C710 1.369 . S
C711 C712 1.410 . S
C711 C719 1.503 1_554 S
C712 C711 1.410 . S
C712 C713 1.392 . S
C712 C715 1.511 1_554 S
C713 C709 1.376 . S
C713 C712 1.392 . S
C713 H725 0.929 . S
C714 C710 1.531 . S
C714 H726 0.960 . S
C714 H727 0.962 . S
C714 H728 0.960 . S
C715 C712 1.511 1_556 S
C715 H729 0.961 . S
C715 H730 0.961 . S
C715 H731 0.961 . S
C716 C717 1.370 . S
C716 C718 1.363 . S
C716 H732 0.931 . S
C717 C716 1.370 . S
C717 C721 1.408 . S
C718 C716 1.363 . S
C718 C719 1.370 . S
C718 C722 1.524 . S
C719 C711 1.503 1_556 S
C719 C718 1.370 . S
C719 C720 1.403 . S
C720 C719 1.403 . S
C720 C721 1.404 . S
C720 C723 1.539 . S
C721 C717 1.408 . S
C721 C720 1.404 . S
C721 H733 0.930 . S
C722 C718 1.524 . S
C722 H734 0.956 1_556 S
C722 H735 0.961 . S
C722 H736 0.961 . S
C723 C720 1.539 . S
C723 H737 0.958 . S
C723 H738 0.961 . S
C723 H739 0.960 . S
H724 C708 0.931 . S
H725 C713 0.929 . S
H726 C714 0.960 . S
H727 C714 0.962 . S
H728 C714 0.960 . S
H729 C715 0.961 . S
H730 C715 0.961 . S
H731 C715 0.961 . S
H732 C716 0.931 . S
H733 C721 0.930 . S
H734 C722 0.956 1_554 S
H735 C722 0.961 . S
H736 C722 0.961 . S
H737 C723 0.958 . S
H738 C723 0.961 . S
H739 C723 0.960 . S
C740 C741 1.391 . S
C740 C742 1.394 . S
C740 H756 0.931 . S
C741 C740 1.391 . S
C741 C745 1.376 . S
C742 C740 1.394 . S
C742 C743 1.369 . S
C742 C746 1.531 1_655 S
C743 C742 1.369 . S
C743 C744 1.410 . S
C743 C751 1.503 1_655 S
C744 C743 1.410 . S
C744 C745 1.392 . S
C744 C747 1.511 . S
C745 C741 1.376 . S
C745 C744 1.392 . S
C745 H757 0.929 . S
C746 C742 1.531 1_455 S
C746 H758 0.960 . S
C746 H759 0.962 . S
C746 H760 0.960 . S
C747 C744 1.511 . S
C747 H761 0.961 . S
C747 H762 0.961 . S
C747 H763 0.961 . S
C748 C749 1.370 . S
C748 C750 1.363 . S
C748 H764 0.931 . S
C749 C748 1.370 . S
C749 C753 1.408 . S
C750 C748 1.363 . S
C750 C751 1.370 . S
C750 C754 1.524 1_455 S
C751 C743 1.503 1_455 S
C751 C750 1.370 . S
C751 C752 1.403 . S
C752 C751 1.403 . S
C752 C753 1.404 . S
C752 C755 1.539 . S
C753 C749 1.408 . S
C753 C752 1.404 . S
C753 H765 0.930 . S
C754 C750 1.524 1_655 S
C754 H766 0.956 . S
C754 H767 0.961 . S
C754 H768 0.961 . S
C755 C752 1.539 . S
C755 H769 0.958 . S
C755 H770 0.961 . S
C755 H771 0.960 . S
H756 C740 0.931 . S
H757 C745 0.929 . S
H758 C746 0.960 . S
H759 C746 0.962 . S
H760 C746 0.960 . S
H761 C747 0.961 . S
H762 C747 0.961 . S
H763 C747 0.961 . S
H764 C748 0.931 . S
H765 C753 0.930 . S
H766 C754 0.956 . S
H767 C754 0.961 . S
H768 C754 0.961 . S
H769 C755 0.958 . S
H770 C755 0.961 . S
H771 C755 0.960 . S
C772 C773 1.391 . S
C772 C774 1.394 . S
C772 H788 0.931 . S
C773 C772 1.391 . S
C773 C777 1.376 . S
C774 C772 1.394 . S
C774 C775 1.369 . S
C774 C778 1.531 1_554 S
C775 C774 1.369 . S
C775 C776 1.410 . S
C775 C783 1.503 1_564 S
C776 C775 1.410 . S
C776 C777 1.392 . S
C776 C779 1.511 . S
C777 C773 1.376 . S
C777 C776 1.392 . S
C777 H789 0.929 . S
C778 C774 1.531 1_556 S
C778 H790 0.960 . S
C778 H791 0.962 1_556 S
C778 H792 0.960 . S
C779 C776 1.511 . S
C779 H793 0.961 . S
C779 H794 0.961 1_565 S
C779 H795 0.961 1_554 S
C780 C781 1.370 . S
C780 C782 1.363 . S
C780 H796 0.931 . S
C781 C780 1.370 . S
C781 C785 1.408 . S
C782 C780 1.363 . S
C782 C783 1.370 . S
C782 C786 1.524 1_556 S
C783 C775 1.503 1_546 S
C783 C782 1.370 . S
C783 C784 1.403 . S
C784 C783 1.403 . S
C784 C785 1.404 . S
C784 C787 1.539 1_545 S
C785 C781 1.408 . S
C785 C784 1.404 . S
C785 H797 0.930 . S
C786 C782 1.524 1_554 S
C786 H798 0.956 . S
C786 H799 0.961 . S
C786 H800 0.961 . S
C787 C784 1.539 1_565 S
C787 H801 0.958 . S
C787 H802 0.961 . S
C787 H803 0.960 . S
H788 C772 0.931 . S
H789 C777 0.929 . S
H790 C778 0.960 . S
H791 C778 0.962 1_554 S
H792 C778 0.960 . S
H793 C779 0.961 . S
H794 C779 0.961 1_545 S
H795 C779 0.961 1_556 S
H796 C780 0.931 . S
H797 C785 0.930 . S
H798 C786 0.956 . S
H799 C786 0.961 . S
H800 C786 0.961 . S
H801 C787 0.958 . S
H802 C787 0.961 . S
H803 C787 0.960 . S
C804 C805 1.391 . S
C804 C806 1.394 . S
C804 H820 0.931 . S
C805 C804 1.391 . S
C805 C809 1.376 . S
C806 C804 1.394 . S
C806 C807 1.369 . S
C806 C810 1.531 . S
C807 C806 1.369 . S
C807 C808 1.410 . S
C807 C815 1.503 . S
C808 C807 1.410 . S
C808 C809 1.392 . S
C808 C811 1.511 . S
C809 C805 1.376 . S
C809 C808 1.392 . S
C809 H821 0.929 . S
C810 C806 1.531 . S
C810 H822 0.960 . S
C810 H823 0.962 . S
C810 H824 0.960 . S
C811 C808 1.511 . S
C811 H825 0.961 . S
C811 H826 0.961 . S
C811 H827 0.961 . S
C812 C813 1.370 . S
C812 C814 1.363 . S
C812 H828 0.931 . S
C813 C812 1.370 . S
C813 C817 1.408 . S
C814 C812 1.363 . S
C814 C815 1.370 . S
C814 C818 1.524 . S
C815 C807 1.503 . S
C815 C814 1.370 . S
C815 C816 1.403 . S
C816 C815 1.403 . S
C816 C817 1.404 . S
C816 C819 1.539 . S
C817 C813 1.408 . S
C817 C816 1.404 . S
C817 H829 0.930 . S
C818 C814 1.524 . S
C818 H830 0.956 . S
C818 H831 0.961 . S
C818 H832 0.961 . S
C819 C816 1.539 . S
C819 H833 0.958 . S
C819 H834 0.961 . S
C819 H835 0.960 . S
H820 C804 0.931 . S
H821 C809 0.929 . S
H822 C810 0.960 . S
H823 C810 0.962 . S
H824 C810 0.960 . S
H825 C811 0.961 . S
H826 C811 0.961 . S
H827 C811 0.961 . S
H828 C812 0.931 . S
H829 C817 0.930 . S
H830 C818 0.956 . S
H831 C818 0.961 . S
H832 C818 0.961 . S
H833 C819 0.958 . S
H834 C819 0.961 . S
H835 C819 0.960 . S
C836 C837 1.391 . S
C836 C838 1.394 . S
C836 H852 0.931 . S
C837 C836 1.391 . S
C837 C841 1.376 . S
C838 C836 1.394 . S
C838 C839 1.369 . S
C838 C842 1.531 1_556 S
C839 C838 1.369 . S
C839 C840 1.410 . S
C839 C847 1.503 1_656 S
C840 C839 1.410 . S
C840 C841 1.392 . S
C840 C843 1.511 1_655 S
C841 C837 1.376 . S
C841 C840 1.392 . S
C841 H853 0.929 . S
C842 C838 1.531 1_554 S
C842 H854 0.960 . S
C842 H855 0.962 . S
C842 H856 0.960 . S
C843 C840 1.511 1_455 S
C843 H857 0.961 . S
C843 H858 0.961 . S
C843 H859 0.961 . S
C844 C845 1.370 . S
C844 C846 1.363 . S
C844 H860 0.931 . S
C845 C844 1.370 . S
C845 C849 1.408 . S
C846 C844 1.363 . S
C846 C847 1.370 . S
C846 C850 1.524 1_455 S
C847 C839 1.503 1_454 S
C847 C846 1.370 . S
C847 C848 1.403 . S
C848 C847 1.403 . S
C848 C849 1.404 . S
C848 C851 1.539 1_554 S
C849 C845 1.408 . S
C849 C848 1.404 . S
C849 H861 0.930 . S
C850 C846 1.524 1_655 S
C850 H862 0.956 . S
C850 H863 0.961 . S
C850 H864 0.961 . S
C851 C848 1.539 1_556 S
C851 H865 0.958 1_556 S
C851 H866 0.961 . S
C851 H867 0.960 . S
H852 C836 0.931 . S
H853 C841 0.929 . S
H854 C842 0.960 . S
H855 C842 0.962 . S
H856 C842 0.960 . S
H857 C843 0.961 . S
H858 C843 0.961 . S
H859 C843 0.961 . S
H860 C844 0.931 . S
H861 C849 0.930 . S
H862 C850 0.956 . S
H863 C850 0.961 . S
H864 C850 0.961 . S
H865 C851 0.958 1_554 S
H866 C851 0.961 . S
H867 C851 0.960 . S
C868 C869 1.391 . S
C868 C870 1.394 . S
C868 H884 0.931 . S
C869 C868 1.391 . S
C869 C873 1.376 . S
C870 C868 1.394 . S
C870 C871 1.369 . S
C870 C874 1.531 . S
C871 C870 1.369 . S
C871 C872 1.410 . S
C871 C879 1.503 1_545 S
C872 C871 1.410 . S
C872 C873 1.392 . S
C872 C875 1.511 1_545 S
C873 C869 1.376 . S
C873 C872 1.392 . S
C873 H885 0.929 . S
C874 C870 1.531 . S
C874 H886 0.960 1_545 S
C874 H887 0.962 . S
C874 H888 0.960 . S
C875 C872 1.511 1_565 S
C875 H889 0.961 1_565 S
C875 H890 0.961 . S
C875 H891 0.961 . S
C876 C877 1.370 . S
C876 C878 1.363 . S
C876 H892 0.931 . S
C877 C876 1.370 . S
C877 C881 1.408 . S
C878 C876 1.363 . S
C878 C879 1.370 . S
C878 C882 1.524 1_565 S
C879 C871 1.503 1_565 S
C879 C878 1.370 . S
C879 C880 1.403 . S
C880 C879 1.403 . S
C880 C881 1.404 . S
C880 C883 1.539 . S
C881 C877 1.408 . S
C881 C880 1.404 . S
C881 H893 0.930 . S
C882 C878 1.524 1_545 S
C882 H894 0.956 . S
C882 H895 0.961 . S
C882 H896 0.961 . S
C883 C880 1.539 . S
C883 H897 0.958 . S
C883 H898 0.961 . S
C883 H899 0.960 . S
H884 C868 0.931 . S
H885 C873 0.929 . S
H886 C874 0.960 1_565 S
H887 C874 0.962 . S
H888 C874 0.960 . S
H889 C875 0.961 1_545 S
H890 C875 0.961 . S
H891 C875 0.961 . S
H892 C876 0.931 . S
H893 C881 0.930 . S
H894 C882 0.956 . S
H895 C882 0.961 . S
H896 C882 0.961 . S
H897 C883 0.958 . S
H898 C883 0.961 . S
H899 C883 0.960 . S
C900 C901 1.391 . S
C900 C902 1.394 . S
C900 H916 0.931 . S
C901 C900 1.391 . S
C901 C905 1.376 . S
C902 C900 1.394 . S
C902 C903 1.369 . S
C902 C906 1.531 . S
C903 C902 1.369 . S
C903 C904 1.410 . S
C903 C911 1.503 1_556 S
C904 C903 1.410 . S
C904 C905 1.392 . S
C904 C907 1.511 1_556 S
C905 C901 1.376 . S
C905 C904 1.392 . S
C905 H917 0.929 . S
C906 C902 1.531 . S
C906 H918 0.960 . S
C906 H919 0.962 . S
C906 H920 0.960 . S
C907 C904 1.511 1_554 S
C907 H921 0.961 . S
C907 H922 0.961 . S
C907 H923 0.961 . S
C908 C909 1.370 . S
C908 C910 1.363 . S
C908 H924 0.931 . S
C909 C908 1.370 . S
C909 C913 1.408 . S
C910 C908 1.363 . S
C910 C911 1.370 . S
C910 C914 1.524 1_554 S
C911 C903 1.503 1_554 S
C911 C910 1.370 . S
C911 C912 1.403 . S
C912 C911 1.403 . S
C912 C913 1.404 . S
C912 C915 1.539 . S
C913 C909 1.408 . S
C913 C912 1.404 . S
C913 H925 0.930 . S
C914 C910 1.524 1_556 S
C914 H926 0.956 . S
C914 H927 0.961 . S
C914 H928 0.961 . S
C915 C912 1.539 . S
C915 H929 0.958 . S
C915 H930 0.961 . S
C915 H931 0.960 . S
H916 C900 0.931 . S
H917 C905 0.929 . S
H918 C906 0.960 . S
H919 C906 0.962 . S
H920 C906 0.960 . S
H921 C907 0.961 . S
H922 C907 0.961 . S
H923 C907 0.961 . S
H924 C908 0.931 . S
H925 C913 0.930 . S
H926 C914 0.956 . S
H927 C914 0.961 . S
H928 C914 0.961 . S
H929 C915 0.958 . S
H930 C915 0.961 . S
H931 C915 0.960 . S
C932 C933 1.391 . S
C932 C934 1.394 . S
C932 H948 0.931 . S
C933 C932 1.391 . S
C933 C937 1.376 . S
C934 C932 1.394 . S
C934 C935 1.369 . S
C934 C938 1.531 . S
C935 C934 1.369 . S
C935 C936 1.410 . S
C935 C943 1.503 1_455 S
C936 C935 1.410 . S
C936 C937 1.392 . S
C936 C939 1.511 1_455 S
C937 C933 1.376 . S
C937 C936 1.392 . S
C937 H949 0.929 . S
C938 C934 1.531 . S
C938 H950 0.960 . S
C938 H951 0.962 . S
C938 H952 0.960 . S
C939 C936 1.511 1_655 S
C939 H953 0.961 . S
C939 H954 0.961 . S
C939 H955 0.961 . S
C940 C941 1.370 . S
C940 C942 1.363 . S
C940 H956 0.931 . S
C941 C940 1.370 . S
C941 C945 1.408 . S
C942 C940 1.363 . S
C942 C943 1.370 . S
C942 C946 1.524 . S
C943 C935 1.503 1_655 S
C943 C942 1.370 . S
C943 C944 1.403 . S
C944 C943 1.403 . S
C944 C945 1.404 . S
C944 C947 1.539 1_655 S
C945 C941 1.408 . S
C945 C944 1.404 . S
C945 H957 0.930 . S
C946 C942 1.524 . S
C946 H958 0.956 . S
C946 H959 0.961 . S
C946 H960 0.961 . S
C947 C944 1.539 1_455 S
C947 H961 0.958 . S
C947 H962 0.961 1_455 S
C947 H963 0.960 . S
H948 C932 0.931 . S
H949 C937 0.929 . S
H950 C938 0.960 . S
H951 C938 0.962 . S
H952 C938 0.960 . S
H953 C939 0.961 . S
H954 C939 0.961 . S
H955 C939 0.961 . S
H956 C940 0.931 . S
H957 C945 0.930 . S
H958 C946 0.956 . S
H959 C946 0.961 . S
H960 C946 0.961 . S
H961 C947 0.958 . S
H962 C947 0.961 1_655 S
H963 C947 0.960 . S
C964 C965 1.391 . S
C964 C966 1.394 1_545 S
C964 H980 0.931 . S
C965 C964 1.391 . S
C965 C969 1.376 . S
C966 C964 1.394 1_565 S
C966 C967 1.369 1_565 S
C966 C970 1.531 . S
C967 C966 1.369 1_545 S
C967 C968 1.410 . S
C967 C975 1.503 1_546 S
C968 C967 1.410 . S
C968 C969 1.392 . S
C968 C971 1.511 1_556 S
C969 C965 1.376 . S
C969 C968 1.392 . S
C969 H981 0.929 . S
C970 C966 1.531 . S
C970 H982 0.960 . S
C970 H983 0.962 . S
C970 H984 0.960 . S
C971 C968 1.511 1_554 S
C971 H985 0.961 . S
C971 H986 0.961 . S
C971 H987 0.961 . S
C972 C973 1.370 . S
C972 C974 1.363 . S
C972 H988 0.931 . S
C973 C972 1.370 . S
C973 C977 1.408 . S
C974 C972 1.363 . S
C974 C975 1.370 . S
C974 C978 1.524 1_565 S
C975 C967 1.503 1_564 S
C975 C974 1.370 . S
C975 C976 1.403 . S
C976 C975 1.403 . S
C976 C977 1.404 . S
C976 C979 1.539 . S
C977 C973 1.408 . S
C977 C976 1.404 . S
C977 H989 0.930 . S
C978 C974 1.524 1_545 S
C978 H990 0.956 . S
C978 H991 0.961 . S
C978 H992 0.961 . S
C979 C976 1.539 . S
C979 H993 0.958 1_554 S
C979 H994 0.961 . S
C979 H995 0.960 1_554 S
H980 C964 0.931 . S
H981 C969 0.929 . S
H982 C970 0.960 . S
H983 C970 0.962 . S
H984 C970 0.960 . S
H985 C971 0.961 . S
H986 C971 0.961 . S
H987 C971 0.961 . S
H988 C972 0.931 . S
H989 C977 0.930 . S
H990 C978 0.956 . S
H991 C978 0.961 . S
H992 C978 0.961 . S
H993 C979 0.958 1_556 S
H994 C979 0.961 . S
H995 C979 0.960 1_556 S
C996 C997 1.391 . S
C996 C998 1.394 . S
C996 H1012 0.931 . S
C997 C996 1.391 . S
C997 C1001 1.376 . S
C998 C996 1.394 . S
C998 C999 1.369 . S
C998 C1002 1.531 . S
C999 C998 1.369 . S
C999 C1000 1.410 . S
C999 C1007 1.503 . S
C1000 C999 1.410 . S
C1000 C1001 1.392 . S
C1000 C1003 1.511 . S
C1001 C997 1.376 . S
C1001 C1000 1.392 . S
C1001 H1013 0.929 . S
C1002 C998 1.531 . S
C1002 H1014 0.960 . S
C1002 H1015 0.962 . S
C1002 H1016 0.960 . S
C1003 C1000 1.511 . S
C1003 H1017 0.961 . S
C1003 H1018 0.961 . S
C1003 H1019 0.961 . S
C1004 C1005 1.370 . S
C1004 C1006 1.363 . S
C1004 H1020 0.931 . S
C1005 C1004 1.370 . S
C1005 C1009 1.408 . S
C1006 C1004 1.363 . S
C1006 C1007 1.370 . S
C1006 C1010 1.524 . S
C1007 C999 1.503 . S
C1007 C1006 1.370 . S
C1007 C1008 1.403 . S
C1008 C1007 1.403 . S
C1008 C1009 1.404 . S
C1008 C1011 1.539 . S
C1009 C1005 1.408 . S
C1009 C1008 1.404 . S
C1009 H1021 0.930 . S
C1010 C1006 1.524 . S
C1010 H1022 0.956 . S
C1010 H1023 0.961 . S
C1010 H1024 0.961 . S
C1011 C1008 1.539 . S
C1011 H1025 0.958 . S
C1011 H1026 0.961 . S
C1011 H1027 0.960 . S
H1012 C996 0.931 . S
H1013 C1001 0.929 . S
H1014 C1002 0.960 . S
H1015 C1002 0.962 . S
H1016 C1002 0.960 . S
H1017 C1003 0.961 . S
H1018 C1003 0.961 . S
H1019 C1003 0.961 . S
H1020 C1004 0.931 . S
H1021 C1009 0.930 . S
H1022 C1010 0.956 . S
H1023 C1010 0.961 . S
H1024 C1010 0.961 . S
H1025 C1011 0.958 . S
H1026 C1011 0.961 . S
H1027 C1011 0.960 . S
C1028 C1029 1.391 . S
C1028 C1030 1.394 . S
C1028 H1044 0.931 . S
C1029 C1028 1.391 . S
C1029 C1033 1.376 . S
C1030 C1028 1.394 . S
C1030 C1031 1.369 . S
C1030 C1034 1.531 1_554 S
C1031 C1030 1.369 . S
C1031 C1032 1.410 . S
C1031 C1039 1.503 1_454 S
C1032 C1031 1.410 . S
C1032 C1033 1.392 . S
C1032 C1035 1.511 . S
C1033 C1029 1.376 . S
C1033 C1032 1.392 . S
C1033 H1045 0.929 . S
C1034 C1030 1.531 1_556 S
C1034 H1046 0.960 . S
C1034 H1047 0.962 1_556 S
C1034 H1048 0.960 . S
C1035 C1032 1.511 . S
C1035 H1049 0.962 1_455 S
C1035 H1050 0.944 1_455 S
C1035 H1051 0.977 . S
C1036 C1037 1.370 . S
C1036 C1038 1.363 . S
C1036 H1052 0.931 . S
C1037 C1036 1.370 . S
C1037 C1041 1.408 . S
C1038 C1036 1.363 . S
C1038 C1039 1.370 . S
C1038 C1042 1.524 1_556 S
C1039 C1031 1.503 1_656 S
C1039 C1038 1.370 . S
C1039 C1040 1.403 1_655 S
C1040 C1039 1.403 1_455 S
C1040 C1041 1.404 1_455 S
C1040 C1043 1.539 . S
C1041 C1037 1.408 . S
C1041 C1040 1.404 1_655 S
C1041 H1053 0.930 . S
C1042 C1038 1.524 1_554 S
C1042 H1054 0.956 . S
C1042 H1055 0.961 . S
C1042 H1056 0.961 . S
C1043 C1040 1.539 . S
C1043 H1057 0.958 . S
C1043 H1058 0.961 . S
C1043 H1059 0.960 . S
H1044 C1028 0.931 . S
H1045 C1033 0.929 . S
H1046 C1034 0.960 . S
H1047 C1034 0.962 1_554 S
H1048 C1034 0.960 . S
H1049 C1035 0.962 1_655 S
H1050 C1035 0.944 1_655 S
H1051 C1035 0.977 . S
H1052 C1036 0.931 . S
H1053 C1041 0.930 . S
H1054 C1042 0.956 . S
H1055 C1042 0.961 . S
H1056 C1042 0.961 . S
H1057 C1043 0.958 . S
H1058 C1043 0.961 . S
H1059 C1043 0.960 . S
C1060 C1061 1.391 . S
C1060 C1062 1.394 . S
C1060 H1076 0.931 . S
C1061 C1060 1.391 . S
C1061 C1065 1.376 . S
C1062 C1060 1.394 . S
C1062 C1063 1.369 . S
C1062 C1066 1.531 1_545 S
C1063 C1062 1.369 . S
C1063 C1064 1.410 . S
C1063 C1071 1.503 1_545 S
C1064 C1063 1.410 . S
C1064 C1065 1.392 . S
C1064 C1067 1.511 . S
C1065 C1061 1.376 . S
C1065 C1064 1.392 . S
C1065 H1077 0.929 . S
C1066 C1062 1.531 1_565 S
C1066 H1078 0.960 . S
C1066 H1079 0.962 1_565 S
C1066 H1080 0.960 . S
C1067 C1064 1.511 . S
C1067 H1081 0.961 . S
C1067 H1082 0.961 . S
C1067 H1083 0.961 1_545 S
C1068 C1069 1.370 . S
C1068 C1070 1.363 . S
C1068 H1084 0.931 . S
C1069 C1068 1.370 . S
C1069 C1073 1.408 . S
C1070 C1068 1.363 . S
C1070 C1071 1.370 . S
C1070 C1074 1.524 1_565 S
C1071 C1063 1.503 1_565 S
C1071 C1070 1.370 . S
C1071 C1072 1.403 . S
C1072 C1071 1.403 . S
C1072 C1073 1.404 . S
C1072 C1075 1.539 . S
C1073 C1069 1.408 . S
C1073 C1072 1.404 . S
C1073 H1085 0.930 . S
C1074 C1070 1.524 1_545 S
C1074 H1086 0.956 . S
C1074 H1087 0.961 . S
C1074 H1088 0.961 . S
C1075 C1072 1.539 . S
C1075 H1089 0.958 . S
C1075 H1090 0.961 . S
C1075 H1091 0.960 . S
H1076 C1060 0.931 . S
H1077 C1065 0.929 . S
H1078 C1066 0.960 . S
H1079 C1066 0.962 1_545 S
H1080 C1066 0.960 . S
H1081 C1067 0.961 . S
H1082 C1067 0.961 . S
H1083 C1067 0.961 1_565 S
H1084 C1068 0.931 . S
H1085 C1073 0.930 . S
H1086 C1074 0.956 . S
H1087 C1074 0.961 . S
H1088 C1074 0.961 . S
H1089 C1075 0.958 . S
H1090 C1075 0.961 . S
H1091 C1075 0.960 . S
C325 C32 1.998 . S
C333 C229 2.013 . S
C357 C302 1.981 . S
C365 C67 2.000 . S
C389 C13 2.014 . S
C397 C140 2.017 . S
C421 C86 1.997 . S
C429 C175 2.012 . S
C453 C248 1.988 . S
C461 C121 1.998 . S
C485 C283 1.996 . S
C493 C194 1.999 . S
C517 C22 1.066 . S
C525 C221 1.098 . S
C549 C59 1.070 . S
C557 C292 1.091 . S
C581 C5 1.142 . S
C589 C130 1.116 . S
C613 C76 1.083 . S
C621 C167 1.109 . S
C645 C113 1.150 . S
C653 C238 1.125 . S
C677 C275 1.091 . S
C685 C184 1.113 . S
C709 C10 2.583 . S
C717 C280 2.586 . S
C741 C81 2.570 . S
C749 C27 2.592 . S
C773 C118 2.601 . S
C781 C64 2.585 . S
C805 C189 2.575 . S
C813 C135 2.589 . S
C837 C172 2.583 . S
C845 C226 2.596 . S
C869 C297 2.571 . S
C877 C243 2.597 . S
C901 C190 0.712 . S
C909 C136 0.700 . S
C933 C251 0.641 . S
C941 C197 0.669 . S
C965 C298 0.734 . S
C973 C244 0.706 . S
C997 C305 0.735 . S
C1005 C35 0.707 . S
C1029 C28 0.666 . S
C1037 C82 0.680 . S
C1061 C89 0.705 . S
C1069 C143 0.692 . S
