# Generated by pormake.
# Topology wjh, (4)-cn, num edge types: 1
# Building blocks:
#     Node 0, Type 0, BuildingBlock: AZAVOO_clean_sbu_0, # of connection points: 4
#     Node 1, Type 0, BuildingBlock: AZAVOO_clean_sbu_0, # of connection points: 4
#     Node 2, Type 0, BuildingBlock: AZAVOO_clean_sbu_0, # of connection points: 4
#     Node 3, Type 0, BuildingBlock: AZAVOO_clean_sbu_0, # of connection points: 4
#     Node 4, Type 0, BuildingBlock: AZAVOO_clean_sbu_0, # of connection points: 4
#     Node 5, Type 0, BuildingBlock: AZAVOO_clean_sbu_0, # of connection points: 4
#     Node 6, Type 0, BuildingBlock: AZAVOO_clean_sbu_0, # of connection points: 4
#     Node 7, Type 0, BuildingBlock: AZAVOO_clean_sbu_0, # of connection points: 4
#     Node 8, Type 0, BuildingBlock: AZAVOO_clean_sbu_0, # of connection points: 4
#     Node 9, Type 0, BuildingBlock: AZAVOO_clean_sbu_0, # of connection points: 4
#     Node 10, Type 0, BuildingBlock: AZAVOO_clean_sbu_0, # of connection points: 4
#     Node 11, Type 0, BuildingBlock: AZAVOO_clean_sbu_0, # of connection points: 4
#     Edge 12, Type (0, 0), BuildingBlock: EYOCIG_clean_linker_4, # of connection points: 2
#     Edge 13, Type (0, 0), BuildingBlock: EYOCIG_clean_linker_4, # of connection points: 2
#     Edge 14, Type (0, 0), BuildingBlock: EYOCIG_clean_linker_4, # of connection points: 2
#     Edge 15, Type (0, 0), BuildingBlock: EYOCIG_clean_linker_4, # of connection points: 2
#     Edge 16, Type (0, 0), BuildingBlock: EYOCIG_clean_linker_4, # of connection points: 2
#     Edge 17, Type (0, 0), BuildingBlock: EYOCIG_clean_linker_4, # of connection points: 2
#     Edge 18, Type (0, 0), BuildingBlock: EYOCIG_clean_linker_4, # of connection points: 2
#     Edge 19, Type (0, 0), BuildingBlock: EYOCIG_clean_linker_4, # of connection points: 2
#     Edge 20, Type (0, 0), BuildingBlock: EYOCIG_clean_linker_4, # of connection points: 2
#     Edge 21, Type (0, 0), BuildingBlock: EYOCIG_clean_linker_4, # of connection points: 2
#     Edge 22, Type (0, 0), BuildingBlock: EYOCIG_clean_linker_4, # of connection points: 2
#     Edge 23, Type (0, 0), BuildingBlock: EYOCIG_clean_linker_4, # of connection points: 2
#     Edge 24, Type (0, 0), BuildingBlock: EYOCIG_clean_linker_4, # of connection points: 2
#     Edge 25, Type (0, 0), BuildingBlock: EYOCIG_clean_linker_4, # of connection points: 2
#     Edge 26, Type (0, 0), BuildingBlock: EYOCIG_clean_linker_4, # of connection points: 2
#     Edge 27, Type (0, 0), BuildingBlock: EYOCIG_clean_linker_4, # of connection points: 2
#     Edge 28, Type (0, 0), BuildingBlock: EYOCIG_clean_linker_4, # of connection points: 2
#     Edge 29, Type (0, 0), BuildingBlock: EYOCIG_clean_linker_4, # of connection points: 2
#     Edge 30, Type (0, 0), BuildingBlock: EYOCIG_clean_linker_4, # of connection points: 2
#     Edge 31, Type (0, 0), BuildingBlock: EYOCIG_clean_linker_4, # of connection points: 2
#     Edge 32, Type (0, 0), BuildingBlock: EYOCIG_clean_linker_4, # of connection points: 2
#     Edge 33, Type (0, 0), BuildingBlock: EYOCIG_clean_linker_4, # of connection points: 2
#     Edge 34, Type (0, 0), BuildingBlock: EYOCIG_clean_linker_4, # of connection points: 2
#     Edge 35, Type (0, 0), BuildingBlock: EYOCIG_clean_linker_4, # of connection points: 2
# Relax obj value: 0.172
# Max RMSD: 0.151
# Mean RMSD: 0.151
data_MOF--net-wjh--node1-AZAVOO_clean_sbu_0--edge1-EYOCIG_clean_linker_4
_symmetry_space_group_name_H-M    P1
_symmetry_Int_Tables_number       1
_symmetry_cell_setting            triclinic
loop_
_symmetry_equiv_pos_as_xyz
'x, y, z'
_cell_length_a     52.148238
_cell_length_b     52.13339
_cell_length_c     18.557466
_cell_angle_alpha  90.011022
_cell_angle_beta   89.999455
_cell_angle_gamma 119.95182
loop_
_atom_site_label
_atom_site_type_symbol
_atom_site_fract_x
_atom_site_fract_y
_atom_site_fract_z
_atom_type_partial_charge
Mg0 Mg 0.45085 0.10576 0.07678 0.0
O1 O 0.47757 0.10221 0.17167 0.0
O2 O 0.49054 0.06874 0.14029 0.0
Mg3 Mg 0.47124 0.05024 0.02879 0.0
C4 C 0.49053 0.08741 0.18468 0.0
C5 C 0.43258 0.15111 0.1076 0.0
O6 O 0.41098 0.13173 0.06695 0.0
O7 O 0.49297 0.13211 0.01082 0.0
O8 O 0.50111 0.0956 0.97611 0.0
O9 O 0.40864 0.06939 0.12239 0.0
O10 O 0.43726 0.06264 0.04566 0.0
C11 C 0.50727 0.12257 0.97462 0.0
C12 C 0.41414 0.05155 0.08587 0.0
O13 O 0.45415 0.14733 0.12314 0.0
Mg14 Mg 0.32346 0.46218 0.2432 0.0
O15 O 0.35427 0.48905 0.33704 0.0
O16 O 0.40052 0.50195 0.30435 0.0
Mg17 Mg 0.39907 0.48246 0.19266 0.0
C18 C 0.38206 0.502 0.34932 0.0
C19 C 0.26019 0.44331 0.28116 0.0
O20 O 0.25759 0.42068 0.24414 0.0
O21 O 0.33881 0.50416 0.1768 0.0
O22 O 0.38326 0.51223 0.14075 0.0
O23 O 0.31797 0.4201 0.28882 0.0
O24 O 0.35281 0.44849 0.2108 0.0
C25 C 0.36244 0.51839 0.1399 0.0
C26 C 0.34106 0.42549 0.25146 0.0
O27 O 0.28558 0.46569 0.29152 0.0
Mg28 Mg 0.83932 0.33397 0.40894 0.0
O29 O 0.84333 0.36466 0.50325 0.0
O30 O 0.87684 0.41091 0.47103 0.0
Mg31 Mg 0.89491 0.40958 0.35931 0.0
C32 C 0.85826 0.39242 0.51581 0.0
C33 C 0.7941 0.27061 0.44323 0.0
O34 O 0.81357 0.26797 0.40395 0.0
O35 O 0.81293 0.34971 0.34286 0.0
O36 O 0.84945 0.39413 0.30719 0.0
O37 O 0.87574 0.32811 0.45435 0.0
O38 O 0.88241 0.36321 0.37691 0.0
C39 C 0.82245 0.37341 0.30618 0.0
C40 C 0.89353 0.35125 0.41728 0.0
O41 O 0.79778 0.2961 0.45654 0.0
Mg42 Mg 0.48399 0.85018 0.57652 0.0
O43 O 0.45711 0.85362 0.67119 0.0
O44 O 0.44414 0.88709 0.63981 0.0
Mg45 Mg 0.46361 0.9057 0.52852 0.0
C46 C 0.4441 0.86838 0.68414 0.0
C47 C 0.50242 0.805 0.60846 0.0
O48 O 0.52434 0.82461 0.56896 0.0
O49 O 0.44196 0.82386 0.51017 0.0
O50 O 0.43382 0.86038 0.47556 0.0
O51 O 0.52612 0.88655 0.62254 0.0
O52 O 0.4976 0.89333 0.54559 0.0
C53 C 0.42768 0.83341 0.47395 0.0
C54 C 0.52066 0.9044 0.586 0.0
O55 O 0.48063 0.80858 0.62281 0.0
Mg56 Mg 0.61156 0.4944 0.74328 0.0
O57 O 0.58136 0.46739 0.83798 0.0
O58 O 0.53494 0.45453 0.80696 0.0
Mg59 Mg 0.53566 0.47409 0.69591 0.0
C60 C 0.55363 0.45441 0.85108 0.0
C61 C 0.67522 0.51223 0.77133 0.0
O62 O 0.67733 0.53351 0.72956 0.0
O63 O 0.59581 0.45246 0.67653 0.0
O64 O 0.55112 0.44431 0.64242 0.0
O65 O 0.61735 0.53645 0.78998 0.0
O66 O 0.58197 0.50803 0.7131 0.0
C67 C 0.57196 0.43819 0.64047 0.0
C68 C 0.59398 0.53102 0.75379 0.0
O69 O 0.64994 0.49104 0.78869 0.0
Mg70 Mg 0.09522 0.62229 0.90991 0.0
O71 O 0.09167 0.59154 1.00357 0.0
O72 O 0.05802 0.5453 0.97153 0.0
Mg73 Mg 0.03948 0.54668 0.8605 0.0
C74 C 0.0768 0.56377 0.01603 0.0
C75 C 0.14005 0.68559 0.94595 0.0
O76 O 0.12003 0.68819 0.90886 0.0
O77 O 0.1214 0.60665 0.84256 0.0
O78 O 0.08476 0.56218 0.80745 0.0
O79 O 0.05893 0.628 0.95683 0.0
O80 O 0.05204 0.59301 0.87871 0.0
C81 C 0.11174 0.58292 0.80589 0.0
C82 C 0.04103 0.60487 0.91983 0.0
O83 O 0.13689 0.66017 0.95707 0.0
Mg84 Mg 0.83958 0.49437 0.93768 0.0
O85 O 0.84351 0.46757 0.8436 0.0
O86 O 0.8769 0.45466 0.87605 0.0
Mg87 Mg 0.89496 0.47407 0.98777 0.0
C88 C 0.85838 0.45464 0.83117 0.0
C89 C 0.79501 0.51312 0.90057 0.0
O90 O 0.81494 0.53568 0.93785 0.0
O91 O 0.81303 0.45234 1.0039 0.0
O92 O 0.84945 0.44427 0.03978 0.0
O93 O 0.87611 0.53651 0.89217 0.0
O94 O 0.88262 0.50806 0.96993 0.0
C95 C 0.82248 0.4381 0.0407 0.0
C96 C 0.89383 0.5311 0.92942 0.0
O97 O 0.79815 0.49083 0.88967 0.0
Mg98 Mg 0.32317 0.85018 0.1055 0.0
O99 O 0.35358 0.85354 0.01108 0.0
O100 O 0.39993 0.88707 0.04263 0.0
Mg101 Mg 0.39895 0.90576 0.15375 0.0
C102 C 0.38134 0.86832 0.99828 0.0
C103 C 0.25961 0.80448 0.07583 0.0
O104 O 0.25733 0.82371 0.11702 0.0
O105 O 0.33888 0.82396 0.17228 0.0
O106 O 0.38346 0.86049 0.20699 0.0
O107 O 0.31737 0.88647 0.05903 0.0
O108 O 0.35263 0.89335 0.13622 0.0
C109 C 0.36266 0.83353 0.20866 0.0
C110 C 0.34063 0.90436 0.09558 0.0
O111 O 0.28497 0.80849 0.05947 0.0
Mg112 Mg 0.45074 0.3336 0.27203 0.0
O113 O 0.47787 0.36406 0.17789 0.0
O114 O 0.49077 0.41044 0.20953 0.0
Mg115 Mg 0.4711 0.40944 0.32064 0.0
C116 C 0.4909 0.39183 0.16516 0.0
C117 C 0.432 0.27009 0.23749 0.0
O118 O 0.40965 0.26769 0.27531 0.0
O119 O 0.4926 0.34911 0.33898 0.0
O120 O 0.50077 0.39376 0.37368 0.0
O121 O 0.40879 0.32807 0.22535 0.0
O122 O 0.43712 0.36315 0.30295 0.0
C123 C 0.50686 0.37289 0.37534 0.0
C124 C 0.41421 0.35133 0.26203 0.0
O125 O 0.45417 0.29544 0.22532 0.0
Mg126 Mg 0.09485 0.46108 0.43801 0.0
O127 O 0.09159 0.48799 0.34315 0.0
O128 O 0.05792 0.50077 0.37393 0.0
Mg129 Mg 0.03909 0.48125 0.48502 0.0
C130 C 0.07677 0.5009 0.32991 0.0
C131 C 0.14114 0.44372 0.41105 0.0
O132 O 0.12224 0.4226 0.45354 0.0
O133 O 0.12088 0.50308 0.50461 0.0
O134 O 0.08426 0.51116 0.53857 0.0
O135 O 0.0587 0.41894 0.39139 0.0
O136 O 0.0516 0.44735 0.46808 0.0
C137 C 0.11123 0.51734 0.54057 0.0
C138 C 0.0407 0.42434 0.42748 0.0
O139 O 0.13668 0.46461 0.3928 0.0
Mg140 Mg 0.61154 0.1058 0.6056 0.0
O141 O 0.58087 0.1022 0.51162 0.0
O142 O 0.53461 0.06864 0.54366 0.0
Mg143 Mg 0.5359 0.05015 0.65483 0.0
C144 C 0.5531 0.08735 0.4991 0.0
C145 C 0.67499 0.15146 0.57378 0.0
O146 O 0.67754 0.13217 0.61409 0.0
O147 O 0.59589 0.13204 0.67257 0.0
O148 O 0.55142 0.09548 0.7078 0.0
O149 O 0.61731 0.06948 0.55908 0.0
O150 O 0.58222 0.06264 0.63679 0.0
C151 C 0.57218 0.12246 0.70922 0.0
C152 C 0.59414 0.0516 0.59596 0.0
O153 O 0.64952 0.14748 0.55884 0.0
Mg154 Mg 0.48354 0.62215 0.77244 0.0
O155 O 0.45691 0.59173 0.67773 0.0
O156 O 0.4438 0.54533 0.70969 0.0
Mg157 Mg 0.46293 0.54632 0.82154 0.0
C158 C 0.44394 0.56397 0.66496 0.0
C159 C 0.50231 0.68567 0.73826 0.0
O160 O 0.52436 0.68804 0.77735 0.0
O161 O 0.44136 0.60665 0.83812 0.0
O162 O 0.43311 0.56205 0.87352 0.0
O163 O 0.52573 0.62775 0.72734 0.0
O164 O 0.49702 0.59261 0.80439 0.0
C165 C 0.427 0.58292 0.87458 0.0
C166 C 0.52016 0.60449 0.76423 0.0
O167 O 0.48032 0.66032 0.72504 0.0
C168 C 0.51748 0.09283 0.30928 0.0
C169 C 0.50496 0.09101 0.2531 0.0
C170 C 0.53127 0.0928 0.37498 0.0
C171 C 0.54205 0.09093 0.43097 0.0
C172 C 0.40378 0.52886 0.47392 0.0
C173 C 0.39312 0.51641 0.41765 0.0
C174 C 0.41736 0.5425 0.53996 0.0
C175 C 0.4297 0.55311 0.59636 0.0
C176 C 0.85324 0.4278 0.70652 0.0
C177 C 0.85501 0.44024 0.7628 0.0
C178 C 0.85321 0.41413 0.64054 0.0
C179 C 0.85493 0.40345 0.58424 0.0
C180 C 0.41692 0.86278 0.80847 0.0
C181 C 0.42955 0.86468 0.75242 0.0
C182 C 0.40304 0.86275 0.87408 0.0
C183 C 0.39226 0.86464 0.93007 0.0
C184 C 0.51823 0.41344 0.04104 0.0
C185 C 0.50554 0.40272 0.09701 0.0
C186 C 0.53211 0.42726 0.97542 0.0
C187 C 0.54284 0.43988 0.91939 0.0
C188 C 0.08241 0.52803 0.20552 0.0
C189 C 0.08052 0.51543 0.26158 0.0
C190 C 0.08236 0.54189 0.13993 0.0
C191 C 0.08044 0.55269 0.08404 0.0
C192 C 0.43079 0.22246 0.18597 0.0
C193 C 0.43122 0.24414 0.20964 0.0
C194 C 0.43093 0.19741 0.15828 0.0
C195 C 0.43157 0.17622 0.13498 0.0
C196 C 0.21281 0.44222 0.33401 0.0
C197 C 0.23441 0.44265 0.30979 0.0
C198 C 0.18774 0.44231 0.36168 0.0
C199 C 0.16641 0.44283 0.38442 0.0
C200 C 0.72262 0.19798 0.5228 0.0
C201 C 0.70091 0.1767 0.54618 0.0
C202 C 0.74771 0.22309 0.49509 0.0
C203 C 0.76891 0.24477 0.47135 0.0
C204 C 0.50384 0.75857 0.65909 0.0
C205 C 0.50331 0.77983 0.63581 0.0
C206 C 0.5038 0.73343 0.68671 0.0
C207 C 0.50321 0.71167 0.71036 0.0
C208 C 0.72335 0.51392 0.82084 0.0
C209 C 0.70144 0.51325 0.79808 0.0
C210 C 0.74858 0.51411 0.84833 0.0
C211 C 0.76982 0.51374 0.87227 0.0
C212 C 0.18648 0.73303 0.99798 0.0
C213 C 0.16524 0.71141 0.97412 0.0
C214 C 0.21167 0.75806 0.02564 0.0
C215 C 0.23351 0.7793 0.04869 0.0
C216 C 0.5614 0.15029 0.81095 0.0
C217 C 0.5698 0.14129 0.7618 0.0
C218 C 0.54601 0.15034 0.87325 0.0
C219 C 0.52856 0.14141 0.92225 0.0
C220 C 0.38832 0.57229 0.9759 0.0
C221 C 0.40575 0.58066 0.92684 0.0
C222 C 0.37297 0.55695 0.03834 0.0
C223 C 0.36463 0.53959 0.08754 0.0
C224 C 0.79452 0.39953 0.14226 0.0
C225 C 0.80352 0.41689 0.09307 0.0
C226 C 0.79454 0.38419 0.20471 0.0
C227 C 0.80355 0.37579 0.25383 0.0
C228 C 0.38896 0.80567 0.3725 0.0
C229 C 0.40641 0.81459 0.42151 0.0
C230 C 0.37354 0.80573 0.31028 0.0
C231 C 0.3651 0.81473 0.26122 0.0
C232 C 0.56097 0.3994 0.53904 0.0
C233 C 0.56946 0.4169 0.58796 0.0
C234 C 0.54552 0.38384 0.47692 0.0
C235 C 0.5281 0.3753 0.42785 0.0
C236 C 0.13901 0.55622 0.64184 0.0
C237 C 0.12996 0.53867 0.59302 0.0
C238 C 0.13924 0.57184 0.70399 0.0
C239 C 0.13047 0.58043 0.75322 0.0
C240 C 0.38079 -0.00646 0.09102 0.0
C241 C 0.39534 0.02013 0.09045 0.0
C242 C 0.36522 0.96237 0.08988 0.0
C243 C 0.35319 0.93577 0.09066 0.0
C244 C 0.38119 0.37637 0.25562 0.0
C245 C 0.39558 0.36415 0.25673 0.0
C246 C 0.36575 0.39212 0.25643 0.0
C247 C 0.35376 0.40674 0.25581 0.0
C248 C -0.01729 0.39108 0.42096 0.0
C249 C 0.0093 0.40555 0.42205 0.0
C250 C 0.95153 0.37565 0.42198 0.0
C251 C 0.92495 0.36375 0.42155 0.0
C252 C 0.55399 0.96242 0.59143 0.0
C253 C 0.53945 0.93582 0.59074 0.0
C254 C 0.56955 -0.00641 0.59035 0.0
C255 C 0.58157 0.02019 0.59109 0.0
C256 C 0.56916 0.56424 0.76036 0.0
C257 C 0.5813 0.54977 0.7592 0.0
C258 C 0.55349 0.57975 0.75947 0.0
C259 C 0.5389 0.59178 0.75999 0.0
C260 C -0.01698 0.58013 0.92586 0.0
C261 C 0.00962 0.59224 0.92499 0.0
C262 C 0.95185 0.56447 0.92475 0.0
C263 C 0.92526 0.54988 0.92517 0.0
loop_
_geom_bond_atom_site_label_1
_geom_bond_atom_site_label_2
_geom_bond_distance
_geom_bond_site_symmetry_2
_ccdc_geom_bond_type
Mg0 O1 2.028 . S
Mg0 O7 1.986 . S
Mg0 O9 2.114 . S
Mg0 O10 2.251 . S
Mg0 O13 2.010 . S
O1 Mg0 2.028 . S
O1 C4 1.250 . S
O2 Mg3 2.028 . S
O2 C4 1.248 . S
Mg3 O2 2.028 . S
Mg3 O8 2.027 1_554 S
Mg3 O10 2.079 . S
C4 O1 1.250 . S
C4 O2 1.248 . S
C5 O6 1.264 . S
C5 O13 1.249 . S
O6 C5 1.264 . S
O7 Mg0 1.986 . S
O7 C11 1.246 1_554 S
O8 Mg3 2.027 1_556 S
O8 C11 1.262 . S
O9 Mg0 2.114 . S
O9 C12 1.252 . S
O10 Mg0 2.251 . S
O10 Mg3 2.079 . S
O10 C12 1.273 . S
C11 O7 1.246 1_556 S
C11 O8 1.262 . S
C12 O9 1.252 . S
C12 O10 1.273 . S
O13 Mg0 2.010 . S
O13 C5 1.249 . S
Mg14 O15 2.028 . S
Mg14 O21 1.986 . S
Mg14 O23 2.114 . S
Mg14 O24 2.251 . S
Mg14 O27 2.010 . S
O15 Mg14 2.028 . S
O15 C18 1.250 . S
O16 Mg17 2.028 . S
O16 C18 1.248 . S
Mg17 O16 2.028 . S
Mg17 O22 2.032 . S
Mg17 O24 2.079 . S
C18 O15 1.250 . S
C18 O16 1.248 . S
C19 O20 1.264 . S
C19 O27 1.249 . S
O20 C19 1.264 . S
O21 Mg14 1.986 . S
O21 C25 1.246 . S
O22 Mg17 2.032 . S
O22 C25 1.259 . S
O23 Mg14 2.114 . S
O23 C26 1.252 . S
O24 Mg14 2.251 . S
O24 Mg17 2.079 . S
O24 C26 1.273 . S
C25 O21 1.246 . S
C25 O22 1.259 . S
C26 O23 1.252 . S
C26 O24 1.273 . S
O27 Mg14 2.010 . S
O27 C19 1.249 . S
Mg28 O29 2.028 . S
Mg28 O35 1.986 . S
Mg28 O37 2.114 . S
Mg28 O38 2.251 . S
Mg28 O41 2.010 . S
O29 Mg28 2.028 . S
O29 C32 1.250 . S
O30 Mg31 2.028 . S
O30 C32 1.248 . S
Mg31 O30 2.028 . S
Mg31 O36 2.032 . S
Mg31 O38 2.079 . S
C32 O29 1.250 . S
C32 O30 1.248 . S
C33 O34 1.264 . S
C33 O41 1.249 . S
O34 C33 1.264 . S
O35 Mg28 1.986 . S
O35 C39 1.246 . S
O36 Mg31 2.032 . S
O36 C39 1.259 . S
O37 Mg28 2.114 . S
O37 C40 1.252 . S
O38 Mg28 2.251 . S
O38 Mg31 2.079 . S
O38 C40 1.273 . S
C39 O35 1.246 . S
C39 O36 1.259 . S
C40 O37 1.252 . S
C40 O38 1.273 . S
O41 Mg28 2.010 . S
O41 C33 1.249 . S
Mg42 O43 2.028 . S
Mg42 O49 1.986 . S
Mg42 O51 2.114 . S
Mg42 O52 2.251 . S
Mg42 O55 2.010 . S
O43 Mg42 2.028 . S
O43 C46 1.250 . S
O44 Mg45 2.028 . S
O44 C46 1.248 . S
Mg45 O44 2.028 . S
Mg45 O50 2.032 . S
Mg45 O52 2.079 . S
C46 O43 1.250 . S
C46 O44 1.248 . S
C47 O48 1.264 . S
C47 O55 1.249 . S
O48 C47 1.264 . S
O49 Mg42 1.986 . S
O49 C53 1.246 . S
O50 Mg45 2.032 . S
O50 C53 1.259 . S
O51 Mg42 2.114 . S
O51 C54 1.252 . S
O52 Mg42 2.251 . S
O52 Mg45 2.079 . S
O52 C54 1.273 . S
C53 O49 1.246 . S
C53 O50 1.259 . S
C54 O51 1.252 . S
C54 O52 1.273 . S
O55 Mg42 2.010 . S
O55 C47 1.249 . S
Mg56 O57 2.028 . S
Mg56 O63 1.986 . S
Mg56 O65 2.114 . S
Mg56 O66 2.251 . S
Mg56 O69 2.010 . S
O57 Mg56 2.028 . S
O57 C60 1.250 . S
O58 Mg59 2.028 . S
O58 C60 1.248 . S
Mg59 O58 2.028 . S
Mg59 O64 2.032 . S
Mg59 O66 2.079 . S
C60 O57 1.250 . S
C60 O58 1.248 . S
C61 O62 1.264 . S
C61 O69 1.249 . S
O62 C61 1.264 . S
O63 Mg56 1.986 . S
O63 C67 1.246 . S
O64 Mg59 2.032 . S
O64 C67 1.259 . S
O65 Mg56 2.114 . S
O65 C68 1.252 . S
O66 Mg56 2.251 . S
O66 Mg59 2.079 . S
O66 C68 1.273 . S
C67 O63 1.246 . S
C67 O64 1.259 . S
C68 O65 1.252 . S
C68 O66 1.273 . S
O69 Mg56 2.010 . S
O69 C61 1.249 . S
Mg70 O71 2.028 . S
Mg70 O77 1.986 . S
Mg70 O79 2.114 . S
Mg70 O80 2.251 . S
Mg70 O83 2.010 . S
O71 Mg70 2.028 . S
O71 C74 1.250 1_556 S
O72 Mg73 2.028 . S
O72 C74 1.248 1_556 S
Mg73 O72 2.028 . S
Mg73 O78 2.032 . S
Mg73 O80 2.079 . S
C74 O71 1.250 1_554 S
C74 O72 1.248 1_554 S
C75 O76 1.264 . S
C75 O83 1.249 . S
O76 C75 1.264 . S
O77 Mg70 1.986 . S
O77 C81 1.246 . S
O78 Mg73 2.032 . S
O78 C81 1.259 . S
O79 Mg70 2.114 . S
O79 C82 1.252 . S
O80 Mg70 2.251 . S
O80 Mg73 2.079 . S
O80 C82 1.273 . S
C81 O77 1.246 . S
C81 O78 1.259 . S
C82 O79 1.252 . S
C82 O80 1.273 . S
O83 Mg70 2.010 . S
O83 C75 1.249 . S
Mg84 O85 2.028 . S
Mg84 O91 1.986 1_556 S
Mg84 O93 2.114 . S
Mg84 O94 2.251 . S
Mg84 O97 2.010 . S
O85 Mg84 2.028 . S
O85 C88 1.250 . S
O86 Mg87 2.028 . S
O86 C88 1.248 . S
Mg87 O86 2.028 . S
Mg87 O92 2.032 1_556 S
Mg87 O94 2.079 . S
C88 O85 1.250 . S
C88 O86 1.248 . S
C89 O90 1.264 . S
C89 O97 1.249 . S
O90 C89 1.264 . S
O91 Mg84 1.986 1_554 S
O91 C95 1.246 . S
O92 Mg87 2.032 1_554 S
O92 C95 1.259 . S
O93 Mg84 2.114 . S
O93 C96 1.252 . S
O94 Mg84 2.251 . S
O94 Mg87 2.079 . S
O94 C96 1.273 . S
C95 O91 1.246 . S
C95 O92 1.259 . S
C96 O93 1.252 . S
C96 O94 1.273 . S
O97 Mg84 2.010 . S
O97 C89 1.249 . S
Mg98 O99 2.028 . S
Mg98 O105 1.986 . S
Mg98 O107 2.114 . S
Mg98 O108 2.251 . S
Mg98 O111 2.010 . S
O99 Mg98 2.028 . S
O99 C102 1.250 1_554 S
O100 Mg101 2.028 . S
O100 C102 1.248 1_554 S
Mg101 O100 2.028 . S
Mg101 O106 2.032 . S
Mg101 O108 2.079 . S
C102 O99 1.250 1_556 S
C102 O100 1.248 1_556 S
C103 O104 1.264 . S
C103 O111 1.249 . S
O104 C103 1.264 . S
O105 Mg98 1.986 . S
O105 C109 1.246 . S
O106 Mg101 2.032 . S
O106 C109 1.259 . S
O107 Mg98 2.114 . S
O107 C110 1.252 . S
O108 Mg98 2.251 . S
O108 Mg101 2.079 . S
O108 C110 1.273 . S
C109 O105 1.246 . S
C109 O106 1.259 . S
C110 O107 1.252 . S
C110 O108 1.273 . S
O111 Mg98 2.010 . S
O111 C103 1.249 . S
Mg112 O113 2.028 . S
Mg112 O119 1.986 . S
Mg112 O121 2.114 . S
Mg112 O122 2.251 . S
Mg112 O125 2.010 . S
O113 Mg112 2.028 . S
O113 C116 1.250 . S
O114 Mg115 2.028 . S
O114 C116 1.248 . S
Mg115 O114 2.028 . S
Mg115 O120 2.032 . S
Mg115 O122 2.079 . S
C116 O113 1.250 . S
C116 O114 1.248 . S
C117 O118 1.264 . S
C117 O125 1.249 . S
O118 C117 1.264 . S
O119 Mg112 1.986 . S
O119 C123 1.246 . S
O120 Mg115 2.032 . S
O120 C123 1.259 . S
O121 Mg112 2.114 . S
O121 C124 1.252 . S
O122 Mg112 2.251 . S
O122 Mg115 2.079 . S
O122 C124 1.273 . S
C123 O119 1.246 . S
C123 O120 1.259 . S
C124 O121 1.252 . S
C124 O122 1.273 . S
O125 Mg112 2.010 . S
O125 C117 1.249 . S
Mg126 O127 2.028 . S
Mg126 O133 1.986 . S
Mg126 O135 2.114 . S
Mg126 O136 2.251 . S
Mg126 O139 2.010 . S
O127 Mg126 2.028 . S
O127 C130 1.250 . S
O128 Mg129 2.028 . S
O128 C130 1.248 . S
Mg129 O128 2.028 . S
Mg129 O134 2.032 . S
Mg129 O136 2.079 . S
C130 O127 1.250 . S
C130 O128 1.248 . S
C131 O132 1.264 . S
C131 O139 1.249 . S
O132 C131 1.264 . S
O133 Mg126 1.986 . S
O133 C137 1.246 . S
O134 Mg129 2.032 . S
O134 C137 1.259 . S
O135 Mg126 2.114 . S
O135 C138 1.252 . S
O136 Mg126 2.251 . S
O136 Mg129 2.079 . S
O136 C138 1.273 . S
C137 O133 1.246 . S
C137 O134 1.259 . S
C138 O135 1.252 . S
C138 O136 1.273 . S
O139 Mg126 2.010 . S
O139 C131 1.249 . S
Mg140 O141 2.028 . S
Mg140 O147 1.986 . S
Mg140 O149 2.114 . S
Mg140 O150 2.251 . S
Mg140 O153 2.010 . S
O141 Mg140 2.028 . S
O141 C144 1.250 . S
O142 Mg143 2.028 . S
O142 C144 1.248 . S
Mg143 O142 2.028 . S
Mg143 O148 2.032 . S
Mg143 O150 2.079 . S
C144 O141 1.250 . S
C144 O142 1.248 . S
C145 O146 1.264 . S
C145 O153 1.249 . S
O146 C145 1.264 . S
O147 Mg140 1.986 . S
O147 C151 1.246 . S
O148 Mg143 2.032 . S
O148 C151 1.259 . S
O149 Mg140 2.114 . S
O149 C152 1.252 . S
O150 Mg140 2.251 . S
O150 Mg143 2.079 . S
O150 C152 1.273 . S
C151 O147 1.246 . S
C151 O148 1.259 . S
C152 O149 1.252 . S
C152 O150 1.273 . S
O153 Mg140 2.010 . S
O153 C145 1.249 . S
Mg154 O155 2.028 . S
Mg154 O161 1.986 . S
Mg154 O163 2.114 . S
Mg154 O164 2.251 . S
Mg154 O167 2.010 . S
O155 Mg154 2.028 . S
O155 C158 1.250 . S
O156 Mg157 2.028 . S
O156 C158 1.248 . S
Mg157 O156 2.028 . S
Mg157 O162 2.032 . S
Mg157 O164 2.079 . S
C158 O155 1.250 . S
C158 O156 1.248 . S
C159 O160 1.264 . S
C159 O167 1.249 . S
O160 C159 1.264 . S
O161 Mg154 1.986 . S
O161 C165 1.246 . S
O162 Mg157 2.032 . S
O162 C165 1.259 . S
O163 Mg154 2.114 . S
O163 C166 1.252 . S
O164 Mg154 2.251 . S
O164 Mg157 2.079 . S
O164 C166 1.273 . S
C165 O161 1.246 . S
C165 O162 1.259 . S
C166 O163 1.252 . S
C166 O164 1.273 . S
O167 Mg154 2.010 . S
O167 C159 1.249 . S
C168 C169 1.170 . S
C168 C170 1.380 . S
C169 C168 1.170 . S
C170 C168 1.380 . S
C170 C171 1.170 . S
C171 C170 1.170 . S
C172 C173 1.170 . S
C172 C174 1.380 . S
C173 C172 1.170 . S
C174 C172 1.380 . S
C174 C175 1.170 . S
C175 C174 1.170 . S
C176 C177 1.170 . S
C176 C178 1.380 . S
C177 C176 1.170 . S
C178 C176 1.380 . S
C178 C179 1.170 . S
C179 C178 1.170 . S
C180 C181 1.170 . S
C180 C182 1.380 . S
C181 C180 1.170 . S
C182 C180 1.380 . S
C182 C183 1.170 . S
C183 C182 1.170 . S
C184 C185 1.170 . S
C184 C186 1.380 1_554 S
C185 C184 1.170 . S
C186 C184 1.380 1_556 S
C186 C187 1.170 . S
C187 C186 1.170 . S
C188 C189 1.170 . S
C188 C190 1.380 . S
C189 C188 1.170 . S
C190 C188 1.380 . S
C190 C191 1.170 . S
C191 C190 1.170 . S
C192 C193 1.170 . S
C192 C194 1.380 . S
C193 C192 1.170 . S
C194 C192 1.380 . S
C194 C195 1.170 . S
C195 C194 1.170 . S
C196 C197 1.170 . S
C196 C198 1.380 . S
C197 C196 1.170 . S
C198 C196 1.380 . S
C198 C199 1.170 . S
C199 C198 1.170 . S
C200 C201 1.170 . S
C200 C202 1.380 . S
C201 C200 1.170 . S
C202 C200 1.380 . S
C202 C203 1.170 . S
C203 C202 1.170 . S
C204 C205 1.170 . S
C204 C206 1.380 . S
C205 C204 1.170 . S
C206 C204 1.380 . S
C206 C207 1.170 . S
C207 C206 1.170 . S
C208 C209 1.170 . S
C208 C210 1.380 . S
C209 C208 1.170 . S
C210 C208 1.380 . S
C210 C211 1.170 . S
C211 C210 1.170 . S
C212 C213 1.170 . S
C212 C214 1.380 1_556 S
C213 C212 1.170 . S
C214 C212 1.380 1_554 S
C214 C215 1.170 . S
C215 C214 1.170 . S
C216 C217 1.170 . S
C216 C218 1.380 . S
C217 C216 1.170 . S
C218 C216 1.380 . S
C218 C219 1.170 . S
C219 C218 1.170 . S
C220 C221 1.170 . S
C220 C222 1.380 1_556 S
C221 C220 1.170 . S
C222 C220 1.380 1_554 S
C222 C223 1.170 . S
C223 C222 1.170 . S
C224 C225 1.170 . S
C224 C226 1.380 . S
C225 C224 1.170 . S
C226 C224 1.380 . S
C226 C227 1.170 . S
C227 C226 1.170 . S
C228 C229 1.170 . S
C228 C230 1.380 . S
C229 C228 1.170 . S
C230 C228 1.380 . S
C230 C231 1.170 . S
C231 C230 1.170 . S
C232 C233 1.170 . S
C232 C234 1.380 . S
C233 C232 1.170 . S
C234 C232 1.380 . S
C234 C235 1.170 . S
C235 C234 1.170 . S
C236 C237 1.170 . S
C236 C238 1.380 . S
C237 C236 1.170 . S
C238 C236 1.380 . S
C238 C239 1.170 . S
C239 C238 1.170 . S
C240 C241 1.170 . S
C240 C242 1.380 1_545 S
C241 C240 1.170 . S
C242 C240 1.380 1_565 S
C242 C243 1.170 . S
C243 C242 1.170 . S
C244 C245 1.170 . S
C244 C246 1.380 . S
C245 C244 1.170 . S
C246 C244 1.380 . S
C246 C247 1.170 . S
C247 C246 1.170 . S
C248 C249 1.170 . S
C248 C250 1.380 1_455 S
C249 C248 1.170 . S
C250 C248 1.380 1_655 S
C250 C251 1.170 . S
C251 C250 1.170 . S
C252 C253 1.170 . S
C252 C254 1.380 1_565 S
C253 C252 1.170 . S
C254 C252 1.380 1_545 S
C254 C255 1.170 . S
C255 C254 1.170 . S
C256 C257 1.170 . S
C256 C258 1.380 . S
C257 C256 1.170 . S
C258 C256 1.380 . S
C258 C259 1.170 . S
C259 C258 1.170 . S
C260 C261 1.170 . S
C260 C262 1.380 1_455 S
C261 C260 1.170 . S
C262 C260 1.380 1_655 S
C262 C263 1.170 . S
C263 C262 1.170 . S
C169 C4 1.597 . S
C171 C144 1.592 . S
C173 C18 1.604 . S
C175 C158 1.594 . S
C177 C88 1.626 . S
C179 C32 1.618 . S
C181 C46 1.626 . S
C183 C102 1.619 . S
C185 C116 1.626 . S
C187 C60 1.618 . S
C189 C130 1.624 . S
C191 C74 1.613 . S
C193 C117 1.166 . S
C195 C5 1.129 . S
C197 C19 1.191 . S
C199 C131 1.126 . S
C201 C145 1.159 . S
C203 C33 1.170 . S
C205 C47 1.149 . S
C207 C159 1.143 . S
C209 C61 1.121 . S
C211 C89 1.192 . S
C213 C75 1.183 . S
C215 C103 1.118 . S
C217 C151 1.383 . S
C219 C11 1.355 . S
C221 C165 1.366 . S
C223 C25 1.380 . S
C225 C95 1.367 . S
C227 C39 1.379 . S
C229 C53 1.343 . S
C231 C109 1.359 . S
C233 C67 1.370 . S
C235 C123 1.377 . S
C237 C137 1.361 . S
C239 C81 1.342 . S
C241 C12 1.220 . S
C243 C110 1.207 . S
C245 C124 1.237 . S
C247 C26 1.234 . S
C249 C138 1.239 . S
C251 C40 1.224 . S
C253 C54 1.225 . S
C255 C152 1.239 . S
C257 C68 1.232 . S
C259 C166 1.212 . S
C261 C82 1.209 . S
C263 C96 1.210 . S
