# Generated by pormake.
# Topology vby, (6)-cn, num edge types: 1
# Building blocks:
#     Node 0, Type 0, BuildingBlock: VOLQOD_clean_sbu_1, # of connection points: 6
#     Node 1, Type 0, BuildingBlock: VOLQOD_clean_sbu_1, # of connection points: 6
#     Node 2, Type 0, BuildingBlock: VOLQOD_clean_sbu_1, # of connection points: 6
#     Node 3, Type 0, BuildingBlock: VOLQOD_clean_sbu_1, # of connection points: 6
#     Node 4, Type 0, BuildingBlock: VOLQOD_clean_sbu_1, # of connection points: 6
#     Node 5, Type 0, BuildingBlock: VOLQOD_clean_sbu_1, # of connection points: 6
#     Node 6, Type 0, BuildingBlock: VOLQOD_clean_sbu_1, # of connection points: 6
#     Node 7, Type 0, BuildingBlock: VOLQOD_clean_sbu_1, # of connection points: 6
#     Edge 8, Type (0, 0), BuildingBlock: KIFKEQ_clean_linker_1, # of connection points: 2
#     Edge 9, Type (0, 0), BuildingBlock: KIFKEQ_clean_linker_1, # of connection points: 2
#     Edge 10, Type (0, 0), BuildingBlock: KIFKEQ_clean_linker_1, # of connection points: 2
#     Edge 11, Type (0, 0), BuildingBlock: KIFKEQ_clean_linker_1, # of connection points: 2
#     Edge 12, Type (0, 0), BuildingBlock: KIFKEQ_clean_linker_1, # of connection points: 2
#     Edge 13, Type (0, 0), BuildingBlock: KIFKEQ_clean_linker_1, # of connection points: 2
#     Edge 14, Type (0, 0), BuildingBlock: KIFKEQ_clean_linker_1, # of connection points: 2
#     Edge 15, Type (0, 0), BuildingBlock: KIFKEQ_clean_linker_1, # of connection points: 2
#     Edge 16, Type (0, 0), BuildingBlock: KIFKEQ_clean_linker_1, # of connection points: 2
#     Edge 17, Type (0, 0), BuildingBlock: KIFKEQ_clean_linker_1, # of connection points: 2
#     Edge 18, Type (0, 0), BuildingBlock: KIFKEQ_clean_linker_1, # of connection points: 2
#     Edge 19, Type (0, 0), BuildingBlock: KIFKEQ_clean_linker_1, # of connection points: 2
#     Edge 20, Type (0, 0), BuildingBlock: KIFKEQ_clean_linker_1, # of connection points: 2
#     Edge 21, Type (0, 0), BuildingBlock: KIFKEQ_clean_linker_1, # of connection points: 2
#     Edge 22, Type (0, 0), BuildingBlock: KIFKEQ_clean_linker_1, # of connection points: 2
#     Edge 23, Type (0, 0), BuildingBlock: KIFKEQ_clean_linker_1, # of connection points: 2
#     Edge 24, Type (0, 0), BuildingBlock: KIFKEQ_clean_linker_1, # of connection points: 2
#     Edge 25, Type (0, 0), BuildingBlock: KIFKEQ_clean_linker_1, # of connection points: 2
#     Edge 26, Type (0, 0), BuildingBlock: KIFKEQ_clean_linker_1, # of connection points: 2
#     Edge 27, Type (0, 0), BuildingBlock: KIFKEQ_clean_linker_1, # of connection points: 2
#     Edge 28, Type (0, 0), BuildingBlock: KIFKEQ_clean_linker_1, # of connection points: 2
#     Edge 29, Type (0, 0), BuildingBlock: KIFKEQ_clean_linker_1, # of connection points: 2
#     Edge 30, Type (0, 0), BuildingBlock: KIFKEQ_clean_linker_1, # of connection points: 2
#     Edge 31, Type (0, 0), BuildingBlock: KIFKEQ_clean_linker_1, # of connection points: 2
# Relax obj value: 0.082
# Max RMSD: 0.107
# Mean RMSD: 0.107
data_MOF--net-vby--node1-VOLQOD_clean_sbu_1--edge1-KIFKEQ_clean_linker_1
_symmetry_space_group_name_H-M    P1
_symmetry_Int_Tables_number       1
_symmetry_cell_setting            triclinic
loop_
_symmetry_equiv_pos_as_xyz
'x, y, z'
_cell_length_a     17.349342
_cell_length_b     65.934244
_cell_length_c     34.143831
_cell_angle_alpha  89.974078
_cell_angle_beta   90.09976
_cell_angle_gamma 90.081908
loop_
_atom_site_label
_atom_site_type_symbol
_atom_site_fract_x
_atom_site_fract_y
_atom_site_fract_z
_atom_type_partial_charge
O0 O 0.22644 0.37622 0.00161 0.0
Zn1 Zn 0.11111 0.37982 0.99288 0.0
O2 O 0.05093 0.36464 0.03162 0.0
Zn3 Zn -0.00318 0.34136 0.00781 0.0
Zn4 Zn 0.11976 0.35556 0.07249 0.0
Zn5 Zn 0.97691 0.3824 0.05554 0.0
O6 O 0.88046 0.34216 0.01839 0.0
O7 O 0.87163 0.37213 0.04764 0.0
O8 O 0.08455 0.36953 0.93935 0.0
O9 O 0.00744 0.34305 0.94927 0.0
O10 O 0.04611 0.31476 0.0254 0.0
O11 O 0.12722 0.32562 0.07127 0.0
O12 O 0.08892 0.36462 0.12631 0.0
O13 O 0.08255 0.40979 0.99278 0.0
O14 O -0.00998 0.38475 0.11345 0.0
O15 O 0.98103 0.40985 0.03229 0.0
C16 C 0.26302 0.37044 0.03206 0.0
C17 C 0.84034 0.35627 0.0338 0.0
C18 C 0.09819 0.31135 0.05103 0.0
C19 C 0.04315 0.35505 0.92634 0.0
C20 C 0.03598 0.37654 0.13771 0.0
C21 C 0.02594 0.41892 0.00871 0.0
O22 O 0.22761 0.36407 0.06221 0.0
O23 O 0.7323 0.61102 0.00188 0.0
Zn24 Zn 0.84716 0.60733 0.99377 0.0
O25 O 0.90586 0.62262 0.03289 0.0
Zn26 Zn 0.96049 0.64588 0.00941 0.0
Zn27 Zn 0.83619 0.63179 0.07329 0.0
Zn28 Zn 0.97989 0.60494 0.05711 0.0
O29 O 0.0771 0.64449 0.01893 0.0
O30 O 0.08522 0.6132 0.0427 0.0
O31 O 0.87481 0.61747 0.94018 0.0
O32 O 0.9494 0.64437 0.95074 0.0
O33 O 0.91285 0.67262 0.02707 0.0
O34 O 0.82946 0.66174 0.07167 0.0
O35 O 0.86835 0.62328 0.12754 0.0
O36 O 0.87423 0.57733 0.99455 0.0
O37 O 0.97335 0.60521 0.11565 0.0
O38 O 0.969 0.57671 0.03823 0.0
C39 C 0.69404 0.61718 0.03143 0.0
C40 C 0.11692 0.62915 0.02948 0.0
C41 C 0.85979 0.67603 0.05207 0.0
C42 C 0.91524 0.6322 0.92748 0.0
C43 C 0.92562 0.61294 0.13957 0.0
C44 C 0.92614 0.56776 0.01346 0.0
O45 O 0.72766 0.62367 0.06211 0.0
O46 O 0.22855 0.61179 0.56657 0.0
Zn47 Zn 0.11377 0.60775 0.57443 0.0
O48 O 0.05524 0.62314 0.53548 0.0
Zn49 Zn 0.00116 0.64641 0.55902 0.0
Zn50 Zn 0.12493 0.63237 0.49503 0.0
Zn51 Zn 0.98062 0.60551 0.51151 0.0
O52 O 0.88448 0.64517 0.54935 0.0
O53 O 0.87554 0.61373 0.52642 0.0
O54 O 0.08524 0.61756 0.62813 0.0
O55 O 0.01184 0.64466 0.61767 0.0
O56 O 0.04989 0.67317 0.54176 0.0
O57 O 0.13269 0.66234 0.49689 0.0
O58 O 0.09202 0.62394 0.4408 0.0
O59 O 0.08789 0.57763 0.57277 0.0
O60 O -0.01349 0.60601 0.45299 0.0
O61 O -0.00796 0.57712 0.5297 0.0
C62 C 0.26693 0.61784 0.53695 0.0
C63 C 0.84426 0.62978 0.53931 0.0
C64 C 0.103 0.67661 0.51677 0.0
C65 C 0.04516 0.63233 0.64089 0.0
C66 C 0.03422 0.6137 0.42894 0.0
C67 C 0.03585 0.56807 0.55387 0.0
O68 O 0.23343 0.62413 0.50608 0.0
O69 O 0.74848 0.37493 0.56081 0.0
Zn70 Zn 0.86319 0.37891 0.57032 0.0
O71 O 0.92442 0.36358 0.53228 0.0
Zn72 Zn 0.9784 0.3408 0.55743 0.0
Zn73 Zn 0.85761 0.35352 0.49113 0.0
Zn74 Zn -0.00152 0.38148 0.5084 0.0
O75 O 0.09451 0.34163 0.54684 0.0
O76 O 0.10394 0.37125 0.51623 0.0
O77 O 0.88818 0.36911 0.62453 0.0
O78 O 0.96691 0.34294 0.6157 0.0
O79 O 0.93014 0.31398 0.54104 0.0
O80 O 0.85556 0.32335 0.49129 0.0
O81 O 0.88679 0.36336 0.43753 0.0
O82 O 0.89073 0.40895 0.56968 0.0
O83 O -0.0151 0.38382 0.45052 0.0
O84 O -0.00618 0.40909 0.53126 0.0
C85 C 0.71252 0.36798 0.53108 0.0
C86 C 0.13486 0.3555 0.53071 0.0
C87 C 0.883 0.30967 0.51354 0.0
C88 C 0.92994 0.35487 0.63813 0.0
C89 C 0.93901 0.37558 0.42623 0.0
C90 C 0.94762 0.41819 0.5541 0.0
O91 O 0.74847 0.36081 0.50178 0.0
O92 O 0.7226 0.87635 0.0054 0.0
Zn93 Zn 0.6073 0.87929 -0.00396 0.0
O94 O 0.54771 0.86504 0.03647 0.0
Zn95 Zn 0.49052 0.84191 0.01437 0.0
Zn96 Zn 0.61746 0.85586 0.07679 0.0
Zn97 Zn 0.47646 0.88334 0.06109 0.0
O98 O 0.37529 0.84334 0.02652 0.0
O99 O 0.3698 0.87387 0.0537 0.0
O100 O 0.58167 0.86768 0.94302 0.0
O101 O 0.49715 0.84316 0.9558 0.0
O102 O 0.53974 0.81518 0.03123 0.0
O103 O 0.62646 0.82598 0.0744 0.0
O104 O 0.58675 0.86422 0.13104 0.0
O105 O 0.57816 0.90923 0.99406 0.0
O106 O 0.49088 0.88549 0.11913 0.0
O107 O 0.48278 0.91065 0.03733 0.0
C108 C 0.75935 0.87135 0.03631 0.0
C109 C 0.33678 0.85798 0.04106 0.0
C110 C 0.5949 0.81173 0.05513 0.0
C111 C 0.53578 0.85377 0.93161 0.0
C112 C 0.53564 0.87654 0.14302 0.0
C113 C 0.52502 0.91902 0.0116 0.0
O114 O 0.72436 0.86514 0.06671 0.0
O115 O 0.23838 0.1114 0.00286 0.0
Zn116 Zn 0.35308 0.10764 0.9947 0.0
O117 O 0.41213 0.12272 0.03393 0.0
Zn118 Zn 0.4669 0.14604 0.0108 0.0
Zn119 Zn 0.34263 0.13185 0.07443 0.0
Zn120 Zn 0.48612 0.10485 0.05769 0.0
O121 O 0.58338 0.14466 0.0205 0.0
O122 O 0.59153 0.11328 0.04377 0.0
O123 O 0.38068 0.11797 0.94134 0.0
O124 O 0.45601 0.1447 0.95216 0.0
O125 O 0.41909 0.17271 0.02851 0.0
O126 O 0.3359 0.16183 0.07321 0.0
O127 O 0.37465 0.12296 0.12839 0.0
O128 O 0.37961 0.07763 -0.00509 0.0
O129 O 0.47895 0.10463 0.11619 0.0
O130 O 0.4755 0.07674 0.03794 0.0
C131 C 0.20026 0.11748 0.0325 0.0
C132 C 0.62321 0.12931 0.0309 0.0
C133 C 0.36612 0.17613 0.05355 0.0
C134 C 0.42144 0.13267 0.9288 0.0
C135 C 0.43134 0.11234 0.14022 0.0
C136 C 0.43201 0.06795 0.01324 0.0
O137 O 0.23402 0.12383 0.06324 0.0
O138 O 0.72388 0.11302 0.56574 0.0
Zn139 Zn 0.60964 0.10903 0.57448 0.0
O140 O 0.5498 0.12439 0.53591 0.0
Zn141 Zn 0.49549 0.14731 0.56038 0.0
Zn142 Zn 0.61757 0.13437 0.49512 0.0
Zn143 Zn 0.47586 0.10644 0.51205 0.0
O144 O 0.37907 0.14588 0.55093 0.0
O145 O 0.37041 0.11504 0.52515 0.0
O146 O 0.58374 0.11892 0.62841 0.0
O147 O 0.50778 0.14559 0.61882 0.0
O148 O 0.5419 0.1742 0.54315 0.0
O149 O 0.61794 0.16453 0.49438 0.0
O150 O 0.58847 0.12439 0.44142 0.0
O151 O 0.58329 0.07897 0.57388 0.0
O152 O 0.48449 0.10588 0.45364 0.0
O153 O 0.48538 0.07831 0.53207 0.0
C154 C 0.76147 0.12046 0.53706 0.0
C155 C 0.33897 0.13084 0.53902 0.0
C156 C 0.5893 0.17837 0.51577 0.0
C157 C 0.54324 0.13348 0.64162 0.0
C158 C 0.53256 0.11345 0.42964 0.0
C159 C 0.52976 0.06939 0.55613 0.0
O160 O 0.72728 0.1278 0.50728 0.0
O161 O 0.24727 0.87631 0.56989 0.0
Zn162 Zn 0.36204 0.87981 0.5786 0.0
O163 O 0.42061 0.86517 0.53852 0.0
Zn164 Zn 0.47628 0.84174 0.56036 0.0
Zn165 Zn 0.35073 0.85628 0.49782 0.0
Zn166 Zn 0.49428 0.88322 0.51514 0.0
O167 O 0.59232 0.84315 0.54995 0.0
O168 O 0.59993 0.87494 0.52885 0.0
O169 O 0.38861 0.86851 0.6317 0.0
O170 O 0.46782 0.84283 0.61895 0.0
O171 O 0.42725 0.81511 0.54254 0.0
O172 O 0.34314 0.82629 0.49849 0.0
O173 O 0.38239 0.86547 0.44403 0.0
O174 O 0.38912 0.90994 0.57928 0.0
O175 O 0.48681 0.88377 0.45665 0.0
O176 O 0.48322 0.91115 0.53538 0.0
C177 C 0.20901 0.87055 0.53997 0.0
C178 C 0.63191 0.85875 0.5406 0.0
C179 C 0.37349 0.81186 0.51773 0.0
C180 C 0.4317 0.85402 0.64313 0.0
C181 C 0.43903 0.87619 0.43245 0.0
C182 C 0.44067 0.91977 0.56058 0.0
O183 O 0.24256 0.86439 0.50911 0.0
H184 H 0.36203 0.37364 0.96937 0.0
H185 H 0.35657 0.36299 0.09432 0.0
H186 H 0.50168 0.36791 0.96963 0.0
H187 H 0.49426 0.35694 0.09427 0.0
H188 H 0.74783 0.3744 0.08658 0.0
H189 H 0.60888 0.37769 0.08471 0.0
H190 H 0.59988 0.33975 0.98168 0.0
H191 H 0.7412 0.33665 0.98324 0.0
C192 C 0.39052 0.37025 -0.00315 0.0
C193 C 0.34817 0.36894 0.03186 0.0
C194 C 0.47017 0.36669 -0.00312 0.0
C195 C 0.50874 0.3619 0.03194 0.0
C196 C 0.46633 0.36076 0.06684 0.0
C197 C 0.38724 0.36425 0.06682 0.0
C198 C 0.71638 0.36653 0.06371 0.0
C199 C 0.75538 0.35526 0.03502 0.0
C200 C 0.63662 0.36839 0.06272 0.0
C201 C 0.59348 0.35904 0.03298 0.0
C202 C 0.63196 0.34728 0.00472 0.0
C203 C 0.71247 0.34528 0.00589 0.0
H204 H 0.21904 0.6612 0.03092 0.0
H205 H 0.20555 0.59613 0.01752 0.0
H206 H 0.36052 0.65912 0.02812 0.0
H207 H 0.3451 0.59413 0.01449 0.0
H208 H 0.59669 0.60055 0.9767 0.0
H209 H 0.45707 0.60516 0.97161 0.0
H210 H 0.46073 0.64305 0.07467 0.0
H211 H 0.59951 0.63846 0.08003 0.0
C212 C 0.24616 0.64656 0.02695 0.0
C213 C 0.20148 0.62883 0.02489 0.0
C214 C 0.32679 0.64534 0.02549 0.0
C215 C 0.36348 0.62644 0.0211 0.0
C216 C 0.31842 0.60889 0.01755 0.0
C217 C 0.23848 0.61006 0.01965 0.0
C218 C 0.56765 0.60979 -0.00168 0.0
C219 C 0.60915 0.61894 0.02897 0.0
C220 C 0.48791 0.61249 -0.00467 0.0
C221 C 0.44842 0.62461 0.02258 0.0
C222 C 0.48992 0.63389 0.05295 0.0
C223 C 0.5693 0.631 0.05626 0.0
H224 H 0.75504 0.59694 0.55262 0.0
H225 H 0.74269 0.66187 0.53663 0.0
H226 H 0.61544 0.59503 0.55552 0.0
H227 H 0.60115 0.65987 0.53931 0.0
H228 H 0.36196 0.63882 0.4879 0.0
H229 H 0.50077 0.64349 0.49337 0.0
H230 H 0.50339 0.6064 0.59758 0.0
H231 H 0.36382 0.6017 0.59236 0.0
C232 C 0.72234 0.61086 0.54992 0.0
C233 C 0.75969 0.62956 0.54398 0.0
C234 C 0.64237 0.60975 0.55193 0.0
C235 C 0.59759 0.62727 0.5476 0.0
C236 C 0.63463 0.64611 0.54254 0.0
C237 C 0.7153 0.64729 0.54116 0.0
C238 C 0.39196 0.63155 0.51194 0.0
C239 C 0.35183 0.61968 0.53951 0.0
C240 C 0.47135 0.63449 0.51531 0.0
C241 C 0.51259 0.62544 0.54603 0.0
C242 C 0.4728 0.61353 0.57358 0.0
C243 C 0.39306 0.61079 0.57051 0.0
H244 H 0.61343 0.37262 0.59323 0.0
H245 H 0.61922 0.35902 0.46937 0.0
H246 H 0.47359 0.36725 0.59325 0.0
H247 H 0.48096 0.35346 0.46969 0.0
H248 H 0.22793 0.37276 0.47688 0.0
H249 H 0.36734 0.37536 0.47809 0.0
H250 H 0.37462 0.3387 0.5829 0.0
H251 H 0.23314 0.33618 0.58188 0.0
C252 C 0.58497 0.36864 0.56603 0.0
C253 C 0.62743 0.3664 0.53126 0.0
C254 C 0.50521 0.3653 0.56618 0.0
C255 C 0.46661 0.35985 0.53151 0.0
C256 C 0.50908 0.35776 0.4968 0.0
C257 C 0.5884 0.36098 0.49667 0.0
C258 C 0.25912 0.36503 0.5 0.0
C259 C 0.2197 0.35427 0.52933 0.0
C260 C 0.33907 0.36649 0.50061 0.0
C261 C 0.38178 0.35731 0.53066 0.0
C262 C 0.34282 0.34608 0.5596 0.0
C263 C 0.26221 0.34443 0.55876 0.0
H264 H 0.85303 0.86779 0.09974 0.0
H265 H 0.85814 0.87239 0.97343 0.0
H266 H -0.0087 0.86252 0.10078 0.0
H267 H -0.00183 0.8674 0.97469 0.0
H268 H 0.23677 0.83639 0.99421 0.0
H269 H 0.09573 0.83978 0.99198 0.0
H270 H 0.10604 0.88289 0.08708 0.0
H271 H 0.24492 0.87935 0.0897 0.0
C272 C 0.88379 0.8679 0.07215 0.0
C273 C 0.84452 0.8706 0.03648 0.0
C274 C 0.96314 0.86487 0.0728 0.0
C275 C 0.00543 0.86446 0.03781 0.0
C276 C 0.96669 0.86739 0.00206 0.0
C277 C 0.88685 0.87053 0.00139 0.0
C278 C 0.20845 0.84628 0.015 0.0
C279 C 0.25175 0.85758 0.04212 0.0
C280 C 0.12809 0.84843 0.0134 0.0
C281 C 0.0901 0.86168 0.03924 0.0
C282 C 0.13352 0.87245 0.06699 0.0
C283 C 0.21322 0.87044 0.0684 0.0
H284 H 0.10281 0.10113 0.97755 0.0
H285 H 0.10594 0.13859 0.08149 0.0
H286 H 0.96321 0.10577 0.97263 0.0
H287 H 0.96713 0.14321 0.07631 0.0
H288 H 0.72506 0.16142 0.03289 0.0
H289 H 0.86656 0.15942 0.03005 0.0
H290 H 0.85168 0.09448 0.01556 0.0
H291 H 0.71213 0.09637 0.01863 0.0
C292 C 0.07384 0.11028 -0.00066 0.0
C293 C 0.1154 0.11929 0.03012 0.0
C294 C -0.00589 0.11299 -0.00355 0.0
C295 C 0.95471 0.12498 0.02394 0.0
C296 C -0.00372 0.13414 0.05442 0.0
C297 C 0.07566 0.13123 0.05763 0.0
C298 C 0.75231 0.14681 0.02874 0.0
C299 C 0.70779 0.12905 0.02643 0.0
C300 C 0.83295 0.14564 0.02725 0.0
C301 C 0.86977 0.12677 0.02258 0.0
C302 C 0.82487 0.10921 0.01882 0.0
C303 C 0.74494 0.11032 0.02096 0.0
H304 H 0.23904 0.16328 0.5415 0.0
H305 H 0.24779 0.0978 0.54557 0.0
H306 H 0.09746 0.16168 0.54421 0.0
H307 H 0.10824 0.0963 0.5485 0.0
H308 H 0.85925 0.10205 0.58919 0.0
H309 H -0.00099 0.10625 0.59401 0.0
H310 H -0.00547 0.14774 0.49619 0.0
H311 H 0.85534 0.14358 0.49112 0.0
C312 C 0.21089 0.14864 0.54332 0.0
C313 C 0.25429 0.13069 0.5429 0.0
C314 C 0.1302 0.14771 0.54474 0.0
C315 C 0.09224 0.12885 0.54662 0.0
C316 C 0.13598 0.11102 0.54745 0.0
C317 C 0.21594 0.11192 0.5454 0.0
C318 C 0.88808 0.11204 0.56869 0.0
C319 C 0.84628 0.1223 0.53953 0.0
C320 C 0.96791 0.11448 0.57153 0.0
C321 C 0.00723 0.12742 0.5456 0.0
C322 C 0.96542 0.13789 0.51685 0.0
C323 C 0.88586 0.13527 0.51368 0.0
H324 H 0.72104 0.89161 0.55407 0.0
H325 H 0.73362 0.82673 0.53729 0.0
H326 H 0.86061 0.89353 0.55732 0.0
H327 H 0.8751 0.82876 0.54033 0.0
H328 H 0.11422 0.8501 0.48994 0.0
H329 H 0.97538 0.8455 0.49475 0.0
H330 H 0.97227 0.8818 0.59992 0.0
H331 H 0.11196 0.88642 0.59539 0.0
C332 C 0.75377 0.87771 0.55121 0.0
C333 C 0.71652 0.85901 0.54499 0.0
C334 C 0.83371 0.87883 0.55345 0.0
C335 C 0.87848 0.86132 0.54906 0.0
C336 C 0.84157 0.84249 0.54362 0.0
C337 C 0.76094 0.84131 0.54201 0.0
C338 C 0.08412 0.85722 0.51405 0.0
C339 C 0.12413 0.86883 0.54211 0.0
C340 C 0.00472 0.85431 0.51703 0.0
C341 C 0.96339 0.86315 0.54784 0.0
C342 C 0.00301 0.87483 0.57586 0.0
C343 C 0.08278 0.87753 0.57318 0.0
H344 H 0.05291 0.5461 0.03401 0.0
H345 H 0.83334 0.54043 0.97484 0.0
H346 H 0.0772 0.51027 0.02393 0.0
H347 H 0.85828 0.50422 0.96465 0.0
H348 H 0.89097 0.43897 0.01884 0.0
H349 H 0.86689 0.47506 0.01188 0.0
H350 H 0.1007 0.48399 0.97214 0.0
H351 H 0.12531 0.44757 0.97927 0.0
C352 C 0.00983 0.53722 0.01867 0.0
C353 C 0.94059 0.54606 0.00568 0.0
C354 C 0.02438 0.51672 0.01245 0.0
C355 C 0.96985 0.5045 0.99337 0.0
C356 C 0.90122 0.51334 0.97955 0.0
C357 C 0.88693 0.53401 0.98541 0.0
C358 C 0.93721 0.44856 0.00823 0.0
C359 C 0.01053 0.4405 0.00021 0.0
C360 C 0.923 0.46921 0.00383 0.0
C361 C 0.98195 0.48231 0.99162 0.0
C362 C 0.0544 0.47418 0.98189 0.0
C363 C 0.06845 0.45339 0.98589 0.0
H364 H 0.84717 0.4462 0.58455 0.0
H365 H 0.08011 0.43929 0.54186 0.0
H366 H 0.86911 0.48271 0.59199 0.0
H367 H 0.10151 0.47551 0.54914 0.0
H368 H 0.13216 0.54061 0.58968 0.0
H369 H 0.11043 0.50409 0.59767 0.0
H370 H 0.88832 0.5099 0.54151 0.0
H371 H 0.90948 0.54605 0.53361 0.0
C372 C 0.90315 0.45241 0.57721 0.0
C373 C 0.96147 0.43992 0.56211 0.0
C374 C 0.91566 0.47327 0.58139 0.0
C375 C -0.01302 0.48192 0.57103 0.0
C376 C 0.04627 0.46926 0.55772 0.0
C377 C 0.03359 0.44853 0.55316 0.0
C378 C 0.07856 0.53407 0.57935 0.0
C379 C 0.02304 0.54617 0.5606 0.0
C380 C 0.06614 0.51322 0.5839 0.0
C381 C -0.00243 0.5042 0.57029 0.0
C382 C 0.94122 0.51644 0.55275 0.0
C383 C 0.9539 0.53715 0.54782 0.0
H384 H 0.39247 0.93978 0.02371 0.0
H385 H 0.62344 0.94678 0.97836 0.0
H386 H 0.36994 0.97586 0.01541 0.0
H387 H 0.60044 0.98322 0.96993 0.0
H388 H 0.33599 0.04069 0.97662 0.0
H389 H 0.35898 0.00438 0.96674 0.0
H390 H 0.58279 0.0103 0.02114 0.0
H391 H 0.56035 0.04626 0.03094 0.0
C392 C 0.43825 0.94902 0.01155 0.0
C393 C 0.51025 0.94052 0.00227 0.0
C394 C 0.4249 0.96966 0.00637 0.0
C395 C 0.48345 0.98233 0.99213 0.0
C396 C 0.55448 0.97375 0.9812 0.0
C397 C 0.5676 0.95295 0.98595 0.0
C398 C 0.39026 0.03423 0.98611 0.0
C399 C 0.44579 0.04626 0.00508 0.0
C400 C 0.40344 0.0135 0.98043 0.0
C401 C 0.47277 0.00458 0.9931 0.0
C402 C 0.5293 0.0168 0.0106 0.0
C403 C 0.51587 0.03737 0.01668 0.0
H404 H 0.40126 0.04754 0.53865 0.0
H405 H 0.62652 0.04209 0.59198 0.0
H406 H 0.37932 0.01149 0.54814 0.0
H407 H 0.60404 0.00573 0.60153 0.0
H408 H 0.57134 0.94103 0.54609 0.0
H409 H 0.59254 0.97726 0.5529 0.0
H410 H 0.3628 0.98425 0.59943 0.0
H411 H 0.34116 0.94762 0.59258 0.0
C412 C 0.44604 0.03867 0.55263 0.0
C413 C 0.51619 0.04763 0.56407 0.0
C414 C 0.43292 0.01804 0.55849 0.0
C415 C 0.48985 0.00583 0.57562 0.0
C416 C 0.55928 0.01483 0.5881 0.0
C417 C 0.57215 0.0356 0.58262 0.0
C418 C 0.52536 0.95022 0.55809 0.0
C419 C 0.45406 0.94153 0.56828 0.0
C420 C 0.53797 0.97096 0.5624 0.0
C421 C 0.47936 0.98355 0.57665 0.0
C422 C 0.40882 0.97483 0.58817 0.0
C423 C 0.39647 0.95393 0.58432 0.0
H424 H 0.04262 0.27467 0.02463 0.0
H425 H 0.2367 0.30232 0.08388 0.0
H426 H 0.1095 0.24188 0.02636 0.0
H427 H 0.30303 0.26987 0.08471 0.0
H428 H 0.42336 0.21277 0.028 0.0
H429 H 0.35646 0.24556 0.02834 0.0
H430 H 0.15983 0.2177 0.08391 0.0
H431 H 0.22618 0.18525 0.08447 0.0
C432 C 0.09902 0.27375 0.03817 0.0
C433 C 0.13399 0.29107 0.0543 0.0
C434 C 0.13723 0.25505 0.03909 0.0
C435 C 0.21153 0.25353 0.05537 0.0
C436 C 0.24615 0.27075 0.07166 0.0
C437 C 0.20759 0.28927 0.07146 0.0
C438 C 0.3663 0.21372 0.04068 0.0
C439 C 0.33045 0.19644 0.0564 0.0
C440 C 0.32806 0.23241 0.04079 0.0
C441 C 0.25288 0.23397 0.05584 0.0
C442 C 0.21741 0.21679 0.07179 0.0
C443 C 0.25597 0.19828 0.07241 0.0
H444 H 0.73609 0.80244 0.08464 0.0
H445 H 0.53635 0.77519 0.02973 0.0
H446 H 0.80164 0.7699 0.08381 0.0
H447 H 0.60255 0.74231 0.0297 0.0
H448 H 0.72128 0.68533 0.08443 0.0
H449 H 0.65592 0.71789 0.08507 0.0
H450 H 0.85063 0.74554 0.02739 0.0
H451 H 0.91661 0.71263 0.02594 0.0
C452 C 0.70564 0.78946 0.0728 0.0
C453 C 0.63061 0.7914 0.05737 0.0
C454 C 0.74373 0.77089 0.07202 0.0
C455 C 0.70731 0.75373 0.05646 0.0
C456 C 0.6317 0.75541 0.04187 0.0
C457 C 0.59387 0.77416 0.04195 0.0
C458 C 0.75086 0.69832 0.07212 0.0
C459 C 0.82456 0.69639 0.05525 0.0
C460 C 0.71284 0.71691 0.0722 0.0
C461 C 0.74804 0.73408 0.05604 0.0
C462 C 0.82243 0.73241 0.04003 0.0
C463 C 0.86014 0.71365 0.03927 0.0
H464 H 0.24251 0.68573 0.48516 0.0
H465 H 0.04735 0.71327 0.54305 0.0
H466 H 0.30937 0.71815 0.48526 0.0
H467 H 0.11479 0.74603 0.5423 0.0
H468 H 0.23314 0.80296 0.48662 0.0
H469 H 0.16631 0.77053 0.48631 0.0
H470 H 0.36259 0.74226 0.54149 0.0
H471 H 0.43002 0.77502 0.54266 0.0
C472 C 0.21328 0.69875 0.49747 0.0
C473 C 0.13918 0.69692 0.51397 0.0
C474 C 0.25215 0.71726 0.49782 0.0
C475 C 0.21743 0.73446 0.51401 0.0
C476 C 0.14265 0.73289 0.52963 0.0
C477 C 0.1041 0.71421 0.52999 0.0
C478 C 0.26275 0.78985 0.49843 0.0
C479 C 0.33733 0.79157 0.51454 0.0
C480 C 0.2239 0.77134 0.49855 0.0
C481 C 0.25911 0.75403 0.51411 0.0
C482 C 0.33435 0.75549 0.52931 0.0
C483 C 0.3729 0.77417 0.52991 0.0
H484 H 0.88233 0.2797 0.56916 0.0
H485 H 0.80472 0.29347 0.45177 0.0
H486 H 0.8062 0.24847 0.56819 0.0
H487 H 0.72838 0.26248 0.45107 0.0
H488 H 0.66632 0.1942 0.45339 0.0
H489 H 0.74198 0.22529 0.45165 0.0
H490 H 0.66465 0.24018 0.56829 0.0
H491 H 0.58919 0.20884 0.5703 0.0
C492 C 0.85031 0.27589 0.54291 0.0
C493 C 0.8495 0.28908 0.51057 0.0
C494 C 0.80583 0.25817 0.54258 0.0
C495 C 0.76038 0.25322 0.50979 0.0
C496 C 0.76275 0.26589 0.47676 0.0
C497 C 0.80663 0.28363 0.47718 0.0
C498 C 0.66432 0.20426 0.47845 0.0
C499 C 0.62185 0.19902 0.51204 0.0
C500 C 0.7078 0.22206 0.47744 0.0
C501 C 0.71018 0.235 0.51006 0.0
C502 C 0.665 0.23027 0.543 0.0
C503 C 0.62089 0.21249 0.54391 0.0
H504 H 0.13413 0.36713 0.19768 0.0
H505 H 0.91084 0.39342 0.17334 0.0
H506 H 0.10917 0.36992 0.26779 0.0
H507 H 0.88621 0.39611 0.24346 0.0
H508 H 0.06221 0.39357 0.39069 0.0
H509 H 0.08628 0.39673 0.3206 0.0
H510 H 0.86582 0.369 0.29611 0.0
H511 H 0.84139 0.36574 0.36621 0.0
C512 C 0.08014 0.37368 0.20727 0.0
C513 C 0.0243 0.37993 0.18 0.0
C514 C 0.06609 0.37538 0.24735 0.0
C515 C -0.00433 0.38316 0.26086 0.0
C516 C 0.94069 0.38992 0.23369 0.0
C517 C 0.95506 0.38845 0.19361 0.0
C518 C 0.01838 0.38836 0.37041 0.0
C519 C 0.95006 0.37927 0.38397 0.0
C520 C 0.03243 0.39011 0.33034 0.0
C521 C 0.97805 0.38304 0.30313 0.0
C522 C 0.90842 0.3747 0.31659 0.0
C523 C 0.89469 0.37274 0.35667 0.0
H524 H 0.82968 0.62354 0.19972 0.0
H525 H 0.05336 0.59751 0.17572 0.0
H526 H 0.85683 0.62201 0.26979 0.0
H527 H 0.08001 0.59596 0.24578 0.0
H528 H 0.90582 0.59832 0.39322 0.0
H529 H 0.879 0.59634 0.32324 0.0
H530 H 0.10269 0.62206 0.29844 0.0
H531 H 0.13001 0.62403 0.36847 0.0
C532 C 0.88432 0.61735 0.20936 0.0
C533 C 0.93945 0.61073 0.18211 0.0
C534 C 0.89966 0.61639 0.24948 0.0
C535 C 0.97064 0.60894 0.26312 0.0
C536 C 0.02516 0.60197 0.23599 0.0
C537 C 0.00961 0.60276 0.1959 0.0
C538 C 0.94962 0.60342 0.37289 0.0
C539 C 0.02002 0.61141 0.38645 0.0
C540 C 0.93398 0.60237 0.33284 0.0
C541 C -0.01136 0.6091 0.3055 0.0
C542 C 0.05977 0.61661 0.31892 0.0
C543 C 0.0752 0.61783 0.35901 0.0
H544 H 0.98169 0.66389 0.88787 0.0
H545 H 0.87932 0.6047 0.87064 0.0
H546 H 0.01497 0.66522 0.8183 0.0
H547 H 0.913 0.6061 0.8015 0.0
H548 H 0.07817 0.60445 0.69751 0.0
H549 H 0.04412 0.60582 0.7666 0.0
H550 H 0.94695 0.66545 0.75015 0.0
H551 H 0.9806 0.66416 0.68063 0.0
C552 C 0.96565 0.65128 0.86925 0.0
C553 C 0.92824 0.63414 0.88485 0.0
C554 C -0.01543 0.65208 0.82949 0.0
C555 C 0.96732 0.63566 0.80482 0.0
C556 C 0.92791 0.61883 0.82011 0.0
C557 C 0.90816 0.61812 0.85965 0.0
C558 C 0.05029 0.61797 0.70857 0.0
C559 C 0.03172 0.63416 0.68349 0.0
C560 C 0.03032 0.61867 0.74808 0.0
C561 C -0.00781 0.63564 0.76346 0.0
C562 C 0.97635 0.6522 0.7389 0.0
C563 C -0.00452 0.65141 0.69917 0.0
H564 H -0.00666 0.3233 0.67904 0.0
H565 H 0.89098 0.38258 0.69391 0.0
H566 H 0.02171 0.32204 0.7492 0.0
H567 H 0.91986 0.38125 0.76371 0.0
H568 H 0.08087 0.38265 0.8701 0.0
H569 H 0.05023 0.38125 0.80056 0.0
H570 H 0.94755 0.32213 0.81607 0.0
H571 H 0.97767 0.32345 0.88608 0.0
C572 C 0.97632 0.33596 0.69727 0.0
C573 C 0.94034 0.3531 0.68091 0.0
C574 C -0.00763 0.33518 0.73735 0.0
C575 C 0.97364 0.35164 0.76154 0.0
C576 C 0.93571 0.36848 0.74545 0.0
C577 C 0.91877 0.36916 0.70556 0.0
C578 C 0.05245 0.36924 0.85875 0.0
C579 C 0.03134 0.35319 0.88366 0.0
C580 C 0.03445 0.36853 0.819 0.0
C581 C -0.00415 0.35169 0.80325 0.0
C582 C 0.97733 0.33528 0.82767 0.0
C583 C -0.00554 0.33608 0.86765 0.0
H584 H 0.41423 0.8947 0.17975 0.0
H585 H 0.63191 0.865 0.20243 0.0
H586 H 0.39085 0.897 0.25005 0.0
H587 H 0.60818 0.86736 0.27269 0.0
H588 H 0.56779 0.89112 0.3966 0.0
H589 H 0.59251 0.89369 0.32646 0.0
H590 H 0.36473 0.87034 0.30226 0.0
H591 H 0.33963 0.86771 0.37238 0.0
C592 C 0.4575 0.88887 0.19969 0.0
C593 C 0.52478 0.87956 0.18552 0.0
C594 C 0.44382 0.8901 0.23989 0.0
C595 C 0.49755 0.88228 0.26667 0.0
C596 C 0.56607 0.87364 0.25262 0.0
C597 C 0.57941 0.8722 0.21241 0.0
C598 C 0.52263 0.88671 0.37636 0.0
C599 C 0.45183 0.87911 0.39005 0.0
C600 C 0.53703 0.8881 0.33625 0.0
C601 C 0.48061 0.88216 0.30907 0.0
C602 C 0.40898 0.87517 0.32267 0.0
C603 C 0.39483 0.87356 0.36278 0.0
H604 H 0.55899 0.09685 0.17637 0.0
H605 H 0.33393 0.12209 0.2002 0.0
H606 H 0.58452 0.09478 0.24651 0.0
H607 H 0.3599 0.12002 0.27031 0.0
H608 H 0.40739 0.09659 0.39346 0.0
H609 H 0.38278 0.09403 0.32333 0.0
H610 H 0.60485 0.12096 0.29958 0.0
H611 H 0.62995 0.12353 0.36973 0.0
C612 C 0.51469 0.10179 0.19652 0.0
C613 C 0.44451 0.10973 0.1827 0.0
C614 C 0.52957 0.10069 0.23665 0.0
C615 C 0.47429 0.10729 0.26373 0.0
C616 C 0.40327 0.11466 0.25002 0.0
C617 C 0.38862 0.11595 0.20988 0.0
C618 C 0.45138 0.10179 0.37334 0.0
C619 C 0.5205 0.11038 0.38719 0.0
C620 C 0.43701 0.1004 0.33321 0.0
C621 C 0.49173 0.10738 0.30613 0.0
C622 C 0.56191 0.11533 0.31987 0.0
C623 C 0.57605 0.11689 0.36002 0.0
H624 H 0.48738 0.16451 0.88945 0.0
H625 H 0.38536 0.1053 0.87184 0.0
H626 H 0.51962 0.16609 0.81975 0.0
H627 H 0.41807 0.10695 0.80262 0.0
H628 H 0.58076 0.10581 0.69785 0.0
H629 H 0.5496 0.10708 0.76731 0.0
H630 H 0.44847 0.16633 0.75189 0.0
H631 H 0.47915 0.16513 0.68201 0.0
C632 C 0.47125 0.15194 0.87072 0.0
C633 C 0.43416 0.13473 0.88621 0.0
C634 C 0.48959 0.15289 0.83091 0.0
C635 C 0.47208 0.13654 0.80614 0.0
C636 C 0.43312 0.11963 0.82134 0.0
C637 C 0.41393 0.11877 0.86091 0.0
C638 C 0.55267 0.11923 0.70922 0.0
C639 C 0.53194 0.13531 0.68435 0.0
C640 C 0.53441 0.11987 0.74893 0.0
C641 C 0.49592 0.13669 0.76467 0.0
C642 C 0.47817 0.15319 0.74032 0.0
C643 C 0.49558 0.15246 0.7004 0.0
H644 H 0.55336 0.83536 0.6786 0.0
H645 H 0.33878 0.86605 0.70323 0.0
H646 H 0.57974 0.83299 0.74881 0.0
H647 H 0.36495 0.86331 0.77343 0.0
H648 H 0.41148 0.8363 0.89612 0.0
H649 H 0.38506 0.83405 0.82594 0.0
H650 H 0.60461 0.86208 0.80126 0.0
H651 H 0.63091 0.86469 0.87149 0.0
C652 C 0.51132 0.84132 0.69899 0.0
C653 C 0.44408 0.85096 0.68547 0.0
C654 C 0.52669 0.84003 0.73906 0.0
C655 C 0.47438 0.84799 0.76627 0.0
C656 C 0.40587 0.85696 0.7529 0.0
C657 C 0.39115 0.8586 0.71281 0.0
C658 C 0.45455 0.84177 0.87574 0.0
C659 C 0.52319 0.85075 0.88926 0.0
C660 C 0.43917 0.84056 0.83568 0.0
C661 C 0.4928 0.84792 0.80846 0.0
C662 C 0.56264 0.8562 0.82182 0.0
C663 C 0.57745 0.85777 0.86191 0.0
loop_
_geom_bond_atom_site_label_1
_geom_bond_atom_site_label_2
_geom_bond_distance
_geom_bond_site_symmetry_2
_ccdc_geom_bond_type
O0 Zn1 1.951 1_554 S
O0 C16 1.225 . S
Zn1 O0 1.951 1_556 S
Zn1 O2 1.936 1_556 S
Zn1 O8 1.936 . S
Zn1 O13 1.921 1_556 S
O2 Zn1 1.936 1_554 S
O2 Zn3 1.923 1_455 S
O2 Zn4 1.950 . S
O2 Zn5 1.945 1_455 S
Zn3 O2 1.923 1_655 S
Zn3 O6 1.933 . S
Zn3 O9 1.941 1_654 S
Zn3 O10 1.965 1_655 S
Zn4 O2 1.950 . S
Zn4 O11 1.938 . S
Zn4 O12 1.906 . S
Zn4 O22 1.953 . S
Zn5 O2 1.945 1_655 S
Zn5 O7 1.932 . S
Zn5 O14 1.977 . S
Zn5 O15 1.910 1_655 S
O6 Zn3 1.933 . S
O6 C17 1.226 . S
O7 Zn5 1.932 . S
O7 C17 1.307 . S
O8 Zn1 1.936 . S
O8 C19 1.253 . S
O9 Zn3 1.941 1_456 S
O9 C19 1.283 . S
O10 Zn3 1.965 1_455 S
O10 C18 1.303 . S
O11 Zn4 1.938 . S
O11 C18 1.247 . S
O12 Zn4 1.906 . S
O12 C20 1.304 . S
O13 Zn1 1.921 1_554 S
O13 C21 1.311 . S
O14 Zn5 1.977 . S
O14 C20 1.272 1_655 S
O15 Zn5 1.910 1_455 S
O15 C21 1.231 . S
C16 O0 1.225 . S
C16 O22 1.298 . S
C17 O6 1.226 . S
C17 O7 1.307 . S
C18 O10 1.303 . S
C18 O11 1.247 . S
C19 O8 1.253 . S
C19 O9 1.283 . S
C20 O12 1.304 . S
C20 O14 1.272 1_455 S
C21 O13 1.311 . S
C21 O15 1.231 . S
O22 Zn4 1.953 . S
O22 C16 1.298 . S
O23 Zn24 1.951 1_554 S
O23 C39 1.225 . S
Zn24 O23 1.951 1_556 S
Zn24 O25 1.936 1_556 S
Zn24 O31 1.936 . S
Zn24 O36 1.921 1_556 S
O25 Zn24 1.936 1_554 S
O25 Zn26 1.923 1_655 S
O25 Zn27 1.950 . S
O25 Zn28 1.945 1_655 S
Zn26 O25 1.923 1_455 S
Zn26 O29 1.933 . S
Zn26 O32 1.941 1_454 S
Zn26 O33 1.965 1_455 S
Zn27 O25 1.950 . S
Zn27 O34 1.938 . S
Zn27 O35 1.906 . S
Zn27 O45 1.953 . S
Zn28 O25 1.945 1_455 S
Zn28 O30 1.932 . S
Zn28 O37 1.977 . S
Zn28 O38 1.910 1_455 S
O29 Zn26 1.933 . S
O29 C40 1.226 . S
O30 Zn28 1.932 . S
O30 C40 1.307 . S
O31 Zn24 1.936 . S
O31 C42 1.253 . S
O32 Zn26 1.941 1_656 S
O32 C42 1.283 . S
O33 Zn26 1.965 1_655 S
O33 C41 1.303 . S
O34 Zn27 1.938 . S
O34 C41 1.247 . S
O35 Zn27 1.906 . S
O35 C43 1.304 . S
O36 Zn24 1.921 1_554 S
O36 C44 1.311 . S
O37 Zn28 1.977 . S
O37 C43 1.272 1_455 S
O38 Zn28 1.910 1_655 S
O38 C44 1.231 . S
C39 O23 1.225 . S
C39 O45 1.298 . S
C40 O29 1.226 . S
C40 O30 1.307 . S
C41 O33 1.303 . S
C41 O34 1.247 . S
C42 O31 1.253 . S
C42 O32 1.283 . S
C43 O35 1.304 . S
C43 O37 1.272 1_655 S
C44 O36 1.311 . S
C44 O38 1.231 . S
O45 Zn27 1.953 . S
O45 C39 1.298 . S
O46 Zn47 1.953 . S
O46 C62 1.225 . S
Zn47 O46 1.953 . S
Zn47 O48 1.949 . S
Zn47 O54 1.919 . S
Zn47 O59 1.924 . S
O48 Zn47 1.949 . S
O48 Zn49 1.923 1_455 S
O48 Zn50 1.950 . S
O48 Zn51 1.945 1_455 S
Zn49 O48 1.923 1_655 S
Zn49 O52 1.933 . S
Zn49 O55 1.941 1_655 S
Zn49 O56 1.965 1_655 S
Zn50 O48 1.950 . S
Zn50 O57 1.938 . S
Zn50 O58 1.906 . S
Zn50 O68 1.953 . S
Zn51 O48 1.945 1_655 S
Zn51 O53 1.932 . S
Zn51 O60 1.977 . S
Zn51 O61 1.910 1_655 S
O52 Zn49 1.933 . S
O52 C63 1.226 . S
O53 Zn51 1.932 . S
O53 C63 1.307 . S
O54 Zn47 1.919 . S
O54 C65 1.253 . S
O55 Zn49 1.941 1_455 S
O55 C65 1.283 . S
O56 Zn49 1.965 1_455 S
O56 C64 1.303 . S
O57 Zn50 1.938 . S
O57 C64 1.247 . S
O58 Zn50 1.906 . S
O58 C66 1.304 . S
O59 Zn47 1.924 . S
O59 C67 1.311 . S
O60 Zn51 1.977 . S
O60 C66 1.272 1_655 S
O61 Zn51 1.910 1_455 S
O61 C67 1.231 . S
C62 O46 1.225 . S
C62 O68 1.298 . S
C63 O52 1.226 . S
C63 O53 1.307 . S
C64 O56 1.303 . S
C64 O57 1.247 . S
C65 O54 1.253 . S
C65 O55 1.283 . S
C66 O58 1.304 . S
C66 O60 1.272 1_455 S
C67 O59 1.311 . S
C67 O61 1.231 . S
O68 Zn50 1.953 . S
O68 C62 1.298 . S
O69 Zn70 1.953 . S
O69 C85 1.225 . S
Zn70 O69 1.953 . S
Zn70 O71 1.949 . S
Zn70 O77 1.919 . S
Zn70 O82 1.924 . S
O71 Zn70 1.949 . S
O71 Zn72 1.923 1_655 S
O71 Zn73 1.950 . S
O71 Zn74 1.945 1_655 S
Zn72 O71 1.923 1_455 S
Zn72 O75 1.933 . S
Zn72 O78 1.941 1_455 S
Zn72 O79 1.965 1_455 S
Zn73 O71 1.950 . S
Zn73 O80 1.938 . S
Zn73 O81 1.906 . S
Zn73 O91 1.953 . S
Zn74 O71 1.945 1_455 S
Zn74 O76 1.932 . S
Zn74 O83 1.977 . S
Zn74 O84 1.910 1_455 S
O75 Zn72 1.933 . S
O75 C86 1.226 . S
O76 Zn74 1.932 . S
O76 C86 1.307 . S
O77 Zn70 1.919 . S
O77 C88 1.253 . S
O78 Zn72 1.941 1_655 S
O78 C88 1.283 . S
O79 Zn72 1.965 1_655 S
O79 C87 1.303 . S
O80 Zn73 1.938 . S
O80 C87 1.247 . S
O81 Zn73 1.906 . S
O81 C89 1.304 . S
O82 Zn70 1.924 . S
O82 C90 1.311 . S
O83 Zn74 1.977 . S
O83 C89 1.272 1_455 S
O84 Zn74 1.910 1_655 S
O84 C90 1.231 . S
C85 O69 1.225 . S
C85 O91 1.298 . S
C86 O75 1.226 . S
C86 O76 1.307 . S
C87 O79 1.303 . S
C87 O80 1.247 . S
C88 O77 1.253 . S
C88 O78 1.283 . S
C89 O81 1.304 . S
C89 O83 1.272 1_655 S
C90 O82 1.311 . S
C90 O84 1.231 . S
O91 Zn73 1.953 . S
O91 C85 1.298 . S
O92 Zn93 1.951 1_554 S
O92 C108 1.225 . S
Zn93 O92 1.951 1_556 S
Zn93 O94 1.936 1_556 S
Zn93 O100 1.936 . S
Zn93 O105 1.921 1_556 S
O94 Zn93 1.936 1_554 S
O94 Zn95 1.923 . S
O94 Zn96 1.950 . S
O94 Zn97 1.945 . S
Zn95 O94 1.923 . S
Zn95 O98 1.933 . S
Zn95 O101 1.941 1_554 S
Zn95 O102 1.965 . S
Zn96 O94 1.950 . S
Zn96 O103 1.938 . S
Zn96 O104 1.906 . S
Zn96 O114 1.953 . S
Zn97 O94 1.945 . S
Zn97 O99 1.932 . S
Zn97 O106 1.977 . S
Zn97 O107 1.910 . S
O98 Zn95 1.933 . S
O98 C109 1.226 . S
O99 Zn97 1.932 . S
O99 C109 1.307 . S
O100 Zn93 1.936 . S
O100 C111 1.253 . S
O101 Zn95 1.941 1_556 S
O101 C111 1.283 . S
O102 Zn95 1.965 . S
O102 C110 1.303 . S
O103 Zn96 1.938 . S
O103 C110 1.247 . S
O104 Zn96 1.906 . S
O104 C112 1.304 . S
O105 Zn93 1.921 1_554 S
O105 C113 1.311 . S
O106 Zn97 1.977 . S
O106 C112 1.272 . S
O107 Zn97 1.910 . S
O107 C113 1.231 . S
C108 O92 1.225 . S
C108 O114 1.298 . S
C109 O98 1.226 . S
C109 O99 1.307 . S
C110 O102 1.303 . S
C110 O103 1.247 . S
C111 O100 1.253 . S
C111 O101 1.283 . S
C112 O104 1.304 . S
C112 O106 1.272 . S
C113 O105 1.311 . S
C113 O107 1.231 . S
O114 Zn96 1.953 . S
O114 C108 1.298 . S
O115 Zn116 1.951 1_554 S
O115 C131 1.225 . S
Zn116 O115 1.951 1_556 S
Zn116 O117 1.936 1_556 S
Zn116 O123 1.936 . S
Zn116 O128 1.921 1_556 S
O117 Zn116 1.936 1_554 S
O117 Zn118 1.923 . S
O117 Zn119 1.950 . S
O117 Zn120 1.945 . S
Zn118 O117 1.923 . S
Zn118 O121 1.933 . S
Zn118 O124 1.941 1_554 S
Zn118 O125 1.965 . S
Zn119 O117 1.950 . S
Zn119 O126 1.938 . S
Zn119 O127 1.906 . S
Zn119 O137 1.953 . S
Zn120 O117 1.945 . S
Zn120 O122 1.932 . S
Zn120 O129 1.977 . S
Zn120 O130 1.910 . S
O121 Zn118 1.933 . S
O121 C132 1.226 . S
O122 Zn120 1.932 . S
O122 C132 1.307 . S
O123 Zn116 1.936 . S
O123 C134 1.253 . S
O124 Zn118 1.941 1_556 S
O124 C134 1.283 . S
O125 Zn118 1.965 . S
O125 C133 1.303 . S
O126 Zn119 1.938 . S
O126 C133 1.247 . S
O127 Zn119 1.906 . S
O127 C135 1.304 . S
O128 Zn116 1.921 1_554 S
O128 C136 1.311 . S
O129 Zn120 1.977 . S
O129 C135 1.272 . S
O130 Zn120 1.910 . S
O130 C136 1.231 . S
C131 O115 1.225 . S
C131 O137 1.298 . S
C132 O121 1.226 . S
C132 O122 1.307 . S
C133 O125 1.303 . S
C133 O126 1.247 . S
C134 O123 1.253 . S
C134 O124 1.283 . S
C135 O127 1.304 . S
C135 O129 1.272 . S
C136 O128 1.311 . S
C136 O130 1.231 . S
O137 Zn119 1.953 . S
O137 C131 1.298 . S
O138 Zn139 1.953 . S
O138 C154 1.225 . S
Zn139 O138 1.953 . S
Zn139 O140 1.949 . S
Zn139 O146 1.919 . S
Zn139 O151 1.924 . S
O140 Zn139 1.949 . S
O140 Zn141 1.923 . S
O140 Zn142 1.950 . S
O140 Zn143 1.945 . S
Zn141 O140 1.923 . S
Zn141 O144 1.933 . S
Zn141 O147 1.941 . S
Zn141 O148 1.965 . S
Zn142 O140 1.950 . S
Zn142 O149 1.938 . S
Zn142 O150 1.906 . S
Zn142 O160 1.953 . S
Zn143 O140 1.945 . S
Zn143 O145 1.932 . S
Zn143 O152 1.977 . S
Zn143 O153 1.910 . S
O144 Zn141 1.933 . S
O144 C155 1.226 . S
O145 Zn143 1.932 . S
O145 C155 1.307 . S
O146 Zn139 1.919 . S
O146 C157 1.253 . S
O147 Zn141 1.941 . S
O147 C157 1.283 . S
O148 Zn141 1.965 . S
O148 C156 1.303 . S
O149 Zn142 1.938 . S
O149 C156 1.247 . S
O150 Zn142 1.906 . S
O150 C158 1.304 . S
O151 Zn139 1.924 . S
O151 C159 1.311 . S
O152 Zn143 1.977 . S
O152 C158 1.272 . S
O153 Zn143 1.910 . S
O153 C159 1.231 . S
C154 O138 1.225 . S
C154 O160 1.298 . S
C155 O144 1.226 . S
C155 O145 1.307 . S
C156 O148 1.303 . S
C156 O149 1.247 . S
C157 O146 1.253 . S
C157 O147 1.283 . S
C158 O150 1.304 . S
C158 O152 1.272 . S
C159 O151 1.311 . S
C159 O153 1.231 . S
O160 Zn142 1.953 . S
O160 C154 1.298 . S
O161 Zn162 1.953 . S
O161 C177 1.225 . S
Zn162 O161 1.953 . S
Zn162 O163 1.949 . S
Zn162 O169 1.919 . S
Zn162 O174 1.924 . S
O163 Zn162 1.949 . S
O163 Zn164 1.923 . S
O163 Zn165 1.950 . S
O163 Zn166 1.945 . S
Zn164 O163 1.923 . S
Zn164 O167 1.933 . S
Zn164 O170 1.941 . S
Zn164 O171 1.965 . S
Zn165 O163 1.950 . S
Zn165 O172 1.938 . S
Zn165 O173 1.906 . S
Zn165 O183 1.953 . S
Zn166 O163 1.945 . S
Zn166 O168 1.932 . S
Zn166 O175 1.977 . S
Zn166 O176 1.910 . S
O167 Zn164 1.933 . S
O167 C178 1.226 . S
O168 Zn166 1.932 . S
O168 C178 1.307 . S
O169 Zn162 1.919 . S
O169 C180 1.253 . S
O170 Zn164 1.941 . S
O170 C180 1.283 . S
O171 Zn164 1.965 . S
O171 C179 1.303 . S
O172 Zn165 1.938 . S
O172 C179 1.247 . S
O173 Zn165 1.906 . S
O173 C181 1.304 . S
O174 Zn162 1.924 . S
O174 C182 1.311 . S
O175 Zn166 1.977 . S
O175 C181 1.272 . S
O176 Zn166 1.910 . S
O176 C182 1.231 . S
C177 O161 1.225 . S
C177 O183 1.298 . S
C178 O167 1.226 . S
C178 O168 1.307 . S
C179 O171 1.303 . S
C179 O172 1.247 . S
C180 O169 1.253 . S
C180 O170 1.283 . S
C181 O173 1.304 . S
C181 O175 1.272 . S
C182 O174 1.311 . S
C182 O176 1.231 . S
O183 Zn165 1.953 . S
O183 C177 1.298 . S
H184 C192 0.950 1_556 S
H185 C197 0.950 . S
H186 C194 0.950 1_556 S
H187 C196 0.950 . S
H188 C198 0.950 . S
H189 C200 0.950 . S
H190 C202 0.950 1_556 S
H191 C203 0.950 1_556 S
C192 H184 0.950 1_554 S
C192 C193 1.386 . S
C192 C194 1.391 . S
C193 C192 1.386 . S
C193 C197 1.393 . S
C194 H186 0.950 1_554 S
C194 C192 1.391 . S
C194 C195 1.400 . S
C195 C194 1.400 . S
C195 C196 1.398 . S
C195 C201 1.491 . S
C196 H187 0.950 . S
C196 C195 1.398 . S
C196 C197 1.391 . S
C197 H185 0.950 . S
C197 C193 1.393 . S
C197 C196 1.391 . S
C198 H188 0.950 . S
C198 C199 1.386 . S
C198 C200 1.391 . S
C199 C198 1.386 . S
C199 C203 1.393 . S
C200 H189 0.950 . S
C200 C198 1.391 . S
C200 C201 1.400 . S
C201 C195 1.491 . S
C201 C200 1.400 . S
C201 C202 1.398 . S
C202 H190 0.950 1_554 S
C202 C201 1.398 . S
C202 C203 1.391 . S
C203 H191 0.950 1_554 S
C203 C199 1.393 . S
C203 C202 1.391 . S
H204 C212 0.950 . S
H205 C217 0.950 1_556 S
H206 C214 0.950 . S
H207 C216 0.953 . S
H208 C218 0.950 1_556 S
H209 C220 0.950 1_556 S
H210 C222 0.950 . S
H211 C223 0.950 . S
C212 H204 0.950 . S
C212 C213 1.386 . S
C212 C214 1.391 . S
C213 C212 1.386 . S
C213 C217 1.393 . S
C214 H206 0.950 . S
C214 C212 1.391 . S
C214 C215 1.400 . S
C215 C214 1.400 . S
C215 C216 1.398 . S
C215 C221 1.491 . S
C216 H207 0.953 . S
C216 C215 1.398 . S
C216 C217 1.391 . S
C217 H205 0.950 1_554 S
C217 C213 1.393 . S
C217 C216 1.391 . S
C218 H208 0.950 1_554 S
C218 C219 1.386 . S
C218 C220 1.391 . S
C219 C218 1.386 . S
C219 C223 1.393 . S
C220 H209 0.950 1_554 S
C220 C218 1.391 . S
C220 C221 1.400 . S
C221 C215 1.491 . S
C221 C220 1.400 . S
C221 C222 1.398 . S
C222 H210 0.950 . S
C222 C221 1.398 . S
C222 C223 1.391 . S
C223 H211 0.950 . S
C223 C219 1.393 . S
C223 C222 1.391 . S
H224 C232 0.950 . S
H225 C237 0.950 . S
H226 C234 0.950 . S
H227 C236 0.950 . S
H228 C238 0.950 . S
H229 C240 0.950 . S
H230 C242 0.950 . S
H231 C243 0.950 . S
C232 H224 0.950 . S
C232 C233 1.386 . S
C232 C234 1.391 . S
C233 C232 1.386 . S
C233 C237 1.393 . S
C234 H226 0.950 . S
C234 C232 1.391 . S
C234 C235 1.400 . S
C235 C234 1.400 . S
C235 C236 1.398 . S
C235 C241 1.491 . S
C236 H227 0.950 . S
C236 C235 1.398 . S
C236 C237 1.391 . S
C237 H225 0.950 . S
C237 C233 1.393 . S
C237 C236 1.391 . S
C238 H228 0.950 . S
C238 C239 1.386 . S
C238 C240 1.391 . S
C239 C238 1.386 . S
C239 C243 1.393 . S
C240 H229 0.950 . S
C240 C238 1.391 . S
C240 C241 1.400 . S
C241 C235 1.491 . S
C241 C240 1.400 . S
C241 C242 1.398 . S
C242 H230 0.950 . S
C242 C241 1.398 . S
C242 C243 1.391 . S
C243 H231 0.950 . S
C243 C239 1.393 . S
C243 C242 1.391 . S
H244 C252 0.950 . S
H245 C257 0.950 . S
H246 C254 0.950 . S
H247 C256 0.950 . S
H248 C258 0.950 . S
H249 C260 0.950 . S
H250 C262 0.950 . S
H251 C263 0.950 . S
C252 H244 0.950 . S
C252 C253 1.386 . S
C252 C254 1.391 . S
C253 C252 1.386 . S
C253 C257 1.393 . S
C254 H246 0.950 . S
C254 C252 1.391 . S
C254 C255 1.400 . S
C255 C254 1.400 . S
C255 C256 1.398 . S
C255 C261 1.491 . S
C256 H247 0.950 . S
C256 C255 1.398 . S
C256 C257 1.391 . S
C257 H245 0.950 . S
C257 C253 1.393 . S
C257 C256 1.391 . S
C258 H248 0.950 . S
C258 C259 1.386 . S
C258 C260 1.391 . S
C259 C258 1.386 . S
C259 C263 1.393 . S
C260 H249 0.950 . S
C260 C258 1.391 . S
C260 C261 1.400 . S
C261 C255 1.491 . S
C261 C260 1.400 . S
C261 C262 1.398 . S
C262 H250 0.950 . S
C262 C261 1.398 . S
C262 C263 1.391 . S
C263 H251 0.950 . S
C263 C259 1.393 . S
C263 C262 1.391 . S
H264 C272 0.950 . S
H265 C277 0.950 . S
H266 C274 0.950 1_455 S
H267 C276 0.950 . S
H268 C278 0.950 . S
H269 C280 0.950 . S
H270 C282 0.950 . S
H271 C283 0.950 . S
C272 H264 0.950 . S
C272 C273 1.386 . S
C272 C274 1.391 . S
C273 C272 1.386 . S
C273 C277 1.393 . S
C274 H266 0.950 1_655 S
C274 C272 1.391 . S
C274 C275 1.400 1_655 S
C275 C274 1.400 1_455 S
C275 C276 1.398 1_455 S
C275 C281 1.491 . S
C276 H267 0.950 . S
C276 C275 1.398 1_655 S
C276 C277 1.391 . S
C277 H265 0.950 . S
C277 C273 1.393 . S
C277 C276 1.391 . S
C278 H268 0.950 . S
C278 C279 1.386 . S
C278 C280 1.391 . S
C279 C278 1.386 . S
C279 C283 1.393 . S
C280 H269 0.950 . S
C280 C278 1.391 . S
C280 C281 1.400 . S
C281 C275 1.491 . S
C281 C280 1.400 . S
C281 C282 1.398 . S
C282 H270 0.950 . S
C282 C281 1.398 . S
C282 C283 1.391 . S
C283 H271 0.950 . S
C283 C279 1.393 . S
C283 C282 1.391 . S
H284 C292 0.950 . S
H285 C297 0.950 . S
H286 C294 0.950 1_655 S
H287 C296 0.950 . S
H288 C298 0.950 . S
H289 C300 0.950 . S
H290 C302 0.950 1_556 S
H291 C303 0.934 1_556 S
C292 H284 0.950 . S
C292 C293 1.386 . S
C292 C294 1.391 . S
C293 C292 1.386 . S
C293 C297 1.393 . S
C294 H286 0.950 1_455 S
C294 C292 1.391 . S
C294 C295 1.400 1_455 S
C295 C294 1.400 1_655 S
C295 C296 1.398 1_655 S
C295 C301 1.491 . S
C296 H287 0.950 . S
C296 C295 1.398 1_455 S
C296 C297 1.391 . S
C297 H285 0.950 . S
C297 C293 1.393 . S
C297 C296 1.391 . S
C298 H288 0.950 . S
C298 C299 1.386 . S
C298 C300 1.391 . S
C299 C298 1.386 . S
C299 C303 1.393 . S
C300 H289 0.950 . S
C300 C298 1.391 . S
C300 C301 1.400 . S
C301 C295 1.491 . S
C301 C300 1.400 . S
C301 C302 1.398 . S
C302 H290 0.950 1_554 S
C302 C301 1.398 . S
C302 C303 1.391 . S
C303 H291 0.934 1_554 S
C303 C299 1.393 . S
C303 C302 1.391 . S
H304 C312 0.950 . S
H305 C317 0.950 . S
H306 C314 0.950 . S
H307 C316 0.950 . S
H308 C318 0.950 . S
H309 C320 0.950 1_455 S
H310 C322 0.950 . S
H311 C323 0.950 . S
C312 H304 0.950 . S
C312 C313 1.386 . S
C312 C314 1.391 . S
C313 C312 1.386 . S
C313 C317 1.393 . S
C314 H306 0.950 . S
C314 C312 1.391 . S
C314 C315 1.400 . S
C315 C314 1.400 . S
C315 C316 1.398 . S
C315 C321 1.491 . S
C316 H307 0.950 . S
C316 C315 1.398 . S
C316 C317 1.391 . S
C317 H305 0.950 . S
C317 C313 1.393 . S
C317 C316 1.391 . S
C318 H308 0.950 . S
C318 C319 1.386 . S
C318 C320 1.391 . S
C319 C318 1.386 . S
C319 C323 1.393 . S
C320 H309 0.950 1_655 S
C320 C318 1.391 . S
C320 C321 1.400 1_655 S
C321 C315 1.491 . S
C321 C320 1.400 1_455 S
C321 C322 1.398 1_455 S
C322 H310 0.950 . S
C322 C321 1.398 1_655 S
C322 C323 1.391 . S
C323 H311 0.950 . S
C323 C319 1.393 . S
C323 C322 1.391 . S
H324 C332 0.950 . S
H325 C337 0.950 . S
H326 C334 0.950 . S
H327 C336 0.950 . S
H328 C338 0.950 . S
H329 C340 0.950 . S
H330 C342 0.950 1_655 S
H331 C343 0.950 . S
C332 H324 0.950 . S
C332 C333 1.386 . S
C332 C334 1.391 . S
C333 C332 1.386 . S
C333 C337 1.393 . S
C334 H326 0.950 . S
C334 C332 1.391 . S
C334 C335 1.400 . S
C335 C334 1.400 . S
C335 C336 1.398 . S
C335 C341 1.491 . S
C336 H327 0.950 . S
C336 C335 1.398 . S
C336 C337 1.391 . S
C337 H325 0.950 . S
C337 C333 1.393 . S
C337 C336 1.391 . S
C338 H328 0.950 . S
C338 C339 1.386 . S
C338 C340 1.391 . S
C339 C338 1.386 . S
C339 C343 1.393 . S
C340 H329 0.950 . S
C340 C338 1.391 . S
C340 C341 1.400 1_455 S
C341 C335 1.491 . S
C341 C340 1.400 1_655 S
C341 C342 1.398 1_655 S
C342 H330 0.950 1_455 S
C342 C341 1.398 1_455 S
C342 C343 1.391 . S
C343 H331 0.950 . S
C343 C339 1.393 . S
C343 C342 1.391 . S
H344 C352 0.950 1_455 S
H345 C357 0.950 1_556 S
H346 C354 0.950 . S
H347 C356 0.950 1_556 S
H348 C358 0.950 1_656 S
H349 C360 0.950 1_556 S
H350 C362 0.950 . S
H351 C363 0.950 . S
C352 H344 0.950 1_655 S
C352 C353 1.386 . S
C352 C354 1.391 1_655 S
C353 C352 1.386 . S
C353 C357 1.393 . S
C354 H346 0.950 . S
C354 C352 1.391 1_455 S
C354 C355 1.400 1_455 S
C355 C354 1.400 1_655 S
C355 C356 1.398 . S
C355 C361 1.491 1_655 S
C356 H347 0.950 1_554 S
C356 C355 1.398 . S
C356 C357 1.391 . S
C357 H345 0.950 1_554 S
C357 C353 1.393 . S
C357 C356 1.391 . S
C358 H348 0.950 1_454 S
C358 C359 1.386 . S
C358 C360 1.391 1_455 S
C359 C358 1.386 . S
C359 C363 1.393 . S
C360 H349 0.950 1_554 S
C360 C358 1.391 1_655 S
C360 C361 1.400 1_655 S
C361 C355 1.491 1_455 S
C361 C360 1.400 1_455 S
C361 C362 1.398 . S
C362 H350 0.950 . S
C362 C361 1.398 . S
C362 C363 1.391 . S
C363 H351 0.950 . S
C363 C359 1.393 . S
C363 C362 1.391 . S
H364 C372 0.950 . S
H365 C377 0.950 . S
H366 C374 0.950 . S
H367 C376 0.950 . S
H368 C378 0.950 . S
H369 C380 0.950 . S
H370 C382 0.950 . S
H371 C383 0.950 . S
C372 H364 0.950 . S
C372 C373 1.386 . S
C372 C374 1.391 . S
C373 C372 1.386 . S
C373 C377 1.393 1_655 S
C374 H366 0.950 . S
C374 C372 1.391 . S
C374 C375 1.400 . S
C375 C374 1.400 . S
C375 C376 1.398 1_655 S
C375 C381 1.491 1_655 S
C376 H367 0.950 . S
C376 C375 1.398 1_455 S
C376 C377 1.391 . S
C377 H365 0.950 . S
C377 C373 1.393 1_455 S
C377 C376 1.391 . S
C378 H368 0.950 . S
C378 C379 1.386 . S
C378 C380 1.391 . S
C379 C378 1.386 . S
C379 C383 1.393 1_455 S
C380 H369 0.950 . S
C380 C378 1.391 . S
C380 C381 1.400 . S
C381 C375 1.491 1_455 S
C381 C380 1.400 . S
C381 C382 1.398 1_455 S
C382 H370 0.950 . S
C382 C381 1.398 1_655 S
C382 C383 1.391 . S
C383 H371 0.950 . S
C383 C379 1.393 1_655 S
C383 C382 1.391 . S
H384 C392 0.950 . S
H385 C397 0.950 1_556 S
H386 C394 0.950 . S
H387 C396 0.950 1_556 S
H388 C398 0.950 1_556 S
H389 C400 0.950 1_556 S
H390 C402 0.950 . S
H391 C403 0.950 . S
C392 H384 0.950 . S
C392 C393 1.386 . S
C392 C394 1.391 . S
C393 C392 1.386 . S
C393 C397 1.393 . S
C394 H386 0.950 . S
C394 C392 1.391 . S
C394 C395 1.400 . S
C395 C394 1.400 . S
C395 C396 1.398 . S
C395 C401 1.491 1_565 S
C396 H387 0.950 1_554 S
C396 C395 1.398 . S
C396 C397 1.391 . S
C397 H385 0.950 1_554 S
C397 C393 1.393 . S
C397 C396 1.391 . S
C398 H388 0.950 1_554 S
C398 C399 1.386 . S
C398 C400 1.391 . S
C399 C398 1.386 . S
C399 C403 1.393 . S
C400 H389 0.950 1_554 S
C400 C398 1.391 . S
C400 C401 1.400 . S
C401 C395 1.491 1_545 S
C401 C400 1.400 . S
C401 C402 1.398 . S
C402 H390 0.950 . S
C402 C401 1.398 . S
C402 C403 1.391 . S
C403 H391 0.950 . S
C403 C399 1.393 . S
C403 C402 1.391 . S
H404 C412 0.950 . S
H405 C417 0.950 . S
H406 C414 0.950 . S
H407 C416 0.950 . S
H408 C418 0.950 . S
H409 C420 0.950 . S
H410 C422 0.950 . S
H411 C423 0.950 . S
C412 H404 0.950 . S
C412 C413 1.386 . S
C412 C414 1.391 . S
C413 C412 1.386 . S
C413 C417 1.393 . S
C414 H406 0.950 . S
C414 C412 1.391 . S
C414 C415 1.400 . S
C415 C414 1.400 . S
C415 C416 1.398 . S
C415 C421 1.491 1_545 S
C416 H407 0.950 . S
C416 C415 1.398 . S
C416 C417 1.391 . S
C417 H405 0.950 . S
C417 C413 1.393 . S
C417 C416 1.391 . S
C418 H408 0.950 . S
C418 C419 1.386 . S
C418 C420 1.391 . S
C419 C418 1.386 . S
C419 C423 1.393 . S
C420 H409 0.950 . S
C420 C418 1.391 . S
C420 C421 1.400 . S
C421 C415 1.491 1_565 S
C421 C420 1.400 . S
C421 C422 1.398 . S
C422 H410 0.950 . S
C422 C421 1.398 . S
C422 C423 1.391 . S
C423 H411 0.950 . S
C423 C419 1.393 . S
C423 C422 1.391 . S
H424 C432 0.960 . S
H425 C437 0.950 . S
H426 C434 0.950 . S
H427 C436 0.950 . S
H428 C438 0.950 . S
H429 C440 0.950 . S
H430 C442 0.950 . S
H431 C443 0.950 . S
C432 H424 0.960 . S
C432 C433 1.386 . S
C432 C434 1.391 . S
C433 C432 1.386 . S
C433 C437 1.393 . S
C434 H426 0.950 . S
C434 C432 1.391 . S
C434 C435 1.400 . S
C435 C434 1.400 . S
C435 C436 1.398 . S
C435 C441 1.491 . S
C436 H427 0.950 . S
C436 C435 1.398 . S
C436 C437 1.391 . S
C437 H425 0.950 . S
C437 C433 1.393 . S
C437 C436 1.391 . S
C438 H428 0.950 . S
C438 C439 1.386 . S
C438 C440 1.391 . S
C439 C438 1.386 . S
C439 C443 1.393 . S
C440 H429 0.950 . S
C440 C438 1.391 . S
C440 C441 1.400 . S
C441 C435 1.491 . S
C441 C440 1.400 . S
C441 C442 1.398 . S
C442 H430 0.950 . S
C442 C441 1.398 . S
C442 C443 1.391 . S
C443 H431 0.950 . S
C443 C439 1.393 . S
C443 C442 1.391 . S
H444 C452 0.950 . S
H445 C457 0.950 . S
H446 C454 0.950 . S
H447 C456 0.950 . S
H448 C458 0.950 . S
H449 C460 0.950 . S
H450 C462 0.950 . S
H451 C463 0.950 . S
C452 H444 0.950 . S
C452 C453 1.386 . S
C452 C454 1.391 . S
C453 C452 1.386 . S
C453 C457 1.393 . S
C454 H446 0.950 . S
C454 C452 1.391 . S
C454 C455 1.400 . S
C455 C454 1.400 . S
C455 C456 1.398 . S
C455 C461 1.491 . S
C456 H447 0.950 . S
C456 C455 1.398 . S
C456 C457 1.391 . S
C457 H445 0.950 . S
C457 C453 1.393 . S
C457 C456 1.391 . S
C458 H448 0.950 . S
C458 C459 1.386 . S
C458 C460 1.391 . S
C459 C458 1.386 . S
C459 C463 1.393 . S
C460 H449 0.950 . S
C460 C458 1.391 . S
C460 C461 1.400 . S
C461 C455 1.491 . S
C461 C460 1.400 . S
C461 C462 1.398 . S
C462 H450 0.950 . S
C462 C461 1.398 . S
C462 C463 1.391 . S
C463 H451 0.950 . S
C463 C459 1.393 . S
C463 C462 1.391 . S
H464 C472 0.950 . S
H465 C477 0.950 . S
H466 C474 0.950 . S
H467 C476 0.950 . S
H468 C478 0.950 . S
H469 C480 0.950 . S
H470 C482 0.950 . S
H471 C483 0.950 . S
C472 H464 0.950 . S
C472 C473 1.386 . S
C472 C474 1.391 . S
C473 C472 1.386 . S
C473 C477 1.393 . S
C474 H466 0.950 . S
C474 C472 1.391 . S
C474 C475 1.400 . S
C475 C474 1.400 . S
C475 C476 1.398 . S
C475 C481 1.491 . S
C476 H467 0.950 . S
C476 C475 1.398 . S
C476 C477 1.391 . S
C477 H465 0.950 . S
C477 C473 1.393 . S
C477 C476 1.391 . S
C478 H468 0.950 . S
C478 C479 1.386 . S
C478 C480 1.391 . S
C479 C478 1.386 . S
C479 C483 1.393 . S
C480 H469 0.950 . S
C480 C478 1.391 . S
C480 C481 1.400 . S
C481 C475 1.491 . S
C481 C480 1.400 . S
C481 C482 1.398 . S
C482 H470 0.950 . S
C482 C481 1.398 . S
C482 C483 1.391 . S
C483 H471 0.950 . S
C483 C479 1.393 . S
C483 C482 1.391 . S
H484 C492 0.950 . S
H485 C497 0.950 . S
H486 C494 0.950 . S
H487 C496 0.950 . S
H488 C498 0.950 . S
H489 C500 0.950 . S
H490 C502 0.950 . S
H491 C503 0.950 . S
C492 H484 0.950 . S
C492 C493 1.386 . S
C492 C494 1.391 . S
C493 C492 1.386 . S
C493 C497 1.393 . S
C494 H486 0.950 . S
C494 C492 1.391 . S
C494 C495 1.400 . S
C495 C494 1.400 . S
C495 C496 1.398 . S
C495 C501 1.491 . S
C496 H487 0.950 . S
C496 C495 1.398 . S
C496 C497 1.391 . S
C497 H485 0.950 . S
C497 C493 1.393 . S
C497 C496 1.391 . S
C498 H488 0.950 . S
C498 C499 1.386 . S
C498 C500 1.391 . S
C499 C498 1.386 . S
C499 C503 1.393 . S
C500 H489 0.950 . S
C500 C498 1.391 . S
C500 C501 1.400 . S
C501 C495 1.491 . S
C501 C500 1.400 . S
C501 C502 1.398 . S
C502 H490 0.950 . S
C502 C501 1.398 . S
C502 C503 1.391 . S
C503 H491 0.950 . S
C503 C499 1.393 . S
C503 C502 1.391 . S
H504 C512 0.950 . S
H505 C517 0.950 . S
H506 C514 0.950 . S
H507 C516 0.950 . S
H508 C518 0.950 . S
H509 C520 0.950 . S
H510 C522 0.950 . S
H511 C523 0.950 . S
C512 H504 0.950 . S
C512 C513 1.386 . S
C512 C514 1.391 . S
C513 C512 1.386 . S
C513 C517 1.393 1_455 S
C514 H506 0.950 . S
C514 C512 1.391 . S
C514 C515 1.400 . S
C515 C514 1.400 . S
C515 C516 1.398 1_455 S
C515 C521 1.491 1_455 S
C516 H507 0.950 . S
C516 C515 1.398 1_655 S
C516 C517 1.391 . S
C517 H505 0.950 . S
C517 C513 1.393 1_655 S
C517 C516 1.391 . S
C518 H508 0.950 . S
C518 C519 1.386 . S
C518 C520 1.391 . S
C519 C518 1.386 . S
C519 C523 1.393 1_655 S
C520 H509 0.950 . S
C520 C518 1.391 . S
C520 C521 1.400 . S
C521 C515 1.491 1_655 S
C521 C520 1.400 . S
C521 C522 1.398 1_655 S
C522 H510 0.950 . S
C522 C521 1.398 1_455 S
C522 C523 1.391 . S
C523 H511 0.950 . S
C523 C519 1.393 1_455 S
C523 C522 1.391 . S
H524 C532 0.950 . S
H525 C537 0.950 . S
H526 C534 0.950 . S
H527 C536 0.950 . S
H528 C538 0.950 . S
H529 C540 0.950 . S
H530 C542 0.950 . S
H531 C543 0.950 . S
C532 H524 0.950 . S
C532 C533 1.386 1_455 S
C532 C534 1.391 . S
C533 C532 1.386 1_655 S
C533 C537 1.393 . S
C534 H526 0.950 . S
C534 C532 1.391 . S
C534 C535 1.400 1_455 S
C535 C534 1.400 1_655 S
C535 C536 1.398 . S
C535 C541 1.491 1_655 S
C536 H527 0.950 . S
C536 C535 1.398 . S
C536 C537 1.391 . S
C537 H525 0.950 . S
C537 C533 1.393 . S
C537 C536 1.391 . S
C538 H528 0.950 . S
C538 C539 1.386 1_655 S
C538 C540 1.391 . S
C539 C538 1.386 1_455 S
C539 C543 1.393 . S
C540 H529 0.950 . S
C540 C538 1.391 . S
C540 C541 1.400 1_655 S
C541 C535 1.491 1_455 S
C541 C540 1.400 1_455 S
C541 C542 1.398 . S
C542 H530 0.950 . S
C542 C541 1.398 . S
C542 C543 1.391 . S
C543 H531 0.950 . S
C543 C539 1.393 . S
C543 C542 1.391 . S
H544 C552 0.950 . S
H545 C557 0.950 . S
H546 C554 0.950 . S
H547 C556 0.950 . S
H548 C558 0.950 . S
H549 C560 0.950 . S
H550 C562 0.950 . S
H551 C563 0.950 . S
C552 H544 0.950 . S
C552 C553 1.386 1_455 S
C552 C554 1.391 . S
C553 C552 1.386 1_655 S
C553 C557 1.393 . S
C554 H546 0.950 . S
C554 C552 1.391 . S
C554 C555 1.400 1_455 S
C555 C554 1.400 1_655 S
C555 C556 1.398 . S
C555 C561 1.491 1_655 S
C556 H547 0.950 . S
C556 C555 1.398 . S
C556 C557 1.391 . S
C557 H545 0.950 . S
C557 C553 1.393 . S
C557 C556 1.391 . S
C558 H548 0.950 . S
C558 C559 1.386 1_655 S
C558 C560 1.391 . S
C559 C558 1.386 1_455 S
C559 C563 1.393 . S
C560 H549 0.950 . S
C560 C558 1.391 . S
C560 C561 1.400 1_655 S
C561 C555 1.491 1_455 S
C561 C560 1.400 1_455 S
C561 C562 1.398 . S
C562 H550 0.950 . S
C562 C561 1.398 . S
C562 C563 1.391 . S
C563 H551 0.950 . S
C563 C559 1.393 . S
C563 C562 1.391 . S
H564 C572 0.950 . S
H565 C577 0.950 . S
H566 C574 0.950 . S
H567 C576 0.950 . S
H568 C578 0.950 . S
H569 C580 0.950 . S
H570 C582 0.950 . S
H571 C583 0.950 . S
C572 H564 0.950 . S
C572 C573 1.386 . S
C572 C574 1.391 . S
C573 C572 1.386 . S
C573 C577 1.393 1_655 S
C574 H566 0.950 . S
C574 C572 1.391 . S
C574 C575 1.400 . S
C575 C574 1.400 . S
C575 C576 1.398 1_655 S
C575 C581 1.491 1_655 S
C576 H567 0.950 . S
C576 C575 1.398 1_455 S
C576 C577 1.391 . S
C577 H565 0.950 . S
C577 C573 1.393 1_455 S
C577 C576 1.391 . S
C578 H568 0.950 . S
C578 C579 1.386 . S
C578 C580 1.391 . S
C579 C578 1.386 . S
C579 C583 1.393 1_455 S
C580 H569 0.950 . S
C580 C578 1.391 . S
C580 C581 1.400 . S
C581 C575 1.491 1_455 S
C581 C580 1.400 . S
C581 C582 1.398 1_455 S
C582 H570 0.950 . S
C582 C581 1.398 1_655 S
C582 C583 1.391 . S
C583 H571 0.950 . S
C583 C579 1.393 1_655 S
C583 C582 1.391 . S
H584 C592 0.950 . S
H585 C597 0.950 . S
H586 C594 0.950 . S
H587 C596 0.950 . S
H588 C598 0.950 . S
H589 C600 0.950 . S
H590 C602 0.950 . S
H591 C603 0.950 . S
C592 H584 0.950 . S
C592 C593 1.386 . S
C592 C594 1.391 . S
C593 C592 1.386 . S
C593 C597 1.393 . S
C594 H586 0.950 . S
C594 C592 1.391 . S
C594 C595 1.400 . S
C595 C594 1.400 . S
C595 C596 1.398 . S
C595 C601 1.491 . S
C596 H587 0.950 . S
C596 C595 1.398 . S
C596 C597 1.391 . S
C597 H585 0.950 . S
C597 C593 1.393 . S
C597 C596 1.391 . S
C598 H588 0.950 . S
C598 C599 1.386 . S
C598 C600 1.391 . S
C599 C598 1.386 . S
C599 C603 1.393 . S
C600 H589 0.950 . S
C600 C598 1.391 . S
C600 C601 1.400 . S
C601 C595 1.491 . S
C601 C600 1.400 . S
C601 C602 1.398 . S
C602 H590 0.950 . S
C602 C601 1.398 . S
C602 C603 1.391 . S
C603 H591 0.950 . S
C603 C599 1.393 . S
C603 C602 1.391 . S
H604 C612 0.950 . S
H605 C617 0.950 . S
H606 C614 0.950 . S
H607 C616 0.950 . S
H608 C618 0.950 . S
H609 C620 0.950 . S
H610 C622 0.950 . S
H611 C623 0.950 . S
C612 H604 0.950 . S
C612 C613 1.386 . S
C612 C614 1.391 . S
C613 C612 1.386 . S
C613 C617 1.393 . S
C614 H606 0.950 . S
C614 C612 1.391 . S
C614 C615 1.400 . S
C615 C614 1.400 . S
C615 C616 1.398 . S
C615 C621 1.491 . S
C616 H607 0.950 . S
C616 C615 1.398 . S
C616 C617 1.391 . S
C617 H605 0.950 . S
C617 C613 1.393 . S
C617 C616 1.391 . S
C618 H608 0.950 . S
C618 C619 1.386 . S
C618 C620 1.391 . S
C619 C618 1.386 . S
C619 C623 1.393 . S
C620 H609 0.950 . S
C620 C618 1.391 . S
C620 C621 1.400 . S
C621 C615 1.491 . S
C621 C620 1.400 . S
C621 C622 1.398 . S
C622 H610 0.950 . S
C622 C621 1.398 . S
C622 C623 1.391 . S
C623 H611 0.950 . S
C623 C619 1.393 . S
C623 C622 1.391 . S
H624 C632 0.950 . S
H625 C637 0.950 . S
H626 C634 0.950 . S
H627 C636 0.950 . S
H628 C638 0.950 . S
H629 C640 0.950 . S
H630 C642 0.950 . S
H631 C643 0.950 . S
C632 H624 0.950 . S
C632 C633 1.386 . S
C632 C634 1.391 . S
C633 C632 1.386 . S
C633 C637 1.393 . S
C634 H626 0.950 . S
C634 C632 1.391 . S
C634 C635 1.400 . S
C635 C634 1.400 . S
C635 C636 1.398 . S
C635 C641 1.491 . S
C636 H627 0.950 . S
C636 C635 1.398 . S
C636 C637 1.391 . S
C637 H625 0.950 . S
C637 C633 1.393 . S
C637 C636 1.391 . S
C638 H628 0.950 . S
C638 C639 1.386 . S
C638 C640 1.391 . S
C639 C638 1.386 . S
C639 C643 1.393 . S
C640 H629 0.950 . S
C640 C638 1.391 . S
C640 C641 1.400 . S
C641 C635 1.491 . S
C641 C640 1.400 . S
C641 C642 1.398 . S
C642 H630 0.950 . S
C642 C641 1.398 . S
C642 C643 1.391 . S
C643 H631 0.950 . S
C643 C639 1.393 . S
C643 C642 1.391 . S
H644 C652 0.950 . S
H645 C657 0.950 . S
H646 C654 0.950 . S
H647 C656 0.950 . S
H648 C658 0.950 . S
H649 C660 0.950 . S
H650 C662 0.950 . S
H651 C663 0.950 . S
C652 H644 0.950 . S
C652 C653 1.386 . S
C652 C654 1.391 . S
C653 C652 1.386 . S
C653 C657 1.393 . S
C654 H646 0.950 . S
C654 C652 1.391 . S
C654 C655 1.400 . S
C655 C654 1.400 . S
C655 C656 1.398 . S
C655 C661 1.491 . S
C656 H647 0.950 . S
C656 C655 1.398 . S
C656 C657 1.391 . S
C657 H645 0.950 . S
C657 C653 1.393 . S
C657 C656 1.391 . S
C658 H648 0.950 . S
C658 C659 1.386 . S
C658 C660 1.391 . S
C659 C658 1.386 . S
C659 C663 1.393 . S
C660 H649 0.950 . S
C660 C658 1.391 . S
C660 C661 1.400 . S
C661 C655 1.491 . S
C661 C660 1.400 . S
C661 C662 1.398 . S
C662 H650 0.950 . S
C662 C661 1.398 . S
C662 C663 1.391 . S
C663 H651 0.950 . S
C663 C659 1.393 . S
C663 C662 1.391 . S
C193 C16 1.306 . S
C199 C17 1.308 . S
C213 C40 1.298 . S
C219 C39 1.294 . S
C233 C63 1.308 . S
C239 C62 1.306 . S
C253 C85 1.305 . S
C259 C86 1.306 . S
C273 C108 1.300 . S
C279 C109 1.303 . S
C293 C131 1.304 . S
C299 C132 1.306 . S
C313 C155 1.299 . S
C319 C154 1.296 . S
C333 C178 1.308 . S
C339 C177 1.306 . S
C353 C44 1.520 . S
C359 C21 1.517 . S
C373 C90 1.498 . S
C379 C67 1.504 . S
C393 C113 1.521 . S
C399 C136 1.519 . S
C413 C159 1.518 . S
C419 C182 1.512 . S
C433 C18 1.476 . S
C439 C133 1.464 . S
C453 C110 1.461 . S
C459 C41 1.476 . S
C473 C64 1.464 . S
C479 C179 1.473 . S
C493 C87 1.474 . S
C499 C156 1.466 . S
C513 C20 1.435 . S
C519 C89 1.442 . S
C533 C43 1.439 . S
C539 C66 1.436 . S
C553 C42 1.447 . S
C559 C65 1.446 . S
C573 C88 1.446 . S
C579 C19 1.447 . S
C593 C112 1.449 . S
C599 C181 1.438 . S
C613 C135 1.450 . S
C619 C158 1.438 . S
C633 C134 1.446 . S
C639 C157 1.443 . S
C653 C180 1.442 . S
C659 C111 1.438 . S
