# Generated by pormake.
# Topology npo, (4)-cn, num edge types: 1
# Building blocks:
#     Node 0, Type 0, BuildingBlock: QUQFOY_clean_sbu_3, # of connection points: 4
#     Node 1, Type 0, BuildingBlock: QUQFOY_clean_sbu_3, # of connection points: 4
#     Node 2, Type 0, BuildingBlock: QUQFOY_clean_sbu_3, # of connection points: 4
#     Node 3, Type 0, BuildingBlock: QUQFOY_clean_sbu_3, # of connection points: 4
#     Node 4, Type 0, BuildingBlock: QUQFOY_clean_sbu_3, # of connection points: 4
#     Node 5, Type 0, BuildingBlock: QUQFOY_clean_sbu_3, # of connection points: 4
#     Edge 6, Type (0, 0), BuildingBlock: UVAHIK_clean_linker_0, # of connection points: 2
#     Edge 7, Type (0, 0), BuildingBlock: UVAHIK_clean_linker_0, # of connection points: 2
#     Edge 8, Type (0, 0), BuildingBlock: UVAHIK_clean_linker_0, # of connection points: 2
#     Edge 9, Type (0, 0), BuildingBlock: UVAHIK_clean_linker_0, # of connection points: 2
#     Edge 10, Type (0, 0), BuildingBlock: UVAHIK_clean_linker_0, # of connection points: 2
#     Edge 11, Type (0, 0), BuildingBlock: UVAHIK_clean_linker_0, # of connection points: 2
#     Edge 12, Type (0, 0), BuildingBlock: UVAHIK_clean_linker_0, # of connection points: 2
#     Edge 13, Type (0, 0), BuildingBlock: UVAHIK_clean_linker_0, # of connection points: 2
#     Edge 14, Type (0, 0), BuildingBlock: UVAHIK_clean_linker_0, # of connection points: 2
#     Edge 15, Type (0, 0), BuildingBlock: UVAHIK_clean_linker_0, # of connection points: 2
#     Edge 16, Type (0, 0), BuildingBlock: UVAHIK_clean_linker_0, # of connection points: 2
#     Edge 17, Type (0, 0), BuildingBlock: UVAHIK_clean_linker_0, # of connection points: 2
# Relax obj value: 0.290
# Max RMSD: 0.250
# Mean RMSD: 0.240
data_MOF--net-npo--node1-QUQFOY_clean_sbu_3--edge1-UVAHIK_clean_linker_0
_symmetry_space_group_name_H-M    P1
_symmetry_Int_Tables_number       1
_symmetry_cell_setting            triclinic
loop_
_symmetry_equiv_pos_as_xyz
'x, y, z'
_cell_length_a     58.542992
_cell_length_b     57.428343
_cell_length_c     32.163524
_cell_angle_alpha  91.662045
_cell_angle_beta   90.165212
_cell_angle_gamma 120.45258
loop_
_atom_site_label
_atom_site_type_symbol
_atom_site_fract_x
_atom_site_fract_y
_atom_site_fract_z
_atom_type_partial_charge
C0 C 0.50773 0.14625 0.17487 0.0
O1 O 0.51329 0.14332 0.13767 0.0
Cd2 Cd 0.53361 0.11865 0.11501 0.0
O3 O 0.51163 0.13417 0.20442 0.0
Cd4 Cd 0.52737 0.10086 0.21027 0.0
C5 C 0.58818 0.14937 0.18169 0.0
O6 O 0.50782 0.07645 0.14591 0.0
O7 O 0.53764 0.06931 0.17061 0.0
O8 O 0.49272 0.07485 0.2603 0.0
C9 C 0.52005 0.06365 0.14279 0.0
O10 O 0.57868 0.14456 0.14467 0.0
C11 C 0.50804 0.07213 0.28517 0.0
O12 O 0.57345 0.13745 0.21222 0.0
O13 O 0.53236 0.08369 0.27595 0.0
C14 C 0.35354 0.49475 0.74501 0.0
O15 O 0.36284 0.49431 0.70957 0.0
Cd16 Cd 0.40924 0.51457 0.69785 0.0
O17 O 0.36876 0.5046 0.77707 0.0
Cd18 Cd 0.41641 0.52382 0.79566 0.0
C19 C 0.43127 0.57844 0.73915 0.0
O20 O 0.42442 0.49533 0.74878 0.0
O21 O 0.45964 0.53005 0.77451 0.0
O22 O 0.40471 0.49865 0.85977 0.0
C23 C 0.44938 0.50803 0.75322 0.0
O24 O 0.42701 0.56377 0.70627 0.0
C25 C 0.41881 0.5193 0.88334 0.0
O26 O 0.42787 0.56838 0.77485 0.0
O27 O 0.43148 0.54187 0.86601 0.0
C28 C 0.84333 0.47841 0.23664 0.0
O29 O 0.85185 0.47704 0.27229 0.0
Cd30 Cd 0.87717 0.45564 0.28256 0.0
O31 O 0.84979 0.47012 0.204 0.0
Cd32 Cd 0.87921 0.45203 0.18485 0.0
C33 C 0.83662 0.39443 0.23215 0.0
O34 O 0.91362 0.47809 0.23613 0.0
O35 O 0.91528 0.44453 0.20787 0.0
O36 O 0.89378 0.481 0.12478 0.0
C37 C 0.92617 0.46566 0.23128 0.0
O38 O 0.84572 0.40711 0.26697 0.0
C39 C 0.89003 0.46222 0.09886 0.0
O40 O 0.84497 0.40651 0.19822 0.0
O41 O 0.88115 0.43883 0.11306 0.0
C42 C 0.36097 0.83304 0.75812 0.0
O43 O 0.37225 0.84034 0.79373 0.0
Cd44 Cd 0.41863 0.86776 0.80536 0.0
O45 O 0.37442 0.84178 0.72513 0.0
Cd46 Cd 0.42204 0.8742 0.70873 0.0
C47 C 0.43779 0.82995 0.74574 0.0
O48 O 0.4316 0.90651 0.76516 0.0
O49 O 0.46608 0.90806 0.73911 0.0
O50 O 0.40873 0.89453 0.65486 0.0
C51 C 0.45656 0.91876 0.76308 0.0
O52 O 0.4362 0.83897 0.78163 0.0
C53 C 0.42474 0.89487 0.62801 0.0
O54 O 0.43211 0.83815 0.71311 0.0
O55 O 0.43854 0.88447 0.63811 0.0
C56 C 0.60361 0.48086 0.24187 0.0
O57 O 0.5933 0.48077 0.20704 0.0
Cd58 Cd 0.5468 0.46264 0.19647 0.0
O59 O 0.58945 0.47236 0.27414 0.0
Cd60 Cd 0.54261 0.45494 0.29353 0.0
C61 C 0.5234 0.3989 0.23257 0.0
O62 O 0.53479 0.48394 0.2504 0.0
O63 O 0.49946 0.44999 0.27333 0.0
O64 O 0.5561 0.48054 0.36007 0.0
C65 C 0.50993 0.47198 0.25429 0.0
O66 O 0.52628 0.41318 0.20124 0.0
C67 C 0.54212 0.46008 0.38177 0.0
O68 O 0.52934 0.40965 0.26902 0.0
O69 O 0.52874 0.43747 0.36231 0.0
C70 C 0.11379 0.49573 0.743 0.0
O71 O 0.10551 0.49807 0.77845 0.0
Cd72 Cd 0.07974 0.51925 0.78986 0.0
O73 O 0.10738 0.50346 0.71046 0.0
Cd74 Cd 0.07922 0.52261 0.69161 0.0
C75 C 0.12043 0.58039 0.74655 0.0
O76 O 0.04402 0.49765 0.73967 0.0
O77 O 0.04327 0.53094 0.712 0.0
O78 O 0.06348 0.49463 0.62724 0.0
C79 C 0.03203 0.51055 0.73466 0.0
O80 O 0.11021 0.56788 0.77971 0.0
C81 C 0.07022 0.51453 0.604 0.0
O82 O 0.11347 0.56805 0.71125 0.0
O83 O 0.08128 0.53785 0.62165 0.0
C84 C 0.48981 0.17478 0.15046 0.0
C85 C 0.49885 0.16584 0.18351 0.0
C86 C 0.4858 0.19657 0.15633 0.0
C87 C 0.48061 0.24221 0.23439 0.0
H88 H 0.51612 0.29553 0.15044 0.0
C89 C 0.51417 0.35485 0.26074 0.0
C90 C 0.51415 0.36974 0.22678 0.0
C91 C 0.50734 0.32788 0.25515 0.0
C92 C 0.50561 0.28073 0.17374 0.0
H93 H 0.50892 0.17152 0.24937 0.0
H94 H 0.50216 0.20997 0.25959 0.0
H95 H 0.51218 0.25151 0.14212 0.0
H96 H 0.50572 0.36752 0.16061 0.0
H97 H 0.49333 0.32023 0.15096 0.0
H98 H 0.47443 0.27175 0.26633 0.0
C99 C 0.49805 0.19995 0.22916 0.0
C100 C 0.50339 0.25545 0.16901 0.0
C101 C 0.50198 0.17796 0.22331 0.0
C102 C 0.50619 0.35672 0.18735 0.0
C103 C 0.4992 0.32964 0.1818 0.0
C104 C 0.4827 0.26753 0.23904 0.0
C105 C 0.49084 0.21005 0.19533 0.0
C106 C 0.49115 0.23601 0.19947 0.0
C107 C 0.50017 0.31504 0.21551 0.0
C108 C 0.49557 0.28723 0.20902 0.0
H109 H 0.48679 0.16558 0.11953 0.0
H110 H 0.47965 0.2035 0.1299 0.0
H111 H 0.47086 0.22753 0.25818 0.0
H112 H 0.52018 0.36422 0.29159 0.0
H113 H 0.50869 0.31744 0.28171 0.0
C114 C 0.30678 0.46742 0.71825 0.0
C115 C 0.32508 0.48547 0.74838 0.0
C116 C 0.28031 0.46084 0.71903 0.0
C117 C 0.23229 0.4666 0.70837 0.0
H118 H 0.1992 0.47137 0.80984 0.0
C119 C 0.15077 0.49394 0.70764 0.0
C120 C 0.13263 0.48587 0.7401 0.0
C121 C 0.17084 0.48759 0.70768 0.0
C122 C 0.20773 0.46937 0.78112 0.0
H123 H 0.32997 0.51019 0.80363 0.0
H124 H 0.28433 0.49989 0.80397 0.0
H125 H 0.23982 0.47004 0.81395 0.0
H126 H 0.12002 0.46323 0.79649 0.0
H127 H 0.15421 0.45094 0.79554 0.0
H128 H 0.19972 0.46497 0.67557 0.0
C129 C 0.28994 0.48997 0.78043 0.0
C130 C 0.23142 0.46911 0.78349 0.0
C131 C 0.31625 0.49609 0.78013 0.0
C132 C 0.13398 0.47 0.77133 0.0
C133 C 0.15372 0.46314 0.77091 0.0
C134 C 0.20831 0.46627 0.70602 0.0
C135 C 0.27169 0.47263 0.74944 0.0
C136 C 0.24451 0.46869 0.74714 0.0
C137 C 0.17291 0.47252 0.73975 0.0
C138 C 0.19616 0.46861 0.7423 0.0
H139 H 0.313 0.45868 0.69367 0.0
H140 H 0.26676 0.44689 0.69527 0.0
H141 H 0.24173 0.46643 0.67958 0.0
H142 H 0.15031 0.50634 0.68328 0.0
H143 H 0.18541 0.49563 0.6835 0.0
C144 C 0.63349 0.18106 0.15573 0.0
C145 C 0.6163 0.17036 0.18929 0.0
C146 C 0.65926 0.20271 0.16213 0.0
C147 C 0.71125 0.24347 0.24248 0.0
H148 H 0.73278 0.29938 0.1618 0.0
C149 C 0.80014 0.35355 0.2659 0.0
C150 C 0.81496 0.36584 0.23051 0.0
C151 C 0.77761 0.32768 0.26256 0.0
C152 C 0.72728 0.28382 0.1843 0.0
H153 H 0.6131 0.17327 0.25621 0.0
H154 H 0.658 0.21151 0.26725 0.0
H155 H 0.69043 0.25786 0.15271 0.0
H156 H 0.81884 0.35982 0.16453 0.0
H157 H 0.77996 0.31483 0.15894 0.0
H158 H 0.74816 0.27003 0.27446 0.0
C159 C 0.65163 0.20291 0.23604 0.0
C160 C 0.70298 0.25996 0.17906 0.0
C161 C 0.62584 0.18107 0.22967 0.0
C162 C 0.80766 0.35114 0.19231 0.0
C163 C 0.7853 0.32537 0.18903 0.0
C164 C 0.73566 0.2675 0.24781 0.0
C165 C 0.66841 0.21437 0.20218 0.0
C166 C 0.69467 0.23943 0.20794 0.0
C167 C 0.76958 0.31366 0.2238 0.0
C168 C 0.74396 0.28788 0.21862 0.0
H169 H 0.62691 0.17306 0.1243 0.0
H170 H 0.67189 0.21065 0.13549 0.0
H171 H 0.70547 0.22797 0.26516 0.0
H172 H 0.80528 0.36434 0.29579 0.0
H173 H 0.76584 0.3192 0.28989 0.0
C174 C 0.45232 0.80024 0.77782 0.0
C175 C 0.4444 0.80826 0.74232 0.0
C176 C 0.4557 0.77786 0.77572 0.0
C177 C 0.462 0.72976 0.70371 0.0
H178 H 0.42962 0.68098 0.79418 0.0
C179 C 0.43604 0.61756 0.699 0.0
C180 C 0.43895 0.60719 0.73643 0.0
C181 C 0.44051 0.64392 0.69816 0.0
C182 C 0.43915 0.69453 0.76898 0.0
H183 H 0.43507 0.7998 0.67627 0.0
H184 H 0.44056 0.76045 0.67282 0.0
H185 H 0.43099 0.72391 0.79574 0.0
H186 H 0.45059 0.61695 0.80164 0.0
H187 H 0.45876 0.66281 0.79996 0.0
H188 H 0.46966 0.69985 0.67668 0.0
C189 C 0.44442 0.77165 0.70219 0.0
C190 C 0.43996 0.7192 0.7699 0.0
C191 C 0.44114 0.79414 0.70423 0.0
C192 C 0.44776 0.62415 0.7724 0.0
C193 C 0.45235 0.65043 0.7715 0.0
C194 C 0.46118 0.70495 0.70278 0.0
C195 C 0.45109 0.76287 0.73815 0.0
C196 C 0.45137 0.73714 0.73733 0.0
C197 C 0.44807 0.66038 0.7347 0.0
C198 C 0.44974 0.68708 0.73547 0.0
H199 H 0.45531 0.81084 0.80755 0.0
H200 H 0.46141 0.77197 0.80381 0.0
H201 H 0.47108 0.74323 0.67827 0.0
H202 H 0.4293 0.605 0.67075 0.0
H203 H 0.43693 0.65097 0.66935 0.0
C204 C 0.64946 0.50579 0.21394 0.0
C205 C 0.63196 0.4893 0.24425 0.0
C206 C 0.67575 0.51174 0.21405 0.0
C207 C 0.72303 0.50469 0.20246 0.0
H208 H 0.75902 0.50454 0.30358 0.0
C209 C 0.80532 0.47824 0.20105 0.0
C210 C 0.82426 0.48792 0.23356 0.0
C211 C 0.78504 0.4843 0.20112 0.0
C212 C 0.74967 0.50523 0.27494 0.0
H213 H 0.62833 0.46661 0.29897 0.0
H214 H 0.67362 0.47582 0.29816 0.0
H215 H 0.71851 0.506 0.3081 0.0
H216 H 0.83812 0.5131 0.29 0.0
H217 H 0.8036 0.52488 0.28908 0.0
H218 H 0.75469 0.5049 0.16934 0.0
C219 C 0.66753 0.48501 0.27501 0.0
C220 C 0.72604 0.50555 0.27755 0.0
C221 C 0.64142 0.47953 0.27537 0.0
C222 C 0.82352 0.50508 0.26482 0.0
C223 C 0.80359 0.51164 0.26442 0.0
C224 C 0.74695 0.50494 0.19986 0.0
C225 C 0.68497 0.50087 0.24397 0.0
C226 C 0.71194 0.5044 0.24135 0.0
C227 C 0.78357 0.50065 0.23328 0.0
C228 C 0.76018 0.50434 0.23602 0.0
H229 H 0.64276 0.51386 0.18982 0.0
H230 H 0.68869 0.52454 0.19024 0.0
H231 H 0.71276 0.50361 0.17378 0.0
H232 H 0.80533 0.46483 0.17667 0.0
H233 H 0.76985 0.47505 0.17692 0.0
C234 C 0.32038 0.79831 0.71801 0.0
C235 C 0.3324 0.81243 0.75561 0.0
C236 C 0.2945 0.77614 0.71744 0.0
C237 C 0.24939 0.72392 0.78714 0.0
H238 H 0.19736 0.70467 0.6983 0.0
C239 C 0.14942 0.62395 0.78694 0.0
C240 C 0.14132 0.60933 0.7487 0.0
C241 C 0.17022 0.65082 0.78877 0.0
C242 C 0.21175 0.70972 0.72325 0.0
H243 H 0.32595 0.81565 0.82149 0.0
H244 H 0.28094 0.7773 0.82028 0.0
H245 H 0.2384 0.74849 0.69877 0.0
H246 H 0.1483 0.6118 0.68225 0.0
H247 H 0.18473 0.65821 0.68563 0.0
H248 H 0.22338 0.685 0.81098 0.0
C249 C 0.29166 0.78293 0.79145 0.0
C250 C 0.23521 0.73481 0.7235 0.0
C251 C 0.31745 0.80498 0.79205 0.0
C252 C 0.154 0.62241 0.71228 0.0
C253 C 0.1748 0.64917 0.71414 0.0
C254 C 0.22605 0.69885 0.7868 0.0
C255 C 0.28019 0.76775 0.75444 0.0
C256 C 0.2544 0.74206 0.75525 0.0
C257 C 0.18341 0.66361 0.75245 0.0
C258 C 0.20707 0.69128 0.75458 0.0
H259 H 0.33135 0.80355 0.6894 0.0
H260 H 0.28622 0.76476 0.68843 0.0
H261 H 0.26398 0.72869 0.81167 0.0
H262 H 0.13995 0.61455 0.81554 0.0
H263 H 0.17611 0.6615 0.81873 0.0
C264 C 0.49674 0.94318 0.80991 0.0
C265 C 0.47292 0.94018 0.79426 0.0
C266 C 0.50971 0.9606 0.8443 0.0
C267 C 0.51314 0.017 0.90759 0.0
H268 H 0.52071 0.98125 0.00276 0.0
C269 C 0.50076 0.04627 0.07196 0.0
C270 C 0.51878 0.04915 0.10341 0.0
C271 C 0.50109 0.0354 0.03291 0.0
C272 C 0.51926 -0.00827 0.97632 0.0
H273 H 0.44484 0.95403 0.8002 0.0
H274 H 0.46763 0.98474 0.85935 0.0
H275 H 0.51249 0.95948 0.9334 0.0
H276 H 0.55063 0.04186 0.11912 0.0
H277 H 0.55093 0.02232 0.05033 0.0
H278 H 0.51867 0.04863 0.95054 0.0
C279 C 0.4763 0.97366 0.84546 0.0
C280 C 0.51464 0.97933 0.93665 0.0
C281 C 0.46316 0.95598 0.81176 0.0
C282 C 0.53652 0.03991 0.09543 0.0
C283 C 0.53675 0.02881 0.05615 0.0
C284 C 0.51778 0.02936 0.94708 0.0
C285 C 0.4993 0.97564 0.86276 0.0
C286 C 0.51044 -0.00862 0.90227 0.0
C287 C 0.51939 0.02703 0.0243 0.0
C288 C 0.51973 0.0163 -0.01795 0.0
H289 H 0.50456 0.93106 0.79703 0.0
H290 H 0.52743 0.96182 0.8571 0.0
H291 H 0.51037 0.02688 0.88148 0.0
H292 H 0.48668 0.05297 0.07716 0.0
H293 H 0.487 0.03361 0.0093 0.0
C294 C 0.55242 0.48804 0.44787 0.0
C295 C 0.53997 0.46255 0.42722 0.0
C296 C 0.54746 0.49051 0.48978 0.0
C297 C 0.49362 0.45647 0.56141 0.0
H298 H 0.54345 0.50703 0.6447 0.0
C299 C 0.45485 0.47324 0.71427 0.0
C300 C 0.46541 0.5003 0.72753 0.0
C301 C 0.46781 0.4662 0.6846 0.0
C302 C 0.52928 0.49288 0.62172 0.0
H303 H 0.51417 0.41949 0.43495 0.0
H304 H 0.50557 0.42384 0.50798 0.0
H305 H 0.55977 0.49942 0.57867 0.0
H306 H 0.49851 0.54108 0.72228 0.0
H307 H 0.52064 0.52907 0.66893 0.0
H308 H 0.46303 0.45086 0.60266 0.0
C309 C 0.51885 0.44192 0.49166 0.0
C310 C 0.53866 0.48849 0.58403 0.0
C311 C 0.52381 0.43945 0.44987 0.0
C312 C 0.48998 0.52003 0.71254 0.0
C313 C 0.50271 0.51308 0.68211 0.0
C314 C 0.48426 0.46102 0.59869 0.0
C315 C 0.52995 0.46753 0.51167 0.0
C316 C 0.52084 0.47045 0.55336 0.0
C317 C 0.49127 0.48619 0.66672 0.0
C318 C 0.5019 0.47952 0.62918 0.0
H319 H 0.56509 0.50619 0.43126 0.0
H320 H 0.55616 0.51052 0.50435 0.0
H321 H 0.47934 0.44287 0.53804 0.0
H322 H 0.43609 0.4576 0.72589 0.0
H323 H 0.45884 0.44518 0.67445 0.0
C324 C -0.00485 0.4805 0.78045 0.0
C325 C 0.00925 0.50521 0.7606 0.0
C326 C 0.97583 0.47644 0.80927 0.0
C327 C 0.96249 0.51445 0.88639 0.0
H328 H 0.89731 0.44637 0.90024 0.0
C329 C 0.90501 0.493 0.03868 0.0
C330 C 0.89677 0.46747 0.0546 0.0
C331 C 0.9133 0.49843 -0.00243 0.0
C332 C 0.91547 0.4655 0.89688 0.0
H333 H 0.01335 0.5446 0.75372 0.0
H334 H -0.02022 0.53764 0.80496 0.0
H335 H 0.92159 0.4542 0.83565 0.0
H336 H 0.88989 0.42732 0.03961 0.0
H337 H 0.90501 0.43692 0.96862 0.0
H338 H 0.95747 0.52521 0.94835 0.0
C339 C -0.01632 0.52142 0.79797 0.0
C340 C 0.92926 0.47 0.85982 0.0
C341 C 0.00279 0.52535 0.76861 0.0
C342 C 0.89611 0.4472 0.02825 0.0
C343 C 0.90458 0.45267 -0.01266 0.0
C344 C 0.94887 0.50985 0.9236 0.0
C345 C 0.97044 0.49713 0.81917 0.0
C346 C 0.95329 0.49421 0.85474 0.0
C347 C 0.91369 0.47848 0.97166 0.0
C348 C 0.92562 0.48499 0.92979 0.0
H349 H -0.00035 0.46457 0.7747 0.0
H350 H 0.96614 0.45762 0.82544 0.0
H351 H -0.01886 0.53319 0.88349 0.0
H352 H 0.90549 0.50896 0.05816 0.0
H353 H 0.91981 0.51839 -0.01368 0.0
C354 C 0.51375 0.04647 0.34165 0.0
C355 C 0.49782 0.05468 0.32143 0.0
C356 C 0.5035 0.02797 0.37334 0.0
C357 C 0.45323 0.00038 0.45261 0.0
H358 H 0.46294 0.93844 0.44389 0.0
C359 C 0.41229 0.91862 0.57632 0.0
C360 C 0.42887 0.90882 0.58841 0.0
C361 C 0.41799 0.93431 0.54118 0.0
C362 C 0.46029 0.95574 0.44713 0.0
H363 H 0.45894 0.05064 0.31951 0.0
H364 H 0.44121 0.01867 0.37588 0.0
H365 H 0.47906 0.97128 0.38922 0.0
H366 H 0.46407 0.90726 0.57264 0.0
H367 H 0.47443 0.93512 0.51236 0.0
H368 H 0.43546 0.98559 0.51125 0.0
C369 C 0.46154 0.02644 0.36675 0.0
C370 C 0.46945 0.97448 0.4157 0.0
C371 C 0.47167 0.04467 0.33452 0.0
C372 C 0.45079 0.91435 0.564 0.0
C373 C 0.45666 0.93027 0.52921 0.0
C374 C 0.44439 0.98183 0.48442 0.0
C375 C 0.47724 0.01757 0.3859 0.0
C376 C 0.46627 -0.00288 0.41836 0.0
C377 C 0.44055 0.94079 0.51761 0.0
C378 C 0.44809 0.95941 0.48233 0.0
H379 H 0.53396 0.05376 0.33225 0.0
H380 H 0.51611 0.02168 0.38798 0.0
H381 H 0.45067 0.01776 0.45545 0.0
H382 H 0.39517 0.91458 0.59442 0.0
H383 H 0.40484 0.9416 0.53277 0.0
C384 C 0.43848 0.54021 0.95315 0.0
C385 C 0.42165 0.51707 0.92846 0.0
C386 C 0.44364 0.53789 -0.00527 0.0
C387 C 0.42268 0.49203 0.0831 0.0
H388 H 0.49813 0.5285 0.10743 0.0
C389 C 0.46946 0.46034 0.21182 0.0
C390 C 0.4941 0.47991 0.22911 0.0
C391 C 0.45714 0.46733 0.1813 0.0
C392 C 0.47695 0.51867 0.10187 0.0
H393 H 0.39577 0.47355 0.92861 0.0
H394 H 0.405 0.46949 0.00131 0.0
H395 H 0.48253 0.53631 0.04255 0.0
H396 H 0.52396 0.52244 0.23149 0.0
H397 H 0.50194 0.53496 0.17991 0.0
H398 H 0.41721 0.474 0.1424 0.0
C399 C 0.41406 0.48942 -0.01149 0.0
C400 C 0.46801 0.52311 0.06444 0.0
C401 C 0.40894 0.49173 0.94681 0.0
C402 C 0.50512 0.50692 0.21812 0.0
C403 C 0.49258 0.51401 0.18834 0.0
C404 C 0.43164 0.48774 0.12092 0.0
C405 C 0.43205 0.51241 0.01252 0.0
C406 C 0.44084 0.50955 0.05432 0.0
C407 C 0.46909 0.49411 0.16811 0.0
C408 C 0.45895 0.5007 0.13045 0.0
H409 H 0.44838 0.56006 0.94003 0.0
H410 H 0.45731 0.55599 0.01269 0.0
H411 H 0.40159 0.48145 0.07617 0.0
H412 H 0.4606 0.43933 0.21973 0.0
H413 H 0.43916 0.45142 0.16631 0.0
C414 C 0.0497 0.48481 0.54008 0.0
C415 C 0.06397 0.51081 0.55893 0.0
C416 C 0.041 0.4814 0.49862 0.0
C417 C 0.02015 0.51448 0.42645 0.0
H418 H 0.01841 0.46326 0.34342 0.0
C419 C 0.96563 0.4994 0.27261 0.0
C420 C 0.94923 0.47259 0.25825 0.0
C421 C -0.01496 0.50574 0.30315 0.0
C422 C 0.01861 0.47754 0.36636 0.0
H423 H 0.08187 0.55369 0.5484 0.0
H424 H 0.06659 0.54768 0.47628 0.0
H425 H 0.0427 0.47081 0.40928 0.0
H426 H 0.941 0.43149 0.26265 0.0
H427 H 0.97408 0.44225 0.31759 0.0
H428 H -0.00489 0.52035 0.38538 0.0
C429 C 0.06191 0.52996 0.49364 0.0
C430 C 0.03258 0.4819 0.40393 0.0
C431 C 0.07067 0.53337 0.53491 0.0
C432 C 0.95349 0.45236 0.27323 0.0
C433 C 0.97255 0.45859 0.30458 0.0
C434 C 0.006 0.50992 0.38934 0.0
C435 C 0.04634 0.50393 0.47547 0.0
C436 C 0.03334 0.50034 0.43436 0.0
C437 C -0.01205 0.48525 0.32088 0.0
C438 C 0.00489 0.4913 0.35883 0.0
H439 H 0.04437 0.46705 0.55778 0.0
H440 H 0.0289 0.4611 0.48541 0.0
H441 H 0.0199 0.52838 0.44971 0.0
H442 H 0.96294 0.51541 0.26103 0.0
H443 H -0.0029 0.52661 0.31394 0.0
loop_
_geom_bond_atom_site_label_1
_geom_bond_atom_site_label_2
_geom_bond_distance
_geom_bond_site_symmetry_2
_ccdc_geom_bond_type
C0 O1 1.306 . S
C0 O3 1.160 . S
O1 C0 1.306 . S
O1 Cd2 2.228 . S
Cd2 O1 2.228 . S
Cd2 O6 2.273 . S
Cd2 O10 2.277 . S
O3 C0 1.160 . S
O3 Cd4 2.203 . S
Cd4 O3 2.203 . S
Cd4 O6 2.411 . S
Cd4 O7 2.333 . S
Cd4 O8 2.352 . S
Cd4 O12 2.277 . S
Cd4 O13 2.356 . S
C5 O10 1.209 . S
C5 O12 1.226 . S
O6 Cd2 2.273 . S
O6 Cd4 2.411 . S
O6 C9 1.320 . S
O7 Cd4 2.333 . S
O7 C9 1.214 . S
O8 Cd4 2.352 . S
O8 C11 1.258 . S
C9 O6 1.320 . S
C9 O7 1.214 . S
O10 Cd2 2.277 . S
O10 C5 1.209 . S
C11 O8 1.258 . S
C11 O13 1.282 . S
O12 Cd4 2.277 . S
O12 C5 1.226 . S
O13 Cd4 2.356 . S
O13 C11 1.282 . S
C14 O15 1.306 . S
C14 O17 1.160 . S
O15 C14 1.306 . S
O15 Cd16 2.228 . S
Cd16 O15 2.228 . S
Cd16 O20 2.273 . S
Cd16 O24 2.277 . S
O17 C14 1.160 . S
O17 Cd18 2.203 . S
Cd18 O17 2.203 . S
Cd18 O20 2.411 . S
Cd18 O21 2.333 . S
Cd18 O22 2.352 . S
Cd18 O26 2.277 . S
Cd18 O27 2.356 . S
C19 O24 1.209 . S
C19 O26 1.226 . S
O20 Cd16 2.273 . S
O20 Cd18 2.411 . S
O20 C23 1.320 . S
O21 Cd18 2.333 . S
O21 C23 1.214 . S
O22 Cd18 2.352 . S
O22 C25 1.258 . S
C23 O20 1.320 . S
C23 O21 1.214 . S
O24 Cd16 2.277 . S
O24 C19 1.209 . S
C25 O22 1.258 . S
C25 O27 1.282 . S
O26 Cd18 2.277 . S
O26 C19 1.226 . S
O27 Cd18 2.356 . S
O27 C25 1.282 . S
C28 O29 1.306 . S
C28 O31 1.160 . S
O29 C28 1.306 . S
O29 Cd30 2.228 . S
Cd30 O29 2.228 . S
Cd30 O34 2.273 . S
Cd30 O38 2.277 . S
O31 C28 1.160 . S
O31 Cd32 2.203 . S
Cd32 O31 2.203 . S
Cd32 O34 2.411 . S
Cd32 O35 2.333 . S
Cd32 O36 2.352 . S
Cd32 O40 2.277 . S
Cd32 O41 2.356 . S
C33 O38 1.209 . S
C33 O40 1.226 . S
O34 Cd30 2.273 . S
O34 Cd32 2.411 . S
O34 C37 1.320 . S
O35 Cd32 2.333 . S
O35 C37 1.214 . S
O36 Cd32 2.352 . S
O36 C39 1.258 . S
C37 O34 1.320 . S
C37 O35 1.214 . S
O38 Cd30 2.277 . S
O38 C33 1.209 . S
C39 O36 1.258 . S
C39 O41 1.282 . S
O40 Cd32 2.277 . S
O40 C33 1.226 . S
O41 Cd32 2.356 . S
O41 C39 1.282 . S
C42 O43 1.306 . S
C42 O45 1.160 . S
O43 C42 1.306 . S
O43 Cd44 2.228 . S
Cd44 O43 2.228 . S
Cd44 O48 2.273 . S
Cd44 O52 2.277 . S
O45 C42 1.160 . S
O45 Cd46 2.203 . S
Cd46 O45 2.203 . S
Cd46 O48 2.411 . S
Cd46 O49 2.333 . S
Cd46 O50 2.352 . S
Cd46 O54 2.277 . S
Cd46 O55 2.356 . S
C47 O52 1.209 . S
C47 O54 1.226 . S
O48 Cd44 2.273 . S
O48 Cd46 2.411 . S
O48 C51 1.320 . S
O49 Cd46 2.333 . S
O49 C51 1.214 . S
O50 Cd46 2.352 . S
O50 C53 1.258 . S
C51 O48 1.320 . S
C51 O49 1.214 . S
O52 Cd44 2.277 . S
O52 C47 1.209 . S
C53 O50 1.258 . S
C53 O55 1.282 . S
O54 Cd46 2.277 . S
O54 C47 1.226 . S
O55 Cd46 2.356 . S
O55 C53 1.282 . S
C56 O57 1.306 . S
C56 O59 1.160 . S
O57 C56 1.306 . S
O57 Cd58 2.228 . S
Cd58 O57 2.228 . S
Cd58 O62 2.273 . S
Cd58 O66 2.277 . S
O59 C56 1.160 . S
O59 Cd60 2.203 . S
Cd60 O59 2.203 . S
Cd60 O62 2.411 . S
Cd60 O63 2.333 . S
Cd60 O64 2.352 . S
Cd60 O68 2.277 . S
Cd60 O69 2.356 . S
C61 O66 1.209 . S
C61 O68 1.226 . S
O62 Cd58 2.273 . S
O62 Cd60 2.411 . S
O62 C65 1.320 . S
O63 Cd60 2.333 . S
O63 C65 1.214 . S
O64 Cd60 2.352 . S
O64 C67 1.258 . S
C65 O62 1.320 . S
C65 O63 1.214 . S
O66 Cd58 2.277 . S
O66 C61 1.209 . S
C67 O64 1.258 . S
C67 O69 1.282 . S
O68 Cd60 2.277 . S
O68 C61 1.226 . S
O69 Cd60 2.356 . S
O69 C67 1.282 . S
C70 O71 1.306 . S
C70 O73 1.160 . S
O71 C70 1.306 . S
O71 Cd72 2.228 . S
Cd72 O71 2.228 . S
Cd72 O76 2.273 . S
Cd72 O80 2.277 . S
O73 C70 1.160 . S
O73 Cd74 2.203 . S
Cd74 O73 2.203 . S
Cd74 O76 2.411 . S
Cd74 O77 2.333 . S
Cd74 O78 2.352 . S
Cd74 O82 2.277 . S
Cd74 O83 2.356 . S
C75 O80 1.209 . S
C75 O82 1.226 . S
O76 Cd72 2.273 . S
O76 Cd74 2.411 . S
O76 C79 1.320 . S
O77 Cd74 2.333 . S
O77 C79 1.214 . S
O78 Cd74 2.352 . S
O78 C81 1.258 . S
C79 O76 1.320 . S
C79 O77 1.214 . S
O80 Cd72 2.277 . S
O80 C75 1.209 . S
C81 O78 1.258 . S
C81 O83 1.282 . S
O82 Cd74 2.277 . S
O82 C75 1.226 . S
O83 Cd74 2.356 . S
O83 C81 1.282 . S
C84 C85 1.349 . S
C84 C86 1.327 . S
C84 H109 0.950 . S
C85 C84 1.349 . S
C85 C101 1.349 . S
C86 C84 1.327 . S
C86 C105 1.429 . S
C86 H110 0.950 . S
C87 C104 1.574 . S
C87 C106 1.368 . S
C87 H111 0.949 . S
H88 C92 0.949 . S
C89 C90 1.349 . S
C89 C91 1.327 . S
C89 H112 0.950 . S
C90 C89 1.349 . S
C90 C102 1.349 . S
C91 C89 1.327 . S
C91 C107 1.429 . S
C91 H113 0.950 . S
C92 H88 0.949 . S
C92 C100 1.574 . S
C92 C108 1.368 . S
H93 C101 0.950 . S
H94 C99 0.950 . S
H95 C100 0.949 . S
H96 C102 0.950 . S
H97 C103 0.950 . S
H98 C104 0.949 . S
C99 H94 0.950 . S
C99 C101 1.327 . S
C99 C105 1.429 . S
C100 C92 1.574 . S
C100 H95 0.949 . S
C100 C106 1.368 . S
C101 C85 1.349 . S
C101 H93 0.950 . S
C101 C99 1.327 . S
C102 C90 1.349 . S
C102 H96 0.950 . S
C102 C103 1.327 . S
C103 H97 0.950 . S
C103 C102 1.327 . S
C103 C107 1.429 . S
C104 C87 1.574 . S
C104 H98 0.949 . S
C104 C108 1.368 . S
C105 C86 1.429 . S
C105 C99 1.429 . S
C105 C106 1.523 . S
C106 C87 1.368 . S
C106 C100 1.368 . S
C106 C105 1.523 . S
C107 C91 1.429 . S
C107 C103 1.429 . S
C107 C108 1.523 . S
C108 C92 1.368 . S
C108 C104 1.368 . S
C108 C107 1.523 . S
H109 C84 0.950 . S
H110 C86 0.950 . S
H111 C87 0.949 . S
H112 C89 0.950 . S
H113 C91 0.950 . S
C114 C115 1.349 . S
C114 C116 1.327 . S
C114 H139 0.950 . S
C115 C114 1.349 . S
C115 C131 1.349 . S
C116 C114 1.327 . S
C116 C135 1.429 . S
C116 H140 0.950 . S
C117 C134 1.574 . S
C117 C136 1.368 . S
C117 H141 0.949 . S
H118 C122 0.949 . S
C119 C120 1.349 . S
C119 C121 1.327 . S
C119 H142 0.950 . S
C120 C119 1.349 . S
C120 C132 1.349 . S
C121 C119 1.327 . S
C121 C137 1.429 . S
C121 H143 0.950 . S
C122 H118 0.949 . S
C122 C130 1.574 . S
C122 C138 1.368 . S
H123 C131 0.950 . S
H124 C129 0.950 . S
H125 C130 0.949 . S
H126 C132 0.950 . S
H127 C133 0.950 . S
H128 C134 0.949 . S
C129 H124 0.950 . S
C129 C131 1.327 . S
C129 C135 1.429 . S
C130 C122 1.574 . S
C130 H125 0.949 . S
C130 C136 1.368 . S
C131 C115 1.349 . S
C131 H123 0.950 . S
C131 C129 1.327 . S
C132 C120 1.349 . S
C132 H126 0.950 . S
C132 C133 1.327 . S
C133 H127 0.950 . S
C133 C132 1.327 . S
C133 C137 1.429 . S
C134 C117 1.574 . S
C134 H128 0.949 . S
C134 C138 1.368 . S
C135 C116 1.429 . S
C135 C129 1.429 . S
C135 C136 1.523 . S
C136 C117 1.368 . S
C136 C130 1.368 . S
C136 C135 1.523 . S
C137 C121 1.429 . S
C137 C133 1.429 . S
C137 C138 1.523 . S
C138 C122 1.368 . S
C138 C134 1.368 . S
C138 C137 1.523 . S
H139 C114 0.950 . S
H140 C116 0.950 . S
H141 C117 0.949 . S
H142 C119 0.950 . S
H143 C121 0.950 . S
C144 C145 1.349 . S
C144 C146 1.327 . S
C144 H169 0.950 . S
C145 C144 1.349 . S
C145 C161 1.349 . S
C146 C144 1.327 . S
C146 C165 1.429 . S
C146 H170 0.950 . S
C147 C164 1.574 . S
C147 C166 1.368 . S
C147 H171 0.949 . S
H148 C152 0.949 . S
C149 C150 1.349 . S
C149 C151 1.327 . S
C149 H172 0.950 . S
C150 C149 1.349 . S
C150 C162 1.349 . S
C151 C149 1.327 . S
C151 C167 1.429 . S
C151 H173 0.950 . S
C152 H148 0.949 . S
C152 C160 1.574 . S
C152 C168 1.368 . S
H153 C161 0.950 . S
H154 C159 0.950 . S
H155 C160 0.949 . S
H156 C162 0.950 . S
H157 C163 0.950 . S
H158 C164 0.949 . S
C159 H154 0.950 . S
C159 C161 1.327 . S
C159 C165 1.429 . S
C160 C152 1.574 . S
C160 H155 0.949 . S
C160 C166 1.368 . S
C161 C145 1.349 . S
C161 H153 0.950 . S
C161 C159 1.327 . S
C162 C150 1.349 . S
C162 H156 0.950 . S
C162 C163 1.327 . S
C163 H157 0.950 . S
C163 C162 1.327 . S
C163 C167 1.429 . S
C164 C147 1.574 . S
C164 H158 0.949 . S
C164 C168 1.368 . S
C165 C146 1.429 . S
C165 C159 1.429 . S
C165 C166 1.523 . S
C166 C147 1.368 . S
C166 C160 1.368 . S
C166 C165 1.523 . S
C167 C151 1.429 . S
C167 C163 1.429 . S
C167 C168 1.523 . S
C168 C152 1.368 . S
C168 C164 1.368 . S
C168 C167 1.523 . S
H169 C144 0.950 . S
H170 C146 0.950 . S
H171 C147 0.949 . S
H172 C149 0.950 . S
H173 C151 0.950 . S
C174 C175 1.349 . S
C174 C176 1.327 . S
C174 H199 0.950 . S
C175 C174 1.349 . S
C175 C191 1.349 . S
C176 C174 1.327 . S
C176 C195 1.429 . S
C176 H200 0.950 . S
C177 C194 1.574 . S
C177 C196 1.368 . S
C177 H201 0.949 . S
H178 C182 0.949 . S
C179 C180 1.349 . S
C179 C181 1.327 . S
C179 H202 0.950 . S
C180 C179 1.349 . S
C180 C192 1.349 . S
C181 C179 1.327 . S
C181 C197 1.429 . S
C181 H203 0.950 . S
C182 H178 0.949 . S
C182 C190 1.574 . S
C182 C198 1.368 . S
H183 C191 0.950 . S
H184 C189 0.950 . S
H185 C190 0.949 . S
H186 C192 0.950 . S
H187 C193 0.950 . S
H188 C194 0.949 . S
C189 H184 0.950 . S
C189 C191 1.327 . S
C189 C195 1.429 . S
C190 C182 1.574 . S
C190 H185 0.949 . S
C190 C196 1.368 . S
C191 C175 1.349 . S
C191 H183 0.950 . S
C191 C189 1.327 . S
C192 C180 1.349 . S
C192 H186 0.950 . S
C192 C193 1.327 . S
C193 H187 0.950 . S
C193 C192 1.327 . S
C193 C197 1.429 . S
C194 C177 1.574 . S
C194 H188 0.949 . S
C194 C198 1.368 . S
C195 C176 1.429 . S
C195 C189 1.429 . S
C195 C196 1.523 . S
C196 C177 1.368 . S
C196 C190 1.368 . S
C196 C195 1.523 . S
C197 C181 1.429 . S
C197 C193 1.429 . S
C197 C198 1.523 . S
C198 C182 1.368 . S
C198 C194 1.368 . S
C198 C197 1.523 . S
H199 C174 0.950 . S
H200 C176 0.950 . S
H201 C177 0.949 . S
H202 C179 0.950 . S
H203 C181 0.950 . S
C204 C205 1.349 . S
C204 C206 1.327 . S
C204 H229 0.950 . S
C205 C204 1.349 . S
C205 C221 1.349 . S
C206 C204 1.327 . S
C206 C225 1.429 . S
C206 H230 0.950 . S
C207 C224 1.574 . S
C207 C226 1.368 . S
C207 H231 0.949 . S
H208 C212 0.949 . S
C209 C210 1.349 . S
C209 C211 1.327 . S
C209 H232 0.950 . S
C210 C209 1.349 . S
C210 C222 1.349 . S
C211 C209 1.327 . S
C211 C227 1.429 . S
C211 H233 0.950 . S
C212 H208 0.949 . S
C212 C220 1.574 . S
C212 C228 1.368 . S
H213 C221 0.950 . S
H214 C219 0.950 . S
H215 C220 0.949 . S
H216 C222 0.950 . S
H217 C223 0.950 . S
H218 C224 0.949 . S
C219 H214 0.950 . S
C219 C221 1.327 . S
C219 C225 1.429 . S
C220 C212 1.574 . S
C220 H215 0.949 . S
C220 C226 1.368 . S
C221 C205 1.349 . S
C221 H213 0.950 . S
C221 C219 1.327 . S
C222 C210 1.349 . S
C222 H216 0.950 . S
C222 C223 1.327 . S
C223 H217 0.950 . S
C223 C222 1.327 . S
C223 C227 1.429 . S
C224 C207 1.574 . S
C224 H218 0.949 . S
C224 C228 1.368 . S
C225 C206 1.429 . S
C225 C219 1.429 . S
C225 C226 1.523 . S
C226 C207 1.368 . S
C226 C220 1.368 . S
C226 C225 1.523 . S
C227 C211 1.429 . S
C227 C223 1.429 . S
C227 C228 1.523 . S
C228 C212 1.368 . S
C228 C224 1.368 . S
C228 C227 1.523 . S
H229 C204 0.950 . S
H230 C206 0.950 . S
H231 C207 0.949 . S
H232 C209 0.950 . S
H233 C211 0.950 . S
C234 C235 1.349 . S
C234 C236 1.327 . S
C234 H259 0.950 . S
C235 C234 1.349 . S
C235 C251 1.349 . S
C236 C234 1.327 . S
C236 C255 1.429 . S
C236 H260 0.950 . S
C237 C254 1.574 . S
C237 C256 1.368 . S
C237 H261 0.949 . S
H238 C242 0.949 . S
C239 C240 1.349 . S
C239 C241 1.327 . S
C239 H262 0.950 . S
C240 C239 1.349 . S
C240 C252 1.349 . S
C241 C239 1.327 . S
C241 C257 1.429 . S
C241 H263 0.950 . S
C242 H238 0.949 . S
C242 C250 1.574 . S
C242 C258 1.368 . S
H243 C251 0.950 . S
H244 C249 0.950 . S
H245 C250 0.949 . S
H246 C252 0.950 . S
H247 C253 0.950 . S
H248 C254 0.949 . S
C249 H244 0.950 . S
C249 C251 1.327 . S
C249 C255 1.429 . S
C250 C242 1.574 . S
C250 H245 0.949 . S
C250 C256 1.368 . S
C251 C235 1.349 . S
C251 H243 0.950 . S
C251 C249 1.327 . S
C252 C240 1.349 . S
C252 H246 0.950 . S
C252 C253 1.327 . S
C253 H247 0.950 . S
C253 C252 1.327 . S
C253 C257 1.429 . S
C254 C237 1.574 . S
C254 H248 0.949 . S
C254 C258 1.368 . S
C255 C236 1.429 . S
C255 C249 1.429 . S
C255 C256 1.523 . S
C256 C237 1.368 . S
C256 C250 1.368 . S
C256 C255 1.523 . S
C257 C241 1.429 . S
C257 C253 1.429 . S
C257 C258 1.523 . S
C258 C242 1.368 . S
C258 C254 1.368 . S
C258 C257 1.523 . S
H259 C234 0.950 . S
H260 C236 0.950 . S
H261 C237 0.949 . S
H262 C239 0.950 . S
H263 C241 0.950 . S
C264 C265 1.349 . S
C264 C266 1.327 . S
C264 H289 0.950 . S
C265 C264 1.349 . S
C265 C281 1.349 . S
C266 C264 1.327 . S
C266 C285 1.429 . S
C266 H290 0.950 . S
C267 C284 1.574 1_556 S
C267 C286 1.368 1_545 S
C267 H291 0.949 . S
H268 C272 0.949 . S
C269 C270 1.349 . S
C269 C271 1.327 . S
C269 H292 0.950 . S
C270 C269 1.349 . S
C270 C282 1.349 . S
C271 C269 1.327 . S
C271 C287 1.429 . S
C271 H293 0.950 . S
C272 H268 0.949 . S
C272 C280 1.574 1_554 S
C272 C288 1.368 1_565 S
H273 C281 0.950 . S
H274 C279 0.950 . S
H275 C280 0.949 . S
H276 C282 0.950 . S
H277 C283 0.950 . S
H278 C284 0.949 . S
C279 H274 0.950 . S
C279 C281 1.327 . S
C279 C285 1.429 . S
C280 C272 1.574 1_556 S
C280 H275 0.949 . S
C280 C286 1.368 . S
C281 C265 1.349 . S
C281 H273 0.950 . S
C281 C279 1.327 . S
C282 C270 1.349 . S
C282 H276 0.950 . S
C282 C283 1.327 . S
C283 H277 0.950 . S
C283 C282 1.327 . S
C283 C287 1.429 . S
C284 C267 1.574 1_554 S
C284 H278 0.949 . S
C284 C288 1.368 . S
C285 C266 1.429 . S
C285 C279 1.429 . S
C285 C286 1.523 . S
C286 C267 1.368 1_565 S
C286 C280 1.368 . S
C286 C285 1.523 . S
C287 C271 1.429 . S
C287 C283 1.429 . S
C287 C288 1.523 . S
C288 C272 1.368 1_545 S
C288 C284 1.368 . S
C288 C287 1.523 . S
H289 C264 0.950 . S
H290 C266 0.950 . S
H291 C267 0.949 . S
H292 C269 0.950 . S
H293 C271 0.950 . S
C294 C295 1.349 . S
C294 C296 1.327 . S
C294 H319 0.950 . S
C295 C294 1.349 . S
C295 C311 1.349 . S
C296 C294 1.327 . S
C296 C315 1.429 . S
C296 H320 0.950 . S
C297 C314 1.574 . S
C297 C316 1.368 . S
C297 H321 0.949 . S
H298 C302 0.949 . S
C299 C300 1.349 . S
C299 C301 1.327 . S
C299 H322 0.950 . S
C300 C299 1.349 . S
C300 C312 1.349 . S
C301 C299 1.327 . S
C301 C317 1.429 . S
C301 H323 0.950 . S
C302 H298 0.949 . S
C302 C310 1.574 . S
C302 C318 1.368 . S
H303 C311 0.950 . S
H304 C309 0.950 . S
H305 C310 0.949 . S
H306 C312 0.950 . S
H307 C313 0.950 . S
H308 C314 0.949 . S
C309 H304 0.950 . S
C309 C311 1.327 . S
C309 C315 1.429 . S
C310 C302 1.574 . S
C310 H305 0.949 . S
C310 C316 1.368 . S
C311 C295 1.349 . S
C311 H303 0.950 . S
C311 C309 1.327 . S
C312 C300 1.349 . S
C312 H306 0.950 . S
C312 C313 1.327 . S
C313 H307 0.950 . S
C313 C312 1.327 . S
C313 C317 1.429 . S
C314 C297 1.574 . S
C314 H308 0.949 . S
C314 C318 1.368 . S
C315 C296 1.429 . S
C315 C309 1.429 . S
C315 C316 1.523 . S
C316 C297 1.368 . S
C316 C310 1.368 . S
C316 C315 1.523 . S
C317 C301 1.429 . S
C317 C313 1.429 . S
C317 C318 1.523 . S
C318 C302 1.368 . S
C318 C314 1.368 . S
C318 C317 1.523 . S
H319 C294 0.950 . S
H320 C296 0.950 . S
H321 C297 0.949 . S
H322 C299 0.950 . S
H323 C301 0.950 . S
C324 C325 1.349 . S
C324 C326 1.327 . S
C324 H349 0.950 . S
C325 C324 1.349 . S
C325 C341 1.349 . S
C326 C324 1.327 . S
C326 C345 1.429 . S
C326 H350 0.950 . S
C327 C344 1.574 1_455 S
C327 C346 1.368 . S
C327 H351 0.949 . S
H328 C332 0.949 . S
C329 C330 1.349 . S
C329 C331 1.327 . S
C329 H352 0.950 . S
C330 C329 1.349 . S
C330 C342 1.349 . S
C331 C329 1.327 . S
C331 C347 1.429 . S
C331 H353 0.950 . S
C332 H328 0.949 . S
C332 C340 1.574 1_654 S
C332 C348 1.368 . S
H333 C341 0.950 . S
H334 C339 0.950 . S
H335 C340 0.949 . S
H336 C342 0.950 . S
H337 C343 0.950 . S
H338 C344 0.949 1_554 S
C339 H334 0.950 . S
C339 C341 1.327 . S
C339 C345 1.429 . S
C340 C332 1.574 1_456 S
C340 H335 0.949 . S
C340 C346 1.368 . S
C341 C325 1.349 . S
C341 H333 0.950 . S
C341 C339 1.327 . S
C342 C330 1.349 . S
C342 H336 0.950 . S
C342 C343 1.327 . S
C343 H337 0.950 . S
C343 C342 1.327 . S
C343 C347 1.429 . S
C344 C327 1.574 1_655 S
C344 H338 0.949 1_556 S
C344 C348 1.368 1_556 S
C345 C326 1.429 . S
C345 C339 1.429 . S
C345 C346 1.523 . S
C346 C327 1.368 . S
C346 C340 1.368 . S
C346 C345 1.523 . S
C347 C331 1.429 . S
C347 C343 1.429 . S
C347 C348 1.523 . S
C348 C332 1.368 . S
C348 C344 1.368 1_554 S
C348 C347 1.523 . S
H349 C324 0.950 . S
H350 C326 0.950 . S
H351 C327 0.949 . S
H352 C329 0.950 . S
H353 C331 0.950 . S
C354 C355 1.349 . S
C354 C356 1.327 . S
C354 H379 0.950 . S
C355 C354 1.349 . S
C355 C371 1.349 . S
C356 C354 1.327 . S
C356 C375 1.429 . S
C356 H380 0.950 . S
C357 C374 1.574 1_545 S
C357 C376 1.368 . S
C357 H381 0.949 . S
H358 C362 0.949 . S
C359 C360 1.349 . S
C359 C361 1.327 . S
C359 H382 0.950 . S
C360 C359 1.349 . S
C360 C372 1.349 . S
C361 C359 1.327 . S
C361 C377 1.429 . S
C361 H383 0.950 . S
C362 H358 0.949 . S
C362 C370 1.574 1_565 S
C362 C378 1.368 . S
H363 C371 0.950 . S
H364 C369 0.950 . S
H365 C370 0.949 . S
H366 C372 0.950 . S
H367 C373 0.950 . S
H368 C374 0.949 . S
C369 H364 0.950 . S
C369 C371 1.327 . S
C369 C375 1.429 . S
C370 C362 1.574 1_545 S
C370 H365 0.949 . S
C370 C376 1.368 . S
C371 C355 1.349 . S
C371 H363 0.950 . S
C371 C369 1.327 . S
C372 C360 1.349 . S
C372 H366 0.950 . S
C372 C373 1.327 . S
C373 H367 0.950 . S
C373 C372 1.327 . S
C373 C377 1.429 . S
C374 C357 1.574 1_565 S
C374 H368 0.949 . S
C374 C378 1.368 . S
C375 C356 1.429 . S
C375 C369 1.429 . S
C375 C376 1.523 . S
C376 C357 1.368 . S
C376 C370 1.368 . S
C376 C375 1.523 . S
C377 C361 1.429 . S
C377 C373 1.429 . S
C377 C378 1.523 . S
C378 C362 1.368 . S
C378 C374 1.368 . S
C378 C377 1.523 . S
H379 C354 0.950 . S
H380 C356 0.950 . S
H381 C357 0.949 . S
H382 C359 0.950 . S
H383 C361 0.950 . S
C384 C385 1.349 . S
C384 C386 1.327 . S
C384 H409 0.950 . S
C385 C384 1.349 . S
C385 C401 1.349 . S
C386 C384 1.327 . S
C386 C405 1.429 . S
C386 H410 0.950 . S
C387 C404 1.574 1_556 S
C387 C406 1.368 . S
C387 H411 0.949 . S
H388 C392 0.949 . S
C389 C390 1.349 . S
C389 C391 1.327 . S
C389 H412 0.950 . S
C390 C389 1.349 . S
C390 C402 1.349 . S
C391 C389 1.327 . S
C391 C407 1.429 . S
C391 H413 0.950 . S
C392 H388 0.949 . S
C392 C400 1.574 . S
C392 C408 1.368 . S
H393 C401 0.950 . S
H394 C399 0.950 . S
H395 C400 0.949 . S
H396 C402 0.950 . S
H397 C403 0.950 . S
H398 C404 0.949 . S
C399 H394 0.950 . S
C399 C401 1.327 . S
C399 C405 1.429 . S
C400 C392 1.574 . S
C400 H395 0.949 . S
C400 C406 1.368 1_554 S
C401 C385 1.349 . S
C401 H393 0.950 . S
C401 C399 1.327 . S
C402 C390 1.349 . S
C402 H396 0.950 . S
C402 C403 1.327 . S
C403 H397 0.950 . S
C403 C402 1.327 . S
C403 C407 1.429 . S
C404 C387 1.574 1_554 S
C404 H398 0.949 . S
C404 C408 1.368 . S
C405 C386 1.429 . S
C405 C399 1.429 . S
C405 C406 1.523 . S
C406 C387 1.368 . S
C406 C400 1.368 1_556 S
C406 C405 1.523 . S
C407 C391 1.429 . S
C407 C403 1.429 . S
C407 C408 1.523 . S
C408 C392 1.368 . S
C408 C404 1.368 . S
C408 C407 1.523 . S
H409 C384 0.950 . S
H410 C386 0.950 . S
H411 C387 0.949 . S
H412 C389 0.950 . S
H413 C391 0.950 . S
C414 C415 1.349 . S
C414 C416 1.327 . S
C414 H439 0.950 . S
C415 C414 1.349 . S
C415 C431 1.349 . S
C416 C414 1.327 . S
C416 C435 1.429 . S
C416 H440 0.950 . S
C417 C434 1.574 . S
C417 C436 1.368 . S
C417 H441 0.949 . S
H418 C422 0.949 . S
C419 C420 1.349 . S
C419 C421 1.327 . S
C419 H442 0.950 . S
C420 C419 1.349 . S
C420 C432 1.349 . S
C421 C419 1.327 . S
C421 C437 1.429 . S
C421 H443 0.950 . S
C422 H418 0.949 . S
C422 C430 1.574 . S
C422 C438 1.368 . S
H423 C431 0.950 . S
H424 C429 0.950 . S
H425 C430 0.949 . S
H426 C432 0.950 . S
H427 C433 0.950 . S
H428 C434 0.949 . S
C429 H424 0.950 . S
C429 C431 1.327 . S
C429 C435 1.429 . S
C430 C422 1.574 . S
C430 H425 0.949 . S
C430 C436 1.368 1_655 S
C431 C415 1.349 . S
C431 H423 0.950 . S
C431 C429 1.327 . S
C432 C420 1.349 . S
C432 H426 0.950 . S
C432 C433 1.327 . S
C433 H427 0.950 . S
C433 C432 1.327 . S
C433 C437 1.429 . S
C434 C417 1.574 . S
C434 H428 0.949 . S
C434 C438 1.368 1_455 S
C435 C416 1.429 . S
C435 C429 1.429 . S
C435 C436 1.523 . S
C436 C417 1.368 . S
C436 C430 1.368 1_455 S
C436 C435 1.523 . S
C437 C421 1.429 . S
C437 C433 1.429 . S
C437 C438 1.523 . S
C438 C422 1.368 . S
C438 C434 1.368 1_655 S
C438 C437 1.523 . S
H439 C414 0.950 . S
H440 C416 0.950 . S
H441 C417 0.949 . S
H442 C419 0.950 . S
H443 C421 0.950 . S
C85 C0 0.870 . S
C90 C61 0.879 . S
C115 C14 0.878 . S
C120 C70 0.878 . S
C145 C5 0.871 . S
C150 C33 0.872 . S
C175 C47 0.871 . S
C180 C19 0.872 . S
C205 C56 0.878 . S
C210 C28 0.878 . S
C235 C42 0.870 . S
C240 C75 0.879 . S
C265 C51 1.340 . S
C270 C9 1.340 . S
C295 C67 1.366 . S
C300 C23 1.381 . S
C325 C79 1.364 . S
C330 C39 1.354 . S
C355 C11 1.356 . S
C360 C53 1.356 . S
C385 C25 1.353 . S
C390 C65 1.363 . S
C415 C81 1.366 . S
C420 C37 1.380 . S
