# Generated by pormake.
# Topology unw, (4)-cn, num edge types: 1
# Building blocks:
#     Node 0, Type 0, BuildingBlock: NAWXER_clean_sbu_0, # of connection points: 4
#     Node 1, Type 0, BuildingBlock: NAWXER_clean_sbu_0, # of connection points: 4
#     Node 2, Type 0, BuildingBlock: NAWXER_clean_sbu_0, # of connection points: 4
#     Node 3, Type 0, BuildingBlock: NAWXER_clean_sbu_0, # of connection points: 4
#     Node 4, Type 0, BuildingBlock: NAWXER_clean_sbu_0, # of connection points: 4
#     Node 5, Type 0, BuildingBlock: NAWXER_clean_sbu_0, # of connection points: 4
#     Node 6, Type 0, BuildingBlock: NAWXER_clean_sbu_0, # of connection points: 4
#     Node 7, Type 0, BuildingBlock: NAWXER_clean_sbu_0, # of connection points: 4
#     Node 8, Type 0, BuildingBlock: NAWXER_clean_sbu_0, # of connection points: 4
#     Node 9, Type 0, BuildingBlock: NAWXER_clean_sbu_0, # of connection points: 4
#     Node 10, Type 0, BuildingBlock: NAWXER_clean_sbu_0, # of connection points: 4
#     Node 11, Type 0, BuildingBlock: NAWXER_clean_sbu_0, # of connection points: 4
#     Node 12, Type 0, BuildingBlock: NAWXER_clean_sbu_0, # of connection points: 4
#     Node 13, Type 0, BuildingBlock: NAWXER_clean_sbu_0, # of connection points: 4
#     Node 14, Type 0, BuildingBlock: NAWXER_clean_sbu_0, # of connection points: 4
#     Node 15, Type 0, BuildingBlock: NAWXER_clean_sbu_0, # of connection points: 4
#     Node 16, Type 0, BuildingBlock: NAWXER_clean_sbu_0, # of connection points: 4
#     Node 17, Type 0, BuildingBlock: NAWXER_clean_sbu_0, # of connection points: 4
#     Node 18, Type 0, BuildingBlock: NAWXER_clean_sbu_0, # of connection points: 4
#     Node 19, Type 0, BuildingBlock: NAWXER_clean_sbu_0, # of connection points: 4
#     Node 20, Type 0, BuildingBlock: NAWXER_clean_sbu_0, # of connection points: 4
#     Node 21, Type 0, BuildingBlock: NAWXER_clean_sbu_0, # of connection points: 4
#     Node 22, Type 0, BuildingBlock: NAWXER_clean_sbu_0, # of connection points: 4
#     Node 23, Type 0, BuildingBlock: NAWXER_clean_sbu_0, # of connection points: 4
#     Edge 24, Type (0, 0), BuildingBlock: EZIPEK_clean_linker_0, # of connection points: 2
#     Edge 25, Type (0, 0), BuildingBlock: EZIPEK_clean_linker_0, # of connection points: 2
#     Edge 26, Type (0, 0), BuildingBlock: EZIPEK_clean_linker_0, # of connection points: 2
#     Edge 27, Type (0, 0), BuildingBlock: EZIPEK_clean_linker_0, # of connection points: 2
#     Edge 28, Type (0, 0), BuildingBlock: EZIPEK_clean_linker_0, # of connection points: 2
#     Edge 29, Type (0, 0), BuildingBlock: EZIPEK_clean_linker_0, # of connection points: 2
#     Edge 30, Type (0, 0), BuildingBlock: EZIPEK_clean_linker_0, # of connection points: 2
#     Edge 31, Type (0, 0), BuildingBlock: EZIPEK_clean_linker_0, # of connection points: 2
#     Edge 32, Type (0, 0), BuildingBlock: EZIPEK_clean_linker_0, # of connection points: 2
#     Edge 33, Type (0, 0), BuildingBlock: EZIPEK_clean_linker_0, # of connection points: 2
#     Edge 34, Type (0, 0), BuildingBlock: EZIPEK_clean_linker_0, # of connection points: 2
#     Edge 35, Type (0, 0), BuildingBlock: EZIPEK_clean_linker_0, # of connection points: 2
#     Edge 36, Type (0, 0), BuildingBlock: EZIPEK_clean_linker_0, # of connection points: 2
#     Edge 37, Type (0, 0), BuildingBlock: EZIPEK_clean_linker_0, # of connection points: 2
#     Edge 38, Type (0, 0), BuildingBlock: EZIPEK_clean_linker_0, # of connection points: 2
#     Edge 39, Type (0, 0), BuildingBlock: EZIPEK_clean_linker_0, # of connection points: 2
#     Edge 40, Type (0, 0), BuildingBlock: EZIPEK_clean_linker_0, # of connection points: 2
#     Edge 41, Type (0, 0), BuildingBlock: EZIPEK_clean_linker_0, # of connection points: 2
#     Edge 42, Type (0, 0), BuildingBlock: EZIPEK_clean_linker_0, # of connection points: 2
#     Edge 43, Type (0, 0), BuildingBlock: EZIPEK_clean_linker_0, # of connection points: 2
#     Edge 44, Type (0, 0), BuildingBlock: EZIPEK_clean_linker_0, # of connection points: 2
#     Edge 45, Type (0, 0), BuildingBlock: EZIPEK_clean_linker_0, # of connection points: 2
#     Edge 46, Type (0, 0), BuildingBlock: EZIPEK_clean_linker_0, # of connection points: 2
#     Edge 47, Type (0, 0), BuildingBlock: EZIPEK_clean_linker_0, # of connection points: 2
#     Edge 48, Type (0, 0), BuildingBlock: EZIPEK_clean_linker_0, # of connection points: 2
#     Edge 49, Type (0, 0), BuildingBlock: EZIPEK_clean_linker_0, # of connection points: 2
#     Edge 50, Type (0, 0), BuildingBlock: EZIPEK_clean_linker_0, # of connection points: 2
#     Edge 51, Type (0, 0), BuildingBlock: EZIPEK_clean_linker_0, # of connection points: 2
#     Edge 52, Type (0, 0), BuildingBlock: EZIPEK_clean_linker_0, # of connection points: 2
#     Edge 53, Type (0, 0), BuildingBlock: EZIPEK_clean_linker_0, # of connection points: 2
#     Edge 54, Type (0, 0), BuildingBlock: EZIPEK_clean_linker_0, # of connection points: 2
#     Edge 55, Type (0, 0), BuildingBlock: EZIPEK_clean_linker_0, # of connection points: 2
#     Edge 56, Type (0, 0), BuildingBlock: EZIPEK_clean_linker_0, # of connection points: 2
#     Edge 57, Type (0, 0), BuildingBlock: EZIPEK_clean_linker_0, # of connection points: 2
#     Edge 58, Type (0, 0), BuildingBlock: EZIPEK_clean_linker_0, # of connection points: 2
#     Edge 59, Type (0, 0), BuildingBlock: EZIPEK_clean_linker_0, # of connection points: 2
#     Edge 60, Type (0, 0), BuildingBlock: EZIPEK_clean_linker_0, # of connection points: 2
#     Edge 61, Type (0, 0), BuildingBlock: EZIPEK_clean_linker_0, # of connection points: 2
#     Edge 62, Type (0, 0), BuildingBlock: EZIPEK_clean_linker_0, # of connection points: 2
#     Edge 63, Type (0, 0), BuildingBlock: EZIPEK_clean_linker_0, # of connection points: 2
#     Edge 64, Type (0, 0), BuildingBlock: EZIPEK_clean_linker_0, # of connection points: 2
#     Edge 65, Type (0, 0), BuildingBlock: EZIPEK_clean_linker_0, # of connection points: 2
#     Edge 66, Type (0, 0), BuildingBlock: EZIPEK_clean_linker_0, # of connection points: 2
#     Edge 67, Type (0, 0), BuildingBlock: EZIPEK_clean_linker_0, # of connection points: 2
#     Edge 68, Type (0, 0), BuildingBlock: EZIPEK_clean_linker_0, # of connection points: 2
#     Edge 69, Type (0, 0), BuildingBlock: EZIPEK_clean_linker_0, # of connection points: 2
#     Edge 70, Type (0, 0), BuildingBlock: EZIPEK_clean_linker_0, # of connection points: 2
#     Edge 71, Type (0, 0), BuildingBlock: EZIPEK_clean_linker_0, # of connection points: 2
# Relax obj value: 0.404
# Max RMSD: 0.268
# Mean RMSD: 0.268
data_MOF--net-unw--node1-NAWXER_clean_sbu_0--edge1-EZIPEK_clean_linker_0
_symmetry_space_group_name_H-M    P1
_symmetry_Int_Tables_number       1
_symmetry_cell_setting            triclinic
loop_
_symmetry_equiv_pos_as_xyz
'x, y, z'
_cell_length_a     34.059156
_cell_length_b     34.216099
_cell_length_c     34.019107
_cell_angle_alpha  89.579768
_cell_angle_beta   89.795801
_cell_angle_gamma 89.922366
loop_
_atom_site_label
_atom_site_type_symbol
_atom_site_fract_x
_atom_site_fract_y
_atom_site_fract_z
_atom_type_partial_charge
C0 C 0.13323 0.31872 0.20309 0.0
C1 C 0.0382 0.31053 0.31023 0.0
O2 O 0.09598 0.31775 0.19981 0.0
Zn3 Zn 0.0866 0.32336 0.25574 0.0
O4 O 0.14919 0.32197 0.23703 0.0
Zn5 Zn 0.13028 0.32648 0.29804 0.0
O6 O 0.1587 0.282 0.31827 0.0
O7 O 0.11259 0.26723 0.27501 0.0
O8 O 0.07334 0.31227 0.32355 0.0
O9 O 0.03241 0.32068 0.27475 0.0
O10 O 0.1096 0.38225 0.26148 0.0
O11 O 0.14928 0.37916 0.31133 0.0
C12 C 0.14 0.25649 0.2987 0.0
C13 C 0.13403 0.39957 0.284 0.0
C14 C 0.63776 0.24686 0.2274 0.0
C15 C 0.62603 0.10769 0.25143 0.0
O16 O 0.65637 0.21955 0.21018 0.0
Zn17 Zn 0.62482 0.17787 0.23145 0.0
O18 O 0.6088 0.23899 0.25032 0.0
Zn19 Zn 0.5786 0.18649 0.27124 0.0
O20 O 0.58563 0.19624 0.32717 0.0
O21 O 0.6402 0.18614 0.29283 0.0
O22 O 0.60027 0.12663 0.27125 0.0
O23 O 0.64233 0.12433 0.22217 0.0
O24 O 0.57122 0.19226 0.20175 0.0
O25 O 0.52611 0.1925 0.24801 0.0
C26 C 0.62293 0.19305 0.32557 0.0
C27 C 0.53561 0.19817 0.21226 0.0
C28 C 0.96259 0.71003 0.34855 0.0
C29 C 0.85773 0.70012 0.25197 0.0
O30 O 0.9603 0.71944 0.31263 0.0
Zn31 Zn 0.90964 0.69885 0.29784 0.0
O32 O 0.93578 0.68794 0.36313 0.0
Zn33 Zn 0.88357 0.66226 0.33759 0.0
O34 O 0.891 0.6064 0.33254 0.0
O35 O 0.91015 0.63774 0.27946 0.0
O36 O 0.85059 0.6785 0.28223 0.0
O37 O 0.88983 0.719 0.24916 0.0
O38 O 0.86444 0.72496 0.33626 0.0
O39 O 0.84294 0.6764 0.37403 0.0
C40 C 0.89827 0.60611 0.29599 0.0
C41 C 0.84033 0.7116 0.36227 0.0
C42 C 0.34066 0.83776 0.25479 0.0
C43 C 0.46673 0.83115 0.18316 0.0
O44 O 0.37047 0.83125 0.27668 0.0
Zn45 Zn 0.43353 0.82713 0.27165 0.0
O46 O 0.34503 0.84313 0.21785 0.0
Zn47 Zn 0.40231 0.83929 0.21873 0.0
O48 O 0.40669 0.77873 0.23493 0.0
O49 O 0.44029 0.77344 0.29017 0.0
O50 O 0.4337 0.8423 0.16985 0.0
O51 O 0.47055 0.82607 0.22035 0.0
O52 O 0.44734 0.87153 0.30537 0.0
O53 O 0.41184 0.88995 0.25448 0.0
C54 C 0.42108 0.75748 0.26253 0.0
C55 C 0.42717 0.89769 0.28787 0.0
C56 C 0.13127 0.75086 0.71688 0.0
C57 C 0.11303 0.61259 0.74849 0.0
O58 O 0.1411 0.72125 0.69683 0.0
Zn59 Zn 0.11596 0.68242 0.72854 0.0
O60 O 0.1095 0.74559 0.7473 0.0
Zn61 Zn 0.07972 0.69677 0.77575 0.0
O62 O 0.09834 0.70525 0.82853 0.0
O63 O 0.14469 0.68988 0.78528 0.0
O64 O 0.0935 0.63455 0.77202 0.0
O65 O 0.12752 0.62837 0.71783 0.0
O66 O 0.0579 0.69536 0.71036 0.0
O67 O 0.0241 0.70708 0.7633 0.0
C68 C 0.13429 0.69839 0.82053 0.0
C69 C 0.02531 0.70514 0.72603 0.0
C70 C 0.40694 0.20633 0.70003 0.0
C71 C 0.49574 0.20779 0.81283 0.0
O72 O 0.44431 0.20685 0.69865 0.0
Zn73 Zn 0.45119 0.20029 0.75514 0.0
O74 O 0.38915 0.20294 0.73314 0.0
Zn75 Zn 0.40403 0.19758 0.79465 0.0
O76 O 0.37728 0.24297 0.81381 0.0
O77 O 0.42735 0.25627 0.77438 0.0
O78 O 0.45972 0.20561 0.82364 0.0
O79 O 0.5044 0.20235 0.77693 0.0
O80 O 0.42624 0.14175 0.76169 0.0
O81 O 0.38167 0.14695 0.80745 0.0
C82 C 0.39903 0.26791 0.79638 0.0
C83 C 0.39913 0.1256 0.78254 0.0
C84 C 0.89627 0.2679 0.72313 0.0
C85 C 0.9092 0.40915 0.74423 0.0
O86 O 0.87889 0.29535 0.7046 0.0
Zn87 Zn 0.90801 0.3376 0.72793 0.0
O88 O 0.92326 0.27617 0.74795 0.0
Zn89 Zn 0.95004 0.32825 0.77198 0.0
O90 O 0.93587 0.32042 0.82708 0.0
O91 O 0.88575 0.33136 0.78726 0.0
O92 O 0.93219 0.3891 0.76639 0.0
O93 O 0.89224 0.39126 0.71645 0.0
O94 O 0.96599 0.32604 0.70398 0.0
O95 O 1.00468 0.32164 0.75539 0.0
C96 C 0.89908 0.32482 0.82187 0.0
C97 C 1.00014 0.31933 0.71841 0.0
C98 C 0.62393 0.90325 0.77971 0.0
C99 C 0.63015 0.76101 0.7897 0.0
O100 O 0.64168 0.88206 0.80478 0.0
Zn101 Zn 0.62287 0.83109 0.7896 0.0
O102 O 0.59859 0.88663 0.75755 0.0
Zn103 Zn 0.57717 0.82764 0.74819 0.0
O104 O 0.52347 0.822 0.76876 0.0
O105 O 0.56703 0.81939 0.81634 0.0
O106 O 0.60229 0.7724 0.76711 0.0
O107 O 0.65053 0.78599 0.80822 0.0
O108 O 0.64061 0.82941 0.72901 0.0
O109 O 0.58775 0.82399 0.69173 0.0
C110 C 0.5316 0.81541 0.80467 0.0
C111 C 0.62493 0.82667 0.69501 0.0
C112 C 0.21901 0.11454 0.31641 0.0
C113 C 0.33466 0.0297 0.33692 0.0
O114 O 0.21758 0.07732 0.31918 0.0
Zn115 Zn 0.2736 0.07189 0.33211 0.0
O116 O 0.25152 0.13255 0.32087 0.0
Zn117 Zn 0.3119 0.12041 0.33476 0.0
O118 O 0.334 0.14325 0.28766 0.0
O119 O 0.29757 0.09148 0.27638 0.0
O120 O 0.34377 0.06605 0.33687 0.0
O121 O 0.29857 0.02031 0.33867 0.0
O122 O 0.27017 0.10292 0.3871 0.0
O123 O 0.31564 0.14855 0.38458 0.0
C124 C 0.3195 0.11906 0.26336 0.0
C125 C 0.28638 0.13311 0.40205 0.0
C126 C 0.90797 0.23688 0.39743 0.0
C127 C 0.76639 0.21712 0.39764 0.0
O128 O 0.8898 0.20734 0.38425 0.0
Zn129 Zn 0.83716 0.21944 0.40423 0.0
O130 O 0.89114 0.25753 0.42392 0.0
Zn131 Zn 0.83269 0.26024 0.44965 0.0
O132 O 0.83037 0.23906 0.50345 0.0
O133 O 0.82664 0.19201 0.46001 0.0
O134 O 0.77735 0.23984 0.42535 0.0
O135 O 0.79201 0.1993 0.37704 0.0
O136 O 0.83081 0.2803 0.38687 0.0
O137 O 0.8249 0.3159 0.44087 0.0
C138 C 0.82363 0.20345 0.4956 0.0
C139 C 0.82671 0.31357 0.4035 0.0
C140 C 0.79826 0.92048 0.39327 0.0
C141 C 0.76052 0.89708 0.25748 0.0
O142 O 0.76178 0.9118 0.3904 0.0
Zn143 Zn 0.72011 0.90262 0.34355 0.0
O144 O 0.81655 0.93226 0.36278 0.0
Zn145 Zn 0.77683 0.91798 0.3236 0.0
O146 O 0.73482 0.96425 0.31575 0.0
O147 O 0.67991 0.94378 0.34296 0.0
O148 O 0.79282 0.91135 0.26942 0.0
O149 O 0.73178 0.89273 0.28166 0.0
O150 O 0.70561 0.84979 0.35944 0.0
O151 O 0.7676 0.85737 0.34049 0.0
C152 C 0.69841 0.96979 0.3236 0.0
C153 C 0.73993 0.83578 0.35417 0.0
C154 C 0.21528 0.8338 0.36632 0.0
C155 C 0.09483 0.78953 0.42094 0.0
O156 O 0.18092 0.84756 0.3621 0.0
Zn157 Zn 0.15905 0.82101 0.40646 0.0
O158 O 0.22335 0.81183 0.39627 0.0
Zn159 Zn 0.18626 0.78402 0.44419 0.0
O160 O 0.20423 0.73149 0.43662 0.0
O161 O 0.17447 0.76027 0.38621 0.0
O162 O 0.12306 0.77145 0.43816 0.0
O163 O 0.10172 0.82287 0.40619 0.0
O164 O 0.18606 0.85328 0.45485 0.0
O165 O 0.20235 0.80559 0.49469 0.0
C166 C 0.19229 0.73065 0.40123 0.0
C167 C 0.2016 0.84184 0.48732 0.0
C168 C 0.20735 0.89832 0.69702 0.0
C169 C 0.30767 1.00065 0.71361 0.0
O170 O 0.19965 0.9339 0.70512 0.0
Zn171 Zn 0.25436 0.95151 0.69943 0.0
O172 O 0.24282 0.88826 0.68963 0.0
Zn173 Zn 0.30041 0.91235 0.68446 0.0
O174 O 0.32511 0.87914 0.72387 0.0
O175 O 0.27918 0.91814 0.74808 0.0
O176 O 0.3224 0.96786 0.70309 0.0
O177 O 0.27062 1.00521 0.71207 0.0
O178 O 0.25839 0.94146 0.63689 0.0
O179 O 0.30927 0.90382 0.62779 0.0
C180 C 0.30527 0.89149 0.75314 0.0
C181 C 0.27993 0.92181 0.61318 0.0
C182 C 0.20272 0.22046 0.52156 0.0
C183 C 0.22119 0.32607 0.6154 0.0
O184 O 0.20065 0.25715 0.51588 0.0
Zn185 Zn 0.20513 0.27612 0.56961 0.0
O186 O 0.20233 0.2082 0.5572 0.0
Zn187 Zn 0.20092 0.23392 0.61442 0.0
O188 O 0.15017 0.22697 0.64095 0.0
O189 O 0.14868 0.27718 0.60028 0.0
O190 O 0.21608 0.2924 0.63122 0.0
O191 O 0.21879 0.33067 0.57826 0.0
O192 O 0.26047 0.2492 0.58831 0.0
O193 O 0.2458 0.20821 0.63636 0.0
C194 C 0.13249 0.25701 0.62785 0.0
C195 C 0.2715 0.22378 0.61389 0.0
C196 C 0.7258 0.13053 0.75738 0.0
C197 C 0.74742 0.11317 0.61705 0.0
O198 O 0.70717 0.14725 0.72953 0.0
Zn199 Zn 0.72985 0.11631 0.6884 0.0
O200 O 0.75039 0.10309 0.75018 0.0
Zn201 Zn 0.77262 0.0729 0.69881 0.0
O202 O 0.82805 0.08513 0.70658 0.0
O203 O 0.78955 0.13609 0.6944 0.0
O204 O 0.76883 0.09015 0.63777 0.0
O205 O 0.71917 0.13041 0.6342 0.0
O206 O 0.70397 0.06158 0.70414 0.0
O207 O 0.75271 0.01956 0.70727 0.0
C208 C 0.82359 0.12187 0.70152 0.0
C209 C 0.71635 0.027 0.7115 0.0
C210 C 0.82317 0.72448 0.62228 0.0
C211 C 0.84583 0.83617 0.53231 0.0
O212 O 0.82715 0.7216 0.58507 0.0
Zn213 Zn 0.83889 0.77729 0.57727 0.0
O214 O 0.82622 0.75769 0.63897 0.0
Zn215 Zn 0.83965 0.8175 0.62433 0.0
O216 O 0.7912 0.84017 0.64338 0.0
O217 O 0.78238 0.80075 0.59349 0.0
O218 O 0.84504 0.84675 0.56838 0.0
O219 O 0.84696 0.79985 0.52472 0.0
O220 O 0.89271 0.77644 0.61023 0.0
O221 O 0.88811 0.82264 0.65481 0.0
C222 C 0.76803 0.82409 0.61901 0.0
C223 C 0.90638 0.79344 0.64067 0.0
C224 C 0.33389 0.19592 0.12016 0.0
C225 C 0.32855 0.3026 0.02402 0.0
O226 O 0.33134 0.19234 0.08298 0.0
Zn227 Zn 0.33936 0.24779 0.07191 0.0
O228 O 0.33904 0.22967 0.13534 0.0
Zn229 Zn 0.34529 0.28958 0.11576 0.0
O230 O 0.30235 0.3108 0.14493 0.0
O231 O 0.28478 0.27044 0.09753 0.0
O232 O 0.33169 0.31547 0.05915 0.0
O233 O 0.33695 0.26699 0.01771 0.0
O234 O 0.39887 0.25212 0.09337 0.0
O235 O 0.39835 0.30159 0.13331 0.0
C236 C 0.2755 0.29372 0.12555 0.0
C237 C 0.41741 0.27392 0.11748 0.0
C238 C 0.27525 0.70655 0.9068 0.0
C239 C 0.41577 0.73824 0.90259 0.0
O240 O 0.30214 0.68915 0.88748 0.0
Zn241 Zn 0.3461 0.71635 0.90974 0.0
O242 O 0.28509 0.73348 0.93072 0.0
Zn243 Zn 0.33782 0.76134 0.95116 0.0
O244 O 0.32526 0.81506 0.93481 0.0
O245 O 0.3334 0.77334 0.88595 0.0
O246 O 0.39644 0.75926 0.927 0.0
O247 O 0.39846 0.70879 0.88811 0.0
O248 O 0.34426 0.69411 0.96903 0.0
O249 O 0.3391 0.74497 1.00685 0.0
C250 C 0.32642 0.80796 0.89804 0.0
C251 C 0.34157 0.70799 1.00378 0.0
C252 C 0.2083 0.49316 0.81949 0.0
C253 C 0.32472 0.40893 0.81987 0.0
O254 O 0.24364 0.50316 0.82574 0.0
Zn255 Zn 0.26906 0.45128 0.82783 0.0
O256 O 0.19912 0.45705 0.82199 0.0
Zn257 Zn 0.23019 0.404 0.8321 0.0
O258 O 0.21953 0.38265 0.88433 0.0
O259 O 0.26895 0.42368 0.88564 0.0
O260 O 0.29224 0.39058 0.82458 0.0
O261 O 0.32545 0.44625 0.81896 0.0
O262 O 0.25136 0.42525 0.77251 0.0
O263 O 0.21175 0.37576 0.78709 0.0
C264 C 0.24951 0.39584 0.90193 0.0
C265 C 0.22972 0.3967 0.76169 0.0
C266 C 0.75884 0.30876 0.90769 0.0
C267 C 0.61822 0.27439 0.90901 0.0
O268 O 0.73116 0.32491 0.88831 0.0
Zn269 Zn 0.68824 0.2969 0.91269 0.0
O270 O 0.75014 0.28147 0.93218 0.0
Zn271 Zn 0.69803 0.25224 0.95466 0.0
O272 O 0.71117 0.19899 0.94015 0.0
O273 O 0.70143 0.24021 0.89039 0.0
O274 O 0.63856 0.25342 0.93276 0.0
O275 O 0.63482 0.30406 0.89358 0.0
O276 O 0.69368 0.31857 0.97118 0.0
O277 O 0.69892 0.26751 1.00966 0.0
C278 C 0.70912 0.20586 0.90334 0.0
C279 C 0.6981 0.30449 1.00583 0.0
C280 C 0.705 0.62053 0.81581 0.0
C281 C 0.81872 0.53426 0.81279 0.0
O282 O 0.70444 0.58351 0.81214 0.0
Zn283 Zn 0.76 0.57769 0.82271 0.0
O284 O 0.73715 0.63832 0.82367 0.0
Zn285 Zn 0.79869 0.62345 0.83286 0.0
O286 O 0.8208 0.65609 0.7919 0.0
O287 O 0.78157 0.60941 0.7703 0.0
O288 O 0.82929 0.56962 0.81907 0.0
O289 O 0.78275 0.52541 0.81674 0.0
O290 O 0.75886 0.59725 0.88394 0.0
O291 O 0.80593 0.64011 0.8873 0.0
C292 C 0.80432 0.63864 0.76347 0.0
C293 C 0.77792 0.62223 0.90438 0.0
C294 C 0.73117 0.71544 0.1413 0.0
C295 C 0.60674 0.77063 0.10626 0.0
O296 O 0.6969 0.70388 0.15068 0.0
Zn297 Zn 0.67091 0.73489 0.11213 0.0
O298 O 0.73618 0.7387 0.11178 0.0
Zn299 Zn 0.69558 0.77222 0.07225 0.0
O300 O 0.71974 0.82253 0.0817 0.0
O301 O 0.69394 0.79218 0.13345 0.0
O302 O 0.63392 0.78809 0.08649 0.0
O303 O 0.614 0.73701 0.12013 0.0
O304 O 0.6901 0.70329 0.06003 0.0
O305 O 0.7048 0.75087 0.01933 0.0
C306 C 0.71256 0.82135 0.11846 0.0
C307 C 0.7032 0.71448 0.02639 0.0
C308 C 0.23316 0.63604 0.27006 0.0
C309 C 0.27762 0.62076 0.13697 0.0
O310 O 0.21957 0.65108 0.23868 0.0
Zn311 Zn 0.24799 0.61805 0.20377 0.0
O312 O 0.25775 0.6075 0.26838 0.0
Zn313 Zn 0.2872 0.57523 0.22017 0.0
O314 O 0.34051 0.58288 0.2386 0.0
O315 O 0.30783 0.63634 0.22113 0.0
O316 O 0.29617 0.59662 0.15935 0.0
O317 O 0.2451 0.6344 0.14881 0.0
O318 O 0.21802 0.56325 0.21664 0.0
O319 O 0.26632 0.52165 0.22443 0.0
C320 C 0.33915 0.61986 0.23414 0.0
C321 C 0.22972 0.52849 0.22485 0.0
C322 C 0.78085 0.39009 0.12573 0.0
C323 C 0.81396 0.39794 0.26495 0.0
O324 O 0.81242 0.37781 0.14143 0.0
Zn325 Zn 0.80497 0.40033 0.19396 0.0
O326 O 0.76043 0.41593 0.14341 0.0
Zn327 Zn 0.7603 0.44258 0.19972 0.0
O328 O 0.77662 0.4969 0.19543 0.0
O329 O 0.82798 0.45823 0.20011 0.0
O330 O 0.78756 0.4225 0.25428 0.0
O331 O 0.83073 0.37717 0.23875 0.0
O332 O 0.74714 0.37936 0.20783 0.0
O333 O 0.70608 0.42963 0.21278 0.0
C334 C 0.81311 0.49253 0.20181 0.0
C335 C 0.71257 0.39289 0.21348 0.0
C336 C 0.16976 0.48444 0.21905 0.0
C337 C 0.2015 0.49875 0.24171 0.0
C338 C 0.17857 0.45812 0.29791 0.0
C339 C 0.1504 0.43987 0.27337 0.0
N340 N 0.1063 0.45248 0.21937 0.0
N341 N 0.23474 0.50137 0.30425 0.0
C342 C 0.1421 0.4579 0.23639 0.0
C343 C 0.20535 0.48629 0.28167 0.0
N344 N 0.16687 0.49478 0.18031 0.0
N345 N 0.17695 0.4514 0.33753 0.0
H346 H 0.25225 0.52477 0.2953 0.0
H347 H 0.24297 0.48979 0.33136 0.0
H348 H 0.15422 0.4355 0.35059 0.0
H349 H 0.19442 0.46553 0.358 0.0
H350 H 0.14734 0.48159 0.16101 0.0
H351 H 0.18633 0.51412 0.16664 0.0
H352 H 0.09741 0.46698 0.19389 0.0
H353 H 0.08328 0.43844 0.23393 0.0
C354 C 0.49732 0.2589 0.19361 0.0
C355 C 0.50873 0.21976 0.18481 0.0
C356 C 0.47441 0.22545 0.12137 0.0
C357 C 0.45676 0.26095 0.13386 0.0
N358 N 0.46876 0.31977 0.16985 0.0
N359 N 0.50889 0.16585 0.13965 0.0
C360 C 0.47317 0.28022 0.16668 0.0
C361 C 0.4981 0.20335 0.14812 0.0
N362 N 0.50956 0.27588 0.2277 0.0
N363 N 0.47074 0.21438 0.08309 0.0
H364 H 0.52593 0.14876 0.15855 0.0
H365 H 0.49829 0.15056 0.11558 0.0
H366 H 0.45769 0.23246 0.06203 0.0
H367 H 0.48514 0.19039 0.07109 0.0
H368 H 0.49788 0.30181 0.23851 0.0
H369 H 0.53033 0.26338 0.24635 0.0
H370 H 0.48229 0.3366 0.19123 0.0
H371 H 0.45603 0.33657 0.14757 0.0
C372 C 0.81824 0.5383 0.25877 0.0
C373 C 0.83499 0.52322 0.22372 0.0
C374 C 0.89633 0.5585 0.23863 0.0
C375 C 0.8776 0.57664 0.27118 0.0
N376 N 0.81516 0.59297 0.30214 0.0
N377 N 0.8886 0.52281 0.17741 0.0
C378 C 0.83701 0.5693 0.27829 0.0
C379 C 0.87376 0.53442 0.2128 0.0
N380 N 0.7854 0.5219 0.27523 0.0
N381 N 0.93572 0.56345 0.23301 0.0
H382 H 0.87262 0.50561 0.15797 0.0
H383 H 0.91513 0.53286 0.16594 0.0
H384 H 0.95282 0.58062 0.25149 0.0
H385 H 0.95193 0.54817 0.21214 0.0
H386 H 0.77517 0.52949 0.30309 0.0
H387 H 0.7709 0.49781 0.26382 0.0
H388 H 0.78467 0.59084 0.30423 0.0
H389 H 0.82601 0.61751 0.31616 0.0
C390 C 0.53255 0.77898 0.10712 0.0
C391 C 0.57012 0.79162 0.11973 0.0
C392 C 0.53765 0.83852 0.1642 0.0
C393 C 0.50067 0.82147 0.15652 0.0
N394 N 0.46312 0.7724 0.12242 0.0
N395 N 0.6076 0.82893 0.16655 0.0
C396 C 0.49799 0.79124 0.12796 0.0
C397 C 0.57245 0.82058 0.14958 0.0
N398 N 0.52991 0.75522 0.07516 0.0
N399 N 0.53959 0.87216 0.18552 0.0
H400 H 0.63355 0.81556 0.15813 0.0
H401 H 0.61039 0.84611 0.19155 0.0
H402 H 0.5146 0.88628 0.19624 0.0
H403 H 0.56539 0.88812 0.18886 0.0
H404 H 0.50341 0.74793 0.06193 0.0
H405 H 0.55464 0.74572 0.05971 0.0
H406 H 0.46033 0.74727 0.10558 0.0
H407 H 0.43731 0.77996 0.13702 0.0
C408 C 0.18542 0.53017 0.75958 0.0
C409 C 0.18006 0.52062 0.80007 0.0
C410 C 0.11803 0.55788 0.79984 0.0
C411 C 0.12738 0.57273 0.76182 0.0
N412 N 0.15554 0.55486 0.69971 0.0
N413 N 0.14031 0.52344 0.85862 0.0
C414 C 0.15687 0.55344 0.73981 0.0
C415 C 0.1456 0.53328 0.81996 0.0
N416 N 0.21812 0.51757 0.73995 0.0
N417 N 0.0819 0.56551 0.8155 0.0
H418 H 0.15985 0.50548 0.87395 0.0
H419 H 0.11824 0.53504 0.87626 0.0
H420 H 0.06005 0.57963 0.79931 0.0
H421 H 0.07183 0.55384 0.84199 0.0
H422 H 0.2259 0.52757 0.71201 0.0
H423 H 0.23904 0.49909 0.75241 0.0
H424 H 0.1741 0.53876 0.68158 0.0
H425 H 0.13208 0.56771 0.68475 0.0
C426 C 0.56706 0.22035 0.89895 0.0
C427 C 0.57935 0.25983 0.89312 0.0
C428 C 0.53303 0.26594 0.83804 0.0
C429 C 0.52509 0.22513 0.84028 0.0
N430 N 0.53566 0.16281 0.8716 0.0
N431 N 0.55848 0.32327 0.87088 0.0
C432 C 0.54217 0.20221 0.87063 0.0
C433 C 0.55778 0.28361 0.86657 0.0
N434 N 0.57601 0.20141 0.93325 0.0
N435 N 0.51788 0.28781 0.8079 0.0
H436 H 0.57268 0.33654 0.8944 0.0
H437 H 0.54082 0.34245 0.85492 0.0
H438 H 0.49923 0.27645 0.78667 0.0
H439 H 0.52629 0.3165 0.80198 0.0
H440 H 0.56601 0.17352 0.94042 0.0
H441 H 0.58808 0.21579 0.95721 0.0
H442 H 0.55088 0.1436 0.8899 0.0
H443 H 0.51717 0.14887 0.85174 0.0
C444 C 0.88017 0.49191 0.81292 0.0
C445 C 0.84652 0.50644 0.79304 0.0
C446 C 0.86625 0.46938 0.73407 0.0
C447 C 0.89547 0.44967 0.7563 0.0
N448 N 0.94293 0.45848 0.80777 0.0
N449 N 0.80884 0.51143 0.73312 0.0
C450 C 0.90639 0.46584 0.79311 0.0
C451 C 0.84015 0.49607 0.75303 0.0
N452 N 0.88605 0.5014 0.85138 0.0
N453 N 0.86592 0.46518 0.69417 0.0
H454 H 0.79099 0.53347 0.74436 0.0
H455 H 0.79932 0.50111 0.70608 0.0
H456 H 0.88795 0.44997 0.67933 0.0
H457 H 0.84757 0.48083 0.67538 0.0
H458 H 0.90721 0.48807 0.86899 0.0
H459 H 0.86772 0.52053 0.86662 0.0
H460 H 0.95386 0.47144 0.83306 0.0
H461 H 0.96436 0.44394 0.79149 0.0
C462 C 0.49026 0.81312 0.86642 0.0
C463 C 0.50319 0.79493 0.83133 0.0
C464 C 0.47154 0.73354 0.85291 0.0
C465 C 0.45361 0.75351 0.88467 0.0
N466 N 0.46348 0.80448 0.93207 0.0
N467 N 0.50678 0.73709 0.79098 0.0
C468 C 0.46802 0.79118 0.89458 0.0
C469 C 0.4941 0.75487 0.82459 0.0
N470 N 0.49797 0.85183 0.87217 0.0
N471 N 0.4702 0.69365 0.85211 0.0
H472 H 0.5253 0.75045 0.77052 0.0
H473 H 0.49692 0.70982 0.78196 0.0
H474 H 0.45868 0.67726 0.87541 0.0
H475 H 0.48525 0.67668 0.83174 0.0
H476 H 0.48556 0.86803 0.89485 0.0
H477 H 0.51412 0.86868 0.8522 0.0
H478 H 0.47563 0.83043 0.94214 0.0
H479 H 0.45261 0.78673 0.95466 0.0
C480 C 0.21762 0.20819 0.44947 0.0
C481 C 0.21466 0.19344 0.48843 0.0
C482 C 0.25664 0.13757 0.47002 0.0
C483 C 0.26393 0.15507 0.43278 0.0
N484 N 0.25061 0.2074 0.38627 0.0
N485 N 0.21418 0.13416 0.52724 0.0
C486 C 0.24418 0.1905 0.42228 0.0
C487 C 0.22927 0.15519 0.49645 0.0
N488 N 0.19202 0.23663 0.43744 0.0
N489 N 0.27692 0.10471 0.48072 0.0
H490 H 0.18966 0.14349 0.54303 0.0
H491 H 0.22154 0.10517 0.53314 0.0
H492 H 0.29712 0.09113 0.46214 0.0
H493 H 0.2764 0.093 0.50906 0.0
H494 H 0.19006 0.24706 0.40872 0.0
H495 H 0.16881 0.24598 0.45514 0.0
H496 H 0.24134 0.23549 0.37886 0.0
H497 H 0.26721 0.19457 0.36412 0.0
C498 C 0.74152 0.15825 0.55797 0.0
C499 C 0.76168 0.12746 0.57729 0.0
C500 C 0.821 0.14266 0.53835 0.0
C501 C 0.80292 0.17751 0.52448 0.0
N502 N 0.745 0.21841 0.52023 0.0
N503 N 0.81239 0.07909 0.5695 0.0
C504 C 0.7628 0.18515 0.53386 0.0
C505 C 0.79914 0.11618 0.56263 0.0
N506 N 0.70148 0.15962 0.56005 0.0
N507 N 0.8596 0.13575 0.52978 0.0
H508 H 0.79469 0.0578 0.58262 0.0
H509 H 0.83817 0.06788 0.55751 0.0
H510 H 0.87631 0.15447 0.5121 0.0
H511 H 0.87589 0.11332 0.54264 0.0
H512 H 0.68429 0.17922 0.54407 0.0
H513 H 0.6852 0.13743 0.57355 0.0
H514 H 0.7177 0.22801 0.53011 0.0
H515 H 0.75838 0.23804 0.5009 0.0
C516 C 0.80195 0.91759 0.46679 0.0
C517 C 0.81932 0.90827 0.43017 0.0
C518 C 0.86382 0.86289 0.46515 0.0
C519 C 0.84037 0.86556 0.49955 0.0
N520 N 0.78259 0.89344 0.53073 0.0
N521 N 0.8648 0.86677 0.39432 0.0
C522 C 0.80866 0.89296 0.50013 0.0
C523 C 0.85034 0.88009 0.42927 0.0
N524 N 0.7783 0.94972 0.4695 0.0
N525 N 0.89885 0.84349 0.46657 0.0
H526 H 0.85584 0.87709 0.36698 0.0
H527 H 0.8835 0.84271 0.39241 0.0
H528 H 0.90963 0.83099 0.49246 0.0
H529 H 0.91881 0.84347 0.44327 0.0
H530 H 0.76752 0.96015 0.49616 0.0
H531 H 0.77316 0.96823 0.44552 0.0
H532 H 0.75671 0.90971 0.53026 0.0
H533 H 0.78433 0.87488 0.55493 0.0
C534 C 0.20482 0.90008 0.53363 0.0
C535 C 0.22406 0.86934 0.51339 0.0
C536 C 0.28593 0.88627 0.54742 0.0
C537 C 0.26497 0.91235 0.5721 0.0
N538 N 0.21186 0.95896 0.57231 0.0
N539 N 0.28441 0.83601 0.49718 0.0
C540 C 0.22655 0.92389 0.56025 0.0
C541 C 0.26521 0.86357 0.51894 0.0
N542 N 0.16533 0.90532 0.52917 0.0
N543 N 0.326 0.8858 0.54909 0.0
H544 H 0.27146 0.82176 0.47354 0.0
H545 H 0.31278 0.82633 0.50301 0.0
H546 H 0.34163 0.9058 0.56592 0.0
H547 H 0.34392 0.86951 0.53058 0.0
H548 H 0.14879 0.92397 0.54676 0.0
H549 H 0.14854 0.88885 0.5098 0.0
H550 H 0.18526 0.9704 0.56252 0.0
H551 H 0.22901 0.97918 0.58728 0.0
C552 C 0.62631 0.9636 0.73537 0.0
C553 C 0.63932 0.94362 0.76964 0.0
C554 C 0.69823 0.98521 0.7705 0.0
C555 C 0.68935 0.99868 0.73173 0.0
N556 N 0.64397 1.00158 0.67745 0.0
N557 N 0.67544 0.95135 0.82946 0.0
C558 C 0.65272 0.98875 0.71455 0.0
C559 C 0.67195 0.95898 0.79014 0.0
N560 N 0.58794 0.96058 0.72433 0.0
N561 N 0.73158 0.99769 0.78879 0.0
H562 H 0.65353 0.93676 0.84526 0.0
H563 H 0.69675 0.96353 0.84742 0.0
H564 H 0.74909 0.02033 0.77802 0.0
H565 H 0.74272 0.98491 0.81427 0.0
H566 H 0.57564 0.97661 0.70134 0.0
H567 H 0.56717 0.94625 0.74181 0.0
H568 H 0.61976 0.99188 0.66169 0.0
H569 H 0.66282 0.01916 0.66083 0.0
C570 C 0.92712 0.75324 0.69992 0.0
C571 C 0.93725 0.77223 0.66371 0.0
C572 C 0.99896 0.73498 0.66204 0.0
C573 C 0.99195 0.72084 0.70101 0.0
N574 N 0.94258 0.70256 0.74811 0.0
N575 N 0.98486 0.78462 0.61283 0.0
C576 C 0.95411 0.72636 0.71774 0.0
C577 C 0.97378 0.76403 0.6456 0.0
N578 N 0.89159 0.76057 0.71726 0.0
N579 N 0.02691 0.71789 0.63892 0.0
H580 H 0.9672 0.80619 0.6001 0.0
H581 H 1.01298 0.78312 0.60076 0.0
H582 H 0.04046 0.69159 0.64637 0.0
H583 H 0.03148 0.72545 0.60955 0.0
H584 H 0.88433 0.7519 0.74572 0.0
H585 H 0.86956 0.7772 0.70421 0.0
H586 H 0.91444 0.70204 0.76005 0.0
H587 H 0.95989 0.67941 0.75815 0.0
C588 C 0.34924 0.06999 0.7918 0.0
C589 C 0.38257 0.08574 0.77174 0.0
C590 C 0.36878 0.04298 0.71548 0.0
C591 C 0.33343 0.03007 0.73361 0.0
N592 N 0.2975 0.02106 0.79433 0.0
N593 N 0.43383 0.06953 0.72562 0.0
C594 C 0.32563 0.04078 0.77332 0.0
C595 C 0.39544 0.06682 0.73693 0.0
N596 N 0.34103 0.08173 0.8292 0.0
N597 N 0.37652 0.03361 0.67726 0.0
H598 H 0.45504 0.08232 0.7434 0.0
H599 H 0.44555 0.05412 0.70202 0.0
H600 H 0.35741 0.01713 0.66018 0.0
H601 H 0.39996 0.04545 0.66143 0.0
H602 H 0.31403 0.07747 0.843 0.0
H603 H 0.36203 0.09496 0.8469 0.0
H604 H 0.29263 0.02458 0.82429 0.0
H605 H 0.28099 0.99827 0.78277 0.0
C606 C 0.0594 0.26002 0.64233 0.0
C607 C 0.09796 0.27332 0.64979 0.0
C608 C 0.0712 0.32143 0.69643 0.0
C609 C 0.03321 0.30497 0.69278 0.0
N610 N 0.99377 0.25162 0.66835 0.0
N611 N 0.14104 0.31008 0.69192 0.0
C612 C 0.02786 0.27254 0.66709 0.0
C613 C 0.10401 0.30225 0.67902 0.0
N614 N 0.05281 0.23527 0.61175 0.0
N615 N 0.07602 0.35596 0.71573 0.0
H616 H 0.16557 0.29496 0.68192 0.0
H617 H 0.14679 0.32808 0.71579 0.0
H618 H 0.05259 0.37148 0.72785 0.0
H619 H 0.10252 0.37116 0.71594 0.0
H620 H 0.02475 0.22782 0.60227 0.0
H621 H 0.07539 0.2248 0.59387 0.0
H622 H 0.98974 0.22561 0.65316 0.0
H623 H 0.97117 0.25762 0.68799 0.0
C624 C 0.64362 1.00111 0.28335 0.0
C625 C 0.67787 1.00508 0.30706 0.0
C626 C 0.68048 0.07495 0.28953 0.0
C627 C 0.64415 0.07174 0.2691 0.0
N628 N 0.58796 0.03297 0.25197 0.0
N629 N 0.72398 0.04758 0.33896 0.0
C630 C 0.62463 0.03521 0.26793 0.0
C631 C 0.69494 0.04254 0.3118 0.0
N632 N 0.63059 0.96479 0.27323 0.0
N633 N 0.70148 0.10896 0.2877 0.0
H634 H 0.73413 0.02499 0.35703 0.0
H635 H 0.73519 0.07476 0.3466 0.0
H636 H 0.69178 0.134 0.27314 0.0
H637 H 0.73007 0.11154 0.2981 0.0
H638 H 0.60852 0.9602 0.25267 0.0
H639 H 0.64434 0.93901 0.28213 0.0
H640 H 0.57037 1.00816 0.25422 0.0
H641 H 0.57402 0.05693 0.23895 0.0
C642 C 0.99146 0.74575 0.40797 0.0
C643 C 0.99665 0.72479 0.37216 0.0
C644 C 0.06435 0.74858 0.36808 0.0
C645 C 0.06067 0.76679 0.40541 0.0
N646 N 0.02245 0.77726 0.46395 0.0
N647 N 0.04212 0.69659 0.32592 0.0
C648 C 0.02481 0.76335 0.42651 0.0
C649 C 0.03449 0.72303 0.35489 0.0
N650 N 0.95464 0.75107 0.42304 0.0
N651 N 0.09524 0.75726 0.34384 0.0
H652 H 0.02134 0.67629 0.31662 0.0
H653 H 0.07016 0.69187 0.31452 0.0
H654 H 0.11604 0.77843 0.35037 0.0
H655 H 0.09739 0.74717 0.31508 0.0
H656 H 0.94863 0.76947 0.44657 0.0
H657 H 0.92952 0.73956 0.41021 0.0
H658 H 0.9984 0.77238 0.48233 0.0
H659 H 0.04599 0.79116 0.47755 0.0
C660 C 0.38917 0.93204 0.34222 0.0
C661 C 0.4137 0.93417 0.30813 0.0
C662 C 0.38982 1.00082 0.29534 0.0
C663 C 0.36552 0.99901 0.32961 0.0
N664 N 0.35126 0.9672 0.39129 0.0
N665 N 0.44591 0.97446 0.25995 0.0
C666 C 0.3684 0.96604 0.35495 0.0
C667 C 0.41697 0.97006 0.28753 0.0
N668 N 0.38287 0.89701 0.36072 0.0
N669 N 0.38499 0.03016 0.26836 0.0
H670 H 0.4661 0.95228 0.25392 0.0
H671 H 0.45239 1.00109 0.24638 0.0
H672 H 0.36452 0.0524 0.27149 0.0
H673 H 0.39869 0.03043 0.24093 0.0
H674 H 0.36121 0.89289 0.38205 0.0
H675 H 0.39705 0.87122 0.353 0.0
H676 H 0.35539 0.94558 0.4126 0.0
H677 H 0.33606 0.99167 0.40141 0.0
C678 C 1.00168 0.29608 0.375 0.0
C679 C 1.00592 0.29088 0.33366 0.0
C680 C 0.94467 0.25315 0.33412 0.0
C681 C 0.94332 0.25315 0.37599 0.0
N682 N 0.97656 0.26902 0.43633 0.0
N683 N 0.98784 0.25067 0.27814 0.0
C684 C 0.97373 0.2729 0.39649 0.0
C685 C 0.97943 0.26524 0.31449 0.0
N686 N 0.0228 0.32424 0.39366 0.0
N687 N 0.9122 0.24448 0.3124 0.0
H688 H 0.01469 0.25501 0.26399 0.0
H689 H 0.97021 0.22976 0.26472 0.0
H690 H 0.88443 0.24011 0.32452 0.0
H691 H 0.91184 0.24726 0.28184 0.0
H692 H 0.01813 0.33157 0.42299 0.0
H693 H 0.0418 0.34318 0.37888 0.0
H694 H 1.0001 0.27999 0.45232 0.0
H695 H 0.95772 0.2512 0.45273 0.0
C696 C 0.72395 0.62755 0.9574 0.0
C697 C 0.76259 0.63659 0.944 0.0
C698 C 0.76499 0.69007 0.99244 0.0
C699 C 0.72382 0.68606 0.99952 0.0
N700 N 0.66386 0.65075 0.9882 0.0
N701 N 0.82464 0.66293 0.96375 0.0
C702 C 0.70338 0.65436 0.98229 0.0
C703 C 0.78457 0.66417 0.96583 0.0
N704 N 0.70811 0.59192 0.9492 0.0
N705 N 0.78548 0.71876 1.01118 0.0
H706 H 0.83948 0.64098 0.9486 0.0
H707 H 0.84324 0.67998 0.98067 0.0
H708 H 0.77374 0.73531 0.03398 0.0
H709 H 0.81383 0.72717 1.00344 0.0
H710 H 0.68128 0.5824 0.96047 0.0
H711 H 0.72437 0.56967 0.93615 0.0
H712 H 0.64645 0.63116 0.97276 0.0
H713 H 0.6479 0.66957 1.00622 0.0
C714 C 0.30398 0.62171 0.06681 0.0
C715 C 0.29859 0.64065 0.10338 0.0
C716 C 0.33558 0.69756 0.07775 0.0
C717 C 0.33537 0.68141 0.03946 0.0
N718 N 0.33844 0.62027 1.00431 0.0
N719 N 0.30803 0.6981 0.14337 0.0
C720 C 0.32498 0.64112 0.03569 0.0
C721 C 0.31432 0.67887 0.10882 0.0
N722 N 0.28777 0.58566 0.0613 0.0
N723 N 0.35917 0.72889 0.08526 0.0
H724 H 0.29364 0.68567 0.16741 0.0
H725 H 0.31441 0.72758 0.14724 0.0
H726 H 0.37863 0.74015 0.06432 0.0
H727 H 0.36386 0.73992 0.11331 0.0
H728 H 0.28614 0.57216 0.03403 0.0
H729 H 0.27319 0.57043 0.08366 0.0
H730 H 0.334 0.59039 1.00099 0.0
H731 H 0.35955 0.6311 0.98492 0.0
C732 C 0.2897 0.39125 0.96509 0.0
C733 C 0.26814 0.37264 0.93475 0.0
C734 C 0.28171 0.30953 0.96654 0.0
C735 C 0.30872 0.32709 0.99285 0.0
N736 N 0.34411 0.38557 1.01058 0.0
N737 N 0.25869 0.31144 0.90003 0.0
C738 C 0.31433 0.36832 0.99036 0.0
C739 C 0.2684 0.33104 0.93346 0.0
N740 N 0.28614 0.43058 0.97051 0.0
N741 N 0.2668 0.27311 0.97366 0.0
H742 H 0.25374 0.32517 0.87309 0.0
H743 H 0.26139 0.28115 0.89786 0.0
H744 H 0.2716 0.25762 0.99968 0.0
H745 H 0.24507 0.26091 0.95603 0.0
H746 H 0.29862 0.44499 0.99428 0.0
H747 H 0.26723 0.44795 0.95379 0.0
H748 H 0.35146 0.41494 1.00702 0.0
H749 H 0.36429 0.3697 0.02726 0.0
C750 C 0.75204 0.38638 0.05797 0.0
C751 C 0.76085 0.36767 0.09416 0.0
C752 C 0.71543 0.31426 0.07741 0.0
C753 C 0.71069 0.33046 0.03927 0.0
N754 N 0.70748 0.39124 1.00287 0.0
N755 N 0.75184 0.31257 0.13838 0.0
C756 C 0.7242 0.36926 0.03203 0.0
C757 C 0.74274 0.33127 0.10392 0.0
N758 N 0.77109 0.42016 0.04798 0.0
N759 N 0.6909 0.28492 0.08949 0.0
H760 H 0.77069 0.32403 0.15933 0.0
H761 H 0.74314 0.28412 0.14502 0.0
H762 H 0.66761 0.27535 0.07222 0.0
H763 H 0.68985 0.27398 0.11811 0.0
H764 H 0.76939 0.43307 0.02021 0.0
H765 H 0.79159 0.43331 0.06637 0.0
H766 H 0.71421 0.4205 0.99771 0.0
H767 H 0.68229 0.38239 0.98813 0.0
C768 C 0.14754 0.19438 0.33809 0.0
C769 C 0.15121 0.21456 0.30164 0.0
C770 C 0.17987 0.15581 0.27221 0.0
C771 C 0.18407 0.13931 0.30997 0.0
N772 N 0.1701 0.14037 0.37914 0.0
N773 N 0.17366 0.21528 0.23423 0.0
C774 C 0.16655 0.15752 0.34295 0.0
C775 C 0.16726 0.19519 0.26843 0.0
N776 N 0.12584 0.21041 0.36774 0.0
N777 N 0.18934 0.13392 0.24018 0.0
H778 H 0.16629 0.24458 0.23057 0.0
H779 H 0.18967 0.20389 0.21087 0.0
H780 H 0.19828 0.10483 0.24313 0.0
H781 H 0.18442 0.14301 0.21132 0.0
H782 H 0.11945 0.19592 0.39399 0.0
H783 H 0.11151 0.23725 0.36476 0.0
H784 H 0.16208 0.15385 0.4053 0.0
H785 H 0.18248 0.11266 0.38281 0.0
C786 C 0.70816 0.17299 0.3904 0.0
C787 C 0.72386 0.21143 0.39001 0.0
C788 C 0.6599 0.2372 0.36899 0.0
C789 C 0.64833 0.19871 0.36009 0.0
N790 N 0.6561 0.12965 0.36844 0.0
N791 N 0.71386 0.28114 0.38263 0.0
C792 C 0.67063 0.16644 0.37348 0.0
C793 C 0.69911 0.24402 0.38155 0.0
N794 N 0.72902 0.14321 0.40739 0.0
N795 N 0.63379 0.26704 0.36334 0.0
H796 H 0.7431 0.28732 0.38852 0.0
H797 H 0.698 0.30605 0.3752 0.0
H798 H 0.60518 0.26202 0.35378 0.0
H799 H 0.63892 0.29592 0.37113 0.0
H800 H 0.71844 0.11491 0.41098 0.0
H801 H 0.75603 0.14764 0.42105 0.0
H802 H 0.6716 0.10414 0.37451 0.0
H803 H 0.62789 0.1249 0.35751 0.0
C804 C 0.80594 0.76375 0.40039 0.0
C805 C 0.80477 0.7347 0.37123 0.0
C806 C 0.74552 0.76407 0.34272 0.0
C807 C 0.75092 0.79623 0.36777 0.0
N808 N 0.77327 0.81951 0.42998 0.0
N809 N 0.76724 0.69914 0.32342 0.0
C810 C 0.77684 0.79349 0.40003 0.0
C811 C 0.77198 0.73192 0.3456 0.0
N812 N 0.83585 0.76382 0.42696 0.0
N813 N 0.71618 0.76537 0.3155 0.0
H814 H 0.7857 0.67499 0.32616 0.0
H815 H 0.74398 0.69453 0.30433 0.0
H816 H 0.69636 0.78863 0.31406 0.0
H817 H 0.71105 0.74381 0.2948 0.0
H818 H 0.84068 0.78638 0.44661 0.0
H819 H 0.85649 0.74128 0.42855 0.0
H820 H 0.78849 0.81692 0.45632 0.0
H821 H 0.75169 0.84122 0.42981 0.0
C822 C 0.27643 0.80879 0.27598 0.0
C823 C 0.3021 0.84118 0.27456 0.0
C824 C 0.26856 0.87085 0.33084 0.0
C825 C 0.24373 0.8378 0.3334 0.0
N826 N 0.21538 0.78191 0.30109 0.0
N827 N 0.31429 0.90823 0.29074 0.0
C828 C 0.24491 0.80875 0.30359 0.0
C829 C 0.29546 0.87393 0.29893 0.0
N830 N 0.28283 0.77784 0.25159 0.0
N831 N 0.26725 0.89866 0.35944 0.0
H832 H 0.33366 0.91117 0.26706 0.0
H833 H 0.30748 0.93446 0.30452 0.0
H834 H 0.24734 0.89759 0.38281 0.0
H835 H 0.28741 0.92141 0.36129 0.0
H836 H 0.26725 0.75176 0.25313 0.0
H837 H 0.30493 0.77785 0.23026 0.0
H838 H 0.213 0.76163 0.27859 0.0
H839 H 0.19081 0.78254 0.31933 0.0
C840 C 0.12652 0.82482 0.72281 0.0
C841 C 0.14498 0.7912 0.70602 0.0
C842 C 0.18576 0.83616 0.66813 0.0
C843 C 0.17739 0.86675 0.69464 0.0
N844 N 0.13841 0.88867 0.75009 0.0
N845 N 0.20114 0.76812 0.66732 0.0
C846 C 0.14709 0.861 0.72276 0.0
C847 C 0.17681 0.7975 0.67939 0.0
N848 N 0.08894 0.82318 0.73677 0.0
N849 N 0.20399 0.84388 0.6332 0.0
H850 H 0.20161 0.74027 0.67965 0.0
H851 H 0.22548 0.77342 0.64935 0.0
H852 H 0.20948 0.87249 0.62398 0.0
H853 H 0.20894 0.8224 0.61211 0.0
H854 H 0.07422 0.84779 0.7472 0.0
H855 H 0.07063 0.79927 0.73218 0.0
H856 H 0.11914 0.88324 0.77339 0.0
H857 H 0.15196 0.91586 0.75104 0.0
C858 C 0.37618 0.24122 0.6426 0.0
C859 C 0.38264 0.2063 0.6641 0.0
C860 C 0.32416 0.17691 0.63508 0.0
C861 C 0.31397 0.21414 0.61965 0.0
N862 N 0.34086 0.27248 0.58932 0.0
N863 N 0.37224 0.13727 0.67008 0.0
C864 C 0.3433 0.24359 0.61707 0.0
C865 C 0.35968 0.17276 0.65653 0.0
N866 N 0.40039 0.27249 0.6478 0.0
N867 N 0.2996 0.14598 0.62914 0.0
H868 H 0.39914 0.134 0.68432 0.0
H869 H 0.35799 0.11106 0.66471 0.0
H870 H 0.27596 0.14775 0.60972 0.0
H871 H 0.30258 0.11876 0.6426 0.0
H872 H 0.39417 0.30039 0.63703 0.0
H873 H 0.42597 0.2707 0.66448 0.0
H874 H 0.36273 0.2933 0.58484 0.0
H875 H 0.32 0.27239 0.56706 0.0
C876 C 0.86703 0.16175 0.74336 0.0
C877 C 0.85609 0.15016 0.70523 0.0
C878 C 0.88241 0.21142 0.67812 0.0
C879 C 0.88517 0.22635 0.7169 0.0
N880 N 0.87714 0.21615 0.78702 0.0
N881 N 0.85559 0.16151 0.63558 0.0
C882 C 0.87765 0.20135 0.7498 0.0
C883 C 0.86512 0.17411 0.67232 0.0
N884 N 0.86537 0.13529 0.77357 0.0
N885 N 0.89701 0.23242 0.64702 0.0
H886 H 0.84577 0.13309 0.63064 0.0
H887 H 0.85617 0.1793 0.61063 0.0
H888 H 0.91032 0.25963 0.6501 0.0
H889 H 0.8992 0.22148 0.61863 0.0
H890 H 0.87602 0.14079 0.80164 0.0
H891 H 0.85704 0.10631 0.76935 0.0
H892 H 0.86945 0.19995 0.81185 0.0
H893 H 0.88011 0.24575 0.79301 0.0
C894 C 0.69803 0.79834 0.61663 0.0
C895 C 0.72452 0.83 0.6224 0.0
C896 C 0.67176 0.86581 0.65538 0.0
C897 C 0.65133 0.83022 0.66059 0.0
N898 N 0.6414 0.76333 0.64223 0.0
N899 N 0.73247 0.89832 0.6369 0.0
C900 C 0.66299 0.79679 0.63945 0.0
C901 C 0.70982 0.86542 0.63813 0.0
N902 N 0.70509 0.77102 0.58844 0.0
N903 N 0.65426 0.89976 0.66675 0.0
H904 H 0.75824 0.89991 0.62029 0.0
H905 H 0.72597 0.92375 0.65224 0.0
H906 H 0.62589 0.90018 0.67846 0.0
H907 H 0.66589 0.92722 0.66075 0.0
H908 H 0.68548 0.74868 0.58192 0.0
H909 H 0.72725 0.77394 0.56752 0.0
H910 H 0.65117 0.73645 0.63181 0.0
H911 H 0.61425 0.76245 0.65649 0.0
C912 C 0.29648 0.12014 0.19219 0.0
C913 C 0.32729 0.12376 0.22025 0.0
C914 C 0.36803 0.15505 0.16966 0.0
C915 C 0.33389 0.16187 0.14716 0.0
N916 N 0.26649 0.14698 0.13323 0.0
N917 N 0.39607 0.13499 0.23212 0.0
C918 C 0.29849 0.1426 0.15688 0.0
C919 C 0.36447 0.13782 0.20761 0.0
N920 N 0.26625 0.0946 0.19822 0.0
N921 N 0.4037 0.16485 0.15416 0.0
H922 H 0.39534 0.11851 0.25804 0.0
H923 H 0.42274 0.14901 0.22708 0.0
H924 H 0.40639 0.17623 0.12573 0.0
H925 H 0.43031 0.1581 0.16746 0.0
H926 H 0.24463 0.08928 0.17738 0.0
H927 H 0.26544 0.07446 0.2212 0.0
H928 H 0.23828 0.13838 0.14142 0.0
H929 H 0.26805 0.16093 0.1059 0.0
C930 C 0.79376 0.3704 0.37019 0.0
C931 C 0.82812 0.34859 0.37795 0.0
C932 C 0.85951 0.37505 0.3187 0.0
C933 C 0.82284 0.39143 0.30764 0.0
N934 N 0.76539 0.42427 0.33388 0.0
N935 N 0.89772 0.34181 0.36924 0.0
C936 C 0.79299 0.39546 0.33677 0.0
C937 C 0.8625 0.3549 0.35525 0.0
N938 N 0.76151 0.36611 0.39374 0.0
N939 N 0.89119 0.3791 0.29428 0.0
H940 H 0.9002 0.32906 0.39707 0.0
H941 H 0.92458 0.34647 0.35537 0.0
H942 H 0.89095 0.39827 0.27027 0.0
H943 H 0.91757 0.36415 0.29785 0.0
H944 H 0.73397 0.37726 0.38647 0.0
H945 H 0.76202 0.34969 0.41968 0.0
H946 H 0.74445 0.42955 0.35559 0.0
H947 H 0.76712 0.44669 0.31317 0.0
C948 C 0.76822 0.84099 0.16115 0.0
C949 C 0.73059 0.84966 0.14567 0.0
C950 C 0.72118 0.89997 0.1956 0.0
C951 C 0.75478 0.88559 0.21579 0.0
N952 N 0.81188 0.8435 0.21723 0.0
N953 N 0.67246 0.88937 0.1447 0.0
C954 C 0.77938 0.85709 0.19796 0.0
C955 C 0.70764 0.88017 0.1616 0.0
N956 N 0.79279 0.81669 0.14086 0.0
N957 N 0.70285 0.93299 0.20874 0.0
H958 H 0.66323 0.87679 0.11843 0.0
H959 H 0.65187 0.90806 0.15722 0.0
H960 H 0.71314 0.9488 0.23271 0.0
H961 H 0.6799 0.9468 0.19406 0.0
H962 H 0.82187 0.81138 0.14848 0.0
H963 H 0.78512 0.8044 0.114 0.0
H964 H 0.82902 0.8203 0.20755 0.0
H965 H 0.82082 0.85364 0.24452 0.0
C966 C 0.25211 0.68196 0.32344 0.0
C967 C 0.22464 0.65501 0.30801 0.0
C968 C 0.17704 0.67308 0.35894 0.0
C969 C 0.20498 0.69937 0.37455 0.0
N970 N 0.27185 0.72248 0.37778 0.0
N971 N 0.16418 0.61919 0.31454 0.0
C972 C 0.24357 0.70129 0.35907 0.0
C973 C 0.18807 0.64864 0.327 0.0
N974 N 0.28508 0.69146 0.30254 0.0
N975 N 0.13982 0.67235 0.37406 0.0
H976 H 0.17164 0.60106 0.29111 0.0
H977 H 0.13858 0.61076 0.32905 0.0
H978 H 0.13165 0.68864 0.3986 0.0
H979 H 0.11674 0.65694 0.36159 0.0
H980 H 0.3036 0.71449 0.30972 0.0
H981 H 0.29191 0.67908 0.27561 0.0
H982 H 0.30147 0.72143 0.37017 0.0
H983 H 0.26661 0.73848 0.40319 0.0
C984 C 0.28187 0.84072 0.85067 0.0
C985 C 0.31958 0.83841 0.86769 0.0
C986 C 0.3467 0.87709 0.81284 0.0
C987 C 0.31025 0.87396 0.79297 0.0
N988 N 0.24408 0.84849 0.79108 0.0
N989 N 0.38859 0.85303 0.86539 0.0
C990 C 0.27786 0.85508 0.81159 0.0
C991 C 0.35217 0.85659 0.84905 0.0
N992 N 0.24996 0.82871 0.87195 0.0
N993 N 0.37563 0.90043 0.79765 0.0
H994 H 0.39302 0.84024 0.89296 0.0
H995 H 0.41437 0.86116 0.85099 0.0
H996 H 0.37245 0.91603 0.77138 0.0
H997 H 0.40141 0.90696 0.81257 0.0
H998 H 0.22113 0.83295 0.86277 0.0
H999 H 0.2524 0.8182 0.90072 0.0
H1000 H 0.22108 0.83131 0.80164 0.0
H1001 H 0.24043 0.85695 0.76188 0.0
C1002 C 0.19989 0.39799 0.69436 0.0
C1003 C 0.23019 0.38545 0.72001 0.0
C1004 C 0.26343 0.35348 0.66537 0.0
C1005 C 0.22945 0.35827 0.64245 0.0
N1006 N 0.16514 0.38583 0.63342 0.0
N1007 N 0.28903 0.34746 0.731 0.0
C1008 C 0.19792 0.38168 0.65603 0.0
C1009 C 0.26192 0.36271 0.70571 0.0
N1010 N 0.173 0.42491 0.70676 0.0
N1011 N 0.29649 0.3384 0.64853 0.0
H1012 H 0.2885 0.35261 0.76111 0.0
H1013 H 0.30944 0.32641 0.72261 0.0
H1014 H 0.2975 0.33187 0.6186 0.0
H1015 H 0.32335 0.33636 0.66297 0.0
H1016 H 0.15225 0.43767 0.68827 0.0
H1017 H 0.17339 0.43662 0.73501 0.0
H1018 H 0.13908 0.3982 0.64354 0.0
H1019 H 0.16379 0.37525 0.60477 0.0
C1020 C 0.75241 0.17152 0.81098 0.0
C1021 C 0.72313 0.14545 0.7977 0.0
C1022 C 0.68852 0.15068 0.86061 0.0
C1023 C 0.71832 0.17623 0.87376 0.0
N1024 N 0.78352 0.20189 0.86686 0.0
N1025 N 0.66811 0.10332 0.81191 0.0
C1026 C 0.75211 0.18322 0.8507 0.0
C1027 C 0.69273 0.1326 0.82329 0.0
N1028 N 0.77902 0.1871 0.78517 0.0
N1029 N 0.6554 0.14553 0.88279 0.0
H1030 H 0.67015 0.09008 0.78443 0.0
H1031 H 0.64768 0.09027 0.83068 0.0
H1032 H 0.65239 0.15734 0.91084 0.0
H1033 H 0.63047 0.13117 0.87276 0.0
H1034 H 0.79734 0.21029 0.79231 0.0
H1035 H 0.77997 0.17977 0.75552 0.0
H1036 H 0.8103 0.20546 0.85243 0.0
H1037 H 0.78378 0.21018 0.89632 0.0
C1038 C 0.77913 0.68743 0.66587 0.0
C1039 C 0.81659 0.69052 0.64847 0.0
C1040 C 0.84443 0.65105 0.70224 0.0
C1041 C 0.80824 0.65419 0.7228 0.0
N1042 N 0.7428 0.68101 0.72642 0.0
N1043 N 0.88566 0.67594 0.6492 0.0
C1044 C 0.77576 0.67327 0.70497 0.0
C1045 C 0.84944 0.67187 0.66607 0.0
N1046 N 0.74692 0.69919 0.64514 0.0
N1047 N 0.87379 0.62824 0.71728 0.0
H1048 H 0.88966 0.68959 0.62194 0.0
H1049 H 0.91167 0.66732 0.66273 0.0
H1050 H 0.87091 0.61296 0.74379 0.0
H1051 H 0.89971 0.6221 0.70221 0.0
H1052 H 0.71821 0.69502 0.65501 0.0
H1053 H 0.74922 0.70934 0.61621 0.0
H1054 H 0.72083 0.69974 0.71651 0.0
H1055 H 0.7395 0.67245 0.75564 0.0
C1056 C 0.18519 0.3475 0.16065 0.0
C1057 C 0.15969 0.31586 0.1688 0.0
C1058 C 0.20649 0.27001 0.14042 0.0
C1059 C 0.2336 0.30133 0.13505 0.0
N1060 N 0.24284 0.3707 0.1257 0.0
N1061 N 0.13879 0.25097 0.15297 0.0
C1062 C 0.221 0.34048 0.14051 0.0
C1063 C 0.16772 0.27853 0.15339 0.0
N1064 N 0.17556 0.38396 0.17356 0.0
N1065 N 0.21845 0.2321 0.13654 0.0
H1066 H 0.11043 0.25683 0.16302 0.0
H1067 H 0.14174 0.22399 0.13931 0.0
H1068 H 0.24734 0.22414 0.13091 0.0
H1069 H 0.20053 0.20811 0.14226 0.0
H1070 H 0.19495 0.40748 0.17328 0.0
H1071 H 0.14809 0.39001 0.18577 0.0
H1072 H 0.23363 0.39972 0.12617 0.0
H1073 H 0.26834 0.36627 0.1092 0.0
C1074 C 0.20494 0.73002 0.90059 0.0
C1075 C 0.23285 0.69918 0.8979 0.0
C1076 C 0.1859 0.6624 0.85835 0.0
C1077 C 0.16448 0.69746 0.85174 0.0
N1078 N 0.15375 0.76555 0.86655 0.0
N1079 N 0.24479 0.63134 0.88393 0.0
C1080 C 0.17362 0.73146 0.87325 0.0
C1081 C 0.2216 0.66372 0.87985 0.0
N1082 N 0.20677 0.75651 0.93032 0.0
N1083 N 0.17119 0.62785 0.84516 0.0
H1084 H 0.26745 0.62993 0.90446 0.0
H1085 H 0.24163 0.60608 0.86739 0.0
H1086 H 0.14397 0.62621 0.83148 0.0
H1087 H 0.18374 0.60072 0.85101 0.0
H1088 H 0.18561 0.77813 0.93449 0.0
H1089 H 0.22534 0.753 0.95434 0.0
H1090 H 0.16218 0.7921 0.87871 0.0
H1091 H 0.1307 0.76795 0.84659 0.0
C1092 C 0.37244 0.37483 0.7775 0.0
C1093 C 0.36026 0.38467 0.81584 0.0
C1094 C 0.38953 0.32444 0.8415 0.0
C1095 C 0.39218 0.31029 0.80249 0.0
N1096 N 0.38889 0.32275 0.73244 0.0
N1097 N 0.36091 0.37243 0.88536 0.0
C1098 C 0.38564 0.33607 0.77008 0.0
C1099 C 0.3709 0.3609 0.84829 0.0
N1100 N 0.36918 0.40207 0.74816 0.0
N1101 N 0.40521 0.30313 0.87176 0.0
H1102 H 0.34927 0.40012 0.89085 0.0
H1103 H 0.36292 0.35443 0.91009 0.0
H1104 H 0.42014 0.27687 0.86727 0.0
H1105 H 0.40682 0.31315 0.90053 0.0
H1106 H 0.37973 0.39813 0.71972 0.0
H1107 H 0.35895 0.43029 0.75359 0.0
H1108 H 0.38179 0.33923 0.70767 0.0
H1109 H 0.39618 0.29408 0.72567 0.0
C1110 C 0.81034 0.35505 0.88074 0.0
C1111 C 0.80097 0.31895 0.89929 0.0
C1112 C 0.86401 0.2914 0.87837 0.0
C1113 C 0.8707 0.3252 0.85506 0.0
N1114 N 0.85874 0.39372 0.84496 0.0
N1115 N 0.83024 0.26488 0.93508 0.0
C1116 C 0.84645 0.35862 0.85981 0.0
C1117 C 0.83125 0.29068 0.90431 0.0
N1118 N 0.78505 0.38589 0.88399 0.0
N1119 N 0.88772 0.25943 0.87476 0.0
H1120 H 0.81028 0.26738 0.95818 0.0
H1121 H 0.85288 0.24524 0.94106 0.0
H1122 H 0.91284 0.2592 0.85719 0.0
H1123 H 0.88095 0.2324 0.88736 0.0
H1124 H 0.78714 0.41153 0.8675 0.0
H1125 H 0.76194 0.38586 0.90422 0.0
H1126 H 0.84381 0.41998 0.8485 0.0
H1127 H 0.88623 0.39694 0.83178 0.0
C1128 C 0.65864 0.65488 0.7716 0.0
C1129 C 0.66969 0.64486 0.81033 0.0
C1130 C 0.63829 0.70404 0.83498 0.0
C1131 C 0.63731 0.71875 0.79594 0.0
N1132 N 0.64274 0.70725 0.726 0.0
N1133 N 0.66497 0.65539 0.8797 0.0
C1134 C 0.64516 0.69352 0.76374 0.0
C1135 C 0.65706 0.66777 0.84236 0.0
N1136 N 0.66307 0.62802 0.74243 0.0
N1137 N 0.62079 0.72456 0.8646 0.0
H1138 H 0.67627 0.62754 0.88531 0.0
H1139 H 0.66136 0.67272 0.90447 0.0
H1140 H 0.60563 0.75064 0.85955 0.0
H1141 H 0.61796 0.71406 0.89326 0.0
H1142 H 0.65335 0.63221 0.71375 0.0
H1143 H 0.67337 0.59982 0.74808 0.0
H1144 H 0.65077 0.69121 0.70139 0.0
H1145 H 0.6351 0.73586 0.719 0.0
C1146 C 0.76444 0.73486 0.20331 0.0
C1147 C 0.76348 0.71032 0.16967 0.0
C1148 C 0.82491 0.67904 0.18993 0.0
C1149 C 0.82698 0.70513 0.22208 0.0
N1150 N 0.80239 0.76054 0.25775 0.0
N1151 N 0.7945 0.66309 0.12758 0.0
C1152 C 0.79788 0.73406 0.22811 0.0
C1153 C 0.79429 0.68359 0.16193 0.0
N1154 N 0.73317 0.75864 0.2116 0.0
N1155 N 0.85155 0.64928 0.18686 0.0
H1156 H 0.77177 0.66483 0.10714 0.0
H1157 H 0.81818 0.6463 0.11814 0.0
H1158 H 0.87519 0.64601 0.20602 0.0
H1159 H 0.849 0.62649 0.16693 0.0
H1160 H 0.73147 0.77742 0.23537 0.0
H1161 H 0.70708 0.7583 0.19588 0.0
H1162 H 0.78355 0.78378 0.26318 0.0
H1163 H 0.82681 0.76094 0.27613 0.0
C1164 C 0.39343 0.69489 0.29196 0.0
C1165 C 0.41354 0.71468 0.26096 0.0
C1166 C 0.39489 0.66332 0.21481 0.0
C1167 C 0.37252 0.64521 0.24493 0.0
N1168 N 0.36035 0.6356 0.31393 0.0
N1169 N 0.44538 0.71055 0.1979 0.0
C1170 C 0.37567 0.65804 0.28427 0.0
C1171 C 0.4184 0.6962 0.22405 0.0
N1172 N 0.38842 0.71242 0.32758 0.0
N1173 N 0.3921 0.65023 0.17708 0.0
H1174 H 0.46348 0.73418 0.20462 0.0
H1175 H 0.45249 0.69685 0.17158 0.0
H1176 H 0.37659 0.625 0.16988 0.0
H1177 H 0.40355 0.66527 0.15291 0.0
H1178 H 0.37 0.70154 0.34953 0.0
H1179 H 0.4011 0.739 0.33491 0.0
H1180 H 0.3644 0.64151 0.34362 0.0
H1181 H 0.34648 0.60898 0.30874 0.0
C1182 C 0.65924 0.34944 0.18955 0.0
C1183 C 0.68174 0.36389 0.22127 0.0
C1184 C 0.67548 0.30184 0.25606 0.0
C1185 C 0.65201 0.28742 0.22511 0.0
N1186 N 0.61469 0.29939 0.16615 0.0
N1187 N 0.70169 0.35879 0.28859 0.0
C1188 C 0.64144 0.31195 0.19307 0.0
C1189 C 0.68612 0.34172 0.25603 0.0
N1190 N 0.657 0.37049 0.15538 0.0
N1191 N 0.69008 0.27696 0.28396 0.0
H1192 H 0.70923 0.38835 0.28887 0.0
H1193 H 0.70324 0.34489 0.31587 0.0
H1194 H 0.68383 0.24718 0.28459 0.0
H1195 H 0.71185 0.28517 0.30363 0.0
H1196 H 0.64538 0.35945 0.12946 0.0
H1197 H 0.66861 0.3986 0.15265 0.0
H1198 H 0.60323 0.31729 0.14411 0.0
H1199 H 0.6018 0.27175 0.16767 0.0
loop_
_geom_bond_atom_site_label_1
_geom_bond_atom_site_label_2
_geom_bond_distance
_geom_bond_site_symmetry_2
_ccdc_geom_bond_type
C0 O2 1.247 . S
C0 O4 1.258 . S
C1 O8 1.247 . S
C1 O9 1.258 . S
O2 C0 1.247 . S
O2 Zn3 2.028 . S
Zn3 O2 2.028 . S
Zn3 O7 2.035 . S
Zn3 O9 2.035 . S
Zn3 O10 2.028 . S
O4 C0 1.258 . S
O4 Zn5 2.035 . S
Zn5 O4 2.035 . S
Zn5 O6 2.028 . S
Zn5 O8 2.028 . S
Zn5 O11 2.035 . S
O6 Zn5 2.028 . S
O6 C12 1.247 . S
O7 Zn3 2.035 . S
O7 C12 1.258 . S
O8 C1 1.247 . S
O8 Zn5 2.028 . S
O9 C1 1.258 . S
O9 Zn3 2.035 . S
O10 Zn3 2.028 . S
O10 C13 1.247 . S
O11 Zn5 2.035 . S
O11 C13 1.258 . S
C12 O6 1.247 . S
C12 O7 1.258 . S
C13 O10 1.247 . S
C13 O11 1.258 . S
C14 O16 1.247 . S
C14 O18 1.258 . S
C15 O22 1.247 . S
C15 O23 1.258 . S
O16 C14 1.247 . S
O16 Zn17 2.028 . S
Zn17 O16 2.028 . S
Zn17 O21 2.035 . S
Zn17 O23 2.035 . S
Zn17 O24 2.028 . S
O18 C14 1.258 . S
O18 Zn19 2.035 . S
Zn19 O18 2.035 . S
Zn19 O20 2.028 . S
Zn19 O22 2.028 . S
Zn19 O25 2.035 . S
O20 Zn19 2.028 . S
O20 C26 1.247 . S
O21 Zn17 2.035 . S
O21 C26 1.258 . S
O22 C15 1.247 . S
O22 Zn19 2.028 . S
O23 C15 1.258 . S
O23 Zn17 2.035 . S
O24 Zn17 2.028 . S
O24 C27 1.247 . S
O25 Zn19 2.035 . S
O25 C27 1.258 . S
C26 O20 1.247 . S
C26 O21 1.258 . S
C27 O24 1.247 . S
C27 O25 1.258 . S
C28 O30 1.247 . S
C28 O32 1.258 . S
C29 O36 1.247 . S
C29 O37 1.258 . S
O30 C28 1.247 . S
O30 Zn31 2.028 . S
Zn31 O30 2.028 . S
Zn31 O35 2.035 . S
Zn31 O37 2.035 . S
Zn31 O38 2.028 . S
O32 C28 1.258 . S
O32 Zn33 2.035 . S
Zn33 O32 2.035 . S
Zn33 O34 2.028 . S
Zn33 O36 2.028 . S
Zn33 O39 2.035 . S
O34 Zn33 2.028 . S
O34 C40 1.247 . S
O35 Zn31 2.035 . S
O35 C40 1.258 . S
O36 C29 1.247 . S
O36 Zn33 2.028 . S
O37 C29 1.258 . S
O37 Zn31 2.035 . S
O38 Zn31 2.028 . S
O38 C41 1.247 . S
O39 Zn33 2.035 . S
O39 C41 1.258 . S
C40 O34 1.247 . S
C40 O35 1.258 . S
C41 O38 1.247 . S
C41 O39 1.258 . S
C42 O44 1.247 . S
C42 O46 1.258 . S
C43 O50 1.247 . S
C43 O51 1.258 . S
O44 C42 1.247 . S
O44 Zn45 2.028 . S
Zn45 O44 2.028 . S
Zn45 O49 2.035 . S
Zn45 O51 2.035 . S
Zn45 O52 2.028 . S
O46 C42 1.258 . S
O46 Zn47 2.035 . S
Zn47 O46 2.035 . S
Zn47 O48 2.028 . S
Zn47 O50 2.028 . S
Zn47 O53 2.035 . S
O48 Zn47 2.028 . S
O48 C54 1.247 . S
O49 Zn45 2.035 . S
O49 C54 1.258 . S
O50 C43 1.247 . S
O50 Zn47 2.028 . S
O51 C43 1.258 . S
O51 Zn45 2.035 . S
O52 Zn45 2.028 . S
O52 C55 1.247 . S
O53 Zn47 2.035 . S
O53 C55 1.258 . S
C54 O48 1.247 . S
C54 O49 1.258 . S
C55 O52 1.247 . S
C55 O53 1.258 . S
C56 O58 1.247 . S
C56 O60 1.258 . S
C57 O64 1.247 . S
C57 O65 1.258 . S
O58 C56 1.247 . S
O58 Zn59 2.028 . S
Zn59 O58 2.028 . S
Zn59 O63 2.035 . S
Zn59 O65 2.035 . S
Zn59 O66 2.028 . S
O60 C56 1.258 . S
O60 Zn61 2.035 . S
Zn61 O60 2.035 . S
Zn61 O62 2.028 . S
Zn61 O64 2.028 . S
Zn61 O67 2.035 . S
O62 Zn61 2.028 . S
O62 C68 1.247 . S
O63 Zn59 2.035 . S
O63 C68 1.258 . S
O64 C57 1.247 . S
O64 Zn61 2.028 . S
O65 C57 1.258 . S
O65 Zn59 2.035 . S
O66 Zn59 2.028 . S
O66 C69 1.247 . S
O67 Zn61 2.035 . S
O67 C69 1.258 . S
C68 O62 1.247 . S
C68 O63 1.258 . S
C69 O66 1.247 . S
C69 O67 1.258 . S
C70 O72 1.247 . S
C70 O74 1.258 . S
C71 O78 1.247 . S
C71 O79 1.258 . S
O72 C70 1.247 . S
O72 Zn73 2.028 . S
Zn73 O72 2.028 . S
Zn73 O77 2.035 . S
Zn73 O79 2.035 . S
Zn73 O80 2.028 . S
O74 C70 1.258 . S
O74 Zn75 2.035 . S
Zn75 O74 2.035 . S
Zn75 O76 2.028 . S
Zn75 O78 2.028 . S
Zn75 O81 2.035 . S
O76 Zn75 2.028 . S
O76 C82 1.247 . S
O77 Zn73 2.035 . S
O77 C82 1.258 . S
O78 C71 1.247 . S
O78 Zn75 2.028 . S
O79 C71 1.258 . S
O79 Zn73 2.035 . S
O80 Zn73 2.028 . S
O80 C83 1.247 . S
O81 Zn75 2.035 . S
O81 C83 1.258 . S
C82 O76 1.247 . S
C82 O77 1.258 . S
C83 O80 1.247 . S
C83 O81 1.258 . S
C84 O86 1.247 . S
C84 O88 1.258 . S
C85 O92 1.247 . S
C85 O93 1.258 . S
O86 C84 1.247 . S
O86 Zn87 2.028 . S
Zn87 O86 2.028 . S
Zn87 O91 2.035 . S
Zn87 O93 2.035 . S
Zn87 O94 2.028 . S
O88 C84 1.258 . S
O88 Zn89 2.035 . S
Zn89 O88 2.035 . S
Zn89 O90 2.028 . S
Zn89 O92 2.028 . S
Zn89 O95 2.035 . S
O90 Zn89 2.028 . S
O90 C96 1.247 . S
O91 Zn87 2.035 . S
O91 C96 1.258 . S
O92 C85 1.247 . S
O92 Zn89 2.028 . S
O93 C85 1.258 . S
O93 Zn87 2.035 . S
O94 Zn87 2.028 . S
O94 C97 1.247 . S
O95 Zn89 2.035 . S
O95 C97 1.258 . S
C96 O90 1.247 . S
C96 O91 1.258 . S
C97 O94 1.247 . S
C97 O95 1.258 . S
C98 O100 1.247 . S
C98 O102 1.258 . S
C99 O106 1.247 . S
C99 O107 1.258 . S
O100 C98 1.247 . S
O100 Zn101 2.028 . S
Zn101 O100 2.028 . S
Zn101 O105 2.035 . S
Zn101 O107 2.035 . S
Zn101 O108 2.028 . S
O102 C98 1.258 . S
O102 Zn103 2.035 . S
Zn103 O102 2.035 . S
Zn103 O104 2.028 . S
Zn103 O106 2.028 . S
Zn103 O109 2.035 . S
O104 Zn103 2.028 . S
O104 C110 1.247 . S
O105 Zn101 2.035 . S
O105 C110 1.258 . S
O106 C99 1.247 . S
O106 Zn103 2.028 . S
O107 C99 1.258 . S
O107 Zn101 2.035 . S
O108 Zn101 2.028 . S
O108 C111 1.247 . S
O109 Zn103 2.035 . S
O109 C111 1.258 . S
C110 O104 1.247 . S
C110 O105 1.258 . S
C111 O108 1.247 . S
C111 O109 1.258 . S
C112 O114 1.247 . S
C112 O116 1.258 . S
C113 O120 1.247 . S
C113 O121 1.258 . S
O114 C112 1.247 . S
O114 Zn115 2.028 . S
Zn115 O114 2.028 . S
Zn115 O119 2.035 . S
Zn115 O121 2.035 . S
Zn115 O122 2.028 . S
O116 C112 1.258 . S
O116 Zn117 2.035 . S
Zn117 O116 2.035 . S
Zn117 O118 2.028 . S
Zn117 O120 2.028 . S
Zn117 O123 2.035 . S
O118 Zn117 2.028 . S
O118 C124 1.247 . S
O119 Zn115 2.035 . S
O119 C124 1.258 . S
O120 C113 1.247 . S
O120 Zn117 2.028 . S
O121 C113 1.258 . S
O121 Zn115 2.035 . S
O122 Zn115 2.028 . S
O122 C125 1.247 . S
O123 Zn117 2.035 . S
O123 C125 1.258 . S
C124 O118 1.247 . S
C124 O119 1.258 . S
C125 O122 1.247 . S
C125 O123 1.258 . S
C126 O128 1.247 . S
C126 O130 1.258 . S
C127 O134 1.247 . S
C127 O135 1.258 . S
O128 C126 1.247 . S
O128 Zn129 2.028 . S
Zn129 O128 2.028 . S
Zn129 O133 2.035 . S
Zn129 O135 2.035 . S
Zn129 O136 2.028 . S
O130 C126 1.258 . S
O130 Zn131 2.035 . S
Zn131 O130 2.035 . S
Zn131 O132 2.028 . S
Zn131 O134 2.028 . S
Zn131 O137 2.035 . S
O132 Zn131 2.028 . S
O132 C138 1.247 . S
O133 Zn129 2.035 . S
O133 C138 1.258 . S
O134 C127 1.247 . S
O134 Zn131 2.028 . S
O135 C127 1.258 . S
O135 Zn129 2.035 . S
O136 Zn129 2.028 . S
O136 C139 1.247 . S
O137 Zn131 2.035 . S
O137 C139 1.258 . S
C138 O132 1.247 . S
C138 O133 1.258 . S
C139 O136 1.247 . S
C139 O137 1.258 . S
C140 O142 1.247 . S
C140 O144 1.258 . S
C141 O148 1.247 . S
C141 O149 1.258 . S
O142 C140 1.247 . S
O142 Zn143 2.028 . S
Zn143 O142 2.028 . S
Zn143 O147 2.035 . S
Zn143 O149 2.035 . S
Zn143 O150 2.028 . S
O144 C140 1.258 . S
O144 Zn145 2.035 . S
Zn145 O144 2.035 . S
Zn145 O146 2.028 . S
Zn145 O148 2.028 . S
Zn145 O151 2.035 . S
O146 Zn145 2.028 . S
O146 C152 1.247 . S
O147 Zn143 2.035 . S
O147 C152 1.258 . S
O148 C141 1.247 . S
O148 Zn145 2.028 . S
O149 C141 1.258 . S
O149 Zn143 2.035 . S
O150 Zn143 2.028 . S
O150 C153 1.247 . S
O151 Zn145 2.035 . S
O151 C153 1.258 . S
C152 O146 1.247 . S
C152 O147 1.258 . S
C153 O150 1.247 . S
C153 O151 1.258 . S
C154 O156 1.247 . S
C154 O158 1.258 . S
C155 O162 1.247 . S
C155 O163 1.258 . S
O156 C154 1.247 . S
O156 Zn157 2.028 . S
Zn157 O156 2.028 . S
Zn157 O161 2.035 . S
Zn157 O163 2.035 . S
Zn157 O164 2.028 . S
O158 C154 1.258 . S
O158 Zn159 2.035 . S
Zn159 O158 2.035 . S
Zn159 O160 2.028 . S
Zn159 O162 2.028 . S
Zn159 O165 2.035 . S
O160 Zn159 2.028 . S
O160 C166 1.247 . S
O161 Zn157 2.035 . S
O161 C166 1.258 . S
O162 C155 1.247 . S
O162 Zn159 2.028 . S
O163 C155 1.258 . S
O163 Zn157 2.035 . S
O164 Zn157 2.028 . S
O164 C167 1.247 . S
O165 Zn159 2.035 . S
O165 C167 1.258 . S
C166 O160 1.247 . S
C166 O161 1.258 . S
C167 O164 1.247 . S
C167 O165 1.258 . S
C168 O170 1.247 . S
C168 O172 1.258 . S
C169 O176 1.247 . S
C169 O177 1.258 . S
O170 C168 1.247 . S
O170 Zn171 2.028 . S
Zn171 O170 2.028 . S
Zn171 O175 2.035 . S
Zn171 O177 2.035 . S
Zn171 O178 2.028 . S
O172 C168 1.258 . S
O172 Zn173 2.035 . S
Zn173 O172 2.035 . S
Zn173 O174 2.028 . S
Zn173 O176 2.028 . S
Zn173 O179 2.035 . S
O174 Zn173 2.028 . S
O174 C180 1.247 . S
O175 Zn171 2.035 . S
O175 C180 1.258 . S
O176 C169 1.247 . S
O176 Zn173 2.028 . S
O177 C169 1.258 . S
O177 Zn171 2.035 . S
O178 Zn171 2.028 . S
O178 C181 1.247 . S
O179 Zn173 2.035 . S
O179 C181 1.258 . S
C180 O174 1.247 . S
C180 O175 1.258 . S
C181 O178 1.247 . S
C181 O179 1.258 . S
C182 O184 1.247 . S
C182 O186 1.258 . S
C183 O190 1.247 . S
C183 O191 1.258 . S
O184 C182 1.247 . S
O184 Zn185 2.028 . S
Zn185 O184 2.028 . S
Zn185 O189 2.035 . S
Zn185 O191 2.035 . S
Zn185 O192 2.028 . S
O186 C182 1.258 . S
O186 Zn187 2.035 . S
Zn187 O186 2.035 . S
Zn187 O188 2.028 . S
Zn187 O190 2.028 . S
Zn187 O193 2.035 . S
O188 Zn187 2.028 . S
O188 C194 1.247 . S
O189 Zn185 2.035 . S
O189 C194 1.258 . S
O190 C183 1.247 . S
O190 Zn187 2.028 . S
O191 C183 1.258 . S
O191 Zn185 2.035 . S
O192 Zn185 2.028 . S
O192 C195 1.247 . S
O193 Zn187 2.035 . S
O193 C195 1.258 . S
C194 O188 1.247 . S
C194 O189 1.258 . S
C195 O192 1.247 . S
C195 O193 1.258 . S
C196 O198 1.247 . S
C196 O200 1.258 . S
C197 O204 1.247 . S
C197 O205 1.258 . S
O198 C196 1.247 . S
O198 Zn199 2.028 . S
Zn199 O198 2.028 . S
Zn199 O203 2.035 . S
Zn199 O205 2.035 . S
Zn199 O206 2.028 . S
O200 C196 1.258 . S
O200 Zn201 2.035 . S
Zn201 O200 2.035 . S
Zn201 O202 2.028 . S
Zn201 O204 2.028 . S
Zn201 O207 2.035 . S
O202 Zn201 2.028 . S
O202 C208 1.247 . S
O203 Zn199 2.035 . S
O203 C208 1.258 . S
O204 C197 1.247 . S
O204 Zn201 2.028 . S
O205 C197 1.258 . S
O205 Zn199 2.035 . S
O206 Zn199 2.028 . S
O206 C209 1.247 . S
O207 Zn201 2.035 . S
O207 C209 1.258 . S
C208 O202 1.247 . S
C208 O203 1.258 . S
C209 O206 1.247 . S
C209 O207 1.258 . S
C210 O212 1.247 . S
C210 O214 1.258 . S
C211 O218 1.247 . S
C211 O219 1.258 . S
O212 C210 1.247 . S
O212 Zn213 2.028 . S
Zn213 O212 2.028 . S
Zn213 O217 2.035 . S
Zn213 O219 2.035 . S
Zn213 O220 2.028 . S
O214 C210 1.258 . S
O214 Zn215 2.035 . S
Zn215 O214 2.035 . S
Zn215 O216 2.028 . S
Zn215 O218 2.028 . S
Zn215 O221 2.035 . S
O216 Zn215 2.028 . S
O216 C222 1.247 . S
O217 Zn213 2.035 . S
O217 C222 1.258 . S
O218 C211 1.247 . S
O218 Zn215 2.028 . S
O219 C211 1.258 . S
O219 Zn213 2.035 . S
O220 Zn213 2.028 . S
O220 C223 1.247 . S
O221 Zn215 2.035 . S
O221 C223 1.258 . S
C222 O216 1.247 . S
C222 O217 1.258 . S
C223 O220 1.247 . S
C223 O221 1.258 . S
C224 O226 1.247 . S
C224 O228 1.258 . S
C225 O232 1.247 . S
C225 O233 1.258 . S
O226 C224 1.247 . S
O226 Zn227 2.028 . S
Zn227 O226 2.028 . S
Zn227 O231 2.035 . S
Zn227 O233 2.035 . S
Zn227 O234 2.028 . S
O228 C224 1.258 . S
O228 Zn229 2.035 . S
Zn229 O228 2.035 . S
Zn229 O230 2.028 . S
Zn229 O232 2.028 . S
Zn229 O235 2.035 . S
O230 Zn229 2.028 . S
O230 C236 1.247 . S
O231 Zn227 2.035 . S
O231 C236 1.258 . S
O232 C225 1.247 . S
O232 Zn229 2.028 . S
O233 C225 1.258 . S
O233 Zn227 2.035 . S
O234 Zn227 2.028 . S
O234 C237 1.247 . S
O235 Zn229 2.035 . S
O235 C237 1.258 . S
C236 O230 1.247 . S
C236 O231 1.258 . S
C237 O234 1.247 . S
C237 O235 1.258 . S
C238 O240 1.247 . S
C238 O242 1.258 . S
C239 O246 1.247 . S
C239 O247 1.258 . S
O240 C238 1.247 . S
O240 Zn241 2.028 . S
Zn241 O240 2.028 . S
Zn241 O245 2.035 . S
Zn241 O247 2.035 . S
Zn241 O248 2.028 . S
O242 C238 1.258 . S
O242 Zn243 2.035 . S
Zn243 O242 2.035 . S
Zn243 O244 2.028 . S
Zn243 O246 2.028 . S
Zn243 O249 2.035 . S
O244 Zn243 2.028 . S
O244 C250 1.247 . S
O245 Zn241 2.035 . S
O245 C250 1.258 . S
O246 C239 1.247 . S
O246 Zn243 2.028 . S
O247 C239 1.258 . S
O247 Zn241 2.035 . S
O248 Zn241 2.028 . S
O248 C251 1.247 . S
O249 Zn243 2.035 . S
O249 C251 1.258 . S
C250 O244 1.247 . S
C250 O245 1.258 . S
C251 O248 1.247 . S
C251 O249 1.258 . S
C252 O254 1.247 . S
C252 O256 1.258 . S
C253 O260 1.247 . S
C253 O261 1.258 . S
O254 C252 1.247 . S
O254 Zn255 2.028 . S
Zn255 O254 2.028 . S
Zn255 O259 2.035 . S
Zn255 O261 2.035 . S
Zn255 O262 2.028 . S
O256 C252 1.258 . S
O256 Zn257 2.035 . S
Zn257 O256 2.035 . S
Zn257 O258 2.028 . S
Zn257 O260 2.028 . S
Zn257 O263 2.035 . S
O258 Zn257 2.028 . S
O258 C264 1.247 . S
O259 Zn255 2.035 . S
O259 C264 1.258 . S
O260 C253 1.247 . S
O260 Zn257 2.028 . S
O261 C253 1.258 . S
O261 Zn255 2.035 . S
O262 Zn255 2.028 . S
O262 C265 1.247 . S
O263 Zn257 2.035 . S
O263 C265 1.258 . S
C264 O258 1.247 . S
C264 O259 1.258 . S
C265 O262 1.247 . S
C265 O263 1.258 . S
C266 O268 1.247 . S
C266 O270 1.258 . S
C267 O274 1.247 . S
C267 O275 1.258 . S
O268 C266 1.247 . S
O268 Zn269 2.028 . S
Zn269 O268 2.028 . S
Zn269 O273 2.035 . S
Zn269 O275 2.035 . S
Zn269 O276 2.028 . S
O270 C266 1.258 . S
O270 Zn271 2.035 . S
Zn271 O270 2.035 . S
Zn271 O272 2.028 . S
Zn271 O274 2.028 . S
Zn271 O277 2.035 . S
O272 Zn271 2.028 . S
O272 C278 1.247 . S
O273 Zn269 2.035 . S
O273 C278 1.258 . S
O274 C267 1.247 . S
O274 Zn271 2.028 . S
O275 C267 1.258 . S
O275 Zn269 2.035 . S
O276 Zn269 2.028 . S
O276 C279 1.247 . S
O277 Zn271 2.035 . S
O277 C279 1.258 . S
C278 O272 1.247 . S
C278 O273 1.258 . S
C279 O276 1.247 . S
C279 O277 1.258 . S
C280 O282 1.247 . S
C280 O284 1.258 . S
C281 O288 1.247 . S
C281 O289 1.258 . S
O282 C280 1.247 . S
O282 Zn283 2.028 . S
Zn283 O282 2.028 . S
Zn283 O287 2.035 . S
Zn283 O289 2.035 . S
Zn283 O290 2.028 . S
O284 C280 1.258 . S
O284 Zn285 2.035 . S
Zn285 O284 2.035 . S
Zn285 O286 2.028 . S
Zn285 O288 2.028 . S
Zn285 O291 2.035 . S
O286 Zn285 2.028 . S
O286 C292 1.247 . S
O287 Zn283 2.035 . S
O287 C292 1.258 . S
O288 C281 1.247 . S
O288 Zn285 2.028 . S
O289 C281 1.258 . S
O289 Zn283 2.035 . S
O290 Zn283 2.028 . S
O290 C293 1.247 . S
O291 Zn285 2.035 . S
O291 C293 1.258 . S
C292 O286 1.247 . S
C292 O287 1.258 . S
C293 O290 1.247 . S
C293 O291 1.258 . S
C294 O296 1.247 . S
C294 O298 1.258 . S
C295 O302 1.247 . S
C295 O303 1.258 . S
O296 C294 1.247 . S
O296 Zn297 2.028 . S
Zn297 O296 2.028 . S
Zn297 O301 2.035 . S
Zn297 O303 2.035 . S
Zn297 O304 2.028 . S
O298 C294 1.258 . S
O298 Zn299 2.035 . S
Zn299 O298 2.035 . S
Zn299 O300 2.028 . S
Zn299 O302 2.028 . S
Zn299 O305 2.035 . S
O300 Zn299 2.028 . S
O300 C306 1.247 . S
O301 Zn297 2.035 . S
O301 C306 1.258 . S
O302 C295 1.247 . S
O302 Zn299 2.028 . S
O303 C295 1.258 . S
O303 Zn297 2.035 . S
O304 Zn297 2.028 . S
O304 C307 1.247 . S
O305 Zn299 2.035 . S
O305 C307 1.258 . S
C306 O300 1.247 . S
C306 O301 1.258 . S
C307 O304 1.247 . S
C307 O305 1.258 . S
C308 O310 1.247 . S
C308 O312 1.258 . S
C309 O316 1.247 . S
C309 O317 1.258 . S
O310 C308 1.247 . S
O310 Zn311 2.028 . S
Zn311 O310 2.028 . S
Zn311 O315 2.035 . S
Zn311 O317 2.035 . S
Zn311 O318 2.028 . S
O312 C308 1.258 . S
O312 Zn313 2.035 . S
Zn313 O312 2.035 . S
Zn313 O314 2.028 . S
Zn313 O316 2.028 . S
Zn313 O319 2.035 . S
O314 Zn313 2.028 . S
O314 C320 1.247 . S
O315 Zn311 2.035 . S
O315 C320 1.258 . S
O316 C309 1.247 . S
O316 Zn313 2.028 . S
O317 C309 1.258 . S
O317 Zn311 2.035 . S
O318 Zn311 2.028 . S
O318 C321 1.247 . S
O319 Zn313 2.035 . S
O319 C321 1.258 . S
C320 O314 1.247 . S
C320 O315 1.258 . S
C321 O318 1.247 . S
C321 O319 1.258 . S
C322 O324 1.247 . S
C322 O326 1.258 . S
C323 O330 1.247 . S
C323 O331 1.258 . S
O324 C322 1.247 . S
O324 Zn325 2.028 . S
Zn325 O324 2.028 . S
Zn325 O329 2.035 . S
Zn325 O331 2.035 . S
Zn325 O332 2.028 . S
O326 C322 1.258 . S
O326 Zn327 2.035 . S
Zn327 O326 2.035 . S
Zn327 O328 2.028 . S
Zn327 O330 2.028 . S
Zn327 O333 2.035 . S
O328 Zn327 2.028 . S
O328 C334 1.247 . S
O329 Zn325 2.035 . S
O329 C334 1.258 . S
O330 C323 1.247 . S
O330 Zn327 2.028 . S
O331 C323 1.258 . S
O331 Zn325 2.035 . S
O332 Zn325 2.028 . S
O332 C335 1.247 . S
O333 Zn327 2.035 . S
O333 C335 1.258 . S
C334 O328 1.247 . S
C334 O329 1.258 . S
C335 O332 1.247 . S
C335 O333 1.258 . S
C336 C337 1.363 . S
C336 C342 1.379 . S
C336 N344 1.356 . S
C337 C336 1.363 . S
C337 C343 1.363 . S
C338 C339 1.363 . S
C338 C343 1.379 . S
C338 N345 1.356 . S
C339 C338 1.363 . S
C339 C342 1.363 . S
N340 C342 1.356 . S
N340 H352 0.984 . S
N340 H353 0.985 . S
N341 C343 1.356 . S
N341 H346 0.984 . S
N341 H347 0.985 . S
C342 C336 1.379 . S
C342 C339 1.363 . S
C342 N340 1.356 . S
C343 C337 1.363 . S
C343 C338 1.379 . S
C343 N341 1.356 . S
N344 C336 1.356 . S
N344 H350 0.984 . S
N344 H351 0.984 . S
N345 C338 1.356 . S
N345 H348 0.984 . S
N345 H349 0.985 . S
H346 N341 0.984 . S
H347 N341 0.985 . S
H348 N345 0.984 . S
H349 N345 0.985 . S
H350 N344 0.984 . S
H351 N344 0.984 . S
H352 N340 0.984 . S
H353 N340 0.985 . S
C354 C355 1.363 . S
C354 C360 1.379 . S
C354 N362 1.356 . S
C355 C354 1.363 . S
C355 C361 1.363 . S
C356 C357 1.363 . S
C356 C361 1.379 . S
C356 N363 1.356 . S
C357 C356 1.363 . S
C357 C360 1.363 . S
N358 C360 1.356 . S
N358 H370 0.984 . S
N358 H371 0.985 . S
N359 C361 1.356 . S
N359 H364 0.984 . S
N359 H365 0.985 . S
C360 C354 1.379 . S
C360 C357 1.363 . S
C360 N358 1.356 . S
C361 C355 1.363 . S
C361 C356 1.379 . S
C361 N359 1.356 . S
N362 C354 1.356 . S
N362 H368 0.984 . S
N362 H369 0.984 . S
N363 C356 1.356 . S
N363 H366 0.984 . S
N363 H367 0.985 . S
H364 N359 0.984 . S
H365 N359 0.985 . S
H366 N363 0.984 . S
H367 N363 0.985 . S
H368 N362 0.984 . S
H369 N362 0.984 . S
H370 N358 0.984 . S
H371 N358 0.985 . S
C372 C373 1.363 . S
C372 C378 1.379 . S
C372 N380 1.356 . S
C373 C372 1.363 . S
C373 C379 1.363 . S
C374 C375 1.363 . S
C374 C379 1.379 . S
C374 N381 1.356 . S
C375 C374 1.363 . S
C375 C378 1.363 . S
N376 C378 1.356 . S
N376 H388 0.984 . S
N376 H389 0.985 . S
N377 C379 1.356 . S
N377 H382 0.984 . S
N377 H383 0.985 . S
C378 C372 1.379 . S
C378 C375 1.363 . S
C378 N376 1.356 . S
C379 C373 1.363 . S
C379 C374 1.379 . S
C379 N377 1.356 . S
N380 C372 1.356 . S
N380 H386 0.984 . S
N380 H387 0.984 . S
N381 C374 1.356 . S
N381 H384 0.984 . S
N381 H385 0.985 . S
H382 N377 0.984 . S
H383 N377 0.985 . S
H384 N381 0.984 . S
H385 N381 0.985 . S
H386 N380 0.984 . S
H387 N380 0.984 . S
H388 N376 0.984 . S
H389 N376 0.985 . S
C390 C391 1.363 . S
C390 C396 1.379 . S
C390 N398 1.356 . S
C391 C390 1.363 . S
C391 C397 1.363 . S
C392 C393 1.363 . S
C392 C397 1.379 . S
C392 N399 1.356 . S
C393 C392 1.363 . S
C393 C396 1.363 . S
N394 C396 1.356 . S
N394 H406 0.984 . S
N394 H407 0.985 . S
N395 C397 1.356 . S
N395 H400 0.984 . S
N395 H401 0.985 . S
C396 C390 1.379 . S
C396 C393 1.363 . S
C396 N394 1.356 . S
C397 C391 1.363 . S
C397 C392 1.379 . S
C397 N395 1.356 . S
N398 C390 1.356 . S
N398 H404 0.984 . S
N398 H405 0.984 . S
N399 C392 1.356 . S
N399 H402 0.984 . S
N399 H403 0.985 . S
H400 N395 0.984 . S
H401 N395 0.985 . S
H402 N399 0.984 . S
H403 N399 0.985 . S
H404 N398 0.984 . S
H405 N398 0.984 . S
H406 N394 0.984 . S
H407 N394 0.985 . S
C408 C409 1.363 . S
C408 C414 1.379 . S
C408 N416 1.356 . S
C409 C408 1.363 . S
C409 C415 1.363 . S
C410 C411 1.363 . S
C410 C415 1.379 . S
C410 N417 1.356 . S
C411 C410 1.363 . S
C411 C414 1.363 . S
N412 C414 1.356 . S
N412 H424 0.984 . S
N412 H425 0.985 . S
N413 C415 1.356 . S
N413 H418 0.984 . S
N413 H419 0.985 . S
C414 C408 1.379 . S
C414 C411 1.363 . S
C414 N412 1.356 . S
C415 C409 1.363 . S
C415 C410 1.379 . S
C415 N413 1.356 . S
N416 C408 1.356 . S
N416 H422 0.984 . S
N416 H423 0.984 . S
N417 C410 1.356 . S
N417 H420 0.984 . S
N417 H421 0.985 . S
H418 N413 0.984 . S
H419 N413 0.985 . S
H420 N417 0.984 . S
H421 N417 0.985 . S
H422 N416 0.984 . S
H423 N416 0.984 . S
H424 N412 0.984 . S
H425 N412 0.985 . S
C426 C427 1.363 . S
C426 C432 1.379 . S
C426 N434 1.356 . S
C427 C426 1.363 . S
C427 C433 1.363 . S
C428 C429 1.363 . S
C428 C433 1.379 . S
C428 N435 1.356 . S
C429 C428 1.363 . S
C429 C432 1.363 . S
N430 C432 1.356 . S
N430 H442 0.984 . S
N430 H443 0.985 . S
N431 C433 1.356 . S
N431 H436 0.984 . S
N431 H437 0.985 . S
C432 C426 1.379 . S
C432 C429 1.363 . S
C432 N430 1.356 . S
C433 C427 1.363 . S
C433 C428 1.379 . S
C433 N431 1.356 . S
N434 C426 1.356 . S
N434 H440 0.984 . S
N434 H441 0.984 . S
N435 C428 1.356 . S
N435 H438 0.984 . S
N435 H439 0.985 . S
H436 N431 0.984 . S
H437 N431 0.985 . S
H438 N435 0.984 . S
H439 N435 0.985 . S
H440 N434 0.984 . S
H441 N434 0.984 . S
H442 N430 0.984 . S
H443 N430 0.985 . S
C444 C445 1.363 . S
C444 C450 1.379 . S
C444 N452 1.356 . S
C445 C444 1.363 . S
C445 C451 1.363 . S
C446 C447 1.363 . S
C446 C451 1.379 . S
C446 N453 1.356 . S
C447 C446 1.363 . S
C447 C450 1.363 . S
N448 C450 1.356 . S
N448 H460 0.984 . S
N448 H461 0.985 . S
N449 C451 1.356 . S
N449 H454 0.984 . S
N449 H455 0.985 . S
C450 C444 1.379 . S
C450 C447 1.363 . S
C450 N448 1.356 . S
C451 C445 1.363 . S
C451 C446 1.379 . S
C451 N449 1.356 . S
N452 C444 1.356 . S
N452 H458 0.984 . S
N452 H459 0.984 . S
N453 C446 1.356 . S
N453 H456 0.984 . S
N453 H457 0.985 . S
H454 N449 0.984 . S
H455 N449 0.985 . S
H456 N453 0.984 . S
H457 N453 0.985 . S
H458 N452 0.984 . S
H459 N452 0.984 . S
H460 N448 0.984 . S
H461 N448 0.985 . S
C462 C463 1.363 . S
C462 C468 1.379 . S
C462 N470 1.356 . S
C463 C462 1.363 . S
C463 C469 1.363 . S
C464 C465 1.363 . S
C464 C469 1.379 . S
C464 N471 1.356 . S
C465 C464 1.363 . S
C465 C468 1.363 . S
N466 C468 1.356 . S
N466 H478 0.984 . S
N466 H479 0.985 . S
N467 C469 1.356 . S
N467 H472 0.984 . S
N467 H473 0.985 . S
C468 C462 1.379 . S
C468 C465 1.363 . S
C468 N466 1.356 . S
C469 C463 1.363 . S
C469 C464 1.379 . S
C469 N467 1.356 . S
N470 C462 1.356 . S
N470 H476 0.984 . S
N470 H477 0.984 . S
N471 C464 1.356 . S
N471 H474 0.984 . S
N471 H475 0.985 . S
H472 N467 0.984 . S
H473 N467 0.985 . S
H474 N471 0.984 . S
H475 N471 0.985 . S
H476 N470 0.984 . S
H477 N470 0.984 . S
H478 N466 0.984 . S
H479 N466 0.985 . S
C480 C481 1.363 . S
C480 C486 1.379 . S
C480 N488 1.356 . S
C481 C480 1.363 . S
C481 C487 1.363 . S
C482 C483 1.363 . S
C482 C487 1.379 . S
C482 N489 1.356 . S
C483 C482 1.363 . S
C483 C486 1.363 . S
N484 C486 1.356 . S
N484 H496 0.984 . S
N484 H497 0.985 . S
N485 C487 1.356 . S
N485 H490 0.984 . S
N485 H491 0.985 . S
C486 C480 1.379 . S
C486 C483 1.363 . S
C486 N484 1.356 . S
C487 C481 1.363 . S
C487 C482 1.379 . S
C487 N485 1.356 . S
N488 C480 1.356 . S
N488 H494 0.984 . S
N488 H495 0.984 . S
N489 C482 1.356 . S
N489 H492 0.984 . S
N489 H493 0.985 . S
H490 N485 0.984 . S
H491 N485 0.985 . S
H492 N489 0.984 . S
H493 N489 0.985 . S
H494 N488 0.984 . S
H495 N488 0.984 . S
H496 N484 0.984 . S
H497 N484 0.985 . S
C498 C499 1.363 . S
C498 C504 1.379 . S
C498 N506 1.356 . S
C499 C498 1.363 . S
C499 C505 1.363 . S
C500 C501 1.363 . S
C500 C505 1.379 . S
C500 N507 1.356 . S
C501 C500 1.363 . S
C501 C504 1.363 . S
N502 C504 1.356 . S
N502 H514 0.984 . S
N502 H515 0.985 . S
N503 C505 1.356 . S
N503 H508 0.984 . S
N503 H509 0.985 . S
C504 C498 1.379 . S
C504 C501 1.363 . S
C504 N502 1.356 . S
C505 C499 1.363 . S
C505 C500 1.379 . S
C505 N503 1.356 . S
N506 C498 1.356 . S
N506 H512 0.984 . S
N506 H513 0.984 . S
N507 C500 1.356 . S
N507 H510 0.984 . S
N507 H511 0.985 . S
H508 N503 0.984 . S
H509 N503 0.985 . S
H510 N507 0.984 . S
H511 N507 0.985 . S
H512 N506 0.984 . S
H513 N506 0.984 . S
H514 N502 0.984 . S
H515 N502 0.985 . S
C516 C517 1.363 . S
C516 C522 1.379 . S
C516 N524 1.356 . S
C517 C516 1.363 . S
C517 C523 1.363 . S
C518 C519 1.363 . S
C518 C523 1.379 . S
C518 N525 1.356 . S
C519 C518 1.363 . S
C519 C522 1.363 . S
N520 C522 1.356 . S
N520 H532 0.984 . S
N520 H533 0.985 . S
N521 C523 1.356 . S
N521 H526 0.984 . S
N521 H527 0.985 . S
C522 C516 1.379 . S
C522 C519 1.363 . S
C522 N520 1.356 . S
C523 C517 1.363 . S
C523 C518 1.379 . S
C523 N521 1.356 . S
N524 C516 1.356 . S
N524 H530 0.984 . S
N524 H531 0.984 . S
N525 C518 1.356 . S
N525 H528 0.984 . S
N525 H529 0.985 . S
H526 N521 0.984 . S
H527 N521 0.985 . S
H528 N525 0.984 . S
H529 N525 0.985 . S
H530 N524 0.984 . S
H531 N524 0.984 . S
H532 N520 0.984 . S
H533 N520 0.985 . S
C534 C535 1.363 . S
C534 C540 1.379 . S
C534 N542 1.356 . S
C535 C534 1.363 . S
C535 C541 1.363 . S
C536 C537 1.363 . S
C536 C541 1.379 . S
C536 N543 1.356 . S
C537 C536 1.363 . S
C537 C540 1.363 . S
N538 C540 1.356 . S
N538 H550 0.984 . S
N538 H551 0.985 . S
N539 C541 1.356 . S
N539 H544 0.984 . S
N539 H545 0.985 . S
C540 C534 1.379 . S
C540 C537 1.363 . S
C540 N538 1.356 . S
C541 C535 1.363 . S
C541 C536 1.379 . S
C541 N539 1.356 . S
N542 C534 1.356 . S
N542 H548 0.984 . S
N542 H549 0.984 . S
N543 C536 1.356 . S
N543 H546 0.984 . S
N543 H547 0.985 . S
H544 N539 0.984 . S
H545 N539 0.985 . S
H546 N543 0.984 . S
H547 N543 0.985 . S
H548 N542 0.984 . S
H549 N542 0.984 . S
H550 N538 0.984 . S
H551 N538 0.985 . S
C552 C553 1.363 . S
C552 C558 1.379 . S
C552 N560 1.356 . S
C553 C552 1.363 . S
C553 C559 1.363 1_565 S
C554 C555 1.363 . S
C554 C559 1.379 . S
C554 N561 1.356 . S
C555 C554 1.363 . S
C555 C558 1.363 1_545 S
N556 C558 1.356 . S
N556 H568 0.984 . S
N556 H569 0.985 1_565 S
N557 C559 1.356 . S
N557 H562 0.984 1_545 S
N557 H563 0.985 . S
C558 C552 1.379 . S
C558 C555 1.363 1_565 S
C558 N556 1.356 . S
C559 C553 1.363 1_545 S
C559 C554 1.379 . S
C559 N557 1.356 . S
N560 C552 1.356 . S
N560 H566 0.984 . S
N560 H567 0.984 . S
N561 C554 1.356 . S
N561 H564 0.984 . S
N561 H565 0.985 . S
H562 N557 0.984 1_565 S
H563 N557 0.985 . S
H564 N561 0.984 . S
H565 N561 0.985 . S
H566 N560 0.984 . S
H567 N560 0.984 . S
H568 N556 0.984 . S
H569 N556 0.985 1_545 S
C570 C571 1.363 . S
C570 C576 1.377 . S
C570 N578 1.356 . S
C571 C570 1.363 . S
C571 C577 1.365 1_655 S
C572 C573 1.363 . S
C572 C577 1.377 . S
C572 N579 1.356 . S
C573 C572 1.363 . S
C573 C576 1.365 1_455 S
N574 C576 1.357 1_455 S
N574 H586 0.984 1_455 S
N574 H587 0.985 . S
N575 C577 1.357 1_655 S
N575 H580 0.984 . S
N575 H581 0.985 1_655 S
C576 C570 1.377 . S
C576 C573 1.365 1_655 S
C576 N574 1.357 1_655 S
C577 C571 1.365 1_455 S
C577 C572 1.377 . S
C577 N575 1.357 1_455 S
N578 C570 1.356 . S
N578 H584 0.984 . S
N578 H585 0.984 . S
N579 C572 1.356 . S
N579 H582 0.984 . S
N579 H583 0.985 . S
H580 N575 0.984 . S
H581 N575 0.985 1_455 S
H582 N579 0.984 . S
H583 N579 0.985 . S
H584 N578 0.984 . S
H585 N578 0.984 . S
H586 N574 0.984 1_655 S
H587 N574 0.985 . S
C588 C589 1.363 1_565 S
C588 C594 1.379 . S
C588 N596 1.356 . S
C589 C588 1.363 1_545 S
C589 C595 1.363 . S
C590 C591 1.363 1_545 S
C590 C595 1.379 . S
C590 N597 1.356 . S
C591 C590 1.363 1_565 S
C591 C594 1.363 . S
N592 C594 1.356 . S
N592 H604 0.984 . S
N592 H605 0.985 . S
N593 C595 1.356 . S
N593 H598 0.984 . S
N593 H599 0.985 . S
C594 C588 1.379 . S
C594 C591 1.363 . S
C594 N592 1.356 . S
C595 C589 1.363 . S
C595 C590 1.379 . S
C595 N593 1.356 . S
N596 C588 1.356 . S
N596 H602 0.984 . S
N596 H603 0.984 1_565 S
N597 C590 1.356 . S
N597 H600 0.984 1_545 S
N597 H601 0.985 . S
H598 N593 0.984 . S
H599 N593 0.985 . S
H600 N597 0.984 1_565 S
H601 N597 0.985 . S
H602 N596 0.984 . S
H603 N596 0.984 1_545 S
H604 N592 0.984 . S
H605 N592 0.985 . S
C606 C607 1.363 1_655 S
C606 C612 1.379 . S
C606 N614 1.356 . S
C607 C606 1.363 1_455 S
C607 C613 1.363 . S
C608 C609 1.363 1_455 S
C608 C613 1.379 . S
C608 N615 1.356 . S
C609 C608 1.363 1_655 S
C609 C612 1.363 . S
N610 C612 1.356 . S
N610 H622 0.984 . S
N610 H623 0.985 . S
N611 C613 1.356 . S
N611 H616 0.984 . S
N611 H617 0.985 . S
C612 C606 1.379 . S
C612 C609 1.363 . S
C612 N610 1.356 . S
C613 C607 1.363 . S
C613 C608 1.379 . S
C613 N611 1.356 . S
N614 C606 1.356 . S
N614 H620 0.984 . S
N614 H621 0.984 1_655 S
N615 C608 1.356 . S
N615 H618 0.984 1_455 S
N615 H619 0.985 . S
H616 N611 0.984 . S
H617 N611 0.985 . S
H618 N615 0.984 1_655 S
H619 N615 0.985 . S
H620 N614 0.984 . S
H621 N614 0.984 1_455 S
H622 N610 0.984 . S
H623 N610 0.985 . S
C624 C625 1.363 . S
C624 C630 1.380 . S
C624 N632 1.356 . S
C625 C624 1.363 . S
C625 C631 1.362 1_565 S
C626 C627 1.363 . S
C626 C631 1.380 . S
C626 N633 1.356 . S
C627 C626 1.363 . S
C627 C630 1.362 1_545 S
N628 C630 1.356 1_545 S
N628 H640 0.984 1_545 S
N628 H641 0.985 . S
N629 C631 1.356 1_565 S
N629 H634 0.984 . S
N629 H635 0.985 1_565 S
C630 C624 1.380 . S
C630 C627 1.362 1_565 S
C630 N628 1.356 1_565 S
C631 C625 1.362 1_545 S
C631 C626 1.380 . S
C631 N629 1.356 1_545 S
N632 C624 1.356 . S
N632 H638 0.984 . S
N632 H639 0.984 . S
N633 C626 1.356 . S
N633 H636 0.984 . S
N633 H637 0.985 . S
H634 N629 0.984 . S
H635 N629 0.985 1_545 S
H636 N633 0.984 . S
H637 N633 0.985 . S
H638 N632 0.984 . S
H639 N632 0.984 . S
H640 N628 0.984 1_565 S
H641 N628 0.985 . S
C642 C643 1.363 . S
C642 C648 1.379 . S
C642 N650 1.356 . S
C643 C642 1.363 . S
C643 C649 1.363 1_655 S
C644 C645 1.363 . S
C644 C649 1.379 . S
C644 N651 1.356 . S
C645 C644 1.363 . S
C645 C648 1.363 1_455 S
N646 C648 1.356 1_455 S
N646 H658 0.984 1_455 S
N646 H659 0.985 . S
N647 C649 1.356 1_655 S
N647 H652 0.984 . S
N647 H653 0.985 1_655 S
C648 C642 1.379 . S
C648 C645 1.363 1_655 S
C648 N646 1.356 1_655 S
C649 C643 1.363 1_455 S
C649 C644 1.379 . S
C649 N647 1.356 1_455 S
N650 C642 1.356 . S
N650 H656 0.984 . S
N650 H657 0.984 . S
N651 C644 1.356 . S
N651 H654 0.984 . S
N651 H655 0.985 . S
H652 N647 0.984 . S
H653 N647 0.985 1_455 S
H654 N651 0.984 . S
H655 N651 0.985 . S
H656 N650 0.984 . S
H657 N650 0.984 . S
H658 N646 0.984 1_655 S
H659 N646 0.985 . S
C660 C661 1.363 . S
C660 C666 1.379 1_565 S
C660 N668 1.356 . S
C661 C660 1.363 . S
C661 C667 1.363 . S
C662 C663 1.363 . S
C662 C667 1.379 1_545 S
C662 N669 1.356 . S
C663 C662 1.363 . S
C663 C666 1.363 . S
N664 C666 1.356 . S
N664 H676 0.984 . S
N664 H677 0.985 . S
N665 C667 1.356 . S
N665 H670 0.984 . S
N665 H671 0.985 . S
C666 C660 1.379 1_545 S
C666 C663 1.363 . S
C666 N664 1.356 . S
C667 C661 1.363 . S
C667 C662 1.379 1_565 S
C667 N665 1.356 . S
N668 C660 1.356 . S
N668 H674 0.984 . S
N668 H675 0.984 . S
N669 C662 1.356 . S
N669 H672 0.984 . S
N669 H673 0.985 . S
H670 N665 0.984 . S
H671 N665 0.985 . S
H672 N669 0.984 . S
H673 N669 0.985 . S
H674 N668 0.984 . S
H675 N668 0.984 . S
H676 N664 0.984 . S
H677 N664 0.985 . S
C678 C679 1.363 . S
C678 C684 1.379 1_455 S
C678 N686 1.356 . S
C679 C678 1.363 . S
C679 C685 1.363 . S
C680 C681 1.363 . S
C680 C685 1.379 1_655 S
C680 N687 1.356 . S
C681 C680 1.363 . S
C681 C684 1.363 . S
N682 C684 1.356 . S
N682 H694 0.984 . S
N682 H695 0.985 . S
N683 C685 1.356 . S
N683 H688 0.984 . S
N683 H689 0.985 . S
C684 C678 1.379 1_655 S
C684 C681 1.363 . S
C684 N682 1.356 . S
C685 C679 1.363 . S
C685 C680 1.379 1_455 S
C685 N683 1.356 . S
N686 C678 1.356 . S
N686 H692 0.984 . S
N686 H693 0.984 . S
N687 C680 1.356 . S
N687 H690 0.984 . S
N687 H691 0.985 . S
H688 N683 0.984 . S
H689 N683 0.985 . S
H690 N687 0.984 . S
H691 N687 0.985 . S
H692 N686 0.984 . S
H693 N686 0.984 . S
H694 N682 0.984 . S
H695 N682 0.985 . S
C696 C697 1.363 . S
C696 C702 1.379 . S
C696 N704 1.356 . S
C697 C696 1.363 . S
C697 C703 1.363 1_556 S
C698 C699 1.363 . S
C698 C703 1.379 . S
C698 N705 1.356 . S
C699 C698 1.363 . S
C699 C702 1.363 1_554 S
N700 C702 1.356 . S
N700 H712 0.984 . S
N700 H713 0.985 1_556 S
N701 C703 1.356 . S
N701 H706 0.984 1_554 S
N701 H707 0.985 . S
C702 C696 1.379 . S
C702 C699 1.363 1_556 S
C702 N700 1.356 . S
C703 C697 1.363 1_554 S
C703 C698 1.379 . S
C703 N701 1.356 . S
N704 C696 1.356 . S
N704 H710 0.984 . S
N704 H711 0.984 . S
N705 C698 1.356 . S
N705 H708 0.984 . S
N705 H709 0.985 . S
H706 N701 0.984 1_556 S
H707 N701 0.985 . S
H708 N705 0.984 . S
H709 N705 0.985 . S
H710 N704 0.984 . S
H711 N704 0.984 . S
H712 N700 0.984 . S
H713 N700 0.985 1_554 S
C714 C715 1.363 . S
C714 C720 1.379 1_554 S
C714 N722 1.356 . S
C715 C714 1.363 . S
C715 C721 1.363 . S
C716 C717 1.363 . S
C716 C721 1.379 1_556 S
C716 N723 1.356 . S
C717 C716 1.363 . S
C717 C720 1.363 . S
N718 C720 1.356 . S
N718 H730 0.984 . S
N718 H731 0.985 . S
N719 C721 1.356 . S
N719 H724 0.984 . S
N719 H725 0.985 . S
C720 C714 1.379 1_556 S
C720 C717 1.363 . S
C720 N718 1.356 . S
C721 C715 1.363 . S
C721 C716 1.379 1_554 S
C721 N719 1.356 . S
N722 C714 1.356 . S
N722 H728 0.984 . S
N722 H729 0.984 . S
N723 C716 1.356 . S
N723 H726 0.984 . S
N723 H727 0.985 . S
H724 N719 0.984 . S
H725 N719 0.985 . S
H726 N723 0.984 . S
H727 N723 0.985 . S
H728 N722 0.984 . S
H729 N722 0.984 . S
H730 N718 0.984 . S
H731 N718 0.985 . S
C732 C733 1.363 . S
C732 C738 1.379 1_556 S
C732 N740 1.356 . S
C733 C732 1.363 . S
C733 C739 1.363 . S
C734 C735 1.363 . S
C734 C739 1.379 1_554 S
C734 N741 1.356 . S
C735 C734 1.363 . S
C735 C738 1.363 . S
N736 C738 1.356 . S
N736 H748 0.984 . S
N736 H749 0.985 . S
N737 C739 1.356 . S
N737 H742 0.984 . S
N737 H743 0.985 . S
C738 C732 1.379 1_554 S
C738 C735 1.363 . S
C738 N736 1.356 . S
C739 C733 1.363 . S
C739 C734 1.379 1_556 S
C739 N737 1.356 . S
N740 C732 1.356 . S
N740 H746 0.984 . S
N740 H747 0.984 . S
N741 C734 1.356 . S
N741 H744 0.984 . S
N741 H745 0.985 . S
H742 N737 0.984 . S
H743 N737 0.985 . S
H744 N741 0.984 . S
H745 N741 0.985 . S
H746 N740 0.984 . S
H747 N740 0.984 . S
H748 N736 0.984 . S
H749 N736 0.985 . S
C750 C751 1.363 . S
C750 C756 1.379 1_554 S
C750 N758 1.356 . S
C751 C750 1.363 . S
C751 C757 1.363 . S
C752 C753 1.363 . S
C752 C757 1.379 1_556 S
C752 N759 1.356 . S
C753 C752 1.363 . S
C753 C756 1.363 . S
N754 C756 1.356 . S
N754 H766 0.984 . S
N754 H767 0.985 . S
N755 C757 1.356 . S
N755 H760 0.984 . S
N755 H761 0.985 . S
C756 C750 1.379 1_556 S
C756 C753 1.363 . S
C756 N754 1.356 . S
C757 C751 1.363 . S
C757 C752 1.379 1_554 S
C757 N755 1.356 . S
N758 C750 1.356 . S
N758 H764 0.984 . S
N758 H765 0.984 . S
N759 C752 1.356 . S
N759 H762 0.984 . S
N759 H763 0.985 . S
H760 N755 0.984 . S
H761 N755 0.985 . S
H762 N759 0.984 . S
H763 N759 0.985 . S
H764 N758 0.984 . S
H765 N758 0.984 . S
H766 N754 0.984 . S
H767 N754 0.985 . S
C768 C769 1.363 . S
C768 C774 1.379 . S
C768 N776 1.356 . S
C769 C768 1.363 . S
C769 C775 1.363 . S
C770 C771 1.363 . S
C770 C775 1.379 . S
C770 N777 1.356 . S
C771 C770 1.363 . S
C771 C774 1.363 . S
N772 C774 1.356 . S
N772 H784 0.984 . S
N772 H785 0.985 . S
N773 C775 1.356 . S
N773 H778 0.984 . S
N773 H779 0.985 . S
C774 C768 1.379 . S
C774 C771 1.363 . S
C774 N772 1.356 . S
C775 C769 1.363 . S
C775 C770 1.379 . S
C775 N773 1.356 . S
N776 C768 1.356 . S
N776 H782 0.984 . S
N776 H783 0.984 . S
N777 C770 1.356 . S
N777 H780 0.984 . S
N777 H781 0.985 . S
H778 N773 0.984 . S
H779 N773 0.985 . S
H780 N777 0.984 . S
H781 N777 0.985 . S
H782 N776 0.984 . S
H783 N776 0.984 . S
H784 N772 0.984 . S
H785 N772 0.985 . S
C786 C787 1.363 . S
C786 C792 1.379 . S
C786 N794 1.356 . S
C787 C786 1.363 . S
C787 C793 1.363 . S
C788 C789 1.363 . S
C788 C793 1.379 . S
C788 N795 1.356 . S
C789 C788 1.363 . S
C789 C792 1.363 . S
N790 C792 1.356 . S
N790 H802 0.984 . S
N790 H803 0.985 . S
N791 C793 1.356 . S
N791 H796 0.984 . S
N791 H797 0.985 . S
C792 C786 1.379 . S
C792 C789 1.363 . S
C792 N790 1.356 . S
C793 C787 1.363 . S
C793 C788 1.379 . S
C793 N791 1.356 . S
N794 C786 1.356 . S
N794 H800 0.984 . S
N794 H801 0.984 . S
N795 C788 1.356 . S
N795 H798 0.984 . S
N795 H799 0.985 . S
H796 N791 0.984 . S
H797 N791 0.985 . S
H798 N795 0.984 . S
H799 N795 0.985 . S
H800 N794 0.984 . S
H801 N794 0.984 . S
H802 N790 0.984 . S
H803 N790 0.985 . S
C804 C805 1.363 . S
C804 C810 1.379 . S
C804 N812 1.356 . S
C805 C804 1.363 . S
C805 C811 1.363 . S
C806 C807 1.363 . S
C806 C811 1.379 . S
C806 N813 1.356 . S
C807 C806 1.363 . S
C807 C810 1.363 . S
N808 C810 1.356 . S
N808 H820 0.984 . S
N808 H821 0.985 . S
N809 C811 1.356 . S
N809 H814 0.984 . S
N809 H815 0.985 . S
C810 C804 1.379 . S
C810 C807 1.363 . S
C810 N808 1.356 . S
C811 C805 1.363 . S
C811 C806 1.379 . S
C811 N809 1.356 . S
N812 C804 1.356 . S
N812 H818 0.984 . S
N812 H819 0.984 . S
N813 C806 1.356 . S
N813 H816 0.984 . S
N813 H817 0.985 . S
H814 N809 0.984 . S
H815 N809 0.985 . S
H816 N813 0.984 . S
H817 N813 0.985 . S
H818 N812 0.984 . S
H819 N812 0.984 . S
H820 N808 0.984 . S
H821 N808 0.985 . S
C822 C823 1.363 . S
C822 C828 1.379 . S
C822 N830 1.356 . S
C823 C822 1.363 . S
C823 C829 1.363 . S
C824 C825 1.363 . S
C824 C829 1.379 . S
C824 N831 1.356 . S
C825 C824 1.363 . S
C825 C828 1.363 . S
N826 C828 1.356 . S
N826 H838 0.984 . S
N826 H839 0.985 . S
N827 C829 1.356 . S
N827 H832 0.984 . S
N827 H833 0.985 . S
C828 C822 1.379 . S
C828 C825 1.363 . S
C828 N826 1.356 . S
C829 C823 1.363 . S
C829 C824 1.379 . S
C829 N827 1.356 . S
N830 C822 1.356 . S
N830 H836 0.984 . S
N830 H837 0.984 . S
N831 C824 1.356 . S
N831 H834 0.984 . S
N831 H835 0.985 . S
H832 N827 0.984 . S
H833 N827 0.985 . S
H834 N831 0.984 . S
H835 N831 0.985 . S
H836 N830 0.984 . S
H837 N830 0.984 . S
H838 N826 0.984 . S
H839 N826 0.985 . S
C840 C841 1.363 . S
C840 C846 1.379 . S
C840 N848 1.356 . S
C841 C840 1.363 . S
C841 C847 1.363 . S
C842 C843 1.363 . S
C842 C847 1.379 . S
C842 N849 1.356 . S
C843 C842 1.363 . S
C843 C846 1.363 . S
N844 C846 1.356 . S
N844 H856 0.984 . S
N844 H857 0.985 . S
N845 C847 1.356 . S
N845 H850 0.984 . S
N845 H851 0.985 . S
C846 C840 1.379 . S
C846 C843 1.363 . S
C846 N844 1.356 . S
C847 C841 1.363 . S
C847 C842 1.379 . S
C847 N845 1.356 . S
N848 C840 1.356 . S
N848 H854 0.984 . S
N848 H855 0.984 . S
N849 C842 1.356 . S
N849 H852 0.984 . S
N849 H853 0.985 . S
H850 N845 0.984 . S
H851 N845 0.985 . S
H852 N849 0.984 . S
H853 N849 0.985 . S
H854 N848 0.984 . S
H855 N848 0.984 . S
H856 N844 0.984 . S
H857 N844 0.985 . S
C858 C859 1.363 . S
C858 C864 1.379 . S
C858 N866 1.356 . S
C859 C858 1.363 . S
C859 C865 1.363 . S
C860 C861 1.363 . S
C860 C865 1.379 . S
C860 N867 1.356 . S
C861 C860 1.363 . S
C861 C864 1.363 . S
N862 C864 1.356 . S
N862 H874 0.984 . S
N862 H875 0.985 . S
N863 C865 1.356 . S
N863 H868 0.984 . S
N863 H869 0.985 . S
C864 C858 1.379 . S
C864 C861 1.363 . S
C864 N862 1.356 . S
C865 C859 1.363 . S
C865 C860 1.379 . S
C865 N863 1.356 . S
N866 C858 1.356 . S
N866 H872 0.984 . S
N866 H873 0.984 . S
N867 C860 1.356 . S
N867 H870 0.984 . S
N867 H871 0.985 . S
H868 N863 0.984 . S
H869 N863 0.985 . S
H870 N867 0.984 . S
H871 N867 0.985 . S
H872 N866 0.984 . S
H873 N866 0.984 . S
H874 N862 0.984 . S
H875 N862 0.985 . S
C876 C877 1.363 . S
C876 C882 1.379 . S
C876 N884 1.356 . S
C877 C876 1.363 . S
C877 C883 1.363 . S
C878 C879 1.363 . S
C878 C883 1.379 . S
C878 N885 1.356 . S
C879 C878 1.363 . S
C879 C882 1.363 . S
N880 C882 1.356 . S
N880 H892 0.984 . S
N880 H893 0.985 . S
N881 C883 1.356 . S
N881 H886 0.984 . S
N881 H887 0.985 . S
C882 C876 1.379 . S
C882 C879 1.363 . S
C882 N880 1.356 . S
C883 C877 1.363 . S
C883 C878 1.379 . S
C883 N881 1.356 . S
N884 C876 1.356 . S
N884 H890 0.984 . S
N884 H891 0.984 . S
N885 C878 1.356 . S
N885 H888 0.984 . S
N885 H889 0.985 . S
H886 N881 0.984 . S
H887 N881 0.985 . S
H888 N885 0.984 . S
H889 N885 0.985 . S
H890 N884 0.984 . S
H891 N884 0.984 . S
H892 N880 0.984 . S
H893 N880 0.985 . S
C894 C895 1.363 . S
C894 C900 1.379 . S
C894 N902 1.356 . S
C895 C894 1.363 . S
C895 C901 1.363 . S
C896 C897 1.363 . S
C896 C901 1.379 . S
C896 N903 1.356 . S
C897 C896 1.363 . S
C897 C900 1.363 . S
N898 C900 1.356 . S
N898 H910 0.984 . S
N898 H911 0.985 . S
N899 C901 1.356 . S
N899 H904 0.984 . S
N899 H905 0.985 . S
C900 C894 1.379 . S
C900 C897 1.363 . S
C900 N898 1.356 . S
C901 C895 1.363 . S
C901 C896 1.379 . S
C901 N899 1.356 . S
N902 C894 1.356 . S
N902 H908 0.984 . S
N902 H909 0.984 . S
N903 C896 1.356 . S
N903 H906 0.984 . S
N903 H907 0.985 . S
H904 N899 0.984 . S
H905 N899 0.985 . S
H906 N903 0.984 . S
H907 N903 0.985 . S
H908 N902 0.984 . S
H909 N902 0.984 . S
H910 N898 0.984 . S
H911 N898 0.985 . S
C912 C913 1.363 . S
C912 C918 1.379 . S
C912 N920 1.356 . S
C913 C912 1.363 . S
C913 C919 1.363 . S
C914 C915 1.363 . S
C914 C919 1.379 . S
C914 N921 1.356 . S
C915 C914 1.363 . S
C915 C918 1.363 . S
N916 C918 1.356 . S
N916 H928 0.984 . S
N916 H929 0.985 . S
N917 C919 1.356 . S
N917 H922 0.984 . S
N917 H923 0.985 . S
C918 C912 1.379 . S
C918 C915 1.363 . S
C918 N916 1.356 . S
C919 C913 1.363 . S
C919 C914 1.379 . S
C919 N917 1.356 . S
N920 C912 1.356 . S
N920 H926 0.984 . S
N920 H927 0.984 . S
N921 C914 1.356 . S
N921 H924 0.984 . S
N921 H925 0.985 . S
H922 N917 0.984 . S
H923 N917 0.985 . S
H924 N921 0.984 . S
H925 N921 0.985 . S
H926 N920 0.984 . S
H927 N920 0.984 . S
H928 N916 0.984 . S
H929 N916 0.985 . S
C930 C931 1.363 . S
C930 C936 1.379 . S
C930 N938 1.356 . S
C931 C930 1.363 . S
C931 C937 1.363 . S
C932 C933 1.363 . S
C932 C937 1.379 . S
C932 N939 1.356 . S
C933 C932 1.363 . S
C933 C936 1.363 . S
N934 C936 1.356 . S
N934 H946 0.984 . S
N934 H947 0.985 . S
N935 C937 1.356 . S
N935 H940 0.984 . S
N935 H941 0.985 . S
C936 C930 1.379 . S
C936 C933 1.363 . S
C936 N934 1.356 . S
C937 C931 1.363 . S
C937 C932 1.379 . S
C937 N935 1.356 . S
N938 C930 1.356 . S
N938 H944 0.984 . S
N938 H945 0.984 . S
N939 C932 1.356 . S
N939 H942 0.984 . S
N939 H943 0.985 . S
H940 N935 0.984 . S
H941 N935 0.985 . S
H942 N939 0.984 . S
H943 N939 0.985 . S
H944 N938 0.984 . S
H945 N938 0.984 . S
H946 N934 0.984 . S
H947 N934 0.985 . S
C948 C949 1.363 . S
C948 C954 1.379 . S
C948 N956 1.356 . S
C949 C948 1.363 . S
C949 C955 1.363 . S
C950 C951 1.363 . S
C950 C955 1.379 . S
C950 N957 1.356 . S
C951 C950 1.363 . S
C951 C954 1.363 . S
N952 C954 1.356 . S
N952 H964 0.984 . S
N952 H965 0.985 . S
N953 C955 1.356 . S
N953 H958 0.984 . S
N953 H959 0.985 . S
C954 C948 1.379 . S
C954 C951 1.363 . S
C954 N952 1.356 . S
C955 C949 1.363 . S
C955 C950 1.379 . S
C955 N953 1.356 . S
N956 C948 1.356 . S
N956 H962 0.984 . S
N956 H963 0.984 . S
N957 C950 1.356 . S
N957 H960 0.984 . S
N957 H961 0.985 . S
H958 N953 0.984 . S
H959 N953 0.985 . S
H960 N957 0.984 . S
H961 N957 0.985 . S
H962 N956 0.984 . S
H963 N956 0.984 . S
H964 N952 0.984 . S
H965 N952 0.985 . S
C966 C967 1.363 . S
C966 C972 1.379 . S
C966 N974 1.356 . S
C967 C966 1.363 . S
C967 C973 1.363 . S
C968 C969 1.363 . S
C968 C973 1.379 . S
C968 N975 1.356 . S
C969 C968 1.363 . S
C969 C972 1.363 . S
N970 C972 1.356 . S
N970 H982 0.984 . S
N970 H983 0.985 . S
N971 C973 1.356 . S
N971 H976 0.984 . S
N971 H977 0.985 . S
C972 C966 1.379 . S
C972 C969 1.363 . S
C972 N970 1.356 . S
C973 C967 1.363 . S
C973 C968 1.379 . S
C973 N971 1.356 . S
N974 C966 1.356 . S
N974 H980 0.984 . S
N974 H981 0.984 . S
N975 C968 1.356 . S
N975 H978 0.984 . S
N975 H979 0.985 . S
H976 N971 0.984 . S
H977 N971 0.985 . S
H978 N975 0.984 . S
H979 N975 0.985 . S
H980 N974 0.984 . S
H981 N974 0.984 . S
H982 N970 0.984 . S
H983 N970 0.985 . S
C984 C985 1.363 . S
C984 C990 1.379 . S
C984 N992 1.356 . S
C985 C984 1.363 . S
C985 C991 1.363 . S
C986 C987 1.363 . S
C986 C991 1.379 . S
C986 N993 1.356 . S
C987 C986 1.363 . S
C987 C990 1.363 . S
N988 C990 1.356 . S
N988 H1000 0.984 . S
N988 H1001 0.985 . S
N989 C991 1.356 . S
N989 H994 0.984 . S
N989 H995 0.985 . S
C990 C984 1.379 . S
C990 C987 1.363 . S
C990 N988 1.356 . S
C991 C985 1.363 . S
C991 C986 1.379 . S
C991 N989 1.356 . S
N992 C984 1.356 . S
N992 H998 0.984 . S
N992 H999 0.984 . S
N993 C986 1.356 . S
N993 H996 0.984 . S
N993 H997 0.985 . S
H994 N989 0.984 . S
H995 N989 0.985 . S
H996 N993 0.984 . S
H997 N993 0.985 . S
H998 N992 0.984 . S
H999 N992 0.984 . S
H1000 N988 0.984 . S
H1001 N988 0.985 . S
C1002 C1003 1.363 . S
C1002 C1008 1.379 . S
C1002 N1010 1.356 . S
C1003 C1002 1.363 . S
C1003 C1009 1.363 . S
C1004 C1005 1.363 . S
C1004 C1009 1.379 . S
C1004 N1011 1.356 . S
C1005 C1004 1.363 . S
C1005 C1008 1.363 . S
N1006 C1008 1.356 . S
N1006 H1018 0.984 . S
N1006 H1019 0.985 . S
N1007 C1009 1.356 . S
N1007 H1012 0.984 . S
N1007 H1013 0.985 . S
C1008 C1002 1.379 . S
C1008 C1005 1.363 . S
C1008 N1006 1.356 . S
C1009 C1003 1.363 . S
C1009 C1004 1.379 . S
C1009 N1007 1.356 . S
N1010 C1002 1.356 . S
N1010 H1016 0.984 . S
N1010 H1017 0.984 . S
N1011 C1004 1.356 . S
N1011 H1014 0.984 . S
N1011 H1015 0.985 . S
H1012 N1007 0.984 . S
H1013 N1007 0.985 . S
H1014 N1011 0.984 . S
H1015 N1011 0.985 . S
H1016 N1010 0.984 . S
H1017 N1010 0.984 . S
H1018 N1006 0.984 . S
H1019 N1006 0.985 . S
C1020 C1021 1.363 . S
C1020 C1026 1.379 . S
C1020 N1028 1.356 . S
C1021 C1020 1.363 . S
C1021 C1027 1.363 . S
C1022 C1023 1.363 . S
C1022 C1027 1.379 . S
C1022 N1029 1.356 . S
C1023 C1022 1.363 . S
C1023 C1026 1.363 . S
N1024 C1026 1.356 . S
N1024 H1036 0.984 . S
N1024 H1037 0.985 . S
N1025 C1027 1.356 . S
N1025 H1030 0.984 . S
N1025 H1031 0.985 . S
C1026 C1020 1.379 . S
C1026 C1023 1.363 . S
C1026 N1024 1.356 . S
C1027 C1021 1.363 . S
C1027 C1022 1.379 . S
C1027 N1025 1.356 . S
N1028 C1020 1.356 . S
N1028 H1034 0.984 . S
N1028 H1035 0.984 . S
N1029 C1022 1.356 . S
N1029 H1032 0.984 . S
N1029 H1033 0.985 . S
H1030 N1025 0.984 . S
H1031 N1025 0.985 . S
H1032 N1029 0.984 . S
H1033 N1029 0.985 . S
H1034 N1028 0.984 . S
H1035 N1028 0.984 . S
H1036 N1024 0.984 . S
H1037 N1024 0.985 . S
C1038 C1039 1.363 . S
C1038 C1044 1.379 . S
C1038 N1046 1.356 . S
C1039 C1038 1.363 . S
C1039 C1045 1.363 . S
C1040 C1041 1.363 . S
C1040 C1045 1.379 . S
C1040 N1047 1.356 . S
C1041 C1040 1.363 . S
C1041 C1044 1.363 . S
N1042 C1044 1.356 . S
N1042 H1054 0.984 . S
N1042 H1055 0.985 . S
N1043 C1045 1.356 . S
N1043 H1048 0.984 . S
N1043 H1049 0.985 . S
C1044 C1038 1.379 . S
C1044 C1041 1.363 . S
C1044 N1042 1.356 . S
C1045 C1039 1.363 . S
C1045 C1040 1.379 . S
C1045 N1043 1.356 . S
N1046 C1038 1.356 . S
N1046 H1052 0.984 . S
N1046 H1053 0.984 . S
N1047 C1040 1.356 . S
N1047 H1050 0.984 . S
N1047 H1051 0.985 . S
H1048 N1043 0.984 . S
H1049 N1043 0.985 . S
H1050 N1047 0.984 . S
H1051 N1047 0.985 . S
H1052 N1046 0.984 . S
H1053 N1046 0.984 . S
H1054 N1042 0.984 . S
H1055 N1042 0.985 . S
C1056 C1057 1.363 . S
C1056 C1062 1.379 . S
C1056 N1064 1.356 . S
C1057 C1056 1.363 . S
C1057 C1063 1.363 . S
C1058 C1059 1.363 . S
C1058 C1063 1.379 . S
C1058 N1065 1.356 . S
C1059 C1058 1.363 . S
C1059 C1062 1.363 . S
N1060 C1062 1.356 . S
N1060 H1072 0.984 . S
N1060 H1073 0.985 . S
N1061 C1063 1.356 . S
N1061 H1066 0.984 . S
N1061 H1067 0.985 . S
C1062 C1056 1.379 . S
C1062 C1059 1.363 . S
C1062 N1060 1.356 . S
C1063 C1057 1.363 . S
C1063 C1058 1.379 . S
C1063 N1061 1.356 . S
N1064 C1056 1.356 . S
N1064 H1070 0.984 . S
N1064 H1071 0.984 . S
N1065 C1058 1.356 . S
N1065 H1068 0.984 . S
N1065 H1069 0.985 . S
H1066 N1061 0.984 . S
H1067 N1061 0.985 . S
H1068 N1065 0.984 . S
H1069 N1065 0.985 . S
H1070 N1064 0.984 . S
H1071 N1064 0.984 . S
H1072 N1060 0.984 . S
H1073 N1060 0.985 . S
C1074 C1075 1.363 . S
C1074 C1080 1.379 . S
C1074 N1082 1.356 . S
C1075 C1074 1.363 . S
C1075 C1081 1.363 . S
C1076 C1077 1.363 . S
C1076 C1081 1.379 . S
C1076 N1083 1.356 . S
C1077 C1076 1.363 . S
C1077 C1080 1.363 . S
N1078 C1080 1.356 . S
N1078 H1090 0.984 . S
N1078 H1091 0.985 . S
N1079 C1081 1.356 . S
N1079 H1084 0.984 . S
N1079 H1085 0.985 . S
C1080 C1074 1.379 . S
C1080 C1077 1.363 . S
C1080 N1078 1.356 . S
C1081 C1075 1.363 . S
C1081 C1076 1.379 . S
C1081 N1079 1.356 . S
N1082 C1074 1.356 . S
N1082 H1088 0.984 . S
N1082 H1089 0.984 . S
N1083 C1076 1.356 . S
N1083 H1086 0.984 . S
N1083 H1087 0.985 . S
H1084 N1079 0.984 . S
H1085 N1079 0.985 . S
H1086 N1083 0.984 . S
H1087 N1083 0.985 . S
H1088 N1082 0.984 . S
H1089 N1082 0.984 . S
H1090 N1078 0.984 . S
H1091 N1078 0.985 . S
C1092 C1093 1.363 . S
C1092 C1098 1.379 . S
C1092 N1100 1.356 . S
C1093 C1092 1.363 . S
C1093 C1099 1.363 . S
C1094 C1095 1.363 . S
C1094 C1099 1.379 . S
C1094 N1101 1.356 . S
C1095 C1094 1.363 . S
C1095 C1098 1.363 . S
N1096 C1098 1.356 . S
N1096 H1108 0.984 . S
N1096 H1109 0.985 . S
N1097 C1099 1.356 . S
N1097 H1102 0.984 . S
N1097 H1103 0.985 . S
C1098 C1092 1.379 . S
C1098 C1095 1.363 . S
C1098 N1096 1.356 . S
C1099 C1093 1.363 . S
C1099 C1094 1.379 . S
C1099 N1097 1.356 . S
N1100 C1092 1.356 . S
N1100 H1106 0.984 . S
N1100 H1107 0.984 . S
N1101 C1094 1.356 . S
N1101 H1104 0.984 . S
N1101 H1105 0.985 . S
H1102 N1097 0.984 . S
H1103 N1097 0.985 . S
H1104 N1101 0.984 . S
H1105 N1101 0.985 . S
H1106 N1100 0.984 . S
H1107 N1100 0.984 . S
H1108 N1096 0.984 . S
H1109 N1096 0.985 . S
C1110 C1111 1.363 . S
C1110 C1116 1.379 . S
C1110 N1118 1.356 . S
C1111 C1110 1.363 . S
C1111 C1117 1.363 . S
C1112 C1113 1.363 . S
C1112 C1117 1.379 . S
C1112 N1119 1.356 . S
C1113 C1112 1.363 . S
C1113 C1116 1.363 . S
N1114 C1116 1.356 . S
N1114 H1126 0.984 . S
N1114 H1127 0.985 . S
N1115 C1117 1.356 . S
N1115 H1120 0.984 . S
N1115 H1121 0.985 . S
C1116 C1110 1.379 . S
C1116 C1113 1.363 . S
C1116 N1114 1.356 . S
C1117 C1111 1.363 . S
C1117 C1112 1.379 . S
C1117 N1115 1.356 . S
N1118 C1110 1.356 . S
N1118 H1124 0.984 . S
N1118 H1125 0.984 . S
N1119 C1112 1.356 . S
N1119 H1122 0.984 . S
N1119 H1123 0.985 . S
H1120 N1115 0.984 . S
H1121 N1115 0.985 . S
H1122 N1119 0.984 . S
H1123 N1119 0.985 . S
H1124 N1118 0.984 . S
H1125 N1118 0.984 . S
H1126 N1114 0.984 . S
H1127 N1114 0.985 . S
C1128 C1129 1.363 . S
C1128 C1134 1.379 . S
C1128 N1136 1.356 . S
C1129 C1128 1.363 . S
C1129 C1135 1.363 . S
C1130 C1131 1.363 . S
C1130 C1135 1.379 . S
C1130 N1137 1.356 . S
C1131 C1130 1.363 . S
C1131 C1134 1.363 . S
N1132 C1134 1.356 . S
N1132 H1144 0.984 . S
N1132 H1145 0.985 . S
N1133 C1135 1.356 . S
N1133 H1138 0.984 . S
N1133 H1139 0.985 . S
C1134 C1128 1.379 . S
C1134 C1131 1.363 . S
C1134 N1132 1.356 . S
C1135 C1129 1.363 . S
C1135 C1130 1.379 . S
C1135 N1133 1.356 . S
N1136 C1128 1.356 . S
N1136 H1142 0.984 . S
N1136 H1143 0.984 . S
N1137 C1130 1.356 . S
N1137 H1140 0.984 . S
N1137 H1141 0.985 . S
H1138 N1133 0.984 . S
H1139 N1133 0.985 . S
H1140 N1137 0.984 . S
H1141 N1137 0.985 . S
H1142 N1136 0.984 . S
H1143 N1136 0.984 . S
H1144 N1132 0.984 . S
H1145 N1132 0.985 . S
C1146 C1147 1.363 . S
C1146 C1152 1.379 . S
C1146 N1154 1.356 . S
C1147 C1146 1.363 . S
C1147 C1153 1.363 . S
C1148 C1149 1.363 . S
C1148 C1153 1.379 . S
C1148 N1155 1.356 . S
C1149 C1148 1.363 . S
C1149 C1152 1.363 . S
N1150 C1152 1.356 . S
N1150 H1162 0.984 . S
N1150 H1163 0.985 . S
N1151 C1153 1.356 . S
N1151 H1156 0.984 . S
N1151 H1157 0.985 . S
C1152 C1146 1.379 . S
C1152 C1149 1.363 . S
C1152 N1150 1.356 . S
C1153 C1147 1.363 . S
C1153 C1148 1.379 . S
C1153 N1151 1.356 . S
N1154 C1146 1.356 . S
N1154 H1160 0.984 . S
N1154 H1161 0.984 . S
N1155 C1148 1.356 . S
N1155 H1158 0.984 . S
N1155 H1159 0.985 . S
H1156 N1151 0.984 . S
H1157 N1151 0.985 . S
H1158 N1155 0.984 . S
H1159 N1155 0.985 . S
H1160 N1154 0.984 . S
H1161 N1154 0.984 . S
H1162 N1150 0.984 . S
H1163 N1150 0.985 . S
C1164 C1165 1.363 . S
C1164 C1170 1.379 . S
C1164 N1172 1.356 . S
C1165 C1164 1.363 . S
C1165 C1171 1.363 . S
C1166 C1167 1.363 . S
C1166 C1171 1.379 . S
C1166 N1173 1.356 . S
C1167 C1166 1.363 . S
C1167 C1170 1.363 . S
N1168 C1170 1.356 . S
N1168 H1180 0.984 . S
N1168 H1181 0.985 . S
N1169 C1171 1.356 . S
N1169 H1174 0.984 . S
N1169 H1175 0.985 . S
C1170 C1164 1.379 . S
C1170 C1167 1.363 . S
C1170 N1168 1.356 . S
C1171 C1165 1.363 . S
C1171 C1166 1.379 . S
C1171 N1169 1.356 . S
N1172 C1164 1.356 . S
N1172 H1178 0.984 . S
N1172 H1179 0.984 . S
N1173 C1166 1.356 . S
N1173 H1176 0.984 . S
N1173 H1177 0.985 . S
H1174 N1169 0.984 . S
H1175 N1169 0.985 . S
H1176 N1173 0.984 . S
H1177 N1173 0.985 . S
H1178 N1172 0.984 . S
H1179 N1172 0.984 . S
H1180 N1168 0.984 . S
H1181 N1168 0.985 . S
C1182 C1183 1.363 . S
C1182 C1188 1.379 . S
C1182 N1190 1.356 . S
C1183 C1182 1.363 . S
C1183 C1189 1.363 . S
C1184 C1185 1.363 . S
C1184 C1189 1.379 . S
C1184 N1191 1.356 . S
C1185 C1184 1.363 . S
C1185 C1188 1.363 . S
N1186 C1188 1.356 . S
N1186 H1198 0.984 . S
N1186 H1199 0.985 . S
N1187 C1189 1.356 . S
N1187 H1192 0.984 . S
N1187 H1193 0.985 . S
C1188 C1182 1.379 . S
C1188 C1185 1.363 . S
C1188 N1186 1.356 . S
C1189 C1183 1.363 . S
C1189 C1184 1.379 . S
C1189 N1187 1.356 . S
N1190 C1182 1.356 . S
N1190 H1196 0.984 . S
N1190 H1197 0.984 . S
N1191 C1184 1.356 . S
N1191 H1194 0.984 . S
N1191 H1195 0.985 . S
H1192 N1187 0.984 . S
H1193 N1187 0.985 . S
H1194 N1191 0.984 . S
H1195 N1191 0.985 . S
H1196 N1190 0.984 . S
H1197 N1190 0.984 . S
H1198 N1186 0.984 . S
H1199 N1186 0.985 . S
C337 C321 1.858 . S
C339 C13 1.858 . S
C355 C27 1.858 . S
C357 C237 1.858 . S
C373 C334 1.857 . S
C375 C40 1.857 . S
C391 C295 1.858 . S
C393 C43 1.858 . S
C409 C252 1.857 . S
C411 C57 1.858 . S
C427 C267 1.858 . S
C429 C71 1.858 . S
C445 C281 1.858 . S
C447 C85 1.858 . S
C463 C110 1.857 . S
C465 C239 1.858 . S
C481 C182 1.857 . S
C483 C125 1.858 . S
C499 C197 1.858 . S
C501 C138 1.857 . S
C517 C140 1.857 . S
C519 C211 1.858 . S
C535 C167 1.858 . S
C537 C181 1.858 . S
C553 C98 1.857 . S
C555 C209 1.858 . S
C571 C223 1.858 . S
C573 C69 1.858 . S
C589 C83 1.858 . S
C591 C169 1.858 . S
C607 C194 1.857 . S
C609 C97 1.858 . S
C625 C152 1.857 . S
C627 C15 1.858 . S
C643 C28 1.857 . S
C645 C155 1.858 . S
C661 C55 1.858 . S
C663 C113 1.858 . S
C679 C1 1.858 . S
C681 C126 1.857 . S
C697 C293 1.858 . S
C699 C307 1.858 . S
C715 C309 1.858 . S
C717 C251 1.858 . S
C733 C264 1.857 . S
C735 C225 1.858 . S
C751 C322 1.857 . S
C753 C279 1.858 . S
C769 C12 1.315 . S
C771 C112 1.315 . S
C787 C127 1.317 . S
C789 C26 1.315 . S
C805 C41 1.317 . S
C807 C153 1.317 . S
C823 C42 1.315 . S
C825 C154 1.315 . S
C841 C56 1.315 . S
C843 C168 1.315 . S
C859 C70 1.315 . S
C861 C195 1.317 . S
C877 C208 1.315 . S
C879 C84 1.315 . S
C895 C222 1.315 . S
C897 C111 1.317 . S
C913 C124 1.315 . S
C915 C224 1.315 . S
C931 C139 1.317 . S
C933 C323 1.317 . S
C949 C306 1.315 . S
C951 C141 1.317 . S
C967 C308 1.315 . S
C969 C166 1.315 . S
C985 C250 1.315 . S
C987 C180 1.315 . S
C1003 C265 1.317 . S
C1005 C183 1.317 . S
C1021 C196 1.315 . S
C1023 C278 1.315 . S
C1039 C210 1.315 . S
C1041 C292 1.315 . S
C1057 C0 1.315 . S
C1059 C236 1.315 . S
C1075 C238 1.315 . S
C1077 C68 1.315 . S
C1093 C253 1.317 . S
C1095 C82 1.315 . S
C1111 C266 1.315 . S
C1113 C96 1.315 . S
C1129 C280 1.315 . S
C1131 C99 1.317 . S
C1147 C294 1.315 . S
C1149 C29 1.317 . S
C1165 C54 1.315 . S
C1167 C320 1.315 . S
C1183 C335 1.317 . S
C1185 C14 1.315 . S
