# Generated by pormake.
# Topology dia-a, (4)-cn, num edge types: 1
# Building blocks:
#     Node 0, Type 0, BuildingBlock: AZAVOO_clean_sbu_0, # of connection points: 4
#     Node 1, Type 0, BuildingBlock: AZAVOO_clean_sbu_0, # of connection points: 4
#     Node 2, Type 0, BuildingBlock: AZAVOO_clean_sbu_0, # of connection points: 4
#     Node 3, Type 0, BuildingBlock: AZAVOO_clean_sbu_0, # of connection points: 4
#     Node 4, Type 0, BuildingBlock: AZAVOO_clean_sbu_0, # of connection points: 4
#     Node 5, Type 0, BuildingBlock: AZAVOO_clean_sbu_0, # of connection points: 4
#     Node 6, Type 0, BuildingBlock: AZAVOO_clean_sbu_0, # of connection points: 4
#     Node 7, Type 0, BuildingBlock: AZAVOO_clean_sbu_0, # of connection points: 4
#     Node 8, Type 0, BuildingBlock: AZAVOO_clean_sbu_0, # of connection points: 4
#     Node 9, Type 0, BuildingBlock: AZAVOO_clean_sbu_0, # of connection points: 4
#     Node 10, Type 0, BuildingBlock: AZAVOO_clean_sbu_0, # of connection points: 4
#     Node 11, Type 0, BuildingBlock: AZAVOO_clean_sbu_0, # of connection points: 4
#     Node 12, Type 0, BuildingBlock: AZAVOO_clean_sbu_0, # of connection points: 4
#     Node 13, Type 0, BuildingBlock: AZAVOO_clean_sbu_0, # of connection points: 4
#     Node 14, Type 0, BuildingBlock: AZAVOO_clean_sbu_0, # of connection points: 4
#     Node 15, Type 0, BuildingBlock: AZAVOO_clean_sbu_0, # of connection points: 4
#     Node 16, Type 0, BuildingBlock: AZAVOO_clean_sbu_0, # of connection points: 4
#     Node 17, Type 0, BuildingBlock: AZAVOO_clean_sbu_0, # of connection points: 4
#     Node 18, Type 0, BuildingBlock: AZAVOO_clean_sbu_0, # of connection points: 4
#     Node 19, Type 0, BuildingBlock: AZAVOO_clean_sbu_0, # of connection points: 4
#     Node 20, Type 0, BuildingBlock: AZAVOO_clean_sbu_0, # of connection points: 4
#     Node 21, Type 0, BuildingBlock: AZAVOO_clean_sbu_0, # of connection points: 4
#     Node 22, Type 0, BuildingBlock: AZAVOO_clean_sbu_0, # of connection points: 4
#     Node 23, Type 0, BuildingBlock: AZAVOO_clean_sbu_0, # of connection points: 4
#     Node 24, Type 0, BuildingBlock: AZAVOO_clean_sbu_0, # of connection points: 4
#     Node 25, Type 0, BuildingBlock: AZAVOO_clean_sbu_0, # of connection points: 4
#     Node 26, Type 0, BuildingBlock: AZAVOO_clean_sbu_0, # of connection points: 4
#     Node 27, Type 0, BuildingBlock: AZAVOO_clean_sbu_0, # of connection points: 4
#     Node 28, Type 0, BuildingBlock: AZAVOO_clean_sbu_0, # of connection points: 4
#     Node 29, Type 0, BuildingBlock: AZAVOO_clean_sbu_0, # of connection points: 4
#     Node 30, Type 0, BuildingBlock: AZAVOO_clean_sbu_0, # of connection points: 4
#     Node 31, Type 0, BuildingBlock: AZAVOO_clean_sbu_0, # of connection points: 4
#     Edge 32, Type (0, 0), BuildingBlock: XUDNAN_clean_linker_2, # of connection points: 2
#     Edge 33, Type (0, 0), BuildingBlock: XUDNAN_clean_linker_2, # of connection points: 2
#     Edge 34, Type (0, 0), BuildingBlock: XUDNAN_clean_linker_2, # of connection points: 2
#     Edge 35, Type (0, 0), BuildingBlock: XUDNAN_clean_linker_2, # of connection points: 2
#     Edge 36, Type (0, 0), BuildingBlock: XUDNAN_clean_linker_2, # of connection points: 2
#     Edge 37, Type (0, 0), BuildingBlock: XUDNAN_clean_linker_2, # of connection points: 2
#     Edge 38, Type (0, 0), BuildingBlock: XUDNAN_clean_linker_2, # of connection points: 2
#     Edge 39, Type (0, 0), BuildingBlock: XUDNAN_clean_linker_2, # of connection points: 2
#     Edge 40, Type (0, 0), BuildingBlock: XUDNAN_clean_linker_2, # of connection points: 2
#     Edge 41, Type (0, 0), BuildingBlock: XUDNAN_clean_linker_2, # of connection points: 2
#     Edge 42, Type (0, 0), BuildingBlock: XUDNAN_clean_linker_2, # of connection points: 2
#     Edge 43, Type (0, 0), BuildingBlock: XUDNAN_clean_linker_2, # of connection points: 2
#     Edge 44, Type (0, 0), BuildingBlock: XUDNAN_clean_linker_2, # of connection points: 2
#     Edge 45, Type (0, 0), BuildingBlock: XUDNAN_clean_linker_2, # of connection points: 2
#     Edge 46, Type (0, 0), BuildingBlock: XUDNAN_clean_linker_2, # of connection points: 2
#     Edge 47, Type (0, 0), BuildingBlock: XUDNAN_clean_linker_2, # of connection points: 2
#     Edge 48, Type (0, 0), BuildingBlock: XUDNAN_clean_linker_2, # of connection points: 2
#     Edge 49, Type (0, 0), BuildingBlock: XUDNAN_clean_linker_2, # of connection points: 2
#     Edge 50, Type (0, 0), BuildingBlock: XUDNAN_clean_linker_2, # of connection points: 2
#     Edge 51, Type (0, 0), BuildingBlock: XUDNAN_clean_linker_2, # of connection points: 2
#     Edge 52, Type (0, 0), BuildingBlock: XUDNAN_clean_linker_2, # of connection points: 2
#     Edge 53, Type (0, 0), BuildingBlock: XUDNAN_clean_linker_2, # of connection points: 2
#     Edge 54, Type (0, 0), BuildingBlock: XUDNAN_clean_linker_2, # of connection points: 2
#     Edge 55, Type (0, 0), BuildingBlock: XUDNAN_clean_linker_2, # of connection points: 2
#     Edge 56, Type (0, 0), BuildingBlock: XUDNAN_clean_linker_2, # of connection points: 2
#     Edge 57, Type (0, 0), BuildingBlock: XUDNAN_clean_linker_2, # of connection points: 2
#     Edge 58, Type (0, 0), BuildingBlock: XUDNAN_clean_linker_2, # of connection points: 2
#     Edge 59, Type (0, 0), BuildingBlock: XUDNAN_clean_linker_2, # of connection points: 2
#     Edge 60, Type (0, 0), BuildingBlock: XUDNAN_clean_linker_2, # of connection points: 2
#     Edge 61, Type (0, 0), BuildingBlock: XUDNAN_clean_linker_2, # of connection points: 2
#     Edge 62, Type (0, 0), BuildingBlock: XUDNAN_clean_linker_2, # of connection points: 2
#     Edge 63, Type (0, 0), BuildingBlock: XUDNAN_clean_linker_2, # of connection points: 2
#     Edge 64, Type (0, 0), BuildingBlock: XUDNAN_clean_linker_2, # of connection points: 2
#     Edge 65, Type (0, 0), BuildingBlock: XUDNAN_clean_linker_2, # of connection points: 2
#     Edge 66, Type (0, 0), BuildingBlock: XUDNAN_clean_linker_2, # of connection points: 2
#     Edge 67, Type (0, 0), BuildingBlock: XUDNAN_clean_linker_2, # of connection points: 2
#     Edge 68, Type (0, 0), BuildingBlock: XUDNAN_clean_linker_2, # of connection points: 2
#     Edge 69, Type (0, 0), BuildingBlock: XUDNAN_clean_linker_2, # of connection points: 2
#     Edge 70, Type (0, 0), BuildingBlock: XUDNAN_clean_linker_2, # of connection points: 2
#     Edge 71, Type (0, 0), BuildingBlock: XUDNAN_clean_linker_2, # of connection points: 2
#     Edge 72, Type (0, 0), BuildingBlock: XUDNAN_clean_linker_2, # of connection points: 2
#     Edge 73, Type (0, 0), BuildingBlock: XUDNAN_clean_linker_2, # of connection points: 2
#     Edge 74, Type (0, 0), BuildingBlock: XUDNAN_clean_linker_2, # of connection points: 2
#     Edge 75, Type (0, 0), BuildingBlock: XUDNAN_clean_linker_2, # of connection points: 2
#     Edge 76, Type (0, 0), BuildingBlock: XUDNAN_clean_linker_2, # of connection points: 2
#     Edge 77, Type (0, 0), BuildingBlock: XUDNAN_clean_linker_2, # of connection points: 2
#     Edge 78, Type (0, 0), BuildingBlock: XUDNAN_clean_linker_2, # of connection points: 2
#     Edge 79, Type (0, 0), BuildingBlock: XUDNAN_clean_linker_2, # of connection points: 2
#     Edge 80, Type (0, 0), BuildingBlock: XUDNAN_clean_linker_2, # of connection points: 2
#     Edge 81, Type (0, 0), BuildingBlock: XUDNAN_clean_linker_2, # of connection points: 2
#     Edge 82, Type (0, 0), BuildingBlock: XUDNAN_clean_linker_2, # of connection points: 2
#     Edge 83, Type (0, 0), BuildingBlock: XUDNAN_clean_linker_2, # of connection points: 2
#     Edge 84, Type (0, 0), BuildingBlock: XUDNAN_clean_linker_2, # of connection points: 2
#     Edge 85, Type (0, 0), BuildingBlock: XUDNAN_clean_linker_2, # of connection points: 2
#     Edge 86, Type (0, 0), BuildingBlock: XUDNAN_clean_linker_2, # of connection points: 2
#     Edge 87, Type (0, 0), BuildingBlock: XUDNAN_clean_linker_2, # of connection points: 2
#     Edge 88, Type (0, 0), BuildingBlock: XUDNAN_clean_linker_2, # of connection points: 2
#     Edge 89, Type (0, 0), BuildingBlock: XUDNAN_clean_linker_2, # of connection points: 2
#     Edge 90, Type (0, 0), BuildingBlock: XUDNAN_clean_linker_2, # of connection points: 2
#     Edge 91, Type (0, 0), BuildingBlock: XUDNAN_clean_linker_2, # of connection points: 2
#     Edge 92, Type (0, 0), BuildingBlock: XUDNAN_clean_linker_2, # of connection points: 2
#     Edge 93, Type (0, 0), BuildingBlock: XUDNAN_clean_linker_2, # of connection points: 2
#     Edge 94, Type (0, 0), BuildingBlock: XUDNAN_clean_linker_2, # of connection points: 2
#     Edge 95, Type (0, 0), BuildingBlock: XUDNAN_clean_linker_2, # of connection points: 2
# Relax obj value: 0.768
# Max RMSD: 0.290
# Mean RMSD: 0.276
data_MOF--net-dia-a--node1-AZAVOO_clean_sbu_0--edge1-XUDNAN_clean_linker_2
_symmetry_space_group_name_H-M    P1
_symmetry_Int_Tables_number       1
_symmetry_cell_setting            triclinic
loop_
_symmetry_equiv_pos_as_xyz
'x, y, z'
_cell_length_a     44.97636
_cell_length_b     63.41064
_cell_length_c     76.609648
_cell_angle_alpha  86.053586
_cell_angle_beta   100.69929
_cell_angle_gamma 115.5118
loop_
_atom_site_label
_atom_site_type_symbol
_atom_site_fract_x
_atom_site_fract_y
_atom_site_fract_z
_atom_type_partial_charge
Mg0 Mg 0.97552 0.00382 0.60557 0.0
O1 O 0.0164 0.04178 0.60767 0.0
O2 O 0.02337 0.05569 0.6349 0.0
Mg3 Mg 0.98564 0.02688 0.64986 0.0
C4 C 0.03131 0.05805 0.61946 0.0
C5 C 0.98964 0.00943 0.56651 0.0
O6 O 0.97822 0.02535 0.56637 0.0
O7 O 0.0142 0.99348 0.62232 0.0
O8 O 0.01646 0.00628 0.64919 0.0
O9 O 0.93534 0.01585 0.59626 0.0
O10 O 0.95351 0.01155 0.62445 0.0
C11 C 0.02522 0.99574 0.63897 0.0
C12 C 0.93496 0.01838 0.61283 0.0
O13 O 0.99145 0.99784 0.58055 0.0
Mg14 Mg 0.0315 0.37288 0.80424 0.0
O15 O 0.99637 0.35489 0.8243 0.0
O16 O 0.98604 0.38203 0.83582 0.0
Mg17 Mg 0.01205 0.41685 0.82175 0.0
C18 C 0.9824 0.36099 0.83478 0.0
C19 C 0.04644 0.33271 0.79273 0.0
O20 O 0.07715 0.34796 0.79864 0.0
O21 O 0.98648 0.37222 0.78441 0.0
O22 O 0.97805 0.40064 0.79543 0.0
O23 O 0.07634 0.38438 0.82672 0.0
O24 O 0.04844 0.40514 0.81618 0.0
C25 C 0.97102 0.38517 0.78361 0.0
C26 C 0.07178 0.40308 0.82754 0.0
O27 O 0.02225 0.33745 0.79405 0.0
Mg28 Mg 0.76792 0.26067 0.09775 0.0
O29 O 0.73394 0.22629 0.10982 0.0
O30 O 0.74607 0.23084 0.13943 0.0
Mg31 Mg 0.78503 0.26826 0.14606 0.0
C32 C 0.72925 0.21854 0.12543 0.0
C33 C 0.75573 0.26074 0.05776 0.0
O34 O 0.78491 0.27839 0.06272 0.0
O35 O 0.73061 0.27397 0.10291 0.0
O36 O 0.74206 0.2773 0.13254 0.0
O37 O 0.80754 0.24793 0.10082 0.0
O38 O 0.80236 0.26852 0.12127 0.0
C39 C 0.72465 0.27835 0.11759 0.0
C40 C 0.81574 0.25572 0.117 0.0
O41 O 0.73963 0.24872 0.0697 0.0
Mg42 Mg 0.70294 0.86326 0.26054 0.0
O43 O 0.7391 0.88134 0.28538 0.0
O44 O 0.75419 0.85741 0.30357 0.0
Mg45 Mg 0.72808 0.82211 0.28815 0.0
C46 C 0.75547 0.87767 0.29972 0.0
C47 C 0.7098 0.9137 0.26049 0.0
O48 O 0.70065 0.90622 0.27592 0.0
O49 O 0.74815 0.86531 0.24959 0.0
O50 O 0.76058 0.83916 0.26685 0.0
O51 O 0.65994 0.85116 0.27584 0.0
O52 O 0.68872 0.83121 0.27297 0.0
C53 C 0.76569 0.85383 0.2542 0.0
C54 C 0.66583 0.83297 0.27972 0.0
O55 O 0.7111 0.89949 0.25006 0.0
Mg56 Mg 0.96838 0.18544 0.66691 0.0
O57 O 0.99833 0.16605 0.68075 0.0
O58 O 0.00217 0.14219 0.66218 0.0
Mg59 Mg 0.97481 0.14799 0.63495 0.0
C60 C 0.0084 0.15095 0.67768 0.0
C61 C 0.97008 0.21305 0.70054 0.0
O62 O 0.93748 0.20413 0.69544 0.0
O63 O 0.01345 0.20983 0.65448 0.0
O64 O 0.01503 0.18576 0.63502 0.0
O65 O 0.9216 0.15439 0.67174 0.0
O66 O 0.94401 0.15968 0.64748 0.0
C67 C 0.02644 0.20592 0.64228 0.0
C68 C 0.92167 0.14659 0.65657 0.0
O69 O 0.98783 0.20868 0.69153 0.0
Mg70 Mg 0.77398 0.23161 0.90206 0.0
O71 O 0.80154 0.27015 0.89335 0.0
O72 O 0.80567 0.2666 0.86503 0.0
Mg73 Mg 0.7829 0.22906 0.85607 0.0
C74 C 0.81094 0.27906 0.87866 0.0
C75 C 0.7349 0.22804 0.93221 0.0
O76 O 0.71475 0.20897 0.9229 0.0
O77 O 0.72658 0.23178 0.88582 0.0
O78 O 0.73241 0.2292 0.8579 0.0
O79 O 0.82299 0.23187 0.91217 0.0
O80 O 0.79791 0.2231 0.88429 0.0
C81 C 0.71584 0.23072 0.86919 0.0
C82 C 0.8256 0.23159 0.89566 0.0
O83 O 0.76148 0.24202 0.92668 0.0
Mg84 Mg 0.7548 0.1233 0.2438 0.0
O85 O 0.71287 0.10605 0.22006 0.0
O86 O 0.68642 0.12906 0.21223 0.0
Mg87 Mg 0.71649 0.16327 0.22787 0.0
C88 C 0.68941 0.11018 0.2107 0.0
C89 C 0.7698 0.0812 0.255 0.0
O90 O 0.76424 0.0871 0.26977 0.0
O91 O 0.78872 0.14665 0.22476 0.0
O92 O 0.76244 0.16955 0.2158 0.0
O93 O 0.71574 0.1077 0.26088 0.0
O94 O 0.73023 0.14304 0.24961 0.0
C95 C 0.78577 0.16332 0.21543 0.0
C96 C 0.70923 0.12565 0.25716 0.0
O97 O 0.7706 0.09419 0.24156 0.0
Mg98 Mg 0.98712 0.98806 0.40555 0.0
O99 O 0.9526 0.95036 0.4116 0.0
O100 O 0.93479 0.93015 0.38593 0.0
Mg101 Mg 0.95795 0.95403 0.36391 0.0
C102 C 0.93561 0.9315 0.40256 0.0
C103 C 0.01202 0.98249 0.44626 0.0
O104 O 0.01528 0.96487 0.44017 0.0
O105 O 0.02913 0.97654 0.40462 0.0
O106 O 0.00739 0.95581 0.3792 0.0
O107 O 0.94099 0.99453 0.39831 0.0
O108 O 0.96272 0.98357 0.37906 0.0
C109 C 0.03012 0.96358 0.39288 0.0
C110 C 0.93849 0.9873 0.38249 0.0
O111 O 0.00242 0.99531 0.4354 0.0
Mg112 Mg 0.4688 0.03754 0.08627 0.0
O113 O 0.505 0.07399 0.09775 0.0
O114 O 0.48406 0.08274 0.11913 0.0
Mg115 Mg 0.43595 0.05064 0.1224 0.0
C116 C 0.50696 0.08779 0.10977 0.0
C117 C 0.49846 0.01882 0.06169 0.0
O118 O 0.47027 0.00077 0.06344 0.0
O119 O 0.49282 0.0241 0.11083 0.0
O120 O 0.47316 0.03499 0.13153 0.0
O121 O 0.43948 0.05362 0.06792 0.0
O122 O 0.42981 0.04093 0.09477 0.0
C123 C 0.49201 0.02666 0.12712 0.0
C124 C 0.42433 0.05242 0.08101 0.0
O125 O 0.50663 0.03751 0.07027 0.0
Mg126 Mg 0.04764 0.86295 0.29915 0.0
O127 O 0.01076 0.83426 0.31483 0.0
O128 O 0.99502 0.85324 0.33213 0.0
Mg129 Mg 0.02049 0.89271 0.3278 0.0
C130 C 0.99389 0.83432 0.32655 0.0
C131 C 0.05163 0.84598 0.26476 0.0
O132 O 0.06239 0.86878 0.2637 0.0
O133 O 0.00324 0.86694 0.28168 0.0
O134 O 0.99014 0.88685 0.29958 0.0
O135 O 0.09092 0.86775 0.32179 0.0
O136 O 0.05977 0.88719 0.31886 0.0
C137 C 0.98576 0.87733 0.28458 0.0
C138 C 0.08306 0.88269 0.32815 0.0
O139 O 0.04364 0.83628 0.27933 0.0
Mg140 Mg 0.28925 0.25207 0.60102 0.0
O141 O 0.24818 0.21601 0.60585 0.0
O142 O 0.24692 0.2123 0.63498 0.0
Mg143 Mg 0.28803 0.246 0.6488 0.0
C144 C 0.2356 0.20441 0.61903 0.0
C145 C 0.28743 0.25919 0.56039 0.0
O146 O 0.31877 0.27321 0.56645 0.0
O147 O 0.25321 0.267 0.60549 0.0
O148 O 0.25567 0.26398 0.63496 0.0
O149 O 0.32693 0.23694 0.60545 0.0
O150 O 0.31503 0.25261 0.6265 0.0
C151 C 0.24465 0.26999 0.61979 0.0
C152 C 0.33028 0.24115 0.62218 0.0
O153 O 0.26841 0.24778 0.57139 0.0
Mg154 Mg 0.68787 0.35876 0.77903 0.0
O155 O 0.7252 0.37795 0.80331 0.0
O156 O 0.74313 0.35509 0.82116 0.0
Mg157 Mg 0.71591 0.31898 0.80689 0.0
C158 C 0.74322 0.37503 0.81727 0.0
C159 C 0.72546 0.41046 0.76896 0.0
O160 O 0.74989 0.40405 0.77378 0.0
O161 O 0.73071 0.35905 0.76662 0.0
O162 O 0.74548 0.33424 0.78423 0.0
O163 O 0.64596 0.34656 0.79521 0.0
O164 O 0.67545 0.32723 0.79202 0.0
C165 C 0.74886 0.34794 0.77096 0.0
C166 C 0.65269 0.3287 0.79901 0.0
O167 O 0.6954 0.39522 0.76847 0.0
Mg168 Mg 0.46774 0.16891 0.18481 0.0
O169 O 0.50476 0.15582 0.20082 0.0
O170 O 0.50395 0.12986 0.18208 0.0
Mg171 Mg 0.47381 0.12949 0.15427 0.0
C172 C 0.51352 0.14017 0.1972 0.0
C173 C 0.48797 0.19453 0.22054 0.0
O174 O 0.47907 0.17257 0.2251 0.0
O175 O 0.50722 0.19095 0.168 0.0
O176 O 0.511 0.16709 0.14926 0.0
O177 O 0.42796 0.17195 0.16317 0.0
O178 O 0.44423 0.14343 0.16529 0.0
C179 C 0.51988 0.18753 0.15548 0.0
C180 C 0.42633 0.15313 0.15659 0.0
O181 O 0.48588 0.19955 0.20413 0.0
Mg182 Mg 0.75708 0.71675 0.38678 0.0
O183 O 0.78697 0.75515 0.39477 0.0
O184 O 0.80829 0.77524 0.37145 0.0
Mg185 Mg 0.78898 0.7497 0.3478 0.0
C186 C 0.80445 0.77411 0.38764 0.0
C187 C 0.71686 0.69293 0.41853 0.0
O188 O 0.70176 0.67449 0.40797 0.0
O189 O 0.71414 0.72595 0.37312 0.0
O190 O 0.73618 0.7447 0.34951 0.0
O191 O 0.80543 0.71268 0.39235 0.0
O192 O 0.78373 0.72079 0.36599 0.0
C193 C 0.71244 0.73671 0.3585 0.0
C194 C 0.80825 0.71835 0.37599 0.0
O195 O 0.73913 0.71151 0.41335 0.0
Mg196 Mg 0.24458 0.12114 0.74648 0.0
O197 O 0.21586 0.09535 0.72355 0.0
O198 O 0.19434 0.11185 0.70114 0.0
Mg199 Mg 0.20807 0.14903 0.7105 0.0
C200 C 0.19947 0.09451 0.70797 0.0
C201 C 0.24335 0.07494 0.76044 0.0
O202 O 0.21182 0.07139 0.75701 0.0
O203 O 0.28719 0.13974 0.73039 0.0
O204 O 0.26256 0.15735 0.71034 0.0
O205 O 0.19682 0.11002 0.75737 0.0
O206 O 0.21426 0.13868 0.73835 0.0
C207 C 0.28772 0.15338 0.71724 0.0
C208 C 0.19125 0.12535 0.74699 0.0
O209 O 0.26568 0.09527 0.75819 0.0
Mg210 Mg 0.98072 0.49173 0.91496 0.0
O211 O 0.96059 0.45487 0.90278 0.0
O212 O 0.95101 0.45965 0.87327 0.0
Mg213 Mg 0.96768 0.49802 0.86676 0.0
C214 C 0.95073 0.44671 0.88686 0.0
C215 C 0.02213 0.49394 0.952 0.0
O216 O 0.0416 0.51315 0.94476 0.0
O217 O 0.03095 0.49811 0.90784 0.0
O218 O 0.01982 0.50041 0.87838 0.0
O219 O 0.92808 0.48494 0.91461 0.0
O220 O 0.95508 0.50097 0.89233 0.0
C221 C 0.03946 0.5 0.89263 0.0
C222 C 0.92702 0.49045 0.89801 0.0
O223 O 0.99533 0.47986 0.94253 0.0
Mg224 Mg 0.9879 0.49391 0.11313 0.0
O225 O 0.02466 0.53237 0.12054 0.0
O226 O 0.02741 0.53543 0.14981 0.0
Mg227 Mg 0.99176 0.50172 0.16139 0.0
C228 C 0.0363 0.54425 0.13508 0.0
C229 C 0.99148 0.48193 0.07496 0.0
O230 O 0.96407 0.46364 0.07746 0.0
O231 O 0.03087 0.48447 0.12596 0.0
O232 O 0.01215 0.47917 0.15058 0.0
O233 O 0.94555 0.50437 0.10736 0.0
O234 O 0.96221 0.49435 0.13414 0.0
C235 C 0.03726 0.48662 0.14275 0.0
C236 C 0.94422 0.50317 0.12414 0.0
O237 O 0.0065 0.49757 0.08703 0.0
Mg238 Mg 0.49912 0.49829 0.4158 0.0
O239 O 0.46989 0.46241 0.40136 0.0
O240 O 0.46576 0.47034 0.37223 0.0
Mg241 Mg 0.49452 0.50911 0.36816 0.0
C242 C 0.45956 0.45591 0.38501 0.0
C243 C 0.50936 0.49608 0.45521 0.0
O244 O 0.51139 0.51701 0.45082 0.0
O245 O 0.54678 0.49759 0.4101 0.0
O246 O 0.54091 0.50351 0.38089 0.0
O247 O 0.45045 0.49959 0.41439 0.0
O248 O 0.48143 0.51315 0.39336 0.0
C249 C 0.55688 0.49946 0.39532 0.0
C250 C 0.45244 0.50569 0.39804 0.0
O251 O 0.50497 0.48206 0.44288 0.0
Mg252 Mg 0.27603 0.7253 0.09365 0.0
O253 O 0.23853 0.69519 0.10838 0.0
O254 O 0.24926 0.70801 0.13641 0.0
Mg255 Mg 0.29112 0.74498 0.13954 0.0
C256 C 0.23251 0.69236 0.1243 0.0
C257 C 0.25924 0.72341 0.05388 0.0
O258 O 0.28191 0.74473 0.05823 0.0
O259 O 0.2419 0.7435 0.09331 0.0
O260 O 0.25311 0.75553 0.12151 0.0
O261 O 0.31402 0.71091 0.10185 0.0
O262 O 0.30898 0.73684 0.11742 0.0
C263 C 0.23715 0.75366 0.10564 0.0
C264 C 0.32213 0.72256 0.11654 0.0
O265 O 0.24893 0.70916 0.06628 0.0
Mg266 Mg 0.96529 0.68011 0.15621 0.0
O267 O 0.00195 0.66956 0.1751 0.0
O268 O 0.00965 0.64187 0.16267 0.0
Mg269 Mg 0.97987 0.63675 0.13417 0.0
C270 C 0.0152 0.65528 0.17576 0.0
C271 C 0.98671 0.73098 0.16893 0.0
O272 O 0.98514 0.73398 0.1517 0.0
O273 O 0.00774 0.70221 0.14099 0.0
O274 O 0.0141 0.67439 0.12781 0.0
O275 O 0.92309 0.64912 0.16576 0.0
O276 O 0.94551 0.64867 0.14253 0.0
C277 C 0.02205 0.6959 0.1308 0.0
C278 C 0.92525 0.63743 0.15321 0.0
O279 O 0.97906 0.71052 0.17507 0.0
Mg280 Mg 0.27672 0.71838 0.89321 0.0
O281 O 0.30433 0.75858 0.89319 0.0
O282 O 0.3141 0.76876 0.86548 0.0
Mg283 Mg 0.29055 0.73633 0.84784 0.0
C284 C 0.31667 0.77401 0.88167 0.0
C285 C 0.24251 0.70085 0.92659 0.0
O286 O 0.22684 0.68198 0.91648 0.0
O287 O 0.22916 0.72184 0.88018 0.0
O288 O 0.23989 0.73262 0.85284 0.0
O289 O 0.32654 0.7181 0.89936 0.0
O290 O 0.30024 0.71797 0.87196 0.0
C291 C 0.22089 0.72761 0.86441 0.0
C292 C 0.32801 0.72197 0.88266 0.0
O293 O 0.26417 0.7191 0.92064 0.0
Mg294 Mg 0.20544 0.86765 0.78555 0.0
O295 O 0.24639 0.87885 0.80997 0.0
O296 O 0.25701 0.84886 0.82126 0.0
Mg297 Mg 0.22321 0.81781 0.80203 0.0
C298 C 0.26231 0.87032 0.82149 0.0
C299 C 0.24754 0.92185 0.78197 0.0
O300 O 0.27237 0.91568 0.78581 0.0
O301 O 0.24438 0.8691 0.76958 0.0
O302 O 0.25206 0.83751 0.77987 0.0
O303 O 0.16624 0.8546 0.80334 0.0
O304 O 0.18756 0.83311 0.79349 0.0
C305 C 0.25787 0.85502 0.76954 0.0
C306 C 0.16827 0.83487 0.80311 0.0
O307 O 0.21757 0.90622 0.78063 0.0
Mg308 Mg 0.50578 0.99576 0.90945 0.0
O309 O 0.47572 0.95573 0.90582 0.0
O310 O 0.45975 0.94929 0.8764 0.0
Mg311 Mg 0.48053 0.9834 0.86173 0.0
C312 C 0.46016 0.94197 0.89237 0.0
C313 C 0.5491 0.00926 0.94695 0.0
O314 O 0.56639 0.02722 0.93777 0.0
O315 O 0.55012 0.99206 0.90191 0.0
O316 O 0.5326 0.98542 0.87276 0.0
O317 O 0.45803 0.99727 0.91025 0.0
O318 O 0.47698 0.99917 0.88531 0.0
C319 C 0.55449 0.98817 0.8867 0.0
C320 C 0.45178 0.99447 0.89318 0.0
O321 O 0.52387 0.9923 0.93877 0.0
Mg322 Mg 0.2473 0.63529 0.25148 0.0
O323 O 0.21453 0.61967 0.22525 0.0
O324 O 0.20037 0.64563 0.20889 0.0
Mg325 Mg 0.22592 0.67943 0.2258 0.0
C326 C 0.19954 0.62526 0.21123 0.0
C327 C 0.24248 0.58675 0.26488 0.0
O328 O 0.22381 0.5901 0.27469 0.0
O329 O 0.29135 0.6542 0.23659 0.0
O330 O 0.27595 0.6808 0.22226 0.0
O331 O 0.19985 0.62469 0.26201 0.0
O332 O 0.2262 0.65919 0.25028 0.0
C333 C 0.29656 0.67159 0.22619 0.0
C334 C 0.19988 0.64423 0.25592 0.0
O335 O 0.25751 0.6029 0.25461 0.0
Mg336 Mg 0.53974 0.86912 0.79488 0.0
O337 O 0.50761 0.84647 0.81534 0.0
O338 O 0.50126 0.87108 0.83243 0.0
Mg339 Mg 0.52492 0.90824 0.82163 0.0
C340 C 0.49652 0.85053 0.82833 0.0
C341 C 0.54171 0.84542 0.76396 0.0
O342 O 0.55647 0.86819 0.76208 0.0
O343 O 0.49309 0.87149 0.77888 0.0
O344 O 0.48696 0.89626 0.79579 0.0
O345 O 0.58747 0.87724 0.81512 0.0
O346 O 0.5585 0.89828 0.81082 0.0
C347 C 0.47782 0.88348 0.78186 0.0
C348 C 0.58333 0.89502 0.81951 0.0
O349 O 0.53037 0.83762 0.77824 0.0
Mg350 Mg 0.45879 0.48696 0.61102 0.0
O351 O 0.48637 0.52712 0.61461 0.0
O352 O 0.48441 0.5359 0.64207 0.0
Mg353 Mg 0.45988 0.50168 0.65663 0.0
C354 C 0.4931 0.54203 0.62687 0.0
C355 C 0.47961 0.47174 0.57944 0.0
O356 O 0.47267 0.45307 0.58939 0.0
O357 O 0.5068 0.48635 0.62622 0.0
O358 O 0.50549 0.49588 0.65355 0.0
O359 O 0.41056 0.48996 0.6035 0.0
O360 O 0.43197 0.48518 0.63102 0.0
C361 C 0.51965 0.49076 0.6426 0.0
C362 C 0.41042 0.49034 0.62036 0.0
O363 O 0.47692 0.48926 0.58482 0.0
Mg364 Mg 0.74022 0.71547 0.58453 0.0
O365 O 0.69721 0.68819 0.59775 0.0
O366 O 0.70729 0.70047 0.62591 0.0
Mg367 Mg 0.75556 0.73407 0.63076 0.0
C368 C 0.68914 0.68608 0.61317 0.0
C369 C 0.7239 0.71572 0.54447 0.0
O370 O 0.74734 0.73675 0.549 0.0
O371 O 0.71337 0.73892 0.58391 0.0
O372 O 0.72487 0.75015 0.61233 0.0
O373 O 0.77101 0.69555 0.59282 0.0
O374 O 0.77148 0.72316 0.60905 0.0
C375 C 0.71063 0.75015 0.59628 0.0
C376 C 0.78038 0.70659 0.60788 0.0
O377 O 0.71293 0.70141 0.55671 0.0
Mg378 Mg 0.75403 0.62053 0.74777 0.0
O379 O 0.7264 0.60081 0.72173 0.0
O380 O 0.71417 0.62274 0.69987 0.0
Mg381 Mg 0.7341 0.66064 0.71067 0.0
C382 C 0.71361 0.60317 0.70581 0.0
C383 C 0.73782 0.56913 0.75714 0.0
O384 O 0.70773 0.56801 0.75154 0.0
O385 O 0.80212 0.63488 0.73543 0.0
O386 O 0.7732 0.6548 0.7299 0.0
O387 O 0.70458 0.61463 0.75424 0.0
O388 O 0.73231 0.64484 0.73827 0.0
C389 C 0.79601 0.65026 0.72608 0.0
C390 C 0.70556 0.63245 0.74467 0.0
O391 O 0.7629 0.58894 0.75821 0.0
Mg392 Mg 0.45939 0.67348 0.66043 0.0
O393 O 0.49887 0.6621 0.6757 0.0
O394 O 0.50413 0.63671 0.65908 0.0
Mg395 Mg 0.46833 0.63244 0.63253 0.0
C396 C 0.51223 0.64857 0.67341 0.0
C397 C 0.48045 0.72306 0.67436 0.0
O398 O 0.47436 0.72524 0.65705 0.0
O399 O 0.4978 0.69697 0.64334 0.0
O400 O 0.49989 0.67061 0.62624 0.0
O401 O 0.41879 0.64157 0.67038 0.0
O402 O 0.43723 0.64312 0.64537 0.0
C403 C 0.50874 0.69177 0.63078 0.0
C404 C 0.41838 0.63097 0.65641 0.0
O405 O 0.47598 0.70307 0.68071 0.0
Mg406 Mg 0.28642 0.24077 0.39966 0.0
O407 O 0.31109 0.2784 0.3894 0.0
O408 O 0.31198 0.27472 0.36058 0.0
Mg409 Mg 0.28621 0.23649 0.3523 0.0
C410 C 0.31854 0.28724 0.37438 0.0
C411 C 0.25385 0.24086 0.4316 0.0
O412 O 0.2301 0.22327 0.42194 0.0
O413 O 0.23692 0.24071 0.38611 0.0
O414 O 0.23869 0.23846 0.35741 0.0
O415 O 0.33689 0.24164 0.40579 0.0
O416 O 0.30333 0.22993 0.37988 0.0
C417 C 0.22426 0.24016 0.36974 0.0
C418 C 0.33322 0.23751 0.38903 0.0
O419 O 0.28078 0.25293 0.42568 0.0
Mg420 Mg 0.21121 0.37556 0.27944 0.0
O421 O 0.24964 0.39712 0.30263 0.0
O422 O 0.26897 0.37525 0.32102 0.0
Mg423 Mg 0.24281 0.33828 0.30831 0.0
C424 C 0.26837 0.39487 0.31657 0.0
C425 C 0.20796 0.42303 0.27614 0.0
O426 O 0.19718 0.4151 0.29114 0.0
O427 O 0.25473 0.37722 0.267 0.0
O428 O 0.26997 0.35246 0.28458 0.0
O429 O 0.16966 0.36335 0.29587 0.0
O430 O 0.20116 0.34516 0.29387 0.0
C431 C 0.27258 0.36588 0.27116 0.0
C432 C 0.17801 0.3464 0.30065 0.0
O433 O 0.21467 0.41009 0.26708 0.0
Mg434 Mg 0.55583 0.38023 0.30147 0.0
O435 O 0.52142 0.3558 0.31977 0.0
O436 O 0.50682 0.37579 0.33669 0.0
Mg437 Mg 0.53033 0.41407 0.32754 0.0
C438 C 0.50585 0.3566 0.33182 0.0
C439 C 0.55562 0.33204 0.29632 0.0
O440 O 0.56537 0.335 0.31359 0.0
O441 O 0.50917 0.38069 0.28344 0.0
O442 O 0.49729 0.40258 0.30028 0.0
O443 O 0.60073 0.3896 0.32389 0.0
O444 O 0.56922 0.40875 0.31767 0.0
C445 C 0.49148 0.39112 0.286 0.0
C446 C 0.59378 0.4064 0.3276 0.0
O447 O 0.55034 0.34801 0.28723 0.0
H448 H 0.99473 0.01126 0.46305 0.0
H449 H 0.03759 0.96104 0.4732 0.0
H450 H 0.03988 0.96441 0.50541 0.0
H451 H 0.04128 0.04806 0.50269 0.0
H452 H 0.00592 0.05282 0.5059 0.0
H453 H 0.01058 0.04804 0.48385 0.0
H454 H 0.95148 0.0136 0.47919 0.0
H455 H 0.9467 0.01817 0.50123 0.0
H456 H 0.94189 0.98993 0.49476 0.0
H457 H 0.03368 0.9711 0.53624 0.0
H458 H 0.01988 0.98081 0.56344 0.0
H459 H 0.98074 0.02647 0.53301 0.0
C460 C 0.00519 0.00129 0.47205 0.0
C461 C 0.01615 0.98597 0.46561 0.0
C462 C 0.02913 0.97293 0.47783 0.0
C463 C 0.03057 0.97475 0.49615 0.0
C464 C 0.01897 0.98969 0.50201 0.0
C465 C 0.00663 0.00279 0.49033 0.0
C466 C 0.9939 0.01647 0.49992 0.0
C467 C 0.01414 0.04292 0.49798 0.0
C468 C 0.95627 0.00909 0.49339 0.0
C469 C 0.00062 0.00881 0.51881 0.0
C470 C 0.01524 0.99345 0.51975 0.0
C471 C 0.02251 0.98327 0.53569 0.0
C472 C 0.01449 0.98885 0.55106 0.0
C473 C 0.99929 0.00445 0.55037 0.0
C474 C 0.99259 0.01466 0.53402 0.0
H475 H 0.98662 0.30145 0.77448 0.0
H476 H 0.09239 0.3175 0.78702 0.0
H477 H 0.08312 0.28597 0.76659 0.0
H478 H 0.95548 0.23724 0.7689 0.0
H479 H 0.92288 0.23594 0.75072 0.0
H480 H 0.93706 0.25761 0.7681 0.0
H481 H 0.94955 0.29023 0.74455 0.0
H482 H 0.93575 0.26876 0.72714 0.0
H483 H 0.97705 0.29245 0.72943 0.0
H484 H 0.06374 0.25603 0.74245 0.0
H485 H 0.03536 0.22886 0.71689 0.0
H486 H 0.94207 0.23226 0.71998 0.0
C487 C 0.00773 0.29799 0.77328 0.0
C488 C 0.04025 0.31191 0.7824 0.0
C489 C 0.06725 0.30702 0.78023 0.0
C490 C 0.06223 0.28912 0.76867 0.0
C491 C 0.03003 0.2762 0.75948 0.0
C492 C 0.00317 0.28025 0.76178 0.0
C493 C 0.97159 0.26505 0.74937 0.0
C494 C 0.9452 0.24794 0.75991 0.0
C495 C 0.95769 0.28002 0.73689 0.0
C496 C 0.98512 0.25236 0.73933 0.0
C497 C 0.0188 0.25888 0.7455 0.0
C498 C 0.03727 0.25054 0.73767 0.0
C499 C 0.02093 0.23519 0.72309 0.0
C500 C 0.98645 0.22839 0.71645 0.0
C501 C 0.96833 0.23693 0.72485 0.0
H502 H 0.77566 0.26263 0.95673 0.0
H503 H 0.68049 0.20134 0.94775 0.0
H504 H 0.67295 0.20492 0.97835 0.0
H505 H 0.80241 0.24918 0.99975 0.0
H506 H 0.82251 0.27883 0.0081 0.0
H507 H 0.81852 0.27316 0.9849 0.0
H508 H 0.78814 0.30005 0.97654 0.0
H509 H 0.79219 0.30593 0.99976 0.0
H510 H 0.75153 0.29466 0.98583 0.0
H511 H 0.67853 0.21292 0.01093 0.0
H512 H 0.69648 0.2252 0.04256 0.0
H513 H 0.78773 0.28122 0.02991 0.0
C514 C 0.75288 0.25024 0.96105 0.0
C515 C 0.72863 0.23174 0.94981 0.0
C516 C 0.6994 0.21571 0.95609 0.0
C517 C 0.69485 0.21761 0.97345 0.0
C518 C 0.71965 0.23572 0.98433 0.0
C519 C 0.74797 0.25186 0.97832 0.0
C520 C 0.77188 0.26878 0.99296 0.0
C521 C 0.80582 0.26738 0.99664 0.0
C522 C 0.77617 0.29384 0.9885 0.0
C523 C 0.75302 0.25927 0.00827 0.0
C524 C 0.72281 0.24033 0.00303 0.0
C525 C 0.70193 0.22793 0.01513 0.0
C526 C 0.71236 0.235 0.03307 0.0
C527 C 0.74344 0.25422 0.03872 0.0
C528 C 0.76369 0.26659 0.02603 0.0
H529 H 0.76006 0.04724 0.28012 0.0
H530 H 0.77552 0.06185 0.2255 0.0
H531 H 0.76472 0.02073 0.22127 0.0
H532 H 0.79616 0.00403 0.28858 0.0
H533 H 0.76544 0.98634 0.30194 0.0
H534 H 0.77879 0.01752 0.30121 0.0
H535 H 0.71704 0.011 0.29152 0.0
H536 H 0.70353 0.97986 0.29194 0.0
H537 H 0.69247 0.99355 0.27196 0.0
H538 H 0.74691 0.97705 0.22228 0.0
H539 H 0.7258 0.93483 0.22887 0.0
H540 H 0.72092 0.94932 0.28257 0.0
C541 C 0.76202 0.042 0.26739 0.0
C542 C 0.76873 0.0578 0.25316 0.0
C543 C 0.77059 0.05009 0.23663 0.0
C544 C 0.76445 0.02676 0.23409 0.0
C545 C 0.75669 0.01144 0.24823 0.0
C546 C 0.75585 0.01883 0.26462 0.0
C547 C 0.74482 0.99869 0.27733 0.0
C548 C 0.77298 0.00184 0.2932 0.0
C549 C 0.71255 0.9956 0.28354 0.0
C550 C 0.73862 0.97869 0.26539 0.0
C551 C 0.74595 0.98636 0.24872 0.0
C552 C 0.74137 0.97087 0.23534 0.0
C553 C 0.72923 0.94694 0.23918 0.0
C554 C 0.72154 0.93877 0.25619 0.0
C555 C 0.72635 0.95495 0.2694 0.0
H556 H 0.48056 0.98466 0.03687 0.0
H557 H 0.55902 0.05238 0.05534 0.0
H558 H 0.58661 0.05386 0.02995 0.0
H559 H 0.53379 0.96344 0.01715 0.0
H560 H 0.50045 0.94959 0.9988 0.0
H561 H 0.49084 0.95164 0.02027 0.0
H562 H 0.45354 0.97222 0.00603 0.0
H563 H 0.46305 0.97029 0.98462 0.0
H564 H 0.47119 0.99832 0.99332 0.0
H565 H 0.60049 0.05086 0.00029 0.0
H566 H 0.5985 0.0443 0.96864 0.0
H567 H 0.5107 0.97862 0.96948 0.0
C568 C 0.50412 0.99947 0.03592 0.0
C569 C 0.51773 0.01835 0.04814 0.0
C570 C 0.54821 0.03766 0.04618 0.0
C571 C 0.56415 0.03859 0.03185 0.0
C572 C 0.54943 0.02001 0.01968 0.0
C573 C 0.52018 0.00072 0.02165 0.0
C574 C 0.50714 0.98447 0.00567 0.0
C575 C 0.50813 0.96089 0.01078 0.0
C576 C 0.47166 0.98116 0.9969 0.0
C577 C 0.53264 0.99819 0.99398 0.0
C578 C 0.55728 0.01837 0.00244 0.0
C579 C 0.58173 0.03489 0.99367 0.0
C580 C 0.58036 0.03102 0.97566 0.0
C581 C 0.55448 0.01092 0.96657 0.0
C582 C 0.53108 0.99399 0.97609 0.0
H583 H 0.02577 0.798 0.26113 0.0
H584 H 0.06543 0.8627 0.23209 0.0
H585 H 0.05367 0.84025 0.20473 0.0
H586 H 0.05779 0.76613 0.23763 0.0
H587 H 0.0213 0.73881 0.23774 0.0
H588 H 0.03395 0.75994 0.25534 0.0
H589 H 0.97511 0.7596 0.24888 0.0
H590 H 0.96236 0.73859 0.23119 0.0
H591 H 0.95887 0.7658 0.22678 0.0
H592 H 0.0353 0.81125 0.18024 0.0
H593 H 0.0139 0.77712 0.16025 0.0
H594 H 0.98691 0.73089 0.20491 0.0
C595 C 0.0323 0.80743 0.24906 0.0
C596 C 0.04653 0.83214 0.24879 0.0
C597 C 0.05453 0.84381 0.23268 0.0
C598 C 0.04793 0.83122 0.21703 0.0
C599 C 0.03346 0.80694 0.21768 0.0
C600 C 0.02597 0.79511 0.23326 0.0
C601 C 0.01011 0.76889 0.23016 0.0
C602 C 0.03211 0.75779 0.24085 0.0
C603 C 0.9745 0.75756 0.23451 0.0
C604 C 0.00961 0.76791 0.21038 0.0
C605 C 0.02316 0.79008 0.20348 0.0
C606 C 0.02481 0.79377 0.18549 0.0
C607 C 0.01247 0.77426 0.17423 0.0
C608 C 0.99877 0.75132 0.181 0.0
C609 C 0.99736 0.74819 0.19934 0.0
H610 H 0.30327 0.26824 0.45803 0.0
H611 H 0.19773 0.22091 0.44681 0.0
H612 H 0.19388 0.22296 0.4783 0.0
H613 H 0.32137 0.24399 0.49835 0.0
H614 H 0.3508 0.27119 0.50927 0.0
H615 H 0.34452 0.26854 0.4855 0.0
H616 H 0.33003 0.30415 0.48181 0.0
H617 H 0.33655 0.30706 0.50562 0.0
H618 H 0.29739 0.30414 0.49237 0.0
H619 H 0.20265 0.22695 0.51138 0.0
H620 H 0.22321 0.23336 0.54364 0.0
H621 H 0.3231 0.27794 0.53336 0.0
C622 C 0.27916 0.25876 0.4621 0.0
C623 C 0.25076 0.24449 0.44993 0.0
C624 C 0.21982 0.232 0.45587 0.0
C625 C 0.21735 0.23308 0.47373 0.0
C626 C 0.24602 0.24679 0.48548 0.0
C627 C 0.27629 0.25956 0.4799 0.0
C628 C 0.30382 0.27162 0.49542 0.0
C629 C 0.33176 0.26333 0.49724 0.0
C630 C 0.31776 0.29833 0.4937 0.0
C631 C 0.28447 0.26315 0.51064 0.0
C632 C 0.25111 0.24902 0.50461 0.0
C633 C 0.22863 0.23822 0.51625 0.0
C634 C 0.24058 0.24191 0.53456 0.0
C635 C 0.27474 0.2562 0.54104 0.0
C636 C 0.29679 0.26708 0.52885 0.0
H637 H 0.68948 0.52393 0.7546 0.0
H638 H 0.79703 0.56526 0.76654 0.0
H639 H 0.80524 0.52906 0.76986 0.0
H640 H 0.68635 0.47775 0.7856 0.0
H641 H 0.65383 0.45505 0.77109 0.0
H642 H 0.65647 0.48426 0.76977 0.0
H643 H 0.65905 0.48499 0.7362 0.0
H644 H 0.65671 0.45585 0.73745 0.0
H645 H 0.69095 0.47927 0.72911 0.0
H646 H 0.80197 0.48874 0.77127 0.0
H647 H 0.78756 0.44667 0.77265 0.0
H648 H 0.68191 0.43118 0.76013 0.0
C649 C 0.71477 0.5254 0.75804 0.0
C650 C 0.74264 0.54746 0.76033 0.0
C651 C 0.7753 0.54858 0.76476 0.0
C652 C 0.78023 0.52812 0.76661 0.0
C653 C 0.75224 0.5067 0.76403 0.0
C654 C 0.72014 0.50516 0.75998 0.0
C655 C 0.69439 0.47991 0.75802 0.0
C656 C 0.67141 0.47389 0.77195 0.0
C657 C 0.67408 0.47471 0.73907 0.0
C658 C 0.71706 0.4675 0.76167 0.0
C659 C 0.75033 0.48332 0.76498 0.0
C660 C 0.77602 0.47617 0.76873 0.0
C661 C 0.76752 0.45218 0.76942 0.0
C662 C 0.73357 0.43557 0.76648 0.0
C663 C 0.70806 0.44341 0.76238 0.0
H664 H 0.49784 0.24043 0.21641 0.0
H665 H 0.50627 0.19007 0.25608 0.0
H666 H 0.52655 0.22022 0.27952 0.0
H667 H 0.57111 0.29092 0.23651 0.0
H668 H 0.55173 0.31072 0.23094 0.0
H669 H 0.53915 0.28544 0.21708 0.0
H670 H 0.47757 0.27212 0.22086 0.0
H671 H 0.48996 0.29734 0.23472 0.0
H672 H 0.46745 0.26848 0.2429 0.0
H673 H 0.54501 0.2554 0.29873 0.0
H674 H 0.55863 0.29312 0.31264 0.0
H675 H 0.53717 0.32061 0.2607 0.0
C676 C 0.50418 0.2358 0.23001 0.0
C677 C 0.50054 0.2129 0.23441 0.0
C678 C 0.50878 0.20747 0.25239 0.0
C679 C 0.52044 0.2245 0.26581 0.0
C680 C 0.52359 0.24685 0.26105 0.0
C681 C 0.51561 0.25256 0.24362 0.0
C682 C 0.52017 0.27769 0.24222 0.0
C683 C 0.54715 0.29204 0.23103 0.0
C684 C 0.4868 0.27897 0.23474 0.0
C685 C 0.53177 0.28514 0.2616 0.0
C686 C 0.5338 0.26713 0.27221 0.0
C687 C 0.54361 0.26968 0.29057 0.0
C688 C 0.55132 0.2912 0.29834 0.0
C689 C 0.549 0.30984 0.28778 0.0
C690 C 0.53926 0.30672 0.26915 0.0
H691 H 0.74335 0.72852 0.44303 0.0
H692 H 0.67388 0.65536 0.43521 0.0
H693 H 0.66435 0.65379 0.46616 0.0
H694 H 0.78148 0.72353 0.48627 0.0
H695 H 0.78639 0.75127 0.49395 0.0
H696 H 0.78528 0.74697 0.47083 0.0
H697 H 0.73615 0.75891 0.46224 0.0
H698 H 0.7371 0.76326 0.48537 0.0
H699 H 0.69885 0.74372 0.47183 0.0
H700 H 0.66581 0.65979 0.49887 0.0
H701 H 0.67848 0.6727 0.53023 0.0
H702 H 0.7466 0.74189 0.51592 0.0
C703 C 0.72579 0.71219 0.4477 0.0
C704 C 0.70934 0.69205 0.43667 0.0
C705 C 0.68672 0.67104 0.44339 0.0
C706 C 0.6811 0.67 0.46095 0.0
C707 C 0.69811 0.69015 0.47153 0.0
C708 C 0.71988 0.71087 0.4651 0.0
C709 C 0.73638 0.72978 0.4793 0.0
C710 C 0.77464 0.73837 0.48279 0.0
C711 C 0.72652 0.75011 0.47439 0.0
C712 C 0.7211 0.71636 0.4949 0.0
C713 C 0.69886 0.69359 0.49018 0.0
C714 C 0.68291 0.67765 0.50266 0.0
C715 C 0.69026 0.68514 0.52043 0.0
C716 C 0.71346 0.70832 0.52554 0.0
C717 C 0.72856 0.72411 0.51247 0.0
H718 H 0.19984 0.02924 0.76246 0.0
H719 H 0.30588 0.07536 0.7692 0.0
H720 H 0.31892 0.04117 0.77594 0.0
H721 H 0.20483 0.98895 0.79725 0.0
H722 H 0.17262 0.96386 0.78481 0.0
H723 H 0.17216 0.9921 0.78126 0.0
H724 H 0.17136 0.98859 0.74763 0.0
H725 H 0.17196 0.9604 0.75108 0.0
H726 H 0.20363 0.98321 0.74065 0.0
H727 H 0.31981 0.00137 0.78128 0.0
H728 H 0.30867 0.95972 0.78482 0.0
H729 H 0.20187 0.94043 0.77407 0.0
C730 C 0.22587 0.03228 0.76552 0.0
C731 C 0.25187 0.055 0.76539 0.0
C732 C 0.28556 0.05811 0.76929 0.0
C733 C 0.29318 0.0388 0.77312 0.0
C734 C 0.26682 0.0166 0.77295 0.0
C735 C 0.23386 0.01331 0.76927 0.0
C736 C 0.21001 0.98774 0.76946 0.0
C737 C 0.18866 0.98289 0.78407 0.0
C738 C 0.18795 0.97951 0.75112 0.0
C739 C 0.23465 0.97702 0.7738 0.0
C740 C 0.26731 0.99389 0.77581 0.0
C741 C 0.29433 0.98804 0.77975 0.0
C742 C 0.28773 0.96433 0.78171 0.0
C743 C 0.25439 0.94679 0.7797 0.0
C744 C 0.22764 0.95336 0.77569 0.0
H745 H 0.97909 0.46227 0.9722 0.0
H746 H 0.07743 0.5203 0.97587 0.0
H747 H 0.0827 0.52066 0.00848 0.0
H748 H 0.95214 0.4829 0.00303 0.0
H749 H 0.92908 0.45515 0.01265 0.0
H750 H 0.93523 0.45635 0.99002 0.0
H751 H 0.96232 0.42732 0.99692 0.0
H752 H 0.95581 0.42572 0.01959 0.0
H753 H 0.99712 0.43364 0.01495 0.0
H754 H 0.07373 0.51886 0.03981 0.0
H755 H 0.05253 0.51343 0.06804 0.0
H756 H 0.96008 0.45643 0.0441 0.0
C757 C 0.00221 0.47454 0.97988 0.0
C758 C 0.0279 0.49122 0.97149 0.0
C759 C 0.05746 0.50731 0.98201 0.0
C760 C 0.06071 0.50764 0.00055 0.0
C761 C 0.03431 0.49163 0.00836 0.0
C762 C 0.0058 0.47514 0.9984 0.0
C763 C 0.97982 0.46134 0.00984 0.0
C764 C 0.94716 0.46412 0.00351 0.0
C765 C 0.9734 0.43547 0.01036 0.0
C766 C 0.99764 0.47327 0.02765 0.0
C767 C 0.02917 0.49052 0.02655 0.0
C768 C 0.04936 0.5051 0.04094 0.0
C769 C 0.037 0.50198 0.05688 0.0
C770 C 0.00471 0.48444 0.05829 0.0
C771 C 0.98503 0.46978 0.04351 0.0
H772 H 0.51271 0.52147 0.48342 0.0
H773 H 0.50527 0.454 0.46936 0.0
H774 H 0.50111 0.44128 0.50045 0.0
H775 H 0.56092 0.52605 0.52833 0.0
H776 H 0.53881 0.53958 0.53717 0.0
H777 H 0.54446 0.54395 0.51431 0.0
H778 H 0.48036 0.52874 0.50423 0.0
H779 H 0.4745 0.52426 0.52701 0.0
H780 H 0.453 0.50034 0.51125 0.0
H781 H 0.49385 0.43521 0.53269 0.0
H782 H 0.48334 0.43601 0.56311 0.0
H783 H 0.49489 0.50744 0.55551 0.0
C784 C 0.51075 0.50413 0.48689 0.0
C785 C 0.50945 0.48875 0.47397 0.0
C786 C 0.50646 0.46611 0.47905 0.0
C787 C 0.50413 0.45876 0.49668 0.0
C788 C 0.50495 0.47429 0.50901 0.0
C789 C 0.50829 0.49653 0.50432 0.0
C790 C 0.50649 0.50942 0.51971 0.0
C791 C 0.53965 0.53102 0.5252 0.0
C792 C 0.47682 0.51606 0.51528 0.0
C793 C 0.5009 0.49079 0.53375 0.0
C794 C 0.50043 0.47074 0.52741 0.0
C795 C 0.49445 0.4509 0.53783 0.0
C796 C 0.48847 0.45152 0.55509 0.0
C797 C 0.48829 0.47179 0.56171 0.0
C798 C 0.49499 0.49171 0.5509 0.0
H799 H 0.28153 0.74943 0.02519 0.0
H800 H 0.21271 0.68062 0.03976 0.0
H801 H 0.19778 0.66802 0.00821 0.0
H802 H 0.23194 0.75257 0.98224 0.0
H803 H 0.26842 0.7674 0.97193 0.0
H804 H 0.27127 0.7714 0.99535 0.0
H805 H 0.31941 0.75831 0.00229 0.0
H806 H 0.31665 0.75421 0.97894 0.0
H807 H 0.31287 0.73043 0.99402 0.0
H808 H 0.1933 0.66239 0.97522 0.0
H809 H 0.2 0.66397 0.94381 0.0
H810 H 0.27232 0.7365 0.95131 0.0
C811 C 0.26293 0.73179 0.02177 0.0
C812 C 0.2482 0.71602 0.03495 0.0
C813 C 0.22425 0.69302 0.02988 0.0
C814 C 0.21558 0.68574 0.012 0.0
C815 C 0.23102 0.70167 0.99938 0.0
C816 C 0.25412 0.72425 0.00407 0.0
C817 C 0.26852 0.73766 0.98822 0.0
C818 C 0.25948 0.75849 0.9842 0.0
C819 C 0.30661 0.7456 0.99104 0.0
C820 C 0.25043 0.71898 0.9739 0.0
C821 C 0.22866 0.69841 0.98053 0.0
C822 C 0.21007 0.67847 0.96987 0.0
C823 C 0.21408 0.67954 0.95204 0.0
C824 C 0.23667 0.70036 0.94506 0.0
C825 C 0.25473 0.72035 0.95617 0.0
H826 H 0.19284 0.45382 0.29173 0.0
H827 H 0.23975 0.44749 0.24892 0.0
H828 H 0.25501 0.4891 0.24173 0.0
H829 H 0.15862 0.49243 0.26908 0.0
H830 H 0.16589 0.5088 0.28898 0.0
H831 H 0.15842 0.47851 0.29041 0.0
H832 H 0.21419 0.48973 0.31255 0.0
H833 H 0.22202 0.52008 0.31104 0.0
H834 H 0.25257 0.51104 0.30623 0.0
H835 H 0.26654 0.53188 0.23988 0.0
H836 H 0.27011 0.57161 0.24222 0.0
H837 H 0.21507 0.54933 0.28611 0.0
C838 C 0.20615 0.4611 0.28077 0.0
C839 C 0.21511 0.4474 0.27089 0.0
C840 C 0.2325 0.45763 0.25663 0.0
C841 C 0.2414 0.48126 0.2525 0.0
C842 C 0.23258 0.49435 0.26269 0.0
C843 C 0.21508 0.48455 0.27643 0.0
C844 C 0.20839 0.50228 0.2853 0.0
C845 C 0.17059 0.49508 0.28332 0.0
C846 C 0.22531 0.506 0.30494 0.0
C847 C 0.22496 0.52365 0.27446 0.0
C848 C 0.23892 0.51878 0.26153 0.0
C849 C 0.25563 0.53586 0.24993 0.0
C850 C 0.25765 0.5584 0.25142 0.0
C851 C 0.24289 0.5636 0.26436 0.0
C852 C 0.22664 0.54596 0.27609 0.0
H853 H 0.47734 0.72511 0.70986 0.0
H854 H 0.51315 0.76819 0.66497 0.0
H855 H 0.53476 0.80355 0.6836 0.0
H856 H 0.44921 0.76346 0.7266 0.0
H857 H 0.46126 0.75826 0.74969 0.0
H858 H 0.45033 0.73595 0.73326 0.0
H859 H 0.50753 0.73443 0.74377 0.0
H860 H 0.51864 0.75676 0.76023 0.0
H861 H 0.54552 0.76089 0.74431 0.0
H862 H 0.55169 0.83405 0.70636 0.0
H863 H 0.56076 0.8588 0.73185 0.0
H864 H 0.51238 0.79691 0.76242 0.0
C865 C 0.49002 0.742 0.70405 0.0
C866 C 0.49369 0.74393 0.68598 0.0
C867 C 0.50996 0.76631 0.67875 0.0
C868 C 0.52246 0.7865 0.68925 0.0
C869 C 0.51826 0.78407 0.70693 0.0
C870 C 0.50228 0.76248 0.71432 0.0
C871 C 0.49972 0.76508 0.73349 0.0
C872 C 0.46294 0.7551 0.73589 0.0
C873 C 0.51901 0.75361 0.7462 0.0
C874 C 0.51663 0.79151 0.73561 0.0
C875 C 0.52737 0.80198 0.72013 0.0
C876 C 0.54344 0.8261 0.71858 0.0
C877 C 0.54846 0.84001 0.73319 0.0
C878 C 0.53725 0.82985 0.74918 0.0
C879 C 0.52128 0.80521 0.75041 0.0
H880 H 0.19324 0.17909 0.6421 0.0
H881 H 0.20935 0.17867 0.58798 0.0
H882 H 0.15808 0.14183 0.58192 0.0
H883 H 0.16836 0.12165 0.64894 0.0
H884 H 0.1333 0.11337 0.66007 0.0
H885 H 0.16678 0.14241 0.6631 0.0
H886 H 0.13437 0.16563 0.65169 0.0
H887 H 0.09646 0.13921 0.6513 0.0
H888 H 0.10352 0.15677 0.6317 0.0
H889 H 0.10491 0.10475 0.58187 0.0
H890 H 0.05501 0.07005 0.58795 0.0
H891 H 0.07379 0.09492 0.64212 0.0
C892 C 0.18612 0.17128 0.62896 0.0
C893 C 0.20554 0.18178 0.61555 0.0
C894 C 0.19501 0.17097 0.59851 0.0
C895 C 0.16584 0.15007 0.59491 0.0
C896 C 0.14725 0.14027 0.60843 0.0
C897 C 0.15692 0.1506 0.62507 0.0
C898 C 0.133 0.13633 0.6374 0.0
C899 C 0.15138 0.12796 0.65333 0.0
C900 C 0.11584 0.15031 0.64339 0.0
C901 C 0.10832 0.11623 0.62513 0.0
C902 C 0.1169 0.11888 0.60845 0.0
C903 C 0.09791 0.10252 0.59488 0.0
C904 C 0.0695 0.08287 0.59847 0.0
C905 C 0.06021 0.07969 0.6155 0.0
C906 C 0.07993 0.0968 0.62892 0.0
H907 H 0.78233 0.32108 0.77094 0.0
H908 H 0.78099 0.38658 0.75163 0.0
H909 H 0.83715 0.39926 0.7442 0.0
H910 H 0.85656 0.3425 0.79413 0.0
H911 H 0.86964 0.32044 0.7899 0.0
H912 H 0.82605 0.3132 0.78776 0.0
H913 H 0.81599 0.29907 0.75534 0.0
H914 H 0.85992 0.30625 0.75743 0.0
H915 H 0.83996 0.31835 0.73963 0.0
H916 H 0.89728 0.40972 0.7484 0.0
H917 H 0.9545 0.41601 0.76243 0.0
H918 H 0.9181 0.34339 0.77741 0.0
C919 C 0.79328 0.33766 0.76439 0.0
C920 C 0.77744 0.35289 0.76193 0.0
C921 C 0.79255 0.37454 0.75351 0.0
C922 C 0.82448 0.38186 0.7492 0.0
C923 C 0.84054 0.36709 0.75301 0.0
C924 C 0.82506 0.34512 0.76003 0.0
C925 C 0.84937 0.33424 0.76581 0.0
C926 C 0.85047 0.32724 0.78556 0.0
C927 C 0.8408 0.31324 0.75383 0.0
C928 C 0.88165 0.35444 0.76271 0.0
C929 C 0.87591 0.37299 0.7548 0.0
C930 C 0.90207 0.39505 0.75382 0.0
C931 C 0.93451 0.39851 0.76182 0.0
C932 C 0.94049 0.37996 0.77047 0.0
C933 C 0.91411 0.35746 0.7701 0.0
H934 H 0.55646 0.11071 0.08986 0.0
H935 H 0.53076 0.11078 0.14178 0.0
H936 H 0.58749 0.14106 0.15219 0.0
H937 H 0.64269 0.12029 0.10541 0.0
H938 H 0.65816 0.13932 0.08739 0.0
H939 H 0.61596 0.11671 0.0841 0.0
H940 H 0.59382 0.14737 0.07352 0.0
H941 H 0.6354 0.17064 0.07708 0.0
H942 H 0.6035 0.17173 0.08768 0.0
H943 H 0.64732 0.16988 0.15743 0.0
H944 H 0.70237 0.2019 0.15547 0.0
H945 H 0.68866 0.18525 0.09962 0.0
C946 C 0.5627 0.11724 0.10337 0.0
C947 C 0.53915 0.10834 0.115 0.0
C948 C 0.54823 0.11743 0.13256 0.0
C949 C 0.58056 0.13441 0.13869 0.0
C950 C 0.60344 0.14226 0.12706 0.0
C951 C 0.59474 0.13444 0.10965 0.0
C952 C 0.62348 0.14694 0.09958 0.0
C953 C 0.63579 0.12978 0.09378 0.0
C954 C 0.61349 0.15997 0.08355 0.0
C955 C 0.6493 0.16358 0.11392 0.0
C956 C 0.6376 0.15991 0.12983 0.0
C957 C 0.65678 0.173 0.14505 0.0
C958 C 0.68814 0.19113 0.14379 0.0
C959 C 0.69982 0.19631 0.12733 0.0
C960 C 0.68047 0.18181 0.11237 0.0
H961 H 0.95457 0.90615 0.28208 0.0
H962 H 0.9513 0.84565 0.2572 0.0
H963 H 0.89615 0.83888 0.23948 0.0
H964 H 0.87765 0.88267 0.28971 0.0
H965 H 0.86858 0.90778 0.2853 0.0
H966 H 0.91102 0.91179 0.29185 0.0
H967 H 0.92649 0.93572 0.26345 0.0
H968 H 0.88375 0.93172 0.25677 0.0
H969 H 0.90357 0.92321 0.24195 0.0
H970 H 0.83667 0.83201 0.23179 0.0
H971 H 0.77982 0.827 0.23388 0.0
H972 H 0.82166 0.89326 0.26168 0.0
C973 C 0.94283 0.89203 0.27237 0.0
C974 C 0.95713 0.87641 0.27102 0.0
C975 C 0.94094 0.85798 0.25833 0.0
C976 C 0.9096 0.85403 0.24817 0.0
C977 C 0.89524 0.86903 0.25054 0.0
C978 C 0.91175 0.88803 0.26207 0.0
C979 C 0.88926 0.8995 0.26424 0.0
C980 C 0.88646 0.90045 0.28392 0.0
C981 C 0.9015 0.92399 0.25611 0.0
C982 C 0.85666 0.88279 0.25343 0.0
C983 C 0.86075 0.86562 0.24526 0.0
C984 C 0.83331 0.84589 0.23738 0.0
C985 C 0.80109 0.84318 0.23855 0.0
C986 C 0.79667 0.86025 0.24728 0.0
C987 C 0.82463 0.8807 0.25409 0.0
H988 H 0.1424 0.10312 0.71933 0.0
H989 H 0.16733 0.14905 0.76424 0.0
H990 H 0.11662 0.15564 0.75334 0.0
H991 H 0.11939 0.13569 0.68793 0.0
H992 H 0.08523 0.11171 0.67519 0.0
H993 H 0.11886 0.10702 0.68881 0.0
H994 H 0.07542 0.07359 0.70442 0.0
H995 H 0.04201 0.079 0.69102 0.0
H996 H 0.04707 0.07954 0.7149 0.0
H997 H 0.06945 0.1622 0.73526 0.0
H998 H 0.02956 0.1688 0.71153 0.0
H999 H 0.03576 0.11939 0.67739 0.0
C1000 C 0.13627 0.1138 0.72716 0.0
C1001 C 0.15805 0.12527 0.74275 0.0
C1002 C 0.15029 0.13976 0.75248 0.0
C1003 C 0.12161 0.14356 0.74637 0.0
C1004 C 0.10101 0.13258 0.73059 0.0
C1005 C 0.10771 0.11772 0.72122 0.0
C1006 C 0.08392 0.11031 0.70363 0.0
C1007 C 0.10303 0.11663 0.68796 0.0
C1008 C 0.06073 0.08405 0.70349 0.0
C1009 C 0.06462 0.12481 0.70388 0.0
C1010 C 0.07412 0.13689 0.71982 0.0
C1011 C 0.0614 0.15253 0.72285 0.0
C1012 C 0.0388 0.15623 0.70919 0.0
C1013 C 0.02945 0.14465 0.69249 0.0
C1014 C 0.04216 0.12839 0.69 0.0
H1015 H 0.84334 0.3122 0.9058 0.0
H1016 H 0.8257 0.30323 0.84849 0.0
H1017 H 0.86741 0.34324 0.84576 0.0
H1018 H 0.84597 0.36817 0.90355 0.0
H1019 H 0.87852 0.38109 0.92244 0.0
H1020 H 0.85212 0.35019 0.92173 0.0
H1021 H 0.90198 0.33965 0.92579 0.0
H1022 H 0.92951 0.37041 0.92796 0.0
H1023 H 0.93318 0.35278 0.91179 0.0
H1024 H 0.90917 0.38328 0.84846 0.0
H1025 H 0.94083 0.42505 0.85556 0.0
H1026 H 0.92915 0.41102 0.91084 0.0
C1027 C 0.84824 0.31873 0.89271 0.0
C1028 C 0.83203 0.30429 0.87741 0.0
C1029 C 0.83866 0.31362 0.86048 0.0
C1030 C 0.8624 0.33635 0.85875 0.0
C1031 C 0.87876 0.34984 0.87405 0.0
C1032 C 0.87151 0.34176 0.89067 0.0
C1033 C 0.88999 0.36113 0.90454 0.0
C1034 C 0.86521 0.36544 0.91357 0.0
C1035 C 0.91515 0.35565 0.91833 0.0
C1036 C 0.90782 0.38139 0.89291 0.0
C1037 C 0.90172 0.37409 0.8755 0.0
C1038 C 0.91418 0.38936 0.86201 0.0
C1039 C 0.93207 0.41307 0.8662 0.0
C1040 C 0.937 0.42133 0.8837 0.0
C1041 C 0.92585 0.40518 0.89737 0.0
H1042 H 0.68863 0.16066 0.2542 0.0
H1043 H 0.65193 0.08525 0.25599 0.0
H1044 H 0.5946 0.08106 0.24497 0.0
H1045 H 0.61077 0.16394 0.26413 0.0
H1046 H 0.61553 0.18738 0.24859 0.0
H1047 H 0.65196 0.18455 0.26079 0.0
H1048 H 0.67137 0.18397 0.23113 0.0
H1049 H 0.63484 0.18624 0.21877 0.0
H1050 H 0.64394 0.16226 0.21441 0.0
H1051 H 0.5447 0.08477 0.22748 0.0
H1052 H 0.50505 0.09629 0.20696 0.0
H1053 H 0.57266 0.16928 0.21702 0.0
C1054 C 0.66831 0.1433 0.25294 0.0
C1055 C 0.67475 0.12331 0.25596 0.0
C1056 C 0.6476 0.10085 0.25401 0.0
C1057 C 0.61489 0.09828 0.24766 0.0
C1058 C 0.6097 0.11835 0.24364 0.0
C1059 C 0.63556 0.14047 0.24656 0.0
C1060 C 0.62421 0.15909 0.2391 0.0
C1061 C 0.6257 0.17466 0.25405 0.0
C1062 C 0.64481 0.17373 0.22502 0.0
C1063 C 0.58842 0.14396 0.23078 0.0
C1064 C 0.58046 0.1205 0.2337 0.0
C1065 C 0.55034 0.10306 0.22549 0.0
C1066 C 0.52803 0.10974 0.21385 0.0
C1067 C 0.53569 0.13362 0.21079 0.0
C1068 C 0.56591 0.15093 0.21963 0.0
H1069 H 0.94956 0.89491 0.41229 0.0
H1070 H 0.87418 0.92047 0.41022 0.0
H1071 H 0.83198 0.8803 0.41371 0.0
H1072 H 0.90865 0.85148 0.38644 0.0
H1073 H 0.92205 0.83039 0.39781 0.0
H1074 H 0.94802 0.86078 0.4016 0.0
H1075 H 0.94777 0.85489 0.43535 0.0
H1076 H 0.92196 0.82408 0.43137 0.0
H1077 H 0.90857 0.84098 0.44335 0.0
H1078 H 0.79645 0.83835 0.40772 0.0
H1079 H 0.77136 0.79824 0.3952 0.0
H1080 H 0.86941 0.79879 0.40281 0.0
C1081 C 0.92461 0.89201 0.41378 0.0
C1082 C 0.91484 0.9104 0.41117 0.0
C1083 C 0.88195 0.90641 0.41245 0.0
C1084 C 0.85791 0.88366 0.41449 0.0
C1085 C 0.86764 0.86539 0.41577 0.0
C1086 C 0.90059 0.86944 0.41612 0.0
C1087 C 0.90369 0.84685 0.4146 0.0
C1088 C 0.92161 0.84748 0.39916 0.0
C1089 C 0.92155 0.84137 0.43222 0.0
C1090 C 0.86713 0.82984 0.41102 0.0
C1091 C 0.84674 0.8407 0.41243 0.0
C1092 C 0.81208 0.82942 0.40724 0.0
C1093 C 0.79804 0.80675 0.40007 0.0
C1094 C 0.81871 0.79583 0.39803 0.0
C1095 C 0.85337 0.80707 0.40419 0.0
H1096 H 0.3796 0.10997 0.14851 0.0
H1097 H 0.43823 0.17524 0.12515 0.0
H1098 H 0.42785 0.15467 0.09686 0.0
H1099 H 0.41377 0.08085 0.13631 0.0
H1100 H 0.37842 0.05287 0.13154 0.0
H1101 H 0.37735 0.0728 0.14651 0.0
H1102 H 0.32282 0.07177 0.12745 0.0
H1103 H 0.32326 0.05128 0.11239 0.0
H1104 H 0.32114 0.07798 0.10406 0.0
H1105 H 0.42789 0.12656 0.07595 0.0
H1106 H 0.43795 0.09487 0.0651 0.0
H1107 H 0.37901 0.04709 0.10165 0.0
C1108 C 0.38802 0.12001 0.13694 0.0
C1109 C 0.40879 0.14411 0.13868 0.0
C1110 C 0.42118 0.15687 0.12377 0.0
C1111 C 0.41554 0.14522 0.10769 0.0
C1112 C 0.39713 0.12093 0.10678 0.0
C1113 C 0.38278 0.10852 0.12096 0.0
C1114 C 0.37055 0.08247 0.11837 0.0
C1115 C 0.38599 0.07167 0.13409 0.0
C1116 C 0.33216 0.07015 0.11538 0.0
C1117 C 0.38342 0.08224 0.10154 0.0
C1118 C 0.3975 0.10443 0.09461 0.0
C1119 C 0.41587 0.10901 0.08085 0.0
C1120 C 0.42143 0.09086 0.07471 0.0
C1121 C 0.40912 0.06856 0.08256 0.0
C1122 C 0.38827 0.06395 0.09531 0.0
H1123 H 0.9654 0.82837 0.35595 0.0
H1124 H 0.97047 0.78959 0.313 0.0
H1125 H 0.92786 0.75323 0.32355 0.0
H1126 H 0.95051 0.78348 0.39011 0.0
H1127 H 0.92151 0.7916 0.39797 0.0
H1128 H 0.95556 0.81325 0.3882 0.0
H1129 H 0.91267 0.82311 0.36518 0.0
H1130 H 0.87811 0.80124 0.37423 0.0
H1131 H 0.87974 0.80011 0.35117 0.0
H1132 H 0.87783 0.72242 0.33656 0.0
H1133 H 0.82815 0.70083 0.35106 0.0
H1134 H 0.85937 0.75993 0.38614 0.0
C1135 C 0.95825 0.81219 0.34894 0.0
C1136 C 0.97137 0.81188 0.33366 0.0
C1137 C 0.96093 0.79027 0.32482 0.0
C1138 C 0.93674 0.76952 0.33074 0.0
C1139 C 0.9237 0.77064 0.34566 0.0
C1140 C 0.93451 0.79148 0.35469 0.0
C1141 C 0.91443 0.78899 0.36902 0.0
C1142 C 0.93682 0.79469 0.38742 0.0
C1143 C 0.89516 0.80428 0.3647 0.0
C1144 C 0.89091 0.76337 0.36713 0.0
C1145 C 0.89616 0.75299 0.35341 0.0
C1146 C 0.87432 0.73019 0.34771 0.0
C1147 C 0.84632 0.71799 0.35605 0.0
C1148 C 0.84094 0.72844 0.37017 0.0
C1149 C 0.86389 0.7512 0.37595 0.0
H1150 H 0.32709 0.19908 0.71685 0.0
H1151 H 0.30932 0.13241 0.696 0.0
H1152 H 0.33725 0.15212 0.67079 0.0
H1153 H 0.30089 0.21824 0.68176 0.0
H1154 H 0.32982 0.24872 0.68329 0.0
H1155 H 0.32345 0.23188 0.70303 0.0
H1156 H 0.38678 0.24256 0.71129 0.0
H1157 H 0.39359 0.26001 0.69155 0.0
H1158 H 0.4081 0.23738 0.69549 0.0
H1159 H 0.34653 0.17597 0.64374 0.0
H1160 H 0.33885 0.2013 0.61904 0.0
H1161 H 0.35159 0.25337 0.65693 0.0
C1162 C 0.33162 0.189 0.70766 0.0
C1163 C 0.31703 0.16446 0.70848 0.0
C1164 C 0.32147 0.15133 0.69587 0.0
C1165 C 0.33711 0.16245 0.68142 0.0
C1166 C 0.3485 0.18668 0.67998 0.0
C1167 C 0.34687 0.19993 0.69314 0.0
C1168 C 0.35385 0.22457 0.68694 0.0
C1169 C 0.32529 0.23117 0.68885 0.0
C1170 C 0.3876 0.24217 0.69691 0.0
C1171 C 0.35559 0.22231 0.66768 0.0
C1172 C 0.35382 0.20068 0.66402 0.0
C1173 C 0.34923 0.19325 0.64656 0.0
C1174 C 0.34485 0.20775 0.63256 0.0
C1175 C 0.34458 0.22924 0.63615 0.0
C1176 C 0.35193 0.23706 0.65389 0.0
H1177 H 0.77581 0.37711 0.85191 0.0
H1178 H 0.76411 0.42066 0.80733 0.0
H1179 H 0.80656 0.45563 0.82404 0.0
H1180 H 0.78831 0.41931 0.88679 0.0
H1181 H 0.81862 0.41175 0.90131 0.0
H1182 H 0.78564 0.39016 0.88618 0.0
H1183 H 0.82977 0.38325 0.87302 0.0
H1184 H 0.86271 0.40511 0.88792 0.0
H1185 H 0.86226 0.40765 0.8643 0.0
H1186 H 0.85601 0.48528 0.84398 0.0
H1187 H 0.90485 0.50752 0.867 0.0
H1188 H 0.88051 0.44581 0.89971 0.0
C1189 C 0.78183 0.39403 0.84578 0.0
C1190 C 0.76669 0.39601 0.82824 0.0
C1191 C 0.7753 0.41855 0.82072 0.0
C1192 C 0.79942 0.43863 0.83012 0.0
C1193 C 0.81423 0.43606 0.84726 0.0
C1194 C 0.80531 0.4144 0.85516 0.0
C1195 C 0.8257 0.41644 0.87356 0.0
C1196 C 0.80321 0.40897 0.8878 0.0
C1197 C 0.84632 0.40223 0.87474 0.0
C1198 C 0.84798 0.44248 0.87461 0.0
C1199 C 0.84116 0.4535 0.85924 0.0
C1200 C 0.86097 0.47702 0.85631 0.0
C1201 C 0.88858 0.48953 0.86941 0.0
C1202 C 0.89564 0.4786 0.88532 0.0
C1203 C 0.87477 0.45487 0.88799 0.0
H1204 H 0.15256 0.58263 0.21712 0.0
H1205 H 0.2013 0.62645 0.17562 0.0
H1206 H 0.16928 0.59355 0.15396 0.0
H1207 H 0.14462 0.5274 0.2028 0.0
H1208 H 0.10328 0.51128 0.20807 0.0
H1209 H 0.13221 0.53747 0.22044 0.0
H1210 H 0.0892 0.55519 0.21272 0.0
H1211 H 0.05994 0.52906 0.20044 0.0
H1212 H 0.07191 0.55707 0.18982 0.0
H1213 H 0.13248 0.5553 0.13736 0.0
H1214 H 0.0866 0.51806 0.1254 0.0
H1215 H 0.05804 0.50113 0.17752 0.0
C1216 C 0.15646 0.58521 0.20345 0.0
C1217 C 0.17927 0.60681 0.19789 0.0
C1218 C 0.18363 0.60992 0.17995 0.0
C1219 C 0.16585 0.59132 0.16769 0.0
C1220 C 0.14334 0.57014 0.17361 0.0
C1221 C 0.13802 0.56725 0.19098 0.0
C1222 C 0.11026 0.54367 0.19369 0.0
C1223 C 0.12339 0.5291 0.20704 0.0
C1224 C 0.08111 0.54642 0.1995 0.0
C1225 C 0.10069 0.53359 0.17511 0.0
C1226 C 0.12061 0.54887 0.16382 0.0
C1227 C 0.11658 0.54328 0.14603 0.0
C1228 C 0.09047 0.52201 0.1394 0.0
C1229 C 0.06823 0.50685 0.15047 0.0
C1230 C 0.0743 0.51245 0.16869 0.0
H1231 H 0.66657 0.24604 0.10076 0.0
H1232 H 0.708 0.30391 0.13811 0.0
H1233 H 0.65333 0.29009 0.14787 0.0
H1234 H 0.57443 0.23583 0.0923 0.0
H1235 H 0.56159 0.20469 0.09296 0.0
H1236 H 0.59894 0.22348 0.08439 0.0
H1237 H 0.63312 0.20631 0.10702 0.0
H1238 H 0.59589 0.18767 0.11559 0.0
H1239 H 0.63215 0.20735 0.13033 0.0
H1240 H 0.59975 0.2653 0.15844 0.0
H1241 H 0.55234 0.23244 0.1687 0.0
H1242 H 0.54793 0.18863 0.12629 0.0
C1243 C 0.66337 0.25672 0.11004 0.0
C1244 C 0.69107 0.27651 0.11824 0.0
C1245 C 0.68674 0.28917 0.13128 0.0
C1246 C 0.65579 0.28131 0.13696 0.0
C1247 C 0.62961 0.26062 0.12961 0.0
C1248 C 0.63304 0.24859 0.11628 0.0
C1249 C 0.60437 0.22443 0.11334 0.0
C1250 C 0.58359 0.22198 0.09463 0.0
C1251 C 0.61714 0.20531 0.11677 0.0
C1252 C 0.5849 0.22436 0.12746 0.0
C1253 C 0.5994 0.24556 0.13645 0.0
C1254 C 0.58777 0.24883 0.15122 0.0
C1255 C 0.56089 0.22997 0.15701 0.0
C1256 C 0.54629 0.20789 0.14829 0.0
C1257 C 0.55826 0.2053 0.13315 0.0
H1258 H 0.64493 0.78679 0.27781 0.0
H1259 H 0.65813 0.84192 0.31276 0.0
H1260 H 0.65337 0.81518 0.33829 0.0
H1261 H 0.5916 0.73397 0.30528 0.0
H1262 H 0.61336 0.71792 0.2997 0.0
H1263 H 0.60433 0.73771 0.28388 0.0
H1264 H 0.66718 0.7593 0.2816 0.0
H1265 H 0.67637 0.73987 0.29732 0.0
H1266 H 0.69755 0.77096 0.30153 0.0
H1267 H 0.66493 0.78752 0.36026 0.0
H1268 H 0.69298 0.76363 0.37555 0.0
H1269 H 0.67318 0.72649 0.32648 0.0
C1270 C 0.64475 0.79267 0.29071 0.0
C1271 C 0.65131 0.81611 0.29339 0.0
C1272 C 0.65218 0.82377 0.31043 0.0
C1273 C 0.64959 0.80866 0.32499 0.0
C1274 C 0.64559 0.78594 0.32215 0.0
C1275 C 0.64246 0.77786 0.30525 0.0
C1276 C 0.64535 0.7549 0.30582 0.0
C1277 C 0.61165 0.73494 0.29822 0.0
C1278 C 0.67328 0.7564 0.29603 0.0
C1279 C 0.65411 0.75247 0.32565 0.0
C1280 C 0.65268 0.7699 0.33495 0.0
C1281 C 0.66489 0.7733 0.35319 0.0
C1282 C 0.6806 0.75954 0.36185 0.0
C1283 C 0.68439 0.74295 0.35216 0.0
C1284 C 0.66939 0.73855 0.33417 0.0
H1285 H 0.08194 0.02041 0.62743 0.0
H1286 H 0.03887 0.97075 0.66724 0.0
H1287 H 0.09343 0.98576 0.68711 0.0
H1288 H 0.17837 0.03426 0.64501 0.0
H1289 H 0.18854 0.06465 0.64054 0.0
H1290 H 0.15559 0.04232 0.62588 0.0
H1291 H 0.11486 0.05983 0.63008 0.0
H1292 H 0.14743 0.08155 0.64469 0.0
H1293 H 0.10885 0.06299 0.65225 0.0
H1294 H 0.14237 0.01371 0.70599 0.0
H1295 H 0.17778 0.05094 0.72199 0.0
H1296 H 0.18496 0.08765 0.672 0.0
C1297 C 0.08505 0.01156 0.63977 0.0
C1298 C 0.05682 0.99419 0.64576 0.0
C1299 C 0.06062 0.98362 0.6623 0.0
C1300 C 0.09161 0.99226 0.6737 0.0
C1301 C 0.1181 0.01184 0.66849 0.0
C1302 C 0.1152 0.02129 0.65171 0.0
C1303 C 0.14211 0.04603 0.65112 0.0
C1304 C 0.16768 0.04685 0.63998 0.0
C1305 C 0.12732 0.06356 0.64417 0.0
C1306 C 0.15753 0.05009 0.67059 0.0
C1307 C 0.1451 0.02969 0.68012 0.0
C1308 C 0.1529 0.02961 0.6986 0.0
C1309 C 0.17286 0.0509 0.7076 0.0
C1310 C 0.18378 0.07209 0.69815 0.0
C1311 C 0.17691 0.07158 0.67944 0.0
H1312 H 0.59522 0.51068 0.36965 0.0
H1313 H 0.57384 0.46824 0.41641 0.0
H1314 H 0.59894 0.44413 0.40701 0.0
H1315 H 0.56728 0.46882 0.34156 0.0
H1316 H 0.59736 0.48122 0.32682 0.0
H1317 H 0.59038 0.50007 0.34021 0.0
H1318 H 0.65346 0.51934 0.35381 0.0
H1319 H 0.66072 0.50046 0.34024 0.0
H1320 H 0.67379 0.50139 0.364 0.0
H1321 H 0.60785 0.41755 0.38806 0.0
H1322 H 0.60134 0.39322 0.36242 0.0
H1323 H 0.61818 0.45281 0.32816 0.0
C1324 C 0.59764 0.49715 0.3784 0.0
C1325 C 0.58268 0.49139 0.39373 0.0
C1326 C 0.58561 0.47325 0.40473 0.0
C1327 C 0.59978 0.45936 0.39943 0.0
C1328 C 0.61165 0.46418 0.38333 0.0
C1329 C 0.61157 0.48315 0.37321 0.0
C1330 C 0.61969 0.48228 0.35505 0.0
C1331 C 0.59202 0.48311 0.34006 0.0
C1332 C 0.65396 0.50204 0.35317 0.0
C1333 C 0.62088 0.45875 0.35581 0.0
C1334 C 0.6174 0.44884 0.37241 0.0
C1335 C 0.61202 0.4255 0.37525 0.0
C1336 C 0.60855 0.41177 0.36066 0.0
C1337 C 0.61012 0.42145 0.34352 0.0
C1338 C 0.61806 0.4454 0.34133 0.0
H1339 H 0.04897 0.68974 0.10362 0.0
H1340 H 0.06074 0.74167 0.14154 0.0
H1341 H 0.11479 0.76806 0.13278 0.0
H1342 H 0.12673 0.69457 0.11333 0.0
H1343 H 0.13132 0.69034 0.09113 0.0
H1344 H 0.09048 0.6786 0.09694 0.0
H1345 H 0.07165 0.7011 0.07096 0.0
H1346 H 0.11283 0.7131 0.06515 0.0
H1347 H 0.09491 0.73231 0.06956 0.0
H1348 H 0.17248 0.78377 0.12585 0.0
H1349 H 0.22727 0.78712 0.12128 0.0
H1350 H 0.1773 0.72644 0.0864 0.0
C1351 C 0.06233 0.707 0.10965 0.0
C1352 C 0.05066 0.71364 0.12327 0.0
C1353 C 0.06904 0.73627 0.13096 0.0
C1354 C 0.09975 0.75141 0.12602 0.0
C1355 C 0.11134 0.74385 0.11311 0.0
C1356 C 0.09283 0.72226 0.10481 0.0
C1357 C 0.11255 0.7167 0.09331 0.0
C1358 C 0.11545 0.69373 0.09904 0.0
C1359 C 0.09706 0.71576 0.07357 0.0
C1360 C 0.14591 0.73776 0.09737 0.0
C1361 C 0.14459 0.75349 0.10854 0.0
C1362 C 0.17359 0.7721 0.11658 0.0
C1363 C 0.20464 0.77395 0.11388 0.0
C1364 C 0.20642 0.75736 0.10315 0.0
C1365 C 0.17662 0.73993 0.09404 0.0
H1366 H 0.09035 0.44908 0.82449 0.0
H1367 H 0.08821 0.39572 0.86315 0.0
H1368 H 0.09914 0.42345 0.88735 0.0
H1369 H 0.15067 0.50332 0.8549 0.0
H1370 H 0.12632 0.51872 0.84486 0.0
H1371 H 0.13179 0.49849 0.83176 0.0
H1372 H 0.06744 0.4761 0.82289 0.0
H1373 H 0.06184 0.49604 0.83585 0.0
H1374 H 0.04225 0.46514 0.84009 0.0
H1375 H 0.09291 0.45181 0.90565 0.0
H1376 H 0.06693 0.47517 0.9152 0.0
H1377 H 0.07265 0.51058 0.86474 0.0
C1378 C 0.09407 0.44375 0.83815 0.0
C1379 C 0.08888 0.42051 0.84207 0.0
C1380 C 0.09291 0.41367 0.85996 0.0
C1381 C 0.09908 0.42936 0.87376 0.0
C1382 C 0.10172 0.45184 0.86938 0.0
C1383 C 0.09993 0.45912 0.85191 0.0
C1384 C 0.09642 0.4819 0.85006 0.0
C1385 C 0.1282 0.50178 0.84511 0.0
C1386 C 0.06513 0.47962 0.83646 0.0
C1387 C 0.09288 0.48511 0.86883 0.0
C1388 C 0.09754 0.46825 0.88 0.0
C1389 C 0.09023 0.46549 0.89718 0.0
C1390 C 0.0756 0.47901 0.90257 0.0
C1391 C 0.06767 0.49467 0.89063 0.0
C1392 C 0.07885 0.49895 0.87416 0.0
H1393 H 0.14186 0.61304 0.23703 0.0
H1394 H 0.18924 0.68214 0.26107 0.0
H1395 H 0.14131 0.68997 0.24627 0.0
H1396 H 0.11863 0.63007 0.19641 0.0
H1397 H 0.07873 0.60529 0.19039 0.0
H1398 H 0.11098 0.60198 0.2063 0.0
H1399 H 0.07231 0.58627 0.22947 0.0
H1400 H 0.03908 0.58874 0.21351 0.0
H1401 H 0.05116 0.6028 0.23499 0.0
H1402 H 0.09303 0.6924 0.22594 0.0
H1403 H 0.04946 0.69031 0.20045 0.0
H1404 H 0.03553 0.62072 0.18745 0.0
C1405 C 0.14115 0.62931 0.23987 0.0
C1406 C 0.16846 0.64674 0.25066 0.0
C1407 C 0.16797 0.66841 0.25325 0.0
C1408 C 0.14089 0.67297 0.24489 0.0
C1409 C 0.11479 0.65576 0.23379 0.0
C1410 C 0.11463 0.63431 0.23126 0.0
C1411 C 0.08631 0.62031 0.21661 0.0
C1412 C 0.09951 0.61411 0.20152 0.0
C1413 C 0.06069 0.59822 0.2241 0.0
C1414 C 0.07179 0.63771 0.21066 0.0
C1415 C 0.08789 0.65771 0.22114 0.0
C1416 C 0.07995 0.6767 0.21779 0.0
C1417 C 0.05518 0.67535 0.20324 0.0
C1418 C 0.03913 0.65537 0.19192 0.0
C1419 C 0.04736 0.63622 0.19586 0.0
H1420 H 0.3437 0.8113 0.86046 0.0
H1421 H 0.33439 0.79272 0.91548 0.0
H1422 H 0.37044 0.83393 0.92455 0.0
H1423 H 0.42868 0.85115 0.86841 0.0
H1424 H 0.42401 0.87102 0.8513 0.0
H1425 H 0.39623 0.84038 0.84919 0.0
H1426 H 0.34495 0.85018 0.84567 0.0
H1427 H 0.37251 0.88088 0.84767 0.0
H1428 H 0.34265 0.86776 0.86242 0.0
H1429 H 0.40939 0.87734 0.92749 0.0
H1430 H 0.44579 0.91922 0.92383 0.0
H1431 H 0.42884 0.90782 0.86687 0.0
C1432 C 0.34891 0.81581 0.87443 0.0
C1433 C 0.33619 0.79875 0.88726 0.0
C1434 C 0.34377 0.80551 0.90539 0.0
C1435 C 0.36427 0.82884 0.91068 0.0
C1436 C 0.37679 0.84511 0.89765 0.0
C1437 C 0.36915 0.83886 0.87989 0.0
C1438 C 0.386 0.8594 0.86845 0.0
C1439 C 0.41016 0.85523 0.85878 0.0
C1440 C 0.35999 0.86487 0.85528 0.0
C1441 C 0.40463 0.87822 0.88257 0.0
C1442 C 0.39906 0.86978 0.89934 0.0
C1443 C 0.41387 0.88416 0.91441 0.0
C1444 C 0.43461 0.90787 0.91222 0.0
C1445 C 0.44022 0.91683 0.89508 0.0
C1446 C 0.4251 0.90164 0.88017 0.0
H1447 H 0.07443 0.56698 0.10926 0.0
H1448 H 0.05895 0.5763 0.16199 0.0
H1449 H 0.10699 0.61489 0.16447 0.0
H1450 H 0.16299 0.59317 0.11868 0.0
H1451 H 0.16858 0.60739 0.09757 0.0
H1452 H 0.13161 0.5809 0.09924 0.0
H1453 H 0.09438 0.60198 0.08583 0.0
H1454 H 0.13138 0.62843 0.08408 0.0
H1455 H 0.10064 0.62868 0.09607 0.0
H1456 H 0.15831 0.6506 0.16268 0.0
H1457 H 0.20818 0.6839 0.15542 0.0
H1458 H 0.19091 0.65296 0.10346 0.0
C1459 C 0.08072 0.57733 0.12119 0.0
C1460 C 0.06283 0.5685 0.13544 0.0
C1461 C 0.07224 0.58252 0.15092 0.0
C1462 C 0.09945 0.60451 0.15248 0.0
C1463 C 0.11703 0.61239 0.13846 0.0
C1464 C 0.10796 0.59945 0.12302 0.0
C1465 C 0.13187 0.61204 0.11017 0.0
C1466 C 0.14982 0.5975 0.10619 0.0
C1467 C 0.11346 0.61814 0.09302 0.0
C1468 C 0.15596 0.63385 0.12097 0.0
C1469 C 0.14685 0.63354 0.13727 0.0
C1470 C 0.1655 0.65125 0.14986 0.0
C1471 C 0.19399 0.67006 0.14561 0.0
C1472 C 0.20359 0.67123 0.1288 0.0
C1473 C 0.18428 0.6527 0.11638 0.0
H1474 H 0.31246 0.8959 0.77073 0.0
H1475 H 0.26621 0.82602 0.7484 0.0
H1476 H 0.32002 0.83142 0.7409 0.0
H1477 H 0.38436 0.92318 0.74238 0.0
H1478 H 0.41272 0.939 0.76182 0.0
H1479 H 0.36936 0.93387 0.75846 0.0
H1480 H 0.36455 0.91489 0.78939 0.0
H1481 H 0.40741 0.9196 0.79281 0.0
H1482 H 0.37517 0.8905 0.79439 0.0
H1483 H 0.3792 0.8393 0.74385 0.0
H1484 H 0.43739 0.84819 0.75777 0.0
H1485 H 0.44663 0.91225 0.77999 0.0
C1486 C 0.3134 0.88247 0.76315 0.0
C1487 C 0.28533 0.86085 0.75965 0.0
C1488 C 0.28746 0.84292 0.75074 0.0
C1489 C 0.31795 0.84588 0.74642 0.0
C1490 C 0.34607 0.8668 0.75129 0.0
C1491 C 0.34399 0.88497 0.75932 0.0
C1492 C 0.37839 0.90319 0.76704 0.0
C1493 C 0.38669 0.92617 0.75681 0.0
C1494 C 0.38154 0.90723 0.78708 0.0
C1495 C 0.39977 0.89142 0.76361 0.0
C1496 C 0.38093 0.87099 0.75382 0.0
C1497 C 0.39442 0.8556 0.75106 0.0
C1498 C 0.42752 0.86076 0.75906 0.0
C1499 C 0.44645 0.88087 0.77 0.0
C1500 C 0.43278 0.89682 0.77159 0.0
H1501 H 0.61146 0.94137 0.81906 0.0
H1502 H 0.59548 0.88278 0.85422 0.0
H1503 H 0.60695 0.90848 0.87985 0.0
H1504 H 0.67119 0.99149 0.8542 0.0
H1505 H 0.65044 0.00919 0.84405 0.0
H1506 H 0.65702 0.98992 0.83052 0.0
H1507 H 0.5936 0.97073 0.81785 0.0
H1508 H 0.5868 0.98953 0.83132 0.0
H1509 H 0.56417 0.95828 0.83296 0.0
H1510 H 0.60096 0.93583 0.89899 0.0
H1511 H 0.57509 0.95945 0.90842 0.0
H1512 H 0.5914 0.99999 0.86056 0.0
C1513 C 0.61276 0.93449 0.83238 0.0
C1514 C 0.60343 0.91042 0.83486 0.0
C1515 C 0.60373 0.90139 0.8522 0.0
C1516 C 0.61007 0.91593 0.86681 0.0
C1517 C 0.61627 0.93938 0.86375 0.0
C1518 C 0.61828 0.9487 0.84687 0.0
C1519 C 0.61691 0.97221 0.84599 0.0
C1520 C 0.65092 0.99186 0.84355 0.0
C1521 C 0.58868 0.97265 0.83119 0.0
C1522 C 0.60978 0.97345 0.86432 0.0
C1523 C 0.61138 0.95508 0.87475 0.0
C1524 C 0.60074 0.95067 0.89118 0.0
C1525 C 0.5862 0.96427 0.89652 0.0
C1526 C 0.58163 0.98161 0.88521 0.0
C1527 C 0.59541 0.98713 0.86953 0.0
H1528 H 0.18583 0.24681 0.59866 0.0
H1529 H 0.23523 0.29926 0.64043 0.0
H1530 H 0.18028 0.29414 0.64621 0.0
H1531 H 0.10383 0.25426 0.5853 0.0
H1532 H 0.08048 0.22299 0.58317 0.0
H1533 H 0.12201 0.23689 0.5778 0.0
H1534 H 0.13941 0.20966 0.59984 0.0
H1535 H 0.0985 0.19611 0.60565 0.0
H1536 H 0.13467 0.2093 0.62273 0.0
H1537 H 0.12213 0.27661 0.6525 0.0
H1538 H 0.06684 0.2485 0.65877 0.0
H1539 H 0.05588 0.20532 0.61432 0.0
C1540 C 0.18492 0.25837 0.60813 0.0
C1541 C 0.21453 0.27401 0.61868 0.0
C1542 C 0.21268 0.28775 0.63185 0.0
C1543 C 0.18156 0.28484 0.63525 0.0
C1544 C 0.15263 0.26791 0.62552 0.0
C1545 C 0.15407 0.255 0.61208 0.0
C1546 C 0.12065 0.23452 0.60629 0.0
C1547 C 0.10586 0.23735 0.58699 0.0
C1548 C 0.12351 0.21105 0.6088 0.0
C1549 C 0.10069 0.2372 0.61914 0.0
C1550 C 0.11917 0.25688 0.6298 0.0
C1551 C 0.10712 0.26149 0.64392 0.0
C1552 C 0.0757 0.24537 0.64743 0.0
C1553 C 0.05698 0.22469 0.63704 0.0
C1554 C 0.0694 0.22103 0.62244 0.0
H1555 H 0.34294 0.73323 0.84881 0.0
H1556 H 0.38661 0.74732 0.90465 0.0
H1557 H 0.43615 0.78028 0.89657 0.0
H1558 H 0.42241 0.75031 0.83195 0.0
H1559 H 0.40889 0.76358 0.8124 0.0
H1560 H 0.3786 0.73919 0.82244 0.0
H1561 H 0.34616 0.76383 0.82502 0.0
H1562 H 0.3765 0.78837 0.8152 0.0
H1563 H 0.36768 0.79157 0.83663 0.0
H1564 H 0.47627 0.81553 0.88298 0.0
H1565 H 0.50856 0.84753 0.86421 0.0
H1566 H 0.44129 0.81013 0.81705 0.0
C1567 C 0.36319 0.74293 0.85932 0.0
C1568 C 0.36058 0.73768 0.87738 0.0
C1569 C 0.3879 0.75077 0.89071 0.0
C1570 C 0.41616 0.76971 0.88626 0.0
C1571 C 0.41713 0.77518 0.86841 0.0
C1572 C 0.39174 0.7619 0.8551 0.0
C1573 C 0.3983 0.77231 0.837 0.0
C1574 C 0.40229 0.75533 0.82525 0.0
C1575 C 0.37051 0.77944 0.82793 0.0
C1576 C 0.43113 0.7936 0.84225 0.0
C1577 C 0.44131 0.79505 0.86047 0.0
C1578 C 0.46909 0.81428 0.86867 0.0
C1579 C 0.48718 0.83238 0.85795 0.0
C1580 C 0.47778 0.83092 0.83926 0.0
C1581 C 0.4495 0.81124 0.83131 0.0
H1582 H 0.88756 0.94492 0.3848 0.0
H1583 H 0.9185 0.00663 0.35236 0.0
H1584 H 0.8694 0.98613 0.32896 0.0
H1585 H 0.8707 0.90711 0.35043 0.0
H1586 H 0.83571 0.88297 0.3576 0.0
H1587 H 0.86749 0.90356 0.37364 0.0
H1588 H 0.82346 0.91242 0.38512 0.0
H1589 H 0.79115 0.89124 0.36948 0.0
H1590 H 0.79509 0.92075 0.36963 0.0
H1591 H 0.82068 0.95777 0.30817 0.0
H1592 H 0.77911 0.9235 0.29034 0.0
H1593 H 0.78429 0.87839 0.33499 0.0
C1594 C 0.88336 0.95423 0.37299 0.0
C1595 C 0.90612 0.97743 0.37045 0.0
C1596 C 0.90063 0.98905 0.35465 0.0
C1597 C 0.87294 0.97749 0.34133 0.0
C1598 C 0.85158 0.95421 0.34395 0.0
C1599 C 0.85662 0.94263 0.35936 0.0
C1600 C 0.83328 0.91676 0.35785 0.0
C1601 C 0.85299 0.90174 0.35999 0.0
C1602 C 0.80932 0.9099 0.37132 0.0
C1603 C 0.8148 0.91546 0.33901 0.0
C1604 C 0.82513 0.93735 0.33143 0.0
C1605 C 0.8123 0.94058 0.31401 0.0
C1606 C 0.78863 0.92093 0.30399 0.0
C1607 C 0.77845 0.89817 0.31125 0.0
C1608 C 0.79157 0.89551 0.32907 0.0
H1609 H 0.39881 0.60759 0.62533 0.0
H1610 H 0.40188 0.59696 0.68196 0.0
H1611 H 0.38628 0.55489 0.67746 0.0
H1612 H 0.33157 0.54781 0.60951 0.0
H1613 H 0.35365 0.54764 0.59217 0.0
H1614 H 0.35574 0.57482 0.59934 0.0
H1615 H 0.4206 0.59195 0.60567 0.0
H1616 H 0.4187 0.56497 0.59861 0.0
H1617 H 0.44068 0.5767 0.62043 0.0
H1618 H 0.38378 0.517 0.66754 0.0
H1619 H 0.39458 0.48762 0.65353 0.0
H1620 H 0.3929 0.52332 0.60334 0.0
C1621 C 0.39489 0.59621 0.63671 0.0
C1622 C 0.40134 0.60537 0.65397 0.0
C1623 C 0.39653 0.59014 0.6686 0.0
C1624 C 0.38772 0.56625 0.66613 0.0
C1625 C 0.38334 0.55799 0.64894 0.0
C1626 C 0.38636 0.57256 0.63445 0.0
C1627 C 0.38587 0.56078 0.61783 0.0
C1628 C 0.35485 0.55757 0.60389 0.0
C1629 C 0.41838 0.5744 0.61021 0.0
C1630 C 0.38372 0.5376 0.6253 0.0
C1631 C 0.38169 0.53608 0.6432 0.0
C1632 C 0.38435 0.51772 0.65345 0.0
C1633 C 0.39054 0.50112 0.64539 0.0
C1634 C 0.39422 0.5031 0.62731 0.0
C1635 C 0.38916 0.52094 0.61703 0.0
H1636 H 0.847 0.23736 0.86285 0.0
H1637 H 0.87489 0.26731 0.91606 0.0
H1638 H 0.91764 0.30292 0.90607 0.0
H1639 H 0.93713 0.26493 0.85493 0.0
H1640 H 0.92481 0.26904 0.83166 0.0
H1641 H 0.89743 0.24462 0.84307 0.0
H1642 H 0.84968 0.25781 0.83316 0.0
H1643 H 0.87725 0.28198 0.82167 0.0
H1644 H 0.85726 0.28725 0.83804 0.0
H1645 H 0.9501 0.33766 0.88982 0.0
H1646 H 0.98058 0.3673 0.86918 0.0
H1647 H 0.93908 0.31489 0.82708 0.0
C1648 C 0.86284 0.2511 0.8725 0.0
C1649 C 0.85701 0.24939 0.89022 0.0
C1650 C 0.8785 0.26787 0.90242 0.0
C1651 C 0.90289 0.28843 0.89687 0.0
C1652 C 0.90673 0.2901 0.8792 0.0
C1653 C 0.88842 0.27169 0.8673 0.0
C1654 C 0.89877 0.27828 0.84915 0.0
C1655 C 0.91554 0.26333 0.84443 0.0
C1656 C 0.86894 0.27619 0.83467 0.0
C1657 C 0.92399 0.30364 0.85259 0.0
C1658 C 0.92793 0.31001 0.87003 0.0
C1659 C 0.94788 0.33283 0.87623 0.0
C1660 C 0.96493 0.34956 0.8644 0.0
C1661 C 0.96257 0.34328 0.84668 0.0
C1662 C 0.94177 0.32001 0.84069 0.0
H1663 H 0.91656 0.53093 0.10657 0.0
H1664 H 0.93713 0.50451 0.15894 0.0
H1665 H 0.92092 0.53169 0.17203 0.0
H1666 H 0.95374 0.58725 0.11817 0.0
H1667 H 0.92502 0.59615 0.10354 0.0
H1668 H 0.92973 0.57086 0.09807 0.0
H1669 H 0.86592 0.54577 0.09616 0.0
H1670 H 0.86104 0.57115 0.10171 0.0
H1671 H 0.8463 0.54511 0.11481 0.0
H1672 H 0.91404 0.56713 0.17987 0.0
H1673 H 0.9196 0.6076 0.18142 0.0
H1674 H 0.90291 0.61024 0.12401 0.0
C1675 C 0.91642 0.53018 0.12072 0.0
C1676 C 0.9282 0.51564 0.13172 0.0
C1677 C 0.92833 0.51557 0.15023 0.0
C1678 C 0.91888 0.53084 0.15778 0.0
C1679 C 0.90888 0.5458 0.14661 0.0
C1680 C 0.90726 0.54535 0.12841 0.0
C1681 C 0.9008 0.56536 0.11951 0.0
C1682 C 0.929 0.5808 0.10925 0.0
C1683 C 0.86646 0.5563 0.10733 0.0
C1684 C 0.90104 0.57798 0.13561 0.0
C1685 C 0.90481 0.56619 0.15112 0.0
C1686 C 0.91005 0.57616 0.16779 0.0
C1687 C 0.91295 0.59909 0.16858 0.0
C1688 C 0.91113 0.61174 0.1528 0.0
C1689 C 0.90358 0.60063 0.13621 0.0
H1690 H 0.53272 0.56109 0.60126 0.0
H1691 H 0.5044 0.57937 0.64724 0.0
H1692 H 0.54832 0.61953 0.64648 0.0
H1693 H 0.61889 0.59167 0.61333 0.0
H1694 H 0.62629 0.60077 0.59119 0.0
H1695 H 0.59001 0.5746 0.59445 0.0
H1696 H 0.55348 0.59261 0.57392 0.0
H1697 H 0.59044 0.61895 0.57179 0.0
H1698 H 0.5563 0.6205 0.57991 0.0
H1699 H 0.60116 0.65428 0.6451 0.0
H1700 H 0.6553 0.68468 0.63962 0.0
H1701 H 0.64912 0.64542 0.59375 0.0
C1702 C 0.53511 0.5737 0.61088 0.0
C1703 C 0.51514 0.56698 0.62436 0.0
C1704 C 0.51945 0.58397 0.63686 0.0
C1705 C 0.54436 0.6068 0.63662 0.0
C1706 C 0.56472 0.61249 0.62381 0.0
C1707 C 0.55996 0.59667 0.61088 0.0
C1708 C 0.58651 0.60716 0.59914 0.0
C1709 C 0.60655 0.59263 0.59954 0.0
C1710 C 0.57073 0.60997 0.58005 0.0
C1711 C 0.60799 0.63072 0.60824 0.0
C1712 C 0.59471 0.63343 0.62235 0.0
C1713 C 0.61142 0.65266 0.63381 0.0
C1714 C 0.6424 0.66971 0.6307 0.0
C1715 C 0.6565 0.6675 0.61622 0.0
C1716 C 0.63881 0.64778 0.60477 0.0
H1717 H 0.65595 0.60927 0.71744 0.0
H1718 H 0.6884 0.66419 0.75672 0.0
H1719 H 0.63991 0.67266 0.74382 0.0
H1720 H 0.63162 0.6402 0.68146 0.0
H1721 H 0.59649 0.61474 0.6711 0.0
H1722 H 0.63186 0.61181 0.68446 0.0
H1723 H 0.5925 0.58138 0.70388 0.0
H1724 H 0.55711 0.58442 0.69057 0.0
H1725 H 0.56554 0.58896 0.71429 0.0
H1726 H 0.59007 0.67648 0.72568 0.0
H1727 H 0.54287 0.67622 0.70329 0.0
H1728 H 0.5426 0.61861 0.67562 0.0
C1729 C 0.65229 0.62273 0.72348 0.0
C1730 C 0.67517 0.63585 0.73824 0.0
C1731 C 0.67055 0.65379 0.7456 0.0
C1732 C 0.64322 0.65869 0.73834 0.0
C1733 C 0.62113 0.64561 0.72363 0.0
C1734 C 0.62537 0.628 0.71625 0.0
C1735 C 0.5993 0.61759 0.69978 0.0
C1736 C 0.61581 0.62132 0.68323 0.0
C1737 C 0.5773 0.59154 0.7023 0.0
C1738 C 0.57972 0.6321 0.69909 0.0
C1739 C 0.5927 0.6481 0.71297 0.0
C1740 C 0.57955 0.66393 0.71481 0.0
C1741 C 0.55265 0.6636 0.70201 0.0
C1742 C 0.53913 0.64756 0.68751 0.0
C1743 C 0.55264 0.63137 0.6863 0.0
H1744 H 0.33325 0.71541 0.21621 0.0
H1745 H 0.31611 0.64357 0.21038 0.0
H1746 H 0.33974 0.65339 0.18278 0.0
H1747 H 0.302 0.72231 0.17743 0.0
H1748 H 0.33014 0.75197 0.17336 0.0
H1749 H 0.3265 0.74245 0.19566 0.0
H1750 H 0.39032 0.75452 0.20334 0.0
H1751 H 0.39421 0.76447 0.18089 0.0
H1752 H 0.40982 0.74349 0.19007 0.0
H1753 H 0.34396 0.66674 0.15193 0.0
H1754 H 0.33194 0.68266 0.12258 0.0
H1755 H 0.34854 0.74677 0.14777 0.0
C1756 C 0.3367 0.70221 0.20969 0.0
C1757 C 0.32317 0.67886 0.21537 0.0
C1758 C 0.327 0.66168 0.20642 0.0
C1759 C 0.34028 0.66714 0.19063 0.0
C1760 C 0.35029 0.68995 0.18429 0.0
C1761 C 0.34971 0.70747 0.1939 0.0
C1762 C 0.35516 0.72916 0.18285 0.0
C1763 C 0.32674 0.73685 0.18229 0.0
C1764 C 0.38943 0.74909 0.18969 0.0
C1765 C 0.35466 0.72018 0.16497 0.0
C1766 C 0.35314 0.69786 0.16615 0.0
C1767 C 0.34646 0.68451 0.15093 0.0
C1768 C 0.33958 0.69369 0.13426 0.0
C1769 C 0.33903 0.71589 0.13297 0.0
C1770 C 0.34875 0.72974 0.14843 0.0
H1771 H 0.65038 0.72633 0.57636 0.0
H1772 H 0.70543 0.78516 0.61267 0.0
H1773 H 0.65247 0.78221 0.61965 0.0
H1774 H 0.56585 0.7322 0.5649 0.0
H1775 H 0.54382 0.70086 0.56591 0.0
H1776 H 0.58288 0.71389 0.55769 0.0
H1777 H 0.60609 0.6905 0.58085 0.0
H1778 H 0.56787 0.67797 0.58948 0.0
H1779 H 0.60678 0.69397 0.60411 0.0
H1780 H 0.59793 0.76534 0.63004 0.0
H1781 H 0.54791 0.73744 0.64177 0.0
H1782 H 0.52874 0.68774 0.60028 0.0
C1783 C 0.65109 0.73968 0.58473 0.0
C1784 C 0.68189 0.75617 0.59378 0.0
C1785 C 0.68202 0.77268 0.60535 0.0
C1786 C 0.65196 0.771 0.60946 0.0
C1787 C 0.62205 0.75271 0.6019 0.0
C1788 C 0.62137 0.73753 0.58948 0.0
C1789 C 0.58809 0.71618 0.58655 0.0
C1790 C 0.56902 0.71577 0.56764 0.0
C1791 C 0.59251 0.69336 0.5905 0.0
C1792 C 0.57117 0.72084 0.60016 0.0
C1793 C 0.59055 0.7423 0.60849 0.0
C1794 C 0.58205 0.74884 0.62322 0.0
C1795 C 0.55363 0.73283 0.62986 0.0
C1796 C 0.53446 0.71039 0.62196 0.0
C1797 C 0.54276 0.70483 0.60654 0.0
H1798 H 0.67558 0.33267 0.83422 0.0
H1799 H 0.60331 0.2854 0.79298 0.0
H1800 H 0.60076 0.25178 0.8118 0.0
H1801 H 0.7228 0.30671 0.843 0.0
H1802 H 0.73427 0.31028 0.8668 0.0
H1803 H 0.72099 0.33031 0.85397 0.0
H1804 H 0.67412 0.3212 0.87228 0.0
H1805 H 0.68774 0.30138 0.88563 0.0
H1806 H 0.64479 0.29136 0.87474 0.0
H1807 H 0.62199 0.22533 0.82874 0.0
H1808 H 0.65899 0.20802 0.84489 0.0
H1809 H 0.71475 0.27084 0.87707 0.0
C1810 C 0.65721 0.31527 0.8299 0.0
C1811 C 0.63876 0.31151 0.8125 0.0
C1812 C 0.61661 0.28855 0.80656 0.0
C1813 C 0.61528 0.26934 0.81714 0.0
C1814 C 0.636 0.27345 0.83371 0.0
C1815 C 0.65577 0.29593 0.84038 0.0
C1816 C 0.68007 0.29581 0.85698 0.0
C1817 C 0.71664 0.31168 0.85504 0.0
C1818 C 0.67113 0.30285 0.87338 0.0
C1819 C 0.67322 0.27021 0.85754 0.0
C1820 C 0.64731 0.25747 0.8442 0.0
C1821 C 0.64107 0.23471 0.83983 0.0
C1822 C 0.66218 0.22498 0.849 0.0
C1823 C 0.68868 0.23782 0.86262 0.0
C1824 C 0.69344 0.2603 0.86732 0.0
H1825 H 0.02091 0.9194 0.39808 0.0
H1826 H 0.09587 0.98849 0.39001 0.0
H1827 H 0.1305 0.97126 0.38075 0.0
H1828 H 0.08207 0.88782 0.40776 0.0
H1829 H 0.04958 0.86266 0.39551 0.0
H1830 H 0.03887 0.87971 0.409 0.0
H1831 H 0.99927 0.88486 0.38176 0.0
H1832 H 0.01003 0.86831 0.36825 0.0
H1833 H 0.01561 0.89753 0.36183 0.0
H1834 H 0.14563 0.94805 0.36275 0.0
H1835 H 0.13885 0.92234 0.33816 0.0
H1836 H 0.05427 0.86741 0.35698 0.0
C1837 C 0.04579 0.93076 0.39558 0.0
C1838 C 0.05631 0.95515 0.39514 0.0
C1839 C 0.08804 0.96979 0.39098 0.0
C1840 C 0.10774 0.96004 0.38563 0.0
C1841 C 0.09536 0.93569 0.38466 0.0
C1842 C 0.06528 0.92118 0.38997 0.0
C1843 C 0.05354 0.89612 0.38401 0.0
C1844 C 0.0562 0.88067 0.40003 0.0
C1845 C 0.01756 0.88619 0.37331 0.0
C1846 C 0.07921 0.89927 0.37256 0.0
C1847 C 0.10415 0.92194 0.37384 0.0
C1848 C 0.12716 0.93006 0.3622 0.0
C1849 C 0.12334 0.91529 0.3483 0.0
C1850 C 0.09668 0.89275 0.34613 0.0
C1851 C 0.07566 0.88425 0.35896 0.0
H1852 H 0.43324 0.4192 0.40755 0.0
H1853 H 0.43856 0.43619 0.35189 0.0
H1854 H 0.40121 0.3954 0.34349 0.0
H1855 H 0.43404 0.36381 0.40554 0.0
H1856 H 0.4041 0.34884 0.42 0.0
H1857 H 0.42996 0.37977 0.42276 0.0
H1858 H 0.37883 0.38934 0.41911 0.0
H1859 H 0.35277 0.35833 0.41795 0.0
H1860 H 0.34528 0.3769 0.40056 0.0
H1861 H 0.36294 0.35378 0.34068 0.0
H1862 H 0.3291 0.31178 0.34378 0.0
H1863 H 0.34829 0.32058 0.40119 0.0
C1864 C 0.42671 0.4143 0.39362 0.0
C1865 C 0.43878 0.43098 0.3804 0.0
C1866 C 0.4296 0.42384 0.36229 0.0
C1867 C 0.40827 0.40069 0.35734 0.0
C1868 C 0.39632 0.38486 0.37061 0.0
C1869 C 0.40526 0.39118 0.38838 0.0
C1870 C 0.38914 0.37037 0.3999 0.0
C1871 C 0.41588 0.36538 0.4128 0.0
C1872 C 0.3651 0.37398 0.40997 0.0
C1873 C 0.37016 0.3514 0.38577 0.0
C1874 C 0.37439 0.36033 0.36899 0.0
C1875 C 0.35947 0.34648 0.35374 0.0
C1876 C 0.34027 0.32262 0.35567 0.0
C1877 C 0.33627 0.31282 0.37275 0.0
C1878 C 0.35087 0.32754 0.38797 0.0
H1879 H 0.32805 0.40589 0.27093 0.0
H1880 H 0.28012 0.33402 0.25276 0.0
H1881 H 0.33357 0.33733 0.24606 0.0
H1882 H 0.39886 0.42877 0.24208 0.0
H1883 H 0.42795 0.4463 0.26067 0.0
H1884 H 0.38473 0.44154 0.25722 0.0
H1885 H 0.38079 0.4258 0.28922 0.0
H1886 H 0.42353 0.43022 0.29271 0.0
H1887 H 0.39128 0.40164 0.29583 0.0
H1888 H 0.39279 0.34447 0.24932 0.0
H1889 H 0.45116 0.35396 0.26348 0.0
H1890 H 0.46184 0.42079 0.28093 0.0
C1891 C 0.32859 0.39148 0.2644 0.0
C1892 C 0.30009 0.37001 0.26173 0.0
C1893 C 0.30168 0.35082 0.25431 0.0
C1894 C 0.33195 0.35259 0.25048 0.0
C1895 C 0.36043 0.37361 0.25434 0.0
C1896 C 0.35892 0.39286 0.26101 0.0
C1897 C 0.39358 0.41143 0.26785 0.0
C1898 C 0.40176 0.43331 0.25626 0.0
C1899 C 0.39749 0.41758 0.28755 0.0
C1900 C 0.41453 0.39885 0.26544 0.0
C1901 C 0.39521 0.37748 0.25695 0.0
C1902 C 0.40837 0.36146 0.25548 0.0
C1903 C 0.4416 0.36697 0.26354 0.0
C1904 C 0.4609 0.3881 0.27326 0.0
C1905 C 0.44764 0.40461 0.27341 0.0
H1906 H 0.48748 0.34884 0.36479 0.0
H1907 H 0.47389 0.314 0.31521 0.0
H1908 H 0.43241 0.2775 0.3259 0.0
H1909 H 0.47783 0.29659 0.39346 0.0
H1910 H 0.45652 0.30435 0.40786 0.0
H1911 H 0.48772 0.32689 0.39697 0.0
H1912 H 0.4448 0.34307 0.38345 0.0
H1913 H 0.41318 0.32054 0.39403 0.0
H1914 H 0.40587 0.32406 0.37027 0.0
H1915 H 0.38592 0.2469 0.3401 0.0
H1916 H 0.34154 0.22397 0.35771 0.0
H1917 H 0.3891 0.27739 0.39901 0.0
C1918 C 0.47624 0.33339 0.35635 0.0
C1919 C 0.48382 0.33427 0.33917 0.0
C1920 C 0.46858 0.3137 0.32847 0.0
C1921 C 0.44499 0.29286 0.33443 0.0
C1922 C 0.43759 0.29265 0.35133 0.0
C1923 C 0.45334 0.31224 0.36229 0.0
C1924 C 0.43988 0.30773 0.37953 0.0
C1925 C 0.46712 0.30896 0.39539 0.0
C1926 C 0.42502 0.32486 0.38198 0.0
C1927 C 0.41301 0.28296 0.37623 0.0
C1928 C 0.41212 0.27449 0.35991 0.0
C1929 C 0.38701 0.25304 0.35314 0.0
C1930 C 0.36194 0.24011 0.3632 0.0
C1931 C 0.36247 0.24853 0.37993 0.0
C1932 C 0.3888 0.27001 0.38661 0.0
H1933 H 0.92812 0.10964 0.67343 0.0
H1934 H 0.87742 0.12986 0.62637 0.0
H1935 H 0.86378 0.09262 0.61169 0.0
H1936 H 0.96985 0.0916 0.65282 0.0
H1937 H 0.9689 0.067 0.66635 0.0
H1938 H 0.96438 0.09042 0.67566 0.0
H1939 H 0.90791 0.06152 0.68436 0.0
H1940 H 0.91256 0.03773 0.67545 0.0
H1941 H 0.87528 0.04212 0.66776 0.0
H1942 H 0.87045 0.0604 0.59938 0.0
H1943 H 0.89286 0.03384 0.59124 0.0
H1944 H 0.93781 0.03295 0.64634 0.0
C1945 C 0.91201 0.1053 0.66056 0.0
C1946 C 0.90264 0.12201 0.65119 0.0
C1947 C 0.88367 0.11677 0.63389 0.0
C1948 C 0.876 0.09572 0.62544 0.0
C1949 C 0.8876 0.08017 0.63451 0.0
C1950 C 0.90463 0.08444 0.65188 0.0
C1951 C 0.91966 0.06721 0.65749 0.0
C1952 C 0.95793 0.07982 0.66341 0.0
C1953 C 0.90283 0.05119 0.67213 0.0
C1954 C 0.91052 0.05379 0.64022 0.0
C1955 C 0.89154 0.06122 0.62723 0.0
C1956 C 0.88434 0.05385 0.60958 0.0
C1957 C 0.89738 0.03887 0.60505 0.0
C1958 C 0.91743 0.03142 0.61811 0.0
C1959 C 0.92283 0.03832 0.636 0.0
H1960 H 0.79777 0.20955 0.12078 0.0
H1961 H 0.86284 0.27662 0.14598 0.0
H1962 H 0.87492 0.2568 0.17347 0.0
H1963 H 0.75777 0.18875 0.15431 0.0
H1964 H 0.75034 0.15866 0.15236 0.0
H1965 H 0.75658 0.177 0.13328 0.0
H1966 H 0.80557 0.1675 0.12915 0.0
H1967 H 0.79939 0.14911 0.14843 0.0
H1968 H 0.83989 0.17261 0.14727 0.0
H1969 H 0.86882 0.23141 0.19959 0.0
H1970 H 0.84203 0.20354 0.22224 0.0
H1971 H 0.77812 0.15279 0.18097 0.0
C1972 C 0.81621 0.21989 0.13175 0.0
C1973 C 0.83043 0.24449 0.13118 0.0
C1974 C 0.85262 0.25771 0.1461 0.0
C1975 C 0.85959 0.24656 0.16173 0.0
C1976 C 0.84374 0.22219 0.16227 0.0
C1977 C 0.82243 0.20898 0.14761 0.0
C1978 C 0.80263 0.18387 0.15261 0.0
C1979 C 0.76463 0.17668 0.14787 0.0
C1980 C 0.81248 0.16729 0.14385 0.0
C1981 C 0.81446 0.18533 0.17251 0.0
C1982 C 0.83911 0.20735 0.17775 0.0
C1983 C 0.85046 0.21389 0.19564 0.0
C1984 C 0.83526 0.19797 0.20844 0.0
C1985 C 0.80899 0.1759 0.20323 0.0
C1986 C 0.7993 0.16921 0.18517 0.0
H1987 H 0.28882 0.40051 0.35275 0.0
H1988 H 0.30273 0.43732 0.30296 0.0
H1989 H 0.34716 0.47244 0.31903 0.0
H1990 H 0.3052 0.45392 0.37942 0.0
H1991 H 0.32535 0.4442 0.39874 0.0
H1992 H 0.29192 0.42311 0.38344 0.0
H1993 H 0.33035 0.40385 0.38013 0.0
H1994 H 0.36511 0.42509 0.39462 0.0
H1995 H 0.36899 0.42071 0.37227 0.0
H1996 H 0.39577 0.50108 0.33988 0.0
H1997 H 0.4427 0.52163 0.36421 0.0
H1998 H 0.39411 0.46776 0.40074 0.0
C1999 C 0.30081 0.41616 0.34534 0.0
C2000 C 0.2925 0.41626 0.32666 0.0
C2001 C 0.30865 0.43698 0.31732 0.0
C2002 C 0.33385 0.45703 0.32632 0.0
C2003 C 0.34186 0.45634 0.34474 0.0
C2004 C 0.32524 0.43663 0.3542 0.0
C2005 C 0.33964 0.44014 0.37383 0.0
C2006 C 0.314 0.44036 0.38449 0.0
C2007 C 0.3518 0.42136 0.38066 0.0
C2008 C 0.36842 0.46418 0.37376 0.0
C2009 C 0.36898 0.4734 0.35689 0.0
C2010 C 0.39509 0.49437 0.35324 0.0
C2011 C 0.42163 0.50595 0.36712 0.0
C2012 C 0.42171 0.49663 0.38443 0.0
C2013 C 0.39423 0.4758 0.3878 0.0
H2014 H 0.56672 0.52902 0.63163 0.0
H2015 H 0.55168 0.4711 0.66751 0.0
H2016 H 0.60948 0.4922 0.68369 0.0
H2017 H 0.66452 0.5541 0.63606 0.0
H2018 H 0.66562 0.5829 0.63506 0.0
H2019 H 0.63066 0.55889 0.62274 0.0
H2020 H 0.59157 0.56942 0.63889 0.0
H2021 H 0.62743 0.59198 0.65152 0.0
H2022 H 0.59769 0.56887 0.6628 0.0
H2023 H 0.66219 0.5222 0.69965 0.0
H2024 H 0.7026 0.5584 0.71544 0.0
H2025 H 0.68013 0.59906 0.67132 0.0
C2026 C 0.57664 0.52024 0.64213 0.0
C2027 C 0.55567 0.49812 0.64792 0.0
C2028 C 0.56808 0.48763 0.66251 0.0
C2029 C 0.60081 0.49958 0.67177 0.0
C2030 C 0.62029 0.52215 0.66645 0.0
C2031 C 0.60863 0.5324 0.65191 0.0
C2032 C 0.6307 0.55838 0.65132 0.0
C2033 C 0.64897 0.56393 0.63535 0.0
C2034 C 0.61066 0.57299 0.65114 0.0
C2035 C 0.65494 0.56155 0.66856 0.0
C2036 C 0.64951 0.54029 0.67661 0.0
C2037 C 0.66702 0.53887 0.69331 0.0
C2038 C 0.68986 0.55965 0.70223 0.0
C2039 C 0.69439 0.5817 0.6947 0.0
C2040 C 0.67743 0.58254 0.67739 0.0
H2041 H 0.22179 0.76623 0.87658 0.0
H2042 H 0.16207 0.70705 0.84126 0.0
H2043 H 0.12742 0.72709 0.82714 0.0
H2044 H 0.15542 0.79081 0.87636 0.0
H2045 H 0.18761 0.82005 0.87533 0.0
H2046 H 0.19758 0.79793 0.88759 0.0
H2047 H 0.24428 0.80615 0.86927 0.0
H2048 H 0.2342 0.8278 0.85686 0.0
H2049 H 0.23375 0.80383 0.84535 0.0
H2050 H 0.11138 0.75646 0.81145 0.0
H2051 H 0.11842 0.79225 0.79447 0.0
H2052 H 0.19072 0.83431 0.83825 0.0
C2053 C 0.19985 0.75698 0.86673 0.0
C2054 C 0.19348 0.73483 0.86044 0.0
C2055 C 0.16632 0.72367 0.84665 0.0
C2056 C 0.14661 0.735 0.83858 0.0
C2057 C 0.15486 0.75765 0.84425 0.0
C2058 C 0.18089 0.76852 0.85813 0.0
C2059 C 0.19058 0.79455 0.85872 0.0
C2060 C 0.18229 0.80122 0.8755 0.0
C2061 C 0.22787 0.80887 0.85745 0.0
C2062 C 0.16787 0.79701 0.84223 0.0
C2063 C 0.14643 0.77538 0.83451 0.0
C2064 C 0.12704 0.77338 0.81769 0.0
C2065 C 0.13101 0.7938 0.80815 0.0
C2066 C 0.15414 0.8159 0.81542 0.0
C2067 C 0.17159 0.8176 0.83292 0.0
H2068 H 0.62279 0.09615 0.20739 0.0
H2069 H 0.69698 0.08269 0.18734 0.0
H2070 H 0.65189 0.0531 0.1662 0.0
H2071 H 0.55745 0.03415 0.20348 0.0
H2072 H 0.52491 0.04413 0.19805 0.0
H2073 H 0.56361 0.06156 0.21236 0.0
H2074 H 0.57064 0.09677 0.19087 0.0
H2075 H 0.53237 0.07877 0.17677 0.0
H2076 H 0.57046 0.09299 0.16775 0.0
H2077 H 0.59891 0.03007 0.14411 0.0
H2078 H 0.5443 0.01597 0.12389 0.0
H2079 H 0.50489 0.04077 0.16153 0.0
C2080 C 0.62944 0.08675 0.19866 0.0
C2081 C 0.66312 0.09172 0.19873 0.0
C2082 C 0.67113 0.07902 0.18736 0.0
C2083 C 0.64572 0.06217 0.17541 0.0
C2084 C 0.61255 0.05778 0.17553 0.0
C2085 C 0.60447 0.0695 0.18712 0.0
C2086 C 0.56734 0.06258 0.18422 0.0
C2087 C 0.55243 0.04984 0.20049 0.0
C2088 C 0.55977 0.08403 0.17962 0.0
C2089 C 0.5558 0.04606 0.16852 0.0
C2090 C 0.58207 0.04332 0.1637 0.0
C2091 C 0.57797 0.03152 0.14805 0.0
C2092 C 0.54674 0.02341 0.13667 0.0
C2093 C 0.52005 0.02708 0.14107 0.0
C2094 C 0.52438 0.03725 0.15777 0.0
H2095 H 0.42609 0.98466 0.85741 0.0
H2096 H 0.40016 0.96659 0.90999 0.0
H2097 H 0.3493 0.93261 0.89738 0.0
H2098 H 0.33946 0.96556 0.83283 0.0
H2099 H 0.34826 0.95433 0.81439 0.0
H2100 H 0.38093 0.97867 0.82738 0.0
H2101 H 0.41752 0.9557 0.83313 0.0
H2102 H 0.38459 0.93111 0.82057 0.0
H2103 H 0.40148 0.9273 0.84315 0.0
H2104 H 0.3047 0.89788 0.87983 0.0
H2105 H 0.26421 0.86837 0.85731 0.0
H2106 H 0.31797 0.90884 0.81613 0.0
C2107 C 0.40941 0.97384 0.86622 0.0
C2108 C 0.41751 0.97829 0.88474 0.0
C2109 C 0.39466 0.96376 0.89575 0.0
C2110 C 0.36575 0.94419 0.88875 0.0
C2111 C 0.35958 0.93952 0.87063 0.0
C2112 C 0.38025 0.95422 0.85941 0.0
C2113 C 0.36819 0.94484 0.84049 0.0
C2114 C 0.35864 0.96186 0.82804 0.0
C2115 C 0.39453 0.93942 0.83396 0.0
C2116 C 0.33765 0.9226 0.84288 0.0
C2117 C 0.33339 0.9197 0.86042 0.0
C2118 C 0.30757 0.90007 0.86601 0.0
C2119 C 0.28494 0.88326 0.85322 0.0
C2120 C 0.28826 0.88635 0.83514 0.0
C2121 C 0.31501 0.90618 0.82994 0.0
H2122 H 0.80315 0.72637 0.64107 0.0
H2123 H 0.78996 0.66641 0.61119 0.0
H2124 H 0.80406 0.64825 0.63917 0.0
H2125 H 0.86819 0.72497 0.6789 0.0
H2126 H 0.84883 0.7324 0.69462 0.0
H2127 H 0.84648 0.74318 0.67224 0.0
H2128 H 0.78176 0.72502 0.66854 0.0
H2129 H 0.78389 0.71421 0.69079 0.0
H2130 H 0.75923 0.69427 0.67251 0.0
H2131 H 0.81011 0.6338 0.67067 0.0
H2132 H 0.80449 0.62389 0.70214 0.0
H2133 H 0.80894 0.69203 0.71078 0.0
C2134 C 0.80374 0.70961 0.64032 0.0
C2135 C 0.79508 0.69774 0.62395 0.0
C2136 C 0.79665 0.67593 0.62359 0.0
C2137 C 0.80469 0.66548 0.63943 0.0
C2138 C 0.81123 0.67712 0.65547 0.0
C2139 C 0.81092 0.69879 0.65597 0.0
C2140 C 0.81348 0.70616 0.67473 0.0
C2141 C 0.8462 0.72797 0.68046 0.0
C2142 C 0.78277 0.71013 0.67675 0.0
C2143 C 0.81386 0.68486 0.6847 0.0
C2144 C 0.81353 0.66853 0.6735 0.0
C2145 C 0.8111 0.64666 0.67961 0.0
C2146 C 0.80805 0.64119 0.69748 0.0
C2147 C 0.80671 0.65737 0.70878 0.0
C2148 C 0.81048 0.67958 0.70239 0.0
H2149 H 0.20493 0.34924 0.33532 0.0
H2150 H 0.12405 0.30483 0.29568 0.0
H2151 H 0.11659 0.27064 0.31485 0.0
H2152 H 0.24329 0.31636 0.34344 0.0
H2153 H 0.25718 0.32093 0.36707 0.0
H2154 H 0.24827 0.3426 0.35389 0.0
H2155 H 0.20567 0.34016 0.37338 0.0
H2156 H 0.2148 0.31856 0.38693 0.0
H2157 H 0.17227 0.31229 0.37689 0.0
H2158 H 0.1317 0.24129 0.33199 0.0
H2159 H 0.16371 0.22005 0.34758 0.0
H2160 H 0.2315 0.28235 0.37827 0.0
C2161 C 0.18406 0.33257 0.33141 0.0
C2162 C 0.16426 0.32963 0.31441 0.0
C2163 C 0.13852 0.30744 0.30899 0.0
C2164 C 0.13432 0.28791 0.31977 0.0
C2165 C 0.15585 0.29099 0.33602 0.0
C2166 C 0.17963 0.31296 0.3421 0.0
C2167 C 0.20342 0.31123 0.35838 0.0
C2168 C 0.24015 0.32347 0.35549 0.0
C2169 C 0.19874 0.32114 0.37487 0.0
C2170 C 0.19125 0.28495 0.35952 0.0
C2171 C 0.16346 0.2735 0.34668 0.0
C2172 C 0.15226 0.24981 0.34271 0.0
C2173 C 0.17048 0.2378 0.35162 0.0
C2174 C 0.199 0.24937 0.36462 0.0
C2175 C 0.20855 0.27287 0.3691 0.0
loop_
_geom_bond_atom_site_label_1
_geom_bond_atom_site_label_2
_geom_bond_distance
_geom_bond_site_symmetry_2
_ccdc_geom_bond_type
Mg0 O1 2.028 . S
Mg0 O7 1.986 . S
Mg0 O9 2.114 1_455 S
Mg0 O10 2.251 1_455 S
Mg0 O13 2.010 1_455 S
O1 Mg0 2.028 . S
O1 C4 1.250 . S
O2 Mg3 2.028 . S
O2 C4 1.248 . S
Mg3 O2 2.028 . S
Mg3 O8 2.032 . S
Mg3 O10 2.079 1_455 S
C4 O1 1.250 . S
C4 O2 1.248 . S
C5 O6 1.264 . S
C5 O13 1.249 1_565 S
O6 C5 1.264 . S
O7 Mg0 1.986 . S
O7 C11 1.246 . S
O8 Mg3 2.032 . S
O8 C11 1.259 . S
O9 Mg0 2.114 1_655 S
O9 C12 1.252 . S
O10 Mg0 2.251 1_655 S
O10 Mg3 2.079 1_655 S
O10 C12 1.273 . S
C11 O7 1.246 . S
C11 O8 1.259 . S
C12 O9 1.252 . S
C12 O10 1.273 . S
O13 Mg0 2.010 1_655 S
O13 C5 1.249 1_545 S
Mg14 O15 2.028 1_455 S
Mg14 O21 1.986 1_455 S
Mg14 O23 2.114 . S
Mg14 O24 2.251 . S
Mg14 O27 2.010 . S
O15 Mg14 2.028 1_655 S
O15 C18 1.250 . S
O16 Mg17 2.028 . S
O16 C18 1.248 . S
Mg17 O16 2.028 . S
Mg17 O22 2.032 . S
Mg17 O24 2.079 1_655 S
C18 O15 1.250 . S
C18 O16 1.248 . S
C19 O20 1.264 . S
C19 O27 1.249 . S
O20 C19 1.264 . S
O21 Mg14 1.986 1_655 S
O21 C25 1.246 . S
O22 Mg17 2.032 . S
O22 C25 1.259 . S
O23 Mg14 2.114 . S
O23 C26 1.252 . S
O24 Mg14 2.251 . S
O24 Mg17 2.079 1_455 S
O24 C26 1.273 . S
C25 O21 1.246 . S
C25 O22 1.259 . S
C26 O23 1.252 . S
C26 O24 1.273 . S
O27 Mg14 2.010 . S
O27 C19 1.249 . S
Mg28 O29 2.028 . S
Mg28 O35 1.986 . S
Mg28 O37 2.114 . S
Mg28 O38 2.251 . S
Mg28 O41 2.010 . S
O29 Mg28 2.028 . S
O29 C32 1.250 . S
O30 Mg31 2.028 . S
O30 C32 1.248 . S
Mg31 O30 2.028 . S
Mg31 O36 2.032 . S
Mg31 O38 2.079 . S
C32 O29 1.250 . S
C32 O30 1.248 . S
C33 O34 1.264 . S
C33 O41 1.249 . S
O34 C33 1.264 . S
O35 Mg28 1.986 . S
O35 C39 1.246 . S
O36 Mg31 2.032 . S
O36 C39 1.259 . S
O37 Mg28 2.114 . S
O37 C40 1.252 . S
O38 Mg28 2.251 . S
O38 Mg31 2.079 . S
O38 C40 1.273 . S
C39 O35 1.246 . S
C39 O36 1.259 . S
C40 O37 1.252 . S
C40 O38 1.273 . S
O41 Mg28 2.010 . S
O41 C33 1.249 . S
Mg42 O43 2.028 . S
Mg42 O49 1.986 . S
Mg42 O51 2.114 . S
Mg42 O52 2.251 . S
Mg42 O55 2.010 . S
O43 Mg42 2.028 . S
O43 C46 1.250 . S
O44 Mg45 2.028 . S
O44 C46 1.248 . S
Mg45 O44 2.028 . S
Mg45 O50 2.032 . S
Mg45 O52 2.079 . S
C46 O43 1.250 . S
C46 O44 1.248 . S
C47 O48 1.264 . S
C47 O55 1.249 . S
O48 C47 1.264 . S
O49 Mg42 1.986 . S
O49 C53 1.246 . S
O50 Mg45 2.032 . S
O50 C53 1.259 . S
O51 Mg42 2.114 . S
O51 C54 1.252 . S
O52 Mg42 2.251 . S
O52 Mg45 2.079 . S
O52 C54 1.273 . S
C53 O49 1.246 . S
C53 O50 1.259 . S
C54 O51 1.252 . S
C54 O52 1.273 . S
O55 Mg42 2.010 . S
O55 C47 1.249 . S
Mg56 O57 2.028 1_655 S
Mg56 O63 1.986 1_655 S
Mg56 O65 2.114 . S
Mg56 O66 2.251 . S
Mg56 O69 2.010 . S
O57 Mg56 2.028 1_455 S
O57 C60 1.250 . S
O58 Mg59 2.028 . S
O58 C60 1.248 . S
Mg59 O58 2.028 . S
Mg59 O64 2.032 . S
Mg59 O66 2.079 1_455 S
C60 O57 1.250 . S
C60 O58 1.248 . S
C61 O62 1.264 . S
C61 O69 1.249 . S
O62 C61 1.264 . S
O63 Mg56 1.986 1_455 S
O63 C67 1.246 . S
O64 Mg59 2.032 . S
O64 C67 1.259 . S
O65 Mg56 2.114 . S
O65 C68 1.252 . S
O66 Mg56 2.251 . S
O66 Mg59 2.079 1_655 S
O66 C68 1.273 . S
C67 O63 1.246 . S
C67 O64 1.259 . S
C68 O65 1.252 . S
C68 O66 1.273 . S
O69 Mg56 2.010 . S
O69 C61 1.249 . S
Mg70 O71 2.028 . S
Mg70 O77 1.986 . S
Mg70 O79 2.114 . S
Mg70 O80 2.251 . S
Mg70 O83 2.010 . S
O71 Mg70 2.028 . S
O71 C74 1.250 . S
O72 Mg73 2.028 . S
O72 C74 1.248 . S
Mg73 O72 2.028 . S
Mg73 O78 2.032 . S
Mg73 O80 2.079 . S
C74 O71 1.250 . S
C74 O72 1.248 . S
C75 O76 1.264 . S
C75 O83 1.249 . S
O76 C75 1.264 . S
O77 Mg70 1.986 . S
O77 C81 1.246 . S
O78 Mg73 2.032 . S
O78 C81 1.259 . S
O79 Mg70 2.114 . S
O79 C82 1.252 . S
O80 Mg70 2.251 . S
O80 Mg73 2.079 . S
O80 C82 1.273 . S
C81 O77 1.246 . S
C81 O78 1.259 . S
C82 O79 1.252 . S
C82 O80 1.273 . S
O83 Mg70 2.010 . S
O83 C75 1.249 . S
Mg84 O85 2.028 . S
Mg84 O91 1.986 . S
Mg84 O93 2.114 . S
Mg84 O94 2.251 . S
Mg84 O97 2.010 . S
O85 Mg84 2.028 . S
O85 C88 1.250 . S
O86 Mg87 2.028 . S
O86 C88 1.248 . S
Mg87 O86 2.028 . S
Mg87 O92 2.032 . S
Mg87 O94 2.079 . S
C88 O85 1.250 . S
C88 O86 1.248 . S
C89 O90 1.264 . S
C89 O97 1.249 . S
O90 C89 1.264 . S
O91 Mg84 1.986 . S
O91 C95 1.246 . S
O92 Mg87 2.032 . S
O92 C95 1.259 . S
O93 Mg84 2.114 . S
O93 C96 1.252 . S
O94 Mg84 2.251 . S
O94 Mg87 2.079 . S
O94 C96 1.273 . S
C95 O91 1.246 . S
C95 O92 1.259 . S
C96 O93 1.252 . S
C96 O94 1.273 . S
O97 Mg84 2.010 . S
O97 C89 1.249 . S
Mg98 O99 2.028 . S
Mg98 O105 1.986 1_655 S
Mg98 O107 2.114 . S
Mg98 O108 2.251 . S
Mg98 O111 2.010 1_655 S
O99 Mg98 2.028 . S
O99 C102 1.250 . S
O100 Mg101 2.028 . S
O100 C102 1.248 . S
Mg101 O100 2.028 . S
Mg101 O106 2.032 1_655 S
Mg101 O108 2.079 . S
C102 O99 1.250 . S
C102 O100 1.248 . S
C103 O104 1.264 . S
C103 O111 1.249 1_545 S
O104 C103 1.264 . S
O105 Mg98 1.986 1_455 S
O105 C109 1.246 . S
O106 Mg101 2.032 1_455 S
O106 C109 1.259 . S
O107 Mg98 2.114 . S
O107 C110 1.252 . S
O108 Mg98 2.251 . S
O108 Mg101 2.079 . S
O108 C110 1.273 . S
C109 O105 1.246 . S
C109 O106 1.259 . S
C110 O107 1.252 . S
C110 O108 1.273 . S
O111 Mg98 2.010 1_455 S
O111 C103 1.249 1_565 S
Mg112 O113 2.028 . S
Mg112 O119 1.986 . S
Mg112 O121 2.114 . S
Mg112 O122 2.251 . S
Mg112 O125 2.010 . S
O113 Mg112 2.028 . S
O113 C116 1.250 . S
O114 Mg115 2.028 . S
O114 C116 1.248 . S
Mg115 O114 2.028 . S
Mg115 O120 2.032 . S
Mg115 O122 2.079 . S
C116 O113 1.250 . S
C116 O114 1.248 . S
C117 O118 1.264 . S
C117 O125 1.249 1_565 S
O118 C117 1.264 . S
O119 Mg112 1.986 . S
O119 C123 1.246 . S
O120 Mg115 2.032 . S
O120 C123 1.259 . S
O121 Mg112 2.114 . S
O121 C124 1.252 . S
O122 Mg112 2.251 . S
O122 Mg115 2.079 . S
O122 C124 1.273 . S
C123 O119 1.246 . S
C123 O120 1.259 . S
C124 O121 1.252 . S
C124 O122 1.273 . S
O125 Mg112 2.010 . S
O125 C117 1.249 1_545 S
Mg126 O127 2.028 1_455 S
Mg126 O133 1.986 1_455 S
Mg126 O135 2.114 . S
Mg126 O136 2.251 . S
Mg126 O139 2.010 . S
O127 Mg126 2.028 1_655 S
O127 C130 1.250 . S
O128 Mg129 2.028 . S
O128 C130 1.248 . S
Mg129 O128 2.028 . S
Mg129 O134 2.032 . S
Mg129 O136 2.079 1_655 S
C130 O127 1.250 . S
C130 O128 1.248 . S
C131 O132 1.264 . S
C131 O139 1.249 . S
O132 C131 1.264 . S
O133 Mg126 1.986 1_655 S
O133 C137 1.246 . S
O134 Mg129 2.032 . S
O134 C137 1.259 . S
O135 Mg126 2.114 . S
O135 C138 1.252 . S
O136 Mg126 2.251 . S
O136 Mg129 2.079 1_455 S
O136 C138 1.273 . S
C137 O133 1.246 . S
C137 O134 1.259 . S
C138 O135 1.252 . S
C138 O136 1.273 . S
O139 Mg126 2.010 . S
O139 C131 1.249 . S
Mg140 O141 2.028 . S
Mg140 O147 1.986 . S
Mg140 O149 2.114 . S
Mg140 O150 2.251 . S
Mg140 O153 2.010 . S
O141 Mg140 2.028 . S
O141 C144 1.250 . S
O142 Mg143 2.028 . S
O142 C144 1.248 . S
Mg143 O142 2.028 . S
Mg143 O148 2.032 . S
Mg143 O150 2.079 . S
C144 O141 1.250 . S
C144 O142 1.248 . S
C145 O146 1.264 . S
C145 O153 1.249 . S
O146 C145 1.264 . S
O147 Mg140 1.986 . S
O147 C151 1.246 . S
O148 Mg143 2.032 . S
O148 C151 1.259 . S
O149 Mg140 2.114 . S
O149 C152 1.252 . S
O150 Mg140 2.251 . S
O150 Mg143 2.079 . S
O150 C152 1.273 . S
C151 O147 1.246 . S
C151 O148 1.259 . S
C152 O149 1.252 . S
C152 O150 1.273 . S
O153 Mg140 2.010 . S
O153 C145 1.249 . S
Mg154 O155 2.028 . S
Mg154 O161 1.986 . S
Mg154 O163 2.114 . S
Mg154 O164 2.251 . S
Mg154 O167 2.010 . S
O155 Mg154 2.028 . S
O155 C158 1.250 . S
O156 Mg157 2.028 . S
O156 C158 1.248 . S
Mg157 O156 2.028 . S
Mg157 O162 2.032 . S
Mg157 O164 2.079 . S
C158 O155 1.250 . S
C158 O156 1.248 . S
C159 O160 1.264 . S
C159 O167 1.249 . S
O160 C159 1.264 . S
O161 Mg154 1.986 . S
O161 C165 1.246 . S
O162 Mg157 2.032 . S
O162 C165 1.259 . S
O163 Mg154 2.114 . S
O163 C166 1.252 . S
O164 Mg154 2.251 . S
O164 Mg157 2.079 . S
O164 C166 1.273 . S
C165 O161 1.246 . S
C165 O162 1.259 . S
C166 O163 1.252 . S
C166 O164 1.273 . S
O167 Mg154 2.010 . S
O167 C159 1.249 . S
Mg168 O169 2.028 . S
Mg168 O175 1.986 . S
Mg168 O177 2.114 . S
Mg168 O178 2.251 . S
Mg168 O181 2.010 . S
O169 Mg168 2.028 . S
O169 C172 1.250 . S
O170 Mg171 2.028 . S
O170 C172 1.248 . S
Mg171 O170 2.028 . S
Mg171 O176 2.032 . S
Mg171 O178 2.079 . S
C172 O169 1.250 . S
C172 O170 1.248 . S
C173 O174 1.264 . S
C173 O181 1.249 . S
O174 C173 1.264 . S
O175 Mg168 1.986 . S
O175 C179 1.246 . S
O176 Mg171 2.032 . S
O176 C179 1.259 . S
O177 Mg168 2.114 . S
O177 C180 1.252 . S
O178 Mg168 2.251 . S
O178 Mg171 2.079 . S
O178 C180 1.273 . S
C179 O175 1.246 . S
C179 O176 1.259 . S
C180 O177 1.252 . S
C180 O178 1.273 . S
O181 Mg168 2.010 . S
O181 C173 1.249 . S
Mg182 O183 2.028 . S
Mg182 O189 1.986 . S
Mg182 O191 2.114 . S
Mg182 O192 2.251 . S
Mg182 O195 2.010 . S
O183 Mg182 2.028 . S
O183 C186 1.250 . S
O184 Mg185 2.028 . S
O184 C186 1.248 . S
Mg185 O184 2.028 . S
Mg185 O190 2.032 . S
Mg185 O192 2.079 . S
C186 O183 1.250 . S
C186 O184 1.248 . S
C187 O188 1.264 . S
C187 O195 1.249 . S
O188 C187 1.264 . S
O189 Mg182 1.986 . S
O189 C193 1.246 . S
O190 Mg185 2.032 . S
O190 C193 1.259 . S
O191 Mg182 2.114 . S
O191 C194 1.252 . S
O192 Mg182 2.251 . S
O192 Mg185 2.079 . S
O192 C194 1.273 . S
C193 O189 1.246 . S
C193 O190 1.259 . S
C194 O191 1.252 . S
C194 O192 1.273 . S
O195 Mg182 2.010 . S
O195 C187 1.249 . S
Mg196 O197 2.028 . S
Mg196 O203 1.986 . S
Mg196 O205 2.114 . S
Mg196 O206 2.251 . S
Mg196 O209 2.010 . S
O197 Mg196 2.028 . S
O197 C200 1.250 . S
O198 Mg199 2.028 . S
O198 C200 1.248 . S
Mg199 O198 2.028 . S
Mg199 O204 2.032 . S
Mg199 O206 2.079 . S
C200 O197 1.250 . S
C200 O198 1.248 . S
C201 O202 1.264 . S
C201 O209 1.249 . S
O202 C201 1.264 . S
O203 Mg196 1.986 . S
O203 C207 1.246 . S
O204 Mg199 2.032 . S
O204 C207 1.259 . S
O205 Mg196 2.114 . S
O205 C208 1.252 . S
O206 Mg196 2.251 . S
O206 Mg199 2.079 . S
O206 C208 1.273 . S
C207 O203 1.246 . S
C207 O204 1.259 . S
C208 O205 1.252 . S
C208 O206 1.273 . S
O209 Mg196 2.010 . S
O209 C201 1.249 . S
Mg210 O211 2.028 . S
Mg210 O217 1.986 1_655 S
Mg210 O219 2.114 . S
Mg210 O220 2.251 . S
Mg210 O223 2.010 1_655 S
O211 Mg210 2.028 . S
O211 C214 1.250 . S
O212 Mg213 2.028 . S
O212 C214 1.248 . S
Mg213 O212 2.028 . S
Mg213 O218 2.032 1_655 S
Mg213 O220 2.079 . S
C214 O211 1.250 . S
C214 O212 1.248 . S
C215 O216 1.264 . S
C215 O223 1.249 . S
O216 C215 1.264 . S
O217 Mg210 1.986 1_455 S
O217 C221 1.246 . S
O218 Mg213 2.032 1_455 S
O218 C221 1.259 . S
O219 Mg210 2.114 . S
O219 C222 1.252 . S
O220 Mg210 2.251 . S
O220 Mg213 2.079 . S
O220 C222 1.273 . S
C221 O217 1.246 . S
C221 O218 1.259 . S
C222 O219 1.252 . S
C222 O220 1.273 . S
O223 Mg210 2.010 1_455 S
O223 C215 1.249 . S
Mg224 O225 2.028 . S
Mg224 O231 1.986 . S
Mg224 O233 2.114 1_455 S
Mg224 O234 2.251 1_455 S
Mg224 O237 2.010 1_455 S
O225 Mg224 2.028 . S
O225 C228 1.250 . S
O226 Mg227 2.028 . S
O226 C228 1.248 . S
Mg227 O226 2.028 . S
Mg227 O232 2.032 . S
Mg227 O234 2.079 1_455 S
C228 O225 1.250 . S
C228 O226 1.248 . S
C229 O230 1.264 . S
C229 O237 1.249 . S
O230 C229 1.264 . S
O231 Mg224 1.986 . S
O231 C235 1.246 . S
O232 Mg227 2.032 . S
O232 C235 1.259 . S
O233 Mg224 2.114 1_655 S
O233 C236 1.252 . S
O234 Mg224 2.251 1_655 S
O234 Mg227 2.079 1_655 S
O234 C236 1.273 . S
C235 O231 1.246 . S
C235 O232 1.259 . S
C236 O233 1.252 . S
C236 O234 1.273 . S
O237 Mg224 2.010 1_655 S
O237 C229 1.249 . S
Mg238 O239 2.028 . S
Mg238 O245 1.986 . S
Mg238 O247 2.114 . S
Mg238 O248 2.251 . S
Mg238 O251 2.010 . S
O239 Mg238 2.028 . S
O239 C242 1.250 . S
O240 Mg241 2.028 . S
O240 C242 1.248 . S
Mg241 O240 2.028 . S
Mg241 O246 2.032 . S
Mg241 O248 2.079 . S
C242 O239 1.250 . S
C242 O240 1.248 . S
C243 O244 1.264 . S
C243 O251 1.249 . S
O244 C243 1.264 . S
O245 Mg238 1.986 . S
O245 C249 1.246 . S
O246 Mg241 2.032 . S
O246 C249 1.259 . S
O247 Mg238 2.114 . S
O247 C250 1.252 . S
O248 Mg238 2.251 . S
O248 Mg241 2.079 . S
O248 C250 1.273 . S
C249 O245 1.246 . S
C249 O246 1.259 . S
C250 O247 1.252 . S
C250 O248 1.273 . S
O251 Mg238 2.010 . S
O251 C243 1.249 . S
Mg252 O253 2.028 . S
Mg252 O259 1.986 . S
Mg252 O261 2.114 . S
Mg252 O262 2.251 . S
Mg252 O265 2.010 . S
O253 Mg252 2.028 . S
O253 C256 1.250 . S
O254 Mg255 2.028 . S
O254 C256 1.248 . S
Mg255 O254 2.028 . S
Mg255 O260 2.032 . S
Mg255 O262 2.079 . S
C256 O253 1.250 . S
C256 O254 1.248 . S
C257 O258 1.264 . S
C257 O265 1.249 . S
O258 C257 1.264 . S
O259 Mg252 1.986 . S
O259 C263 1.246 . S
O260 Mg255 2.032 . S
O260 C263 1.259 . S
O261 Mg252 2.114 . S
O261 C264 1.252 . S
O262 Mg252 2.251 . S
O262 Mg255 2.079 . S
O262 C264 1.273 . S
C263 O259 1.246 . S
C263 O260 1.259 . S
C264 O261 1.252 . S
C264 O262 1.273 . S
O265 Mg252 2.010 . S
O265 C257 1.249 . S
Mg266 O267 2.028 1_655 S
Mg266 O273 1.986 1_655 S
Mg266 O275 2.114 . S
Mg266 O276 2.251 . S
Mg266 O279 2.010 . S
O267 Mg266 2.028 1_455 S
O267 C270 1.250 . S
O268 Mg269 2.028 . S
O268 C270 1.248 . S
Mg269 O268 2.028 . S
Mg269 O274 2.032 . S
Mg269 O276 2.079 1_455 S
C270 O267 1.250 . S
C270 O268 1.248 . S
C271 O272 1.264 . S
C271 O279 1.249 . S
O272 C271 1.264 . S
O273 Mg266 1.986 1_455 S
O273 C277 1.246 . S
O274 Mg269 2.032 . S
O274 C277 1.259 . S
O275 Mg266 2.114 . S
O275 C278 1.252 . S
O276 Mg266 2.251 . S
O276 Mg269 2.079 1_655 S
O276 C278 1.273 . S
C277 O273 1.246 . S
C277 O274 1.259 . S
C278 O275 1.252 . S
C278 O276 1.273 . S
O279 Mg266 2.010 . S
O279 C271 1.249 . S
Mg280 O281 2.028 . S
Mg280 O287 1.986 . S
Mg280 O289 2.114 . S
Mg280 O290 2.251 . S
Mg280 O293 2.010 . S
O281 Mg280 2.028 . S
O281 C284 1.250 . S
O282 Mg283 2.028 . S
O282 C284 1.248 . S
Mg283 O282 2.028 . S
Mg283 O288 2.032 . S
Mg283 O290 2.079 . S
C284 O281 1.250 . S
C284 O282 1.248 . S
C285 O286 1.264 . S
C285 O293 1.249 . S
O286 C285 1.264 . S
O287 Mg280 1.986 . S
O287 C291 1.246 . S
O288 Mg283 2.032 . S
O288 C291 1.259 . S
O289 Mg280 2.114 . S
O289 C292 1.252 . S
O290 Mg280 2.251 . S
O290 Mg283 2.079 . S
O290 C292 1.273 . S
C291 O287 1.246 . S
C291 O288 1.259 . S
C292 O289 1.252 . S
C292 O290 1.273 . S
O293 Mg280 2.010 . S
O293 C285 1.249 . S
Mg294 O295 2.028 . S
Mg294 O301 1.986 . S
Mg294 O303 2.114 . S
Mg294 O304 2.251 . S
Mg294 O307 2.010 . S
O295 Mg294 2.028 . S
O295 C298 1.250 . S
O296 Mg297 2.028 . S
O296 C298 1.248 . S
Mg297 O296 2.028 . S
Mg297 O302 2.032 . S
Mg297 O304 2.079 . S
C298 O295 1.250 . S
C298 O296 1.248 . S
C299 O300 1.264 . S
C299 O307 1.249 . S
O300 C299 1.264 . S
O301 Mg294 1.986 . S
O301 C305 1.246 . S
O302 Mg297 2.032 . S
O302 C305 1.259 . S
O303 Mg294 2.114 . S
O303 C306 1.252 . S
O304 Mg294 2.251 . S
O304 Mg297 2.079 . S
O304 C306 1.273 . S
C305 O301 1.246 . S
C305 O302 1.259 . S
C306 O303 1.252 . S
C306 O304 1.273 . S
O307 Mg294 2.010 . S
O307 C299 1.249 . S
Mg308 O309 2.028 . S
Mg308 O315 1.986 . S
Mg308 O317 2.114 . S
Mg308 O318 2.251 . S
Mg308 O321 2.010 . S
O309 Mg308 2.028 . S
O309 C312 1.250 . S
O310 Mg311 2.028 . S
O310 C312 1.248 . S
Mg311 O310 2.028 . S
Mg311 O316 2.032 . S
Mg311 O318 2.079 . S
C312 O309 1.250 . S
C312 O310 1.248 . S
C313 O314 1.264 . S
C313 O321 1.249 1_545 S
O314 C313 1.264 . S
O315 Mg308 1.986 . S
O315 C319 1.246 . S
O316 Mg311 2.032 . S
O316 C319 1.259 . S
O317 Mg308 2.114 . S
O317 C320 1.252 . S
O318 Mg308 2.251 . S
O318 Mg311 2.079 . S
O318 C320 1.273 . S
C319 O315 1.246 . S
C319 O316 1.259 . S
C320 O317 1.252 . S
C320 O318 1.273 . S
O321 Mg308 2.010 . S
O321 C313 1.249 1_565 S
Mg322 O323 2.028 . S
Mg322 O329 1.986 . S
Mg322 O331 2.114 . S
Mg322 O332 2.251 . S
Mg322 O335 2.010 . S
O323 Mg322 2.028 . S
O323 C326 1.250 . S
O324 Mg325 2.028 . S
O324 C326 1.248 . S
Mg325 O324 2.028 . S
Mg325 O330 2.032 . S
Mg325 O332 2.079 . S
C326 O323 1.250 . S
C326 O324 1.248 . S
C327 O328 1.264 . S
C327 O335 1.249 . S
O328 C327 1.264 . S
O329 Mg322 1.986 . S
O329 C333 1.246 . S
O330 Mg325 2.032 . S
O330 C333 1.259 . S
O331 Mg322 2.114 . S
O331 C334 1.252 . S
O332 Mg322 2.251 . S
O332 Mg325 2.079 . S
O332 C334 1.273 . S
C333 O329 1.246 . S
C333 O330 1.259 . S
C334 O331 1.252 . S
C334 O332 1.273 . S
O335 Mg322 2.010 . S
O335 C327 1.249 . S
Mg336 O337 2.028 . S
Mg336 O343 1.986 . S
Mg336 O345 2.114 . S
Mg336 O346 2.251 . S
Mg336 O349 2.010 . S
O337 Mg336 2.028 . S
O337 C340 1.250 . S
O338 Mg339 2.028 . S
O338 C340 1.248 . S
Mg339 O338 2.028 . S
Mg339 O344 2.032 . S
Mg339 O346 2.079 . S
C340 O337 1.250 . S
C340 O338 1.248 . S
C341 O342 1.264 . S
C341 O349 1.249 . S
O342 C341 1.264 . S
O343 Mg336 1.986 . S
O343 C347 1.246 . S
O344 Mg339 2.032 . S
O344 C347 1.259 . S
O345 Mg336 2.114 . S
O345 C348 1.252 . S
O346 Mg336 2.251 . S
O346 Mg339 2.079 . S
O346 C348 1.273 . S
C347 O343 1.246 . S
C347 O344 1.259 . S
C348 O345 1.252 . S
C348 O346 1.273 . S
O349 Mg336 2.010 . S
O349 C341 1.249 . S
Mg350 O351 2.028 . S
Mg350 O357 1.986 . S
Mg350 O359 2.114 . S
Mg350 O360 2.251 . S
Mg350 O363 2.010 . S
O351 Mg350 2.028 . S
O351 C354 1.250 . S
O352 Mg353 2.028 . S
O352 C354 1.248 . S
Mg353 O352 2.028 . S
Mg353 O358 2.032 . S
Mg353 O360 2.079 . S
C354 O351 1.250 . S
C354 O352 1.248 . S
C355 O356 1.264 . S
C355 O363 1.249 . S
O356 C355 1.264 . S
O357 Mg350 1.986 . S
O357 C361 1.246 . S
O358 Mg353 2.032 . S
O358 C361 1.259 . S
O359 Mg350 2.114 . S
O359 C362 1.252 . S
O360 Mg350 2.251 . S
O360 Mg353 2.079 . S
O360 C362 1.273 . S
C361 O357 1.246 . S
C361 O358 1.259 . S
C362 O359 1.252 . S
C362 O360 1.273 . S
O363 Mg350 2.010 . S
O363 C355 1.249 . S
Mg364 O365 2.028 . S
Mg364 O371 1.986 . S
Mg364 O373 2.114 . S
Mg364 O374 2.251 . S
Mg364 O377 2.010 . S
O365 Mg364 2.028 . S
O365 C368 1.250 . S
O366 Mg367 2.028 . S
O366 C368 1.248 . S
Mg367 O366 2.028 . S
Mg367 O372 2.032 . S
Mg367 O374 2.079 . S
C368 O365 1.250 . S
C368 O366 1.248 . S
C369 O370 1.264 . S
C369 O377 1.249 . S
O370 C369 1.264 . S
O371 Mg364 1.986 . S
O371 C375 1.246 . S
O372 Mg367 2.032 . S
O372 C375 1.259 . S
O373 Mg364 2.114 . S
O373 C376 1.252 . S
O374 Mg364 2.251 . S
O374 Mg367 2.079 . S
O374 C376 1.273 . S
C375 O371 1.246 . S
C375 O372 1.259 . S
C376 O373 1.252 . S
C376 O374 1.273 . S
O377 Mg364 2.010 . S
O377 C369 1.249 . S
Mg378 O379 2.028 . S
Mg378 O385 1.986 . S
Mg378 O387 2.114 . S
Mg378 O388 2.251 . S
Mg378 O391 2.010 . S
O379 Mg378 2.028 . S
O379 C382 1.250 . S
O380 Mg381 2.028 . S
O380 C382 1.248 . S
Mg381 O380 2.028 . S
Mg381 O386 2.032 . S
Mg381 O388 2.079 . S
C382 O379 1.250 . S
C382 O380 1.248 . S
C383 O384 1.264 . S
C383 O391 1.249 . S
O384 C383 1.264 . S
O385 Mg378 1.986 . S
O385 C389 1.246 . S
O386 Mg381 2.032 . S
O386 C389 1.259 . S
O387 Mg378 2.114 . S
O387 C390 1.252 . S
O388 Mg378 2.251 . S
O388 Mg381 2.079 . S
O388 C390 1.273 . S
C389 O385 1.246 . S
C389 O386 1.259 . S
C390 O387 1.252 . S
C390 O388 1.273 . S
O391 Mg378 2.010 . S
O391 C383 1.249 . S
Mg392 O393 2.028 . S
Mg392 O399 1.986 . S
Mg392 O401 2.114 . S
Mg392 O402 2.251 . S
Mg392 O405 2.010 . S
O393 Mg392 2.028 . S
O393 C396 1.250 . S
O394 Mg395 2.028 . S
O394 C396 1.248 . S
Mg395 O394 2.028 . S
Mg395 O400 2.032 . S
Mg395 O402 2.079 . S
C396 O393 1.250 . S
C396 O394 1.248 . S
C397 O398 1.264 . S
C397 O405 1.249 . S
O398 C397 1.264 . S
O399 Mg392 1.986 . S
O399 C403 1.246 . S
O400 Mg395 2.032 . S
O400 C403 1.259 . S
O401 Mg392 2.114 . S
O401 C404 1.252 . S
O402 Mg392 2.251 . S
O402 Mg395 2.079 . S
O402 C404 1.273 . S
C403 O399 1.246 . S
C403 O400 1.259 . S
C404 O401 1.252 . S
C404 O402 1.273 . S
O405 Mg392 2.010 . S
O405 C397 1.249 . S
Mg406 O407 2.028 . S
Mg406 O413 1.986 . S
Mg406 O415 2.114 . S
Mg406 O416 2.251 . S
Mg406 O419 2.010 . S
O407 Mg406 2.028 . S
O407 C410 1.250 . S
O408 Mg409 2.028 . S
O408 C410 1.248 . S
Mg409 O408 2.028 . S
Mg409 O414 2.032 . S
Mg409 O416 2.079 . S
C410 O407 1.250 . S
C410 O408 1.248 . S
C411 O412 1.264 . S
C411 O419 1.249 . S
O412 C411 1.264 . S
O413 Mg406 1.986 . S
O413 C417 1.246 . S
O414 Mg409 2.032 . S
O414 C417 1.259 . S
O415 Mg406 2.114 . S
O415 C418 1.252 . S
O416 Mg406 2.251 . S
O416 Mg409 2.079 . S
O416 C418 1.273 . S
C417 O413 1.246 . S
C417 O414 1.259 . S
C418 O415 1.252 . S
C418 O416 1.273 . S
O419 Mg406 2.010 . S
O419 C411 1.249 . S
Mg420 O421 2.028 . S
Mg420 O427 1.986 . S
Mg420 O429 2.114 . S
Mg420 O430 2.251 . S
Mg420 O433 2.010 . S
O421 Mg420 2.028 . S
O421 C424 1.250 . S
O422 Mg423 2.028 . S
O422 C424 1.248 . S
Mg423 O422 2.028 . S
Mg423 O428 2.032 . S
Mg423 O430 2.079 . S
C424 O421 1.250 . S
C424 O422 1.248 . S
C425 O426 1.264 . S
C425 O433 1.249 . S
O426 C425 1.264 . S
O427 Mg420 1.986 . S
O427 C431 1.246 . S
O428 Mg423 2.032 . S
O428 C431 1.259 . S
O429 Mg420 2.114 . S
O429 C432 1.252 . S
O430 Mg420 2.251 . S
O430 Mg423 2.079 . S
O430 C432 1.273 . S
C431 O427 1.246 . S
C431 O428 1.259 . S
C432 O429 1.252 . S
C432 O430 1.273 . S
O433 Mg420 2.010 . S
O433 C425 1.249 . S
Mg434 O435 2.028 . S
Mg434 O441 1.986 . S
Mg434 O443 2.114 . S
Mg434 O444 2.251 . S
Mg434 O447 2.010 . S
O435 Mg434 2.028 . S
O435 C438 1.250 . S
O436 Mg437 2.028 . S
O436 C438 1.248 . S
Mg437 O436 2.028 . S
Mg437 O442 2.032 . S
Mg437 O444 2.079 . S
C438 O435 1.250 . S
C438 O436 1.248 . S
C439 O440 1.264 . S
C439 O447 1.249 . S
O440 C439 1.264 . S
O441 Mg434 1.986 . S
O441 C445 1.246 . S
O442 Mg437 2.032 . S
O442 C445 1.259 . S
O443 Mg434 2.114 . S
O443 C446 1.252 . S
O444 Mg434 2.251 . S
O444 Mg437 2.079 . S
O444 C446 1.273 . S
C445 O441 1.246 . S
C445 O442 1.259 . S
C446 O443 1.252 . S
C446 O444 1.273 . S
O447 Mg434 2.010 . S
O447 C439 1.249 . S
H448 C460 0.930 . S
H449 C462 0.930 . S
H450 C463 0.930 . S
H451 C467 0.959 . S
H452 C467 0.959 . S
H453 C467 0.961 . S
H454 C468 0.960 . S
H455 C468 0.961 . S
H456 C468 0.959 1_455 S
H457 C471 0.929 . S
H458 C472 0.931 . S
H459 C474 0.930 . S
C460 H448 0.930 . S
C460 C461 1.399 1_655 S
C460 C465 1.399 . S
C461 C460 1.399 1_455 S
C461 C462 1.376 1_565 S
C462 H449 0.930 . S
C462 C461 1.376 1_545 S
C462 C463 1.388 . S
C463 H450 0.930 . S
C463 C462 1.388 . S
C463 C464 1.390 . S
C464 C463 1.390 . S
C464 C465 1.394 1_445 S
C464 C470 1.465 . S
C465 C460 1.399 . S
C465 C464 1.394 1_665 S
C465 C466 1.516 . S
C466 C465 1.516 . S
C466 C467 1.502 . S
C466 C468 1.561 . S
C466 C469 1.526 . S
C467 H451 0.959 . S
C467 H452 0.959 . S
C467 H453 0.961 . S
C467 C466 1.502 . S
C468 H454 0.960 . S
C468 H455 0.961 . S
C468 H456 0.959 1_655 S
C468 C466 1.561 . S
C469 C466 1.526 . S
C469 C470 1.396 1_665 S
C469 C474 1.390 . S
C470 C464 1.465 . S
C470 C469 1.396 1_445 S
C470 C471 1.399 . S
C471 H457 0.929 . S
C471 C470 1.399 . S
C471 C472 1.385 . S
C472 H458 0.931 . S
C472 C471 1.385 . S
C472 C473 1.389 1_455 S
C473 C472 1.389 1_655 S
C473 C474 1.387 1_545 S
C474 H459 0.930 . S
C474 C469 1.390 . S
C474 C473 1.387 1_565 S
H475 C487 0.930 . S
H476 C489 0.930 . S
H477 C490 0.930 1_655 S
H478 C494 0.959 . S
H479 C494 0.959 . S
H480 C494 0.961 . S
H481 C495 0.960 . S
H482 C495 0.961 . S
H483 C495 0.959 . S
H484 C498 0.929 . S
H485 C499 0.931 . S
H486 C501 0.930 . S
C487 H475 0.930 . S
C487 C488 1.399 . S
C487 C492 1.399 . S
C488 C487 1.399 . S
C488 C489 1.376 . S
C489 H476 0.930 . S
C489 C488 1.376 . S
C489 C490 1.388 . S
C490 H477 0.930 1_455 S
C490 C489 1.388 . S
C490 C491 1.397 1_455 S
C491 C490 1.397 1_655 S
C491 C492 1.387 1_655 S
C491 C497 1.463 . S
C492 C487 1.399 . S
C492 C491 1.387 1_455 S
C492 C493 1.516 . S
C493 C492 1.516 . S
C493 C494 1.502 . S
C493 C495 1.561 1_455 S
C493 C496 1.526 1_455 S
C494 H478 0.959 . S
C494 H479 0.959 . S
C494 H480 0.961 . S
C494 C493 1.502 . S
C495 H481 0.960 . S
C495 H482 0.961 . S
C495 H483 0.959 . S
C495 C493 1.561 1_655 S
C496 C493 1.526 1_655 S
C496 C497 1.396 . S
C496 C501 1.390 . S
C497 C491 1.463 . S
C497 C496 1.396 . S
C497 C498 1.399 . S
C498 H484 0.929 . S
C498 C497 1.399 . S
C498 C499 1.385 . S
C499 H485 0.931 . S
C499 C498 1.385 . S
C499 C500 1.389 . S
C500 C499 1.389 . S
C500 C501 1.387 . S
C501 H486 0.930 . S
C501 C496 1.390 . S
C501 C500 1.387 . S
H502 C514 0.930 . S
H503 C516 0.930 . S
H504 C517 0.930 . S
H505 C521 0.951 1_554 S
H506 C521 0.959 1_554 S
H507 C521 0.961 . S
H508 C522 0.960 . S
H509 C522 0.961 . S
H510 C522 0.959 . S
H511 C525 0.929 . S
H512 C526 0.931 . S
H513 C528 0.930 . S
C514 H502 0.930 . S
C514 C515 1.399 . S
C514 C519 1.399 . S
C515 C514 1.399 . S
C515 C516 1.376 . S
C516 H503 0.930 . S
C516 C515 1.376 . S
C516 C517 1.388 . S
C517 H504 0.930 . S
C517 C516 1.388 . S
C517 C518 1.390 . S
C518 C517 1.390 . S
C518 C519 1.394 . S
C518 C524 1.465 1_556 S
C519 C514 1.399 . S
C519 C518 1.394 . S
C519 C520 1.516 . S
C520 C519 1.516 . S
C520 C521 1.502 . S
C520 C522 1.561 . S
C520 C523 1.526 1_556 S
C521 H505 0.951 1_556 S
C521 H506 0.959 1_556 S
C521 H507 0.961 . S
C521 C520 1.502 . S
C522 H508 0.960 . S
C522 H509 0.961 . S
C522 H510 0.959 . S
C522 C520 1.561 . S
C523 C520 1.526 1_554 S
C523 C524 1.396 . S
C523 C528 1.390 . S
C524 C518 1.465 1_554 S
C524 C523 1.396 . S
C524 C525 1.399 . S
C525 H511 0.929 . S
C525 C524 1.399 . S
C525 C526 1.385 . S
C526 H512 0.931 . S
C526 C525 1.385 . S
C526 C527 1.389 . S
C527 C526 1.389 . S
C527 C528 1.387 . S
C528 H513 0.930 . S
C528 C523 1.390 . S
C528 C527 1.387 . S
H529 C541 0.930 . S
H530 C543 0.930 . S
H531 C544 0.930 . S
H532 C548 0.959 . S
H533 C548 0.959 1_565 S
H534 C548 0.961 . S
H535 C549 0.960 1_545 S
H536 C549 0.961 . S
H537 C549 0.959 . S
H538 C552 0.929 . S
H539 C553 0.931 . S
H540 C555 0.930 . S
C541 H529 0.930 . S
C541 C542 1.399 . S
C541 C546 1.399 . S
C542 C541 1.399 . S
C542 C543 1.376 . S
C543 H530 0.930 . S
C543 C542 1.376 . S
C543 C544 1.388 . S
C544 H531 0.930 . S
C544 C543 1.388 . S
C544 C545 1.390 . S
C545 C544 1.390 . S
C545 C546 1.394 . S
C545 C551 1.465 1_545 S
C546 C541 1.399 . S
C546 C545 1.394 . S
C546 C547 1.516 . S
C547 C546 1.516 . S
C547 C548 1.502 . S
C547 C549 1.561 1_545 S
C547 C550 1.526 1_545 S
C548 H532 0.959 . S
C548 H533 0.959 1_545 S
C548 H534 0.961 . S
C548 C547 1.502 . S
C549 H535 0.960 1_565 S
C549 H536 0.961 . S
C549 H537 0.959 . S
C549 C547 1.561 1_565 S
C550 C547 1.526 1_565 S
C550 C551 1.396 . S
C550 C555 1.390 . S
C551 C545 1.465 1_565 S
C551 C550 1.396 . S
C551 C552 1.399 . S
C552 H538 0.929 . S
C552 C551 1.399 . S
C552 C553 1.385 . S
C553 H539 0.931 . S
C553 C552 1.385 . S
C553 C554 1.389 . S
C554 C553 1.389 . S
C554 C555 1.387 . S
C555 H540 0.930 . S
C555 C550 1.390 . S
C555 C554 1.387 . S
H556 C568 0.930 . S
H557 C570 0.930 . S
H558 C571 0.930 . S
H559 C575 0.959 . S
H560 C575 0.959 . S
H561 C575 0.961 . S
H562 C576 0.960 . S
H563 C576 0.961 1_556 S
H564 C576 0.959 1_556 S
H565 C579 0.929 . S
H566 C580 0.931 . S
H567 C582 0.930 . S
C568 H556 0.930 . S
C568 C569 1.398 . S
C568 C573 1.399 . S
C569 C568 1.398 . S
C569 C570 1.378 1_565 S
C570 H557 0.930 . S
C570 C569 1.378 1_545 S
C570 C571 1.388 . S
C571 H558 0.930 . S
C571 C570 1.388 . S
C571 C572 1.390 . S
C572 C571 1.390 . S
C572 C573 1.394 1_545 S
C572 C578 1.465 1_554 S
C573 C568 1.399 . S
C573 C572 1.394 1_565 S
C573 C574 1.516 . S
C574 C573 1.516 . S
C574 C575 1.502 . S
C574 C576 1.561 . S
C574 C577 1.526 1_554 S
C575 H559 0.959 . S
C575 H560 0.959 . S
C575 H561 0.961 . S
C575 C574 1.502 . S
C576 H562 0.960 . S
C576 H563 0.961 1_554 S
C576 H564 0.959 1_554 S
C576 C574 1.561 . S
C577 C574 1.526 1_556 S
C577 C578 1.396 1_565 S
C577 C582 1.390 . S
C578 C572 1.465 1_556 S
C578 C577 1.396 1_545 S
C578 C579 1.399 . S
C579 H565 0.929 . S
C579 C578 1.399 . S
C579 C580 1.385 . S
C580 H566 0.931 . S
C580 C579 1.385 . S
C580 C581 1.389 1_545 S
C581 C580 1.389 1_565 S
C581 C582 1.387 . S
C582 H567 0.930 . S
C582 C577 1.390 . S
C582 C581 1.387 . S
H583 C595 0.930 1_655 S
H584 C597 0.930 . S
H585 C598 0.930 . S
H586 C602 0.959 . S
H587 C602 0.959 . S
H588 C602 0.961 . S
H589 C603 0.960 . S
H590 C603 0.961 . S
H591 C603 0.959 . S
H592 C606 0.929 . S
H593 C607 0.931 1_455 S
H594 C609 0.930 . S
C595 H583 0.930 1_455 S
C595 C596 1.399 . S
C595 C600 1.399 1_455 S
C596 C595 1.399 . S
C596 C597 1.376 . S
C597 H584 0.930 . S
C597 C596 1.376 . S
C597 C598 1.388 . S
C598 H585 0.930 . S
C598 C597 1.388 . S
C598 C599 1.390 . S
C599 C598 1.390 . S
C599 C600 1.394 1_455 S
C599 C605 1.465 . S
C600 C595 1.399 1_655 S
C600 C599 1.394 1_655 S
C600 C601 1.516 . S
C601 C600 1.516 . S
C601 C602 1.502 . S
C601 C603 1.561 . S
C601 C604 1.526 . S
C602 H586 0.959 . S
C602 H587 0.959 . S
C602 H588 0.961 . S
C602 C601 1.502 . S
C603 H589 0.960 . S
C603 H590 0.961 . S
C603 H591 0.959 . S
C603 C601 1.561 . S
C604 C601 1.526 . S
C604 C605 1.396 1_655 S
C604 C609 1.390 . S
C605 C599 1.465 . S
C605 C604 1.396 1_455 S
C605 C606 1.399 . S
C606 H592 0.929 . S
C606 C605 1.399 . S
C606 C607 1.385 1_455 S
C607 H593 0.931 1_655 S
C607 C606 1.385 1_655 S
C607 C608 1.389 . S
C608 C607 1.389 . S
C608 C609 1.387 . S
C609 H594 0.930 . S
C609 C604 1.390 . S
C609 C608 1.387 . S
H610 C622 0.930 . S
H611 C624 0.930 . S
H612 C625 0.930 . S
H613 C629 0.959 . S
H614 C629 0.959 . S
H615 C629 0.961 . S
H616 C630 0.960 . S
H617 C630 0.961 . S
H618 C630 0.959 . S
H619 C633 0.929 . S
H620 C634 0.931 . S
H621 C636 0.930 . S
C622 H610 0.930 . S
C622 C623 1.399 . S
C622 C627 1.399 . S
C623 C622 1.399 . S
C623 C624 1.376 . S
C624 H611 0.930 . S
C624 C623 1.376 . S
C624 C625 1.388 . S
C625 H612 0.930 . S
C625 C624 1.388 . S
C625 C626 1.390 . S
C626 C625 1.390 . S
C626 C627 1.394 . S
C626 C632 1.465 . S
C627 C622 1.399 . S
C627 C626 1.394 . S
C627 C628 1.516 . S
C628 C627 1.516 . S
C628 C629 1.502 . S
C628 C630 1.561 . S
C628 C631 1.526 . S
C629 H613 0.959 . S
C629 H614 0.959 . S
C629 H615 0.961 . S
C629 C628 1.502 . S
C630 H616 0.960 . S
C630 H617 0.961 . S
C630 H618 0.959 . S
C630 C628 1.561 . S
C631 C628 1.526 . S
C631 C632 1.396 . S
C631 C636 1.390 . S
C632 C626 1.465 . S
C632 C631 1.396 . S
C632 C633 1.399 . S
C633 H619 0.929 . S
C633 C632 1.399 . S
C633 C634 1.385 . S
C634 H620 0.931 . S
C634 C633 1.385 . S
C634 C635 1.389 . S
C635 C634 1.389 . S
C635 C636 1.387 . S
C636 H621 0.930 . S
C636 C631 1.390 . S
C636 C635 1.387 . S
H637 C649 0.930 . S
H638 C651 0.930 . S
H639 C652 0.930 . S
H640 C656 0.959 . S
H641 C656 0.959 . S
H642 C656 0.961 . S
H643 C657 0.960 . S
H644 C657 0.961 . S
H645 C657 0.959 . S
H646 C660 0.929 . S
H647 C661 0.931 . S
H648 C663 0.930 . S
C649 H637 0.930 . S
C649 C650 1.399 . S
C649 C654 1.399 . S
C650 C649 1.399 . S
C650 C651 1.376 . S
C651 H638 0.930 . S
C651 C650 1.376 . S
C651 C652 1.388 . S
C652 H639 0.930 . S
C652 C651 1.388 . S
C652 C653 1.390 . S
C653 C652 1.390 . S
C653 C654 1.394 . S
C653 C659 1.465 . S
C654 C649 1.399 . S
C654 C653 1.394 . S
C654 C655 1.516 . S
C655 C654 1.516 . S
C655 C656 1.502 . S
C655 C657 1.561 . S
C655 C658 1.526 . S
C656 H640 0.959 . S
C656 H641 0.959 . S
C656 H642 0.961 . S
C656 C655 1.502 . S
C657 H643 0.960 . S
C657 H644 0.961 . S
C657 H645 0.959 . S
C657 C655 1.561 . S
C658 C655 1.526 . S
C658 C659 1.396 . S
C658 C663 1.390 . S
C659 C653 1.465 . S
C659 C658 1.396 . S
C659 C660 1.399 . S
C660 H646 0.929 . S
C660 C659 1.399 . S
C660 C661 1.385 . S
C661 H647 0.931 . S
C661 C660 1.385 . S
C661 C662 1.389 . S
C662 C661 1.389 . S
C662 C663 1.387 . S
C663 H648 0.930 . S
C663 C658 1.390 . S
C663 C662 1.387 . S
H664 C676 0.930 . S
H665 C678 0.930 . S
H666 C679 0.930 . S
H667 C683 0.959 . S
H668 C683 0.959 . S
H669 C683 0.961 . S
H670 C684 0.960 . S
H671 C684 0.961 . S
H672 C684 0.959 . S
H673 C687 0.929 . S
H674 C688 0.931 . S
H675 C690 0.930 . S
C676 H664 0.930 . S
C676 C677 1.399 . S
C676 C681 1.399 . S
C677 C676 1.399 . S
C677 C678 1.376 . S
C678 H665 0.930 . S
C678 C677 1.376 . S
C678 C679 1.388 . S
C679 H666 0.930 . S
C679 C678 1.388 . S
C679 C680 1.390 . S
C680 C679 1.390 . S
C680 C681 1.394 . S
C680 C686 1.465 . S
C681 C676 1.399 . S
C681 C680 1.394 . S
C681 C682 1.516 . S
C682 C681 1.516 . S
C682 C683 1.502 . S
C682 C684 1.561 . S
C682 C685 1.526 . S
C683 H667 0.959 . S
C683 H668 0.959 . S
C683 H669 0.961 . S
C683 C682 1.502 . S
C684 H670 0.960 . S
C684 H671 0.961 . S
C684 H672 0.959 . S
C684 C682 1.561 . S
C685 C682 1.526 . S
C685 C686 1.396 . S
C685 C690 1.390 . S
C686 C680 1.465 . S
C686 C685 1.396 . S
C686 C687 1.399 . S
C687 H673 0.929 . S
C687 C686 1.399 . S
C687 C688 1.385 . S
C688 H674 0.931 . S
C688 C687 1.385 . S
C688 C689 1.389 . S
C689 C688 1.389 . S
C689 C690 1.387 . S
C690 H675 0.930 . S
C690 C685 1.390 . S
C690 C689 1.387 . S
H691 C703 0.930 . S
H692 C705 0.930 . S
H693 C706 0.930 . S
H694 C710 0.959 . S
H695 C710 0.959 . S
H696 C710 0.961 . S
H697 C711 0.960 . S
H698 C711 0.961 . S
H699 C711 0.959 . S
H700 C714 0.929 . S
H701 C715 0.931 . S
H702 C717 0.930 . S
C703 H691 0.930 . S
C703 C704 1.399 . S
C703 C708 1.399 . S
C704 C703 1.399 . S
C704 C705 1.376 . S
C705 H692 0.930 . S
C705 C704 1.376 . S
C705 C706 1.388 . S
C706 H693 0.930 . S
C706 C705 1.388 . S
C706 C707 1.390 . S
C707 C706 1.390 . S
C707 C708 1.394 . S
C707 C713 1.465 . S
C708 C703 1.399 . S
C708 C707 1.394 . S
C708 C709 1.516 . S
C709 C708 1.516 . S
C709 C710 1.502 . S
C709 C711 1.561 . S
C709 C712 1.526 . S
C710 H694 0.959 . S
C710 H695 0.959 . S
C710 H696 0.961 . S
C710 C709 1.502 . S
C711 H697 0.960 . S
C711 H698 0.961 . S
C711 H699 0.959 . S
C711 C709 1.561 . S
C712 C709 1.526 . S
C712 C713 1.396 . S
C712 C717 1.390 . S
C713 C707 1.465 . S
C713 C712 1.396 . S
C713 C714 1.399 . S
C714 H700 0.929 . S
C714 C713 1.399 . S
C714 C715 1.385 . S
C715 H701 0.931 . S
C715 C714 1.385 . S
C715 C716 1.389 . S
C716 C715 1.389 . S
C716 C717 1.387 . S
C717 H702 0.930 . S
C717 C712 1.390 . S
C717 C716 1.387 . S
H718 C730 0.930 . S
H719 C732 0.930 . S
H720 C733 0.930 . S
H721 C737 0.959 . S
H722 C737 0.959 1_565 S
H723 C737 0.961 . S
H724 C738 0.960 1_545 S
H725 C738 0.961 . S
H726 C738 0.959 . S
H727 C741 0.929 . S
H728 C742 0.931 . S
H729 C744 0.930 . S
C730 H718 0.930 . S
C730 C731 1.399 . S
C730 C735 1.399 . S
C731 C730 1.399 . S
C731 C732 1.376 . S
C732 H719 0.930 . S
C732 C731 1.376 . S
C732 C733 1.388 . S
C733 H720 0.930 . S
C733 C732 1.388 . S
C733 C734 1.390 . S
C734 C733 1.390 . S
C734 C735 1.394 . S
C734 C740 1.465 1_545 S
C735 C730 1.399 . S
C735 C734 1.394 . S
C735 C736 1.516 . S
C736 C735 1.516 . S
C736 C737 1.502 . S
C736 C738 1.561 1_545 S
C736 C739 1.526 1_545 S
C737 H721 0.959 . S
C737 H722 0.959 1_545 S
C737 H723 0.961 . S
C737 C736 1.502 . S
C738 H724 0.960 1_565 S
C738 H725 0.961 . S
C738 H726 0.959 . S
C738 C736 1.561 1_565 S
C739 C736 1.526 1_565 S
C739 C740 1.396 . S
C739 C744 1.390 . S
C740 C734 1.465 1_565 S
C740 C739 1.396 . S
C740 C741 1.399 . S
C741 H727 0.929 . S
C741 C740 1.399 . S
C741 C742 1.385 . S
C742 H728 0.931 . S
C742 C741 1.385 . S
C742 C743 1.389 . S
C743 C742 1.389 . S
C743 C744 1.387 . S
C744 H729 0.930 . S
C744 C739 1.390 . S
C744 C743 1.387 . S
H745 C757 0.930 . S
H746 C759 0.930 . S
H747 C760 0.930 . S
H748 C764 0.959 . S
H749 C764 0.959 1_554 S
H750 C764 0.961 . S
H751 C765 0.915 1_656 S
H752 C765 0.954 1_655 S
H753 C765 0.977 . S
H754 C768 0.929 . S
H755 C769 0.931 . S
H756 C771 0.930 . S
C757 H745 0.930 . S
C757 C758 1.399 1_655 S
C757 C762 1.399 . S
C758 C757 1.399 1_455 S
C758 C759 1.376 . S
C759 H746 0.930 . S
C759 C758 1.376 . S
C759 C760 1.388 . S
C760 H747 0.930 . S
C760 C759 1.388 . S
C760 C761 1.390 . S
C761 C760 1.390 . S
C761 C762 1.394 1_455 S
C761 C767 1.465 1_556 S
C762 C757 1.399 . S
C762 C761 1.394 1_655 S
C762 C763 1.516 1_556 S
C763 C762 1.516 1_554 S
C763 C764 1.502 1_554 S
C763 C765 1.542 1_655 S
C763 C766 1.526 . S
C764 H748 0.959 . S
C764 H749 0.959 1_556 S
C764 H750 0.961 . S
C764 C763 1.502 1_556 S
C765 H751 0.915 1_454 S
C765 H752 0.954 1_455 S
C765 H753 0.977 . S
C765 C763 1.542 1_455 S
C766 C763 1.526 . S
C766 C767 1.396 1_655 S
C766 C771 1.390 . S
C767 C761 1.465 1_554 S
C767 C766 1.396 1_455 S
C767 C768 1.399 . S
C768 H754 0.929 . S
C768 C767 1.399 . S
C768 C769 1.385 . S
C769 H755 0.931 . S
C769 C768 1.385 . S
C769 C770 1.389 1_455 S
C770 C769 1.389 1_655 S
C770 C771 1.387 . S
C771 H756 0.930 . S
C771 C766 1.390 . S
C771 C770 1.387 . S
H772 C784 0.930 . S
H773 C786 0.930 . S
H774 C787 0.930 . S
H775 C791 0.959 . S
H776 C791 0.959 . S
H777 C791 0.961 . S
H778 C792 0.960 . S
H779 C792 0.961 . S
H780 C792 0.959 . S
H781 C795 0.929 . S
H782 C796 0.931 . S
H783 C798 0.930 . S
C784 H772 0.930 . S
C784 C785 1.399 . S
C784 C789 1.399 . S
C785 C784 1.399 . S
C785 C786 1.376 . S
C786 H773 0.930 . S
C786 C785 1.376 . S
C786 C787 1.388 . S
C787 H774 0.930 . S
C787 C786 1.388 . S
C787 C788 1.390 . S
C788 C787 1.390 . S
C788 C789 1.394 . S
C788 C794 1.465 . S
C789 C784 1.399 . S
C789 C788 1.394 . S
C789 C790 1.516 . S
C790 C789 1.516 . S
C790 C791 1.502 . S
C790 C792 1.561 . S
C790 C793 1.526 . S
C791 H775 0.959 . S
C791 H776 0.959 . S
C791 H777 0.961 . S
C791 C790 1.502 . S
C792 H778 0.960 . S
C792 H779 0.961 . S
C792 H780 0.959 . S
C792 C790 1.561 . S
C793 C790 1.526 . S
C793 C794 1.396 . S
C793 C798 1.390 . S
C794 C788 1.465 . S
C794 C793 1.396 . S
C794 C795 1.399 . S
C795 H781 0.929 . S
C795 C794 1.399 . S
C795 C796 1.385 . S
C796 H782 0.931 . S
C796 C795 1.385 . S
C796 C797 1.389 . S
C797 C796 1.389 . S
C797 C798 1.387 . S
C798 H783 0.930 . S
C798 C793 1.390 . S
C798 C797 1.387 . S
H799 C811 0.930 . S
H800 C813 0.930 . S
H801 C814 0.930 . S
H802 C818 0.959 . S
H803 C818 0.959 . S
H804 C818 0.966 1_554 S
H805 C819 0.960 1_554 S
H806 C819 0.961 . S
H807 C819 0.959 . S
H808 C822 0.929 . S
H809 C823 0.931 . S
H810 C825 0.930 . S
C811 H799 0.930 . S
C811 C812 1.399 . S
C811 C816 1.399 . S
C812 C811 1.399 . S
C812 C813 1.376 . S
C813 H800 0.930 . S
C813 C812 1.376 . S
C813 C814 1.388 . S
C814 H801 0.930 . S
C814 C813 1.388 . S
C814 C815 1.390 . S
C815 C814 1.390 . S
C815 C816 1.394 . S
C815 C821 1.465 1_554 S
C816 C811 1.399 . S
C816 C815 1.394 . S
C816 C817 1.516 1_554 S
C817 C816 1.516 1_556 S
C817 C818 1.502 . S
C817 C819 1.561 . S
C817 C820 1.526 . S
C818 H802 0.959 . S
C818 H803 0.959 . S
C818 H804 0.966 1_556 S
C818 C817 1.502 . S
C819 H805 0.960 1_556 S
C819 H806 0.961 . S
C819 H807 0.959 . S
C819 C817 1.561 . S
C820 C817 1.526 . S
C820 C821 1.396 . S
C820 C825 1.390 . S
C821 C815 1.465 1_556 S
C821 C820 1.396 . S
C821 C822 1.399 . S
C822 H808 0.929 . S
C822 C821 1.399 . S
C822 C823 1.385 . S
C823 H809 0.931 . S
C823 C822 1.385 . S
C823 C824 1.389 . S
C824 C823 1.389 . S
C824 C825 1.387 . S
C825 H810 0.930 . S
C825 C820 1.390 . S
C825 C824 1.387 . S
H826 C838 0.930 . S
H827 C840 0.930 . S
H828 C841 0.930 . S
H829 C845 0.959 . S
H830 C845 0.959 . S
H831 C845 0.961 . S
H832 C846 0.960 . S
H833 C846 0.961 . S
H834 C846 0.959 . S
H835 C849 0.929 . S
H836 C850 0.931 . S
H837 C852 0.930 . S
C838 H826 0.930 . S
C838 C839 1.399 . S
C838 C843 1.399 . S
C839 C838 1.399 . S
C839 C840 1.376 . S
C840 H827 0.930 . S
C840 C839 1.376 . S
C840 C841 1.388 . S
C841 H828 0.930 . S
C841 C840 1.388 . S
C841 C842 1.390 . S
C842 C841 1.390 . S
C842 C843 1.394 . S
C842 C848 1.465 . S
C843 C838 1.399 . S
C843 C842 1.394 . S
C843 C844 1.516 . S
C844 C843 1.516 . S
C844 C845 1.502 . S
C844 C846 1.561 . S
C844 C847 1.526 . S
C845 H829 0.959 . S
C845 H830 0.959 . S
C845 H831 0.961 . S
C845 C844 1.502 . S
C846 H832 0.960 . S
C846 H833 0.961 . S
C846 H834 0.959 . S
C846 C844 1.561 . S
C847 C844 1.526 . S
C847 C848 1.396 . S
C847 C852 1.390 . S
C848 C842 1.465 . S
C848 C847 1.396 . S
C848 C849 1.399 . S
C849 H835 0.929 . S
C849 C848 1.399 . S
C849 C850 1.385 . S
C850 H836 0.931 . S
C850 C849 1.385 . S
C850 C851 1.389 . S
C851 C850 1.389 . S
C851 C852 1.387 . S
C852 H837 0.930 . S
C852 C847 1.390 . S
C852 C851 1.387 . S
H853 C865 0.930 . S
H854 C867 0.930 . S
H855 C868 0.930 . S
H856 C872 0.959 . S
H857 C872 0.959 . S
H858 C872 0.961 . S
H859 C873 0.960 . S
H860 C873 0.961 . S
H861 C873 0.959 . S
H862 C876 0.929 . S
H863 C877 0.931 . S
H864 C879 0.930 . S
C865 H853 0.930 . S
C865 C866 1.399 . S
C865 C870 1.399 . S
C866 C865 1.399 . S
C866 C867 1.376 . S
C867 H854 0.930 . S
C867 C866 1.376 . S
C867 C868 1.388 . S
C868 H855 0.930 . S
C868 C867 1.388 . S
C868 C869 1.390 . S
C869 C868 1.390 . S
C869 C870 1.394 . S
C869 C875 1.465 . S
C870 C865 1.399 . S
C870 C869 1.394 . S
C870 C871 1.516 . S
C871 C870 1.516 . S
C871 C872 1.502 . S
C871 C873 1.561 . S
C871 C874 1.526 . S
C872 H856 0.959 . S
C872 H857 0.959 . S
C872 H858 0.961 . S
C872 C871 1.502 . S
C873 H859 0.960 . S
C873 H860 0.961 . S
C873 H861 0.959 . S
C873 C871 1.561 . S
C874 C871 1.526 . S
C874 C875 1.396 . S
C874 C879 1.390 . S
C875 C869 1.465 . S
C875 C874 1.396 . S
C875 C876 1.399 . S
C876 H862 0.929 . S
C876 C875 1.399 . S
C876 C877 1.385 . S
C877 H863 0.931 . S
C877 C876 1.385 . S
C877 C878 1.389 . S
C878 C877 1.389 . S
C878 C879 1.387 . S
C879 H864 0.930 . S
C879 C874 1.390 . S
C879 C878 1.387 . S
H880 C892 0.930 . S
H881 C894 0.930 . S
H882 C895 0.930 . S
H883 C899 0.959 . S
H884 C899 0.959 . S
H885 C899 0.961 . S
H886 C900 0.960 . S
H887 C900 0.961 . S
H888 C900 0.959 . S
H889 C903 0.929 . S
H890 C904 0.931 . S
H891 C906 0.930 . S
C892 H880 0.930 . S
C892 C893 1.399 . S
C892 C897 1.399 . S
C893 C892 1.399 . S
C893 C894 1.376 . S
C894 H881 0.930 . S
C894 C893 1.376 . S
C894 C895 1.388 . S
C895 H882 0.930 . S
C895 C894 1.388 . S
C895 C896 1.390 . S
C896 C895 1.390 . S
C896 C897 1.394 . S
C896 C902 1.465 . S
C897 C892 1.399 . S
C897 C896 1.394 . S
C897 C898 1.516 . S
C898 C897 1.516 . S
C898 C899 1.502 . S
C898 C900 1.561 . S
C898 C901 1.526 . S
C899 H883 0.959 . S
C899 H884 0.959 . S
C899 H885 0.961 . S
C899 C898 1.502 . S
C900 H886 0.960 . S
C900 H887 0.961 . S
C900 H888 0.959 . S
C900 C898 1.561 . S
C901 C898 1.526 . S
C901 C902 1.396 . S
C901 C906 1.390 . S
C902 C896 1.465 . S
C902 C901 1.396 . S
C902 C903 1.399 . S
C903 H889 0.929 . S
C903 C902 1.399 . S
C903 C904 1.385 . S
C904 H890 0.931 . S
C904 C903 1.385 . S
C904 C905 1.389 . S
C905 C904 1.389 . S
C905 C906 1.387 . S
C906 H891 0.930 . S
C906 C901 1.390 . S
C906 C905 1.387 . S
H907 C919 0.930 . S
H908 C921 0.930 . S
H909 C922 0.930 . S
H910 C926 0.959 . S
H911 C926 0.959 . S
H912 C926 0.961 . S
H913 C927 0.960 . S
H914 C927 0.961 . S
H915 C927 0.959 . S
H916 C930 0.929 . S
H917 C931 0.931 . S
H918 C933 0.930 . S
C919 H907 0.930 . S
C919 C920 1.399 . S
C919 C924 1.399 . S
C920 C919 1.399 . S
C920 C921 1.376 . S
C921 H908 0.930 . S
C921 C920 1.376 . S
C921 C922 1.388 . S
C922 H909 0.930 . S
C922 C921 1.388 . S
C922 C923 1.390 . S
C923 C922 1.390 . S
C923 C924 1.394 . S
C923 C929 1.465 . S
C924 C919 1.399 . S
C924 C923 1.394 . S
C924 C925 1.516 . S
C925 C924 1.516 . S
C925 C926 1.502 . S
C925 C927 1.561 . S
C925 C928 1.526 . S
C926 H910 0.959 . S
C926 H911 0.959 . S
C926 H912 0.961 . S
C926 C925 1.502 . S
C927 H913 0.960 . S
C927 H914 0.961 . S
C927 H915 0.959 . S
C927 C925 1.561 . S
C928 C925 1.526 . S
C928 C929 1.396 . S
C928 C933 1.390 . S
C929 C923 1.465 . S
C929 C928 1.396 . S
C929 C930 1.399 . S
C930 H916 0.929 . S
C930 C929 1.399 . S
C930 C931 1.385 . S
C931 H917 0.931 . S
C931 C930 1.385 . S
C931 C932 1.389 . S
C932 C931 1.389 . S
C932 C933 1.387 . S
C933 H918 0.930 . S
C933 C928 1.390 . S
C933 C932 1.387 . S
H934 C946 0.930 . S
H935 C948 0.930 . S
H936 C949 0.930 . S
H937 C953 0.959 . S
H938 C953 0.959 . S
H939 C953 0.961 . S
H940 C954 0.960 . S
H941 C954 0.961 . S
H942 C954 0.959 . S
H943 C957 0.929 . S
H944 C958 0.931 . S
H945 C960 0.930 . S
C946 H934 0.930 . S
C946 C947 1.399 . S
C946 C951 1.399 . S
C947 C946 1.399 . S
C947 C948 1.376 . S
C948 H935 0.930 . S
C948 C947 1.376 . S
C948 C949 1.388 . S
C949 H936 0.930 . S
C949 C948 1.388 . S
C949 C950 1.390 . S
C950 C949 1.390 . S
C950 C951 1.394 . S
C950 C956 1.465 . S
C951 C946 1.399 . S
C951 C950 1.394 . S
C951 C952 1.516 . S
C952 C951 1.516 . S
C952 C953 1.502 . S
C952 C954 1.561 . S
C952 C955 1.526 . S
C953 H937 0.959 . S
C953 H938 0.959 . S
C953 H939 0.961 . S
C953 C952 1.502 . S
C954 H940 0.960 . S
C954 H941 0.961 . S
C954 H942 0.959 . S
C954 C952 1.561 . S
C955 C952 1.526 . S
C955 C956 1.396 . S
C955 C960 1.390 . S
C956 C950 1.465 . S
C956 C955 1.396 . S
C956 C957 1.399 . S
C957 H943 0.929 . S
C957 C956 1.399 . S
C957 C958 1.385 . S
C958 H944 0.931 . S
C958 C957 1.385 . S
C958 C959 1.389 . S
C959 C958 1.389 . S
C959 C960 1.387 . S
C960 H945 0.930 . S
C960 C955 1.390 . S
C960 C959 1.387 . S
H961 C973 0.930 . S
H962 C975 0.930 . S
H963 C976 0.930 . S
H964 C980 0.959 . S
H965 C980 0.959 . S
H966 C980 0.961 . S
H967 C981 0.960 . S
H968 C981 0.961 . S
H969 C981 0.959 . S
H970 C984 0.929 . S
H971 C985 0.931 . S
H972 C987 0.930 . S
C973 H961 0.930 . S
C973 C974 1.399 . S
C973 C978 1.399 . S
C974 C973 1.399 . S
C974 C975 1.376 . S
C975 H962 0.930 . S
C975 C974 1.376 . S
C975 C976 1.388 . S
C976 H963 0.930 . S
C976 C975 1.388 . S
C976 C977 1.390 . S
C977 C976 1.390 . S
C977 C978 1.394 . S
C977 C983 1.465 . S
C978 C973 1.399 . S
C978 C977 1.394 . S
C978 C979 1.516 . S
C979 C978 1.516 . S
C979 C980 1.502 . S
C979 C981 1.561 . S
C979 C982 1.526 . S
C980 H964 0.959 . S
C980 H965 0.959 . S
C980 H966 0.961 . S
C980 C979 1.502 . S
C981 H967 0.960 . S
C981 H968 0.961 . S
C981 H969 0.959 . S
C981 C979 1.561 . S
C982 C979 1.526 . S
C982 C983 1.396 . S
C982 C987 1.390 . S
C983 C977 1.465 . S
C983 C982 1.396 . S
C983 C984 1.399 . S
C984 H970 0.929 . S
C984 C983 1.399 . S
C984 C985 1.385 . S
C985 H971 0.931 . S
C985 C984 1.385 . S
C985 C986 1.389 . S
C986 C985 1.389 . S
C986 C987 1.387 . S
C987 H972 0.930 . S
C987 C982 1.390 . S
C987 C986 1.387 . S
H988 C1000 0.930 . S
H989 C1002 0.930 . S
H990 C1003 0.930 . S
H991 C1007 0.959 . S
H992 C1007 0.959 . S
H993 C1007 0.961 . S
H994 C1008 0.960 . S
H995 C1008 0.961 . S
H996 C1008 0.959 . S
H997 C1011 0.929 . S
H998 C1012 0.931 . S
H999 C1014 0.930 . S
C1000 H988 0.930 . S
C1000 C1001 1.399 . S
C1000 C1005 1.399 . S
C1001 C1000 1.399 . S
C1001 C1002 1.376 . S
C1002 H989 0.930 . S
C1002 C1001 1.376 . S
C1002 C1003 1.388 . S
C1003 H990 0.930 . S
C1003 C1002 1.388 . S
C1003 C1004 1.390 . S
C1004 C1003 1.390 . S
C1004 C1005 1.394 . S
C1004 C1010 1.465 . S
C1005 C1000 1.399 . S
C1005 C1004 1.394 . S
C1005 C1006 1.516 . S
C1006 C1005 1.516 . S
C1006 C1007 1.502 . S
C1006 C1008 1.561 . S
C1006 C1009 1.526 . S
C1007 H991 0.959 . S
C1007 H992 0.959 . S
C1007 H993 0.961 . S
C1007 C1006 1.502 . S
C1008 H994 0.960 . S
C1008 H995 0.961 . S
C1008 H996 0.959 . S
C1008 C1006 1.561 . S
C1009 C1006 1.526 . S
C1009 C1010 1.396 . S
C1009 C1014 1.390 . S
C1010 C1004 1.465 . S
C1010 C1009 1.396 . S
C1010 C1011 1.399 . S
C1011 H997 0.929 . S
C1011 C1010 1.399 . S
C1011 C1012 1.385 . S
C1012 H998 0.931 . S
C1012 C1011 1.385 . S
C1012 C1013 1.389 . S
C1013 C1012 1.389 . S
C1013 C1014 1.387 . S
C1014 H999 0.930 . S
C1014 C1009 1.390 . S
C1014 C1013 1.387 . S
H1015 C1027 0.930 . S
H1016 C1029 0.930 . S
H1017 C1030 0.930 . S
H1018 C1034 0.959 . S
H1019 C1034 0.959 . S
H1020 C1034 0.961 . S
H1021 C1035 0.960 . S
H1022 C1035 0.961 . S
H1023 C1035 0.959 . S
H1024 C1038 0.929 . S
H1025 C1039 0.931 . S
H1026 C1041 0.930 . S
C1027 H1015 0.930 . S
C1027 C1028 1.399 . S
C1027 C1032 1.399 . S
C1028 C1027 1.399 . S
C1028 C1029 1.376 . S
C1029 H1016 0.930 . S
C1029 C1028 1.376 . S
C1029 C1030 1.388 . S
C1030 H1017 0.930 . S
C1030 C1029 1.388 . S
C1030 C1031 1.390 . S
C1031 C1030 1.390 . S
C1031 C1032 1.394 . S
C1031 C1037 1.465 . S
C1032 C1027 1.399 . S
C1032 C1031 1.394 . S
C1032 C1033 1.516 . S
C1033 C1032 1.516 . S
C1033 C1034 1.502 . S
C1033 C1035 1.561 . S
C1033 C1036 1.526 . S
C1034 H1018 0.959 . S
C1034 H1019 0.959 . S
C1034 H1020 0.961 . S
C1034 C1033 1.502 . S
C1035 H1021 0.960 . S
C1035 H1022 0.961 . S
C1035 H1023 0.959 . S
C1035 C1033 1.561 . S
C1036 C1033 1.526 . S
C1036 C1037 1.396 . S
C1036 C1041 1.390 . S
C1037 C1031 1.465 . S
C1037 C1036 1.396 . S
C1037 C1038 1.399 . S
C1038 H1024 0.929 . S
C1038 C1037 1.399 . S
C1038 C1039 1.385 . S
C1039 H1025 0.931 . S
C1039 C1038 1.385 . S
C1039 C1040 1.389 . S
C1040 C1039 1.389 . S
C1040 C1041 1.387 . S
C1041 H1026 0.930 . S
C1041 C1036 1.390 . S
C1041 C1040 1.387 . S
H1042 C1054 0.930 . S
H1043 C1056 0.930 . S
H1044 C1057 0.930 . S
H1045 C1061 0.959 . S
H1046 C1061 0.959 . S
H1047 C1061 0.961 . S
H1048 C1062 0.960 . S
H1049 C1062 0.961 . S
H1050 C1062 0.959 . S
H1051 C1065 0.929 . S
H1052 C1066 0.931 . S
H1053 C1068 0.930 . S
C1054 H1042 0.930 . S
C1054 C1055 1.399 . S
C1054 C1059 1.399 . S
C1055 C1054 1.399 . S
C1055 C1056 1.376 . S
C1056 H1043 0.930 . S
C1056 C1055 1.376 . S
C1056 C1057 1.388 . S
C1057 H1044 0.930 . S
C1057 C1056 1.388 . S
C1057 C1058 1.390 . S
C1058 C1057 1.390 . S
C1058 C1059 1.394 . S
C1058 C1064 1.465 . S
C1059 C1054 1.399 . S
C1059 C1058 1.394 . S
C1059 C1060 1.516 . S
C1060 C1059 1.516 . S
C1060 C1061 1.502 . S
C1060 C1062 1.561 . S
C1060 C1063 1.526 . S
C1061 H1045 0.959 . S
C1061 H1046 0.959 . S
C1061 H1047 0.961 . S
C1061 C1060 1.502 . S
C1062 H1048 0.960 . S
C1062 H1049 0.961 . S
C1062 H1050 0.959 . S
C1062 C1060 1.561 . S
C1063 C1060 1.526 . S
C1063 C1064 1.396 . S
C1063 C1068 1.390 . S
C1064 C1058 1.465 . S
C1064 C1063 1.396 . S
C1064 C1065 1.399 . S
C1065 H1051 0.929 . S
C1065 C1064 1.399 . S
C1065 C1066 1.385 . S
C1066 H1052 0.931 . S
C1066 C1065 1.385 . S
C1066 C1067 1.389 . S
C1067 C1066 1.389 . S
C1067 C1068 1.387 . S
C1068 H1053 0.930 . S
C1068 C1063 1.390 . S
C1068 C1067 1.387 . S
H1069 C1081 0.930 . S
H1070 C1083 0.930 . S
H1071 C1084 0.930 . S
H1072 C1088 0.959 . S
H1073 C1088 0.959 . S
H1074 C1088 0.961 . S
H1075 C1089 0.960 . S
H1076 C1089 0.961 . S
H1077 C1089 0.959 . S
H1078 C1092 0.929 . S
H1079 C1093 0.931 . S
H1080 C1095 0.930 . S
C1081 H1069 0.930 . S
C1081 C1082 1.399 . S
C1081 C1086 1.399 . S
C1082 C1081 1.399 . S
C1082 C1083 1.376 . S
C1083 H1070 0.930 . S
C1083 C1082 1.376 . S
C1083 C1084 1.388 . S
C1084 H1071 0.930 . S
C1084 C1083 1.388 . S
C1084 C1085 1.390 . S
C1085 C1084 1.390 . S
C1085 C1086 1.394 . S
C1085 C1091 1.465 . S
C1086 C1081 1.399 . S
C1086 C1085 1.394 . S
C1086 C1087 1.516 . S
C1087 C1086 1.516 . S
C1087 C1088 1.502 . S
C1087 C1089 1.561 . S
C1087 C1090 1.526 . S
C1088 H1072 0.959 . S
C1088 H1073 0.959 . S
C1088 H1074 0.961 . S
C1088 C1087 1.502 . S
C1089 H1075 0.960 . S
C1089 H1076 0.961 . S
C1089 H1077 0.959 . S
C1089 C1087 1.561 . S
C1090 C1087 1.526 . S
C1090 C1091 1.396 . S
C1090 C1095 1.390 . S
C1091 C1085 1.465 . S
C1091 C1090 1.396 . S
C1091 C1092 1.399 . S
C1092 H1078 0.929 . S
C1092 C1091 1.399 . S
C1092 C1093 1.385 . S
C1093 H1079 0.931 . S
C1093 C1092 1.385 . S
C1093 C1094 1.389 . S
C1094 C1093 1.389 . S
C1094 C1095 1.387 . S
C1095 H1080 0.930 . S
C1095 C1090 1.390 . S
C1095 C1094 1.387 . S
H1096 C1108 0.930 . S
H1097 C1110 0.930 . S
H1098 C1111 0.930 . S
H1099 C1115 0.959 . S
H1100 C1115 0.959 . S
H1101 C1115 0.961 . S
H1102 C1116 0.960 . S
H1103 C1116 0.961 . S
H1104 C1116 0.959 . S
H1105 C1119 0.929 . S
H1106 C1120 0.931 . S
H1107 C1122 0.930 . S
C1108 H1096 0.930 . S
C1108 C1109 1.399 . S
C1108 C1113 1.399 . S
C1109 C1108 1.399 . S
C1109 C1110 1.376 . S
C1110 H1097 0.930 . S
C1110 C1109 1.376 . S
C1110 C1111 1.388 . S
C1111 H1098 0.930 . S
C1111 C1110 1.388 . S
C1111 C1112 1.390 . S
C1112 C1111 1.390 . S
C1112 C1113 1.394 . S
C1112 C1118 1.465 . S
C1113 C1108 1.399 . S
C1113 C1112 1.394 . S
C1113 C1114 1.516 . S
C1114 C1113 1.516 . S
C1114 C1115 1.502 . S
C1114 C1116 1.561 . S
C1114 C1117 1.526 . S
C1115 H1099 0.959 . S
C1115 H1100 0.959 . S
C1115 H1101 0.961 . S
C1115 C1114 1.502 . S
C1116 H1102 0.960 . S
C1116 H1103 0.961 . S
C1116 H1104 0.959 . S
C1116 C1114 1.561 . S
C1117 C1114 1.526 . S
C1117 C1118 1.396 . S
C1117 C1122 1.390 . S
C1118 C1112 1.465 . S
C1118 C1117 1.396 . S
C1118 C1119 1.399 . S
C1119 H1105 0.929 . S
C1119 C1118 1.399 . S
C1119 C1120 1.385 . S
C1120 H1106 0.931 . S
C1120 C1119 1.385 . S
C1120 C1121 1.389 . S
C1121 C1120 1.389 . S
C1121 C1122 1.387 . S
C1122 H1107 0.930 . S
C1122 C1117 1.390 . S
C1122 C1121 1.387 . S
H1123 C1135 0.930 . S
H1124 C1137 0.930 . S
H1125 C1138 0.930 . S
H1126 C1142 0.959 . S
H1127 C1142 0.959 . S
H1128 C1142 0.961 . S
H1129 C1143 0.960 . S
H1130 C1143 0.961 . S
H1131 C1143 0.959 . S
H1132 C1146 0.929 . S
H1133 C1147 0.931 . S
H1134 C1149 0.930 . S
C1135 H1123 0.930 . S
C1135 C1136 1.399 . S
C1135 C1140 1.399 . S
C1136 C1135 1.399 . S
C1136 C1137 1.376 . S
C1137 H1124 0.930 . S
C1137 C1136 1.376 . S
C1137 C1138 1.388 . S
C1138 H1125 0.930 . S
C1138 C1137 1.388 . S
C1138 C1139 1.390 . S
C1139 C1138 1.390 . S
C1139 C1140 1.394 . S
C1139 C1145 1.465 . S
C1140 C1135 1.399 . S
C1140 C1139 1.394 . S
C1140 C1141 1.516 . S
C1141 C1140 1.516 . S
C1141 C1142 1.502 . S
C1141 C1143 1.561 . S
C1141 C1144 1.526 . S
C1142 H1126 0.959 . S
C1142 H1127 0.959 . S
C1142 H1128 0.961 . S
C1142 C1141 1.502 . S
C1143 H1129 0.960 . S
C1143 H1130 0.961 . S
C1143 H1131 0.959 . S
C1143 C1141 1.561 . S
C1144 C1141 1.526 . S
C1144 C1145 1.396 . S
C1144 C1149 1.390 . S
C1145 C1139 1.465 . S
C1145 C1144 1.396 . S
C1145 C1146 1.399 . S
C1146 H1132 0.929 . S
C1146 C1145 1.399 . S
C1146 C1147 1.385 . S
C1147 H1133 0.931 . S
C1147 C1146 1.385 . S
C1147 C1148 1.389 . S
C1148 C1147 1.389 . S
C1148 C1149 1.387 . S
C1149 H1134 0.930 . S
C1149 C1144 1.390 . S
C1149 C1148 1.387 . S
H1150 C1162 0.930 . S
H1151 C1164 0.930 . S
H1152 C1165 0.930 . S
H1153 C1169 0.959 . S
H1154 C1169 0.959 . S
H1155 C1169 0.961 . S
H1156 C1170 0.960 . S
H1157 C1170 0.961 . S
H1158 C1170 0.959 . S
H1159 C1173 0.929 . S
H1160 C1174 0.931 . S
H1161 C1176 0.930 . S
C1162 H1150 0.930 . S
C1162 C1163 1.399 . S
C1162 C1167 1.399 . S
C1163 C1162 1.399 . S
C1163 C1164 1.376 . S
C1164 H1151 0.930 . S
C1164 C1163 1.376 . S
C1164 C1165 1.388 . S
C1165 H1152 0.930 . S
C1165 C1164 1.388 . S
C1165 C1166 1.390 . S
C1166 C1165 1.390 . S
C1166 C1167 1.394 . S
C1166 C1172 1.465 . S
C1167 C1162 1.399 . S
C1167 C1166 1.394 . S
C1167 C1168 1.516 . S
C1168 C1167 1.516 . S
C1168 C1169 1.502 . S
C1168 C1170 1.561 . S
C1168 C1171 1.526 . S
C1169 H1153 0.959 . S
C1169 H1154 0.959 . S
C1169 H1155 0.961 . S
C1169 C1168 1.502 . S
C1170 H1156 0.960 . S
C1170 H1157 0.961 . S
C1170 H1158 0.959 . S
C1170 C1168 1.561 . S
C1171 C1168 1.526 . S
C1171 C1172 1.396 . S
C1171 C1176 1.390 . S
C1172 C1166 1.465 . S
C1172 C1171 1.396 . S
C1172 C1173 1.399 . S
C1173 H1159 0.929 . S
C1173 C1172 1.399 . S
C1173 C1174 1.385 . S
C1174 H1160 0.931 . S
C1174 C1173 1.385 . S
C1174 C1175 1.389 . S
C1175 C1174 1.389 . S
C1175 C1176 1.387 . S
C1176 H1161 0.930 . S
C1176 C1171 1.390 . S
C1176 C1175 1.387 . S
H1177 C1189 0.930 . S
H1178 C1191 0.930 . S
H1179 C1192 0.930 . S
H1180 C1196 0.959 . S
H1181 C1196 0.959 . S
H1182 C1196 0.961 . S
H1183 C1197 0.960 . S
H1184 C1197 0.961 . S
H1185 C1197 0.959 . S
H1186 C1200 0.929 . S
H1187 C1201 0.931 . S
H1188 C1203 0.930 . S
C1189 H1177 0.930 . S
C1189 C1190 1.399 . S
C1189 C1194 1.399 . S
C1190 C1189 1.399 . S
C1190 C1191 1.376 . S
C1191 H1178 0.930 . S
C1191 C1190 1.376 . S
C1191 C1192 1.388 . S
C1192 H1179 0.930 . S
C1192 C1191 1.388 . S
C1192 C1193 1.390 . S
C1193 C1192 1.390 . S
C1193 C1194 1.394 . S
C1193 C1199 1.465 . S
C1194 C1189 1.399 . S
C1194 C1193 1.394 . S
C1194 C1195 1.516 . S
C1195 C1194 1.516 . S
C1195 C1196 1.502 . S
C1195 C1197 1.561 . S
C1195 C1198 1.526 . S
C1196 H1180 0.959 . S
C1196 H1181 0.959 . S
C1196 H1182 0.961 . S
C1196 C1195 1.502 . S
C1197 H1183 0.960 . S
C1197 H1184 0.961 . S
C1197 H1185 0.959 . S
C1197 C1195 1.561 . S
C1198 C1195 1.526 . S
C1198 C1199 1.396 . S
C1198 C1203 1.390 . S
C1199 C1193 1.465 . S
C1199 C1198 1.396 . S
C1199 C1200 1.399 . S
C1200 H1186 0.929 . S
C1200 C1199 1.399 . S
C1200 C1201 1.385 . S
C1201 H1187 0.931 . S
C1201 C1200 1.385 . S
C1201 C1202 1.389 . S
C1202 C1201 1.389 . S
C1202 C1203 1.387 . S
C1203 H1188 0.930 . S
C1203 C1198 1.390 . S
C1203 C1202 1.387 . S
H1204 C1216 0.930 . S
H1205 C1218 0.930 . S
H1206 C1219 0.930 . S
H1207 C1223 0.959 . S
H1208 C1223 0.959 . S
H1209 C1223 0.961 . S
H1210 C1224 0.960 . S
H1211 C1224 0.961 . S
H1212 C1224 0.959 . S
H1213 C1227 0.929 . S
H1214 C1228 0.931 . S
H1215 C1230 0.930 . S
C1216 H1204 0.930 . S
C1216 C1217 1.399 . S
C1216 C1221 1.399 . S
C1217 C1216 1.399 . S
C1217 C1218 1.376 . S
C1218 H1205 0.930 . S
C1218 C1217 1.376 . S
C1218 C1219 1.388 . S
C1219 H1206 0.930 . S
C1219 C1218 1.388 . S
C1219 C1220 1.390 . S
C1220 C1219 1.390 . S
C1220 C1221 1.394 . S
C1220 C1226 1.465 . S
C1221 C1216 1.399 . S
C1221 C1220 1.394 . S
C1221 C1222 1.516 . S
C1222 C1221 1.516 . S
C1222 C1223 1.502 . S
C1222 C1224 1.561 . S
C1222 C1225 1.526 . S
C1223 H1207 0.959 . S
C1223 H1208 0.959 . S
C1223 H1209 0.961 . S
C1223 C1222 1.502 . S
C1224 H1210 0.960 . S
C1224 H1211 0.961 . S
C1224 H1212 0.959 . S
C1224 C1222 1.561 . S
C1225 C1222 1.526 . S
C1225 C1226 1.396 . S
C1225 C1230 1.390 . S
C1226 C1220 1.465 . S
C1226 C1225 1.396 . S
C1226 C1227 1.399 . S
C1227 H1213 0.929 . S
C1227 C1226 1.399 . S
C1227 C1228 1.385 . S
C1228 H1214 0.931 . S
C1228 C1227 1.385 . S
C1228 C1229 1.389 . S
C1229 C1228 1.389 . S
C1229 C1230 1.387 . S
C1230 H1215 0.930 . S
C1230 C1225 1.390 . S
C1230 C1229 1.387 . S
H1231 C1243 0.930 . S
H1232 C1245 0.930 . S
H1233 C1246 0.930 . S
H1234 C1250 0.959 . S
H1235 C1250 0.959 . S
H1236 C1250 0.961 . S
H1237 C1251 0.960 . S
H1238 C1251 0.961 . S
H1239 C1251 0.959 . S
H1240 C1254 0.929 . S
H1241 C1255 0.931 . S
H1242 C1257 0.930 . S
C1243 H1231 0.930 . S
C1243 C1244 1.399 . S
C1243 C1248 1.399 . S
C1244 C1243 1.399 . S
C1244 C1245 1.376 . S
C1245 H1232 0.930 . S
C1245 C1244 1.376 . S
C1245 C1246 1.388 . S
C1246 H1233 0.930 . S
C1246 C1245 1.388 . S
C1246 C1247 1.390 . S
C1247 C1246 1.390 . S
C1247 C1248 1.394 . S
C1247 C1253 1.465 . S
C1248 C1243 1.399 . S
C1248 C1247 1.394 . S
C1248 C1249 1.516 . S
C1249 C1248 1.516 . S
C1249 C1250 1.502 . S
C1249 C1251 1.561 . S
C1249 C1252 1.526 . S
C1250 H1234 0.959 . S
C1250 H1235 0.959 . S
C1250 H1236 0.961 . S
C1250 C1249 1.502 . S
C1251 H1237 0.960 . S
C1251 H1238 0.961 . S
C1251 H1239 0.959 . S
C1251 C1249 1.561 . S
C1252 C1249 1.526 . S
C1252 C1253 1.396 . S
C1252 C1257 1.390 . S
C1253 C1247 1.465 . S
C1253 C1252 1.396 . S
C1253 C1254 1.399 . S
C1254 H1240 0.929 . S
C1254 C1253 1.399 . S
C1254 C1255 1.385 . S
C1255 H1241 0.931 . S
C1255 C1254 1.385 . S
C1255 C1256 1.389 . S
C1256 C1255 1.389 . S
C1256 C1257 1.387 . S
C1257 H1242 0.930 . S
C1257 C1252 1.390 . S
C1257 C1256 1.387 . S
H1258 C1270 0.930 . S
H1259 C1272 0.930 . S
H1260 C1273 0.930 . S
H1261 C1277 0.959 . S
H1262 C1277 0.959 . S
H1263 C1277 0.961 . S
H1264 C1278 0.960 . S
H1265 C1278 0.961 . S
H1266 C1278 0.959 . S
H1267 C1281 0.929 . S
H1268 C1282 0.931 . S
H1269 C1284 0.930 . S
C1270 H1258 0.930 . S
C1270 C1271 1.399 . S
C1270 C1275 1.399 . S
C1271 C1270 1.399 . S
C1271 C1272 1.376 . S
C1272 H1259 0.930 . S
C1272 C1271 1.376 . S
C1272 C1273 1.388 . S
C1273 H1260 0.930 . S
C1273 C1272 1.388 . S
C1273 C1274 1.390 . S
C1274 C1273 1.390 . S
C1274 C1275 1.394 . S
C1274 C1280 1.465 . S
C1275 C1270 1.399 . S
C1275 C1274 1.394 . S
C1275 C1276 1.516 . S
C1276 C1275 1.516 . S
C1276 C1277 1.502 . S
C1276 C1278 1.561 . S
C1276 C1279 1.526 . S
C1277 H1261 0.959 . S
C1277 H1262 0.959 . S
C1277 H1263 0.961 . S
C1277 C1276 1.502 . S
C1278 H1264 0.960 . S
C1278 H1265 0.961 . S
C1278 H1266 0.959 . S
C1278 C1276 1.561 . S
C1279 C1276 1.526 . S
C1279 C1280 1.396 . S
C1279 C1284 1.390 . S
C1280 C1274 1.465 . S
C1280 C1279 1.396 . S
C1280 C1281 1.399 . S
C1281 H1267 0.929 . S
C1281 C1280 1.399 . S
C1281 C1282 1.385 . S
C1282 H1268 0.931 . S
C1282 C1281 1.385 . S
C1282 C1283 1.389 . S
C1283 C1282 1.389 . S
C1283 C1284 1.387 . S
C1284 H1269 0.930 . S
C1284 C1279 1.390 . S
C1284 C1283 1.387 . S
H1285 C1297 0.930 . S
H1286 C1299 0.956 . S
H1287 C1300 0.954 . S
H1288 C1304 0.959 . S
H1289 C1304 0.959 . S
H1290 C1304 0.961 . S
H1291 C1305 0.960 . S
H1292 C1305 0.961 . S
H1293 C1305 0.959 . S
H1294 C1308 0.929 . S
H1295 C1309 0.931 . S
H1296 C1311 0.930 . S
C1297 H1285 0.930 . S
C1297 C1298 1.399 . S
C1297 C1302 1.399 . S
C1298 C1297 1.399 . S
C1298 C1299 1.359 1_545 S
C1299 H1286 0.956 . S
C1299 C1298 1.359 1_565 S
C1299 C1300 1.382 1_565 S
C1300 H1287 0.954 . S
C1300 C1299 1.382 1_545 S
C1300 C1301 1.390 . S
C1301 C1300 1.390 . S
C1301 C1302 1.394 . S
C1301 C1307 1.465 . S
C1302 C1297 1.399 . S
C1302 C1301 1.394 . S
C1302 C1303 1.516 . S
C1303 C1302 1.516 . S
C1303 C1304 1.502 . S
C1303 C1305 1.561 . S
C1303 C1306 1.526 . S
C1304 H1288 0.959 . S
C1304 H1289 0.959 . S
C1304 H1290 0.961 . S
C1304 C1303 1.502 . S
C1305 H1291 0.960 . S
C1305 H1292 0.961 . S
C1305 H1293 0.959 . S
C1305 C1303 1.561 . S
C1306 C1303 1.526 . S
C1306 C1307 1.396 . S
C1306 C1311 1.390 . S
C1307 C1301 1.465 . S
C1307 C1306 1.396 . S
C1307 C1308 1.399 . S
C1308 H1294 0.929 . S
C1308 C1307 1.399 . S
C1308 C1309 1.385 . S
C1309 H1295 0.931 . S
C1309 C1308 1.385 . S
C1309 C1310 1.389 . S
C1310 C1309 1.389 . S
C1310 C1311 1.387 . S
C1311 H1296 0.930 . S
C1311 C1306 1.390 . S
C1311 C1310 1.387 . S
H1312 C1324 0.930 . S
H1313 C1326 0.930 . S
H1314 C1327 0.930 . S
H1315 C1331 0.959 . S
H1316 C1331 0.959 . S
H1317 C1331 0.961 . S
H1318 C1332 0.960 . S
H1319 C1332 0.961 . S
H1320 C1332 0.959 . S
H1321 C1335 0.929 . S
H1322 C1336 0.931 . S
H1323 C1338 0.930 . S
C1324 H1312 0.930 . S
C1324 C1325 1.399 . S
C1324 C1329 1.399 . S
C1325 C1324 1.399 . S
C1325 C1326 1.376 . S
C1326 H1313 0.930 . S
C1326 C1325 1.376 . S
C1326 C1327 1.388 . S
C1327 H1314 0.930 . S
C1327 C1326 1.388 . S
C1327 C1328 1.390 . S
C1328 C1327 1.390 . S
C1328 C1329 1.394 . S
C1328 C1334 1.465 . S
C1329 C1324 1.399 . S
C1329 C1328 1.394 . S
C1329 C1330 1.516 . S
C1330 C1329 1.516 . S
C1330 C1331 1.502 . S
C1330 C1332 1.561 . S
C1330 C1333 1.526 . S
C1331 H1315 0.959 . S
C1331 H1316 0.959 . S
C1331 H1317 0.961 . S
C1331 C1330 1.502 . S
C1332 H1318 0.960 . S
C1332 H1319 0.961 . S
C1332 H1320 0.959 . S
C1332 C1330 1.561 . S
C1333 C1330 1.526 . S
C1333 C1334 1.396 . S
C1333 C1338 1.390 . S
C1334 C1328 1.465 . S
C1334 C1333 1.396 . S
C1334 C1335 1.399 . S
C1335 H1321 0.929 . S
C1335 C1334 1.399 . S
C1335 C1336 1.385 . S
C1336 H1322 0.931 . S
C1336 C1335 1.385 . S
C1336 C1337 1.389 . S
C1337 C1336 1.389 . S
C1337 C1338 1.387 . S
C1338 H1323 0.930 . S
C1338 C1333 1.390 . S
C1338 C1337 1.387 . S
H1339 C1351 0.930 . S
H1340 C1353 0.930 . S
H1341 C1354 0.930 . S
H1342 C1358 0.959 . S
H1343 C1358 0.959 . S
H1344 C1358 0.961 . S
H1345 C1359 0.960 . S
H1346 C1359 0.961 . S
H1347 C1359 0.959 . S
H1348 C1362 0.929 . S
H1349 C1363 0.931 . S
H1350 C1365 0.930 . S
C1351 H1339 0.930 . S
C1351 C1352 1.399 . S
C1351 C1356 1.399 . S
C1352 C1351 1.399 . S
C1352 C1353 1.376 . S
C1353 H1340 0.930 . S
C1353 C1352 1.376 . S
C1353 C1354 1.388 . S
C1354 H1341 0.930 . S
C1354 C1353 1.388 . S
C1354 C1355 1.390 . S
C1355 C1354 1.390 . S
C1355 C1356 1.394 . S
C1355 C1361 1.465 . S
C1356 C1351 1.399 . S
C1356 C1355 1.394 . S
C1356 C1357 1.516 . S
C1357 C1356 1.516 . S
C1357 C1358 1.502 . S
C1357 C1359 1.561 . S
C1357 C1360 1.526 . S
C1358 H1342 0.959 . S
C1358 H1343 0.959 . S
C1358 H1344 0.961 . S
C1358 C1357 1.502 . S
C1359 H1345 0.960 . S
C1359 H1346 0.961 . S
C1359 H1347 0.959 . S
C1359 C1357 1.561 . S
C1360 C1357 1.526 . S
C1360 C1361 1.396 . S
C1360 C1365 1.390 . S
C1361 C1355 1.465 . S
C1361 C1360 1.396 . S
C1361 C1362 1.399 . S
C1362 H1348 0.929 . S
C1362 C1361 1.399 . S
C1362 C1363 1.385 . S
C1363 H1349 0.931 . S
C1363 C1362 1.385 . S
C1363 C1364 1.389 . S
C1364 C1363 1.389 . S
C1364 C1365 1.387 . S
C1365 H1350 0.930 . S
C1365 C1360 1.390 . S
C1365 C1364 1.387 . S
H1366 C1378 0.930 . S
H1367 C1380 0.930 . S
H1368 C1381 0.930 . S
H1369 C1385 0.959 . S
H1370 C1385 0.959 1_655 S
H1371 C1385 0.961 1_655 S
H1372 C1386 0.960 . S
H1373 C1386 0.961 . S
H1374 C1386 0.959 . S
H1375 C1389 0.929 . S
H1376 C1390 0.931 . S
H1377 C1392 0.930 . S
C1378 H1366 0.930 . S
C1378 C1379 1.399 . S
C1378 C1383 1.399 . S
C1379 C1378 1.399 . S
C1379 C1380 1.376 . S
C1380 H1367 0.930 . S
C1380 C1379 1.376 . S
C1380 C1381 1.388 . S
C1381 H1368 0.930 . S
C1381 C1380 1.388 . S
C1381 C1382 1.390 . S
C1382 C1381 1.390 . S
C1382 C1383 1.394 . S
C1382 C1388 1.465 . S
C1383 C1378 1.399 . S
C1383 C1382 1.394 . S
C1383 C1384 1.516 . S
C1384 C1383 1.516 . S
C1384 C1385 1.502 . S
C1384 C1386 1.561 1_455 S
C1384 C1387 1.526 . S
C1385 H1369 0.959 . S
C1385 H1370 0.959 1_455 S
C1385 H1371 0.961 1_455 S
C1385 C1384 1.502 . S
C1386 H1372 0.960 . S
C1386 H1373 0.961 . S
C1386 H1374 0.959 . S
C1386 C1384 1.561 1_655 S
C1387 C1384 1.526 . S
C1387 C1388 1.396 . S
C1387 C1392 1.390 . S
C1388 C1382 1.465 . S
C1388 C1387 1.396 . S
C1388 C1389 1.399 . S
C1389 H1375 0.929 . S
C1389 C1388 1.399 . S
C1389 C1390 1.385 . S
C1390 H1376 0.931 . S
C1390 C1389 1.385 . S
C1390 C1391 1.389 . S
C1391 C1390 1.389 . S
C1391 C1392 1.387 . S
C1392 H1377 0.930 . S
C1392 C1387 1.390 . S
C1392 C1391 1.387 . S
H1393 C1405 0.930 . S
H1394 C1407 0.930 . S
H1395 C1408 0.930 . S
H1396 C1412 0.959 . S
H1397 C1412 0.959 . S
H1398 C1412 0.961 . S
H1399 C1413 0.960 . S
H1400 C1413 0.961 . S
H1401 C1413 0.959 . S
H1402 C1416 0.929 . S
H1403 C1417 0.931 . S
H1404 C1419 0.930 . S
C1405 H1393 0.930 . S
C1405 C1406 1.399 . S
C1405 C1410 1.399 . S
C1406 C1405 1.399 . S
C1406 C1407 1.376 . S
C1407 H1394 0.930 . S
C1407 C1406 1.376 . S
C1407 C1408 1.388 . S
C1408 H1395 0.930 . S
C1408 C1407 1.388 . S
C1408 C1409 1.390 . S
C1409 C1408 1.390 . S
C1409 C1410 1.394 . S
C1409 C1415 1.465 . S
C1410 C1405 1.399 . S
C1410 C1409 1.394 . S
C1410 C1411 1.516 . S
C1411 C1410 1.516 . S
C1411 C1412 1.502 . S
C1411 C1413 1.561 . S
C1411 C1414 1.526 . S
C1412 H1396 0.959 . S
C1412 H1397 0.959 . S
C1412 H1398 0.961 . S
C1412 C1411 1.502 . S
C1413 H1399 0.960 . S
C1413 H1400 0.961 . S
C1413 H1401 0.959 . S
C1413 C1411 1.561 . S
C1414 C1411 1.526 . S
C1414 C1415 1.396 . S
C1414 C1419 1.390 . S
C1415 C1409 1.465 . S
C1415 C1414 1.396 . S
C1415 C1416 1.399 . S
C1416 H1402 0.929 . S
C1416 C1415 1.399 . S
C1416 C1417 1.385 . S
C1417 H1403 0.931 . S
C1417 C1416 1.385 . S
C1417 C1418 1.389 . S
C1418 C1417 1.389 . S
C1418 C1419 1.387 . S
C1419 H1404 0.930 . S
C1419 C1414 1.390 . S
C1419 C1418 1.387 . S
H1420 C1432 0.930 . S
H1421 C1434 0.930 . S
H1422 C1435 0.930 . S
H1423 C1439 0.959 . S
H1424 C1439 0.959 . S
H1425 C1439 0.961 . S
H1426 C1440 0.960 . S
H1427 C1440 0.961 . S
H1428 C1440 0.959 . S
H1429 C1443 0.929 . S
H1430 C1444 0.931 . S
H1431 C1446 0.930 . S
C1432 H1420 0.930 . S
C1432 C1433 1.399 . S
C1432 C1437 1.399 . S
C1433 C1432 1.399 . S
C1433 C1434 1.376 . S
C1434 H1421 0.930 . S
C1434 C1433 1.376 . S
C1434 C1435 1.388 . S
C1435 H1422 0.930 . S
C1435 C1434 1.388 . S
C1435 C1436 1.390 . S
C1436 C1435 1.390 . S
C1436 C1437 1.394 . S
C1436 C1442 1.465 . S
C1437 C1432 1.399 . S
C1437 C1436 1.394 . S
C1437 C1438 1.516 . S
C1438 C1437 1.516 . S
C1438 C1439 1.502 . S
C1438 C1440 1.561 . S
C1438 C1441 1.526 . S
C1439 H1423 0.959 . S
C1439 H1424 0.959 . S
C1439 H1425 0.961 . S
C1439 C1438 1.502 . S
C1440 H1426 0.960 . S
C1440 H1427 0.961 . S
C1440 H1428 0.959 . S
C1440 C1438 1.561 . S
C1441 C1438 1.526 . S
C1441 C1442 1.396 . S
C1441 C1446 1.390 . S
C1442 C1436 1.465 . S
C1442 C1441 1.396 . S
C1442 C1443 1.399 . S
C1443 H1429 0.929 . S
C1443 C1442 1.399 . S
C1443 C1444 1.385 . S
C1444 H1430 0.931 . S
C1444 C1443 1.385 . S
C1444 C1445 1.389 . S
C1445 C1444 1.389 . S
C1445 C1446 1.387 . S
C1446 H1431 0.930 . S
C1446 C1441 1.390 . S
C1446 C1445 1.387 . S
H1447 C1459 0.930 . S
H1448 C1461 0.930 . S
H1449 C1462 0.930 . S
H1450 C1466 0.959 . S
H1451 C1466 0.959 . S
H1452 C1466 0.961 . S
H1453 C1467 0.960 . S
H1454 C1467 0.961 . S
H1455 C1467 0.959 . S
H1456 C1470 0.929 . S
H1457 C1471 0.931 . S
H1458 C1473 0.930 . S
C1459 H1447 0.930 . S
C1459 C1460 1.399 . S
C1459 C1464 1.399 . S
C1460 C1459 1.399 . S
C1460 C1461 1.376 . S
C1461 H1448 0.930 . S
C1461 C1460 1.376 . S
C1461 C1462 1.388 . S
C1462 H1449 0.930 . S
C1462 C1461 1.388 . S
C1462 C1463 1.390 . S
C1463 C1462 1.390 . S
C1463 C1464 1.394 . S
C1463 C1469 1.465 . S
C1464 C1459 1.399 . S
C1464 C1463 1.394 . S
C1464 C1465 1.516 . S
C1465 C1464 1.516 . S
C1465 C1466 1.502 . S
C1465 C1467 1.561 . S
C1465 C1468 1.526 . S
C1466 H1450 0.959 . S
C1466 H1451 0.959 . S
C1466 H1452 0.961 . S
C1466 C1465 1.502 . S
C1467 H1453 0.960 . S
C1467 H1454 0.961 . S
C1467 H1455 0.959 . S
C1467 C1465 1.561 . S
C1468 C1465 1.526 . S
C1468 C1469 1.396 . S
C1468 C1473 1.390 . S
C1469 C1463 1.465 . S
C1469 C1468 1.396 . S
C1469 C1470 1.399 . S
C1470 H1456 0.929 . S
C1470 C1469 1.399 . S
C1470 C1471 1.385 . S
C1471 H1457 0.931 . S
C1471 C1470 1.385 . S
C1471 C1472 1.389 . S
C1472 C1471 1.389 . S
C1472 C1473 1.387 . S
C1473 H1458 0.930 . S
C1473 C1468 1.390 . S
C1473 C1472 1.387 . S
H1474 C1486 0.930 . S
H1475 C1488 0.930 . S
H1476 C1489 0.930 . S
H1477 C1493 0.959 . S
H1478 C1493 0.959 . S
H1479 C1493 0.961 . S
H1480 C1494 0.960 . S
H1481 C1494 0.961 . S
H1482 C1494 0.959 . S
H1483 C1497 0.929 . S
H1484 C1498 0.931 . S
H1485 C1500 0.930 . S
C1486 H1474 0.930 . S
C1486 C1487 1.399 . S
C1486 C1491 1.399 . S
C1487 C1486 1.399 . S
C1487 C1488 1.376 . S
C1488 H1475 0.930 . S
C1488 C1487 1.376 . S
C1488 C1489 1.388 . S
C1489 H1476 0.930 . S
C1489 C1488 1.388 . S
C1489 C1490 1.390 . S
C1490 C1489 1.390 . S
C1490 C1491 1.394 . S
C1490 C1496 1.465 . S
C1491 C1486 1.399 . S
C1491 C1490 1.394 . S
C1491 C1492 1.516 . S
C1492 C1491 1.516 . S
C1492 C1493 1.502 . S
C1492 C1494 1.561 . S
C1492 C1495 1.526 . S
C1493 H1477 0.959 . S
C1493 H1478 0.959 . S
C1493 H1479 0.961 . S
C1493 C1492 1.502 . S
C1494 H1480 0.960 . S
C1494 H1481 0.961 . S
C1494 H1482 0.959 . S
C1494 C1492 1.561 . S
C1495 C1492 1.526 . S
C1495 C1496 1.396 . S
C1495 C1500 1.390 . S
C1496 C1490 1.465 . S
C1496 C1495 1.396 . S
C1496 C1497 1.399 . S
C1497 H1483 0.929 . S
C1497 C1496 1.399 . S
C1497 C1498 1.385 . S
C1498 H1484 0.931 . S
C1498 C1497 1.385 . S
C1498 C1499 1.389 . S
C1499 C1498 1.389 . S
C1499 C1500 1.387 . S
C1500 H1485 0.930 . S
C1500 C1495 1.390 . S
C1500 C1499 1.387 . S
H1501 C1513 0.930 . S
H1502 C1515 0.930 . S
H1503 C1516 0.930 . S
H1504 C1520 0.959 . S
H1505 C1520 0.959 . S
H1506 C1520 0.961 . S
H1507 C1521 0.960 . S
H1508 C1521 0.961 . S
H1509 C1521 0.959 . S
H1510 C1524 0.929 . S
H1511 C1525 0.931 . S
H1512 C1527 0.930 . S
C1513 H1501 0.930 . S
C1513 C1514 1.399 . S
C1513 C1518 1.399 . S
C1514 C1513 1.399 . S
C1514 C1515 1.376 . S
C1515 H1502 0.930 . S
C1515 C1514 1.376 . S
C1515 C1516 1.388 . S
C1516 H1503 0.930 . S
C1516 C1515 1.388 . S
C1516 C1517 1.390 . S
C1517 C1516 1.390 . S
C1517 C1518 1.394 . S
C1517 C1523 1.465 . S
C1518 C1513 1.399 . S
C1518 C1517 1.394 . S
C1518 C1519 1.516 . S
C1519 C1518 1.516 . S
C1519 C1520 1.502 . S
C1519 C1521 1.561 . S
C1519 C1522 1.526 . S
C1520 H1504 0.959 . S
C1520 H1505 0.959 . S
C1520 H1506 0.961 . S
C1520 C1519 1.502 . S
C1521 H1507 0.960 . S
C1521 H1508 0.961 . S
C1521 H1509 0.959 . S
C1521 C1519 1.561 . S
C1522 C1519 1.526 . S
C1522 C1523 1.396 . S
C1522 C1527 1.390 . S
C1523 C1517 1.465 . S
C1523 C1522 1.396 . S
C1523 C1524 1.399 . S
C1524 H1510 0.929 . S
C1524 C1523 1.399 . S
C1524 C1525 1.385 . S
C1525 H1511 0.931 . S
C1525 C1524 1.385 . S
C1525 C1526 1.389 . S
C1526 C1525 1.389 . S
C1526 C1527 1.387 . S
C1527 H1512 0.930 . S
C1527 C1522 1.390 . S
C1527 C1526 1.387 . S
H1528 C1540 0.930 . S
H1529 C1542 0.930 . S
H1530 C1543 0.930 . S
H1531 C1547 0.959 . S
H1532 C1547 0.959 . S
H1533 C1547 0.961 . S
H1534 C1548 0.960 . S
H1535 C1548 0.961 . S
H1536 C1548 0.959 . S
H1537 C1551 0.929 . S
H1538 C1552 0.931 . S
H1539 C1554 0.930 . S
C1540 H1528 0.930 . S
C1540 C1541 1.399 . S
C1540 C1545 1.399 . S
C1541 C1540 1.399 . S
C1541 C1542 1.376 . S
C1542 H1529 0.930 . S
C1542 C1541 1.376 . S
C1542 C1543 1.388 . S
C1543 H1530 0.930 . S
C1543 C1542 1.388 . S
C1543 C1544 1.390 . S
C1544 C1543 1.390 . S
C1544 C1545 1.394 . S
C1544 C1550 1.465 . S
C1545 C1540 1.399 . S
C1545 C1544 1.394 . S
C1545 C1546 1.516 . S
C1546 C1545 1.516 . S
C1546 C1547 1.502 . S
C1546 C1548 1.561 . S
C1546 C1549 1.526 . S
C1547 H1531 0.959 . S
C1547 H1532 0.959 . S
C1547 H1533 0.961 . S
C1547 C1546 1.502 . S
C1548 H1534 0.960 . S
C1548 H1535 0.961 . S
C1548 H1536 0.959 . S
C1548 C1546 1.561 . S
C1549 C1546 1.526 . S
C1549 C1550 1.396 . S
C1549 C1554 1.390 . S
C1550 C1544 1.465 . S
C1550 C1549 1.396 . S
C1550 C1551 1.399 . S
C1551 H1537 0.929 . S
C1551 C1550 1.399 . S
C1551 C1552 1.385 . S
C1552 H1538 0.931 . S
C1552 C1551 1.385 . S
C1552 C1553 1.389 . S
C1553 C1552 1.389 . S
C1553 C1554 1.387 . S
C1554 H1539 0.930 . S
C1554 C1549 1.390 . S
C1554 C1553 1.387 . S
H1555 C1567 0.930 . S
H1556 C1569 0.930 . S
H1557 C1570 0.930 . S
H1558 C1574 0.959 . S
H1559 C1574 0.959 . S
H1560 C1574 0.961 . S
H1561 C1575 0.960 . S
H1562 C1575 0.961 . S
H1563 C1575 0.959 . S
H1564 C1578 0.929 . S
H1565 C1579 0.931 . S
H1566 C1581 0.930 . S
C1567 H1555 0.930 . S
C1567 C1568 1.399 . S
C1567 C1572 1.399 . S
C1568 C1567 1.399 . S
C1568 C1569 1.376 . S
C1569 H1556 0.930 . S
C1569 C1568 1.376 . S
C1569 C1570 1.388 . S
C1570 H1557 0.930 . S
C1570 C1569 1.388 . S
C1570 C1571 1.390 . S
C1571 C1570 1.390 . S
C1571 C1572 1.394 . S
C1571 C1577 1.465 . S
C1572 C1567 1.399 . S
C1572 C1571 1.394 . S
C1572 C1573 1.516 . S
C1573 C1572 1.516 . S
C1573 C1574 1.502 . S
C1573 C1575 1.561 . S
C1573 C1576 1.526 . S
C1574 H1558 0.959 . S
C1574 H1559 0.959 . S
C1574 H1560 0.961 . S
C1574 C1573 1.502 . S
C1575 H1561 0.960 . S
C1575 H1562 0.961 . S
C1575 H1563 0.959 . S
C1575 C1573 1.561 . S
C1576 C1573 1.526 . S
C1576 C1577 1.396 . S
C1576 C1581 1.390 . S
C1577 C1571 1.465 . S
C1577 C1576 1.396 . S
C1577 C1578 1.399 . S
C1578 H1564 0.929 . S
C1578 C1577 1.399 . S
C1578 C1579 1.385 . S
C1579 H1565 0.931 . S
C1579 C1578 1.385 . S
C1579 C1580 1.389 . S
C1580 C1579 1.389 . S
C1580 C1581 1.387 . S
C1581 H1566 0.930 . S
C1581 C1576 1.390 . S
C1581 C1580 1.387 . S
H1582 C1594 0.930 . S
H1583 C1596 0.930 1_545 S
H1584 C1597 0.930 . S
H1585 C1601 0.959 . S
H1586 C1601 0.959 . S
H1587 C1601 0.961 . S
H1588 C1602 0.960 . S
H1589 C1602 0.961 . S
H1590 C1602 0.959 . S
H1591 C1605 0.929 . S
H1592 C1606 0.931 . S
H1593 C1608 0.930 . S
C1594 H1582 0.930 . S
C1594 C1595 1.399 . S
C1594 C1599 1.399 . S
C1595 C1594 1.399 . S
C1595 C1596 1.376 . S
C1596 H1583 0.930 1_565 S
C1596 C1595 1.376 . S
C1596 C1597 1.388 . S
C1597 H1584 0.930 . S
C1597 C1596 1.388 . S
C1597 C1598 1.390 . S
C1598 C1597 1.390 . S
C1598 C1599 1.394 . S
C1598 C1604 1.465 . S
C1599 C1594 1.399 . S
C1599 C1598 1.394 . S
C1599 C1600 1.516 . S
C1600 C1599 1.516 . S
C1600 C1601 1.502 . S
C1600 C1602 1.561 . S
C1600 C1603 1.526 . S
C1601 H1585 0.959 . S
C1601 H1586 0.959 . S
C1601 H1587 0.961 . S
C1601 C1600 1.502 . S
C1602 H1588 0.960 . S
C1602 H1589 0.961 . S
C1602 H1590 0.959 . S
C1602 C1600 1.561 . S
C1603 C1600 1.526 . S
C1603 C1604 1.396 . S
C1603 C1608 1.390 . S
C1604 C1598 1.465 . S
C1604 C1603 1.396 . S
C1604 C1605 1.399 . S
C1605 H1591 0.929 . S
C1605 C1604 1.399 . S
C1605 C1606 1.385 . S
C1606 H1592 0.931 . S
C1606 C1605 1.385 . S
C1606 C1607 1.389 . S
C1607 C1606 1.389 . S
C1607 C1608 1.387 . S
C1608 H1593 0.930 . S
C1608 C1603 1.390 . S
C1608 C1607 1.387 . S
H1609 C1621 0.930 . S
H1610 C1623 0.930 . S
H1611 C1624 0.930 . S
H1612 C1628 0.959 . S
H1613 C1628 0.959 . S
H1614 C1628 0.961 . S
H1615 C1629 0.960 . S
H1616 C1629 0.961 . S
H1617 C1629 0.959 . S
H1618 C1632 0.929 . S
H1619 C1633 0.931 . S
H1620 C1635 0.930 . S
C1621 H1609 0.930 . S
C1621 C1622 1.399 . S
C1621 C1626 1.399 . S
C1622 C1621 1.399 . S
C1622 C1623 1.376 . S
C1623 H1610 0.930 . S
C1623 C1622 1.376 . S
C1623 C1624 1.388 . S
C1624 H1611 0.930 . S
C1624 C1623 1.388 . S
C1624 C1625 1.390 . S
C1625 C1624 1.390 . S
C1625 C1626 1.394 . S
C1625 C1631 1.465 . S
C1626 C1621 1.399 . S
C1626 C1625 1.394 . S
C1626 C1627 1.516 . S
C1627 C1626 1.516 . S
C1627 C1628 1.502 . S
C1627 C1629 1.561 . S
C1627 C1630 1.526 . S
C1628 H1612 0.959 . S
C1628 H1613 0.959 . S
C1628 H1614 0.961 . S
C1628 C1627 1.502 . S
C1629 H1615 0.960 . S
C1629 H1616 0.961 . S
C1629 H1617 0.959 . S
C1629 C1627 1.561 . S
C1630 C1627 1.526 . S
C1630 C1631 1.396 . S
C1630 C1635 1.390 . S
C1631 C1625 1.465 . S
C1631 C1630 1.396 . S
C1631 C1632 1.399 . S
C1632 H1618 0.929 . S
C1632 C1631 1.399 . S
C1632 C1633 1.385 . S
C1633 H1619 0.931 . S
C1633 C1632 1.385 . S
C1633 C1634 1.389 . S
C1634 C1633 1.389 . S
C1634 C1635 1.387 . S
C1635 H1620 0.930 . S
C1635 C1630 1.390 . S
C1635 C1634 1.387 . S
H1636 C1648 0.930 . S
H1637 C1650 0.930 . S
H1638 C1651 0.930 . S
H1639 C1655 0.959 . S
H1640 C1655 0.959 . S
H1641 C1655 0.961 . S
H1642 C1656 0.960 . S
H1643 C1656 0.961 . S
H1644 C1656 0.959 . S
H1645 C1659 0.929 . S
H1646 C1660 0.931 . S
H1647 C1662 0.930 . S
C1648 H1636 0.930 . S
C1648 C1649 1.399 . S
C1648 C1653 1.399 . S
C1649 C1648 1.399 . S
C1649 C1650 1.376 . S
C1650 H1637 0.930 . S
C1650 C1649 1.376 . S
C1650 C1651 1.388 . S
C1651 H1638 0.930 . S
C1651 C1650 1.388 . S
C1651 C1652 1.390 . S
C1652 C1651 1.390 . S
C1652 C1653 1.394 . S
C1652 C1658 1.465 . S
C1653 C1648 1.399 . S
C1653 C1652 1.394 . S
C1653 C1654 1.516 . S
C1654 C1653 1.516 . S
C1654 C1655 1.502 . S
C1654 C1656 1.561 . S
C1654 C1657 1.526 . S
C1655 H1639 0.959 . S
C1655 H1640 0.959 . S
C1655 H1641 0.961 . S
C1655 C1654 1.502 . S
C1656 H1642 0.960 . S
C1656 H1643 0.961 . S
C1656 H1644 0.959 . S
C1656 C1654 1.561 . S
C1657 C1654 1.526 . S
C1657 C1658 1.396 . S
C1657 C1662 1.390 . S
C1658 C1652 1.465 . S
C1658 C1657 1.396 . S
C1658 C1659 1.399 . S
C1659 H1645 0.929 . S
C1659 C1658 1.399 . S
C1659 C1660 1.385 . S
C1660 H1646 0.931 . S
C1660 C1659 1.385 . S
C1660 C1661 1.389 . S
C1661 C1660 1.389 . S
C1661 C1662 1.387 . S
C1662 H1647 0.930 . S
C1662 C1657 1.390 . S
C1662 C1661 1.387 . S
H1663 C1675 0.930 . S
H1664 C1677 0.930 . S
H1665 C1678 0.930 . S
H1666 C1682 0.959 1_455 S
H1667 C1682 0.959 1_455 S
H1668 C1682 0.961 1_455 S
H1669 C1683 0.960 . S
H1670 C1683 0.961 . S
H1671 C1683 0.959 . S
H1672 C1686 0.929 . S
H1673 C1687 0.931 . S
H1674 C1689 0.930 . S
C1675 H1663 0.930 . S
C1675 C1676 1.399 . S
C1675 C1680 1.399 . S
C1676 C1675 1.399 . S
C1676 C1677 1.376 . S
C1677 H1664 0.930 . S
C1677 C1676 1.376 . S
C1677 C1678 1.388 . S
C1678 H1665 0.930 . S
C1678 C1677 1.388 . S
C1678 C1679 1.390 . S
C1679 C1678 1.390 . S
C1679 C1680 1.394 . S
C1679 C1685 1.465 . S
C1680 C1675 1.399 . S
C1680 C1679 1.394 . S
C1680 C1681 1.516 . S
C1681 C1680 1.516 . S
C1681 C1682 1.502 . S
C1681 C1683 1.561 . S
C1681 C1684 1.526 . S
C1682 H1666 0.959 1_655 S
C1682 H1667 0.959 1_655 S
C1682 H1668 0.961 1_655 S
C1682 C1681 1.502 . S
C1683 H1669 0.960 . S
C1683 H1670 0.961 . S
C1683 H1671 0.959 . S
C1683 C1681 1.561 . S
C1684 C1681 1.526 . S
C1684 C1685 1.396 . S
C1684 C1689 1.390 . S
C1685 C1679 1.465 . S
C1685 C1684 1.396 . S
C1685 C1686 1.399 . S
C1686 H1672 0.929 . S
C1686 C1685 1.399 . S
C1686 C1687 1.385 . S
C1687 H1673 0.931 . S
C1687 C1686 1.385 . S
C1687 C1688 1.389 . S
C1688 C1687 1.389 . S
C1688 C1689 1.387 . S
C1689 H1674 0.930 . S
C1689 C1684 1.390 . S
C1689 C1688 1.387 . S
H1690 C1702 0.930 . S
H1691 C1704 0.930 . S
H1692 C1705 0.930 . S
H1693 C1709 0.959 . S
H1694 C1709 0.959 . S
H1695 C1709 0.961 . S
H1696 C1710 0.960 . S
H1697 C1710 0.961 . S
H1698 C1710 0.959 . S
H1699 C1713 0.929 . S
H1700 C1714 0.931 . S
H1701 C1716 0.930 . S
C1702 H1690 0.930 . S
C1702 C1703 1.399 . S
C1702 C1707 1.399 . S
C1703 C1702 1.399 . S
C1703 C1704 1.376 . S
C1704 H1691 0.930 . S
C1704 C1703 1.376 . S
C1704 C1705 1.388 . S
C1705 H1692 0.930 . S
C1705 C1704 1.388 . S
C1705 C1706 1.390 . S
C1706 C1705 1.390 . S
C1706 C1707 1.394 . S
C1706 C1712 1.465 . S
C1707 C1702 1.399 . S
C1707 C1706 1.394 . S
C1707 C1708 1.516 . S
C1708 C1707 1.516 . S
C1708 C1709 1.502 . S
C1708 C1710 1.561 . S
C1708 C1711 1.526 . S
C1709 H1693 0.959 . S
C1709 H1694 0.959 . S
C1709 H1695 0.961 . S
C1709 C1708 1.502 . S
C1710 H1696 0.960 . S
C1710 H1697 0.961 . S
C1710 H1698 0.959 . S
C1710 C1708 1.561 . S
C1711 C1708 1.526 . S
C1711 C1712 1.396 . S
C1711 C1716 1.390 . S
C1712 C1706 1.465 . S
C1712 C1711 1.396 . S
C1712 C1713 1.399 . S
C1713 H1699 0.929 . S
C1713 C1712 1.399 . S
C1713 C1714 1.385 . S
C1714 H1700 0.931 . S
C1714 C1713 1.385 . S
C1714 C1715 1.389 . S
C1715 C1714 1.389 . S
C1715 C1716 1.387 . S
C1716 H1701 0.930 . S
C1716 C1711 1.390 . S
C1716 C1715 1.387 . S
H1717 C1729 0.930 . S
H1718 C1731 0.930 . S
H1719 C1732 0.930 . S
H1720 C1736 0.959 . S
H1721 C1736 0.959 . S
H1722 C1736 0.961 . S
H1723 C1737 0.960 . S
H1724 C1737 0.961 . S
H1725 C1737 0.959 . S
H1726 C1740 0.929 . S
H1727 C1741 0.931 . S
H1728 C1743 0.930 . S
C1729 H1717 0.930 . S
C1729 C1730 1.399 . S
C1729 C1734 1.399 . S
C1730 C1729 1.399 . S
C1730 C1731 1.376 . S
C1731 H1718 0.930 . S
C1731 C1730 1.376 . S
C1731 C1732 1.388 . S
C1732 H1719 0.930 . S
C1732 C1731 1.388 . S
C1732 C1733 1.390 . S
C1733 C1732 1.390 . S
C1733 C1734 1.394 . S
C1733 C1739 1.465 . S
C1734 C1729 1.399 . S
C1734 C1733 1.394 . S
C1734 C1735 1.516 . S
C1735 C1734 1.516 . S
C1735 C1736 1.502 . S
C1735 C1737 1.561 . S
C1735 C1738 1.526 . S
C1736 H1720 0.959 . S
C1736 H1721 0.959 . S
C1736 H1722 0.961 . S
C1736 C1735 1.502 . S
C1737 H1723 0.960 . S
C1737 H1724 0.961 . S
C1737 H1725 0.959 . S
C1737 C1735 1.561 . S
C1738 C1735 1.526 . S
C1738 C1739 1.396 . S
C1738 C1743 1.390 . S
C1739 C1733 1.465 . S
C1739 C1738 1.396 . S
C1739 C1740 1.399 . S
C1740 H1726 0.929 . S
C1740 C1739 1.399 . S
C1740 C1741 1.385 . S
C1741 H1727 0.931 . S
C1741 C1740 1.385 . S
C1741 C1742 1.389 . S
C1742 C1741 1.389 . S
C1742 C1743 1.387 . S
C1743 H1728 0.930 . S
C1743 C1738 1.390 . S
C1743 C1742 1.387 . S
H1744 C1756 0.930 . S
H1745 C1758 0.930 . S
H1746 C1759 0.930 . S
H1747 C1763 0.959 . S
H1748 C1763 0.959 . S
H1749 C1763 0.961 . S
H1750 C1764 0.960 . S
H1751 C1764 0.961 . S
H1752 C1764 0.959 . S
H1753 C1767 0.929 . S
H1754 C1768 0.931 . S
H1755 C1770 0.930 . S
C1756 H1744 0.930 . S
C1756 C1757 1.399 . S
C1756 C1761 1.399 . S
C1757 C1756 1.399 . S
C1757 C1758 1.376 . S
C1758 H1745 0.930 . S
C1758 C1757 1.376 . S
C1758 C1759 1.388 . S
C1759 H1746 0.930 . S
C1759 C1758 1.388 . S
C1759 C1760 1.390 . S
C1760 C1759 1.390 . S
C1760 C1761 1.394 . S
C1760 C1766 1.465 . S
C1761 C1756 1.399 . S
C1761 C1760 1.394 . S
C1761 C1762 1.516 . S
C1762 C1761 1.516 . S
C1762 C1763 1.502 . S
C1762 C1764 1.561 . S
C1762 C1765 1.526 . S
C1763 H1747 0.959 . S
C1763 H1748 0.959 . S
C1763 H1749 0.961 . S
C1763 C1762 1.502 . S
C1764 H1750 0.960 . S
C1764 H1751 0.961 . S
C1764 H1752 0.959 . S
C1764 C1762 1.561 . S
C1765 C1762 1.526 . S
C1765 C1766 1.396 . S
C1765 C1770 1.390 . S
C1766 C1760 1.465 . S
C1766 C1765 1.396 . S
C1766 C1767 1.399 . S
C1767 H1753 0.929 . S
C1767 C1766 1.399 . S
C1767 C1768 1.385 . S
C1768 H1754 0.931 . S
C1768 C1767 1.385 . S
C1768 C1769 1.389 . S
C1769 C1768 1.389 . S
C1769 C1770 1.387 . S
C1770 H1755 0.930 . S
C1770 C1765 1.390 . S
C1770 C1769 1.387 . S
H1771 C1783 0.930 . S
H1772 C1785 0.930 . S
H1773 C1786 0.930 . S
H1774 C1790 0.959 . S
H1775 C1790 0.959 . S
H1776 C1790 0.961 . S
H1777 C1791 0.960 . S
H1778 C1791 0.961 . S
H1779 C1791 0.959 . S
H1780 C1794 0.929 . S
H1781 C1795 0.931 . S
H1782 C1797 0.930 . S
C1783 H1771 0.930 . S
C1783 C1784 1.399 . S
C1783 C1788 1.399 . S
C1784 C1783 1.399 . S
C1784 C1785 1.376 . S
C1785 H1772 0.930 . S
C1785 C1784 1.376 . S
C1785 C1786 1.388 . S
C1786 H1773 0.930 . S
C1786 C1785 1.388 . S
C1786 C1787 1.390 . S
C1787 C1786 1.390 . S
C1787 C1788 1.394 . S
C1787 C1793 1.465 . S
C1788 C1783 1.399 . S
C1788 C1787 1.394 . S
C1788 C1789 1.516 . S
C1789 C1788 1.516 . S
C1789 C1790 1.502 . S
C1789 C1791 1.561 . S
C1789 C1792 1.526 . S
C1790 H1774 0.959 . S
C1790 H1775 0.959 . S
C1790 H1776 0.961 . S
C1790 C1789 1.502 . S
C1791 H1777 0.960 . S
C1791 H1778 0.961 . S
C1791 H1779 0.959 . S
C1791 C1789 1.561 . S
C1792 C1789 1.526 . S
C1792 C1793 1.396 . S
C1792 C1797 1.390 . S
C1793 C1787 1.465 . S
C1793 C1792 1.396 . S
C1793 C1794 1.399 . S
C1794 H1780 0.929 . S
C1794 C1793 1.399 . S
C1794 C1795 1.385 . S
C1795 H1781 0.931 . S
C1795 C1794 1.385 . S
C1795 C1796 1.389 . S
C1796 C1795 1.389 . S
C1796 C1797 1.387 . S
C1797 H1782 0.930 . S
C1797 C1792 1.390 . S
C1797 C1796 1.387 . S
H1798 C1810 0.930 . S
H1799 C1812 0.930 . S
H1800 C1813 0.930 . S
H1801 C1817 0.959 . S
H1802 C1817 0.959 . S
H1803 C1817 0.961 . S
H1804 C1818 0.960 . S
H1805 C1818 0.961 . S
H1806 C1818 0.959 . S
H1807 C1821 0.929 . S
H1808 C1822 0.931 . S
H1809 C1824 0.930 . S
C1810 H1798 0.930 . S
C1810 C1811 1.399 . S
C1810 C1815 1.399 . S
C1811 C1810 1.399 . S
C1811 C1812 1.376 . S
C1812 H1799 0.930 . S
C1812 C1811 1.376 . S
C1812 C1813 1.388 . S
C1813 H1800 0.930 . S
C1813 C1812 1.388 . S
C1813 C1814 1.390 . S
C1814 C1813 1.390 . S
C1814 C1815 1.394 . S
C1814 C1820 1.465 . S
C1815 C1810 1.399 . S
C1815 C1814 1.394 . S
C1815 C1816 1.516 . S
C1816 C1815 1.516 . S
C1816 C1817 1.502 . S
C1816 C1818 1.561 . S
C1816 C1819 1.526 . S
C1817 H1801 0.959 . S
C1817 H1802 0.959 . S
C1817 H1803 0.961 . S
C1817 C1816 1.502 . S
C1818 H1804 0.960 . S
C1818 H1805 0.961 . S
C1818 H1806 0.959 . S
C1818 C1816 1.561 . S
C1819 C1816 1.526 . S
C1819 C1820 1.396 . S
C1819 C1824 1.390 . S
C1820 C1814 1.465 . S
C1820 C1819 1.396 . S
C1820 C1821 1.399 . S
C1821 H1807 0.929 . S
C1821 C1820 1.399 . S
C1821 C1822 1.385 . S
C1822 H1808 0.931 . S
C1822 C1821 1.385 . S
C1822 C1823 1.389 . S
C1823 C1822 1.389 . S
C1823 C1824 1.387 . S
C1824 H1809 0.930 . S
C1824 C1819 1.390 . S
C1824 C1823 1.387 . S
H1825 C1837 0.930 . S
H1826 C1839 0.930 . S
H1827 C1840 0.930 . S
H1828 C1844 0.959 . S
H1829 C1844 0.959 1_655 S
H1830 C1844 0.961 1_655 S
H1831 C1845 0.960 . S
H1832 C1845 0.961 . S
H1833 C1845 0.959 . S
H1834 C1848 0.929 . S
H1835 C1849 0.931 . S
H1836 C1851 0.930 . S
C1837 H1825 0.930 . S
C1837 C1838 1.399 . S
C1837 C1842 1.399 . S
C1838 C1837 1.399 . S
C1838 C1839 1.376 . S
C1839 H1826 0.930 . S
C1839 C1838 1.376 . S
C1839 C1840 1.388 . S
C1840 H1827 0.930 . S
C1840 C1839 1.388 . S
C1840 C1841 1.390 . S
C1841 C1840 1.390 . S
C1841 C1842 1.394 . S
C1841 C1847 1.465 . S
C1842 C1837 1.399 . S
C1842 C1841 1.394 . S
C1842 C1843 1.516 . S
C1843 C1842 1.516 . S
C1843 C1844 1.502 . S
C1843 C1845 1.561 1_455 S
C1843 C1846 1.526 . S
C1844 H1828 0.959 . S
C1844 H1829 0.959 1_455 S
C1844 H1830 0.961 1_455 S
C1844 C1843 1.502 . S
C1845 H1831 0.960 . S
C1845 H1832 0.961 . S
C1845 H1833 0.959 . S
C1845 C1843 1.561 1_655 S
C1846 C1843 1.526 . S
C1846 C1847 1.396 . S
C1846 C1851 1.390 . S
C1847 C1841 1.465 . S
C1847 C1846 1.396 . S
C1847 C1848 1.399 . S
C1848 H1834 0.929 . S
C1848 C1847 1.399 . S
C1848 C1849 1.385 . S
C1849 H1835 0.931 . S
C1849 C1848 1.385 . S
C1849 C1850 1.389 . S
C1850 C1849 1.389 . S
C1850 C1851 1.387 . S
C1851 H1836 0.930 . S
C1851 C1846 1.390 . S
C1851 C1850 1.387 . S
H1852 C1864 0.930 . S
H1853 C1866 0.930 . S
H1854 C1867 0.930 . S
H1855 C1871 0.959 . S
H1856 C1871 0.959 . S
H1857 C1871 0.961 . S
H1858 C1872 0.960 . S
H1859 C1872 0.961 . S
H1860 C1872 0.959 . S
H1861 C1875 0.929 . S
H1862 C1876 0.931 . S
H1863 C1878 0.930 . S
C1864 H1852 0.930 . S
C1864 C1865 1.399 . S
C1864 C1869 1.399 . S
C1865 C1864 1.399 . S
C1865 C1866 1.376 . S
C1866 H1853 0.930 . S
C1866 C1865 1.376 . S
C1866 C1867 1.388 . S
C1867 H1854 0.930 . S
C1867 C1866 1.388 . S
C1867 C1868 1.390 . S
C1868 C1867 1.390 . S
C1868 C1869 1.394 . S
C1868 C1874 1.465 . S
C1869 C1864 1.399 . S
C1869 C1868 1.394 . S
C1869 C1870 1.516 . S
C1870 C1869 1.516 . S
C1870 C1871 1.502 . S
C1870 C1872 1.561 . S
C1870 C1873 1.526 . S
C1871 H1855 0.959 . S
C1871 H1856 0.959 . S
C1871 H1857 0.961 . S
C1871 C1870 1.502 . S
C1872 H1858 0.960 . S
C1872 H1859 0.961 . S
C1872 H1860 0.959 . S
C1872 C1870 1.561 . S
C1873 C1870 1.526 . S
C1873 C1874 1.396 . S
C1873 C1878 1.390 . S
C1874 C1868 1.465 . S
C1874 C1873 1.396 . S
C1874 C1875 1.399 . S
C1875 H1861 0.929 . S
C1875 C1874 1.399 . S
C1875 C1876 1.385 . S
C1876 H1862 0.931 . S
C1876 C1875 1.385 . S
C1876 C1877 1.389 . S
C1877 C1876 1.389 . S
C1877 C1878 1.387 . S
C1878 H1863 0.930 . S
C1878 C1873 1.390 . S
C1878 C1877 1.387 . S
H1879 C1891 0.930 . S
H1880 C1893 0.930 . S
H1881 C1894 0.930 . S
H1882 C1898 0.959 . S
H1883 C1898 0.959 . S
H1884 C1898 0.961 . S
H1885 C1899 0.960 . S
H1886 C1899 0.961 . S
H1887 C1899 0.959 . S
H1888 C1902 0.929 . S
H1889 C1903 0.931 . S
H1890 C1905 0.930 . S
C1891 H1879 0.930 . S
C1891 C1892 1.399 . S
C1891 C1896 1.399 . S
C1892 C1891 1.399 . S
C1892 C1893 1.376 . S
C1893 H1880 0.930 . S
C1893 C1892 1.376 . S
C1893 C1894 1.388 . S
C1894 H1881 0.930 . S
C1894 C1893 1.388 . S
C1894 C1895 1.390 . S
C1895 C1894 1.390 . S
C1895 C1896 1.394 . S
C1895 C1901 1.465 . S
C1896 C1891 1.399 . S
C1896 C1895 1.394 . S
C1896 C1897 1.516 . S
C1897 C1896 1.516 . S
C1897 C1898 1.502 . S
C1897 C1899 1.561 . S
C1897 C1900 1.526 . S
C1898 H1882 0.959 . S
C1898 H1883 0.959 . S
C1898 H1884 0.961 . S
C1898 C1897 1.502 . S
C1899 H1885 0.960 . S
C1899 H1886 0.961 . S
C1899 H1887 0.959 . S
C1899 C1897 1.561 . S
C1900 C1897 1.526 . S
C1900 C1901 1.396 . S
C1900 C1905 1.390 . S
C1901 C1895 1.465 . S
C1901 C1900 1.396 . S
C1901 C1902 1.399 . S
C1902 H1888 0.929 . S
C1902 C1901 1.399 . S
C1902 C1903 1.385 . S
C1903 H1889 0.931 . S
C1903 C1902 1.385 . S
C1903 C1904 1.389 . S
C1904 C1903 1.389 . S
C1904 C1905 1.387 . S
C1905 H1890 0.930 . S
C1905 C1900 1.390 . S
C1905 C1904 1.387 . S
H1906 C1918 0.930 . S
H1907 C1920 0.930 . S
H1908 C1921 0.930 . S
H1909 C1925 0.959 . S
H1910 C1925 0.959 . S
H1911 C1925 0.961 . S
H1912 C1926 0.960 . S
H1913 C1926 0.961 . S
H1914 C1926 0.959 . S
H1915 C1929 0.929 . S
H1916 C1930 0.931 . S
H1917 C1932 0.930 . S
C1918 H1906 0.930 . S
C1918 C1919 1.399 . S
C1918 C1923 1.399 . S
C1919 C1918 1.399 . S
C1919 C1920 1.376 . S
C1920 H1907 0.930 . S
C1920 C1919 1.376 . S
C1920 C1921 1.388 . S
C1921 H1908 0.930 . S
C1921 C1920 1.388 . S
C1921 C1922 1.390 . S
C1922 C1921 1.390 . S
C1922 C1923 1.394 . S
C1922 C1928 1.465 . S
C1923 C1918 1.399 . S
C1923 C1922 1.394 . S
C1923 C1924 1.516 . S
C1924 C1923 1.516 . S
C1924 C1925 1.502 . S
C1924 C1926 1.561 . S
C1924 C1927 1.526 . S
C1925 H1909 0.959 . S
C1925 H1910 0.959 . S
C1925 H1911 0.961 . S
C1925 C1924 1.502 . S
C1926 H1912 0.960 . S
C1926 H1913 0.961 . S
C1926 H1914 0.959 . S
C1926 C1924 1.561 . S
C1927 C1924 1.526 . S
C1927 C1928 1.396 . S
C1927 C1932 1.390 . S
C1928 C1922 1.465 . S
C1928 C1927 1.396 . S
C1928 C1929 1.399 . S
C1929 H1915 0.929 . S
C1929 C1928 1.399 . S
C1929 C1930 1.385 . S
C1930 H1916 0.931 . S
C1930 C1929 1.385 . S
C1930 C1931 1.389 . S
C1931 C1930 1.389 . S
C1931 C1932 1.387 . S
C1932 H1917 0.930 . S
C1932 C1927 1.390 . S
C1932 C1931 1.387 . S
H1933 C1945 0.930 . S
H1934 C1947 0.930 . S
H1935 C1948 0.930 . S
H1936 C1952 0.959 . S
H1937 C1952 0.959 . S
H1938 C1952 0.961 . S
H1939 C1953 0.960 . S
H1940 C1953 0.961 . S
H1941 C1953 0.959 . S
H1942 C1956 0.929 1_455 S
H1943 C1957 0.931 1_455 S
H1944 C1959 0.930 . S
C1945 H1933 0.930 . S
C1945 C1946 1.399 . S
C1945 C1950 1.399 . S
C1946 C1945 1.399 . S
C1946 C1947 1.376 . S
C1947 H1934 0.930 . S
C1947 C1946 1.376 . S
C1947 C1948 1.388 . S
C1948 H1935 0.930 . S
C1948 C1947 1.388 . S
C1948 C1949 1.390 . S
C1949 C1948 1.390 . S
C1949 C1950 1.394 . S
C1949 C1955 1.465 . S
C1950 C1945 1.399 . S
C1950 C1949 1.394 . S
C1950 C1951 1.516 . S
C1951 C1950 1.516 . S
C1951 C1952 1.502 . S
C1951 C1953 1.561 . S
C1951 C1954 1.526 . S
C1952 H1936 0.959 . S
C1952 H1937 0.959 . S
C1952 H1938 0.961 . S
C1952 C1951 1.502 . S
C1953 H1939 0.960 . S
C1953 H1940 0.961 . S
C1953 H1941 0.959 . S
C1953 C1951 1.561 . S
C1954 C1951 1.526 . S
C1954 C1955 1.396 . S
C1954 C1959 1.390 . S
C1955 C1949 1.465 . S
C1955 C1954 1.396 . S
C1955 C1956 1.399 . S
C1956 H1942 0.929 1_655 S
C1956 C1955 1.399 . S
C1956 C1957 1.385 . S
C1957 H1943 0.931 1_655 S
C1957 C1956 1.385 . S
C1957 C1958 1.389 . S
C1958 C1957 1.389 . S
C1958 C1959 1.387 . S
C1959 H1944 0.930 . S
C1959 C1954 1.390 . S
C1959 C1958 1.387 . S
H1960 C1972 0.930 . S
H1961 C1974 0.930 . S
H1962 C1975 0.930 . S
H1963 C1979 0.959 . S
H1964 C1979 0.959 . S
H1965 C1979 0.961 . S
H1966 C1980 0.960 . S
H1967 C1980 0.961 . S
H1968 C1980 0.959 . S
H1969 C1983 0.929 . S
H1970 C1984 0.931 . S
H1971 C1986 0.930 . S
C1972 H1960 0.930 . S
C1972 C1973 1.399 . S
C1972 C1977 1.399 . S
C1973 C1972 1.399 . S
C1973 C1974 1.376 . S
C1974 H1961 0.930 . S
C1974 C1973 1.376 . S
C1974 C1975 1.388 . S
C1975 H1962 0.930 . S
C1975 C1974 1.388 . S
C1975 C1976 1.390 . S
C1976 C1975 1.390 . S
C1976 C1977 1.394 . S
C1976 C1982 1.465 . S
C1977 C1972 1.399 . S
C1977 C1976 1.394 . S
C1977 C1978 1.516 . S
C1978 C1977 1.516 . S
C1978 C1979 1.502 . S
C1978 C1980 1.561 . S
C1978 C1981 1.526 . S
C1979 H1963 0.959 . S
C1979 H1964 0.959 . S
C1979 H1965 0.961 . S
C1979 C1978 1.502 . S
C1980 H1966 0.960 . S
C1980 H1967 0.961 . S
C1980 H1968 0.959 . S
C1980 C1978 1.561 . S
C1981 C1978 1.526 . S
C1981 C1982 1.396 . S
C1981 C1986 1.390 . S
C1982 C1976 1.465 . S
C1982 C1981 1.396 . S
C1982 C1983 1.399 . S
C1983 H1969 0.929 . S
C1983 C1982 1.399 . S
C1983 C1984 1.385 . S
C1984 H1970 0.931 . S
C1984 C1983 1.385 . S
C1984 C1985 1.389 . S
C1985 C1984 1.389 . S
C1985 C1986 1.387 . S
C1986 H1971 0.930 . S
C1986 C1981 1.390 . S
C1986 C1985 1.387 . S
H1987 C1999 0.930 . S
H1988 C2001 0.930 . S
H1989 C2002 0.930 . S
H1990 C2006 0.959 . S
H1991 C2006 0.959 . S
H1992 C2006 0.961 . S
H1993 C2007 0.960 . S
H1994 C2007 0.961 . S
H1995 C2007 0.959 . S
H1996 C2010 0.929 . S
H1997 C2011 0.931 . S
H1998 C2013 0.930 . S
C1999 H1987 0.930 . S
C1999 C2000 1.399 . S
C1999 C2004 1.399 . S
C2000 C1999 1.399 . S
C2000 C2001 1.376 . S
C2001 H1988 0.930 . S
C2001 C2000 1.376 . S
C2001 C2002 1.388 . S
C2002 H1989 0.930 . S
C2002 C2001 1.388 . S
C2002 C2003 1.390 . S
C2003 C2002 1.390 . S
C2003 C2004 1.394 . S
C2003 C2009 1.465 . S
C2004 C1999 1.399 . S
C2004 C2003 1.394 . S
C2004 C2005 1.516 . S
C2005 C2004 1.516 . S
C2005 C2006 1.502 . S
C2005 C2007 1.561 . S
C2005 C2008 1.526 . S
C2006 H1990 0.959 . S
C2006 H1991 0.959 . S
C2006 H1992 0.961 . S
C2006 C2005 1.502 . S
C2007 H1993 0.960 . S
C2007 H1994 0.961 . S
C2007 H1995 0.959 . S
C2007 C2005 1.561 . S
C2008 C2005 1.526 . S
C2008 C2009 1.396 . S
C2008 C2013 1.390 . S
C2009 C2003 1.465 . S
C2009 C2008 1.396 . S
C2009 C2010 1.399 . S
C2010 H1996 0.929 . S
C2010 C2009 1.399 . S
C2010 C2011 1.385 . S
C2011 H1997 0.931 . S
C2011 C2010 1.385 . S
C2011 C2012 1.389 . S
C2012 C2011 1.389 . S
C2012 C2013 1.387 . S
C2013 H1998 0.930 . S
C2013 C2008 1.390 . S
C2013 C2012 1.387 . S
H2014 C2026 0.930 . S
H2015 C2028 0.930 . S
H2016 C2029 0.930 . S
H2017 C2033 0.959 . S
H2018 C2033 0.959 . S
H2019 C2033 0.961 . S
H2020 C2034 0.960 . S
H2021 C2034 0.961 . S
H2022 C2034 0.959 . S
H2023 C2037 0.929 . S
H2024 C2038 0.931 . S
H2025 C2040 0.930 . S
C2026 H2014 0.930 . S
C2026 C2027 1.399 . S
C2026 C2031 1.399 . S
C2027 C2026 1.399 . S
C2027 C2028 1.376 . S
C2028 H2015 0.930 . S
C2028 C2027 1.376 . S
C2028 C2029 1.388 . S
C2029 H2016 0.930 . S
C2029 C2028 1.388 . S
C2029 C2030 1.390 . S
C2030 C2029 1.390 . S
C2030 C2031 1.394 . S
C2030 C2036 1.465 . S
C2031 C2026 1.399 . S
C2031 C2030 1.394 . S
C2031 C2032 1.516 . S
C2032 C2031 1.516 . S
C2032 C2033 1.502 . S
C2032 C2034 1.561 . S
C2032 C2035 1.526 . S
C2033 H2017 0.959 . S
C2033 H2018 0.959 . S
C2033 H2019 0.961 . S
C2033 C2032 1.502 . S
C2034 H2020 0.960 . S
C2034 H2021 0.961 . S
C2034 H2022 0.959 . S
C2034 C2032 1.561 . S
C2035 C2032 1.526 . S
C2035 C2036 1.396 . S
C2035 C2040 1.390 . S
C2036 C2030 1.465 . S
C2036 C2035 1.396 . S
C2036 C2037 1.399 . S
C2037 H2023 0.929 . S
C2037 C2036 1.399 . S
C2037 C2038 1.385 . S
C2038 H2024 0.931 . S
C2038 C2037 1.385 . S
C2038 C2039 1.389 . S
C2039 C2038 1.389 . S
C2039 C2040 1.387 . S
C2040 H2025 0.930 . S
C2040 C2035 1.390 . S
C2040 C2039 1.387 . S
H2041 C2053 0.930 . S
H2042 C2055 0.930 . S
H2043 C2056 0.930 . S
H2044 C2060 0.959 . S
H2045 C2060 0.959 . S
H2046 C2060 0.961 . S
H2047 C2061 0.960 . S
H2048 C2061 0.961 . S
H2049 C2061 0.959 . S
H2050 C2064 0.929 . S
H2051 C2065 0.931 . S
H2052 C2067 0.930 . S
C2053 H2041 0.930 . S
C2053 C2054 1.399 . S
C2053 C2058 1.399 . S
C2054 C2053 1.399 . S
C2054 C2055 1.376 . S
C2055 H2042 0.930 . S
C2055 C2054 1.376 . S
C2055 C2056 1.388 . S
C2056 H2043 0.930 . S
C2056 C2055 1.388 . S
C2056 C2057 1.390 . S
C2057 C2056 1.390 . S
C2057 C2058 1.394 . S
C2057 C2063 1.465 . S
C2058 C2053 1.399 . S
C2058 C2057 1.394 . S
C2058 C2059 1.516 . S
C2059 C2058 1.516 . S
C2059 C2060 1.502 . S
C2059 C2061 1.561 . S
C2059 C2062 1.526 . S
C2060 H2044 0.959 . S
C2060 H2045 0.959 . S
C2060 H2046 0.961 . S
C2060 C2059 1.502 . S
C2061 H2047 0.960 . S
C2061 H2048 0.961 . S
C2061 H2049 0.959 . S
C2061 C2059 1.561 . S
C2062 C2059 1.526 . S
C2062 C2063 1.396 . S
C2062 C2067 1.390 . S
C2063 C2057 1.465 . S
C2063 C2062 1.396 . S
C2063 C2064 1.399 . S
C2064 H2050 0.929 . S
C2064 C2063 1.399 . S
C2064 C2065 1.385 . S
C2065 H2051 0.931 . S
C2065 C2064 1.385 . S
C2065 C2066 1.389 . S
C2066 C2065 1.389 . S
C2066 C2067 1.387 . S
C2067 H2052 0.930 . S
C2067 C2062 1.390 . S
C2067 C2066 1.387 . S
H2068 C2080 0.930 . S
H2069 C2082 0.930 . S
H2070 C2083 0.930 . S
H2071 C2087 0.959 . S
H2072 C2087 0.959 1_565 S
H2073 C2087 0.961 . S
H2074 C2088 0.960 . S
H2075 C2088 0.961 . S
H2076 C2088 0.959 . S
H2077 C2091 0.929 . S
H2078 C2092 0.931 . S
H2079 C2094 0.930 1_565 S
C2080 H2068 0.930 . S
C2080 C2081 1.399 . S
C2080 C2085 1.399 . S
C2081 C2080 1.399 . S
C2081 C2082 1.376 . S
C2082 H2069 0.930 . S
C2082 C2081 1.376 . S
C2082 C2083 1.388 . S
C2083 H2070 0.930 . S
C2083 C2082 1.388 . S
C2083 C2084 1.390 . S
C2084 C2083 1.390 . S
C2084 C2085 1.394 . S
C2084 C2090 1.465 . S
C2085 C2080 1.399 . S
C2085 C2084 1.394 . S
C2085 C2086 1.516 . S
C2086 C2085 1.516 . S
C2086 C2087 1.502 . S
C2086 C2088 1.561 . S
C2086 C2089 1.526 . S
C2087 H2071 0.959 . S
C2087 H2072 0.959 1_545 S
C2087 H2073 0.961 . S
C2087 C2086 1.502 . S
C2088 H2074 0.960 . S
C2088 H2075 0.961 . S
C2088 H2076 0.959 . S
C2088 C2086 1.561 . S
C2089 C2086 1.526 . S
C2089 C2090 1.396 . S
C2089 C2094 1.390 . S
C2090 C2084 1.465 . S
C2090 C2089 1.396 . S
C2090 C2091 1.399 . S
C2091 H2077 0.929 . S
C2091 C2090 1.399 . S
C2091 C2092 1.385 . S
C2092 H2078 0.931 . S
C2092 C2091 1.385 . S
C2092 C2093 1.389 . S
C2093 C2092 1.389 . S
C2093 C2094 1.387 . S
C2094 H2079 0.930 1_545 S
C2094 C2089 1.390 . S
C2094 C2093 1.387 . S
H2095 C2107 0.930 . S
H2096 C2109 0.930 . S
H2097 C2110 0.930 . S
H2098 C2114 0.959 . S
H2099 C2114 0.959 . S
H2100 C2114 0.961 . S
H2101 C2115 0.960 1_545 S
H2102 C2115 0.961 . S
H2103 C2115 0.959 . S
H2104 C2118 0.929 . S
H2105 C2119 0.931 . S
H2106 C2121 0.930 . S
C2107 H2095 0.930 . S
C2107 C2108 1.399 . S
C2107 C2112 1.399 . S
C2108 C2107 1.399 . S
C2108 C2109 1.376 . S
C2109 H2096 0.930 . S
C2109 C2108 1.376 . S
C2109 C2110 1.388 . S
C2110 H2097 0.930 . S
C2110 C2109 1.388 . S
C2110 C2111 1.390 . S
C2111 C2110 1.390 . S
C2111 C2112 1.394 . S
C2111 C2117 1.465 . S
C2112 C2107 1.399 . S
C2112 C2111 1.394 . S
C2112 C2113 1.516 . S
C2113 C2112 1.516 . S
C2113 C2114 1.502 . S
C2113 C2115 1.561 . S
C2113 C2116 1.526 . S
C2114 H2098 0.959 . S
C2114 H2099 0.959 . S
C2114 H2100 0.961 . S
C2114 C2113 1.502 . S
C2115 H2101 0.960 1_565 S
C2115 H2102 0.961 . S
C2115 H2103 0.959 . S
C2115 C2113 1.561 . S
C2116 C2113 1.526 . S
C2116 C2117 1.396 . S
C2116 C2121 1.390 . S
C2117 C2111 1.465 . S
C2117 C2116 1.396 . S
C2117 C2118 1.399 . S
C2118 H2104 0.929 . S
C2118 C2117 1.399 . S
C2118 C2119 1.385 . S
C2119 H2105 0.931 . S
C2119 C2118 1.385 . S
C2119 C2120 1.389 . S
C2120 C2119 1.389 . S
C2120 C2121 1.387 . S
C2121 H2106 0.930 . S
C2121 C2116 1.390 . S
C2121 C2120 1.387 . S
H2122 C2134 0.930 . S
H2123 C2136 0.930 . S
H2124 C2137 0.930 . S
H2125 C2141 0.959 . S
H2126 C2141 0.959 . S
H2127 C2141 0.961 . S
H2128 C2142 0.960 . S
H2129 C2142 0.961 . S
H2130 C2142 0.959 . S
H2131 C2145 0.929 . S
H2132 C2146 0.931 . S
H2133 C2148 0.930 . S
C2134 H2122 0.930 . S
C2134 C2135 1.399 . S
C2134 C2139 1.399 . S
C2135 C2134 1.399 . S
C2135 C2136 1.376 . S
C2136 H2123 0.930 . S
C2136 C2135 1.376 . S
C2136 C2137 1.388 . S
C2137 H2124 0.930 . S
C2137 C2136 1.388 . S
C2137 C2138 1.390 . S
C2138 C2137 1.390 . S
C2138 C2139 1.394 . S
C2138 C2144 1.465 . S
C2139 C2134 1.399 . S
C2139 C2138 1.394 . S
C2139 C2140 1.516 . S
C2140 C2139 1.516 . S
C2140 C2141 1.502 . S
C2140 C2142 1.561 . S
C2140 C2143 1.526 . S
C2141 H2125 0.959 . S
C2141 H2126 0.959 . S
C2141 H2127 0.961 . S
C2141 C2140 1.502 . S
C2142 H2128 0.960 . S
C2142 H2129 0.961 . S
C2142 H2130 0.959 . S
C2142 C2140 1.561 . S
C2143 C2140 1.526 . S
C2143 C2144 1.396 . S
C2143 C2148 1.390 . S
C2144 C2138 1.465 . S
C2144 C2143 1.396 . S
C2144 C2145 1.399 . S
C2145 H2131 0.929 . S
C2145 C2144 1.399 . S
C2145 C2146 1.385 . S
C2146 H2132 0.931 . S
C2146 C2145 1.385 . S
C2146 C2147 1.389 . S
C2147 C2146 1.389 . S
C2147 C2148 1.387 . S
C2148 H2133 0.930 . S
C2148 C2143 1.390 . S
C2148 C2147 1.387 . S
H2149 C2161 0.930 . S
H2150 C2163 0.930 . S
H2151 C2164 0.930 . S
H2152 C2168 0.959 . S
H2153 C2168 0.959 . S
H2154 C2168 0.961 . S
H2155 C2169 0.960 . S
H2156 C2169 0.961 . S
H2157 C2169 0.959 . S
H2158 C2172 0.929 . S
H2159 C2173 0.931 . S
H2160 C2175 0.930 . S
C2161 H2149 0.930 . S
C2161 C2162 1.399 . S
C2161 C2166 1.399 . S
C2162 C2161 1.399 . S
C2162 C2163 1.376 . S
C2163 H2150 0.930 . S
C2163 C2162 1.376 . S
C2163 C2164 1.388 . S
C2164 H2151 0.930 . S
C2164 C2163 1.388 . S
C2164 C2165 1.390 . S
C2165 C2164 1.390 . S
C2165 C2166 1.394 . S
C2165 C2171 1.465 . S
C2166 C2161 1.399 . S
C2166 C2165 1.394 . S
C2166 C2167 1.516 . S
C2167 C2166 1.516 . S
C2167 C2168 1.502 . S
C2167 C2169 1.561 . S
C2167 C2170 1.526 . S
C2168 H2152 0.959 . S
C2168 H2153 0.959 . S
C2168 H2154 0.961 . S
C2168 C2167 1.502 . S
C2169 H2155 0.960 . S
C2169 H2156 0.961 . S
C2169 H2157 0.959 . S
C2169 C2167 1.561 . S
C2170 C2167 1.526 . S
C2170 C2171 1.396 . S
C2170 C2175 1.390 . S
C2171 C2165 1.465 . S
C2171 C2170 1.396 . S
C2171 C2172 1.399 . S
C2172 H2158 0.929 . S
C2172 C2171 1.399 . S
C2172 C2173 1.385 . S
C2173 H2159 0.931 . S
C2173 C2172 1.385 . S
C2173 C2174 1.389 . S
C2174 C2173 1.389 . S
C2174 C2175 1.387 . S
C2175 H2160 0.930 . S
C2175 C2170 1.390 . S
C2175 C2174 1.387 . S
C461 C103 1.487 1_565 S
C473 C5 1.560 1_545 S
C488 C19 1.252 . S
C500 C61 1.371 . S
C515 C75 1.610 . S
C527 C33 1.662 . S
C542 C89 1.651 . S
C554 C47 1.592 . S
C569 C117 1.530 . S
C581 C313 1.483 1_565 S
C596 C131 1.233 . S
C608 C271 1.385 . S
C623 C411 1.609 . S
C635 C145 1.661 . S
C650 C383 1.652 . S
C662 C159 1.592 . S
C677 C173 1.473 . S
C689 C439 1.384 . S
C704 C187 1.609 . S
C716 C369 1.661 . S
C731 C201 1.652 . S
C743 C299 1.592 . S
C758 C215 1.479 . S
C770 C229 1.560 . S
C785 C243 1.543 . S
C797 C355 1.494 . S
C812 C257 1.644 . S
C824 C285 1.621 . S
C839 C425 1.613 . S
C851 C327 1.639 . S
C866 C397 1.409 . S
C878 C341 1.253 . S
C893 C144 0.617 . S
C905 C4 0.557 . S
C920 C165 0.688 . S
C932 C25 0.697 . S
C947 C116 0.527 . S
C959 C32 0.572 . S
C974 C137 0.671 . S
C986 C53 0.627 . S
C1001 C208 1.003 . S
C1013 C60 1.007 . S
C1028 C74 0.457 . S
C1040 C214 0.457 . S
C1055 C96 0.965 . S
C1067 C172 1.009 . S
C1082 C102 0.515 . S
C1094 C186 0.484 . S
C1109 C180 0.591 . S
C1121 C124 0.545 . S
C1136 C130 0.880 . S
C1148 C194 0.918 . S
C1163 C207 0.818 . S
C1175 C152 0.753 . S
C1190 C158 0.647 . S
C1202 C222 0.741 . S
C1217 C326 0.557 . S
C1229 C235 0.697 . S
C1244 C39 0.807 . S
C1256 C179 0.762 . S
C1271 C54 0.705 . S
C1283 C193 0.731 . S
C1298 C11 0.819 . S
C1310 C200 0.648 . S
C1325 C249 0.796 . S
C1337 C446 0.743 . S
C1352 C277 0.665 . S
C1364 C263 0.685 . S
C1379 C26 0.742 . S
C1391 C221 0.788 . S
C1406 C334 0.940 . S
C1418 C270 0.917 . S
C1433 C284 0.618 . S
C1445 C312 0.654 . S
C1460 C228 0.544 . S
C1472 C256 0.524 . S
C1487 C305 0.636 . S
C1499 C347 0.678 . S
C1514 C348 0.727 . S
C1526 C319 0.777 . S
C1541 C151 0.705 . S
C1553 C67 0.679 . S
C1568 C292 0.896 . S
C1580 C340 0.929 . S
C1595 C110 0.748 . S
C1607 C46 0.714 . S
C1622 C404 0.572 . S
C1634 C362 0.605 . S
C1649 C82 0.758 . S
C1661 C18 0.736 . S
C1676 C236 0.719 . S
C1688 C278 0.739 . S
C1703 C354 0.547 . S
C1715 C368 0.524 . S
C1730 C390 0.903 . S
C1742 C396 0.894 . S
C1757 C333 0.864 . S
C1769 C264 0.815 . S
C1784 C375 0.791 . S
C1796 C403 0.749 . S
C1811 C166 0.848 . S
C1823 C81 0.855 . S
C1838 C109 0.779 . S
C1850 C138 0.744 . S
C1865 C242 0.503 . S
C1877 C410 0.474 . S
C1892 C431 0.804 . S
C1904 C445 0.783 . S
C1919 C438 0.916 . S
C1931 C418 0.931 . S
C1946 C68 0.619 . S
C1958 C12 0.551 . S
C1973 C40 0.820 . S
C1985 C95 0.819 . S
C2000 C424 0.589 . S
C2012 C250 0.700 . S
C2027 C361 0.841 . S
C2039 C382 0.660 . S
C2054 C291 0.785 . S
C2066 C306 0.799 . S
C2081 C88 0.496 . S
C2093 C123 0.585 . S
C2108 C320 0.551 . S
C2120 C298 0.513 . S
C2135 C376 0.621 . S
C2147 C389 0.614 . S
C2162 C432 0.825 . S
C2174 C417 0.818 . S
