# Generated by pormake.
# Topology wjg, (4)-cn, num edge types: 1
# Building blocks:
#     Node 0, Type 0, BuildingBlock: NAHDIM_clean_sbu_0, # of connection points: 4
#     Node 1, Type 0, BuildingBlock: NAHDIM_clean_sbu_0, # of connection points: 4
#     Node 2, Type 0, BuildingBlock: NAHDIM_clean_sbu_0, # of connection points: 4
#     Node 3, Type 0, BuildingBlock: NAHDIM_clean_sbu_0, # of connection points: 4
#     Node 4, Type 0, BuildingBlock: NAHDIM_clean_sbu_0, # of connection points: 4
#     Node 5, Type 0, BuildingBlock: NAHDIM_clean_sbu_0, # of connection points: 4
#     Node 6, Type 0, BuildingBlock: NAHDIM_clean_sbu_0, # of connection points: 4
#     Node 7, Type 0, BuildingBlock: NAHDIM_clean_sbu_0, # of connection points: 4
#     Node 8, Type 0, BuildingBlock: NAHDIM_clean_sbu_0, # of connection points: 4
#     Node 9, Type 0, BuildingBlock: NAHDIM_clean_sbu_0, # of connection points: 4
#     Node 10, Type 0, BuildingBlock: NAHDIM_clean_sbu_0, # of connection points: 4
#     Node 11, Type 0, BuildingBlock: NAHDIM_clean_sbu_0, # of connection points: 4
#     Edge 12, Type (0, 0), BuildingBlock: UVAHIK_clean_linker_0, # of connection points: 2
#     Edge 13, Type (0, 0), BuildingBlock: UVAHIK_clean_linker_0, # of connection points: 2
#     Edge 14, Type (0, 0), BuildingBlock: UVAHIK_clean_linker_0, # of connection points: 2
#     Edge 15, Type (0, 0), BuildingBlock: UVAHIK_clean_linker_0, # of connection points: 2
#     Edge 16, Type (0, 0), BuildingBlock: UVAHIK_clean_linker_0, # of connection points: 2
#     Edge 17, Type (0, 0), BuildingBlock: UVAHIK_clean_linker_0, # of connection points: 2
#     Edge 18, Type (0, 0), BuildingBlock: UVAHIK_clean_linker_0, # of connection points: 2
#     Edge 19, Type (0, 0), BuildingBlock: UVAHIK_clean_linker_0, # of connection points: 2
#     Edge 20, Type (0, 0), BuildingBlock: UVAHIK_clean_linker_0, # of connection points: 2
#     Edge 21, Type (0, 0), BuildingBlock: UVAHIK_clean_linker_0, # of connection points: 2
#     Edge 22, Type (0, 0), BuildingBlock: UVAHIK_clean_linker_0, # of connection points: 2
#     Edge 23, Type (0, 0), BuildingBlock: UVAHIK_clean_linker_0, # of connection points: 2
#     Edge 24, Type (0, 0), BuildingBlock: UVAHIK_clean_linker_0, # of connection points: 2
#     Edge 25, Type (0, 0), BuildingBlock: UVAHIK_clean_linker_0, # of connection points: 2
#     Edge 26, Type (0, 0), BuildingBlock: UVAHIK_clean_linker_0, # of connection points: 2
#     Edge 27, Type (0, 0), BuildingBlock: UVAHIK_clean_linker_0, # of connection points: 2
#     Edge 28, Type (0, 0), BuildingBlock: UVAHIK_clean_linker_0, # of connection points: 2
#     Edge 29, Type (0, 0), BuildingBlock: UVAHIK_clean_linker_0, # of connection points: 2
#     Edge 30, Type (0, 0), BuildingBlock: UVAHIK_clean_linker_0, # of connection points: 2
#     Edge 31, Type (0, 0), BuildingBlock: UVAHIK_clean_linker_0, # of connection points: 2
#     Edge 32, Type (0, 0), BuildingBlock: UVAHIK_clean_linker_0, # of connection points: 2
#     Edge 33, Type (0, 0), BuildingBlock: UVAHIK_clean_linker_0, # of connection points: 2
#     Edge 34, Type (0, 0), BuildingBlock: UVAHIK_clean_linker_0, # of connection points: 2
#     Edge 35, Type (0, 0), BuildingBlock: UVAHIK_clean_linker_0, # of connection points: 2
# Relax obj value: 0.300
# Max RMSD: 0.132
# Mean RMSD: 0.129
data_MOF--net-wjg--node1-NAHDIM_clean_sbu_0--edge1-UVAHIK_clean_linker_0
_symmetry_space_group_name_H-M    P1
_symmetry_Int_Tables_number       1
_symmetry_cell_setting            triclinic
loop_
_symmetry_equiv_pos_as_xyz
'x, y, z'
_cell_length_a     43.919073
_cell_length_b     43.849154
_cell_length_c     49.93815
_cell_angle_alpha  89.763927
_cell_angle_beta   90.153761
_cell_angle_gamma 120.12334
loop_
_atom_site_label
_atom_site_type_symbol
_atom_site_fract_x
_atom_site_fract_y
_atom_site_fract_z
_atom_type_partial_charge
C0 C 0.12849 0.40916 0.26483 0.0
O1 O 0.163 0.42483 0.26399 0.0
O2 O 0.18993 0.44298 0.31704 0.0
Zn3 Zn 0.14209 0.39929 0.31876 0.0
O4 O 0.14927 0.35726 0.31941 0.0
C5 C 0.13158 0.43197 0.36392 0.0
O6 O 0.14544 0.45963 0.348 0.0
O7 O 0.11284 0.39637 0.28692 0.0
C8 C 0.14791 0.34154 0.34123 0.0
O9 O 0.14025 0.35196 0.36355 0.0
C10 C 0.21158 0.44786 0.33576 0.0
O11 O 0.20248 0.42371 0.3545 0.0
O12 O 0.12134 0.4018 0.35382 0.0
C13 C 0.72608 0.13539 0.58694 0.0
O14 O 0.75279 0.16702 0.58198 0.0
O15 O 0.74624 0.20062 0.64187 0.0
Zn16 Zn 0.75153 0.15794 0.63885 0.0
O17 O 0.80193 0.1754 0.62882 0.0
C18 C 0.72159 0.13885 0.69103 0.0
O19 O 0.70068 0.14943 0.68112 0.0
O20 O 0.71924 0.12479 0.61105 0.0
C21 C 0.82 0.16352 0.63984 0.0
O22 O 0.80479 0.13741 0.65708 0.0
C23 C 0.76705 0.22363 0.65845 0.0
O24 O 0.79008 0.21817 0.67125 0.0
O25 O 0.74321 0.13654 0.67554 0.0
C26 C 0.61279 0.73469 0.92947 0.0
O27 O 0.61736 0.76668 0.9292 0.0
O28 O 0.52749 0.72153 0.96554 0.0
Zn29 Zn 0.57585 0.73219 0.97629 0.0
O30 O 0.60633 0.78464 0.98026 0.0
C31 C 0.54512 0.69666 0.02578 0.0
O32 O 0.51558 0.68368 0.01219 0.0
O33 O 0.59579 0.71403 0.94866 0.0
C34 C 0.59699 0.79988 -0.00277 0.0
O35 O 0.56747 0.78109 0.0105 0.0
C36 C 0.52204 0.73861 0.94741 0.0
O37 O 0.54891 0.76346 0.93416 0.0
O38 O 0.57415 0.71352 0.0133 0.0
C39 C 0.9137 0.62664 0.27964 0.0
O40 O 0.9114 0.65294 0.28992 0.0
O41 O 0.80603 0.53807 0.29621 0.0
Zn42 Zn 0.84721 0.58511 0.30604 0.0
O43 O 0.83309 0.62193 0.3009 0.0
C44 C 0.84171 0.55433 0.35779 0.0
O45 O 0.83087 0.52539 0.34377 0.0
O46 O 0.88953 0.59523 0.2844 0.0
C47 C 0.80834 0.61789 0.31633 0.0
O48 O 0.79455 0.59086 0.33287 0.0
C49 C 0.78136 0.53372 0.28053 0.0
O50 O 0.7837 0.56103 0.26769 0.0
O51 O 0.85451 0.58369 0.34558 0.0
C52 C 0.28986 0.87589 0.59458 0.0
O53 O 0.27756 0.8423 0.58962 0.0
O54 O 0.2486 0.80358 0.6385 0.0
Zn55 Zn 0.24182 0.84556 0.63747 0.0
O56 O 0.19374 0.8297 0.62258 0.0
C57 C 0.26139 0.8545 0.69228 0.0
O58 O 0.28568 0.84832 0.68287 0.0
O59 O 0.27879 0.8845 0.61505 0.0
C60 C 0.17767 0.84599 0.62879 0.0
O61 O 0.19399 0.87464 0.64342 0.0
C62 C 0.22639 0.7775 0.65234 0.0
O63 O 0.20012 0.77899 0.66354 0.0
O64 O 0.24177 0.85888 0.67585 0.0
C65 C 0.39576 0.25617 0.92402 0.0
O66 O 0.396 0.22639 0.92246 0.0
O67 O 0.46236 0.26366 0.98083 0.0
Zn68 Zn 0.41123 0.24887 0.97783 0.0
O69 O 0.38298 0.19622 0.97459 0.0
C70 C 0.42057 0.28313 0.02816 0.0
O71 O 0.45155 0.30521 0.01795 0.0
O72 O 0.40187 0.27177 0.94646 0.0
C73 C 0.34961 0.18128 0.97521 0.0
O74 O 0.3348 0.20086 0.97671 0.0
C75 C 0.4824 0.26433 0.9623 0.0
O76 O 0.46991 0.25496 0.93794 0.0
O77 O 0.39729 0.25968 0.01314 0.0
C78 C 0.61181 0.8819 0.37817 0.0
O79 O 0.61831 0.8562 0.38286 0.0
O80 O 0.54173 0.80196 0.33794 0.0
Zn81 Zn 0.58869 0.84434 0.32988 0.0
O82 O 0.62536 0.82975 0.33173 0.0
C83 C 0.55834 0.84683 0.27973 0.0
O84 O 0.52948 0.83413 0.29411 0.0
O85 O 0.59894 0.88319 0.35568 0.0
C86 C 0.62221 0.80708 0.3145 0.0
O87 O 0.59583 0.795 0.29748 0.0
C88 C 0.53696 0.77732 0.35389 0.0
O89 O 0.56377 0.77986 0.3675 0.0
O90 O 0.58758 0.85742 0.29157 0.0
C91 C 0.73327 0.6194 0.70544 0.0
O92 O 0.76467 0.6227 0.70649 0.0
O93 O 0.73459 0.54575 0.66768 0.0
Zn94 Zn 0.73672 0.59088 0.65667 0.0
O95 O 0.7873 0.62842 0.65202 0.0
C96 C 0.69667 0.55323 0.61046 0.0
O97 O 0.68559 0.52577 0.62639 0.0
O98 O 0.71442 0.60584 0.68473 0.0
C99 C 0.80563 0.62387 0.63457 0.0
O100 O 0.79108 0.59465 0.62051 0.0
C101 C 0.75858 0.54411 0.68074 0.0
O102 O 0.78632 0.57335 0.68883 0.0
O103 O 0.71504 0.58394 0.62023 0.0
C104 C 0.12803 0.71093 0.04811 0.0
O105 O 0.16262 0.7287 0.04806 0.0
O106 O 0.1806 0.72512 -0.01078 0.0
Zn107 Zn 0.14136 0.73531 -0.00493 0.0
O108 O 0.16426 0.78722 0.00156 0.0
C109 C 0.11438 0.70256 0.94483 0.0
O110 O 0.12232 0.67956 0.95465 0.0
O111 O 0.11168 0.70888 0.02656 0.0
C112 C 0.14761 0.80374 -0.00143 0.0
O113 O 0.11389 0.786 -0.00725 0.0
C114 C 0.20095 0.74179 0.9698 0.0
O115 O 0.1951 0.76384 0.95587 0.0
O116 O 0.11507 0.72576 0.96037 0.0
C117 C 0.40636 0.12945 0.38851 0.0
O118 O 0.41169 0.16081 0.39488 0.0
O119 O 0.44262 0.20058 0.34072 0.0
Zn120 Zn 0.39837 0.15349 0.3382 0.0
O121 O 0.357 0.16032 0.34599 0.0
C122 C 0.42372 0.14937 0.2865 0.0
O123 O 0.45396 0.16317 0.29924 0.0
O124 O 0.40002 0.1196 0.36425 0.0
C125 C 0.33591 0.15743 0.32736 0.0
O126 O 0.34043 0.14849 0.30327 0.0
C127 C 0.44507 0.22472 0.32514 0.0
O128 O 0.41797 0.21845 0.31008 0.0
O129 O 0.39562 0.13835 0.29998 0.0
C130 C 0.27235 0.38377 0.70974 0.0
O131 O 0.2409 0.37961 0.71356 0.0
O132 O 0.27297 0.46394 0.67541 0.0
Zn133 Zn 0.26516 0.41676 0.66391 0.0
O134 O 0.21307 0.3824 0.66335 0.0
C135 C 0.29469 0.44955 0.61318 0.0
O136 O 0.30789 0.4788 0.62713 0.0
O137 O 0.28936 0.39969 0.68879 0.0
C138 C 0.19474 0.38812 0.64651 0.0
O139 O 0.21037 0.41622 0.63111 0.0
C140 C 0.25155 0.46769 0.69014 0.0
O141 O 0.22413 0.43962 0.70017 0.0
O142 O 0.27987 0.42015 0.62549 0.0
C143 C 0.91104 0.26744 0.03535 0.0
O144 O 0.90936 0.23866 0.026 0.0
O145 O 0.80794 0.25195 0.00643 0.0
Zn146 Zn 0.84685 0.24069 0.00618 0.0
O147 O 0.82805 0.1906 0.01807 0.0
C148 C 0.8556 0.26225 0.95163 0.0
O149 O 0.84897 0.28603 0.96153 0.0
O150 O 0.88717 0.27438 0.02898 0.0
C151 C 0.80122 0.1737 0.03295 0.0
O152 O 0.78583 0.19012 0.0431 0.0
C153 C 0.80042 0.26761 0.0243 0.0
O154 O 0.81866 0.27748 0.04665 0.0
O155 O 0.85996 0.24215 0.9676 0.0
C156 C 0.26964 0.48611 0.35795 0.0
C157 C 0.24548 0.48125 0.33759 0.0
C158 C 0.30113 0.51812 0.36038 0.0
C159 C 0.36121 0.59896 0.3225 0.0
H160 H 0.39584 0.63764 0.3931 0.0
C161 C 0.47539 0.7403 0.33715 0.0
C162 C 0.5023 0.74463 0.35477 0.0
C163 C 0.44366 0.70842 0.33614 0.0
C164 C 0.38659 0.62699 0.37329 0.0
H165 H 0.23532 0.50619 0.30384 0.0
H166 H 0.28995 0.56222 0.30833 0.0
H167 H 0.34127 0.5812 0.38879 0.0
H168 H 0.51649 0.71927 0.38582 0.0
H169 H 0.46074 0.66344 0.38412 0.0
H170 H 0.40631 0.64497 0.30702 0.0
C171 C 0.28492 0.54109 0.32214 0.0
C172 C 0.35542 0.59464 0.37079 0.0
C173 C 0.25351 0.50901 0.31963 0.0
C174 C 0.4963 0.71674 0.37201 0.0
C175 C 0.46437 0.68484 0.37111 0.0
C176 C 0.39219 0.63136 0.325 0.0
C177 C 0.30907 0.54605 0.34258 0.0
C178 C 0.34234 0.58028 0.34534 0.0
C179 C 0.43802 0.68021 0.35282 0.0
C180 C 0.40515 0.64574 0.3504 0.0
H181 H 0.26424 0.4652 0.37211 0.0
H182 H 0.31937 0.52086 0.37609 0.0
H183 H 0.35227 0.58836 0.30263 0.0
H184 H 0.47907 0.76128 0.32364 0.0
H185 H 0.42359 0.70574 0.32214 0.0
C186 C 0.78943 0.2817 0.68116 0.0
C187 C 0.76496 0.2556 0.66391 0.0
C188 C 0.78767 0.31201 0.68639 0.0
C189 C 0.72802 0.34811 0.68438 0.0
H190 H 0.81428 0.43846 0.67952 0.0
C191 C 0.72937 0.47929 0.67243 0.0
C192 C 0.75674 0.50976 0.68435 0.0
C193 C 0.72922 0.44743 0.67361 0.0
C194 C 0.79004 0.41346 0.68148 0.0
H195 H 0.71914 0.24059 0.63889 0.0
H196 H 0.71618 0.2937 0.64797 0.0
H197 H 0.8163 0.38434 0.67427 0.0
H198 H 0.80455 0.53033 0.70794 0.0
H199 H 0.80396 0.47446 0.7104 0.0
H200 H 0.70169 0.37723 0.6914 0.0
C201 C 0.73657 0.29053 0.65757 0.0
C202 C 0.7912 0.38245 0.67837 0.0
C203 C 0.73844 0.26026 0.65222 0.0
C204 C 0.78323 0.50738 0.69838 0.0
C205 C 0.783 0.47542 0.69966 0.0
C206 C 0.72687 0.37913 0.68764 0.0
C207 C 0.76129 0.31678 0.6746 0.0
C208 C 0.76016 0.34949 0.67943 0.0
C209 C 0.75634 0.44525 0.68686 0.0
C210 C 0.75781 0.41219 0.68584 0.0
H211 H 0.8101 0.27883 0.69059 0.0
H212 H 0.80686 0.33165 0.6998 0.0
H213 H 0.70375 0.32302 0.68571 0.0
H214 H 0.70855 0.48021 0.66144 0.0
H215 H 0.70853 0.42486 0.66324 0.0
C216 C 0.47991 0.75265 0.92419 0.0
C217 C 0.48625 0.73301 0.94341 0.0
C218 C 0.44684 0.74985 0.92238 0.0
C219 C 0.35364 0.69603 0.94439 0.0
H220 H 0.35548 0.78526 0.94013 0.0
C221 C 0.23838 0.71452 0.97831 0.0
C222 C 0.23092 0.7369 0.96297 0.0
C223 C 0.26764 0.71118 0.97236 0.0
C224 C 0.35442 0.76006 0.94091 0.0
H225 H 0.46247 0.69389 0.97503 0.0
H226 H 0.40519 0.68952 0.97218 0.0
H227 H 0.40997 0.78412 0.93531 0.0
H228 H 0.24753 0.77237 0.92877 0.0
H229 H 0.29849 0.76648 0.91842 0.0
H230 H 0.29808 0.6722 0.95082 0.0
C231 C 0.42551 0.70674 0.95826 0.0
C232 C 0.38566 0.75938 0.93807 0.0
C233 C 0.45848 0.70944 0.96001 0.0
C234 C 0.25275 0.75517 0.94116 0.0
C235 C 0.282 0.75188 0.93524 0.0
C236 C 0.32237 0.69674 0.94732 0.0
C237 C 0.4195 0.72742 0.93979 0.0
C238 C 0.38572 0.72744 0.94015 0.0
C239 C 0.29 0.73019 0.95097 0.0
C240 C 0.32254 0.72883 0.94596 0.0
H241 H 0.50069 0.77083 0.91097 0.0
H242 H 0.44287 0.76571 0.90764 0.0
H243 H 0.35274 0.67094 0.9457 0.0
H244 H 0.222 0.70003 -0.00479 0.0
H245 H 0.27335 0.69453 0.985 0.0
C246 C 0.48212 0.28349 0.30332 0.0
C247 C 0.47916 0.25752 0.32142 0.0
C248 C 0.51484 0.31319 0.29811 0.0
C249 C 0.60509 0.36559 0.32512 0.0
H250 H 0.62887 0.39852 0.25177 0.0
C251 C 0.74508 0.47135 0.29609 0.0
C252 C 0.74811 0.4995 0.28048 0.0
C253 C 0.71254 0.44075 0.29932 0.0
C254 C 0.62248 0.38974 0.27235 0.0
H255 H 0.50815 0.24259 0.34857 0.0
H256 H 0.56526 0.2942 0.3393 0.0
H257 H 0.57108 0.34792 0.26188 0.0
H258 H 0.71968 0.5168 0.25485 0.0
H259 H 0.66271 0.46317 0.26053 0.0
H260 H 0.65648 0.40727 0.33559 0.0
C261 C 0.54224 0.29187 0.32936 0.0
C262 C 0.58937 0.36087 0.27818 0.0
C263 C 0.5095 0.26221 0.33462 0.0
C264 C 0.71822 0.49561 0.26702 0.0
C265 C 0.68561 0.46487 0.27022 0.0
C266 C 0.63818 0.39432 0.31928 0.0
C267 C 0.54533 0.31754 0.31086 0.0
C268 C 0.58032 0.34846 0.30464 0.0
C269 C 0.68231 0.43755 0.28699 0.0
C270 C 0.64726 0.40666 0.29285 0.0
H271 H 0.45922 0.28068 0.29284 0.0
H272 H 0.51624 0.33276 0.28409 0.0
H273 H 0.59875 0.35711 0.34576 0.0
H274 H 0.76763 0.47335 0.30658 0.0
H275 H 0.71091 0.41982 0.31194 0.0
C276 C 0.26096 0.74659 0.64748 0.0
C277 C 0.23132 0.74706 0.65747 0.0
C278 C 0.26614 0.71831 0.65319 0.0
C279 C 0.23934 0.64367 0.70021 0.0
H280 H 0.27029 0.60572 0.64328 0.0
C281 C 0.22779 0.50645 0.70429 0.0
C282 C 0.25465 0.50274 0.6923 0.0
C283 C 0.22833 0.53856 0.70286 0.0
C284 C 0.2622 0.61635 0.65953 0.0
H285 H 0.1838 0.71818 0.68118 0.0
H286 H 0.19253 0.66861 0.69071 0.0
H287 H 0.26418 0.65702 0.63456 0.0
H288 H 0.30432 0.53041 0.67092 0.0
H289 H 0.30537 0.5864 0.6687 0.0
H290 H 0.23673 0.60243 0.72501 0.0
C291 C 0.21208 0.69035 0.67886 0.0
C292 C 0.25865 0.64574 0.65452 0.0
C293 C 0.20692 0.71863 0.67318 0.0
C294 C 0.28303 0.53229 0.68015 0.0
C295 C 0.28356 0.56433 0.67873 0.0
C296 C 0.24282 0.61419 0.70521 0.0
C297 C 0.24177 0.6899 0.66898 0.0
C298 C 0.24691 0.65956 0.67472 0.0
C299 C 0.25575 0.56754 0.68942 0.0
C300 C 0.25406 0.60009 0.68486 0.0
H301 H 0.28037 0.76822 0.63545 0.0
H302 H 0.28949 0.71892 0.64552 0.0
H303 H 0.23077 0.65405 0.71632 0.0
H304 H 0.20559 0.48421 0.71382 0.0
H305 H 0.20642 0.54015 0.71117 0.0
C306 C 0.75799 0.28643 0.03991 0.0
C307 C 0.77136 0.2747 0.01935 0.0
C308 C 0.7297 0.29189 0.03493 0.0
C309 C 0.68074 0.30531 0.98006 0.0
H310 H 0.60155 0.26199 0.02887 0.0
C311 C 0.54027 0.27013 0.94963 0.0
C312 C 0.51884 0.27343 0.96886 0.0
C313 C 0.5737 0.2762 0.95659 0.0
C314 C 0.62365 0.27482 0.01526 0.0
H315 H 0.76616 0.26041 0.97729 0.0
H316 H 0.71705 0.26976 0.96876 0.0
H317 H 0.65583 0.26255 0.04016 0.0
H318 H 0.5163 0.28722 0.0102 0.0
H319 H 0.57466 0.29812 0.02218 0.0
H320 H 0.64832 0.31691 0.95487 0.0
C321 C 0.72844 0.27498 -0.01135 0.0
C322 C 0.65475 0.27514 0.02176 0.0
C323 C 0.75641 0.26929 -0.00636 0.0
C324 C 0.53201 0.28411 -0.00507 0.0
C325 C 0.56541 0.29023 0.00187 0.0
C326 C 0.64968 0.30506 0.97358 0.0
C327 C 0.71459 0.28608 0.00925 0.0
C328 C 0.68334 0.28971 0.00396 0.0
C329 C 0.5864 0.28578 0.9829 0.0
C330 C 0.62054 0.28918 -0.00914 0.0
H331 H 0.76902 0.29088 0.0599 0.0
H332 H 0.71961 0.30062 0.05115 0.0
H333 H 0.70259 0.31723 0.96614 0.0
H334 H 0.5309 0.26195 0.92938 0.0
H335 H 0.58908 0.27218 0.94157 0.0
C336 C 0.16412 0.30251 0.36669 0.0
C337 C 0.15837 0.31434 0.342 0.0
C338 C 0.17727 0.2794 0.36754 0.0
C339 C 0.19045 0.21641 0.32779 0.0
H340 H 0.27351 0.24731 0.37201 0.0
C341 C 0.2901 0.17025 0.31009 0.0
C342 C 0.30878 0.16736 0.3319 0.0
C343 C 0.26681 0.18275 0.31373 0.0
C344 C 0.24991 0.23775 0.35999 0.0
H345 H 0.16038 0.30997 0.29887 0.0
H346 H 0.18318 0.2694 0.30041 0.0
H347 H 0.24096 0.27865 0.37394 0.0
H348 H 0.31638 0.17367 0.37487 0.0
H349 H 0.27499 0.19477 0.38137 0.0
H350 H 0.19951 0.17566 0.31366 0.0
C351 C 0.17749 0.27804 0.31907 0.0
C352 C 0.23132 0.25583 0.36105 0.0
C353 C 0.16464 0.30143 0.31819 0.0
C354 C 0.30258 0.17588 0.35763 0.0
C355 C 0.27901 0.18815 0.36132 0.0
C356 C 0.20884 0.19808 0.32692 0.0
C357 C 0.18458 0.26737 0.34375 0.0
C358 C 0.20185 0.24578 0.34457 0.0
C359 C 0.26136 0.19238 0.33932 0.0
C360 C 0.23927 0.20902 0.34257 0.0
H361 H 0.15948 0.3119 0.38541 0.0
H362 H 0.18222 0.27134 0.38683 0.0
H363 H 0.16753 0.20786 0.31513 0.0
H364 H 0.2943 0.16397 0.28997 0.0
H365 H 0.25416 0.18616 0.29625 0.0
C366 C 0.8797 0.17341 0.65176 0.0
C367 C 0.85855 0.18196 0.63589 0.0
C368 C 0.91638 0.19363 0.65029 0.0
C369 C 0.98588 0.2832 0.63227 0.0
H370 H 0.0475 0.24405 0.63905 0.0
C371 C 0.1366 0.36975 0.62502 0.0
C372 C 0.15652 0.36339 0.64395 0.0
C373 C 0.1005 0.34647 0.62248 0.0
C374 C 0.03058 0.25535 0.63735 0.0
H375 H 0.85926 0.21718 0.60493 0.0
H376 H 0.92318 0.25205 0.60207 0.0
H377 H 0.98388 0.20454 0.63629 0.0
H378 H 0.1542 0.32747 0.67496 0.0
H379 H 0.09101 0.28695 0.67065 0.0
H380 H 0.03242 0.33395 0.63356 0.0
C381 C 0.91144 0.23022 0.61609 0.0
C382 C 0.99418 0.23274 0.63574 0.0
C383 C 0.87481 0.21009 0.61761 0.0
C384 C 0.13959 0.33311 0.66017 0.0
C385 C 0.10344 0.30977 0.65759 0.0
C386 C 0.02221 0.30575 0.63383 0.0
C387 C 0.93264 0.22274 0.63286 0.0
C388 C 0.97142 0.24644 0.6333 0.0
C389 C 0.0835 0.31628 0.63877 0.0
C390 C 0.04496 0.29211 0.63651 0.0
H391 H 0.868 0.1519 0.66605 0.0
H392 H 0.93193 0.18732 0.66363 0.0
H393 H 0.96907 0.29465 0.63095 0.0
H394 H 0.14887 0.39273 0.61211 0.0
H395 H 0.08592 0.35197 0.60757 0.0
C396 C 0.79974 0.1173 0.02237 0.0
C397 C 0.78459 0.13493 0.03523 0.0
C398 C 0.78176 0.08056 0.02109 0.0
C399 C 0.70811 -0.00107 0.04934 0.0
H400 H 0.70376 0.96239 0.97796 0.0
C401 C 0.60823 0.85517 0.02026 0.0
C402 C 0.61957 0.83794 0.00269 0.0
C403 C 0.62971 0.89106 0.02568 0.0
C404 C 0.70511 0.97202 -0.00189 0.0
H405 H 0.7396 0.12773 0.05825 0.0
H406 H 0.70817 0.06344 0.05598 0.0
H407 H 0.73985 0.02533 0.98609 0.0
H408 H 0.66256 0.84472 0.97731 0.0
H409 H 0.70025 0.90714 0.98708 0.0
H410 H 0.67326 0.94551 0.06133 0.0
C411 C 0.73399 0.07812 0.0469 0.0
C412 C 0.7258 0.00813 0.00277 0.0
C413 C 0.75195 0.11495 0.04812 0.0
C414 C 0.65293 0.85729 -0.00923 0.0
C415 C 0.67449 0.89312 -0.0037 0.0
C416 C 0.68752 0.96269 0.04471 0.0
C417 C 0.7483 0.06063 0.03272 0.0
C418 C 0.72744 0.02201 0.02839 0.0
C419 C 0.66309 0.91048 0.01374 0.0
C420 C 0.68565 0.94884 0.01899 0.0
H421 H 0.825 0.13186 0.01244 0.0
H422 H 0.79372 0.06775 0.01045 0.0
H423 H 0.70911 0.00888 0.06933 0.0
H424 H 0.58264 0.84101 0.02975 0.0
H425 H 0.61989 0.9037 0.03888 0.0
C426 C 0.67538 0.80618 0.33198 0.0
C427 C 0.64725 0.79388 0.31375 0.0
C428 C 0.69827 0.7927 0.33158 0.0
C429 C 0.72525 0.7414 0.33813 0.0
H430 H 0.75142 0.71546 0.2715 0.0
C431 C 0.76802 0.63781 0.3337 0.0
C432 C 0.79491 0.64278 0.31595 0.0
C433 C 0.75475 0.66077 0.33348 0.0
C434 C 0.7448 0.72299 0.29028 0.0
H435 H 0.62146 0.75829 0.28051 0.0
H436 H 0.66087 0.73446 0.28014 0.0
H437 H 0.72054 0.7487 0.27042 0.0
H438 H 0.82925 0.67602 0.28418 0.0
H439 H 0.80602 0.7164 0.28386 0.0
H440 H 0.74942 0.71566 0.35799 0.0
C441 C 0.66567 0.75488 0.29447 0.0
C442 C 0.72675 0.74167 0.28966 0.0
C443 C 0.64286 0.76834 0.29484 0.0
C444 C 0.80845 0.67145 0.29805 0.0
C445 C 0.79508 0.69448 0.29781 0.0
C446 C 0.74332 0.72277 0.33874 0.0
C447 C 0.69348 0.76668 0.31295 0.0
C448 C 0.71608 0.75041 0.31357 0.0
C449 C 0.76804 0.68933 0.31553 0.0
C450 C 0.75257 0.71264 0.31483 0.0
H451 H 0.67957 0.82599 0.3467 0.0
H452 H 0.71966 0.8026 0.34591 0.0
H453 H 0.71726 0.74751 0.35691 0.0
H454 H 0.75693 0.61597 0.34773 0.0
H455 H 0.73349 0.65564 0.34705 0.0
C456 C 0.12193 0.79863 0.60819 0.0
C457 C 0.13967 0.83004 0.62297 0.0
C458 C 0.08532 0.78093 0.60577 0.0
C459 C 0.00867 0.76859 0.64295 0.0
H460 H 0.95701 0.71902 0.57933 0.0
C461 C 0.85756 0.68358 0.64345 0.0
C462 C 0.84298 0.65084 0.63048 0.0
C463 C 0.89307 0.70873 0.64009 0.0
C464 C 0.97108 0.73252 0.59731 0.0
H465 H 0.13309 0.86859 0.64545 0.0
H466 H 0.06913 0.83763 0.64117 0.0
H467 H 0.02073 0.7581 0.57694 0.0
H468 H 0.85407 0.61895 0.60354 0.0
H469 H 0.91619 0.66244 0.59821 0.0
H470 H 0.95951 0.74227 0.66361 0.0
C471 C 0.08357 0.82654 0.63175 0.0
C472 C 0.00752 0.75497 0.59589 0.0
C473 C 0.12021 0.84433 0.63407 0.0
C474 C 0.86451 0.64396 0.61378 0.0
C475 C 0.90008 0.66903 0.61056 0.0
C476 C 0.97233 0.74603 0.64441 0.0
C477 C 0.06569 0.79422 0.61815 0.0
C478 C 0.02673 0.77293 0.61878 0.0
C479 C 0.91486 0.70162 0.62384 0.0
C480 C 0.95314 0.72739 0.62169 0.0
H481 H 0.13617 0.78698 0.5993 0.0
H482 H 0.07227 0.75596 0.59532 0.0
H483 H 0.02281 0.78157 0.66105 0.0
H484 H 0.84159 0.68981 0.65628 0.0
H485 H 0.90346 0.73377 0.65028 0.0
C486 C 0.29093 0.12576 0.97593 0.0
C487 C 0.32786 0.14241 0.97592 0.0
C488 C 0.27042 0.08909 0.97796 0.0
C489 C 0.2745 0.00725 0.97007 0.0
H490 H 0.19222 0.96659 0.01604 0.0
C491 C 0.20383 0.86145 0.00108 0.0
C492 C 0.16695 0.84271 -0.00127 0.0
C493 C 0.22258 0.89811 -0.00121 0.0
C494 C 0.21495 0.97758 0.00296 0.0
H495 H 0.37223 0.13361 0.97777 0.0
H496 H 0.33654 0.06982 0.98173 0.0
H497 H 0.22666 0.03047 0.01014 0.0
H498 H 0.12074 0.84788 -0.0069 0.0
H499 H 0.15364 0.91213 -0.01076 0.0
H500 H 0.26306 0.9544 0.96322 0.0
C501 C 0.32335 0.08498 0.97974 0.0
C502 C 0.23462 0.01414 -0.0005 0.0
C503 C 0.34384 0.1216 0.9776 0.0
C504 C 0.14914 0.86155 -0.00504 0.0
C505 C 0.16794 0.89832 -0.00717 0.0
C506 C 0.25497 0.97078 0.97366 0.0
C507 C 0.2864 0.06829 0.98009 0.0
C508 C 0.26475 0.0294 0.98312 0.0
C509 C 0.20489 0.91688 -0.00574 0.0
C510 C 0.22513 0.95559 -0.00974 0.0
H511 H 0.27781 0.14105 0.97455 0.0
H512 H 0.24202 0.07703 0.97776 0.0
H513 H 0.29714 0.01806 0.95691 0.0
H514 H 0.21839 0.84778 0.00407 0.0
H515 H 0.25102 0.91179 0.00039 0.0
C516 C 0.96198 0.27961 0.06487 0.0
C517 C 0.93845 0.28978 0.05492 0.0
C518 C 0.98574 0.29896 0.08517 0.0
C519 C -0.00363 0.35826 0.1406 0.0
H520 H 0.08916 0.36846 0.14536 0.0
C521 C 0.07127 0.38266 0.24004 0.0
C522 C 0.10814 0.4036 0.23993 0.0
C523 C 0.05234 0.37464 0.2161 0.0
C524 C 0.06355 0.36636 0.14419 0.0
H525 H 0.9225 0.32919 0.05756 0.0
H526 H 0.96433 0.36322 0.09273 0.0
H527 H 0.05444 0.34456 0.10477 0.0
H528 H 0.15394 0.43399 0.21476 0.0
H529 H 0.12081 0.42034 0.17302 0.0
H530 H 0.00549 0.38006 0.18002 0.0
C531 C 0.96394 0.3399 0.0852 0.0
C532 C 0.04348 0.35225 0.12104 0.0
C533 C 0.9401 0.32049 0.06495 0.0
C534 C 0.12556 0.41752 0.21551 0.0
C535 C 0.10661 0.40958 0.19157 0.0
C536 C 0.01648 0.37245 0.16372 0.0
C537 C 0.98657 0.32898 0.09588 0.0
C538 C 0.00939 0.34739 0.1192 0.0
C539 C 0.06986 0.38749 0.19155 0.0
C540 C 0.05001 0.37601 0.16598 0.0
H541 H 0.96137 0.25608 0.05758 0.0
H542 H 0.00251 0.28957 0.09316 0.0
H543 H 0.9701 0.3546 0.13994 0.0
H544 H 0.05706 0.37152 0.25852 0.0
H545 H 0.02409 0.35721 0.21677 0.0
C546 C 0.67548 0.07924 0.56967 0.0
C547 C 0.70644 0.11138 0.56471 0.0
C548 C 0.65883 0.05511 0.54898 0.0
C549 C 0.65811 0.04424 0.47482 0.0
H550 H 0.62856 0.94751 0.49385 0.0
C551 C 0.60684 0.93253 0.39611 0.0
C552 C 0.61873 0.90832 0.39906 0.0
C553 C 0.6129 0.95697 0.41628 0.0
C554 C 0.63684 0.97442 0.48816 0.0
H555 H 0.74346 0.14412 0.53402 0.0
H556 H 0.71522 0.1017 0.4982 0.0
H557 H 0.64711 0.99163 0.52875 0.0
H558 H 0.64669 0.89105 0.42522 0.0
H559 H 0.65805 0.93409 0.45993 0.0
H560 H 0.64977 0.02724 0.43401 0.0
C561 C 0.70323 0.09528 0.51787 0.0
C562 C 0.64694 -0.00032 0.50825 0.0
C563 C 0.71963 0.11955 0.53848 0.0
C564 C 0.63697 0.90918 0.42242 0.0
C565 C 0.64323 0.9337 0.44244 0.0
C566 C 0.64827 0.01898 0.45467 0.0
C567 C 0.67304 0.06246 0.52297 0.0
C568 C 0.65836 0.03505 0.5018 0.0
C569 C 0.63111 0.95776 0.43971 0.0
C570 C 0.63826 0.98394 0.4611 0.0
H571 H 0.66445 0.07241 0.58964 0.0
H572 H 0.63521 0.03039 0.55349 0.0
H573 H 0.66621 0.07112 0.46918 0.0
H574 H 0.59254 0.93239 0.37836 0.0
H575 H 0.60295 0.97493 0.41366 0.0
C576 C 0.64486 0.74596 0.8861 0.0
C577 C 0.62592 0.72265 0.90705 0.0
C578 C 0.65636 0.73453 0.86439 0.0
C579 C 0.63867 0.65477 0.82788 0.0
H580 H 0.7325 0.71503 0.7995 0.0
C581 C 0.68625 0.62637 0.72809 0.0
C582 C 0.72033 0.63106 0.72821 0.0
C583 C 0.67427 0.63731 0.74991 0.0
C584 C 0.70629 0.69784 0.80729 0.0
H585 H 0.60442 0.66912 0.9218 0.0
H586 H 0.62483 0.64921 0.88386 0.0
H587 H 0.71302 0.73413 0.83833 0.0
H588 H 0.76855 0.65079 0.75128 0.0
H589 H 0.7476 0.66961 0.78924 0.0
H590 H 0.63221 0.61824 0.797 0.0
C591 C 0.6304 0.67624 0.88416 0.0
C592 C 0.69503 0.70891 0.82936 0.0
C593 C 0.61894 0.6877 0.90595 0.0
C594 C 0.74217 0.64689 0.75051 0.0
C595 C 0.73026 0.65786 0.77222 0.0
C596 C 0.64992 0.64372 0.80573 0.0
C597 C 0.64915 0.69954 0.86314 0.0
C598 C 0.66113 0.68749 0.83989 0.0
C599 C 0.69623 0.65323 0.77215 0.0
C600 C 0.68388 0.66512 0.79527 0.0
H601 H 0.65059 0.77304 0.88631 0.0
H602 H 0.6704 0.75298 0.84834 0.0
H603 H 0.61226 0.63788 0.83542 0.0
H604 H 0.66882 0.61427 0.71119 0.0
H605 H 0.64802 0.63371 0.74923 0.0
C606 C 0.12685 0.69996 0.09741 0.0
C607 C 0.10859 0.69623 0.07337 0.0
C608 C 0.1087 0.68872 0.12166 0.0
C609 C 0.01976 0.63357 0.1507 0.0
H610 H 0.05782 0.699 0.21007 0.0
C611 C 0.94481 0.60509 0.25008 0.0
C612 C 0.94198 0.63331 0.26048 0.0
C613 C 0.96897 0.61082 0.22983 0.0
C614 C 0.04687 0.68046 0.19368 0.0
H615 H 0.05687 0.67672 0.05579 0.0
H616 H 0.02529 0.65752 0.09807 0.0
H617 H 0.09169 0.7114 0.16884 0.0
H618 H 0.96342 0.6899 0.25868 0.0
H619 H 0.00514 0.69983 0.22303 0.0
H620 H 0.97423 0.6035 0.17499 0.0
C621 C 0.05359 0.66876 0.09819 0.0
C622 C 0.06644 0.68734 0.17017 0.0
C623 C 0.07172 0.67997 0.07396 0.0
C624 C 0.96492 0.6676 0.25107 0.0
C625 C 0.989 0.67331 0.23073 0.0
C626 C 0.00019 0.62672 0.17417 0.0
C627 C 0.07192 0.67349 0.12236 0.0
C628 C 0.05279 0.6643 0.14823 0.0
C629 C 0.99074 0.64487 0.21948 0.0
C630 C 0.01324 0.65041 0.19575 0.0
H631 H 0.15527 0.7122 0.09762 0.0
H632 H 0.1235 0.69227 0.1399 0.0
H633 H 0.00873 0.61509 0.13428 0.0
H634 H 0.92775 0.57839 0.25712 0.0
H635 H 0.97013 0.58846 0.22192 0.0
C636 C 0.4063 0.11378 0.43668 0.0
C637 C 0.40533 0.10515 0.40952 0.0
C638 C 0.40222 0.08961 0.45661 0.0
C639 C 0.36232 0.99411 0.4663 0.0
H640 H 0.40571 0.02161 0.53644 0.0
C641 C 0.32262 0.89289 0.55117 0.0
C642 C 0.31329 0.90293 0.57509 0.0
C643 C 0.34124 0.91785 0.53131 0.0
C644 C 0.39346 0.01358 0.51692 0.0
H645 H 0.40138 0.06522 0.38194 0.0
H646 H 0.3949 0.02324 0.41676 0.0
H647 H 0.42556 0.06517 0.5003 0.0
H648 H 0.31801 0.94734 0.59759 0.0
H649 H 0.3503 0.99085 0.5628 0.0
H650 H 0.32971 0.94282 0.48299 0.0
C651 C 0.39799 0.04838 0.42265 0.0
C652 C 0.40474 0.03849 0.49625 0.0
C653 C 0.40182 0.07248 0.4027 0.0
C654 C 0.32464 0.93873 0.57933 0.0
C655 C 0.34336 0.96371 0.55947 0.0
C656 C 0.35121 0.96922 0.48688 0.0
C657 C 0.39734 0.05635 0.44982 0.0
C658 C 0.38873 0.0292 0.47087 0.0
C659 C 0.35104 0.95336 0.53498 0.0
C660 C 0.36613 0.97886 0.51254 0.0
H661 H 0.40901 0.13877 0.4426 0.0
H662 H 0.40141 0.09647 0.4773 0.0
H663 H 0.34897 0.98614 0.44717 0.0
H664 H 0.31455 0.86556 0.54738 0.0
H665 H 0.34723 0.90922 0.51277 0.0
C666 C 0.38878 0.30324 0.9011 0.0
C667 C 0.38743 0.27055 0.90012 0.0
C668 C 0.37957 0.31602 0.87867 0.0
C669 C 0.32517 0.28501 0.81851 0.0
H670 H 0.37728 0.3832 0.79665 0.0
C671 C 0.26634 0.34813 0.75048 0.0
C672 C 0.28751 0.37026 0.72972 0.0
C673 C 0.28045 0.33558 0.7697 0.0
C674 C 0.36268 0.35565 0.80239 0.0
H675 H 0.37614 0.22603 0.8747 0.0
H676 H 0.35997 0.24834 0.83567 0.0
H677 H 0.39964 0.36253 0.83322 0.0
H678 H 0.34007 0.39659 0.71275 0.0
H679 H 0.36486 0.37476 0.74666 0.0
H680 H 0.28803 0.27816 0.78796 0.0
C681 C 0.36793 0.26392 0.85382 0.0
C682 C 0.37528 0.34392 0.82343 0.0
C683 C 0.37732 0.25124 0.87615 0.0
C684 C 0.32312 0.37955 0.72852 0.0
C685 C 0.33734 0.36722 0.74795 0.0
C686 C 0.31246 0.29678 0.79766 0.0
C687 C 0.36865 0.29626 0.85493 0.0
C688 C 0.35647 0.30854 0.83181 0.0
C689 C 0.31608 0.34509 0.76869 0.0
C690 C 0.33089 0.33227 0.78959 0.0
H691 H 0.39655 0.31877 0.91926 0.0
H692 H 0.38005 0.34089 0.88015 0.0
H693 H 0.30998 0.25766 0.82469 0.0
H694 H 0.23881 0.34047 0.75196 0.0
H695 H 0.26358 0.31889 0.78566 0.0
C696 C 0.13063 0.40699 0.40911 0.0
C697 C 0.14062 0.43669 0.39273 0.0
C698 C 0.14741 0.41035 0.43357 0.0
C699 C 0.20505 0.47194 0.48523 0.0
H700 H 0.24088 0.40725 0.49031 0.0
C701 C 0.2966 0.48226 0.57145 0.0
C702 C 0.28724 0.45018 0.58435 0.0
C703 C 0.28234 0.4825 0.54644 0.0
C704 C 0.23089 0.42533 0.48933 0.0
H705 H 0.17325 0.49369 0.39063 0.0
H706 H 0.20211 0.49949 0.43361 0.0
H707 H 0.20418 0.40348 0.45239 0.0
H708 H 0.25792 0.39324 0.58007 0.0
H709 H 0.23289 0.39365 0.53685 0.0
H710 H 0.2311 0.49334 0.52247 0.0
C711 C 0.18166 0.4736 0.42728 0.0
C712 C 0.20976 0.42309 0.46766 0.0
C713 C 0.165 0.47024 0.40268 0.0
C714 C 0.26564 0.41845 0.57076 0.0
C715 C 0.2513 0.41869 0.54586 0.0
C716 C 0.22596 0.474 0.50708 0.0
C717 C 0.17418 0.44349 0.44229 0.0
C718 C 0.19634 0.44611 0.46553 0.0
C719 C 0.25846 0.45067 0.53385 0.0
C720 C 0.23888 0.45051 0.5095 0.0
H721 H 0.11161 0.38081 0.40222 0.0
H722 H 0.14058 0.3868 0.44512 0.0
H723 H 0.19503 0.49 0.48404 0.0
H724 H 0.31339 0.5072 0.58127 0.0
H725 H 0.28905 0.5076 0.53741 0.0
C726 C 0.85544 0.22707 0.9122 0.0
C727 C 0.84848 0.25249 0.92307 0.0
C728 C 0.84223 0.21257 0.88703 0.0
C729 C 0.82226 0.19967 0.82696 0.0
H730 H 0.72218 0.16481 0.81925 0.0
C731 C 0.74992 0.1288 0.73097 0.0
C732 C 0.72737 0.13979 0.72023 0.0
C733 C 0.76187 0.13704 0.75735 0.0
C734 C 0.75017 0.17462 0.82094 0.0
H735 H 0.82411 0.28421 0.91535 0.0
H736 H 0.80091 0.25862 0.87156 0.0
H737 H 0.75217 0.1942 0.86049 0.0
H738 H 0.69764 0.16576 0.7293 0.0
H739 H 0.719 0.18083 0.77486 0.0
H740 H 0.82081 0.18152 0.7871 0.0
C741 C 0.81635 0.24981 0.88263 0.0
C742 C 0.7673 0.19143 0.84456 0.0
C743 C 0.82993 0.26466 0.90759 0.0
C744 C 0.71495 0.15683 0.73697 0.0
C745 C 0.7272 0.16543 0.76321 0.0
C746 C 0.80524 0.1833 0.80315 0.0
C747 C 0.82153 0.22295 0.8725 0.0
C748 C 0.80355 0.20445 0.84764 0.0
C749 C 0.75179 0.15674 0.77343 0.0
C750 C 0.76903 0.17091 0.79972 0.0
H751 H 0.86972 0.21723 0.92364 0.0
H752 H 0.84664 0.19194 0.87956 0.0
H753 H 0.85026 0.20956 0.8289 0.0
H754 H 0.7597 0.11532 0.71862 0.0
H755 H 0.78003 0.12908 0.76481 0.0
C756 C 0.58652 0.84729 0.23624 0.0
C757 C 0.55595 0.83903 0.25078 0.0
C758 C 0.58407 0.83262 0.21104 0.0
C759 C 0.52366 0.75345 0.17329 0.0
H760 H 0.58986 0.8003 0.11544 0.0
C761 C 0.51322 0.69377 0.06796 0.0
C762 C 0.5449 0.70239 0.05492 0.0
C763 C 0.51373 0.70774 0.09317 0.0
C764 C 0.5715 0.78674 0.1316 0.0
H765 H 0.49886 0.81153 0.24918 0.0
H766 H 0.49467 0.78647 0.20491 0.0
H767 H 0.59139 0.83402 0.15458 0.0
H768 H 0.60172 0.72913 0.0594 0.0
H769 H 0.60248 0.753 0.10347 0.0
H770 H 0.50373 0.70616 0.15016 0.0
C771 C 0.5205 0.80354 0.21336 0.0
C772 C 0.57225 0.8061 0.15393 0.0
C773 C 0.52294 0.81822 0.23861 0.0
C774 C 0.57685 0.72233 0.06872 0.0
C775 C 0.57734 0.73631 0.09387 0.0
C776 C 0.52284 0.73408 0.15088 0.0
C777 C 0.55101 0.80952 0.19978 0.0
C778 C 0.54851 0.78965 0.17512 0.0
C779 C 0.54591 0.73046 0.10577 0.0
C780 C 0.54696 0.75048 0.12992 0.0
H781 H 0.61238 0.86333 0.24498 0.0
H782 H 0.6081 0.83772 0.20115 0.0
H783 H 0.50542 0.73984 0.1895 0.0
H784 H 0.48813 0.67833 0.05796 0.0
H785 H 0.48907 0.70265 0.10191 0.0
C786 C 0.80866 0.51892 0.39795 0.0
C787 C 0.82979 0.55198 0.38578 0.0
C788 C 0.791 0.51621 0.42188 0.0
C789 C 0.7553 0.56346 0.45862 0.0
H790 H 0.74803 0.50348 0.51837 0.0
C791 C 0.71426 0.57849 0.56445 0.0
C792 C 0.69756 0.54872 0.5812 0.0
C793 C 0.72379 0.57545 0.5384 0.0
C794 C 0.74913 0.51977 0.50162 0.0
H795 H 0.85106 0.60835 0.39026 0.0
H796 H 0.8206 0.60355 0.43206 0.0
H797 H 0.78136 0.50563 0.47872 0.0
H798 H 0.6743 0.49184 0.58276 0.0
H799 H 0.69045 0.48651 0.53706 0.0
H800 H 0.72341 0.57791 0.48154 0.0
C801 C 0.81707 0.57969 0.42279 0.0
C802 C 0.76845 0.52117 0.479 0.0
C803 C 0.83482 0.58243 0.39898 0.0
C804 C 0.68747 0.51537 0.57047 0.0
C805 C 0.69702 0.51233 0.54437 0.0
C806 C 0.73586 0.56195 0.48116 0.0
C807 C 0.7941 0.5465 0.434 0.0
C808 C 0.7723 0.54356 0.45752 0.0
C809 C 0.71666 0.54254 0.5285 0.0
C810 C 0.7331 0.54059 0.50312 0.0
H811 H 0.80424 0.49495 0.38832 0.0
H812 H 0.77354 0.49028 0.43013 0.0
H813 H 0.75714 0.58033 0.44206 0.0
H814 H 0.72221 0.60456 0.57202 0.0
H815 H 0.73895 0.5993 0.52676 0.0
C816 C 0.13568 0.69765 0.89973 0.0
C817 C 0.11792 0.71001 0.91578 0.0
C818 C 0.14833 0.71247 0.87455 0.0
C819 C 0.19843 0.77388 0.83894 0.0
H820 H 0.1479 0.78797 0.78096 0.0
C821 C 0.26175 0.82727 0.73612 0.0
C822 C 0.25028 0.84632 0.72054 0.0
C823 C 0.24595 0.8129 0.76071 0.0
C824 C 0.16257 0.7849 0.79718 0.0
H825 H 0.09627 0.74489 0.9169 0.0
H826 H 0.11761 0.77005 0.87243 0.0
H827 H 0.1159 0.75486 0.82074 0.0
H828 H 0.21507 0.86752 0.71942 0.0
H829 H 0.1885 0.84376 0.76295 0.0
H830 H 0.24522 0.80466 0.81615 0.0
C831 C 0.1222 0.74936 0.87962 0.0
C832 C 0.14411 0.76562 0.81979 0.0
C833 C 0.10997 0.73491 0.90502 0.0
C834 C 0.22434 0.85277 0.73092 0.0
C835 C 0.20882 0.83877 0.75572 0.0
C836 C 0.21696 0.7936 0.8166 0.0
C837 C 0.14287 0.7394 0.86477 0.0
C838 C 0.16186 0.75956 0.84066 0.0
C839 C 0.21863 0.81769 0.77053 0.0
C840 C 0.19925 0.79902 0.79525 0.0
H841 H 0.14228 0.67853 0.90738 0.0
H842 H 0.16384 0.70407 0.86324 0.0
H843 H 0.21281 0.7702 0.8551 0.0
H844 H 0.28149 0.82157 0.72864 0.0
H845 H 0.25401 0.79653 0.7713 0.0
C846 C 0.45399 0.18219 0.24485 0.0
C847 C 0.423 0.15702 0.25774 0.0
C848 C 0.45235 0.1959 0.21996 0.0
C849 C 0.39633 0.18227 0.16116 0.0
H850 H 0.44846 0.28445 0.15692 0.0
C851 C 0.38431 0.25219 0.06843 0.0
C852 C 0.41661 0.2779 0.05748 0.0
C853 C 0.38266 0.2402 0.09462 0.0
C854 C 0.43391 0.25592 0.15771 0.0
H855 H 0.36633 0.12442 0.25366 0.0
H856 H 0.3636 0.14801 0.21 0.0
H857 H 0.4521 0.25504 0.19736 0.0
H858 H 0.47176 0.31371 0.06632 0.0
H859 H 0.469 0.29253 0.11173 0.0
H860 H 0.37871 0.18294 0.12138 0.0
C861 C 0.38908 0.15737 0.21928 0.0
C862 C 0.43611 0.23908 0.18082 0.0
C863 C 0.39066 0.14384 0.24427 0.0
C864 C 0.44647 0.29377 0.07408 0.0
C865 C 0.44487 0.28161 0.10021 0.0
C866 C 0.3943 0.19908 0.13799 0.0
C867 C 0.41976 0.18443 0.20735 0.0
C868 C 0.41755 0.20209 0.18269 0.0
C869 C 0.41329 0.25358 0.11035 0.0
C870 C 0.41322 0.23611 0.13592 0.0
H871 H 0.47933 0.19293 0.25466 0.0
H872 H 0.47648 0.21627 0.21093 0.0
H873 H 0.3819 0.15373 0.16202 0.0
H874 H 0.36071 0.23974 0.05625 0.0
H875 H 0.3577 0.21928 0.10212 0.0
loop_
_geom_bond_atom_site_label_1
_geom_bond_atom_site_label_2
_geom_bond_distance
_geom_bond_site_symmetry_2
_ccdc_geom_bond_type
C0 O1 1.160 . S
C0 O7 1.185 . S
O1 C0 1.160 . S
O2 Zn3 1.899 . S
O2 C10 1.284 . S
Zn3 O2 1.899 . S
Zn3 O4 2.032 . S
Zn3 O7 2.086 . S
Zn3 O12 1.977 . S
O4 Zn3 2.032 . S
O4 C8 1.278 . S
C5 O6 1.203 . S
C5 O12 1.267 . S
O6 C5 1.203 . S
O7 C0 1.185 . S
O7 Zn3 2.086 . S
C8 O4 1.278 . S
C8 O9 1.211 . S
O9 C8 1.211 . S
C10 O2 1.284 . S
C10 O11 1.273 . S
O11 C10 1.273 . S
O12 Zn3 1.977 . S
O12 C5 1.267 . S
C13 O14 1.160 . S
C13 O20 1.185 . S
O14 C13 1.160 . S
O15 Zn16 1.899 . S
O15 C23 1.284 . S
Zn16 O15 1.899 . S
Zn16 O17 2.032 . S
Zn16 O20 2.086 . S
Zn16 O25 1.977 . S
O17 Zn16 2.032 . S
O17 C21 1.278 . S
C18 O19 1.203 . S
C18 O25 1.267 . S
O19 C18 1.203 . S
O20 C13 1.185 . S
O20 Zn16 2.086 . S
C21 O17 1.278 . S
C21 O22 1.211 . S
O22 C21 1.211 . S
C23 O15 1.284 . S
C23 O24 1.273 . S
O24 C23 1.273 . S
O25 Zn16 1.977 . S
O25 C18 1.267 . S
C26 O27 1.160 . S
C26 O33 1.185 . S
O27 C26 1.160 . S
O28 Zn29 1.904 . S
O28 C36 1.284 . S
Zn29 O28 1.904 . S
Zn29 O30 2.044 . S
Zn29 O33 2.103 . S
Zn29 O38 1.947 1_556 S
O30 Zn29 2.044 . S
O30 C34 1.278 . S
C31 O32 1.203 . S
C31 O38 1.267 . S
O32 C31 1.203 . S
O33 C26 1.185 . S
O33 Zn29 2.103 . S
C34 O30 1.278 . S
C34 O35 1.211 1_556 S
O35 C34 1.211 1_554 S
C36 O28 1.284 . S
C36 O37 1.273 . S
O37 C36 1.273 . S
O38 Zn29 1.947 1_554 S
O38 C31 1.267 . S
C39 O40 1.160 . S
C39 O46 1.185 . S
O40 C39 1.160 . S
O41 Zn42 1.899 . S
O41 C49 1.284 . S
Zn42 O41 1.899 . S
Zn42 O43 2.032 . S
Zn42 O46 2.086 . S
Zn42 O51 1.977 . S
O43 Zn42 2.032 . S
O43 C47 1.278 . S
C44 O45 1.203 . S
C44 O51 1.267 . S
O45 C44 1.203 . S
O46 C39 1.185 . S
O46 Zn42 2.086 . S
C47 O43 1.278 . S
C47 O48 1.211 . S
O48 C47 1.211 . S
C49 O41 1.284 . S
C49 O50 1.273 . S
O50 C49 1.273 . S
O51 Zn42 1.977 . S
O51 C44 1.267 . S
C52 O53 1.160 . S
C52 O59 1.185 . S
O53 C52 1.160 . S
O54 Zn55 1.899 . S
O54 C62 1.284 . S
Zn55 O54 1.899 . S
Zn55 O56 2.032 . S
Zn55 O59 2.086 . S
Zn55 O64 1.977 . S
O56 Zn55 2.032 . S
O56 C60 1.278 . S
C57 O58 1.203 . S
C57 O64 1.267 . S
O58 C57 1.203 . S
O59 C52 1.185 . S
O59 Zn55 2.086 . S
C60 O56 1.278 . S
C60 O61 1.211 . S
O61 C60 1.211 . S
C62 O54 1.284 . S
C62 O63 1.273 . S
O63 C62 1.273 . S
O64 Zn55 1.977 . S
O64 C57 1.267 . S
C65 O66 1.160 . S
C65 O72 1.185 . S
O66 C65 1.160 . S
O67 Zn68 1.904 . S
O67 C75 1.284 . S
Zn68 O67 1.904 . S
Zn68 O69 2.044 . S
Zn68 O72 2.103 . S
Zn68 O77 1.947 1_556 S
O69 Zn68 2.044 . S
O69 C73 1.278 . S
C70 O71 1.203 . S
C70 O77 1.267 . S
O71 C70 1.203 . S
O72 C65 1.185 . S
O72 Zn68 2.103 . S
C73 O69 1.278 . S
C73 O74 1.211 1_556 S
O74 C73 1.211 1_554 S
C75 O67 1.284 . S
C75 O76 1.273 . S
O76 C75 1.273 . S
O77 Zn68 1.947 1_554 S
O77 C70 1.267 . S
C78 O79 1.160 . S
C78 O85 1.185 . S
O79 C78 1.160 . S
O80 Zn81 1.899 . S
O80 C88 1.284 . S
Zn81 O80 1.899 . S
Zn81 O82 2.032 . S
Zn81 O85 2.086 . S
Zn81 O90 1.977 . S
O82 Zn81 2.032 . S
O82 C86 1.278 . S
C83 O84 1.203 . S
C83 O90 1.267 . S
O84 C83 1.203 . S
O85 C78 1.185 . S
O85 Zn81 2.086 . S
C86 O82 1.278 . S
C86 O87 1.211 . S
O87 C86 1.211 . S
C88 O80 1.284 . S
C88 O89 1.273 . S
O89 C88 1.273 . S
O90 Zn81 1.977 . S
O90 C83 1.267 . S
C91 O92 1.160 . S
C91 O98 1.185 . S
O92 C91 1.160 . S
O93 Zn94 1.899 . S
O93 C101 1.284 . S
Zn94 O93 1.899 . S
Zn94 O95 2.032 . S
Zn94 O98 2.086 . S
Zn94 O103 1.977 . S
O95 Zn94 2.032 . S
O95 C99 1.278 . S
C96 O97 1.203 . S
C96 O103 1.267 . S
O97 C96 1.203 . S
O98 C91 1.185 . S
O98 Zn94 2.086 . S
C99 O95 1.278 . S
C99 O100 1.211 . S
O100 C99 1.211 . S
C101 O93 1.284 . S
C101 O102 1.273 . S
O102 C101 1.273 . S
O103 Zn94 1.977 . S
O103 C96 1.267 . S
C104 O105 1.160 . S
C104 O111 1.185 . S
O105 C104 1.160 . S
O106 Zn107 1.904 . S
O106 C114 1.284 . S
Zn107 O106 1.904 . S
Zn107 O108 2.044 . S
Zn107 O111 2.103 . S
Zn107 O116 1.947 1_554 S
O108 Zn107 2.044 . S
O108 C112 1.278 . S
C109 O110 1.203 . S
C109 O116 1.267 . S
O110 C109 1.203 . S
O111 C104 1.185 . S
O111 Zn107 2.103 . S
C112 O108 1.278 . S
C112 O113 1.211 1_554 S
O113 C112 1.211 1_556 S
C114 O106 1.284 . S
C114 O115 1.273 . S
O115 C114 1.273 . S
O116 Zn107 1.947 1_556 S
O116 C109 1.267 . S
C117 O118 1.160 . S
C117 O124 1.185 . S
O118 C117 1.160 . S
O119 Zn120 1.899 . S
O119 C127 1.284 . S
Zn120 O119 1.899 . S
Zn120 O121 2.032 . S
Zn120 O124 2.086 . S
Zn120 O129 1.977 . S
O121 Zn120 2.032 . S
O121 C125 1.278 . S
C122 O123 1.203 . S
C122 O129 1.267 . S
O123 C122 1.203 . S
O124 C117 1.185 . S
O124 Zn120 2.086 . S
C125 O121 1.278 . S
C125 O126 1.211 . S
O126 C125 1.211 . S
C127 O119 1.284 . S
C127 O128 1.273 . S
O128 C127 1.273 . S
O129 Zn120 1.977 . S
O129 C122 1.267 . S
C130 O131 1.160 . S
C130 O137 1.185 . S
O131 C130 1.160 . S
O132 Zn133 1.899 . S
O132 C140 1.284 . S
Zn133 O132 1.899 . S
Zn133 O134 2.032 . S
Zn133 O137 2.086 . S
Zn133 O142 1.977 . S
O134 Zn133 2.032 . S
O134 C138 1.278 . S
C135 O136 1.203 . S
C135 O142 1.267 . S
O136 C135 1.203 . S
O137 C130 1.185 . S
O137 Zn133 2.086 . S
C138 O134 1.278 . S
C138 O139 1.211 . S
O139 C138 1.211 . S
C140 O132 1.284 . S
C140 O141 1.273 . S
O141 C140 1.273 . S
O142 Zn133 1.977 . S
O142 C135 1.267 . S
C143 O144 1.160 . S
C143 O150 1.185 . S
O144 C143 1.160 . S
O145 Zn146 1.904 . S
O145 C153 1.284 . S
Zn146 O145 1.904 . S
Zn146 O147 2.044 . S
Zn146 O150 2.103 . S
Zn146 O155 1.947 1_554 S
O147 Zn146 2.044 . S
O147 C151 1.278 . S
C148 O149 1.203 . S
C148 O155 1.267 . S
O149 C148 1.203 . S
O150 C143 1.185 . S
O150 Zn146 2.103 . S
C151 O147 1.278 . S
C151 O152 1.211 1_554 S
O152 C151 1.211 1_556 S
C153 O145 1.284 . S
C153 O154 1.273 . S
O154 C153 1.273 . S
O155 Zn146 1.947 1_556 S
O155 C148 1.267 . S
C156 C157 1.349 . S
C156 C158 1.327 . S
C156 H181 0.950 . S
C157 C156 1.349 . S
C157 C173 1.349 . S
C158 C156 1.327 . S
C158 C177 1.429 . S
C158 H182 0.950 . S
C159 C176 1.574 . S
C159 C178 1.368 . S
C159 H183 0.949 . S
H160 C164 0.949 . S
C161 C162 1.349 . S
C161 C163 1.327 . S
C161 H184 0.950 . S
C162 C161 1.349 . S
C162 C174 1.349 . S
C163 C161 1.327 . S
C163 C179 1.429 . S
C163 H185 0.950 . S
C164 H160 0.949 . S
C164 C172 1.574 . S
C164 C180 1.368 . S
H165 C173 0.950 . S
H166 C171 0.950 . S
H167 C172 0.949 . S
H168 C174 0.950 . S
H169 C175 0.950 . S
H170 C176 0.949 . S
C171 H166 0.950 . S
C171 C173 1.327 . S
C171 C177 1.429 . S
C172 C164 1.574 . S
C172 H167 0.949 . S
C172 C178 1.368 . S
C173 C157 1.349 . S
C173 H165 0.950 . S
C173 C171 1.327 . S
C174 C162 1.349 . S
C174 H168 0.950 . S
C174 C175 1.327 . S
C175 H169 0.950 . S
C175 C174 1.327 . S
C175 C179 1.429 . S
C176 C159 1.574 . S
C176 H170 0.949 . S
C176 C180 1.368 . S
C177 C158 1.429 . S
C177 C171 1.429 . S
C177 C178 1.523 . S
C178 C159 1.368 . S
C178 C172 1.368 . S
C178 C177 1.523 . S
C179 C163 1.429 . S
C179 C175 1.429 . S
C179 C180 1.523 . S
C180 C164 1.368 . S
C180 C176 1.368 . S
C180 C179 1.523 . S
H181 C156 0.950 . S
H182 C158 0.950 . S
H183 C159 0.949 . S
H184 C161 0.950 . S
H185 C163 0.950 . S
C186 C187 1.349 . S
C186 C188 1.327 . S
C186 H211 0.950 . S
C187 C186 1.349 . S
C187 C203 1.349 . S
C188 C186 1.327 . S
C188 C207 1.429 . S
C188 H212 0.950 . S
C189 C206 1.574 . S
C189 C208 1.368 . S
C189 H213 0.949 . S
H190 C194 0.949 . S
C191 C192 1.349 . S
C191 C193 1.327 . S
C191 H214 0.950 . S
C192 C191 1.349 . S
C192 C204 1.349 . S
C193 C191 1.327 . S
C193 C209 1.429 . S
C193 H215 0.950 . S
C194 H190 0.949 . S
C194 C202 1.574 . S
C194 C210 1.368 . S
H195 C203 0.950 . S
H196 C201 0.950 . S
H197 C202 0.949 . S
H198 C204 0.950 . S
H199 C205 0.950 . S
H200 C206 0.949 . S
C201 H196 0.950 . S
C201 C203 1.327 . S
C201 C207 1.429 . S
C202 C194 1.574 . S
C202 H197 0.949 . S
C202 C208 1.368 . S
C203 C187 1.349 . S
C203 H195 0.950 . S
C203 C201 1.327 . S
C204 C192 1.349 . S
C204 H198 0.950 . S
C204 C205 1.327 . S
C205 H199 0.950 . S
C205 C204 1.327 . S
C205 C209 1.429 . S
C206 C189 1.574 . S
C206 H200 0.949 . S
C206 C210 1.368 . S
C207 C188 1.429 . S
C207 C201 1.429 . S
C207 C208 1.523 . S
C208 C189 1.368 . S
C208 C202 1.368 . S
C208 C207 1.523 . S
C209 C193 1.429 . S
C209 C205 1.429 . S
C209 C210 1.523 . S
C210 C194 1.368 . S
C210 C206 1.368 . S
C210 C209 1.523 . S
H211 C186 0.950 . S
H212 C188 0.950 . S
H213 C189 0.949 . S
H214 C191 0.950 . S
H215 C193 0.950 . S
C216 C217 1.349 . S
C216 C218 1.327 . S
C216 H241 0.950 . S
C217 C216 1.349 . S
C217 C233 1.349 1_556 S
C218 C216 1.327 . S
C218 C237 1.429 . S
C218 H242 0.950 . S
C219 C236 1.574 . S
C219 C238 1.368 1_554 S
C219 H243 0.949 . S
H220 C224 0.949 . S
C221 C222 1.349 . S
C221 C223 1.327 . S
C221 H244 0.950 . S
C222 C221 1.349 . S
C222 C234 1.349 1_554 S
C223 C221 1.327 . S
C223 C239 1.429 . S
C223 H245 0.950 . S
C224 H220 0.949 . S
C224 C232 1.574 . S
C224 C240 1.368 1_556 S
H225 C233 0.950 . S
H226 C231 0.950 . S
H227 C232 0.949 . S
H228 C234 0.950 . S
H229 C235 0.950 . S
H230 C236 0.949 . S
C231 H226 0.950 . S
C231 C233 1.327 . S
C231 C237 1.429 1_554 S
C232 C224 1.574 . S
C232 H227 0.949 . S
C232 C238 1.368 . S
C233 C217 1.349 1_554 S
C233 H225 0.950 . S
C233 C231 1.327 . S
C234 C222 1.349 1_556 S
C234 H228 0.950 . S
C234 C235 1.327 . S
C235 H229 0.950 . S
C235 C234 1.327 . S
C235 C239 1.429 1_556 S
C236 C219 1.574 . S
C236 H230 0.949 . S
C236 C240 1.368 . S
C237 C218 1.429 . S
C237 C231 1.429 1_556 S
C237 C238 1.523 . S
C238 C219 1.368 1_556 S
C238 C232 1.368 . S
C238 C237 1.523 . S
C239 C223 1.429 . S
C239 C235 1.429 1_554 S
C239 C240 1.523 . S
C240 C224 1.368 1_554 S
C240 C236 1.368 . S
C240 C239 1.523 . S
H241 C216 0.950 . S
H242 C218 0.950 . S
H243 C219 0.949 . S
H244 C221 0.950 . S
H245 C223 0.950 . S
C246 C247 1.349 . S
C246 C248 1.327 . S
C246 H271 0.950 . S
C247 C246 1.349 . S
C247 C263 1.349 . S
C248 C246 1.327 . S
C248 C267 1.429 . S
C248 H272 0.950 . S
C249 C266 1.574 . S
C249 C268 1.368 . S
C249 H273 0.949 . S
H250 C254 0.949 . S
C251 C252 1.349 . S
C251 C253 1.327 . S
C251 H274 0.950 . S
C252 C251 1.349 . S
C252 C264 1.349 . S
C253 C251 1.327 . S
C253 C269 1.429 . S
C253 H275 0.950 . S
C254 H250 0.949 . S
C254 C262 1.574 . S
C254 C270 1.368 . S
H255 C263 0.950 . S
H256 C261 0.950 . S
H257 C262 0.949 . S
H258 C264 0.950 . S
H259 C265 0.950 . S
H260 C266 0.949 . S
C261 H256 0.950 . S
C261 C263 1.327 . S
C261 C267 1.429 . S
C262 C254 1.574 . S
C262 H257 0.949 . S
C262 C268 1.368 . S
C263 C247 1.349 . S
C263 H255 0.950 . S
C263 C261 1.327 . S
C264 C252 1.349 . S
C264 H258 0.950 . S
C264 C265 1.327 . S
C265 H259 0.950 . S
C265 C264 1.327 . S
C265 C269 1.429 . S
C266 C249 1.574 . S
C266 H260 0.949 . S
C266 C270 1.368 . S
C267 C248 1.429 . S
C267 C261 1.429 . S
C267 C268 1.523 . S
C268 C249 1.368 . S
C268 C262 1.368 . S
C268 C267 1.523 . S
C269 C253 1.429 . S
C269 C265 1.429 . S
C269 C270 1.523 . S
C270 C254 1.368 . S
C270 C266 1.368 . S
C270 C269 1.523 . S
H271 C246 0.950 . S
H272 C248 0.950 . S
H273 C249 0.949 . S
H274 C251 0.950 . S
H275 C253 0.950 . S
C276 C277 1.349 . S
C276 C278 1.327 . S
C276 H301 0.950 . S
C277 C276 1.349 . S
C277 C293 1.349 . S
C278 C276 1.327 . S
C278 C297 1.429 . S
C278 H302 0.950 . S
C279 C296 1.574 . S
C279 C298 1.368 . S
C279 H303 0.949 . S
H280 C284 0.949 . S
C281 C282 1.349 . S
C281 C283 1.327 . S
C281 H304 0.950 . S
C282 C281 1.349 . S
C282 C294 1.349 . S
C283 C281 1.327 . S
C283 C299 1.429 . S
C283 H305 0.950 . S
C284 H280 0.949 . S
C284 C292 1.574 . S
C284 C300 1.368 . S
H285 C293 0.950 . S
H286 C291 0.950 . S
H287 C292 0.949 . S
H288 C294 0.950 . S
H289 C295 0.950 . S
H290 C296 0.949 . S
C291 H286 0.950 . S
C291 C293 1.327 . S
C291 C297 1.429 . S
C292 C284 1.574 . S
C292 H287 0.949 . S
C292 C298 1.368 . S
C293 C277 1.349 . S
C293 H285 0.950 . S
C293 C291 1.327 . S
C294 C282 1.349 . S
C294 H288 0.950 . S
C294 C295 1.327 . S
C295 H289 0.950 . S
C295 C294 1.327 . S
C295 C299 1.429 . S
C296 C279 1.574 . S
C296 H290 0.949 . S
C296 C300 1.368 . S
C297 C278 1.429 . S
C297 C291 1.429 . S
C297 C298 1.523 . S
C298 C279 1.368 . S
C298 C292 1.368 . S
C298 C297 1.523 . S
C299 C283 1.429 . S
C299 C295 1.429 . S
C299 C300 1.523 . S
C300 C284 1.368 . S
C300 C296 1.368 . S
C300 C299 1.523 . S
H301 C276 0.950 . S
H302 C278 0.950 . S
H303 C279 0.949 . S
H304 C281 0.950 . S
H305 C283 0.950 . S
C306 C307 1.349 . S
C306 C308 1.327 . S
C306 H331 0.950 . S
C307 C306 1.349 . S
C307 C323 1.349 1_554 S
C308 C306 1.327 . S
C308 C327 1.429 . S
C308 H332 0.950 . S
C309 C326 1.574 . S
C309 C328 1.368 1_556 S
C309 H333 0.949 . S
H310 C314 0.949 . S
C311 C312 1.349 . S
C311 C313 1.327 . S
C311 H334 0.950 . S
C312 C311 1.349 . S
C312 C324 1.349 1_556 S
C313 C311 1.327 . S
C313 C329 1.429 . S
C313 H335 0.950 . S
C314 H310 0.949 . S
C314 C322 1.574 . S
C314 C330 1.368 1_554 S
H315 C323 0.950 . S
H316 C321 0.950 . S
H317 C322 0.949 . S
H318 C324 0.950 . S
H319 C325 0.950 . S
H320 C326 0.949 . S
C321 H316 0.950 . S
C321 C323 1.327 . S
C321 C327 1.429 1_556 S
C322 C314 1.574 . S
C322 H317 0.949 . S
C322 C328 1.368 . S
C323 C307 1.349 1_556 S
C323 H315 0.950 . S
C323 C321 1.327 . S
C324 C312 1.349 1_554 S
C324 H318 0.950 . S
C324 C325 1.327 . S
C325 H319 0.950 . S
C325 C324 1.327 . S
C325 C329 1.429 1_554 S
C326 C309 1.574 . S
C326 H320 0.949 . S
C326 C330 1.368 . S
C327 C308 1.429 . S
C327 C321 1.429 1_554 S
C327 C328 1.523 . S
C328 C309 1.368 1_554 S
C328 C322 1.368 . S
C328 C327 1.523 . S
C329 C313 1.429 . S
C329 C325 1.429 1_556 S
C329 C330 1.523 . S
C330 C314 1.368 1_556 S
C330 C326 1.368 . S
C330 C329 1.523 . S
H331 C306 0.950 . S
H332 C308 0.950 . S
H333 C309 0.949 . S
H334 C311 0.950 . S
H335 C313 0.950 . S
C336 C337 1.349 . S
C336 C338 1.327 . S
C336 H361 0.950 . S
C337 C336 1.349 . S
C337 C353 1.349 . S
C338 C336 1.327 . S
C338 C357 1.429 . S
C338 H362 0.950 . S
C339 C356 1.574 . S
C339 C358 1.368 . S
C339 H363 0.949 . S
H340 C344 0.949 . S
C341 C342 1.349 . S
C341 C343 1.327 . S
C341 H364 0.950 . S
C342 C341 1.349 . S
C342 C354 1.349 . S
C343 C341 1.327 . S
C343 C359 1.429 . S
C343 H365 0.950 . S
C344 H340 0.949 . S
C344 C352 1.574 . S
C344 C360 1.368 . S
H345 C353 0.950 . S
H346 C351 0.950 . S
H347 C352 0.949 . S
H348 C354 0.950 . S
H349 C355 0.950 . S
H350 C356 0.949 . S
C351 H346 0.950 . S
C351 C353 1.327 . S
C351 C357 1.429 . S
C352 C344 1.574 . S
C352 H347 0.949 . S
C352 C358 1.368 . S
C353 C337 1.349 . S
C353 H345 0.950 . S
C353 C351 1.327 . S
C354 C342 1.349 . S
C354 H348 0.950 . S
C354 C355 1.327 . S
C355 H349 0.950 . S
C355 C354 1.327 . S
C355 C359 1.429 . S
C356 C339 1.574 . S
C356 H350 0.949 . S
C356 C360 1.368 . S
C357 C338 1.429 . S
C357 C351 1.429 . S
C357 C358 1.523 . S
C358 C339 1.368 . S
C358 C352 1.368 . S
C358 C357 1.523 . S
C359 C343 1.429 . S
C359 C355 1.429 . S
C359 C360 1.523 . S
C360 C344 1.368 . S
C360 C356 1.368 . S
C360 C359 1.523 . S
H361 C336 0.950 . S
H362 C338 0.950 . S
H363 C339 0.949 . S
H364 C341 0.950 . S
H365 C343 0.950 . S
C366 C367 1.349 . S
C366 C368 1.327 . S
C366 H391 0.950 . S
C367 C366 1.349 . S
C367 C383 1.349 . S
C368 C366 1.327 . S
C368 C387 1.429 . S
C368 H392 0.950 . S
C369 C386 1.574 1_655 S
C369 C388 1.368 . S
C369 H393 0.949 . S
H370 C374 0.949 . S
C371 C372 1.349 . S
C371 C373 1.327 . S
C371 H394 0.950 . S
C372 C371 1.349 . S
C372 C384 1.349 . S
C373 C371 1.327 . S
C373 C389 1.429 . S
C373 H395 0.950 . S
C374 H370 0.949 . S
C374 C382 1.574 1_455 S
C374 C390 1.368 . S
H375 C383 0.950 . S
H376 C381 0.950 . S
H377 C382 0.949 . S
H378 C384 0.950 . S
H379 C385 0.950 . S
H380 C386 0.949 . S
C381 H376 0.950 . S
C381 C383 1.327 . S
C381 C387 1.429 . S
C382 C374 1.574 1_655 S
C382 H377 0.949 . S
C382 C388 1.368 . S
C383 C367 1.349 . S
C383 H375 0.950 . S
C383 C381 1.327 . S
C384 C372 1.349 . S
C384 H378 0.950 . S
C384 C385 1.327 . S
C385 H379 0.950 . S
C385 C384 1.327 . S
C385 C389 1.429 . S
C386 C369 1.574 1_455 S
C386 H380 0.949 . S
C386 C390 1.368 . S
C387 C368 1.429 . S
C387 C381 1.429 . S
C387 C388 1.523 . S
C388 C369 1.368 . S
C388 C382 1.368 . S
C388 C387 1.523 . S
C389 C373 1.429 . S
C389 C385 1.429 . S
C389 C390 1.523 . S
C390 C374 1.368 . S
C390 C386 1.368 . S
C390 C389 1.523 . S
H391 C366 0.950 . S
H392 C368 0.950 . S
H393 C369 0.949 . S
H394 C371 0.950 . S
H395 C373 0.950 . S
C396 C397 1.349 1_556 S
C396 C398 1.327 . S
C396 H421 0.950 . S
C397 C396 1.349 1_554 S
C397 C413 1.349 . S
C398 C396 1.327 . S
C398 C417 1.429 1_556 S
C398 H422 0.950 . S
C399 C416 1.574 1_545 S
C399 C418 1.368 . S
C399 H423 0.949 . S
H400 C404 0.949 . S
C401 C402 1.349 1_554 S
C401 C403 1.327 . S
C401 H424 0.950 . S
C402 C401 1.349 1_556 S
C402 C414 1.349 . S
C403 C401 1.327 . S
C403 C419 1.429 1_554 S
C403 H425 0.950 . S
C404 H400 0.949 . S
C404 C412 1.574 1_565 S
C404 C420 1.368 . S
H405 C413 0.950 . S
H406 C411 0.950 . S
H407 C412 0.949 . S
H408 C414 0.950 . S
H409 C415 0.950 . S
H410 C416 0.949 . S
C411 H406 0.950 . S
C411 C413 1.327 . S
C411 C417 1.429 . S
C412 C404 1.574 1_545 S
C412 H407 0.949 . S
C412 C418 1.368 1_556 S
C413 C397 1.349 . S
C413 H405 0.950 . S
C413 C411 1.327 . S
C414 C402 1.349 . S
C414 H408 0.950 . S
C414 C415 1.327 . S
C415 H409 0.950 . S
C415 C414 1.327 . S
C415 C419 1.429 . S
C416 C399 1.574 1_565 S
C416 H410 0.949 . S
C416 C420 1.368 1_554 S
C417 C398 1.429 1_554 S
C417 C411 1.429 . S
C417 C418 1.523 . S
C418 C399 1.368 . S
C418 C412 1.368 1_554 S
C418 C417 1.523 . S
C419 C403 1.429 1_556 S
C419 C415 1.429 . S
C419 C420 1.523 . S
C420 C404 1.368 . S
C420 C416 1.368 1_556 S
C420 C419 1.523 . S
H421 C396 0.950 . S
H422 C398 0.950 . S
H423 C399 0.949 . S
H424 C401 0.950 . S
H425 C403 0.950 . S
C426 C427 1.349 . S
C426 C428 1.327 . S
C426 H451 0.950 . S
C427 C426 1.349 . S
C427 C443 1.349 . S
C428 C426 1.327 . S
C428 C447 1.429 . S
C428 H452 0.950 . S
C429 C446 1.574 . S
C429 C448 1.368 . S
C429 H453 0.949 . S
H430 C434 0.949 . S
C431 C432 1.349 . S
C431 C433 1.327 . S
C431 H454 0.950 . S
C432 C431 1.349 . S
C432 C444 1.349 . S
C433 C431 1.327 . S
C433 C449 1.429 . S
C433 H455 0.950 . S
C434 H430 0.949 . S
C434 C442 1.574 . S
C434 C450 1.368 . S
H435 C443 0.950 . S
H436 C441 0.950 . S
H437 C442 0.949 . S
H438 C444 0.950 . S
H439 C445 0.950 . S
H440 C446 0.949 . S
C441 H436 0.950 . S
C441 C443 1.327 . S
C441 C447 1.429 . S
C442 C434 1.574 . S
C442 H437 0.949 . S
C442 C448 1.368 . S
C443 C427 1.349 . S
C443 H435 0.950 . S
C443 C441 1.327 . S
C444 C432 1.349 . S
C444 H438 0.950 . S
C444 C445 1.327 . S
C445 H439 0.950 . S
C445 C444 1.327 . S
C445 C449 1.429 . S
C446 C429 1.574 . S
C446 H440 0.949 . S
C446 C450 1.368 . S
C447 C428 1.429 . S
C447 C441 1.429 . S
C447 C448 1.523 . S
C448 C429 1.368 . S
C448 C442 1.368 . S
C448 C447 1.523 . S
C449 C433 1.429 . S
C449 C445 1.429 . S
C449 C450 1.523 . S
C450 C434 1.368 . S
C450 C446 1.368 . S
C450 C449 1.523 . S
H451 C426 0.950 . S
H452 C428 0.950 . S
H453 C429 0.949 . S
H454 C431 0.950 . S
H455 C433 0.950 . S
C456 C457 1.349 . S
C456 C458 1.327 . S
C456 H481 0.950 . S
C457 C456 1.349 . S
C457 C473 1.349 . S
C458 C456 1.327 . S
C458 C477 1.429 . S
C458 H482 0.950 . S
C459 C476 1.574 1_455 S
C459 C478 1.368 . S
C459 H483 0.949 . S
H460 C464 0.949 . S
C461 C462 1.349 . S
C461 C463 1.327 . S
C461 H484 0.950 . S
C462 C461 1.349 . S
C462 C474 1.349 . S
C463 C461 1.327 . S
C463 C479 1.429 . S
C463 H485 0.950 . S
C464 H460 0.949 . S
C464 C472 1.574 1_655 S
C464 C480 1.368 . S
H465 C473 0.950 . S
H466 C471 0.950 . S
H467 C472 0.949 . S
H468 C474 0.950 . S
H469 C475 0.950 . S
H470 C476 0.949 . S
C471 H466 0.950 . S
C471 C473 1.327 . S
C471 C477 1.429 . S
C472 C464 1.574 1_455 S
C472 H467 0.949 . S
C472 C478 1.368 . S
C473 C457 1.349 . S
C473 H465 0.950 . S
C473 C471 1.327 . S
C474 C462 1.349 . S
C474 H468 0.950 . S
C474 C475 1.327 . S
C475 H469 0.950 . S
C475 C474 1.327 . S
C475 C479 1.429 . S
C476 C459 1.574 1_655 S
C476 H470 0.949 . S
C476 C480 1.368 . S
C477 C458 1.429 . S
C477 C471 1.429 . S
C477 C478 1.523 . S
C478 C459 1.368 . S
C478 C472 1.368 . S
C478 C477 1.523 . S
C479 C463 1.429 . S
C479 C475 1.429 . S
C479 C480 1.523 . S
C480 C464 1.368 . S
C480 C476 1.368 . S
C480 C479 1.523 . S
H481 C456 0.950 . S
H482 C458 0.950 . S
H483 C459 0.949 . S
H484 C461 0.950 . S
H485 C463 0.950 . S
C486 C487 1.349 1_554 S
C486 C488 1.327 . S
C486 H511 0.950 . S
C487 C486 1.349 1_556 S
C487 C503 1.349 . S
C488 C486 1.327 . S
C488 C507 1.429 1_554 S
C488 H512 0.950 . S
C489 C506 1.574 1_545 S
C489 C508 1.368 . S
C489 H513 0.949 . S
H490 C494 0.949 . S
C491 C492 1.349 1_556 S
C491 C493 1.327 . S
C491 H514 0.950 . S
C492 C491 1.349 1_554 S
C492 C504 1.349 . S
C493 C491 1.327 . S
C493 C509 1.429 1_556 S
C493 H515 0.950 . S
C494 H490 0.949 . S
C494 C502 1.574 1_565 S
C494 C510 1.368 . S
H495 C503 0.950 . S
H496 C501 0.950 . S
H497 C502 0.949 . S
H498 C504 0.950 . S
H499 C505 0.950 . S
H500 C506 0.949 . S
C501 H496 0.950 . S
C501 C503 1.327 . S
C501 C507 1.429 . S
C502 C494 1.574 1_545 S
C502 H497 0.949 . S
C502 C508 1.368 1_554 S
C503 C487 1.349 . S
C503 H495 0.950 . S
C503 C501 1.327 . S
C504 C492 1.349 . S
C504 H498 0.950 . S
C504 C505 1.327 . S
C505 H499 0.950 . S
C505 C504 1.327 . S
C505 C509 1.429 . S
C506 C489 1.574 1_565 S
C506 H500 0.949 . S
C506 C510 1.368 1_556 S
C507 C488 1.429 1_556 S
C507 C501 1.429 . S
C507 C508 1.523 . S
C508 C489 1.368 . S
C508 C502 1.368 1_556 S
C508 C507 1.523 . S
C509 C493 1.429 1_554 S
C509 C505 1.429 . S
C509 C510 1.523 . S
C510 C494 1.368 . S
C510 C506 1.368 1_554 S
C510 C509 1.523 . S
H511 C486 0.950 . S
H512 C488 0.950 . S
H513 C489 0.949 . S
H514 C491 0.950 . S
H515 C493 0.950 . S
C516 C517 1.349 . S
C516 C518 1.327 . S
C516 H541 0.950 . S
C517 C516 1.349 . S
C517 C533 1.349 . S
C518 C516 1.327 . S
C518 C537 1.429 . S
C518 H542 0.950 . S
C519 C536 1.574 1_655 S
C519 C538 1.368 . S
C519 H543 0.949 . S
H520 C524 0.949 . S
C521 C522 1.349 . S
C521 C523 1.327 . S
C521 H544 0.950 . S
C522 C521 1.349 . S
C522 C534 1.349 . S
C523 C521 1.327 . S
C523 C539 1.429 . S
C523 H545 0.950 . S
C524 H520 0.949 . S
C524 C532 1.574 1_455 S
C524 C540 1.368 . S
H525 C533 0.950 . S
H526 C531 0.950 . S
H527 C532 0.949 . S
H528 C534 0.950 . S
H529 C535 0.950 . S
H530 C536 0.949 . S
C531 H526 0.950 . S
C531 C533 1.327 . S
C531 C537 1.429 . S
C532 C524 1.574 1_655 S
C532 H527 0.949 . S
C532 C538 1.368 . S
C533 C517 1.349 . S
C533 H525 0.950 . S
C533 C531 1.327 . S
C534 C522 1.349 . S
C534 H528 0.950 . S
C534 C535 1.327 . S
C535 H529 0.950 . S
C535 C534 1.327 . S
C535 C539 1.429 . S
C536 C519 1.574 1_455 S
C536 H530 0.949 . S
C536 C540 1.368 . S
C537 C518 1.429 . S
C537 C531 1.429 . S
C537 C538 1.523 . S
C538 C519 1.368 . S
C538 C532 1.368 . S
C538 C537 1.523 . S
C539 C523 1.429 . S
C539 C535 1.429 . S
C539 C540 1.523 . S
C540 C524 1.368 . S
C540 C536 1.368 . S
C540 C539 1.523 . S
H541 C516 0.950 . S
H542 C518 0.950 . S
H543 C519 0.949 . S
H544 C521 0.950 . S
H545 C523 0.950 . S
C546 C547 1.349 . S
C546 C548 1.327 . S
C546 H571 0.950 . S
C547 C546 1.349 . S
C547 C563 1.349 . S
C548 C546 1.327 . S
C548 C567 1.429 . S
C548 H572 0.950 . S
C549 C566 1.574 . S
C549 C568 1.368 . S
C549 H573 0.949 . S
H550 C554 0.949 . S
C551 C552 1.349 . S
C551 C553 1.327 . S
C551 H574 0.950 . S
C552 C551 1.349 . S
C552 C564 1.349 . S
C553 C551 1.327 . S
C553 C569 1.429 . S
C553 H575 0.950 . S
C554 H550 0.949 . S
C554 C562 1.574 . S
C554 C570 1.368 . S
H555 C563 0.950 . S
H556 C561 0.950 . S
H557 C562 0.949 . S
H558 C564 0.950 . S
H559 C565 0.950 . S
H560 C566 0.949 . S
C561 H556 0.950 . S
C561 C563 1.327 . S
C561 C567 1.429 . S
C562 C554 1.574 . S
C562 H557 0.949 . S
C562 C568 1.368 1_565 S
C563 C547 1.349 . S
C563 H555 0.950 . S
C563 C561 1.327 . S
C564 C552 1.349 . S
C564 H558 0.950 . S
C564 C565 1.327 . S
C565 H559 0.950 . S
C565 C564 1.327 . S
C565 C569 1.429 . S
C566 C549 1.574 . S
C566 H560 0.949 . S
C566 C570 1.368 1_545 S
C567 C548 1.429 . S
C567 C561 1.429 . S
C567 C568 1.523 . S
C568 C549 1.368 . S
C568 C562 1.368 1_545 S
C568 C567 1.523 . S
C569 C553 1.429 . S
C569 C565 1.429 . S
C569 C570 1.523 . S
C570 C554 1.368 . S
C570 C566 1.368 1_565 S
C570 C569 1.523 . S
H571 C546 0.950 . S
H572 C548 0.950 . S
H573 C549 0.949 . S
H574 C551 0.950 . S
H575 C553 0.950 . S
C576 C577 1.349 . S
C576 C578 1.327 . S
C576 H601 0.950 . S
C577 C576 1.349 . S
C577 C593 1.349 . S
C578 C576 1.327 . S
C578 C597 1.429 . S
C578 H602 0.950 . S
C579 C596 1.574 . S
C579 C598 1.368 . S
C579 H603 0.949 . S
H580 C584 0.949 . S
C581 C582 1.349 . S
C581 C583 1.327 . S
C581 H604 0.950 . S
C582 C581 1.349 . S
C582 C594 1.349 . S
C583 C581 1.327 . S
C583 C599 1.429 . S
C583 H605 0.950 . S
C584 H580 0.949 . S
C584 C592 1.574 . S
C584 C600 1.368 . S
H585 C593 0.950 . S
H586 C591 0.950 . S
H587 C592 0.949 . S
H588 C594 0.950 . S
H589 C595 0.950 . S
H590 C596 0.949 . S
C591 H586 0.950 . S
C591 C593 1.327 . S
C591 C597 1.429 . S
C592 C584 1.574 . S
C592 H587 0.949 . S
C592 C598 1.368 . S
C593 C577 1.349 . S
C593 H585 0.950 . S
C593 C591 1.327 . S
C594 C582 1.349 . S
C594 H588 0.950 . S
C594 C595 1.327 . S
C595 H589 0.950 . S
C595 C594 1.327 . S
C595 C599 1.429 . S
C596 C579 1.574 . S
C596 H590 0.949 . S
C596 C600 1.368 . S
C597 C578 1.429 . S
C597 C591 1.429 . S
C597 C598 1.523 . S
C598 C579 1.368 . S
C598 C592 1.368 . S
C598 C597 1.523 . S
C599 C583 1.429 . S
C599 C595 1.429 . S
C599 C600 1.523 . S
C600 C584 1.368 . S
C600 C596 1.368 . S
C600 C599 1.523 . S
H601 C576 0.950 . S
H602 C578 0.950 . S
H603 C579 0.949 . S
H604 C581 0.950 . S
H605 C583 0.950 . S
C606 C607 1.349 . S
C606 C608 1.327 . S
C606 H631 0.950 . S
C607 C606 1.349 . S
C607 C623 1.349 . S
C608 C606 1.327 . S
C608 C627 1.429 . S
C608 H632 0.950 . S
C609 C626 1.588 . S
C609 C628 1.368 . S
C609 H633 0.949 . S
H610 C614 0.949 . S
C611 C612 1.349 . S
C611 C613 1.327 . S
C611 H634 0.950 . S
C612 C611 1.349 . S
C612 C624 1.349 . S
C613 C611 1.327 . S
C613 C629 1.429 . S
C613 H635 0.950 . S
C614 H610 0.949 . S
C614 C622 1.556 1_655 S
C614 C630 1.368 . S
H615 C623 0.950 . S
H616 C621 0.950 . S
H617 C622 0.936 . S
H618 C624 0.950 . S
H619 C625 0.950 . S
H620 C626 0.957 . S
C621 H616 0.950 . S
C621 C623 1.327 . S
C621 C627 1.429 . S
C622 C614 1.556 1_455 S
C622 H617 0.936 . S
C622 C628 1.401 . S
C623 C607 1.349 . S
C623 H615 0.950 . S
C623 C621 1.327 . S
C624 C612 1.349 . S
C624 H618 0.950 . S
C624 C625 1.327 . S
C625 H619 0.950 . S
C625 C624 1.327 . S
C625 C629 1.429 . S
C626 C609 1.588 . S
C626 H620 0.957 . S
C626 C630 1.343 1_455 S
C627 C608 1.429 . S
C627 C621 1.429 . S
C627 C628 1.523 . S
C628 C609 1.368 . S
C628 C622 1.401 . S
C628 C627 1.523 . S
C629 C613 1.429 . S
C629 C625 1.429 . S
C629 C630 1.523 . S
C630 C614 1.368 . S
C630 C626 1.343 1_655 S
C630 C629 1.523 . S
H631 C606 0.950 . S
H632 C608 0.950 . S
H633 C609 0.949 . S
H634 C611 0.950 . S
H635 C613 0.950 . S
C636 C637 1.349 . S
C636 C638 1.327 . S
C636 H661 0.950 . S
C637 C636 1.349 . S
C637 C653 1.349 . S
C638 C636 1.327 . S
C638 C657 1.429 . S
C638 H662 0.950 . S
C639 C656 1.574 . S
C639 C658 1.368 1_565 S
C639 H663 0.949 . S
H640 C644 0.949 . S
C641 C642 1.349 . S
C641 C643 1.327 . S
C641 H664 0.950 . S
C642 C641 1.349 . S
C642 C654 1.349 . S
C643 C641 1.327 . S
C643 C659 1.429 . S
C643 H665 0.950 . S
C644 H640 0.949 . S
C644 C652 1.574 . S
C644 C660 1.368 1_545 S
H645 C653 0.950 . S
H646 C651 0.950 . S
H647 C652 0.949 . S
H648 C654 0.950 . S
H649 C655 0.950 . S
H650 C656 0.949 . S
C651 H646 0.950 . S
C651 C653 1.327 . S
C651 C657 1.429 . S
C652 C644 1.574 . S
C652 H647 0.949 . S
C652 C658 1.368 . S
C653 C637 1.349 . S
C653 H645 0.950 . S
C653 C651 1.327 . S
C654 C642 1.349 . S
C654 H648 0.950 . S
C654 C655 1.327 . S
C655 H649 0.950 . S
C655 C654 1.327 . S
C655 C659 1.429 . S
C656 C639 1.574 . S
C656 H650 0.949 . S
C656 C660 1.368 . S
C657 C638 1.429 . S
C657 C651 1.429 . S
C657 C658 1.523 . S
C658 C639 1.368 1_545 S
C658 C652 1.368 . S
C658 C657 1.523 . S
C659 C643 1.429 . S
C659 C655 1.429 . S
C659 C660 1.523 . S
C660 C644 1.368 1_565 S
C660 C656 1.368 . S
C660 C659 1.523 . S
H661 C636 0.950 . S
H662 C638 0.950 . S
H663 C639 0.949 . S
H664 C641 0.950 . S
H665 C643 0.950 . S
C666 C667 1.349 . S
C666 C668 1.327 . S
C666 H691 0.950 . S
C667 C666 1.349 . S
C667 C683 1.349 . S
C668 C666 1.327 . S
C668 C687 1.429 . S
C668 H692 0.950 . S
C669 C686 1.574 . S
C669 C688 1.368 . S
C669 H693 0.949 . S
H670 C674 0.949 . S
C671 C672 1.349 . S
C671 C673 1.327 . S
C671 H694 0.950 . S
C672 C671 1.349 . S
C672 C684 1.349 . S
C673 C671 1.327 . S
C673 C689 1.429 . S
C673 H695 0.950 . S
C674 H670 0.949 . S
C674 C682 1.574 . S
C674 C690 1.368 . S
H675 C683 0.950 . S
H676 C681 0.950 . S
H677 C682 0.949 . S
H678 C684 0.950 . S
H679 C685 0.950 . S
H680 C686 0.949 . S
C681 H676 0.950 . S
C681 C683 1.327 . S
C681 C687 1.429 . S
C682 C674 1.574 . S
C682 H677 0.949 . S
C682 C688 1.368 . S
C683 C667 1.349 . S
C683 H675 0.950 . S
C683 C681 1.327 . S
C684 C672 1.349 . S
C684 H678 0.950 . S
C684 C685 1.327 . S
C685 H679 0.950 . S
C685 C684 1.327 . S
C685 C689 1.429 . S
C686 C669 1.574 . S
C686 H680 0.949 . S
C686 C690 1.368 . S
C687 C668 1.429 . S
C687 C681 1.429 . S
C687 C688 1.523 . S
C688 C669 1.368 . S
C688 C682 1.368 . S
C688 C687 1.523 . S
C689 C673 1.429 . S
C689 C685 1.429 . S
C689 C690 1.523 . S
C690 C674 1.368 . S
C690 C686 1.368 . S
C690 C689 1.523 . S
H691 C666 0.950 . S
H692 C668 0.950 . S
H693 C669 0.949 . S
H694 C671 0.950 . S
H695 C673 0.950 . S
C696 C697 1.349 . S
C696 C698 1.327 . S
C696 H721 0.950 . S
C697 C696 1.349 . S
C697 C713 1.349 . S
C698 C696 1.327 . S
C698 C717 1.429 . S
C698 H722 0.950 . S
C699 C716 1.574 . S
C699 C718 1.368 . S
C699 H723 0.949 . S
H700 C704 0.949 . S
C701 C702 1.349 . S
C701 C703 1.327 . S
C701 H724 0.950 . S
C702 C701 1.349 . S
C702 C714 1.349 . S
C703 C701 1.327 . S
C703 C719 1.429 . S
C703 H725 0.950 . S
C704 H700 0.949 . S
C704 C712 1.574 . S
C704 C720 1.368 . S
H705 C713 0.950 . S
H706 C711 0.950 . S
H707 C712 0.949 . S
H708 C714 0.950 . S
H709 C715 0.950 . S
H710 C716 0.949 . S
C711 H706 0.950 . S
C711 C713 1.327 . S
C711 C717 1.429 . S
C712 C704 1.574 . S
C712 H707 0.949 . S
C712 C718 1.368 . S
C713 C697 1.349 . S
C713 H705 0.950 . S
C713 C711 1.327 . S
C714 C702 1.349 . S
C714 H708 0.950 . S
C714 C715 1.327 . S
C715 H709 0.950 . S
C715 C714 1.327 . S
C715 C719 1.429 . S
C716 C699 1.574 . S
C716 H710 0.949 . S
C716 C720 1.368 . S
C717 C698 1.429 . S
C717 C711 1.429 . S
C717 C718 1.523 . S
C718 C699 1.368 . S
C718 C712 1.368 . S
C718 C717 1.523 . S
C719 C703 1.429 . S
C719 C715 1.429 . S
C719 C720 1.523 . S
C720 C704 1.368 . S
C720 C716 1.368 . S
C720 C719 1.523 . S
H721 C696 0.950 . S
H722 C698 0.950 . S
H723 C699 0.949 . S
H724 C701 0.950 . S
H725 C703 0.950 . S
C726 C727 1.349 . S
C726 C728 1.327 . S
C726 H751 0.950 . S
C727 C726 1.349 . S
C727 C743 1.349 . S
C728 C726 1.327 . S
C728 C747 1.429 . S
C728 H752 0.950 . S
C729 C746 1.574 . S
C729 C748 1.368 . S
C729 H753 0.949 . S
H730 C734 0.949 . S
C731 C732 1.349 . S
C731 C733 1.327 . S
C731 H754 0.950 . S
C732 C731 1.349 . S
C732 C744 1.349 . S
C733 C731 1.327 . S
C733 C749 1.429 . S
C733 H755 0.950 . S
C734 H730 0.949 . S
C734 C742 1.574 . S
C734 C750 1.368 . S
H735 C743 0.950 . S
H736 C741 0.950 . S
H737 C742 0.949 . S
H738 C744 0.950 . S
H739 C745 0.950 . S
H740 C746 0.949 . S
C741 H736 0.950 . S
C741 C743 1.327 . S
C741 C747 1.429 . S
C742 C734 1.574 . S
C742 H737 0.949 . S
C742 C748 1.368 . S
C743 C727 1.349 . S
C743 H735 0.950 . S
C743 C741 1.327 . S
C744 C732 1.349 . S
C744 H738 0.950 . S
C744 C745 1.327 . S
C745 H739 0.950 . S
C745 C744 1.327 . S
C745 C749 1.429 . S
C746 C729 1.574 . S
C746 H740 0.949 . S
C746 C750 1.368 . S
C747 C728 1.429 . S
C747 C741 1.429 . S
C747 C748 1.523 . S
C748 C729 1.368 . S
C748 C742 1.368 . S
C748 C747 1.523 . S
C749 C733 1.429 . S
C749 C745 1.429 . S
C749 C750 1.523 . S
C750 C734 1.368 . S
C750 C746 1.368 . S
C750 C749 1.523 . S
H751 C726 0.950 . S
H752 C728 0.950 . S
H753 C729 0.949 . S
H754 C731 0.950 . S
H755 C733 0.950 . S
C756 C757 1.349 . S
C756 C758 1.327 . S
C756 H781 0.950 . S
C757 C756 1.349 . S
C757 C773 1.349 . S
C758 C756 1.327 . S
C758 C777 1.429 . S
C758 H782 0.950 . S
C759 C776 1.574 . S
C759 C778 1.368 . S
C759 H783 0.949 . S
H760 C764 0.949 . S
C761 C762 1.349 . S
C761 C763 1.327 . S
C761 H784 0.950 . S
C762 C761 1.349 . S
C762 C774 1.349 . S
C763 C761 1.327 . S
C763 C779 1.429 . S
C763 H785 0.950 . S
C764 H760 0.949 . S
C764 C772 1.574 . S
C764 C780 1.368 . S
H765 C773 0.950 . S
H766 C771 0.950 . S
H767 C772 0.949 . S
H768 C774 0.950 . S
H769 C775 0.950 . S
H770 C776 0.949 . S
C771 H766 0.950 . S
C771 C773 1.327 . S
C771 C777 1.429 . S
C772 C764 1.574 . S
C772 H767 0.949 . S
C772 C778 1.368 . S
C773 C757 1.349 . S
C773 H765 0.950 . S
C773 C771 1.327 . S
C774 C762 1.349 . S
C774 H768 0.950 . S
C774 C775 1.327 . S
C775 H769 0.950 . S
C775 C774 1.327 . S
C775 C779 1.429 . S
C776 C759 1.574 . S
C776 H770 0.949 . S
C776 C780 1.368 . S
C777 C758 1.429 . S
C777 C771 1.429 . S
C777 C778 1.523 . S
C778 C759 1.368 . S
C778 C772 1.368 . S
C778 C777 1.523 . S
C779 C763 1.429 . S
C779 C775 1.429 . S
C779 C780 1.523 . S
C780 C764 1.368 . S
C780 C776 1.368 . S
C780 C779 1.523 . S
H781 C756 0.950 . S
H782 C758 0.950 . S
H783 C759 0.949 . S
H784 C761 0.950 . S
H785 C763 0.950 . S
C786 C787 1.349 . S
C786 C788 1.327 . S
C786 H811 0.950 . S
C787 C786 1.349 . S
C787 C803 1.349 . S
C788 C786 1.327 . S
C788 C807 1.429 . S
C788 H812 0.950 . S
C789 C806 1.574 . S
C789 C808 1.368 . S
C789 H813 0.949 . S
H790 C794 0.949 . S
C791 C792 1.349 . S
C791 C793 1.327 . S
C791 H814 0.950 . S
C792 C791 1.349 . S
C792 C804 1.349 . S
C793 C791 1.327 . S
C793 C809 1.429 . S
C793 H815 0.950 . S
C794 H790 0.949 . S
C794 C802 1.574 . S
C794 C810 1.368 . S
H795 C803 0.950 . S
H796 C801 0.950 . S
H797 C802 0.949 . S
H798 C804 0.950 . S
H799 C805 0.950 . S
H800 C806 0.949 . S
C801 H796 0.950 . S
C801 C803 1.327 . S
C801 C807 1.429 . S
C802 C794 1.574 . S
C802 H797 0.949 . S
C802 C808 1.368 . S
C803 C787 1.349 . S
C803 H795 0.950 . S
C803 C801 1.327 . S
C804 C792 1.349 . S
C804 H798 0.950 . S
C804 C805 1.327 . S
C805 H799 0.950 . S
C805 C804 1.327 . S
C805 C809 1.429 . S
C806 C789 1.574 . S
C806 H800 0.949 . S
C806 C810 1.368 . S
C807 C788 1.429 . S
C807 C801 1.429 . S
C807 C808 1.523 . S
C808 C789 1.368 . S
C808 C802 1.368 . S
C808 C807 1.523 . S
C809 C793 1.429 . S
C809 C805 1.429 . S
C809 C810 1.523 . S
C810 C794 1.368 . S
C810 C806 1.368 . S
C810 C809 1.523 . S
H811 C786 0.950 . S
H812 C788 0.950 . S
H813 C789 0.949 . S
H814 C791 0.950 . S
H815 C793 0.950 . S
C816 C817 1.349 . S
C816 C818 1.327 . S
C816 H841 0.950 . S
C817 C816 1.349 . S
C817 C833 1.349 . S
C818 C816 1.327 . S
C818 C837 1.429 . S
C818 H842 0.950 . S
C819 C836 1.574 . S
C819 C838 1.368 . S
C819 H843 0.949 . S
H820 C824 0.949 . S
C821 C822 1.349 . S
C821 C823 1.327 . S
C821 H844 0.950 . S
C822 C821 1.349 . S
C822 C834 1.349 . S
C823 C821 1.327 . S
C823 C839 1.429 . S
C823 H845 0.950 . S
C824 H820 0.949 . S
C824 C832 1.574 . S
C824 C840 1.368 . S
H825 C833 0.950 . S
H826 C831 0.950 . S
H827 C832 0.949 . S
H828 C834 0.950 . S
H829 C835 0.950 . S
H830 C836 0.949 . S
C831 H826 0.950 . S
C831 C833 1.327 . S
C831 C837 1.429 . S
C832 C824 1.574 . S
C832 H827 0.949 . S
C832 C838 1.368 . S
C833 C817 1.349 . S
C833 H825 0.950 . S
C833 C831 1.327 . S
C834 C822 1.349 . S
C834 H828 0.950 . S
C834 C835 1.327 . S
C835 H829 0.950 . S
C835 C834 1.327 . S
C835 C839 1.429 . S
C836 C819 1.574 . S
C836 H830 0.949 . S
C836 C840 1.368 . S
C837 C818 1.429 . S
C837 C831 1.429 . S
C837 C838 1.523 . S
C838 C819 1.368 . S
C838 C832 1.368 . S
C838 C837 1.523 . S
C839 C823 1.429 . S
C839 C835 1.429 . S
C839 C840 1.523 . S
C840 C824 1.368 . S
C840 C836 1.368 . S
C840 C839 1.523 . S
H841 C816 0.950 . S
H842 C818 0.950 . S
H843 C819 0.949 . S
H844 C821 0.950 . S
H845 C823 0.950 . S
C846 C847 1.349 . S
C846 C848 1.327 . S
C846 H871 0.950 . S
C847 C846 1.349 . S
C847 C863 1.349 . S
C848 C846 1.327 . S
C848 C867 1.429 . S
C848 H872 0.950 . S
C849 C866 1.574 . S
C849 C868 1.368 . S
C849 H873 0.949 . S
H850 C854 0.949 . S
C851 C852 1.349 . S
C851 C853 1.327 . S
C851 H874 0.950 . S
C852 C851 1.349 . S
C852 C864 1.349 . S
C853 C851 1.327 . S
C853 C869 1.429 . S
C853 H875 0.950 . S
C854 H850 0.949 . S
C854 C862 1.574 . S
C854 C870 1.368 . S
H855 C863 0.950 . S
H856 C861 0.950 . S
H857 C862 0.949 . S
H858 C864 0.950 . S
H859 C865 0.950 . S
H860 C866 0.949 . S
C861 H856 0.950 . S
C861 C863 1.327 . S
C861 C867 1.429 . S
C862 C854 1.574 . S
C862 H857 0.949 . S
C862 C868 1.368 . S
C863 C847 1.349 . S
C863 H855 0.950 . S
C863 C861 1.327 . S
C864 C852 1.349 . S
C864 H858 0.950 . S
C864 C865 1.327 . S
C865 H859 0.950 . S
C865 C864 1.327 . S
C865 C869 1.429 . S
C866 C849 1.574 . S
C866 H860 0.949 . S
C866 C870 1.368 . S
C867 C848 1.429 . S
C867 C861 1.429 . S
C867 C868 1.523 . S
C868 C849 1.368 . S
C868 C862 1.368 . S
C868 C867 1.523 . S
C869 C853 1.429 . S
C869 C865 1.429 . S
C869 C870 1.523 . S
C870 C854 1.368 . S
C870 C866 1.368 . S
C870 C869 1.523 . S
H871 C846 0.950 . S
H872 C848 0.950 . S
H873 C849 0.949 . S
H874 C851 0.950 . S
H875 C853 0.950 . S
C157 C10 1.278 . S
C162 C88 1.280 . S
C187 C23 1.280 . S
C192 C101 1.278 . S
C217 C36 1.253 . S
C222 C114 1.253 . S
C247 C127 1.280 . S
C252 C49 1.278 . S
C277 C62 1.280 . S
C282 C140 1.278 . S
C307 C153 1.253 . S
C312 C75 1.253 . S
C337 C8 0.624 . S
C342 C125 0.624 . S
C367 C21 0.624 . S
C372 C138 0.624 . S
C397 C151 0.614 . S
C402 C34 0.608 . S
C427 C86 0.624 . S
C432 C47 0.624 . S
C457 C60 0.624 . S
C462 C99 0.624 . S
C487 C73 0.614 . S
C492 C112 0.608 . S
C517 C143 1.878 . S
C522 C0 1.873 . S
C547 C13 1.922 . S
C552 C78 1.922 . S
C577 C26 1.878 . S
C582 C91 1.873 . S
C607 C104 1.878 . S
C612 C39 1.873 . S
C637 C117 1.922 . S
C642 C52 1.922 . S
C667 C65 1.878 . S
C672 C130 1.873 . S
C697 C5 0.653 . S
C702 C135 0.653 . S
C727 C148 0.637 . S
C732 C18 0.638 . S
C757 C83 0.637 . S
C762 C31 0.638 . S
C787 C44 0.653 . S
C792 C96 0.653 . S
C817 C109 0.637 . S
C822 C57 0.638 . S
C847 C122 0.637 . S
C852 C70 0.638 . S
