# Generated by pormake.
# Topology utm, (3)-cn, num edge types: 1
# Building blocks:
#     Node 0, Type 0, BuildingBlock: OLANEW_clean_sbu_2, # of connection points: 3
#     Node 1, Type 0, BuildingBlock: OLANEW_clean_sbu_2, # of connection points: 3
#     Node 2, Type 0, BuildingBlock: OLANEW_clean_sbu_2, # of connection points: 3
#     Node 3, Type 0, BuildingBlock: OLANEW_clean_sbu_2, # of connection points: 3
#     Node 4, Type 0, BuildingBlock: OLANEW_clean_sbu_2, # of connection points: 3
#     Node 5, Type 0, BuildingBlock: OLANEW_clean_sbu_2, # of connection points: 3
#     Node 6, Type 0, BuildingBlock: OLANEW_clean_sbu_2, # of connection points: 3
#     Node 7, Type 0, BuildingBlock: OLANEW_clean_sbu_2, # of connection points: 3
#     Node 8, Type 0, BuildingBlock: OLANEW_clean_sbu_2, # of connection points: 3
#     Node 9, Type 0, BuildingBlock: OLANEW_clean_sbu_2, # of connection points: 3
#     Node 10, Type 0, BuildingBlock: OLANEW_clean_sbu_2, # of connection points: 3
#     Node 11, Type 0, BuildingBlock: OLANEW_clean_sbu_2, # of connection points: 3
#     Node 12, Type 0, BuildingBlock: OLANEW_clean_sbu_2, # of connection points: 3
#     Node 13, Type 0, BuildingBlock: OLANEW_clean_sbu_2, # of connection points: 3
#     Node 14, Type 0, BuildingBlock: OLANEW_clean_sbu_2, # of connection points: 3
#     Node 15, Type 0, BuildingBlock: OLANEW_clean_sbu_2, # of connection points: 3
#     Node 16, Type 0, BuildingBlock: OLANEW_clean_sbu_2, # of connection points: 3
#     Node 17, Type 0, BuildingBlock: OLANEW_clean_sbu_2, # of connection points: 3
#     Node 18, Type 0, BuildingBlock: OLANEW_clean_sbu_2, # of connection points: 3
#     Node 19, Type 0, BuildingBlock: OLANEW_clean_sbu_2, # of connection points: 3
#     Node 20, Type 0, BuildingBlock: OLANEW_clean_sbu_2, # of connection points: 3
#     Node 21, Type 0, BuildingBlock: OLANEW_clean_sbu_2, # of connection points: 3
#     Node 22, Type 0, BuildingBlock: OLANEW_clean_sbu_2, # of connection points: 3
#     Node 23, Type 0, BuildingBlock: OLANEW_clean_sbu_2, # of connection points: 3
#     Node 24, Type 0, BuildingBlock: OLANEW_clean_sbu_2, # of connection points: 3
#     Node 25, Type 0, BuildingBlock: OLANEW_clean_sbu_2, # of connection points: 3
#     Node 26, Type 0, BuildingBlock: OLANEW_clean_sbu_2, # of connection points: 3
#     Node 27, Type 0, BuildingBlock: OLANEW_clean_sbu_2, # of connection points: 3
#     Node 28, Type 0, BuildingBlock: OLANEW_clean_sbu_2, # of connection points: 3
#     Node 29, Type 0, BuildingBlock: OLANEW_clean_sbu_2, # of connection points: 3
#     Node 30, Type 0, BuildingBlock: OLANEW_clean_sbu_2, # of connection points: 3
#     Node 31, Type 0, BuildingBlock: OLANEW_clean_sbu_2, # of connection points: 3
#     Edge 32, Type (0, 0), BuildingBlock: XIVTED_clean_linker_0, # of connection points: 2
#     Edge 33, Type (0, 0), BuildingBlock: XIVTED_clean_linker_0, # of connection points: 2
#     Edge 34, Type (0, 0), BuildingBlock: XIVTED_clean_linker_0, # of connection points: 2
#     Edge 35, Type (0, 0), BuildingBlock: XIVTED_clean_linker_0, # of connection points: 2
#     Edge 36, Type (0, 0), BuildingBlock: XIVTED_clean_linker_0, # of connection points: 2
#     Edge 37, Type (0, 0), BuildingBlock: XIVTED_clean_linker_0, # of connection points: 2
#     Edge 38, Type (0, 0), BuildingBlock: XIVTED_clean_linker_0, # of connection points: 2
#     Edge 39, Type (0, 0), BuildingBlock: XIVTED_clean_linker_0, # of connection points: 2
#     Edge 40, Type (0, 0), BuildingBlock: XIVTED_clean_linker_0, # of connection points: 2
#     Edge 41, Type (0, 0), BuildingBlock: XIVTED_clean_linker_0, # of connection points: 2
#     Edge 42, Type (0, 0), BuildingBlock: XIVTED_clean_linker_0, # of connection points: 2
#     Edge 43, Type (0, 0), BuildingBlock: XIVTED_clean_linker_0, # of connection points: 2
#     Edge 44, Type (0, 0), BuildingBlock: XIVTED_clean_linker_0, # of connection points: 2
#     Edge 45, Type (0, 0), BuildingBlock: XIVTED_clean_linker_0, # of connection points: 2
#     Edge 46, Type (0, 0), BuildingBlock: XIVTED_clean_linker_0, # of connection points: 2
#     Edge 47, Type (0, 0), BuildingBlock: XIVTED_clean_linker_0, # of connection points: 2
#     Edge 48, Type (0, 0), BuildingBlock: XIVTED_clean_linker_0, # of connection points: 2
#     Edge 49, Type (0, 0), BuildingBlock: XIVTED_clean_linker_0, # of connection points: 2
#     Edge 50, Type (0, 0), BuildingBlock: XIVTED_clean_linker_0, # of connection points: 2
#     Edge 51, Type (0, 0), BuildingBlock: XIVTED_clean_linker_0, # of connection points: 2
#     Edge 52, Type (0, 0), BuildingBlock: XIVTED_clean_linker_0, # of connection points: 2
#     Edge 53, Type (0, 0), BuildingBlock: XIVTED_clean_linker_0, # of connection points: 2
#     Edge 54, Type (0, 0), BuildingBlock: XIVTED_clean_linker_0, # of connection points: 2
#     Edge 55, Type (0, 0), BuildingBlock: XIVTED_clean_linker_0, # of connection points: 2
#     Edge 56, Type (0, 0), BuildingBlock: XIVTED_clean_linker_0, # of connection points: 2
#     Edge 57, Type (0, 0), BuildingBlock: XIVTED_clean_linker_0, # of connection points: 2
#     Edge 58, Type (0, 0), BuildingBlock: XIVTED_clean_linker_0, # of connection points: 2
#     Edge 59, Type (0, 0), BuildingBlock: XIVTED_clean_linker_0, # of connection points: 2
#     Edge 60, Type (0, 0), BuildingBlock: XIVTED_clean_linker_0, # of connection points: 2
#     Edge 61, Type (0, 0), BuildingBlock: XIVTED_clean_linker_0, # of connection points: 2
#     Edge 62, Type (0, 0), BuildingBlock: XIVTED_clean_linker_0, # of connection points: 2
#     Edge 63, Type (0, 0), BuildingBlock: XIVTED_clean_linker_0, # of connection points: 2
#     Edge 64, Type (0, 0), BuildingBlock: XIVTED_clean_linker_0, # of connection points: 2
#     Edge 65, Type (0, 0), BuildingBlock: XIVTED_clean_linker_0, # of connection points: 2
#     Edge 66, Type (0, 0), BuildingBlock: XIVTED_clean_linker_0, # of connection points: 2
#     Edge 67, Type (0, 0), BuildingBlock: XIVTED_clean_linker_0, # of connection points: 2
#     Edge 68, Type (0, 0), BuildingBlock: XIVTED_clean_linker_0, # of connection points: 2
#     Edge 69, Type (0, 0), BuildingBlock: XIVTED_clean_linker_0, # of connection points: 2
#     Edge 70, Type (0, 0), BuildingBlock: XIVTED_clean_linker_0, # of connection points: 2
#     Edge 71, Type (0, 0), BuildingBlock: XIVTED_clean_linker_0, # of connection points: 2
#     Edge 72, Type (0, 0), BuildingBlock: XIVTED_clean_linker_0, # of connection points: 2
#     Edge 73, Type (0, 0), BuildingBlock: XIVTED_clean_linker_0, # of connection points: 2
#     Edge 74, Type (0, 0), BuildingBlock: XIVTED_clean_linker_0, # of connection points: 2
#     Edge 75, Type (0, 0), BuildingBlock: XIVTED_clean_linker_0, # of connection points: 2
#     Edge 76, Type (0, 0), BuildingBlock: XIVTED_clean_linker_0, # of connection points: 2
#     Edge 77, Type (0, 0), BuildingBlock: XIVTED_clean_linker_0, # of connection points: 2
#     Edge 78, Type (0, 0), BuildingBlock: XIVTED_clean_linker_0, # of connection points: 2
#     Edge 79, Type (0, 0), BuildingBlock: XIVTED_clean_linker_0, # of connection points: 2
# Relax obj value: 0.000
# Max RMSD: 0.047
# Mean RMSD: 0.047
data_MOF--net-utm--node1-OLANEW_clean_sbu_2--edge1-XIVTED_clean_linker_0
_symmetry_space_group_name_H-M    P1
_symmetry_Int_Tables_number       1
_symmetry_cell_setting            triclinic
loop_
_symmetry_equiv_pos_as_xyz
'x, y, z'
_cell_length_a     84.72879
_cell_length_b     84.160745
_cell_length_c     50.058524
_cell_angle_alpha  90.159254
_cell_angle_beta   89.901361
_cell_angle_gamma 89.818013
loop_
_atom_site_label
_atom_site_type_symbol
_atom_site_fract_x
_atom_site_fract_y
_atom_site_fract_z
_atom_type_partial_charge
O0 O 0.19333 0.26448 0.07456 0.0
Cd1 Cd 0.17939 0.26661 0.1172 0.0
O2 O 0.17868 0.28224 0.05378 0.0
Cd3 Cd 0.16229 0.28808 0.08604 0.0
O4 O 0.14269 0.30306 0.09955 0.0
C5 C 0.13367 0.30822 0.08122 0.0
O6 O 0.13638 0.30377 0.05644 0.0
C7 C 0.19011 0.27242 0.05368 0.0
C8 C 0.19917 0.25714 0.15889 0.0
O9 O 0.19044 0.24708 0.14665 0.0
O10 O 0.19843 0.27171 0.15162 0.0
O11 O 0.96497 0.93956 0.34919 0.0
Cd12 Cd 0.9663 0.92012 0.3853 0.0
O13 O 0.94188 0.94843 0.36291 0.0
Cd14 Cd 0.9374 0.92811 0.38879 0.0
O15 O 0.9244 0.9066 0.3991 0.0
C16 C 0.91919 0.89844 0.37961 0.0
O17 O 0.92246 0.90304 0.35516 0.0
C18 C 0.95375 0.94957 0.34745 0.0
C19 C -0.01814 0.93352 0.429 0.0
O20 O 0.96688 0.93497 0.42628 0.0
O21 O -0.01056 0.92554 0.41128 0.0
O22 O 0.27417 0.69428 0.55833 0.0
Cd23 Cd 0.28895 0.6915 0.59991 0.0
O24 O 0.28063 0.67086 0.5418 0.0
Cd25 Cd 0.29812 0.66451 0.57196 0.0
O26 O 0.31849 0.65064 0.58527 0.0
C27 C 0.32767 0.64561 0.56697 0.0
O28 O 0.32463 0.64945 0.54207 0.0
C29 C 0.27291 0.68379 0.54015 0.0
C30 C 0.27078 0.70408 0.64162 0.0
O31 O 0.28049 0.71279 0.62862 0.0
O32 O 0.2699 0.68934 0.63527 0.0
O33 O 0.49359 0.02817 0.82951 0.0
Cd34 Cd 0.49272 0.04515 0.86909 0.0
O35 O 0.51768 0.02016 0.8389 0.0
Cd36 Cd 0.52229 0.03931 0.8673 0.0
O37 O 0.53504 0.06033 0.88096 0.0
C38 C 0.54056 0.06932 0.86285 0.0
O39 O 0.53778 0.06577 0.83772 0.0
C40 C 0.50525 0.01903 0.82483 0.0
C41 C 0.48219 0.02692 0.91205 0.0
O42 O 0.47247 0.03482 0.89764 0.0
O43 O 0.49693 0.02792 0.90651 0.0
O44 O 0.19315 0.71509 0.38164 0.0
Cd45 Cd 0.17432 0.72207 0.34663 0.0
O46 O 0.1879 0.68948 0.3833 0.0
Cd47 Cd 0.16762 0.68971 0.35648 0.0
O48 O 0.14557 0.67848 0.3441 0.0
C49 C 0.13776 0.67165 0.36248 0.0
O50 O 0.14302 0.67243 0.38713 0.0
C51 C 0.19592 0.70136 0.39108 0.0
C52 C 0.19034 0.73364 0.30196 0.0
O53 O 0.18802 0.74239 0.32258 0.0
O54 O 0.18496 0.71943 0.30219 0.0
O55 O 0.50206 0.94818 0.64711 0.0
Cd56 Cd 0.50424 0.93437 0.60432 0.0
O57 O 0.51928 0.93316 0.66832 0.0
Cd58 Cd 0.52512 0.91694 0.63567 0.0
O59 O 0.54014 0.89784 0.62026 0.0
C60 C 0.54591 0.88857 0.63775 0.0
O61 O 0.54203 0.89074 0.66292 0.0
C62 C 0.50967 0.94479 0.66821 0.0
C63 C 0.49214 0.95379 0.56404 0.0
O64 O 0.48328 0.94394 0.57646 0.0
O65 O 0.50678 0.95428 0.57038 0.0
O66 O 0.26891 0.25683 0.88701 0.0
Cd67 Cd 0.28568 0.2558 0.84727 0.0
O68 O 0.26271 0.28186 0.87987 0.0
Cd69 Cd 0.28165 0.28599 0.85115 0.0
O70 O 0.30294 0.29833 0.83798 0.0
C71 C 0.31114 0.30477 0.85627 0.0
O72 O 0.30661 0.3032 0.88124 0.0
C73 C 0.26078 0.26907 0.89292 0.0
C74 C 0.26809 0.24435 0.8042 0.0
O75 O 0.27607 0.2349 0.81904 0.0
O76 O 0.26864 0.25925 0.80947 0.0
O77 O 0.95343 0.02334 0.17337 0.0
Cd78 Cd 0.94975 0.03819 0.13196 0.0
O79 O 0.93731 0.03812 0.19752 0.0
Cd80 Cd 0.93037 0.05445 0.16584 0.0
O81 O 0.91521 0.07259 0.14806 0.0
C82 C 0.90785 0.08158 0.16433 0.0
O83 O 0.9102 0.07972 0.19007 0.0
C84 C 0.94677 0.02641 0.19558 0.0
C85 C 0.95751 0.01883 0.08846 0.0
O86 O 0.968 0.02728 0.10014 0.0
O87 O 0.94328 0.01971 0.09707 0.0
O88 O 0.74215 0.67702 0.90029 0.0
Cd89 Cd 0.7524 0.67119 0.85558 0.0
O90 O 0.76596 0.67733 0.91786 0.0
Cd91 Cd 0.77882 0.66855 0.88295 0.0
O92 O 0.79736 0.65367 0.86545 0.0
C93 C 0.80711 0.64772 0.88195 0.0
O94 O 0.80545 0.65105 0.90747 0.0
C95 C 0.75112 0.67916 0.92032 0.0
C96 C 0.73823 0.6901 0.81653 0.0
O97 O 0.73261 0.67643 0.82245 0.0
O98 O 0.75053 0.69483 0.82908 0.0
O99 O 0.04738 -0.01296 0.66517 0.0
Cd100 Cd 0.05312 0.00165 0.62417 0.0
O101 O 0.04703 0.00841 0.69064 0.0
Cd102 Cd 0.05545 0.02489 0.6602 0.0
O103 O 0.06922 0.04473 0.64453 0.0
C104 C 0.08416 0.04333 0.64436 0.0
O105 O 0.0905 0.02988 0.65228 0.0
C106 C 0.04525 -0.00651 0.68789 0.0
C107 C 0.03765 -0.01241 0.58094 0.0
O108 O 0.05179 0.98357 0.58709 0.0
O109 O 0.0309 -0.00162 0.59504 0.0
O110 O 0.71861 0.29578 0.40247 0.0
Cd111 Cd 0.70767 0.30191 0.35847 0.0
O112 O 0.69504 0.29432 0.42089 0.0
Cd113 Cd 0.68167 0.303 0.38663 0.0
O114 O 0.66311 0.31734 0.36821 0.0
C115 C 0.6529 0.32319 0.38412 0.0
O116 O 0.65409 0.32007 0.40975 0.0
C117 C 0.70996 0.29302 0.42272 0.0
C118 C 0.72113 0.28299 0.31849 0.0
O119 O 0.72693 0.29661 0.32436 0.0
O120 O 0.70896 0.27834 0.3315 0.0
O121 O 0.43744 0.95577 0.14307 0.0
Cd122 Cd 0.4325 0.93938 0.10367 0.0
O123 O 0.43526 0.93691 0.17322 0.0
Cd124 Cd 0.42653 0.91921 0.145 0.0
O125 O 0.4093 0.90205 0.13027 0.0
C126 C 0.396 0.90733 0.12256 0.0
O127 O 0.39359 0.92276 0.12242 0.0
C128 C 0.4382 0.95127 0.16725 0.0
C129 C 0.44238 0.95648 0.05898 0.0
O130 O 0.42808 0.95733 0.06729 0.0
O131 O 0.45189 0.94722 0.07138 0.0
O132 O 0.74416 0.27562 0.62637 0.0
Cd133 Cd 0.7507 0.28043 0.67322 0.0
O134 O 0.76462 0.28982 0.61489 0.0
Cd135 Cd 0.78083 0.304 0.59052 0.0
O136 O 0.80032 0.31915 0.57753 0.0
C137 C 0.79789 0.33357 0.57122 0.0
O138 O 0.78337 0.3391 0.5715 0.0
C139 C 0.75243 0.28198 0.6081 0.0
C140 C 0.73183 0.26372 0.7091 0.0
O141 O 0.72657 0.27608 0.69715 0.0
O142 O 0.74594 0.2591 0.70393 0.0
O143 O 0.44118 0.02681 0.33904 0.0
Cd144 Cd 0.43772 0.04334 0.37876 0.0
O145 O 0.43811 0.04555 0.30884 0.0
Cd146 Cd 0.43067 0.06406 0.33681 0.0
O147 O 0.41479 0.08349 0.34809 0.0
C148 C 0.40789 0.09054 0.32892 0.0
O149 O 0.41109 0.08609 0.30432 0.0
C150 C 0.44112 0.03117 0.31475 0.0
C151 C 0.44919 0.02625 0.42238 0.0
O152 O 0.43468 0.02531 0.41541 0.0
O153 O 0.45818 0.0356 0.40917 0.0
O154 O 0.72065 0.69353 0.12658 0.0
Cd155 Cd 0.71502 0.68762 0.17341 0.0
O156 O 0.70013 0.67933 0.11543 0.0
Cd157 Cd 0.68361 0.66543 0.09116 0.0
O158 O 0.66403 0.65035 0.07834 0.0
C159 C 0.66643 0.63599 0.0715 0.0
O160 O 0.68097 0.6305 0.07115 0.0
C161 C 0.7121 0.68744 0.10843 0.0
C162 C 0.73301 0.70498 0.2098 0.0
O163 O 0.73899 0.6932 0.19704 0.0
O164 O 0.71861 0.70874 0.20514 0.0
O165 O 0.0051 0.93377 0.86289 0.0
Cd166 Cd -0.00299 0.92026 0.90381 0.0
O167 O 0.02096 0.91413 0.85223 0.0
Cd168 Cd 0.03976 0.9016 0.83049 0.0
O169 O 0.05916 0.88605 0.81786 0.0
C170 C 0.07262 0.8917 0.81199 0.0
O171 O 0.07465 0.90717 0.81273 0.0
C172 C 0.01515 0.92772 0.84692 0.0
C173 C -0.01142 0.94209 0.94349 0.0
O174 O 0.00291 0.93744 0.94071 0.0
O175 O 0.9782 0.93636 0.92756 0.0
O176 O 0.69647 0.77405 0.59239 0.0
Cd177 Cd 0.6774 0.77405 0.6291 0.0
O178 O 0.68486 0.79307 0.56941 0.0
Cd179 Cd 0.66467 0.79665 0.59589 0.0
O180 O 0.64274 0.80829 0.60824 0.0
C181 C 0.63482 0.81501 0.58988 0.0
O182 O 0.63998 0.81413 0.56516 0.0
C183 C 0.69609 0.78314 0.57215 0.0
C184 C 0.68906 0.75595 0.67149 0.0
O185 O 0.68025 0.7497 0.65355 0.0
O186 O 0.69219 0.77079 0.66958 0.0
O187 O 0.44635 0.43705 0.80768 0.0
Cd188 Cd 0.44378 0.42295 0.85003 0.0
O189 O 0.42801 0.42375 0.78594 0.0
Cd190 Cd 0.42131 0.40726 0.81754 0.0
O191 O 0.40583 0.38835 0.83186 0.0
C192 C 0.39897 0.38027 0.81381 0.0
O193 O 0.40199 0.3835 0.78865 0.0
C194 C 0.43839 0.43463 0.78656 0.0
C195 C 0.45923 0.44032 0.88975 0.0
O196 O 0.4665 0.42955 0.87633 0.0
O197 O 0.44458 0.44266 0.88474 0.0
O198 O 0.76026 0.19537 0.09444 0.0
Cd199 Cd 0.77901 0.19575 0.13149 0.0
O200 O 0.76941 0.17309 0.07711 0.0
Cd201 Cd 0.78899 0.16997 0.10489 0.0
O202 O 0.81043 0.15915 0.12087 0.0
C203 C 0.81947 0.15223 0.10416 0.0
O204 O 0.81565 0.15243 0.07873 0.0
C205 C 0.75955 0.1845 0.07678 0.0
C206 C 0.76725 0.21421 0.17356 0.0
O207 O 0.77611 0.2203 0.15555 0.0
O208 O 0.76407 0.19936 0.17182 0.0
O209 O 0.00817 0.53652 0.30471 0.0
Cd210 Cd 0.0073 0.55289 0.34503 0.0
O211 O 0.0323 0.54342 0.29328 0.0
Cd212 Cd 0.03559 0.56218 0.32295 0.0
O213 O 0.04839 0.583 0.33746 0.0
C214 C 0.05377 0.59231 0.3197 0.0
O215 O 0.05075 0.58923 0.29447 0.0
C216 C 0.02004 0.53509 0.28931 0.0
C217 C -0.00726 0.53549 0.38558 0.0
O218 O -0.0153 0.54468 0.37038 0.0
O219 O 0.0077 0.53479 0.38198 0.0
O220 O 0.66734 0.20004 0.93171 0.0
Cd221 Cd 0.64838 0.20377 0.89558 0.0
O222 O 0.67078 0.17436 0.92561 0.0
Cd223 Cd 0.65059 0.17156 0.89899 0.0
O224 O 0.62945 0.15882 0.88629 0.0
C225 C 0.62167 0.15197 0.90467 0.0
O226 O 0.62642 0.15353 0.92951 0.0
C227 C 0.6745 0.18721 0.9374 0.0
C228 C 0.66462 0.21609 0.85181 0.0
O229 O 0.66053 0.22496 0.87148 0.0
O230 O 0.66071 0.2014 0.85235 0.0
O231 O 0.00994 0.44991 0.12995 0.0
Cd232 Cd 0.00932 0.43155 0.09207 0.0
O233 O 0.03535 0.44657 0.13735 0.0
Cd234 Cd 0.03881 0.42629 0.11068 0.0
O235 O 0.05101 0.40422 0.10008 0.0
C236 C 0.05757 0.39685 0.11926 0.0
O237 O 0.05617 0.40262 0.14357 0.0
C238 C 0.0224 0.45361 0.14259 0.0
C239 C -0.00578 0.44624 0.04908 0.0
O240 O -0.01354 0.43779 0.0658 0.0
O241 O 0.00915 0.44753 0.05243 0.0
O242 O 0.79267 0.77057 0.43469 0.0
Cd243 Cd 0.81248 0.76668 0.39977 0.0
O244 O 0.78558 0.79439 0.42125 0.0
Cd245 Cd 0.80658 0.7975 0.39653 0.0
O246 O 0.82836 0.81006 0.38671 0.0
C247 C 0.83592 0.81587 0.40634 0.0
O248 O 0.8306 0.81338 0.43065 0.0
C249 C 0.78344 0.78246 0.43633 0.0
C250 C 0.79723 0.75395 0.35527 0.0
O251 O 0.801 0.74524 0.37521 0.0
O252 O 0.80101 0.76868 0.35589 0.0
O253 O 0.45892 0.52023 0.63103 0.0
Cd254 Cd 0.46033 0.53899 0.59396 0.0
O255 O 0.43435 0.51399 0.6216 0.0
Cd256 Cd 0.43032 0.53417 0.59514 0.0
O257 O 0.41703 0.55543 0.58399 0.0
C258 C 0.40987 0.56254 0.60292 0.0
O259 O 0.41138 0.55706 0.62734 0.0
C260 C 0.44684 0.51164 0.63509 0.0
C261 C 0.47384 0.52387 0.54971 0.0
O262 O 0.48237 0.53155 0.56644 0.0
O263 O 0.45889 0.52356 0.55367 0.0
O264 O 0.27136 0.20918 0.3894 0.0
Cd265 Cd 0.28876 0.2116 0.35066 0.0
O266 O 0.26645 0.1841 0.38024 0.0
Cd267 Cd 0.28633 0.18125 0.35282 0.0
O268 O 0.3086 0.16992 0.34146 0.0
C269 C 0.31716 0.16498 0.36057 0.0
O270 O 0.31241 0.1675 0.38523 0.0
C271 C 0.26366 0.19654 0.39396 0.0
C272 C 0.27089 0.22112 0.30664 0.0
O273 O 0.27288 0.20637 0.312 0.0
O274 O 0.2776 0.23136 0.3218 0.0
O275 O 0.53078 0.51329 0.10354 0.0
Cd276 Cd 0.53408 0.52589 0.06002 0.0
O277 O 0.53682 0.53435 0.12759 0.0
Cd278 Cd 0.54466 0.54896 0.09411 0.0
O279 O 0.56159 0.56591 0.07767 0.0
C280 C 0.57549 0.56103 0.0726 0.0
O281 O 0.57874 0.54586 0.07561 0.0
C282 C 0.53229 0.51998 0.12619 0.0
C283 C 0.51835 0.50791 0.02141 0.0
O284 O 0.5329 0.5053 0.02686 0.0
O285 O 0.51131 0.51921 0.0339 0.0
O286 O 0.1934 0.76385 0.86222 0.0
Cd287 Cd 0.17867 0.76316 0.82032 0.0
O288 O 0.20405 0.78686 0.85199 0.0
Cd289 Cd 0.18653 0.79244 0.82138 0.0
O290 O 0.16582 0.80592 0.80825 0.0
C291 C 0.16736 0.82075 0.80427 0.0
O292 O 0.18145 0.8271 0.80645 0.0
C293 C 0.20329 0.77479 0.86719 0.0
C294 C 0.19785 0.75013 0.78038 0.0
O295 O 0.19769 0.76513 0.7849 0.0
O296 O 0.18875 0.74133 0.79443 0.0
O297 O 0.92954 0.45938 0.60369 0.0
Cd298 Cd 0.92592 0.44666 0.56024 0.0
O299 O 0.92523 0.43794 0.62768 0.0
Cd300 Cd 0.91732 0.42319 0.59434 0.0
O301 O 0.90061 0.40603 0.57784 0.0
C302 C 0.88688 0.41083 0.57156 0.0
O303 O 0.88364 0.42608 0.57338 0.0
C304 C 0.92894 0.45254 0.62628 0.0
C305 C 0.9404 0.46509 0.52094 0.0
O306 O 0.92584 0.46716 0.52702 0.0
O307 O 0.94804 0.45413 0.53313 0.0
O308 O 0.25663 0.78201 0.05913 0.0
Cd309 Cd 0.26531 0.79154 0.10291 0.0
O310 O 0.27617 0.7935 0.03755 0.0
Cd311 Cd 0.28904 0.80278 0.07192 0.0
O312 O 0.3074 0.81799 0.08865 0.0
C313 C 0.30702 0.83256 0.08206 0.0
O314 O 0.29535 0.83765 0.06706 0.0
C315 C 0.26352 0.78541 0.0373 0.0
C316 C 0.24879 0.77742 0.1449 0.0
O317 O 0.24255 0.78853 0.13099 0.0
O318 O 0.26283 0.7729 0.13901 0.0
O319 O 0.92867 0.50894 0.81847 0.0
Cd320 Cd 0.92464 0.52267 0.86106 0.0
O321 O 0.92458 0.53012 0.79364 0.0
Cd322 Cd 0.91645 0.54561 0.82594 0.0
O323 O 0.90037 0.56356 0.84226 0.0
C324 C 0.8912 0.57017 0.82552 0.0
O325 O 0.89217 0.56597 0.80026 0.0
C326 C 0.92826 0.51551 0.79563 0.0
C327 C 0.93989 0.50639 0.90226 0.0
O328 O 0.92547 0.50346 0.89641 0.0
O329 O 0.94705 0.51711 0.88879 0.0
O330 O 0.1944 0.19352 0.57336 0.0
Cd331 Cd 0.18091 0.18941 0.61595 0.0
O332 O 0.18132 0.17505 0.55141 0.0
Cd333 Cd 0.16627 0.16684 0.58397 0.0
O334 O 0.15042 0.1489 0.60045 0.0
C335 C 0.15564 0.13474 0.60122 0.0
O336 O 0.17025 0.13197 0.5936 0.0
C337 C 0.19178 0.18585 0.55191 0.0
C338 C 0.19951 0.20087 0.65781 0.0
O339 O 0.20052 0.18636 0.65014 0.0
O340 O 0.18957 0.20991 0.6459 0.0
O341 O 0.53409 0.46063 0.31465 0.0
Cd342 Cd 0.53834 0.44649 0.35664 0.0
O343 O 0.53544 0.43919 0.28943 0.0
Cd344 Cd 0.54354 0.42343 0.32119 0.0
O345 O 0.55942 0.4057 0.33838 0.0
C346 C 0.56897 0.39905 0.32219 0.0
O347 O 0.56849 0.40307 0.29685 0.0
C348 C 0.53311 0.45406 0.2918 0.0
C349 C 0.52474 0.46325 0.39916 0.0
O350 O 0.53918 0.46548 0.39248 0.0
O351 O 0.51679 0.45299 0.38589 0.0
H352 H 0.25382 0.20238 0.2725 0.0
H353 H 0.21843 0.27569 0.18983 0.0
H354 H 0.26493 0.25142 0.28936 0.0
H355 H 0.20448 0.22696 0.1773 0.0
H356 H 0.23626 0.26696 0.22526 0.0
H357 H 0.23654 0.21108 0.23629 0.0
C358 C 0.25267 0.21498 0.26854 0.0
C359 C 0.26083 0.22619 0.28403 0.0
C360 C 0.22929 0.25818 0.21477 0.0
C361 C 0.24102 0.23624 0.2426 0.0
C362 C 0.2191 0.26315 0.19453 0.0
C363 C 0.20992 0.25204 0.18058 0.0
C364 C 0.23036 0.24196 0.2211 0.0
C365 C 0.2113 0.23595 0.18754 0.0
C366 C 0.24277 0.21994 0.24788 0.0
C367 C 0.25886 0.24235 0.27797 0.0
N368 N 0.22133 0.23139 0.20728 0.0
N369 N 0.24916 0.24689 0.25776 0.0
H370 H 0.01319 0.93127 0.44194 0.0
H371 H 0.007 -0.00807 0.56514 0.0
H372 H 0.96956 0.95317 0.46757 0.0
H373 H 0.04925 0.96555 0.54555 0.0
H374 H -0.00666 0.97866 0.52839 0.0
H375 H 0.02682 0.94443 0.47882 0.0
C376 C 0.00646 0.93882 0.45535 0.0
C377 C -0.00981 0.94111 0.45165 0.0
C378 C 0.0056 0.97577 0.53213 0.0
C379 C 0.00576 0.95628 0.49388 0.0
C380 C 0.01342 0.98337 0.55308 0.0
C381 C 0.0293 0.97985 0.55845 0.0
C382 C 0.01372 0.9646 0.51631 0.0
C383 C 0.03701 0.96863 0.54217 0.0
C384 C 0.01426 0.94633 0.47642 0.0
C385 C -0.0179 0.95103 0.46967 0.0
N386 N 0.02915 0.96143 0.52183 0.0
N387 N -0.01003 0.95828 0.48994 0.0
H388 H 0.20064 0.71887 0.76557 0.0
H389 H 0.26916 0.73503 0.65853 0.0
H390 H 0.21932 0.76544 0.74863 0.0
H391 H 0.24902 0.68878 0.67283 0.0
H392 H 0.2515 0.74626 0.69234 0.0
H393 H 0.21863 0.70755 0.73233 0.0
C394 C 0.2085 0.72673 0.75483 0.0
C395 C 0.20845 0.74314 0.75989 0.0
C396 C 0.25096 0.73365 0.68812 0.0
C397 C 0.22914 0.73023 0.72183 0.0
C398 C 0.26107 0.72722 0.66884 0.0
C399 C 0.26057 0.71093 0.66279 0.0
C400 C 0.24025 0.72374 0.70152 0.0
C401 C 0.24982 0.7014 0.67681 0.0
C402 C 0.21879 0.72025 0.73585 0.0
C403 C 0.21893 0.75273 0.74537 0.0
N404 N 0.24008 0.70794 0.69548 0.0
N405 N 0.22885 0.74613 0.72704 0.0
H406 H 0.49965 0.00745 0.94443 0.0
H407 H 0.42501 0.97675 0.02788 0.0
H408 H 0.45181 0.0228 0.9295 0.0
H409 H 0.47235 0.95885 0.03879 0.0
H410 H 0.43462 -0.00611 -0.00791 0.0
H411 H 0.48994 -0.01004 0.97966 0.0
C412 C 0.4871 0.00719 0.94861 0.0
C413 C 0.47653 0.01663 0.93399 0.0
C414 C 0.4429 -0.01382 0.00225 0.0
C415 C 0.46532 -0.00343 0.97428 0.0
C416 C 0.43742 0.97637 0.02268 0.0
C417 C 0.44789 0.96634 0.03639 0.0
C418 C 0.45901 -0.01397 -0.0045 0.0
C419 C 0.46385 0.96637 0.02877 0.0
C420 C 0.48156 -0.00284 0.96869 0.0
C421 C 0.4604 0.01574 0.94026 0.0
N422 N 0.46892 0.97609 0.00891 0.0
N423 N 0.45529 0.0059 0.95993 0.0
H424 H 0.21481 0.75455 0.30219 0.0
H425 H 0.21707 0.77242 0.14902 0.0
H426 H 0.18588 0.72662 0.24916 0.0
H427 H 0.26079 0.7663 0.19185 0.0
H428 H 0.20281 0.76091 0.18716 0.0
H429 H 0.2295 0.76453 0.26335 0.0
C430 C 0.21152 0.75059 0.28236 0.0
C431 C 0.19917 0.73975 0.27876 0.0
C432 C 0.21553 0.76207 0.18805 0.0
C433 C 0.21559 0.75134 0.23458 0.0
C434 C 0.22364 0.76867 0.16646 0.0
C435 C 0.24011 0.77024 0.16737 0.0
C436 C 0.22391 0.75756 0.21094 0.0
C437 C 0.24809 0.76518 0.19037 0.0
C438 C 0.21993 0.75621 0.26034 0.0
C439 C 0.1954 0.73492 0.2527 0.0
N440 N 0.23989 0.75926 0.21147 0.0
N441 N 0.20345 0.74092 0.23148 0.0
H442 H 0.4616 0.95581 0.54648 0.0
H443 H 0.47949 0.02515 0.44137 0.0
H444 H 0.50775 0.97621 0.53456 0.0
H445 H 0.43336 0.00469 0.45327 0.0
H446 H 0.48995 0.00774 0.47613 0.0
H447 H 0.45098 0.97386 0.5128 0.0
C448 C 0.46951 0.96407 0.53675 0.0
C449 C 0.4856 0.96447 0.54334 0.0
C450 C 0.47753 0.00708 0.4712 0.0
C451 C 0.47349 -0.01477 0.50478 0.0
C452 C 0.47153 0.01705 0.45138 0.0
C453 C 0.45552 0.01637 0.44436 0.0
C454 C 0.46745 -0.00368 0.48411 0.0
C455 C 0.44578 0.00562 0.45801 0.0
C456 C 0.46343 0.9744 0.51754 0.0
C457 C 0.49528 0.97546 0.5301 0.0
N458 N 0.45191 -0.004 0.47717 0.0
N459 N 0.48908 -0.01461 0.51147 0.0
H460 H 0.24857 0.26112 0.77094 0.0
H461 H 0.2209 0.18448 0.68821 0.0
H462 H 0.26517 0.21356 0.787 0.0
H463 H 0.20133 0.23138 0.67678 0.0
H464 H 0.23782 0.19504 0.72349 0.0
H465 H 0.23191 0.25061 0.73525 0.0
C466 C 0.24875 0.24847 0.76692 0.0
C467 C 0.25828 0.23821 0.78202 0.0
C468 C 0.22982 0.20303 0.71329 0.0
C469 C 0.2392 0.22608 0.74117 0.0
C470 C 0.22014 0.197 0.69313 0.0
C471 C 0.20966 0.20705 0.67951 0.0
C472 C 0.22906 0.21925 0.71986 0.0
C473 C 0.20921 0.22318 0.68676 0.0
C474 C 0.23921 0.24247 0.74656 0.0
C475 C 0.25801 0.22192 0.77591 0.0
N476 N 0.21878 0.22878 0.7064 0.0
N477 N 0.24863 0.21636 0.75597 0.0
H478 H 0.00812 0.9583 0.9774 0.0
H479 H 0.93779 0.00089 0.05731 0.0
H480 H 0.95895 0.95241 0.95735 0.0
H481 H -0.01301 0.01213 0.06885 0.0
H482 H 0.94525 0.9825 0.02152 0.0
H483 H 0.00057 0.97739 0.01202 0.0
C484 C -0.00427 0.96101 0.98027 0.0
C485 C -0.01585 0.95372 0.96446 0.0
C486 C 0.95441 -0.01097 0.03182 0.0
C487 C 0.97541 0.97558 0.00413 0.0
C488 C 0.95016 -0.00047 0.05227 0.0
C489 C 0.96178 0.00806 0.06613 0.0
C490 C 0.97041 -0.01305 0.02526 0.0
C491 C 0.97762 0.00582 0.05871 0.0
C492 C -0.00857 0.97195 2e-05 0.0
C493 C 0.96828 0.95774 0.96906 0.0
N494 N -0.01853 -0.00456 0.03887 0.0
N495 N 0.96437 0.96836 -0.01148 0.0
H496 H 0.683 0.72476 0.68317 0.0
H497 H 0.74588 0.72051 0.80217 0.0
H498 H 0.7103 0.76501 0.70979 0.0
H499 H 0.71363 0.68248 0.78342 0.0
H500 H 0.7336 0.7367 0.76744 0.0
H501 H 0.69464 0.70881 0.71886 0.0
C502 C 0.69142 0.73026 0.69655 0.0
C503 C 0.69568 0.74625 0.69346 0.0
C504 C 0.72918 0.72483 0.77096 0.0
C505 C 0.70912 0.72802 0.73431 0.0
C506 C 0.73621 0.71556 0.79077 0.0
C507 C 0.73079 0.7001 0.79572 0.0
C508 C 0.71669 0.71858 0.75584 0.0
C509 C 0.7182 0.69434 0.78032 0.0
C510 C 0.69805 0.72114 0.71695 0.0
C511 C 0.70664 0.75274 0.71142 0.0
N512 N 0.71161 0.70356 0.76103 0.0
N513 N 0.71302 0.74359 0.73099 0.0
H514 H 0.74545 0.29042 0.28464 0.0
H515 H 0.7461 0.20543 0.21221 0.0
H516 H 0.71308 0.25265 0.3041 0.0
H517 H 0.7734 0.24546 0.18489 0.0
H518 H 0.73504 0.22205 0.24775 0.0
H519 H 0.75696 0.27363 0.24969 0.0
C520 C 0.74077 0.27859 0.28159 0.0
C521 C 0.72826 0.27295 0.29731 0.0
C522 C 0.74345 0.2272 0.23399 0.0
C523 C 0.74142 0.25364 0.25736 0.0
C524 C 0.74981 0.2177 0.21371 0.0
C525 C 0.76069 0.22406 0.19551 0.0
C526 C 0.74806 0.24316 0.2362 0.0
C527 C 0.76503 0.24006 0.19844 0.0
C528 C 0.74733 0.26902 0.2616 0.0
C529 C 0.72268 0.25752 0.29243 0.0
N530 N 0.75872 0.24905 0.2184 0.0
N531 N 0.72931 0.24841 0.27293 0.0
H532 H 0.66305 0.20862 0.79862 0.0
H533 H 0.7417 0.24957 0.75502 0.0
H534 H 0.68796 0.23804 0.85512 0.0
H535 H 0.69991 0.25923 0.70865 0.0
H536 H 0.72506 0.23744 0.78968 0.0
H537 H 0.67944 0.2197 0.76244 0.0
C538 C 0.67199 0.21735 0.80336 0.0
C539 C 0.67415 0.22254 0.82975 0.0
C540 C 0.71963 0.24212 0.77176 0.0
C541 C 0.69304 0.2347 0.78901 0.0
C542 C 0.72906 0.24894 0.75201 0.0
C543 C 0.7221 0.25543 0.7291 0.0
C544 C 0.70326 0.24135 0.76807 0.0
C545 C 0.70566 0.25443 0.72617 0.0
C546 C 0.68124 0.22364 0.78282 0.0
C547 C 0.68587 0.23387 0.83496 0.0
N548 N 0.69675 0.24737 0.74539 0.0
N549 N 0.69504 0.23944 0.81479 0.0
H550 H 0.79941 0.76147 0.3022 0.0
H551 H 0.72233 0.71804 0.25629 0.0
H552 H 0.77432 0.7315 0.35754 0.0
H553 H 0.76468 0.71108 0.20971 0.0
H554 H 0.73823 0.7305 0.29159 0.0
H555 H 0.78375 0.75009 0.26536 0.0
C556 C 0.79059 0.75255 0.30655 0.0
C557 C 0.78817 0.7473 0.3328 0.0
C558 C 0.74394 0.72634 0.27349 0.0
C559 C 0.77009 0.73478 0.2913 0.0
C560 C 0.73493 0.71934 0.25337 0.0
C561 C 0.74226 0.7135 0.23019 0.0
C562 C 0.76027 0.72795 0.26995 0.0
C563 C 0.75864 0.71536 0.22741 0.0
C564 C 0.78175 0.74608 0.28563 0.0
C565 C 0.77662 0.73573 0.3375 0.0
N566 N 0.76713 0.72257 0.24702 0.0
N567 N 0.76784 0.72999 0.31696 0.0
H568 H 0.52998 0.48312 -0.00832 0.0
H569 H 0.44735 0.46453 0.92059 0.0
H570 H 0.48732 0.50995 0.00638 0.0
H571 H 0.49027 0.43837 0.90468 0.0
H572 H 0.46167 0.48101 0.95262 0.0
H573 H 0.51557 0.46646 0.96004 0.0
C574 C 0.51759 0.48554 -0.01178 0.0
C575 C 0.50985 0.49797 0.00171 0.0
C576 C 0.46796 0.47165 0.94216 0.0
C577 C 0.49325 0.47888 0.96553 0.0
C578 C 0.45978 0.46221 0.92388 0.0
C579 C 0.46762 0.45004 0.9099 0.0
C580 C 0.48412 0.46893 0.94652 0.0
C581 C 0.48374 0.44761 0.91499 0.0
C582 C 0.50935 0.476 0.97016 0.0
C583 C 0.49377 0.50052 -0.00358 0.0
N584 N 0.49145 0.45698 0.93285 0.0
N585 N 0.48601 0.49105 0.97878 0.0
H586 H 0.96139 0.53493 0.39912 0.0
H587 H 0.97146 0.46472 0.50559 0.0
H588 H 0.00622 0.51347 0.41877 0.0
H589 H 0.92727 0.48874 0.49062 0.0
H590 H -0.01572 0.48205 0.4731 0.0
H591 H 0.9486 0.51784 0.43203 0.0
C592 C 0.96857 0.52666 0.41041 0.0
C593 C -0.01508 0.52564 0.40616 0.0
C594 C 0.97178 0.48354 0.47691 0.0
C595 C 0.97032 0.50596 0.44381 0.0
C596 C 0.96443 0.47361 0.49543 0.0
C597 C 0.94825 0.47527 0.50085 0.0
C598 C 0.96289 0.4952 0.46362 0.0
C599 C 0.93977 0.48703 0.48709 0.0
C600 C 0.96125 0.5169 0.4292 0.0
C601 C -0.00641 0.51469 0.42139 0.0
N602 N 0.94718 0.49653 0.46911 0.0
N603 N -0.01381 0.50526 0.43947 0.0
H604 H 0.97082 0.50872 0.91762 0.0
H605 H 0.96293 0.44498 0.03546 0.0
H606 H 0.92764 0.48389 0.93585 0.0
H607 H 0.00701 0.46658 0.01234 0.0
H608 H 0.94968 0.45947 -0.00038 0.0
H609 H -0.01586 0.49385 0.95291 0.0
C610 C 0.96413 0.50015 0.92906 0.0
C611 C 0.94807 0.49756 0.92376 0.0
C612 C 0.96226 0.46101 0.00234 0.0
C613 C 0.96327 0.48047 0.96424 0.0
C614 C 0.96984 0.45274 0.02281 0.0
C615 C -0.01388 0.45456 0.02693 0.0
C616 C 0.97099 0.47126 -0.0141 0.0
C617 C -0.00555 0.46479 0.0099 0.0
C618 C 0.97175 0.49164 0.94919 0.0
C619 C 0.94002 0.48629 0.93922 0.0
N620 N -0.0132 0.47277 -0.0098 0.0
N621 N 0.9477 0.47818 0.95877 0.0
H622 H 0.53883 0.48471 0.43272 0.0
H623 H 0.45923 0.50494 0.5127 0.0
H624 H 0.49399 0.46259 0.41612 0.0
H625 H 0.50496 0.52321 0.53471 0.0
H626 H 0.47154 0.49031 0.4759 0.0
H627 H 0.52645 0.49977 0.46898 0.0
C628 C 0.52638 0.48301 0.43669 0.0
C629 C 0.51744 0.47235 0.42135 0.0
C630 C 0.47889 0.49753 0.48876 0.0
C631 C 0.50317 0.48961 0.46282 0.0
C632 C 0.47185 0.50593 0.50975 0.0
C633 C 0.48107 0.51532 0.52685 0.0
C634 C 0.49526 0.49855 0.48473 0.0
C635 C 0.49739 0.51611 0.52206 0.0
C636 C 0.51931 0.49161 0.45742 0.0
C637 C 0.50135 0.47065 0.42744 0.0
N638 N 0.50395 0.50784 0.50146 0.0
N639 N 0.49473 0.4792 0.44766 0.0
H640 H 0.07385 0.37916 0.15583 0.0
H641 H 0.1131 0.32199 0.04613 0.0
H642 H 0.0638 0.38199 0.07145 0.0
H643 H 0.12546 0.32118 0.12975 0.0
H644 H 0.09344 0.3425 0.0556 0.0
H645 H 0.09121 0.35653 0.14717 0.0
C646 C 0.07522 0.37498 0.13547 0.0
C647 C 0.0674 0.38256 0.11431 0.0
C648 C 0.1004 0.3378 0.07191 0.0
C649 C 0.08733 0.35662 0.10426 0.0
C650 C 0.11163 0.32605 0.06654 0.0
C651 C 0.12103 0.3199 0.08717 0.0
C652 C 0.09851 0.34347 0.09813 0.0
C653 C 0.11853 0.32561 0.11321 0.0
C654 C 0.08516 0.36205 0.13055 0.0
C655 C 0.06962 0.37657 0.08837 0.0
N656 N 0.10756 0.33712 0.11793 0.0
N657 N 0.07943 0.36399 0.08407 0.0
H658 H 0.84946 0.8247 0.35878 0.0
H659 H 0.90894 0.88625 0.42738 0.0
H660 H 0.8538 0.83092 0.44409 0.0
H661 H 0.90521 0.87946 0.34211 0.0
H662 H 0.88998 0.86477 0.434 0.0
H663 H 0.87108 0.84348 0.35233 0.0
C664 C 0.85502 0.82992 0.37616 0.0
C665 C 0.84973 0.82629 0.40201 0.0
C666 C 0.89338 0.86792 0.41384 0.0
C667 C 0.87445 0.84787 0.39477 0.0
C668 C 0.90423 0.88018 0.41005 0.0
C669 C 0.90861 0.88474 0.38414 0.0
C670 C 0.88683 0.86018 0.39157 0.0
C671 C 0.90213 0.87641 0.36245 0.0
C672 C 0.86736 0.84066 0.37247 0.0
C673 C 0.85742 0.83341 0.42379 0.0
N674 N 0.89151 0.86461 0.36664 0.0
N675 N 0.86932 0.84391 0.41966 0.0
H676 H 0.33695 0.63433 0.61595 0.0
H677 H 0.40315 0.57652 0.55475 0.0
H678 H 0.34869 0.63214 0.53206 0.0
H679 H 0.39214 0.57944 0.63887 0.0
H680 H 0.3842 0.59789 0.54631 0.0
H681 H 0.35806 0.61523 0.62506 0.0
C682 C 0.34401 0.62991 0.59946 0.0
C683 C 0.34098 0.63479 0.57318 0.0
C684 C 0.38599 0.59391 0.56664 0.0
C685 C 0.36513 0.61287 0.58345 0.0
C686 C 0.39682 0.58171 0.57147 0.0
C687 C 0.39918 0.57611 0.59754 0.0
C688 C 0.37742 0.60055 0.58802 0.0
C689 C 0.39066 0.58332 0.61842 0.0
C690 C 0.35606 0.61899 0.60467 0.0
C691 C 0.35055 0.62867 0.55262 0.0
N692 N 0.38011 0.59509 0.61319 0.0
N693 N 0.36213 0.61799 0.55818 0.0
H694 H 0.5497 0.07956 0.91257 0.0
H695 H 0.60935 0.14487 0.85536 0.0
H696 H 0.55506 0.08997 0.82865 0.0
H697 H 0.60342 0.13494 0.93935 0.0
H698 H 0.58831 0.12596 0.84531 0.0
H699 H 0.56818 0.10095 0.92295 0.0
C700 C 0.55468 0.0864 0.89633 0.0
C701 C 0.55089 0.08289 0.86969 0.0
C702 C 0.59155 0.12799 0.86595 0.0
C703 C 0.57211 0.10737 0.88142 0.0
C704 C 0.60356 0.1388 0.87171 0.0
C705 C 0.60823 0.14143 0.89823 0.0
C706 C 0.58417 0.11972 0.88687 0.0
C707 C 0.60027 0.13324 0.91859 0.0
C708 C 0.56524 0.09861 0.90227 0.0
C709 C 0.55768 0.09219 0.84948 0.0
N710 N 0.58871 0.1227 0.91247 0.0
N711 N 0.56802 0.10393 0.85575 0.0
H712 H 0.06371 0.60143 0.36961 0.0
H713 H 0.12427 0.66618 0.31347 0.0
H714 H 0.06802 0.61351 0.28616 0.0
H715 H 0.11938 0.65469 0.39708 0.0
H716 H 0.10238 0.64829 0.30339 0.0
H717 H 0.08276 0.62222 0.38043 0.0
C718 C 0.06857 0.60852 0.35358 0.0
C719 C 0.06433 0.60563 0.32692 0.0
C720 C 0.10603 0.64977 0.32397 0.0
C721 C 0.08622 0.62942 0.33914 0.0
C722 C 0.11853 0.65999 0.32974 0.0
C723 C 0.12376 0.66187 0.35614 0.0
C724 C 0.09872 0.6413 0.34474 0.0
C725 C 0.11582 0.65357 0.3764 0.0
C726 C 0.07946 0.62039 0.35976 0.0
C727 C 0.07099 0.61524 0.30699 0.0
N728 N 0.10378 0.64358 0.37026 0.0
N729 N 0.08166 0.62662 0.31349 0.0
H730 H 0.56094 0.86761 0.67077 0.0
H731 H 0.61599 0.83158 0.55536 0.0
H732 H 0.55778 0.8815 0.58799 0.0
H733 H 0.62107 0.82004 0.6389 0.0
H734 H 0.5933 0.8483 0.56642 0.0
H735 H 0.58154 0.84853 0.6589 0.0
C736 C 0.5645 0.8666 0.65005 0.0
C737 C 0.55766 0.87626 0.63037 0.0
C738 C 0.59933 0.84206 0.58233 0.0
C739 C 0.58134 0.85442 0.61664 0.0
C740 C 0.6123 0.83249 0.57603 0.0
C741 C 0.62052 0.82445 0.59626 0.0
C742 C 0.59451 0.84363 0.60906 0.0
C743 C 0.61513 0.82606 0.62267 0.0
C744 C 0.5763 0.8557 0.6433 0.0
C745 C 0.56275 0.87435 0.60384 0.0
N746 N 0.60251 0.83551 0.6283 0.0
N747 N 0.57433 0.8637 0.59778 0.0
H748 H 0.32346 0.31141 0.80679 0.0
H749 H 0.3889 0.37113 0.86363 0.0
H750 H 0.33053 0.32066 0.89079 0.0
H751 H 0.38202 0.36154 0.77969 0.0
H752 H 0.36835 0.35176 0.87413 0.0
H753 H 0.3457 0.32881 0.79656 0.0
C754 C 0.32973 0.31703 0.82309 0.0
C755 C 0.32507 0.31462 0.84968 0.0
C756 C 0.37139 0.35385 0.85341 0.0
C757 C 0.35053 0.33461 0.83812 0.0
C758 C 0.38313 0.36491 0.84741 0.0
C759 C 0.38715 0.36803 0.82073 0.0
C760 C 0.36359 0.34586 0.83259 0.0
C761 C 0.37928 0.35957 0.80055 0.0
C762 C 0.34243 0.32698 0.81724 0.0
C763 C 0.33366 0.32221 0.86998 0.0
N764 N 0.36785 0.34894 0.80689 0.0
N765 N 0.34592 0.3319 0.86378 0.0
H766 H 0.89922 0.08802 0.11262 0.0
H767 H 0.83052 0.14863 0.15529 0.0
H768 H 0.88962 0.10179 0.19421 0.0
H769 H 0.8405 0.13541 0.07358 0.0
H770 H 0.85302 0.13259 0.16974 0.0
H771 H 0.87865 0.10638 0.0977 0.0
C772 C 0.89285 0.09496 0.12739 0.0
C773 C 0.8961 0.09329 0.15473 0.0
C774 C 0.85033 0.13326 0.14864 0.0
C775 C 0.87249 0.1143 0.13779 0.0
C776 C 0.83748 0.14243 0.14037 0.0
C777 C 0.83355 0.14331 0.11319 0.0
C778 C 0.85931 0.12487 0.1296 0.0
C779 C 0.84304 0.13504 0.09475 0.0
C780 C 0.8811 0.10544 0.11886 0.0
C781 C 0.88748 0.10263 0.17295 0.0
N782 N 0.85542 0.12611 0.10331 0.0
N783 N 0.87604 0.11266 0.16416 0.0
H784 H 0.81381 0.63766 0.83091 0.0
H785 H 0.8855 0.58145 0.87616 0.0
H786 H 0.8295 0.63304 0.91254 0.0
H787 H 0.86987 0.58609 0.7945 0.0
H788 H 0.86541 0.60079 0.88976 0.0
H789 H 0.83466 0.61923 0.817 0.0
C790 C 0.82165 0.6328 0.8459 0.0
C791 C 0.81987 0.63689 0.87294 0.0
C792 C 0.8664 0.5976 0.86886 0.0
C793 C 0.84376 0.61576 0.85718 0.0
C794 C 0.87787 0.58655 0.86108 0.0
C795 C 0.87936 0.58211 0.83415 0.0
C796 C 0.85632 0.60425 0.84958 0.0
C797 C 0.86915 0.58913 0.81549 0.0
C798 C 0.83355 0.62227 0.83795 0.0
C799 C 0.8304 0.63023 0.89148 0.0
N800 N 0.85806 0.59982 0.82356 0.0
N801 N 0.84185 0.61999 0.88326 0.0
H802 H 0.07527 0.07397 0.63288 0.0
H803 H 0.16377 0.10355 0.60772 0.0
H804 H 0.1163 0.0437 0.63946 0.0
H805 H 0.12377 0.13538 0.61145 0.0
H806 H 0.14633 0.08135 0.61777 0.0
H807 H 0.09258 0.09643 0.62291 0.0
C808 C 0.0879 0.07202 0.63211 0.0
C809 C 0.09434 0.05692 0.63705 0.0
C810 C 0.14135 0.09319 0.61649 0.0
C811 C 0.1142 0.08258 0.62573 0.0
C812 C 0.15132 0.10589 0.61075 0.0
C813 C 0.14523 0.12137 0.60872 0.0
C814 C 0.12513 0.09592 0.62009 0.0
C815 C 0.12898 0.12366 0.61288 0.0
C816 C 0.09778 0.08486 0.62652 0.0
C817 C 0.1108 0.05512 0.63584 0.0
N818 N 0.11948 0.11106 0.61826 0.0
N819 N 0.12015 0.06778 0.63031 0.0
H820 H 0.57371 0.38818 0.37323 0.0
H821 H 0.6471 0.33271 0.33262 0.0
H822 H 0.5911 0.38313 0.29252 0.0
H823 H 0.62961 0.33767 0.41328 0.0
H824 H 0.62626 0.35067 0.31735 0.0
H825 H 0.59372 0.36919 0.38815 0.0
C826 C 0.58171 0.38306 0.35863 0.0
C827 C 0.58074 0.38729 0.33159 0.0
C828 C 0.62696 0.3478 0.33838 0.0
C829 C 0.6037 0.36555 0.34853 0.0
C830 C 0.63886 0.33754 0.34711 0.0
C831 C 0.64014 0.3337 0.37429 0.0
C832 C 0.61625 0.35429 0.35695 0.0
C833 C 0.62911 0.3403 0.39215 0.0
C834 C 0.59314 0.37221 0.36716 0.0
C835 C 0.59141 0.38025 0.31357 0.0
N836 N 0.61767 0.35029 0.38318 0.0
N837 N 0.60245 0.36977 0.32237 0.0
H838 H 0.36682 0.91476 0.10286 0.0
H839 H 0.3349 0.82533 0.10727 0.0
H840 H 0.39552 0.87482 0.12689 0.0
H841 H 0.30887 0.86454 0.07331 0.0
H842 H 0.35674 0.84341 0.11692 0.0
H843 H 0.34508 0.89661 0.09367 0.0
C844 C 0.36858 0.90216 0.10611 0.0
C845 C 0.38303 0.89631 0.11566 0.0
C846 C 0.34623 0.84805 0.10739 0.0
C847 C 0.3581 0.87544 0.10535 0.0
C848 C 0.33373 0.83775 0.10198 0.0
C849 C 0.32003 0.84342 0.08942 0.0
C850 C 0.345 0.86415 0.10031 0.0
C851 C 0.3192 0.85962 0.08296 0.0
C852 C 0.35614 0.8918 0.10088 0.0
C853 C 0.3846 0.87986 0.1195 0.0
N854 N 0.33151 0.8694 0.08847 0.0
N855 N 0.37227 0.87 0.11442 0.0
H856 H 0.85609 0.41711 0.55871 0.0
H857 H 0.82948 0.32634 0.571 0.0
H858 H 0.88861 0.37826 0.57127 0.0
H859 H 0.79701 0.36538 0.55981 0.0
H860 H 0.85151 0.3448 0.56641 0.0
H861 H 0.83463 0.39801 0.55415 0.0
C862 C 0.85876 0.40455 0.56025 0.0
C863 C 0.87417 0.3993 0.56565 0.0
C864 C 0.83957 0.34931 0.56475 0.0
C865 C 0.84958 0.37734 0.56063 0.0
C866 C 0.82697 0.33877 0.56736 0.0
C867 C 0.81135 0.34433 0.56604 0.0
C868 C 0.83655 0.36557 0.56087 0.0
C869 C 0.80884 0.36056 0.56116 0.0
C870 C 0.84648 0.39364 0.55768 0.0
C871 C 0.87691 0.38286 0.56728 0.0
N872 N 0.8213 0.37061 0.55895 0.0
N873 N 0.86471 0.37248 0.56502 0.0
H874 H 0.39751 0.10212 0.37723 0.0
H875 H 0.32999 0.15645 0.31218 0.0
H876 H 0.39056 0.10709 0.29224 0.0
H877 H 0.33734 0.152 0.39716 0.0
H878 H 0.35306 0.13952 0.30442 0.0
H879 H 0.3764 0.12149 0.38492 0.0
C880 C 0.39161 0.10734 0.36018 0.0
C881 C 0.39577 0.1029 0.33405 0.0
C882 C 0.34968 0.14232 0.32477 0.0
C883 C 0.37154 0.12505 0.34271 0.0
C884 C 0.3365 0.152 0.32921 0.0
C885 C 0.33166 0.15559 0.35537 0.0
C886 C 0.35806 0.13614 0.34663 0.0
C887 C 0.34059 0.1495 0.37665 0.0
C888 C 0.37955 0.1184 0.36458 0.0
C889 C 0.38772 0.1101 0.31273 0.0
N890 N 0.35329 0.14002 0.37182 0.0
N891 N 0.37596 0.12074 0.31754 0.0
H892 H 0.57369 0.59357 0.07021 0.0
H893 H 0.66731 0.60427 0.05907 0.0
H894 H 0.60656 0.55456 0.06194 0.0
H895 H 0.63482 0.64312 0.07245 0.0
H896 H 0.64492 0.58625 0.05468 0.0
H897 H 0.59561 0.61218 0.06555 0.0
C898 C 0.58548 0.58891 0.06713 0.0
C899 C 0.58829 0.57246 0.06673 0.0
C900 C 0.64268 0.59873 0.05839 0.0
C901 C 0.61347 0.59372 0.06153 0.0
C902 C 0.65547 0.60905 0.06088 0.0
C903 C 0.65296 0.62522 0.0664 0.0
C904 C 0.62724 0.6046 0.06148 0.0
C905 C 0.63733 0.63073 0.06839 0.0
C906 C 0.59801 0.59955 0.06453 0.0
C907 C 0.60383 0.56713 0.06259 0.0
N908 N 0.62508 0.62042 0.06612 0.0
N909 N 0.61583 0.57772 0.06035 0.0
H910 H 0.16659 0.85284 0.79568 0.0
H911 H 0.07272 0.85912 0.80996 0.0
H912 H 0.13612 0.81214 0.80413 0.0
H913 H 0.10333 0.89971 0.80145 0.0
H914 H 0.09552 0.84161 0.80405 0.0
H915 H 0.14334 0.87 0.79376 0.0
C916 C 0.15501 0.84748 0.7969 0.0
C917 C 0.15333 0.83102 0.80029 0.0
C918 C 0.09724 0.85435 0.8033 0.0
C919 C 0.1266 0.85066 0.79829 0.0
C920 C 0.08421 0.86437 0.80667 0.0
C921 C 0.08611 0.88094 0.80642 0.0
C922 C 0.11231 0.86091 0.79971 0.0
C923 C 0.1013 0.88702 0.80195 0.0
C924 C 0.14172 0.85731 0.79583 0.0
C925 C 0.138 0.82477 0.80163 0.0
N926 N 0.11381 0.87702 0.79895 0.0
N927 N 0.12524 0.8346 0.80083 0.0
H928 H 0.23826 0.29115 0.90549 0.0
H929 H 0.21416 0.25111 0.04399 0.0
H930 H 0.25749 0.24626 0.93167 0.0
H931 H 0.18843 0.28982 0.00777 0.0
H932 H 0.23073 0.24937 0.00392 0.0
H933 H 0.22046 0.29114 0.94378 0.0
C934 C 0.23871 0.28125 0.91926 0.0
C935 C 0.24943 0.26871 0.91539 0.0
C936 C 0.22139 0.25818 0.00474 0.0
C937 C 0.22909 0.26867 0.95948 0.0
C938 C 0.21195 0.2592 0.02762 0.0
C939 C 0.19991 0.27067 0.02931 0.0
C940 C 0.21886 0.26878 -0.01646 0.0
C941 C 0.19757 0.28081 0.00743 0.0
C942 C 0.22851 0.28124 0.94111 0.0
C943 C 0.24941 0.25617 0.93386 0.0
N944 N 0.20701 0.27968 -0.01443 0.0
N945 N 0.23947 0.25652 0.95523 0.0
H946 H 0.96712 0.00107 0.19995 0.0
H947 H 0.93394 0.9751 0.34258 0.0
H948 H 0.9325 0.02803 0.24458 0.0
H949 H 0.97416 0.95257 0.30512 0.0
H950 H 0.93346 -0.00531 0.30681 0.0
H951 H 0.97012 0.98325 0.23814 0.0
C952 C 0.96021 0.0033 0.2178 0.0
C953 C 0.94947 0.01603 0.21897 0.0
C954 C 0.94246 -0.01447 0.30647 0.0
C955 C 0.95281 -0.00437 0.26269 0.0
C956 C 0.94273 0.97431 0.3269 0.0
C957 C 0.95407 0.96211 0.3268 0.0
C958 C 0.95351 -0.0155 0.28558 0.0
C959 C 0.96521 0.96176 0.30599 0.0
C960 C 0.96195 -0.00687 0.23961 0.0
C961 C 0.94088 0.01836 0.24269 0.0
N962 N 0.96457 0.97271 0.28609 0.0
N963 N 0.94266 0.0082 0.2635 0.0
H964 H 0.21158 0.72434 0.41948 0.0
H965 H 0.26387 0.66235 0.50198 0.0
H966 H 0.20819 0.67345 0.40998 0.0
H967 H 0.25771 0.71133 0.52585 0.0
H968 H 0.24589 0.66681 0.46468 0.0
H969 H 0.23096 0.72033 0.45503 0.0
C970 C 0.21497 0.71233 0.42474 0.0
C971 C 0.2082 0.6992 0.41178 0.0
C972 C 0.24848 0.67658 0.47807 0.0
C973 C 0.23038 0.69457 0.45238 0.0
C974 C 0.25878 0.67407 0.49935 0.0
C975 C 0.26227 0.68648 0.51716 0.0
C976 C 0.2417 0.69165 0.47438 0.0
C977 C 0.2553 0.7014 0.51271 0.0
C978 C 0.22598 0.71006 0.44511 0.0
C979 C 0.21303 0.68392 0.4195 0.0
N980 N 0.24536 0.70358 0.49173 0.0
N981 N 0.22383 0.68203 0.43926 0.0
H982 H 0.52603 0.94246 0.71508 0.0
H983 H 0.48297 0.01635 0.7853 0.0
H984 H 0.48928 0.96977 0.67678 0.0
H985 H 0.52613 -0.00496 0.81402 0.0
H986 H 0.48298 -0.0025 0.74794 0.0
H987 H 0.52398 0.95971 0.75411 0.0
C988 C 0.51746 0.95204 0.7149 0.0
C989 C 0.50788 0.95472 0.6925 0.0
C990 C 0.49241 -0.00305 0.76248 0.0
C991 C 0.50549 0.97456 0.73727 0.0
C992 C 0.49239 0.00767 0.78385 0.0
C993 C 0.50461 0.00733 0.80275 0.0
C994 C 0.50465 -0.01426 0.76016 0.0
C995 C 0.51652 -0.00418 0.79985 0.0
C996 C 0.51633 0.96191 0.73721 0.0
C997 C 0.49697 0.96731 0.69353 0.0
N998 N 0.51624 -0.0145 0.77897 0.0
N999 N 0.49609 0.97679 0.71553 0.0
H1000 H 0.71992 0.67968 0.93586 0.0
H1001 H 0.74154 0.69363 0.0897 0.0
H1002 H 0.76712 0.68717 0.96566 0.0
H1003 H 0.69408 0.68472 0.06254 0.0
H1004 H 0.75047 0.69386 0.04351 0.0
H1005 H 0.70966 0.68376 0.9812 0.0
C1006 C 0.72811 0.68233 0.95184 0.0
C1007 C 0.74443 0.68295 0.94695 0.0
C1008 C 0.73809 0.69181 0.04758 0.0
C1009 C 0.73277 0.68759 -0.0012 0.0
C1010 C 0.73295 0.69173 0.07401 0.0
C1011 C 0.71708 0.68868 0.08013 0.0
C1012 C 0.72729 0.68886 0.02691 0.0
C1013 C 0.70651 0.68644 0.05888 0.0
C1014 C 0.72224 0.68461 0.97772 0.0
C1015 C 0.75447 0.68643 0.96845 0.0
N1016 N 0.71182 0.68646 0.0332 0.0
N1017 N 0.74849 0.68853 -0.00663 0.0
H1018 H 0.0252 0.91649 0.798 0.0
H1019 H 0.03803 0.00371 0.73837 0.0
H1020 H 0.01596 0.95981 0.84163 0.0
H1021 H 0.04257 0.961 0.69094 0.0
H1022 H 0.03112 -0.01244 0.77692 0.0
H1023 H 0.03302 0.9323 0.7592 0.0
C1024 C 0.0251 0.92931 0.7996 0.0
C1025 C 0.02022 0.93685 0.82325 0.0
C1026 C 0.03361 0.98169 0.75809 0.0
C1027 C 0.02873 0.95501 0.77877 0.0
C1028 C 0.03757 -0.00907 0.73602 0.0
C1029 C 0.04088 0.98372 0.71131 0.0
C1030 C 0.03298 0.96508 0.75558 0.0
C1031 C 0.04008 0.96707 0.70957 0.0
C1032 C 0.02937 0.93834 0.77733 0.0
C1033 C 0.01968 0.95351 0.82381 0.0
N1034 N 0.03624 0.95831 0.73142 0.0
N1035 N 0.02392 0.96201 0.80196 0.0
H1036 H 0.74139 0.29276 0.43663 0.0
H1037 H 0.72258 0.27643 0.59083 0.0
H1038 H 0.69479 0.28436 0.46856 0.0
H1039 H 0.76958 0.28543 0.56133 0.0
H1040 H 0.71277 0.27707 0.54522 0.0
H1041 H 0.75245 0.28817 0.48118 0.0
C1042 C 0.7335 0.28982 0.45291 0.0
C1043 C 0.71712 0.28907 0.44886 0.0
C1044 C 0.72524 0.27894 0.54865 0.0
C1045 C 0.72969 0.28384 0.49981 0.0
C1046 C 0.73088 0.27854 0.57475 0.0
C1047 C 0.74689 0.28134 0.58007 0.0
C1048 C 0.73567 0.28214 0.52752 0.0
C1049 C 0.75707 0.28387 0.55834 0.0
C1050 C 0.73982 0.28724 0.47834 0.0
C1051 C 0.70748 0.2852 0.47071 0.0
N1052 N 0.75127 0.28432 0.533 0.0
N1053 N 0.71389 0.28282 0.49519 0.0
H1054 H 0.44547 -0.00098 0.31971 0.0
H1055 H 0.44328 0.98325 0.16207 0.0
H1056 H 0.44241 0.03624 0.26072 0.0
H1057 H 0.44075 0.94604 0.22114 0.0
H1058 H 0.4465 0.00271 0.19787 0.0
H1059 H 0.44727 0.97942 0.28376 0.0
C1060 C 0.44531 0.0031 0.29921 0.0
C1061 C 0.44364 0.01931 0.29325 0.0
C1062 C 0.44535 -0.00973 0.203 0.0
C1063 C 0.44565 -0.0031 0.25198 0.0
C1064 C 0.44353 0.97914 0.18255 0.0
C1065 C 0.44159 0.96298 0.1886 0.0
C1066 C 0.44523 -0.01475 0.22972 0.0
C1067 C 0.44209 0.95837 0.21552 0.0
C1068 C 0.44631 -0.00811 0.27869 0.0
C1069 C 0.44357 0.02388 0.26629 0.0
N1070 N 0.44376 0.96946 0.23509 0.0
N1071 N 0.44446 0.01272 0.24667 0.0
H1072 H 0.721 0.76224 0.5692 0.0
H1073 H 0.75991 0.80459 0.44229 0.0
H1074 H 0.70027 0.80251 0.5289 0.0
H1075 H 0.77699 0.76033 0.47491 0.0
H1076 H 0.73849 0.80449 0.47496 0.0
H1077 H 0.74213 0.76178 0.53585 0.0
C1078 C 0.72086 0.77097 0.55334 0.0
C1079 C 0.70883 0.78244 0.55189 0.0
C1080 C 0.7469 0.79478 0.47494 0.0
C1081 C 0.73301 0.78201 0.51371 0.0
C1082 C 0.75916 0.79484 0.45631 0.0
C1083 C 0.77029 0.78245 0.45584 0.0
C1084 C 0.74578 0.78229 0.4934 0.0
C1085 C 0.76868 0.77012 0.47449 0.0
C1086 C 0.73292 0.77069 0.53429 0.0
C1087 C 0.70928 0.79344 0.53084 0.0
N1088 N 0.75669 0.77038 0.49256 0.0
N1089 N 0.72119 0.79297 0.51267 0.0
H1090 H 0.42174 0.43436 0.73979 0.0
H1091 H 0.46916 0.50647 0.67387 0.0
H1092 H 0.46038 0.45816 0.77916 0.0
H1093 H 0.4248 0.48862 0.6441 0.0
H1094 H 0.46818 0.48679 0.7098 0.0
H1095 H 0.42483 0.45209 0.70175 0.0
C1096 C 0.43094 0.44327 0.74042 0.0
C1097 C 0.44075 0.44482 0.76283 0.0
C1098 C 0.45871 0.48717 0.69532 0.0
C1099 C 0.44434 0.46521 0.71919 0.0
C1100 C 0.45928 0.49835 0.67476 0.0
C1101 C 0.447 0.49926 0.65602 0.0
C1102 C 0.44583 0.47674 0.697 0.0
C1103 C 0.43448 0.48845 0.65818 0.0
C1104 C 0.43267 0.45342 0.71867 0.0
C1105 C 0.45249 0.45658 0.76238 0.0
N1106 N 0.43422 0.47767 0.6783 0.0
N1107 N 0.45394 0.46635 0.74093 0.0
H1108 H 0.75307 0.16194 0.03894 0.0
H1109 H 0.68369 0.21172 0.97001 0.0
H1110 H 0.73786 0.2081 0.06695 0.0
H1111 H 0.69413 0.16267 0.9513 0.0
H1112 H 0.7045 0.2113 0.00379 0.0
H1113 H 0.73256 0.16272 0.00487 0.0
C1114 C 0.74543 0.17226 0.03793 0.0
C1115 C 0.7472 0.18497 0.0559 0.0
C1116 C 0.70222 0.20064 -0.0077 0.0
C1117 C 0.72365 0.18594 0.01679 0.0
C1118 C 0.69036 0.20087 0.97296 0.0
C1119 C 0.68713 0.1872 0.95779 0.0
C1120 C 0.71099 0.18667 -0.0036 0.0
C1121 C 0.69617 0.17348 0.96254 0.0
C1122 C 0.73369 0.17268 0.01847 0.0
C1123 C 0.73692 0.19802 0.05358 0.0
N1124 N 0.70768 0.17358 0.98138 0.0
N1125 N 0.7256 0.19817 0.03435 0.0
H1126 H -0.00506 0.51776 0.27052 0.0
H1127 H 0.04739 0.46772 0.16751 0.0
H1128 H 0.04464 0.52592 0.25735 0.0
H1129 H -0.00356 0.46777 0.16559 0.0
H1130 H 0.04658 0.48784 0.20261 0.0
H1131 H -0.0048 0.49822 0.23416 0.0
C1132 C 0.00589 0.51547 0.25999 0.0
C1133 C 0.0198 0.52349 0.26703 0.0
C1134 C 0.03557 0.4835 0.19447 0.0
C1135 C 0.02017 0.50111 0.22557 0.0
C1136 C 0.03601 0.47196 0.17446 0.0
C1137 C 0.02195 0.46603 0.16358 0.0
C1138 C 0.02095 0.48907 0.20394 0.0
C1139 C 0.00757 0.47203 0.17336 0.0
C1140 C 0.00602 0.50435 0.2392 0.0
C1141 C 0.03363 0.52006 0.25263 0.0
N1142 N 0.00743 0.48318 0.19309 0.0
N1143 N 0.03348 0.50909 0.2327 0.0
H1144 H 0.21414 0.209 0.54399 0.0
H1145 H 0.24191 0.17336 0.40367 0.0
H1146 H 0.19122 0.16967 0.50449 0.0
H1147 H 0.25851 0.21838 0.43395 0.0
H1148 H 0.22348 0.17179 0.44099 0.0
H1149 H 0.23072 0.21269 0.50439 0.0
C1150 C 0.21252 0.2012 0.52698 0.0
C1151 C 0.20131 0.18895 0.52765 0.0
C1152 C 0.23108 0.18207 0.43942 0.0
C1153 C 0.22029 0.19307 0.48239 0.0
C1154 C 0.24164 0.18296 0.41812 0.0
C1155 C 0.25183 0.19599 0.41572 0.0
C1156 C 0.23077 0.19422 0.45871 0.0
C1157 C 0.25088 0.20811 0.43502 0.0
C1158 C 0.22198 0.20333 0.50437 0.0
C1159 C 0.19972 0.17924 0.50496 0.0
N1160 N 0.24061 0.20687 0.45584 0.0
N1161 N 0.20917 0.18144 0.48338 0.0
H1162 H 0.52827 0.44376 0.24053 0.0
H1163 H 0.53316 0.53074 0.17791 0.0
H1164 H 0.53136 0.48654 0.28803 0.0
H1165 H 0.52555 0.48828 0.13113 0.0
H1166 H 0.53101 0.51496 0.2186 0.0
H1167 H 0.52572 0.46 0.20047 0.0
C1168 C 0.5283 0.45658 0.24259 0.0
C1169 C 0.53016 0.46379 0.26771 0.0
C1170 C 0.52969 0.50911 0.19944 0.0
C1171 C 0.52734 0.48249 0.22179 0.0
C1172 C 0.53092 0.51812 0.17617 0.0
C1173 C 0.52966 0.51081 0.15101 0.0
C1174 C 0.52728 0.49264 0.19759 0.0
C1175 C 0.52668 0.49442 0.15005 0.0
C1176 C 0.52683 0.46585 0.21967 0.0
C1177 C 0.53002 0.48046 0.2691 0.0
N1178 N 0.52572 0.48588 0.17299 0.0
N1179 N 0.52878 0.48923 0.24643 0.0
H1180 H 0.20011 0.75534 0.91079 0.0
H1181 H 0.27373 0.79339 -0.0127 0.0
H1182 H 0.22951 0.79239 0.87831 0.0
H1183 H 0.23674 0.7678 0.028 0.0
H1184 H 0.26028 0.78879 0.94502 0.0
H1185 H 0.21599 0.75573 0.9517 0.0
C1186 C 0.20999 0.76344 0.91214 0.0
C1187 C 0.21343 0.77394 0.89118 0.0
C1188 C 0.25515 0.78409 0.96317 0.0
C1189 C 0.23162 0.77437 0.93776 0.0
C1190 C 0.26285 0.78666 -0.01263 0.0
C1191 C 0.25628 0.78111 0.01135 0.0
C1192 C 0.24079 0.77585 0.96282 0.0
C1193 C 0.24218 0.7724 0.01005 0.0
C1194 C 0.21899 0.76369 0.93551 0.0
C1195 C 0.22635 0.78419 0.89404 0.0
N1196 N 0.23485 0.7701 -0.01382 0.0
N1197 N 0.23495 0.78415 0.91689 0.0
H1198 H 0.93264 0.48327 0.79124 0.0
H1199 H 0.93449 0.48449 0.63131 0.0
H1200 H 0.93049 0.52612 0.74412 0.0
H1201 H 0.92957 0.44165 0.67786 0.0
H1202 H 0.93674 0.49976 0.67266 0.0
H1203 H 0.9352 0.46775 0.75009 0.0
C1204 C 0.93285 0.48944 0.77228 0.0
C1205 C 0.93121 0.50603 0.77115 0.0
C1206 C 0.93527 0.48701 0.67382 0.0
C1207 C 0.93411 0.48832 0.72397 0.0
C1208 C 0.93401 0.47826 0.6502 0.0
C1209 C 0.93169 0.46176 0.65108 0.0
C1210 C 0.93423 0.47922 0.69854 0.0
C1211 C 0.93122 0.45436 0.67619 0.0
C1212 C 0.93427 0.48056 0.74879 0.0
C1213 C 0.93159 0.51336 0.74598 0.0
N1214 N 0.93239 0.46315 0.69891 0.0
N1215 N 0.93292 0.50445 0.72342 0.0
loop_
_geom_bond_atom_site_label_1
_geom_bond_atom_site_label_2
_geom_bond_distance
_geom_bond_site_symmetry_2
_ccdc_geom_bond_type
O0 Cd1 2.300 . S
O0 C7 1.275 . S
Cd1 O0 2.300 . S
Cd1 O9 2.381 . S
Cd1 O10 2.378 . S
O2 Cd3 2.385 . S
O2 C7 1.255 . S
Cd3 O2 2.385 . S
Cd3 O4 2.317 . S
O4 Cd3 2.317 . S
O4 C5 1.232 . S
C5 O4 1.232 . S
C5 O6 1.218 . S
O6 C5 1.218 . S
C7 O0 1.275 . S
C7 O2 1.255 . S
C8 O9 1.258 . S
C8 O10 1.256 . S
O9 Cd1 2.381 . S
O9 C8 1.258 . S
O10 Cd1 2.378 . S
O10 C8 1.256 . S
O11 Cd12 2.300 . S
O11 C18 1.275 . S
Cd12 O11 2.300 . S
Cd12 O20 2.381 . S
Cd12 O21 2.378 . S
O13 Cd14 2.385 . S
O13 C18 1.255 . S
Cd14 O13 2.385 . S
Cd14 O15 2.317 . S
O15 Cd14 2.317 . S
O15 C16 1.232 . S
C16 O15 1.232 . S
C16 O17 1.218 . S
O17 C16 1.218 . S
C18 O11 1.275 . S
C18 O13 1.255 . S
C19 O20 1.258 . S
C19 O21 1.256 . S
O20 Cd12 2.381 . S
O20 C19 1.258 . S
O21 Cd12 2.378 . S
O21 C19 1.256 . S
O22 Cd23 2.300 . S
O22 C29 1.275 . S
Cd23 O22 2.300 . S
Cd23 O31 2.381 . S
Cd23 O32 2.378 . S
O24 Cd25 2.385 . S
O24 C29 1.255 . S
Cd25 O24 2.385 . S
Cd25 O26 2.317 . S
O26 Cd25 2.317 . S
O26 C27 1.232 . S
C27 O26 1.232 . S
C27 O28 1.218 . S
O28 C27 1.218 . S
C29 O22 1.275 . S
C29 O24 1.255 . S
C30 O31 1.258 . S
C30 O32 1.256 . S
O31 Cd23 2.381 . S
O31 C30 1.258 . S
O32 Cd23 2.378 . S
O32 C30 1.256 . S
O33 Cd34 2.300 . S
O33 C40 1.275 . S
Cd34 O33 2.300 . S
Cd34 O42 2.381 . S
Cd34 O43 2.378 . S
O35 Cd36 2.385 . S
O35 C40 1.255 . S
Cd36 O35 2.385 . S
Cd36 O37 2.317 . S
O37 Cd36 2.317 . S
O37 C38 1.232 . S
C38 O37 1.232 . S
C38 O39 1.218 . S
O39 C38 1.218 . S
C40 O33 1.275 . S
C40 O35 1.255 . S
C41 O42 1.258 . S
C41 O43 1.256 . S
O42 Cd34 2.381 . S
O42 C41 1.258 . S
O43 Cd34 2.378 . S
O43 C41 1.256 . S
O44 Cd45 2.300 . S
O44 C51 1.275 . S
Cd45 O44 2.300 . S
Cd45 O53 2.381 . S
Cd45 O54 2.378 . S
O46 Cd47 2.385 . S
O46 C51 1.255 . S
Cd47 O46 2.385 . S
Cd47 O48 2.317 . S
O48 Cd47 2.317 . S
O48 C49 1.232 . S
C49 O48 1.232 . S
C49 O50 1.218 . S
O50 C49 1.218 . S
C51 O44 1.275 . S
C51 O46 1.255 . S
C52 O53 1.258 . S
C52 O54 1.256 . S
O53 Cd45 2.381 . S
O53 C52 1.258 . S
O54 Cd45 2.378 . S
O54 C52 1.256 . S
O55 Cd56 2.300 . S
O55 C62 1.275 . S
Cd56 O55 2.300 . S
Cd56 O64 2.381 . S
Cd56 O65 2.378 . S
O57 Cd58 2.385 . S
O57 C62 1.255 . S
Cd58 O57 2.385 . S
Cd58 O59 2.317 . S
O59 Cd58 2.317 . S
O59 C60 1.232 . S
C60 O59 1.232 . S
C60 O61 1.218 . S
O61 C60 1.218 . S
C62 O55 1.275 . S
C62 O57 1.255 . S
C63 O64 1.258 . S
C63 O65 1.256 . S
O64 Cd56 2.381 . S
O64 C63 1.258 . S
O65 Cd56 2.378 . S
O65 C63 1.256 . S
O66 Cd67 2.300 . S
O66 C73 1.275 . S
Cd67 O66 2.300 . S
Cd67 O75 2.381 . S
Cd67 O76 2.378 . S
O68 Cd69 2.385 . S
O68 C73 1.255 . S
Cd69 O68 2.385 . S
Cd69 O70 2.317 . S
O70 Cd69 2.317 . S
O70 C71 1.232 . S
C71 O70 1.232 . S
C71 O72 1.218 . S
O72 C71 1.218 . S
C73 O66 1.275 . S
C73 O68 1.255 . S
C74 O75 1.258 . S
C74 O76 1.256 . S
O75 Cd67 2.381 . S
O75 C74 1.258 . S
O76 Cd67 2.378 . S
O76 C74 1.256 . S
O77 Cd78 2.300 . S
O77 C84 1.275 . S
Cd78 O77 2.300 . S
Cd78 O86 2.381 . S
Cd78 O87 2.378 . S
O79 Cd80 2.385 . S
O79 C84 1.255 . S
Cd80 O79 2.385 . S
Cd80 O81 2.317 . S
O81 Cd80 2.317 . S
O81 C82 1.232 . S
C82 O81 1.232 . S
C82 O83 1.218 . S
O83 C82 1.218 . S
C84 O77 1.275 . S
C84 O79 1.255 . S
C85 O86 1.258 . S
C85 O87 1.256 . S
O86 Cd78 2.381 . S
O86 C85 1.258 . S
O87 Cd78 2.378 . S
O87 C85 1.256 . S
O88 Cd89 2.300 . S
O88 C95 1.275 . S
Cd89 O88 2.300 . S
Cd89 O97 2.381 . S
Cd89 O98 2.378 . S
O90 Cd91 2.385 . S
O90 C95 1.255 . S
Cd91 O90 2.385 . S
Cd91 O92 2.317 . S
O92 Cd91 2.317 . S
O92 C93 1.232 . S
C93 O92 1.232 . S
C93 O94 1.218 . S
O94 C93 1.218 . S
C95 O88 1.275 . S
C95 O90 1.255 . S
C96 O97 1.258 . S
C96 O98 1.256 . S
O97 Cd89 2.381 . S
O97 C96 1.258 . S
O98 Cd89 2.378 . S
O98 C96 1.256 . S
O99 Cd100 2.300 . S
O99 C106 1.275 . S
Cd100 O99 2.300 . S
Cd100 O108 2.381 . S
Cd100 O109 2.378 . S
O101 Cd102 2.385 . S
O101 C106 1.255 . S
Cd102 O101 2.385 . S
Cd102 O103 2.317 . S
O103 Cd102 2.317 . S
O103 C104 1.232 . S
C104 O103 1.232 . S
C104 O105 1.218 . S
O105 C104 1.218 . S
C106 O99 1.275 . S
C106 O101 1.255 . S
C107 O108 1.258 . S
C107 O109 1.256 . S
O108 Cd100 2.381 . S
O108 C107 1.258 . S
O109 Cd100 2.378 . S
O109 C107 1.256 . S
O110 Cd111 2.300 . S
O110 C117 1.275 . S
Cd111 O110 2.300 . S
Cd111 O119 2.381 . S
Cd111 O120 2.378 . S
O112 Cd113 2.385 . S
O112 C117 1.255 . S
Cd113 O112 2.385 . S
Cd113 O114 2.317 . S
O114 Cd113 2.317 . S
O114 C115 1.232 . S
C115 O114 1.232 . S
C115 O116 1.218 . S
O116 C115 1.218 . S
C117 O110 1.275 . S
C117 O112 1.255 . S
C118 O119 1.258 . S
C118 O120 1.256 . S
O119 Cd111 2.381 . S
O119 C118 1.258 . S
O120 Cd111 2.378 . S
O120 C118 1.256 . S
O121 Cd122 2.300 . S
O121 C128 1.275 . S
Cd122 O121 2.300 . S
Cd122 O130 2.381 . S
Cd122 O131 2.378 . S
O123 Cd124 2.385 . S
O123 C128 1.255 . S
Cd124 O123 2.385 . S
Cd124 O125 2.317 . S
O125 Cd124 2.317 . S
O125 C126 1.232 . S
C126 O125 1.232 . S
C126 O127 1.218 . S
O127 C126 1.218 . S
C128 O121 1.275 . S
C128 O123 1.255 . S
C129 O130 1.258 . S
C129 O131 1.256 . S
O130 Cd122 2.381 . S
O130 C129 1.258 . S
O131 Cd122 2.378 . S
O131 C129 1.256 . S
O132 Cd133 2.300 . S
O132 C139 1.275 . S
Cd133 O132 2.300 . S
Cd133 O141 2.381 . S
Cd133 O142 2.378 . S
O134 Cd135 2.385 . S
O134 C139 1.255 . S
Cd135 O134 2.385 . S
Cd135 O136 2.317 . S
O136 Cd135 2.317 . S
O136 C137 1.232 . S
C137 O136 1.232 . S
C137 O138 1.218 . S
O138 C137 1.218 . S
C139 O132 1.275 . S
C139 O134 1.255 . S
C140 O141 1.258 . S
C140 O142 1.256 . S
O141 Cd133 2.381 . S
O141 C140 1.258 . S
O142 Cd133 2.378 . S
O142 C140 1.256 . S
O143 Cd144 2.300 . S
O143 C150 1.275 . S
Cd144 O143 2.300 . S
Cd144 O152 2.381 . S
Cd144 O153 2.378 . S
O145 Cd146 2.385 . S
O145 C150 1.255 . S
Cd146 O145 2.385 . S
Cd146 O147 2.317 . S
O147 Cd146 2.317 . S
O147 C148 1.232 . S
C148 O147 1.232 . S
C148 O149 1.218 . S
O149 C148 1.218 . S
C150 O143 1.275 . S
C150 O145 1.255 . S
C151 O152 1.258 . S
C151 O153 1.256 . S
O152 Cd144 2.381 . S
O152 C151 1.258 . S
O153 Cd144 2.378 . S
O153 C151 1.256 . S
O154 Cd155 2.300 . S
O154 C161 1.275 . S
Cd155 O154 2.300 . S
Cd155 O163 2.381 . S
Cd155 O164 2.378 . S
O156 Cd157 2.385 . S
O156 C161 1.255 . S
Cd157 O156 2.385 . S
Cd157 O158 2.317 . S
O158 Cd157 2.317 . S
O158 C159 1.232 . S
C159 O158 1.232 . S
C159 O160 1.218 . S
O160 C159 1.218 . S
C161 O154 1.275 . S
C161 O156 1.255 . S
C162 O163 1.258 . S
C162 O164 1.256 . S
O163 Cd155 2.381 . S
O163 C162 1.258 . S
O164 Cd155 2.378 . S
O164 C162 1.256 . S
O165 Cd166 2.300 . S
O165 C172 1.275 . S
Cd166 O165 2.300 . S
Cd166 O174 2.381 . S
Cd166 O175 2.378 . S
O167 Cd168 2.385 . S
O167 C172 1.255 . S
Cd168 O167 2.385 . S
Cd168 O169 2.317 . S
O169 Cd168 2.317 . S
O169 C170 1.232 . S
C170 O169 1.232 . S
C170 O171 1.218 . S
O171 C170 1.218 . S
C172 O165 1.275 . S
C172 O167 1.255 . S
C173 O174 1.258 . S
C173 O175 1.256 . S
O174 Cd166 2.381 . S
O174 C173 1.258 . S
O175 Cd166 2.378 . S
O175 C173 1.256 . S
O176 Cd177 2.300 . S
O176 C183 1.275 . S
Cd177 O176 2.300 . S
Cd177 O185 2.381 . S
Cd177 O186 2.378 . S
O178 Cd179 2.385 . S
O178 C183 1.255 . S
Cd179 O178 2.385 . S
Cd179 O180 2.317 . S
O180 Cd179 2.317 . S
O180 C181 1.232 . S
C181 O180 1.232 . S
C181 O182 1.218 . S
O182 C181 1.218 . S
C183 O176 1.275 . S
C183 O178 1.255 . S
C184 O185 1.258 . S
C184 O186 1.256 . S
O185 Cd177 2.381 . S
O185 C184 1.258 . S
O186 Cd177 2.378 . S
O186 C184 1.256 . S
O187 Cd188 2.300 . S
O187 C194 1.275 . S
Cd188 O187 2.300 . S
Cd188 O196 2.381 . S
Cd188 O197 2.378 . S
O189 Cd190 2.385 . S
O189 C194 1.255 . S
Cd190 O189 2.385 . S
Cd190 O191 2.317 . S
O191 Cd190 2.317 . S
O191 C192 1.232 . S
C192 O191 1.232 . S
C192 O193 1.218 . S
O193 C192 1.218 . S
C194 O187 1.275 . S
C194 O189 1.255 . S
C195 O196 1.258 . S
C195 O197 1.256 . S
O196 Cd188 2.381 . S
O196 C195 1.258 . S
O197 Cd188 2.378 . S
O197 C195 1.256 . S
O198 Cd199 2.300 . S
O198 C205 1.275 . S
Cd199 O198 2.300 . S
Cd199 O207 2.381 . S
Cd199 O208 2.378 . S
O200 Cd201 2.385 . S
O200 C205 1.255 . S
Cd201 O200 2.385 . S
Cd201 O202 2.317 . S
O202 Cd201 2.317 . S
O202 C203 1.232 . S
C203 O202 1.232 . S
C203 O204 1.218 . S
O204 C203 1.218 . S
C205 O198 1.275 . S
C205 O200 1.255 . S
C206 O207 1.258 . S
C206 O208 1.256 . S
O207 Cd199 2.381 . S
O207 C206 1.258 . S
O208 Cd199 2.378 . S
O208 C206 1.256 . S
O209 Cd210 2.300 . S
O209 C216 1.275 . S
Cd210 O209 2.300 . S
Cd210 O218 2.381 . S
Cd210 O219 2.378 . S
O211 Cd212 2.385 . S
O211 C216 1.255 . S
Cd212 O211 2.385 . S
Cd212 O213 2.317 . S
O213 Cd212 2.317 . S
O213 C214 1.232 . S
C214 O213 1.232 . S
C214 O215 1.218 . S
O215 C214 1.218 . S
C216 O209 1.275 . S
C216 O211 1.255 . S
C217 O218 1.258 . S
C217 O219 1.256 . S
O218 Cd210 2.381 . S
O218 C217 1.258 . S
O219 Cd210 2.378 . S
O219 C217 1.256 . S
O220 Cd221 2.300 . S
O220 C227 1.275 . S
Cd221 O220 2.300 . S
Cd221 O229 2.381 . S
Cd221 O230 2.378 . S
O222 Cd223 2.385 . S
O222 C227 1.255 . S
Cd223 O222 2.385 . S
Cd223 O224 2.317 . S
O224 Cd223 2.317 . S
O224 C225 1.232 . S
C225 O224 1.232 . S
C225 O226 1.218 . S
O226 C225 1.218 . S
C227 O220 1.275 . S
C227 O222 1.255 . S
C228 O229 1.258 . S
C228 O230 1.256 . S
O229 Cd221 2.381 . S
O229 C228 1.258 . S
O230 Cd221 2.378 . S
O230 C228 1.256 . S
O231 Cd232 2.300 . S
O231 C238 1.275 . S
Cd232 O231 2.300 . S
Cd232 O240 2.381 . S
Cd232 O241 2.378 . S
O233 Cd234 2.385 . S
O233 C238 1.255 . S
Cd234 O233 2.385 . S
Cd234 O235 2.317 . S
O235 Cd234 2.317 . S
O235 C236 1.232 . S
C236 O235 1.232 . S
C236 O237 1.218 . S
O237 C236 1.218 . S
C238 O231 1.275 . S
C238 O233 1.255 . S
C239 O240 1.258 . S
C239 O241 1.256 . S
O240 Cd232 2.381 . S
O240 C239 1.258 . S
O241 Cd232 2.378 . S
O241 C239 1.256 . S
O242 Cd243 2.300 . S
O242 C249 1.275 . S
Cd243 O242 2.300 . S
Cd243 O251 2.381 . S
Cd243 O252 2.378 . S
O244 Cd245 2.385 . S
O244 C249 1.255 . S
Cd245 O244 2.385 . S
Cd245 O246 2.317 . S
O246 Cd245 2.317 . S
O246 C247 1.232 . S
C247 O246 1.232 . S
C247 O248 1.218 . S
O248 C247 1.218 . S
C249 O242 1.275 . S
C249 O244 1.255 . S
C250 O251 1.258 . S
C250 O252 1.256 . S
O251 Cd243 2.381 . S
O251 C250 1.258 . S
O252 Cd243 2.378 . S
O252 C250 1.256 . S
O253 Cd254 2.300 . S
O253 C260 1.275 . S
Cd254 O253 2.300 . S
Cd254 O262 2.381 . S
Cd254 O263 2.378 . S
O255 Cd256 2.385 . S
O255 C260 1.255 . S
Cd256 O255 2.385 . S
Cd256 O257 2.317 . S
O257 Cd256 2.317 . S
O257 C258 1.232 . S
C258 O257 1.232 . S
C258 O259 1.218 . S
O259 C258 1.218 . S
C260 O253 1.275 . S
C260 O255 1.255 . S
C261 O262 1.258 . S
C261 O263 1.256 . S
O262 Cd254 2.381 . S
O262 C261 1.258 . S
O263 Cd254 2.378 . S
O263 C261 1.256 . S
O264 Cd265 2.300 . S
O264 C271 1.275 . S
Cd265 O264 2.300 . S
Cd265 O273 2.381 . S
Cd265 O274 2.378 . S
O266 Cd267 2.385 . S
O266 C271 1.255 . S
Cd267 O266 2.385 . S
Cd267 O268 2.317 . S
O268 Cd267 2.317 . S
O268 C269 1.232 . S
C269 O268 1.232 . S
C269 O270 1.218 . S
O270 C269 1.218 . S
C271 O264 1.275 . S
C271 O266 1.255 . S
C272 O273 1.258 . S
C272 O274 1.256 . S
O273 Cd265 2.381 . S
O273 C272 1.258 . S
O274 Cd265 2.378 . S
O274 C272 1.256 . S
O275 Cd276 2.300 . S
O275 C282 1.275 . S
Cd276 O275 2.300 . S
Cd276 O284 2.381 . S
Cd276 O285 2.378 . S
O277 Cd278 2.385 . S
O277 C282 1.255 . S
Cd278 O277 2.385 . S
Cd278 O279 2.317 . S
O279 Cd278 2.317 . S
O279 C280 1.232 . S
C280 O279 1.232 . S
C280 O281 1.218 . S
O281 C280 1.218 . S
C282 O275 1.275 . S
C282 O277 1.255 . S
C283 O284 1.258 . S
C283 O285 1.256 . S
O284 Cd276 2.381 . S
O284 C283 1.258 . S
O285 Cd276 2.378 . S
O285 C283 1.256 . S
O286 Cd287 2.300 . S
O286 C293 1.275 . S
Cd287 O286 2.300 . S
Cd287 O295 2.381 . S
Cd287 O296 2.378 . S
O288 Cd289 2.385 . S
O288 C293 1.255 . S
Cd289 O288 2.385 . S
Cd289 O290 2.317 . S
O290 Cd289 2.317 . S
O290 C291 1.232 . S
C291 O290 1.232 . S
C291 O292 1.218 . S
O292 C291 1.218 . S
C293 O286 1.275 . S
C293 O288 1.255 . S
C294 O295 1.258 . S
C294 O296 1.256 . S
O295 Cd287 2.381 . S
O295 C294 1.258 . S
O296 Cd287 2.378 . S
O296 C294 1.256 . S
O297 Cd298 2.300 . S
O297 C304 1.275 . S
Cd298 O297 2.300 . S
Cd298 O306 2.381 . S
Cd298 O307 2.378 . S
O299 Cd300 2.385 . S
O299 C304 1.255 . S
Cd300 O299 2.385 . S
Cd300 O301 2.317 . S
O301 Cd300 2.317 . S
O301 C302 1.232 . S
C302 O301 1.232 . S
C302 O303 1.218 . S
O303 C302 1.218 . S
C304 O297 1.275 . S
C304 O299 1.255 . S
C305 O306 1.258 . S
C305 O307 1.256 . S
O306 Cd298 2.381 . S
O306 C305 1.258 . S
O307 Cd298 2.378 . S
O307 C305 1.256 . S
O308 Cd309 2.300 . S
O308 C315 1.275 . S
Cd309 O308 2.300 . S
Cd309 O317 2.381 . S
Cd309 O318 2.378 . S
O310 Cd311 2.385 . S
O310 C315 1.255 . S
Cd311 O310 2.385 . S
Cd311 O312 2.317 . S
O312 Cd311 2.317 . S
O312 C313 1.232 . S
C313 O312 1.232 . S
C313 O314 1.218 . S
O314 C313 1.218 . S
C315 O308 1.275 . S
C315 O310 1.255 . S
C316 O317 1.258 . S
C316 O318 1.256 . S
O317 Cd309 2.381 . S
O317 C316 1.258 . S
O318 Cd309 2.378 . S
O318 C316 1.256 . S
O319 Cd320 2.300 . S
O319 C326 1.275 . S
Cd320 O319 2.300 . S
Cd320 O328 2.381 . S
Cd320 O329 2.378 . S
O321 Cd322 2.385 . S
O321 C326 1.255 . S
Cd322 O321 2.385 . S
Cd322 O323 2.317 . S
O323 Cd322 2.317 . S
O323 C324 1.232 . S
C324 O323 1.232 . S
C324 O325 1.218 . S
O325 C324 1.218 . S
C326 O319 1.275 . S
C326 O321 1.255 . S
C327 O328 1.258 . S
C327 O329 1.256 . S
O328 Cd320 2.381 . S
O328 C327 1.258 . S
O329 Cd320 2.378 . S
O329 C327 1.256 . S
O330 Cd331 2.300 . S
O330 C337 1.275 . S
Cd331 O330 2.300 . S
Cd331 O339 2.381 . S
Cd331 O340 2.378 . S
O332 Cd333 2.385 . S
O332 C337 1.255 . S
Cd333 O332 2.385 . S
Cd333 O334 2.317 . S
O334 Cd333 2.317 . S
O334 C335 1.232 . S
C335 O334 1.232 . S
C335 O336 1.218 . S
O336 C335 1.218 . S
C337 O330 1.275 . S
C337 O332 1.255 . S
C338 O339 1.258 . S
C338 O340 1.256 . S
O339 Cd331 2.381 . S
O339 C338 1.258 . S
O340 Cd331 2.378 . S
O340 C338 1.256 . S
O341 Cd342 2.300 . S
O341 C348 1.275 . S
Cd342 O341 2.300 . S
Cd342 O350 2.381 . S
Cd342 O351 2.378 . S
O343 Cd344 2.385 . S
O343 C348 1.255 . S
Cd344 O343 2.385 . S
Cd344 O345 2.317 . S
O345 Cd344 2.317 . S
O345 C346 1.232 . S
C346 O345 1.232 . S
C346 O347 1.218 . S
O347 C346 1.218 . S
C348 O341 1.275 . S
C348 O343 1.255 . S
C349 O350 1.258 . S
C349 O351 1.256 . S
O350 Cd342 2.381 . S
O350 C349 1.258 . S
O351 Cd342 2.378 . S
O351 C349 1.256 . S
H352 C358 0.930 . S
H353 C362 0.930 . S
H354 C367 0.929 . S
H355 C365 0.929 . S
H356 C360 0.929 . S
H357 C366 0.929 . S
C358 H352 0.930 . S
C358 C359 1.367 . S
C358 C366 1.378 . S
C359 C358 1.367 . S
C359 C367 1.433 . S
C360 H356 0.929 . S
C360 C362 1.378 . S
C360 C364 1.350 . S
C361 C364 1.463 . S
C361 C366 1.350 . S
C361 N369 1.427 . S
C362 H353 0.930 . S
C362 C360 1.378 . S
C362 C363 1.367 . S
C363 C362 1.367 . S
C363 C365 1.433 . S
C364 C360 1.350 . S
C364 C361 1.463 . S
C364 N368 1.427 . S
C365 H355 0.929 . S
C365 C363 1.433 . S
C365 N368 1.384 . S
C366 H357 0.929 . S
C366 C358 1.378 . S
C366 C361 1.350 . S
C367 H354 0.929 . S
C367 C359 1.433 . S
C367 N369 1.384 . S
N368 C364 1.427 . S
N368 C365 1.384 . S
N369 C361 1.427 . S
N369 C367 1.384 . S
H370 C376 0.930 . S
H371 C380 0.930 . S
H372 C385 0.929 . S
H373 C383 0.929 . S
H374 C378 0.929 . S
H375 C384 0.929 . S
C376 H370 0.930 . S
C376 C377 1.367 . S
C376 C384 1.378 . S
C377 C376 1.367 . S
C377 C385 1.433 1_565 S
C378 H374 0.929 . S
C378 C380 1.378 . S
C378 C382 1.350 . S
C379 C382 1.463 1_665 S
C379 C384 1.350 . S
C379 N387 1.427 1_565 S
C380 H371 0.930 . S
C380 C378 1.378 . S
C380 C381 1.367 . S
C381 C380 1.367 . S
C381 C383 1.433 1_545 S
C382 C378 1.350 . S
C382 C379 1.463 1_445 S
C382 N386 1.427 1_545 S
C383 H373 0.929 . S
C383 C381 1.433 1_565 S
C383 N386 1.384 . S
C384 H375 0.929 . S
C384 C376 1.378 . S
C384 C379 1.350 . S
C385 H372 0.929 . S
C385 C377 1.433 1_545 S
C385 N387 1.384 . S
N386 C382 1.427 1_565 S
N386 C383 1.384 . S
N387 C379 1.427 1_545 S
N387 C385 1.384 . S
H388 C394 0.930 . S
H389 C398 0.930 . S
H390 C403 0.929 . S
H391 C401 0.929 . S
H392 C396 0.929 . S
H393 C402 0.929 . S
C394 H388 0.930 . S
C394 C395 1.367 . S
C394 C402 1.378 . S
C395 C394 1.367 . S
C395 C403 1.433 . S
C396 H392 0.929 . S
C396 C398 1.378 . S
C396 C400 1.350 . S
C397 C400 1.463 . S
C397 C402 1.350 . S
C397 N405 1.427 . S
C398 H389 0.930 . S
C398 C396 1.378 . S
C398 C399 1.367 . S
C399 C398 1.367 . S
C399 C401 1.433 . S
C400 C396 1.350 . S
C400 C397 1.463 . S
C400 N404 1.427 . S
C401 H391 0.929 . S
C401 C399 1.433 . S
C401 N404 1.384 . S
C402 H393 0.929 . S
C402 C394 1.378 . S
C402 C397 1.350 . S
C403 H390 0.929 . S
C403 C395 1.433 . S
C403 N405 1.384 . S
N404 C400 1.427 . S
N404 C401 1.384 . S
N405 C397 1.427 . S
N405 C403 1.384 . S
H406 C412 0.930 . S
H407 C416 0.930 . S
H408 C421 0.929 . S
H409 C419 0.929 . S
H410 C414 0.929 . S
H411 C420 0.929 . S
C412 H406 0.930 . S
C412 C413 1.367 1_565 S
C412 C420 1.378 . S
C413 C412 1.367 1_545 S
C413 C421 1.433 . S
C414 H410 0.929 . S
C414 C416 1.378 . S
C414 C418 1.350 1_545 S
C415 C418 1.463 1_546 S
C415 C420 1.350 1_545 S
C415 N423 1.427 . S
C416 H407 0.930 . S
C416 C414 1.378 . S
C416 C417 1.367 1_545 S
C417 C416 1.367 1_565 S
C417 C419 1.433 . S
C418 C414 1.350 1_565 S
C418 C415 1.463 1_564 S
C418 N422 1.427 . S
C419 H409 0.929 . S
C419 C417 1.433 . S
C419 N422 1.384 . S
C420 H411 0.929 . S
C420 C412 1.378 . S
C420 C415 1.350 1_565 S
C421 H408 0.929 . S
C421 C413 1.433 . S
C421 N423 1.384 . S
N422 C418 1.427 . S
N422 C419 1.384 . S
N423 C415 1.427 . S
N423 C421 1.384 . S
H424 C430 0.930 . S
H425 C434 0.930 . S
H426 C439 0.929 . S
H427 C437 0.929 . S
H428 C432 0.929 . S
H429 C438 0.929 . S
C430 H424 0.930 . S
C430 C431 1.367 . S
C430 C438 1.378 . S
C431 C430 1.367 . S
C431 C439 1.433 . S
C432 H428 0.929 . S
C432 C434 1.378 . S
C432 C436 1.350 . S
C433 C436 1.463 . S
C433 C438 1.350 . S
C433 N441 1.427 . S
C434 H425 0.930 . S
C434 C432 1.378 . S
C434 C435 1.367 . S
C435 C434 1.367 . S
C435 C437 1.433 . S
C436 C432 1.350 . S
C436 C433 1.463 . S
C436 N440 1.427 . S
C437 H427 0.929 . S
C437 C435 1.433 . S
C437 N440 1.384 . S
C438 H429 0.929 . S
C438 C430 1.378 . S
C438 C433 1.350 . S
C439 H426 0.929 . S
C439 C431 1.433 . S
C439 N441 1.384 . S
N440 C436 1.427 . S
N440 C437 1.384 . S
N441 C433 1.427 . S
N441 C439 1.384 . S
H442 C448 0.930 . S
H443 C452 0.930 . S
H444 C457 0.929 . S
H445 C455 0.929 . S
H446 C450 0.929 . S
H447 C456 0.929 . S
C448 H442 0.930 . S
C448 C449 1.367 . S
C448 C456 1.378 . S
C449 C448 1.367 . S
C449 C457 1.433 1_565 S
C450 H446 0.929 . S
C450 C452 1.378 . S
C450 C454 1.350 . S
C451 C454 1.463 1_565 S
C451 C456 1.350 . S
C451 N459 1.427 1_565 S
C452 H443 0.930 . S
C452 C450 1.378 . S
C452 C453 1.367 . S
C453 C452 1.367 . S
C453 C455 1.433 1_545 S
C454 C450 1.350 . S
C454 C451 1.463 1_545 S
C454 N458 1.427 1_545 S
C455 H445 0.929 . S
C455 C453 1.433 1_565 S
C455 N458 1.384 . S
C456 H447 0.929 . S
C456 C448 1.378 . S
C456 C451 1.350 . S
C457 H444 0.929 . S
C457 C449 1.433 1_545 S
C457 N459 1.384 . S
N458 C454 1.427 1_565 S
N458 C455 1.384 . S
N459 C451 1.427 1_545 S
N459 C457 1.384 . S
H460 C466 0.930 . S
H461 C470 0.930 . S
H462 C475 0.929 . S
H463 C473 0.929 . S
H464 C468 0.929 . S
H465 C474 0.929 . S
C466 H460 0.930 . S
C466 C467 1.367 . S
C466 C474 1.378 . S
C467 C466 1.367 . S
C467 C475 1.433 . S
C468 H464 0.929 . S
C468 C470 1.378 . S
C468 C472 1.350 . S
C469 C472 1.463 . S
C469 C474 1.350 . S
C469 N477 1.427 . S
C470 H461 0.930 . S
C470 C468 1.378 . S
C470 C471 1.367 . S
C471 C470 1.367 . S
C471 C473 1.433 . S
C472 C468 1.350 . S
C472 C469 1.463 . S
C472 N476 1.427 . S
C473 H463 0.929 . S
C473 C471 1.433 . S
C473 N476 1.384 . S
C474 H465 0.929 . S
C474 C466 1.378 . S
C474 C469 1.350 . S
C475 H462 0.929 . S
C475 C467 1.433 . S
C475 N477 1.384 . S
N476 C472 1.427 . S
N476 C473 1.384 . S
N477 C469 1.427 . S
N477 C475 1.384 . S
H478 C484 0.930 . S
H479 C488 0.930 . S
H480 C493 0.929 . S
H481 C491 0.929 . S
H482 C486 0.929 . S
H483 C492 0.929 . S
C484 H478 0.930 . S
C484 C485 1.367 1_545 S
C484 C492 1.378 . S
C485 C484 1.367 1_565 S
C485 C493 1.433 . S
C486 H482 0.929 . S
C486 C488 1.378 . S
C486 C490 1.350 1_565 S
C487 C490 1.463 1_466 S
C487 C492 1.350 1_565 S
C487 N495 1.427 . S
C488 H479 0.930 . S
C488 C486 1.378 . S
C488 C489 1.367 1_565 S
C489 C488 1.367 1_545 S
C489 C491 1.433 . S
C490 C486 1.350 1_545 S
C490 C487 1.463 1_644 S
C490 N494 1.427 . S
C491 H481 0.929 . S
C491 C489 1.433 . S
C491 N494 1.384 . S
C492 H483 0.929 . S
C492 C484 1.378 . S
C492 C487 1.350 1_545 S
C493 H480 0.929 . S
C493 C485 1.433 . S
C493 N495 1.384 . S
N494 C490 1.427 . S
N494 C491 1.384 . S
N495 C487 1.427 . S
N495 C493 1.384 . S
H496 C502 0.930 . S
H497 C506 0.930 . S
H498 C511 0.929 . S
H499 C509 0.929 . S
H500 C504 0.929 . S
H501 C510 0.929 . S
C502 H496 0.930 . S
C502 C503 1.367 . S
C502 C510 1.378 . S
C503 C502 1.367 . S
C503 C511 1.433 . S
C504 H500 0.929 . S
C504 C506 1.378 . S
C504 C508 1.350 . S
C505 C508 1.463 . S
C505 C510 1.350 . S
C505 N513 1.427 . S
C506 H497 0.930 . S
C506 C504 1.378 . S
C506 C507 1.367 . S
C507 C506 1.367 . S
C507 C509 1.433 . S
C508 C504 1.350 . S
C508 C505 1.463 . S
C508 N512 1.427 . S
C509 H499 0.929 . S
C509 C507 1.433 . S
C509 N512 1.384 . S
C510 H501 0.929 . S
C510 C502 1.378 . S
C510 C505 1.350 . S
C511 H498 0.929 . S
C511 C503 1.433 . S
C511 N513 1.384 . S
N512 C508 1.427 . S
N512 C509 1.384 . S
N513 C505 1.427 . S
N513 C511 1.384 . S
H514 C520 0.930 . S
H515 C524 0.930 . S
H516 C529 0.929 . S
H517 C527 0.929 . S
H518 C522 0.929 . S
H519 C528 0.929 . S
C520 H514 0.930 . S
C520 C521 1.367 . S
C520 C528 1.378 . S
C521 C520 1.367 . S
C521 C529 1.433 . S
C522 H518 0.929 . S
C522 C524 1.378 . S
C522 C526 1.350 . S
C523 C526 1.463 . S
C523 C528 1.350 . S
C523 N531 1.427 . S
C524 H515 0.930 . S
C524 C522 1.378 . S
C524 C525 1.367 . S
C525 C524 1.367 . S
C525 C527 1.433 . S
C526 C522 1.350 . S
C526 C523 1.463 . S
C526 N530 1.427 . S
C527 H517 0.929 . S
C527 C525 1.433 . S
C527 N530 1.384 . S
C528 H519 0.929 . S
C528 C520 1.378 . S
C528 C523 1.350 . S
C529 H516 0.929 . S
C529 C521 1.433 . S
C529 N531 1.384 . S
N530 C526 1.427 . S
N530 C527 1.384 . S
N531 C523 1.427 . S
N531 C529 1.384 . S
H532 C538 0.930 . S
H533 C542 0.930 . S
H534 C547 0.929 . S
H535 C545 0.929 . S
H536 C540 0.929 . S
H537 C546 0.929 . S
C538 H532 0.930 . S
C538 C539 1.367 . S
C538 C546 1.378 . S
C539 C538 1.367 . S
C539 C547 1.433 . S
C540 H536 0.929 . S
C540 C542 1.378 . S
C540 C544 1.350 . S
C541 C544 1.463 . S
C541 C546 1.350 . S
C541 N549 1.427 . S
C542 H533 0.930 . S
C542 C540 1.378 . S
C542 C543 1.367 . S
C543 C542 1.367 . S
C543 C545 1.433 . S
C544 C540 1.350 . S
C544 C541 1.463 . S
C544 N548 1.427 . S
C545 H535 0.929 . S
C545 C543 1.433 . S
C545 N548 1.384 . S
C546 H537 0.929 . S
C546 C538 1.378 . S
C546 C541 1.350 . S
C547 H534 0.929 . S
C547 C539 1.433 . S
C547 N549 1.384 . S
N548 C544 1.427 . S
N548 C545 1.384 . S
N549 C541 1.427 . S
N549 C547 1.384 . S
H550 C556 0.930 . S
H551 C560 0.930 . S
H552 C565 0.929 . S
H553 C563 0.929 . S
H554 C558 0.929 . S
H555 C564 0.929 . S
C556 H550 0.930 . S
C556 C557 1.367 . S
C556 C564 1.378 . S
C557 C556 1.367 . S
C557 C565 1.433 . S
C558 H554 0.929 . S
C558 C560 1.378 . S
C558 C562 1.350 . S
C559 C562 1.463 . S
C559 C564 1.350 . S
C559 N567 1.427 . S
C560 H551 0.930 . S
C560 C558 1.378 . S
C560 C561 1.367 . S
C561 C560 1.367 . S
C561 C563 1.433 . S
C562 C558 1.350 . S
C562 C559 1.463 . S
C562 N566 1.427 . S
C563 H553 0.929 . S
C563 C561 1.433 . S
C563 N566 1.384 . S
C564 H555 0.929 . S
C564 C556 1.378 . S
C564 C559 1.350 . S
C565 H552 0.929 . S
C565 C557 1.433 . S
C565 N567 1.384 . S
N566 C562 1.427 . S
N566 C563 1.384 . S
N567 C559 1.427 . S
N567 C565 1.384 . S
H568 C574 0.930 . S
H569 C578 0.930 . S
H570 C583 0.929 . S
H571 C581 0.929 . S
H572 C576 0.929 . S
H573 C582 0.929 . S
C574 H568 0.930 . S
C574 C575 1.367 . S
C574 C582 1.378 1_554 S
C575 C574 1.367 . S
C575 C583 1.433 . S
C576 H572 0.929 . S
C576 C578 1.378 1_554 S
C576 C580 1.350 1_554 S
C577 C580 1.463 1_554 S
C577 C582 1.350 1_554 S
C577 N585 1.427 . S
C578 H569 0.930 . S
C578 C576 1.378 1_556 S
C578 C579 1.367 . S
C579 C578 1.367 . S
C579 C581 1.433 . S
C580 C576 1.350 1_556 S
C580 C577 1.463 1_556 S
C580 N584 1.427 . S
C581 H571 0.929 . S
C581 C579 1.433 . S
C581 N584 1.384 . S
C582 H573 0.929 . S
C582 C574 1.378 1_556 S
C582 C577 1.350 1_556 S
C583 H570 0.929 . S
C583 C575 1.433 . S
C583 N585 1.384 . S
N584 C580 1.427 . S
N584 C581 1.384 . S
N585 C577 1.427 . S
N585 C583 1.384 . S
H586 C592 0.930 . S
H587 C596 0.930 . S
H588 C601 0.929 . S
H589 C599 0.929 . S
H590 C594 0.929 . S
H591 C600 0.929 . S
C592 H586 0.930 . S
C592 C593 1.367 . S
C592 C600 1.378 . S
C593 C592 1.367 . S
C593 C601 1.433 . S
C594 H590 0.929 . S
C594 C596 1.378 . S
C594 C598 1.350 . S
C595 C598 1.463 1_455 S
C595 C600 1.350 . S
C595 N603 1.427 . S
C596 H587 0.930 . S
C596 C594 1.378 . S
C596 C597 1.367 . S
C597 C596 1.367 . S
C597 C599 1.433 . S
C598 C594 1.350 . S
C598 C595 1.463 1_655 S
C598 N602 1.427 . S
C599 H589 0.929 . S
C599 C597 1.433 . S
C599 N602 1.384 . S
C600 H591 0.929 . S
C600 C592 1.378 . S
C600 C595 1.350 . S
C601 H588 0.929 . S
C601 C593 1.433 . S
C601 N603 1.384 . S
N602 C598 1.427 . S
N602 C599 1.384 . S
N603 C595 1.427 . S
N603 C601 1.384 . S
H604 C610 0.930 . S
H605 C614 0.930 . S
H606 C619 0.929 . S
H607 C617 0.929 . S
H608 C612 0.929 1_655 S
H609 C618 0.929 1_455 S
C610 H604 0.930 . S
C610 C611 1.367 . S
C610 C618 1.378 . S
C611 C610 1.367 . S
C611 C619 1.433 . S
C612 H608 0.929 1_455 S
C612 C614 1.378 . S
C612 C616 1.350 . S
C613 C616 1.463 1_656 S
C613 C618 1.350 . S
C613 N621 1.427 . S
C614 H605 0.930 . S
C614 C612 1.378 . S
C614 C615 1.367 . S
C615 C614 1.367 . S
C615 C617 1.433 . S
C616 C612 1.350 . S
C616 C613 1.463 1_454 S
C616 N620 1.427 . S
C617 H607 0.929 . S
C617 C615 1.433 . S
C617 N620 1.382 . S
C618 H609 0.929 1_655 S
C618 C610 1.378 . S
C618 C613 1.350 . S
C619 H606 0.929 . S
C619 C611 1.433 . S
C619 N621 1.382 . S
N620 C616 1.427 . S
N620 C617 1.382 . S
N621 C613 1.427 . S
N621 C619 1.382 . S
H622 C628 0.930 . S
H623 C632 0.930 . S
H624 C637 0.929 . S
H625 C635 0.929 . S
H626 C630 0.929 . S
H627 C636 0.929 . S
C628 H622 0.930 . S
C628 C629 1.367 . S
C628 C636 1.378 . S
C629 C628 1.367 . S
C629 C637 1.433 . S
C630 H626 0.929 . S
C630 C632 1.378 . S
C630 C634 1.350 . S
C631 C634 1.463 . S
C631 C636 1.350 . S
C631 N639 1.427 . S
C632 H623 0.930 . S
C632 C630 1.378 . S
C632 C633 1.367 . S
C633 C632 1.367 . S
C633 C635 1.433 . S
C634 C630 1.350 . S
C634 C631 1.463 . S
C634 N638 1.427 . S
C635 H625 0.929 . S
C635 C633 1.433 . S
C635 N638 1.384 . S
C636 H627 0.929 . S
C636 C628 1.378 . S
C636 C631 1.350 . S
C637 H624 0.929 . S
C637 C629 1.433 . S
C637 N639 1.384 . S
N638 C634 1.427 . S
N638 C635 1.384 . S
N639 C631 1.427 . S
N639 C637 1.384 . S
H640 C646 0.930 . S
H641 C650 0.930 . S
H642 C655 0.929 . S
H643 C653 0.929 . S
H644 C648 0.929 . S
H645 C654 0.929 . S
C646 H640 0.930 . S
C646 C647 1.367 . S
C646 C654 1.378 . S
C647 C646 1.367 . S
C647 C655 1.433 . S
C648 H644 0.929 . S
C648 C650 1.378 . S
C648 C652 1.350 . S
C649 C652 1.463 . S
C649 C654 1.350 . S
C649 N657 1.427 . S
C650 H641 0.930 . S
C650 C648 1.378 . S
C650 C651 1.367 . S
C651 C650 1.367 . S
C651 C653 1.433 . S
C652 C648 1.350 . S
C652 C649 1.463 . S
C652 N656 1.427 . S
C653 H643 0.929 . S
C653 C651 1.433 . S
C653 N656 1.384 . S
C654 H645 0.929 . S
C654 C646 1.378 . S
C654 C649 1.350 . S
C655 H642 0.929 . S
C655 C647 1.433 . S
C655 N657 1.384 . S
N656 C652 1.427 . S
N656 C653 1.384 . S
N657 C649 1.427 . S
N657 C655 1.384 . S
H658 C664 0.930 . S
H659 C668 0.930 . S
H660 C673 0.929 . S
H661 C671 0.929 . S
H662 C666 0.929 . S
H663 C672 0.929 . S
C664 H658 0.930 . S
C664 C665 1.367 . S
C664 C672 1.378 . S
C665 C664 1.367 . S
C665 C673 1.433 . S
C666 H662 0.929 . S
C666 C668 1.378 . S
C666 C670 1.350 . S
C667 C670 1.463 . S
C667 C672 1.350 . S
C667 N675 1.427 . S
C668 H659 0.930 . S
C668 C666 1.378 . S
C668 C669 1.367 . S
C669 C668 1.367 . S
C669 C671 1.433 . S
C670 C666 1.350 . S
C670 C667 1.463 . S
C670 N674 1.427 . S
C671 H661 0.929 . S
C671 C669 1.433 . S
C671 N674 1.384 . S
C672 H663 0.929 . S
C672 C664 1.378 . S
C672 C667 1.350 . S
C673 H660 0.929 . S
C673 C665 1.433 . S
C673 N675 1.384 . S
N674 C670 1.427 . S
N674 C671 1.384 . S
N675 C667 1.427 . S
N675 C673 1.384 . S
H676 C682 0.930 . S
H677 C686 0.930 . S
H678 C691 0.929 . S
H679 C689 0.929 . S
H680 C684 0.929 . S
H681 C690 0.929 . S
C682 H676 0.930 . S
C682 C683 1.367 . S
C682 C690 1.378 . S
C683 C682 1.367 . S
C683 C691 1.433 . S
C684 H680 0.929 . S
C684 C686 1.378 . S
C684 C688 1.350 . S
C685 C688 1.463 . S
C685 C690 1.350 . S
C685 N693 1.427 . S
C686 H677 0.930 . S
C686 C684 1.378 . S
C686 C687 1.367 . S
C687 C686 1.367 . S
C687 C689 1.433 . S
C688 C684 1.350 . S
C688 C685 1.463 . S
C688 N692 1.427 . S
C689 H679 0.929 . S
C689 C687 1.433 . S
C689 N692 1.384 . S
C690 H681 0.929 . S
C690 C682 1.378 . S
C690 C685 1.350 . S
C691 H678 0.929 . S
C691 C683 1.433 . S
C691 N693 1.384 . S
N692 C688 1.427 . S
N692 C689 1.384 . S
N693 C685 1.427 . S
N693 C691 1.384 . S
H694 C700 0.930 . S
H695 C704 0.930 . S
H696 C709 0.929 . S
H697 C707 0.929 . S
H698 C702 0.929 . S
H699 C708 0.929 . S
C700 H694 0.930 . S
C700 C701 1.367 . S
C700 C708 1.378 . S
C701 C700 1.367 . S
C701 C709 1.433 . S
C702 H698 0.929 . S
C702 C704 1.378 . S
C702 C706 1.350 . S
C703 C706 1.463 . S
C703 C708 1.350 . S
C703 N711 1.427 . S
C704 H695 0.930 . S
C704 C702 1.378 . S
C704 C705 1.367 . S
C705 C704 1.367 . S
C705 C707 1.433 . S
C706 C702 1.350 . S
C706 C703 1.463 . S
C706 N710 1.427 . S
C707 H697 0.929 . S
C707 C705 1.433 . S
C707 N710 1.384 . S
C708 H699 0.929 . S
C708 C700 1.378 . S
C708 C703 1.350 . S
C709 H696 0.929 . S
C709 C701 1.433 . S
C709 N711 1.384 . S
N710 C706 1.427 . S
N710 C707 1.384 . S
N711 C703 1.427 . S
N711 C709 1.384 . S
H712 C718 0.930 . S
H713 C722 0.930 . S
H714 C727 0.929 . S
H715 C725 0.929 . S
H716 C720 0.929 . S
H717 C726 0.929 . S
C718 H712 0.930 . S
C718 C719 1.367 . S
C718 C726 1.378 . S
C719 C718 1.367 . S
C719 C727 1.433 . S
C720 H716 0.929 . S
C720 C722 1.378 . S
C720 C724 1.350 . S
C721 C724 1.463 . S
C721 C726 1.350 . S
C721 N729 1.427 . S
C722 H713 0.930 . S
C722 C720 1.378 . S
C722 C723 1.367 . S
C723 C722 1.367 . S
C723 C725 1.433 . S
C724 C720 1.350 . S
C724 C721 1.463 . S
C724 N728 1.427 . S
C725 H715 0.929 . S
C725 C723 1.433 . S
C725 N728 1.384 . S
C726 H717 0.929 . S
C726 C718 1.378 . S
C726 C721 1.350 . S
C727 H714 0.929 . S
C727 C719 1.433 . S
C727 N729 1.384 . S
N728 C724 1.427 . S
N728 C725 1.384 . S
N729 C721 1.427 . S
N729 C727 1.384 . S
H730 C736 0.930 . S
H731 C740 0.930 . S
H732 C745 0.929 . S
H733 C743 0.929 . S
H734 C738 0.929 . S
H735 C744 0.929 . S
C736 H730 0.930 . S
C736 C737 1.367 . S
C736 C744 1.378 . S
C737 C736 1.367 . S
C737 C745 1.433 . S
C738 H734 0.929 . S
C738 C740 1.378 . S
C738 C742 1.350 . S
C739 C742 1.463 . S
C739 C744 1.350 . S
C739 N747 1.427 . S
C740 H731 0.930 . S
C740 C738 1.378 . S
C740 C741 1.367 . S
C741 C740 1.367 . S
C741 C743 1.433 . S
C742 C738 1.350 . S
C742 C739 1.463 . S
C742 N746 1.427 . S
C743 H733 0.929 . S
C743 C741 1.433 . S
C743 N746 1.384 . S
C744 H735 0.929 . S
C744 C736 1.378 . S
C744 C739 1.350 . S
C745 H732 0.929 . S
C745 C737 1.433 . S
C745 N747 1.384 . S
N746 C742 1.427 . S
N746 C743 1.384 . S
N747 C739 1.427 . S
N747 C745 1.384 . S
H748 C754 0.930 . S
H749 C758 0.930 . S
H750 C763 0.929 . S
H751 C761 0.929 . S
H752 C756 0.929 . S
H753 C762 0.929 . S
C754 H748 0.930 . S
C754 C755 1.367 . S
C754 C762 1.378 . S
C755 C754 1.367 . S
C755 C763 1.433 . S
C756 H752 0.929 . S
C756 C758 1.378 . S
C756 C760 1.350 . S
C757 C760 1.463 . S
C757 C762 1.350 . S
C757 N765 1.427 . S
C758 H749 0.930 . S
C758 C756 1.378 . S
C758 C759 1.367 . S
C759 C758 1.367 . S
C759 C761 1.433 . S
C760 C756 1.350 . S
C760 C757 1.463 . S
C760 N764 1.427 . S
C761 H751 0.929 . S
C761 C759 1.433 . S
C761 N764 1.384 . S
C762 H753 0.929 . S
C762 C754 1.378 . S
C762 C757 1.350 . S
C763 H750 0.929 . S
C763 C755 1.433 . S
C763 N765 1.384 . S
N764 C760 1.427 . S
N764 C761 1.384 . S
N765 C757 1.427 . S
N765 C763 1.384 . S
H766 C772 0.930 . S
H767 C776 0.930 . S
H768 C781 0.929 . S
H769 C779 0.929 . S
H770 C774 0.929 . S
H771 C780 0.929 . S
C772 H766 0.930 . S
C772 C773 1.367 . S
C772 C780 1.378 . S
C773 C772 1.367 . S
C773 C781 1.433 . S
C774 H770 0.929 . S
C774 C776 1.378 . S
C774 C778 1.350 . S
C775 C778 1.463 . S
C775 C780 1.350 . S
C775 N783 1.427 . S
C776 H767 0.930 . S
C776 C774 1.378 . S
C776 C777 1.367 . S
C777 C776 1.367 . S
C777 C779 1.433 . S
C778 C774 1.350 . S
C778 C775 1.463 . S
C778 N782 1.427 . S
C779 H769 0.929 . S
C779 C777 1.433 . S
C779 N782 1.384 . S
C780 H771 0.929 . S
C780 C772 1.378 . S
C780 C775 1.350 . S
C781 H768 0.929 . S
C781 C773 1.433 . S
C781 N783 1.384 . S
N782 C778 1.427 . S
N782 C779 1.384 . S
N783 C775 1.427 . S
N783 C781 1.384 . S
H784 C790 0.930 . S
H785 C794 0.930 . S
H786 C799 0.929 . S
H787 C797 0.929 . S
H788 C792 0.929 . S
H789 C798 0.929 . S
C790 H784 0.930 . S
C790 C791 1.367 . S
C790 C798 1.378 . S
C791 C790 1.367 . S
C791 C799 1.433 . S
C792 H788 0.929 . S
C792 C794 1.378 . S
C792 C796 1.350 . S
C793 C796 1.463 . S
C793 C798 1.350 . S
C793 N801 1.427 . S
C794 H785 0.930 . S
C794 C792 1.378 . S
C794 C795 1.367 . S
C795 C794 1.367 . S
C795 C797 1.433 . S
C796 C792 1.350 . S
C796 C793 1.463 . S
C796 N800 1.427 . S
C797 H787 0.929 . S
C797 C795 1.433 . S
C797 N800 1.384 . S
C798 H789 0.929 . S
C798 C790 1.378 . S
C798 C793 1.350 . S
C799 H786 0.929 . S
C799 C791 1.433 . S
C799 N801 1.384 . S
N800 C796 1.427 . S
N800 C797 1.384 . S
N801 C793 1.427 . S
N801 C799 1.384 . S
H802 C808 0.930 . S
H803 C812 0.930 . S
H804 C817 0.929 . S
H805 C815 0.929 . S
H806 C810 0.929 . S
H807 C816 0.929 . S
C808 H802 0.930 . S
C808 C809 1.367 . S
C808 C816 1.378 . S
C809 C808 1.367 . S
C809 C817 1.433 . S
C810 H806 0.929 . S
C810 C812 1.378 . S
C810 C814 1.350 . S
C811 C814 1.463 . S
C811 C816 1.350 . S
C811 N819 1.427 . S
C812 H803 0.930 . S
C812 C810 1.378 . S
C812 C813 1.367 . S
C813 C812 1.367 . S
C813 C815 1.433 . S
C814 C810 1.350 . S
C814 C811 1.463 . S
C814 N818 1.427 . S
C815 H805 0.929 . S
C815 C813 1.433 . S
C815 N818 1.384 . S
C816 H807 0.929 . S
C816 C808 1.378 . S
C816 C811 1.350 . S
C817 H804 0.929 . S
C817 C809 1.433 . S
C817 N819 1.384 . S
N818 C814 1.427 . S
N818 C815 1.384 . S
N819 C811 1.427 . S
N819 C817 1.384 . S
H820 C826 0.930 . S
H821 C830 0.930 . S
H822 C835 0.929 . S
H823 C833 0.929 . S
H824 C828 0.929 . S
H825 C834 0.929 . S
C826 H820 0.930 . S
C826 C827 1.367 . S
C826 C834 1.378 . S
C827 C826 1.367 . S
C827 C835 1.433 . S
C828 H824 0.929 . S
C828 C830 1.378 . S
C828 C832 1.350 . S
C829 C832 1.463 . S
C829 C834 1.350 . S
C829 N837 1.427 . S
C830 H821 0.930 . S
C830 C828 1.378 . S
C830 C831 1.367 . S
C831 C830 1.367 . S
C831 C833 1.433 . S
C832 C828 1.350 . S
C832 C829 1.463 . S
C832 N836 1.427 . S
C833 H823 0.929 . S
C833 C831 1.433 . S
C833 N836 1.384 . S
C834 H825 0.929 . S
C834 C826 1.378 . S
C834 C829 1.350 . S
C835 H822 0.929 . S
C835 C827 1.433 . S
C835 N837 1.384 . S
N836 C832 1.427 . S
N836 C833 1.384 . S
N837 C829 1.427 . S
N837 C835 1.384 . S
H838 C844 0.930 . S
H839 C848 0.930 . S
H840 C853 0.929 . S
H841 C851 0.929 . S
H842 C846 0.929 . S
H843 C852 0.929 . S
C844 H838 0.930 . S
C844 C845 1.367 . S
C844 C852 1.378 . S
C845 C844 1.367 . S
C845 C853 1.433 . S
C846 H842 0.929 . S
C846 C848 1.378 . S
C846 C850 1.350 . S
C847 C850 1.463 . S
C847 C852 1.350 . S
C847 N855 1.427 . S
C848 H839 0.930 . S
C848 C846 1.378 . S
C848 C849 1.367 . S
C849 C848 1.367 . S
C849 C851 1.433 . S
C850 C846 1.350 . S
C850 C847 1.463 . S
C850 N854 1.427 . S
C851 H841 0.929 . S
C851 C849 1.433 . S
C851 N854 1.384 . S
C852 H843 0.929 . S
C852 C844 1.378 . S
C852 C847 1.350 . S
C853 H840 0.929 . S
C853 C845 1.433 . S
C853 N855 1.384 . S
N854 C850 1.427 . S
N854 C851 1.384 . S
N855 C847 1.427 . S
N855 C853 1.384 . S
H856 C862 0.930 . S
H857 C866 0.930 . S
H858 C871 0.929 . S
H859 C869 0.929 . S
H860 C864 0.929 . S
H861 C870 0.929 . S
C862 H856 0.930 . S
C862 C863 1.367 . S
C862 C870 1.378 . S
C863 C862 1.367 . S
C863 C871 1.433 . S
C864 H860 0.929 . S
C864 C866 1.378 . S
C864 C868 1.350 . S
C865 C868 1.463 . S
C865 C870 1.350 . S
C865 N873 1.427 . S
C866 H857 0.930 . S
C866 C864 1.378 . S
C866 C867 1.367 . S
C867 C866 1.367 . S
C867 C869 1.433 . S
C868 C864 1.350 . S
C868 C865 1.463 . S
C868 N872 1.427 . S
C869 H859 0.929 . S
C869 C867 1.433 . S
C869 N872 1.384 . S
C870 H861 0.929 . S
C870 C862 1.378 . S
C870 C865 1.350 . S
C871 H858 0.929 . S
C871 C863 1.433 . S
C871 N873 1.384 . S
N872 C868 1.427 . S
N872 C869 1.384 . S
N873 C865 1.427 . S
N873 C871 1.384 . S
H874 C880 0.930 . S
H875 C884 0.930 . S
H876 C889 0.929 . S
H877 C887 0.929 . S
H878 C882 0.929 . S
H879 C888 0.929 . S
C880 H874 0.930 . S
C880 C881 1.367 . S
C880 C888 1.378 . S
C881 C880 1.367 . S
C881 C889 1.433 . S
C882 H878 0.929 . S
C882 C884 1.378 . S
C882 C886 1.350 . S
C883 C886 1.463 . S
C883 C888 1.350 . S
C883 N891 1.427 . S
C884 H875 0.930 . S
C884 C882 1.378 . S
C884 C885 1.367 . S
C885 C884 1.367 . S
C885 C887 1.433 . S
C886 C882 1.350 . S
C886 C883 1.463 . S
C886 N890 1.427 . S
C887 H877 0.929 . S
C887 C885 1.433 . S
C887 N890 1.384 . S
C888 H879 0.929 . S
C888 C880 1.378 . S
C888 C883 1.350 . S
C889 H876 0.929 . S
C889 C881 1.433 . S
C889 N891 1.384 . S
N890 C886 1.427 . S
N890 C887 1.384 . S
N891 C883 1.427 . S
N891 C889 1.384 . S
H892 C898 0.930 . S
H893 C902 0.930 . S
H894 C907 0.929 . S
H895 C905 0.929 . S
H896 C900 0.929 . S
H897 C906 0.929 . S
C898 H892 0.930 . S
C898 C899 1.367 . S
C898 C906 1.378 . S
C899 C898 1.367 . S
C899 C907 1.433 . S
C900 H896 0.929 . S
C900 C902 1.378 . S
C900 C904 1.350 . S
C901 C904 1.463 . S
C901 C906 1.350 . S
C901 N909 1.427 . S
C902 H893 0.930 . S
C902 C900 1.378 . S
C902 C903 1.367 . S
C903 C902 1.367 . S
C903 C905 1.433 . S
C904 C900 1.350 . S
C904 C901 1.463 . S
C904 N908 1.427 . S
C905 H895 0.929 . S
C905 C903 1.433 . S
C905 N908 1.384 . S
C906 H897 0.929 . S
C906 C898 1.378 . S
C906 C901 1.350 . S
C907 H894 0.929 . S
C907 C899 1.433 . S
C907 N909 1.384 . S
N908 C904 1.427 . S
N908 C905 1.384 . S
N909 C901 1.427 . S
N909 C907 1.384 . S
H910 C916 0.930 . S
H911 C920 0.930 . S
H912 C925 0.929 . S
H913 C923 0.929 . S
H914 C918 0.929 . S
H915 C924 0.929 . S
C916 H910 0.930 . S
C916 C917 1.367 . S
C916 C924 1.378 . S
C917 C916 1.367 . S
C917 C925 1.433 . S
C918 H914 0.929 . S
C918 C920 1.378 . S
C918 C922 1.350 . S
C919 C922 1.463 . S
C919 C924 1.350 . S
C919 N927 1.427 . S
C920 H911 0.930 . S
C920 C918 1.378 . S
C920 C921 1.367 . S
C921 C920 1.367 . S
C921 C923 1.433 . S
C922 C918 1.350 . S
C922 C919 1.463 . S
C922 N926 1.427 . S
C923 H913 0.929 . S
C923 C921 1.433 . S
C923 N926 1.384 . S
C924 H915 0.929 . S
C924 C916 1.378 . S
C924 C919 1.350 . S
C925 H912 0.929 . S
C925 C917 1.433 . S
C925 N927 1.384 . S
N926 C922 1.427 . S
N926 C923 1.384 . S
N927 C919 1.427 . S
N927 C925 1.384 . S
H928 C934 0.930 . S
H929 C938 0.930 . S
H930 C943 0.929 . S
H931 C941 0.929 . S
H932 C936 0.929 . S
H933 C942 0.929 . S
C934 H928 0.930 . S
C934 C935 1.367 . S
C934 C942 1.378 . S
C935 C934 1.367 . S
C935 C943 1.433 . S
C936 H932 0.929 . S
C936 C938 1.378 . S
C936 C940 1.350 . S
C937 C940 1.463 1_556 S
C937 C942 1.350 . S
C937 N945 1.427 . S
C938 H929 0.930 . S
C938 C936 1.378 . S
C938 C939 1.367 . S
C939 C938 1.367 . S
C939 C941 1.433 . S
C940 C936 1.350 . S
C940 C937 1.463 1_554 S
C940 N944 1.427 . S
C941 H931 0.929 . S
C941 C939 1.433 . S
C941 N944 1.384 . S
C942 H933 0.929 . S
C942 C934 1.378 . S
C942 C937 1.350 . S
C943 H930 0.929 . S
C943 C935 1.433 . S
C943 N945 1.384 . S
N944 C940 1.427 . S
N944 C941 1.384 . S
N945 C937 1.427 . S
N945 C943 1.384 . S
H946 C952 0.930 . S
H947 C956 0.930 . S
H948 C961 0.929 . S
H949 C959 0.929 . S
H950 C954 0.929 . S
H951 C960 0.929 . S
C952 H946 0.930 . S
C952 C953 1.367 1_565 S
C952 C960 1.378 . S
C953 C952 1.367 1_545 S
C953 C961 1.433 . S
C954 H950 0.929 . S
C954 C956 1.378 . S
C954 C958 1.350 1_545 S
C955 C958 1.463 1_545 S
C955 C960 1.350 1_545 S
C955 N963 1.427 . S
C956 H947 0.930 . S
C956 C954 1.378 . S
C956 C957 1.367 1_545 S
C957 C956 1.367 1_565 S
C957 C959 1.433 . S
C958 C954 1.350 1_565 S
C958 C955 1.463 1_565 S
C958 N962 1.427 . S
C959 H949 0.929 . S
C959 C957 1.433 . S
C959 N962 1.384 . S
C960 H951 0.929 . S
C960 C952 1.378 . S
C960 C955 1.350 1_565 S
C961 H948 0.929 . S
C961 C953 1.433 . S
C961 N963 1.384 . S
N962 C958 1.427 . S
N962 C959 1.384 . S
N963 C955 1.427 . S
N963 C961 1.384 . S
H964 C970 0.930 . S
H965 C974 0.930 . S
H966 C979 0.929 . S
H967 C977 0.929 . S
H968 C972 0.929 . S
H969 C978 0.929 . S
C970 H964 0.930 . S
C970 C971 1.367 . S
C970 C978 1.378 . S
C971 C970 1.367 . S
C971 C979 1.433 . S
C972 H968 0.929 . S
C972 C974 1.378 . S
C972 C976 1.350 . S
C973 C976 1.463 . S
C973 C978 1.350 . S
C973 N981 1.427 . S
C974 H965 0.930 . S
C974 C972 1.378 . S
C974 C975 1.367 . S
C975 C974 1.367 . S
C975 C977 1.433 . S
C976 C972 1.350 . S
C976 C973 1.463 . S
C976 N980 1.427 . S
C977 H967 0.929 . S
C977 C975 1.433 . S
C977 N980 1.384 . S
C978 H969 0.929 . S
C978 C970 1.378 . S
C978 C973 1.350 . S
C979 H966 0.929 . S
C979 C971 1.433 . S
C979 N981 1.384 . S
N980 C976 1.427 . S
N980 C977 1.384 . S
N981 C973 1.427 . S
N981 C979 1.384 . S
H982 C988 0.930 . S
H983 C992 0.930 . S
H984 C997 0.929 . S
H985 C995 0.929 . S
H986 C990 0.929 . S
H987 C996 0.929 . S
C988 H982 0.930 . S
C988 C989 1.367 . S
C988 C996 1.378 . S
C989 C988 1.367 . S
C989 C997 1.433 1_565 S
C990 H986 0.929 . S
C990 C992 1.378 . S
C990 C994 1.350 . S
C991 C994 1.463 1_565 S
C991 C996 1.350 . S
C991 N999 1.427 1_565 S
C992 H983 0.930 . S
C992 C990 1.378 . S
C992 C993 1.367 . S
C993 C992 1.367 . S
C993 C995 1.433 1_545 S
C994 C990 1.350 . S
C994 C991 1.463 1_545 S
C994 N998 1.427 1_545 S
C995 H985 0.929 . S
C995 C993 1.433 1_565 S
C995 N998 1.384 . S
C996 H987 0.929 . S
C996 C988 1.378 . S
C996 C991 1.350 . S
C997 H984 0.929 . S
C997 C989 1.433 1_545 S
C997 N999 1.384 . S
N998 C994 1.427 1_565 S
N998 C995 1.384 . S
N999 C991 1.427 1_545 S
N999 C997 1.384 . S
H1000 C1006 0.930 . S
H1001 C1010 0.930 . S
H1002 C1015 0.929 . S
H1003 C1013 0.929 . S
H1004 C1008 0.929 . S
H1005 C1014 0.929 . S
C1006 H1000 0.930 . S
C1006 C1007 1.367 . S
C1006 C1014 1.378 . S
C1007 C1006 1.367 . S
C1007 C1015 1.433 . S
C1008 H1004 0.929 . S
C1008 C1010 1.378 . S
C1008 C1012 1.350 . S
C1009 C1012 1.463 1_556 S
C1009 C1014 1.350 . S
C1009 N1017 1.427 . S
C1010 H1001 0.930 . S
C1010 C1008 1.378 . S
C1010 C1011 1.367 . S
C1011 C1010 1.367 . S
C1011 C1013 1.433 . S
C1012 C1008 1.350 . S
C1012 C1009 1.463 1_554 S
C1012 N1016 1.427 . S
C1013 H1003 0.929 . S
C1013 C1011 1.433 . S
C1013 N1016 1.384 . S
C1014 H1005 0.929 . S
C1014 C1006 1.378 . S
C1014 C1009 1.350 . S
C1015 H1002 0.929 . S
C1015 C1007 1.433 . S
C1015 N1017 1.384 . S
N1016 C1012 1.427 . S
N1016 C1013 1.384 . S
N1017 C1009 1.427 . S
N1017 C1015 1.384 . S
H1018 C1024 0.930 . S
H1019 C1028 0.930 . S
H1020 C1033 0.929 . S
H1021 C1031 0.929 . S
H1022 C1026 0.929 . S
H1023 C1032 0.929 . S
C1024 H1018 0.930 . S
C1024 C1025 1.367 . S
C1024 C1032 1.378 . S
C1025 C1024 1.367 . S
C1025 C1033 1.433 . S
C1026 H1022 0.929 . S
C1026 C1028 1.378 . S
C1026 C1030 1.350 . S
C1027 C1030 1.463 1_565 S
C1027 C1032 1.350 . S
C1027 N1035 1.427 . S
C1028 H1019 0.930 . S
C1028 C1026 1.378 . S
C1028 C1029 1.367 . S
C1029 C1028 1.367 . S
C1029 C1031 1.433 . S
C1030 C1026 1.350 . S
C1030 C1027 1.463 1_545 S
C1030 N1034 1.427 . S
C1031 H1021 0.929 . S
C1031 C1029 1.433 . S
C1031 N1034 1.384 . S
C1032 H1023 0.929 . S
C1032 C1024 1.378 . S
C1032 C1027 1.350 . S
C1033 H1020 0.929 . S
C1033 C1025 1.433 . S
C1033 N1035 1.384 . S
N1034 C1030 1.427 . S
N1034 C1031 1.384 . S
N1035 C1027 1.427 . S
N1035 C1033 1.384 . S
H1036 C1042 0.930 . S
H1037 C1046 0.930 . S
H1038 C1051 0.929 . S
H1039 C1049 0.929 . S
H1040 C1044 0.929 . S
H1041 C1050 0.929 . S
C1042 H1036 0.930 . S
C1042 C1043 1.367 . S
C1042 C1050 1.378 . S
C1043 C1042 1.367 . S
C1043 C1051 1.433 . S
C1044 H1040 0.929 . S
C1044 C1046 1.378 . S
C1044 C1048 1.350 . S
C1045 C1048 1.463 . S
C1045 C1050 1.350 . S
C1045 N1053 1.427 . S
C1046 H1037 0.930 . S
C1046 C1044 1.378 . S
C1046 C1047 1.367 . S
C1047 C1046 1.367 . S
C1047 C1049 1.433 . S
C1048 C1044 1.350 . S
C1048 C1045 1.463 . S
C1048 N1052 1.427 . S
C1049 H1039 0.929 . S
C1049 C1047 1.433 . S
C1049 N1052 1.384 . S
C1050 H1041 0.929 . S
C1050 C1042 1.378 . S
C1050 C1045 1.350 . S
C1051 H1038 0.929 . S
C1051 C1043 1.433 . S
C1051 N1053 1.384 . S
N1052 C1048 1.427 . S
N1052 C1049 1.384 . S
N1053 C1045 1.427 . S
N1053 C1051 1.384 . S
H1054 C1060 0.930 . S
H1055 C1064 0.930 . S
H1056 C1069 0.929 . S
H1057 C1067 0.929 . S
H1058 C1062 0.929 . S
H1059 C1068 0.929 . S
C1060 H1054 0.930 . S
C1060 C1061 1.367 1_565 S
C1060 C1068 1.378 . S
C1061 C1060 1.367 1_545 S
C1061 C1069 1.433 . S
C1062 H1058 0.929 . S
C1062 C1064 1.378 . S
C1062 C1066 1.350 1_545 S
C1063 C1066 1.463 1_545 S
C1063 C1068 1.350 1_545 S
C1063 N1071 1.427 . S
C1064 H1055 0.930 . S
C1064 C1062 1.378 . S
C1064 C1065 1.367 1_545 S
C1065 C1064 1.367 1_565 S
C1065 C1067 1.433 . S
C1066 C1062 1.350 1_565 S
C1066 C1063 1.463 1_565 S
C1066 N1070 1.427 . S
C1067 H1057 0.929 . S
C1067 C1065 1.433 . S
C1067 N1070 1.384 . S
C1068 H1059 0.929 . S
C1068 C1060 1.378 . S
C1068 C1063 1.350 1_565 S
C1069 H1056 0.929 . S
C1069 C1061 1.433 . S
C1069 N1071 1.384 . S
N1070 C1066 1.427 . S
N1070 C1067 1.384 . S
N1071 C1063 1.427 . S
N1071 C1069 1.384 . S
H1072 C1078 0.930 . S
H1073 C1082 0.930 . S
H1074 C1087 0.929 . S
H1075 C1085 0.929 . S
H1076 C1080 0.929 . S
H1077 C1086 0.929 . S
C1078 H1072 0.930 . S
C1078 C1079 1.367 . S
C1078 C1086 1.378 . S
C1079 C1078 1.367 . S
C1079 C1087 1.433 . S
C1080 H1076 0.929 . S
C1080 C1082 1.378 . S
C1080 C1084 1.350 . S
C1081 C1084 1.463 . S
C1081 C1086 1.350 . S
C1081 N1089 1.427 . S
C1082 H1073 0.930 . S
C1082 C1080 1.378 . S
C1082 C1083 1.367 . S
C1083 C1082 1.367 . S
C1083 C1085 1.433 . S
C1084 C1080 1.350 . S
C1084 C1081 1.463 . S
C1084 N1088 1.427 . S
C1085 H1075 0.929 . S
C1085 C1083 1.433 . S
C1085 N1088 1.384 . S
C1086 H1077 0.929 . S
C1086 C1078 1.378 . S
C1086 C1081 1.350 . S
C1087 H1074 0.929 . S
C1087 C1079 1.433 . S
C1087 N1089 1.384 . S
N1088 C1084 1.427 . S
N1088 C1085 1.384 . S
N1089 C1081 1.427 . S
N1089 C1087 1.384 . S
H1090 C1096 0.930 . S
H1091 C1100 0.930 . S
H1092 C1105 0.929 . S
H1093 C1103 0.929 . S
H1094 C1098 0.929 . S
H1095 C1104 0.929 . S
C1096 H1090 0.930 . S
C1096 C1097 1.367 . S
C1096 C1104 1.378 . S
C1097 C1096 1.367 . S
C1097 C1105 1.433 . S
C1098 H1094 0.929 . S
C1098 C1100 1.378 . S
C1098 C1102 1.350 . S
C1099 C1102 1.463 . S
C1099 C1104 1.350 . S
C1099 N1107 1.427 . S
C1100 H1091 0.930 . S
C1100 C1098 1.378 . S
C1100 C1101 1.367 . S
C1101 C1100 1.367 . S
C1101 C1103 1.433 . S
C1102 C1098 1.350 . S
C1102 C1099 1.463 . S
C1102 N1106 1.427 . S
C1103 H1093 0.929 . S
C1103 C1101 1.433 . S
C1103 N1106 1.384 . S
C1104 H1095 0.929 . S
C1104 C1096 1.378 . S
C1104 C1099 1.350 . S
C1105 H1092 0.929 . S
C1105 C1097 1.433 . S
C1105 N1107 1.384 . S
N1106 C1102 1.427 . S
N1106 C1103 1.384 . S
N1107 C1099 1.427 . S
N1107 C1105 1.384 . S
H1108 C1114 0.930 . S
H1109 C1118 0.930 . S
H1110 C1123 0.929 . S
H1111 C1121 0.929 . S
H1112 C1116 0.929 . S
H1113 C1122 0.929 . S
C1114 H1108 0.930 . S
C1114 C1115 1.367 . S
C1114 C1122 1.378 . S
C1115 C1114 1.367 . S
C1115 C1123 1.433 . S
C1116 H1112 0.929 . S
C1116 C1118 1.378 . S
C1116 C1120 1.350 . S
C1117 C1120 1.463 1_554 S
C1117 C1122 1.350 . S
C1117 N1125 1.427 . S
C1118 H1109 0.930 . S
C1118 C1116 1.378 . S
C1118 C1119 1.367 . S
C1119 C1118 1.367 . S
C1119 C1121 1.433 . S
C1120 C1116 1.350 . S
C1120 C1117 1.463 1_556 S
C1120 N1124 1.427 . S
C1121 H1111 0.929 . S
C1121 C1119 1.433 . S
C1121 N1124 1.384 . S
C1122 H1113 0.929 . S
C1122 C1114 1.378 . S
C1122 C1117 1.350 . S
C1123 H1110 0.929 . S
C1123 C1115 1.433 . S
C1123 N1125 1.384 . S
N1124 C1120 1.427 . S
N1124 C1121 1.384 . S
N1125 C1117 1.427 . S
N1125 C1123 1.384 . S
H1126 C1132 0.930 . S
H1127 C1136 0.930 . S
H1128 C1141 0.929 . S
H1129 C1139 0.929 . S
H1130 C1134 0.929 . S
H1131 C1140 0.929 . S
C1132 H1126 0.930 . S
C1132 C1133 1.367 . S
C1132 C1140 1.378 . S
C1133 C1132 1.367 . S
C1133 C1141 1.433 . S
C1134 H1130 0.929 . S
C1134 C1136 1.378 . S
C1134 C1138 1.350 . S
C1135 C1138 1.463 . S
C1135 C1140 1.350 . S
C1135 N1143 1.427 . S
C1136 H1127 0.930 . S
C1136 C1134 1.378 . S
C1136 C1137 1.367 . S
C1137 C1136 1.367 . S
C1137 C1139 1.433 . S
C1138 C1134 1.350 . S
C1138 C1135 1.463 . S
C1138 N1142 1.427 . S
C1139 H1129 0.929 . S
C1139 C1137 1.433 . S
C1139 N1142 1.384 . S
C1140 H1131 0.929 . S
C1140 C1132 1.378 . S
C1140 C1135 1.350 . S
C1141 H1128 0.929 . S
C1141 C1133 1.433 . S
C1141 N1143 1.384 . S
N1142 C1138 1.427 . S
N1142 C1139 1.384 . S
N1143 C1135 1.427 . S
N1143 C1141 1.384 . S
H1144 C1150 0.930 . S
H1145 C1154 0.930 . S
H1146 C1159 0.929 . S
H1147 C1157 0.929 . S
H1148 C1152 0.929 . S
H1149 C1158 0.929 . S
C1150 H1144 0.930 . S
C1150 C1151 1.367 . S
C1150 C1158 1.378 . S
C1151 C1150 1.367 . S
C1151 C1159 1.433 . S
C1152 H1148 0.929 . S
C1152 C1154 1.378 . S
C1152 C1156 1.350 . S
C1153 C1156 1.463 . S
C1153 C1158 1.350 . S
C1153 N1161 1.427 . S
C1154 H1145 0.930 . S
C1154 C1152 1.378 . S
C1154 C1155 1.367 . S
C1155 C1154 1.367 . S
C1155 C1157 1.433 . S
C1156 C1152 1.350 . S
C1156 C1153 1.463 . S
C1156 N1160 1.427 . S
C1157 H1147 0.929 . S
C1157 C1155 1.433 . S
C1157 N1160 1.384 . S
C1158 H1149 0.929 . S
C1158 C1150 1.378 . S
C1158 C1153 1.350 . S
C1159 H1146 0.929 . S
C1159 C1151 1.433 . S
C1159 N1161 1.384 . S
N1160 C1156 1.427 . S
N1160 C1157 1.384 . S
N1161 C1153 1.427 . S
N1161 C1159 1.384 . S
H1162 C1168 0.930 . S
H1163 C1172 0.930 . S
H1164 C1177 0.929 . S
H1165 C1175 0.929 . S
H1166 C1170 0.929 . S
H1167 C1176 0.929 . S
C1168 H1162 0.930 . S
C1168 C1169 1.367 . S
C1168 C1176 1.378 . S
C1169 C1168 1.367 . S
C1169 C1177 1.433 . S
C1170 H1166 0.929 . S
C1170 C1172 1.378 . S
C1170 C1174 1.350 . S
C1171 C1174 1.463 . S
C1171 C1176 1.350 . S
C1171 N1179 1.427 . S
C1172 H1163 0.930 . S
C1172 C1170 1.378 . S
C1172 C1173 1.367 . S
C1173 C1172 1.367 . S
C1173 C1175 1.433 . S
C1174 C1170 1.350 . S
C1174 C1171 1.463 . S
C1174 N1178 1.427 . S
C1175 H1165 0.929 . S
C1175 C1173 1.433 . S
C1175 N1178 1.384 . S
C1176 H1167 0.929 . S
C1176 C1168 1.378 . S
C1176 C1171 1.350 . S
C1177 H1164 0.929 . S
C1177 C1169 1.433 . S
C1177 N1179 1.384 . S
N1178 C1174 1.427 . S
N1178 C1175 1.384 . S
N1179 C1171 1.427 . S
N1179 C1177 1.384 . S
H1180 C1186 0.930 . S
H1181 C1190 0.930 . S
H1182 C1195 0.929 . S
H1183 C1193 0.929 . S
H1184 C1188 0.929 . S
H1185 C1194 0.929 . S
C1186 H1180 0.930 . S
C1186 C1187 1.367 . S
C1186 C1194 1.378 . S
C1187 C1186 1.367 . S
C1187 C1195 1.433 . S
C1188 H1184 0.929 . S
C1188 C1190 1.378 . S
C1188 C1192 1.350 . S
C1189 C1192 1.463 1_556 S
C1189 C1194 1.350 . S
C1189 N1197 1.427 . S
C1190 H1181 0.930 . S
C1190 C1188 1.378 . S
C1190 C1191 1.367 . S
C1191 C1190 1.367 . S
C1191 C1193 1.433 . S
C1192 C1188 1.350 . S
C1192 C1189 1.463 1_554 S
C1192 N1196 1.427 . S
C1193 H1183 0.929 . S
C1193 C1191 1.433 . S
C1193 N1196 1.384 . S
C1194 H1185 0.929 . S
C1194 C1186 1.378 . S
C1194 C1189 1.350 . S
C1195 H1182 0.929 . S
C1195 C1187 1.433 . S
C1195 N1197 1.384 . S
N1196 C1192 1.427 . S
N1196 C1193 1.384 . S
N1197 C1189 1.427 . S
N1197 C1195 1.384 . S
H1198 C1204 0.930 . S
H1199 C1208 0.930 . S
H1200 C1213 0.929 . S
H1201 C1211 0.929 . S
H1202 C1206 0.929 . S
H1203 C1212 0.929 . S
C1204 H1198 0.930 . S
C1204 C1205 1.367 . S
C1204 C1212 1.378 . S
C1205 C1204 1.367 . S
C1205 C1213 1.433 . S
C1206 H1202 0.929 . S
C1206 C1208 1.378 . S
C1206 C1210 1.350 . S
C1207 C1210 1.463 . S
C1207 C1212 1.350 . S
C1207 N1215 1.427 . S
C1208 H1199 0.930 . S
C1208 C1206 1.378 . S
C1208 C1209 1.367 . S
C1209 C1208 1.367 . S
C1209 C1211 1.433 . S
C1210 C1206 1.350 . S
C1210 C1207 1.463 . S
C1210 N1214 1.427 . S
C1211 H1201 0.929 . S
C1211 C1209 1.433 . S
C1211 N1214 1.384 . S
C1212 H1203 0.929 . S
C1212 C1204 1.378 . S
C1212 C1207 1.350 . S
C1213 H1200 0.929 . S
C1213 C1205 1.433 . S
C1213 N1215 1.384 . S
N1214 C1210 1.427 . S
N1214 C1211 1.384 . S
N1215 C1207 1.427 . S
N1215 C1213 1.384 . S
C359 C272 1.538 . S
C363 C8 1.565 . S
C377 C19 1.566 . S
C381 C107 1.533 . S
C395 C294 1.528 . S
C399 C30 1.564 . S
C413 C41 1.564 . S
C417 C129 1.535 . S
C431 C52 1.564 . S
C435 C316 1.532 . S
C449 C63 1.566 . S
C453 C151 1.530 . S
C467 C74 1.564 . S
C471 C338 1.536 . S
C485 C173 1.536 . S
C489 C85 1.564 . S
C503 C184 1.565 . S
C507 C96 1.528 . S
C521 C118 1.538 . S
C525 C206 1.564 . S
C539 C228 1.566 . S
C543 C140 1.536 . S
C557 C250 1.566 . S
C561 C162 1.534 . S
C575 C283 1.538 . S
C579 C195 1.565 . S
C593 C217 1.566 . S
C597 C305 1.530 . S
C611 C327 1.527 . S
C615 C239 1.565 . S
C629 C349 1.538 . S
C633 C261 1.564 . S
C647 C236 1.373 . S
C651 C5 1.372 . S
C665 C247 1.364 . S
C669 C16 1.384 . S
C683 C27 1.378 . S
C687 C258 1.370 . S
C701 C38 1.371 . S
C705 C225 1.376 . S
C719 C214 1.382 . S
C723 C49 1.366 . S
C737 C60 1.376 . S
C741 C181 1.370 . S
C755 C71 1.374 . S
C759 C192 1.374 . S
C773 C82 1.385 . S
C777 C203 1.363 . S
C791 C93 1.301 . S
C795 C324 1.307 . S
C809 C104 1.285 . S
C813 C335 1.308 . S
C827 C346 1.299 . S
C831 C115 1.308 . S
C845 C126 1.294 . S
C849 C313 1.280 . S
C863 C302 1.298 . S
C867 C137 1.280 . S
C881 C148 1.298 . S
C885 C269 1.309 . S
C899 C280 1.282 . S
C903 C159 1.305 . S
C917 C291 1.309 . S
C921 C170 1.289 . S
C935 C73 1.531 . S
C939 C7 1.530 . S
C953 C84 1.530 . S
C957 C18 1.532 . S
C971 C51 1.535 . S
C975 C29 1.538 . S
C989 C62 1.540 . S
C993 C40 1.538 . S
C1007 C95 1.491 . S
C1011 C161 1.500 . S
C1025 C172 1.486 . S
C1029 C106 1.500 . S
C1043 C117 1.489 . S
C1047 C139 1.501 . S
C1061 C150 1.500 . S
C1065 C128 1.491 . S
C1079 C183 1.535 . S
C1083 C249 1.538 . S
C1097 C194 1.539 . S
C1101 C260 1.537 . S
C1115 C205 1.534 . S
C1119 C227 1.531 . S
C1133 C216 1.536 . S
C1137 C238 1.539 . S
C1151 C337 1.486 . S
C1155 C271 1.500 . S
C1169 C348 1.485 . S
C1173 C282 1.498 . S
C1187 C293 1.486 . S
C1191 C315 1.501 . S
C1205 C326 1.497 . S
C1209 C304 1.494 . S
