# Generated by pormake.
# Topology ulj, (4)-cn, num edge types: 1
# Building blocks:
#     Node 0, Type 0, BuildingBlock: KOZSID_clean_sbu_0, # of connection points: 4
#     Node 1, Type 0, BuildingBlock: KOZSID_clean_sbu_0, # of connection points: 4
#     Node 2, Type 0, BuildingBlock: KOZSID_clean_sbu_0, # of connection points: 4
#     Node 3, Type 0, BuildingBlock: KOZSID_clean_sbu_0, # of connection points: 4
#     Node 4, Type 0, BuildingBlock: KOZSID_clean_sbu_0, # of connection points: 4
#     Node 5, Type 0, BuildingBlock: KOZSID_clean_sbu_0, # of connection points: 4
#     Node 6, Type 0, BuildingBlock: KOZSID_clean_sbu_0, # of connection points: 4
#     Node 7, Type 0, BuildingBlock: KOZSID_clean_sbu_0, # of connection points: 4
#     Node 8, Type 0, BuildingBlock: KOZSID_clean_sbu_0, # of connection points: 4
#     Node 9, Type 0, BuildingBlock: KOZSID_clean_sbu_0, # of connection points: 4
#     Node 10, Type 0, BuildingBlock: KOZSID_clean_sbu_0, # of connection points: 4
#     Node 11, Type 0, BuildingBlock: KOZSID_clean_sbu_0, # of connection points: 4
#     Node 12, Type 0, BuildingBlock: KOZSID_clean_sbu_0, # of connection points: 4
#     Node 13, Type 0, BuildingBlock: KOZSID_clean_sbu_0, # of connection points: 4
#     Node 14, Type 0, BuildingBlock: KOZSID_clean_sbu_0, # of connection points: 4
#     Node 15, Type 0, BuildingBlock: KOZSID_clean_sbu_0, # of connection points: 4
#     Node 16, Type 0, BuildingBlock: KOZSID_clean_sbu_0, # of connection points: 4
#     Node 17, Type 0, BuildingBlock: KOZSID_clean_sbu_0, # of connection points: 4
#     Node 18, Type 0, BuildingBlock: KOZSID_clean_sbu_0, # of connection points: 4
#     Node 19, Type 0, BuildingBlock: KOZSID_clean_sbu_0, # of connection points: 4
#     Node 20, Type 0, BuildingBlock: KOZSID_clean_sbu_0, # of connection points: 4
#     Node 21, Type 0, BuildingBlock: KOZSID_clean_sbu_0, # of connection points: 4
#     Node 22, Type 0, BuildingBlock: KOZSID_clean_sbu_0, # of connection points: 4
#     Node 23, Type 0, BuildingBlock: KOZSID_clean_sbu_0, # of connection points: 4
#     Node 24, Type 0, BuildingBlock: KOZSID_clean_sbu_0, # of connection points: 4
#     Node 25, Type 0, BuildingBlock: KOZSID_clean_sbu_0, # of connection points: 4
#     Node 26, Type 0, BuildingBlock: KOZSID_clean_sbu_0, # of connection points: 4
#     Node 27, Type 0, BuildingBlock: KOZSID_clean_sbu_0, # of connection points: 4
#     Node 28, Type 0, BuildingBlock: KOZSID_clean_sbu_0, # of connection points: 4
#     Node 29, Type 0, BuildingBlock: KOZSID_clean_sbu_0, # of connection points: 4
#     Node 30, Type 0, BuildingBlock: KOZSID_clean_sbu_0, # of connection points: 4
#     Node 31, Type 0, BuildingBlock: KOZSID_clean_sbu_0, # of connection points: 4
#     Node 32, Type 0, BuildingBlock: KOZSID_clean_sbu_0, # of connection points: 4
#     Node 33, Type 0, BuildingBlock: KOZSID_clean_sbu_0, # of connection points: 4
#     Node 34, Type 0, BuildingBlock: KOZSID_clean_sbu_0, # of connection points: 4
#     Node 35, Type 0, BuildingBlock: KOZSID_clean_sbu_0, # of connection points: 4
#     Node 36, Type 0, BuildingBlock: KOZSID_clean_sbu_0, # of connection points: 4
#     Node 37, Type 0, BuildingBlock: KOZSID_clean_sbu_0, # of connection points: 4
#     Node 38, Type 0, BuildingBlock: KOZSID_clean_sbu_0, # of connection points: 4
#     Node 39, Type 0, BuildingBlock: KOZSID_clean_sbu_0, # of connection points: 4
#     Node 40, Type 0, BuildingBlock: KOZSID_clean_sbu_0, # of connection points: 4
#     Node 41, Type 0, BuildingBlock: KOZSID_clean_sbu_0, # of connection points: 4
#     Node 42, Type 0, BuildingBlock: KOZSID_clean_sbu_0, # of connection points: 4
#     Node 43, Type 0, BuildingBlock: KOZSID_clean_sbu_0, # of connection points: 4
#     Node 44, Type 0, BuildingBlock: KOZSID_clean_sbu_0, # of connection points: 4
#     Node 45, Type 0, BuildingBlock: KOZSID_clean_sbu_0, # of connection points: 4
#     Node 46, Type 0, BuildingBlock: KOZSID_clean_sbu_0, # of connection points: 4
#     Node 47, Type 0, BuildingBlock: KOZSID_clean_sbu_0, # of connection points: 4
#     Edge 48, Type (0, 0), BuildingBlock: XIVTED_clean_linker_0, # of connection points: 2
#     Edge 49, Type (0, 0), BuildingBlock: XIVTED_clean_linker_0, # of connection points: 2
#     Edge 50, Type (0, 0), BuildingBlock: XIVTED_clean_linker_0, # of connection points: 2
#     Edge 51, Type (0, 0), BuildingBlock: XIVTED_clean_linker_0, # of connection points: 2
#     Edge 52, Type (0, 0), BuildingBlock: XIVTED_clean_linker_0, # of connection points: 2
#     Edge 53, Type (0, 0), BuildingBlock: XIVTED_clean_linker_0, # of connection points: 2
#     Edge 54, Type (0, 0), BuildingBlock: XIVTED_clean_linker_0, # of connection points: 2
#     Edge 55, Type (0, 0), BuildingBlock: XIVTED_clean_linker_0, # of connection points: 2
#     Edge 56, Type (0, 0), BuildingBlock: XIVTED_clean_linker_0, # of connection points: 2
#     Edge 57, Type (0, 0), BuildingBlock: XIVTED_clean_linker_0, # of connection points: 2
#     Edge 58, Type (0, 0), BuildingBlock: XIVTED_clean_linker_0, # of connection points: 2
#     Edge 59, Type (0, 0), BuildingBlock: XIVTED_clean_linker_0, # of connection points: 2
#     Edge 60, Type (0, 0), BuildingBlock: XIVTED_clean_linker_0, # of connection points: 2
#     Edge 61, Type (0, 0), BuildingBlock: XIVTED_clean_linker_0, # of connection points: 2
#     Edge 62, Type (0, 0), BuildingBlock: XIVTED_clean_linker_0, # of connection points: 2
#     Edge 63, Type (0, 0), BuildingBlock: XIVTED_clean_linker_0, # of connection points: 2
#     Edge 64, Type (0, 0), BuildingBlock: XIVTED_clean_linker_0, # of connection points: 2
#     Edge 65, Type (0, 0), BuildingBlock: XIVTED_clean_linker_0, # of connection points: 2
#     Edge 66, Type (0, 0), BuildingBlock: XIVTED_clean_linker_0, # of connection points: 2
#     Edge 67, Type (0, 0), BuildingBlock: XIVTED_clean_linker_0, # of connection points: 2
#     Edge 68, Type (0, 0), BuildingBlock: XIVTED_clean_linker_0, # of connection points: 2
#     Edge 69, Type (0, 0), BuildingBlock: XIVTED_clean_linker_0, # of connection points: 2
#     Edge 70, Type (0, 0), BuildingBlock: XIVTED_clean_linker_0, # of connection points: 2
#     Edge 71, Type (0, 0), BuildingBlock: XIVTED_clean_linker_0, # of connection points: 2
#     Edge 72, Type (0, 0), BuildingBlock: XIVTED_clean_linker_0, # of connection points: 2
#     Edge 73, Type (0, 0), BuildingBlock: XIVTED_clean_linker_0, # of connection points: 2
#     Edge 74, Type (0, 0), BuildingBlock: XIVTED_clean_linker_0, # of connection points: 2
#     Edge 75, Type (0, 0), BuildingBlock: XIVTED_clean_linker_0, # of connection points: 2
#     Edge 76, Type (0, 0), BuildingBlock: XIVTED_clean_linker_0, # of connection points: 2
#     Edge 77, Type (0, 0), BuildingBlock: XIVTED_clean_linker_0, # of connection points: 2
#     Edge 78, Type (0, 0), BuildingBlock: XIVTED_clean_linker_0, # of connection points: 2
#     Edge 79, Type (0, 0), BuildingBlock: XIVTED_clean_linker_0, # of connection points: 2
#     Edge 80, Type (0, 0), BuildingBlock: XIVTED_clean_linker_0, # of connection points: 2
#     Edge 81, Type (0, 0), BuildingBlock: XIVTED_clean_linker_0, # of connection points: 2
#     Edge 82, Type (0, 0), BuildingBlock: XIVTED_clean_linker_0, # of connection points: 2
#     Edge 83, Type (0, 0), BuildingBlock: XIVTED_clean_linker_0, # of connection points: 2
#     Edge 84, Type (0, 0), BuildingBlock: XIVTED_clean_linker_0, # of connection points: 2
#     Edge 85, Type (0, 0), BuildingBlock: XIVTED_clean_linker_0, # of connection points: 2
#     Edge 86, Type (0, 0), BuildingBlock: XIVTED_clean_linker_0, # of connection points: 2
#     Edge 87, Type (0, 0), BuildingBlock: XIVTED_clean_linker_0, # of connection points: 2
#     Edge 88, Type (0, 0), BuildingBlock: XIVTED_clean_linker_0, # of connection points: 2
#     Edge 89, Type (0, 0), BuildingBlock: XIVTED_clean_linker_0, # of connection points: 2
#     Edge 90, Type (0, 0), BuildingBlock: XIVTED_clean_linker_0, # of connection points: 2
#     Edge 91, Type (0, 0), BuildingBlock: XIVTED_clean_linker_0, # of connection points: 2
#     Edge 92, Type (0, 0), BuildingBlock: XIVTED_clean_linker_0, # of connection points: 2
#     Edge 93, Type (0, 0), BuildingBlock: XIVTED_clean_linker_0, # of connection points: 2
#     Edge 94, Type (0, 0), BuildingBlock: XIVTED_clean_linker_0, # of connection points: 2
#     Edge 95, Type (0, 0), BuildingBlock: XIVTED_clean_linker_0, # of connection points: 2
#     Edge 96, Type (0, 0), BuildingBlock: XIVTED_clean_linker_0, # of connection points: 2
#     Edge 97, Type (0, 0), BuildingBlock: XIVTED_clean_linker_0, # of connection points: 2
#     Edge 98, Type (0, 0), BuildingBlock: XIVTED_clean_linker_0, # of connection points: 2
#     Edge 99, Type (0, 0), BuildingBlock: XIVTED_clean_linker_0, # of connection points: 2
#     Edge 100, Type (0, 0), BuildingBlock: XIVTED_clean_linker_0, # of connection points: 2
#     Edge 101, Type (0, 0), BuildingBlock: XIVTED_clean_linker_0, # of connection points: 2
#     Edge 102, Type (0, 0), BuildingBlock: XIVTED_clean_linker_0, # of connection points: 2
#     Edge 103, Type (0, 0), BuildingBlock: XIVTED_clean_linker_0, # of connection points: 2
#     Edge 104, Type (0, 0), BuildingBlock: XIVTED_clean_linker_0, # of connection points: 2
#     Edge 105, Type (0, 0), BuildingBlock: XIVTED_clean_linker_0, # of connection points: 2
#     Edge 106, Type (0, 0), BuildingBlock: XIVTED_clean_linker_0, # of connection points: 2
#     Edge 107, Type (0, 0), BuildingBlock: XIVTED_clean_linker_0, # of connection points: 2
#     Edge 108, Type (0, 0), BuildingBlock: XIVTED_clean_linker_0, # of connection points: 2
#     Edge 109, Type (0, 0), BuildingBlock: XIVTED_clean_linker_0, # of connection points: 2
#     Edge 110, Type (0, 0), BuildingBlock: XIVTED_clean_linker_0, # of connection points: 2
#     Edge 111, Type (0, 0), BuildingBlock: XIVTED_clean_linker_0, # of connection points: 2
#     Edge 112, Type (0, 0), BuildingBlock: XIVTED_clean_linker_0, # of connection points: 2
#     Edge 113, Type (0, 0), BuildingBlock: XIVTED_clean_linker_0, # of connection points: 2
#     Edge 114, Type (0, 0), BuildingBlock: XIVTED_clean_linker_0, # of connection points: 2
#     Edge 115, Type (0, 0), BuildingBlock: XIVTED_clean_linker_0, # of connection points: 2
#     Edge 116, Type (0, 0), BuildingBlock: XIVTED_clean_linker_0, # of connection points: 2
#     Edge 117, Type (0, 0), BuildingBlock: XIVTED_clean_linker_0, # of connection points: 2
#     Edge 118, Type (0, 0), BuildingBlock: XIVTED_clean_linker_0, # of connection points: 2
#     Edge 119, Type (0, 0), BuildingBlock: XIVTED_clean_linker_0, # of connection points: 2
#     Edge 120, Type (0, 0), BuildingBlock: XIVTED_clean_linker_0, # of connection points: 2
#     Edge 121, Type (0, 0), BuildingBlock: XIVTED_clean_linker_0, # of connection points: 2
#     Edge 122, Type (0, 0), BuildingBlock: XIVTED_clean_linker_0, # of connection points: 2
#     Edge 123, Type (0, 0), BuildingBlock: XIVTED_clean_linker_0, # of connection points: 2
#     Edge 124, Type (0, 0), BuildingBlock: XIVTED_clean_linker_0, # of connection points: 2
#     Edge 125, Type (0, 0), BuildingBlock: XIVTED_clean_linker_0, # of connection points: 2
#     Edge 126, Type (0, 0), BuildingBlock: XIVTED_clean_linker_0, # of connection points: 2
#     Edge 127, Type (0, 0), BuildingBlock: XIVTED_clean_linker_0, # of connection points: 2
#     Edge 128, Type (0, 0), BuildingBlock: XIVTED_clean_linker_0, # of connection points: 2
#     Edge 129, Type (0, 0), BuildingBlock: XIVTED_clean_linker_0, # of connection points: 2
#     Edge 130, Type (0, 0), BuildingBlock: XIVTED_clean_linker_0, # of connection points: 2
#     Edge 131, Type (0, 0), BuildingBlock: XIVTED_clean_linker_0, # of connection points: 2
#     Edge 132, Type (0, 0), BuildingBlock: XIVTED_clean_linker_0, # of connection points: 2
#     Edge 133, Type (0, 0), BuildingBlock: XIVTED_clean_linker_0, # of connection points: 2
#     Edge 134, Type (0, 0), BuildingBlock: XIVTED_clean_linker_0, # of connection points: 2
#     Edge 135, Type (0, 0), BuildingBlock: XIVTED_clean_linker_0, # of connection points: 2
#     Edge 136, Type (0, 0), BuildingBlock: XIVTED_clean_linker_0, # of connection points: 2
#     Edge 137, Type (0, 0), BuildingBlock: XIVTED_clean_linker_0, # of connection points: 2
#     Edge 138, Type (0, 0), BuildingBlock: XIVTED_clean_linker_0, # of connection points: 2
#     Edge 139, Type (0, 0), BuildingBlock: XIVTED_clean_linker_0, # of connection points: 2
#     Edge 140, Type (0, 0), BuildingBlock: XIVTED_clean_linker_0, # of connection points: 2
#     Edge 141, Type (0, 0), BuildingBlock: XIVTED_clean_linker_0, # of connection points: 2
#     Edge 142, Type (0, 0), BuildingBlock: XIVTED_clean_linker_0, # of connection points: 2
#     Edge 143, Type (0, 0), BuildingBlock: XIVTED_clean_linker_0, # of connection points: 2
# Relax obj value: 0.027
# Max RMSD: 0.196
# Mean RMSD: 0.196
data_MOF--net-ulj--node1-KOZSID_clean_sbu_0--edge1-XIVTED_clean_linker_0
_symmetry_space_group_name_H-M    P1
_symmetry_Int_Tables_number       1
_symmetry_cell_setting            triclinic
loop_
_symmetry_equiv_pos_as_xyz
'x, y, z'
_cell_length_a     80.300162
_cell_length_b     80.246842
_cell_length_c     80.286682
_cell_angle_alpha  90.00959
_cell_angle_beta   89.980619
_cell_angle_gamma 89.977812
loop_
_atom_site_label
_atom_site_type_symbol
_atom_site_fract_x
_atom_site_fract_y
_atom_site_fract_z
_atom_type_partial_charge
C0 C 0.14461 0.26856 0.28375 0.0
C1 C 0.13771 0.26886 0.2679 0.0
C2 C 0.12259 0.26102 0.26904 0.0
C3 C 0.12111 0.25647 0.28546 0.0
N4 N 0.13431 0.26101 0.29469 0.0
Co5 Co 0.13734 0.25701 0.31884 0.0
N6 N 0.1207 0.23868 0.31871 0.0
C7 C 0.1093 0.23601 0.30667 0.0
C8 C 0.09873 0.22308 0.31012 0.0
C9 C 0.10353 0.21739 0.32543 0.0
C10 C 0.11689 0.22721 0.33053 0.0
N11 N 0.14016 0.25326 0.34317 0.0
C12 C 0.13463 0.24067 0.35303 0.0
C13 C 0.13914 0.24339 0.36951 0.0
C14 C 0.14725 0.25842 0.37001 0.0
C15 C 0.14738 0.26401 0.35386 0.0
N16 N 0.15405 0.27525 0.31859 0.0
C17 C 0.1597 0.28368 0.33189 0.0
C18 C 0.17198 0.2949 0.3278 0.0
C19 C 0.17415 0.29335 0.31088 0.0
C20 C 0.16298 0.2813 0.30558 0.0
N21 N 0.11962 0.2732 0.32385 0.0
C22 C 0.09677 0.29759 0.33452 0.0
C23 C 0.10848 0.30111 0.32201 0.0
C24 C 0.11968 0.28872 0.31676 0.0
C25 C 0.09641 0.28141 0.34105 0.0
C26 C 0.10782 0.2695 0.33558 0.0
N27 N 0.15533 0.24111 0.31411 0.0
C28 C 0.18355 0.23229 0.31932 0.0
C29 C 0.18316 0.22159 0.30556 0.0
C30 C 0.16828 0.22052 0.29641 0.0
C31 C 0.15446 0.23027 0.30098 0.0
C32 C 0.16963 0.24187 0.32333 0.0
H33 H 0.14322 0.22936 0.29367 0.0
H34 H 0.17072 0.25035 0.33364 0.0
H35 H 0.12869 0.29184 0.30729 0.0
H36 H 0.10738 0.25744 0.34137 0.0
C37 C 0.10963 0.24505 0.29178 0.0
C38 C 0.16062 0.27605 0.28817 0.0
C39 C 0.12364 0.227 0.34761 0.0
C40 C 0.15583 0.27816 0.348 0.0
H41 H 0.14311 0.27405 0.25669 0.0
H42 H 0.11415 0.25816 0.25892 0.0
H43 H 0.08867 0.21839 0.30247 0.0
H44 H 0.09729 0.20763 0.33229 0.0
H45 H 0.13652 0.23553 0.38014 0.0
H46 H 0.15263 0.26441 0.38082 0.0
H47 H 0.17922 0.30254 0.33622 0.0
H48 H 0.18309 0.30012 0.30342 0.0
H49 H 0.1091 0.31336 0.31639 0.0
H50 H 0.08778 0.27805 0.35087 0.0
H51 H 0.19476 0.23377 0.32666 0.0
H52 H 0.16731 0.21227 0.28578 0.0
C53 C 0.53333 0.59857 0.95123 0.0
C54 C 0.54172 0.58408 0.94682 0.0
C55 C 0.53473 0.57855 0.93229 0.0
C56 C 0.5226 0.58998 0.92853 0.0
N57 N 0.52174 0.60261 0.93959 0.0
Co58 Co 0.50536 0.62124 0.93891 0.0
N59 N 0.49891 0.61615 0.91549 0.0
C60 C 0.50206 0.60188 0.90726 0.0
C61 C 0.4962 0.60203 0.89119 0.0
C62 C 0.48886 0.61734 0.88918 0.0
C63 C 0.4907 0.6257 0.90419 0.0
N64 N 0.48874 0.63962 0.93832 0.0
C65 C 0.48138 0.64716 0.92514 0.0
C66 C 0.47097 0.66 0.93033 0.0
C67 C 0.47168 0.66031 0.94733 0.0
C68 C 0.48252 0.64782 0.95157 0.0
N69 N 0.51191 0.62675 0.96227 0.0
C70 C 0.50348 0.63689 0.97268 0.0
C71 C 0.5106 0.63831 0.98809 0.0
C72 C 0.52424 0.62818 0.98758 0.0
C73 C 0.52469 0.62104 0.97178 0.0
N74 N 0.52268 0.63631 0.93047 0.0
C75 C 0.54742 0.65733 0.91723 0.0
C76 C 0.5368 0.66287 0.93002 0.0
C77 C 0.52456 0.65215 0.93649 0.0
C78 C 0.54525 0.64107 0.91128 0.0
C79 C 0.53294 0.63087 0.91802 0.0
N80 N 0.48819 0.60568 0.94708 0.0
C81 C 0.48173 0.58185 0.96416 0.0
C82 C 0.46802 0.57784 0.95414 0.0
C83 C 0.46367 0.58914 0.94148 0.0
C84 C 0.47376 0.60311 0.93834 0.0
C85 C 0.49163 0.59559 0.96036 0.0
H86 H 0.47034 0.6113 0.92826 0.0
H87 H 0.50255 0.5974 0.9678 0.0
H88 H 0.5166 0.6567 0.94631 0.0
H89 H 0.53168 0.61856 0.91292 0.0
C90 C 0.51283 0.59002 0.91409 0.0
C91 C 0.53526 0.60664 0.96759 0.0
C92 C 0.48345 0.64212 0.90769 0.0
C93 C 0.48965 0.64582 0.96723 0.0
H94 H 0.55145 0.57784 0.95374 0.0
H95 H 0.53813 0.56753 0.92529 0.0
H96 H 0.49765 0.59243 0.88183 0.0
H97 H 0.4828 0.62183 0.87801 0.0
H98 H 0.46377 0.66844 0.92269 0.0
H99 H 0.46575 0.66922 0.95555 0.0
H100 H 0.50635 0.64577 0.99849 0.0
H101 H 0.53237 0.62579 0.99803 0.0
H102 H 0.53803 0.6753 0.9351 0.0
H103 H 0.55281 0.63627 0.90119 0.0
H104 H 0.48525 0.57412 0.97463 0.0
H105 H 0.45305 0.58686 0.9335 0.0
C106 C 0.87106 0.24918 0.28443 0.0
C107 C 0.87789 0.24971 0.26855 0.0
C108 C 0.89276 0.25799 0.26993 0.0
C109 C 0.89418 0.26195 0.28651 0.0
N110 N 0.88118 0.25662 0.29562 0.0
Co111 Co 0.8781 0.25962 0.31992 0.0
N112 N 0.89433 0.27832 0.32047 0.0
C113 C 0.90542 0.282 0.30841 0.0
C114 C 0.91534 0.29537 0.31223 0.0
C115 C 0.91043 0.30024 0.3278 0.0
C116 C 0.89776 0.28948 0.33268 0.0
N117 N 0.87527 0.26234 0.34439 0.0
C118 C 0.88084 0.27448 0.35478 0.0
C119 C 0.87692 0.27079 0.37122 0.0
C120 C 0.86896 0.25568 0.37111 0.0
C121 C 0.86843 0.25097 0.35469 0.0
N122 N 0.86177 0.24106 0.31902 0.0
C123 C 0.85632 0.23201 0.33201 0.0
C124 C 0.84432 0.22066 0.32753 0.0
C125 C 0.84211 0.22274 0.31067 0.0
C126 C 0.85299 0.23524 0.3058 0.0
N127 N 0.89615 0.24359 0.32423 0.0
C128 C 0.91895 0.21891 0.33433 0.0
C129 C 0.9074 0.2158 0.32157 0.0
C130 C 0.89623 0.22832 0.31662 0.0
C131 C 0.9193 0.23493 0.34128 0.0
C132 C 0.90792 0.247 0.33607 0.0
N133 N 0.85978 0.27531 0.31583 0.0
C134 C 0.83133 0.28326 0.32122 0.0
C135 C 0.83149 0.29437 0.30777 0.0
C136 C 0.8464 0.29612 0.29875 0.0
C137 C 0.86043 0.2866 0.30308 0.0
C138 C 0.84549 0.27392 0.325 0.0
H139 H 0.87166 0.28803 0.29583 0.0
H140 H 0.84459 0.26509 0.33503 0.0
H141 H 0.8873 0.22546 0.307 0.0
H142 H 0.90831 0.2589 0.34218 0.0
C143 C 0.90527 0.27356 0.29318 0.0
C144 C 0.85528 0.24109 0.28859 0.0
C145 C 0.89146 0.28858 0.34986 0.0
C146 C 0.8602 0.23692 0.34831 0.0
H147 H 0.87259 0.24482 0.25716 0.0
H148 H 0.90103 0.26153 0.25989 0.0
H149 H 0.92498 0.30092 0.30462 0.0
H150 H 0.91604 0.31015 0.33501 0.0
H151 H 0.87991 0.27806 0.38217 0.0
H152 H 0.86404 0.249 0.38174 0.0
H153 H 0.8373 0.2125 0.33566 0.0
H154 H 0.83337 0.216 0.30296 0.0
H155 H 0.90682 0.20373 0.31557 0.0
H156 H 0.92784 0.23799 0.35126 0.0
H157 H 0.82013 0.28128 0.32845 0.0
H158 H 0.84721 0.30472 0.28839 0.0
C159 C 0.48223 0.91459 0.95401 0.0
C160 C 0.47183 0.92792 0.95031 0.0
C161 C 0.47669 0.93393 0.93512 0.0
C162 C 0.48967 0.92391 0.93029 0.0
N163 N 0.49305 0.9117 0.94132 0.0
Co164 Co 0.51128 0.895 0.93916 0.0
N165 N 0.51471 0.90024 0.91514 0.0
C166 C 0.50902 0.91376 0.90705 0.0
C167 C 0.51253 0.91342 0.89031 0.0
C168 C 0.52099 0.89879 0.88772 0.0
C169 C 0.5223 0.89105 0.90311 0.0
N170 N 0.52974 0.87869 0.93709 0.0
C171 C 0.53663 0.87189 0.92331 0.0
C172 C 0.54982 0.86147 0.92743 0.0
C173 C 0.55101 0.8616 0.94443 0.0
C174 C 0.53862 0.87214 0.9497 0.0
N175 N 0.50784 0.88936 0.96311 0.0
C176 C 0.51854 0.88068 0.97273 0.0
C177 C 0.5133 0.87893 0.98885 0.0
C178 C 0.49852 0.88732 0.98964 0.0
C179 C 0.49553 0.89383 0.97385 0.0
N180 N 0.49503 0.87786 0.9327 0.0
C181 C 0.47213 0.85366 0.92177 0.0
C182 C 0.48479 0.84955 0.93312 0.0
C183 C 0.49603 0.86186 0.93854 0.0
C184 C 0.47125 0.87013 0.91611 0.0
C185 C 0.48275 0.88191 0.92162 0.0
N186 N 0.52738 0.91246 0.94533 0.0
C187 C 0.53385 0.93667 0.96186 0.0
C188 C 0.54709 0.94087 0.95129 0.0
C189 C 0.55093 0.92981 0.93827 0.0
C190 C 0.54104 0.91562 0.93561 0.0
C191 C 0.52419 0.92261 0.95863 0.0
H192 H 0.5441 0.90756 0.92531 0.0
H193 H 0.51379 0.92038 0.96669 0.0
H194 H 0.5056 0.85841 0.94731 0.0
H195 H 0.48178 0.89428 0.91662 0.0
C196 C 0.49777 0.92454 0.91486 0.0
C197 C 0.48288 0.9067 0.97056 0.0
C198 C 0.53133 0.87543 0.90622 0.0
C199 C 0.53294 0.87361 0.96602 0.0
H200 H 0.46212 0.93312 0.95809 0.0
H201 H 0.47133 0.94429 0.92836 0.0
H202 H 0.5086 0.92228 0.88093 0.0
H203 H 0.52546 0.89431 0.87583 0.0
H204 H 0.55768 0.85442 0.91904 0.0
H205 H 0.55937 0.85427 0.95205 0.0
H206 H 0.51956 0.87249 0.99891 0.0
H207 H 0.4913 0.88912 1.00086 0.0
H208 H 0.48594 0.83698 0.93788 0.0
H209 H 0.46194 0.87389 0.90709 0.0
H210 H 0.53068 0.94434 0.97249 0.0
H211 H 0.5611 0.93236 0.92979 0.0
C212 C 0.14399 0.74847 0.23033 0.0
C213 C 0.13717 0.74894 0.24621 0.0
C214 C 0.1224 0.75742 0.24492 0.0
C215 C 0.12103 0.76156 0.22838 0.0
N216 N 0.13396 0.75614 0.21921 0.0
Co217 Co 0.13707 0.75935 0.19493 0.0
N218 N 0.12103 0.77825 0.19456 0.0
C219 C 0.11001 0.78197 0.20669 0.0
C220 C 0.1002 0.79544 0.20299 0.0
C221 C 0.10508 0.80036 0.18743 0.0
C222 C 0.11762 0.78951 0.18242 0.0
N223 N 0.13992 0.76227 0.17048 0.0
C224 C 0.13439 0.77451 0.16018 0.0
C225 C 0.13831 0.77093 0.14372 0.0
C226 C 0.14621 0.75578 0.1437 0.0
C227 C 0.14671 0.75095 0.16009 0.0
N228 N 0.15323 0.74061 0.19566 0.0
C229 C 0.15863 0.73166 0.18258 0.0
C230 C 0.17054 0.72015 0.18695 0.0
C231 C 0.17274 0.72204 0.20382 0.0
C232 C 0.16195 0.73457 0.20882 0.0
N233 N 0.11885 0.74356 0.19045 0.0
C234 C 0.09566 0.71936 0.18013 0.0
C235 C 0.10728 0.71587 0.19273 0.0
C236 C 0.11863 0.72817 0.19781 0.0
C237 C 0.09548 0.73548 0.17343 0.0
C238 C 0.10706 0.7473 0.17874 0.0
N239 N 0.15554 0.77482 0.19918 0.0
C240 C 0.18399 0.7827 0.19373 0.0
C241 C 0.18389 0.79379 0.2072 0.0
C242 C 0.16903 0.79552 0.2163 0.0
C243 C 0.15497 0.78604 0.212 0.0
C244 C 0.1698 0.7734 0.18997 0.0
H245 H 0.14377 0.78749 0.21928 0.0
H246 H 0.17064 0.76461 0.17989 0.0
H247 H 0.12758 0.72504 0.20734 0.0
H248 H 0.10677 0.75928 0.17281 0.0
C249 C 0.11009 0.77338 0.22184 0.0
C250 C 0.1597 0.74025 0.2261 0.0
C251 C 0.12375 0.78858 0.16518 0.0
C252 C 0.15482 0.73678 0.16634 0.0
H253 H 0.14241 0.74387 0.25755 0.0
H254 H 0.11418 0.76097 0.255 0.0
H255 H 0.09062 0.80102 0.21067 0.0
H256 H 0.09948 0.81033 0.1803 0.0
H257 H 0.13534 0.77829 0.13282 0.0
H258 H 0.15109 0.74916 0.13302 0.0
H259 H 0.1775 0.71203 0.17873 0.0
H260 H 0.18143 0.71514 0.21146 0.0
H261 H 0.10773 0.70369 0.19851 0.0
H262 H 0.0869 0.73882 0.16357 0.0
H263 H 0.19516 0.78073 0.18644 0.0
H264 H 0.16827 0.80409 0.22669 0.0
C265 C 0.98379 0.6003 0.06035 0.0
C266 C 0.97505 0.58556 0.06274 0.0
C267 C 0.9803 0.57906 0.07761 0.0
C268 C 0.99193 0.59011 0.08348 0.0
N269 N 0.9941 0.60341 0.07343 0.0
Co270 Co 0.01105 0.62128 0.07677 0.0
N271 N 0.01515 0.61453 0.10031 0.0
C272 C 0.01065 0.60002 0.10735 0.0
C273 C 0.01485 0.59908 0.12392 0.0
C274 C 0.02253 0.61395 0.12749 0.0
C275 C 0.0226 0.6231 0.11285 0.0
N276 N 0.02825 0.6388 0.07992 0.0
C277 C 0.03487 0.64501 0.09412 0.0
C278 C 0.04683 0.65703 0.09069 0.0
C279 C 0.04758 0.65848 0.07373 0.0
C280 C 0.03613 0.64727 0.06779 0.0
N281 N 1.00686 0.62847 0.05336 0.0
C282 C 0.01631 0.63909 0.04444 0.0
C283 C 0.01017 0.64219 0.02882 0.0
C284 C 0.99614 0.63264 0.02762 0.0
C285 C 0.99462 0.62406 0.04258 0.0
N286 N 0.99362 0.6366 0.08461 0.0
C287 C 0.96898 0.65812 0.09737 0.0
C288 C 0.9809 0.66385 0.08589 0.0
C289 C 0.99307 0.6529 0.07964 0.0
C290 C 0.96975 0.64136 0.1022 0.0
C291 C 0.98202 0.63091 0.0957 0.0
N292 N 0.02835 0.60551 0.06926 0.0
C293 C 0.03556 0.58244 0.05145 0.0
C294 C 0.04827 0.57745 0.06233 0.0
C295 C 0.05181 0.58786 0.07596 0.0
C296 C 0.04187 0.60196 0.07904 0.0
C297 C 0.02578 0.5963 0.05519 0.0
H298 H 0.04463 0.60945 0.08985 0.0
H299 H 0.01561 0.59895 0.04702 0.0
H300 H 1.00208 0.65766 0.0709 0.0
H301 H 0.98221 0.61821 0.09994 0.0
C302 C 1.00022 0.58899 0.09879 0.0
C303 C 0.9836 0.60959 0.04456 0.0
C304 C 0.03054 0.63946 0.11093 0.0
C305 C 0.03015 0.64684 0.05151 0.0
H306 H 0.96624 0.5798 0.05433 0.0
H307 H 0.97619 0.56759 0.08339 0.0
H308 H 0.01207 0.5891 0.13254 0.0
H309 H 0.02747 0.61762 0.13948 0.0
H310 H 0.05414 0.66413 0.09952 0.0
H311 H 0.05494 0.66728 0.06665 0.0
H312 H 0.01531 0.65036 0.0194 0.0
H313 H 0.98841 0.63141 0.01664 0.0
H314 H 0.98079 0.67666 0.08164 0.0
H315 H 0.96116 0.63632 0.11129 0.0
H316 H 0.03274 0.5754 0.0403 0.0
H317 H 0.06164 0.5848 0.08465 0.0
C318 C 0.87292 0.76709 0.23199 0.0
C319 C 0.87964 0.76508 0.24782 0.0
C320 C 0.894 0.75609 0.24594 0.0
C321 C 0.89517 0.75294 0.22919 0.0
N322 N 0.88246 0.7594 0.22039 0.0
Co323 Co 0.87874 0.75683 0.19605 0.0
N324 N 0.89427 0.73751 0.19481 0.0
C325 C 0.90531 0.73303 0.20664 0.0
C326 C 0.91462 0.71936 0.20242 0.0
C327 C 0.90939 0.71508 0.1868 0.0
C328 C 0.89715 0.72649 0.18231 0.0
N329 N 0.87528 0.75454 0.17158 0.0
C330 C 0.88037 0.74249 0.16083 0.0
C331 C 0.8762 0.74658 0.14455 0.0
C332 C 0.86862 0.76187 0.1451 0.0
C333 C 0.86853 0.76627 0.16162 0.0
N334 N 0.86308 0.77594 0.19758 0.0
C335 C 0.85769 0.78535 0.18482 0.0
C336 C 0.84652 0.79737 0.18974 0.0
C337 C 0.8448 0.79534 0.20665 0.0
C338 C 0.85501 0.78214 0.21108 0.0
N339 N 0.89725 0.77227 0.19149 0.0
C340 C 0.92032 0.79636 0.18062 0.0
C341 C 0.9092 0.79981 0.19369 0.0
C342 C 0.89791 0.78756 0.19904 0.0
C343 C 0.92016 0.78028 0.17381 0.0
C344 C 0.90866 0.76852 0.1794 0.0
N345 N 0.85998 0.74172 0.20034 0.0
C346 C 0.83122 0.73466 0.19539 0.0
C347 C 0.8314 0.7231 0.20845 0.0
C348 C 0.84644 0.72073 0.21708 0.0
C349 C 0.8606 0.73006 0.21275 0.0
C350 C 0.84552 0.74377 0.19157 0.0
H351 H 0.87193 0.7281 0.21969 0.0
H352 H 0.84465 0.7529 0.1818 0.0
H353 H 0.88932 0.79068 0.2089 0.0
H354 H 0.90863 0.7566 0.17334 0.0
C355 C 0.90559 0.74102 0.22206 0.0
C356 C 0.85768 0.77651 0.22828 0.0
C357 C 0.89083 0.72809 0.1652 0.0
C358 C 0.86098 0.78051 0.16839 0.0
H359 H 0.87461 0.76924 0.25959 0.0
H360 H 0.90198 0.75143 0.25575 0.0
H361 H 0.92408 0.71322 0.20981 0.0
H362 H 0.91455 0.70513 0.17932 0.0
H363 H 0.87883 0.73947 0.1334 0.0
H364 H 0.86371 0.7689 0.1347 0.0
H365 H 0.83984 0.80607 0.1819 0.0
H366 H 0.83695 0.8027 0.21478 0.0
H367 H 0.90904 0.81194 0.19959 0.0
H368 H 0.92836 0.77696 0.16362 0.0
H369 H 0.81991 0.73714 0.18846 0.0
H370 H 0.84729 0.71177 0.22712 0.0
C371 C 0.03187 0.91712 0.06206 0.0
C372 C 0.04111 0.93138 0.06535 0.0
C373 C 0.03531 0.93776 0.08006 0.0
C374 C 0.02298 0.92704 0.08503 0.0
N375 N 0.0209 0.91405 0.07458 0.0
Co376 Co 1.00386 0.89619 0.07705 0.0
N377 N 0.99907 0.90252 0.10058 0.0
C378 C 1.00332 0.91691 0.10802 0.0
C379 C 0.99874 0.91748 0.1245 0.0
C380 C 0.99109 0.90251 0.12761 0.0
C381 C 0.99141 0.89365 0.11278 0.0
N382 N 0.98659 0.87863 0.07944 0.0
C383 C 0.97976 0.87203 0.09337 0.0
C384 C 0.96789 0.86008 0.08943 0.0
C385 C 0.96741 0.85911 0.07242 0.0
C386 C 0.97892 0.8705 0.06697 0.0
N387 N 0.00868 0.88946 0.0536 0.0
C388 C 0.99913 0.87936 0.04417 0.0
C389 C 1.00515 0.87708 0.02839 0.0
C390 C 0.01921 0.8866 0.0276 0.0
C391 C 0.02101 0.89428 0.04304 0.0
N392 N 0.02105 0.88072 0.08507 0.0
C393 C 0.04552 0.85906 0.09788 0.0
C394 C 0.03396 0.85354 0.08594 0.0
C395 C 0.02187 0.86456 0.07968 0.0
C396 C 0.04444 0.87565 0.10319 0.0
C397 C 0.03226 0.88617 0.09667 0.0
N398 N 0.98682 0.91211 0.06929 0.0
C399 C 0.97986 0.93519 0.0514 0.0
C400 C 0.96666 0.93988 0.06183 0.0
C401 C 0.96288 0.92935 0.07531 0.0
C402 C 0.97295 0.91541 0.07866 0.0
C403 C 0.98977 0.92151 0.0554 0.0
H404 H 0.96994 0.9078 0.08931 0.0
H405 H 1.00026 0.91912 0.04752 0.0
H406 H 0.01314 0.86 0.07054 0.0
H407 H 0.03185 0.89874 0.10127 0.0
C408 C 0.01415 0.92799 0.10006 0.0
C409 C 0.03236 0.9084 0.04592 0.0
C410 C 0.98374 0.87722 0.11038 0.0
C411 C 0.98514 0.87148 0.05081 0.0
H412 H 0.05063 0.93692 0.05757 0.0
H413 H 0.0396 0.94888 0.08637 0.0
H414 H 1.00134 0.92726 0.13341 0.0
H415 H 0.98597 0.89854 0.13943 0.0
H416 H 0.96044 0.85275 0.09795 0.0
H417 H 0.96016 0.85051 0.06498 0.0
H418 H 0.99986 0.86952 0.01856 0.0
H419 H 0.0267 0.88829 0.01654 0.0
H420 H 0.03431 0.84085 0.08135 0.0
H421 H 0.05274 0.88051 0.11264 0.0
H422 H 0.98293 0.9423 0.04037 0.0
H423 H 0.9527 0.93218 0.08368 0.0
C424 C 0.28424 0.14437 0.26686 0.0
C425 C 0.26841 0.13745 0.26624 0.0
C426 C 0.26988 0.1227 0.25775 0.0
C427 C 0.28646 0.12143 0.25377 0.0
N428 N 0.2955 0.13441 0.25927 0.0
Co429 Co 0.3198 0.13759 0.25636 0.0
N430 N 0.32046 0.12153 0.23749 0.0
C431 C 0.30843 0.11047 0.23363 0.0
C432 C 0.31232 0.10067 0.22021 0.0
C433 C 0.32791 0.1056 0.21546 0.0
C434 C 0.33274 0.11818 0.22637 0.0
N435 N 0.34427 0.14051 0.25372 0.0
C436 C 0.35474 0.13501 0.24161 0.0
C437 C 0.37114 0.13898 0.24538 0.0
C438 C 0.37094 0.14688 0.26051 0.0
C439 C 0.3545 0.14734 0.26515 0.0
N440 N 0.31878 0.15377 0.27508 0.0
C441 C 0.33173 0.15921 0.28416 0.0
C442 C 0.32719 0.17111 0.29562 0.0
C443 C 0.31033 0.17324 0.29356 0.0
C444 C 0.3055 0.16242 0.28099 0.0
N445 N 0.32415 0.11939 0.27221 0.0
C446 C 0.33449 0.09649 0.29671 0.0
C447 C 0.32167 0.10797 0.29993 0.0
C448 C 0.3166 0.11918 0.2875 0.0
C449 C 0.34135 0.09624 0.28066 0.0
C450 C 0.33602 0.10767 0.26868 0.0
N451 N 0.31568 0.15606 0.24084 0.0
C452 C 0.32106 0.18459 0.23313 0.0
C453 C 0.30772 0.18448 0.22191 0.0
C454 C 0.29874 0.16956 0.22 0.0
C455 C 0.30301 0.15547 0.22948 0.0
C456 C 0.3248 0.17037 0.24241 0.0
H457 H 0.2958 0.14424 0.22792 0.0
H458 H 0.33477 0.17123 0.2513 0.0
H459 H 0.30694 0.12806 0.29046 0.0
H460 H 0.34208 0.10736 0.25677 0.0
C461 C 0.29319 0.11049 0.24204 0.0
C462 C 0.28828 0.16008 0.27518 0.0
C463 C 0.34993 0.12439 0.22747 0.0
C464 C 0.34805 0.15545 0.27924 0.0
H465 H 0.25699 0.1426 0.27123 0.0
H466 H 0.25989 0.1144 0.25411 0.0
H467 H 0.30475 0.09105 0.21455 0.0
H468 H 0.33518 0.10004 0.20557 0.0
H469 H 0.38213 0.13604 0.23815 0.0
H470 H 0.38153 0.15179 0.26726 0.0
H471 H 0.33528 0.17811 0.30381 0.0
H472 H 0.30259 0.18192 0.30038 0.0
H473 H 0.31573 0.10846 0.31203 0.0
H474 H 0.35136 0.08777 0.27749 0.0
H475 H 0.32826 0.1958 0.23525 0.0
H476 H 0.28846 0.16878 0.21131 0.0
C477 C 0.41825 0.45384 0.98204 0.0
C478 C 0.43227 0.45041 0.9725 0.0
C479 C 0.43855 0.43557 0.97807 0.0
C480 C 0.428 0.43066 0.99057 0.0
N481 N 0.4152 0.44129 0.99298 0.0
Co482 Co 0.39767 0.43896 0.01039 0.0
N483 N 0.40374 0.41529 0.01494 0.0
C484 C 0.41785 0.40761 0.01017 0.0
C485 C 0.41809 0.391 0.0143 0.0
C486 C 0.40322 0.38806 0.0222 0.0
C487 C 0.39477 0.40313 0.02257 0.0
N488 N 0.38053 0.43679 0.02807 0.0
C489 C 0.3741 0.42297 0.03526 0.0
C490 C 0.3629 0.42711 0.04779 0.0
C491 C 0.36212 0.44413 0.04823 0.0
C492 C 0.37293 0.44939 0.0361 0.0
N493 N 0.39116 0.46254 1.0058 0.0
C494 C 0.38138 0.47206 0.0156 0.0
C495 C 0.37914 0.48789 0.00968 0.0
C496 C 0.38837 0.48862 0.99542 0.0
C497 C 0.39584 0.47309 0.99341 0.0
N498 N 0.38175 0.43118 0.99351 0.0
C499 C 0.35954 0.41846 0.96951 0.0
C500 C 0.35425 0.43027 0.98134 0.0
C501 C 0.36556 0.43652 0.99319 0.0
C502 C 0.37617 0.41325 0.97009 0.0
C503 C 0.38695 0.41971 0.98204 0.0
N504 N 0.41403 0.44642 0.02711 0.0
C505 C 0.43756 0.46385 0.03362 0.0
C506 C 0.44231 0.45326 0.04666 0.0
C507 C 0.43163 0.43998 0.05065 0.0
C508 C 0.41744 0.43693 0.04087 0.0
C509 C 0.42358 0.46017 0.02402 0.0
H510 H 0.40973 0.42638 0.04398 0.0
H511 H 0.4211 0.46816 0.01364 0.0
H512 H 0.36121 0.44556 1.00213 0.0
H513 H 0.3995 0.41512 0.98206 0.0
C514 C 0.42884 0.41552 0.99921 0.0
C515 C 0.40975 0.47012 0.98181 0.0
C516 C 0.37866 0.40584 0.03087 0.0
C517 C 0.37388 0.46554 0.02984 0.0
H518 H 0.43774 0.45817 0.96292 0.0
H519 H 0.44948 0.42911 0.97351 0.0
H520 H 0.42754 0.3819 0.01116 0.0
H521 H 0.39908 0.37615 0.02695 0.0
H522 H 0.35593 0.41872 0.05572 0.0
H523 H 0.35405 0.45171 0.05593 0.0
H524 H 0.37186 0.49782 0.0152 0.0
H525 H 0.39004 0.49969 0.98796 0.0
H526 H 0.34153 0.43474 0.98138 0.0
H527 H 0.38085 0.4039 0.96156 0.0
H528 H 0.44485 0.47473 0.03043 0.0
H529 H 0.43453 0.43152 0.06074 0.0
C530 C 0.73088 0.37143 0.26908 0.0
C531 C 0.74677 0.37822 0.26894 0.0
C532 C 0.74573 0.39285 0.26019 0.0
C533 C 0.72931 0.39418 0.25558 0.0
N534 N 0.71998 0.38136 0.26097 0.0
Co535 Co 0.69578 0.3783 0.25727 0.0
N536 N 0.69594 0.39401 0.23808 0.0
C537 C 0.70825 0.4048 0.23434 0.0
C538 C 0.70494 0.41429 0.22054 0.0
C539 C 0.68944 0.40944 0.21542 0.0
C540 C 0.68407 0.39725 0.2265 0.0
N541 N 0.67138 0.37566 0.25396 0.0
C542 C 0.66133 0.38128 0.24159 0.0
C543 C 0.64477 0.37765 0.24496 0.0
C544 C 0.64443 0.36983 0.26013 0.0
C545 C 0.66074 0.36909 0.26518 0.0
N546 N 0.69605 0.36229 0.27616 0.0
C547 C 0.68277 0.35698 0.28486 0.0
C548 C 0.68685 0.34509 0.29648 0.0
C549 C 0.70375 0.34279 0.29495 0.0
C550 C 0.70905 0.35352 0.28249 0.0
N551 N 0.69104 0.39681 0.27274 0.0
C552 C 0.67891 0.41995 0.29635 0.0
C553 C 0.69058 0.40764 0.30083 0.0
C554 C 0.69674 0.39649 0.2888 0.0
C555 C 0.67465 0.42109 0.27942 0.0
C556 C 0.6805 0.40933 0.26804 0.0
N557 N 0.70021 0.35959 0.24213 0.0
C558 C 0.69444 0.3312 0.23422 0.0
C559 C 0.70805 0.33105 0.22333 0.0
C560 C 0.71746 0.34573 0.22176 0.0
C561 C 0.71325 0.35989 0.23117 0.0
C562 C 0.69076 0.34548 0.24343 0.0
H563 H 0.72075 0.37096 0.22983 0.0
H564 H 0.68051 0.34484 0.25202 0.0
H565 H 0.70557 0.38715 0.29272 0.0
H566 H 0.67586 0.41017 0.25554 0.0
C567 C 0.72316 0.40487 0.24333 0.0
C568 C 0.72645 0.35573 0.27722 0.0
C569 C 0.6667 0.39155 0.2274 0.0
C570 C 0.66666 0.36095 0.27946 0.0
H571 H 0.75797 0.37302 0.27434 0.0
H572 H 0.75592 0.40098 0.25674 0.0
H573 H 0.71282 0.42368 0.21491 0.0
H574 H 0.68254 0.41488 0.2052 0.0
H575 H 0.63402 0.38072 0.23743 0.0
H576 H 0.63359 0.36514 0.26664 0.0
H577 H 0.67844 0.33821 0.30447 0.0
H578 H 0.7112 0.3341 0.30204 0.0
H579 H 0.69457 0.40608 0.31359 0.0
H580 H 0.66647 0.43075 0.27482 0.0
H581 H 0.68691 0.32016 0.23609 0.0
H582 H 0.72798 0.3463 0.21335 0.0
C583 C 0.60003 0.06331 0.98035 0.0
C584 C 0.58681 0.0673 0.96993 0.0
C585 C 0.58083 0.08242 0.97509 0.0
C586 C 0.59076 0.08691 0.98824 0.0
N587 N 0.6029 0.07575 0.99147 0.0
Co588 Co 0.61949 0.07745 0.00984 0.0
N589 N 0.61421 0.10138 0.01388 0.0
C590 C 0.60073 0.10962 0.00831 0.0
C591 C 0.60102 0.12627 0.01225 0.0
C592 C 0.61559 0.12865 0.02086 0.0
C593 C 0.62333 0.11323 0.02181 0.0
N594 N 0.63574 0.07907 0.0284 0.0
C595 C 0.6425 0.09269 0.03564 0.0
C596 C 0.65291 0.08825 0.04873 0.0
C597 C 0.65281 0.0712 0.04948 0.0
C598 C 0.64229 0.06625 0.03696 0.0
N599 N 0.62512 0.05356 1.00585 0.0
C600 C 0.63379 0.0437 0.01633 0.0
C601 C 0.63551 0.02767 0.01075 0.0
C602 C 0.6271 0.0272 0.99599 0.0
C603 C 0.62061 0.04307 0.99334 0.0
N604 N 0.63671 0.0843 0.99383 0.0
C605 C 0.6611 0.09578 0.9714 0.0
C606 C 0.66506 0.08401 0.98374 0.0
C607 C 0.65265 0.07834 0.99474 0.0
C608 C 0.64468 0.10156 0.97059 0.0
C609 C 0.63279 0.09577 0.98185 0.0
N610 N 0.60201 0.07087 0.02575 0.0
C611 C 0.57822 0.05374 0.03214 0.0
C612 C 0.57477 0.06313 0.04642 0.0
C613 C 0.58553 0.07634 0.05035 0.0
C614 C 0.59916 0.07989 0.03995 0.0
C615 C 0.59178 0.05776 0.02209 0.0
H616 H 0.6072 0.09013 0.04327 0.0
H617 H 0.59364 0.05039 0.01113 0.0
H618 H 0.656 0.06926 1.00406 0.0
H619 H 0.62045 0.10085 0.98096 0.0
C620 C 0.59007 0.10213 0.99676 0.0
C621 C 0.60772 0.04664 0.98078 0.0
C622 C 0.63893 0.10991 0.0308 0.0
C623 C 0.64084 0.05006 0.03088 0.0
H624 H 0.58163 0.05974 0.96005 0.0
H625 H 0.57052 0.08933 0.96983 0.0
H626 H 0.5922 0.13575 0.0085 0.0
H627 H 0.62003 0.14043 0.02563 0.0
H628 H 0.65993 0.09644 0.0568 0.0
H629 H 0.66014 0.06338 0.05766 0.0
H630 H 0.64194 0.01747 0.0168 0.0
H631 H 0.62529 0.01613 0.98855 0.0
H632 H 0.67758 0.07911 0.98481 0.0
H633 H 0.64104 0.11088 0.96153 0.0
H634 H 0.57021 0.04354 0.0284 0.0
H635 H 0.5835 0.08382 0.06139 0.0
C636 C 0.28384 0.8711 0.24765 0.0
C637 C 0.26795 0.87793 0.24772 0.0
C638 C 0.26902 0.89264 0.25634 0.0
C639 C 0.28544 0.89397 0.26095 0.0
N640 N 0.29475 0.88107 0.25568 0.0
Co641 Co 0.31892 0.87794 0.2595 0.0
N642 N 0.31877 0.8938 0.27856 0.0
C643 C 0.30648 0.90468 0.28217 0.0
C644 C 0.30978 0.9143 0.29588 0.0
C645 C 0.32527 0.90946 0.30107 0.0
C646 C 0.33063 0.89713 0.29013 0.0
N647 N 0.3433 0.87518 0.26292 0.0
C648 C 0.35334 0.88088 0.27527 0.0
C649 C 0.36989 0.87709 0.27199 0.0
C650 C 0.37024 0.86911 0.25691 0.0
C651 C 0.35395 0.86842 0.25181 0.0
N652 N 0.31865 0.86176 0.24073 0.0
C653 C 0.33194 0.85632 0.23212 0.0
C654 C 0.32784 0.84436 0.22056 0.0
C655 C 0.31092 0.84217 0.22206 0.0
C656 C 0.30564 0.85301 0.23443 0.0
N657 N 0.3238 0.89628 0.24389 0.0
C658 C 0.33587 0.91932 0.22016 0.0
C659 C 0.32419 0.90699 0.21577 0.0
C660 C 0.31807 0.8959 0.22784 0.0
C661 C 0.34021 0.92049 0.23707 0.0
C662 C 0.33438 0.9088 0.24852 0.0
N663 N 0.31434 0.85938 0.27477 0.0
C664 C 0.31979 0.83096 0.28282 0.0
C665 C 0.30605 0.83097 0.29357 0.0
C666 C 0.2968 0.84577 0.29504 0.0
C667 C 0.30123 0.85986 0.28564 0.0
C668 C 0.32369 0.84517 0.27361 0.0
H669 H 0.29382 0.871 0.28689 0.0
H670 H 0.334 0.8444 0.2651 0.0
H671 H 0.30921 0.88655 0.22399 0.0
H672 H 0.33903 0.90968 0.26101 0.0
C673 C 0.2916 0.90473 0.27314 0.0
C674 C 0.28824 0.85532 0.23965 0.0
C675 C 0.348 0.89141 0.28929 0.0
C676 C 0.34804 0.86021 0.23756 0.0
H677 H 0.25675 0.8727 0.24236 0.0
H678 H 0.25884 0.90082 0.25972 0.0
H679 H 0.30193 0.92377 0.3014 0.0
H680 H 0.33216 0.91499 0.31124 0.0
H681 H 0.38064 0.88017 0.27953 0.0
H682 H 0.38108 0.86429 0.25049 0.0
H683 H 0.33624 0.83738 0.21266 0.0
H684 H 0.30344 0.83347 0.21501 0.0
H685 H 0.32016 0.90538 0.20302 0.0
H686 H 0.34841 0.93016 0.24162 0.0
H687 H 0.32721 0.81983 0.28105 0.0
H688 H 0.2862 0.84648 0.30335 0.0
C689 C 0.09689 0.45311 0.03344 0.0
C690 C 0.0825 0.44979 0.04245 0.0
C691 C 0.0762 0.43511 0.03648 0.0
C692 C 0.0871 0.43019 0.02428 0.0
N693 N 0.10013 0.44064 0.02244 0.0
Co694 Co 0.11821 0.43823 1.00559 0.0
N695 N 0.11207 0.41467 1.00066 0.0
C696 C 0.0978 0.40707 1.00502 0.0
C697 C 0.09753 0.3905 1.00076 0.0
C698 C 0.11257 0.38748 0.99321 0.0
C699 C 0.12115 0.40248 0.99316 0.0
N700 N 0.13584 0.43603 0.98837 0.0
C701 C 0.1423 0.42223 0.98117 0.0
C702 C 0.15384 0.42639 0.96897 0.0
C703 C 0.15483 0.4434 0.96877 0.0
C704 C 0.14377 0.44865 0.98069 0.0
N705 N 0.12485 0.46166 0.01065 0.0
C706 C 0.13506 0.47115 1.00128 0.0
C707 C 0.13728 0.4869 1.00743 0.0
C708 C 0.12759 0.48761 0.02138 0.0
C709 C 0.11987 0.47216 0.02298 0.0
N710 N 0.13354 0.43005 0.02285 0.0
C711 C 0.15519 0.41539 0.04637 0.0
C712 C 0.16117 0.42665 0.03431 0.0
C713 C 0.15013 0.43398 0.02282 0.0
C714 C 0.138 0.4123 0.04664 0.0
C715 C 0.1276 0.41941 0.03474 0.0
N716 N 0.10252 0.44604 0.98845 0.0
C717 C 0.07973 0.46408 0.981 0.0
C718 C 0.07619 0.45441 0.96693 0.0
C719 C 0.08665 0.44084 0.96343 0.0
C720 C 0.09986 0.437 0.97422 0.0
C721 C 0.09285 0.45974 0.99147 0.0
H722 H 0.10758 0.42639 0.97131 0.0
H723 H 0.09464 0.46722 1.00237 0.0
H724 H 0.15507 0.4425 0.01369 0.0
H725 H 0.11471 0.41591 0.03506 0.0
C726 C 0.08649 0.41506 0.0156 0.0
C727 C 0.10561 0.46924 0.03415 0.0
C728 C 0.13747 0.40511 0.98527 0.0
C729 C 0.14287 0.46471 0.98716 0.0
H730 H 0.07682 0.45751 0.05194 0.0
H731 H 0.06508 0.42873 0.04063 0.0
H732 H 0.08792 0.38146 1.00355 0.0
H733 H 0.11674 0.37558 0.98846 0.0
H734 H 0.16092 0.41802 0.96111 0.0
H735 H 0.16318 0.45098 0.96138 0.0
H736 H 0.14484 0.49679 1.00225 0.0
H737 H 0.12579 0.49863 0.02891 0.0
H738 H 0.17429 0.42953 0.0334 0.0
H739 H 0.13242 0.4043 0.05593 0.0
H740 H 0.07198 0.47462 0.98436 0.0
H741 H 0.08458 0.43318 0.95252 0.0
C742 C 0.73137 0.64533 0.24651 0.0
C743 C 0.74723 0.63849 0.24578 0.0
C744 C 0.74642 0.62348 0.2539 0.0
C745 C 0.73017 0.62202 0.25903 0.0
N746 N 0.72072 0.6351 0.25457 0.0
Co747 Co 0.69669 0.63807 0.25928 0.0
N748 N 0.69749 0.62168 0.27787 0.0
C749 C 0.70979 0.61054 0.28049 0.0
C750 C 0.70685 0.60021 0.29373 0.0
C751 C 0.69159 0.60485 0.29967 0.0
C752 C 0.68599 0.61788 0.28968 0.0
N753 N 0.67245 0.6407 0.26361 0.0
C754 C 0.66289 0.63498 0.27634 0.0
C755 C 0.64631 0.63934 0.27398 0.0
C756 C 0.64542 0.64751 0.25902 0.0
C757 C 0.66144 0.64785 0.25312 0.0
N758 N 0.69634 0.65469 0.24092 0.0
C759 C 0.68278 0.66031 0.23288 0.0
C760 C 0.68649 0.67259 0.22154 0.0
C761 C 0.70343 0.67482 0.22257 0.0
C762 C 0.70913 0.66368 0.23446 0.0
N763 N 0.69132 0.62011 0.24341 0.0
C764 C 0.6789 0.59733 0.21965 0.0
C765 C 0.69048 0.60971 0.21517 0.0
C766 C 0.69676 0.62071 0.22726 0.0
C767 C 0.67477 0.59601 0.2366 0.0
C768 C 0.68076 0.60759 0.24806 0.0
N769 N 0.70172 0.65625 0.27486 0.0
C770 C 0.69633 0.68439 0.28385 0.0
C771 C 0.71032 0.68416 0.29425 0.0
C772 C 0.71973 0.66941 0.29501 0.0
C773 C 0.71515 0.65556 0.28533 0.0
C774 C 0.69229 0.67043 0.27434 0.0
H775 H 0.72265 0.64442 0.28604 0.0
H776 H 0.68176 0.67139 0.26614 0.0
H777 H 0.70552 0.63014 0.22336 0.0
H778 H 0.67625 0.6066 0.26059 0.0
C779 C 0.72435 0.61079 0.27094 0.0
C780 C 0.72669 0.66133 0.23913 0.0
C781 C 0.66867 0.62402 0.28988 0.0
C782 C 0.66687 0.65634 0.23883 0.0
H783 H 0.75824 0.64387 0.24018 0.0
H784 H 0.75668 0.61515 0.2566 0.0
H785 H 0.71477 0.59034 0.29841 0.0
H786 H 0.68506 0.59865 0.30968 0.0
H787 H 0.63587 0.63658 0.28205 0.0
H788 H 0.63442 0.65278 0.25328 0.0
H789 H 0.67782 0.67979 0.21413 0.0
H790 H 0.71065 0.68377 0.21556 0.0
H791 H 0.69431 0.6114 0.20237 0.0
H792 H 0.66662 0.58631 0.24115 0.0
H793 H 0.68878 0.69551 0.28259 0.0
H794 H 0.73056 0.66856 0.30301 0.0
C795 C 0.91632 0.06248 0.03006 0.0
C796 C 0.93107 0.06585 0.03846 0.0
C797 C 0.9373 0.0803 0.03189 0.0
C798 C 0.92602 0.08504 0.01998 0.0
N799 N 0.91281 0.0747 0.0189 0.0
Co800 Co 0.89418 0.07687 1.00265 0.0
N801 N 0.90044 0.1002 0.99687 0.0
C802 C 0.91498 0.1077 1.00041 0.0
C803 C 0.91546 0.12404 0.99532 0.0
C804 C 0.90025 0.127 0.9881 0.0
C805 C 0.89136 0.11223 0.98915 0.0
N806 N 0.87599 0.07884 0.98597 0.0
C807 C 0.86931 0.09256 0.97881 0.0
C808 C 0.85692 0.08829 0.96751 0.0
C809 C 0.85572 0.07128 0.9678 0.0
C810 C 0.86744 0.06616 0.97913 0.0
N811 N 0.88736 0.05371 0.00867 0.0
C812 C 0.8766 0.04413 1.00004 0.0
C813 C 0.87434 0.02864 1.00679 0.0
C814 C 0.88457 0.02818 0.02036 0.0
C815 C 0.89262 0.04352 0.02114 0.0
N816 N 0.87955 0.08574 0.02018 0.0
C817 C 0.859 0.10107 0.04426 0.0
C818 C 0.85245 0.0896 0.0327 0.0
C819 C 0.86295 0.08195 0.02093 0.0
C820 C 0.87619 0.10407 0.04371 0.0
C821 C 0.88605 0.09663 0.03154 0.0
N822 N 0.90932 0.06833 0.98527 0.0
C823 C 0.93215 0.05007 0.97845 0.0
C824 C 0.93716 0.06052 0.96539 0.0
C825 C 0.92675 0.07404 0.9614 0.0
C826 C 0.91274 0.07753 0.97131 0.0
C827 C 0.91843 0.05423 0.98821 0.0
H828 H 0.90527 0.08826 0.9682 0.0
H829 H 0.91592 0.04638 0.99869 0.0
H830 H 0.85757 0.07325 0.01222 0.0
H831 H 0.89896 0.10003 0.03125 0.0
C832 C 0.92655 0.09989 0.01083 0.0
C833 C 0.90743 0.04649 0.03154 0.0
C834 C 0.87471 0.10968 0.98201 0.0
C835 C 0.86832 0.05029 0.98608 0.0
H836 H 0.937 0.05831 0.04793 0.0
H837 H 0.94866 0.08663 0.03545 0.0
H838 H 0.92538 0.13295 0.99726 0.0
H839 H 0.89618 0.13867 0.98274 0.0
H840 H 0.84941 0.09658 0.96 0.0
H841 H 0.84676 0.06367 0.9612 0.0
H842 H 0.86639 0.01874 1.00225 0.0
H843 H 0.88648 0.01738 0.02816 0.0
H844 H 0.83928 0.08679 0.03242 0.0
H845 H 0.88221 0.11224 0.05258 0.0
H846 H 0.93914 0.03898 0.98161 0.0
H847 H 0.92979 0.08238 0.95125 0.0
C848 C 0.27045 0.28499 0.1443 0.0
C849 C 0.27114 0.26915 0.13738 0.0
C850 C 0.26298 0.27005 0.12241 0.0
C851 C 0.25788 0.28633 0.12103 0.0
N852 N 0.2624 0.29571 0.13414 0.0
Co853 Co 0.25772 0.31973 0.13728 0.0
N854 N 0.23904 0.31903 0.12102 0.0
C855 C 0.23637 0.3068 0.1098 0.0
C856 C 0.22305 0.30981 0.0996 0.0
C857 C 0.2171 0.32502 0.10442 0.0
C858 C 0.22717 0.33054 0.11742 0.0
N859 N 0.25341 0.34397 0.14007 0.0
C860 C 0.24063 0.35356 0.13453 0.0
C861 C 0.24303 0.37013 0.13893 0.0
C862 C 0.25807 0.37098 0.14695 0.0
C863 C 0.26398 0.35494 0.14717 0.0
N864 N 0.27617 0.31998 0.15378 0.0
C865 C 0.28427 0.3335 0.15939 0.0
C866 C 0.29566 0.32971 0.1716 0.0
C867 C 0.29459 0.31274 0.17377 0.0
C868 C 0.28262 0.30712 0.16268 0.0
N869 N 0.27348 0.32522 0.11926 0.0
C870 C 0.29711 0.33797 0.0965 0.0
C871 C 0.30168 0.32629 0.10878 0.0
C872 C 0.28966 0.31985 0.11976 0.0
C873 C 0.28013 0.342 0.09526 0.0
C874 C 0.26874 0.33586 0.10683 0.0
N875 N 0.24226 0.3146 0.15553 0.0
C876 C 0.2335 0.31985 0.18376 0.0
C877 C 0.22306 0.30589 0.18354 0.0
C878 C 0.22215 0.29656 0.16874 0.0
C879 C 0.23175 0.3012 0.15484 0.0
C880 C 0.24291 0.32395 0.16976 0.0
H881 H 0.23095 0.29376 0.14368 0.0
H882 H 0.25113 0.33447 0.17072 0.0
H883 H 0.29362 0.31103 0.1291 0.0
H884 H 0.25618 0.34032 0.10592 0.0
C885 C 0.24592 0.29223 0.1099 0.0
C886 C 0.27785 0.28959 0.16029 0.0
C887 C 0.22695 0.34779 0.12374 0.0
C888 C 0.27832 0.34946 0.15553 0.0
H889 H 0.27671 0.25809 0.1427 0.0
H890 H 0.26023 0.25983 0.11405 0.0
H891 H 0.21831 0.30196 0.08972 0.0
H892 H 0.20703 0.33159 0.09836 0.0
H893 H 0.23494 0.38058 0.1363 0.0
H894 H 0.26386 0.38196 0.15222 0.0
H895 H 0.30313 0.33833 0.17879 0.0
H896 H 0.30162 0.30545 0.18266 0.0
H897 H 0.3145 0.32252 0.11041 0.0
H898 H 0.2755 0.3502 0.08564 0.0
H899 H 0.23488 0.32733 0.19491 0.0
H900 H 0.21412 0.28576 0.16788 0.0
C901 C 0.26767 0.73019 0.37086 0.0
C902 C 0.2676 0.74602 0.37784 0.0
C903 C 0.25887 0.74484 0.39247 0.0
C904 C 0.25421 0.72841 0.39361 0.0
N905 N 0.25955 0.7192 0.38068 0.0
Co906 Co 0.25569 0.69506 0.37728 0.0
N907 N 0.23649 0.69512 0.39297 0.0
C908 C 0.23282 0.70733 0.40393 0.0
C909 C 0.21903 0.70397 0.41341 0.0
C910 C 0.21384 0.68853 0.40839 0.0
C911 C 0.22486 0.68325 0.3961 0.0
N912 N 0.25223 0.67071 0.37427 0.0
C913 C 0.2398 0.66064 0.37976 0.0
C914 C 0.24304 0.64411 0.37579 0.0
C915 C 0.25819 0.64379 0.36794 0.0
C916 C 0.26335 0.66008 0.36749 0.0
N917 N 0.27459 0.69542 0.36129 0.0
C918 C 0.28321 0.68216 0.35579 0.0
C919 C 0.29485 0.68634 0.34395 0.0
C920 C 0.2934 0.70329 0.34188 0.0
C921 C 0.28097 0.70851 0.35269 0.0
N922 N 0.2711 0.68994 0.39572 0.0
C923 C 0.29454 0.67741 0.41878 0.0
C924 C 0.29913 0.68924 0.40666 0.0
C925 C 0.28719 0.69558 0.39554 0.0
C926 C 0.2776 0.67316 0.41976 0.0
C927 C 0.2663 0.67923 0.40806 0.0
N928 N 0.24058 0.69985 0.35865 0.0
C929 C 0.23253 0.69448 0.33024 0.0
C930 C 0.22169 0.70815 0.33033 0.0
C931 C 0.22024 0.71739 0.34513 0.0
C932 C 0.22968 0.71296 0.35918 0.0
C933 C 0.2418 0.69059 0.3444 0.0
H934 H 0.22842 0.72032 0.37034 0.0
H935 H 0.25034 0.6803 0.34359 0.0
H936 H 0.29118 0.70451 0.38633 0.0
H937 H 0.25379 0.67464 0.4088 0.0
C938 C 0.24191 0.72218 0.4042 0.0
C939 C 0.27575 0.72591 0.3551 0.0
C940 C 0.22575 0.6659 0.39027 0.0
C941 C 0.27769 0.66603 0.35947 0.0
H942 H 0.27302 0.75726 0.37275 0.0
H943 H 0.25546 0.75495 0.40071 0.0
H944 H 0.21347 0.71175 0.42292 0.0
H945 H 0.20362 0.68161 0.4138 0.0
H946 H 0.23545 0.63335 0.37869 0.0
H947 H 0.26461 0.63298 0.36305 0.0
H948 H 0.30278 0.67798 0.33694 0.0
H949 H 0.30051 0.71082 0.33328 0.0
H950 H 0.31191 0.6932 0.40525 0.0
H951 H 0.27295 0.66484 0.42927 0.0
H952 H 0.2343 0.68708 0.31909 0.0
H953 H 0.21188 0.72795 0.34587 0.0
C954 C 0.95399 0.48522 0.91646 0.0
C955 C 0.95116 0.47659 0.93118 0.0
C956 C 0.93635 0.48226 0.93746 0.0
C957 C 0.93094 0.49402 0.9263 0.0
N958 N 0.94124 0.49589 0.91316 0.0
Co959 Co 0.93854 0.51276 0.89511 0.0
N960 N 0.91501 0.51739 0.90144 0.0
C961 C 0.90767 0.51325 0.91592 0.0
C962 C 0.89118 0.51778 0.91653 0.0
C963 C 0.88796 0.52527 0.90149 0.0
C964 C 0.90274 0.52491 0.89256 0.0
N965 N 0.93599 0.52979 0.87734 0.0
C966 C 0.922 0.53647 0.87074 0.0
C967 C 0.9258 0.5482 0.85861 0.0
C968 C 0.94279 0.54875 0.85751 0.0
C969 C 0.94839 0.53743 0.86902 0.0
N970 N 0.962 0.50812 0.88841 0.0
C971 C 0.9713 0.5174 0.87796 0.0
C972 C 0.98689 0.51099 0.87523 0.0
C973 C 0.98765 0.49696 0.88483 0.0
C974 C 0.97247 0.4957 0.89308 0.0
N975 N 0.93072 0.4953 0.87986 0.0
C976 C 0.91833 0.47048 0.85838 0.0
C977 C 0.93021 0.48209 0.85284 0.0
C978 C 0.93624 0.49437 0.86376 0.0
C979 C 0.9129 0.47166 0.87493 0.0
C980 C 0.91923 0.48402 0.88537 0.0
N981 N 0.94609 0.5301 0.91074 0.0
C982 C 0.96392 0.53767 0.93364 0.0
C983 C 0.95414 0.55168 0.93716 0.0
C984 C 0.94062 0.5551 0.92662 0.0
C985 C 0.93694 0.54428 0.91335 0.0
C986 C 0.95971 0.52717 0.92049 0.0
H987 H 0.92638 0.54712 0.90556 0.0
H988 H 0.96717 0.51629 0.91875 0.0
H989 H 0.94529 0.50314 0.85915 0.0
H990 H 0.91458 0.48452 0.89792 0.0
C991 C 0.91582 0.50271 0.92716 0.0
C992 C 0.96996 0.4847 0.90749 0.0
C993 C 0.90505 0.53244 0.87607 0.0
C994 C 0.96458 0.53126 0.86991 0.0
H995 H 0.95926 0.46758 0.93709 0.0
H996 H 0.93029 0.47833 0.94885 0.0
H997 H 0.88234 0.51528 0.9264 0.0
H998 H 0.87612 0.53035 0.89754 0.0
H999 H 0.9172 0.55549 0.85121 0.0
H1000 H 0.95014 0.55591 0.84876 0.0
H1001 H 0.99655 0.51593 0.86723 0.0
H1002 H 0.99846 0.48903 0.88632 0.0
H1003 H 0.93492 0.48167 0.84022 0.0
H1004 H 0.90349 0.46331 0.87979 0.0
H1005 H 0.97441 0.53436 0.94144 0.0
H1006 H 0.93286 0.56595 0.92868 0.0
C1007 C 0.74838 0.78579 0.37154 0.0
C1008 C 0.74916 0.7701 0.37877 0.0
C1009 C 0.75774 0.77192 0.39341 0.0
C1010 C 0.76162 0.78856 0.39432 0.0
N1011 N 0.75595 0.79731 0.38122 0.0
Co1012 Co 0.75876 0.82153 0.37742 0.0
N1013 N 0.77778 0.82261 0.39325 0.0
C1014 C 0.78171 0.81088 0.40462 0.0
C1015 C 0.79522 0.81501 0.41418 0.0
C1016 C 0.79994 0.83045 0.40876 0.0
C1017 C 0.78894 0.83496 0.39616 0.0
N1018 N 0.76139 0.8459 0.37376 0.0
C1019 C 0.77356 0.8565 0.37883 0.0
C1020 C 0.76979 0.8728 0.37441 0.0
C1021 C 0.75458 0.87241 0.36667 0.0
C1022 C 0.74991 0.85596 0.36674 0.0
N1023 N 0.7398 0.8201 0.36158 0.0
C1024 C 0.73059 0.83292 0.35599 0.0
C1025 C 0.71898 0.82807 0.34438 0.0
C1026 C 0.72108 0.81116 0.34259 0.0
C1027 C 0.73384 0.80662 0.35331 0.0
N1028 N 0.74313 0.82639 0.39571 0.0
C1029 C 0.71908 0.83726 0.41883 0.0
C1030 C 0.71561 0.82422 0.40769 0.0
C1031 C 0.72784 0.81887 0.39636 0.0
C1032 C 0.73511 0.84414 0.41858 0.0
C1033 C 0.74685 0.83855 0.40705 0.0
N1034 N 0.77408 0.81694 0.35891 0.0
C1035 C 0.78094 0.82064 0.32992 0.0
C1036 C 0.79324 0.80836 0.33093 0.0
C1037 C 0.79619 0.80082 0.34642 0.0
C1038 C 0.78637 0.80519 0.36024 0.0
C1039 C 0.77171 0.82488 0.34402 0.0
H1040 H 0.78846 0.79882 0.37188 0.0
H1041 H 0.76231 0.83434 0.3427 0.0
H1042 H 0.72473 0.80899 0.38778 0.0
H1043 H 0.75875 0.84463 0.40698 0.0
C1044 C 0.77336 0.79559 0.40502 0.0
C1045 C 0.73986 0.7895 0.35586 0.0
C1046 C 0.78776 0.85199 0.38951 0.0
C1047 C 0.73564 0.84933 0.35914 0.0
H1048 H 0.74422 0.75855 0.37388 0.0
H1049 H 0.76151 0.76212 0.40187 0.0
H1050 H 0.80097 0.80768 0.42393 0.0
H1051 H 0.80989 0.83785 0.41404 0.0
H1052 H 0.77705 0.88387 0.37697 0.0
H1053 H 0.74778 0.88287 0.36156 0.0
H1054 H 0.71068 0.83599 0.33729 0.0
H1055 H 0.7142 0.80321 0.33417 0.0
H1056 H 0.7035 0.8183 0.40757 0.0
H1057 H 0.73844 0.85432 0.42678 0.0
H1058 H 0.77845 0.82696 0.31825 0.0
H1059 H 0.80565 0.79129 0.34772 0.0
C1060 C 0.56376 0.53269 0.42009 0.0
C1061 C 0.56708 0.54153 0.43459 0.0
C1062 C 0.58175 0.53548 0.44081 0.0
C1063 C 0.58666 0.5234 0.42976 0.0
N1064 N 0.57621 0.52173 0.41671 0.0
Co1065 Co 0.57862 0.50511 0.39841 0.0
N1066 N 0.60217 0.50011 0.40451 0.0
C1067 C 0.60978 0.50432 0.41882 0.0
C1068 C 0.62635 0.50007 0.41903 0.0
C1069 C 0.62935 0.49268 0.40391 0.0
C1070 C 0.61435 0.49271 0.39534 0.0
N1071 N 0.58081 0.48808 0.3806 0.0
C1072 C 0.5946 0.48091 0.3741 0.0
C1073 C 0.59044 0.46883 0.36241 0.0
C1074 C 0.57343 0.4687 0.36138 0.0
C1075 C 0.5682 0.48053 0.37256 0.0
N1076 N 0.55523 0.51031 0.39179 0.0
C1077 C 0.54575 0.50111 0.38142 0.0
C1078 C 0.53002 0.50732 0.37926 0.0
C1079 C 0.52932 0.52115 0.38915 0.0
C1080 C 0.54475 0.52261 0.39691 0.0
N1081 N 0.58685 0.52256 0.38328 0.0
C1082 C 0.60181 0.54618 0.36195 0.0
C1083 C 0.59055 0.53422 0.35577 0.0
C1084 C 0.58307 0.52267 0.36666 0.0
C1085 C 0.60469 0.54634 0.37917 0.0
C1086 C 0.59744 0.53439 0.38942 0.0
N1087 N 0.57079 0.4878 0.41393 0.0
C1088 C 0.55299 0.48041 0.43692 0.0
C1089 C 0.56338 0.46704 0.44118 0.0
C1090 C 0.57676 0.4634 0.43051 0.0
C1091 C 0.58011 0.4738 0.41685 0.0
C1092 C 0.55694 0.49059 0.42343 0.0
H1093 H 0.59074 0.47094 0.40914 0.0
H1094 H 0.54908 0.50117 0.42131 0.0
H1095 H 0.57458 0.5136 0.36155 0.0
H1096 H 0.60082 0.53462 0.40234 0.0
C1097 C 0.60179 0.51475 0.43027 0.0
C1098 C 0.54766 0.53355 0.41135 0.0
C1099 C 0.61171 0.48494 0.37896 0.0
C1100 C 0.55216 0.48705 0.37348 0.0
H1101 H 0.55939 0.55098 0.44036 0.0
H1102 H 0.58813 0.5395 0.45198 0.0
H1103 H 0.63538 0.50275 0.42867 0.0
H1104 H 0.64124 0.48797 0.39969 0.0
H1105 H 0.59879 0.46103 0.35526 0.0
H1106 H 0.56586 0.46142 0.35294 0.0
H1107 H 0.52014 0.50226 0.37162 0.0
H1108 H 0.51832 0.52867 0.39105 0.0
H1109 H 0.58782 0.53343 0.3426 0.0
H1110 H 0.61268 0.55555 0.38489 0.0
H1111 H 0.54206 0.48338 0.44424 0.0
H1112 H 0.58508 0.4531 0.43306 0.0
C1113 C 0.24549 0.72925 0.64002 0.0
C1114 C 0.24722 0.74477 0.63249 0.0
C1115 C 0.26089 0.7439 0.62242 0.0
C1116 C 0.26676 0.728 0.62426 0.0
N1117 N 0.25748 0.71856 0.6346 0.0
Co1118 Co 0.26224 0.69493 0.64081 0.0
N1119 N 0.27917 0.69264 0.62287 0.0
C1120 C 0.28674 0.70523 0.61478 0.0
C1121 C 0.29813 0.69993 0.6032 0.0
C1122 C 0.29772 0.68291 0.604 0.0
C1123 C 0.28596 0.6788 0.61602 0.0
N1124 N 0.26679 0.67118 0.64653 0.0
C1125 C 0.27425 0.65905 0.63735 0.0
C1126 C 0.27434 0.64401 0.64585 0.0
C1127 C 0.26682 0.64688 0.66093 0.0
C1128 C 0.2625 0.66344 0.66076 0.0
N1129 N 0.2457 0.69737 0.65919 0.0
C1130 C 0.24377 0.68669 0.67203 0.0
C1131 C 0.23182 0.69165 0.68319 0.0
C1132 C 0.22614 0.7066 0.67729 0.0
C1133 C 0.23506 0.71002 0.66287 0.0
N1134 N 0.24462 0.68731 0.62555 0.0
C1135 C 0.22068 0.67329 0.60392 0.0
C1136 C 0.2205 0.67003 0.62109 0.0
C1137 C 0.23261 0.67681 0.63148 0.0
C1138 C 0.23283 0.68446 0.59798 0.0
C1139 C 0.24452 0.69147 0.60902 0.0
N1140 N 0.27973 0.70217 0.65648 0.0
C1141 C 0.30378 0.69533 0.67325 0.0
C1142 C 0.30042 0.70868 0.68408 0.0
C1143 C 0.2874 0.71949 0.67978 0.0
C1144 C 0.27724 0.71598 0.66615 0.0
C1145 C 0.29345 0.69245 0.65941 0.0
H1146 H 0.26693 0.72416 0.66404 0.0
H1147 H 0.29613 0.68186 0.65158 0.0
H1148 H 0.23234 0.67315 0.64433 0.0
H1149 H 0.25372 0.69992 0.60408 0.0
C1150 C 0.28053 0.72137 0.61601 0.0
C1151 C 0.23463 0.72636 0.65452 0.0
C1152 C 0.28208 0.66168 0.621 0.0
C1153 C 0.25217 0.6714 0.6723 0.0
H1154 H 0.23997 0.75591 0.63464 0.0
H1155 H 0.26608 0.75379 0.61486 0.0
H1156 H 0.30528 0.70749 0.59463 0.0
H1157 H 0.30514 0.67452 0.5965 0.0
H1158 H 0.27926 0.63219 0.64161 0.0
H1159 H 0.26419 0.6378 0.67054 0.0
H1160 H 0.22768 0.68515 0.69425 0.0
H1161 H 0.21691 0.71442 0.68325 0.0
H1162 H 0.21114 0.6621 0.62666 0.0
H1163 H 0.23365 0.6875 0.58488 0.0
H1164 H 0.31382 0.68669 0.67578 0.0
H1165 H 0.28466 0.73045 0.68716 0.0
C1166 C 0.95356 0.53234 0.59843 0.0
C1167 C 0.94993 0.54153 0.58423 0.0
C1168 C 0.9352 0.53553 0.5781 0.0
C1169 C 0.93055 0.52314 0.58891 0.0
N1170 N 0.94124 0.52121 0.60173 0.0
Co1171 Co 0.9392 0.50422 0.61971 0.0
N1172 N 0.91565 0.49913 0.61377 0.0
C1173 C 0.90798 0.50321 0.59945 0.0
C1174 C 0.89156 0.49839 0.59911 0.0
C1175 C 0.88875 0.49077 0.61415 0.0
C1176 C 0.90367 0.49134 0.62282 0.0
N1177 N 0.93722 0.48708 0.63746 0.0
C1178 C 0.92347 0.48015 0.64433 0.0
C1179 C 0.92771 0.46842 0.65632 0.0
C1180 C 0.94473 0.46812 0.65704 0.0
C1181 C 0.94989 0.47958 0.64547 0.0
N1182 N 0.96273 0.50926 0.62597 0.0
C1183 C 0.9724 0.4998 0.63594 0.0
C1184 C 0.9882 0.50589 0.63785 0.0
C1185 C 0.98874 0.51989 0.62821 0.0
C1186 C 0.97314 0.5216 0.62086 0.0
N1187 N 0.93127 0.52146 0.63517 0.0
C1188 C 0.91855 0.54591 0.6569 0.0
C1189 C 0.9308 0.53458 0.66223 0.0
C1190 C 0.93701 0.52249 0.65118 0.0
C1191 C 0.91291 0.54464 0.64044 0.0
C1192 C 0.9194 0.53247 0.62988 0.0
N1193 N 0.94686 0.48711 0.60387 0.0
C1194 C 0.96447 0.47988 0.58067 0.0
C1195 C 0.95498 0.46563 0.57738 0.0
C1196 C 0.94171 0.46195 0.58815 0.0
C1197 C 0.938 0.47273 0.60145 0.0
C1198 C 0.96026 0.49033 0.59386 0.0
H1199 H 0.92764 0.46967 0.60943 0.0
H1200 H 0.96758 0.50137 0.59544 0.0
H1201 H 0.94637 0.51393 0.6556 0.0
H1202 H 0.91454 0.5319 0.61742 0.0
C1203 C 0.91564 0.51411 0.58822 0.0
C1204 C 0.96988 0.53297 0.60683 0.0
C1205 C 0.90635 0.48379 0.63926 0.0
C1206 C 0.96599 0.48587 0.6441 0.0
H1207 H 0.95749 0.55112 0.57853 0.0
H1208 H 0.92866 0.53972 0.56708 0.0
H1209 H 0.8825 0.50083 0.58943 0.0
H1210 H 0.87705 0.48552 0.61828 0.0
H1211 H 0.91938 0.46092 0.66381 0.0
H1212 H 0.95238 0.46099 0.66556 0.0
H1213 H 0.9982 0.50069 0.64524 0.0
H1214 H 0.99973 0.5274 0.62627 0.0
H1215 H 0.93566 0.53509 0.6748 0.0
H1216 H 0.90323 0.55276 0.63574 0.0
H1217 H 0.97477 0.48338 0.57268 0.0
H1218 H 0.93419 0.45091 0.58627 0.0
C1219 C 0.06047 0.98341 0.59976 0.0
C1220 C 0.06406 0.9736 0.58597 0.0
C1221 C 0.07893 0.97911 0.57971 0.0
C1222 C 0.08368 0.99185 0.59005 0.0
N1223 N 0.07292 0.99447 0.6027 0.0
Co1224 Co 0.0751 0.01213 0.62002 0.0
N1225 N 0.09885 0.01642 0.61424 0.0
C1226 C 0.10673 0.01134 0.60036 0.0
C1227 C 0.12337 0.0153 0.60035 0.0
C1228 C 0.12612 0.02341 0.61515 0.0
C1229 C 0.11091 0.02406 0.62332 0.0
N1230 N 0.07711 0.03012 0.63687 0.0
C1231 C 0.09087 0.03727 0.64343 0.0
C1232 C 0.08666 0.05 0.65438 0.0
C1233 C 0.06963 0.05062 0.65485 0.0
C1234 C 0.06445 0.03837 0.64411 0.0
N1235 N 0.05144 1.00776 0.62626 0.0
C1236 C 0.04183 0.01778 0.63572 0.0
C1237 C 0.02593 0.01199 0.63777 0.0
C1238 C 0.02528 0.99758 0.62876 0.0
C1239 C 0.04091 0.99535 0.6216 0.0
N1240 N 0.08258 0.99549 0.63638 0.0
C1241 C 0.09622 0.97281 0.65955 0.0
C1242 C 0.08502 0.98534 0.66462 0.0
C1243 C 0.0782 0.99639 0.65283 0.0
C1244 C 0.09974 0.97164 0.64247 0.0
C1245 C 0.09316 0.98316 0.63131 0.0
N1246 N 0.06795 0.02866 0.60336 0.0
C1247 C 0.05035 0.03562 0.58008 0.0
C1248 C 0.06002 0.04967 0.57646 0.0
C1249 C 0.07346 0.05333 0.58701 0.0
C1250 C 0.0771 0.04277 0.60048 0.0
C1251 C 0.05448 0.02539 0.59347 0.0
H1252 H 0.08757 0.04583 0.60832 0.0
H1253 H 0.04697 0.01454 0.59538 0.0
H1254 H 0.0697 1.00589 0.6571 0.0
H1255 H 0.097 0.98215 0.61855 0.0
C1256 C 0.09891 1.00032 0.58937 0.0
C1257 C 0.04409 0.98339 0.60804 0.0
C1258 C 0.10799 0.03258 0.63927 0.0
C1259 C 0.04829 0.03216 0.64305 0.0
H1260 H 0.05641 0.96387 0.58063 0.0
H1261 H 0.08555 0.9743 0.56899 0.0
H1262 H 0.1326 0.01193 0.59112 0.0
H1263 H 0.13799 0.02809 0.61944 0.0
H1264 H 0.095 0.05792 0.66141 0.0
H1265 H 0.06199 0.05848 0.6627 0.0
H1266 H 0.01592 0.01769 0.64478 0.0
H1267 H 0.01421 0.99013 0.62702 0.0
H1268 H 0.08181 0.98694 0.67761 0.0
H1269 H 0.10769 0.96194 0.63754 0.0
H1270 H 0.03993 0.03214 0.57225 0.0
H1271 H 0.08114 0.06421 0.58486 0.0
C1272 C 0.64473 0.7681 0.78417 0.0
C1273 C 0.63776 0.76788 0.76835 0.0
C1274 C 0.6232 0.75905 0.7696 0.0
C1275 C 0.62209 0.75448 0.78605 0.0
N1276 N 0.63498 0.75997 0.79521 0.0
Co1277 Co 0.63843 0.75627 0.81935 0.0
N1278 N 0.62291 0.73693 0.81941 0.0
C1279 C 0.61197 0.73312 0.80726 0.0
C1280 C 0.60261 0.71927 0.81071 0.0
C1281 C 0.6077 0.71419 0.82615 0.0
C1282 C 0.61991 0.72533 0.83134 0.0
N1283 N 0.6415 0.75296 0.8437 0.0
C1284 C 0.63616 0.74053 0.85384 0.0
C1285 C 0.64012 0.74388 0.87033 0.0
C1286 C 0.64782 0.75912 0.87056 0.0
C1287 C 0.64818 0.76421 0.85425 0.0
N1288 N 0.65426 0.77531 0.81886 0.0
C1289 C 0.65968 0.78406 0.83205 0.0
C1290 C 0.67142 0.79578 0.82779 0.0
C1291 C 0.67348 0.79424 0.81086 0.0
C1292 C 0.6628 0.78168 0.80573 0.0
N1293 N 0.61988 0.77156 0.82439 0.0
C1294 C 0.59668 0.79489 0.83683 0.0
C1295 C 0.60873 0.79951 0.82495 0.0
C1296 C 0.61993 0.78762 0.81865 0.0
C1297 C 0.59582 0.77797 0.84116 0.0
C1298 C 0.6076 0.76671 0.83514 0.0
N1299 N 0.65717 0.74128 0.81462 0.0
C1300 C 0.68565 0.7335 0.81996 0.0
C1301 C 0.68562 0.72259 0.80636 0.0
C1302 C 0.67082 0.72096 0.79717 0.0
C1303 C 0.65671 0.7303 0.80158 0.0
C1304 C 0.67141 0.74267 0.82384 0.0
H1305 H 0.64554 0.72891 0.79426 0.0
H1306 H 0.67217 0.75128 0.83407 0.0
H1307 H 0.62909 0.79163 0.80968 0.0
H1308 H 0.60698 0.75421 0.83981 0.0
C1309 C 0.6116 0.74214 0.79236 0.0
C1310 C 0.66043 0.77631 0.78839 0.0
C1311 C 0.62577 0.72635 0.84866 0.0
C1312 C 0.65607 0.7786 0.84822 0.0
H1313 H 0.64282 0.77326 0.75708 0.0
H1314 H 0.61498 0.75551 0.75951 0.0
H1315 H 0.59314 0.71359 0.80298 0.0
H1316 H 0.60239 0.70396 0.83313 0.0
H1317 H 0.63733 0.7363 0.88113 0.0
H1318 H 0.65266 0.76563 0.88132 0.0
H1319 H 0.67836 0.80382 0.83609 0.0
H1320 H 0.68202 0.80138 0.80327 0.0
H1321 H 0.61004 0.8123 0.82093 0.0
H1322 H 0.58636 0.77329 0.84953 0.0
H1323 H 0.69679 0.73539 0.82732 0.0
H1324 H 0.67014 0.71253 0.78666 0.0
C1325 C 0.02989 0.09901 0.45402 0.0
C1326 C 0.03817 0.08396 0.45185 0.0
C1327 C 0.03267 0.07737 0.43712 0.0
C1328 C 0.02135 0.08867 0.43112 0.0
N1329 N 0.01962 0.1022 0.44095 0.0
Co1330 Co 1.00315 0.1205 0.43738 0.0
N1331 N 0.99888 0.11356 0.41394 0.0
C1332 C 1.00309 0.09889 0.40703 0.0
C1333 C 0.99887 0.09789 0.39047 0.0
C1334 C 0.99151 0.11289 0.38675 0.0
C1335 C 0.99163 0.12217 0.40131 0.0
N1336 N 0.98628 0.13832 0.43407 0.0
C1337 C 0.97972 0.14446 0.41983 0.0
C1338 C 0.96801 0.15677 0.42314 0.0
C1339 C 0.96739 0.15848 0.44008 0.0
C1340 C 0.97864 0.14713 0.44613 0.0
N1341 N 0.00768 0.12798 0.46063 0.0
C1342 C 0.99859 0.13904 0.46941 0.0
C1343 C 1.0049 0.14222 0.48495 0.0
C1344 C 0.01866 0.13228 0.48624 0.0
C1345 C 0.01985 0.1234 0.47143 0.0
N1346 N 0.02089 0.13529 0.4292 0.0
C1347 C 0.04524 0.15616 0.41477 0.0
C1348 C 0.0329 0.16263 0.42545 0.0
C1349 C 0.02101 0.15198 0.43266 0.0
C1350 C 0.0453 0.13888 0.4121 0.0
C1351 C 0.03299 0.12884 0.41911 0.0
N1352 N 0.98554 0.10527 0.44519 0.0
C1353 C 0.97793 0.08266 0.46339 0.0
C1354 C 0.96528 0.0776 0.4525 0.0
C1355 C 0.96192 0.08781 0.43867 0.0
C1356 C 0.97203 0.10172 0.4354 0.0
C1357 C 0.98788 0.09634 0.45948 0.0
H1358 H 0.96943 0.10903 0.42444 0.0
H1359 H 0.99802 0.09901 0.46767 0.0
H1360 H 0.01171 0.15734 0.44074 0.0
H1361 H 0.03321 0.11582 0.41602 0.0
C1362 C 0.01313 0.08764 0.41576 0.0
C1363 C 0.03046 0.10859 0.46963 0.0
C1364 C 0.984 0.1387 0.40309 0.0
C1365 C 0.98482 0.14692 0.46234 0.0
H1366 H 0.04686 0.07808 0.4603 0.0
H1367 H 0.03645 0.06571 0.4315 0.0
H1368 H 1.0014 0.08775 0.38195 0.0
H1369 H 0.98661 0.11655 0.37474 0.0
H1370 H 0.96084 0.16393 0.41425 0.0
H1371 H 0.96027 0.16757 0.44707 0.0
H1372 H 1.00002 0.15066 0.49427 0.0
H1373 H 0.0264 0.13099 0.4972 0.0
H1374 H 0.0321 0.17585 0.42795 0.0
H1375 H 0.05474 0.13295 0.40453 0.0
H1376 H 0.98061 0.07579 0.47468 0.0
H1377 H 0.95213 0.08468 0.42996 0.0
C1378 C 0.37566 0.74676 0.78761 0.0
C1379 C 0.38304 0.74875 0.77205 0.0
C1380 C 0.39288 0.76259 0.77296 0.0
C1381 C 0.39107 0.76829 0.78892 0.0
N1382 N 0.38096 0.75875 0.79835 0.0
Co1383 Co 0.37486 0.76316 0.82205 0.0
N1384 N 0.39265 0.78022 0.8244 0.0
C1385 C 0.40053 0.78806 0.81185 0.0
C1386 C 0.41205 0.79948 0.81721 0.0
C1387 C 0.41144 0.79878 0.83422 0.0
C1388 C 0.39958 0.78684 0.83827 0.0
N1389 N 0.36926 0.76738 0.84587 0.0
C1390 C 0.37849 0.77472 0.85802 0.0
C1391 C 0.37008 0.7746 0.87311 0.0
C1392 C 0.35501 0.76706 0.87024 0.0
C1393 C 0.35509 0.76295 0.85363 0.0
N1394 N 0.35663 0.74649 0.81956 0.0
C1395 C 0.34384 0.74438 0.83026 0.0
C1396 C 0.33278 0.73238 0.82524 0.0
C1397 C 0.3387 0.72683 0.81025 0.0
C1398 C 0.35304 0.73589 0.80686 0.0
N1399 N 0.39031 0.74558 0.82934 0.0
C1400 C 0.4122 0.72167 0.84297 0.0
C1401 C 0.39507 0.72132 0.84635 0.0
C1402 C 0.38454 0.73342 0.83976 0.0
C1403 C 0.41798 0.73397 0.83187 0.0
C1404 C 0.40681 0.74566 0.82506 0.0
N1405 N 0.359 0.78059 0.81513 0.0
C1406 C 0.34206 0.80439 0.82245 0.0
C1407 C 0.33107 0.80101 0.80925 0.0
C1408 C 0.33537 0.78815 0.79825 0.0
C1409 C 0.34918 0.77812 0.80144 0.0
C1410 C 0.35605 0.79419 0.82502 0.0
H1411 H 0.3513 0.76789 0.79314 0.0
H1412 H 0.364 0.79685 0.83552 0.0
H1413 H 0.37172 0.73303 0.84351 0.0
H1414 H 0.41162 0.75498 0.81667 0.0
C1415 C 0.39921 0.78208 0.79563 0.0
C1416 C 0.3614 0.7356 0.79053 0.0
C1417 C 0.39478 0.78263 0.85536 0.0
C1418 C 0.34357 0.75264 0.84562 0.0
H1419 H 0.38093 0.74156 0.76087 0.0
H1420 H 0.40029 0.76799 0.76307 0.0
H1421 H 0.42048 0.80683 0.80968 0.0
H1422 H 0.41895 0.80613 0.84265 0.0
H1423 H 0.37437 0.77939 0.88495 0.0
H1424 H 0.34547 0.76428 0.87934 0.0
H1425 H 0.32178 0.72809 0.83175 0.0
H1426 H 0.33281 0.71759 0.8024 0.0
H1427 H 0.38963 0.71184 0.85423 0.0
H1428 H 0.43106 0.7349 0.82876 0.0
H1429 H 0.33953 0.81431 0.83122 0.0
H1430 H 0.32785 0.78542 0.7874 0.0
C1431 C 0.98442 0.41621 0.45447 0.0
C1432 C 0.97555 0.43088 0.45204 0.0
C1433 C 0.98072 0.43735 0.43714 0.0
C1434 C 0.99243 0.42636 0.43128 0.0
N1435 N 0.99473 0.41313 0.44138 0.0
Co1436 Co 0.01183 0.39537 0.43808 0.0
N1437 N 0.01585 0.40207 0.41451 0.0
C1438 C 0.01122 0.41653 0.40742 0.0
C1439 C 0.01541 0.41744 0.39085 0.0
C1440 C 0.02322 0.40263 0.38732 0.0
C1441 C 0.02337 0.39352 0.40199 0.0
N1442 N 0.02916 0.37797 0.43496 0.0
C1443 C 0.03583 0.37176 0.42078 0.0
C1444 C 0.04787 0.35982 0.42422 0.0
C1445 C 0.04863 0.35842 0.44118 0.0
C1446 C 0.03712 0.36958 0.44711 0.0
N1447 N 0.00771 0.38823 0.46152 0.0
C1448 C 0.01725 0.3777 0.47046 0.0
C1449 C 0.01116 0.37462 0.48611 0.0
C1450 C 0.99706 0.38409 0.4873 0.0
C1451 C 0.99546 0.3926 0.47232 0.0
N1452 N 0.99452 0.3799 0.43033 0.0
C1453 C 0.9702 0.35808 0.41754 0.0
C1454 C 0.98211 0.35252 0.42912 0.0
C1455 C 0.99412 0.36362 0.43536 0.0
C1456 C 0.97078 0.37483 0.41268 0.0
C1457 C 0.98289 0.38544 0.41919 0.0
N1458 N 0.029 0.41128 0.4455 0.0
C1459 C 0.03605 0.43444 0.46322 0.0
C1460 C 0.04869 0.43951 0.4523 0.0
C1461 C 0.05228 0.42908 0.43869 0.0
C1462 C 0.04247 0.4149 0.43567 0.0
C1463 C 0.02638 0.4205 0.45955 0.0
H1464 H 0.04528 0.4074 0.42489 0.0
H1465 H 0.01625 0.4178 0.46775 0.0
H1466 H 1.00316 0.35898 0.44415 0.0
H1467 H 0.98295 0.39813 0.41492 0.0
C1468 C 1.0007 0.4275 0.41595 0.0
C1469 C 0.98434 0.40701 0.47032 0.0
C1470 C 0.03146 0.37724 0.40395 0.0
C1471 C 0.03114 0.37002 0.46339 0.0
H1472 H 0.96672 0.43661 0.46045 0.0
H1473 H 0.97651 0.44877 0.43132 0.0
H1474 H 0.01255 0.42737 0.3822 0.0
H1475 H 0.0282 0.39896 0.37534 0.0
H1476 H 0.05522 0.35274 0.41541 0.0
H1477 H 0.05606 0.34969 0.44828 0.0
H1478 H 0.01637 0.36653 0.49555 0.0
H1479 H 0.98934 0.38532 0.49829 0.0
H1480 H 0.98213 0.33973 0.43341 0.0
H1481 H 0.96218 0.37975 0.40353 0.0
H1482 H 0.0332 0.44148 0.47437 0.0
H1483 H 0.06206 0.4322 0.42995 0.0
C1484 C 0.63563 0.24503 0.73018 0.0
C1485 C 0.62676 0.24611 0.745 0.0
C1486 C 0.61713 0.26012 0.74398 0.0
C1487 C 0.62045 0.26666 0.72857 0.0
N1488 N 0.63129 0.25749 0.7196 0.0
Co1489 Co 0.63861 0.26212 0.69632 0.0
N1490 N 0.62124 0.27956 0.69345 0.0
C1491 C 0.61281 0.28728 0.70572 0.0
C1492 C 0.60178 0.299 0.69999 0.0
C1493 C 0.60327 0.29859 0.68303 0.0
C1494 C 0.61512 0.28651 0.67938 0.0
N1495 N 0.64538 0.26656 0.67287 0.0
C1496 C 0.63682 0.27421 0.66043 0.0
C1497 C 0.64589 0.27413 0.64573 0.0
C1498 C 0.66068 0.26627 0.64917 0.0
C1499 C 0.65979 0.26194 0.6657 0.0
N1500 N 0.65643 0.24502 0.69947 0.0
C1501 C 0.66972 0.24295 0.68938 0.0
C1502 C 0.68077 0.23125 0.69511 0.0
C1503 C 0.67431 0.22587 0.70994 0.0
C1504 C 0.65957 0.23457 0.71246 0.0
N1505 N 0.6232 0.24492 0.68811 0.0
C1506 C 0.60152 0.22114 0.67388 0.0
C1507 C 0.61875 0.22067 0.67097 0.0
C1508 C 0.62918 0.23271 0.67786 0.0
C1509 C 0.59551 0.23361 0.68466 0.0
C1510 C 0.60655 0.24522 0.69178 0.0
N1511 N 0.65445 0.2792 0.70418 0.0
C1512 C 0.67166 0.30326 0.69854 0.0
C1513 C 0.68196 0.29947 0.71218 0.0
C1514 C 0.67749 0.28592 0.7222 0.0
C1515 C 0.66379 0.27613 0.71805 0.0
C1516 C 0.65787 0.29309 0.69487 0.0
H1517 H 0.66138 0.26553 0.72567 0.0
H1518 H 0.65039 0.29612 0.68413 0.0
H1519 H 0.64213 0.23218 0.67457 0.0
H1520 H 0.60154 0.25461 0.69997 0.0
C1521 C 0.61293 0.28079 0.72181 0.0
C1522 C 0.65044 0.23442 0.72836 0.0
C1523 C 0.62051 0.28229 0.66248 0.0
C1524 C 0.67078 0.25136 0.67413 0.0
H1525 H 0.62794 0.23816 0.75583 0.0
H1526 H 0.60883 0.26502 0.75341 0.0
H1527 H 0.59301 0.30629 0.7072 0.0
H1528 H 0.59626 0.30616 0.67435 0.0
H1529 H 0.6422 0.27916 0.63378 0.0
H1530 H 0.67058 0.26343 0.64046 0.0
H1531 H 0.69223 0.2272 0.68927 0.0
H1532 H 0.68014 0.21701 0.71825 0.0
H1533 H 0.62436 0.2111 0.66333 0.0
H1534 H 0.58236 0.23473 0.68736 0.0
H1535 H 0.67435 0.31383 0.69061 0.0
H1536 H 0.68499 0.28227 0.7328 0.0
C1537 C 0.48234 0.09909 0.56221 0.0
C1538 C 0.47383 0.0846 0.56632 0.0
C1539 C 0.48049 0.07892 0.58095 0.0
C1540 C 0.49256 0.09028 0.58506 0.0
N1541 N 0.4937 0.103 0.57413 0.0
Co1542 Co 0.51022 0.12149 0.57526 0.0
N1543 N 0.51627 0.11612 0.59874 0.0
C1544 C 0.51284 0.10183 0.60679 0.0
C1545 C 0.51848 0.10175 0.62295 0.0
C1546 C 0.52597 0.11695 0.62519 0.0
C1547 C 0.52444 0.12547 0.61025 0.0
N1548 N 0.52698 0.13972 0.5763 0.0
C1549 C 0.53427 0.14702 0.58965 0.0
C1550 C 0.54488 0.15979 0.58473 0.0
C1551 C 0.54437 0.16031 0.56773 0.0
C1552 C 0.53344 0.148 0.56322 0.0
N1553 N 0.50406 0.12728 0.55186 0.0
C1554 C 0.51269 0.1375 0.5417 0.0
C1555 C 0.50582 0.13913 0.5262 0.0
C1556 C 0.49214 0.12906 0.52637 0.0
C1557 C 0.49141 0.12173 0.54207 0.0
N1558 N 0.49289 0.13664 0.58362 0.0
C1559 C 0.46847 0.15793 0.59714 0.0
C1560 C 0.47923 0.16345 0.58447 0.0
C1561 C 0.49131 0.1526 0.57785 0.0
C1562 C 0.47027 0.14151 0.60276 0.0
C1563 C 0.48241 0.13117 0.59588 0.0
N1564 N 0.52741 0.10585 0.56722 0.0
C1565 C 0.53397 0.08207 0.5501 0.0
C1566 C 0.54748 0.07787 0.56031 0.0
C1567 C 0.55169 0.08906 0.57313 0.0
C1568 C 0.54166 0.1031 0.57618 0.0
C1569 C 0.52412 0.09588 0.5538 0.0
H1570 H 0.54498 0.1112 0.58637 0.0
H1571 H 0.51336 0.09786 0.54618 0.0
H1572 H 0.49941 0.15717 0.56817 0.0
H1573 H 0.48341 0.11875 0.60077 0.0
C1574 C 0.50208 0.09013 0.59968 0.0
C1575 C 0.48074 0.10732 0.5459 0.0
C1576 C 0.53196 0.14182 0.60701 0.0
C1577 C 0.5265 0.14625 0.54745 0.0
H1578 H 0.46423 0.07844 0.55913 0.0
H1579 H 0.47692 0.06785 0.58777 0.0
H1580 H 0.5168 0.09208 0.63219 0.0
H1581 H 0.53193 0.12126 0.63649 0.0
H1582 H 0.55211 0.16803 0.59256 0.0
H1583 H 0.55051 0.16923 0.55969 0.0
H1584 H 0.51027 0.14667 0.51595 0.0
H1585 H 0.48417 0.12683 0.51576 0.0
H1586 H 0.47829 0.176 0.5796 0.0
H1587 H 0.4626 0.13668 0.61274 0.0
H1588 H 0.53057 0.07444 0.53951 0.0
H1589 H 0.56215 0.08665 0.58128 0.0
C1590 C 0.37054 0.26722 0.73158 0.0
C1591 C 0.37737 0.26682 0.74745 0.0
C1592 C 0.39189 0.2579 0.74626 0.0
C1593 C 0.39311 0.25345 0.72978 0.0
N1594 N 0.38033 0.2591 0.72055 0.0
Co1595 Co 0.37707 0.2556 0.69635 0.0
N1596 N 0.39249 0.23616 0.69626 0.0
C1597 C 0.4033 0.23219 0.70849 0.0
C1598 C 0.41262 0.21831 0.705 0.0
C1599 C 0.40765 0.21338 0.68947 0.0
C1600 C 0.39555 0.22464 0.68426 0.0
N1601 N 0.37421 0.25249 0.67194 0.0
C1602 C 0.37961 0.24011 0.66174 0.0
C1603 C 0.37585 0.24363 0.64524 0.0
C1604 C 0.36821 0.25891 0.64507 0.0
C1605 C 0.36769 0.26386 0.66142 0.0
N1606 N 0.36134 0.27473 0.69685 0.0
C1607 C 0.35608 0.28361 0.68368 0.0
C1608 C 0.34438 0.29538 0.68793 0.0
C1609 C 0.34217 0.29375 0.70483 0.0
C1610 C 0.35274 0.28108 0.70996 0.0
N1611 N 0.39574 0.27081 0.69159 0.0
C1612 C 0.41906 0.29415 0.67945 0.0
C1613 C 0.40696 0.29873 0.6913 0.0
C1614 C 0.39571 0.28683 0.69745 0.0
C1615 C 0.41993 0.27725 0.67503 0.0
C1616 C 0.40809 0.26599 0.6809 0.0
N1617 N 0.35821 0.24071 0.70081 0.0
C1618 C 0.3296 0.23343 0.6954 0.0
C1619 C 0.3294 0.22258 0.70905 0.0
C1620 C 0.34418 0.22063 0.71821 0.0
C1621 C 0.35847 0.2297 0.71381 0.0
C1622 C 0.34402 0.24231 0.69152 0.0
H1623 H 0.36959 0.22811 0.72116 0.0
H1624 H 0.34343 0.25093 0.68129 0.0
H1625 H 0.38651 0.29081 0.7064 0.0
H1626 H 0.40871 0.25352 0.67615 0.0
C1627 C 0.40357 0.24108 0.72346 0.0
C1628 C 0.35494 0.2756 0.72729 0.0
C1629 C 0.38984 0.22581 0.6669 0.0
C1630 C 0.35982 0.27824 0.6675 0.0
H1631 H 0.37226 0.27217 0.75872 0.0
H1632 H 0.39999 0.25423 0.75638 0.0
H1633 H 0.42199 0.21251 0.71277 0.0
H1634 H 0.41297 0.20317 0.68245 0.0
H1635 H 0.37873 0.23614 0.6344 0.0
H1636 H 0.36352 0.26554 0.63432 0.0
H1637 H 0.33756 0.30353 0.67962 0.0
H1638 H 0.33363 0.3009 0.7124 0.0
H1639 H 0.40564 0.3115 0.6954 0.0
H1640 H 0.42943 0.2726 0.66668 0.0
H1641 H 0.3185 0.23556 0.68804 0.0
H1642 H 0.34471 0.21221 0.72874 0.0
C1643 C 0.53381 0.41407 0.5632 0.0
C1644 C 0.54419 0.4274 0.56696 0.0
C1645 C 0.53916 0.43347 0.58208 0.0
C1646 C 0.52613 0.42349 0.5868 0.0
N1647 N 0.52286 0.41123 0.57577 0.0
Co1648 Co 0.50461 0.39456 0.57778 0.0
N1649 N 0.5009 0.39992 0.60174 0.0
C1650 C 0.50649 0.41347 0.60984 0.0
C1651 C 0.50281 0.41319 0.62655 0.0
C1652 C 0.49435 0.39856 0.6291 0.0
C1653 C 0.49321 0.39077 0.61372 0.0
N1654 N 0.48614 0.37827 0.57971 0.0
C1655 C 0.47912 0.37153 0.59344 0.0
C1656 C 0.46599 0.36108 0.58924 0.0
C1657 C 0.46498 0.36114 0.57221 0.0
C1658 C 0.47741 0.37166 0.56704 0.0
N1659 N 0.50834 0.38879 0.5539 0.0
C1660 C 0.49778 0.38004 0.54421 0.0
C1661 C 0.50323 0.37818 0.52817 0.0
C1662 C 0.518 0.38658 0.52751 0.0
C1663 C 0.52077 0.3932 0.5433 0.0
N1664 N 0.5208 0.37744 0.58451 0.0
C1665 C 0.54375 0.35332 0.59557 0.0
C1666 C 0.5312 0.34918 0.5841 0.0
C1667 C 0.51993 0.36145 0.57863 0.0
C1668 C 0.54447 0.36978 0.60131 0.0
C1669 C 0.53294 0.38151 0.59572 0.0
N1670 N 0.48858 0.41201 0.57133 0.0
C1671 C 0.48226 0.436 0.55442 0.0
C1672 C 0.46893 0.44037 0.56481 0.0
C1673 C 0.46496 0.42949 0.57794 0.0
C1674 C 0.47483 0.41532 0.58088 0.0
C1675 C 0.49189 0.42198 0.55793 0.0
H1676 H 0.47166 0.40738 0.59125 0.0
H1677 H 0.50235 0.41965 0.54999 0.0
H1678 H 0.51047 0.35798 0.56976 0.0
H1679 H 0.53381 0.39389 0.60075 0.0
C1680 C 0.51784 0.4242 0.60213 0.0
C1681 C 0.53329 0.40618 0.54664 0.0
C1682 C 0.48427 0.3751 0.61057 0.0
C1683 C 0.48329 0.37302 0.55077 0.0
H1684 H 0.55397 0.43257 0.55926 0.0
H1685 H 0.54445 0.44386 0.58885 0.0
H1686 H 0.50663 0.42208 0.63594 0.0
H1687 H 0.48978 0.39411 0.64096 0.0
H1688 H 0.45806 0.35405 0.59757 0.0
H1689 H 0.45672 0.35374 0.56454 0.0
H1690 H 0.49711 0.37167 0.51807 0.0
H1691 H 0.52536 0.38831 0.51637 0.0
H1692 H 0.53018 0.33663 0.57927 0.0
H1693 H 0.55367 0.37356 0.61042 0.0
H1694 H 0.48553 0.44351 0.54371 0.0
H1695 H 0.45472 0.43216 0.5863 0.0
C1696 C 0.78596 0.6455 0.76613 0.0
C1697 C 0.7701 0.63862 0.76578 0.0
C1698 C 0.77143 0.62376 0.75746 0.0
C1699 C 0.78796 0.62238 0.7533 0.0
N1700 N 0.7971 0.63541 0.75854 0.0
Co1701 Co 0.82135 0.63855 0.75527 0.0
N1702 N 0.82175 0.62228 0.73659 0.0
C1703 C 0.80968 0.61115 0.73303 0.0
C1704 C 0.81339 0.6012 0.71967 0.0
C1705 C 0.82891 0.60611 0.71465 0.0
C1706 C 0.83387 0.61881 0.72534 0.0
N1707 N 0.84578 0.64143 0.75228 0.0
C1708 C 0.85607 0.63584 0.74006 0.0
C1709 C 0.87252 0.63984 0.74355 0.0
C1710 C 0.87255 0.64784 0.75863 0.0
C1711 C 0.85618 0.64834 0.76351 0.0
N1712 N 0.82061 0.65491 0.77382 0.0
C1713 C 0.83369 0.66042 0.78271 0.0
C1714 C 0.8293 0.67242 0.79411 0.0
C1715 C 0.81242 0.67457 0.79223 0.0
C1716 C 0.80744 0.66365 0.77981 0.0
N1717 N 0.82588 0.62052 0.77126 0.0
C1718 C 0.83624 0.59773 0.79582 0.0
C1719 C 0.82347 0.60926 0.79904 0.0
C1720 C 0.8184 0.62042 0.78658 0.0
C1721 C 0.84307 0.5974 0.77976 0.0
C1722 C 0.83772 0.60877 0.76774 0.0
N1723 N 0.81703 0.65684 0.73961 0.0
C1724 C 0.82231 0.68526 0.73147 0.0
C1725 C 0.80878 0.68502 0.72048 0.0
C1726 C 0.79975 0.67011 0.71891 0.0
C1727 C 0.80417 0.65613 0.72846 0.0
C1728 C 0.82618 0.67115 0.74086 0.0
H1729 H 0.79693 0.64488 0.72715 0.0
H1730 H 0.83629 0.6721 0.74959 0.0
H1731 H 0.80878 0.62934 0.78953 0.0
H1732 H 0.84372 0.60838 0.75579 0.0
C1733 C 0.79453 0.61129 0.74163 0.0
C1734 C 0.79017 0.66129 0.7742 0.0
C1735 C 0.85104 0.62512 0.72607 0.0
C1736 C 0.84993 0.65658 0.77761 0.0
H1737 H 0.75876 0.64389 0.77082 0.0
H1738 H 0.76138 0.61545 0.75404 0.0
H1739 H 0.80575 0.59152 0.71422 0.0
H1740 H 0.83604 0.60045 0.7047 0.0
H1741 H 0.88341 0.63685 0.73618 0.0
H1742 H 0.88323 0.65282 0.76518 0.0
H1743 H 0.8375 0.67947 0.80215 0.0
H1744 H 0.80476 0.6833 0.79907 0.0
H1745 H 0.81757 0.60982 0.81116 0.0
H1746 H 0.85304 0.58888 0.7766 0.0
H1747 H 0.82956 0.69648 0.73331 0.0
H1748 H 0.78931 0.66925 0.71041 0.0
C1749 C 0.91608 0.9538 0.48215 0.0
C1750 C 0.93035 0.95035 0.47299 0.0
C1751 C 0.93657 0.9356 0.47887 0.0
C1752 C 0.92573 0.93076 0.49115 0.0
N1753 N 0.91283 0.94135 0.49315 0.0
Co1754 Co 0.89482 0.93907 0.51005 0.0
N1755 N 0.90086 0.91547 0.51487 0.0
C1756 C 0.91522 0.90789 0.51075 0.0
C1757 C 0.91564 0.89142 0.51541 0.0
C1758 C 0.9006 0.88847 0.52298 0.0
C1759 C 0.89186 0.90337 0.52253 0.0
N1760 N 0.87708 0.93686 0.52716 0.0
C1761 C 0.87029 0.923 0.53394 0.0
C1762 C 0.85825 0.92707 0.54569 0.0
C1763 C 0.85743 0.94409 0.54615 0.0
C1764 C 0.869 0.94943 0.53476 0.0
N1765 N 0.88843 0.96262 0.50523 0.0
C1766 C 0.8784 0.97218 0.51474 0.0
C1767 C 0.87637 0.98801 0.50873 0.0
C1768 C 0.88598 0.98868 0.49472 0.0
C1769 C 0.89344 0.97312 0.49293 0.0
N1770 N 0.87943 0.93126 0.49272 0.0
C1771 C 0.85788 0.91892 0.46794 0.0
C1772 C 0.85242 0.93092 0.47948 0.0
C1773 C 0.86339 0.93695 0.49173 0.0
C1774 C 0.87435 0.91329 0.46922 0.0
C1775 C 0.88481 0.91958 0.48155 0.0
N1776 N 0.91063 0.94662 0.52723 0.0
C1777 C 0.93397 0.96406 0.53437 0.0
C1778 C 0.93816 0.95368 0.54777 0.0
C1779 C 0.92729 0.94048 0.55153 0.0
C1780 C 0.91349 0.93732 0.54125 0.0
C1781 C 0.92037 0.96028 0.5243 0.0
H1782 H 0.90561 0.92684 0.54421 0.0
H1783 H 0.91831 0.96811 0.51369 0.0
H1784 H 0.85889 0.94615 0.50042 0.0
H1785 H 0.89728 0.91476 0.4821 0.0
C1786 C 0.92647 0.91573 0.50001 0.0
C1787 C 0.9075 0.97002 0.48156 0.0
C1788 C 0.87542 0.90593 0.5301 0.0
C1789 C 0.87027 0.96561 0.52862 0.0
H1790 H 0.93602 0.95804 0.46348 0.0
H1791 H 0.94764 0.92916 0.47465 0.0
H1792 H 0.92537 0.88242 0.51293 0.0
H1793 H 0.89651 0.87671 0.52815 0.0
H1794 H 0.85077 0.91862 0.55307 0.0
H1795 H 0.84886 0.95163 0.55333 0.0
H1796 H 0.8689 0.99793 0.51398 0.0
H1797 H 0.88786 0.99971 0.48724 0.0
H1798 H 0.83984 0.93575 0.47898 0.0
H1799 H 0.87913 0.90377 0.46094 0.0
H1800 H 0.94142 0.97487 0.5313 0.0
H1801 H 0.92977 0.93218 0.56186 0.0
C1802 C 0.22858 0.8762 0.77187 0.0
C1803 C 0.24442 0.88307 0.77037 0.0
C1804 C 0.2443 0.89286 0.75648 0.0
C1805 C 0.2285 0.89151 0.75026 0.0
N1806 N 0.21843 0.88174 0.7595 0.0
Co1807 Co 0.19467 0.87643 0.75436 0.0
N1808 N 0.19346 0.89425 0.73716 0.0
C1809 C 0.20648 0.90208 0.73007 0.0
C1810 C 0.20189 0.91419 0.71895 0.0
C1811 C 0.18488 0.914 0.71896 0.0
C1812 C 0.18004 0.90162 0.73006 0.0
N1813 N 0.17085 0.8715 0.74934 0.0
C1814 C 0.1593 0.88081 0.74119 0.0
C1815 C 0.14411 0.87263 0.74048 0.0
C1816 C 0.14624 0.85767 0.74846 0.0
C1817 C 0.16257 0.85755 0.75355 0.0
N1818 N 0.19597 0.85833 0.77132 0.0
C1819 C 0.18475 0.84597 0.77329 0.0
C1820 C 0.189 0.83488 0.78557 0.0
C1821 C 0.20402 0.84032 0.79149 0.0
C1822 C 0.2082 0.85441 0.78236 0.0
N1823 N 0.18738 0.89226 0.77159 0.0
C1824 C 0.17566 0.91457 0.79601 0.0
C1825 C 0.16972 0.8982 0.79515 0.0
C1826 C 0.17564 0.88736 0.78292 0.0
C1827 C 0.18766 0.91956 0.78429 0.0
C1828 C 0.19344 0.90819 0.77228 0.0
N1829 N 0.20169 0.86019 0.73727 0.0
C1830 C 0.19517 0.84373 0.7129 0.0
C1831 C 0.20802 0.83243 0.71666 0.0
C1832 C 0.21839 0.83625 0.73017 0.0
C1833 C 0.21496 0.84995 0.74028 0.0
C1834 C 0.19238 0.85763 0.7232 0.0
H1835 H 0.22278 0.85172 0.75093 0.0
H1836 H 0.18222 0.86587 0.72015 0.0
H1837 H 0.17048 0.87502 0.78258 0.0
H1838 H 0.20273 0.91233 0.76351 0.0
C1839 C 0.22244 0.90009 0.73648 0.0
C1840 C 0.22479 0.86217 0.78306 0.0
C1841 C 0.16266 0.89676 0.7329 0.0
C1842 C 0.16978 0.84599 0.76438 0.0
H1843 H 0.25527 0.88071 0.77797 0.0
H1844 H 0.25456 0.90002 0.75146 0.0
H1845 H 0.20991 0.92275 0.7123 0.0
H1846 H 0.177 0.92219 0.71173 0.0
H1847 H 0.13273 0.87699 0.73471 0.0
H1848 H 0.13685 0.84828 0.75077 0.0
H1849 H 0.182 0.82414 0.78976 0.0
H1850 H 0.21139 0.83426 0.80101 0.0
H1851 H 0.16024 0.89381 0.80369 0.0
H1852 H 0.19267 0.93209 0.7845 0.0
H1853 H 0.18687 0.84158 0.70251 0.0
H1854 H 0.22898 0.8285 0.73328 0.0
C1855 C 0.09843 0.56301 0.48347 0.0
C1856 C 0.08389 0.5672 0.47509 0.0
C1857 C 0.07829 0.5818 0.4819 0.0
C1858 C 0.08972 0.5858 0.49394 0.0
N1859 N 0.10242 0.57484 0.4949 0.0
Co1860 Co 0.12103 0.57583 0.5113 0.0
N1861 N 0.11576 0.5993 0.51753 0.0
C1862 C 0.10146 0.60741 0.51426 0.0
C1863 C 0.10147 0.62354 0.51998 0.0
C1864 C 0.11672 0.62571 0.52737 0.0
C1865 C 0.12519 0.61074 0.52569 0.0
N1866 N 0.13936 0.57672 0.52794 0.0
C1867 C 0.14676 0.59002 0.53523 0.0
C1868 C 0.15963 0.585 0.54567 0.0
C1869 C 0.1601 0.56799 0.54507 0.0
C1870 C 0.14767 0.56358 0.53424 0.0
N1871 N 0.12671 0.55244 0.50495 0.0
C1872 C 0.13694 0.54219 0.51345 0.0
C1873 C 0.1385 0.52672 0.50646 0.0
C1874 C 0.12836 0.52701 0.49283 0.0
C1875 C 0.12109 0.54275 0.49225 0.0
N1876 N 0.13605 0.58423 0.4939 0.0
C1877 C 0.157 0.59748 0.4691 0.0
C1878 C 0.16262 0.58483 0.47982 0.0
C1879 C 0.15194 0.57834 0.4921 0.0
C1880 C 0.14068 0.60328 0.47118 0.0
C1881 C 0.13051 0.59654 0.48352 0.0
N1882 N 0.10549 0.56772 0.52853 0.0
C1883 C 0.08172 0.55058 0.53505 0.0
C1884 C 0.07754 0.56077 0.5486 0.0
C1885 C 0.08873 0.57355 0.55286 0.0
C1886 C 0.10276 0.57662 0.54283 0.0
C1887 C 0.09552 0.55431 0.5252 0.0
H1888 H 0.11087 0.5868 0.54618 0.0
H1889 H 0.09745 0.54673 0.5144 0.0
H1890 H 0.15656 0.56863 0.50014 0.0
H1891 H 0.11816 0.60153 0.48471 0.0
C1892 C 0.08967 0.60037 0.50355 0.0
C1893 C 0.10665 0.5467 0.48166 0.0
C1894 C 0.14158 0.60742 0.53307 0.0
C1895 C 0.14581 0.54784 0.52723 0.0
H1896 H 0.07767 0.5601 0.46546 0.0
H1897 H 0.06721 0.58867 0.47846 0.0
H1898 H 0.09181 0.63282 0.51843 0.0
H1899 H 0.1211 0.63697 0.53336 0.0
H1900 H 0.168 0.59276 0.55282 0.0
H1901 H 0.16906 0.55989 0.55106 0.0
H1902 H 0.14604 0.51641 0.5108 0.0
H1903 H 0.12607 0.51646 0.4848 0.0
H1904 H 0.1751 0.57985 0.47867 0.0
H1905 H 0.13581 0.61328 0.46354 0.0
H1906 H 0.07408 0.54001 0.53161 0.0
H1907 H 0.08634 0.58166 0.56336 0.0
C1908 C 0.78603 0.37236 0.74963 0.0
C1909 C 0.77038 0.3797 0.75023 0.0
C1910 C 0.77215 0.39426 0.75896 0.0
C1911 C 0.78872 0.395 0.7631 0.0
N1912 N 0.79747 0.38186 0.7575 0.0
Co1913 Co 0.8217 0.37808 0.76043 0.0
N1914 N 0.82268 0.39405 0.77936 0.0
C1915 C 0.81089 0.40536 0.78328 0.0
C1916 C 0.81493 0.41494 0.79682 0.0
C1917 C 0.83037 0.40959 0.80157 0.0
C1918 C 0.83496 0.39701 0.79056 0.0
N1919 N 0.84609 0.37458 0.7631 0.0
C1920 C 0.85664 0.37979 0.77526 0.0
C1921 C 0.87296 0.37546 0.77152 0.0
C1922 C 0.87264 0.36761 0.75636 0.0
C1923 C 0.8562 0.36754 0.75168 0.0
N1924 N 0.82037 0.36199 0.74163 0.0
C1925 C 0.83323 0.35627 0.73257 0.0
C1926 C 0.82844 0.34468 0.72091 0.0
C1927 C 0.8115 0.34306 0.72277 0.0
C1928 C 0.8069 0.35385 0.73546 0.0
N1929 N 0.8265 0.39625 0.74464 0.0
C1930 C 0.83738 0.41918 0.72041 0.0
C1931 C 0.82444 0.40792 0.71699 0.0
C1932 C 0.81908 0.39669 0.7293 0.0
C1933 C 0.84414 0.41915 0.7365 0.0
C1934 C 0.83855 0.40772 0.74833 0.0
N1935 N 0.81722 0.35968 0.77596 0.0
C1936 C 0.82271 0.33137 0.78446 0.0
C1937 C 0.80997 0.33205 0.79636 0.0
C1938 C 0.80105 0.34706 0.79796 0.0
C1939 C 0.80494 0.36073 0.78772 0.0
C1940 C 0.82608 0.34519 0.77446 0.0
H1941 H 0.79787 0.37207 0.78917 0.0
H1942 H 0.83571 0.34396 0.76523 0.0
H1943 H 0.80929 0.38802 0.72621 0.0
H1944 H 0.84455 0.40782 0.76028 0.0
C1945 C 0.79566 0.40572 0.77488 0.0
C1946 C 0.7897 0.35671 0.74104 0.0
C1947 C 0.85201 0.39041 0.78946 0.0
C1948 C 0.84961 0.35962 0.73756 0.0
H1949 H 0.75888 0.37496 0.74503 0.0
H1950 H 0.76237 0.40281 0.76258 0.0
H1951 H 0.80754 0.42466 0.80255 0.0
H1952 H 0.8377 0.41488 0.81156 0.0
H1953 H 0.88399 0.37812 0.7788 0.0
H1954 H 0.88313 0.36246 0.74963 0.0
H1955 H 0.83639 0.3376 0.71263 0.0
H1956 H 0.80353 0.33481 0.71571 0.0
H1957 H 0.81859 0.40764 0.70484 0.0
H1958 H 0.85425 0.42745 0.7398 0.0
H1959 H 0.82978 0.32005 0.78251 0.0
H1960 H 0.79119 0.34828 0.80708 0.0
C1961 C 0.59771 0.95376 0.53263 0.0
C1962 C 0.58345 0.95018 0.54175 0.0
C1963 C 0.57733 0.93544 0.53576 0.0
C1964 C 0.5882 0.93073 0.52345 0.0
N1965 N 0.60105 0.94139 0.52155 0.0
Co1966 Co 0.61911 0.93928 0.50465 0.0
N1967 N 0.6131 0.91573 0.49951 0.0
C1968 C 0.59875 0.9081 0.50356 0.0
C1969 C 0.59835 0.89169 0.49872 0.0
C1970 C 0.61339 0.88882 0.49111 0.0
C1971 C 0.62211 0.90372 0.4917 0.0
N1972 N 0.63693 0.93725 0.48757 0.0
C1973 C 0.64373 0.92347 0.4806 0.0
C1974 C 0.65579 0.92768 0.46894 0.0
C1975 C 0.65663 0.94471 0.46872 0.0
C1976 C 0.64504 0.9499 0.48016 0.0
N1977 N 0.62544 0.9628 0.50974 0.0
C1978 C 0.63555 0.97243 0.50039 0.0
C1979 C 0.63749 0.98822 0.5065 0.0
C1980 C 0.62773 0.98882 0.52041 0.0
C1981 C 0.62027 0.97325 0.52204 0.0
N1982 N 0.63447 0.93126 0.52194 0.0
C1983 C 0.65606 0.91834 0.5464 0.0
C1984 C 0.66151 0.93056 0.53508 0.0
C1985 C 0.65052 0.93687 0.52299 0.0
C1986 C 0.63956 0.91284 0.54509 0.0
C1987 C 0.62907 0.91942 0.53292 0.0
N1988 N 0.60336 0.94702 0.48748 0.0
C1989 C 0.58024 0.96472 0.48018 0.0
C1990 C 0.57692 0.95518 0.46597 0.0
C1991 C 0.58766 0.94185 0.46233 0.0
C1992 C 0.60093 0.93813 0.47312 0.0
C1993 C 0.59341 0.96048 0.49065 0.0
H1994 H 0.60888 0.92772 0.47009 0.0
H1995 H 0.59501 0.96784 0.50165 0.0
H1996 H 0.65503 0.94621 0.51445 0.0
H1997 H 0.61659 0.91466 0.53233 0.0
C1998 C 0.58751 0.91581 0.51442 0.0
C1999 C 0.6061 0.97008 0.53326 0.0
C2000 C 0.63856 0.90635 0.48415 0.0
C2001 C 0.64375 0.96599 0.4865 0.0
H2002 H 0.5777 0.9578 0.55128 0.0
H2003 H 0.56627 0.92893 0.53989 0.0
H2004 H 0.58864 0.88265 0.50113 0.0
H2005 H 0.61748 0.87711 0.48584 0.0
H2006 H 0.66326 0.91933 0.46143 0.0
H2007 H 0.66522 0.95233 0.46166 0.0
H2008 H 0.64498 0.99819 0.50137 0.0
H2009 H 0.62578 0.99982 0.52791 0.0
H2010 H 0.67412 0.93531 0.53561 0.0
H2011 H 0.63477 0.90319 0.55321 0.0
H2012 H 0.5723 0.97506 0.48365 0.0
H2013 H 0.58576 0.9343 0.45132 0.0
C2014 C 0.22861 0.14646 0.74703 0.0
C2015 C 0.24449 0.13963 0.74638 0.0
C2016 C 0.24368 0.12467 0.75459 0.0
C2017 C 0.22742 0.12321 0.75967 0.0
N2018 N 0.21796 0.13626 0.75511 0.0
Co2019 Co 0.19392 0.13925 0.75972 0.0
N2020 N 0.19467 0.12295 0.77839 0.0
C2021 C 0.20699 0.11185 0.78114 0.0
C2022 C 0.20402 0.1016 0.79443 0.0
C2023 C 0.18873 0.10626 0.80028 0.0
C2024 C 0.18314 0.11921 0.79018 0.0
N2025 N 0.16966 0.14188 0.76395 0.0
C2026 C 0.16006 0.1362 0.77666 0.0
C2027 C 0.14348 0.14051 0.77422 0.0
C2028 C 0.14263 0.14862 0.75922 0.0
C2029 C 0.15868 0.14896 0.75338 0.0
N2030 N 0.1936 0.15577 0.74128 0.0
C2031 C 0.18007 0.16132 0.73315 0.0
C2032 C 0.18381 0.17353 0.72173 0.0
C2033 C 0.20075 0.17576 0.7228 0.0
C2034 C 0.2064 0.16471 0.73481 0.0
N2035 N 0.18863 0.12121 0.74392 0.0
C2036 C 0.17634 0.09835 0.72016 0.0
C2037 C 0.18795 0.11072 0.71572 0.0
C2038 C 0.19417 0.12175 0.7278 0.0
C2039 C 0.17211 0.09709 0.73709 0.0
C2040 C 0.17804 0.1087 0.74855 0.0
N2041 N 0.19889 0.15753 0.77522 0.0
C2042 C 0.19347 0.18574 0.78399 0.0
C2043 C 0.20745 0.18562 0.79439 0.0
C2044 C 0.21689 0.17088 0.79527 0.0
C2045 C 0.21231 0.15694 0.7857 0.0
C2046 C 0.18945 0.1717 0.77459 0.0
H2047 H 0.21983 0.14582 0.7865 0.0
H2048 H 0.17892 0.17259 0.76637 0.0
H2049 H 0.20295 0.13115 0.72392 0.0
H2050 H 0.17347 0.10775 0.76107 0.0
C2051 C 0.22158 0.11206 0.77164 0.0
C2052 C 0.22393 0.1624 0.73958 0.0
C2053 C 0.1658 0.12528 0.79025 0.0
C2054 C 0.16414 0.15738 0.73906 0.0
H2055 H 0.25551 0.14501 0.74079 0.0
H2056 H 0.25395 0.11638 0.75736 0.0
H2057 H 0.21194 0.09179 0.79921 0.0
H2058 H 0.18218 0.10011 0.81031 0.0
H2059 H 0.13302 0.13774 0.78225 0.0
H2060 H 0.13165 0.15383 0.7534 0.0
H2061 H 0.17518 0.18066 0.71422 0.0
H2062 H 0.20801 0.18465 0.71575 0.0
H2063 H 0.19185 0.11239 0.70293 0.0
H2064 H 0.16393 0.0874 0.74163 0.0
H2065 H 0.18591 0.19683 0.78264 0.0
H2066 H 0.22771 0.17011 0.80328 0.0
C2067 C 0.41441 0.56156 0.53479 0.0
C2068 C 0.42778 0.56545 0.54505 0.0
C2069 C 0.43371 0.5806 0.53992 0.0
C2070 C 0.4236 0.5852 0.52695 0.0
N2071 N 0.4114 0.57409 0.52381 0.0
Co2072 Co 0.39466 0.5759 0.50559 0.0
N2073 N 0.39989 0.59986 0.50164 0.0
C2074 C 0.41339 0.60808 0.50719 0.0
C2075 C 0.41304 0.62475 0.50335 0.0
C2076 C 0.39843 0.62717 0.49483 0.0
C2077 C 0.39071 0.61174 0.49381 0.0
N2078 N 0.37834 0.57759 0.48711 0.0
C2079 C 0.37158 0.59124 0.4799 0.0
C2080 C 0.36115 0.58683 0.46682 0.0
C2081 C 0.36121 0.5698 0.46604 0.0
C2082 C 0.37174 0.5648 0.47854 0.0
N2083 N 0.38898 0.55202 0.50957 0.0
C2084 C 0.38019 0.5422 0.49915 0.0
C2085 C 0.37842 0.52619 0.50475 0.0
C2086 C 0.38692 0.52568 0.51947 0.0
C2087 C 0.3935 0.54151 0.52206 0.0
N2088 N 0.37756 0.58275 0.52174 0.0
C2089 C 0.35343 0.59425 0.54447 0.0
C2090 C 0.34927 0.58266 0.53202 0.0
C2091 C 0.36155 0.57696 0.52088 0.0
C2092 C 0.36991 0.59985 0.54521 0.0
C2093 C 0.38165 0.59405 0.53381 0.0
N2094 N 0.41211 0.56934 0.48959 0.0
C2095 C 0.43615 0.55245 0.48341 0.0
C2096 C 0.44068 0.56292 0.47019 0.0
C2097 C 0.4298 0.57605 0.46617 0.0
C2098 C 0.41551 0.57891 0.47588 0.0
C2099 C 0.42206 0.55593 0.49293 0.0
H2100 H 0.40758 0.58927 0.47265 0.0
H2101 H 0.41967 0.54796 0.50337 0.0
H2102 H 0.35806 0.56801 0.51148 0.0
H2103 H 0.39404 0.59902 0.53467 0.0
C2104 C 0.42418 0.60049 0.51856 0.0
C2105 C 0.40654 0.54498 0.53448 0.0
C2106 C 0.37511 0.60846 0.48481 0.0
C2107 C 0.37313 0.5486 0.48462 0.0
H2108 H 0.43307 0.55784 0.55484 0.0
H2109 H 0.44409 0.58746 0.5451 0.0
H2110 H 0.42189 0.63421 0.50709 0.0
H2111 H 0.39395 0.63897 0.49013 0.0
H2112 H 0.35411 0.59505 0.45878 0.0
H2113 H 0.35384 0.562 0.45788 0.0
H2114 H 0.37192 0.51602 0.49874 0.0
H2115 H 0.38874 0.5146 0.52689 0.0
H2116 H 0.33669 0.57792 0.53099 0.0
H2117 H 0.37371 0.60904 0.55434 0.0
H2118 H 0.44361 0.54171 0.48671 0.0
H2119 H 0.43255 0.58448 0.45601 0.0
C2120 C 0.76713 0.78537 0.64374 0.0
C2121 C 0.76667 0.76952 0.63683 0.0
C2122 C 0.75813 0.77089 0.62211 0.0
C2123 C 0.75396 0.78744 0.62086 0.0
N2124 N 0.7594 0.79655 0.63382 0.0
Co2125 Co 0.75619 0.82083 0.63705 0.0
N2126 N 0.73728 0.82128 0.62105 0.0
C2127 C 0.73355 0.80921 0.60998 0.0
C2128 C 0.72007 0.81296 0.60021 0.0
C2129 C 0.71515 0.8285 0.60518 0.0
C2130 C 0.72601 0.83344 0.61774 0.0
N2131 N 0.75325 0.84528 0.64002 0.0
C2132 C 0.741 0.85561 0.63459 0.0
C2133 C 0.74456 0.87206 0.6386 0.0
C2134 C 0.75972 0.87204 0.64644 0.0
C2135 C 0.76457 0.85564 0.64684 0.0
N2136 N 0.77495 0.82002 0.65316 0.0
C2137 C 0.78389 0.83309 0.6586 0.0
C2138 C 0.79544 0.82866 0.67043 0.0
C2139 C 0.7936 0.81177 0.67254 0.0
C2140 C 0.78105 0.8068 0.66177 0.0
N2141 N 0.77193 0.8254 0.61882 0.0
C2142 C 0.7962 0.83609 0.59588 0.0
C2143 C 0.79964 0.82328 0.60731 0.0
C2144 C 0.78731 0.81804 0.61855 0.0
C2145 C 0.78007 0.84275 0.5957 0.0
C2146 C 0.76821 0.83724 0.60714 0.0
N2147 N 0.74076 0.8165 0.65552 0.0
C2148 C 0.73286 0.82191 0.68398 0.0
C2149 C 0.72173 0.80848 0.68383 0.0
C2150 C 0.72001 0.7994 0.66896 0.0
C2151 C 0.72952 0.8037 0.65492 0.0
C2152 C 0.74219 0.82566 0.66982 0.0
H2153 H 0.72808 0.79645 0.6437 0.0
H2154 H 0.751 0.83571 0.67069 0.0
H2155 H 0.79042 0.8084 0.62739 0.0
H2156 H 0.75622 0.84316 0.60689 0.0
C2157 C 0.74213 0.79405 0.60997 0.0
C2158 C 0.77545 0.78951 0.65942 0.0
C2159 C 0.7269 0.85065 0.62398 0.0
C2160 C 0.77875 0.84935 0.65488 0.0
H2161 H 0.77178 0.75815 0.64197 0.0
H2162 H 0.75457 0.76086 0.61383 0.0
H2163 H 0.71448 0.80532 0.5906 0.0
H2164 H 0.70516 0.83566 0.59964 0.0
H2165 H 0.73718 0.88297 0.63572 0.0
H2166 H 0.76634 0.8827 0.65137 0.0
H2167 H 0.80357 0.83685 0.6774 0.0
H2168 H 0.80055 0.80409 0.68116 0.0
H2169 H 0.81181 0.8175 0.60774 0.0
H2170 H 0.77675 0.85274 0.58727 0.0
H2171 H 0.73482 0.82918 0.69517 0.0
H2172 H 0.71142 0.78904 0.66818 0.0
C2173 C 0.76922 0.23063 0.87532 0.0
C2174 C 0.7677 0.24611 0.88293 0.0
C2175 C 0.75425 0.24518 0.89331 0.0
C2176 C 0.74845 0.22921 0.89162 0.0
N2177 N 0.75758 0.21981 0.88112 0.0
Co2178 Co 0.75353 0.19587 0.87563 0.0
N2179 N 0.73692 0.19358 0.89391 0.0
C2180 C 0.72929 0.20616 0.90197 0.0
C2181 C 0.71816 0.20087 0.91379 0.0
C2182 C 0.7188 0.18387 0.9132 0.0
C2183 C 0.73041 0.17974 0.90104 0.0
N2184 N 0.74957 0.17187 0.8705 0.0
C2185 C 0.74228 0.1598 0.87988 0.0
C2186 C 0.74246 0.1446 0.87165 0.0
C2187 C 0.74995 0.14731 0.85655 0.0
C2188 C 0.75399 0.16393 0.85642 0.0
N2189 N 0.7699 0.19834 0.85701 0.0
C2190 C 0.77201 0.18738 0.84444 0.0
C2191 C 0.78317 0.19268 0.83265 0.0
C2192 C 0.78816 0.20813 0.83783 0.0
C2193 C 0.77976 0.21142 0.85259 0.0
N2194 N 0.77153 0.18923 0.89087 0.0
C2195 C 0.79623 0.17736 0.91281 0.0
C2196 C 0.79567 0.17214 0.89617 0.0
C2197 C 0.78331 0.17814 0.88552 0.0
C2198 C 0.78421 0.18891 0.91817 0.0
C2199 C 0.77207 0.19477 0.90699 0.0
N2200 N 0.73558 0.20211 0.86009 0.0
C2201 C 0.7104 0.19502 0.8452 0.0
C2202 C 0.71298 0.2082 0.83401 0.0
C2203 C 0.72667 0.21864 0.83668 0.0
C2204 C 0.73769 0.21541 0.84967 0.0
C2205 C 0.72171 0.19234 0.85828 0.0
H2206 H 0.74826 0.2234 0.85077 0.0
H2207 H 0.71946 0.18204 0.8666 0.0
H2208 H 0.78314 0.17343 0.873 0.0
H2209 H 0.763 0.20359 0.91148 0.0
C2210 C 0.73508 0.22243 0.90035 0.0
C2211 C 0.77964 0.22795 0.86052 0.0
C2212 C 0.73429 0.16258 0.89612 0.0
C2213 C 0.76404 0.17188 0.84463 0.0
H2214 H 0.77501 0.25718 0.88052 0.0
H2215 H 0.74923 0.25502 0.90105 0.0
H2216 H 0.711 0.20845 0.92235 0.0
H2217 H 0.71157 0.17549 0.92089 0.0
H2218 H 0.73768 0.1328 0.87609 0.0
H2219 H 0.7527 0.13811 0.84708 0.0
H2220 H 0.7871 0.18616 0.82151 0.0
H2221 H 0.79653 0.21632 0.83116 0.0
H2222 H 0.80446 0.16305 0.89146 0.0
H2223 H 0.78419 0.19343 0.93087 0.0
H2224 H 0.6998 0.18679 0.84382 0.0
H2225 H 0.72931 0.22893 0.82835 0.0
C2226 C 0.45415 0.98483 0.41636 0.0
C2227 C 0.45172 0.97635 0.43124 0.0
C2228 C 0.43687 0.98178 0.43764 0.0
C2229 C 0.43105 0.99325 0.42639 0.0
N2230 N 0.44112 0.99515 0.41307 0.0
Co2231 Co 0.43788 0.01186 0.39495 0.0
N2232 N 0.41437 0.01621 0.40162 0.0
C2233 C 0.40728 0.01197 0.41619 0.0
C2234 C 0.39074 0.01628 0.41704 0.0
C2235 C 0.38722 0.02374 0.40205 0.0
C2236 C 0.40187 0.02358 0.39292 0.0
N2237 N 0.43484 0.02884 0.37719 0.0
C2238 C 0.42069 0.03544 0.37087 0.0
C2239 C 0.42417 0.04718 0.35865 0.0
C2240 C 0.44114 0.04781 0.3572 0.0
C2241 C 0.44702 0.03652 0.3686 0.0
N2242 N 0.46126 1.00739 0.38781 0.0
C2243 C 0.47023 0.01662 0.37703 0.0
C2244 C 0.48583 0.01035 0.37405 0.0
C2245 C 0.48696 0.99647 0.38384 0.0
C2246 C 0.47199 0.99517 0.39243 0.0
N2247 N 0.42993 0.99427 0.3799 0.0
C2248 C 0.41662 0.96968 0.35869 0.0
C2249 C 0.42822 0.9814 0.35276 0.0
C2250 C 0.43474 0.99354 0.36357 0.0
C2251 C 0.41201 0.97059 0.37549 0.0
C2252 C 0.41878 0.98282 0.38579 0.0
N2253 N 0.44548 0.02933 0.41046 0.0
C2254 C 0.46324 0.03663 0.4335 0.0
C2255 C 0.45229 0.04928 0.43849 0.0
C2256 C 0.4387 0.05281 0.42804 0.0
C2257 C 0.43569 0.04287 0.41395 0.0
C2258 C 0.45957 0.02683 0.41965 0.0
H2259 H 0.4249 0.04562 0.40643 0.0
H2260 H 0.46776 0.01667 0.41703 0.0
H2261 H 0.44354 1.00242 0.35866 0.0
H2262 H 0.41466 0.98315 0.39852 0.0
C2263 C 0.41578 1.00166 0.42738 0.0
C2264 C 0.46996 0.98441 0.4071 0.0
C2265 C 0.40386 0.03124 0.37644 0.0
C2266 C 0.46325 0.03041 0.36909 0.0
H2267 H 0.46009 0.9676 0.43716 0.0
H2268 H 0.43107 0.97789 0.44917 0.0
H2269 H 0.38209 0.0137 0.42705 0.0
H2270 H 0.37527 0.0287 0.39828 0.0
H2271 H 0.41539 0.0544 0.35141 0.0
H2272 H 0.44826 0.05498 0.34827 0.0
H2273 H 0.49528 0.01531 0.36582 0.0
H2274 H 0.49791 0.98871 0.38523 0.0
H2275 H 0.4323 0.98117 0.33991 0.0
H2276 H 0.40287 0.96215 0.38068 0.0
H2277 H 0.47439 0.03383 0.44055 0.0
H2278 H 0.42996 0.06262 0.43109 0.0
C2279 C 0.24773 0.28564 0.872 0.0
C2280 C 0.24792 0.26976 0.87884 0.0
C2281 C 0.25653 0.27091 0.89353 0.0
C2282 C 0.26103 0.28737 0.89484 0.0
N2283 N 0.25568 0.29663 0.88195 0.0
Co2284 Co 0.25937 0.32083 0.87876 0.0
N2285 N 0.27846 0.32082 0.89459 0.0
C2286 C 0.28217 0.30856 0.90545 0.0
C2287 C 0.29588 0.31196 0.91503 0.0
C2288 C 0.30096 0.32748 0.91018 0.0
C2289 C 0.28996 0.33276 0.89788 0.0
N2290 N 0.26266 0.34524 0.87597 0.0
C2291 C 0.27493 0.35538 0.88167 0.0
C2292 C 0.27154 0.37192 0.87788 0.0
C2293 C 0.25646 0.37216 0.8699 0.0
C2294 C 0.25148 0.35582 0.86922 0.0
N2295 N 0.2406 0.32042 0.86262 0.0
C2296 C 0.23192 0.33365 0.85716 0.0
C2297 C 0.22038 0.32945 0.84523 0.0
C2298 C 0.22198 0.31253 0.84307 0.0
C2299 C 0.23438 0.30734 0.8539 0.0
N2300 N 0.24376 0.3257 0.89713 0.0
C2301 C 0.22002 0.33793 0.92009 0.0
C2302 C 0.21561 0.32621 0.9078 0.0
C2303 C 0.22769 0.32 0.89674 0.0
C2304 C 0.23695 0.34219 0.9213 0.0
C2305 C 0.24839 0.33629 0.90963 0.0
N2306 N 0.27465 0.31629 0.86019 0.0
C2307 C 0.28269 0.3218 0.83179 0.0
C2308 C 0.29348 0.30808 0.83177 0.0
C2309 C 0.29495 0.29879 0.84653 0.0
C2310 C 0.28555 0.30318 0.86063 0.0
C2311 C 0.27346 0.32564 0.846 0.0
H2312 H 0.28681 0.29575 0.87175 0.0
H2313 H 0.26492 0.33594 0.84525 0.0
H2314 H 0.22382 0.31113 0.88741 0.0
H2315 H 0.26088 0.34092 0.91054 0.0
C2316 C 0.27321 0.29362 0.90555 0.0
C2317 C 0.23973 0.28997 0.85622 0.0
C2318 C 0.28899 0.35014 0.89217 0.0
C2319 C 0.23726 0.34981 0.86102 0.0
H2320 H 0.24265 0.2585 0.87362 0.0
H2321 H 0.26 0.26076 0.90171 0.0
H2322 H 0.30146 0.30415 0.9245 0.0
H2323 H 0.31109 0.33446 0.91568 0.0
H2324 H 0.27899 0.38273 0.88097 0.0
H2325 H 0.24997 0.38296 0.86509 0.0
H2326 H 0.21242 0.33779 0.83824 0.0
H2327 H 0.21497 0.30497 0.83439 0.0
H2328 H 0.20286 0.32222 0.9062 0.0
H2329 H 0.2415 0.3504 0.93095 0.0
H2330 H 0.28092 0.32925 0.82068 0.0
H2331 H 0.30328 0.2882 0.8472 0.0
C2332 C 0.06054 0.03055 0.91637 0.0
C2333 C 0.06369 0.03916 0.93104 0.0
C2334 C 0.07823 0.03293 0.9374 0.0
C2335 C 0.08324 0.02098 0.92625 0.0
N2336 N 0.07297 0.01956 0.91303 0.0
Co2337 Co 0.07551 1.00317 0.89457 0.0
N2338 N 0.09897 0.99807 0.90083 0.0
C2339 C 0.10638 1.00187 0.91536 0.0
C2340 C 0.12284 0.99722 0.91582 0.0
C2341 C 0.12597 0.99002 0.90063 0.0
C2342 C 0.11118 0.99065 0.89175 0.0
N2343 N 0.07788 0.98638 0.87654 0.0
C2344 C 0.09177 0.9796 0.86982 0.0
C2345 C 0.08779 0.96805 0.85757 0.0
C2346 C 0.07079 0.96774 0.85651 0.0
C2347 C 0.06538 0.97902 0.86816 0.0
N2348 N 0.0522 0.00846 0.88778 0.0
C2349 C 0.04279 0.99935 0.87727 0.0
C2350 C 0.02712 1.00565 0.87499 0.0
C2351 C 0.02639 0.01944 0.88494 0.0
C2352 C 0.04176 0.02079 0.89284 0.0
N2353 N 0.08387 0.02079 0.87975 0.0
C2354 C 0.09853 0.04503 0.85893 0.0
C2355 C 0.08734 0.03313 0.85252 0.0
C2356 C 0.08 0.02127 0.86316 0.0
C2357 C 0.10158 0.04473 0.87613 0.0
C2358 C 0.09448 0.03247 0.88611 0.0
N2359 N 0.0675 0.98572 0.90989 0.0
C2360 C 0.04971 0.97863 0.93299 0.0
C2361 C 0.06035 0.96563 0.93775 0.0
C2362 C 0.07378 0.96186 0.92714 0.0
C2363 C 0.07696 0.97189 0.91315 0.0
C2364 C 0.05353 0.9885 0.91924 0.0
H2365 H 0.08764 0.96897 0.90553 0.0
H2366 H 0.04554 0.99892 0.91686 0.0
H2367 H 0.07151 0.01229 0.85789 0.0
H2368 H 0.09793 0.03239 0.89903 0.0
C2369 C 0.09831 0.01218 0.92687 0.0
C2370 C 0.04462 0.03169 0.90732 0.0
C2371 C 0.10879 0.9834 0.87511 0.0
C2372 C 0.04931 0.98545 0.86912 0.0
H2373 H 0.05598 0.04859 0.93683 0.0
H2374 H 0.08446 0.03675 0.94872 0.0
H2375 H 0.13171 0.99944 0.92573 0.0
H2376 H 0.13778 0.98494 0.89655 0.0
H2377 H 0.09627 0.96073 0.85006 0.0
H2378 H 0.06333 0.9608 0.84768 0.0
H2379 H 0.0173 1.00071 0.86718 0.0
H2380 H 0.01542 0.02703 0.88675 0.0
H2381 H 0.0845 0.03264 0.83936 0.0
H2382 H 0.10953 0.05386 0.88204 0.0
H2383 H 0.0387 0.98164 0.94018 0.0
H2384 H 0.08227 0.95179 0.93001 0.0
C2385 C 0.74631 0.23137 0.14496 0.0
C2386 C 0.74579 0.24728 0.1382 0.0
C2387 C 0.75396 0.24644 0.12322 0.0
C2388 C 0.75891 0.23013 0.1217 0.0
N2389 N 0.75428 0.22067 0.13472 0.0
Co2390 Co 0.7588 0.1966 0.1377 0.0
N2391 N 0.77752 0.19728 0.12146 0.0
C2392 C 0.78033 0.2096 0.11038 0.0
C2393 C 0.79364 0.20658 0.10016 0.0
C2394 C 0.79942 0.19126 0.10481 0.0
C2395 C 0.78928 0.18569 0.11773 0.0
N2396 N 0.76294 0.17232 0.14036 0.0
C2397 C 0.77563 0.16266 0.13471 0.0
C2398 C 0.77312 0.14609 0.13904 0.0
C2399 C 0.75811 0.1453 0.14711 0.0
C2400 C 0.75231 0.16138 0.14742 0.0
N2401 N 0.74033 0.19637 0.15419 0.0
C2402 C 0.73213 0.18287 0.15972 0.0
C2403 C 0.72073 0.18669 0.17193 0.0
C2404 C 0.72192 0.20363 0.1742 0.0
C2405 C 0.73396 0.20921 0.16317 0.0
N2406 N 0.74305 0.19132 0.11964 0.0
C2407 C 0.71937 0.17876 0.09688 0.0
C2408 C 0.71485 0.19043 0.10918 0.0
C2409 C 0.7269 0.19678 0.12017 0.0
C2410 C 0.73632 0.17466 0.09559 0.0
C2411 C 0.74774 0.18072 0.10715 0.0
N2412 N 0.77427 0.20153 0.15599 0.0
C2413 C 0.78303 0.19599 0.18415 0.0
C2414 C 0.79352 0.20991 0.18403 0.0
C2415 C 0.79443 0.2194 0.16934 0.0
C2416 C 0.78482 0.21491 0.15541 0.0
C2417 C 0.77359 0.19206 0.17013 0.0
H2418 H 0.78565 0.22244 0.14431 0.0
H2419 H 0.76532 0.18158 0.17101 0.0
H2420 H 0.72298 0.20558 0.12955 0.0
H2421 H 0.76027 0.1762 0.1062 0.0
C2422 C 0.77088 0.22424 0.11057 0.0
C2423 C 0.73889 0.22671 0.16092 0.0
C2424 C 0.78924 0.16833 0.12376 0.0
C2425 C 0.73799 0.16691 0.1558 0.0
H2426 H 0.74033 0.25835 0.14364 0.0
H2427 H 0.75684 0.25672 0.11498 0.0
H2428 H 0.79846 0.21448 0.09036 0.0
H2429 H 0.80943 0.18467 0.09866 0.0
H2430 H 0.78112 0.13558 0.1363 0.0
H2431 H 0.75224 0.13434 0.15233 0.0
H2432 H 0.71319 0.17808 0.17906 0.0
H2433 H 0.71492 0.21094 0.1831 0.0
H2434 H 0.70204 0.19425 0.11083 0.0
H2435 H 0.74089 0.16645 0.08593 0.0
H2436 H 0.78167 0.1884 0.19522 0.0
H2437 H 0.80249 0.23018 0.16859 0.0
C2438 C 0.45322 0.03192 0.09836 0.0
C2439 C 0.45028 0.04057 0.08367 0.0
C2440 C 0.43535 0.03503 0.07759 0.0
C2441 C 0.42999 0.02333 0.08883 0.0
N2442 N 0.44041 0.02138 0.10185 0.0
Co2443 Co 0.43784 1.00443 0.11985 0.0
N2444 N 0.4142 0.99989 0.11378 0.0
C2445 C 0.40664 1.00435 0.09952 0.0
C2446 C 0.39002 1.00031 0.09928 0.0
C2447 C 0.38695 0.99278 0.11432 0.0
C2448 C 0.40196 0.99253 0.12287 0.0
N2449 N 0.43549 0.98721 0.13745 0.0
C2450 C 0.42161 0.98021 0.14392 0.0
C2451 C 0.42561 0.96797 0.15549 0.0
C2452 C 0.44262 0.96756 0.15648 0.0
C2453 C 0.44801 0.97941 0.1454 0.0
N2454 N 0.46134 0.00908 0.1264 0.0
C2455 C 0.47072 0.99977 0.13676 0.0
C2456 C 0.48632 1.00617 0.1394 0.0
C2457 C 0.48702 0.02022 0.12981 0.0
C2458 C 0.4718 0.02149 0.12167 0.0
N2459 N 0.4301 0.02179 0.1353 0.0
C2460 C 0.41744 0.04632 0.15701 0.0
C2461 C 0.42917 0.03454 0.16255 0.0
C2462 C 0.43537 0.02242 0.1515 0.0
C2463 C 0.4123 0.04545 0.14036 0.0
C2464 C 0.41875 0.03324 0.12982 0.0
N2465 N 0.44524 0.98719 0.10401 0.0
C2466 C 0.46284 0.9799 0.08083 0.0
C2467 C 0.45232 0.96668 0.07645 0.0
C2468 C 0.43894 0.96306 0.08714 0.0
C2469 C 0.43575 0.97335 0.10095 0.0
C2470 C 0.45904 0.98995 0.09445 0.0
H2471 H 0.42513 0.97051 0.10868 0.0
H2472 H 0.46693 1.00043 0.09668 0.0
H2473 H 0.44431 0.01351 0.15609 0.0
H2474 H 0.41425 0.03297 0.11722 0.0
C2475 C 0.41475 0.01484 0.08821 0.0
C2476 C 0.46925 0.03243 0.10722 0.0
C2477 C 0.40455 0.98457 0.13915 0.0
C2478 C 0.46415 0.98571 0.14458 0.0
H2479 H 0.45838 0.04951 0.07766 0.0
H2480 H 0.42919 0.03902 0.06629 0.0
H2481 H 0.38102 1.00322 0.08968 0.0
H2482 H 0.37501 0.98816 0.11849 0.0
H2483 H 0.41715 0.96026 0.1626 0.0
H2484 H 0.45009 0.96011 0.16486 0.0
H2485 H 0.49607 1.00116 0.14725 0.0
H2486 H 0.49783 0.02811 0.12823 0.0
H2487 H 0.43363 0.03472 0.17527 0.0
H2488 H 0.40302 0.05392 0.13548 0.0
H2489 H 0.47377 0.98286 0.0735 0.0
H2490 H 0.43053 0.95287 0.0845 0.0
C2491 C 0.56533 0.48179 0.09761 0.0
C2492 C 0.56899 0.47218 0.08369 0.0
C2493 C 0.58383 0.47786 0.07752 0.0
C2494 C 0.5885 0.4905 0.08803 0.0
N2495 N 0.57772 0.4929 0.10069 0.0
Co2496 Co 0.57966 0.51046 0.1181 0.0
N2497 N 0.60337 0.51509 0.11234 0.0
C2498 C 0.61126 0.51031 0.09836 0.0
C2499 C 0.62784 0.51453 0.09833 0.0
C2500 C 0.63053 0.52251 0.1132 0.0
C2501 C 0.61535 0.52284 0.12145 0.0
N2502 N 0.58148 0.52828 0.13515 0.0
C2503 C 0.59516 0.53554 0.14176 0.0
C2504 C 0.5908 0.54815 0.15279 0.0
C2505 C 0.57377 0.54856 0.15327 0.0
C2506 C 0.56873 0.53633 0.14245 0.0
N2507 N 0.55605 0.5058 0.1243 0.0
C2508 C 0.5463 0.51568 0.13377 0.0
C2509 C 0.53049 0.50967 0.13583 0.0
C2510 C 0.53003 0.49525 0.12681 0.0
C2511 C 0.54569 0.49325 0.11964 0.0
N2512 N 0.58727 0.49373 0.13426 0.0
C2513 C 0.59959 0.46989 0.15685 0.0
C2514 C 0.58761 0.48168 0.16182 0.0
C2515 C 0.58157 0.49345 0.15032 0.0
C2516 C 0.60519 0.47043 0.14035 0.0
C2517 C 0.59892 0.48231 0.12937 0.0
N2518 N 0.57235 0.52702 0.10154 0.0
C2519 C 0.55508 0.53347 0.07788 0.0
C2520 C 0.5655 0.54672 0.07334 0.0
C2521 C 0.57868 0.55074 0.08414 0.0
C2522 C 0.58173 0.54089 0.09827 0.0
C2523 C 0.55877 0.52378 0.09179 0.0
H2524 H 0.59215 0.54408 0.10612 0.0
H2525 H 0.55092 0.51326 0.09413 0.0
H2526 H 0.57239 0.50236 0.15443 0.0
H2527 H 0.60377 0.48231 0.11691 0.0
C2528 C 0.60358 0.49924 0.08732 0.0
C2529 C 0.54902 0.48142 0.10602 0.0
C2530 C 0.61235 0.53119 0.13748 0.0
C2531 C 0.55262 0.53003 0.14125 0.0
H2532 H 0.5614 0.46246 0.07823 0.0
H2533 H 0.59045 0.47326 0.06671 0.0
H2534 H 0.63708 0.5114 0.08902 0.0
H2535 H 0.64234 0.52734 0.11749 0.0
H2536 H 0.59904 0.55615 0.15984 0.0
H2537 H 0.56603 0.55631 0.16115 0.0
H2538 H 0.52041 0.5152 0.14288 0.0
H2539 H 0.51907 0.48765 0.12507 0.0
H2540 H 0.58282 0.48174 0.17443 0.0
H2541 H 0.6147 0.46194 0.13592 0.0
H2542 H 0.54428 0.53021 0.0705 0.0
H2543 H 0.58704 0.56095 0.08141 0.0
H2544 H 0.21759 0.27447 0.19633 0.0
H2545 H 0.16762 0.30743 0.27661 0.0
H2546 H 0.20719 0.32635 0.20595 0.0
H2547 H 0.17841 0.2556 0.26783 0.0
H2548 H 0.1831 0.31466 0.25129 0.0
H2549 H 0.20358 0.26722 0.22247 0.0
C2550 C 0.21224 0.28433 0.20383 0.0
C2551 C 0.21364 0.30107 0.19887 0.0
C2552 C 0.18231 0.30171 0.25498 0.0
C2553 C 0.19777 0.29286 0.22903 0.0
C2554 C 0.17366 0.29763 0.26956 0.0
C2555 C 0.17215 0.28095 0.27449 0.0
C2556 C 0.18931 0.28899 0.24513 0.0
C2557 C 0.1796 0.26864 0.26456 0.0
C2558 C 0.20436 0.28019 0.21885 0.0
C2559 C 0.20665 0.3133 0.20931 0.0
N2560 N 0.18782 0.27289 0.25034 0.0
N2561 N 0.19906 0.30896 0.22383 0.0
H2562 H 0.57149 0.5799 0.06547 0.0
H2563 H 0.52427 0.57663 0.97898 0.0
H2564 H 0.55378 0.53389 0.04383 0.0
H2565 H 0.5613 0.61425 0.98866 0.0
H2566 H 0.53313 0.56177 1.00403 0.0
H2567 H 0.56626 0.59389 0.03881 0.0
C2568 C 0.5666 0.57267 0.05519 0.0
C2569 C 0.56285 0.55565 0.05716 0.0
C2570 C 0.53947 0.57317 1.00061 0.0
C2571 C 0.55658 0.57175 0.02669 0.0
C2572 C 0.53448 0.58161 0.98626 0.0
C2573 C 0.54215 0.59663 0.98171 0.0
C2574 C 0.552 0.57996 0.01074 0.0
C2575 C 0.55513 0.60267 0.99176 0.0
C2576 C 0.56359 0.58071 0.03998 0.0
C2577 C 0.55639 0.5471 0.04327 0.0
N2578 N 0.55951 0.59444 1.00596 0.0
N2579 N 0.55332 0.55525 0.02877 0.0
H2580 H 0.8367 0.26165 0.26914 0.0
H2581 H 0.80979 0.18914 0.20576 0.0
H2582 H 0.84933 0.20994 0.27586 0.0
H2583 H 0.79871 0.2411 0.19748 0.0
H2584 H 0.82344 0.19649 0.2319 0.0
H2585 H 0.82151 0.25435 0.24361 0.0
C2586 C 0.83592 0.2487 0.26538 0.0
C2587 C 0.84389 0.23631 0.27477 0.0
C2588 C 0.81806 0.20631 0.22438 0.0
C2589 C 0.82698 0.22787 0.2454 0.0
C2590 C 0.81021 0.20212 0.20943 0.0
C2591 C 0.803 0.2145 0.19936 0.0
C2592 C 0.81875 0.22305 0.22944 0.0
C2593 C 0.80422 0.23114 0.20471 0.0
C2594 C 0.8274 0.24455 0.25076 0.0
C2595 C 0.84295 0.21978 0.26921 0.0
N2596 N 0.81187 0.23491 0.21939 0.0
N2597 N 0.83468 0.21605 0.25488 0.0
H2598 H 0.4913 0.93796 0.98063 0.0
H2599 H 0.44698 0.93324 0.06928 0.0
H2600 H 0.45977 0.89663 0.99396 0.0
H2601 H 0.46358 0.97918 0.04671 0.0
H2602 H 0.45255 0.9188 0.04288 0.0
H2603 H 0.48251 0.95255 1.00583 0.0
C2604 C 0.48232 0.93207 0.98879 0.0
C2605 C 0.47613 0.91613 0.98516 0.0
C2606 C 0.45491 0.93205 0.04378 0.0
C2607 C 0.4663 0.93259 0.01436 0.0
C2608 C 0.4517 0.94034 0.05884 0.0
C2609 C 0.45506 0.95747 0.06046 0.0
C2610 C 0.46164 0.94093 0.03026 0.0
C2611 C 0.46127 0.9659 0.04639 0.0
C2612 C 0.47734 0.94036 1.00322 0.0
C2613 C 0.46473 0.90895 0.99631 0.0
N2614 N 0.46446 0.95755 0.03203 0.0
N2615 N 0.46029 0.91715 0.01052 0.0
H2616 H 0.20643 0.68736 0.30783 0.0
H2617 H 0.1782 0.7606 0.24583 0.0
H2618 H 0.21582 0.73943 0.31741 0.0
H2619 H 0.16578 0.70893 0.23844 0.0
H2620 H 0.19353 0.75301 0.27119 0.0
H2621 H 0.19272 0.69492 0.28176 0.0
C2622 C 0.20564 0.70041 0.30446 0.0
C2623 C 0.21236 0.71276 0.31489 0.0
C2624 C 0.18766 0.74328 0.26392 0.0
C2625 C 0.19655 0.72155 0.2849 0.0
C2626 C 0.17905 0.7476 0.2494 0.0
C2627 C 0.1711 0.73531 0.23987 0.0
C2628 C 0.1882 0.72653 0.26905 0.0
C2629 C 0.17215 0.71871 0.24521 0.0
C2630 C 0.19775 0.70472 0.28956 0.0
C2631 C 0.21069 0.72947 0.3099 0.0
N2632 N 0.18051 0.71481 0.25944 0.0
N2633 N 0.20301 0.73336 0.29527 0.0
H2634 H 0.95173 0.60474 0.03254 0.0
H2635 H 0.9847 0.56169 0.9484 0.0
H2636 H 1.00323 0.59484 0.02119 0.0
H2637 H 0.93239 0.56516 0.96016 0.0
H2638 H 0.99123 0.57569 0.97447 0.0
H2639 H 0.9438 0.5916 1.00587 0.0
C2640 C 0.96131 0.5997 0.02448 0.0
C2641 C 0.97813 0.60084 0.02905 0.0
C2642 C 0.97829 0.57347 0.9714 0.0
C2643 C 0.9693 0.58607 0.99862 0.0
C2644 C 0.97455 0.56544 0.95646 0.0
C2645 C 0.95796 0.56206 0.9521 0.0
C2646 C 0.96539 0.57826 0.98222 0.0
C2647 C 0.94535 0.56757 0.96296 0.0
C2648 C 0.95682 0.59228 0.00928 0.0
C2649 C 0.99012 0.59419 0.0182 0.0
N2650 N 0.94932 0.57531 0.97757 0.0
N2651 N 0.98548 0.58719 1.00354 0.0
H2652 H 0.8255 0.76803 0.23546 0.0
H2653 H 0.82709 0.80688 0.32665 0.0
H2654 H 0.86567 0.7992 0.25249 0.0
H2655 H 0.78082 0.7989 0.30066 0.0
H2656 H 0.84229 0.80018 0.3009 0.0
H2657 H 0.80926 0.77602 0.26028 0.0
C2658 C 0.8308 0.77666 0.24438 0.0
C2659 C 0.847 0.78276 0.24215 0.0
C2660 C 0.82881 0.79991 0.30086 0.0
C2661 C 0.8288 0.79163 0.27059 0.0
C2662 C 0.82016 0.80359 0.31556 0.0
C2663 C 0.8027 0.80347 0.31575 0.0
C2664 C 0.81993 0.79572 0.28635 0.0
C2665 C 0.7943 0.79923 0.30099 0.0
C2666 C 0.8216 0.78116 0.25852 0.0
C2667 C 0.85332 0.794 0.25396 0.0
N2668 N 0.80298 0.79541 0.28692 0.0
N2669 N 0.84434 0.79786 0.26781 0.0
H2670 H 0.06679 0.93264 0.94617 0.0
H2671 H 0.02167 0.93841 0.03421 0.0
H2672 H 0.04841 0.97876 0.967 0.0
H2673 H 0.0567 0.89917 0.02342 0.0
H2674 H 0.02972 0.95239 0.00841 0.0
H2675 H 0.06182 0.91906 0.97312 0.0
C2676 C 0.06178 0.93996 0.95633 0.0
C2677 C 0.05777 0.95689 0.95405 0.0
C2678 C 0.0358 0.94081 0.01171 0.0
C2679 C 0.05185 0.94128 0.98488 0.0
C2680 C 0.03125 0.93286 0.02648 0.0
C2681 C 0.03863 0.91767 0.03099 0.0
C2682 C 0.0476 0.93339 1.00112 0.0
C2683 C 0.05079 0.9109 0.02038 0.0
C2684 C 0.05892 0.93216 0.97171 0.0
C2685 C 0.05122 0.9656 0.9678 0.0
N2686 N 0.05478 0.91871 1.00582 0.0
N2687 N 0.04835 0.95769 0.98248 0.0
H2688 H 0.27603 0.16574 0.30657 0.0
H2689 H 0.19578 0.216 0.27413 0.0
H2690 H 0.26808 0.17841 0.25507 0.0
H2691 H 0.20566 0.2058 0.32596 0.0
H2692 H 0.22194 0.20206 0.26678 0.0
H2693 H 0.25053 0.18086 0.31396 0.0
C2694 C 0.26911 0.17211 0.2969 0.0
C2695 C 0.27435 0.17125 0.28026 0.0
C2696 C 0.21837 0.20287 0.27976 0.0
C2697 C 0.24478 0.18799 0.28846 0.0
C2698 C 0.20334 0.21069 0.28395 0.0
C2699 C 0.19846 0.21213 0.3007 0.0
C2700 C 0.22863 0.19634 0.29238 0.0
C2701 C 0.20897 0.20521 0.3129 0.0
C2702 C 0.25444 0.18056 0.30106 0.0
C2703 C 0.26458 0.1791 0.26808 0.0
N2704 N 0.22349 0.19765 0.30851 0.0
N2705 N 0.25025 0.18709 0.2724 0.0
H2706 H 0.43455 0.57032 0.94921 0.0
H2707 H 0.44015 0.48125 0.99193 0.0
H2708 H 0.48108 0.54784 0.96425 0.0
H2709 H 0.40034 0.49306 0.95794 0.0
H2710 H 0.45433 0.50695 0.98388 0.0
H2711 H 0.42065 0.5435 0.95403 0.0
C2712 C 0.4419 0.55984 0.95345 0.0
C2713 C 0.45906 0.56162 0.95659 0.0
C2714 C 0.44257 0.50389 0.97804 0.0
C2715 C 0.44308 0.53093 0.96235 0.0
C2716 C 0.43451 0.48918 0.98258 0.0
C2717 C 0.4191 0.48498 0.9755 0.0
C2718 C 0.43505 0.51475 0.96657 0.0
C2719 C 0.41224 0.49586 0.96363 0.0
C2720 C 0.43391 0.54453 0.95622 0.0
C2721 C 0.46778 0.54744 0.96217 0.0
N2722 N 0.42016 0.51037 0.95966 0.0
N2723 N 0.4597 0.53285 0.965 0.0
H2724 H 0.81913 0.30048 0.27638 0.0
H2725 H 0.73803 0.34934 0.30875 0.0
H2726 H 0.80827 0.30891 0.32834 0.0
H2727 H 0.74678 0.33753 0.25717 0.0
H2728 H 0.76338 0.33402 0.31627 0.0
H2729 H 0.79286 0.31416 0.26905 0.0
C2730 C 0.81132 0.30534 0.28625 0.0
C2731 C 0.81599 0.30352 0.30302 0.0
C2732 C 0.75966 0.33454 0.30332 0.0
C2733 C 0.78568 0.31902 0.29471 0.0
C2734 C 0.74507 0.3431 0.29908 0.0
C2735 C 0.74012 0.34429 0.28238 0.0
C2736 C 0.76953 0.32734 0.29074 0.0
C2737 C 0.75006 0.3366 0.27022 0.0
C2738 C 0.79622 0.31302 0.28206 0.0
C2739 C 0.80515 0.30984 0.31526 0.0
N2740 N 0.76431 0.32851 0.27462 0.0
N2741 N 0.79057 0.31729 0.31086 0.0
H2742 H 0.58051 0.94789 0.94589 0.0
H2743 H 0.57627 0.03703 0.98912 0.0
H2744 H 0.53459 0.97092 0.96192 0.0
H2745 H 0.61742 0.02315 0.95758 0.0
H2746 H 0.56144 0.01195 0.98044 0.0
H2747 H 0.59498 0.97433 0.95102 0.0
C2748 C 0.57341 0.95845 0.95038 0.0
C2749 C 0.55627 0.95695 0.9537 0.0
C2750 C 0.57364 0.01441 0.97525 0.0
C2751 C 0.57288 0.9872 0.95981 0.0
C2752 C 0.58208 0.02878 0.98016 0.0
C2753 C 0.59806 0.0322 0.97398 0.0
C2754 C 0.5813 1.00313 0.96428 0.0
C2755 C 0.60509 0.02095 0.96257 0.0
C2756 C 0.58172 0.97354 0.95334 0.0
C2757 C 0.54786 0.97116 0.95963 0.0
N2758 N 0.59675 1.00679 0.95821 0.0
N2759 N 0.55625 0.98555 0.96261 0.0
H2760 H 0.2068 0.80847 0.18643 0.0
H2761 H 0.26824 0.83707 0.25994 0.0
H2762 H 0.19656 0.79995 0.23849 0.0
H2763 H 0.27638 0.84878 0.20824 0.0
H2764 H 0.2429 0.8218 0.25224 0.0
H2765 H 0.23297 0.82196 0.19406 0.0
C2766 C 0.21004 0.80941 0.19948 0.0
C2767 C 0.19939 0.80301 0.21182 0.0
C2768 C 0.25032 0.82749 0.24253 0.0
C2769 C 0.2295 0.81855 0.22069 0.0
C2770 C 0.26484 0.83606 0.24691 0.0
C2771 C 0.27458 0.84381 0.23465 0.0
C2772 C 0.24539 0.82679 0.22574 0.0
C2773 C 0.26946 0.84257 0.218 0.0
C2774 C 0.22501 0.81717 0.20384 0.0
C2775 C 0.20423 0.80485 0.22855 0.0
N2776 N 0.25521 0.83425 0.21404 0.0
N2777 N 0.21893 0.81239 0.23247 0.0
H2778 H 0.07576 0.48111 0.02322 0.0
H2779 H 0.08104 0.56874 0.06939 0.0
H2780 H 0.11457 0.49157 0.05876 0.0
H2781 H 0.0353 0.5484 0.04967 0.0
H2782 H 0.09461 0.54178 0.06434 0.0
H2783 H 0.06173 0.50689 0.03128 0.0
C2784 C 0.08121 0.48876 0.03291 0.0
C2785 C 0.09629 0.48416 0.04042 0.0
C2786 C 0.0816 0.5433 0.06117 0.0
C2787 C 0.08051 0.51402 0.04943 0.0
C2788 C 0.0738 0.55869 0.06407 0.0
C2789 C 0.05699 0.56112 0.05972 0.0
C2790 C 0.07259 0.53026 0.05371 0.0
C2791 C 0.04838 0.5475 0.05277 0.0
C2792 C 0.07323 0.50352 0.03746 0.0
C2793 C 0.10292 0.49468 0.05273 0.0
N2794 N 0.05629 0.53281 0.04988 0.0
N2795 N 0.09508 0.50923 0.05674 0.0
H2796 H 0.81963 0.71593 0.23985 0.0
H2797 H 0.73739 0.66907 0.20758 0.0
H2798 H 0.80742 0.70984 0.18787 0.0
H2799 H 0.74753 0.67869 0.25935 0.0
H2800 H 0.76259 0.68463 0.20003 0.0
H2801 H 0.79339 0.70227 0.24725 0.0
C2802 C 0.81153 0.7116 0.22998 0.0
C2803 C 0.81582 0.71407 0.21319 0.0
C2804 C 0.7592 0.68358 0.21304 0.0
C2805 C 0.78553 0.69858 0.22161 0.0
C2806 C 0.7447 0.67489 0.21731 0.0
C2807 C 0.74019 0.67301 0.23408 0.0
C2808 C 0.76942 0.69021 0.22564 0.0
C2809 C 0.75046 0.68016 0.24627 0.0
C2810 C 0.79644 0.70393 0.23422 0.0
C2811 C 0.80461 0.70841 0.20098 0.0
N2812 N 0.76462 0.68838 0.24183 0.0
N2813 N 0.79005 0.70094 0.20542 0.0
H2814 H 0.93675 0.03411 0.01975 0.0
H2815 H 0.9335 0.94781 0.06804 0.0
H2816 H 0.89923 0.02483 0.057 0.0
H2817 H 0.97918 0.96915 0.04917 0.0
H2818 H 0.91936 0.97433 0.06232 0.0
H2819 H 0.95119 0.00869 0.02828 0.0
C2820 C 0.93167 0.02679 0.02988 0.0
C2821 C 0.91684 0.03163 0.03778 0.0
C2822 C 0.93249 0.97311 0.05948 0.0
C2823 C 0.93307 1.00219 0.0473 0.0
C2824 C 0.94062 0.95798 0.06278 0.0
C2825 C 0.9576 0.95596 0.05886 0.0
C2826 C 0.94131 0.98627 0.05203 0.0
C2827 C 0.966 0.96972 0.05193 0.0
C2828 C 0.93987 0.01225 0.03471 0.0
C2829 C 0.91067 0.02152 0.05066 0.0
N2830 N 0.95777 0.98413 0.04862 0.0
N2831 N 0.9187 1.00716 0.05492 0.0
H2832 H 0.3093 0.27855 0.16793 0.0
H2833 H 0.27638 0.19677 0.21531 0.0
H2834 H 0.25746 0.26892 0.17769 0.0
H2835 H 0.32842 0.20792 0.20788 0.0
H2836 H 0.26917 0.22309 0.20167 0.0
H2837 H 0.31663 0.2532 0.18338 0.0
C2838 C 0.29951 0.27132 0.17376 0.0
C2839 C 0.2828 0.27601 0.17195 0.0
C2840 C 0.28217 0.21978 0.20302 0.0
C2841 C 0.29097 0.24662 0.18902 0.0
C2842 C 0.2863 0.20465 0.21068 0.0
C2843 C 0.30305 0.20004 0.21278 0.0
C2844 C 0.29487 0.23043 0.19733 0.0
C2845 C 0.31534 0.21098 0.20675 0.0
C2846 C 0.30366 0.25673 0.18238 0.0
C2847 C 0.27052 0.26585 0.17911 0.0
N2848 N 0.31101 0.2256 0.19932 0.0
N2849 N 0.27483 0.25161 0.18727 0.0
H2850 H 0.27468 0.8183 0.29922 0.0
H2851 H 0.30722 0.7376 0.3487 0.0
H2852 H 0.3266 0.80803 0.30858 0.0
H2853 H 0.2556 0.74628 0.33706 0.0
H2854 H 0.31466 0.76296 0.33334 0.0
H2855 H 0.2674 0.79207 0.313 0.0
C2856 C 0.28455 0.81063 0.3043 0.0
C2857 C 0.3013 0.81545 0.3027 0.0
C2858 C 0.30172 0.75923 0.33391 0.0
C2859 C 0.29304 0.78518 0.31832 0.0
C2860 C 0.29752 0.74464 0.3425 0.0
C2861 C 0.28084 0.73966 0.34373 0.0
C2862 C 0.2891 0.76906 0.32672 0.0
C2863 C 0.26864 0.74958 0.33609 0.0
C2864 C 0.28039 0.79555 0.31204 0.0
C2865 C 0.31354 0.80478 0.30931 0.0
N2866 N 0.273 0.76382 0.32796 0.0
N2867 N 0.30917 0.79022 0.31681 0.0
H2868 H 0.9817 0.45273 0.91244 0.0
H2869 H 0.06508 0.48513 0.95718 0.0
H2870 H 0.99299 0.50415 0.92292 0.0
H2871 H 0.05327 0.43284 0.95308 0.0
H2872 H 0.03922 0.49186 0.9429 0.0
H2873 H 0.00805 0.4446 0.92608 0.0
C2874 C 0.98966 0.46224 0.91772 0.0
C2875 C 0.98519 0.4791 0.91661 0.0
C2876 C 0.04224 0.47888 0.94505 0.0
C2877 C 0.01525 0.47005 0.93193 0.0
C2878 C 0.05705 0.47503 0.95324 0.0
C2879 C 0.06133 0.45839 0.95651 0.0
C2880 C 0.03148 0.46604 0.93999 0.0
C2881 C 0.05053 0.44584 0.95076 0.0
C2882 C 1.00468 0.45765 0.92543 0.0
C2883 C 0.99591 0.49101 0.92357 0.0
N2884 N 0.03605 0.44992 0.94286 0.0
N2885 N 0.0104 0.48627 0.93083 0.0
H2886 H 0.70862 0.77673 0.35058 0.0
H2887 H 0.74163 0.69721 0.29942 0.0
H2888 H 0.76013 0.7694 0.33756 0.0
H2889 H 0.68983 0.70621 0.31056 0.0
H2890 H 0.74879 0.72334 0.31352 0.0
H2891 H 0.70145 0.75115 0.33549 0.0
C2892 C 0.71834 0.76992 0.34416 0.0
C2893 C 0.73491 0.77536 0.3449 0.0
C2894 C 0.73586 0.71959 0.31289 0.0
C2895 C 0.72697 0.74572 0.32816 0.0
C2896 C 0.73177 0.70457 0.30497 0.0
C2897 C 0.71508 0.69946 0.30374 0.0
C2898 C 0.72318 0.72958 0.31972 0.0
C2899 C 0.70284 0.70971 0.31097 0.0
C2900 C 0.71431 0.75521 0.33572 0.0
C2901 C 0.74716 0.76573 0.33698 0.0
N2902 N 0.70713 0.72422 0.31861 0.0
N2903 N 0.74297 0.75137 0.32897 0.0
H2904 H 0.44852 0.56882 0.43698 0.0
H2905 H 0.5358 0.52245 0.44114 0.0
H2906 H 0.47024 0.5513 0.483 0.0
H2907 H 0.52543 0.55832 0.40257 0.0
H2908 H 0.51033 0.53089 0.45552 0.0
H2909 H 0.47513 0.56342 0.42294 0.0
C2910 C 0.45881 0.56394 0.4442 0.0
C2911 C 0.45687 0.56029 0.46124 0.0
C2912 C 0.51366 0.53705 0.44399 0.0
C2913 C 0.4873 0.55381 0.44507 0.0
C2914 C 0.52823 0.53227 0.43581 0.0
C2915 C 0.53278 0.5398 0.42071 0.0
C2916 C 0.50329 0.54922 0.43689 0.0
C2917 C 0.52236 0.55228 0.41423 0.0
C2918 C 0.47399 0.56082 0.43612 0.0
C2919 C 0.47077 0.55384 0.46978 0.0
N2920 N 0.50798 0.55648 0.42225 0.0
N2921 N 0.48524 0.55068 0.4616 0.0
H2922 H 0.24621 0.73713 0.68457 0.0
H2923 H 0.20206 0.82575 0.68318 0.0
H2924 H 0.21053 0.74959 0.64648 0.0
H2925 H 0.21913 0.8022 0.72847 0.0
H2926 H 0.20685 0.79946 0.66831 0.0
H2927 H 0.23855 0.76243 0.6997 0.0
C2928 C 0.23661 0.74513 0.67949 0.0
C2929 C 0.22891 0.74121 0.6643 0.0
C2930 C 0.2095 0.80014 0.68151 0.0
C2931 C 0.22037 0.77052 0.68135 0.0
C2932 C 0.20673 0.81515 0.69007 0.0
C2933 C 0.21042 0.81648 0.70716 0.0
C2934 C 0.21621 0.78639 0.69003 0.0
C2935 C 0.21658 0.80216 0.71524 0.0
C2936 C 0.23227 0.75961 0.68809 0.0
C2937 C 0.21671 0.75218 0.65817 0.0
N2938 N 0.21941 0.78787 0.70661 0.0
N2939 N 0.21293 0.76645 0.66662 0.0
H2940 H 0.06971 0.56618 0.58193 0.0
H2941 H 0.98109 0.52269 0.57647 0.0
H2942 H 0.04771 0.55027 0.53547 0.0
H2943 H 0.99243 0.55733 0.61588 0.0
H2944 H 1.00672 0.53083 0.56222 0.0
H2945 H 0.04283 0.56143 0.59571 0.0
C2946 C 0.05932 0.56177 0.57457 0.0
C2947 C 0.06126 0.55836 0.55747 0.0
C2948 C 1.00356 0.53681 0.5739 0.0
C2949 C 0.03049 0.55267 0.57332 0.0
C2950 C 0.98888 0.53222 0.582 0.0
C2951 C 0.98458 0.53943 0.59732 0.0
C2952 C 0.01429 0.54847 0.58132 0.0
C2953 C 0.9953 0.55153 0.60404 0.0
C2954 C 0.04397 0.55903 0.58249 0.0
C2955 C 0.0472 0.55256 0.54873 0.0
N2956 N 0.00979 0.55553 0.59611 0.0
N2957 N 0.03256 0.54977 0.55675 0.0
H2958 H 0.94517 0.94836 0.58125 0.0
H2959 H 0.03348 0.99298 0.57729 0.0
H2960 H 0.96803 0.96477 0.53538 0.0
H2961 H 0.02104 0.95964 0.61748 0.0
H2962 H 0.00825 0.98443 0.56266 0.0
H2963 H 0.97155 0.95376 0.59575 0.0
C2964 C 0.95566 0.95301 0.57417 0.0
C2965 C 0.95413 0.95637 0.55703 0.0
C2966 C 0.01106 0.97884 0.57461 0.0
C2967 C 0.98428 0.96278 0.57367 0.0
C2968 C 0.02551 0.98368 0.58294 0.0
C2969 C 0.0294 0.97691 0.59857 0.0
C2970 C 1.00016 0.96736 0.58206 0.0
C2971 C 0.01848 0.96508 0.60541 0.0
C2972 C 0.97071 0.95612 0.5825 0.0
C2973 C 0.96827 0.96248 0.54865 0.0
N2974 N 1.00423 0.96079 0.5972 0.0
N2975 N 0.9826 0.9656 0.55705 0.0
H2976 H 0.70696 0.82932 0.70662 0.0
H2977 H 0.6787 0.75598 0.76845 0.0
H2978 H 0.71555 0.77721 0.69654 0.0
H2979 H 0.66666 0.80768 0.77626 0.0
H2980 H 0.69386 0.7636 0.74301 0.0
H2981 H 0.69346 0.82176 0.73281 0.0
C2982 C 0.70603 0.81627 0.7099 0.0
C2983 C 0.71246 0.80389 0.6993 0.0
C2984 C 0.68812 0.77334 0.75038 0.0
C2985 C 0.69691 0.79511 0.72943 0.0
C2986 C 0.67961 0.76899 0.76496 0.0
C2987 C 0.67181 0.78128 0.77462 0.0
C2988 C 0.68871 0.79011 0.74535 0.0
C2989 C 0.67292 0.79791 0.76939 0.0
C2990 C 0.69826 0.81195 0.72488 0.0
C2991 C 0.71063 0.78717 0.70418 0.0
N2992 N 0.68119 0.80183 0.7551 0.0
N2993 N 0.7031 0.78328 0.71889 0.0
H2994 H 0.0623 0.10288 0.48129 0.0
H2995 H 0.02936 0.05936 0.56519 0.0
H2996 H 0.01067 0.09484 0.49346 0.0
H2997 H 0.08166 0.06339 0.55352 0.0
H2998 H 0.02274 0.07371 0.53933 0.0
H2999 H 0.0702 0.08941 0.50779 0.0
C3000 C 0.05268 0.09822 0.48951 0.0
C3001 C 0.03584 0.09994 0.48522 0.0
C3002 C 0.03569 0.07153 0.54238 0.0
C3003 C 0.04464 0.08474 0.51543 0.0
C3004 C 0.03949 0.06329 0.55718 0.0
C3005 C 0.0561 0.06 0.56151 0.0
C3006 C 0.04857 0.07661 0.53166 0.0
C3007 C 0.06868 0.06573 0.55074 0.0
C3008 C 0.05715 0.0906 0.50461 0.0
C3009 C 0.0238 0.09374 0.49626 0.0
N3010 N 0.06466 0.07366 0.53626 0.0
N3011 N 0.02842 0.08649 0.51081 0.0
H3012 H 0.33133 0.74693 0.77964 0.0
H3013 H 0.33359 0.7019 0.69135 0.0
H3014 H 0.36977 0.71149 0.76745 0.0
H3015 H 0.28843 0.72068 0.71383 0.0
H3016 H 0.34816 0.70675 0.71779 0.0
H3017 H 0.31646 0.73918 0.75425 0.0
C3018 C 0.33653 0.73734 0.77168 0.0
C3019 C 0.35174 0.72974 0.77569 0.0
C3020 C 0.33505 0.70976 0.71685 0.0
C3021 C 0.33498 0.7211 0.74629 0.0
C3022 C 0.32668 0.70696 0.70176 0.0
C3023 C 0.30973 0.71112 0.70009 0.0
C3024 C 0.32648 0.71692 0.73034 0.0
C3025 C 0.30158 0.71775 0.71415 0.0
C3026 C 0.32807 0.73296 0.75715 0.0
C3027 C 0.35804 0.71757 0.76479 0.0
N3028 N 0.31003 0.72056 0.72853 0.0
N3029 N 0.34972 0.71374 0.75047 0.0
H3030 H 0.95251 0.41181 0.48246 0.0
H3031 H 0.98561 0.4562 0.56582 0.0
H3032 H 1.00401 0.42194 0.49351 0.0
H3033 H 0.93325 0.4515 0.55479 0.0
H3034 H 0.99213 0.44202 0.53984 0.0
H3035 H 0.94463 0.42516 0.50905 0.0
C3036 C 0.9621 0.41694 0.49043 0.0
C3037 C 0.97891 0.41582 0.4858 0.0
C3038 C 0.97918 0.44401 0.54306 0.0
C3039 C 0.97013 0.43084 0.51613 0.0
C3040 C 0.97545 0.45214 0.55794 0.0
C3041 C 0.95885 0.45522 0.56247 0.0
C3042 C 0.96625 0.43881 0.53247 0.0
C3043 C 0.94622 0.44933 0.55185 0.0
C3044 C 0.95764 0.42448 0.50559 0.0
C3045 C 0.99091 0.42258 0.49655 0.0
N3046 N 0.95018 0.4415 0.53728 0.0
N3047 N 0.9863 0.42972 0.51116 0.0
H3048 H 0.6627 0.25546 0.75201 0.0
H3049 H 0.69982 0.18504 0.81225 0.0
H3050 H 0.65867 0.20316 0.74048 0.0
H3051 H 0.70123 0.23788 0.82209 0.0
H3052 H 0.68418 0.19065 0.78652 0.0
H3053 H 0.67678 0.2486 0.77779 0.0
C3054 C 0.66492 0.24247 0.75483 0.0
C3055 C 0.6596 0.22986 0.74396 0.0
C3056 C 0.68786 0.20098 0.79437 0.0
C3057 C 0.6757 0.22179 0.77391 0.0
C3058 C 0.69666 0.19779 0.80913 0.0
C3059 C 0.70196 0.21102 0.81932 0.0
C3060 C 0.68431 0.21752 0.78981 0.0
C3061 C 0.69766 0.22729 0.81453 0.0
C3062 C 0.67291 0.23853 0.76969 0.0
C3063 C 0.66265 0.21324 0.7485 0.0
N3064 N 0.6892 0.23004 0.80016 0.0
N3065 N 0.67052 0.20965 0.76315 0.0
H3066 H 0.44494 0.08196 0.44733 0.0
H3067 H 0.49193 0.07748 0.53423 0.0
H3068 H 0.46495 0.03623 0.4675 0.0
H3069 H 0.455 0.11521 0.52454 0.0
H3070 H 0.48361 0.06307 0.50874 0.0
H3071 H 0.44977 0.09543 0.47434 0.0
C3072 C 0.45027 0.0747 0.45735 0.0
C3073 C 0.45478 0.05793 0.45486 0.0
C3074 C 0.47716 0.07439 0.51224 0.0
C3075 C 0.46054 0.07342 0.48578 0.0
C3076 C 0.48185 0.08257 0.52684 0.0
C3077 C 0.47407 0.0975 0.53152 0.0
C3078 C 0.46479 0.08134 0.50199 0.0
C3079 C 0.46125 0.10368 0.52135 0.0
C3080 C 0.45304 0.08244 0.47278 0.0
C3081 C 0.46175 0.04929 0.46846 0.0
N3082 N 0.45714 0.0957 0.50692 0.0
N3083 N 0.46453 0.05715 0.48318 0.0
H3084 H 0.3363 0.25541 0.74704 0.0
H3085 H 0.30867 0.32882 0.80916 0.0
H3086 H 0.34896 0.307 0.73953 0.0
H3087 H 0.29912 0.27679 0.81877 0.0
H3088 H 0.32218 0.3212 0.78298 0.0
H3089 H 0.32106 0.26311 0.77241 0.0
C3090 C 0.33552 0.26842 0.75058 0.0
C3091 C 0.34351 0.28065 0.74102 0.0
C3092 C 0.31716 0.31143 0.79081 0.0
C3093 C 0.32651 0.28956 0.77023 0.0
C3094 C 0.30939 0.31577 0.80577 0.0
C3095 C 0.30268 0.30344 0.81625 0.0
C3096 C 0.31827 0.2946 0.78613 0.0
C3097 C 0.30425 0.28673 0.81123 0.0
C3098 C 0.32696 0.2728 0.76512 0.0
C3099 C 0.34255 0.29727 0.74633 0.0
N3100 N 0.31181 0.28281 0.79654 0.0
N3101 N 0.33423 0.30124 0.76058 0.0
H3102 H 0.56861 0.43351 0.44801 0.0
H3103 H 0.52454 0.43741 0.53676 0.0
H3104 H 0.55205 0.47928 0.47101 0.0
H3105 H 0.55649 0.39645 0.52317 0.0
H3106 H 0.53314 0.4522 0.51163 0.0
H3107 H 0.56313 0.41887 0.47429 0.0
C3108 C 0.56391 0.44053 0.45852 0.0
C3109 C 0.56055 0.45768 0.45706 0.0
C3110 C 0.53843 0.44005 0.51417 0.0
C3111 C 0.55408 0.4409 0.48712 0.0
C3112 C 0.53357 0.43164 0.52856 0.0
C3113 C 0.53992 0.41574 0.53208 0.0
C3114 C 0.54953 0.43244 0.50298 0.0
C3115 C 0.55139 0.40873 0.52089 0.0
C3116 C 0.56075 0.43213 0.47352 0.0
C3117 C 0.55436 0.466 0.47121 0.0
N3118 N 0.55572 0.41704 0.50672 0.0
N3119 N 0.55123 0.45754 0.48551 0.0
H3120 H 0.70824 0.70754 0.82713 0.0
H3121 H 0.77034 0.67969 0.75386 0.0
H3122 H 0.69854 0.71682 0.77509 0.0
H3123 H 0.7779 0.66738 0.8055 0.0
H3124 H 0.74491 0.69489 0.76147 0.0
H3125 H 0.73443 0.69404 0.81955 0.0
C3126 C 0.71161 0.70676 0.81409 0.0
C3127 C 0.70112 0.71339 0.80174 0.0
C3128 C 0.75222 0.68907 0.77119 0.0
C3129 C 0.73123 0.69783 0.79294 0.0
C3130 C 0.76679 0.68054 0.76686 0.0
C3131 C 0.77638 0.67266 0.77914 0.0
C3132 C 0.74713 0.6896 0.78794 0.0
C3133 C 0.77107 0.6737 0.79574 0.0
C3134 C 0.72658 0.699 0.80977 0.0
C3135 C 0.7061 0.71175 0.78503 0.0
N3136 N 0.7568 0.68199 0.79966 0.0
N3137 N 0.7208 0.7042 0.78114 0.0
H3138 H 0.93749 0.98168 0.49223 0.0
H3139 H 0.93248 0.06903 0.44548 0.0
H3140 H 0.89847 0.99229 0.45696 0.0
H3141 H 0.9781 0.04865 0.46545 0.0
H3142 H 0.91878 0.0422 0.45075 0.0
H3143 H 0.95164 1.00731 0.48395 0.0
C3144 C 0.93203 0.98933 0.48254 0.0
C3145 C 0.91686 0.98482 0.47516 0.0
C3146 C 0.9318 0.04368 0.45393 0.0
C3147 C 0.93277 0.0145 0.46591 0.0
C3148 C 0.93967 0.05899 0.4509 0.0
C3149 C 0.95648 0.06136 0.45526 0.0
C3150 C 0.94074 0.03066 0.4615 0.0
C3151 C 0.96502 0.04777 0.46234 0.0
C3152 C 0.94007 1.00401 0.47786 0.0
C3153 C 0.9102 0.99533 0.46286 0.0
N3154 N 0.95706 0.03315 0.46534 0.0
N3155 N 0.9181 0.0098 0.45873 0.0
H3156 H 0.23504 0.83167 0.77224 0.0
H3157 H 0.32354 0.83405 0.8164 0.0
H3158 H 0.24743 0.87 0.80771 0.0
H3159 H 0.30127 0.78875 0.79772 0.0
H3160 H 0.29688 0.84838 0.81214 0.0
H3161 H 0.26026 0.81654 0.78008 0.0
C3162 C 0.24298 0.83676 0.78189 0.0
C3163 C 0.23913 0.85207 0.78941 0.0
C3164 C 0.2979 0.83528 0.80903 0.0
C3165 C 0.26834 0.83504 0.79812 0.0
C3166 C 0.31312 0.82705 0.81149 0.0
C3167 C 0.31491 0.81015 0.80718 0.0
C3168 C 0.28439 0.82662 0.80206 0.0
C3169 C 0.30084 0.80188 0.80075 0.0
C3170 C 0.25742 0.82817 0.78631 0.0
C3171 C 0.24998 0.85821 0.80167 0.0
N3172 N 0.28632 0.8102 0.79827 0.0
N3173 N 0.26423 0.84979 0.80551 0.0
H3174 H 0.07686 0.53491 0.4928 0.0
H3175 H 0.08134 0.44841 0.44502 0.0
H3176 H 0.11447 0.52561 0.45566 0.0
H3177 H 0.03558 0.46847 0.46506 0.0
H3178 H 0.09477 0.47541 0.45005 0.0
H3179 H 0.06244 0.50951 0.4842 0.0
C3180 C 0.08192 0.52763 0.48262 0.0
C3181 C 0.09682 0.5324 0.47485 0.0
C3182 C 0.08177 0.47383 0.45329 0.0
C3183 C 0.08066 0.50296 0.46527 0.0
C3184 C 0.07405 0.45841 0.45039 0.0
C3185 C 0.05729 0.45589 0.45485 0.0
C3186 C 0.07275 0.48678 0.46086 0.0
C3187 C 0.04863 0.46945 0.46189 0.0
C3188 C 0.07374 0.51308 0.47777 0.0
C3189 C 0.10297 0.52236 0.4619 0.0
N3190 N 0.05648 0.48416 0.46479 0.0
N3191 N 0.09499 0.50797 0.45765 0.0
H3192 H 0.7697 0.33864 0.76132 0.0
H3193 H 0.70481 0.31236 0.68991 0.0
H3194 H 0.77672 0.3515 0.70974 0.0
H3195 H 0.69528 0.3078 0.74263 0.0
H3196 H 0.73175 0.32528 0.69631 0.0
H3197 H 0.74346 0.32488 0.75409 0.0
C3198 C 0.76585 0.33819 0.7484 0.0
C3199 C 0.77552 0.34585 0.73605 0.0
C3200 C 0.72372 0.32146 0.70646 0.0
C3201 C 0.74526 0.33056 0.72766 0.0
C3202 C 0.70824 0.31423 0.70282 0.0
C3203 C 0.69769 0.30884 0.71573 0.0
C3204 C 0.72876 0.32329 0.72313 0.0
C3205 C 0.70304 0.31141 0.73222 0.0
C3206 C 0.7508 0.3305 0.74427 0.0
C3207 C 0.76981 0.34533 0.71953 0.0
N3208 N 0.71815 0.31834 0.73541 0.0
N3209 N 0.75503 0.33784 0.7158 0.0
H3210 H 0.57585 0.98125 0.52262 0.0
H3211 H 0.58078 0.07007 0.56598 0.0
H3212 H 0.61488 0.9928 0.55758 0.0
H3213 H 0.53451 0.04803 0.54955 0.0
H3214 H 0.59463 0.04319 0.56135 0.0
H3215 H 0.56151 1.00693 0.5305 0.0
C3216 C 0.58128 0.9891 0.53215 0.0
C3217 C 0.59654 0.98485 0.53953 0.0
C3218 C 0.58143 0.04433 0.55881 0.0
C3219 C 0.58041 0.01461 0.54828 0.0
C3220 C 0.57347 0.05968 0.56148 0.0
C3221 C 0.55641 0.0616 0.55791 0.0
C3222 C 0.57235 0.03083 0.55235 0.0
C3223 C 0.54775 0.04753 0.55198 0.0
C3224 C 0.57313 1.00381 0.53659 0.0
C3225 C 0.60312 0.99564 0.55164 0.0
N3226 N 0.55582 0.03289 0.54926 0.0
N3227 N 0.59513 0.01015 0.5555 0.0
H3228 H 0.31673 0.2171 0.74044 0.0
H3229 H 0.23495 0.16956 0.70804 0.0
H3230 H 0.306 0.20833 0.68851 0.0
H3231 H 0.24441 0.18022 0.75974 0.0
H3232 H 0.26034 0.1848 0.70052 0.0
H3233 H 0.29022 0.20396 0.74777 0.0
C3234 C 0.30889 0.21229 0.73058 0.0
C3235 C 0.31368 0.21385 0.71381 0.0
C3236 C 0.25676 0.18406 0.7135 0.0
C3237 C 0.28308 0.19898 0.72213 0.0
C3238 C 0.24215 0.17555 0.71775 0.0
C3239 C 0.23742 0.17404 0.73448 0.0
C3240 C 0.26684 0.19088 0.72611 0.0
C3241 C 0.24753 0.18141 0.74667 0.0
C3242 C 0.29366 0.20492 0.73477 0.0
C3243 C 0.3028 0.20761 0.70158 0.0
N3244 N 0.26179 0.18945 0.74226 0.0
N3245 N 0.28807 0.20046 0.70598 0.0
H3246 H 0.48161 0.4702 0.55385 0.0
H3247 H 0.39659 0.52204 0.55807 0.0
H3248 H 0.43548 0.44767 0.56991 0.0
H3249 H 0.43781 0.53472 0.52613 0.0
H3250 H 0.41165 0.4967 0.56681 0.0
H3251 H 0.4667 0.49586 0.54787 0.0
C3252 C 0.46831 0.47052 0.55601 0.0
C3253 C 0.45981 0.45645 0.56208 0.0
C3254 C 0.41742 0.50513 0.558 0.0
C3255 C 0.44264 0.48632 0.55568 0.0
C3256 C 0.40889 0.51959 0.5531 0.0
C3257 C 0.41601 0.53049 0.54143 0.0
C3258 C 0.43327 0.50175 0.55136 0.0
C3259 C 0.43193 0.52672 0.53526 0.0
C3260 C 0.45982 0.48531 0.5527 0.0
C3261 C 0.44263 0.45809 0.56525 0.0
N3262 N 0.44 0.51273 0.54031 0.0
N3263 N 0.43461 0.47273 0.56197 0.0
H3264 H 0.82932 0.7079 0.70543 0.0
H3265 H 0.75541 0.76941 0.67788 0.0
H3266 H 0.77739 0.69757 0.71458 0.0
H3267 H 0.80689 0.77734 0.66516 0.0
H3268 H 0.76331 0.74397 0.69292 0.0
H3269 H 0.82146 0.73401 0.69191 0.0
C3270 C 0.81624 0.71111 0.70461 0.0
C3271 C 0.80401 0.70045 0.71121 0.0
C3272 C 0.77293 0.75137 0.68705 0.0
C3273 C 0.79489 0.7305 0.69563 0.0
C3274 C 0.76843 0.76594 0.6786 0.0
C3275 C 0.78058 0.77565 0.67066 0.0
C3276 C 0.78971 0.74638 0.68744 0.0
C3277 C 0.79722 0.77044 0.67154 0.0
C3278 C 0.81176 0.72604 0.69683 0.0
C3279 C 0.78725 0.70525 0.70953 0.0
N3280 N 0.8013 0.75616 0.67976 0.0
N3281 N 0.7832 0.71992 0.70198 0.0
H3282 H 0.83148 0.30928 0.8104 0.0
H3283 H 0.7589 0.25015 0.84525 0.0
H3284 H 0.77909 0.32022 0.80554 0.0
H3285 H 0.81098 0.23999 0.85312 0.0
H3286 H 0.76626 0.27542 0.83003 0.0
H3287 H 0.82447 0.28378 0.82553 0.0
C3288 C 0.81849 0.30635 0.81249 0.0
C3289 C 0.80587 0.31699 0.80658 0.0
C3290 C 0.77613 0.2677 0.83501 0.0
C3291 C 0.79775 0.28767 0.82406 0.0
C3292 C 0.77193 0.2532 0.84365 0.0
C3293 C 0.78436 0.24294 0.85043 0.0
C3294 C 0.79295 0.27207 0.83304 0.0
C3295 C 0.80104 0.24756 0.84805 0.0
C3296 C 0.8145 0.29177 0.82121 0.0
C3297 C 0.78927 0.31257 0.80996 0.0
N3298 N 0.80486 0.2618 0.83957 0.0
N3299 N 0.78572 0.29826 0.81839 0.0
H3300 H 0.5654 0.98582 0.45645 0.0
H3301 H 0.4819 0.95257 0.41244 0.0
H3302 H 0.55429 0.93342 0.45193 0.0
H3303 H 0.49334 1.0042 0.42162 0.0
H3304 H 0.50845 0.94473 0.42586 0.0
H3305 H 0.53945 0.99232 0.44223 0.0
C3306 C 0.5575 0.97564 0.45243 0.0
C3307 C 0.56202 0.95904 0.45556 0.0
C3308 C 0.50509 0.95777 0.42495 0.0
C3309 C 0.53204 0.96643 0.4391 0.0
C3310 C 0.48996 0.9622 0.41737 0.0
C3311 C 0.48544 0.97903 0.41597 0.0
C3312 C 0.51573 0.9703 0.43108 0.0
C3313 C 0.49628 0.99108 0.42248 0.0
C3314 C 0.54264 0.97937 0.44426 0.0
C3315 C 0.55137 0.9464 0.44972 0.0
N3316 N 0.51087 0.98649 0.42967 0.0
N3317 N 0.53682 0.95035 0.44186 0.0
H3318 H 0.26007 0.27015 0.83778 0.0
H3319 H 0.18688 0.20772 0.81051 0.0
H3320 H 0.20841 0.2778 0.84995 0.0
H3321 H 0.23874 0.1988 0.79961 0.0
H3322 H 0.19448 0.23384 0.82411 0.0
H3323 H 0.25248 0.24472 0.82254 0.0
C3324 C 0.24707 0.26662 0.83688 0.0
C3325 C 0.23478 0.27624 0.84475 0.0
C3326 C 0.20423 0.22618 0.81878 0.0
C3327 C 0.22601 0.24697 0.82777 0.0
C3328 C 0.19989 0.21124 0.81095 0.0
C3329 C 0.21217 0.20099 0.80381 0.0
C3330 C 0.22101 0.23105 0.81952 0.0
C3331 C 0.22885 0.20616 0.80506 0.0
C3332 C 0.24275 0.25206 0.82833 0.0
C3333 C 0.21818 0.27096 0.84365 0.0
N3334 N 0.23276 0.22083 0.8127 0.0
N3335 N 0.21428 0.25667 0.83536 0.0
H3336 H 0.02323 0.05698 0.89811 0.0
H3337 H 0.96605 0.04823 0.97897 0.0
H3338 H 0.03178 0.02072 0.93675 0.0
H3339 H 0.94618 0.06674 0.9325 0.0
H3340 H 0.9923 0.04245 0.96513 0.0
H3341 H 0.99707 0.06513 0.91206 0.0
C3342 C 0.0197 0.05094 0.90964 0.0
C3343 C 0.02968 0.03824 0.91635 0.0
C3344 C 0.98219 0.04775 0.95794 0.0
C3345 C 1.00004 0.0475 0.93235 0.0
C3346 C 0.96704 0.05094 0.9658 0.0
C3347 C 0.95352 0.05764 0.95687 0.0
C3348 C 0.98417 0.05155 0.94102 0.0
C3349 C 0.95612 0.06155 0.93996 0.0
C3350 C 1.00478 0.0555 0.91751 0.0
C3351 C 0.02453 0.03068 0.93125 0.0
N3352 N 0.97113 0.05843 0.93258 0.0
N3353 N 0.01013 0.03546 0.93875 0.0
H3354 H 0.75963 0.24649 0.17885 0.0
H3355 H 0.68698 0.30848 0.20854 0.0
H3356 H 0.70766 0.2384 0.16849 0.0
H3357 H 0.73917 0.31787 0.2172 0.0
H3358 H 0.69423 0.28222 0.19501 0.0
H3359 H 0.75234 0.27178 0.19444 0.0
C3360 C 0.74664 0.24988 0.18024 0.0
C3361 C 0.73418 0.24019 0.17276 0.0
C3362 C 0.70412 0.29001 0.19984 0.0
C3363 C 0.72572 0.26933 0.19012 0.0
C3364 C 0.69998 0.30503 0.20763 0.0
C3365 C 0.71247 0.31547 0.2141 0.0
C3366 C 0.7209 0.28525 0.19846 0.0
C3367 C 0.72912 0.31037 0.21226 0.0
C3368 C 0.74248 0.26437 0.18899 0.0
C3369 C 0.71757 0.2453 0.17448 0.0
N3370 N 0.73283 0.29563 0.20467 0.0
N3371 N 0.71383 0.25954 0.18294 0.0
H3372 H 0.56331 0.03231 0.05531 0.0
H3373 H 0.4808 0.06443 0.10202 0.0
H3374 H 0.55216 0.0846 0.06108 0.0
H3375 H 0.49232 0.01302 0.09171 0.0
H3376 H 0.50689 0.07265 0.08793 0.0
H3377 H 0.53765 0.02548 0.06988 0.0
C3378 C 0.55545 0.04239 0.05965 0.0
C3379 C 0.55987 0.05907 0.05678 0.0
C3380 C 0.50364 0.05958 0.08873 0.0
C3381 C 0.53025 0.05129 0.0737 0.0
C3382 C 0.48877 0.05493 0.0967 0.0
C3383 C 0.48442 0.03805 0.09798 0.0
C3384 C 0.51418 0.04721 0.08209 0.0
C3385 C 0.49514 0.02617 0.09095 0.0
C3386 C 0.54076 0.03848 0.06803 0.0
C3387 C 0.5493 0.07157 0.06307 0.0
N3388 N 0.50948 0.03097 0.0834 0.0
N3389 N 0.53493 0.06743 0.07115 0.0
H3390 H 0.52684 0.45702 0.11568 0.0
H3391 H 0.47162 0.4646 0.0332 0.0
H3392 H 0.53763 0.49095 0.07552 0.0
H3393 H 0.45079 0.44728 0.0797 0.0
H3394 H 0.49786 0.46995 0.04725 0.0
H3395 H 0.50095 0.44883 0.1013 0.0
C3396 C 0.52387 0.46252 0.10372 0.0
C3397 C 0.53437 0.47462 0.09673 0.0
C3398 C 0.48755 0.46499 0.0544 0.0
C3399 C 0.50502 0.46533 0.08026 0.0
C3400 C 0.47242 0.46205 0.04641 0.0
C3401 C 0.45866 0.45581 0.05529 0.0
C3402 C 0.48921 0.46144 0.07141 0.0
C3403 C 0.46095 0.4521 0.07228 0.0
C3404 C 0.50909 0.45795 0.09561 0.0
C3405 C 0.52995 0.48148 0.08128 0.0
N3406 N 0.47591 0.45501 0.0798 0.0
N3407 N 0.51566 0.47674 0.07358 0.0
H3408 H 0.06398 0.29451 0.34394 0.0
H3409 H 0.05865 0.38542 0.38508 0.0
H3410 H 0.1037 0.33061 0.34107 0.0
H3411 H 0.0214 0.3474 0.39147 0.0
H3412 H 0.07358 0.36713 0.36557 0.0
H3413 H 0.0467 0.31509 0.35816 0.0
C3414 C 0.06908 0.30679 0.34623 0.0
C3415 C 0.08545 0.3107 0.34141 0.0
C3416 C 0.06198 0.36289 0.37097 0.0
C3417 C 0.06554 0.33452 0.35768 0.0
C3418 C 0.05339 0.3734 0.38194 0.0
C3419 C 0.03865 0.36797 0.38958 0.0
C3420 C 0.05583 0.34679 0.36774 0.0
C3421 C 0.03259 0.3521 0.38558 0.0
C3422 C 0.05915 0.31859 0.35431 0.0
C3423 C 0.09116 0.327 0.34444 0.0
N3424 N 0.04123 0.34204 0.37502 0.0
N3425 N 0.08129 0.33824 0.35249 0.0
H3426 H 0.59992 0.73791 0.86733 0.0
H3427 H 0.57898 0.64872 0.90717 0.0
H3428 H 0.62918 0.69381 0.85852 0.0
H3429 H 0.54578 0.69094 0.91005 0.0
H3430 H 0.59911 0.66592 0.89228 0.0
H3431 H 0.58176 0.72188 0.88598 0.0
C3432 C 0.60264 0.72488 0.86959 0.0
C3433 C 0.61608 0.71713 0.86155 0.0
C3434 C 0.58747 0.67147 0.89623 0.0
C3435 C 0.59529 0.69865 0.88263 0.0
C3436 C 0.57589 0.66162 0.9047 0.0
C3437 C 0.56048 0.66828 0.90972 0.0
C3438 C 0.58374 0.6882 0.89275 0.0
C3439 C 0.55747 0.68523 0.90651 0.0
C3440 C 0.59224 0.71572 0.88013 0.0
C3441 C 0.619 0.70021 0.86464 0.0
N3442 N 0.56893 0.69456 0.89814 0.0
N3443 N 0.60865 0.69151 0.87489 0.0
H3444 H 0.91153 0.18581 0.33961 0.0
H3445 H 0.99538 0.16796 0.39049 0.0
H3446 H 0.95155 0.22133 0.3447 0.0
H3447 H 0.95652 0.13158 0.38419 0.0
H3448 H 0.98081 0.18657 0.37114 0.0
H3449 H 0.92888 0.1648 0.35327 0.0
C3450 C 0.92404 0.18916 0.34335 0.0
C3451 C 0.92998 0.20548 0.34106 0.0
C3452 C 0.97559 0.17439 0.37368 0.0
C3453 C 0.9499 0.18143 0.35699 0.0
C3454 C 0.984 0.16374 0.3846 0.0
C3455 C 0.97727 0.14815 0.38862 0.0
C3456 C 0.96017 0.16953 0.36694 0.0
C3457 C 0.96225 0.14339 0.38108 0.0
C3458 C 0.93393 0.17715 0.35126 0.0
C3459 C 0.94627 0.20904 0.34643 0.0
N3460 N 0.95412 0.15409 0.37072 0.0
N3461 N 0.95557 0.1972 0.35421 0.0
H3462 H 0.47815 0.82139 0.91159 0.0
H3463 H 0.38598 0.80915 0.87487 0.0
H3464 H 0.43849 0.85724 0.91709 0.0
H3465 H 0.42594 0.77445 0.86619 0.0
H3466 H 0.4041 0.82496 0.89369 0.0
H3467 H 0.45847 0.8022 0.89821 0.0
C3468 C 0.46526 0.82514 0.91022 0.0
C3469 C 0.46004 0.84105 0.91535 0.0
C3470 C 0.40886 0.81372 0.88793 0.0
C3471 C 0.43743 0.81918 0.89991 0.0
C3472 C 0.39844 0.80461 0.87735 0.0
C3473 C 0.40441 0.79032 0.86927 0.0
C3474 C 0.42547 0.80864 0.89031 0.0
C3475 C 0.42084 0.78527 0.87244 0.0
C3476 C 0.45404 0.81421 0.90248 0.0
C3477 C 0.44318 0.84524 0.91309 0.0
N3478 N 0.43084 0.79446 0.88261 0.0
N3479 N 0.43256 0.83445 0.90549 0.0
H3480 H 0.06296 0.72256 0.17042 0.0
H3481 H 0.05766 0.63135 0.12994 0.0
H3482 H 0.10244 0.68624 0.174 0.0
H3483 H 0.02037 0.66932 0.1233 0.0
H3484 H 0.07249 0.64972 0.14943 0.0
H3485 H 0.04568 0.70192 0.15629 0.0
C3486 C 0.068 0.71022 0.16831 0.0
C3487 C 0.08431 0.70625 0.1733 0.0
C3488 C 0.0609 0.65394 0.14398 0.0
C3489 C 0.06441 0.68238 0.15713 0.0
C3490 C 0.05236 0.64338 0.13302 0.0
C3491 C 0.03765 0.64877 0.12531 0.0
C3492 C 0.05473 0.67005 0.14712 0.0
C3493 C 0.03155 0.66465 0.12924 0.0
C3494 C 0.05807 0.69839 0.16028 0.0
C3495 C 0.08995 0.68989 0.1705 0.0
N3496 N 0.04015 0.67476 0.13978 0.0
N3497 N 0.08009 0.67863 0.16248 0.0
H3498 H 0.91713 0.73948 0.14708 0.0
H3499 H 0.93641 0.65078 0.10521 0.0
H3500 H 0.8863 0.69615 0.15393 0.0
H3501 H 0.97179 0.69125 0.10638 0.0
H3502 H 0.91626 0.66838 0.11964 0.0
H3503 H 0.93534 0.72331 0.12856 0.0
C3504 C 0.91403 0.72663 0.14435 0.0
C3505 C 0.90015 0.71912 0.15184 0.0
C3506 C 0.92839 0.67345 0.11667 0.0
C3507 C 0.92103 0.70045 0.13095 0.0
C3508 C 0.93999 0.66336 0.10848 0.0
C3509 C 0.95602 0.66939 0.10471 0.0
C3510 C 0.93268 0.68981 0.1211 0.0
C3511 C 0.95963 0.68602 0.10891 0.0
C3512 C 0.92448 0.71737 0.13391 0.0
C3513 C 0.8968 0.70238 0.1482 0.0
N3514 N 0.94812 0.69559 0.11695 0.0
N3515 N 0.9072 0.69358 0.13807 0.0
H3516 H 0.95259 0.79314 0.16953 0.0
H3517 H 0.95666 0.88475 0.12975 0.0
H3518 H 0.91337 0.82952 0.17496 0.0
H3519 H 0.9939 0.84697 0.12181 0.0
H3520 H 0.94226 0.86606 0.14927 0.0
H3521 H 0.96933 0.81384 0.15483 0.0
C3522 C 0.94749 0.80551 0.16771 0.0
C3523 C 0.93142 0.80948 0.17341 0.0
C3524 C 0.95374 0.86194 0.1435 0.0
C3525 C 0.95069 0.83341 0.15656 0.0
C3526 C 0.96202 0.87267 0.13251 0.0
C3527 C 0.97663 0.86746 0.12447 0.0
C3528 C 0.96003 0.84582 0.14633 0.0
C3529 C 0.98281 0.85151 0.12801 0.0
C3530 C 0.95712 0.81736 0.15934 0.0
C3531 C 0.9257 0.82586 0.17092 0.0
N3532 N 0.97446 0.84124 0.1386 0.0
N3533 N 0.93525 0.83716 0.16258 0.0
H3534 H 0.07785 0.86658 0.10637 0.0
H3535 H 0.09746 0.77737 0.14693 0.0
H3536 H 0.04289 0.82573 0.10616 0.0
H3537 H 0.12776 0.82089 0.15486 0.0
H3538 H 0.07922 0.7937 0.1286 0.0
H3539 H 0.09791 0.84895 0.12085 0.0
C3540 C 0.07434 0.8539 0.10935 0.0
C3541 C 0.05846 0.84777 0.10519 0.0
C3542 C 0.08995 0.79966 0.13417 0.0
C3543 C 0.08168 0.82733 0.12166 0.0
C3544 C 0.10041 0.79032 0.14451 0.0
C3545 C 0.11418 0.79782 0.15222 0.0
C3546 C 0.09328 0.81665 0.13153 0.0
C3547 C 0.11735 0.81467 0.14897 0.0
C3548 C 0.08589 0.8438 0.11758 0.0
C3549 C 0.05494 0.83104 0.10902 0.0
N3550 N 0.10696 0.82354 0.13891 0.0
N3551 N 0.0664 0.82145 0.11711 0.0
H3552 H 0.33991 0.10381 0.3298 0.0
H3553 H 0.39152 0.02015 0.34696 0.0
H3554 H 0.3451 0.06396 0.29407 0.0
H3555 H 0.38492 0.05871 0.38363 0.0
H3556 H 0.37212 0.03478 0.32845 0.0
H3557 H 0.35386 0.08646 0.35062 0.0
C3558 C 0.34373 0.09133 0.32637 0.0
C3559 C 0.34138 0.08544 0.31004 0.0
C3560 C 0.37462 0.03992 0.34066 0.0
C3561 C 0.35766 0.06553 0.33386 0.0
C3562 C 0.38557 0.03148 0.35125 0.0
C3563 C 0.38951 0.0381 0.36691 0.0
C3564 C 0.36774 0.05527 0.34565 0.0
C3565 C 0.38188 0.05306 0.37177 0.0
C3566 C 0.35181 0.08145 0.33827 0.0
C3567 C 0.34687 0.0692 0.30636 0.0
N3568 N 0.37147 0.06122 0.36113 0.0
N3569 N 0.35481 0.05991 0.3181 0.0
H3570 H 0.36627 0.41077 0.93684 0.0
H3571 H 0.27805 0.36736 0.91929 0.0
H3572 H 0.32653 0.40933 0.97302 0.0
H3573 H 0.32095 0.36129 0.8877 0.0
H3574 H 0.29425 0.38594 0.93741 0.0
H3575 H 0.34856 0.3959 0.91716 0.0
C3576 C 0.3538 0.40736 0.94068 0.0
C3577 C 0.34803 0.41115 0.9568 0.0
C3578 C 0.3001 0.38071 0.92644 0.0
C3579 C 0.3275 0.39418 0.93403 0.0
C3580 C 0.29084 0.3702 0.91607 0.0
C3581 C 0.2982 0.36296 0.90197 0.0
C3582 C 0.31688 0.384 0.92267 0.0
C3583 C 0.31484 0.36678 0.8984 0.0
C3584 C 0.34366 0.3989 0.92936 0.0
C3585 C 0.33155 0.40676 0.96077 0.0
N3586 N 0.32363 0.37701 0.9087 0.0
N3587 N 0.32192 0.39842 0.94953 0.0
H3588 H 0.64806 0.43534 0.29453 0.0
H3589 H 0.63515 0.46095 0.38663 0.0
H3590 H 0.69004 0.42974 0.3279 0.0
H3591 H 0.61851 0.49288 0.34684 0.0
H3592 H 0.65372 0.44657 0.36689 0.0
H3593 H 0.63482 0.45332 0.31477 0.0
C3594 C 0.65479 0.438 0.30588 0.0
C3595 C 0.6706 0.43103 0.30906 0.0
C3596 C 0.6463 0.45701 0.36263 0.0
C3597 C 0.65464 0.45122 0.33293 0.0
C3598 C 0.63586 0.46533 0.3739 0.0
C3599 C 0.62558 0.4784 0.36842 0.0
C3600 C 0.64595 0.4614 0.3457 0.0
C3601 C 0.62642 0.48304 0.35158 0.0
C3602 C 0.64701 0.44824 0.31756 0.0
C3603 C 0.67789 0.43455 0.32469 0.0
N3604 N 0.63616 0.47436 0.34077 0.0
N3605 N 0.66978 0.44424 0.33609 0.0
H3606 H 0.69346 0.10526 0.97791 0.0
H3607 H 0.7073 0.14407 0.88677 0.0
H3608 H 0.65779 0.10171 0.93791 0.0
H3609 H 0.74185 0.1509 0.92718 0.0
H3610 H 0.69083 0.12531 0.90436 0.0
H3611 H 0.71303 0.11882 0.95874 0.0
C3612 C 0.68982 0.10711 0.96505 0.0
C3613 C 0.67386 0.10245 0.95959 0.0
C3614 C 0.70216 0.13066 0.90934 0.0
C3615 C 0.69618 0.11811 0.93757 0.0
C3616 C 0.71164 0.14121 0.89922 0.0
C3617 C 0.72609 0.14875 0.90547 0.0
C3618 C 0.70704 0.12776 0.92592 0.0
C3619 C 0.73091 0.14508 0.92186 0.0
C3620 C 0.70097 0.11495 0.95413 0.0
C3621 C 0.66982 0.10533 0.94279 0.0
N3622 N 0.72137 0.13494 0.93156 0.0
N3623 N 0.68083 0.11302 0.93245 0.0
H3624 H 0.32447 0.92904 0.1887 0.0
H3625 H 0.39809 0.9927 0.17127 0.0
H3626 H 0.36662 0.9349 0.2218 0.0
H3627 H 0.38056 0.96107 0.13161 0.0
H3628 H 0.37973 0.97793 0.19074 0.0
H3629 H 0.33899 0.94628 0.16813 0.0
C3630 C 0.33665 0.93385 0.19183 0.0
C3631 C 0.34407 0.93039 0.20739 0.0
C3632 C 0.37961 0.97452 0.17769 0.0
C3633 C 0.36035 0.95082 0.18393 0.0
C3634 C 0.38994 0.98302 0.16657 0.0
C3635 C 0.39062 0.97829 0.14977 0.0
C3636 C 0.36968 0.96134 0.17194 0.0
C3637 C 0.38008 0.9654 0.14437 0.0
C3638 C 0.34484 0.94383 0.18003 0.0
C3639 C 0.35987 0.93746 0.21046 0.0
N3640 N 0.37002 0.95732 0.15544 0.0
N3641 N 0.36733 0.94738 0.19896 0.0
H3642 H 0.19297 0.35036 0.12394 0.0
H3643 H 0.18545 0.42582 0.05975 0.0
H3644 H 0.23681 0.37277 0.10261 0.0
H3645 H 0.15117 0.38427 0.06052 0.0
H3646 H 0.20311 0.41086 0.07972 0.0
H3647 H 0.17562 0.36782 0.10571 0.0
C3648 C 0.19889 0.35924 0.11569 0.0
C3649 C 0.2163 0.36022 0.11483 0.0
C3650 C 0.19162 0.40518 0.07552 0.0
C3651 C 0.19663 0.3802 0.09403 0.0
C3652 C 0.18155 0.41364 0.064 0.0
C3653 C 0.1665 0.40654 0.0584 0.0
C3654 C 0.18649 0.38968 0.08179 0.0
C3655 C 0.16222 0.39071 0.06471 0.0
C3656 C 0.18904 0.36908 0.10522 0.0
C3657 C 0.22341 0.3718 0.10378 0.0
N3658 N 0.17203 0.38295 0.07611 0.0
N3659 N 0.21356 0.38137 0.0938 0.0
H3660 H 0.64791 0.58236 0.22142 0.0
H3661 H 0.63612 0.55475 0.12955 0.0
H3662 H 0.69014 0.58727 0.18826 0.0
H3663 H 0.61833 0.52426 0.16998 0.0
H3664 H 0.65445 0.56953 0.1492 0.0
H3665 H 0.63471 0.56417 0.20135 0.0
C3666 C 0.65469 0.5795 0.21014 0.0
C3667 C 0.67056 0.5863 0.20696 0.0
C3668 C 0.64683 0.55932 0.15364 0.0
C3669 C 0.65469 0.56586 0.1833 0.0
C3670 C 0.63653 0.55077 0.14243 0.0
C3671 C 0.62601 0.53799 0.14811 0.0
C3672 C 0.6461 0.55545 0.17068 0.0
C3673 C 0.62644 0.53387 0.16509 0.0
C3674 C 0.64694 0.56914 0.19856 0.0
C3675 C 0.67794 0.58256 0.19144 0.0
N3676 N 0.63606 0.54276 0.17581 0.0
N3677 N 0.66988 0.57273 0.18013 0.0
H3678 H 0.77803 0.14405 0.10254 0.0
H3679 H 0.86377 0.13247 0.05754 0.0
H3680 H 0.82317 0.16479 0.12281 0.0
H3681 H 0.82926 0.09112 0.05913 0.0
H3682 H 0.84735 0.14661 0.07859 0.0
H3683 H 0.79481 0.12621 0.08412 0.0
C3684 C 0.79149 0.14457 0.10335 0.0
C3685 C 0.79927 0.15578 0.11432 0.0
C3686 C 0.84346 0.13438 0.0744 0.0
C3687 C 0.81842 0.136 0.09285 0.0
C3688 C 0.85291 0.12614 0.06239 0.0
C3689 C 0.84827 0.11021 0.0566 0.0
C3690 C 0.82886 0.12704 0.08046 0.0
C3691 C 0.83344 0.10333 0.063 0.0
C3692 C 0.80102 0.13448 0.0928 0.0
C3693 C 0.81673 0.15624 0.11461 0.0
N3694 N 0.82421 0.11183 0.07449 0.0
N3695 N 0.82571 0.14671 0.10383 0.0
H3696 H 0.38681 0.38205 0.05435 0.0
H3697 H 0.29506 0.36904 0.08168 0.0
H3698 H 0.34628 0.39942 0.02379 0.0
H3699 H 0.32864 0.32709 0.08642 0.0
H3700 H 0.31502 0.38255 0.06359 0.0
H3701 H 0.36735 0.3634 0.069 0.0
C3702 C 0.37396 0.38149 0.05032 0.0
C3703 C 0.36819 0.39199 0.03756 0.0
C3704 C 0.31792 0.37032 0.06851 0.0
C3705 C 0.34583 0.37153 0.05487 0.0
C3706 C 0.30641 0.36238 0.0788 0.0
C3707 C 0.30973 0.34649 0.08552 0.0
C3708 C 0.33327 0.36274 0.06521 0.0
C3709 C 0.32534 0.33929 0.08177 0.0
C3710 C 0.36285 0.37101 0.0588 0.0
C3711 C 0.35124 0.39135 0.03338 0.0
N3712 N 0.33658 0.34753 0.07201 0.0
N3713 N 0.34061 0.38154 0.0422 0.0
H3714 H 0.32573 0.68867 0.42937 0.0
H3715 H 0.34224 0.61292 0.49103 0.0
H3716 H 0.29273 0.64623 0.43342 0.0
H3717 H 0.38272 0.6335 0.46243 0.0
H3718 H 0.3228 0.63111 0.476 0.0
H3719 H 0.34598 0.6738 0.44671 0.0
C3720 C 0.32258 0.67635 0.43381 0.0
C3721 C 0.30714 0.66896 0.42984 0.0
C3722 C 0.33599 0.6319 0.4733 0.0
C3723 C 0.33021 0.65222 0.45034 0.0
C3724 C 0.34707 0.62166 0.48195 0.0
C3725 C 0.36413 0.62194 0.4782 0.0
C3726 C 0.342 0.64269 0.46093 0.0
C3727 C 0.36973 0.63324 0.46604 0.0
C3728 C 0.33418 0.66795 0.44384 0.0
C3729 C 0.30399 0.65295 0.4364 0.0
N3730 N 0.35869 0.64319 0.45782 0.0
N3731 N 0.3153 0.64526 0.44637 0.0
H3732 H 0.91072 0.47291 0.82494 0.0
H3733 H 0.86246 0.38576 0.82159 0.0
H3734 H 0.90959 0.43816 0.86597 0.0
H3735 H 0.87055 0.41659 0.77848 0.0
H3736 H 0.88072 0.4042 0.83783 0.0
H3737 H 0.89713 0.45203 0.80741 0.0
C3738 C 0.90783 0.46085 0.83025 0.0
C3739 C 0.91123 0.45745 0.84708 0.0
C3740 C 0.87874 0.40681 0.82475 0.0
C3741 C 0.89534 0.43347 0.82705 0.0
C3742 C 0.86842 0.39622 0.8155 0.0
C3743 C 0.86523 0.39961 0.7987 0.0
C3744 C 0.8857 0.42102 0.81717 0.0
C3745 C 0.87292 0.4135 0.79139 0.0
C3746 C 0.89996 0.44894 0.82023 0.0
C3747 C 0.90692 0.44158 0.85322 0.0
N3748 N 0.88268 0.42378 0.80069 0.0
N3749 N 0.89912 0.43029 0.84327 0.0
H3750 H 0.63097 0.88764 0.45662 0.0
H3751 H 0.72254 0.84802 0.45117 0.0
H3752 H 0.66885 0.89468 0.49389 0.0
H3753 H 0.68586 0.84295 0.41224 0.0
H3754 H 0.70197 0.86246 0.46829 0.0
H3755 H 0.64959 0.86845 0.44169 0.0
C3756 C 0.64306 0.88475 0.46187 0.0
C3757 C 0.64832 0.89244 0.47665 0.0
C3758 C 0.69835 0.85808 0.45606 0.0
C3759 C 0.66988 0.87095 0.45945 0.0
C3760 C 0.71014 0.84987 0.44622 0.0
C3761 C 0.70604 0.84435 0.43011 0.0
C3762 C 0.68224 0.86089 0.44983 0.0
C3763 C 0.68961 0.84686 0.42459 0.0
C3764 C 0.65375 0.87394 0.45328 0.0
C3765 C 0.66428 0.88875 0.48267 0.0
N3766 N 0.67838 0.85505 0.43435 0.0
N3767 N 0.67451 0.87835 0.47403 0.0
H3768 H 0.6331 0.5597 0.36636 0.0
H3769 H 0.64404 0.60285 0.27932 0.0
H3770 H 0.59191 0.56 0.33168 0.0
H3771 H 0.66576 0.6234 0.32387 0.0
H3772 H 0.62637 0.58476 0.29661 0.0
H3773 H 0.64721 0.58027 0.34933 0.0
C3774 C 0.6268 0.56418 0.35533 0.0
C3775 C 0.61092 0.55819 0.35083 0.0
C3776 C 0.63481 0.59342 0.30258 0.0
C3777 C 0.62771 0.5815 0.33072 0.0
C3778 C 0.64481 0.6038 0.29276 0.0
C3779 C 0.65624 0.61475 0.30023 0.0
C3780 C 0.63663 0.59365 0.31996 0.0
C3781 C 0.65703 0.61521 0.31767 0.0
C3782 C 0.63503 0.57591 0.34552 0.0
C3783 C 0.60407 0.56408 0.33577 0.0
N3784 N 0.64757 0.60462 0.32694 0.0
N3785 N 0.61254 0.57532 0.32622 0.0
H3786 H 0.16305 0.63128 0.52121 0.0
H3787 H 0.20645 0.64224 0.60776 0.0
H3788 H 0.14106 0.61283 0.56651 0.0
H3789 H 0.20718 0.68397 0.57369 0.0
H3790 H 0.1855 0.62895 0.5906 0.0
H3791 H 0.18175 0.6491 0.53797 0.0
C3792 C 0.16195 0.63128 0.53466 0.0
C3793 C 0.15061 0.6206 0.54257 0.0
C3794 C 0.19018 0.64108 0.58695 0.0
C3795 C 0.17212 0.64034 0.56165 0.0
C3796 C 0.20213 0.64884 0.59684 0.0
C3797 C 0.20848 0.66465 0.5926 0.0
C3798 C 0.18472 0.64877 0.57228 0.0
C3799 C 0.20279 0.67185 0.57761 0.0
C3800 C 0.17262 0.64136 0.54418 0.0
C3801 C 0.14968 0.6209 0.56 0.0
N3802 N 0.1913 0.66382 0.56794 0.0
N3803 N 0.16052 0.63034 0.56896 0.0
H3804 H 0.86121 0.62963 0.69384 0.0
H3805 H 0.91107 0.54322 0.69037 0.0
H3806 H 0.86938 0.59869 0.73686 0.0
H3807 H 0.90922 0.57806 0.64944 0.0
H3808 H 0.89688 0.56374 0.70793 0.0
H3809 H 0.87964 0.61136 0.67757 0.0
C3810 C 0.86718 0.61915 0.69989 0.0
C3811 C 0.864 0.61571 0.71668 0.0
C3812 C 0.89968 0.56693 0.69513 0.0
C3813 C 0.88473 0.59452 0.6982 0.0
C3814 C 0.90789 0.55523 0.6851 0.0
C3815 C 0.91125 0.55877 0.66828 0.0
C3816 C 0.89469 0.58229 0.68833 0.0
C3817 C 0.9066 0.57455 0.66219 0.0
C3818 C 0.87762 0.60867 0.69063 0.0
C3819 C 0.87174 0.60181 0.72395 0.0
N3820 N 0.89848 0.58562 0.67213 0.0
N3821 N 0.88164 0.59165 0.71465 0.0
H3822 H 0.15667 0.89373 0.69976 0.0
H3823 H 0.08499 0.96124 0.69037 0.0
H3824 H 0.13928 0.91945 0.74351 0.0
H3825 H 0.12708 0.95789 0.65689 0.0
H3826 H 0.09911 0.94159 0.70914 0.0
H3827 H 0.13904 0.91177 0.68248 0.0
C3828 C 0.14879 0.90294 0.70571 0.0
C3829 C 0.14945 0.90526 0.723 0.0
C3830 C 0.10507 0.94517 0.69758 0.0
C3831 C 0.12927 0.92583 0.70341 0.0
C3832 C 0.0971 0.95649 0.68686 0.0
C3833 C 0.10457 0.96119 0.67166 0.0
C3834 C 0.12041 0.9382 0.69291 0.0
C3835 C 0.12031 0.95433 0.66798 0.0
C3836 C 0.13888 0.91328 0.69588 0.0
C3837 C 0.13907 0.91737 0.73019 0.0
N3838 N 0.12753 0.94311 0.67836 0.0
N3839 N 0.12941 0.92731 0.72034 0.0
H3840 H 0.58579 0.82595 0.82546 0.0
H3841 H 0.52493 0.84259 0.9018 0.0
H3842 H 0.58233 0.79314 0.86811 0.0
H3843 H 0.5533 0.88305 0.88086 0.0
H3844 H 0.53969 0.82312 0.88341 0.0
H3845 H 0.56847 0.84621 0.84037 0.0
C3846 C 0.58148 0.82284 0.83784 0.0
C3847 C 0.58561 0.80747 0.84529 0.0
C3848 C 0.54239 0.83632 0.88258 0.0
C3849 C 0.56514 0.83052 0.86207 0.0
C3850 C 0.53389 0.84741 0.89294 0.0
C3851 C 0.53767 0.86447 0.89261 0.0
C3852 C 0.55463 0.84233 0.87164 0.0
C3853 C 0.54967 0.87007 0.88116 0.0
C3854 C 0.57146 0.83444 0.84626 0.0
C3855 C 0.57921 0.80436 0.86136 0.0
N3856 N 0.55776 0.85902 0.8711 0.0
N3857 N 0.56926 0.81566 0.86907 0.0
H3858 H 0.05861 0.18648 0.42505 0.0
H3859 H 0.12386 0.19303 0.35025 0.0
H3860 H 0.06056 0.15123 0.38432 0.0
H3861 H 0.10288 0.23697 0.37285 0.0
H3862 H 0.10558 0.17573 0.3677 0.0
H3863 H 0.07902 0.20378 0.41033 0.0
C3864 C 0.06321 0.18228 0.41309 0.0
C3865 C 0.05775 0.16711 0.40614 0.0
C3866 C 0.10519 0.18916 0.36902 0.0
C3867 C 0.08166 0.18672 0.38955 0.0
C3868 C 0.1157 0.19898 0.3592 0.0
C3869 C 0.11495 0.2164 0.36023 0.0
C3870 C 0.09403 0.1968 0.38015 0.0
C3871 C 0.10398 0.22356 0.37186 0.0
C3872 C 0.07499 0.19216 0.40478 0.0
C3873 C 0.06457 0.16244 0.39063 0.0
N3874 N 0.09394 0.21374 0.38138 0.0
N3875 N 0.07618 0.1721 0.38299 0.0
H3876 H 0.49523 0.66385 0.88406 0.0
H3877 H 0.40875 0.70743 0.87402 0.0
H3878 H 0.45002 0.64161 0.9024 0.0
H3879 H 0.44232 0.70827 0.8319 0.0
H3880 H 0.42604 0.6864 0.88702 0.0
H3881 H 0.4784 0.68273 0.86647 0.0
C3882 C 0.48179 0.66274 0.88407 0.0
C3883 C 0.47392 0.65128 0.89466 0.0
C3884 C 0.42955 0.69112 0.87487 0.0
C3885 C 0.45477 0.67296 0.8752 0.0
C3886 C 0.41959 0.70312 0.86728 0.0
C3887 C 0.42365 0.7095 0.85145 0.0
C3888 C 0.44411 0.68566 0.86697 0.0
C3889 C 0.43855 0.70383 0.84404 0.0
C3890 C 0.47223 0.6735 0.87414 0.0
C3891 C 0.45649 0.65033 0.89439 0.0
N3892 N 0.44829 0.69229 0.8519 0.0
N3893 N 0.4475 0.66125 0.8851 0.0
H3894 H 0.97365 0.32498 0.40874 0.0
H3895 H 0.88645 0.32056 0.36066 0.0
H3896 H 0.93762 0.36493 0.40922 0.0
H3897 H 0.9183 0.27798 0.36766 0.0
H3898 H 0.90466 0.33687 0.37909 0.0
H3899 H 0.95331 0.3073 0.39454 0.0
C3900 C 0.96143 0.33001 0.40607 0.0
C3901 C 0.9575 0.3466 0.41011 0.0
C3902 C 0.90756 0.32389 0.37682 0.0
C3903 C 0.93414 0.32641 0.3935 0.0
C3904 C 0.89712 0.31461 0.36638 0.0
C3905 C 0.90083 0.29793 0.36288 0.0
C3906 C 0.92196 0.31648 0.38357 0.0
C3907 C 0.91496 0.29079 0.37028 0.0
C3908 C 0.94982 0.31991 0.39785 0.0
C3909 C 0.94144 0.35238 0.40606 0.0
N3910 N 0.92509 0.30013 0.38017 0.0
N3911 N 0.93046 0.34238 0.3979 0.0
H3912 H 0.57082 0.20863 0.68435 0.0
H3913 H 0.56525 0.14028 0.61281 0.0
H3914 H 0.60584 0.2055 0.64351 0.0
H3915 H 0.52046 0.16392 0.63048 0.0
H3916 H 0.58177 0.15904 0.63042 0.0
H3917 H 0.55319 0.18815 0.67003 0.0
C3918 C 0.5749 0.20377 0.67246 0.0
C3919 C 0.59017 0.20884 0.6654 0.0
C3920 C 0.56831 0.15995 0.63065 0.0
C3921 C 0.5702 0.18486 0.64934 0.0
C3922 C 0.55892 0.14918 0.62075 0.0
C3923 C 0.54154 0.15069 0.6202 0.0
C3924 C 0.56027 0.17211 0.64033 0.0
C3925 C 0.53386 0.16245 0.63062 0.0
C3926 C 0.56483 0.19196 0.66438 0.0
C3927 C 0.59464 0.20174 0.64996 0.0
N3928 N 0.54329 0.1728 0.64027 0.0
N3929 N 0.58484 0.19007 0.64261 0.0
H3930 H 0.38559 0.19354 0.6566 0.0
H3931 H 0.4709 0.19141 0.60468 0.0
H3932 H 0.41633 0.23677 0.64875 0.0
H3933 H 0.43681 0.14993 0.60751 0.0
H3934 H 0.45064 0.20859 0.61969 0.0
H3935 H 0.40373 0.17757 0.63778 0.0
C3936 C 0.39603 0.19968 0.65066 0.0
C3937 C 0.39944 0.21645 0.65403 0.0
C3938 C 0.44756 0.19575 0.61693 0.0
C3939 C 0.42044 0.19833 0.63279 0.0
C3940 C 0.4591 0.18594 0.60825 0.0
C3941 C 0.45571 0.16908 0.60491 0.0
C3942 C 0.43248 0.18869 0.6224 0.0
C3943 C 0.4402 0.16272 0.61008 0.0
C3944 C 0.40642 0.1906 0.63999 0.0
C3945 C 0.41325 0.22387 0.64628 0.0
N3946 N 0.42928 0.17246 0.61863 0.0
N3947 N 0.4233 0.21474 0.63611 0.0
H3948 H 0.4909 0.34231 0.61496 0.0
H3949 H 0.42987 0.32516 0.69102 0.0
H3950 H 0.46216 0.38256 0.63585 0.0
H3951 H 0.43358 0.29254 0.64823 0.0
H3952 H 0.44717 0.34553 0.67625 0.0
H3953 H 0.4762 0.32272 0.63326 0.0
C3954 C 0.48186 0.34706 0.62379 0.0
C3955 C 0.47796 0.36409 0.62413 0.0
C3956 C 0.44424 0.33377 0.6703 0.0
C3957 C 0.46108 0.34182 0.645 0.0
C3958 C 0.43424 0.32212 0.67865 0.0
C3959 C 0.43017 0.30676 0.67111 0.0
C3960 C 0.45061 0.32994 0.6545 0.0
C3961 C 0.43664 0.30374 0.65504 0.0
C3962 C 0.47341 0.33591 0.6341 0.0
C3963 C 0.46588 0.36961 0.63555 0.0
N3964 N 0.44658 0.3151 0.64742 0.0
N3965 N 0.45783 0.35849 0.64556 0.0
H3966 H 0.53791 0.32088 0.60528 0.0
H3967 H 0.62967 0.30881 0.64309 0.0
H3968 H 0.57732 0.35711 0.60076 0.0
H3969 H 0.58977 0.27385 0.65084 0.0
H3970 H 0.61176 0.32467 0.62409 0.0
H3971 H 0.5576 0.30166 0.61859 0.0
C3972 C 0.55074 0.32471 0.60685 0.0
C3973 C 0.55588 0.34073 0.60202 0.0
C3974 C 0.60698 0.31335 0.62966 0.0
C3975 C 0.57851 0.31881 0.6174 0.0
C3976 C 0.61729 0.30421 0.64034 0.0
C3977 C 0.61126 0.28985 0.64824 0.0
C3978 C 0.59043 0.30822 0.62701 0.0
C3979 C 0.59493 0.28471 0.64473 0.0
C3980 C 0.56197 0.31376 0.61456 0.0
C3981 C 0.57268 0.34502 0.60454 0.0
N3982 N 0.58504 0.29394 0.63448 0.0
N3983 N 0.58331 0.33421 0.61211 0.0
H3984 H 0.89305 0.52145 0.84641 0.0
H3985 H 0.84169 0.60516 0.82888 0.0
H3986 H 0.88621 0.56004 0.88303 0.0
H3987 H 0.84677 0.56516 0.79329 0.0
H3988 H 0.85555 0.58784 0.84977 0.0
H3989 H 0.87382 0.53611 0.82775 0.0
C3990 C 0.88709 0.53281 0.85065 0.0
C3991 C 0.8909 0.53942 0.86634 0.0
C3992 C 0.85351 0.5828 0.83743 0.0
C3993 C 0.86933 0.5566 0.84492 0.0
C3994 C 0.84547 0.59266 0.82549 0.0
C3995 C 0.84312 0.58672 0.80918 0.0
C3996 C 0.8593 0.56684 0.83308 0.0
C3997 C 0.84855 0.57045 0.80556 0.0
C3998 C 0.87623 0.54126 0.83997 0.0
C3999 C 0.88327 0.5544 0.87114 0.0
N4000 N 0.85646 0.56117 0.81734 0.0
N4001 N 0.87295 0.56256 0.86042 0.0
H4002 H 0.86566 0.91045 0.43566 0.0
H4003 H 0.77627 0.87093 0.41521 0.0
H4004 H 0.82441 0.91124 0.47014 0.0
H4005 H 0.82001 0.86238 0.38539 0.0
H4006 H 0.79251 0.88938 0.43339 0.0
H4007 H 0.84805 0.89635 0.41532 0.0
C4008 C 0.85289 0.90768 0.439 0.0
C4009 C 0.84665 0.91188 0.45483 0.0
C4010 C 0.79853 0.88368 0.42275 0.0
C4011 C 0.82623 0.89586 0.4313 0.0
C4012 C 0.78924 0.87328 0.41231 0.0
C4013 C 0.79683 0.86533 0.39873 0.0
C4014 C 0.81557 0.88612 0.41959 0.0
C4015 C 0.81371 0.86847 0.39564 0.0
C4016 C 0.8428 0.89968 0.4273 0.0
C4017 C 0.82981 0.90834 0.45814 0.0
N4018 N 0.82254 0.87857 0.40603 0.0
N4019 N 0.82025 0.90045 0.44654 0.0
H4020 H 0.16942 0.90816 0.82897 0.0
H4021 H 0.12067 0.99362 0.84503 0.0
H4022 H 0.16645 0.9475 0.7925 0.0
H4023 H 0.12738 0.95575 0.88238 0.0
H4024 H 0.13937 0.97818 0.82637 0.0
H4025 H 0.15588 0.92633 0.84928 0.0
C4026 C 0.16598 0.92066 0.82524 0.0
C4027 C 0.16897 0.92622 0.80891 0.0
C4028 C 0.13706 0.97339 0.83876 0.0
C4029 C 0.1534 0.94723 0.83224 0.0
C4030 C 0.12651 0.98228 0.84944 0.0
C4031 C 0.1228 0.97609 0.86534 0.0
C4032 C 0.14375 0.95804 0.84394 0.0
C4033 C 0.13025 0.9611 0.87034 0.0
C4034 C 0.1583 0.93108 0.83689 0.0
C4035 C 0.16447 0.94268 0.80493 0.0
N4036 N 0.14025 0.95252 0.85964 0.0
N4037 N 0.15677 0.95253 0.81644 0.0
H4038 H 0.14838 0.60735 0.43747 0.0
H4039 H 0.23737 0.64736 0.41618 0.0
H4040 H 0.19054 0.60491 0.47072 0.0
H4041 H 0.19321 0.65605 0.38706 0.0
H4042 H 0.2214 0.6288 0.43449 0.0
H4043 H 0.1655 0.62225 0.41727 0.0
C4044 C 0.16125 0.60992 0.44056 0.0
C4045 C 0.16791 0.60501 0.456 0.0
C4046 C 0.21521 0.6346 0.42401 0.0
C4047 C 0.18774 0.62199 0.43265 0.0
C4048 C 0.22434 0.6451 0.41353 0.0
C4049 C 0.21656 0.65307 0.40007 0.0
C4050 C 0.19815 0.63209 0.42103 0.0
C4051 C 0.19963 0.64998 0.39724 0.0
C4052 C 0.17105 0.61839 0.42894 0.0
C4053 C 0.18483 0.60835 0.459 0.0
N4054 N 0.19097 0.63977 0.40767 0.0
N4055 N 0.19411 0.61672 0.4475 0.0
H4056 H 0.84806 0.4516 0.72358 0.0
H4057 H 0.88752 0.45629 0.63188 0.0
H4058 H 0.84318 0.41225 0.68727 0.0
H4059 H 0.89488 0.49372 0.66957 0.0
H4060 H 0.86837 0.44152 0.65066 0.0
H4061 H 0.86248 0.46854 0.70286 0.0
C4062 C 0.84995 0.44651 0.71123 0.0
C4063 C 0.84448 0.43034 0.70729 0.0
C4064 C 0.87393 0.45311 0.65474 0.0
C4065 C 0.861 0.44986 0.68331 0.0
C4066 C 0.8847 0.46161 0.64396 0.0
C4067 C 0.89247 0.47638 0.64912 0.0
C4068 C 0.87104 0.45937 0.67086 0.0
C4069 C 0.88889 0.48251 0.66508 0.0
C4070 C 0.85815 0.45625 0.69935 0.0
C4071 C 0.84704 0.42465 0.69091 0.0
N4072 N 0.8785 0.47395 0.6754 0.0
N4073 N 0.85521 0.43432 0.67959 0.0
H4074 H 0.64843 0.90916 0.57852 0.0
H4075 H 0.738 0.86936 0.59795 0.0
H4076 H 0.6895 0.91055 0.54385 0.0
H4077 H 0.6945 0.86063 0.62806 0.0
H4078 H 0.72154 0.88777 0.57989 0.0
H4079 H 0.66612 0.89458 0.59846 0.0
C4080 C 0.66117 0.90642 0.57505 0.0
C4081 C 0.66735 0.91095 0.55928 0.0
C4082 C 0.71561 0.88201 0.59055 0.0
C4083 C 0.68786 0.89436 0.58236 0.0
C4084 C 0.72502 0.87163 0.6009 0.0
C4085 C 0.71757 0.86367 0.61456 0.0
C4086 C 0.69859 0.88445 0.59387 0.0
C4087 C 0.70069 0.86671 0.61774 0.0
C4088 C 0.6713 0.89813 0.58653 0.0
C4089 C 0.68415 0.90741 0.55581 0.0
N4090 N 0.69175 0.87682 0.60744 0.0
N4091 N 0.69376 0.89925 0.56719 0.0
H4092 H 0.11345 0.02532 0.67175 0.0
H4093 H 0.1878 0.08835 0.68884 0.0
H4094 H 0.13249 0.05552 0.63168 0.0
H4095 H 0.14546 0.08312 0.72181 0.0
H4096 H 0.17327 0.07096 0.66837 0.0
H4097 H 0.13167 0.04025 0.69123 0.0
C4098 C 0.12189 0.03473 0.66699 0.0
C4099 C 0.1217 0.03899 0.65006 0.0
C4100 C 0.16737 0.07359 0.68022 0.0
C4101 C 0.14246 0.05614 0.67222 0.0
C4102 C 0.17557 0.08364 0.69194 0.0
C4103 C 0.1681 0.08729 0.70743 0.0
C4104 C 0.15179 0.06674 0.68413 0.0
C4105 C 0.15223 0.08039 0.71051 0.0
C4106 C 0.13213 0.04331 0.6781 0.0
C4107 C 0.1326 0.05154 0.64455 0.0
N4108 N 0.14475 0.0704 0.69909 0.0
N4109 N 0.14256 0.05971 0.65562 0.0
H4110 H 0.32115 0.60432 0.53834 0.0
H4111 H 0.3089 0.64265 0.62994 0.0
H4112 H 0.35708 0.59968 0.578 0.0
H4113 H 0.27403 0.65036 0.58996 0.0
H4114 H 0.32485 0.62372 0.61204 0.0
H4115 H 0.30199 0.61806 0.55783 0.0
C4116 C 0.32493 0.60596 0.55119 0.0
C4117 C 0.34085 0.60095 0.55646 0.0
C4118 C 0.31356 0.62929 0.60723 0.0
C4119 C 0.31901 0.61683 0.57884 0.0
C4120 C 0.30437 0.63995 0.61752 0.0
C4121 C 0.28998 0.64778 0.6115 0.0
C4122 C 0.30845 0.62659 0.59067 0.0
C4123 C 0.28492 0.64431 0.59512 0.0
C4124 C 0.31402 0.61391 0.56229 0.0
C4125 C 0.34507 0.60357 0.57326 0.0
N4126 N 0.29419 0.63407 0.58524 0.0
N4127 N 0.3343 0.61138 0.58377 0.0
H4128 H 0.84554 0.89403 0.5196 0.0
H4129 H 0.82923 0.84194 0.6031 0.0
H4130 H 0.88257 0.88727 0.55775 0.0
H4131 H 0.79331 0.84676 0.56341 0.0
H4132 H 0.84978 0.85627 0.58576 0.0
H4133 H 0.82711 0.87466 0.53439 0.0
C4134 C 0.8499 0.88809 0.5309 0.0
C4135 C 0.86565 0.89194 0.53734 0.0
C4136 C 0.83745 0.85406 0.58079 0.0
C4137 C 0.84453 0.87018 0.55466 0.0
C4138 C 0.8257 0.84576 0.59066 0.0
C4139 C 0.8094 0.8432 0.58482 0.0
C4140 C 0.8329 0.85992 0.56492 0.0
C4141 C 0.80559 0.8487 0.56862 0.0
C4142 C 0.83937 0.87714 0.53942 0.0
C4143 C 0.87062 0.88431 0.55225 0.0
N4144 N 0.81717 0.85686 0.55933 0.0
N4145 N 0.86006 0.87389 0.56048 0.0
H4146 H 0.84463 0.12179 0.99198 0.0
H4147 H 0.82929 0.17108 0.90658 0.0
H4148 H 0.88197 0.12772 0.95398 0.0
H4149 H 0.79237 0.16734 0.94544 0.0
H4150 H 0.84935 0.1571 0.92467 0.0
H4151 H 0.8261 0.14046 0.97634 0.0
C4152 C 0.84906 0.12743 0.98055 0.0
C4153 C 0.86493 0.12353 0.9744 0.0
C4154 C 0.83691 0.15944 0.92933 0.0
C4155 C 0.84369 0.14447 0.95614 0.0
C4156 C 0.82539 0.16737 0.91895 0.0
C4157 C 0.80901 0.17031 0.9244 0.0
C4158 C 0.8321 0.15425 0.94533 0.0
C4159 C 0.80485 0.16545 0.94071 0.0
C4160 C 0.83846 0.13797 0.97155 0.0
C4161 C 0.86996 0.13074 0.9593 0.0
N4162 N 0.81625 0.15755 0.95051 0.0
N4163 N 0.85934 0.14076 0.95064 0.0
H4164 H 0.3655 0.91819 0.27805 0.0
H4165 H 0.40841 0.93724 0.36621 0.0
H4166 H 0.35869 0.88751 0.3215 0.0
H4167 H 0.4071 0.97265 0.32575 0.0
H4168 H 0.39333 0.91733 0.34891 0.0
H4169 H 0.38395 0.93652 0.29412 0.0
C4170 C 0.36815 0.91521 0.29094 0.0
C4171 C 0.36074 0.90131 0.29849 0.0
C4172 C 0.3964 0.92942 0.34378 0.0
C4173 C 0.38163 0.92226 0.31702 0.0
C4174 C 0.40497 0.94088 0.35369 0.0
C4175 C 0.4089 0.95684 0.34758 0.0
C4176 C 0.39175 0.93379 0.32751 0.0
C4177 C 0.40446 0.96053 0.33104 0.0
C4178 C 0.37858 0.9257 0.30013 0.0
C4179 C 0.36432 0.89806 0.31525 0.0
N4180 N 0.39606 0.94915 0.32164 0.0
N4181 N 0.37449 0.90847 0.32397 0.0
H4182 H 0.22176 0.36885 0.93536 0.0
H4183 H 0.1297 0.38159 0.96137 0.0
H4184 H 0.18846 0.3268 0.92985 0.0
H4185 H 0.16965 0.39837 0.993 0.0
H4186 H 0.1494 0.36305 0.94688 0.0
H4187 H 0.20154 0.38209 0.95335 0.0
C4188 C 0.21043 0.3621 0.93804 0.0
C4189 C 0.20727 0.34626 0.93111 0.0
C4190 C 0.15371 0.37049 0.95728 0.0
C4191 C 0.1834 0.36223 0.95131 0.0
C4192 C 0.14246 0.38091 0.96567 0.0
C4193 C 0.14799 0.39123 0.97868 0.0
C4194 C 0.17066 0.37089 0.96155 0.0
C4195 C 0.16486 0.39044 0.9832 0.0
C4196 C 0.19876 0.36989 0.94828 0.0
C4197 C 0.19165 0.33896 0.93464 0.0
N4198 N 0.17564 0.38071 0.97447 0.0
N4199 N 0.18026 0.34707 0.94433 0.0
H4200 H 0.08808 0.05935 0.8291 0.0
H4201 H 0.16255 0.12476 0.82417 0.0
H4202 H 0.12951 0.05925 0.86352 0.0
H4203 H 0.14144 0.10395 0.77945 0.0
H4204 H 0.14512 0.10582 0.84079 0.0
H4205 H 0.10292 0.08005 0.8122 0.0
C4206 C 0.10021 0.06356 0.83319 0.0
C4207 C 0.10731 0.0575 0.84806 0.0
C4208 C 0.14413 0.10561 0.82733 0.0
C4209 C 0.12401 0.08172 0.82896 0.0
C4210 C 0.15395 0.11647 0.8179 0.0
C4211 C 0.15335 0.11594 0.80047 0.0
C4212 C 0.13339 0.09437 0.81928 0.0
C4213 C 0.14212 0.10484 0.79288 0.0
C4214 C 0.10859 0.07549 0.82355 0.0
C4215 C 0.12307 0.06378 0.85261 0.0
N4216 N 0.13256 0.09449 0.80233 0.0
N4217 N 0.13075 0.07559 0.84323 0.0
H4218 H 0.67175 0.11454 0.02453 0.0
H4219 H 0.68809 0.18999 0.08658 0.0
H4220 H 0.63123 0.13477 0.05334 0.0
H4221 H 0.72118 0.14762 0.08222 0.0
H4222 H 0.66781 0.17517 0.06921 0.0
H4223 H 0.69112 0.13274 0.03962 0.0
C4224 C 0.66689 0.1232 0.03368 0.0
C4225 C 0.64985 0.12339 0.03747 0.0
C4226 C 0.67964 0.16932 0.07202 0.0
C4227 C 0.67188 0.14414 0.0548 0.0
C4228 C 0.69125 0.1777 0.08206 0.0
C4229 C 0.70672 0.17031 0.08592 0.0
C4230 C 0.68364 0.15363 0.06543 0.0
C4231 C 0.70988 0.15433 0.0793 0.0
C4232 C 0.67793 0.13345 0.04235 0.0
C4233 C 0.6442 0.13459 0.0497 0.0
N4234 N 0.69857 0.14667 0.06933 0.0
N4235 N 0.6552 0.14455 0.05796 0.0
H4236 H 0.40933 0.07882 0.14971 0.0
H4237 H 0.36809 0.09801 0.23868 0.0
H4238 H 0.40883 0.04347 0.19022 0.0
H4239 H 0.3606 0.12865 0.19531 0.0
H4240 H 0.38651 0.0798 0.22238 0.0
H4241 H 0.39485 0.09887 0.16738 0.0
C4242 C 0.4062 0.07523 0.16232 0.0
C4243 C 0.41016 0.05924 0.16834 0.0
C4244 C 0.38103 0.09061 0.21645 0.0
C4245 C 0.3937 0.08245 0.18883 0.0
C4246 C 0.37064 0.10105 0.22578 0.0
C4247 C 0.36303 0.11489 0.21831 0.0
C4248 C 0.38381 0.09403 0.19951 0.0
C4249 C 0.36642 0.11818 0.20152 0.0
C4250 C 0.39797 0.08677 0.17245 0.0
C4251 C 0.40614 0.0556 0.185 0.0
N4252 N 0.37653 0.1078 0.19266 0.0
N4253 N 0.39805 0.06706 0.1946 0.0
H4254 H 0.65578 0.38629 0.19553 0.0
H4255 H 0.60775 0.47368 0.19006 0.0
H4256 H 0.64959 0.41906 0.23753 0.0
H4257 H 0.60783 0.43724 0.15051 0.0
H4258 H 0.62199 0.45356 0.20805 0.0
H4259 H 0.6374 0.40443 0.17907 0.0
C4260 C 0.65029 0.39719 0.20131 0.0
C4261 C 0.654 0.40117 0.21787 0.0
C4262 C 0.61878 0.44994 0.19546 0.0
C4263 C 0.6333 0.42217 0.19917 0.0
C4264 C 0.61054 0.46141 0.1852 0.0
C4265 C 0.60671 0.4573 0.16862 0.0
C4266 C 0.6233 0.43421 0.18913 0.0
C4267 C 0.61084 0.44118 0.16304 0.0
C4268 C 0.63987 0.40758 0.19195 0.0
C4269 C 0.64684 0.41555 0.2248 0.0
N4270 N 0.61899 0.43034 0.17319 0.0
N4271 N 0.63693 0.42559 0.2154 0.0
loop_
_geom_bond_atom_site_label_1
_geom_bond_atom_site_label_2
_geom_bond_distance
_geom_bond_site_symmetry_2
_ccdc_geom_bond_type
C0 C1 1.443 . S
C0 N4 1.376 . S
C0 C38 1.389 . S
C1 C0 1.443 . S
C1 C2 1.340 . S
C1 H41 0.951 . S
C2 C1 1.340 . S
C2 C3 1.439 . S
C2 H42 0.950 . S
C3 C2 1.439 . S
C3 N4 1.374 . S
C3 C37 1.395 . S
N4 C0 1.376 . S
N4 C3 1.374 . S
N4 Co5 2.008 . S
Co5 N4 2.008 . S
Co5 N6 1.995 . S
Co5 N11 2.008 . S
Co5 N16 1.995 . S
Co5 N21 2.282 . S
Co5 N27 2.282 . S
N6 Co5 1.995 . S
N6 C7 1.376 . S
N6 C10 1.383 . S
C7 N6 1.376 . S
C7 C8 1.446 . S
C7 C37 1.391 . S
C8 C7 1.446 . S
C8 C9 1.339 . S
C8 H43 0.949 . S
C9 C8 1.339 . S
C9 C10 1.439 . S
C9 H44 0.950 . S
C10 N6 1.383 . S
C10 C9 1.439 . S
C10 C39 1.392 . S
N11 Co5 2.008 . S
N11 C12 1.376 . S
N11 C15 1.374 . S
C12 N11 1.376 . S
C12 C13 1.443 . S
C12 C39 1.389 . S
C13 C12 1.443 . S
C13 C14 1.340 . S
C13 H45 0.951 . S
C14 C13 1.340 . S
C14 C15 1.439 . S
C14 H46 0.950 . S
C15 N11 1.374 . S
C15 C14 1.439 . S
C15 C40 1.395 . S
N16 Co5 1.995 . S
N16 C17 1.376 . S
N16 C20 1.383 . S
C17 N16 1.376 . S
C17 C18 1.446 . S
C17 C40 1.391 . S
C18 C17 1.446 . S
C18 C19 1.339 . S
C18 H47 0.949 . S
C19 C18 1.339 . S
C19 C20 1.439 . S
C19 H48 0.950 . S
C20 N16 1.383 . S
C20 C19 1.439 . S
C20 C38 1.392 . S
N21 Co5 2.282 . S
N21 C24 1.332 . S
N21 C26 1.332 . S
C22 C23 1.386 . S
C22 C25 1.388 . S
C23 C22 1.386 . S
C23 C24 1.382 . S
C23 H49 0.950 . S
C24 N21 1.332 . S
C24 C23 1.382 . S
C24 H35 0.952 . S
C25 C22 1.388 . S
C25 C26 1.382 . S
C25 H50 0.950 . S
C26 N21 1.332 . S
C26 C25 1.382 . S
C26 H36 0.948 . S
N27 Co5 2.282 . S
N27 C31 1.332 . S
N27 C32 1.332 . S
C28 C29 1.388 . S
C28 C32 1.382 . S
C28 H51 0.950 . S
C29 C28 1.388 . S
C29 C30 1.386 . S
C30 C29 1.386 . S
C30 C31 1.382 . S
C30 H52 0.950 . S
C31 N27 1.332 . S
C31 C30 1.382 . S
C31 H33 0.952 . S
C32 N27 1.332 . S
C32 C28 1.382 . S
C32 H34 0.948 . S
H33 C31 0.952 . S
H34 C32 0.948 . S
H35 C24 0.952 . S
H36 C26 0.948 . S
C37 C3 1.395 . S
C37 C7 1.391 . S
C38 C0 1.389 . S
C38 C20 1.392 . S
C39 C10 1.392 . S
C39 C12 1.389 . S
C40 C15 1.395 . S
C40 C17 1.391 . S
H41 C1 0.951 . S
H42 C2 0.950 . S
H43 C8 0.949 . S
H44 C9 0.950 . S
H45 C13 0.951 . S
H46 C14 0.950 . S
H47 C18 0.949 . S
H48 C19 0.950 . S
H49 C23 0.950 . S
H50 C25 0.950 . S
H51 C28 0.950 . S
H52 C30 0.950 . S
C53 C54 1.443 . S
C53 N57 1.376 . S
C53 C91 1.389 . S
C54 C53 1.443 . S
C54 C55 1.340 . S
C54 H94 0.951 . S
C55 C54 1.340 . S
C55 C56 1.439 . S
C55 H95 0.950 . S
C56 C55 1.439 . S
C56 N57 1.374 . S
C56 C90 1.395 . S
N57 C53 1.376 . S
N57 C56 1.374 . S
N57 Co58 2.008 . S
Co58 N57 2.008 . S
Co58 N59 1.995 . S
Co58 N64 2.008 . S
Co58 N69 1.995 . S
Co58 N74 2.282 . S
Co58 N80 2.282 . S
N59 Co58 1.995 . S
N59 C60 1.376 . S
N59 C63 1.383 . S
C60 N59 1.376 . S
C60 C61 1.446 . S
C60 C90 1.391 . S
C61 C60 1.446 . S
C61 C62 1.339 . S
C61 H96 0.949 . S
C62 C61 1.339 . S
C62 C63 1.439 . S
C62 H97 0.950 . S
C63 N59 1.383 . S
C63 C62 1.439 . S
C63 C92 1.392 . S
N64 Co58 2.008 . S
N64 C65 1.376 . S
N64 C68 1.374 . S
C65 N64 1.376 . S
C65 C66 1.443 . S
C65 C92 1.389 . S
C66 C65 1.443 . S
C66 C67 1.340 . S
C66 H98 0.951 . S
C67 C66 1.340 . S
C67 C68 1.439 . S
C67 H99 0.950 . S
C68 N64 1.374 . S
C68 C67 1.439 . S
C68 C93 1.395 . S
N69 Co58 1.995 . S
N69 C70 1.376 . S
N69 C73 1.383 . S
C70 N69 1.376 . S
C70 C71 1.446 . S
C70 C93 1.391 . S
C71 C70 1.446 . S
C71 C72 1.339 . S
C71 H100 0.949 . S
C72 C71 1.339 . S
C72 C73 1.439 . S
C72 H101 0.950 . S
C73 N69 1.383 . S
C73 C72 1.439 . S
C73 C91 1.392 . S
N74 Co58 2.282 . S
N74 C77 1.332 . S
N74 C79 1.332 . S
C75 C76 1.386 . S
C75 C78 1.388 . S
C76 C75 1.386 . S
C76 C77 1.382 . S
C76 H102 0.950 . S
C77 N74 1.332 . S
C77 C76 1.382 . S
C77 H88 0.952 . S
C78 C75 1.388 . S
C78 C79 1.382 . S
C78 H103 0.950 . S
C79 N74 1.332 . S
C79 C78 1.382 . S
C79 H89 0.948 . S
N80 Co58 2.282 . S
N80 C84 1.332 . S
N80 C85 1.332 . S
C81 C82 1.388 . S
C81 C85 1.382 . S
C81 H104 0.950 . S
C82 C81 1.388 . S
C82 C83 1.386 . S
C83 C82 1.386 . S
C83 C84 1.382 . S
C83 H105 0.950 . S
C84 N80 1.332 . S
C84 C83 1.382 . S
C84 H86 0.952 . S
C85 N80 1.332 . S
C85 C81 1.382 . S
C85 H87 0.948 . S
H86 C84 0.952 . S
H87 C85 0.948 . S
H88 C77 0.952 . S
H89 C79 0.948 . S
C90 C56 1.395 . S
C90 C60 1.391 . S
C91 C53 1.389 . S
C91 C73 1.392 . S
C92 C63 1.392 . S
C92 C65 1.389 . S
C93 C68 1.395 . S
C93 C70 1.391 . S
H94 C54 0.951 . S
H95 C55 0.950 . S
H96 C61 0.949 . S
H97 C62 0.950 . S
H98 C66 0.951 . S
H99 C67 0.950 . S
H100 C71 0.949 . S
H101 C72 0.950 . S
H102 C76 0.950 . S
H103 C78 0.950 . S
H104 C81 0.950 . S
H105 C83 0.950 . S
C106 C107 1.443 . S
C106 N110 1.376 . S
C106 C144 1.389 . S
C107 C106 1.443 . S
C107 C108 1.340 . S
C107 H147 0.951 . S
C108 C107 1.340 . S
C108 C109 1.439 . S
C108 H148 0.950 . S
C109 C108 1.439 . S
C109 N110 1.374 . S
C109 C143 1.395 . S
N110 C106 1.376 . S
N110 C109 1.374 . S
N110 Co111 2.008 . S
Co111 N110 2.008 . S
Co111 N112 1.995 . S
Co111 N117 2.008 . S
Co111 N122 1.995 . S
Co111 N127 2.282 . S
Co111 N133 2.282 . S
N112 Co111 1.995 . S
N112 C113 1.376 . S
N112 C116 1.383 . S
C113 N112 1.376 . S
C113 C114 1.446 . S
C113 C143 1.391 . S
C114 C113 1.446 . S
C114 C115 1.339 . S
C114 H149 0.949 . S
C115 C114 1.339 . S
C115 C116 1.439 . S
C115 H150 0.950 . S
C116 N112 1.383 . S
C116 C115 1.439 . S
C116 C145 1.392 . S
N117 Co111 2.008 . S
N117 C118 1.376 . S
N117 C121 1.374 . S
C118 N117 1.376 . S
C118 C119 1.443 . S
C118 C145 1.389 . S
C119 C118 1.443 . S
C119 C120 1.340 . S
C119 H151 0.951 . S
C120 C119 1.340 . S
C120 C121 1.439 . S
C120 H152 0.950 . S
C121 N117 1.374 . S
C121 C120 1.439 . S
C121 C146 1.395 . S
N122 Co111 1.995 . S
N122 C123 1.376 . S
N122 C126 1.383 . S
C123 N122 1.376 . S
C123 C124 1.446 . S
C123 C146 1.391 . S
C124 C123 1.446 . S
C124 C125 1.339 . S
C124 H153 0.949 . S
C125 C124 1.339 . S
C125 C126 1.439 . S
C125 H154 0.950 . S
C126 N122 1.383 . S
C126 C125 1.439 . S
C126 C144 1.392 . S
N127 Co111 2.282 . S
N127 C130 1.332 . S
N127 C132 1.332 . S
C128 C129 1.386 . S
C128 C131 1.388 . S
C129 C128 1.386 . S
C129 C130 1.382 . S
C129 H155 0.950 . S
C130 N127 1.332 . S
C130 C129 1.382 . S
C130 H141 0.952 . S
C131 C128 1.388 . S
C131 C132 1.382 . S
C131 H156 0.950 . S
C132 N127 1.332 . S
C132 C131 1.382 . S
C132 H142 0.948 . S
N133 Co111 2.282 . S
N133 C137 1.332 . S
N133 C138 1.332 . S
C134 C135 1.388 . S
C134 C138 1.382 . S
C134 H157 0.950 . S
C135 C134 1.388 . S
C135 C136 1.386 . S
C136 C135 1.386 . S
C136 C137 1.382 . S
C136 H158 0.950 . S
C137 N133 1.332 . S
C137 C136 1.382 . S
C137 H139 0.952 . S
C138 N133 1.332 . S
C138 C134 1.382 . S
C138 H140 0.948 . S
H139 C137 0.952 . S
H140 C138 0.948 . S
H141 C130 0.952 . S
H142 C132 0.948 . S
C143 C109 1.395 . S
C143 C113 1.391 . S
C144 C106 1.389 . S
C144 C126 1.392 . S
C145 C116 1.392 . S
C145 C118 1.389 . S
C146 C121 1.395 . S
C146 C123 1.391 . S
H147 C107 0.951 . S
H148 C108 0.950 . S
H149 C114 0.949 . S
H150 C115 0.950 . S
H151 C119 0.951 . S
H152 C120 0.950 . S
H153 C124 0.949 . S
H154 C125 0.950 . S
H155 C129 0.950 . S
H156 C131 0.950 . S
H157 C134 0.950 . S
H158 C136 0.950 . S
C159 C160 1.443 . S
C159 N163 1.376 . S
C159 C197 1.389 . S
C160 C159 1.443 . S
C160 C161 1.340 . S
C160 H200 0.951 . S
C161 C160 1.340 . S
C161 C162 1.439 . S
C161 H201 0.950 . S
C162 C161 1.439 . S
C162 N163 1.374 . S
C162 C196 1.395 . S
N163 C159 1.376 . S
N163 C162 1.374 . S
N163 Co164 2.008 . S
Co164 N163 2.008 . S
Co164 N165 1.995 . S
Co164 N170 2.008 . S
Co164 N175 1.995 . S
Co164 N180 2.282 . S
Co164 N186 2.282 . S
N165 Co164 1.995 . S
N165 C166 1.376 . S
N165 C169 1.383 . S
C166 N165 1.376 . S
C166 C167 1.446 . S
C166 C196 1.391 . S
C167 C166 1.446 . S
C167 C168 1.339 . S
C167 H202 0.949 . S
C168 C167 1.339 . S
C168 C169 1.439 . S
C168 H203 0.950 . S
C169 N165 1.383 . S
C169 C168 1.439 . S
C169 C198 1.392 . S
N170 Co164 2.008 . S
N170 C171 1.376 . S
N170 C174 1.374 . S
C171 N170 1.376 . S
C171 C172 1.443 . S
C171 C198 1.389 . S
C172 C171 1.443 . S
C172 C173 1.340 . S
C172 H204 0.951 . S
C173 C172 1.340 . S
C173 C174 1.439 . S
C173 H205 0.950 . S
C174 N170 1.374 . S
C174 C173 1.439 . S
C174 C199 1.395 . S
N175 Co164 1.995 . S
N175 C176 1.376 . S
N175 C179 1.383 . S
C176 N175 1.376 . S
C176 C177 1.446 . S
C176 C199 1.391 . S
C177 C176 1.446 . S
C177 C178 1.339 . S
C177 H206 0.949 . S
C178 C177 1.339 . S
C178 C179 1.439 . S
C178 H207 0.950 . S
C179 N175 1.383 . S
C179 C178 1.439 . S
C179 C197 1.392 . S
N180 Co164 2.282 . S
N180 C183 1.332 . S
N180 C185 1.332 . S
C181 C182 1.386 . S
C181 C184 1.388 . S
C182 C181 1.386 . S
C182 C183 1.382 . S
C182 H208 0.950 . S
C183 N180 1.332 . S
C183 C182 1.382 . S
C183 H194 0.952 . S
C184 C181 1.388 . S
C184 C185 1.382 . S
C184 H209 0.950 . S
C185 N180 1.332 . S
C185 C184 1.382 . S
C185 H195 0.948 . S
N186 Co164 2.282 . S
N186 C190 1.332 . S
N186 C191 1.332 . S
C187 C188 1.388 . S
C187 C191 1.382 . S
C187 H210 0.950 . S
C188 C187 1.388 . S
C188 C189 1.386 . S
C189 C188 1.386 . S
C189 C190 1.382 . S
C189 H211 0.950 . S
C190 N186 1.332 . S
C190 C189 1.382 . S
C190 H192 0.952 . S
C191 N186 1.332 . S
C191 C187 1.382 . S
C191 H193 0.948 . S
H192 C190 0.952 . S
H193 C191 0.948 . S
H194 C183 0.952 . S
H195 C185 0.948 . S
C196 C162 1.395 . S
C196 C166 1.391 . S
C197 C159 1.389 . S
C197 C179 1.392 . S
C198 C169 1.392 . S
C198 C171 1.389 . S
C199 C174 1.395 . S
C199 C176 1.391 . S
H200 C160 0.951 . S
H201 C161 0.950 . S
H202 C167 0.949 . S
H203 C168 0.950 . S
H204 C172 0.951 . S
H205 C173 0.950 . S
H206 C177 0.949 . S
H207 C178 0.950 . S
H208 C182 0.950 . S
H209 C184 0.950 . S
H210 C187 0.950 . S
H211 C189 0.950 . S
C212 C213 1.443 . S
C212 N216 1.376 . S
C212 C250 1.389 . S
C213 C212 1.443 . S
C213 C214 1.340 . S
C213 H253 0.951 . S
C214 C213 1.340 . S
C214 C215 1.439 . S
C214 H254 0.950 . S
C215 C214 1.439 . S
C215 N216 1.374 . S
C215 C249 1.395 . S
N216 C212 1.376 . S
N216 C215 1.374 . S
N216 Co217 2.008 . S
Co217 N216 2.008 . S
Co217 N218 1.995 . S
Co217 N223 2.008 . S
Co217 N228 1.995 . S
Co217 N233 2.282 . S
Co217 N239 2.282 . S
N218 Co217 1.995 . S
N218 C219 1.376 . S
N218 C222 1.383 . S
C219 N218 1.376 . S
C219 C220 1.446 . S
C219 C249 1.391 . S
C220 C219 1.446 . S
C220 C221 1.339 . S
C220 H255 0.949 . S
C221 C220 1.339 . S
C221 C222 1.439 . S
C221 H256 0.950 . S
C222 N218 1.383 . S
C222 C221 1.439 . S
C222 C251 1.392 . S
N223 Co217 2.008 . S
N223 C224 1.376 . S
N223 C227 1.374 . S
C224 N223 1.376 . S
C224 C225 1.443 . S
C224 C251 1.389 . S
C225 C224 1.443 . S
C225 C226 1.340 . S
C225 H257 0.951 . S
C226 C225 1.340 . S
C226 C227 1.439 . S
C226 H258 0.950 . S
C227 N223 1.374 . S
C227 C226 1.439 . S
C227 C252 1.395 . S
N228 Co217 1.995 . S
N228 C229 1.376 . S
N228 C232 1.383 . S
C229 N228 1.376 . S
C229 C230 1.446 . S
C229 C252 1.391 . S
C230 C229 1.446 . S
C230 C231 1.339 . S
C230 H259 0.949 . S
C231 C230 1.339 . S
C231 C232 1.439 . S
C231 H260 0.950 . S
C232 N228 1.383 . S
C232 C231 1.439 . S
C232 C250 1.392 . S
N233 Co217 2.282 . S
N233 C236 1.332 . S
N233 C238 1.332 . S
C234 C235 1.386 . S
C234 C237 1.388 . S
C235 C234 1.386 . S
C235 C236 1.382 . S
C235 H261 0.950 . S
C236 N233 1.332 . S
C236 C235 1.382 . S
C236 H247 0.952 . S
C237 C234 1.388 . S
C237 C238 1.382 . S
C237 H262 0.950 . S
C238 N233 1.332 . S
C238 C237 1.382 . S
C238 H248 0.948 . S
N239 Co217 2.282 . S
N239 C243 1.332 . S
N239 C244 1.332 . S
C240 C241 1.388 . S
C240 C244 1.382 . S
C240 H263 0.950 . S
C241 C240 1.388 . S
C241 C242 1.386 . S
C242 C241 1.386 . S
C242 C243 1.382 . S
C242 H264 0.950 . S
C243 N239 1.332 . S
C243 C242 1.382 . S
C243 H245 0.952 . S
C244 N239 1.332 . S
C244 C240 1.382 . S
C244 H246 0.948 . S
H245 C243 0.952 . S
H246 C244 0.948 . S
H247 C236 0.952 . S
H248 C238 0.948 . S
C249 C215 1.395 . S
C249 C219 1.391 . S
C250 C212 1.389 . S
C250 C232 1.392 . S
C251 C222 1.392 . S
C251 C224 1.389 . S
C252 C227 1.395 . S
C252 C229 1.391 . S
H253 C213 0.951 . S
H254 C214 0.950 . S
H255 C220 0.949 . S
H256 C221 0.950 . S
H257 C225 0.951 . S
H258 C226 0.950 . S
H259 C230 0.949 . S
H260 C231 0.950 . S
H261 C235 0.950 . S
H262 C237 0.950 . S
H263 C240 0.950 . S
H264 C242 0.950 . S
C265 C266 1.443 . S
C265 N269 1.376 . S
C265 C303 1.389 . S
C266 C265 1.443 . S
C266 C267 1.340 . S
C266 H306 0.951 . S
C267 C266 1.340 . S
C267 C268 1.439 . S
C267 H307 0.950 . S
C268 C267 1.439 . S
C268 N269 1.374 . S
C268 C302 1.395 . S
N269 C265 1.376 . S
N269 C268 1.374 . S
N269 Co270 2.008 1_655 S
Co270 N269 2.008 1_455 S
Co270 N271 1.995 . S
Co270 N276 2.008 . S
Co270 N281 1.995 1_455 S
Co270 N286 2.282 1_455 S
Co270 N292 2.282 . S
N271 Co270 1.995 . S
N271 C272 1.376 . S
N271 C275 1.383 . S
C272 N271 1.376 . S
C272 C273 1.446 . S
C272 C302 1.391 1_455 S
C273 C272 1.446 . S
C273 C274 1.339 . S
C273 H308 0.949 . S
C274 C273 1.339 . S
C274 C275 1.439 . S
C274 H309 0.950 . S
C275 N271 1.383 . S
C275 C274 1.439 . S
C275 C304 1.392 . S
N276 Co270 2.008 . S
N276 C277 1.376 . S
N276 C280 1.374 . S
C277 N276 1.376 . S
C277 C278 1.443 . S
C277 C304 1.389 . S
C278 C277 1.443 . S
C278 C279 1.340 . S
C278 H310 0.951 . S
C279 C278 1.340 . S
C279 C280 1.439 . S
C279 H311 0.950 . S
C280 N276 1.374 . S
C280 C279 1.439 . S
C280 C305 1.395 . S
N281 Co270 1.995 1_655 S
N281 C282 1.376 1_655 S
N281 C285 1.383 . S
C282 N281 1.376 1_455 S
C282 C283 1.446 1_455 S
C282 C305 1.391 . S
C283 C282 1.446 1_655 S
C283 C284 1.339 . S
C283 H312 0.949 . S
C284 C283 1.339 . S
C284 C285 1.439 . S
C284 H313 0.950 . S
C285 N281 1.383 . S
C285 C284 1.439 . S
C285 C303 1.392 . S
N286 Co270 2.282 1_655 S
N286 C289 1.332 . S
N286 C291 1.332 . S
C287 C288 1.386 . S
C287 C290 1.388 . S
C288 C287 1.386 . S
C288 C289 1.382 . S
C288 H314 0.950 . S
C289 N286 1.332 . S
C289 C288 1.382 . S
C289 H300 0.952 . S
C290 C287 1.388 . S
C290 C291 1.382 . S
C290 H315 0.950 . S
C291 N286 1.332 . S
C291 C290 1.382 . S
C291 H301 0.948 . S
N292 Co270 2.282 . S
N292 C296 1.332 . S
N292 C297 1.332 . S
C293 C294 1.388 . S
C293 C297 1.382 . S
C293 H316 0.950 . S
C294 C293 1.388 . S
C294 C295 1.386 . S
C295 C294 1.386 . S
C295 C296 1.382 . S
C295 H317 0.950 . S
C296 N292 1.332 . S
C296 C295 1.382 . S
C296 H298 0.952 . S
C297 N292 1.332 . S
C297 C293 1.382 . S
C297 H299 0.948 . S
H298 C296 0.952 . S
H299 C297 0.948 . S
H300 C289 0.952 . S
H301 C291 0.948 . S
C302 C268 1.395 . S
C302 C272 1.391 1_655 S
C303 C265 1.389 . S
C303 C285 1.392 . S
C304 C275 1.392 . S
C304 C277 1.389 . S
C305 C280 1.395 . S
C305 C282 1.391 . S
H306 C266 0.951 . S
H307 C267 0.950 . S
H308 C273 0.949 . S
H309 C274 0.950 . S
H310 C278 0.951 . S
H311 C279 0.950 . S
H312 C283 0.949 . S
H313 C284 0.950 . S
H314 C288 0.950 . S
H315 C290 0.950 . S
H316 C293 0.950 . S
H317 C295 0.950 . S
C318 C319 1.443 . S
C318 N322 1.376 . S
C318 C356 1.389 . S
C319 C318 1.443 . S
C319 C320 1.340 . S
C319 H359 0.951 . S
C320 C319 1.340 . S
C320 C321 1.439 . S
C320 H360 0.950 . S
C321 C320 1.439 . S
C321 N322 1.374 . S
C321 C355 1.395 . S
N322 C318 1.376 . S
N322 C321 1.374 . S
N322 Co323 2.008 . S
Co323 N322 2.008 . S
Co323 N324 1.995 . S
Co323 N329 2.008 . S
Co323 N334 1.995 . S
Co323 N339 2.282 . S
Co323 N345 2.282 . S
N324 Co323 1.995 . S
N324 C325 1.376 . S
N324 C328 1.383 . S
C325 N324 1.376 . S
C325 C326 1.446 . S
C325 C355 1.391 . S
C326 C325 1.446 . S
C326 C327 1.339 . S
C326 H361 0.949 . S
C327 C326 1.339 . S
C327 C328 1.439 . S
C327 H362 0.950 . S
C328 N324 1.383 . S
C328 C327 1.439 . S
C328 C357 1.392 . S
N329 Co323 2.008 . S
N329 C330 1.376 . S
N329 C333 1.374 . S
C330 N329 1.376 . S
C330 C331 1.443 . S
C330 C357 1.389 . S
C331 C330 1.443 . S
C331 C332 1.340 . S
C331 H363 0.951 . S
C332 C331 1.340 . S
C332 C333 1.439 . S
C332 H364 0.950 . S
C333 N329 1.374 . S
C333 C332 1.439 . S
C333 C358 1.395 . S
N334 Co323 1.995 . S
N334 C335 1.376 . S
N334 C338 1.383 . S
C335 N334 1.376 . S
C335 C336 1.446 . S
C335 C358 1.391 . S
C336 C335 1.446 . S
C336 C337 1.339 . S
C336 H365 0.949 . S
C337 C336 1.339 . S
C337 C338 1.439 . S
C337 H366 0.950 . S
C338 N334 1.383 . S
C338 C337 1.439 . S
C338 C356 1.392 . S
N339 Co323 2.282 . S
N339 C342 1.332 . S
N339 C344 1.332 . S
C340 C341 1.386 . S
C340 C343 1.388 . S
C341 C340 1.386 . S
C341 C342 1.382 . S
C341 H367 0.950 . S
C342 N339 1.332 . S
C342 C341 1.382 . S
C342 H353 0.952 . S
C343 C340 1.388 . S
C343 C344 1.382 . S
C343 H368 0.950 . S
C344 N339 1.332 . S
C344 C343 1.382 . S
C344 H354 0.948 . S
N345 Co323 2.282 . S
N345 C349 1.332 . S
N345 C350 1.332 . S
C346 C347 1.388 . S
C346 C350 1.382 . S
C346 H369 0.950 . S
C347 C346 1.388 . S
C347 C348 1.386 . S
C348 C347 1.386 . S
C348 C349 1.382 . S
C348 H370 0.950 . S
C349 N345 1.332 . S
C349 C348 1.382 . S
C349 H351 0.952 . S
C350 N345 1.332 . S
C350 C346 1.382 . S
C350 H352 0.948 . S
H351 C349 0.952 . S
H352 C350 0.948 . S
H353 C342 0.952 . S
H354 C344 0.948 . S
C355 C321 1.395 . S
C355 C325 1.391 . S
C356 C318 1.389 . S
C356 C338 1.392 . S
C357 C328 1.392 . S
C357 C330 1.389 . S
C358 C333 1.395 . S
C358 C335 1.391 . S
H359 C319 0.951 . S
H360 C320 0.950 . S
H361 C326 0.949 . S
H362 C327 0.950 . S
H363 C331 0.951 . S
H364 C332 0.950 . S
H365 C336 0.949 . S
H366 C337 0.950 . S
H367 C341 0.950 . S
H368 C343 0.950 . S
H369 C346 0.950 . S
H370 C348 0.950 . S
C371 C372 1.443 . S
C371 N375 1.376 . S
C371 C409 1.389 . S
C372 C371 1.443 . S
C372 C373 1.340 . S
C372 H412 0.951 . S
C373 C372 1.340 . S
C373 C374 1.439 . S
C373 H413 0.950 . S
C374 C373 1.439 . S
C374 N375 1.374 . S
C374 C408 1.395 . S
N375 C371 1.376 . S
N375 C374 1.374 . S
N375 Co376 2.008 1_455 S
Co376 N375 2.008 1_655 S
Co376 N377 1.995 . S
Co376 N382 2.008 . S
Co376 N387 1.995 1_655 S
Co376 N392 2.282 1_655 S
Co376 N398 2.282 . S
N377 Co376 1.995 . S
N377 C378 1.376 . S
N377 C381 1.383 . S
C378 N377 1.376 . S
C378 C379 1.446 . S
C378 C408 1.391 1_655 S
C379 C378 1.446 . S
C379 C380 1.339 . S
C379 H414 0.949 . S
C380 C379 1.339 . S
C380 C381 1.439 . S
C380 H415 0.950 . S
C381 N377 1.383 . S
C381 C380 1.439 . S
C381 C410 1.392 . S
N382 Co376 2.008 . S
N382 C383 1.376 . S
N382 C386 1.374 . S
C383 N382 1.376 . S
C383 C384 1.443 . S
C383 C410 1.389 . S
C384 C383 1.443 . S
C384 C385 1.340 . S
C384 H416 0.951 . S
C385 C384 1.340 . S
C385 C386 1.439 . S
C385 H417 0.950 . S
C386 N382 1.374 . S
C386 C385 1.439 . S
C386 C411 1.395 . S
N387 Co376 1.995 1_455 S
N387 C388 1.376 1_455 S
N387 C391 1.383 . S
C388 N387 1.376 1_655 S
C388 C389 1.446 1_655 S
C388 C411 1.391 . S
C389 C388 1.446 1_455 S
C389 C390 1.339 . S
C389 H418 0.949 . S
C390 C389 1.339 . S
C390 C391 1.439 . S
C390 H419 0.950 . S
C391 N387 1.383 . S
C391 C390 1.439 . S
C391 C409 1.392 . S
N392 Co376 2.282 1_455 S
N392 C395 1.332 . S
N392 C397 1.332 . S
C393 C394 1.386 . S
C393 C396 1.388 . S
C394 C393 1.386 . S
C394 C395 1.382 . S
C394 H420 0.950 . S
C395 N392 1.332 . S
C395 C394 1.382 . S
C395 H406 0.952 . S
C396 C393 1.388 . S
C396 C397 1.382 . S
C396 H421 0.950 . S
C397 N392 1.332 . S
C397 C396 1.382 . S
C397 H407 0.948 . S
N398 Co376 2.282 . S
N398 C402 1.332 . S
N398 C403 1.332 . S
C399 C400 1.388 . S
C399 C403 1.382 . S
C399 H422 0.950 . S
C400 C399 1.388 . S
C400 C401 1.386 . S
C401 C400 1.386 . S
C401 C402 1.382 . S
C401 H423 0.950 . S
C402 N398 1.332 . S
C402 C401 1.382 . S
C402 H404 0.952 . S
C403 N398 1.332 . S
C403 C399 1.382 . S
C403 H405 0.948 . S
H404 C402 0.952 . S
H405 C403 0.948 . S
H406 C395 0.952 . S
H407 C397 0.948 . S
C408 C374 1.395 . S
C408 C378 1.391 1_455 S
C409 C371 1.389 . S
C409 C391 1.392 . S
C410 C381 1.392 . S
C410 C383 1.389 . S
C411 C386 1.395 . S
C411 C388 1.391 . S
H412 C372 0.951 . S
H413 C373 0.950 . S
H414 C379 0.949 . S
H415 C380 0.950 . S
H416 C384 0.951 . S
H417 C385 0.950 . S
H418 C389 0.949 . S
H419 C390 0.950 . S
H420 C394 0.950 . S
H421 C396 0.950 . S
H422 C399 0.950 . S
H423 C401 0.950 . S
C424 C425 1.443 . S
C424 N428 1.376 . S
C424 C462 1.389 . S
C425 C424 1.443 . S
C425 C426 1.340 . S
C425 H465 0.951 . S
C426 C425 1.340 . S
C426 C427 1.439 . S
C426 H466 0.950 . S
C427 C426 1.439 . S
C427 N428 1.374 . S
C427 C461 1.395 . S
N428 C424 1.376 . S
N428 C427 1.374 . S
N428 Co429 2.008 . S
Co429 N428 2.008 . S
Co429 N430 1.995 . S
Co429 N435 2.008 . S
Co429 N440 1.995 . S
Co429 N445 2.282 . S
Co429 N451 2.282 . S
N430 Co429 1.995 . S
N430 C431 1.376 . S
N430 C434 1.383 . S
C431 N430 1.376 . S
C431 C432 1.446 . S
C431 C461 1.391 . S
C432 C431 1.446 . S
C432 C433 1.339 . S
C432 H467 0.949 . S
C433 C432 1.339 . S
C433 C434 1.439 . S
C433 H468 0.950 . S
C434 N430 1.383 . S
C434 C433 1.439 . S
C434 C463 1.392 . S
N435 Co429 2.008 . S
N435 C436 1.376 . S
N435 C439 1.374 . S
C436 N435 1.376 . S
C436 C437 1.443 . S
C436 C463 1.389 . S
C437 C436 1.443 . S
C437 C438 1.340 . S
C437 H469 0.951 . S
C438 C437 1.340 . S
C438 C439 1.439 . S
C438 H470 0.950 . S
C439 N435 1.374 . S
C439 C438 1.439 . S
C439 C464 1.395 . S
N440 Co429 1.995 . S
N440 C441 1.376 . S
N440 C444 1.383 . S
C441 N440 1.376 . S
C441 C442 1.446 . S
C441 C464 1.391 . S
C442 C441 1.446 . S
C442 C443 1.339 . S
C442 H471 0.949 . S
C443 C442 1.339 . S
C443 C444 1.439 . S
C443 H472 0.950 . S
C444 N440 1.383 . S
C444 C443 1.439 . S
C444 C462 1.392 . S
N445 Co429 2.282 . S
N445 C448 1.332 . S
N445 C450 1.332 . S
C446 C447 1.386 . S
C446 C449 1.388 . S
C447 C446 1.386 . S
C447 C448 1.382 . S
C447 H473 0.950 . S
C448 N445 1.332 . S
C448 C447 1.382 . S
C448 H459 0.952 . S
C449 C446 1.388 . S
C449 C450 1.382 . S
C449 H474 0.950 . S
C450 N445 1.332 . S
C450 C449 1.382 . S
C450 H460 0.948 . S
N451 Co429 2.282 . S
N451 C455 1.332 . S
N451 C456 1.332 . S
C452 C453 1.388 . S
C452 C456 1.382 . S
C452 H475 0.950 . S
C453 C452 1.388 . S
C453 C454 1.386 . S
C454 C453 1.386 . S
C454 C455 1.382 . S
C454 H476 0.950 . S
C455 N451 1.332 . S
C455 C454 1.382 . S
C455 H457 0.952 . S
C456 N451 1.332 . S
C456 C452 1.382 . S
C456 H458 0.948 . S
H457 C455 0.952 . S
H458 C456 0.948 . S
H459 C448 0.952 . S
H460 C450 0.948 . S
C461 C427 1.395 . S
C461 C431 1.391 . S
C462 C424 1.389 . S
C462 C444 1.392 . S
C463 C434 1.392 . S
C463 C436 1.389 . S
C464 C439 1.395 . S
C464 C441 1.391 . S
H465 C425 0.951 . S
H466 C426 0.950 . S
H467 C432 0.949 . S
H468 C433 0.950 . S
H469 C437 0.951 . S
H470 C438 0.950 . S
H471 C442 0.949 . S
H472 C443 0.950 . S
H473 C447 0.950 . S
H474 C449 0.950 . S
H475 C452 0.950 . S
H476 C454 0.950 . S
C477 C478 1.443 . S
C477 N481 1.376 . S
C477 C515 1.389 . S
C478 C477 1.443 . S
C478 C479 1.340 . S
C478 H518 0.951 . S
C479 C478 1.340 . S
C479 C480 1.439 . S
C479 H519 0.950 . S
C480 C479 1.439 . S
C480 N481 1.374 . S
C480 C514 1.395 . S
N481 C477 1.376 . S
N481 C480 1.374 . S
N481 Co482 2.008 1_556 S
Co482 N481 2.008 1_554 S
Co482 N483 1.995 . S
Co482 N488 2.008 . S
Co482 N493 1.995 1_554 S
Co482 N498 2.282 1_554 S
Co482 N504 2.282 . S
N483 Co482 1.995 . S
N483 C484 1.376 . S
N483 C487 1.383 . S
C484 N483 1.376 . S
C484 C485 1.446 . S
C484 C514 1.391 1_554 S
C485 C484 1.446 . S
C485 C486 1.339 . S
C485 H520 0.949 . S
C486 C485 1.339 . S
C486 C487 1.439 . S
C486 H521 0.950 . S
C487 N483 1.383 . S
C487 C486 1.439 . S
C487 C516 1.392 . S
N488 Co482 2.008 . S
N488 C489 1.376 . S
N488 C492 1.374 . S
C489 N488 1.376 . S
C489 C490 1.443 . S
C489 C516 1.389 . S
C490 C489 1.443 . S
C490 C491 1.340 . S
C490 H522 0.951 . S
C491 C490 1.340 . S
C491 C492 1.439 . S
C491 H523 0.950 . S
C492 N488 1.374 . S
C492 C491 1.439 . S
C492 C517 1.395 . S
N493 Co482 1.995 1_556 S
N493 C494 1.376 1_556 S
N493 C497 1.383 . S
C494 N493 1.376 1_554 S
C494 C495 1.446 1_554 S
C494 C517 1.391 . S
C495 C494 1.446 1_556 S
C495 C496 1.339 . S
C495 H524 0.949 . S
C496 C495 1.339 . S
C496 C497 1.439 . S
C496 H525 0.950 . S
C497 N493 1.383 . S
C497 C496 1.439 . S
C497 C515 1.392 . S
N498 Co482 2.282 1_556 S
N498 C501 1.332 . S
N498 C503 1.332 . S
C499 C500 1.386 . S
C499 C502 1.388 . S
C500 C499 1.386 . S
C500 C501 1.382 . S
C500 H526 0.950 . S
C501 N498 1.332 . S
C501 C500 1.382 . S
C501 H512 0.952 . S
C502 C499 1.388 . S
C502 C503 1.382 . S
C502 H527 0.950 . S
C503 N498 1.332 . S
C503 C502 1.382 . S
C503 H513 0.948 . S
N504 Co482 2.282 . S
N504 C508 1.332 . S
N504 C509 1.332 . S
C505 C506 1.388 . S
C505 C509 1.382 . S
C505 H528 0.950 . S
C506 C505 1.388 . S
C506 C507 1.386 . S
C507 C506 1.386 . S
C507 C508 1.382 . S
C507 H529 0.950 . S
C508 N504 1.332 . S
C508 C507 1.382 . S
C508 H510 0.952 . S
C509 N504 1.332 . S
C509 C505 1.382 . S
C509 H511 0.948 . S
H510 C508 0.952 . S
H511 C509 0.948 . S
H512 C501 0.952 . S
H513 C503 0.948 . S
C514 C480 1.395 . S
C514 C484 1.391 1_556 S
C515 C477 1.389 . S
C515 C497 1.392 . S
C516 C487 1.392 . S
C516 C489 1.389 . S
C517 C492 1.395 . S
C517 C494 1.391 . S
H518 C478 0.951 . S
H519 C479 0.950 . S
H520 C485 0.949 . S
H521 C486 0.950 . S
H522 C490 0.951 . S
H523 C491 0.950 . S
H524 C495 0.949 . S
H525 C496 0.950 . S
H526 C500 0.950 . S
H527 C502 0.950 . S
H528 C505 0.950 . S
H529 C507 0.950 . S
C530 C531 1.443 . S
C530 N534 1.376 . S
C530 C568 1.389 . S
C531 C530 1.443 . S
C531 C532 1.340 . S
C531 H571 0.951 . S
C532 C531 1.340 . S
C532 C533 1.439 . S
C532 H572 0.950 . S
C533 C532 1.439 . S
C533 N534 1.374 . S
C533 C567 1.395 . S
N534 C530 1.376 . S
N534 C533 1.374 . S
N534 Co535 2.008 . S
Co535 N534 2.008 . S
Co535 N536 1.995 . S
Co535 N541 2.008 . S
Co535 N546 1.995 . S
Co535 N551 2.282 . S
Co535 N557 2.282 . S
N536 Co535 1.995 . S
N536 C537 1.376 . S
N536 C540 1.383 . S
C537 N536 1.376 . S
C537 C538 1.446 . S
C537 C567 1.391 . S
C538 C537 1.446 . S
C538 C539 1.339 . S
C538 H573 0.949 . S
C539 C538 1.339 . S
C539 C540 1.439 . S
C539 H574 0.950 . S
C540 N536 1.383 . S
C540 C539 1.439 . S
C540 C569 1.392 . S
N541 Co535 2.008 . S
N541 C542 1.376 . S
N541 C545 1.374 . S
C542 N541 1.376 . S
C542 C543 1.443 . S
C542 C569 1.389 . S
C543 C542 1.443 . S
C543 C544 1.340 . S
C543 H575 0.951 . S
C544 C543 1.340 . S
C544 C545 1.439 . S
C544 H576 0.950 . S
C545 N541 1.374 . S
C545 C544 1.439 . S
C545 C570 1.395 . S
N546 Co535 1.995 . S
N546 C547 1.376 . S
N546 C550 1.383 . S
C547 N546 1.376 . S
C547 C548 1.446 . S
C547 C570 1.391 . S
C548 C547 1.446 . S
C548 C549 1.339 . S
C548 H577 0.949 . S
C549 C548 1.339 . S
C549 C550 1.439 . S
C549 H578 0.950 . S
C550 N546 1.383 . S
C550 C549 1.439 . S
C550 C568 1.392 . S
N551 Co535 2.282 . S
N551 C554 1.332 . S
N551 C556 1.332 . S
C552 C553 1.386 . S
C552 C555 1.388 . S
C553 C552 1.386 . S
C553 C554 1.382 . S
C553 H579 0.950 . S
C554 N551 1.332 . S
C554 C553 1.382 . S
C554 H565 0.952 . S
C555 C552 1.388 . S
C555 C556 1.382 . S
C555 H580 0.950 . S
C556 N551 1.332 . S
C556 C555 1.382 . S
C556 H566 0.948 . S
N557 Co535 2.282 . S
N557 C561 1.332 . S
N557 C562 1.332 . S
C558 C559 1.388 . S
C558 C562 1.382 . S
C558 H581 0.950 . S
C559 C558 1.388 . S
C559 C560 1.386 . S
C560 C559 1.386 . S
C560 C561 1.382 . S
C560 H582 0.950 . S
C561 N557 1.332 . S
C561 C560 1.382 . S
C561 H563 0.952 . S
C562 N557 1.332 . S
C562 C558 1.382 . S
C562 H564 0.948 . S
H563 C561 0.952 . S
H564 C562 0.948 . S
H565 C554 0.952 . S
H566 C556 0.948 . S
C567 C533 1.395 . S
C567 C537 1.391 . S
C568 C530 1.389 . S
C568 C550 1.392 . S
C569 C540 1.392 . S
C569 C542 1.389 . S
C570 C545 1.395 . S
C570 C547 1.391 . S
H571 C531 0.951 . S
H572 C532 0.950 . S
H573 C538 0.949 . S
H574 C539 0.950 . S
H575 C543 0.951 . S
H576 C544 0.950 . S
H577 C548 0.949 . S
H578 C549 0.950 . S
H579 C553 0.950 . S
H580 C555 0.950 . S
H581 C558 0.950 . S
H582 C560 0.950 . S
C583 C584 1.443 . S
C583 N587 1.376 . S
C583 C621 1.389 . S
C584 C583 1.443 . S
C584 C585 1.340 . S
C584 H624 0.951 . S
C585 C584 1.340 . S
C585 C586 1.439 . S
C585 H625 0.950 . S
C586 C585 1.439 . S
C586 N587 1.374 . S
C586 C620 1.395 . S
N587 C583 1.376 . S
N587 C586 1.374 . S
N587 Co588 2.008 1_556 S
Co588 N587 2.008 1_554 S
Co588 N589 1.995 . S
Co588 N594 2.008 . S
Co588 N599 1.995 1_554 S
Co588 N604 2.282 1_554 S
Co588 N610 2.282 . S
N589 Co588 1.995 . S
N589 C590 1.376 . S
N589 C593 1.383 . S
C590 N589 1.376 . S
C590 C591 1.446 . S
C590 C620 1.391 1_554 S
C591 C590 1.446 . S
C591 C592 1.339 . S
C591 H626 0.949 . S
C592 C591 1.339 . S
C592 C593 1.439 . S
C592 H627 0.950 . S
C593 N589 1.383 . S
C593 C592 1.439 . S
C593 C622 1.392 . S
N594 Co588 2.008 . S
N594 C595 1.376 . S
N594 C598 1.374 . S
C595 N594 1.376 . S
C595 C596 1.443 . S
C595 C622 1.389 . S
C596 C595 1.443 . S
C596 C597 1.340 . S
C596 H628 0.951 . S
C597 C596 1.340 . S
C597 C598 1.439 . S
C597 H629 0.950 . S
C598 N594 1.374 . S
C598 C597 1.439 . S
C598 C623 1.395 . S
N599 Co588 1.995 1_556 S
N599 C600 1.376 1_556 S
N599 C603 1.383 . S
C600 N599 1.376 1_554 S
C600 C601 1.446 1_554 S
C600 C623 1.391 . S
C601 C600 1.446 1_556 S
C601 C602 1.339 . S
C601 H630 0.949 . S
C602 C601 1.339 . S
C602 C603 1.439 . S
C602 H631 0.950 . S
C603 N599 1.383 . S
C603 C602 1.439 . S
C603 C621 1.392 . S
N604 Co588 2.282 1_556 S
N604 C607 1.332 . S
N604 C609 1.332 . S
C605 C606 1.386 . S
C605 C608 1.388 . S
C606 C605 1.386 . S
C606 C607 1.382 . S
C606 H632 0.950 . S
C607 N604 1.332 . S
C607 C606 1.382 . S
C607 H618 0.952 . S
C608 C605 1.388 . S
C608 C609 1.382 . S
C608 H633 0.950 . S
C609 N604 1.332 . S
C609 C608 1.382 . S
C609 H619 0.948 . S
N610 Co588 2.282 . S
N610 C614 1.332 . S
N610 C615 1.332 . S
C611 C612 1.388 . S
C611 C615 1.382 . S
C611 H634 0.950 . S
C612 C611 1.388 . S
C612 C613 1.386 . S
C613 C612 1.386 . S
C613 C614 1.382 . S
C613 H635 0.950 . S
C614 N610 1.332 . S
C614 C613 1.382 . S
C614 H616 0.952 . S
C615 N610 1.332 . S
C615 C611 1.382 . S
C615 H617 0.948 . S
H616 C614 0.952 . S
H617 C615 0.948 . S
H618 C607 0.952 . S
H619 C609 0.948 . S
C620 C586 1.395 . S
C620 C590 1.391 1_556 S
C621 C583 1.389 . S
C621 C603 1.392 . S
C622 C593 1.392 . S
C622 C595 1.389 . S
C623 C598 1.395 . S
C623 C600 1.391 . S
H624 C584 0.951 . S
H625 C585 0.950 . S
H626 C591 0.949 . S
H627 C592 0.950 . S
H628 C596 0.951 . S
H629 C597 0.950 . S
H630 C601 0.949 . S
H631 C602 0.950 . S
H632 C606 0.950 . S
H633 C608 0.950 . S
H634 C611 0.950 . S
H635 C613 0.950 . S
C636 C637 1.443 . S
C636 N640 1.376 . S
C636 C674 1.389 . S
C637 C636 1.443 . S
C637 C638 1.340 . S
C637 H677 0.951 . S
C638 C637 1.340 . S
C638 C639 1.439 . S
C638 H678 0.950 . S
C639 C638 1.439 . S
C639 N640 1.374 . S
C639 C673 1.395 . S
N640 C636 1.376 . S
N640 C639 1.374 . S
N640 Co641 2.008 . S
Co641 N640 2.008 . S
Co641 N642 1.995 . S
Co641 N647 2.008 . S
Co641 N652 1.995 . S
Co641 N657 2.282 . S
Co641 N663 2.282 . S
N642 Co641 1.995 . S
N642 C643 1.376 . S
N642 C646 1.383 . S
C643 N642 1.376 . S
C643 C644 1.446 . S
C643 C673 1.391 . S
C644 C643 1.446 . S
C644 C645 1.339 . S
C644 H679 0.949 . S
C645 C644 1.339 . S
C645 C646 1.439 . S
C645 H680 0.950 . S
C646 N642 1.383 . S
C646 C645 1.439 . S
C646 C675 1.392 . S
N647 Co641 2.008 . S
N647 C648 1.376 . S
N647 C651 1.374 . S
C648 N647 1.376 . S
C648 C649 1.443 . S
C648 C675 1.389 . S
C649 C648 1.443 . S
C649 C650 1.340 . S
C649 H681 0.951 . S
C650 C649 1.340 . S
C650 C651 1.439 . S
C650 H682 0.950 . S
C651 N647 1.374 . S
C651 C650 1.439 . S
C651 C676 1.395 . S
N652 Co641 1.995 . S
N652 C653 1.376 . S
N652 C656 1.383 . S
C653 N652 1.376 . S
C653 C654 1.446 . S
C653 C676 1.391 . S
C654 C653 1.446 . S
C654 C655 1.339 . S
C654 H683 0.949 . S
C655 C654 1.339 . S
C655 C656 1.439 . S
C655 H684 0.950 . S
C656 N652 1.383 . S
C656 C655 1.439 . S
C656 C674 1.392 . S
N657 Co641 2.282 . S
N657 C660 1.332 . S
N657 C662 1.332 . S
C658 C659 1.386 . S
C658 C661 1.388 . S
C659 C658 1.386 . S
C659 C660 1.382 . S
C659 H685 0.950 . S
C660 N657 1.332 . S
C660 C659 1.382 . S
C660 H671 0.952 . S
C661 C658 1.388 . S
C661 C662 1.382 . S
C661 H686 0.950 . S
C662 N657 1.332 . S
C662 C661 1.382 . S
C662 H672 0.948 . S
N663 Co641 2.282 . S
N663 C667 1.332 . S
N663 C668 1.332 . S
C664 C665 1.388 . S
C664 C668 1.382 . S
C664 H687 0.950 . S
C665 C664 1.388 . S
C665 C666 1.386 . S
C666 C665 1.386 . S
C666 C667 1.382 . S
C666 H688 0.950 . S
C667 N663 1.332 . S
C667 C666 1.382 . S
C667 H669 0.952 . S
C668 N663 1.332 . S
C668 C664 1.382 . S
C668 H670 0.948 . S
H669 C667 0.952 . S
H670 C668 0.948 . S
H671 C660 0.952 . S
H672 C662 0.948 . S
C673 C639 1.395 . S
C673 C643 1.391 . S
C674 C636 1.389 . S
C674 C656 1.392 . S
C675 C646 1.392 . S
C675 C648 1.389 . S
C676 C651 1.395 . S
C676 C653 1.391 . S
H677 C637 0.951 . S
H678 C638 0.950 . S
H679 C644 0.949 . S
H680 C645 0.950 . S
H681 C649 0.951 . S
H682 C650 0.950 . S
H683 C654 0.949 . S
H684 C655 0.950 . S
H685 C659 0.950 . S
H686 C661 0.950 . S
H687 C664 0.950 . S
H688 C666 0.950 . S
C689 C690 1.443 . S
C689 N693 1.376 . S
C689 C727 1.389 . S
C690 C689 1.443 . S
C690 C691 1.340 . S
C690 H730 0.951 . S
C691 C690 1.340 . S
C691 C692 1.439 . S
C691 H731 0.950 . S
C692 C691 1.439 . S
C692 N693 1.374 . S
C692 C726 1.395 . S
N693 C689 1.376 . S
N693 C692 1.374 . S
N693 Co694 2.008 1_554 S
Co694 N693 2.008 1_556 S
Co694 N695 1.995 . S
Co694 N700 2.008 . S
Co694 N705 1.995 1_556 S
Co694 N710 2.282 1_556 S
Co694 N716 2.282 . S
N695 Co694 1.995 . S
N695 C696 1.376 . S
N695 C699 1.383 . S
C696 N695 1.376 . S
C696 C697 1.446 . S
C696 C726 1.391 1_556 S
C697 C696 1.446 . S
C697 C698 1.339 . S
C697 H732 0.949 . S
C698 C697 1.339 . S
C698 C699 1.439 . S
C698 H733 0.950 . S
C699 N695 1.383 . S
C699 C698 1.439 . S
C699 C728 1.392 . S
N700 Co694 2.008 . S
N700 C701 1.376 . S
N700 C704 1.374 . S
C701 N700 1.376 . S
C701 C702 1.443 . S
C701 C728 1.389 . S
C702 C701 1.443 . S
C702 C703 1.340 . S
C702 H734 0.951 . S
C703 C702 1.340 . S
C703 C704 1.439 . S
C703 H735 0.950 . S
C704 N700 1.374 . S
C704 C703 1.439 . S
C704 C729 1.395 . S
N705 Co694 1.995 1_554 S
N705 C706 1.376 1_554 S
N705 C709 1.383 . S
C706 N705 1.376 1_556 S
C706 C707 1.446 1_556 S
C706 C729 1.391 . S
C707 C706 1.446 1_554 S
C707 C708 1.339 . S
C707 H736 0.949 . S
C708 C707 1.339 . S
C708 C709 1.439 . S
C708 H737 0.950 . S
C709 N705 1.383 . S
C709 C708 1.439 . S
C709 C727 1.392 . S
N710 Co694 2.282 1_554 S
N710 C713 1.332 . S
N710 C715 1.332 . S
C711 C712 1.386 . S
C711 C714 1.388 . S
C712 C711 1.386 . S
C712 C713 1.382 . S
C712 H738 0.950 . S
C713 N710 1.332 . S
C713 C712 1.382 . S
C713 H724 0.952 . S
C714 C711 1.388 . S
C714 C715 1.382 . S
C714 H739 0.950 . S
C715 N710 1.332 . S
C715 C714 1.382 . S
C715 H725 0.948 . S
N716 Co694 2.282 . S
N716 C720 1.332 . S
N716 C721 1.332 . S
C717 C718 1.388 . S
C717 C721 1.382 . S
C717 H740 0.950 . S
C718 C717 1.388 . S
C718 C719 1.386 . S
C719 C718 1.386 . S
C719 C720 1.382 . S
C719 H741 0.950 . S
C720 N716 1.332 . S
C720 C719 1.382 . S
C720 H722 0.952 . S
C721 N716 1.332 . S
C721 C717 1.382 . S
C721 H723 0.948 . S
H722 C720 0.952 . S
H723 C721 0.948 . S
H724 C713 0.952 . S
H725 C715 0.948 . S
C726 C692 1.395 . S
C726 C696 1.391 1_554 S
C727 C689 1.389 . S
C727 C709 1.392 . S
C728 C699 1.392 . S
C728 C701 1.389 . S
C729 C704 1.395 . S
C729 C706 1.391 . S
H730 C690 0.951 . S
H731 C691 0.950 . S
H732 C697 0.949 . S
H733 C698 0.950 . S
H734 C702 0.951 . S
H735 C703 0.950 . S
H736 C707 0.949 . S
H737 C708 0.950 . S
H738 C712 0.950 . S
H739 C714 0.950 . S
H740 C717 0.950 . S
H741 C719 0.950 . S
C742 C743 1.443 . S
C742 N746 1.376 . S
C742 C780 1.389 . S
C743 C742 1.443 . S
C743 C744 1.340 . S
C743 H783 0.951 . S
C744 C743 1.340 . S
C744 C745 1.439 . S
C744 H784 0.950 . S
C745 C744 1.439 . S
C745 N746 1.374 . S
C745 C779 1.395 . S
N746 C742 1.376 . S
N746 C745 1.374 . S
N746 Co747 2.008 . S
Co747 N746 2.008 . S
Co747 N748 1.995 . S
Co747 N753 2.008 . S
Co747 N758 1.995 . S
Co747 N763 2.282 . S
Co747 N769 2.282 . S
N748 Co747 1.995 . S
N748 C749 1.376 . S
N748 C752 1.383 . S
C749 N748 1.376 . S
C749 C750 1.446 . S
C749 C779 1.391 . S
C750 C749 1.446 . S
C750 C751 1.339 . S
C750 H785 0.949 . S
C751 C750 1.339 . S
C751 C752 1.439 . S
C751 H786 0.950 . S
C752 N748 1.383 . S
C752 C751 1.439 . S
C752 C781 1.392 . S
N753 Co747 2.008 . S
N753 C754 1.376 . S
N753 C757 1.374 . S
C754 N753 1.376 . S
C754 C755 1.443 . S
C754 C781 1.389 . S
C755 C754 1.443 . S
C755 C756 1.340 . S
C755 H787 0.951 . S
C756 C755 1.340 . S
C756 C757 1.439 . S
C756 H788 0.950 . S
C757 N753 1.374 . S
C757 C756 1.439 . S
C757 C782 1.395 . S
N758 Co747 1.995 . S
N758 C759 1.376 . S
N758 C762 1.383 . S
C759 N758 1.376 . S
C759 C760 1.446 . S
C759 C782 1.391 . S
C760 C759 1.446 . S
C760 C761 1.339 . S
C760 H789 0.949 . S
C761 C760 1.339 . S
C761 C762 1.439 . S
C761 H790 0.950 . S
C762 N758 1.383 . S
C762 C761 1.439 . S
C762 C780 1.392 . S
N763 Co747 2.282 . S
N763 C766 1.332 . S
N763 C768 1.332 . S
C764 C765 1.386 . S
C764 C767 1.388 . S
C765 C764 1.386 . S
C765 C766 1.382 . S
C765 H791 0.950 . S
C766 N763 1.332 . S
C766 C765 1.382 . S
C766 H777 0.952 . S
C767 C764 1.388 . S
C767 C768 1.382 . S
C767 H792 0.950 . S
C768 N763 1.332 . S
C768 C767 1.382 . S
C768 H778 0.948 . S
N769 Co747 2.282 . S
N769 C773 1.332 . S
N769 C774 1.332 . S
C770 C771 1.388 . S
C770 C774 1.382 . S
C770 H793 0.950 . S
C771 C770 1.388 . S
C771 C772 1.386 . S
C772 C771 1.386 . S
C772 C773 1.382 . S
C772 H794 0.950 . S
C773 N769 1.332 . S
C773 C772 1.382 . S
C773 H775 0.952 . S
C774 N769 1.332 . S
C774 C770 1.382 . S
C774 H776 0.948 . S
H775 C773 0.952 . S
H776 C774 0.948 . S
H777 C766 0.952 . S
H778 C768 0.948 . S
C779 C745 1.395 . S
C779 C749 1.391 . S
C780 C742 1.389 . S
C780 C762 1.392 . S
C781 C752 1.392 . S
C781 C754 1.389 . S
C782 C757 1.395 . S
C782 C759 1.391 . S
H783 C743 0.951 . S
H784 C744 0.950 . S
H785 C750 0.949 . S
H786 C751 0.950 . S
H787 C755 0.951 . S
H788 C756 0.950 . S
H789 C760 0.949 . S
H790 C761 0.950 . S
H791 C765 0.950 . S
H792 C767 0.950 . S
H793 C770 0.950 . S
H794 C772 0.950 . S
C795 C796 1.443 . S
C795 N799 1.376 . S
C795 C833 1.389 . S
C796 C795 1.443 . S
C796 C797 1.340 . S
C796 H836 0.951 . S
C797 C796 1.340 . S
C797 C798 1.439 . S
C797 H837 0.950 . S
C798 C797 1.439 . S
C798 N799 1.374 . S
C798 C832 1.395 . S
N799 C795 1.376 . S
N799 C798 1.374 . S
N799 Co800 2.008 1_554 S
Co800 N799 2.008 1_556 S
Co800 N801 1.995 . S
Co800 N806 2.008 . S
Co800 N811 1.995 1_556 S
Co800 N816 2.282 1_556 S
Co800 N822 2.282 . S
N801 Co800 1.995 . S
N801 C802 1.376 . S
N801 C805 1.383 . S
C802 N801 1.376 . S
C802 C803 1.446 . S
C802 C832 1.391 1_556 S
C803 C802 1.446 . S
C803 C804 1.339 . S
C803 H838 0.949 . S
C804 C803 1.339 . S
C804 C805 1.439 . S
C804 H839 0.950 . S
C805 N801 1.383 . S
C805 C804 1.439 . S
C805 C834 1.392 . S
N806 Co800 2.008 . S
N806 C807 1.376 . S
N806 C810 1.374 . S
C807 N806 1.376 . S
C807 C808 1.443 . S
C807 C834 1.389 . S
C808 C807 1.443 . S
C808 C809 1.340 . S
C808 H840 0.951 . S
C809 C808 1.340 . S
C809 C810 1.439 . S
C809 H841 0.950 . S
C810 N806 1.374 . S
C810 C809 1.439 . S
C810 C835 1.395 . S
N811 Co800 1.995 1_554 S
N811 C812 1.376 1_554 S
N811 C815 1.383 . S
C812 N811 1.376 1_556 S
C812 C813 1.446 1_556 S
C812 C835 1.391 . S
C813 C812 1.446 1_554 S
C813 C814 1.339 . S
C813 H842 0.949 . S
C814 C813 1.339 . S
C814 C815 1.439 . S
C814 H843 0.950 . S
C815 N811 1.383 . S
C815 C814 1.439 . S
C815 C833 1.392 . S
N816 Co800 2.282 1_554 S
N816 C819 1.332 . S
N816 C821 1.332 . S
C817 C818 1.386 . S
C817 C820 1.388 . S
C818 C817 1.386 . S
C818 C819 1.382 . S
C818 H844 0.950 . S
C819 N816 1.332 . S
C819 C818 1.382 . S
C819 H830 0.952 . S
C820 C817 1.388 . S
C820 C821 1.382 . S
C820 H845 0.950 . S
C821 N816 1.332 . S
C821 C820 1.382 . S
C821 H831 0.948 . S
N822 Co800 2.282 . S
N822 C826 1.332 . S
N822 C827 1.332 . S
C823 C824 1.388 . S
C823 C827 1.382 . S
C823 H846 0.950 . S
C824 C823 1.388 . S
C824 C825 1.386 . S
C825 C824 1.386 . S
C825 C826 1.382 . S
C825 H847 0.950 . S
C826 N822 1.332 . S
C826 C825 1.382 . S
C826 H828 0.952 . S
C827 N822 1.332 . S
C827 C823 1.382 . S
C827 H829 0.948 . S
H828 C826 0.952 . S
H829 C827 0.948 . S
H830 C819 0.952 . S
H831 C821 0.948 . S
C832 C798 1.395 . S
C832 C802 1.391 1_554 S
C833 C795 1.389 . S
C833 C815 1.392 . S
C834 C805 1.392 . S
C834 C807 1.389 . S
C835 C810 1.395 . S
C835 C812 1.391 . S
H836 C796 0.951 . S
H837 C797 0.950 . S
H838 C803 0.949 . S
H839 C804 0.950 . S
H840 C808 0.951 . S
H841 C809 0.950 . S
H842 C813 0.949 . S
H843 C814 0.950 . S
H844 C818 0.950 . S
H845 C820 0.950 . S
H846 C823 0.950 . S
H847 C825 0.950 . S
C848 C849 1.443 . S
C848 N852 1.376 . S
C848 C886 1.389 . S
C849 C848 1.443 . S
C849 C850 1.340 . S
C849 H889 0.951 . S
C850 C849 1.340 . S
C850 C851 1.439 . S
C850 H890 0.950 . S
C851 C850 1.439 . S
C851 N852 1.374 . S
C851 C885 1.395 . S
N852 C848 1.376 . S
N852 C851 1.374 . S
N852 Co853 2.008 . S
Co853 N852 2.008 . S
Co853 N854 1.995 . S
Co853 N859 2.008 . S
Co853 N864 1.995 . S
Co853 N869 2.282 . S
Co853 N875 2.282 . S
N854 Co853 1.995 . S
N854 C855 1.376 . S
N854 C858 1.383 . S
C855 N854 1.376 . S
C855 C856 1.446 . S
C855 C885 1.391 . S
C856 C855 1.446 . S
C856 C857 1.339 . S
C856 H891 0.949 . S
C857 C856 1.339 . S
C857 C858 1.439 . S
C857 H892 0.950 . S
C858 N854 1.383 . S
C858 C857 1.439 . S
C858 C887 1.392 . S
N859 Co853 2.008 . S
N859 C860 1.376 . S
N859 C863 1.374 . S
C860 N859 1.376 . S
C860 C861 1.443 . S
C860 C887 1.389 . S
C861 C860 1.443 . S
C861 C862 1.340 . S
C861 H893 0.951 . S
C862 C861 1.340 . S
C862 C863 1.439 . S
C862 H894 0.950 . S
C863 N859 1.374 . S
C863 C862 1.439 . S
C863 C888 1.395 . S
N864 Co853 1.995 . S
N864 C865 1.376 . S
N864 C868 1.383 . S
C865 N864 1.376 . S
C865 C866 1.446 . S
C865 C888 1.391 . S
C866 C865 1.446 . S
C866 C867 1.339 . S
C866 H895 0.949 . S
C867 C866 1.339 . S
C867 C868 1.439 . S
C867 H896 0.950 . S
C868 N864 1.383 . S
C868 C867 1.439 . S
C868 C886 1.392 . S
N869 Co853 2.282 . S
N869 C872 1.332 . S
N869 C874 1.332 . S
C870 C871 1.386 . S
C870 C873 1.388 . S
C871 C870 1.386 . S
C871 C872 1.382 . S
C871 H897 0.950 . S
C872 N869 1.332 . S
C872 C871 1.382 . S
C872 H883 0.952 . S
C873 C870 1.388 . S
C873 C874 1.382 . S
C873 H898 0.950 . S
C874 N869 1.332 . S
C874 C873 1.382 . S
C874 H884 0.948 . S
N875 Co853 2.282 . S
N875 C879 1.332 . S
N875 C880 1.332 . S
C876 C877 1.388 . S
C876 C880 1.382 . S
C876 H899 0.950 . S
C877 C876 1.388 . S
C877 C878 1.386 . S
C878 C877 1.386 . S
C878 C879 1.382 . S
C878 H900 0.950 . S
C879 N875 1.332 . S
C879 C878 1.382 . S
C879 H881 0.952 . S
C880 N875 1.332 . S
C880 C876 1.382 . S
C880 H882 0.948 . S
H881 C879 0.952 . S
H882 C880 0.948 . S
H883 C872 0.952 . S
H884 C874 0.948 . S
C885 C851 1.395 . S
C885 C855 1.391 . S
C886 C848 1.389 . S
C886 C868 1.392 . S
C887 C858 1.392 . S
C887 C860 1.389 . S
C888 C863 1.395 . S
C888 C865 1.391 . S
H889 C849 0.951 . S
H890 C850 0.950 . S
H891 C856 0.949 . S
H892 C857 0.950 . S
H893 C861 0.951 . S
H894 C862 0.950 . S
H895 C866 0.949 . S
H896 C867 0.950 . S
H897 C871 0.950 . S
H898 C873 0.950 . S
H899 C876 0.950 . S
H900 C878 0.950 . S
C901 C902 1.443 . S
C901 N905 1.376 . S
C901 C939 1.389 . S
C902 C901 1.443 . S
C902 C903 1.340 . S
C902 H942 0.951 . S
C903 C902 1.340 . S
C903 C904 1.439 . S
C903 H943 0.950 . S
C904 C903 1.439 . S
C904 N905 1.374 . S
C904 C938 1.395 . S
N905 C901 1.376 . S
N905 C904 1.374 . S
N905 Co906 2.008 . S
Co906 N905 2.008 . S
Co906 N907 1.995 . S
Co906 N912 2.008 . S
Co906 N917 1.995 . S
Co906 N922 2.282 . S
Co906 N928 2.282 . S
N907 Co906 1.995 . S
N907 C908 1.376 . S
N907 C911 1.383 . S
C908 N907 1.376 . S
C908 C909 1.446 . S
C908 C938 1.391 . S
C909 C908 1.446 . S
C909 C910 1.339 . S
C909 H944 0.949 . S
C910 C909 1.339 . S
C910 C911 1.439 . S
C910 H945 0.950 . S
C911 N907 1.383 . S
C911 C910 1.439 . S
C911 C940 1.392 . S
N912 Co906 2.008 . S
N912 C913 1.376 . S
N912 C916 1.374 . S
C913 N912 1.376 . S
C913 C914 1.443 . S
C913 C940 1.389 . S
C914 C913 1.443 . S
C914 C915 1.340 . S
C914 H946 0.951 . S
C915 C914 1.340 . S
C915 C916 1.439 . S
C915 H947 0.950 . S
C916 N912 1.374 . S
C916 C915 1.439 . S
C916 C941 1.395 . S
N917 Co906 1.995 . S
N917 C918 1.376 . S
N917 C921 1.383 . S
C918 N917 1.376 . S
C918 C919 1.446 . S
C918 C941 1.391 . S
C919 C918 1.446 . S
C919 C920 1.339 . S
C919 H948 0.949 . S
C920 C919 1.339 . S
C920 C921 1.439 . S
C920 H949 0.950 . S
C921 N917 1.383 . S
C921 C920 1.439 . S
C921 C939 1.392 . S
N922 Co906 2.282 . S
N922 C925 1.332 . S
N922 C927 1.332 . S
C923 C924 1.386 . S
C923 C926 1.388 . S
C924 C923 1.386 . S
C924 C925 1.382 . S
C924 H950 0.950 . S
C925 N922 1.332 . S
C925 C924 1.382 . S
C925 H936 0.952 . S
C926 C923 1.388 . S
C926 C927 1.382 . S
C926 H951 0.950 . S
C927 N922 1.332 . S
C927 C926 1.382 . S
C927 H937 0.948 . S
N928 Co906 2.282 . S
N928 C932 1.332 . S
N928 C933 1.332 . S
C929 C930 1.388 . S
C929 C933 1.382 . S
C929 H952 0.950 . S
C930 C929 1.388 . S
C930 C931 1.386 . S
C931 C930 1.386 . S
C931 C932 1.382 . S
C931 H953 0.950 . S
C932 N928 1.332 . S
C932 C931 1.382 . S
C932 H934 0.952 . S
C933 N928 1.332 . S
C933 C929 1.382 . S
C933 H935 0.948 . S
H934 C932 0.952 . S
H935 C933 0.948 . S
H936 C925 0.952 . S
H937 C927 0.948 . S
C938 C904 1.395 . S
C938 C908 1.391 . S
C939 C901 1.389 . S
C939 C921 1.392 . S
C940 C911 1.392 . S
C940 C913 1.389 . S
C941 C916 1.395 . S
C941 C918 1.391 . S
H942 C902 0.951 . S
H943 C903 0.950 . S
H944 C909 0.949 . S
H945 C910 0.950 . S
H946 C914 0.951 . S
H947 C915 0.950 . S
H948 C919 0.949 . S
H949 C920 0.950 . S
H950 C924 0.950 . S
H951 C926 0.950 . S
H952 C929 0.950 . S
H953 C931 0.950 . S
C954 C955 1.443 . S
C954 N958 1.376 . S
C954 C992 1.389 . S
C955 C954 1.443 . S
C955 C956 1.340 . S
C955 H995 0.951 . S
C956 C955 1.340 . S
C956 C957 1.439 . S
C956 H996 0.950 . S
C957 C956 1.439 . S
C957 N958 1.374 . S
C957 C991 1.395 . S
N958 C954 1.376 . S
N958 C957 1.374 . S
N958 Co959 2.008 . S
Co959 N958 2.008 . S
Co959 N960 1.995 . S
Co959 N965 2.008 . S
Co959 N970 1.995 . S
Co959 N975 2.282 . S
Co959 N981 2.282 . S
N960 Co959 1.995 . S
N960 C961 1.376 . S
N960 C964 1.383 . S
C961 N960 1.376 . S
C961 C962 1.446 . S
C961 C991 1.391 . S
C962 C961 1.446 . S
C962 C963 1.339 . S
C962 H997 0.949 . S
C963 C962 1.339 . S
C963 C964 1.439 . S
C963 H998 0.950 . S
C964 N960 1.383 . S
C964 C963 1.439 . S
C964 C993 1.392 . S
N965 Co959 2.008 . S
N965 C966 1.376 . S
N965 C969 1.374 . S
C966 N965 1.376 . S
C966 C967 1.443 . S
C966 C993 1.389 . S
C967 C966 1.443 . S
C967 C968 1.340 . S
C967 H999 0.951 . S
C968 C967 1.340 . S
C968 C969 1.439 . S
C968 H1000 0.950 . S
C969 N965 1.374 . S
C969 C968 1.439 . S
C969 C994 1.395 . S
N970 Co959 1.995 . S
N970 C971 1.376 . S
N970 C974 1.383 . S
C971 N970 1.376 . S
C971 C972 1.446 . S
C971 C994 1.391 . S
C972 C971 1.446 . S
C972 C973 1.339 . S
C972 H1001 0.949 . S
C973 C972 1.339 . S
C973 C974 1.439 . S
C973 H1002 0.950 . S
C974 N970 1.383 . S
C974 C973 1.439 . S
C974 C992 1.392 . S
N975 Co959 2.282 . S
N975 C978 1.332 . S
N975 C980 1.332 . S
C976 C977 1.386 . S
C976 C979 1.388 . S
C977 C976 1.386 . S
C977 C978 1.382 . S
C977 H1003 0.950 . S
C978 N975 1.332 . S
C978 C977 1.382 . S
C978 H989 0.952 . S
C979 C976 1.388 . S
C979 C980 1.382 . S
C979 H1004 0.950 . S
C980 N975 1.332 . S
C980 C979 1.382 . S
C980 H990 0.948 . S
N981 Co959 2.282 . S
N981 C985 1.332 . S
N981 C986 1.332 . S
C982 C983 1.388 . S
C982 C986 1.382 . S
C982 H1005 0.950 . S
C983 C982 1.388 . S
C983 C984 1.386 . S
C984 C983 1.386 . S
C984 C985 1.382 . S
C984 H1006 0.950 . S
C985 N981 1.332 . S
C985 C984 1.382 . S
C985 H987 0.952 . S
C986 N981 1.332 . S
C986 C982 1.382 . S
C986 H988 0.948 . S
H987 C985 0.952 . S
H988 C986 0.948 . S
H989 C978 0.952 . S
H990 C980 0.948 . S
C991 C957 1.395 . S
C991 C961 1.391 . S
C992 C954 1.389 . S
C992 C974 1.392 . S
C993 C964 1.392 . S
C993 C966 1.389 . S
C994 C969 1.395 . S
C994 C971 1.391 . S
H995 C955 0.951 . S
H996 C956 0.950 . S
H997 C962 0.949 . S
H998 C963 0.950 . S
H999 C967 0.951 . S
H1000 C968 0.950 . S
H1001 C972 0.949 . S
H1002 C973 0.950 . S
H1003 C977 0.950 . S
H1004 C979 0.950 . S
H1005 C982 0.950 . S
H1006 C984 0.950 . S
C1007 C1008 1.443 . S
C1007 N1011 1.376 . S
C1007 C1045 1.389 . S
C1008 C1007 1.443 . S
C1008 C1009 1.340 . S
C1008 H1048 0.951 . S
C1009 C1008 1.340 . S
C1009 C1010 1.439 . S
C1009 H1049 0.950 . S
C1010 C1009 1.439 . S
C1010 N1011 1.374 . S
C1010 C1044 1.395 . S
N1011 C1007 1.376 . S
N1011 C1010 1.374 . S
N1011 Co1012 2.008 . S
Co1012 N1011 2.008 . S
Co1012 N1013 1.995 . S
Co1012 N1018 2.008 . S
Co1012 N1023 1.995 . S
Co1012 N1028 2.282 . S
Co1012 N1034 2.282 . S
N1013 Co1012 1.995 . S
N1013 C1014 1.376 . S
N1013 C1017 1.383 . S
C1014 N1013 1.376 . S
C1014 C1015 1.446 . S
C1014 C1044 1.391 . S
C1015 C1014 1.446 . S
C1015 C1016 1.339 . S
C1015 H1050 0.949 . S
C1016 C1015 1.339 . S
C1016 C1017 1.439 . S
C1016 H1051 0.950 . S
C1017 N1013 1.383 . S
C1017 C1016 1.439 . S
C1017 C1046 1.392 . S
N1018 Co1012 2.008 . S
N1018 C1019 1.376 . S
N1018 C1022 1.374 . S
C1019 N1018 1.376 . S
C1019 C1020 1.443 . S
C1019 C1046 1.389 . S
C1020 C1019 1.443 . S
C1020 C1021 1.340 . S
C1020 H1052 0.951 . S
C1021 C1020 1.340 . S
C1021 C1022 1.439 . S
C1021 H1053 0.950 . S
C1022 N1018 1.374 . S
C1022 C1021 1.439 . S
C1022 C1047 1.395 . S
N1023 Co1012 1.995 . S
N1023 C1024 1.376 . S
N1023 C1027 1.383 . S
C1024 N1023 1.376 . S
C1024 C1025 1.446 . S
C1024 C1047 1.391 . S
C1025 C1024 1.446 . S
C1025 C1026 1.339 . S
C1025 H1054 0.949 . S
C1026 C1025 1.339 . S
C1026 C1027 1.439 . S
C1026 H1055 0.950 . S
C1027 N1023 1.383 . S
C1027 C1026 1.439 . S
C1027 C1045 1.392 . S
N1028 Co1012 2.282 . S
N1028 C1031 1.332 . S
N1028 C1033 1.332 . S
C1029 C1030 1.386 . S
C1029 C1032 1.388 . S
C1030 C1029 1.386 . S
C1030 C1031 1.382 . S
C1030 H1056 0.950 . S
C1031 N1028 1.332 . S
C1031 C1030 1.382 . S
C1031 H1042 0.952 . S
C1032 C1029 1.388 . S
C1032 C1033 1.382 . S
C1032 H1057 0.950 . S
C1033 N1028 1.332 . S
C1033 C1032 1.382 . S
C1033 H1043 0.948 . S
N1034 Co1012 2.282 . S
N1034 C1038 1.332 . S
N1034 C1039 1.332 . S
C1035 C1036 1.388 . S
C1035 C1039 1.382 . S
C1035 H1058 0.950 . S
C1036 C1035 1.388 . S
C1036 C1037 1.386 . S
C1037 C1036 1.386 . S
C1037 C1038 1.382 . S
C1037 H1059 0.950 . S
C1038 N1034 1.332 . S
C1038 C1037 1.382 . S
C1038 H1040 0.952 . S
C1039 N1034 1.332 . S
C1039 C1035 1.382 . S
C1039 H1041 0.948 . S
H1040 C1038 0.952 . S
H1041 C1039 0.948 . S
H1042 C1031 0.952 . S
H1043 C1033 0.948 . S
C1044 C1010 1.395 . S
C1044 C1014 1.391 . S
C1045 C1007 1.389 . S
C1045 C1027 1.392 . S
C1046 C1017 1.392 . S
C1046 C1019 1.389 . S
C1047 C1022 1.395 . S
C1047 C1024 1.391 . S
H1048 C1008 0.951 . S
H1049 C1009 0.950 . S
H1050 C1015 0.949 . S
H1051 C1016 0.950 . S
H1052 C1020 0.951 . S
H1053 C1021 0.950 . S
H1054 C1025 0.949 . S
H1055 C1026 0.950 . S
H1056 C1030 0.950 . S
H1057 C1032 0.950 . S
H1058 C1035 0.950 . S
H1059 C1037 0.950 . S
C1060 C1061 1.443 . S
C1060 N1064 1.376 . S
C1060 C1098 1.389 . S
C1061 C1060 1.443 . S
C1061 C1062 1.340 . S
C1061 H1101 0.951 . S
C1062 C1061 1.340 . S
C1062 C1063 1.439 . S
C1062 H1102 0.950 . S
C1063 C1062 1.439 . S
C1063 N1064 1.374 . S
C1063 C1097 1.395 . S
N1064 C1060 1.376 . S
N1064 C1063 1.374 . S
N1064 Co1065 2.008 . S
Co1065 N1064 2.008 . S
Co1065 N1066 1.995 . S
Co1065 N1071 2.008 . S
Co1065 N1076 1.995 . S
Co1065 N1081 2.282 . S
Co1065 N1087 2.282 . S
N1066 Co1065 1.995 . S
N1066 C1067 1.376 . S
N1066 C1070 1.383 . S
C1067 N1066 1.376 . S
C1067 C1068 1.446 . S
C1067 C1097 1.391 . S
C1068 C1067 1.446 . S
C1068 C1069 1.339 . S
C1068 H1103 0.949 . S
C1069 C1068 1.339 . S
C1069 C1070 1.439 . S
C1069 H1104 0.950 . S
C1070 N1066 1.383 . S
C1070 C1069 1.439 . S
C1070 C1099 1.392 . S
N1071 Co1065 2.008 . S
N1071 C1072 1.376 . S
N1071 C1075 1.374 . S
C1072 N1071 1.376 . S
C1072 C1073 1.443 . S
C1072 C1099 1.389 . S
C1073 C1072 1.443 . S
C1073 C1074 1.340 . S
C1073 H1105 0.951 . S
C1074 C1073 1.340 . S
C1074 C1075 1.439 . S
C1074 H1106 0.950 . S
C1075 N1071 1.374 . S
C1075 C1074 1.439 . S
C1075 C1100 1.395 . S
N1076 Co1065 1.995 . S
N1076 C1077 1.376 . S
N1076 C1080 1.383 . S
C1077 N1076 1.376 . S
C1077 C1078 1.446 . S
C1077 C1100 1.391 . S
C1078 C1077 1.446 . S
C1078 C1079 1.339 . S
C1078 H1107 0.949 . S
C1079 C1078 1.339 . S
C1079 C1080 1.439 . S
C1079 H1108 0.950 . S
C1080 N1076 1.383 . S
C1080 C1079 1.439 . S
C1080 C1098 1.392 . S
N1081 Co1065 2.282 . S
N1081 C1084 1.332 . S
N1081 C1086 1.332 . S
C1082 C1083 1.386 . S
C1082 C1085 1.388 . S
C1083 C1082 1.386 . S
C1083 C1084 1.382 . S
C1083 H1109 0.950 . S
C1084 N1081 1.332 . S
C1084 C1083 1.382 . S
C1084 H1095 0.952 . S
C1085 C1082 1.388 . S
C1085 C1086 1.382 . S
C1085 H1110 0.950 . S
C1086 N1081 1.332 . S
C1086 C1085 1.382 . S
C1086 H1096 0.948 . S
N1087 Co1065 2.282 . S
N1087 C1091 1.332 . S
N1087 C1092 1.332 . S
C1088 C1089 1.388 . S
C1088 C1092 1.382 . S
C1088 H1111 0.950 . S
C1089 C1088 1.388 . S
C1089 C1090 1.386 . S
C1090 C1089 1.386 . S
C1090 C1091 1.382 . S
C1090 H1112 0.950 . S
C1091 N1087 1.332 . S
C1091 C1090 1.382 . S
C1091 H1093 0.952 . S
C1092 N1087 1.332 . S
C1092 C1088 1.382 . S
C1092 H1094 0.948 . S
H1093 C1091 0.952 . S
H1094 C1092 0.948 . S
H1095 C1084 0.952 . S
H1096 C1086 0.948 . S
C1097 C1063 1.395 . S
C1097 C1067 1.391 . S
C1098 C1060 1.389 . S
C1098 C1080 1.392 . S
C1099 C1070 1.392 . S
C1099 C1072 1.389 . S
C1100 C1075 1.395 . S
C1100 C1077 1.391 . S
H1101 C1061 0.951 . S
H1102 C1062 0.950 . S
H1103 C1068 0.949 . S
H1104 C1069 0.950 . S
H1105 C1073 0.951 . S
H1106 C1074 0.950 . S
H1107 C1078 0.949 . S
H1108 C1079 0.950 . S
H1109 C1083 0.950 . S
H1110 C1085 0.950 . S
H1111 C1088 0.950 . S
H1112 C1090 0.950 . S
C1113 C1114 1.443 . S
C1113 N1117 1.376 . S
C1113 C1151 1.389 . S
C1114 C1113 1.443 . S
C1114 C1115 1.340 . S
C1114 H1154 0.951 . S
C1115 C1114 1.340 . S
C1115 C1116 1.439 . S
C1115 H1155 0.950 . S
C1116 C1115 1.439 . S
C1116 N1117 1.374 . S
C1116 C1150 1.395 . S
N1117 C1113 1.376 . S
N1117 C1116 1.374 . S
N1117 Co1118 2.008 . S
Co1118 N1117 2.008 . S
Co1118 N1119 1.995 . S
Co1118 N1124 2.008 . S
Co1118 N1129 1.995 . S
Co1118 N1134 2.282 . S
Co1118 N1140 2.282 . S
N1119 Co1118 1.995 . S
N1119 C1120 1.376 . S
N1119 C1123 1.383 . S
C1120 N1119 1.376 . S
C1120 C1121 1.446 . S
C1120 C1150 1.391 . S
C1121 C1120 1.446 . S
C1121 C1122 1.339 . S
C1121 H1156 0.949 . S
C1122 C1121 1.339 . S
C1122 C1123 1.439 . S
C1122 H1157 0.950 . S
C1123 N1119 1.383 . S
C1123 C1122 1.439 . S
C1123 C1152 1.392 . S
N1124 Co1118 2.008 . S
N1124 C1125 1.376 . S
N1124 C1128 1.374 . S
C1125 N1124 1.376 . S
C1125 C1126 1.443 . S
C1125 C1152 1.389 . S
C1126 C1125 1.443 . S
C1126 C1127 1.340 . S
C1126 H1158 0.951 . S
C1127 C1126 1.340 . S
C1127 C1128 1.439 . S
C1127 H1159 0.950 . S
C1128 N1124 1.374 . S
C1128 C1127 1.439 . S
C1128 C1153 1.395 . S
N1129 Co1118 1.995 . S
N1129 C1130 1.376 . S
N1129 C1133 1.383 . S
C1130 N1129 1.376 . S
C1130 C1131 1.446 . S
C1130 C1153 1.391 . S
C1131 C1130 1.446 . S
C1131 C1132 1.339 . S
C1131 H1160 0.949 . S
C1132 C1131 1.339 . S
C1132 C1133 1.439 . S
C1132 H1161 0.950 . S
C1133 N1129 1.383 . S
C1133 C1132 1.439 . S
C1133 C1151 1.392 . S
N1134 Co1118 2.282 . S
N1134 C1137 1.332 . S
N1134 C1139 1.332 . S
C1135 C1136 1.386 . S
C1135 C1138 1.388 . S
C1136 C1135 1.386 . S
C1136 C1137 1.382 . S
C1136 H1162 0.950 . S
C1137 N1134 1.332 . S
C1137 C1136 1.382 . S
C1137 H1148 0.952 . S
C1138 C1135 1.388 . S
C1138 C1139 1.382 . S
C1138 H1163 0.950 . S
C1139 N1134 1.332 . S
C1139 C1138 1.382 . S
C1139 H1149 0.948 . S
N1140 Co1118 2.282 . S
N1140 C1144 1.332 . S
N1140 C1145 1.332 . S
C1141 C1142 1.388 . S
C1141 C1145 1.382 . S
C1141 H1164 0.950 . S
C1142 C1141 1.388 . S
C1142 C1143 1.386 . S
C1143 C1142 1.386 . S
C1143 C1144 1.382 . S
C1143 H1165 0.950 . S
C1144 N1140 1.332 . S
C1144 C1143 1.382 . S
C1144 H1146 0.952 . S
C1145 N1140 1.332 . S
C1145 C1141 1.382 . S
C1145 H1147 0.948 . S
H1146 C1144 0.952 . S
H1147 C1145 0.948 . S
H1148 C1137 0.952 . S
H1149 C1139 0.948 . S
C1150 C1116 1.395 . S
C1150 C1120 1.391 . S
C1151 C1113 1.389 . S
C1151 C1133 1.392 . S
C1152 C1123 1.392 . S
C1152 C1125 1.389 . S
C1153 C1128 1.395 . S
C1153 C1130 1.391 . S
H1154 C1114 0.951 . S
H1155 C1115 0.950 . S
H1156 C1121 0.949 . S
H1157 C1122 0.950 . S
H1158 C1126 0.951 . S
H1159 C1127 0.950 . S
H1160 C1131 0.949 . S
H1161 C1132 0.950 . S
H1162 C1136 0.950 . S
H1163 C1138 0.950 . S
H1164 C1141 0.950 . S
H1165 C1143 0.950 . S
C1166 C1167 1.443 . S
C1166 N1170 1.376 . S
C1166 C1204 1.389 . S
C1167 C1166 1.443 . S
C1167 C1168 1.340 . S
C1167 H1207 0.951 . S
C1168 C1167 1.340 . S
C1168 C1169 1.439 . S
C1168 H1208 0.950 . S
C1169 C1168 1.439 . S
C1169 N1170 1.374 . S
C1169 C1203 1.395 . S
N1170 C1166 1.376 . S
N1170 C1169 1.374 . S
N1170 Co1171 2.008 . S
Co1171 N1170 2.008 . S
Co1171 N1172 1.995 . S
Co1171 N1177 2.008 . S
Co1171 N1182 1.995 . S
Co1171 N1187 2.282 . S
Co1171 N1193 2.282 . S
N1172 Co1171 1.995 . S
N1172 C1173 1.376 . S
N1172 C1176 1.383 . S
C1173 N1172 1.376 . S
C1173 C1174 1.446 . S
C1173 C1203 1.391 . S
C1174 C1173 1.446 . S
C1174 C1175 1.339 . S
C1174 H1209 0.949 . S
C1175 C1174 1.339 . S
C1175 C1176 1.439 . S
C1175 H1210 0.950 . S
C1176 N1172 1.383 . S
C1176 C1175 1.439 . S
C1176 C1205 1.392 . S
N1177 Co1171 2.008 . S
N1177 C1178 1.376 . S
N1177 C1181 1.374 . S
C1178 N1177 1.376 . S
C1178 C1179 1.443 . S
C1178 C1205 1.389 . S
C1179 C1178 1.443 . S
C1179 C1180 1.340 . S
C1179 H1211 0.951 . S
C1180 C1179 1.340 . S
C1180 C1181 1.439 . S
C1180 H1212 0.950 . S
C1181 N1177 1.374 . S
C1181 C1180 1.439 . S
C1181 C1206 1.395 . S
N1182 Co1171 1.995 . S
N1182 C1183 1.376 . S
N1182 C1186 1.383 . S
C1183 N1182 1.376 . S
C1183 C1184 1.446 . S
C1183 C1206 1.391 . S
C1184 C1183 1.446 . S
C1184 C1185 1.339 . S
C1184 H1213 0.949 . S
C1185 C1184 1.339 . S
C1185 C1186 1.439 . S
C1185 H1214 0.950 . S
C1186 N1182 1.383 . S
C1186 C1185 1.439 . S
C1186 C1204 1.392 . S
N1187 Co1171 2.282 . S
N1187 C1190 1.332 . S
N1187 C1192 1.332 . S
C1188 C1189 1.386 . S
C1188 C1191 1.388 . S
C1189 C1188 1.386 . S
C1189 C1190 1.382 . S
C1189 H1215 0.950 . S
C1190 N1187 1.332 . S
C1190 C1189 1.382 . S
C1190 H1201 0.952 . S
C1191 C1188 1.388 . S
C1191 C1192 1.382 . S
C1191 H1216 0.950 . S
C1192 N1187 1.332 . S
C1192 C1191 1.382 . S
C1192 H1202 0.948 . S
N1193 Co1171 2.282 . S
N1193 C1197 1.332 . S
N1193 C1198 1.332 . S
C1194 C1195 1.388 . S
C1194 C1198 1.382 . S
C1194 H1217 0.950 . S
C1195 C1194 1.388 . S
C1195 C1196 1.386 . S
C1196 C1195 1.386 . S
C1196 C1197 1.382 . S
C1196 H1218 0.950 . S
C1197 N1193 1.332 . S
C1197 C1196 1.382 . S
C1197 H1199 0.952 . S
C1198 N1193 1.332 . S
C1198 C1194 1.382 . S
C1198 H1200 0.948 . S
H1199 C1197 0.952 . S
H1200 C1198 0.948 . S
H1201 C1190 0.952 . S
H1202 C1192 0.948 . S
C1203 C1169 1.395 . S
C1203 C1173 1.391 . S
C1204 C1166 1.389 . S
C1204 C1186 1.392 . S
C1205 C1176 1.392 . S
C1205 C1178 1.389 . S
C1206 C1181 1.395 . S
C1206 C1183 1.391 . S
H1207 C1167 0.951 . S
H1208 C1168 0.950 . S
H1209 C1174 0.949 . S
H1210 C1175 0.950 . S
H1211 C1179 0.951 . S
H1212 C1180 0.950 . S
H1213 C1184 0.949 . S
H1214 C1185 0.950 . S
H1215 C1189 0.950 . S
H1216 C1191 0.950 . S
H1217 C1194 0.950 . S
H1218 C1196 0.950 . S
C1219 C1220 1.443 . S
C1219 N1223 1.376 . S
C1219 C1257 1.389 . S
C1220 C1219 1.443 . S
C1220 C1221 1.340 . S
C1220 H1260 0.951 . S
C1221 C1220 1.340 . S
C1221 C1222 1.439 . S
C1221 H1261 0.950 . S
C1222 C1221 1.439 . S
C1222 N1223 1.374 . S
C1222 C1256 1.395 . S
N1223 C1219 1.376 . S
N1223 C1222 1.374 . S
N1223 Co1224 2.008 1_565 S
Co1224 N1223 2.008 1_545 S
Co1224 N1225 1.995 . S
Co1224 N1230 2.008 . S
Co1224 N1235 1.995 1_545 S
Co1224 N1240 2.282 1_545 S
Co1224 N1246 2.282 . S
N1225 Co1224 1.995 . S
N1225 C1226 1.376 . S
N1225 C1229 1.383 . S
C1226 N1225 1.376 . S
C1226 C1227 1.446 . S
C1226 C1256 1.391 1_545 S
C1227 C1226 1.446 . S
C1227 C1228 1.339 . S
C1227 H1262 0.949 . S
C1228 C1227 1.339 . S
C1228 C1229 1.439 . S
C1228 H1263 0.950 . S
C1229 N1225 1.383 . S
C1229 C1228 1.439 . S
C1229 C1258 1.392 . S
N1230 Co1224 2.008 . S
N1230 C1231 1.376 . S
N1230 C1234 1.374 . S
C1231 N1230 1.376 . S
C1231 C1232 1.443 . S
C1231 C1258 1.389 . S
C1232 C1231 1.443 . S
C1232 C1233 1.340 . S
C1232 H1264 0.951 . S
C1233 C1232 1.340 . S
C1233 C1234 1.439 . S
C1233 H1265 0.950 . S
C1234 N1230 1.374 . S
C1234 C1233 1.439 . S
C1234 C1259 1.395 . S
N1235 Co1224 1.995 1_565 S
N1235 C1236 1.376 1_565 S
N1235 C1239 1.383 . S
C1236 N1235 1.376 1_545 S
C1236 C1237 1.446 1_545 S
C1236 C1259 1.391 . S
C1237 C1236 1.446 1_565 S
C1237 C1238 1.339 . S
C1237 H1266 0.949 . S
C1238 C1237 1.339 . S
C1238 C1239 1.439 . S
C1238 H1267 0.950 . S
C1239 N1235 1.383 . S
C1239 C1238 1.439 . S
C1239 C1257 1.392 . S
N1240 Co1224 2.282 1_565 S
N1240 C1243 1.332 . S
N1240 C1245 1.332 . S
C1241 C1242 1.386 . S
C1241 C1244 1.388 . S
C1242 C1241 1.386 . S
C1242 C1243 1.382 . S
C1242 H1268 0.950 . S
C1243 N1240 1.332 . S
C1243 C1242 1.382 . S
C1243 H1254 0.952 . S
C1244 C1241 1.388 . S
C1244 C1245 1.382 . S
C1244 H1269 0.950 . S
C1245 N1240 1.332 . S
C1245 C1244 1.382 . S
C1245 H1255 0.948 . S
N1246 Co1224 2.282 . S
N1246 C1250 1.332 . S
N1246 C1251 1.332 . S
C1247 C1248 1.388 . S
C1247 C1251 1.382 . S
C1247 H1270 0.950 . S
C1248 C1247 1.388 . S
C1248 C1249 1.386 . S
C1249 C1248 1.386 . S
C1249 C1250 1.382 . S
C1249 H1271 0.950 . S
C1250 N1246 1.332 . S
C1250 C1249 1.382 . S
C1250 H1252 0.952 . S
C1251 N1246 1.332 . S
C1251 C1247 1.382 . S
C1251 H1253 0.948 . S
H1252 C1250 0.952 . S
H1253 C1251 0.948 . S
H1254 C1243 0.952 . S
H1255 C1245 0.948 . S
C1256 C1222 1.395 . S
C1256 C1226 1.391 1_565 S
C1257 C1219 1.389 . S
C1257 C1239 1.392 . S
C1258 C1229 1.392 . S
C1258 C1231 1.389 . S
C1259 C1234 1.395 . S
C1259 C1236 1.391 . S
H1260 C1220 0.951 . S
H1261 C1221 0.950 . S
H1262 C1227 0.949 . S
H1263 C1228 0.950 . S
H1264 C1232 0.951 . S
H1265 C1233 0.950 . S
H1266 C1237 0.949 . S
H1267 C1238 0.950 . S
H1268 C1242 0.950 . S
H1269 C1244 0.950 . S
H1270 C1247 0.950 . S
H1271 C1249 0.950 . S
C1272 C1273 1.443 . S
C1272 N1276 1.376 . S
C1272 C1310 1.389 . S
C1273 C1272 1.443 . S
C1273 C1274 1.340 . S
C1273 H1313 0.951 . S
C1274 C1273 1.340 . S
C1274 C1275 1.439 . S
C1274 H1314 0.950 . S
C1275 C1274 1.439 . S
C1275 N1276 1.374 . S
C1275 C1309 1.395 . S
N1276 C1272 1.376 . S
N1276 C1275 1.374 . S
N1276 Co1277 2.008 . S
Co1277 N1276 2.008 . S
Co1277 N1278 1.995 . S
Co1277 N1283 2.008 . S
Co1277 N1288 1.995 . S
Co1277 N1293 2.282 . S
Co1277 N1299 2.282 . S
N1278 Co1277 1.995 . S
N1278 C1279 1.376 . S
N1278 C1282 1.383 . S
C1279 N1278 1.376 . S
C1279 C1280 1.446 . S
C1279 C1309 1.391 . S
C1280 C1279 1.446 . S
C1280 C1281 1.339 . S
C1280 H1315 0.949 . S
C1281 C1280 1.339 . S
C1281 C1282 1.439 . S
C1281 H1316 0.950 . S
C1282 N1278 1.383 . S
C1282 C1281 1.439 . S
C1282 C1311 1.392 . S
N1283 Co1277 2.008 . S
N1283 C1284 1.376 . S
N1283 C1287 1.374 . S
C1284 N1283 1.376 . S
C1284 C1285 1.443 . S
C1284 C1311 1.389 . S
C1285 C1284 1.443 . S
C1285 C1286 1.340 . S
C1285 H1317 0.951 . S
C1286 C1285 1.340 . S
C1286 C1287 1.439 . S
C1286 H1318 0.950 . S
C1287 N1283 1.374 . S
C1287 C1286 1.439 . S
C1287 C1312 1.395 . S
N1288 Co1277 1.995 . S
N1288 C1289 1.376 . S
N1288 C1292 1.383 . S
C1289 N1288 1.376 . S
C1289 C1290 1.446 . S
C1289 C1312 1.391 . S
C1290 C1289 1.446 . S
C1290 C1291 1.339 . S
C1290 H1319 0.949 . S
C1291 C1290 1.339 . S
C1291 C1292 1.439 . S
C1291 H1320 0.950 . S
C1292 N1288 1.383 . S
C1292 C1291 1.439 . S
C1292 C1310 1.392 . S
N1293 Co1277 2.282 . S
N1293 C1296 1.332 . S
N1293 C1298 1.332 . S
C1294 C1295 1.386 . S
C1294 C1297 1.388 . S
C1295 C1294 1.386 . S
C1295 C1296 1.382 . S
C1295 H1321 0.950 . S
C1296 N1293 1.332 . S
C1296 C1295 1.382 . S
C1296 H1307 0.952 . S
C1297 C1294 1.388 . S
C1297 C1298 1.382 . S
C1297 H1322 0.950 . S
C1298 N1293 1.332 . S
C1298 C1297 1.382 . S
C1298 H1308 0.948 . S
N1299 Co1277 2.282 . S
N1299 C1303 1.332 . S
N1299 C1304 1.332 . S
C1300 C1301 1.388 . S
C1300 C1304 1.382 . S
C1300 H1323 0.950 . S
C1301 C1300 1.388 . S
C1301 C1302 1.386 . S
C1302 C1301 1.386 . S
C1302 C1303 1.382 . S
C1302 H1324 0.950 . S
C1303 N1299 1.332 . S
C1303 C1302 1.382 . S
C1303 H1305 0.952 . S
C1304 N1299 1.332 . S
C1304 C1300 1.382 . S
C1304 H1306 0.948 . S
H1305 C1303 0.952 . S
H1306 C1304 0.948 . S
H1307 C1296 0.952 . S
H1308 C1298 0.948 . S
C1309 C1275 1.395 . S
C1309 C1279 1.391 . S
C1310 C1272 1.389 . S
C1310 C1292 1.392 . S
C1311 C1282 1.392 . S
C1311 C1284 1.389 . S
C1312 C1287 1.395 . S
C1312 C1289 1.391 . S
H1313 C1273 0.951 . S
H1314 C1274 0.950 . S
H1315 C1280 0.949 . S
H1316 C1281 0.950 . S
H1317 C1285 0.951 . S
H1318 C1286 0.950 . S
H1319 C1290 0.949 . S
H1320 C1291 0.950 . S
H1321 C1295 0.950 . S
H1322 C1297 0.950 . S
H1323 C1300 0.950 . S
H1324 C1302 0.950 . S
C1325 C1326 1.443 . S
C1325 N1329 1.376 . S
C1325 C1363 1.389 . S
C1326 C1325 1.443 . S
C1326 C1327 1.340 . S
C1326 H1366 0.951 . S
C1327 C1326 1.340 . S
C1327 C1328 1.439 . S
C1327 H1367 0.950 . S
C1328 C1327 1.439 . S
C1328 N1329 1.374 . S
C1328 C1362 1.395 . S
N1329 C1325 1.376 . S
N1329 C1328 1.374 . S
N1329 Co1330 2.008 1_455 S
Co1330 N1329 2.008 1_655 S
Co1330 N1331 1.995 . S
Co1330 N1336 2.008 . S
Co1330 N1341 1.995 1_655 S
Co1330 N1346 2.282 1_655 S
Co1330 N1352 2.282 . S
N1331 Co1330 1.995 . S
N1331 C1332 1.376 . S
N1331 C1335 1.383 . S
C1332 N1331 1.376 . S
C1332 C1333 1.446 . S
C1332 C1362 1.391 1_655 S
C1333 C1332 1.446 . S
C1333 C1334 1.339 . S
C1333 H1368 0.949 . S
C1334 C1333 1.339 . S
C1334 C1335 1.439 . S
C1334 H1369 0.950 . S
C1335 N1331 1.383 . S
C1335 C1334 1.439 . S
C1335 C1364 1.392 . S
N1336 Co1330 2.008 . S
N1336 C1337 1.376 . S
N1336 C1340 1.374 . S
C1337 N1336 1.376 . S
C1337 C1338 1.443 . S
C1337 C1364 1.389 . S
C1338 C1337 1.443 . S
C1338 C1339 1.340 . S
C1338 H1370 0.951 . S
C1339 C1338 1.340 . S
C1339 C1340 1.439 . S
C1339 H1371 0.950 . S
C1340 N1336 1.374 . S
C1340 C1339 1.439 . S
C1340 C1365 1.395 . S
N1341 Co1330 1.995 1_455 S
N1341 C1342 1.376 1_455 S
N1341 C1345 1.383 . S
C1342 N1341 1.376 1_655 S
C1342 C1343 1.446 1_655 S
C1342 C1365 1.391 . S
C1343 C1342 1.446 1_455 S
C1343 C1344 1.339 . S
C1343 H1372 0.949 . S
C1344 C1343 1.339 . S
C1344 C1345 1.439 . S
C1344 H1373 0.950 . S
C1345 N1341 1.383 . S
C1345 C1344 1.439 . S
C1345 C1363 1.392 . S
N1346 Co1330 2.282 1_455 S
N1346 C1349 1.332 . S
N1346 C1351 1.332 . S
C1347 C1348 1.386 . S
C1347 C1350 1.388 . S
C1348 C1347 1.386 . S
C1348 C1349 1.382 . S
C1348 H1374 0.950 . S
C1349 N1346 1.332 . S
C1349 C1348 1.382 . S
C1349 H1360 0.952 . S
C1350 C1347 1.388 . S
C1350 C1351 1.382 . S
C1350 H1375 0.950 . S
C1351 N1346 1.332 . S
C1351 C1350 1.382 . S
C1351 H1361 0.948 . S
N1352 Co1330 2.282 . S
N1352 C1356 1.332 . S
N1352 C1357 1.332 . S
C1353 C1354 1.388 . S
C1353 C1357 1.382 . S
C1353 H1376 0.950 . S
C1354 C1353 1.388 . S
C1354 C1355 1.386 . S
C1355 C1354 1.386 . S
C1355 C1356 1.382 . S
C1355 H1377 0.950 . S
C1356 N1352 1.332 . S
C1356 C1355 1.382 . S
C1356 H1358 0.952 . S
C1357 N1352 1.332 . S
C1357 C1353 1.382 . S
C1357 H1359 0.948 . S
H1358 C1356 0.952 . S
H1359 C1357 0.948 . S
H1360 C1349 0.952 . S
H1361 C1351 0.948 . S
C1362 C1328 1.395 . S
C1362 C1332 1.391 1_455 S
C1363 C1325 1.389 . S
C1363 C1345 1.392 . S
C1364 C1335 1.392 . S
C1364 C1337 1.389 . S
C1365 C1340 1.395 . S
C1365 C1342 1.391 . S
H1366 C1326 0.951 . S
H1367 C1327 0.950 . S
H1368 C1333 0.949 . S
H1369 C1334 0.950 . S
H1370 C1338 0.951 . S
H1371 C1339 0.950 . S
H1372 C1343 0.949 . S
H1373 C1344 0.950 . S
H1374 C1348 0.950 . S
H1375 C1350 0.950 . S
H1376 C1353 0.950 . S
H1377 C1355 0.950 . S
C1378 C1379 1.443 . S
C1378 N1382 1.376 . S
C1378 C1416 1.389 . S
C1379 C1378 1.443 . S
C1379 C1380 1.340 . S
C1379 H1419 0.951 . S
C1380 C1379 1.340 . S
C1380 C1381 1.439 . S
C1380 H1420 0.950 . S
C1381 C1380 1.439 . S
C1381 N1382 1.374 . S
C1381 C1415 1.395 . S
N1382 C1378 1.376 . S
N1382 C1381 1.374 . S
N1382 Co1383 2.008 . S
Co1383 N1382 2.008 . S
Co1383 N1384 1.995 . S
Co1383 N1389 2.008 . S
Co1383 N1394 1.995 . S
Co1383 N1399 2.282 . S
Co1383 N1405 2.282 . S
N1384 Co1383 1.995 . S
N1384 C1385 1.376 . S
N1384 C1388 1.383 . S
C1385 N1384 1.376 . S
C1385 C1386 1.446 . S
C1385 C1415 1.391 . S
C1386 C1385 1.446 . S
C1386 C1387 1.339 . S
C1386 H1421 0.949 . S
C1387 C1386 1.339 . S
C1387 C1388 1.439 . S
C1387 H1422 0.950 . S
C1388 N1384 1.383 . S
C1388 C1387 1.439 . S
C1388 C1417 1.392 . S
N1389 Co1383 2.008 . S
N1389 C1390 1.376 . S
N1389 C1393 1.374 . S
C1390 N1389 1.376 . S
C1390 C1391 1.443 . S
C1390 C1417 1.389 . S
C1391 C1390 1.443 . S
C1391 C1392 1.340 . S
C1391 H1423 0.951 . S
C1392 C1391 1.340 . S
C1392 C1393 1.439 . S
C1392 H1424 0.950 . S
C1393 N1389 1.374 . S
C1393 C1392 1.439 . S
C1393 C1418 1.395 . S
N1394 Co1383 1.995 . S
N1394 C1395 1.376 . S
N1394 C1398 1.383 . S
C1395 N1394 1.376 . S
C1395 C1396 1.446 . S
C1395 C1418 1.391 . S
C1396 C1395 1.446 . S
C1396 C1397 1.339 . S
C1396 H1425 0.949 . S
C1397 C1396 1.339 . S
C1397 C1398 1.439 . S
C1397 H1426 0.950 . S
C1398 N1394 1.383 . S
C1398 C1397 1.439 . S
C1398 C1416 1.392 . S
N1399 Co1383 2.282 . S
N1399 C1402 1.332 . S
N1399 C1404 1.332 . S
C1400 C1401 1.386 . S
C1400 C1403 1.388 . S
C1401 C1400 1.386 . S
C1401 C1402 1.382 . S
C1401 H1427 0.950 . S
C1402 N1399 1.332 . S
C1402 C1401 1.382 . S
C1402 H1413 0.952 . S
C1403 C1400 1.388 . S
C1403 C1404 1.382 . S
C1403 H1428 0.950 . S
C1404 N1399 1.332 . S
C1404 C1403 1.382 . S
C1404 H1414 0.948 . S
N1405 Co1383 2.282 . S
N1405 C1409 1.332 . S
N1405 C1410 1.332 . S
C1406 C1407 1.388 . S
C1406 C1410 1.382 . S
C1406 H1429 0.950 . S
C1407 C1406 1.388 . S
C1407 C1408 1.386 . S
C1408 C1407 1.386 . S
C1408 C1409 1.382 . S
C1408 H1430 0.950 . S
C1409 N1405 1.332 . S
C1409 C1408 1.382 . S
C1409 H1411 0.952 . S
C1410 N1405 1.332 . S
C1410 C1406 1.382 . S
C1410 H1412 0.948 . S
H1411 C1409 0.952 . S
H1412 C1410 0.948 . S
H1413 C1402 0.952 . S
H1414 C1404 0.948 . S
C1415 C1381 1.395 . S
C1415 C1385 1.391 . S
C1416 C1378 1.389 . S
C1416 C1398 1.392 . S
C1417 C1388 1.392 . S
C1417 C1390 1.389 . S
C1418 C1393 1.395 . S
C1418 C1395 1.391 . S
H1419 C1379 0.951 . S
H1420 C1380 0.950 . S
H1421 C1386 0.949 . S
H1422 C1387 0.950 . S
H1423 C1391 0.951 . S
H1424 C1392 0.950 . S
H1425 C1396 0.949 . S
H1426 C1397 0.950 . S
H1427 C1401 0.950 . S
H1428 C1403 0.950 . S
H1429 C1406 0.950 . S
H1430 C1408 0.950 . S
C1431 C1432 1.443 . S
C1431 N1435 1.376 . S
C1431 C1469 1.389 . S
C1432 C1431 1.443 . S
C1432 C1433 1.340 . S
C1432 H1472 0.951 . S
C1433 C1432 1.340 . S
C1433 C1434 1.439 . S
C1433 H1473 0.950 . S
C1434 C1433 1.439 . S
C1434 N1435 1.374 . S
C1434 C1468 1.395 . S
N1435 C1431 1.376 . S
N1435 C1434 1.374 . S
N1435 Co1436 2.008 1_655 S
Co1436 N1435 2.008 1_455 S
Co1436 N1437 1.995 . S
Co1436 N1442 2.008 . S
Co1436 N1447 1.995 1_455 S
Co1436 N1452 2.282 1_455 S
Co1436 N1458 2.282 . S
N1437 Co1436 1.995 . S
N1437 C1438 1.376 . S
N1437 C1441 1.383 . S
C1438 N1437 1.376 . S
C1438 C1439 1.446 . S
C1438 C1468 1.391 1_455 S
C1439 C1438 1.446 . S
C1439 C1440 1.339 . S
C1439 H1474 0.949 . S
C1440 C1439 1.339 . S
C1440 C1441 1.439 . S
C1440 H1475 0.950 . S
C1441 N1437 1.383 . S
C1441 C1440 1.439 . S
C1441 C1470 1.392 . S
N1442 Co1436 2.008 . S
N1442 C1443 1.376 . S
N1442 C1446 1.374 . S
C1443 N1442 1.376 . S
C1443 C1444 1.443 . S
C1443 C1470 1.389 . S
C1444 C1443 1.443 . S
C1444 C1445 1.340 . S
C1444 H1476 0.951 . S
C1445 C1444 1.340 . S
C1445 C1446 1.439 . S
C1445 H1477 0.950 . S
C1446 N1442 1.374 . S
C1446 C1445 1.439 . S
C1446 C1471 1.395 . S
N1447 Co1436 1.995 1_655 S
N1447 C1448 1.376 1_655 S
N1447 C1451 1.383 . S
C1448 N1447 1.376 1_455 S
C1448 C1449 1.446 1_455 S
C1448 C1471 1.391 . S
C1449 C1448 1.446 1_655 S
C1449 C1450 1.339 . S
C1449 H1478 0.949 . S
C1450 C1449 1.339 . S
C1450 C1451 1.439 . S
C1450 H1479 0.950 . S
C1451 N1447 1.383 . S
C1451 C1450 1.439 . S
C1451 C1469 1.392 . S
N1452 Co1436 2.282 1_655 S
N1452 C1455 1.332 . S
N1452 C1457 1.332 . S
C1453 C1454 1.386 . S
C1453 C1456 1.388 . S
C1454 C1453 1.386 . S
C1454 C1455 1.382 . S
C1454 H1480 0.950 . S
C1455 N1452 1.332 . S
C1455 C1454 1.382 . S
C1455 H1466 0.952 . S
C1456 C1453 1.388 . S
C1456 C1457 1.382 . S
C1456 H1481 0.950 . S
C1457 N1452 1.332 . S
C1457 C1456 1.382 . S
C1457 H1467 0.948 . S
N1458 Co1436 2.282 . S
N1458 C1462 1.332 . S
N1458 C1463 1.332 . S
C1459 C1460 1.388 . S
C1459 C1463 1.382 . S
C1459 H1482 0.950 . S
C1460 C1459 1.388 . S
C1460 C1461 1.386 . S
C1461 C1460 1.386 . S
C1461 C1462 1.382 . S
C1461 H1483 0.950 . S
C1462 N1458 1.332 . S
C1462 C1461 1.382 . S
C1462 H1464 0.952 . S
C1463 N1458 1.332 . S
C1463 C1459 1.382 . S
C1463 H1465 0.948 . S
H1464 C1462 0.952 . S
H1465 C1463 0.948 . S
H1466 C1455 0.952 . S
H1467 C1457 0.948 . S
C1468 C1434 1.395 . S
C1468 C1438 1.391 1_655 S
C1469 C1431 1.389 . S
C1469 C1451 1.392 . S
C1470 C1441 1.392 . S
C1470 C1443 1.389 . S
C1471 C1446 1.395 . S
C1471 C1448 1.391 . S
H1472 C1432 0.951 . S
H1473 C1433 0.950 . S
H1474 C1439 0.949 . S
H1475 C1440 0.950 . S
H1476 C1444 0.951 . S
H1477 C1445 0.950 . S
H1478 C1449 0.949 . S
H1479 C1450 0.950 . S
H1480 C1454 0.950 . S
H1481 C1456 0.950 . S
H1482 C1459 0.950 . S
H1483 C1461 0.950 . S
C1484 C1485 1.443 . S
C1484 N1488 1.376 . S
C1484 C1522 1.389 . S
C1485 C1484 1.443 . S
C1485 C1486 1.340 . S
C1485 H1525 0.951 . S
C1486 C1485 1.340 . S
C1486 C1487 1.439 . S
C1486 H1526 0.950 . S
C1487 C1486 1.439 . S
C1487 N1488 1.374 . S
C1487 C1521 1.395 . S
N1488 C1484 1.376 . S
N1488 C1487 1.374 . S
N1488 Co1489 2.008 . S
Co1489 N1488 2.008 . S
Co1489 N1490 1.995 . S
Co1489 N1495 2.008 . S
Co1489 N1500 1.995 . S
Co1489 N1505 2.282 . S
Co1489 N1511 2.282 . S
N1490 Co1489 1.995 . S
N1490 C1491 1.376 . S
N1490 C1494 1.383 . S
C1491 N1490 1.376 . S
C1491 C1492 1.446 . S
C1491 C1521 1.391 . S
C1492 C1491 1.446 . S
C1492 C1493 1.339 . S
C1492 H1527 0.949 . S
C1493 C1492 1.339 . S
C1493 C1494 1.439 . S
C1493 H1528 0.950 . S
C1494 N1490 1.383 . S
C1494 C1493 1.439 . S
C1494 C1523 1.392 . S
N1495 Co1489 2.008 . S
N1495 C1496 1.376 . S
N1495 C1499 1.374 . S
C1496 N1495 1.376 . S
C1496 C1497 1.443 . S
C1496 C1523 1.389 . S
C1497 C1496 1.443 . S
C1497 C1498 1.340 . S
C1497 H1529 0.951 . S
C1498 C1497 1.340 . S
C1498 C1499 1.439 . S
C1498 H1530 0.950 . S
C1499 N1495 1.374 . S
C1499 C1498 1.439 . S
C1499 C1524 1.395 . S
N1500 Co1489 1.995 . S
N1500 C1501 1.376 . S
N1500 C1504 1.383 . S
C1501 N1500 1.376 . S
C1501 C1502 1.446 . S
C1501 C1524 1.391 . S
C1502 C1501 1.446 . S
C1502 C1503 1.339 . S
C1502 H1531 0.949 . S
C1503 C1502 1.339 . S
C1503 C1504 1.439 . S
C1503 H1532 0.950 . S
C1504 N1500 1.383 . S
C1504 C1503 1.439 . S
C1504 C1522 1.392 . S
N1505 Co1489 2.282 . S
N1505 C1508 1.332 . S
N1505 C1510 1.332 . S
C1506 C1507 1.386 . S
C1506 C1509 1.388 . S
C1507 C1506 1.386 . S
C1507 C1508 1.382 . S
C1507 H1533 0.950 . S
C1508 N1505 1.332 . S
C1508 C1507 1.382 . S
C1508 H1519 0.952 . S
C1509 C1506 1.388 . S
C1509 C1510 1.382 . S
C1509 H1534 0.950 . S
C1510 N1505 1.332 . S
C1510 C1509 1.382 . S
C1510 H1520 0.948 . S
N1511 Co1489 2.282 . S
N1511 C1515 1.332 . S
N1511 C1516 1.332 . S
C1512 C1513 1.388 . S
C1512 C1516 1.382 . S
C1512 H1535 0.950 . S
C1513 C1512 1.388 . S
C1513 C1514 1.386 . S
C1514 C1513 1.386 . S
C1514 C1515 1.382 . S
C1514 H1536 0.950 . S
C1515 N1511 1.332 . S
C1515 C1514 1.382 . S
C1515 H1517 0.952 . S
C1516 N1511 1.332 . S
C1516 C1512 1.382 . S
C1516 H1518 0.948 . S
H1517 C1515 0.952 . S
H1518 C1516 0.948 . S
H1519 C1508 0.952 . S
H1520 C1510 0.948 . S
C1521 C1487 1.395 . S
C1521 C1491 1.391 . S
C1522 C1484 1.389 . S
C1522 C1504 1.392 . S
C1523 C1494 1.392 . S
C1523 C1496 1.389 . S
C1524 C1499 1.395 . S
C1524 C1501 1.391 . S
H1525 C1485 0.951 . S
H1526 C1486 0.950 . S
H1527 C1492 0.949 . S
H1528 C1493 0.950 . S
H1529 C1497 0.951 . S
H1530 C1498 0.950 . S
H1531 C1502 0.949 . S
H1532 C1503 0.950 . S
H1533 C1507 0.950 . S
H1534 C1509 0.950 . S
H1535 C1512 0.950 . S
H1536 C1514 0.950 . S
C1537 C1538 1.443 . S
C1537 N1541 1.376 . S
C1537 C1575 1.389 . S
C1538 C1537 1.443 . S
C1538 C1539 1.340 . S
C1538 H1578 0.951 . S
C1539 C1538 1.340 . S
C1539 C1540 1.439 . S
C1539 H1579 0.950 . S
C1540 C1539 1.439 . S
C1540 N1541 1.374 . S
C1540 C1574 1.395 . S
N1541 C1537 1.376 . S
N1541 C1540 1.374 . S
N1541 Co1542 2.008 . S
Co1542 N1541 2.008 . S
Co1542 N1543 1.995 . S
Co1542 N1548 2.008 . S
Co1542 N1553 1.995 . S
Co1542 N1558 2.282 . S
Co1542 N1564 2.282 . S
N1543 Co1542 1.995 . S
N1543 C1544 1.376 . S
N1543 C1547 1.383 . S
C1544 N1543 1.376 . S
C1544 C1545 1.446 . S
C1544 C1574 1.391 . S
C1545 C1544 1.446 . S
C1545 C1546 1.339 . S
C1545 H1580 0.949 . S
C1546 C1545 1.339 . S
C1546 C1547 1.439 . S
C1546 H1581 0.950 . S
C1547 N1543 1.383 . S
C1547 C1546 1.439 . S
C1547 C1576 1.392 . S
N1548 Co1542 2.008 . S
N1548 C1549 1.376 . S
N1548 C1552 1.374 . S
C1549 N1548 1.376 . S
C1549 C1550 1.443 . S
C1549 C1576 1.389 . S
C1550 C1549 1.443 . S
C1550 C1551 1.340 . S
C1550 H1582 0.951 . S
C1551 C1550 1.340 . S
C1551 C1552 1.439 . S
C1551 H1583 0.950 . S
C1552 N1548 1.374 . S
C1552 C1551 1.439 . S
C1552 C1577 1.395 . S
N1553 Co1542 1.995 . S
N1553 C1554 1.376 . S
N1553 C1557 1.383 . S
C1554 N1553 1.376 . S
C1554 C1555 1.446 . S
C1554 C1577 1.391 . S
C1555 C1554 1.446 . S
C1555 C1556 1.339 . S
C1555 H1584 0.949 . S
C1556 C1555 1.339 . S
C1556 C1557 1.439 . S
C1556 H1585 0.950 . S
C1557 N1553 1.383 . S
C1557 C1556 1.439 . S
C1557 C1575 1.392 . S
N1558 Co1542 2.282 . S
N1558 C1561 1.332 . S
N1558 C1563 1.332 . S
C1559 C1560 1.386 . S
C1559 C1562 1.388 . S
C1560 C1559 1.386 . S
C1560 C1561 1.382 . S
C1560 H1586 0.950 . S
C1561 N1558 1.332 . S
C1561 C1560 1.382 . S
C1561 H1572 0.952 . S
C1562 C1559 1.388 . S
C1562 C1563 1.382 . S
C1562 H1587 0.950 . S
C1563 N1558 1.332 . S
C1563 C1562 1.382 . S
C1563 H1573 0.948 . S
N1564 Co1542 2.282 . S
N1564 C1568 1.332 . S
N1564 C1569 1.332 . S
C1565 C1566 1.388 . S
C1565 C1569 1.382 . S
C1565 H1588 0.950 . S
C1566 C1565 1.388 . S
C1566 C1567 1.386 . S
C1567 C1566 1.386 . S
C1567 C1568 1.382 . S
C1567 H1589 0.950 . S
C1568 N1564 1.332 . S
C1568 C1567 1.382 . S
C1568 H1570 0.952 . S
C1569 N1564 1.332 . S
C1569 C1565 1.382 . S
C1569 H1571 0.948 . S
H1570 C1568 0.952 . S
H1571 C1569 0.948 . S
H1572 C1561 0.952 . S
H1573 C1563 0.948 . S
C1574 C1540 1.395 . S
C1574 C1544 1.391 . S
C1575 C1537 1.389 . S
C1575 C1557 1.392 . S
C1576 C1547 1.392 . S
C1576 C1549 1.389 . S
C1577 C1552 1.395 . S
C1577 C1554 1.391 . S
H1578 C1538 0.951 . S
H1579 C1539 0.950 . S
H1580 C1545 0.949 . S
H1581 C1546 0.950 . S
H1582 C1550 0.951 . S
H1583 C1551 0.950 . S
H1584 C1555 0.949 . S
H1585 C1556 0.950 . S
H1586 C1560 0.950 . S
H1587 C1562 0.950 . S
H1588 C1565 0.950 . S
H1589 C1567 0.950 . S
C1590 C1591 1.443 . S
C1590 N1594 1.376 . S
C1590 C1628 1.389 . S
C1591 C1590 1.443 . S
C1591 C1592 1.340 . S
C1591 H1631 0.951 . S
C1592 C1591 1.340 . S
C1592 C1593 1.439 . S
C1592 H1632 0.950 . S
C1593 C1592 1.439 . S
C1593 N1594 1.374 . S
C1593 C1627 1.395 . S
N1594 C1590 1.376 . S
N1594 C1593 1.374 . S
N1594 Co1595 2.008 . S
Co1595 N1594 2.008 . S
Co1595 N1596 1.995 . S
Co1595 N1601 2.008 . S
Co1595 N1606 1.995 . S
Co1595 N1611 2.282 . S
Co1595 N1617 2.282 . S
N1596 Co1595 1.995 . S
N1596 C1597 1.376 . S
N1596 C1600 1.383 . S
C1597 N1596 1.376 . S
C1597 C1598 1.446 . S
C1597 C1627 1.391 . S
C1598 C1597 1.446 . S
C1598 C1599 1.339 . S
C1598 H1633 0.949 . S
C1599 C1598 1.339 . S
C1599 C1600 1.439 . S
C1599 H1634 0.950 . S
C1600 N1596 1.383 . S
C1600 C1599 1.439 . S
C1600 C1629 1.392 . S
N1601 Co1595 2.008 . S
N1601 C1602 1.376 . S
N1601 C1605 1.374 . S
C1602 N1601 1.376 . S
C1602 C1603 1.443 . S
C1602 C1629 1.389 . S
C1603 C1602 1.443 . S
C1603 C1604 1.340 . S
C1603 H1635 0.951 . S
C1604 C1603 1.340 . S
C1604 C1605 1.439 . S
C1604 H1636 0.950 . S
C1605 N1601 1.374 . S
C1605 C1604 1.439 . S
C1605 C1630 1.395 . S
N1606 Co1595 1.995 . S
N1606 C1607 1.376 . S
N1606 C1610 1.383 . S
C1607 N1606 1.376 . S
C1607 C1608 1.446 . S
C1607 C1630 1.391 . S
C1608 C1607 1.446 . S
C1608 C1609 1.339 . S
C1608 H1637 0.949 . S
C1609 C1608 1.339 . S
C1609 C1610 1.439 . S
C1609 H1638 0.950 . S
C1610 N1606 1.383 . S
C1610 C1609 1.439 . S
C1610 C1628 1.392 . S
N1611 Co1595 2.282 . S
N1611 C1614 1.332 . S
N1611 C1616 1.332 . S
C1612 C1613 1.386 . S
C1612 C1615 1.388 . S
C1613 C1612 1.386 . S
C1613 C1614 1.382 . S
C1613 H1639 0.950 . S
C1614 N1611 1.332 . S
C1614 C1613 1.382 . S
C1614 H1625 0.952 . S
C1615 C1612 1.388 . S
C1615 C1616 1.382 . S
C1615 H1640 0.950 . S
C1616 N1611 1.332 . S
C1616 C1615 1.382 . S
C1616 H1626 0.948 . S
N1617 Co1595 2.282 . S
N1617 C1621 1.332 . S
N1617 C1622 1.332 . S
C1618 C1619 1.388 . S
C1618 C1622 1.382 . S
C1618 H1641 0.950 . S
C1619 C1618 1.388 . S
C1619 C1620 1.386 . S
C1620 C1619 1.386 . S
C1620 C1621 1.382 . S
C1620 H1642 0.950 . S
C1621 N1617 1.332 . S
C1621 C1620 1.382 . S
C1621 H1623 0.952 . S
C1622 N1617 1.332 . S
C1622 C1618 1.382 . S
C1622 H1624 0.948 . S
H1623 C1621 0.952 . S
H1624 C1622 0.948 . S
H1625 C1614 0.952 . S
H1626 C1616 0.948 . S
C1627 C1593 1.395 . S
C1627 C1597 1.391 . S
C1628 C1590 1.389 . S
C1628 C1610 1.392 . S
C1629 C1600 1.392 . S
C1629 C1602 1.389 . S
C1630 C1605 1.395 . S
C1630 C1607 1.391 . S
H1631 C1591 0.951 . S
H1632 C1592 0.950 . S
H1633 C1598 0.949 . S
H1634 C1599 0.950 . S
H1635 C1603 0.951 . S
H1636 C1604 0.950 . S
H1637 C1608 0.949 . S
H1638 C1609 0.950 . S
H1639 C1613 0.950 . S
H1640 C1615 0.950 . S
H1641 C1618 0.950 . S
H1642 C1620 0.950 . S
C1643 C1644 1.443 . S
C1643 N1647 1.376 . S
C1643 C1681 1.389 . S
C1644 C1643 1.443 . S
C1644 C1645 1.340 . S
C1644 H1684 0.951 . S
C1645 C1644 1.340 . S
C1645 C1646 1.439 . S
C1645 H1685 0.950 . S
C1646 C1645 1.439 . S
C1646 N1647 1.374 . S
C1646 C1680 1.395 . S
N1647 C1643 1.376 . S
N1647 C1646 1.374 . S
N1647 Co1648 2.008 . S
Co1648 N1647 2.008 . S
Co1648 N1649 1.995 . S
Co1648 N1654 2.008 . S
Co1648 N1659 1.995 . S
Co1648 N1664 2.282 . S
Co1648 N1670 2.282 . S
N1649 Co1648 1.995 . S
N1649 C1650 1.376 . S
N1649 C1653 1.383 . S
C1650 N1649 1.376 . S
C1650 C1651 1.446 . S
C1650 C1680 1.391 . S
C1651 C1650 1.446 . S
C1651 C1652 1.339 . S
C1651 H1686 0.949 . S
C1652 C1651 1.339 . S
C1652 C1653 1.439 . S
C1652 H1687 0.950 . S
C1653 N1649 1.383 . S
C1653 C1652 1.439 . S
C1653 C1682 1.392 . S
N1654 Co1648 2.008 . S
N1654 C1655 1.376 . S
N1654 C1658 1.374 . S
C1655 N1654 1.376 . S
C1655 C1656 1.443 . S
C1655 C1682 1.389 . S
C1656 C1655 1.443 . S
C1656 C1657 1.340 . S
C1656 H1688 0.951 . S
C1657 C1656 1.340 . S
C1657 C1658 1.439 . S
C1657 H1689 0.950 . S
C1658 N1654 1.374 . S
C1658 C1657 1.439 . S
C1658 C1683 1.395 . S
N1659 Co1648 1.995 . S
N1659 C1660 1.376 . S
N1659 C1663 1.383 . S
C1660 N1659 1.376 . S
C1660 C1661 1.446 . S
C1660 C1683 1.391 . S
C1661 C1660 1.446 . S
C1661 C1662 1.339 . S
C1661 H1690 0.949 . S
C1662 C1661 1.339 . S
C1662 C1663 1.439 . S
C1662 H1691 0.950 . S
C1663 N1659 1.383 . S
C1663 C1662 1.439 . S
C1663 C1681 1.392 . S
N1664 Co1648 2.282 . S
N1664 C1667 1.332 . S
N1664 C1669 1.332 . S
C1665 C1666 1.386 . S
C1665 C1668 1.388 . S
C1666 C1665 1.386 . S
C1666 C1667 1.382 . S
C1666 H1692 0.950 . S
C1667 N1664 1.332 . S
C1667 C1666 1.382 . S
C1667 H1678 0.952 . S
C1668 C1665 1.388 . S
C1668 C1669 1.382 . S
C1668 H1693 0.950 . S
C1669 N1664 1.332 . S
C1669 C1668 1.382 . S
C1669 H1679 0.948 . S
N1670 Co1648 2.282 . S
N1670 C1674 1.332 . S
N1670 C1675 1.332 . S
C1671 C1672 1.388 . S
C1671 C1675 1.382 . S
C1671 H1694 0.950 . S
C1672 C1671 1.388 . S
C1672 C1673 1.386 . S
C1673 C1672 1.386 . S
C1673 C1674 1.382 . S
C1673 H1695 0.950 . S
C1674 N1670 1.332 . S
C1674 C1673 1.382 . S
C1674 H1676 0.952 . S
C1675 N1670 1.332 . S
C1675 C1671 1.382 . S
C1675 H1677 0.948 . S
H1676 C1674 0.952 . S
H1677 C1675 0.948 . S
H1678 C1667 0.952 . S
H1679 C1669 0.948 . S
C1680 C1646 1.395 . S
C1680 C1650 1.391 . S
C1681 C1643 1.389 . S
C1681 C1663 1.392 . S
C1682 C1653 1.392 . S
C1682 C1655 1.389 . S
C1683 C1658 1.395 . S
C1683 C1660 1.391 . S
H1684 C1644 0.951 . S
H1685 C1645 0.950 . S
H1686 C1651 0.949 . S
H1687 C1652 0.950 . S
H1688 C1656 0.951 . S
H1689 C1657 0.950 . S
H1690 C1661 0.949 . S
H1691 C1662 0.950 . S
H1692 C1666 0.950 . S
H1693 C1668 0.950 . S
H1694 C1671 0.950 . S
H1695 C1673 0.950 . S
C1696 C1697 1.443 . S
C1696 N1700 1.376 . S
C1696 C1734 1.389 . S
C1697 C1696 1.443 . S
C1697 C1698 1.340 . S
C1697 H1737 0.951 . S
C1698 C1697 1.340 . S
C1698 C1699 1.439 . S
C1698 H1738 0.950 . S
C1699 C1698 1.439 . S
C1699 N1700 1.374 . S
C1699 C1733 1.395 . S
N1700 C1696 1.376 . S
N1700 C1699 1.374 . S
N1700 Co1701 2.008 . S
Co1701 N1700 2.008 . S
Co1701 N1702 1.995 . S
Co1701 N1707 2.008 . S
Co1701 N1712 1.995 . S
Co1701 N1717 2.282 . S
Co1701 N1723 2.282 . S
N1702 Co1701 1.995 . S
N1702 C1703 1.376 . S
N1702 C1706 1.383 . S
C1703 N1702 1.376 . S
C1703 C1704 1.446 . S
C1703 C1733 1.391 . S
C1704 C1703 1.446 . S
C1704 C1705 1.339 . S
C1704 H1739 0.949 . S
C1705 C1704 1.339 . S
C1705 C1706 1.439 . S
C1705 H1740 0.950 . S
C1706 N1702 1.383 . S
C1706 C1705 1.439 . S
C1706 C1735 1.392 . S
N1707 Co1701 2.008 . S
N1707 C1708 1.376 . S
N1707 C1711 1.374 . S
C1708 N1707 1.376 . S
C1708 C1709 1.443 . S
C1708 C1735 1.389 . S
C1709 C1708 1.443 . S
C1709 C1710 1.340 . S
C1709 H1741 0.951 . S
C1710 C1709 1.340 . S
C1710 C1711 1.439 . S
C1710 H1742 0.950 . S
C1711 N1707 1.374 . S
C1711 C1710 1.439 . S
C1711 C1736 1.395 . S
N1712 Co1701 1.995 . S
N1712 C1713 1.376 . S
N1712 C1716 1.383 . S
C1713 N1712 1.376 . S
C1713 C1714 1.446 . S
C1713 C1736 1.391 . S
C1714 C1713 1.446 . S
C1714 C1715 1.339 . S
C1714 H1743 0.949 . S
C1715 C1714 1.339 . S
C1715 C1716 1.439 . S
C1715 H1744 0.950 . S
C1716 N1712 1.383 . S
C1716 C1715 1.439 . S
C1716 C1734 1.392 . S
N1717 Co1701 2.282 . S
N1717 C1720 1.332 . S
N1717 C1722 1.332 . S
C1718 C1719 1.386 . S
C1718 C1721 1.388 . S
C1719 C1718 1.386 . S
C1719 C1720 1.382 . S
C1719 H1745 0.950 . S
C1720 N1717 1.332 . S
C1720 C1719 1.382 . S
C1720 H1731 0.952 . S
C1721 C1718 1.388 . S
C1721 C1722 1.382 . S
C1721 H1746 0.950 . S
C1722 N1717 1.332 . S
C1722 C1721 1.382 . S
C1722 H1732 0.948 . S
N1723 Co1701 2.282 . S
N1723 C1727 1.332 . S
N1723 C1728 1.332 . S
C1724 C1725 1.388 . S
C1724 C1728 1.382 . S
C1724 H1747 0.950 . S
C1725 C1724 1.388 . S
C1725 C1726 1.386 . S
C1726 C1725 1.386 . S
C1726 C1727 1.382 . S
C1726 H1748 0.950 . S
C1727 N1723 1.332 . S
C1727 C1726 1.382 . S
C1727 H1729 0.952 . S
C1728 N1723 1.332 . S
C1728 C1724 1.382 . S
C1728 H1730 0.948 . S
H1729 C1727 0.952 . S
H1730 C1728 0.948 . S
H1731 C1720 0.952 . S
H1732 C1722 0.948 . S
C1733 C1699 1.395 . S
C1733 C1703 1.391 . S
C1734 C1696 1.389 . S
C1734 C1716 1.392 . S
C1735 C1706 1.392 . S
C1735 C1708 1.389 . S
C1736 C1711 1.395 . S
C1736 C1713 1.391 . S
H1737 C1697 0.951 . S
H1738 C1698 0.950 . S
H1739 C1704 0.949 . S
H1740 C1705 0.950 . S
H1741 C1709 0.951 . S
H1742 C1710 0.950 . S
H1743 C1714 0.949 . S
H1744 C1715 0.950 . S
H1745 C1719 0.950 . S
H1746 C1721 0.950 . S
H1747 C1724 0.950 . S
H1748 C1726 0.950 . S
C1749 C1750 1.443 . S
C1749 N1753 1.376 . S
C1749 C1787 1.389 . S
C1750 C1749 1.443 . S
C1750 C1751 1.340 . S
C1750 H1790 0.951 . S
C1751 C1750 1.340 . S
C1751 C1752 1.439 . S
C1751 H1791 0.950 . S
C1752 C1751 1.439 . S
C1752 N1753 1.374 . S
C1752 C1786 1.395 . S
N1753 C1749 1.376 . S
N1753 C1752 1.374 . S
N1753 Co1754 2.008 . S
Co1754 N1753 2.008 . S
Co1754 N1755 1.995 . S
Co1754 N1760 2.008 . S
Co1754 N1765 1.995 . S
Co1754 N1770 2.282 . S
Co1754 N1776 2.282 . S
N1755 Co1754 1.995 . S
N1755 C1756 1.376 . S
N1755 C1759 1.383 . S
C1756 N1755 1.376 . S
C1756 C1757 1.446 . S
C1756 C1786 1.391 . S
C1757 C1756 1.446 . S
C1757 C1758 1.339 . S
C1757 H1792 0.949 . S
C1758 C1757 1.339 . S
C1758 C1759 1.439 . S
C1758 H1793 0.950 . S
C1759 N1755 1.383 . S
C1759 C1758 1.439 . S
C1759 C1788 1.392 . S
N1760 Co1754 2.008 . S
N1760 C1761 1.376 . S
N1760 C1764 1.374 . S
C1761 N1760 1.376 . S
C1761 C1762 1.443 . S
C1761 C1788 1.389 . S
C1762 C1761 1.443 . S
C1762 C1763 1.340 . S
C1762 H1794 0.951 . S
C1763 C1762 1.340 . S
C1763 C1764 1.439 . S
C1763 H1795 0.950 . S
C1764 N1760 1.374 . S
C1764 C1763 1.439 . S
C1764 C1789 1.395 . S
N1765 Co1754 1.995 . S
N1765 C1766 1.376 . S
N1765 C1769 1.383 . S
C1766 N1765 1.376 . S
C1766 C1767 1.446 . S
C1766 C1789 1.391 . S
C1767 C1766 1.446 . S
C1767 C1768 1.339 . S
C1767 H1796 0.949 . S
C1768 C1767 1.339 . S
C1768 C1769 1.439 . S
C1768 H1797 0.950 . S
C1769 N1765 1.383 . S
C1769 C1768 1.439 . S
C1769 C1787 1.392 . S
N1770 Co1754 2.282 . S
N1770 C1773 1.332 . S
N1770 C1775 1.332 . S
C1771 C1772 1.386 . S
C1771 C1774 1.388 . S
C1772 C1771 1.386 . S
C1772 C1773 1.382 . S
C1772 H1798 0.950 . S
C1773 N1770 1.332 . S
C1773 C1772 1.382 . S
C1773 H1784 0.952 . S
C1774 C1771 1.388 . S
C1774 C1775 1.382 . S
C1774 H1799 0.950 . S
C1775 N1770 1.332 . S
C1775 C1774 1.382 . S
C1775 H1785 0.948 . S
N1776 Co1754 2.282 . S
N1776 C1780 1.332 . S
N1776 C1781 1.332 . S
C1777 C1778 1.388 . S
C1777 C1781 1.382 . S
C1777 H1800 0.950 . S
C1778 C1777 1.388 . S
C1778 C1779 1.386 . S
C1779 C1778 1.386 . S
C1779 C1780 1.382 . S
C1779 H1801 0.950 . S
C1780 N1776 1.332 . S
C1780 C1779 1.382 . S
C1780 H1782 0.952 . S
C1781 N1776 1.332 . S
C1781 C1777 1.382 . S
C1781 H1783 0.948 . S
H1782 C1780 0.952 . S
H1783 C1781 0.948 . S
H1784 C1773 0.952 . S
H1785 C1775 0.948 . S
C1786 C1752 1.395 . S
C1786 C1756 1.391 . S
C1787 C1749 1.389 . S
C1787 C1769 1.392 . S
C1788 C1759 1.392 . S
C1788 C1761 1.389 . S
C1789 C1764 1.395 . S
C1789 C1766 1.391 . S
H1790 C1750 0.951 . S
H1791 C1751 0.950 . S
H1792 C1757 0.949 . S
H1793 C1758 0.950 . S
H1794 C1762 0.951 . S
H1795 C1763 0.950 . S
H1796 C1767 0.949 . S
H1797 C1768 0.950 . S
H1798 C1772 0.950 . S
H1799 C1774 0.950 . S
H1800 C1777 0.950 . S
H1801 C1779 0.950 . S
C1802 C1803 1.443 . S
C1802 N1806 1.376 . S
C1802 C1840 1.389 . S
C1803 C1802 1.443 . S
C1803 C1804 1.340 . S
C1803 H1843 0.951 . S
C1804 C1803 1.340 . S
C1804 C1805 1.439 . S
C1804 H1844 0.950 . S
C1805 C1804 1.439 . S
C1805 N1806 1.374 . S
C1805 C1839 1.395 . S
N1806 C1802 1.376 . S
N1806 C1805 1.374 . S
N1806 Co1807 2.008 . S
Co1807 N1806 2.008 . S
Co1807 N1808 1.995 . S
Co1807 N1813 2.008 . S
Co1807 N1818 1.995 . S
Co1807 N1823 2.282 . S
Co1807 N1829 2.282 . S
N1808 Co1807 1.995 . S
N1808 C1809 1.376 . S
N1808 C1812 1.383 . S
C1809 N1808 1.376 . S
C1809 C1810 1.446 . S
C1809 C1839 1.391 . S
C1810 C1809 1.446 . S
C1810 C1811 1.339 . S
C1810 H1845 0.949 . S
C1811 C1810 1.339 . S
C1811 C1812 1.439 . S
C1811 H1846 0.950 . S
C1812 N1808 1.383 . S
C1812 C1811 1.439 . S
C1812 C1841 1.392 . S
N1813 Co1807 2.008 . S
N1813 C1814 1.376 . S
N1813 C1817 1.374 . S
C1814 N1813 1.376 . S
C1814 C1815 1.443 . S
C1814 C1841 1.389 . S
C1815 C1814 1.443 . S
C1815 C1816 1.340 . S
C1815 H1847 0.951 . S
C1816 C1815 1.340 . S
C1816 C1817 1.439 . S
C1816 H1848 0.950 . S
C1817 N1813 1.374 . S
C1817 C1816 1.439 . S
C1817 C1842 1.395 . S
N1818 Co1807 1.995 . S
N1818 C1819 1.376 . S
N1818 C1822 1.383 . S
C1819 N1818 1.376 . S
C1819 C1820 1.446 . S
C1819 C1842 1.391 . S
C1820 C1819 1.446 . S
C1820 C1821 1.339 . S
C1820 H1849 0.949 . S
C1821 C1820 1.339 . S
C1821 C1822 1.439 . S
C1821 H1850 0.950 . S
C1822 N1818 1.383 . S
C1822 C1821 1.439 . S
C1822 C1840 1.392 . S
N1823 Co1807 2.282 . S
N1823 C1826 1.332 . S
N1823 C1828 1.332 . S
C1824 C1825 1.386 . S
C1824 C1827 1.388 . S
C1825 C1824 1.386 . S
C1825 C1826 1.382 . S
C1825 H1851 0.950 . S
C1826 N1823 1.332 . S
C1826 C1825 1.382 . S
C1826 H1837 0.952 . S
C1827 C1824 1.388 . S
C1827 C1828 1.382 . S
C1827 H1852 0.950 . S
C1828 N1823 1.332 . S
C1828 C1827 1.382 . S
C1828 H1838 0.948 . S
N1829 Co1807 2.282 . S
N1829 C1833 1.332 . S
N1829 C1834 1.332 . S
C1830 C1831 1.388 . S
C1830 C1834 1.382 . S
C1830 H1853 0.950 . S
C1831 C1830 1.388 . S
C1831 C1832 1.386 . S
C1832 C1831 1.386 . S
C1832 C1833 1.382 . S
C1832 H1854 0.950 . S
C1833 N1829 1.332 . S
C1833 C1832 1.382 . S
C1833 H1835 0.952 . S
C1834 N1829 1.332 . S
C1834 C1830 1.382 . S
C1834 H1836 0.948 . S
H1835 C1833 0.952 . S
H1836 C1834 0.948 . S
H1837 C1826 0.952 . S
H1838 C1828 0.948 . S
C1839 C1805 1.395 . S
C1839 C1809 1.391 . S
C1840 C1802 1.389 . S
C1840 C1822 1.392 . S
C1841 C1812 1.392 . S
C1841 C1814 1.389 . S
C1842 C1817 1.395 . S
C1842 C1819 1.391 . S
H1843 C1803 0.951 . S
H1844 C1804 0.950 . S
H1845 C1810 0.949 . S
H1846 C1811 0.950 . S
H1847 C1815 0.951 . S
H1848 C1816 0.950 . S
H1849 C1820 0.949 . S
H1850 C1821 0.950 . S
H1851 C1825 0.950 . S
H1852 C1827 0.950 . S
H1853 C1830 0.950 . S
H1854 C1832 0.950 . S
C1855 C1856 1.443 . S
C1855 N1859 1.376 . S
C1855 C1893 1.389 . S
C1856 C1855 1.443 . S
C1856 C1857 1.340 . S
C1856 H1896 0.951 . S
C1857 C1856 1.340 . S
C1857 C1858 1.439 . S
C1857 H1897 0.950 . S
C1858 C1857 1.439 . S
C1858 N1859 1.374 . S
C1858 C1892 1.395 . S
N1859 C1855 1.376 . S
N1859 C1858 1.374 . S
N1859 Co1860 2.008 . S
Co1860 N1859 2.008 . S
Co1860 N1861 1.995 . S
Co1860 N1866 2.008 . S
Co1860 N1871 1.995 . S
Co1860 N1876 2.282 . S
Co1860 N1882 2.282 . S
N1861 Co1860 1.995 . S
N1861 C1862 1.376 . S
N1861 C1865 1.383 . S
C1862 N1861 1.376 . S
C1862 C1863 1.446 . S
C1862 C1892 1.391 . S
C1863 C1862 1.446 . S
C1863 C1864 1.339 . S
C1863 H1898 0.949 . S
C1864 C1863 1.339 . S
C1864 C1865 1.439 . S
C1864 H1899 0.950 . S
C1865 N1861 1.383 . S
C1865 C1864 1.439 . S
C1865 C1894 1.392 . S
N1866 Co1860 2.008 . S
N1866 C1867 1.376 . S
N1866 C1870 1.374 . S
C1867 N1866 1.376 . S
C1867 C1868 1.443 . S
C1867 C1894 1.389 . S
C1868 C1867 1.443 . S
C1868 C1869 1.340 . S
C1868 H1900 0.951 . S
C1869 C1868 1.340 . S
C1869 C1870 1.439 . S
C1869 H1901 0.950 . S
C1870 N1866 1.374 . S
C1870 C1869 1.439 . S
C1870 C1895 1.395 . S
N1871 Co1860 1.995 . S
N1871 C1872 1.376 . S
N1871 C1875 1.383 . S
C1872 N1871 1.376 . S
C1872 C1873 1.446 . S
C1872 C1895 1.391 . S
C1873 C1872 1.446 . S
C1873 C1874 1.339 . S
C1873 H1902 0.949 . S
C1874 C1873 1.339 . S
C1874 C1875 1.439 . S
C1874 H1903 0.950 . S
C1875 N1871 1.383 . S
C1875 C1874 1.439 . S
C1875 C1893 1.392 . S
N1876 Co1860 2.282 . S
N1876 C1879 1.332 . S
N1876 C1881 1.332 . S
C1877 C1878 1.386 . S
C1877 C1880 1.388 . S
C1878 C1877 1.386 . S
C1878 C1879 1.382 . S
C1878 H1904 0.950 . S
C1879 N1876 1.332 . S
C1879 C1878 1.382 . S
C1879 H1890 0.952 . S
C1880 C1877 1.388 . S
C1880 C1881 1.382 . S
C1880 H1905 0.950 . S
C1881 N1876 1.332 . S
C1881 C1880 1.382 . S
C1881 H1891 0.948 . S
N1882 Co1860 2.282 . S
N1882 C1886 1.332 . S
N1882 C1887 1.332 . S
C1883 C1884 1.388 . S
C1883 C1887 1.382 . S
C1883 H1906 0.950 . S
C1884 C1883 1.388 . S
C1884 C1885 1.386 . S
C1885 C1884 1.386 . S
C1885 C1886 1.382 . S
C1885 H1907 0.950 . S
C1886 N1882 1.332 . S
C1886 C1885 1.382 . S
C1886 H1888 0.952 . S
C1887 N1882 1.332 . S
C1887 C1883 1.382 . S
C1887 H1889 0.948 . S
H1888 C1886 0.952 . S
H1889 C1887 0.948 . S
H1890 C1879 0.952 . S
H1891 C1881 0.948 . S
C1892 C1858 1.395 . S
C1892 C1862 1.391 . S
C1893 C1855 1.389 . S
C1893 C1875 1.392 . S
C1894 C1865 1.392 . S
C1894 C1867 1.389 . S
C1895 C1870 1.395 . S
C1895 C1872 1.391 . S
H1896 C1856 0.951 . S
H1897 C1857 0.950 . S
H1898 C1863 0.949 . S
H1899 C1864 0.950 . S
H1900 C1868 0.951 . S
H1901 C1869 0.950 . S
H1902 C1873 0.949 . S
H1903 C1874 0.950 . S
H1904 C1878 0.950 . S
H1905 C1880 0.950 . S
H1906 C1883 0.950 . S
H1907 C1885 0.950 . S
C1908 C1909 1.443 . S
C1908 N1912 1.376 . S
C1908 C1946 1.389 . S
C1909 C1908 1.443 . S
C1909 C1910 1.340 . S
C1909 H1949 0.951 . S
C1910 C1909 1.340 . S
C1910 C1911 1.439 . S
C1910 H1950 0.950 . S
C1911 C1910 1.439 . S
C1911 N1912 1.374 . S
C1911 C1945 1.395 . S
N1912 C1908 1.376 . S
N1912 C1911 1.374 . S
N1912 Co1913 2.008 . S
Co1913 N1912 2.008 . S
Co1913 N1914 1.995 . S
Co1913 N1919 2.008 . S
Co1913 N1924 1.995 . S
Co1913 N1929 2.282 . S
Co1913 N1935 2.282 . S
N1914 Co1913 1.995 . S
N1914 C1915 1.376 . S
N1914 C1918 1.383 . S
C1915 N1914 1.376 . S
C1915 C1916 1.446 . S
C1915 C1945 1.391 . S
C1916 C1915 1.446 . S
C1916 C1917 1.339 . S
C1916 H1951 0.949 . S
C1917 C1916 1.339 . S
C1917 C1918 1.439 . S
C1917 H1952 0.950 . S
C1918 N1914 1.383 . S
C1918 C1917 1.439 . S
C1918 C1947 1.392 . S
N1919 Co1913 2.008 . S
N1919 C1920 1.376 . S
N1919 C1923 1.374 . S
C1920 N1919 1.376 . S
C1920 C1921 1.443 . S
C1920 C1947 1.389 . S
C1921 C1920 1.443 . S
C1921 C1922 1.340 . S
C1921 H1953 0.951 . S
C1922 C1921 1.340 . S
C1922 C1923 1.439 . S
C1922 H1954 0.950 . S
C1923 N1919 1.374 . S
C1923 C1922 1.439 . S
C1923 C1948 1.395 . S
N1924 Co1913 1.995 . S
N1924 C1925 1.376 . S
N1924 C1928 1.383 . S
C1925 N1924 1.376 . S
C1925 C1926 1.446 . S
C1925 C1948 1.391 . S
C1926 C1925 1.446 . S
C1926 C1927 1.339 . S
C1926 H1955 0.949 . S
C1927 C1926 1.339 . S
C1927 C1928 1.439 . S
C1927 H1956 0.950 . S
C1928 N1924 1.383 . S
C1928 C1927 1.439 . S
C1928 C1946 1.392 . S
N1929 Co1913 2.282 . S
N1929 C1932 1.332 . S
N1929 C1934 1.332 . S
C1930 C1931 1.386 . S
C1930 C1933 1.388 . S
C1931 C1930 1.386 . S
C1931 C1932 1.382 . S
C1931 H1957 0.950 . S
C1932 N1929 1.332 . S
C1932 C1931 1.382 . S
C1932 H1943 0.952 . S
C1933 C1930 1.388 . S
C1933 C1934 1.382 . S
C1933 H1958 0.950 . S
C1934 N1929 1.332 . S
C1934 C1933 1.382 . S
C1934 H1944 0.948 . S
N1935 Co1913 2.282 . S
N1935 C1939 1.332 . S
N1935 C1940 1.332 . S
C1936 C1937 1.388 . S
C1936 C1940 1.382 . S
C1936 H1959 0.950 . S
C1937 C1936 1.388 . S
C1937 C1938 1.386 . S
C1938 C1937 1.386 . S
C1938 C1939 1.382 . S
C1938 H1960 0.950 . S
C1939 N1935 1.332 . S
C1939 C1938 1.382 . S
C1939 H1941 0.952 . S
C1940 N1935 1.332 . S
C1940 C1936 1.382 . S
C1940 H1942 0.948 . S
H1941 C1939 0.952 . S
H1942 C1940 0.948 . S
H1943 C1932 0.952 . S
H1944 C1934 0.948 . S
C1945 C1911 1.395 . S
C1945 C1915 1.391 . S
C1946 C1908 1.389 . S
C1946 C1928 1.392 . S
C1947 C1918 1.392 . S
C1947 C1920 1.389 . S
C1948 C1923 1.395 . S
C1948 C1925 1.391 . S
H1949 C1909 0.951 . S
H1950 C1910 0.950 . S
H1951 C1916 0.949 . S
H1952 C1917 0.950 . S
H1953 C1921 0.951 . S
H1954 C1922 0.950 . S
H1955 C1926 0.949 . S
H1956 C1927 0.950 . S
H1957 C1931 0.950 . S
H1958 C1933 0.950 . S
H1959 C1936 0.950 . S
H1960 C1938 0.950 . S
C1961 C1962 1.443 . S
C1961 N1965 1.376 . S
C1961 C1999 1.389 . S
C1962 C1961 1.443 . S
C1962 C1963 1.340 . S
C1962 H2002 0.951 . S
C1963 C1962 1.340 . S
C1963 C1964 1.439 . S
C1963 H2003 0.950 . S
C1964 C1963 1.439 . S
C1964 N1965 1.374 . S
C1964 C1998 1.395 . S
N1965 C1961 1.376 . S
N1965 C1964 1.374 . S
N1965 Co1966 2.008 . S
Co1966 N1965 2.008 . S
Co1966 N1967 1.995 . S
Co1966 N1972 2.008 . S
Co1966 N1977 1.995 . S
Co1966 N1982 2.282 . S
Co1966 N1988 2.282 . S
N1967 Co1966 1.995 . S
N1967 C1968 1.376 . S
N1967 C1971 1.383 . S
C1968 N1967 1.376 . S
C1968 C1969 1.446 . S
C1968 C1998 1.391 . S
C1969 C1968 1.446 . S
C1969 C1970 1.339 . S
C1969 H2004 0.949 . S
C1970 C1969 1.339 . S
C1970 C1971 1.439 . S
C1970 H2005 0.950 . S
C1971 N1967 1.383 . S
C1971 C1970 1.439 . S
C1971 C2000 1.392 . S
N1972 Co1966 2.008 . S
N1972 C1973 1.376 . S
N1972 C1976 1.374 . S
C1973 N1972 1.376 . S
C1973 C1974 1.443 . S
C1973 C2000 1.389 . S
C1974 C1973 1.443 . S
C1974 C1975 1.340 . S
C1974 H2006 0.951 . S
C1975 C1974 1.340 . S
C1975 C1976 1.439 . S
C1975 H2007 0.950 . S
C1976 N1972 1.374 . S
C1976 C1975 1.439 . S
C1976 C2001 1.395 . S
N1977 Co1966 1.995 . S
N1977 C1978 1.376 . S
N1977 C1981 1.383 . S
C1978 N1977 1.376 . S
C1978 C1979 1.446 . S
C1978 C2001 1.391 . S
C1979 C1978 1.446 . S
C1979 C1980 1.339 . S
C1979 H2008 0.949 . S
C1980 C1979 1.339 . S
C1980 C1981 1.439 . S
C1980 H2009 0.950 . S
C1981 N1977 1.383 . S
C1981 C1980 1.439 . S
C1981 C1999 1.392 . S
N1982 Co1966 2.282 . S
N1982 C1985 1.332 . S
N1982 C1987 1.332 . S
C1983 C1984 1.386 . S
C1983 C1986 1.388 . S
C1984 C1983 1.386 . S
C1984 C1985 1.382 . S
C1984 H2010 0.950 . S
C1985 N1982 1.332 . S
C1985 C1984 1.382 . S
C1985 H1996 0.952 . S
C1986 C1983 1.388 . S
C1986 C1987 1.382 . S
C1986 H2011 0.950 . S
C1987 N1982 1.332 . S
C1987 C1986 1.382 . S
C1987 H1997 0.948 . S
N1988 Co1966 2.282 . S
N1988 C1992 1.332 . S
N1988 C1993 1.332 . S
C1989 C1990 1.388 . S
C1989 C1993 1.382 . S
C1989 H2012 0.950 . S
C1990 C1989 1.388 . S
C1990 C1991 1.386 . S
C1991 C1990 1.386 . S
C1991 C1992 1.382 . S
C1991 H2013 0.950 . S
C1992 N1988 1.332 . S
C1992 C1991 1.382 . S
C1992 H1994 0.952 . S
C1993 N1988 1.332 . S
C1993 C1989 1.382 . S
C1993 H1995 0.948 . S
H1994 C1992 0.952 . S
H1995 C1993 0.948 . S
H1996 C1985 0.952 . S
H1997 C1987 0.948 . S
C1998 C1964 1.395 . S
C1998 C1968 1.391 . S
C1999 C1961 1.389 . S
C1999 C1981 1.392 . S
C2000 C1971 1.392 . S
C2000 C1973 1.389 . S
C2001 C1976 1.395 . S
C2001 C1978 1.391 . S
H2002 C1962 0.951 . S
H2003 C1963 0.950 . S
H2004 C1969 0.949 . S
H2005 C1970 0.950 . S
H2006 C1974 0.951 . S
H2007 C1975 0.950 . S
H2008 C1979 0.949 . S
H2009 C1980 0.950 . S
H2010 C1984 0.950 . S
H2011 C1986 0.950 . S
H2012 C1989 0.950 . S
H2013 C1991 0.950 . S
C2014 C2015 1.443 . S
C2014 N2018 1.376 . S
C2014 C2052 1.389 . S
C2015 C2014 1.443 . S
C2015 C2016 1.340 . S
C2015 H2055 0.951 . S
C2016 C2015 1.340 . S
C2016 C2017 1.439 . S
C2016 H2056 0.950 . S
C2017 C2016 1.439 . S
C2017 N2018 1.374 . S
C2017 C2051 1.395 . S
N2018 C2014 1.376 . S
N2018 C2017 1.374 . S
N2018 Co2019 2.008 . S
Co2019 N2018 2.008 . S
Co2019 N2020 1.995 . S
Co2019 N2025 2.008 . S
Co2019 N2030 1.995 . S
Co2019 N2035 2.282 . S
Co2019 N2041 2.282 . S
N2020 Co2019 1.995 . S
N2020 C2021 1.376 . S
N2020 C2024 1.383 . S
C2021 N2020 1.376 . S
C2021 C2022 1.446 . S
C2021 C2051 1.391 . S
C2022 C2021 1.446 . S
C2022 C2023 1.339 . S
C2022 H2057 0.949 . S
C2023 C2022 1.339 . S
C2023 C2024 1.439 . S
C2023 H2058 0.950 . S
C2024 N2020 1.383 . S
C2024 C2023 1.439 . S
C2024 C2053 1.392 . S
N2025 Co2019 2.008 . S
N2025 C2026 1.376 . S
N2025 C2029 1.374 . S
C2026 N2025 1.376 . S
C2026 C2027 1.443 . S
C2026 C2053 1.389 . S
C2027 C2026 1.443 . S
C2027 C2028 1.340 . S
C2027 H2059 0.951 . S
C2028 C2027 1.340 . S
C2028 C2029 1.439 . S
C2028 H2060 0.950 . S
C2029 N2025 1.374 . S
C2029 C2028 1.439 . S
C2029 C2054 1.395 . S
N2030 Co2019 1.995 . S
N2030 C2031 1.376 . S
N2030 C2034 1.383 . S
C2031 N2030 1.376 . S
C2031 C2032 1.446 . S
C2031 C2054 1.391 . S
C2032 C2031 1.446 . S
C2032 C2033 1.339 . S
C2032 H2061 0.949 . S
C2033 C2032 1.339 . S
C2033 C2034 1.439 . S
C2033 H2062 0.950 . S
C2034 N2030 1.383 . S
C2034 C2033 1.439 . S
C2034 C2052 1.392 . S
N2035 Co2019 2.282 . S
N2035 C2038 1.332 . S
N2035 C2040 1.332 . S
C2036 C2037 1.386 . S
C2036 C2039 1.388 . S
C2037 C2036 1.386 . S
C2037 C2038 1.382 . S
C2037 H2063 0.950 . S
C2038 N2035 1.332 . S
C2038 C2037 1.382 . S
C2038 H2049 0.952 . S
C2039 C2036 1.388 . S
C2039 C2040 1.382 . S
C2039 H2064 0.950 . S
C2040 N2035 1.332 . S
C2040 C2039 1.382 . S
C2040 H2050 0.948 . S
N2041 Co2019 2.282 . S
N2041 C2045 1.332 . S
N2041 C2046 1.332 . S
C2042 C2043 1.388 . S
C2042 C2046 1.382 . S
C2042 H2065 0.950 . S
C2043 C2042 1.388 . S
C2043 C2044 1.386 . S
C2044 C2043 1.386 . S
C2044 C2045 1.382 . S
C2044 H2066 0.950 . S
C2045 N2041 1.332 . S
C2045 C2044 1.382 . S
C2045 H2047 0.952 . S
C2046 N2041 1.332 . S
C2046 C2042 1.382 . S
C2046 H2048 0.948 . S
H2047 C2045 0.952 . S
H2048 C2046 0.948 . S
H2049 C2038 0.952 . S
H2050 C2040 0.948 . S
C2051 C2017 1.395 . S
C2051 C2021 1.391 . S
C2052 C2014 1.389 . S
C2052 C2034 1.392 . S
C2053 C2024 1.392 . S
C2053 C2026 1.389 . S
C2054 C2029 1.395 . S
C2054 C2031 1.391 . S
H2055 C2015 0.951 . S
H2056 C2016 0.950 . S
H2057 C2022 0.949 . S
H2058 C2023 0.950 . S
H2059 C2027 0.951 . S
H2060 C2028 0.950 . S
H2061 C2032 0.949 . S
H2062 C2033 0.950 . S
H2063 C2037 0.950 . S
H2064 C2039 0.950 . S
H2065 C2042 0.950 . S
H2066 C2044 0.950 . S
C2067 C2068 1.443 . S
C2067 N2071 1.376 . S
C2067 C2105 1.389 . S
C2068 C2067 1.443 . S
C2068 C2069 1.340 . S
C2068 H2108 0.951 . S
C2069 C2068 1.340 . S
C2069 C2070 1.439 . S
C2069 H2109 0.950 . S
C2070 C2069 1.439 . S
C2070 N2071 1.374 . S
C2070 C2104 1.395 . S
N2071 C2067 1.376 . S
N2071 C2070 1.374 . S
N2071 Co2072 2.008 . S
Co2072 N2071 2.008 . S
Co2072 N2073 1.995 . S
Co2072 N2078 2.008 . S
Co2072 N2083 1.995 . S
Co2072 N2088 2.282 . S
Co2072 N2094 2.282 . S
N2073 Co2072 1.995 . S
N2073 C2074 1.376 . S
N2073 C2077 1.383 . S
C2074 N2073 1.376 . S
C2074 C2075 1.446 . S
C2074 C2104 1.391 . S
C2075 C2074 1.446 . S
C2075 C2076 1.339 . S
C2075 H2110 0.949 . S
C2076 C2075 1.339 . S
C2076 C2077 1.439 . S
C2076 H2111 0.950 . S
C2077 N2073 1.383 . S
C2077 C2076 1.439 . S
C2077 C2106 1.392 . S
N2078 Co2072 2.008 . S
N2078 C2079 1.376 . S
N2078 C2082 1.374 . S
C2079 N2078 1.376 . S
C2079 C2080 1.443 . S
C2079 C2106 1.389 . S
C2080 C2079 1.443 . S
C2080 C2081 1.340 . S
C2080 H2112 0.951 . S
C2081 C2080 1.340 . S
C2081 C2082 1.439 . S
C2081 H2113 0.950 . S
C2082 N2078 1.374 . S
C2082 C2081 1.439 . S
C2082 C2107 1.395 . S
N2083 Co2072 1.995 . S
N2083 C2084 1.376 . S
N2083 C2087 1.383 . S
C2084 N2083 1.376 . S
C2084 C2085 1.446 . S
C2084 C2107 1.391 . S
C2085 C2084 1.446 . S
C2085 C2086 1.339 . S
C2085 H2114 0.949 . S
C2086 C2085 1.339 . S
C2086 C2087 1.439 . S
C2086 H2115 0.950 . S
C2087 N2083 1.383 . S
C2087 C2086 1.439 . S
C2087 C2105 1.392 . S
N2088 Co2072 2.282 . S
N2088 C2091 1.332 . S
N2088 C2093 1.332 . S
C2089 C2090 1.386 . S
C2089 C2092 1.388 . S
C2090 C2089 1.386 . S
C2090 C2091 1.382 . S
C2090 H2116 0.950 . S
C2091 N2088 1.332 . S
C2091 C2090 1.382 . S
C2091 H2102 0.952 . S
C2092 C2089 1.388 . S
C2092 C2093 1.382 . S
C2092 H2117 0.950 . S
C2093 N2088 1.332 . S
C2093 C2092 1.382 . S
C2093 H2103 0.948 . S
N2094 Co2072 2.282 . S
N2094 C2098 1.332 . S
N2094 C2099 1.332 . S
C2095 C2096 1.388 . S
C2095 C2099 1.382 . S
C2095 H2118 0.950 . S
C2096 C2095 1.388 . S
C2096 C2097 1.386 . S
C2097 C2096 1.386 . S
C2097 C2098 1.382 . S
C2097 H2119 0.950 . S
C2098 N2094 1.332 . S
C2098 C2097 1.382 . S
C2098 H2100 0.952 . S
C2099 N2094 1.332 . S
C2099 C2095 1.382 . S
C2099 H2101 0.948 . S
H2100 C2098 0.952 . S
H2101 C2099 0.948 . S
H2102 C2091 0.952 . S
H2103 C2093 0.948 . S
C2104 C2070 1.395 . S
C2104 C2074 1.391 . S
C2105 C2067 1.389 . S
C2105 C2087 1.392 . S
C2106 C2077 1.392 . S
C2106 C2079 1.389 . S
C2107 C2082 1.395 . S
C2107 C2084 1.391 . S
H2108 C2068 0.951 . S
H2109 C2069 0.950 . S
H2110 C2075 0.949 . S
H2111 C2076 0.950 . S
H2112 C2080 0.951 . S
H2113 C2081 0.950 . S
H2114 C2085 0.949 . S
H2115 C2086 0.950 . S
H2116 C2090 0.950 . S
H2117 C2092 0.950 . S
H2118 C2095 0.950 . S
H2119 C2097 0.950 . S
C2120 C2121 1.443 . S
C2120 N2124 1.376 . S
C2120 C2158 1.389 . S
C2121 C2120 1.443 . S
C2121 C2122 1.340 . S
C2121 H2161 0.951 . S
C2122 C2121 1.340 . S
C2122 C2123 1.439 . S
C2122 H2162 0.950 . S
C2123 C2122 1.439 . S
C2123 N2124 1.374 . S
C2123 C2157 1.395 . S
N2124 C2120 1.376 . S
N2124 C2123 1.374 . S
N2124 Co2125 2.008 . S
Co2125 N2124 2.008 . S
Co2125 N2126 1.995 . S
Co2125 N2131 2.008 . S
Co2125 N2136 1.995 . S
Co2125 N2141 2.282 . S
Co2125 N2147 2.282 . S
N2126 Co2125 1.995 . S
N2126 C2127 1.376 . S
N2126 C2130 1.383 . S
C2127 N2126 1.376 . S
C2127 C2128 1.446 . S
C2127 C2157 1.391 . S
C2128 C2127 1.446 . S
C2128 C2129 1.339 . S
C2128 H2163 0.949 . S
C2129 C2128 1.339 . S
C2129 C2130 1.439 . S
C2129 H2164 0.950 . S
C2130 N2126 1.383 . S
C2130 C2129 1.439 . S
C2130 C2159 1.392 . S
N2131 Co2125 2.008 . S
N2131 C2132 1.376 . S
N2131 C2135 1.374 . S
C2132 N2131 1.376 . S
C2132 C2133 1.443 . S
C2132 C2159 1.389 . S
C2133 C2132 1.443 . S
C2133 C2134 1.340 . S
C2133 H2165 0.951 . S
C2134 C2133 1.340 . S
C2134 C2135 1.439 . S
C2134 H2166 0.950 . S
C2135 N2131 1.374 . S
C2135 C2134 1.439 . S
C2135 C2160 1.395 . S
N2136 Co2125 1.995 . S
N2136 C2137 1.376 . S
N2136 C2140 1.383 . S
C2137 N2136 1.376 . S
C2137 C2138 1.446 . S
C2137 C2160 1.391 . S
C2138 C2137 1.446 . S
C2138 C2139 1.339 . S
C2138 H2167 0.949 . S
C2139 C2138 1.339 . S
C2139 C2140 1.439 . S
C2139 H2168 0.950 . S
C2140 N2136 1.383 . S
C2140 C2139 1.439 . S
C2140 C2158 1.392 . S
N2141 Co2125 2.282 . S
N2141 C2144 1.332 . S
N2141 C2146 1.332 . S
C2142 C2143 1.386 . S
C2142 C2145 1.388 . S
C2143 C2142 1.386 . S
C2143 C2144 1.382 . S
C2143 H2169 0.950 . S
C2144 N2141 1.332 . S
C2144 C2143 1.382 . S
C2144 H2155 0.952 . S
C2145 C2142 1.388 . S
C2145 C2146 1.382 . S
C2145 H2170 0.950 . S
C2146 N2141 1.332 . S
C2146 C2145 1.382 . S
C2146 H2156 0.948 . S
N2147 Co2125 2.282 . S
N2147 C2151 1.332 . S
N2147 C2152 1.332 . S
C2148 C2149 1.388 . S
C2148 C2152 1.382 . S
C2148 H2171 0.950 . S
C2149 C2148 1.388 . S
C2149 C2150 1.386 . S
C2150 C2149 1.386 . S
C2150 C2151 1.382 . S
C2150 H2172 0.950 . S
C2151 N2147 1.332 . S
C2151 C2150 1.382 . S
C2151 H2153 0.952 . S
C2152 N2147 1.332 . S
C2152 C2148 1.382 . S
C2152 H2154 0.948 . S
H2153 C2151 0.952 . S
H2154 C2152 0.948 . S
H2155 C2144 0.952 . S
H2156 C2146 0.948 . S
C2157 C2123 1.395 . S
C2157 C2127 1.391 . S
C2158 C2120 1.389 . S
C2158 C2140 1.392 . S
C2159 C2130 1.392 . S
C2159 C2132 1.389 . S
C2160 C2135 1.395 . S
C2160 C2137 1.391 . S
H2161 C2121 0.951 . S
H2162 C2122 0.950 . S
H2163 C2128 0.949 . S
H2164 C2129 0.950 . S
H2165 C2133 0.951 . S
H2166 C2134 0.950 . S
H2167 C2138 0.949 . S
H2168 C2139 0.950 . S
H2169 C2143 0.950 . S
H2170 C2145 0.950 . S
H2171 C2148 0.950 . S
H2172 C2150 0.950 . S
C2173 C2174 1.443 . S
C2173 N2177 1.376 . S
C2173 C2211 1.389 . S
C2174 C2173 1.443 . S
C2174 C2175 1.340 . S
C2174 H2214 0.951 . S
C2175 C2174 1.340 . S
C2175 C2176 1.439 . S
C2175 H2215 0.950 . S
C2176 C2175 1.439 . S
C2176 N2177 1.374 . S
C2176 C2210 1.395 . S
N2177 C2173 1.376 . S
N2177 C2176 1.374 . S
N2177 Co2178 2.008 . S
Co2178 N2177 2.008 . S
Co2178 N2179 1.995 . S
Co2178 N2184 2.008 . S
Co2178 N2189 1.995 . S
Co2178 N2194 2.282 . S
Co2178 N2200 2.282 . S
N2179 Co2178 1.995 . S
N2179 C2180 1.376 . S
N2179 C2183 1.383 . S
C2180 N2179 1.376 . S
C2180 C2181 1.446 . S
C2180 C2210 1.391 . S
C2181 C2180 1.446 . S
C2181 C2182 1.339 . S
C2181 H2216 0.949 . S
C2182 C2181 1.339 . S
C2182 C2183 1.439 . S
C2182 H2217 0.950 . S
C2183 N2179 1.383 . S
C2183 C2182 1.439 . S
C2183 C2212 1.392 . S
N2184 Co2178 2.008 . S
N2184 C2185 1.376 . S
N2184 C2188 1.374 . S
C2185 N2184 1.376 . S
C2185 C2186 1.443 . S
C2185 C2212 1.389 . S
C2186 C2185 1.443 . S
C2186 C2187 1.340 . S
C2186 H2218 0.951 . S
C2187 C2186 1.340 . S
C2187 C2188 1.439 . S
C2187 H2219 0.950 . S
C2188 N2184 1.374 . S
C2188 C2187 1.439 . S
C2188 C2213 1.395 . S
N2189 Co2178 1.995 . S
N2189 C2190 1.376 . S
N2189 C2193 1.383 . S
C2190 N2189 1.376 . S
C2190 C2191 1.446 . S
C2190 C2213 1.391 . S
C2191 C2190 1.446 . S
C2191 C2192 1.339 . S
C2191 H2220 0.949 . S
C2192 C2191 1.339 . S
C2192 C2193 1.439 . S
C2192 H2221 0.950 . S
C2193 N2189 1.383 . S
C2193 C2192 1.439 . S
C2193 C2211 1.392 . S
N2194 Co2178 2.282 . S
N2194 C2197 1.332 . S
N2194 C2199 1.332 . S
C2195 C2196 1.386 . S
C2195 C2198 1.388 . S
C2196 C2195 1.386 . S
C2196 C2197 1.382 . S
C2196 H2222 0.950 . S
C2197 N2194 1.332 . S
C2197 C2196 1.382 . S
C2197 H2208 0.952 . S
C2198 C2195 1.388 . S
C2198 C2199 1.382 . S
C2198 H2223 0.950 . S
C2199 N2194 1.332 . S
C2199 C2198 1.382 . S
C2199 H2209 0.948 . S
N2200 Co2178 2.282 . S
N2200 C2204 1.332 . S
N2200 C2205 1.332 . S
C2201 C2202 1.388 . S
C2201 C2205 1.382 . S
C2201 H2224 0.950 . S
C2202 C2201 1.388 . S
C2202 C2203 1.386 . S
C2203 C2202 1.386 . S
C2203 C2204 1.382 . S
C2203 H2225 0.950 . S
C2204 N2200 1.332 . S
C2204 C2203 1.382 . S
C2204 H2206 0.952 . S
C2205 N2200 1.332 . S
C2205 C2201 1.382 . S
C2205 H2207 0.948 . S
H2206 C2204 0.952 . S
H2207 C2205 0.948 . S
H2208 C2197 0.952 . S
H2209 C2199 0.948 . S
C2210 C2176 1.395 . S
C2210 C2180 1.391 . S
C2211 C2173 1.389 . S
C2211 C2193 1.392 . S
C2212 C2183 1.392 . S
C2212 C2185 1.389 . S
C2213 C2188 1.395 . S
C2213 C2190 1.391 . S
H2214 C2174 0.951 . S
H2215 C2175 0.950 . S
H2216 C2181 0.949 . S
H2217 C2182 0.950 . S
H2218 C2186 0.951 . S
H2219 C2187 0.950 . S
H2220 C2191 0.949 . S
H2221 C2192 0.950 . S
H2222 C2196 0.950 . S
H2223 C2198 0.950 . S
H2224 C2201 0.950 . S
H2225 C2203 0.950 . S
C2226 C2227 1.443 . S
C2226 N2230 1.376 . S
C2226 C2264 1.389 . S
C2227 C2226 1.443 . S
C2227 C2228 1.340 . S
C2227 H2267 0.951 . S
C2228 C2227 1.340 . S
C2228 C2229 1.439 . S
C2228 H2268 0.950 . S
C2229 C2228 1.439 . S
C2229 N2230 1.374 . S
C2229 C2263 1.395 . S
N2230 C2226 1.376 . S
N2230 C2229 1.374 . S
N2230 Co2231 2.008 1_565 S
Co2231 N2230 2.008 1_545 S
Co2231 N2232 1.995 . S
Co2231 N2237 2.008 . S
Co2231 N2242 1.995 1_545 S
Co2231 N2247 2.282 1_545 S
Co2231 N2253 2.282 . S
N2232 Co2231 1.995 . S
N2232 C2233 1.376 . S
N2232 C2236 1.383 . S
C2233 N2232 1.376 . S
C2233 C2234 1.446 . S
C2233 C2263 1.391 1_545 S
C2234 C2233 1.446 . S
C2234 C2235 1.339 . S
C2234 H2269 0.949 . S
C2235 C2234 1.339 . S
C2235 C2236 1.439 . S
C2235 H2270 0.950 . S
C2236 N2232 1.383 . S
C2236 C2235 1.439 . S
C2236 C2265 1.392 . S
N2237 Co2231 2.008 . S
N2237 C2238 1.376 . S
N2237 C2241 1.374 . S
C2238 N2237 1.376 . S
C2238 C2239 1.443 . S
C2238 C2265 1.389 . S
C2239 C2238 1.443 . S
C2239 C2240 1.340 . S
C2239 H2271 0.951 . S
C2240 C2239 1.340 . S
C2240 C2241 1.439 . S
C2240 H2272 0.950 . S
C2241 N2237 1.374 . S
C2241 C2240 1.439 . S
C2241 C2266 1.395 . S
N2242 Co2231 1.995 1_565 S
N2242 C2243 1.376 1_565 S
N2242 C2246 1.383 . S
C2243 N2242 1.376 1_545 S
C2243 C2244 1.446 1_545 S
C2243 C2266 1.391 . S
C2244 C2243 1.446 1_565 S
C2244 C2245 1.339 . S
C2244 H2273 0.949 . S
C2245 C2244 1.339 . S
C2245 C2246 1.439 . S
C2245 H2274 0.950 . S
C2246 N2242 1.383 . S
C2246 C2245 1.439 . S
C2246 C2264 1.392 . S
N2247 Co2231 2.282 1_565 S
N2247 C2250 1.332 . S
N2247 C2252 1.332 . S
C2248 C2249 1.386 . S
C2248 C2251 1.388 . S
C2249 C2248 1.386 . S
C2249 C2250 1.382 . S
C2249 H2275 0.950 . S
C2250 N2247 1.332 . S
C2250 C2249 1.382 . S
C2250 H2261 0.952 . S
C2251 C2248 1.388 . S
C2251 C2252 1.382 . S
C2251 H2276 0.950 . S
C2252 N2247 1.332 . S
C2252 C2251 1.382 . S
C2252 H2262 0.948 . S
N2253 Co2231 2.282 . S
N2253 C2257 1.332 . S
N2253 C2258 1.332 . S
C2254 C2255 1.388 . S
C2254 C2258 1.382 . S
C2254 H2277 0.950 . S
C2255 C2254 1.388 . S
C2255 C2256 1.386 . S
C2256 C2255 1.386 . S
C2256 C2257 1.382 . S
C2256 H2278 0.950 . S
C2257 N2253 1.332 . S
C2257 C2256 1.382 . S
C2257 H2259 0.952 . S
C2258 N2253 1.332 . S
C2258 C2254 1.382 . S
C2258 H2260 0.948 . S
H2259 C2257 0.952 . S
H2260 C2258 0.948 . S
H2261 C2250 0.952 . S
H2262 C2252 0.948 . S
C2263 C2229 1.395 . S
C2263 C2233 1.391 1_565 S
C2264 C2226 1.389 . S
C2264 C2246 1.392 . S
C2265 C2236 1.392 . S
C2265 C2238 1.389 . S
C2266 C2241 1.395 . S
C2266 C2243 1.391 . S
H2267 C2227 0.951 . S
H2268 C2228 0.950 . S
H2269 C2234 0.949 . S
H2270 C2235 0.950 . S
H2271 C2239 0.951 . S
H2272 C2240 0.950 . S
H2273 C2244 0.949 . S
H2274 C2245 0.950 . S
H2275 C2249 0.950 . S
H2276 C2251 0.950 . S
H2277 C2254 0.950 . S
H2278 C2256 0.950 . S
C2279 C2280 1.443 . S
C2279 N2283 1.376 . S
C2279 C2317 1.389 . S
C2280 C2279 1.443 . S
C2280 C2281 1.340 . S
C2280 H2320 0.951 . S
C2281 C2280 1.340 . S
C2281 C2282 1.439 . S
C2281 H2321 0.950 . S
C2282 C2281 1.439 . S
C2282 N2283 1.374 . S
C2282 C2316 1.395 . S
N2283 C2279 1.376 . S
N2283 C2282 1.374 . S
N2283 Co2284 2.008 . S
Co2284 N2283 2.008 . S
Co2284 N2285 1.995 . S
Co2284 N2290 2.008 . S
Co2284 N2295 1.995 . S
Co2284 N2300 2.282 . S
Co2284 N2306 2.282 . S
N2285 Co2284 1.995 . S
N2285 C2286 1.376 . S
N2285 C2289 1.383 . S
C2286 N2285 1.376 . S
C2286 C2287 1.446 . S
C2286 C2316 1.391 . S
C2287 C2286 1.446 . S
C2287 C2288 1.339 . S
C2287 H2322 0.949 . S
C2288 C2287 1.339 . S
C2288 C2289 1.439 . S
C2288 H2323 0.950 . S
C2289 N2285 1.383 . S
C2289 C2288 1.439 . S
C2289 C2318 1.392 . S
N2290 Co2284 2.008 . S
N2290 C2291 1.376 . S
N2290 C2294 1.374 . S
C2291 N2290 1.376 . S
C2291 C2292 1.443 . S
C2291 C2318 1.389 . S
C2292 C2291 1.443 . S
C2292 C2293 1.340 . S
C2292 H2324 0.951 . S
C2293 C2292 1.340 . S
C2293 C2294 1.439 . S
C2293 H2325 0.950 . S
C2294 N2290 1.374 . S
C2294 C2293 1.439 . S
C2294 C2319 1.395 . S
N2295 Co2284 1.995 . S
N2295 C2296 1.376 . S
N2295 C2299 1.383 . S
C2296 N2295 1.376 . S
C2296 C2297 1.446 . S
C2296 C2319 1.391 . S
C2297 C2296 1.446 . S
C2297 C2298 1.339 . S
C2297 H2326 0.949 . S
C2298 C2297 1.339 . S
C2298 C2299 1.439 . S
C2298 H2327 0.950 . S
C2299 N2295 1.383 . S
C2299 C2298 1.439 . S
C2299 C2317 1.392 . S
N2300 Co2284 2.282 . S
N2300 C2303 1.332 . S
N2300 C2305 1.332 . S
C2301 C2302 1.386 . S
C2301 C2304 1.388 . S
C2302 C2301 1.386 . S
C2302 C2303 1.382 . S
C2302 H2328 0.950 . S
C2303 N2300 1.332 . S
C2303 C2302 1.382 . S
C2303 H2314 0.952 . S
C2304 C2301 1.388 . S
C2304 C2305 1.382 . S
C2304 H2329 0.950 . S
C2305 N2300 1.332 . S
C2305 C2304 1.382 . S
C2305 H2315 0.948 . S
N2306 Co2284 2.282 . S
N2306 C2310 1.332 . S
N2306 C2311 1.332 . S
C2307 C2308 1.388 . S
C2307 C2311 1.382 . S
C2307 H2330 0.950 . S
C2308 C2307 1.388 . S
C2308 C2309 1.386 . S
C2309 C2308 1.386 . S
C2309 C2310 1.382 . S
C2309 H2331 0.950 . S
C2310 N2306 1.332 . S
C2310 C2309 1.382 . S
C2310 H2312 0.952 . S
C2311 N2306 1.332 . S
C2311 C2307 1.382 . S
C2311 H2313 0.948 . S
H2312 C2310 0.952 . S
H2313 C2311 0.948 . S
H2314 C2303 0.952 . S
H2315 C2305 0.948 . S
C2316 C2282 1.395 . S
C2316 C2286 1.391 . S
C2317 C2279 1.389 . S
C2317 C2299 1.392 . S
C2318 C2289 1.392 . S
C2318 C2291 1.389 . S
C2319 C2294 1.395 . S
C2319 C2296 1.391 . S
H2320 C2280 0.951 . S
H2321 C2281 0.950 . S
H2322 C2287 0.949 . S
H2323 C2288 0.950 . S
H2324 C2292 0.951 . S
H2325 C2293 0.950 . S
H2326 C2297 0.949 . S
H2327 C2298 0.950 . S
H2328 C2302 0.950 . S
H2329 C2304 0.950 . S
H2330 C2307 0.950 . S
H2331 C2309 0.950 . S
C2332 C2333 1.443 . S
C2332 N2336 1.376 . S
C2332 C2370 1.389 . S
C2333 C2332 1.443 . S
C2333 C2334 1.340 . S
C2333 H2373 0.951 . S
C2334 C2333 1.340 . S
C2334 C2335 1.439 . S
C2334 H2374 0.950 . S
C2335 C2334 1.439 . S
C2335 N2336 1.374 . S
C2335 C2369 1.395 . S
N2336 C2332 1.376 . S
N2336 C2335 1.374 . S
N2336 Co2337 2.008 1_545 S
Co2337 N2336 2.008 1_565 S
Co2337 N2338 1.995 . S
Co2337 N2343 2.008 . S
Co2337 N2348 1.995 1_565 S
Co2337 N2353 2.282 1_565 S
Co2337 N2359 2.282 . S
N2338 Co2337 1.995 . S
N2338 C2339 1.376 . S
N2338 C2342 1.383 . S
C2339 N2338 1.376 . S
C2339 C2340 1.446 . S
C2339 C2369 1.391 1_565 S
C2340 C2339 1.446 . S
C2340 C2341 1.339 . S
C2340 H2375 0.949 . S
C2341 C2340 1.339 . S
C2341 C2342 1.439 . S
C2341 H2376 0.950 . S
C2342 N2338 1.383 . S
C2342 C2341 1.439 . S
C2342 C2371 1.392 . S
N2343 Co2337 2.008 . S
N2343 C2344 1.376 . S
N2343 C2347 1.374 . S
C2344 N2343 1.376 . S
C2344 C2345 1.443 . S
C2344 C2371 1.389 . S
C2345 C2344 1.443 . S
C2345 C2346 1.340 . S
C2345 H2377 0.951 . S
C2346 C2345 1.340 . S
C2346 C2347 1.439 . S
C2346 H2378 0.950 . S
C2347 N2343 1.374 . S
C2347 C2346 1.439 . S
C2347 C2372 1.395 . S
N2348 Co2337 1.995 1_545 S
N2348 C2349 1.376 1_545 S
N2348 C2352 1.383 . S
C2349 N2348 1.376 1_565 S
C2349 C2350 1.446 1_565 S
C2349 C2372 1.391 . S
C2350 C2349 1.446 1_545 S
C2350 C2351 1.339 . S
C2350 H2379 0.949 . S
C2351 C2350 1.339 . S
C2351 C2352 1.439 . S
C2351 H2380 0.950 . S
C2352 N2348 1.383 . S
C2352 C2351 1.439 . S
C2352 C2370 1.392 . S
N2353 Co2337 2.282 1_545 S
N2353 C2356 1.332 . S
N2353 C2358 1.332 . S
C2354 C2355 1.386 . S
C2354 C2357 1.388 . S
C2355 C2354 1.386 . S
C2355 C2356 1.382 . S
C2355 H2381 0.950 . S
C2356 N2353 1.332 . S
C2356 C2355 1.382 . S
C2356 H2367 0.952 . S
C2357 C2354 1.388 . S
C2357 C2358 1.382 . S
C2357 H2382 0.950 . S
C2358 N2353 1.332 . S
C2358 C2357 1.382 . S
C2358 H2368 0.948 . S
N2359 Co2337 2.282 . S
N2359 C2363 1.332 . S
N2359 C2364 1.332 . S
C2360 C2361 1.388 . S
C2360 C2364 1.382 . S
C2360 H2383 0.950 . S
C2361 C2360 1.388 . S
C2361 C2362 1.386 . S
C2362 C2361 1.386 . S
C2362 C2363 1.382 . S
C2362 H2384 0.950 . S
C2363 N2359 1.332 . S
C2363 C2362 1.382 . S
C2363 H2365 0.952 . S
C2364 N2359 1.332 . S
C2364 C2360 1.382 . S
C2364 H2366 0.948 . S
H2365 C2363 0.952 . S
H2366 C2364 0.948 . S
H2367 C2356 0.952 . S
H2368 C2358 0.948 . S
C2369 C2335 1.395 . S
C2369 C2339 1.391 1_545 S
C2370 C2332 1.389 . S
C2370 C2352 1.392 . S
C2371 C2342 1.392 . S
C2371 C2344 1.389 . S
C2372 C2347 1.395 . S
C2372 C2349 1.391 . S
H2373 C2333 0.951 . S
H2374 C2334 0.950 . S
H2375 C2340 0.949 . S
H2376 C2341 0.950 . S
H2377 C2345 0.951 . S
H2378 C2346 0.950 . S
H2379 C2350 0.949 . S
H2380 C2351 0.950 . S
H2381 C2355 0.950 . S
H2382 C2357 0.950 . S
H2383 C2360 0.950 . S
H2384 C2362 0.950 . S
C2385 C2386 1.443 . S
C2385 N2389 1.376 . S
C2385 C2423 1.389 . S
C2386 C2385 1.443 . S
C2386 C2387 1.340 . S
C2386 H2426 0.951 . S
C2387 C2386 1.340 . S
C2387 C2388 1.439 . S
C2387 H2427 0.950 . S
C2388 C2387 1.439 . S
C2388 N2389 1.374 . S
C2388 C2422 1.395 . S
N2389 C2385 1.376 . S
N2389 C2388 1.374 . S
N2389 Co2390 2.008 . S
Co2390 N2389 2.008 . S
Co2390 N2391 1.995 . S
Co2390 N2396 2.008 . S
Co2390 N2401 1.995 . S
Co2390 N2406 2.282 . S
Co2390 N2412 2.282 . S
N2391 Co2390 1.995 . S
N2391 C2392 1.376 . S
N2391 C2395 1.383 . S
C2392 N2391 1.376 . S
C2392 C2393 1.446 . S
C2392 C2422 1.391 . S
C2393 C2392 1.446 . S
C2393 C2394 1.339 . S
C2393 H2428 0.949 . S
C2394 C2393 1.339 . S
C2394 C2395 1.439 . S
C2394 H2429 0.950 . S
C2395 N2391 1.383 . S
C2395 C2394 1.439 . S
C2395 C2424 1.392 . S
N2396 Co2390 2.008 . S
N2396 C2397 1.376 . S
N2396 C2400 1.374 . S
C2397 N2396 1.376 . S
C2397 C2398 1.443 . S
C2397 C2424 1.389 . S
C2398 C2397 1.443 . S
C2398 C2399 1.340 . S
C2398 H2430 0.951 . S
C2399 C2398 1.340 . S
C2399 C2400 1.439 . S
C2399 H2431 0.950 . S
C2400 N2396 1.374 . S
C2400 C2399 1.439 . S
C2400 C2425 1.395 . S
N2401 Co2390 1.995 . S
N2401 C2402 1.376 . S
N2401 C2405 1.383 . S
C2402 N2401 1.376 . S
C2402 C2403 1.446 . S
C2402 C2425 1.391 . S
C2403 C2402 1.446 . S
C2403 C2404 1.339 . S
C2403 H2432 0.949 . S
C2404 C2403 1.339 . S
C2404 C2405 1.439 . S
C2404 H2433 0.950 . S
C2405 N2401 1.383 . S
C2405 C2404 1.439 . S
C2405 C2423 1.392 . S
N2406 Co2390 2.282 . S
N2406 C2409 1.332 . S
N2406 C2411 1.332 . S
C2407 C2408 1.386 . S
C2407 C2410 1.388 . S
C2408 C2407 1.386 . S
C2408 C2409 1.382 . S
C2408 H2434 0.950 . S
C2409 N2406 1.332 . S
C2409 C2408 1.382 . S
C2409 H2420 0.952 . S
C2410 C2407 1.388 . S
C2410 C2411 1.382 . S
C2410 H2435 0.950 . S
C2411 N2406 1.332 . S
C2411 C2410 1.382 . S
C2411 H2421 0.948 . S
N2412 Co2390 2.282 . S
N2412 C2416 1.332 . S
N2412 C2417 1.332 . S
C2413 C2414 1.388 . S
C2413 C2417 1.382 . S
C2413 H2436 0.950 . S
C2414 C2413 1.388 . S
C2414 C2415 1.386 . S
C2415 C2414 1.386 . S
C2415 C2416 1.382 . S
C2415 H2437 0.950 . S
C2416 N2412 1.332 . S
C2416 C2415 1.382 . S
C2416 H2418 0.952 . S
C2417 N2412 1.332 . S
C2417 C2413 1.382 . S
C2417 H2419 0.948 . S
H2418 C2416 0.952 . S
H2419 C2417 0.948 . S
H2420 C2409 0.952 . S
H2421 C2411 0.948 . S
C2422 C2388 1.395 . S
C2422 C2392 1.391 . S
C2423 C2385 1.389 . S
C2423 C2405 1.392 . S
C2424 C2395 1.392 . S
C2424 C2397 1.389 . S
C2425 C2400 1.395 . S
C2425 C2402 1.391 . S
H2426 C2386 0.951 . S
H2427 C2387 0.950 . S
H2428 C2393 0.949 . S
H2429 C2394 0.950 . S
H2430 C2398 0.951 . S
H2431 C2399 0.950 . S
H2432 C2403 0.949 . S
H2433 C2404 0.950 . S
H2434 C2408 0.950 . S
H2435 C2410 0.950 . S
H2436 C2413 0.950 . S
H2437 C2415 0.950 . S
C2438 C2439 1.443 . S
C2438 N2442 1.376 . S
C2438 C2476 1.389 . S
C2439 C2438 1.443 . S
C2439 C2440 1.340 . S
C2439 H2479 0.951 . S
C2440 C2439 1.340 . S
C2440 C2441 1.439 . S
C2440 H2480 0.950 . S
C2441 C2440 1.439 . S
C2441 N2442 1.374 . S
C2441 C2475 1.395 . S
N2442 C2438 1.376 . S
N2442 C2441 1.374 . S
N2442 Co2443 2.008 1_545 S
Co2443 N2442 2.008 1_565 S
Co2443 N2444 1.995 . S
Co2443 N2449 2.008 . S
Co2443 N2454 1.995 1_565 S
Co2443 N2459 2.282 1_565 S
Co2443 N2465 2.282 . S
N2444 Co2443 1.995 . S
N2444 C2445 1.376 . S
N2444 C2448 1.383 . S
C2445 N2444 1.376 . S
C2445 C2446 1.446 . S
C2445 C2475 1.391 1_565 S
C2446 C2445 1.446 . S
C2446 C2447 1.339 . S
C2446 H2481 0.949 . S
C2447 C2446 1.339 . S
C2447 C2448 1.439 . S
C2447 H2482 0.950 . S
C2448 N2444 1.383 . S
C2448 C2447 1.439 . S
C2448 C2477 1.392 . S
N2449 Co2443 2.008 . S
N2449 C2450 1.376 . S
N2449 C2453 1.374 . S
C2450 N2449 1.376 . S
C2450 C2451 1.443 . S
C2450 C2477 1.389 . S
C2451 C2450 1.443 . S
C2451 C2452 1.340 . S
C2451 H2483 0.951 . S
C2452 C2451 1.340 . S
C2452 C2453 1.439 . S
C2452 H2484 0.950 . S
C2453 N2449 1.374 . S
C2453 C2452 1.439 . S
C2453 C2478 1.395 . S
N2454 Co2443 1.995 1_545 S
N2454 C2455 1.376 1_545 S
N2454 C2458 1.383 . S
C2455 N2454 1.376 1_565 S
C2455 C2456 1.446 1_565 S
C2455 C2478 1.391 . S
C2456 C2455 1.446 1_545 S
C2456 C2457 1.339 . S
C2456 H2485 0.949 . S
C2457 C2456 1.339 . S
C2457 C2458 1.439 . S
C2457 H2486 0.950 . S
C2458 N2454 1.383 . S
C2458 C2457 1.439 . S
C2458 C2476 1.392 . S
N2459 Co2443 2.282 1_545 S
N2459 C2462 1.332 . S
N2459 C2464 1.332 . S
C2460 C2461 1.386 . S
C2460 C2463 1.388 . S
C2461 C2460 1.386 . S
C2461 C2462 1.382 . S
C2461 H2487 0.950 . S
C2462 N2459 1.332 . S
C2462 C2461 1.382 . S
C2462 H2473 0.952 . S
C2463 C2460 1.388 . S
C2463 C2464 1.382 . S
C2463 H2488 0.950 . S
C2464 N2459 1.332 . S
C2464 C2463 1.382 . S
C2464 H2474 0.948 . S
N2465 Co2443 2.282 . S
N2465 C2469 1.332 . S
N2465 C2470 1.332 . S
C2466 C2467 1.388 . S
C2466 C2470 1.382 . S
C2466 H2489 0.950 . S
C2467 C2466 1.388 . S
C2467 C2468 1.386 . S
C2468 C2467 1.386 . S
C2468 C2469 1.382 . S
C2468 H2490 0.950 . S
C2469 N2465 1.332 . S
C2469 C2468 1.382 . S
C2469 H2471 0.952 . S
C2470 N2465 1.332 . S
C2470 C2466 1.382 . S
C2470 H2472 0.948 . S
H2471 C2469 0.952 . S
H2472 C2470 0.948 . S
H2473 C2462 0.952 . S
H2474 C2464 0.948 . S
C2475 C2441 1.395 . S
C2475 C2445 1.391 1_545 S
C2476 C2438 1.389 . S
C2476 C2458 1.392 . S
C2477 C2448 1.392 . S
C2477 C2450 1.389 . S
C2478 C2453 1.395 . S
C2478 C2455 1.391 . S
H2479 C2439 0.951 . S
H2480 C2440 0.950 . S
H2481 C2446 0.949 . S
H2482 C2447 0.950 . S
H2483 C2451 0.951 . S
H2484 C2452 0.950 . S
H2485 C2456 0.949 . S
H2486 C2457 0.950 . S
H2487 C2461 0.950 . S
H2488 C2463 0.950 . S
H2489 C2466 0.950 . S
H2490 C2468 0.950 . S
C2491 C2492 1.443 . S
C2491 N2495 1.376 . S
C2491 C2529 1.389 . S
C2492 C2491 1.443 . S
C2492 C2493 1.340 . S
C2492 H2532 0.951 . S
C2493 C2492 1.340 . S
C2493 C2494 1.439 . S
C2493 H2533 0.950 . S
C2494 C2493 1.439 . S
C2494 N2495 1.374 . S
C2494 C2528 1.395 . S
N2495 C2491 1.376 . S
N2495 C2494 1.374 . S
N2495 Co2496 2.008 . S
Co2496 N2495 2.008 . S
Co2496 N2497 1.995 . S
Co2496 N2502 2.008 . S
Co2496 N2507 1.995 . S
Co2496 N2512 2.282 . S
Co2496 N2518 2.282 . S
N2497 Co2496 1.995 . S
N2497 C2498 1.376 . S
N2497 C2501 1.383 . S
C2498 N2497 1.376 . S
C2498 C2499 1.446 . S
C2498 C2528 1.391 . S
C2499 C2498 1.446 . S
C2499 C2500 1.339 . S
C2499 H2534 0.949 . S
C2500 C2499 1.339 . S
C2500 C2501 1.439 . S
C2500 H2535 0.950 . S
C2501 N2497 1.383 . S
C2501 C2500 1.439 . S
C2501 C2530 1.392 . S
N2502 Co2496 2.008 . S
N2502 C2503 1.376 . S
N2502 C2506 1.374 . S
C2503 N2502 1.376 . S
C2503 C2504 1.443 . S
C2503 C2530 1.389 . S
C2504 C2503 1.443 . S
C2504 C2505 1.340 . S
C2504 H2536 0.951 . S
C2505 C2504 1.340 . S
C2505 C2506 1.439 . S
C2505 H2537 0.950 . S
C2506 N2502 1.374 . S
C2506 C2505 1.439 . S
C2506 C2531 1.395 . S
N2507 Co2496 1.995 . S
N2507 C2508 1.376 . S
N2507 C2511 1.383 . S
C2508 N2507 1.376 . S
C2508 C2509 1.446 . S
C2508 C2531 1.391 . S
C2509 C2508 1.446 . S
C2509 C2510 1.339 . S
C2509 H2538 0.949 . S
C2510 C2509 1.339 . S
C2510 C2511 1.439 . S
C2510 H2539 0.950 . S
C2511 N2507 1.383 . S
C2511 C2510 1.439 . S
C2511 C2529 1.392 . S
N2512 Co2496 2.282 . S
N2512 C2515 1.332 . S
N2512 C2517 1.332 . S
C2513 C2514 1.386 . S
C2513 C2516 1.388 . S
C2514 C2513 1.386 . S
C2514 C2515 1.382 . S
C2514 H2540 0.950 . S
C2515 N2512 1.332 . S
C2515 C2514 1.382 . S
C2515 H2526 0.952 . S
C2516 C2513 1.388 . S
C2516 C2517 1.382 . S
C2516 H2541 0.950 . S
C2517 N2512 1.332 . S
C2517 C2516 1.382 . S
C2517 H2527 0.948 . S
N2518 Co2496 2.282 . S
N2518 C2522 1.332 . S
N2518 C2523 1.332 . S
C2519 C2520 1.388 . S
C2519 C2523 1.382 . S
C2519 H2542 0.950 . S
C2520 C2519 1.388 . S
C2520 C2521 1.386 . S
C2521 C2520 1.386 . S
C2521 C2522 1.382 . S
C2521 H2543 0.950 . S
C2522 N2518 1.332 . S
C2522 C2521 1.382 . S
C2522 H2524 0.952 . S
C2523 N2518 1.332 . S
C2523 C2519 1.382 . S
C2523 H2525 0.948 . S
H2524 C2522 0.952 . S
H2525 C2523 0.948 . S
H2526 C2515 0.952 . S
H2527 C2517 0.948 . S
C2528 C2494 1.395 . S
C2528 C2498 1.391 . S
C2529 C2491 1.389 . S
C2529 C2511 1.392 . S
C2530 C2501 1.392 . S
C2530 C2503 1.389 . S
C2531 C2506 1.395 . S
C2531 C2508 1.391 . S
H2532 C2492 0.951 . S
H2533 C2493 0.950 . S
H2534 C2499 0.949 . S
H2535 C2500 0.950 . S
H2536 C2504 0.951 . S
H2537 C2505 0.950 . S
H2538 C2509 0.949 . S
H2539 C2510 0.950 . S
H2540 C2514 0.950 . S
H2541 C2516 0.950 . S
H2542 C2519 0.950 . S
H2543 C2521 0.950 . S
H2544 C2550 0.930 . S
H2545 C2554 0.930 . S
H2546 C2559 0.929 . S
H2547 C2557 0.929 . S
H2548 C2552 0.929 . S
H2549 C2558 0.929 . S
C2550 H2544 0.930 . S
C2550 C2551 1.367 . S
C2550 C2558 1.378 . S
C2551 C2550 1.367 . S
C2551 C2559 1.433 . S
C2552 H2548 0.929 . S
C2552 C2554 1.378 . S
C2552 C2556 1.350 . S
C2553 C2556 1.463 . S
C2553 C2558 1.350 . S
C2553 N2561 1.427 . S
C2554 H2545 0.930 . S
C2554 C2552 1.378 . S
C2554 C2555 1.367 . S
C2555 C2554 1.367 . S
C2555 C2557 1.433 . S
C2556 C2552 1.350 . S
C2556 C2553 1.463 . S
C2556 N2560 1.427 . S
C2557 H2547 0.929 . S
C2557 C2555 1.433 . S
C2557 N2560 1.384 . S
C2558 H2549 0.929 . S
C2558 C2550 1.378 . S
C2558 C2553 1.350 . S
C2559 H2546 0.929 . S
C2559 C2551 1.433 . S
C2559 N2561 1.384 . S
N2560 C2556 1.427 . S
N2560 C2557 1.384 . S
N2561 C2553 1.427 . S
N2561 C2559 1.384 . S
H2562 C2568 0.930 . S
H2563 C2572 0.930 . S
H2564 C2577 0.929 . S
H2565 C2575 0.929 . S
H2566 C2570 0.929 . S
H2567 C2576 0.929 . S
C2568 H2562 0.930 . S
C2568 C2569 1.367 . S
C2568 C2576 1.378 . S
C2569 C2568 1.367 . S
C2569 C2577 1.433 . S
C2570 H2566 0.929 . S
C2570 C2572 1.378 . S
C2570 C2574 1.365 . S
C2571 C2574 1.431 1_554 S
C2571 C2576 1.350 . S
C2571 N2579 1.427 . S
C2572 H2563 0.930 . S
C2572 C2570 1.378 . S
C2572 C2573 1.367 . S
C2573 C2572 1.367 . S
C2573 C2575 1.433 . S
C2574 C2570 1.365 . S
C2574 C2571 1.431 1_556 S
C2574 N2578 1.443 . S
C2575 H2565 0.929 . S
C2575 C2573 1.433 . S
C2575 N2578 1.384 . S
C2576 H2567 0.929 . S
C2576 C2568 1.378 . S
C2576 C2571 1.350 . S
C2577 H2564 0.929 . S
C2577 C2569 1.433 . S
C2577 N2579 1.384 . S
N2578 C2574 1.443 . S
N2578 C2575 1.384 . S
N2579 C2571 1.427 . S
N2579 C2577 1.384 . S
H2580 C2586 0.930 . S
H2581 C2590 0.930 . S
H2582 C2595 0.929 . S
H2583 C2593 0.929 . S
H2584 C2588 0.929 . S
H2585 C2594 0.929 . S
C2586 H2580 0.930 . S
C2586 C2587 1.367 . S
C2586 C2594 1.378 . S
C2587 C2586 1.367 . S
C2587 C2595 1.433 . S
C2588 H2584 0.929 . S
C2588 C2590 1.378 . S
C2588 C2592 1.350 . S
C2589 C2592 1.463 . S
C2589 C2594 1.350 . S
C2589 N2597 1.427 . S
C2590 H2581 0.930 . S
C2590 C2588 1.378 . S
C2590 C2591 1.367 . S
C2591 C2590 1.367 . S
C2591 C2593 1.433 . S
C2592 C2588 1.350 . S
C2592 C2589 1.463 . S
C2592 N2596 1.427 . S
C2593 H2583 0.929 . S
C2593 C2591 1.433 . S
C2593 N2596 1.384 . S
C2594 H2585 0.929 . S
C2594 C2586 1.378 . S
C2594 C2589 1.350 . S
C2595 H2582 0.929 . S
C2595 C2587 1.433 . S
C2595 N2597 1.384 . S
N2596 C2592 1.427 . S
N2596 C2593 1.384 . S
N2597 C2589 1.427 . S
N2597 C2595 1.384 . S
H2598 C2604 0.930 . S
H2599 C2608 0.930 . S
H2600 C2613 0.929 . S
H2601 C2611 0.929 . S
H2602 C2606 0.929 . S
H2603 C2612 0.929 . S
C2604 H2598 0.930 . S
C2604 C2605 1.367 . S
C2604 C2612 1.378 . S
C2605 C2604 1.367 . S
C2605 C2613 1.433 . S
C2606 H2602 0.929 . S
C2606 C2608 1.378 . S
C2606 C2610 1.350 . S
C2607 C2610 1.419 1_556 S
C2607 C2612 1.383 . S
C2607 N2615 1.437 . S
C2608 H2599 0.930 . S
C2608 C2606 1.378 . S
C2608 C2609 1.367 . S
C2609 C2608 1.367 . S
C2609 C2611 1.433 . S
C2610 C2606 1.350 . S
C2610 C2607 1.419 1_554 S
C2610 N2614 1.427 . S
C2611 H2601 0.929 . S
C2611 C2609 1.433 . S
C2611 N2614 1.384 . S
C2612 H2603 0.929 . S
C2612 C2604 1.378 . S
C2612 C2607 1.383 . S
C2613 H2600 0.929 . S
C2613 C2605 1.433 . S
C2613 N2615 1.384 . S
N2614 C2610 1.427 . S
N2614 C2611 1.384 . S
N2615 C2607 1.437 . S
N2615 C2613 1.384 . S
H2616 C2622 0.930 . S
H2617 C2626 0.930 . S
H2618 C2631 0.929 . S
H2619 C2629 0.929 . S
H2620 C2624 0.929 . S
H2621 C2630 0.929 . S
C2622 H2616 0.930 . S
C2622 C2623 1.367 . S
C2622 C2630 1.378 . S
C2623 C2622 1.367 . S
C2623 C2631 1.433 . S
C2624 H2620 0.929 . S
C2624 C2626 1.378 . S
C2624 C2628 1.350 . S
C2625 C2628 1.463 . S
C2625 C2630 1.350 . S
C2625 N2633 1.427 . S
C2626 H2617 0.930 . S
C2626 C2624 1.378 . S
C2626 C2627 1.367 . S
C2627 C2626 1.367 . S
C2627 C2629 1.433 . S
C2628 C2624 1.350 . S
C2628 C2625 1.463 . S
C2628 N2632 1.427 . S
C2629 H2619 0.929 . S
C2629 C2627 1.433 . S
C2629 N2632 1.384 . S
C2630 H2621 0.929 . S
C2630 C2622 1.378 . S
C2630 C2625 1.350 . S
C2631 H2618 0.929 . S
C2631 C2623 1.433 . S
C2631 N2633 1.384 . S
N2632 C2628 1.427 . S
N2632 C2629 1.384 . S
N2633 C2625 1.427 . S
N2633 C2631 1.384 . S
H2634 C2640 0.930 . S
H2635 C2644 0.930 . S
H2636 C2649 0.929 . S
H2637 C2647 0.929 . S
H2638 C2642 0.929 . S
H2639 C2648 0.929 . S
C2640 H2634 0.930 . S
C2640 C2641 1.367 . S
C2640 C2648 1.378 . S
C2641 C2640 1.367 . S
C2641 C2649 1.433 . S
C2642 H2638 0.929 . S
C2642 C2644 1.378 . S
C2642 C2646 1.350 . S
C2643 C2646 1.412 1_554 S
C2643 C2648 1.393 . S
C2643 N2651 1.433 . S
C2644 H2635 0.930 . S
C2644 C2642 1.378 . S
C2644 C2645 1.367 . S
C2645 C2644 1.367 . S
C2645 C2647 1.433 . S
C2646 C2642 1.350 . S
C2646 C2643 1.412 1_556 S
C2646 N2650 1.427 . S
C2647 H2637 0.929 . S
C2647 C2645 1.433 . S
C2647 N2650 1.384 . S
C2648 H2639 0.929 . S
C2648 C2640 1.378 . S
C2648 C2643 1.393 . S
C2649 H2636 0.929 . S
C2649 C2641 1.433 . S
C2649 N2651 1.384 . S
N2650 C2646 1.427 . S
N2650 C2647 1.384 . S
N2651 C2643 1.433 . S
N2651 C2649 1.384 . S
H2652 C2658 0.930 . S
H2653 C2662 0.930 . S
H2654 C2667 0.929 . S
H2655 C2665 0.929 . S
H2656 C2660 0.929 . S
H2657 C2666 0.929 . S
C2658 H2652 0.930 . S
C2658 C2659 1.367 . S
C2658 C2666 1.378 . S
C2659 C2658 1.367 . S
C2659 C2667 1.433 . S
C2660 H2656 0.929 . S
C2660 C2662 1.378 . S
C2660 C2664 1.350 . S
C2661 C2664 1.463 . S
C2661 C2666 1.350 . S
C2661 N2669 1.427 . S
C2662 H2653 0.930 . S
C2662 C2660 1.378 . S
C2662 C2663 1.367 . S
C2663 C2662 1.367 . S
C2663 C2665 1.433 . S
C2664 C2660 1.350 . S
C2664 C2661 1.463 . S
C2664 N2668 1.427 . S
C2665 H2655 0.929 . S
C2665 C2663 1.433 . S
C2665 N2668 1.384 . S
C2666 H2657 0.929 . S
C2666 C2658 1.378 . S
C2666 C2661 1.350 . S
C2667 H2654 0.929 . S
C2667 C2659 1.433 . S
C2667 N2669 1.384 . S
N2668 C2664 1.427 . S
N2668 C2665 1.384 . S
N2669 C2661 1.427 . S
N2669 C2667 1.384 . S
H2670 C2676 0.930 . S
H2671 C2680 0.930 . S
H2672 C2685 0.929 . S
H2673 C2683 0.929 . S
H2674 C2678 0.929 . S
H2675 C2684 0.929 . S
C2676 H2670 0.930 . S
C2676 C2677 1.367 . S
C2676 C2684 1.378 . S
C2677 C2676 1.367 . S
C2677 C2685 1.433 . S
C2678 H2674 0.929 . S
C2678 C2680 1.378 . S
C2678 C2682 1.372 . S
C2679 C2682 1.424 1_556 S
C2679 C2684 1.350 . S
C2679 N2687 1.427 . S
C2680 H2671 0.930 . S
C2680 C2678 1.378 . S
C2680 C2681 1.367 . S
C2681 C2680 1.367 . S
C2681 C2683 1.433 . S
C2682 C2678 1.372 . S
C2682 C2679 1.424 1_554 S
C2682 N2686 1.443 . S
C2683 H2673 0.929 . S
C2683 C2681 1.433 . S
C2683 N2686 1.384 . S
C2684 H2675 0.929 . S
C2684 C2676 1.378 . S
C2684 C2679 1.350 . S
C2685 H2672 0.929 . S
C2685 C2677 1.433 . S
C2685 N2687 1.384 . S
N2686 C2682 1.443 . S
N2686 C2683 1.384 . S
N2687 C2679 1.427 . S
N2687 C2685 1.384 . S
H2688 C2694 0.930 . S
H2689 C2698 0.930 . S
H2690 C2703 0.929 . S
H2691 C2701 0.929 . S
H2692 C2696 0.929 . S
H2693 C2702 0.929 . S
C2694 H2688 0.930 . S
C2694 C2695 1.367 . S
C2694 C2702 1.378 . S
C2695 C2694 1.367 . S
C2695 C2703 1.433 . S
C2696 H2692 0.929 . S
C2696 C2698 1.378 . S
C2696 C2700 1.350 . S
C2697 C2700 1.463 . S
C2697 C2702 1.350 . S
C2697 N2705 1.427 . S
C2698 H2689 0.930 . S
C2698 C2696 1.378 . S
C2698 C2699 1.367 . S
C2699 C2698 1.367 . S
C2699 C2701 1.433 . S
C2700 C2696 1.350 . S
C2700 C2697 1.463 . S
C2700 N2704 1.427 . S
C2701 H2691 0.929 . S
C2701 C2699 1.433 . S
C2701 N2704 1.384 . S
C2702 H2693 0.929 . S
C2702 C2694 1.378 . S
C2702 C2697 1.350 . S
C2703 H2690 0.929 . S
C2703 C2695 1.433 . S
C2703 N2705 1.384 . S
N2704 C2700 1.427 . S
N2704 C2701 1.384 . S
N2705 C2697 1.427 . S
N2705 C2703 1.384 . S
H2706 C2712 0.930 . S
H2707 C2716 0.930 . S
H2708 C2721 0.929 . S
H2709 C2719 0.929 . S
H2710 C2714 0.929 . S
H2711 C2720 0.929 . S
C2712 H2706 0.930 . S
C2712 C2713 1.367 . S
C2712 C2720 1.378 . S
C2713 C2712 1.367 . S
C2713 C2721 1.433 . S
C2714 H2710 0.929 . S
C2714 C2716 1.378 . S
C2714 C2718 1.350 . S
C2715 C2718 1.463 . S
C2715 C2720 1.350 . S
C2715 N2723 1.427 . S
C2716 H2707 0.930 . S
C2716 C2714 1.378 . S
C2716 C2717 1.367 . S
C2717 C2716 1.367 . S
C2717 C2719 1.433 . S
C2718 C2714 1.350 . S
C2718 C2715 1.463 . S
C2718 N2722 1.427 . S
C2719 H2709 0.929 . S
C2719 C2717 1.433 . S
C2719 N2722 1.384 . S
C2720 H2711 0.929 . S
C2720 C2712 1.378 . S
C2720 C2715 1.350 . S
C2721 H2708 0.929 . S
C2721 C2713 1.433 . S
C2721 N2723 1.384 . S
N2722 C2718 1.427 . S
N2722 C2719 1.384 . S
N2723 C2715 1.427 . S
N2723 C2721 1.384 . S
H2724 C2730 0.930 . S
H2725 C2734 0.930 . S
H2726 C2739 0.929 . S
H2727 C2737 0.929 . S
H2728 C2732 0.929 . S
H2729 C2738 0.929 . S
C2730 H2724 0.930 . S
C2730 C2731 1.367 . S
C2730 C2738 1.378 . S
C2731 C2730 1.367 . S
C2731 C2739 1.433 . S
C2732 H2728 0.929 . S
C2732 C2734 1.378 . S
C2732 C2736 1.350 . S
C2733 C2736 1.463 . S
C2733 C2738 1.350 . S
C2733 N2741 1.427 . S
C2734 H2725 0.930 . S
C2734 C2732 1.378 . S
C2734 C2735 1.367 . S
C2735 C2734 1.367 . S
C2735 C2737 1.433 . S
C2736 C2732 1.350 . S
C2736 C2733 1.463 . S
C2736 N2740 1.427 . S
C2737 H2727 0.929 . S
C2737 C2735 1.433 . S
C2737 N2740 1.384 . S
C2738 H2729 0.929 . S
C2738 C2730 1.378 . S
C2738 C2733 1.350 . S
C2739 H2726 0.929 . S
C2739 C2731 1.433 . S
C2739 N2741 1.384 . S
N2740 C2736 1.427 . S
N2740 C2737 1.384 . S
N2741 C2733 1.427 . S
N2741 C2739 1.384 . S
H2742 C2748 0.930 . S
H2743 C2752 0.930 . S
H2744 C2757 0.929 . S
H2745 C2755 0.929 . S
H2746 C2750 0.929 . S
H2747 C2756 0.929 . S
C2748 H2742 0.930 . S
C2748 C2749 1.367 . S
C2748 C2756 1.378 . S
C2749 C2748 1.367 . S
C2749 C2757 1.433 . S
C2750 H2746 0.929 . S
C2750 C2752 1.378 . S
C2750 C2754 1.386 . S
C2751 C2754 1.415 1_565 S
C2751 C2756 1.350 . S
C2751 N2759 1.427 . S
C2752 H2743 0.930 . S
C2752 C2750 1.378 . S
C2752 C2753 1.367 . S
C2753 C2752 1.367 . S
C2753 C2755 1.433 . S
C2754 C2750 1.386 . S
C2754 C2751 1.415 1_545 S
C2754 N2758 1.437 . S
C2755 H2745 0.929 . S
C2755 C2753 1.433 . S
C2755 N2758 1.384 . S
C2756 H2747 0.929 . S
C2756 C2748 1.378 . S
C2756 C2751 1.350 . S
C2757 H2744 0.929 . S
C2757 C2749 1.433 . S
C2757 N2759 1.384 . S
N2758 C2754 1.437 . S
N2758 C2755 1.384 . S
N2759 C2751 1.427 . S
N2759 C2757 1.384 . S
H2760 C2766 0.930 . S
H2761 C2770 0.930 . S
H2762 C2775 0.929 . S
H2763 C2773 0.929 . S
H2764 C2768 0.929 . S
H2765 C2774 0.929 . S
C2766 H2760 0.930 . S
C2766 C2767 1.367 . S
C2766 C2774 1.378 . S
C2767 C2766 1.367 . S
C2767 C2775 1.433 . S
C2768 H2764 0.929 . S
C2768 C2770 1.378 . S
C2768 C2772 1.350 . S
C2769 C2772 1.463 . S
C2769 C2774 1.350 . S
C2769 N2777 1.427 . S
C2770 H2761 0.930 . S
C2770 C2768 1.378 . S
C2770 C2771 1.367 . S
C2771 C2770 1.367 . S
C2771 C2773 1.433 . S
C2772 C2768 1.350 . S
C2772 C2769 1.463 . S
C2772 N2776 1.427 . S
C2773 H2763 0.929 . S
C2773 C2771 1.433 . S
C2773 N2776 1.384 . S
C2774 H2765 0.929 . S
C2774 C2766 1.378 . S
C2774 C2769 1.350 . S
C2775 H2762 0.929 . S
C2775 C2767 1.433 . S
C2775 N2777 1.384 . S
N2776 C2772 1.427 . S
N2776 C2773 1.384 . S
N2777 C2769 1.427 . S
N2777 C2775 1.384 . S
H2778 C2784 0.930 . S
H2779 C2788 0.930 . S
H2780 C2793 0.929 . S
H2781 C2791 0.929 . S
H2782 C2786 0.929 . S
H2783 C2792 0.929 . S
C2784 H2778 0.930 . S
C2784 C2785 1.367 . S
C2784 C2792 1.378 . S
C2785 C2784 1.367 . S
C2785 C2793 1.433 . S
C2786 H2782 0.929 . S
C2786 C2788 1.378 . S
C2786 C2790 1.350 . S
C2787 C2790 1.463 . S
C2787 C2792 1.350 . S
C2787 N2795 1.427 . S
C2788 H2779 0.930 . S
C2788 C2786 1.378 . S
C2788 C2789 1.367 . S
C2789 C2788 1.367 . S
C2789 C2791 1.433 . S
C2790 C2786 1.350 . S
C2790 C2787 1.463 . S
C2790 N2794 1.427 . S
C2791 H2781 0.929 . S
C2791 C2789 1.433 . S
C2791 N2794 1.384 . S
C2792 H2783 0.929 . S
C2792 C2784 1.378 . S
C2792 C2787 1.350 . S
C2793 H2780 0.929 . S
C2793 C2785 1.433 . S
C2793 N2795 1.384 . S
N2794 C2790 1.427 . S
N2794 C2791 1.384 . S
N2795 C2787 1.427 . S
N2795 C2793 1.384 . S
H2796 C2802 0.930 . S
H2797 C2806 0.930 . S
H2798 C2811 0.929 . S
H2799 C2809 0.929 . S
H2800 C2804 0.929 . S
H2801 C2810 0.929 . S
C2802 H2796 0.930 . S
C2802 C2803 1.367 . S
C2802 C2810 1.378 . S
C2803 C2802 1.367 . S
C2803 C2811 1.433 . S
C2804 H2800 0.929 . S
C2804 C2806 1.378 . S
C2804 C2808 1.350 . S
C2805 C2808 1.463 . S
C2805 C2810 1.350 . S
C2805 N2813 1.427 . S
C2806 H2797 0.930 . S
C2806 C2804 1.378 . S
C2806 C2807 1.367 . S
C2807 C2806 1.367 . S
C2807 C2809 1.433 . S
C2808 C2804 1.350 . S
C2808 C2805 1.463 . S
C2808 N2812 1.427 . S
C2809 H2799 0.929 . S
C2809 C2807 1.433 . S
C2809 N2812 1.384 . S
C2810 H2801 0.929 . S
C2810 C2802 1.378 . S
C2810 C2805 1.350 . S
C2811 H2798 0.929 . S
C2811 C2803 1.433 . S
C2811 N2813 1.384 . S
N2812 C2808 1.427 . S
N2812 C2809 1.384 . S
N2813 C2805 1.427 . S
N2813 C2811 1.384 . S
H2814 C2820 0.930 . S
H2815 C2824 0.930 . S
H2816 C2829 0.929 . S
H2817 C2827 0.929 . S
H2818 C2822 0.929 . S
H2819 C2828 0.929 1_565 S
C2820 H2814 0.930 . S
C2820 C2821 1.367 . S
C2820 C2828 1.378 . S
C2821 C2820 1.367 . S
C2821 C2829 1.433 . S
C2822 H2818 0.929 . S
C2822 C2824 1.378 . S
C2822 C2826 1.350 . S
C2823 C2826 1.435 1_545 S
C2823 C2828 1.359 . S
C2823 N2831 1.446 . S
C2824 H2815 0.930 . S
C2824 C2822 1.378 . S
C2824 C2825 1.367 . S
C2825 C2824 1.367 . S
C2825 C2827 1.433 . S
C2826 C2822 1.350 . S
C2826 C2823 1.435 1_565 S
C2826 N2830 1.427 . S
C2827 H2817 0.929 . S
C2827 C2825 1.433 . S
C2827 N2830 1.384 . S
C2828 H2819 0.929 1_545 S
C2828 C2820 1.378 . S
C2828 C2823 1.359 . S
C2829 H2816 0.929 . S
C2829 C2821 1.433 . S
C2829 N2831 1.384 . S
N2830 C2826 1.427 . S
N2830 C2827 1.384 . S
N2831 C2823 1.446 . S
N2831 C2829 1.384 . S
H2832 C2838 0.930 . S
H2833 C2842 0.930 . S
H2834 C2847 0.929 . S
H2835 C2845 0.929 . S
H2836 C2840 0.929 . S
H2837 C2846 0.929 . S
C2838 H2832 0.930 . S
C2838 C2839 1.367 . S
C2838 C2846 1.378 . S
C2839 C2838 1.367 . S
C2839 C2847 1.433 . S
C2840 H2836 0.929 . S
C2840 C2842 1.378 . S
C2840 C2844 1.350 . S
C2841 C2844 1.463 . S
C2841 C2846 1.350 . S
C2841 N2849 1.427 . S
C2842 H2833 0.930 . S
C2842 C2840 1.378 . S
C2842 C2843 1.367 . S
C2843 C2842 1.367 . S
C2843 C2845 1.433 . S
C2844 C2840 1.350 . S
C2844 C2841 1.463 . S
C2844 N2848 1.427 . S
C2845 H2835 0.929 . S
C2845 C2843 1.433 . S
C2845 N2848 1.384 . S
C2846 H2837 0.929 . S
C2846 C2838 1.378 . S
C2846 C2841 1.350 . S
C2847 H2834 0.929 . S
C2847 C2839 1.433 . S
C2847 N2849 1.384 . S
N2848 C2844 1.427 . S
N2848 C2845 1.384 . S
N2849 C2841 1.427 . S
N2849 C2847 1.384 . S
H2850 C2856 0.930 . S
H2851 C2860 0.930 . S
H2852 C2865 0.929 . S
H2853 C2863 0.929 . S
H2854 C2858 0.929 . S
H2855 C2864 0.929 . S
C2856 H2850 0.930 . S
C2856 C2857 1.367 . S
C2856 C2864 1.378 . S
C2857 C2856 1.367 . S
C2857 C2865 1.433 . S
C2858 H2854 0.929 . S
C2858 C2860 1.378 . S
C2858 C2862 1.350 . S
C2859 C2862 1.463 . S
C2859 C2864 1.350 . S
C2859 N2867 1.427 . S
C2860 H2851 0.930 . S
C2860 C2858 1.378 . S
C2860 C2861 1.367 . S
C2861 C2860 1.367 . S
C2861 C2863 1.433 . S
C2862 C2858 1.350 . S
C2862 C2859 1.463 . S
C2862 N2866 1.427 . S
C2863 H2853 0.929 . S
C2863 C2861 1.433 . S
C2863 N2866 1.384 . S
C2864 H2855 0.929 . S
C2864 C2856 1.378 . S
C2864 C2859 1.350 . S
C2865 H2852 0.929 . S
C2865 C2857 1.433 . S
C2865 N2867 1.384 . S
N2866 C2862 1.427 . S
N2866 C2863 1.384 . S
N2867 C2859 1.427 . S
N2867 C2865 1.384 . S
H2868 C2874 0.930 . S
H2869 C2878 0.930 . S
H2870 C2883 0.929 . S
H2871 C2881 0.929 . S
H2872 C2876 0.929 . S
H2873 C2882 0.929 . S
C2874 H2868 0.930 . S
C2874 C2875 1.367 . S
C2874 C2882 1.378 . S
C2875 C2874 1.367 . S
C2875 C2883 1.433 . S
C2876 H2872 0.929 . S
C2876 C2878 1.378 . S
C2876 C2880 1.350 . S
C2877 C2880 1.414 1_655 S
C2877 C2882 1.390 . S
C2877 N2885 1.433 . S
C2878 H2869 0.930 . S
C2878 C2876 1.378 . S
C2878 C2879 1.367 . S
C2879 C2878 1.367 . S
C2879 C2881 1.433 . S
C2880 C2876 1.350 . S
C2880 C2877 1.414 1_455 S
C2880 N2884 1.427 . S
C2881 H2871 0.929 . S
C2881 C2879 1.433 . S
C2881 N2884 1.384 . S
C2882 H2873 0.929 . S
C2882 C2874 1.378 . S
C2882 C2877 1.390 . S
C2883 H2870 0.929 . S
C2883 C2875 1.433 . S
C2883 N2885 1.384 . S
N2884 C2880 1.427 . S
N2884 C2881 1.384 . S
N2885 C2877 1.433 . S
N2885 C2883 1.384 . S
H2886 C2892 0.930 . S
H2887 C2896 0.930 . S
H2888 C2901 0.929 . S
H2889 C2899 0.929 . S
H2890 C2894 0.929 . S
H2891 C2900 0.929 . S
C2892 H2886 0.930 . S
C2892 C2893 1.367 . S
C2892 C2900 1.378 . S
C2893 C2892 1.367 . S
C2893 C2901 1.433 . S
C2894 H2890 0.929 . S
C2894 C2896 1.378 . S
C2894 C2898 1.350 . S
C2895 C2898 1.463 . S
C2895 C2900 1.350 . S
C2895 N2903 1.427 . S
C2896 H2887 0.930 . S
C2896 C2894 1.378 . S
C2896 C2897 1.367 . S
C2897 C2896 1.367 . S
C2897 C2899 1.433 . S
C2898 C2894 1.350 . S
C2898 C2895 1.463 . S
C2898 N2902 1.427 . S
C2899 H2889 0.929 . S
C2899 C2897 1.433 . S
C2899 N2902 1.384 . S
C2900 H2891 0.929 . S
C2900 C2892 1.378 . S
C2900 C2895 1.350 . S
C2901 H2888 0.929 . S
C2901 C2893 1.433 . S
C2901 N2903 1.384 . S
N2902 C2898 1.427 . S
N2902 C2899 1.384 . S
N2903 C2895 1.427 . S
N2903 C2901 1.384 . S
H2904 C2910 0.930 . S
H2905 C2914 0.930 . S
H2906 C2919 0.929 . S
H2907 C2917 0.929 . S
H2908 C2912 0.929 . S
H2909 C2918 0.929 . S
C2910 H2904 0.930 . S
C2910 C2911 1.367 . S
C2910 C2918 1.378 . S
C2911 C2910 1.367 . S
C2911 C2919 1.433 . S
C2912 H2908 0.929 . S
C2912 C2914 1.378 . S
C2912 C2916 1.350 . S
C2913 C2916 1.463 . S
C2913 C2918 1.350 . S
C2913 N2921 1.427 . S
C2914 H2905 0.930 . S
C2914 C2912 1.378 . S
C2914 C2915 1.367 . S
C2915 C2914 1.367 . S
C2915 C2917 1.433 . S
C2916 C2912 1.350 . S
C2916 C2913 1.463 . S
C2916 N2920 1.427 . S
C2917 H2907 0.929 . S
C2917 C2915 1.433 . S
C2917 N2920 1.384 . S
C2918 H2909 0.929 . S
C2918 C2910 1.378 . S
C2918 C2913 1.350 . S
C2919 H2906 0.929 . S
C2919 C2911 1.433 . S
C2919 N2921 1.384 . S
N2920 C2916 1.427 . S
N2920 C2917 1.384 . S
N2921 C2913 1.427 . S
N2921 C2919 1.384 . S
H2922 C2928 0.930 . S
H2923 C2932 0.930 . S
H2924 C2937 0.929 . S
H2925 C2935 0.929 . S
H2926 C2930 0.929 . S
H2927 C2936 0.929 . S
C2928 H2922 0.930 . S
C2928 C2929 1.367 . S
C2928 C2936 1.378 . S
C2929 C2928 1.367 . S
C2929 C2937 1.433 . S
C2930 H2926 0.929 . S
C2930 C2932 1.378 . S
C2930 C2934 1.350 . S
C2931 C2934 1.463 . S
C2931 C2936 1.350 . S
C2931 N2939 1.427 . S
C2932 H2923 0.930 . S
C2932 C2930 1.378 . S
C2932 C2933 1.367 . S
C2933 C2932 1.367 . S
C2933 C2935 1.433 . S
C2934 C2930 1.350 . S
C2934 C2931 1.463 . S
C2934 N2938 1.427 . S
C2935 H2925 0.929 . S
C2935 C2933 1.433 . S
C2935 N2938 1.384 . S
C2936 H2927 0.929 . S
C2936 C2928 1.378 . S
C2936 C2931 1.350 . S
C2937 H2924 0.929 . S
C2937 C2929 1.433 . S
C2937 N2939 1.384 . S
N2938 C2934 1.427 . S
N2938 C2935 1.384 . S
N2939 C2931 1.427 . S
N2939 C2937 1.384 . S
H2940 C2946 0.930 . S
H2941 C2950 0.930 . S
H2942 C2955 0.929 . S
H2943 C2953 0.929 . S
H2944 C2948 0.933 . S
H2945 C2954 0.929 . S
C2946 H2940 0.930 . S
C2946 C2947 1.367 . S
C2946 C2954 1.378 . S
C2947 C2946 1.367 . S
C2947 C2955 1.433 . S
C2948 H2944 0.933 . S
C2948 C2950 1.378 . S
C2948 C2952 1.362 . S
C2949 C2952 1.434 1_455 S
C2949 C2954 1.350 . S
C2949 N2957 1.427 . S
C2950 H2941 0.930 . S
C2950 C2948 1.378 . S
C2950 C2951 1.367 . S
C2951 C2950 1.367 . S
C2951 C2953 1.433 . S
C2952 C2948 1.362 . S
C2952 C2949 1.434 1_655 S
C2952 N2956 1.444 . S
C2953 H2943 0.929 . S
C2953 C2951 1.433 . S
C2953 N2956 1.384 . S
C2954 H2945 0.929 . S
C2954 C2946 1.378 . S
C2954 C2949 1.350 . S
C2955 H2942 0.929 . S
C2955 C2947 1.433 . S
C2955 N2957 1.384 . S
N2956 C2952 1.444 . S
N2956 C2953 1.384 . S
N2957 C2949 1.427 . S
N2957 C2955 1.384 . S
H2958 C2964 0.930 . S
H2959 C2968 0.930 . S
H2960 C2973 0.929 . S
H2961 C2971 0.929 . S
H2962 C2966 0.929 . S
H2963 C2972 0.929 . S
C2964 H2958 0.930 . S
C2964 C2965 1.367 . S
C2964 C2972 1.378 . S
C2965 C2964 1.367 . S
C2965 C2973 1.433 . S
C2966 H2962 0.929 . S
C2966 C2968 1.378 . S
C2966 C2970 1.370 . S
C2967 C2970 1.426 1_655 S
C2967 C2972 1.350 . S
C2967 N2975 1.427 . S
C2968 H2959 0.930 . S
C2968 C2966 1.378 . S
C2968 C2969 1.367 . S
C2969 C2968 1.367 . S
C2969 C2971 1.433 . S
C2970 C2966 1.370 . S
C2970 C2967 1.426 1_455 S
C2970 N2974 1.444 . S
C2971 H2961 0.929 . S
C2971 C2969 1.433 . S
C2971 N2974 1.384 . S
C2972 H2963 0.929 . S
C2972 C2964 1.378 . S
C2972 C2967 1.350 . S
C2973 H2960 0.929 . S
C2973 C2965 1.433 . S
C2973 N2975 1.384 . S
N2974 C2970 1.444 . S
N2974 C2971 1.384 . S
N2975 C2967 1.427 . S
N2975 C2973 1.384 . S
H2976 C2982 0.930 . S
H2977 C2986 0.930 . S
H2978 C2991 0.929 . S
H2979 C2989 0.929 . S
H2980 C2984 0.929 . S
H2981 C2990 0.929 . S
C2982 H2976 0.930 . S
C2982 C2983 1.367 . S
C2982 C2990 1.378 . S
C2983 C2982 1.367 . S
C2983 C2991 1.433 . S
C2984 H2980 0.929 . S
C2984 C2986 1.378 . S
C2984 C2988 1.350 . S
C2985 C2988 1.463 . S
C2985 C2990 1.350 . S
C2985 N2993 1.427 . S
C2986 H2977 0.930 . S
C2986 C2984 1.378 . S
C2986 C2987 1.367 . S
C2987 C2986 1.367 . S
C2987 C2989 1.433 . S
C2988 C2984 1.350 . S
C2988 C2985 1.463 . S
C2988 N2992 1.427 . S
C2989 H2979 0.929 . S
C2989 C2987 1.433 . S
C2989 N2992 1.384 . S
C2990 H2981 0.929 . S
C2990 C2982 1.378 . S
C2990 C2985 1.350 . S
C2991 H2978 0.929 . S
C2991 C2983 1.433 . S
C2991 N2993 1.384 . S
N2992 C2988 1.427 . S
N2992 C2989 1.384 . S
N2993 C2985 1.427 . S
N2993 C2991 1.384 . S
H2994 C3000 0.930 . S
H2995 C3004 0.930 . S
H2996 C3009 0.929 . S
H2997 C3007 0.929 . S
H2998 C3002 0.929 . S
H2999 C3008 0.929 . S
C3000 H2994 0.930 . S
C3000 C3001 1.367 . S
C3000 C3008 1.378 . S
C3001 C3000 1.367 . S
C3001 C3009 1.433 . S
C3002 H2998 0.929 . S
C3002 C3004 1.378 . S
C3002 C3006 1.350 . S
C3003 C3006 1.463 . S
C3003 C3008 1.350 . S
C3003 N3011 1.427 . S
C3004 H2995 0.930 . S
C3004 C3002 1.378 . S
C3004 C3005 1.367 . S
C3005 C3004 1.367 . S
C3005 C3007 1.433 . S
C3006 C3002 1.350 . S
C3006 C3003 1.463 . S
C3006 N3010 1.427 . S
C3007 H2997 0.929 . S
C3007 C3005 1.433 . S
C3007 N3010 1.384 . S
C3008 H2999 0.929 . S
C3008 C3000 1.378 . S
C3008 C3003 1.350 . S
C3009 H2996 0.929 . S
C3009 C3001 1.433 . S
C3009 N3011 1.384 . S
N3010 C3006 1.427 . S
N3010 C3007 1.384 . S
N3011 C3003 1.427 . S
N3011 C3009 1.384 . S
H3012 C3018 0.930 . S
H3013 C3022 0.930 . S
H3014 C3027 0.929 . S
H3015 C3025 0.929 . S
H3016 C3020 0.929 . S
H3017 C3026 0.929 . S
C3018 H3012 0.930 . S
C3018 C3019 1.367 . S
C3018 C3026 1.378 . S
C3019 C3018 1.367 . S
C3019 C3027 1.433 . S
C3020 H3016 0.929 . S
C3020 C3022 1.378 . S
C3020 C3024 1.350 . S
C3021 C3024 1.463 . S
C3021 C3026 1.350 . S
C3021 N3029 1.427 . S
C3022 H3013 0.930 . S
C3022 C3020 1.378 . S
C3022 C3023 1.367 . S
C3023 C3022 1.367 . S
C3023 C3025 1.433 . S
C3024 C3020 1.350 . S
C3024 C3021 1.463 . S
C3024 N3028 1.427 . S
C3025 H3015 0.929 . S
C3025 C3023 1.433 . S
C3025 N3028 1.384 . S
C3026 H3017 0.929 . S
C3026 C3018 1.378 . S
C3026 C3021 1.350 . S
C3027 H3014 0.929 . S
C3027 C3019 1.433 . S
C3027 N3029 1.384 . S
N3028 C3024 1.427 . S
N3028 C3025 1.384 . S
N3029 C3021 1.427 . S
N3029 C3027 1.384 . S
H3030 C3036 0.930 . S
H3031 C3040 0.930 . S
H3032 C3045 0.929 . S
H3033 C3043 0.929 . S
H3034 C3038 0.929 . S
H3035 C3044 0.929 . S
C3036 H3030 0.930 . S
C3036 C3037 1.367 . S
C3036 C3044 1.378 . S
C3037 C3036 1.367 . S
C3037 C3045 1.433 . S
C3038 H3034 0.929 . S
C3038 C3040 1.378 . S
C3038 C3042 1.350 . S
C3039 C3042 1.463 . S
C3039 C3044 1.350 . S
C3039 N3047 1.427 . S
C3040 H3031 0.930 . S
C3040 C3038 1.378 . S
C3040 C3041 1.367 . S
C3041 C3040 1.367 . S
C3041 C3043 1.433 . S
C3042 C3038 1.350 . S
C3042 C3039 1.463 . S
C3042 N3046 1.427 . S
C3043 H3033 0.929 . S
C3043 C3041 1.433 . S
C3043 N3046 1.384 . S
C3044 H3035 0.929 . S
C3044 C3036 1.378 . S
C3044 C3039 1.350 . S
C3045 H3032 0.929 . S
C3045 C3037 1.433 . S
C3045 N3047 1.384 . S
N3046 C3042 1.427 . S
N3046 C3043 1.384 . S
N3047 C3039 1.427 . S
N3047 C3045 1.384 . S
H3048 C3054 0.930 . S
H3049 C3058 0.930 . S
H3050 C3063 0.929 . S
H3051 C3061 0.929 . S
H3052 C3056 0.929 . S
H3053 C3062 0.929 . S
C3054 H3048 0.930 . S
C3054 C3055 1.367 . S
C3054 C3062 1.378 . S
C3055 C3054 1.367 . S
C3055 C3063 1.433 . S
C3056 H3052 0.929 . S
C3056 C3058 1.378 . S
C3056 C3060 1.350 . S
C3057 C3060 1.463 . S
C3057 C3062 1.350 . S
C3057 N3065 1.427 . S
C3058 H3049 0.930 . S
C3058 C3056 1.378 . S
C3058 C3059 1.367 . S
C3059 C3058 1.367 . S
C3059 C3061 1.433 . S
C3060 C3056 1.350 . S
C3060 C3057 1.463 . S
C3060 N3064 1.427 . S
C3061 H3051 0.929 . S
C3061 C3059 1.433 . S
C3061 N3064 1.384 . S
C3062 H3053 0.929 . S
C3062 C3054 1.378 . S
C3062 C3057 1.350 . S
C3063 H3050 0.929 . S
C3063 C3055 1.433 . S
C3063 N3065 1.384 . S
N3064 C3060 1.427 . S
N3064 C3061 1.384 . S
N3065 C3057 1.427 . S
N3065 C3063 1.384 . S
H3066 C3072 0.930 . S
H3067 C3076 0.930 . S
H3068 C3081 0.929 . S
H3069 C3079 0.929 . S
H3070 C3074 0.929 . S
H3071 C3080 0.929 . S
C3072 H3066 0.930 . S
C3072 C3073 1.367 . S
C3072 C3080 1.378 . S
C3073 C3072 1.367 . S
C3073 C3081 1.433 . S
C3074 H3070 0.929 . S
C3074 C3076 1.378 . S
C3074 C3078 1.350 . S
C3075 C3078 1.463 . S
C3075 C3080 1.350 . S
C3075 N3083 1.427 . S
C3076 H3067 0.930 . S
C3076 C3074 1.378 . S
C3076 C3077 1.367 . S
C3077 C3076 1.367 . S
C3077 C3079 1.433 . S
C3078 C3074 1.350 . S
C3078 C3075 1.463 . S
C3078 N3082 1.427 . S
C3079 H3069 0.929 . S
C3079 C3077 1.433 . S
C3079 N3082 1.384 . S
C3080 H3071 0.929 . S
C3080 C3072 1.378 . S
C3080 C3075 1.350 . S
C3081 H3068 0.929 . S
C3081 C3073 1.433 . S
C3081 N3083 1.384 . S
N3082 C3078 1.427 . S
N3082 C3079 1.384 . S
N3083 C3075 1.427 . S
N3083 C3081 1.384 . S
H3084 C3090 0.930 . S
H3085 C3094 0.930 . S
H3086 C3099 0.929 . S
H3087 C3097 0.929 . S
H3088 C3092 0.929 . S
H3089 C3098 0.929 . S
C3090 H3084 0.930 . S
C3090 C3091 1.367 . S
C3090 C3098 1.378 . S
C3091 C3090 1.367 . S
C3091 C3099 1.433 . S
C3092 H3088 0.929 . S
C3092 C3094 1.378 . S
C3092 C3096 1.350 . S
C3093 C3096 1.463 . S
C3093 C3098 1.350 . S
C3093 N3101 1.427 . S
C3094 H3085 0.930 . S
C3094 C3092 1.378 . S
C3094 C3095 1.367 . S
C3095 C3094 1.367 . S
C3095 C3097 1.433 . S
C3096 C3092 1.350 . S
C3096 C3093 1.463 . S
C3096 N3100 1.427 . S
C3097 H3087 0.929 . S
C3097 C3095 1.433 . S
C3097 N3100 1.384 . S
C3098 H3089 0.929 . S
C3098 C3090 1.378 . S
C3098 C3093 1.350 . S
C3099 H3086 0.929 . S
C3099 C3091 1.433 . S
C3099 N3101 1.384 . S
N3100 C3096 1.427 . S
N3100 C3097 1.384 . S
N3101 C3093 1.427 . S
N3101 C3099 1.384 . S
H3102 C3108 0.930 . S
H3103 C3112 0.930 . S
H3104 C3117 0.929 . S
H3105 C3115 0.929 . S
H3106 C3110 0.929 . S
H3107 C3116 0.929 . S
C3108 H3102 0.930 . S
C3108 C3109 1.367 . S
C3108 C3116 1.378 . S
C3109 C3108 1.367 . S
C3109 C3117 1.433 . S
C3110 H3106 0.929 . S
C3110 C3112 1.378 . S
C3110 C3114 1.350 . S
C3111 C3114 1.463 . S
C3111 C3116 1.350 . S
C3111 N3119 1.427 . S
C3112 H3103 0.930 . S
C3112 C3110 1.378 . S
C3112 C3113 1.367 . S
C3113 C3112 1.367 . S
C3113 C3115 1.433 . S
C3114 C3110 1.350 . S
C3114 C3111 1.463 . S
C3114 N3118 1.427 . S
C3115 H3105 0.929 . S
C3115 C3113 1.433 . S
C3115 N3118 1.384 . S
C3116 H3107 0.929 . S
C3116 C3108 1.378 . S
C3116 C3111 1.350 . S
C3117 H3104 0.929 . S
C3117 C3109 1.433 . S
C3117 N3119 1.384 . S
N3118 C3114 1.427 . S
N3118 C3115 1.384 . S
N3119 C3111 1.427 . S
N3119 C3117 1.384 . S
H3120 C3126 0.930 . S
H3121 C3130 0.930 . S
H3122 C3135 0.929 . S
H3123 C3133 0.929 . S
H3124 C3128 0.929 . S
H3125 C3134 0.929 . S
C3126 H3120 0.930 . S
C3126 C3127 1.367 . S
C3126 C3134 1.378 . S
C3127 C3126 1.367 . S
C3127 C3135 1.433 . S
C3128 H3124 0.929 . S
C3128 C3130 1.378 . S
C3128 C3132 1.350 . S
C3129 C3132 1.463 . S
C3129 C3134 1.350 . S
C3129 N3137 1.427 . S
C3130 H3121 0.930 . S
C3130 C3128 1.378 . S
C3130 C3131 1.367 . S
C3131 C3130 1.367 . S
C3131 C3133 1.433 . S
C3132 C3128 1.350 . S
C3132 C3129 1.463 . S
C3132 N3136 1.427 . S
C3133 H3123 0.929 . S
C3133 C3131 1.433 . S
C3133 N3136 1.384 . S
C3134 H3125 0.929 . S
C3134 C3126 1.378 . S
C3134 C3129 1.350 . S
C3135 H3122 0.929 . S
C3135 C3127 1.433 . S
C3135 N3137 1.384 . S
N3136 C3132 1.427 . S
N3136 C3133 1.384 . S
N3137 C3129 1.427 . S
N3137 C3135 1.384 . S
H3138 C3144 0.930 . S
H3139 C3148 0.930 . S
H3140 C3153 0.929 . S
H3141 C3151 0.929 . S
H3142 C3146 0.929 . S
H3143 C3152 0.929 . S
C3144 H3138 0.930 . S
C3144 C3145 1.367 . S
C3144 C3152 1.378 . S
C3145 C3144 1.367 . S
C3145 C3153 1.433 . S
C3146 H3142 0.929 . S
C3146 C3148 1.378 . S
C3146 C3150 1.350 . S
C3147 C3150 1.426 1_565 S
C3147 C3152 1.371 . S
C3147 N3155 1.442 . S
C3148 H3139 0.930 . S
C3148 C3146 1.378 . S
C3148 C3149 1.367 . S
C3149 C3148 1.367 . S
C3149 C3151 1.433 . S
C3150 C3146 1.350 . S
C3150 C3147 1.426 1_545 S
C3150 N3154 1.427 . S
C3151 H3141 0.929 . S
C3151 C3149 1.433 . S
C3151 N3154 1.384 . S
C3152 H3143 0.929 . S
C3152 C3144 1.378 . S
C3152 C3147 1.371 . S
C3153 H3140 0.929 . S
C3153 C3145 1.433 . S
C3153 N3155 1.384 . S
N3154 C3150 1.427 . S
N3154 C3151 1.384 . S
N3155 C3147 1.442 . S
N3155 C3153 1.384 . S
H3156 C3162 0.930 . S
H3157 C3166 0.930 . S
H3158 C3171 0.929 . S
H3159 C3169 0.929 . S
H3160 C3164 0.929 . S
H3161 C3170 0.929 . S
C3162 H3156 0.930 . S
C3162 C3163 1.367 . S
C3162 C3170 1.378 . S
C3163 C3162 1.367 . S
C3163 C3171 1.433 . S
C3164 H3160 0.929 . S
C3164 C3166 1.378 . S
C3164 C3168 1.350 . S
C3165 C3168 1.463 . S
C3165 C3170 1.350 . S
C3165 N3173 1.427 . S
C3166 H3157 0.930 . S
C3166 C3164 1.378 . S
C3166 C3167 1.367 . S
C3167 C3166 1.367 . S
C3167 C3169 1.433 . S
C3168 C3164 1.350 . S
C3168 C3165 1.463 . S
C3168 N3172 1.427 . S
C3169 H3159 0.929 . S
C3169 C3167 1.433 . S
C3169 N3172 1.384 . S
C3170 H3161 0.929 . S
C3170 C3162 1.378 . S
C3170 C3165 1.350 . S
C3171 H3158 0.929 . S
C3171 C3163 1.433 . S
C3171 N3173 1.384 . S
N3172 C3168 1.427 . S
N3172 C3169 1.384 . S
N3173 C3165 1.427 . S
N3173 C3171 1.384 . S
H3174 C3180 0.930 . S
H3175 C3184 0.930 . S
H3176 C3189 0.929 . S
H3177 C3187 0.929 . S
H3178 C3182 0.929 . S
H3179 C3188 0.929 . S
C3180 H3174 0.930 . S
C3180 C3181 1.367 . S
C3180 C3188 1.378 . S
C3181 C3180 1.367 . S
C3181 C3189 1.433 . S
C3182 H3178 0.929 . S
C3182 C3184 1.378 . S
C3182 C3186 1.350 . S
C3183 C3186 1.463 . S
C3183 C3188 1.350 . S
C3183 N3191 1.427 . S
C3184 H3175 0.930 . S
C3184 C3182 1.378 . S
C3184 C3185 1.367 . S
C3185 C3184 1.367 . S
C3185 C3187 1.433 . S
C3186 C3182 1.350 . S
C3186 C3183 1.463 . S
C3186 N3190 1.427 . S
C3187 H3177 0.929 . S
C3187 C3185 1.433 . S
C3187 N3190 1.384 . S
C3188 H3179 0.929 . S
C3188 C3180 1.378 . S
C3188 C3183 1.350 . S
C3189 H3176 0.929 . S
C3189 C3181 1.433 . S
C3189 N3191 1.384 . S
N3190 C3186 1.427 . S
N3190 C3187 1.384 . S
N3191 C3183 1.427 . S
N3191 C3189 1.384 . S
H3192 C3198 0.930 . S
H3193 C3202 0.930 . S
H3194 C3207 0.929 . S
H3195 C3205 0.929 . S
H3196 C3200 0.929 . S
H3197 C3206 0.929 . S
C3198 H3192 0.930 . S
C3198 C3199 1.367 . S
C3198 C3206 1.378 . S
C3199 C3198 1.367 . S
C3199 C3207 1.433 . S
C3200 H3196 0.929 . S
C3200 C3202 1.378 . S
C3200 C3204 1.350 . S
C3201 C3204 1.463 . S
C3201 C3206 1.350 . S
C3201 N3209 1.427 . S
C3202 H3193 0.930 . S
C3202 C3200 1.378 . S
C3202 C3203 1.367 . S
C3203 C3202 1.367 . S
C3203 C3205 1.433 . S
C3204 C3200 1.350 . S
C3204 C3201 1.463 . S
C3204 N3208 1.427 . S
C3205 H3195 0.929 . S
C3205 C3203 1.433 . S
C3205 N3208 1.384 . S
C3206 H3197 0.929 . S
C3206 C3198 1.378 . S
C3206 C3201 1.350 . S
C3207 H3194 0.929 . S
C3207 C3199 1.433 . S
C3207 N3209 1.384 . S
N3208 C3204 1.427 . S
N3208 C3205 1.384 . S
N3209 C3201 1.427 . S
N3209 C3207 1.384 . S
H3210 C3216 0.930 . S
H3211 C3220 0.930 . S
H3212 C3225 0.929 . S
H3213 C3223 0.929 . S
H3214 C3218 0.929 . S
H3215 C3224 0.898 1_545 S
C3216 H3210 0.930 . S
C3216 C3217 1.367 . S
C3216 C3224 1.378 . S
C3217 C3216 1.367 . S
C3217 C3225 1.433 . S
C3218 H3214 0.929 . S
C3218 C3220 1.378 . S
C3218 C3222 1.350 . S
C3219 C3222 1.435 1_565 S
C3219 C3224 1.360 . S
C3219 N3227 1.444 . S
C3220 H3211 0.930 . S
C3220 C3218 1.378 . S
C3220 C3221 1.367 . S
C3221 C3220 1.367 . S
C3221 C3223 1.433 . S
C3222 C3218 1.350 . S
C3222 C3219 1.435 1_545 S
C3222 N3226 1.427 . S
C3223 H3213 0.929 . S
C3223 C3221 1.433 . S
C3223 N3226 1.384 . S
C3224 H3215 0.898 1_565 S
C3224 C3216 1.378 . S
C3224 C3219 1.360 . S
C3225 H3212 0.929 . S
C3225 C3217 1.433 . S
C3225 N3227 1.384 . S
N3226 C3222 1.427 . S
N3226 C3223 1.384 . S
N3227 C3219 1.444 . S
N3227 C3225 1.384 . S
H3228 C3234 0.930 . S
H3229 C3238 0.930 . S
H3230 C3243 0.929 . S
H3231 C3241 0.929 . S
H3232 C3236 0.929 . S
H3233 C3242 0.929 . S
C3234 H3228 0.930 . S
C3234 C3235 1.367 . S
C3234 C3242 1.378 . S
C3235 C3234 1.367 . S
C3235 C3243 1.433 . S
C3236 H3232 0.929 . S
C3236 C3238 1.378 . S
C3236 C3240 1.350 . S
C3237 C3240 1.463 . S
C3237 C3242 1.350 . S
C3237 N3245 1.427 . S
C3238 H3229 0.930 . S
C3238 C3236 1.378 . S
C3238 C3239 1.367 . S
C3239 C3238 1.367 . S
C3239 C3241 1.433 . S
C3240 C3236 1.350 . S
C3240 C3237 1.463 . S
C3240 N3244 1.427 . S
C3241 H3231 0.929 . S
C3241 C3239 1.433 . S
C3241 N3244 1.384 . S
C3242 H3233 0.929 . S
C3242 C3234 1.378 . S
C3242 C3237 1.350 . S
C3243 H3230 0.929 . S
C3243 C3235 1.433 . S
C3243 N3245 1.384 . S
N3244 C3240 1.427 . S
N3244 C3241 1.384 . S
N3245 C3237 1.427 . S
N3245 C3243 1.384 . S
H3246 C3252 0.930 . S
H3247 C3256 0.930 . S
H3248 C3261 0.929 . S
H3249 C3259 0.929 . S
H3250 C3254 0.929 . S
H3251 C3260 0.929 . S
C3252 H3246 0.930 . S
C3252 C3253 1.367 . S
C3252 C3260 1.378 . S
C3253 C3252 1.367 . S
C3253 C3261 1.433 . S
C3254 H3250 0.929 . S
C3254 C3256 1.378 . S
C3254 C3258 1.350 . S
C3255 C3258 1.463 . S
C3255 C3260 1.350 . S
C3255 N3263 1.427 . S
C3256 H3247 0.930 . S
C3256 C3254 1.378 . S
C3256 C3257 1.367 . S
C3257 C3256 1.367 . S
C3257 C3259 1.433 . S
C3258 C3254 1.350 . S
C3258 C3255 1.463 . S
C3258 N3262 1.427 . S
C3259 H3249 0.929 . S
C3259 C3257 1.433 . S
C3259 N3262 1.384 . S
C3260 H3251 0.929 . S
C3260 C3252 1.378 . S
C3260 C3255 1.350 . S
C3261 H3248 0.929 . S
C3261 C3253 1.433 . S
C3261 N3263 1.384 . S
N3262 C3258 1.427 . S
N3262 C3259 1.384 . S
N3263 C3255 1.427 . S
N3263 C3261 1.384 . S
H3264 C3270 0.930 . S
H3265 C3274 0.930 . S
H3266 C3279 0.929 . S
H3267 C3277 0.929 . S
H3268 C3272 0.929 . S
H3269 C3278 0.929 . S
C3270 H3264 0.930 . S
C3270 C3271 1.367 . S
C3270 C3278 1.378 . S
C3271 C3270 1.367 . S
C3271 C3279 1.433 . S
C3272 H3268 0.929 . S
C3272 C3274 1.378 . S
C3272 C3276 1.350 . S
C3273 C3276 1.463 . S
C3273 C3278 1.350 . S
C3273 N3281 1.427 . S
C3274 H3265 0.930 . S
C3274 C3272 1.378 . S
C3274 C3275 1.367 . S
C3275 C3274 1.367 . S
C3275 C3277 1.433 . S
C3276 C3272 1.350 . S
C3276 C3273 1.463 . S
C3276 N3280 1.427 . S
C3277 H3267 0.929 . S
C3277 C3275 1.433 . S
C3277 N3280 1.384 . S
C3278 H3269 0.929 . S
C3278 C3270 1.378 . S
C3278 C3273 1.350 . S
C3279 H3266 0.929 . S
C3279 C3271 1.433 . S
C3279 N3281 1.384 . S
N3280 C3276 1.427 . S
N3280 C3277 1.384 . S
N3281 C3273 1.427 . S
N3281 C3279 1.384 . S
H3282 C3288 0.930 . S
H3283 C3292 0.930 . S
H3284 C3297 0.929 . S
H3285 C3295 0.929 . S
H3286 C3290 0.929 . S
H3287 C3296 0.929 . S
C3288 H3282 0.930 . S
C3288 C3289 1.367 . S
C3288 C3296 1.378 . S
C3289 C3288 1.367 . S
C3289 C3297 1.433 . S
C3290 H3286 0.929 . S
C3290 C3292 1.378 . S
C3290 C3294 1.350 . S
C3291 C3294 1.463 . S
C3291 C3296 1.350 . S
C3291 N3299 1.427 . S
C3292 H3283 0.930 . S
C3292 C3290 1.378 . S
C3292 C3293 1.367 . S
C3293 C3292 1.367 . S
C3293 C3295 1.433 . S
C3294 C3290 1.350 . S
C3294 C3291 1.463 . S
C3294 N3298 1.427 . S
C3295 H3285 0.929 . S
C3295 C3293 1.433 . S
C3295 N3298 1.384 . S
C3296 H3287 0.929 . S
C3296 C3288 1.378 . S
C3296 C3291 1.350 . S
C3297 H3284 0.929 . S
C3297 C3289 1.433 . S
C3297 N3299 1.384 . S
N3298 C3294 1.427 . S
N3298 C3295 1.384 . S
N3299 C3291 1.427 . S
N3299 C3297 1.384 . S
H3300 C3306 0.930 . S
H3301 C3310 0.930 . S
H3302 C3315 0.929 . S
H3303 C3313 0.929 . S
H3304 C3308 0.929 . S
H3305 C3314 0.929 . S
C3306 H3300 0.930 . S
C3306 C3307 1.367 . S
C3306 C3314 1.378 . S
C3307 C3306 1.367 . S
C3307 C3315 1.433 . S
C3308 H3304 0.929 . S
C3308 C3310 1.378 . S
C3308 C3312 1.350 . S
C3309 C3312 1.463 . S
C3309 C3314 1.350 . S
C3309 N3317 1.427 . S
C3310 H3301 0.930 . S
C3310 C3308 1.378 . S
C3310 C3311 1.367 . S
C3311 C3310 1.367 . S
C3311 C3313 1.433 . S
C3312 C3308 1.350 . S
C3312 C3309 1.463 . S
C3312 N3316 1.427 . S
C3313 H3303 0.929 . S
C3313 C3311 1.433 . S
C3313 N3316 1.384 . S
C3314 H3305 0.929 . S
C3314 C3306 1.378 . S
C3314 C3309 1.350 . S
C3315 H3302 0.929 . S
C3315 C3307 1.433 . S
C3315 N3317 1.384 . S
N3316 C3312 1.427 . S
N3316 C3313 1.384 . S
N3317 C3309 1.427 . S
N3317 C3315 1.384 . S
H3318 C3324 0.930 . S
H3319 C3328 0.930 . S
H3320 C3333 0.929 . S
H3321 C3331 0.929 . S
H3322 C3326 0.929 . S
H3323 C3332 0.929 . S
C3324 H3318 0.930 . S
C3324 C3325 1.367 . S
C3324 C3332 1.378 . S
C3325 C3324 1.367 . S
C3325 C3333 1.433 . S
C3326 H3322 0.929 . S
C3326 C3328 1.378 . S
C3326 C3330 1.350 . S
C3327 C3330 1.463 . S
C3327 C3332 1.350 . S
C3327 N3335 1.427 . S
C3328 H3319 0.930 . S
C3328 C3326 1.378 . S
C3328 C3329 1.367 . S
C3329 C3328 1.367 . S
C3329 C3331 1.433 . S
C3330 C3326 1.350 . S
C3330 C3327 1.463 . S
C3330 N3334 1.427 . S
C3331 H3321 0.929 . S
C3331 C3329 1.433 . S
C3331 N3334 1.384 . S
C3332 H3323 0.929 . S
C3332 C3324 1.378 . S
C3332 C3327 1.350 . S
C3333 H3320 0.929 . S
C3333 C3325 1.433 . S
C3333 N3335 1.384 . S
N3334 C3330 1.427 . S
N3334 C3331 1.384 . S
N3335 C3327 1.427 . S
N3335 C3333 1.384 . S
H3336 C3342 0.930 . S
H3337 C3346 0.930 . S
H3338 C3351 0.929 . S
H3339 C3349 0.929 . S
H3340 C3344 0.929 . S
H3341 C3350 0.929 1_655 S
C3342 H3336 0.930 . S
C3342 C3343 1.367 . S
C3342 C3350 1.378 . S
C3343 C3342 1.367 . S
C3343 C3351 1.433 . S
C3344 H3340 0.929 . S
C3344 C3346 1.378 . S
C3344 C3348 1.350 . S
C3345 C3348 1.435 1_455 S
C3345 C3350 1.358 . S
C3345 N3353 1.446 . S
C3346 H3337 0.930 . S
C3346 C3344 1.378 . S
C3346 C3347 1.367 . S
C3347 C3346 1.367 . S
C3347 C3349 1.433 . S
C3348 C3344 1.350 . S
C3348 C3345 1.435 1_655 S
C3348 N3352 1.427 . S
C3349 H3339 0.929 . S
C3349 C3347 1.433 . S
C3349 N3352 1.384 . S
C3350 H3341 0.929 1_455 S
C3350 C3342 1.378 . S
C3350 C3345 1.358 . S
C3351 H3338 0.929 . S
C3351 C3343 1.433 . S
C3351 N3353 1.384 . S
N3352 C3348 1.427 . S
N3352 C3349 1.384 . S
N3353 C3345 1.446 . S
N3353 C3351 1.384 . S
H3354 C3360 0.930 . S
H3355 C3364 0.930 . S
H3356 C3369 0.929 . S
H3357 C3367 0.929 . S
H3358 C3362 0.929 . S
H3359 C3368 0.929 . S
C3360 H3354 0.930 . S
C3360 C3361 1.367 . S
C3360 C3368 1.378 . S
C3361 C3360 1.367 . S
C3361 C3369 1.433 . S
C3362 H3358 0.929 . S
C3362 C3364 1.378 . S
C3362 C3366 1.350 . S
C3363 C3366 1.463 . S
C3363 C3368 1.350 . S
C3363 N3371 1.427 . S
C3364 H3355 0.930 . S
C3364 C3362 1.378 . S
C3364 C3365 1.367 . S
C3365 C3364 1.367 . S
C3365 C3367 1.433 . S
C3366 C3362 1.350 . S
C3366 C3363 1.463 . S
C3366 N3370 1.427 . S
C3367 H3357 0.929 . S
C3367 C3365 1.433 . S
C3367 N3370 1.384 . S
C3368 H3359 0.929 . S
C3368 C3360 1.378 . S
C3368 C3363 1.350 . S
C3369 H3356 0.929 . S
C3369 C3361 1.433 . S
C3369 N3371 1.384 . S
N3370 C3366 1.427 . S
N3370 C3367 1.384 . S
N3371 C3363 1.427 . S
N3371 C3369 1.384 . S
H3372 C3378 0.930 . S
H3373 C3382 0.930 . S
H3374 C3387 0.929 . S
H3375 C3385 0.929 . S
H3376 C3380 0.929 . S
H3377 C3386 0.929 . S
C3378 H3372 0.930 . S
C3378 C3379 1.367 . S
C3378 C3386 1.378 . S
C3379 C3378 1.367 . S
C3379 C3387 1.433 . S
C3380 H3376 0.929 . S
C3380 C3382 1.378 . S
C3380 C3384 1.350 . S
C3381 C3384 1.463 . S
C3381 C3386 1.350 . S
C3381 N3389 1.427 . S
C3382 H3373 0.930 . S
C3382 C3380 1.378 . S
C3382 C3383 1.367 . S
C3383 C3382 1.367 . S
C3383 C3385 1.433 . S
C3384 C3380 1.350 . S
C3384 C3381 1.463 . S
C3384 N3388 1.427 . S
C3385 H3375 0.929 . S
C3385 C3383 1.433 . S
C3385 N3388 1.384 . S
C3386 H3377 0.929 . S
C3386 C3378 1.378 . S
C3386 C3381 1.350 . S
C3387 H3374 0.929 . S
C3387 C3379 1.433 . S
C3387 N3389 1.384 . S
N3388 C3384 1.427 . S
N3388 C3385 1.384 . S
N3389 C3381 1.427 . S
N3389 C3387 1.384 . S
H3390 C3396 0.930 . S
H3391 C3400 0.930 . S
H3392 C3405 0.929 . S
H3393 C3403 0.929 . S
H3394 C3398 0.929 . S
H3395 C3404 0.929 . S
C3396 H3390 0.930 . S
C3396 C3397 1.367 . S
C3396 C3404 1.378 . S
C3397 C3396 1.367 . S
C3397 C3405 1.433 . S
C3398 H3394 0.929 . S
C3398 C3400 1.378 . S
C3398 C3402 1.350 . S
C3399 C3402 1.463 . S
C3399 C3404 1.350 . S
C3399 N3407 1.427 . S
C3400 H3391 0.930 . S
C3400 C3398 1.378 . S
C3400 C3401 1.367 . S
C3401 C3400 1.367 . S
C3401 C3403 1.433 . S
C3402 C3398 1.350 . S
C3402 C3399 1.463 . S
C3402 N3406 1.427 . S
C3403 H3393 0.929 . S
C3403 C3401 1.433 . S
C3403 N3406 1.384 . S
C3404 H3395 0.929 . S
C3404 C3396 1.378 . S
C3404 C3399 1.350 . S
C3405 H3392 0.929 . S
C3405 C3397 1.433 . S
C3405 N3407 1.384 . S
N3406 C3402 1.427 . S
N3406 C3403 1.384 . S
N3407 C3399 1.427 . S
N3407 C3405 1.384 . S
H3408 C3414 0.930 . S
H3409 C3418 0.930 . S
H3410 C3423 0.929 . S
H3411 C3421 0.929 . S
H3412 C3416 0.929 . S
H3413 C3422 0.929 . S
C3414 H3408 0.930 . S
C3414 C3415 1.367 . S
C3414 C3422 1.378 . S
C3415 C3414 1.367 . S
C3415 C3423 1.433 . S
C3416 H3412 0.929 . S
C3416 C3418 1.378 . S
C3416 C3420 1.350 . S
C3417 C3420 1.463 . S
C3417 C3422 1.350 . S
C3417 N3425 1.427 . S
C3418 H3409 0.930 . S
C3418 C3416 1.378 . S
C3418 C3419 1.367 . S
C3419 C3418 1.367 . S
C3419 C3421 1.433 . S
C3420 C3416 1.350 . S
C3420 C3417 1.463 . S
C3420 N3424 1.427 . S
C3421 H3411 0.929 . S
C3421 C3419 1.433 . S
C3421 N3424 1.384 . S
C3422 H3413 0.929 . S
C3422 C3414 1.378 . S
C3422 C3417 1.350 . S
C3423 H3410 0.929 . S
C3423 C3415 1.433 . S
C3423 N3425 1.384 . S
N3424 C3420 1.427 . S
N3424 C3421 1.384 . S
N3425 C3417 1.427 . S
N3425 C3423 1.384 . S
H3426 C3432 0.930 . S
H3427 C3436 0.930 . S
H3428 C3441 0.929 . S
H3429 C3439 0.929 . S
H3430 C3434 0.929 . S
H3431 C3440 0.929 . S
C3432 H3426 0.930 . S
C3432 C3433 1.367 . S
C3432 C3440 1.378 . S
C3433 C3432 1.367 . S
C3433 C3441 1.433 . S
C3434 H3430 0.929 . S
C3434 C3436 1.378 . S
C3434 C3438 1.350 . S
C3435 C3438 1.463 . S
C3435 C3440 1.350 . S
C3435 N3443 1.427 . S
C3436 H3427 0.930 . S
C3436 C3434 1.378 . S
C3436 C3437 1.367 . S
C3437 C3436 1.367 . S
C3437 C3439 1.433 . S
C3438 C3434 1.350 . S
C3438 C3435 1.463 . S
C3438 N3442 1.427 . S
C3439 H3429 0.929 . S
C3439 C3437 1.433 . S
C3439 N3442 1.384 . S
C3440 H3431 0.929 . S
C3440 C3432 1.378 . S
C3440 C3435 1.350 . S
C3441 H3428 0.929 . S
C3441 C3433 1.433 . S
C3441 N3443 1.384 . S
N3442 C3438 1.427 . S
N3442 C3439 1.384 . S
N3443 C3435 1.427 . S
N3443 C3441 1.384 . S
H3444 C3450 0.930 . S
H3445 C3454 0.930 . S
H3446 C3459 0.929 . S
H3447 C3457 0.929 . S
H3448 C3452 0.929 . S
H3449 C3458 0.929 . S
C3450 H3444 0.930 . S
C3450 C3451 1.367 . S
C3450 C3458 1.378 . S
C3451 C3450 1.367 . S
C3451 C3459 1.433 . S
C3452 H3448 0.929 . S
C3452 C3454 1.378 . S
C3452 C3456 1.350 . S
C3453 C3456 1.463 . S
C3453 C3458 1.350 . S
C3453 N3461 1.427 . S
C3454 H3445 0.930 . S
C3454 C3452 1.378 . S
C3454 C3455 1.367 . S
C3455 C3454 1.367 . S
C3455 C3457 1.433 . S
C3456 C3452 1.350 . S
C3456 C3453 1.463 . S
C3456 N3460 1.427 . S
C3457 H3447 0.929 . S
C3457 C3455 1.433 . S
C3457 N3460 1.384 . S
C3458 H3449 0.929 . S
C3458 C3450 1.378 . S
C3458 C3453 1.350 . S
C3459 H3446 0.929 . S
C3459 C3451 1.433 . S
C3459 N3461 1.384 . S
N3460 C3456 1.427 . S
N3460 C3457 1.384 . S
N3461 C3453 1.427 . S
N3461 C3459 1.384 . S
H3462 C3468 0.930 . S
H3463 C3472 0.930 . S
H3464 C3477 0.929 . S
H3465 C3475 0.929 . S
H3466 C3470 0.929 . S
H3467 C3476 0.929 . S
C3468 H3462 0.930 . S
C3468 C3469 1.367 . S
C3468 C3476 1.378 . S
C3469 C3468 1.367 . S
C3469 C3477 1.433 . S
C3470 H3466 0.929 . S
C3470 C3472 1.378 . S
C3470 C3474 1.350 . S
C3471 C3474 1.463 . S
C3471 C3476 1.350 . S
C3471 N3479 1.427 . S
C3472 H3463 0.930 . S
C3472 C3470 1.378 . S
C3472 C3473 1.367 . S
C3473 C3472 1.367 . S
C3473 C3475 1.433 . S
C3474 C3470 1.350 . S
C3474 C3471 1.463 . S
C3474 N3478 1.427 . S
C3475 H3465 0.929 . S
C3475 C3473 1.433 . S
C3475 N3478 1.384 . S
C3476 H3467 0.929 . S
C3476 C3468 1.378 . S
C3476 C3471 1.350 . S
C3477 H3464 0.929 . S
C3477 C3469 1.433 . S
C3477 N3479 1.384 . S
N3478 C3474 1.427 . S
N3478 C3475 1.384 . S
N3479 C3471 1.427 . S
N3479 C3477 1.384 . S
H3480 C3486 0.930 . S
H3481 C3490 0.930 . S
H3482 C3495 0.929 . S
H3483 C3493 0.929 . S
H3484 C3488 0.929 . S
H3485 C3494 0.929 . S
C3486 H3480 0.930 . S
C3486 C3487 1.367 . S
C3486 C3494 1.378 . S
C3487 C3486 1.367 . S
C3487 C3495 1.433 . S
C3488 H3484 0.929 . S
C3488 C3490 1.378 . S
C3488 C3492 1.350 . S
C3489 C3492 1.463 . S
C3489 C3494 1.350 . S
C3489 N3497 1.427 . S
C3490 H3481 0.930 . S
C3490 C3488 1.378 . S
C3490 C3491 1.367 . S
C3491 C3490 1.367 . S
C3491 C3493 1.433 . S
C3492 C3488 1.350 . S
C3492 C3489 1.463 . S
C3492 N3496 1.427 . S
C3493 H3483 0.929 . S
C3493 C3491 1.433 . S
C3493 N3496 1.384 . S
C3494 H3485 0.929 . S
C3494 C3486 1.378 . S
C3494 C3489 1.350 . S
C3495 H3482 0.929 . S
C3495 C3487 1.433 . S
C3495 N3497 1.384 . S
N3496 C3492 1.427 . S
N3496 C3493 1.384 . S
N3497 C3489 1.427 . S
N3497 C3495 1.384 . S
H3498 C3504 0.930 . S
H3499 C3508 0.930 . S
H3500 C3513 0.929 . S
H3501 C3511 0.929 . S
H3502 C3506 0.929 . S
H3503 C3512 0.929 . S
C3504 H3498 0.930 . S
C3504 C3505 1.367 . S
C3504 C3512 1.378 . S
C3505 C3504 1.367 . S
C3505 C3513 1.433 . S
C3506 H3502 0.929 . S
C3506 C3508 1.378 . S
C3506 C3510 1.350 . S
C3507 C3510 1.463 . S
C3507 C3512 1.350 . S
C3507 N3515 1.427 . S
C3508 H3499 0.930 . S
C3508 C3506 1.378 . S
C3508 C3509 1.367 . S
C3509 C3508 1.367 . S
C3509 C3511 1.433 . S
C3510 C3506 1.350 . S
C3510 C3507 1.463 . S
C3510 N3514 1.427 . S
C3511 H3501 0.929 . S
C3511 C3509 1.433 . S
C3511 N3514 1.384 . S
C3512 H3503 0.929 . S
C3512 C3504 1.378 . S
C3512 C3507 1.350 . S
C3513 H3500 0.929 . S
C3513 C3505 1.433 . S
C3513 N3515 1.384 . S
N3514 C3510 1.427 . S
N3514 C3511 1.384 . S
N3515 C3507 1.427 . S
N3515 C3513 1.384 . S
H3516 C3522 0.930 . S
H3517 C3526 0.930 . S
H3518 C3531 0.929 . S
H3519 C3529 0.929 . S
H3520 C3524 0.929 . S
H3521 C3530 0.929 . S
C3522 H3516 0.930 . S
C3522 C3523 1.367 . S
C3522 C3530 1.378 . S
C3523 C3522 1.367 . S
C3523 C3531 1.433 . S
C3524 H3520 0.929 . S
C3524 C3526 1.378 . S
C3524 C3528 1.350 . S
C3525 C3528 1.463 . S
C3525 C3530 1.350 . S
C3525 N3533 1.427 . S
C3526 H3517 0.930 . S
C3526 C3524 1.378 . S
C3526 C3527 1.367 . S
C3527 C3526 1.367 . S
C3527 C3529 1.433 . S
C3528 C3524 1.350 . S
C3528 C3525 1.463 . S
C3528 N3532 1.427 . S
C3529 H3519 0.929 . S
C3529 C3527 1.433 . S
C3529 N3532 1.384 . S
C3530 H3521 0.929 . S
C3530 C3522 1.378 . S
C3530 C3525 1.350 . S
C3531 H3518 0.929 . S
C3531 C3523 1.433 . S
C3531 N3533 1.384 . S
N3532 C3528 1.427 . S
N3532 C3529 1.384 . S
N3533 C3525 1.427 . S
N3533 C3531 1.384 . S
H3534 C3540 0.930 . S
H3535 C3544 0.930 . S
H3536 C3549 0.929 . S
H3537 C3547 0.929 . S
H3538 C3542 0.929 . S
H3539 C3548 0.929 . S
C3540 H3534 0.930 . S
C3540 C3541 1.367 . S
C3540 C3548 1.378 . S
C3541 C3540 1.367 . S
C3541 C3549 1.433 . S
C3542 H3538 0.929 . S
C3542 C3544 1.378 . S
C3542 C3546 1.350 . S
C3543 C3546 1.463 . S
C3543 C3548 1.350 . S
C3543 N3551 1.427 . S
C3544 H3535 0.930 . S
C3544 C3542 1.378 . S
C3544 C3545 1.367 . S
C3545 C3544 1.367 . S
C3545 C3547 1.433 . S
C3546 C3542 1.350 . S
C3546 C3543 1.463 . S
C3546 N3550 1.427 . S
C3547 H3537 0.929 . S
C3547 C3545 1.433 . S
C3547 N3550 1.384 . S
C3548 H3539 0.929 . S
C3548 C3540 1.378 . S
C3548 C3543 1.350 . S
C3549 H3536 0.929 . S
C3549 C3541 1.433 . S
C3549 N3551 1.384 . S
N3550 C3546 1.427 . S
N3550 C3547 1.384 . S
N3551 C3543 1.427 . S
N3551 C3549 1.384 . S
H3552 C3558 0.930 . S
H3553 C3562 0.930 . S
H3554 C3567 0.929 . S
H3555 C3565 0.929 . S
H3556 C3560 0.929 . S
H3557 C3566 0.929 . S
C3558 H3552 0.930 . S
C3558 C3559 1.367 . S
C3558 C3566 1.378 . S
C3559 C3558 1.367 . S
C3559 C3567 1.433 . S
C3560 H3556 0.929 . S
C3560 C3562 1.378 . S
C3560 C3564 1.350 . S
C3561 C3564 1.463 . S
C3561 C3566 1.350 . S
C3561 N3569 1.427 . S
C3562 H3553 0.930 . S
C3562 C3560 1.378 . S
C3562 C3563 1.367 . S
C3563 C3562 1.367 . S
C3563 C3565 1.433 . S
C3564 C3560 1.350 . S
C3564 C3561 1.463 . S
C3564 N3568 1.427 . S
C3565 H3555 0.929 . S
C3565 C3563 1.433 . S
C3565 N3568 1.384 . S
C3566 H3557 0.929 . S
C3566 C3558 1.378 . S
C3566 C3561 1.350 . S
C3567 H3554 0.929 . S
C3567 C3559 1.433 . S
C3567 N3569 1.384 . S
N3568 C3564 1.427 . S
N3568 C3565 1.384 . S
N3569 C3561 1.427 . S
N3569 C3567 1.384 . S
H3570 C3576 0.930 . S
H3571 C3580 0.930 . S
H3572 C3585 0.929 . S
H3573 C3583 0.929 . S
H3574 C3578 0.929 . S
H3575 C3584 0.929 . S
C3576 H3570 0.930 . S
C3576 C3577 1.367 . S
C3576 C3584 1.378 . S
C3577 C3576 1.367 . S
C3577 C3585 1.433 . S
C3578 H3574 0.929 . S
C3578 C3580 1.378 . S
C3578 C3582 1.350 . S
C3579 C3582 1.463 . S
C3579 C3584 1.350 . S
C3579 N3587 1.427 . S
C3580 H3571 0.930 . S
C3580 C3578 1.378 . S
C3580 C3581 1.367 . S
C3581 C3580 1.367 . S
C3581 C3583 1.433 . S
C3582 C3578 1.350 . S
C3582 C3579 1.463 . S
C3582 N3586 1.427 . S
C3583 H3573 0.929 . S
C3583 C3581 1.433 . S
C3583 N3586 1.384 . S
C3584 H3575 0.929 . S
C3584 C3576 1.378 . S
C3584 C3579 1.350 . S
C3585 H3572 0.929 . S
C3585 C3577 1.433 . S
C3585 N3587 1.384 . S
N3586 C3582 1.427 . S
N3586 C3583 1.384 . S
N3587 C3579 1.427 . S
N3587 C3585 1.384 . S
H3588 C3594 0.930 . S
H3589 C3598 0.930 . S
H3590 C3603 0.929 . S
H3591 C3601 0.929 . S
H3592 C3596 0.929 . S
H3593 C3602 0.929 . S
C3594 H3588 0.930 . S
C3594 C3595 1.367 . S
C3594 C3602 1.378 . S
C3595 C3594 1.367 . S
C3595 C3603 1.433 . S
C3596 H3592 0.929 . S
C3596 C3598 1.378 . S
C3596 C3600 1.350 . S
C3597 C3600 1.463 . S
C3597 C3602 1.350 . S
C3597 N3605 1.427 . S
C3598 H3589 0.930 . S
C3598 C3596 1.378 . S
C3598 C3599 1.367 . S
C3599 C3598 1.367 . S
C3599 C3601 1.433 . S
C3600 C3596 1.350 . S
C3600 C3597 1.463 . S
C3600 N3604 1.427 . S
C3601 H3591 0.929 . S
C3601 C3599 1.433 . S
C3601 N3604 1.384 . S
C3602 H3593 0.929 . S
C3602 C3594 1.378 . S
C3602 C3597 1.350 . S
C3603 H3590 0.929 . S
C3603 C3595 1.433 . S
C3603 N3605 1.384 . S
N3604 C3600 1.427 . S
N3604 C3601 1.384 . S
N3605 C3597 1.427 . S
N3605 C3603 1.384 . S
H3606 C3612 0.930 . S
H3607 C3616 0.930 . S
H3608 C3621 0.929 . S
H3609 C3619 0.929 . S
H3610 C3614 0.929 . S
H3611 C3620 0.929 . S
C3612 H3606 0.930 . S
C3612 C3613 1.367 . S
C3612 C3620 1.378 . S
C3613 C3612 1.367 . S
C3613 C3621 1.433 . S
C3614 H3610 0.929 . S
C3614 C3616 1.378 . S
C3614 C3618 1.350 . S
C3615 C3618 1.463 . S
C3615 C3620 1.350 . S
C3615 N3623 1.427 . S
C3616 H3607 0.930 . S
C3616 C3614 1.378 . S
C3616 C3617 1.367 . S
C3617 C3616 1.367 . S
C3617 C3619 1.433 . S
C3618 C3614 1.350 . S
C3618 C3615 1.463 . S
C3618 N3622 1.427 . S
C3619 H3609 0.929 . S
C3619 C3617 1.433 . S
C3619 N3622 1.384 . S
C3620 H3611 0.929 . S
C3620 C3612 1.378 . S
C3620 C3615 1.350 . S
C3621 H3608 0.929 . S
C3621 C3613 1.433 . S
C3621 N3623 1.384 . S
N3622 C3618 1.427 . S
N3622 C3619 1.384 . S
N3623 C3615 1.427 . S
N3623 C3621 1.384 . S
H3624 C3630 0.930 . S
H3625 C3634 0.930 . S
H3626 C3639 0.929 . S
H3627 C3637 0.929 . S
H3628 C3632 0.929 . S
H3629 C3638 0.929 . S
C3630 H3624 0.930 . S
C3630 C3631 1.367 . S
C3630 C3638 1.378 . S
C3631 C3630 1.367 . S
C3631 C3639 1.433 . S
C3632 H3628 0.929 . S
C3632 C3634 1.378 . S
C3632 C3636 1.350 . S
C3633 C3636 1.463 . S
C3633 C3638 1.350 . S
C3633 N3641 1.427 . S
C3634 H3625 0.930 . S
C3634 C3632 1.378 . S
C3634 C3635 1.367 . S
C3635 C3634 1.367 . S
C3635 C3637 1.433 . S
C3636 C3632 1.350 . S
C3636 C3633 1.463 . S
C3636 N3640 1.427 . S
C3637 H3627 0.929 . S
C3637 C3635 1.433 . S
C3637 N3640 1.384 . S
C3638 H3629 0.929 . S
C3638 C3630 1.378 . S
C3638 C3633 1.350 . S
C3639 H3626 0.929 . S
C3639 C3631 1.433 . S
C3639 N3641 1.384 . S
N3640 C3636 1.427 . S
N3640 C3637 1.384 . S
N3641 C3633 1.427 . S
N3641 C3639 1.384 . S
H3642 C3648 0.930 . S
H3643 C3652 0.930 . S
H3644 C3657 0.929 . S
H3645 C3655 0.929 . S
H3646 C3650 0.929 . S
H3647 C3656 0.929 . S
C3648 H3642 0.930 . S
C3648 C3649 1.367 . S
C3648 C3656 1.378 . S
C3649 C3648 1.367 . S
C3649 C3657 1.433 . S
C3650 H3646 0.929 . S
C3650 C3652 1.378 . S
C3650 C3654 1.350 . S
C3651 C3654 1.463 . S
C3651 C3656 1.350 . S
C3651 N3659 1.427 . S
C3652 H3643 0.930 . S
C3652 C3650 1.378 . S
C3652 C3653 1.367 . S
C3653 C3652 1.367 . S
C3653 C3655 1.433 . S
C3654 C3650 1.350 . S
C3654 C3651 1.463 . S
C3654 N3658 1.427 . S
C3655 H3645 0.929 . S
C3655 C3653 1.433 . S
C3655 N3658 1.384 . S
C3656 H3647 0.929 . S
C3656 C3648 1.378 . S
C3656 C3651 1.350 . S
C3657 H3644 0.929 . S
C3657 C3649 1.433 . S
C3657 N3659 1.384 . S
N3658 C3654 1.427 . S
N3658 C3655 1.384 . S
N3659 C3651 1.427 . S
N3659 C3657 1.384 . S
H3660 C3666 0.930 . S
H3661 C3670 0.930 . S
H3662 C3675 0.929 . S
H3663 C3673 0.929 . S
H3664 C3668 0.929 . S
H3665 C3674 0.929 . S
C3666 H3660 0.930 . S
C3666 C3667 1.367 . S
C3666 C3674 1.378 . S
C3667 C3666 1.367 . S
C3667 C3675 1.433 . S
C3668 H3664 0.929 . S
C3668 C3670 1.378 . S
C3668 C3672 1.350 . S
C3669 C3672 1.463 . S
C3669 C3674 1.350 . S
C3669 N3677 1.427 . S
C3670 H3661 0.930 . S
C3670 C3668 1.378 . S
C3670 C3671 1.367 . S
C3671 C3670 1.367 . S
C3671 C3673 1.433 . S
C3672 C3668 1.350 . S
C3672 C3669 1.463 . S
C3672 N3676 1.427 . S
C3673 H3663 0.929 . S
C3673 C3671 1.433 . S
C3673 N3676 1.384 . S
C3674 H3665 0.929 . S
C3674 C3666 1.378 . S
C3674 C3669 1.350 . S
C3675 H3662 0.929 . S
C3675 C3667 1.433 . S
C3675 N3677 1.384 . S
N3676 C3672 1.427 . S
N3676 C3673 1.384 . S
N3677 C3669 1.427 . S
N3677 C3675 1.384 . S
H3678 C3684 0.930 . S
H3679 C3688 0.930 . S
H3680 C3693 0.929 . S
H3681 C3691 0.929 . S
H3682 C3686 0.929 . S
H3683 C3692 0.929 . S
C3684 H3678 0.930 . S
C3684 C3685 1.367 . S
C3684 C3692 1.378 . S
C3685 C3684 1.367 . S
C3685 C3693 1.433 . S
C3686 H3682 0.929 . S
C3686 C3688 1.378 . S
C3686 C3690 1.350 . S
C3687 C3690 1.463 . S
C3687 C3692 1.350 . S
C3687 N3695 1.427 . S
C3688 H3679 0.930 . S
C3688 C3686 1.378 . S
C3688 C3689 1.367 . S
C3689 C3688 1.367 . S
C3689 C3691 1.433 . S
C3690 C3686 1.350 . S
C3690 C3687 1.463 . S
C3690 N3694 1.427 . S
C3691 H3681 0.929 . S
C3691 C3689 1.433 . S
C3691 N3694 1.384 . S
C3692 H3683 0.929 . S
C3692 C3684 1.378 . S
C3692 C3687 1.350 . S
C3693 H3680 0.929 . S
C3693 C3685 1.433 . S
C3693 N3695 1.384 . S
N3694 C3690 1.427 . S
N3694 C3691 1.384 . S
N3695 C3687 1.427 . S
N3695 C3693 1.384 . S
H3696 C3702 0.930 . S
H3697 C3706 0.930 . S
H3698 C3711 0.929 . S
H3699 C3709 0.929 . S
H3700 C3704 0.929 . S
H3701 C3710 0.929 . S
C3702 H3696 0.930 . S
C3702 C3703 1.367 . S
C3702 C3710 1.378 . S
C3703 C3702 1.367 . S
C3703 C3711 1.433 . S
C3704 H3700 0.929 . S
C3704 C3706 1.378 . S
C3704 C3708 1.350 . S
C3705 C3708 1.463 . S
C3705 C3710 1.350 . S
C3705 N3713 1.427 . S
C3706 H3697 0.930 . S
C3706 C3704 1.378 . S
C3706 C3707 1.367 . S
C3707 C3706 1.367 . S
C3707 C3709 1.433 . S
C3708 C3704 1.350 . S
C3708 C3705 1.463 . S
C3708 N3712 1.427 . S
C3709 H3699 0.929 . S
C3709 C3707 1.433 . S
C3709 N3712 1.384 . S
C3710 H3701 0.929 . S
C3710 C3702 1.378 . S
C3710 C3705 1.350 . S
C3711 H3698 0.929 . S
C3711 C3703 1.433 . S
C3711 N3713 1.384 . S
N3712 C3708 1.427 . S
N3712 C3709 1.384 . S
N3713 C3705 1.427 . S
N3713 C3711 1.384 . S
H3714 C3720 0.930 . S
H3715 C3724 0.930 . S
H3716 C3729 0.929 . S
H3717 C3727 0.929 . S
H3718 C3722 0.929 . S
H3719 C3728 0.929 . S
C3720 H3714 0.930 . S
C3720 C3721 1.367 . S
C3720 C3728 1.378 . S
C3721 C3720 1.367 . S
C3721 C3729 1.433 . S
C3722 H3718 0.929 . S
C3722 C3724 1.378 . S
C3722 C3726 1.350 . S
C3723 C3726 1.463 . S
C3723 C3728 1.350 . S
C3723 N3731 1.427 . S
C3724 H3715 0.930 . S
C3724 C3722 1.378 . S
C3724 C3725 1.367 . S
C3725 C3724 1.367 . S
C3725 C3727 1.433 . S
C3726 C3722 1.350 . S
C3726 C3723 1.463 . S
C3726 N3730 1.427 . S
C3727 H3717 0.929 . S
C3727 C3725 1.433 . S
C3727 N3730 1.384 . S
C3728 H3719 0.929 . S
C3728 C3720 1.378 . S
C3728 C3723 1.350 . S
C3729 H3716 0.929 . S
C3729 C3721 1.433 . S
C3729 N3731 1.384 . S
N3730 C3726 1.427 . S
N3730 C3727 1.384 . S
N3731 C3723 1.427 . S
N3731 C3729 1.384 . S
H3732 C3738 0.930 . S
H3733 C3742 0.930 . S
H3734 C3747 0.929 . S
H3735 C3745 0.929 . S
H3736 C3740 0.929 . S
H3737 C3746 0.929 . S
C3738 H3732 0.930 . S
C3738 C3739 1.367 . S
C3738 C3746 1.378 . S
C3739 C3738 1.367 . S
C3739 C3747 1.433 . S
C3740 H3736 0.929 . S
C3740 C3742 1.378 . S
C3740 C3744 1.350 . S
C3741 C3744 1.463 . S
C3741 C3746 1.350 . S
C3741 N3749 1.427 . S
C3742 H3733 0.930 . S
C3742 C3740 1.378 . S
C3742 C3743 1.367 . S
C3743 C3742 1.367 . S
C3743 C3745 1.433 . S
C3744 C3740 1.350 . S
C3744 C3741 1.463 . S
C3744 N3748 1.427 . S
C3745 H3735 0.929 . S
C3745 C3743 1.433 . S
C3745 N3748 1.384 . S
C3746 H3737 0.929 . S
C3746 C3738 1.378 . S
C3746 C3741 1.350 . S
C3747 H3734 0.929 . S
C3747 C3739 1.433 . S
C3747 N3749 1.384 . S
N3748 C3744 1.427 . S
N3748 C3745 1.384 . S
N3749 C3741 1.427 . S
N3749 C3747 1.384 . S
H3750 C3756 0.930 . S
H3751 C3760 0.930 . S
H3752 C3765 0.929 . S
H3753 C3763 0.929 . S
H3754 C3758 0.929 . S
H3755 C3764 0.929 . S
C3756 H3750 0.930 . S
C3756 C3757 1.367 . S
C3756 C3764 1.378 . S
C3757 C3756 1.367 . S
C3757 C3765 1.433 . S
C3758 H3754 0.929 . S
C3758 C3760 1.378 . S
C3758 C3762 1.350 . S
C3759 C3762 1.463 . S
C3759 C3764 1.350 . S
C3759 N3767 1.427 . S
C3760 H3751 0.930 . S
C3760 C3758 1.378 . S
C3760 C3761 1.367 . S
C3761 C3760 1.367 . S
C3761 C3763 1.433 . S
C3762 C3758 1.350 . S
C3762 C3759 1.463 . S
C3762 N3766 1.427 . S
C3763 H3753 0.929 . S
C3763 C3761 1.433 . S
C3763 N3766 1.384 . S
C3764 H3755 0.929 . S
C3764 C3756 1.378 . S
C3764 C3759 1.350 . S
C3765 H3752 0.929 . S
C3765 C3757 1.433 . S
C3765 N3767 1.384 . S
N3766 C3762 1.427 . S
N3766 C3763 1.384 . S
N3767 C3759 1.427 . S
N3767 C3765 1.384 . S
H3768 C3774 0.930 . S
H3769 C3778 0.930 . S
H3770 C3783 0.929 . S
H3771 C3781 0.929 . S
H3772 C3776 0.929 . S
H3773 C3782 0.929 . S
C3774 H3768 0.930 . S
C3774 C3775 1.367 . S
C3774 C3782 1.378 . S
C3775 C3774 1.367 . S
C3775 C3783 1.433 . S
C3776 H3772 0.929 . S
C3776 C3778 1.378 . S
C3776 C3780 1.350 . S
C3777 C3780 1.463 . S
C3777 C3782 1.350 . S
C3777 N3785 1.427 . S
C3778 H3769 0.930 . S
C3778 C3776 1.378 . S
C3778 C3779 1.367 . S
C3779 C3778 1.367 . S
C3779 C3781 1.433 . S
C3780 C3776 1.350 . S
C3780 C3777 1.463 . S
C3780 N3784 1.427 . S
C3781 H3771 0.929 . S
C3781 C3779 1.433 . S
C3781 N3784 1.384 . S
C3782 H3773 0.929 . S
C3782 C3774 1.378 . S
C3782 C3777 1.350 . S
C3783 H3770 0.929 . S
C3783 C3775 1.433 . S
C3783 N3785 1.384 . S
N3784 C3780 1.427 . S
N3784 C3781 1.384 . S
N3785 C3777 1.427 . S
N3785 C3783 1.384 . S
H3786 C3792 0.930 . S
H3787 C3796 0.930 . S
H3788 C3801 0.929 . S
H3789 C3799 0.929 . S
H3790 C3794 0.929 . S
H3791 C3800 0.929 . S
C3792 H3786 0.930 . S
C3792 C3793 1.367 . S
C3792 C3800 1.378 . S
C3793 C3792 1.367 . S
C3793 C3801 1.433 . S
C3794 H3790 0.929 . S
C3794 C3796 1.378 . S
C3794 C3798 1.350 . S
C3795 C3798 1.463 . S
C3795 C3800 1.350 . S
C3795 N3803 1.427 . S
C3796 H3787 0.930 . S
C3796 C3794 1.378 . S
C3796 C3797 1.367 . S
C3797 C3796 1.367 . S
C3797 C3799 1.433 . S
C3798 C3794 1.350 . S
C3798 C3795 1.463 . S
C3798 N3802 1.427 . S
C3799 H3789 0.929 . S
C3799 C3797 1.433 . S
C3799 N3802 1.384 . S
C3800 H3791 0.929 . S
C3800 C3792 1.378 . S
C3800 C3795 1.350 . S
C3801 H3788 0.929 . S
C3801 C3793 1.433 . S
C3801 N3803 1.384 . S
N3802 C3798 1.427 . S
N3802 C3799 1.384 . S
N3803 C3795 1.427 . S
N3803 C3801 1.384 . S
H3804 C3810 0.930 . S
H3805 C3814 0.930 . S
H3806 C3819 0.929 . S
H3807 C3817 0.929 . S
H3808 C3812 0.929 . S
H3809 C3818 0.929 . S
C3810 H3804 0.930 . S
C3810 C3811 1.367 . S
C3810 C3818 1.378 . S
C3811 C3810 1.367 . S
C3811 C3819 1.433 . S
C3812 H3808 0.929 . S
C3812 C3814 1.378 . S
C3812 C3816 1.350 . S
C3813 C3816 1.463 . S
C3813 C3818 1.350 . S
C3813 N3821 1.427 . S
C3814 H3805 0.930 . S
C3814 C3812 1.378 . S
C3814 C3815 1.367 . S
C3815 C3814 1.367 . S
C3815 C3817 1.433 . S
C3816 C3812 1.350 . S
C3816 C3813 1.463 . S
C3816 N3820 1.427 . S
C3817 H3807 0.929 . S
C3817 C3815 1.433 . S
C3817 N3820 1.384 . S
C3818 H3809 0.929 . S
C3818 C3810 1.378 . S
C3818 C3813 1.350 . S
C3819 H3806 0.929 . S
C3819 C3811 1.433 . S
C3819 N3821 1.384 . S
N3820 C3816 1.427 . S
N3820 C3817 1.384 . S
N3821 C3813 1.427 . S
N3821 C3819 1.384 . S
H3822 C3828 0.930 . S
H3823 C3832 0.930 . S
H3824 C3837 0.929 . S
H3825 C3835 0.929 . S
H3826 C3830 0.929 . S
H3827 C3836 0.929 . S
C3828 H3822 0.930 . S
C3828 C3829 1.367 . S
C3828 C3836 1.378 . S
C3829 C3828 1.367 . S
C3829 C3837 1.433 . S
C3830 H3826 0.929 . S
C3830 C3832 1.378 . S
C3830 C3834 1.350 . S
C3831 C3834 1.463 . S
C3831 C3836 1.350 . S
C3831 N3839 1.427 . S
C3832 H3823 0.930 . S
C3832 C3830 1.378 . S
C3832 C3833 1.367 . S
C3833 C3832 1.367 . S
C3833 C3835 1.433 . S
C3834 C3830 1.350 . S
C3834 C3831 1.463 . S
C3834 N3838 1.427 . S
C3835 H3825 0.929 . S
C3835 C3833 1.433 . S
C3835 N3838 1.384 . S
C3836 H3827 0.929 . S
C3836 C3828 1.378 . S
C3836 C3831 1.350 . S
C3837 H3824 0.929 . S
C3837 C3829 1.433 . S
C3837 N3839 1.384 . S
N3838 C3834 1.427 . S
N3838 C3835 1.384 . S
N3839 C3831 1.427 . S
N3839 C3837 1.384 . S
H3840 C3846 0.930 . S
H3841 C3850 0.930 . S
H3842 C3855 0.929 . S
H3843 C3853 0.929 . S
H3844 C3848 0.929 . S
H3845 C3854 0.929 . S
C3846 H3840 0.930 . S
C3846 C3847 1.367 . S
C3846 C3854 1.378 . S
C3847 C3846 1.367 . S
C3847 C3855 1.433 . S
C3848 H3844 0.929 . S
C3848 C3850 1.378 . S
C3848 C3852 1.350 . S
C3849 C3852 1.463 . S
C3849 C3854 1.350 . S
C3849 N3857 1.427 . S
C3850 H3841 0.930 . S
C3850 C3848 1.378 . S
C3850 C3851 1.367 . S
C3851 C3850 1.367 . S
C3851 C3853 1.433 . S
C3852 C3848 1.350 . S
C3852 C3849 1.463 . S
C3852 N3856 1.427 . S
C3853 H3843 0.929 . S
C3853 C3851 1.433 . S
C3853 N3856 1.384 . S
C3854 H3845 0.929 . S
C3854 C3846 1.378 . S
C3854 C3849 1.350 . S
C3855 H3842 0.929 . S
C3855 C3847 1.433 . S
C3855 N3857 1.384 . S
N3856 C3852 1.427 . S
N3856 C3853 1.384 . S
N3857 C3849 1.427 . S
N3857 C3855 1.384 . S
H3858 C3864 0.930 . S
H3859 C3868 0.930 . S
H3860 C3873 0.929 . S
H3861 C3871 0.929 . S
H3862 C3866 0.929 . S
H3863 C3872 0.929 . S
C3864 H3858 0.930 . S
C3864 C3865 1.367 . S
C3864 C3872 1.378 . S
C3865 C3864 1.367 . S
C3865 C3873 1.433 . S
C3866 H3862 0.929 . S
C3866 C3868 1.378 . S
C3866 C3870 1.350 . S
C3867 C3870 1.463 . S
C3867 C3872 1.350 . S
C3867 N3875 1.427 . S
C3868 H3859 0.930 . S
C3868 C3866 1.378 . S
C3868 C3869 1.367 . S
C3869 C3868 1.367 . S
C3869 C3871 1.433 . S
C3870 C3866 1.350 . S
C3870 C3867 1.463 . S
C3870 N3874 1.427 . S
C3871 H3861 0.929 . S
C3871 C3869 1.433 . S
C3871 N3874 1.384 . S
C3872 H3863 0.929 . S
C3872 C3864 1.378 . S
C3872 C3867 1.350 . S
C3873 H3860 0.929 . S
C3873 C3865 1.433 . S
C3873 N3875 1.384 . S
N3874 C3870 1.427 . S
N3874 C3871 1.384 . S
N3875 C3867 1.427 . S
N3875 C3873 1.384 . S
H3876 C3882 0.930 . S
H3877 C3886 0.930 . S
H3878 C3891 0.929 . S
H3879 C3889 0.929 . S
H3880 C3884 0.929 . S
H3881 C3890 0.929 . S
C3882 H3876 0.930 . S
C3882 C3883 1.367 . S
C3882 C3890 1.378 . S
C3883 C3882 1.367 . S
C3883 C3891 1.433 . S
C3884 H3880 0.929 . S
C3884 C3886 1.378 . S
C3884 C3888 1.350 . S
C3885 C3888 1.463 . S
C3885 C3890 1.350 . S
C3885 N3893 1.427 . S
C3886 H3877 0.930 . S
C3886 C3884 1.378 . S
C3886 C3887 1.367 . S
C3887 C3886 1.367 . S
C3887 C3889 1.433 . S
C3888 C3884 1.350 . S
C3888 C3885 1.463 . S
C3888 N3892 1.427 . S
C3889 H3879 0.929 . S
C3889 C3887 1.433 . S
C3889 N3892 1.384 . S
C3890 H3881 0.929 . S
C3890 C3882 1.378 . S
C3890 C3885 1.350 . S
C3891 H3878 0.929 . S
C3891 C3883 1.433 . S
C3891 N3893 1.384 . S
N3892 C3888 1.427 . S
N3892 C3889 1.384 . S
N3893 C3885 1.427 . S
N3893 C3891 1.384 . S
H3894 C3900 0.930 . S
H3895 C3904 0.930 . S
H3896 C3909 0.929 . S
H3897 C3907 0.929 . S
H3898 C3902 0.929 . S
H3899 C3908 0.929 . S
C3900 H3894 0.930 . S
C3900 C3901 1.367 . S
C3900 C3908 1.378 . S
C3901 C3900 1.367 . S
C3901 C3909 1.433 . S
C3902 H3898 0.929 . S
C3902 C3904 1.378 . S
C3902 C3906 1.350 . S
C3903 C3906 1.463 . S
C3903 C3908 1.350 . S
C3903 N3911 1.427 . S
C3904 H3895 0.930 . S
C3904 C3902 1.378 . S
C3904 C3905 1.367 . S
C3905 C3904 1.367 . S
C3905 C3907 1.433 . S
C3906 C3902 1.350 . S
C3906 C3903 1.463 . S
C3906 N3910 1.427 . S
C3907 H3897 0.929 . S
C3907 C3905 1.433 . S
C3907 N3910 1.384 . S
C3908 H3899 0.929 . S
C3908 C3900 1.378 . S
C3908 C3903 1.350 . S
C3909 H3896 0.929 . S
C3909 C3901 1.433 . S
C3909 N3911 1.384 . S
N3910 C3906 1.427 . S
N3910 C3907 1.384 . S
N3911 C3903 1.427 . S
N3911 C3909 1.384 . S
H3912 C3918 0.930 . S
H3913 C3922 0.930 . S
H3914 C3927 0.929 . S
H3915 C3925 0.929 . S
H3916 C3920 0.929 . S
H3917 C3926 0.929 . S
C3918 H3912 0.930 . S
C3918 C3919 1.367 . S
C3918 C3926 1.378 . S
C3919 C3918 1.367 . S
C3919 C3927 1.433 . S
C3920 H3916 0.929 . S
C3920 C3922 1.378 . S
C3920 C3924 1.350 . S
C3921 C3924 1.463 . S
C3921 C3926 1.350 . S
C3921 N3929 1.427 . S
C3922 H3913 0.930 . S
C3922 C3920 1.378 . S
C3922 C3923 1.367 . S
C3923 C3922 1.367 . S
C3923 C3925 1.433 . S
C3924 C3920 1.350 . S
C3924 C3921 1.463 . S
C3924 N3928 1.427 . S
C3925 H3915 0.929 . S
C3925 C3923 1.433 . S
C3925 N3928 1.384 . S
C3926 H3917 0.929 . S
C3926 C3918 1.378 . S
C3926 C3921 1.350 . S
C3927 H3914 0.929 . S
C3927 C3919 1.433 . S
C3927 N3929 1.384 . S
N3928 C3924 1.427 . S
N3928 C3925 1.384 . S
N3929 C3921 1.427 . S
N3929 C3927 1.384 . S
H3930 C3936 0.930 . S
H3931 C3940 0.930 . S
H3932 C3945 0.929 . S
H3933 C3943 0.929 . S
H3934 C3938 0.929 . S
H3935 C3944 0.929 . S
C3936 H3930 0.930 . S
C3936 C3937 1.367 . S
C3936 C3944 1.378 . S
C3937 C3936 1.367 . S
C3937 C3945 1.433 . S
C3938 H3934 0.929 . S
C3938 C3940 1.378 . S
C3938 C3942 1.350 . S
C3939 C3942 1.463 . S
C3939 C3944 1.350 . S
C3939 N3947 1.427 . S
C3940 H3931 0.930 . S
C3940 C3938 1.378 . S
C3940 C3941 1.367 . S
C3941 C3940 1.367 . S
C3941 C3943 1.433 . S
C3942 C3938 1.350 . S
C3942 C3939 1.463 . S
C3942 N3946 1.427 . S
C3943 H3933 0.929 . S
C3943 C3941 1.433 . S
C3943 N3946 1.384 . S
C3944 H3935 0.929 . S
C3944 C3936 1.378 . S
C3944 C3939 1.350 . S
C3945 H3932 0.929 . S
C3945 C3937 1.433 . S
C3945 N3947 1.384 . S
N3946 C3942 1.427 . S
N3946 C3943 1.384 . S
N3947 C3939 1.427 . S
N3947 C3945 1.384 . S
H3948 C3954 0.930 . S
H3949 C3958 0.930 . S
H3950 C3963 0.929 . S
H3951 C3961 0.929 . S
H3952 C3956 0.929 . S
H3953 C3962 0.929 . S
C3954 H3948 0.930 . S
C3954 C3955 1.367 . S
C3954 C3962 1.378 . S
C3955 C3954 1.367 . S
C3955 C3963 1.433 . S
C3956 H3952 0.929 . S
C3956 C3958 1.378 . S
C3956 C3960 1.350 . S
C3957 C3960 1.463 . S
C3957 C3962 1.350 . S
C3957 N3965 1.427 . S
C3958 H3949 0.930 . S
C3958 C3956 1.378 . S
C3958 C3959 1.367 . S
C3959 C3958 1.367 . S
C3959 C3961 1.433 . S
C3960 C3956 1.350 . S
C3960 C3957 1.463 . S
C3960 N3964 1.427 . S
C3961 H3951 0.929 . S
C3961 C3959 1.433 . S
C3961 N3964 1.384 . S
C3962 H3953 0.929 . S
C3962 C3954 1.378 . S
C3962 C3957 1.350 . S
C3963 H3950 0.929 . S
C3963 C3955 1.433 . S
C3963 N3965 1.384 . S
N3964 C3960 1.427 . S
N3964 C3961 1.384 . S
N3965 C3957 1.427 . S
N3965 C3963 1.384 . S
H3966 C3972 0.930 . S
H3967 C3976 0.930 . S
H3968 C3981 0.929 . S
H3969 C3979 0.929 . S
H3970 C3974 0.929 . S
H3971 C3980 0.929 . S
C3972 H3966 0.930 . S
C3972 C3973 1.367 . S
C3972 C3980 1.378 . S
C3973 C3972 1.367 . S
C3973 C3981 1.433 . S
C3974 H3970 0.929 . S
C3974 C3976 1.378 . S
C3974 C3978 1.350 . S
C3975 C3978 1.463 . S
C3975 C3980 1.350 . S
C3975 N3983 1.427 . S
C3976 H3967 0.930 . S
C3976 C3974 1.378 . S
C3976 C3977 1.367 . S
C3977 C3976 1.367 . S
C3977 C3979 1.433 . S
C3978 C3974 1.350 . S
C3978 C3975 1.463 . S
C3978 N3982 1.427 . S
C3979 H3969 0.929 . S
C3979 C3977 1.433 . S
C3979 N3982 1.384 . S
C3980 H3971 0.929 . S
C3980 C3972 1.378 . S
C3980 C3975 1.350 . S
C3981 H3968 0.929 . S
C3981 C3973 1.433 . S
C3981 N3983 1.384 . S
N3982 C3978 1.427 . S
N3982 C3979 1.384 . S
N3983 C3975 1.427 . S
N3983 C3981 1.384 . S
H3984 C3990 0.930 . S
H3985 C3994 0.930 . S
H3986 C3999 0.929 . S
H3987 C3997 0.929 . S
H3988 C3992 0.929 . S
H3989 C3998 0.929 . S
C3990 H3984 0.930 . S
C3990 C3991 1.367 . S
C3990 C3998 1.378 . S
C3991 C3990 1.367 . S
C3991 C3999 1.433 . S
C3992 H3988 0.929 . S
C3992 C3994 1.378 . S
C3992 C3996 1.350 . S
C3993 C3996 1.463 . S
C3993 C3998 1.350 . S
C3993 N4001 1.427 . S
C3994 H3985 0.930 . S
C3994 C3992 1.378 . S
C3994 C3995 1.367 . S
C3995 C3994 1.367 . S
C3995 C3997 1.433 . S
C3996 C3992 1.350 . S
C3996 C3993 1.463 . S
C3996 N4000 1.427 . S
C3997 H3987 0.929 . S
C3997 C3995 1.433 . S
C3997 N4000 1.384 . S
C3998 H3989 0.929 . S
C3998 C3990 1.378 . S
C3998 C3993 1.350 . S
C3999 H3986 0.929 . S
C3999 C3991 1.433 . S
C3999 N4001 1.384 . S
N4000 C3996 1.427 . S
N4000 C3997 1.384 . S
N4001 C3993 1.427 . S
N4001 C3999 1.384 . S
H4002 C4008 0.930 . S
H4003 C4012 0.930 . S
H4004 C4017 0.929 . S
H4005 C4015 0.929 . S
H4006 C4010 0.929 . S
H4007 C4016 0.929 . S
C4008 H4002 0.930 . S
C4008 C4009 1.367 . S
C4008 C4016 1.378 . S
C4009 C4008 1.367 . S
C4009 C4017 1.433 . S
C4010 H4006 0.929 . S
C4010 C4012 1.378 . S
C4010 C4014 1.350 . S
C4011 C4014 1.463 . S
C4011 C4016 1.350 . S
C4011 N4019 1.427 . S
C4012 H4003 0.930 . S
C4012 C4010 1.378 . S
C4012 C4013 1.367 . S
C4013 C4012 1.367 . S
C4013 C4015 1.433 . S
C4014 C4010 1.350 . S
C4014 C4011 1.463 . S
C4014 N4018 1.427 . S
C4015 H4005 0.929 . S
C4015 C4013 1.433 . S
C4015 N4018 1.384 . S
C4016 H4007 0.929 . S
C4016 C4008 1.378 . S
C4016 C4011 1.350 . S
C4017 H4004 0.929 . S
C4017 C4009 1.433 . S
C4017 N4019 1.384 . S
N4018 C4014 1.427 . S
N4018 C4015 1.384 . S
N4019 C4011 1.427 . S
N4019 C4017 1.384 . S
H4020 C4026 0.930 . S
H4021 C4030 0.930 . S
H4022 C4035 0.929 . S
H4023 C4033 0.929 . S
H4024 C4028 0.929 . S
H4025 C4034 0.929 . S
C4026 H4020 0.930 . S
C4026 C4027 1.367 . S
C4026 C4034 1.378 . S
C4027 C4026 1.367 . S
C4027 C4035 1.433 . S
C4028 H4024 0.929 . S
C4028 C4030 1.378 . S
C4028 C4032 1.350 . S
C4029 C4032 1.463 . S
C4029 C4034 1.350 . S
C4029 N4037 1.427 . S
C4030 H4021 0.930 . S
C4030 C4028 1.378 . S
C4030 C4031 1.367 . S
C4031 C4030 1.367 . S
C4031 C4033 1.433 . S
C4032 C4028 1.350 . S
C4032 C4029 1.463 . S
C4032 N4036 1.427 . S
C4033 H4023 0.929 . S
C4033 C4031 1.433 . S
C4033 N4036 1.384 . S
C4034 H4025 0.929 . S
C4034 C4026 1.378 . S
C4034 C4029 1.350 . S
C4035 H4022 0.929 . S
C4035 C4027 1.433 . S
C4035 N4037 1.384 . S
N4036 C4032 1.427 . S
N4036 C4033 1.384 . S
N4037 C4029 1.427 . S
N4037 C4035 1.384 . S
H4038 C4044 0.930 . S
H4039 C4048 0.930 . S
H4040 C4053 0.929 . S
H4041 C4051 0.929 . S
H4042 C4046 0.929 . S
H4043 C4052 0.929 . S
C4044 H4038 0.930 . S
C4044 C4045 1.367 . S
C4044 C4052 1.378 . S
C4045 C4044 1.367 . S
C4045 C4053 1.433 . S
C4046 H4042 0.929 . S
C4046 C4048 1.378 . S
C4046 C4050 1.350 . S
C4047 C4050 1.463 . S
C4047 C4052 1.350 . S
C4047 N4055 1.427 . S
C4048 H4039 0.930 . S
C4048 C4046 1.378 . S
C4048 C4049 1.367 . S
C4049 C4048 1.367 . S
C4049 C4051 1.433 . S
C4050 C4046 1.350 . S
C4050 C4047 1.463 . S
C4050 N4054 1.427 . S
C4051 H4041 0.929 . S
C4051 C4049 1.433 . S
C4051 N4054 1.384 . S
C4052 H4043 0.929 . S
C4052 C4044 1.378 . S
C4052 C4047 1.350 . S
C4053 H4040 0.929 . S
C4053 C4045 1.433 . S
C4053 N4055 1.384 . S
N4054 C4050 1.427 . S
N4054 C4051 1.384 . S
N4055 C4047 1.427 . S
N4055 C4053 1.384 . S
H4056 C4062 0.930 . S
H4057 C4066 0.930 . S
H4058 C4071 0.929 . S
H4059 C4069 0.929 . S
H4060 C4064 0.929 . S
H4061 C4070 0.929 . S
C4062 H4056 0.930 . S
C4062 C4063 1.367 . S
C4062 C4070 1.378 . S
C4063 C4062 1.367 . S
C4063 C4071 1.433 . S
C4064 H4060 0.929 . S
C4064 C4066 1.378 . S
C4064 C4068 1.350 . S
C4065 C4068 1.463 . S
C4065 C4070 1.350 . S
C4065 N4073 1.427 . S
C4066 H4057 0.930 . S
C4066 C4064 1.378 . S
C4066 C4067 1.367 . S
C4067 C4066 1.367 . S
C4067 C4069 1.433 . S
C4068 C4064 1.350 . S
C4068 C4065 1.463 . S
C4068 N4072 1.427 . S
C4069 H4059 0.929 . S
C4069 C4067 1.433 . S
C4069 N4072 1.384 . S
C4070 H4061 0.929 . S
C4070 C4062 1.378 . S
C4070 C4065 1.350 . S
C4071 H4058 0.929 . S
C4071 C4063 1.433 . S
C4071 N4073 1.384 . S
N4072 C4068 1.427 . S
N4072 C4069 1.384 . S
N4073 C4065 1.427 . S
N4073 C4071 1.384 . S
H4074 C4080 0.930 . S
H4075 C4084 0.930 . S
H4076 C4089 0.929 . S
H4077 C4087 0.929 . S
H4078 C4082 0.929 . S
H4079 C4088 0.929 . S
C4080 H4074 0.930 . S
C4080 C4081 1.367 . S
C4080 C4088 1.378 . S
C4081 C4080 1.367 . S
C4081 C4089 1.433 . S
C4082 H4078 0.929 . S
C4082 C4084 1.378 . S
C4082 C4086 1.350 . S
C4083 C4086 1.463 . S
C4083 C4088 1.350 . S
C4083 N4091 1.427 . S
C4084 H4075 0.930 . S
C4084 C4082 1.378 . S
C4084 C4085 1.367 . S
C4085 C4084 1.367 . S
C4085 C4087 1.433 . S
C4086 C4082 1.350 . S
C4086 C4083 1.463 . S
C4086 N4090 1.427 . S
C4087 H4077 0.929 . S
C4087 C4085 1.433 . S
C4087 N4090 1.384 . S
C4088 H4079 0.929 . S
C4088 C4080 1.378 . S
C4088 C4083 1.350 . S
C4089 H4076 0.929 . S
C4089 C4081 1.433 . S
C4089 N4091 1.384 . S
N4090 C4086 1.427 . S
N4090 C4087 1.384 . S
N4091 C4083 1.427 . S
N4091 C4089 1.384 . S
H4092 C4098 0.930 . S
H4093 C4102 0.930 . S
H4094 C4107 0.929 . S
H4095 C4105 0.929 . S
H4096 C4100 0.929 . S
H4097 C4106 0.929 . S
C4098 H4092 0.930 . S
C4098 C4099 1.367 . S
C4098 C4106 1.378 . S
C4099 C4098 1.367 . S
C4099 C4107 1.433 . S
C4100 H4096 0.929 . S
C4100 C4102 1.378 . S
C4100 C4104 1.350 . S
C4101 C4104 1.463 . S
C4101 C4106 1.350 . S
C4101 N4109 1.427 . S
C4102 H4093 0.930 . S
C4102 C4100 1.378 . S
C4102 C4103 1.367 . S
C4103 C4102 1.367 . S
C4103 C4105 1.433 . S
C4104 C4100 1.350 . S
C4104 C4101 1.463 . S
C4104 N4108 1.427 . S
C4105 H4095 0.929 . S
C4105 C4103 1.433 . S
C4105 N4108 1.384 . S
C4106 H4097 0.929 . S
C4106 C4098 1.378 . S
C4106 C4101 1.350 . S
C4107 H4094 0.929 . S
C4107 C4099 1.433 . S
C4107 N4109 1.384 . S
N4108 C4104 1.427 . S
N4108 C4105 1.384 . S
N4109 C4101 1.427 . S
N4109 C4107 1.384 . S
H4110 C4116 0.930 . S
H4111 C4120 0.930 . S
H4112 C4125 0.929 . S
H4113 C4123 0.929 . S
H4114 C4118 0.929 . S
H4115 C4124 0.929 . S
C4116 H4110 0.930 . S
C4116 C4117 1.367 . S
C4116 C4124 1.378 . S
C4117 C4116 1.367 . S
C4117 C4125 1.433 . S
C4118 H4114 0.929 . S
C4118 C4120 1.378 . S
C4118 C4122 1.350 . S
C4119 C4122 1.463 . S
C4119 C4124 1.350 . S
C4119 N4127 1.427 . S
C4120 H4111 0.930 . S
C4120 C4118 1.378 . S
C4120 C4121 1.367 . S
C4121 C4120 1.367 . S
C4121 C4123 1.433 . S
C4122 C4118 1.350 . S
C4122 C4119 1.463 . S
C4122 N4126 1.427 . S
C4123 H4113 0.929 . S
C4123 C4121 1.433 . S
C4123 N4126 1.384 . S
C4124 H4115 0.929 . S
C4124 C4116 1.378 . S
C4124 C4119 1.350 . S
C4125 H4112 0.929 . S
C4125 C4117 1.433 . S
C4125 N4127 1.384 . S
N4126 C4122 1.427 . S
N4126 C4123 1.384 . S
N4127 C4119 1.427 . S
N4127 C4125 1.384 . S
H4128 C4134 0.930 . S
H4129 C4138 0.930 . S
H4130 C4143 0.929 . S
H4131 C4141 0.929 . S
H4132 C4136 0.929 . S
H4133 C4142 0.929 . S
C4134 H4128 0.930 . S
C4134 C4135 1.367 . S
C4134 C4142 1.378 . S
C4135 C4134 1.367 . S
C4135 C4143 1.433 . S
C4136 H4132 0.929 . S
C4136 C4138 1.378 . S
C4136 C4140 1.350 . S
C4137 C4140 1.463 . S
C4137 C4142 1.350 . S
C4137 N4145 1.427 . S
C4138 H4129 0.930 . S
C4138 C4136 1.378 . S
C4138 C4139 1.367 . S
C4139 C4138 1.367 . S
C4139 C4141 1.433 . S
C4140 C4136 1.350 . S
C4140 C4137 1.463 . S
C4140 N4144 1.427 . S
C4141 H4131 0.929 . S
C4141 C4139 1.433 . S
C4141 N4144 1.384 . S
C4142 H4133 0.929 . S
C4142 C4134 1.378 . S
C4142 C4137 1.350 . S
C4143 H4130 0.929 . S
C4143 C4135 1.433 . S
C4143 N4145 1.384 . S
N4144 C4140 1.427 . S
N4144 C4141 1.384 . S
N4145 C4137 1.427 . S
N4145 C4143 1.384 . S
H4146 C4152 0.930 . S
H4147 C4156 0.930 . S
H4148 C4161 0.929 . S
H4149 C4159 0.929 . S
H4150 C4154 0.929 . S
H4151 C4160 0.929 . S
C4152 H4146 0.930 . S
C4152 C4153 1.367 . S
C4152 C4160 1.378 . S
C4153 C4152 1.367 . S
C4153 C4161 1.433 . S
C4154 H4150 0.929 . S
C4154 C4156 1.378 . S
C4154 C4158 1.350 . S
C4155 C4158 1.463 . S
C4155 C4160 1.350 . S
C4155 N4163 1.427 . S
C4156 H4147 0.930 . S
C4156 C4154 1.378 . S
C4156 C4157 1.367 . S
C4157 C4156 1.367 . S
C4157 C4159 1.433 . S
C4158 C4154 1.350 . S
C4158 C4155 1.463 . S
C4158 N4162 1.427 . S
C4159 H4149 0.929 . S
C4159 C4157 1.433 . S
C4159 N4162 1.384 . S
C4160 H4151 0.929 . S
C4160 C4152 1.378 . S
C4160 C4155 1.350 . S
C4161 H4148 0.929 . S
C4161 C4153 1.433 . S
C4161 N4163 1.384 . S
N4162 C4158 1.427 . S
N4162 C4159 1.384 . S
N4163 C4155 1.427 . S
N4163 C4161 1.384 . S
H4164 C4170 0.930 . S
H4165 C4174 0.930 . S
H4166 C4179 0.929 . S
H4167 C4177 0.929 . S
H4168 C4172 0.929 . S
H4169 C4178 0.929 . S
C4170 H4164 0.930 . S
C4170 C4171 1.367 . S
C4170 C4178 1.378 . S
C4171 C4170 1.367 . S
C4171 C4179 1.433 . S
C4172 H4168 0.929 . S
C4172 C4174 1.378 . S
C4172 C4176 1.350 . S
C4173 C4176 1.463 . S
C4173 C4178 1.350 . S
C4173 N4181 1.427 . S
C4174 H4165 0.930 . S
C4174 C4172 1.378 . S
C4174 C4175 1.367 . S
C4175 C4174 1.367 . S
C4175 C4177 1.433 . S
C4176 C4172 1.350 . S
C4176 C4173 1.463 . S
C4176 N4180 1.427 . S
C4177 H4167 0.929 . S
C4177 C4175 1.433 . S
C4177 N4180 1.384 . S
C4178 H4169 0.929 . S
C4178 C4170 1.378 . S
C4178 C4173 1.350 . S
C4179 H4166 0.929 . S
C4179 C4171 1.433 . S
C4179 N4181 1.384 . S
N4180 C4176 1.427 . S
N4180 C4177 1.384 . S
N4181 C4173 1.427 . S
N4181 C4179 1.384 . S
H4182 C4188 0.930 . S
H4183 C4192 0.930 . S
H4184 C4197 0.929 . S
H4185 C4195 0.929 . S
H4186 C4190 0.929 . S
H4187 C4196 0.929 . S
C4188 H4182 0.930 . S
C4188 C4189 1.367 . S
C4188 C4196 1.378 . S
C4189 C4188 1.367 . S
C4189 C4197 1.433 . S
C4190 H4186 0.929 . S
C4190 C4192 1.378 . S
C4190 C4194 1.350 . S
C4191 C4194 1.463 . S
C4191 C4196 1.350 . S
C4191 N4199 1.427 . S
C4192 H4183 0.930 . S
C4192 C4190 1.378 . S
C4192 C4193 1.367 . S
C4193 C4192 1.367 . S
C4193 C4195 1.433 . S
C4194 C4190 1.350 . S
C4194 C4191 1.463 . S
C4194 N4198 1.427 . S
C4195 H4185 0.929 . S
C4195 C4193 1.433 . S
C4195 N4198 1.384 . S
C4196 H4187 0.929 . S
C4196 C4188 1.378 . S
C4196 C4191 1.350 . S
C4197 H4184 0.929 . S
C4197 C4189 1.433 . S
C4197 N4199 1.384 . S
N4198 C4194 1.427 . S
N4198 C4195 1.384 . S
N4199 C4191 1.427 . S
N4199 C4197 1.384 . S
H4200 C4206 0.930 . S
H4201 C4210 0.930 . S
H4202 C4215 0.929 . S
H4203 C4213 0.929 . S
H4204 C4208 0.929 . S
H4205 C4214 0.929 . S
C4206 H4200 0.930 . S
C4206 C4207 1.367 . S
C4206 C4214 1.378 . S
C4207 C4206 1.367 . S
C4207 C4215 1.433 . S
C4208 H4204 0.929 . S
C4208 C4210 1.378 . S
C4208 C4212 1.350 . S
C4209 C4212 1.463 . S
C4209 C4214 1.350 . S
C4209 N4217 1.427 . S
C4210 H4201 0.930 . S
C4210 C4208 1.378 . S
C4210 C4211 1.367 . S
C4211 C4210 1.367 . S
C4211 C4213 1.433 . S
C4212 C4208 1.350 . S
C4212 C4209 1.463 . S
C4212 N4216 1.427 . S
C4213 H4203 0.929 . S
C4213 C4211 1.433 . S
C4213 N4216 1.384 . S
C4214 H4205 0.929 . S
C4214 C4206 1.378 . S
C4214 C4209 1.350 . S
C4215 H4202 0.929 . S
C4215 C4207 1.433 . S
C4215 N4217 1.384 . S
N4216 C4212 1.427 . S
N4216 C4213 1.384 . S
N4217 C4209 1.427 . S
N4217 C4215 1.384 . S
H4218 C4224 0.930 . S
H4219 C4228 0.930 . S
H4220 C4233 0.929 . S
H4221 C4231 0.929 . S
H4222 C4226 0.929 . S
H4223 C4232 0.929 . S
C4224 H4218 0.930 . S
C4224 C4225 1.367 . S
C4224 C4232 1.378 . S
C4225 C4224 1.367 . S
C4225 C4233 1.433 . S
C4226 H4222 0.929 . S
C4226 C4228 1.378 . S
C4226 C4230 1.350 . S
C4227 C4230 1.463 . S
C4227 C4232 1.350 . S
C4227 N4235 1.427 . S
C4228 H4219 0.930 . S
C4228 C4226 1.378 . S
C4228 C4229 1.367 . S
C4229 C4228 1.367 . S
C4229 C4231 1.433 . S
C4230 C4226 1.350 . S
C4230 C4227 1.463 . S
C4230 N4234 1.427 . S
C4231 H4221 0.929 . S
C4231 C4229 1.433 . S
C4231 N4234 1.384 . S
C4232 H4223 0.929 . S
C4232 C4224 1.378 . S
C4232 C4227 1.350 . S
C4233 H4220 0.929 . S
C4233 C4225 1.433 . S
C4233 N4235 1.384 . S
N4234 C4230 1.427 . S
N4234 C4231 1.384 . S
N4235 C4227 1.427 . S
N4235 C4233 1.384 . S
H4236 C4242 0.930 . S
H4237 C4246 0.930 . S
H4238 C4251 0.929 . S
H4239 C4249 0.929 . S
H4240 C4244 0.929 . S
H4241 C4250 0.929 . S
C4242 H4236 0.930 . S
C4242 C4243 1.367 . S
C4242 C4250 1.378 . S
C4243 C4242 1.367 . S
C4243 C4251 1.433 . S
C4244 H4240 0.929 . S
C4244 C4246 1.378 . S
C4244 C4248 1.350 . S
C4245 C4248 1.463 . S
C4245 C4250 1.350 . S
C4245 N4253 1.427 . S
C4246 H4237 0.930 . S
C4246 C4244 1.378 . S
C4246 C4247 1.367 . S
C4247 C4246 1.367 . S
C4247 C4249 1.433 . S
C4248 C4244 1.350 . S
C4248 C4245 1.463 . S
C4248 N4252 1.427 . S
C4249 H4239 0.929 . S
C4249 C4247 1.433 . S
C4249 N4252 1.384 . S
C4250 H4241 0.929 . S
C4250 C4242 1.378 . S
C4250 C4245 1.350 . S
C4251 H4238 0.929 . S
C4251 C4243 1.433 . S
C4251 N4253 1.384 . S
N4252 C4248 1.427 . S
N4252 C4249 1.384 . S
N4253 C4245 1.427 . S
N4253 C4251 1.384 . S
H4254 C4260 0.930 . S
H4255 C4264 0.930 . S
H4256 C4269 0.929 . S
H4257 C4267 0.929 . S
H4258 C4262 0.929 . S
H4259 C4268 0.929 . S
C4260 H4254 0.930 . S
C4260 C4261 1.367 . S
C4260 C4268 1.378 . S
C4261 C4260 1.367 . S
C4261 C4269 1.433 . S
C4262 H4258 0.929 . S
C4262 C4264 1.378 . S
C4262 C4266 1.350 . S
C4263 C4266 1.463 . S
C4263 C4268 1.350 . S
C4263 N4271 1.427 . S
C4264 H4255 0.930 . S
C4264 C4262 1.378 . S
C4264 C4265 1.367 . S
C4265 C4264 1.367 . S
C4265 C4267 1.433 . S
C4266 C4262 1.350 . S
C4266 C4263 1.463 . S
C4266 N4270 1.427 . S
C4267 H4257 0.929 . S
C4267 C4265 1.433 . S
C4267 N4270 1.384 . S
C4268 H4259 0.929 . S
C4268 C4260 1.378 . S
C4268 C4263 1.350 . S
C4269 H4256 0.929 . S
C4269 C4261 1.433 . S
C4269 N4271 1.384 . S
N4270 C4266 1.427 . S
N4270 C4267 1.384 . S
N4271 C4263 1.427 . S
N4271 C4269 1.384 . S
C2551 C877 1.548 . S
C2555 C38 1.533 . S
C2569 C2520 1.551 . S
C2573 C91 1.537 . S
C2587 C144 1.536 . S
C2591 C2414 1.552 . S
C2605 C197 1.542 . S
C2609 C2467 1.555 . S
C2623 C930 1.546 . S
C2627 C250 1.528 . S
C2641 C303 1.544 . S
C2645 C983 1.556 . S
C2659 C356 1.536 . S
C2663 C1036 1.552 . S
C2677 C2361 1.553 . S
C2681 C409 1.538 . S
C2695 C462 1.535 . S
C2699 C29 1.550 . S
C2713 C82 1.550 . S
C2717 C515 1.536 . S
C2731 C135 1.550 . S
C2735 C568 1.535 . S
C2749 C188 1.555 . S
C2753 C621 1.542 . S
C2767 C241 1.551 . S
C2771 C674 1.534 . S
C2785 C727 1.538 . S
C2789 C294 1.552 . S
C2803 C347 1.542 . S
C2807 C780 1.525 . S
C2821 C833 1.534 . S
C2825 C400 1.549 . S
C2839 C886 1.535 . S
C2843 C453 1.550 . S
C2857 C665 1.552 . S
C2861 C939 1.536 . S
C2875 C992 1.544 . S
C2879 C718 1.556 . S
C2893 C1045 1.529 . S
C2897 C771 1.545 . S
C2911 C2096 1.556 . S
C2915 C1098 1.543 . S
C2929 C1151 1.533 . S
C2933 C1831 1.550 . S
C2947 C1884 1.550 . S
C2951 C1204 1.535 . S
C2965 C1778 1.552 . S
C2969 C1257 1.538 . S
C2983 C2149 1.547 . S
C2987 C1310 1.529 . S
C3001 C1363 1.543 . S
C3005 C1248 1.555 . S
C3019 C1416 1.535 . S
C3023 C1142 1.551 . S
C3037 C1469 1.544 . S
C3041 C1195 1.556 . S
C3055 C1522 1.524 . S
C3059 C2202 1.542 . S
C3073 C2255 1.552 . S
C3077 C1575 1.537 . S
C3091 C1628 1.525 . S
C3095 C2308 1.543 . S
C3109 C1089 1.555 . S
C3113 C1681 1.542 . S
C3127 C1301 1.544 . S
C3131 C1734 1.526 . S
C3145 C1787 1.538 . S
C3149 C1354 1.553 . S
C3163 C1840 1.530 . S
C3167 C1407 1.547 . S
C3181 C1893 1.538 . S
C3185 C1460 1.553 . S
C3199 C1946 1.524 . S
C3203 C1513 1.542 . S
C3217 C1999 1.535 . S
C3221 C1566 1.550 . S
C3235 C1619 1.548 . S
C3239 C2052 1.533 . S
C3253 C1672 1.548 . S
C3257 C2105 1.535 . S
C3271 C1725 1.552 . S
C3275 C2158 1.536 . S
C3289 C1937 1.552 . S
C3293 C2211 1.536 . S
C3307 C1990 1.555 . S
C3311 C2264 1.543 . S
C3325 C2317 1.532 . S
C3329 C2043 1.549 . S
C3343 C2370 1.535 . S
C3347 C824 1.548 . S
C3361 C2423 1.531 . S
C3365 C559 1.549 . S
C3379 C612 1.555 . S
C3383 C2476 1.543 . S
C3397 C2529 1.539 . S
C3401 C506 1.551 . S
C3415 C22 1.701 . S
C3419 C1470 1.683 . S
C3433 C1311 1.688 . S
C3437 C75 1.696 . S
C3451 C128 1.699 . S
C3455 C1364 1.690 . S
C3469 C181 1.700 . S
C3473 C1417 1.692 . S
C3487 C234 1.701 . S
C3491 C304 1.683 . S
C3505 C357 1.688 . S
C3509 C287 1.697 . S
C3523 C340 1.699 . S
C3527 C410 1.682 . S
C3541 C393 1.695 . S
C3545 C251 1.692 . S
C3559 C446 1.698 . S
C3563 C2265 1.688 . S
C3577 C499 1.695 . S
C3581 C2318 1.693 . S
C3595 C552 1.701 . S
C3599 C1099 1.690 . S
C3613 C605 1.700 . S
C3617 C2212 1.694 . S
C3631 C658 1.697 . S
C3635 C2477 1.686 . S
C3649 C887 1.688 . S
C3653 C711 1.698 . S
C3667 C764 1.701 . S
C3671 C2530 1.689 . S
C3685 C2424 1.695 . S
C3689 C817 1.697 . S
C3703 C516 1.688 . S
C3707 C870 1.702 . S
C3721 C923 1.698 . S
C3725 C2106 1.682 . S
C3739 C976 1.700 . S
C3743 C1947 1.689 . S
C3757 C2000 1.684 . S
C3761 C1029 1.702 . S
C3775 C1082 1.697 . S
C3779 C781 1.695 . S
C3793 C1894 1.690 . S
C3797 C1135 1.700 . S
C3811 C1735 1.695 . S
C3815 C1188 1.698 . S
C3829 C1841 1.688 . S
C3833 C1241 1.699 . S
C3847 C1294 1.697 . S
C3851 C198 1.687 . S
C3865 C1347 1.698 . S
C3869 C39 1.688 . S
C3883 C92 1.690 . S
C3887 C1400 1.700 . S
C3901 C1453 1.700 . S
C3905 C145 1.693 . S
C3919 C1506 1.699 . S
C3923 C1576 1.682 . S
C3937 C1629 1.690 . S
C3941 C1559 1.700 . S
C3955 C1682 1.686 . S
C3959 C1612 1.697 . S
C3973 C1665 1.700 . S
C3977 C1523 1.693 . S
C3991 C993 1.689 . S
C3995 C1718 1.698 . S
C4009 C1771 1.695 . S
C4013 C1046 1.694 . S
C4027 C1824 1.697 . S
C4031 C2371 1.684 . S
C4045 C1877 1.697 . S
C4049 C940 1.688 . S
C4063 C1930 1.700 . S
C4067 C1205 1.682 . S
C4081 C1983 1.696 . S
C4085 C2159 1.689 . S
C4099 C1258 1.683 . S
C4103 C2036 1.698 . S
C4117 C2089 1.699 . S
C4121 C1152 1.694 . S
C4135 C1788 1.688 . S
C4139 C2142 1.698 . S
C4153 C834 1.687 . S
C4157 C2195 1.697 . S
C4171 C675 1.690 . S
C4175 C2248 1.695 . S
C4189 C2301 1.702 . S
C4193 C728 1.686 . S
C4207 C2354 1.699 . S
C4211 C2053 1.688 . S
C4225 C622 1.682 . S
C4229 C2407 1.699 . S
C4243 C2460 1.695 . S
C4247 C463 1.693 . S
C4261 C569 1.689 . S
C4265 C2513 1.699 . S
