# Generated by pormake.
# Topology kag, (6)-cn, num edge types: 1
# Building blocks:
#     Node 0, Type 0, BuildingBlock: KUMJIN_clean_sbu_1, # of connection points: 6
#     Node 1, Type 0, BuildingBlock: KUMJIN_clean_sbu_1, # of connection points: 6
#     Node 2, Type 0, BuildingBlock: KUMJIN_clean_sbu_1, # of connection points: 6
#     Edge 3, Type (0, 0), BuildingBlock: ZUJKAS_clean_linker_0, # of connection points: 2
#     Edge 4, Type (0, 0), BuildingBlock: ZUJKAS_clean_linker_0, # of connection points: 2
#     Edge 5, Type (0, 0), BuildingBlock: ZUJKAS_clean_linker_0, # of connection points: 2
#     Edge 6, Type (0, 0), BuildingBlock: ZUJKAS_clean_linker_0, # of connection points: 2
#     Edge 7, Type (0, 0), BuildingBlock: ZUJKAS_clean_linker_0, # of connection points: 2
#     Edge 8, Type (0, 0), BuildingBlock: ZUJKAS_clean_linker_0, # of connection points: 2
#     Edge 9, Type (0, 0), BuildingBlock: ZUJKAS_clean_linker_0, # of connection points: 2
#     Edge 10, Type (0, 0), BuildingBlock: ZUJKAS_clean_linker_0, # of connection points: 2
#     Edge 11, Type (0, 0), BuildingBlock: ZUJKAS_clean_linker_0, # of connection points: 2
# Relax obj value: 0.073
# Max RMSD: 0.170
# Mean RMSD: 0.112
data_MOF--net-kag--node1-KUMJIN_clean_sbu_1--edge1-ZUJKAS_clean_linker_0
_symmetry_space_group_name_H-M    P1
_symmetry_Int_Tables_number       1
_symmetry_cell_setting            triclinic
loop_
_symmetry_equiv_pos_as_xyz
'x, y, z'
_cell_length_a     39.579503
_cell_length_b     49.257654
_cell_length_c     19.429585
_cell_angle_alpha  107.92849
_cell_angle_beta   96.752056
_cell_angle_gamma 103.0616
loop_
_atom_site_label
_atom_site_type_symbol
_atom_site_fract_x
_atom_site_fract_y
_atom_site_fract_z
_atom_type_partial_charge
Eu0 Eu 0.04475 0.5467 0.03711 0.0
C1 C 0.07921 0.43391 0.89077 0.0
N2 N 0.05513 0.44672 0.86718 0.0
C3 C 0.07774 0.44232 0.75619 0.0
C4 C 0.10458 0.42609 0.84893 0.0
C5 C 0.053 0.44956 0.79927 0.0
C6 C 0.10396 0.43093 0.78157 0.0
C7 C 0.10364 0.41591 0.98351 0.0
C8 C 0.07877 0.42876 0.95745 0.0
C9 C 0.12903 0.40837 0.94207 0.0
C10 C 0.12956 0.41352 0.87516 0.0
Eu11 Eu 1.01505 0.45801 0.946 0.0
N12 N 0.0551 0.43768 -0.00139 0.0
C13 C 0.10265 0.41151 0.05121 0.0
C14 C 0.0534 0.43284 0.06367 0.0
C15 C 0.0773 0.41985 0.0912 0.0
H16 H 1.03158 0.45629 0.77658 0.0
H17 H 0.07612 0.41624 0.14318 0.0
H18 H 1.01854 0.55936 0.1975 0.0
H19 H 1.02675 0.60024 0.83205 0.0
H20 H 1.03349 0.4388 0.09414 0.0
H21 H 0.12131 0.40168 0.07304 0.0
H22 H 0.05605 0.57385 0.8987 0.0
H23 H 0.07618 0.44503 0.7028 0.0
H24 H 0.14851 0.39867 0.96149 0.0
H25 H 0.14934 0.40756 0.8439 0.0
H26 H 0.97707 0.58381 0.26171 0.0
H27 H 0.12301 0.42524 0.74789 0.0
H28 H 0.97755 0.61928 0.87597 0.0
N29 N 1.00583 0.56959 0.10097 0.0
C30 C 0.98828 0.58442 0.06804 0.0
C31 C 0.97974 0.58393 0.207 0.0
C32 C 0.96424 0.59851 0.10203 0.0
C33 C 1.00306 0.57007 0.17067 0.0
C34 C 0.9598 0.59782 0.17203 0.0
N35 N 1.02115 0.57471 0.97411 0.0
C36 C 1.03344 0.58064 0.91603 0.0
C37 C 0.97915 0.60292 0.96744 0.0
C38 C 0.99576 0.58663 0.00188 0.0
C39 C 0.98965 0.60692 0.9041 0.0
C40 C 1.01737 0.59617 0.87907 0.0
H41 H 0.94167 0.60846 0.20013 0.0
H42 H 0.92736 0.62413 0.09083 0.0
H43 H 0.94037 0.62796 0.97278 0.0
O44 O 0.08203 0.59077 0.06612 0.0
O45 O 0.98688 0.52389 0.03503 0.0
O46 O 0.9703 0.47999 0.93529 0.0
O47 O 0.08435 0.56567 0.13917 0.0
O48 O 0.0469 0.52621 0.91613 0.0
O49 O 1.00179 0.48282 0.87034 0.0
O50 O 0.97755 0.41963 0.95825 0.0
O51 O 0.07231 0.4843 0.00856 0.0
O52 O 0.08177 0.52474 0.97354 0.0
O53 O 0.99114 0.41803 0.8513 0.0
O54 O 1.00349 0.47499 0.06047 0.0
O55 O 0.04898 0.51825 0.10864 0.0
C56 C 0.96231 0.50181 0.98392 0.0
C57 C 0.13902 0.59459 0.12954 0.0
C58 C 0.19497 0.62432 0.11684 0.0
C59 C 0.21275 0.60647 0.14227 0.0
C60 C 0.15745 0.57678 0.15359 0.0
C61 C 0.19404 0.58278 0.15994 0.0
C62 C 0.158 0.61832 0.1112 0.0
C63 C 1.02126 0.50672 0.86272 0.0
C64 C 0.1002 0.5886 0.12362 0.0
C65 C 0.94628 0.61348 0.06612 0.0
C66 C 0.95367 0.61562 -0.00116 0.0
C67 C 0.0938 0.50446 0.99063 0.0
C68 C 0.95039 0.3735 0.85146 0.0
C69 C 0.9059 0.33022 0.85177 0.0
C70 C 0.90595 0.31577 0.77712 0.0
C71 C 0.95001 0.35851 0.7768 0.0
C72 C 0.92846 0.3591 0.88902 0.0
C73 C 0.92798 0.32984 0.7401 0.0
C74 C 1.02395 0.49757 0.11709 0.0
C75 C 0.97332 0.40416 0.88837 0.0
H76 H 0.24124 0.61093 0.14903 0.0
H77 H 0.14371 0.5582 0.16773 0.0
H78 H 0.208 0.56904 0.17883 0.0
H79 H 0.14385 0.63177 0.09141 0.0
H80 H 0.88914 0.29343 0.74753 0.0
H81 H 0.96672 0.36895 0.74646 0.0
H82 H 0.92835 0.37049 0.94641 0.0
H83 H 0.92792 0.31851 0.68268 0.0
Eu84 Eu 0.48467 0.98493 0.97717 0.0
C85 C 0.63642 0.97452 0.06437 0.0
N86 N 0.61856 0.99125 0.1066 0.0
C87 C 0.63386 0.97414 0.20573 0.0
C88 C 0.6524 0.95567 0.08996 0.0
C89 C 0.61824 0.99234 0.17756 0.0
C90 C 0.65048 0.95531 0.16123 0.0
C91 C 0.6596 0.96133 0.95256 0.0
C92 C 0.63987 0.97734 0.99678 0.0
C93 C 0.67409 0.9413 0.97586 0.0
C94 C 0.6705 0.93849 0.04449 0.0
Eu95 Eu 0.59048 0.01979 0.05422 0.0
N96 N 0.62596 0.99723 0.97667 0.0
C97 C 0.66519 0.9667 0.88757 0.0
C98 C 0.63365 0.00414 0.91631 0.0
C99 C 0.65269 0.98859 0.8701 0.0
H100 H 0.60508 0.00671 0.21145 0.0
H101 H 0.65802 0.99373 0.82147 0.0
H102 H 0.47109 0.96984 0.79226 0.0
H103 H 0.4237 0.05176 0.17748 0.0
H104 H 0.62543 0.02181 0.90369 0.0
H105 H 0.68019 0.95487 0.85203 0.0
H106 H 0.45578 0.01431 0.1305 0.0
H107 H 0.63285 0.97449 0.2614 0.0
H108 H 0.68897 0.92855 0.94223 0.0
H109 H 0.6826 0.92356 0.06268 0.0
H110 H 0.45171 0.9924 0.70305 0.0
H111 H 0.66244 0.94115 0.183 0.0
H112 H 0.40323 0.07781 0.09736 0.0
N113 N 0.46249 0.00211 0.88479 0.0
C114 C 0.44645 0.02406 0.9076 0.0
C115 C 0.45068 0.0019 0.76069 0.0
C116 C 0.43345 0.03684 0.85807 0.0
C117 C 0.46261 0.98967 0.8117 0.0
C118 C 0.43667 0.02601 0.78427 0.0
N119 N 0.45383 0.01981 0.02605 0.0
C120 C 0.44684 0.02564 0.09543 0.0
C121 C 0.42309 0.05426 0.00422 0.0
C122 C 0.44123 0.03268 0.97973 0.0
C123 C 0.41711 0.06136 0.07648 0.0
C124 C 0.42868 0.04674 0.12197 0.0
H125 H 0.42707 0.03525 0.74451 0.0
H126 H 0.40688 0.06957 0.84602 0.0
H127 H 0.39783 0.08482 0.97398 0.0
O128 O 0.45296 0.95116 0.01296 0.0
O129 O 0.50852 0.03518 0.03946 0.0
O130 O 0.56008 0.04337 -0.00139 0.0
O131 O 0.43392 0.9555 0.90941 0.0
O132 O 0.50426 0.98657 0.09307 0.0
O133 O 0.55369 0.02696 0.13587 0.0
O134 O 0.64014 0.05416 0.07198 0.0
O135 O 0.56409 0.97382 0.05515 0.0
O136 O 0.5216 0.9556 0.94992 0.0
O137 O 0.61092 0.05614 0.15929 0.0
O138 O 0.56837 0.01637 0.93668 0.0
O139 O 0.51916 0.9756 0.89084 0.0
C140 C 0.5333 0.05248 0.02036 0.0
C141 C 0.42388 0.90705 0.91351 0.0
C142 C 0.40033 0.85595 0.9083 0.0
C143 C 0.41451 0.846 0.84503 0.0
C144 C 0.4379 0.89656 0.85049 0.0
C145 C 0.43316 0.86621 0.81655 0.0
C146 C 0.4052 0.88669 0.94231 0.0
C147 C 0.52904 0.00681 0.14718 0.0
C148 C 0.42992 0.9392 0.95091 0.0
C149 C 0.41668 0.05928 0.88309 0.0
C150 C 0.41142 0.0679 0.95591 0.0
C151 C 0.54221 0.95124 0.00112 0.0
C152 C 0.6347 0.10129 0.14133 0.0
C153 C 0.65922 0.14772 0.12105 0.0
C154 C 0.63009 0.15753 0.1424 0.0
C155 C 0.60589 0.11175 0.16302 0.0
C156 C 0.66149 0.1196 0.12115 0.0
C157 C 0.60376 0.13968 0.16366 0.0
C158 C 0.54596 0.99449 0.88094 0.0
C159 C 0.6355 0.0707 0.13482 0.0
H160 H 0.41077 0.82254 0.81675 0.0
H161 H 0.45287 0.91184 0.82785 0.0
H162 H 0.44403 0.8583 0.768 0.0
H163 H 0.39499 0.89488 0.99175 0.0
H164 H 0.6278 0.17912 0.14318 0.0
H165 H 0.58457 0.09818 0.1783 0.0
H166 H 0.6835 0.11159 0.10337 0.0
H167 H 0.58139 0.1474 0.17991 0.0
Eu168 Eu 0.51159 0.45462 0.97034 0.0
C169 C 0.62421 0.57714 0.07234 0.0
N170 N 0.59712 0.56658 0.10261 0.0
C171 C 0.63557 0.58543 0.22164 0.0
C172 C 0.65854 0.59158 0.11575 0.0
C173 C 0.60203 0.57102 0.17634 0.0
C174 C 0.664 0.5956 0.19118 0.0
C175 C 0.64536 0.58319 0.96427 0.0
C176 C 0.61763 0.57284 0.99731 0.0
C177 C 0.67975 0.59705 0.00703 0.0
C178 C 0.6863 0.60129 0.08256 0.0
Eu179 Eu 0.5412 0.54403 0.02292 0.0
N180 N 0.58405 0.55934 0.95715 0.0
C181 C 0.63756 0.57993 0.88955 0.0
C182 C 0.57596 0.55809 0.88585 0.0
C183 C 0.60259 0.56776 0.85055 0.0
H184 H 0.58004 0.56377 0.20049 0.0
H185 H 0.59604 0.56643 0.79377 0.0
H186 H 0.49624 0.42853 0.78174 0.0
H187 H 0.42179 0.42787 0.14669 0.0
H188 H 0.54886 0.55072 0.85683 0.0
H189 H 0.65809 0.58764 0.86218 0.0
H190 H 0.47972 0.44595 0.11548 0.0
H191 H 0.63944 0.58877 0.28005 0.0
H192 H 0.70138 0.60496 0.9824 0.0
H193 H 0.71292 0.61222 0.11491 0.0
H194 H 0.44522 0.40868 0.67797 0.0
H195 H 0.68998 0.60663 0.22639 0.0
H196 H 0.36695 0.40947 0.05057 0.0
N197 N 0.46487 0.43251 0.86443 0.0
C198 C 0.43176 0.42426 0.87785 0.0
C199 C 0.441 0.41347 0.73402 0.0
C200 C 0.40177 0.41156 0.81965 0.0
C201 C 0.46993 0.42546 0.79338 0.0
C202 C 0.40671 0.40703 0.74728 0.0
N203 N 0.45736 0.43847 0.00423 0.0
C204 C 0.45577 0.43794 0.07364 0.0
C205 C 0.39444 0.41632 0.96464 0.0
C206 C 0.42798 0.42663 0.94944 0.0
C207 C 0.39224 0.41724 0.03675 0.0
C208 C 0.42313 0.42766 0.09121 0.0
H209 H 0.38438 0.39737 0.70108 0.0
H210 H 0.34469 0.39322 0.79118 0.0
H211 H 0.33833 0.39728 0.9181 0.0
O212 O 0.53334 0.43041 0.03362 0.0
O213 O 0.47428 0.4823 0.01629 0.0
O214 O 0.48367 0.51892 0.96631 0.0
O215 O 0.50907 0.40769 0.91879 0.0
O216 O 0.54162 0.48402 0.0857 0.0
O217 O 0.52438 0.52719 0.11405 0.0
O218 O 0.53743 0.58475 0.00282 0.0
O219 O 0.58398 0.52002 0.03841 0.0
O220 O 0.56556 0.47386 0.94709 0.0
O221 O 0.52346 0.57777 0.10126 0.0
O222 O 0.51319 0.51552 0.90504 0.0
O223 O 0.52996 0.4721 0.8811 0.0
C224 C 0.46235 0.50068 0.98976 0.0
C225 C 0.5509 0.38809 0.97077 0.0
C226 C 0.56777 0.34366 0.97619 0.0
C227 C 0.60005 0.35467 0.95706 0.0
C228 C 0.58326 0.39857 0.95224 0.0
C229 C 0.60767 0.38187 0.94543 0.0
C230 C 0.54326 0.36074 0.9828 0.0
C231 C 0.53227 0.50533 0.1323 0.0
C232 C 0.52485 0.40542 0.97853 0.0
C233 C 0.36803 0.40271 0.83511 0.0
C234 C 0.3644 0.40496 0.90737 0.0
C235 C 0.59109 0.49732 0.99089 0.0
C236 C 0.54544 0.62795 0.10673 0.0
C237 C 0.55315 0.68035 0.1203 0.0
C238 C 0.57648 0.68851 0.1883 0.0
C239 C 0.56891 0.63682 0.17468 0.0
C240 C 0.53793 0.64985 0.07932 0.0
C241 C 0.58437 0.6669 0.21492 0.0
C242 C 0.52067 0.49273 0.85951 0.0
C243 C 0.52793 0.59611 0.0647 0.0
H244 H 0.61934 0.34208 0.94998 0.0
H245 H 0.58958 0.41959 0.94304 0.0
H246 H 0.6326 0.39 0.93079 0.0
H247 H 0.51839 0.35303 -0.00171 0.0
H248 H 0.58892 0.7117 0.22069 0.0
H249 H 0.57511 0.62056 0.19708 0.0
H250 H 0.51968 0.64318 0.02707 0.0
H251 H 0.60245 0.67353 0.26727 0.0
H252 H 0.96438 0.47997 0.7481 0.0
H253 H 0.96128 0.47866 0.62038 0.0
H254 H 0.06837 0.53508 0.6788 0.0
H255 H 0.07201 0.53603 0.8062 0.0
H256 H 1.01438 0.55027 0.58625 0.0
H257 H 1.01884 0.43276 0.47873 0.0
H258 H 0.98695 0.44056 0.53539 0.0
H259 H 1.03334 0.45534 0.57536 0.0
C260 C 0.98719 0.49228 0.73387 0.0
C261 C 1.01833 0.50833 0.78743 0.0
C262 C 0.98539 0.49144 0.66092 0.0
C263 C 1.01468 0.5066 0.64024 0.0
C264 C 0.04546 0.5233 0.69386 0.0
H265 H 0.07049 0.53321 0.24552 0.0
H266 H 0.0662 0.53511 0.3709 0.0
C267 C 0.04738 0.52401 0.76676 0.0
C268 C 1.0136 0.50446 0.56226 0.0
H269 H 1.01289 0.45668 0.39176 0.0
C270 C 1.014 0.52983 0.54359 0.0
C271 C 1.01288 0.47769 0.5069 0.0
C272 C 1.01321 0.45 0.52472 0.0
C273 C 1.01362 0.52914 0.47069 0.0
C274 C 1.01377 0.50255 0.41548 0.0
C275 C 1.01281 0.47704 0.43409 0.0
C276 C 1.01623 0.50104 0.33878 0.0
C277 C 1.0126 0.55682 0.45334 0.0
C278 C 0.99017 0.48049 0.27854 0.0
C279 C 0.99272 0.4791 0.2063 0.0
C280 C 1.02146 0.49819 0.19308 0.0
C281 C 0.04779 0.51837 0.25357 0.0
C282 C 0.04528 0.51965 0.32552 0.0
H283 H 1.00168 0.57175 0.4947 0.0
H284 H 0.03994 0.56924 0.45461 0.0
H285 H 0.99638 0.55127 0.39764 0.0
H286 H 0.96767 0.46573 0.2875 0.0
H287 H 0.972 0.4633 0.161 0.0
H288 H 0.49265 0.96231 0.18867 0.0
H289 H 0.49628 0.95972 0.3126 0.0
H290 H 0.5704 0.04696 0.40215 0.0
H291 H 0.56749 0.04951 0.27776 0.0
H292 H 0.59234 0.00797 0.45697 0.0
H293 H 0.45223 0.00014 0.47769 0.0
H294 H 0.45693 0.97203 0.39791 0.0
H295 H 0.47107 0.01048 0.40616 0.0
C296 C 0.50939 0.98117 0.23474 0.0
C297 C 0.52958 0.00624 0.22323 0.0
C298 C 0.51134 0.97966 0.30575 0.0
C299 C 0.53312 0.00335 0.36703 0.0
C300 C 0.55325 0.02847 0.35579 0.0
H301 H 0.57682 0.04073 0.83934 0.0
H302 H 0.57548 0.04172 0.71416 0.0
C303 C 0.55148 0.02993 0.28464 0.0
C304 C 0.53591 0.00143 0.44236 0.0
H305 H 0.48728 0.99023 0.57046 0.0
C306 C 0.56938 0.00426 0.48189 0.0
C307 C 0.50595 0.99654 0.47498 0.0
C308 C 0.46958 0.99491 0.43734 0.0
C309 C 0.5736 0.00193 0.55253 0.0
C310 C 0.54362 0.99678 0.58465 0.0
C311 C 0.51017 0.9939 0.54529 0.0
C312 C 0.54656 0.99542 0.66027 0.0
C313 C 0.61001 0.00462 0.59207 0.0
C314 C 0.53091 0.96897 0.67152 0.0
C315 C 0.53195 0.96823 0.74323 0.0
C316 C 0.54799 0.99411 0.80488 0.0
C317 C 0.56436 0.02036 0.79319 0.0
C318 C 0.56359 0.021 0.72162 0.0
H319 H 0.6289 0.00224 0.55406 0.0
H320 H 0.6204 0.02679 0.63602 0.0
H321 H 0.60888 0.98756 0.61876 0.0
H322 H 0.51762 0.94898 0.62481 0.0
H323 H 0.51945 0.94761 0.75045 0.0
H324 H 0.55525 0.46388 0.75874 0.0
H325 H 0.55538 0.46467 0.63289 0.0
H326 H 0.48172 0.51778 0.65851 0.0
H327 H 0.48105 0.51679 0.78346 0.0
H328 H 0.49084 0.44859 0.50616 0.0
H329 H 0.57361 0.56618 0.60739 0.0
H330 H 0.57508 0.54206 0.66069 0.0
H331 H 0.53783 0.55672 0.65269 0.0
C332 C 0.5387 0.47534 0.73708 0.0
C333 C 0.5184 0.49051 0.78119 0.0
C334 C 0.5389 0.47586 0.66541 0.0
C335 C 0.51894 0.49164 0.63703 0.0
C336 C 0.49764 0.50581 0.67986 0.0
H337 H 0.50507 0.53946 0.2401 0.0
H338 H 0.50068 0.53571 0.36192 0.0
C339 C 0.49728 0.50518 0.75115 0.0
C340 C 0.52096 0.49407 0.5634 0.0
H341 H 0.55301 0.5431 0.47906 0.0
C342 C 0.50448 0.46918 0.50003 0.0
C343 C 0.53855 0.52106 0.55587 0.0
C344 C 0.55749 0.54812 0.62255 0.0
C345 C 0.50482 0.47067 0.42899 0.0
C346 C 0.52283 0.49761 0.42136 0.0
C347 C 0.53915 0.52252 0.48494 0.0
C348 C 0.52581 0.50018 0.34796 0.0
C349 C 0.48526 0.44356 0.3628 0.0
C350 C 0.54213 0.48197 0.30044 0.0
C351 C 0.54463 0.48403 0.23104 0.0
C352 C 0.53117 0.50457 0.20776 0.0
C353 C 0.51569 0.5234 0.25626 0.0
C354 C 0.51309 0.52124 0.3258 0.0
H355 H 0.46465 0.42814 0.37762 0.0
H356 H 0.47245 0.4498 0.31822 0.0
H357 H 0.50431 0.4314 0.34086 0.0
H358 H 0.55301 0.46613 0.31708 0.0
H359 H 0.55704 0.46935 0.19554 0.0
H360 H 0.13509 0.48032 0.06567 0.0
H361 H 0.19676 0.47986 0.06317 0.0
H362 H 0.20049 0.52829 0.91211 0.0
H363 H 0.13902 0.52904 0.91522 0.0
H364 H 0.22989 0.45676 0.95779 0.0
H365 H 0.28817 0.57856 0.05967 0.0
H366 H 0.24275 0.56166 0.05955 0.0
H367 H 0.25523 0.56592 0.97652 0.0
C368 C 0.14899 0.49079 0.03166 0.0
C369 C 0.1318 0.50459 0.99039 0.0
C370 C 0.18447 0.49061 0.03043 0.0
C371 C 0.20408 0.50448 0.98843 0.0
C372 C 0.18675 0.51809 0.94673 0.0
H373 H 0.4212 0.5214 0.90418 0.0
H374 H 0.35904 0.52169 0.90202 0.0
C375 C 0.15133 0.51838 0.94822 0.0
C376 C 0.24223 0.50428 0.98754 0.0
H377 H 0.3263 0.54919 0.01381 0.0
C378 C 0.2509 0.47706 0.97053 0.0
C379 C 0.27016 0.53061 0.00371 0.0
C380 C 0.26375 0.56087 0.02658 0.0
C381 C 0.28604 0.47543 0.96831 0.0
C382 C 0.31387 0.50175 0.98453 0.0
C383 C 0.30524 0.52892 0.00107 0.0
C384 C 0.35205 0.5016 0.98585 0.0
C385 C 0.29296 0.44534 0.94666 0.0
C386 C 0.36958 0.49087 0.0347 0.0
C387 C 0.40526 0.49098 0.03647 0.0
C388 C 0.42457 0.50156 0.98907 0.0
C389 C 0.40727 0.51289 0.94124 0.0
C390 C 0.37157 0.51299 0.93983 0.0
H391 H 0.26832 0.42716 0.91795 0.0
H392 H 0.3125 0.44406 0.91001 0.0
H393 H 0.30401 0.44158 0.99704 0.0
H394 H 0.35581 0.48275 0.07247 0.0
H395 H 0.4179 0.48312 0.07592 0.0
H396 H 0.64943 0.17757 0.02665 0.0
H397 H 0.69478 0.21001 0.99009 0.0
H398 H 0.77643 0.19384 0.12716 0.0
H399 H 0.7311 0.16095 0.16306 0.0
H400 H 0.74459 0.26109 0.07553 0.0
H401 H 0.8093 0.17682 0.93268 0.0
H402 H 0.76716 0.16683 0.95853 0.0
H403 H 0.80757 0.17971 0.0265 0.0
C404 C 0.67707 0.18093 0.04892 0.0
C405 C 0.6868 0.16673 0.09758 0.0
C406 C 0.70292 0.19941 0.02794 0.0
C407 C 0.73898 0.20407 0.05521 0.0
C408 C 0.7488 0.19003 0.10413 0.0
H409 H 0.92225 0.32427 0.98624 0.0
H410 H 0.88312 0.29539 0.04369 0.0
C411 C 0.72291 0.17131 0.12469 0.0
C412 C 0.76608 0.22417 0.03339 0.0
H413 H 0.83596 0.22671 0.94543 0.0
C414 C 0.76463 0.25358 0.04734 0.0
C415 C 0.7922 0.21431 0.99651 0.0
C416 C 0.79407 0.18264 0.97698 0.0
C417 C 0.78837 0.27327 0.02463 0.0
C418 C 0.81416 0.26331 0.9874 0.0
C419 C 0.81621 0.2342 0.97473 0.0
C420 C 0.83735 0.28207 0.95578 0.0
C421 C 0.78553 0.30449 0.03927 0.0
C422 C 0.82425 0.28412 0.88795 0.0
C423 C 0.8464 0.30036 0.8551 0.0
C424 C 0.882 0.31491 0.88974 0.0
C425 C 0.89484 0.31343 0.95873 0.0
C426 C 0.87267 0.2969 0.99132 0.0
H427 H 0.76687 0.30992 0.07644 0.0
H428 H 0.81197 0.3207 0.06436 0.0
H429 H 0.77609 0.30707 0.98615 0.0
H430 H 0.79701 0.27274 0.85988 0.0
H431 H 0.83576 0.30137 0.80224 0.0
H432 H 0.5672 0.93519 0.11522 0.0
H433 H 0.56478 0.88548 0.11658 0.0
H434 H 0.50684 0.84764 0.89136 0.0
H435 H 0.51076 0.89785 0.88843 0.0
H436 H 0.47963 0.82195 0.00975 0.0
H437 H 0.62004 0.82866 0.98935 0.0
H438 H 0.61208 0.86065 0.05344 0.0
H439 H 0.59594 0.8508 0.9563 0.0
C440 C 0.55448 0.91644 0.06542 0.0
C441 C 0.53956 0.92064 0.00139 0.0
C442 C 0.55286 0.88795 0.06654 0.0
C443 C 0.5359 0.86286 0.00396 0.0
C444 C 0.52017 0.86674 0.94025 0.0
H445 H 0.55425 0.68524 0.98333 0.0
H446 H 0.54646 0.72695 0.94472 0.0
C447 C 0.52224 0.89541 0.93878 0.0
C448 C 0.53504 0.83278 0.00614 0.0
H449 H 0.58909 0.78903 0.02331 0.0
C450 C 0.5034 0.81452 0.01168 0.0
C451 C 0.56605 0.82309 0.00837 0.0
C452 C 0.60049 0.84164 0.00105 0.0
C453 C 0.50239 0.78738 0.02262 0.0
C454 C 0.5338 0.77831 0.02817 0.0
C455 C 0.56503 0.79598 0.01924 0.0
C456 C 0.53551 0.75178 0.04856 0.0
C457 C 0.46788 0.7688 0.02938 0.0
C458 C 0.53187 0.75181 0.11958 0.0
C459 C 0.53665 0.72825 0.14188 0.0
C460 C 0.54497 0.70395 0.09353 0.0
C461 C 0.54758 0.7035 0.0216 0.0
C462 C 0.54326 0.72735 -0.0004 0.0
H463 H 0.44486 0.77501 0.00661 0.0
H464 H 0.46457 0.74482 0.0003 0.0
H465 H 0.46788 0.77226 0.08859 0.0
H466 H 0.52635 0.77053 0.15864 0.0
H467 H 0.53428 0.72921 0.1975 0.0
H468 H 0.90338 0.46684 0.87475 0.0
H469 H 0.84105 0.46609 0.87381 0.0
H470 H 0.87124 0.53351 0.09015 0.0
H471 H 0.93309 0.534 0.09153 0.0
H472 H 0.79604 0.45314 0.96386 0.0
H473 H 0.81105 0.56982 0.9825 0.0
H474 H 0.84527 0.55164 0.96154 0.0
H475 H 0.84015 0.56636 0.05548 0.0
C476 C 0.89685 0.48164 0.92209 0.0
C477 C 0.92387 0.50105 0.98267 0.0
C478 C 0.861 0.48119 0.92149 0.0
C479 C 0.85098 0.50024 0.98116 0.0
C480 C 0.87788 0.51918 0.04217 0.0
H481 H 0.65112 0.53044 0.09779 0.0
H482 H 0.71291 0.53113 0.09342 0.0
C483 C 0.91358 0.51954 0.04287 0.0
C484 C 0.81258 0.49982 0.98068 0.0
H485 H 0.75604 0.54408 0.00027 0.0
C486 C 0.78735 0.47303 0.97125 0.0
C487 C 0.80072 0.52567 0.99062 0.0
C488 C 0.8256 0.55494 0.9974 0.0
C489 C 0.75132 0.47153 0.97327 0.0
C490 C 0.73949 0.4974 0.98346 0.0
C491 C 0.7647 0.52416 0.9926 0.0
C492 C 0.70131 0.49724 0.98522 0.0
C493 C 0.72646 0.4423 0.96679 0.0
C494 C 0.67356 0.47836 0.92565 0.0
C495 C 0.63805 0.47831 0.92768 0.0
C496 C 0.62906 0.49729 0.98912 0.0
C497 C 0.65684 0.51613 0.04865 0.0
C498 C 0.69237 0.51632 0.04646 0.0
H499 H 0.74104 0.42722 0.9805 0.0
H500 H 0.70725 0.44565 0.00375 0.0
H501 H 0.71137 0.43107 0.90908 0.0
H502 H 0.67936 0.46381 0.87688 0.0
H503 H 0.6176 0.46353 0.88052 0.0
H504 H 0.18588 0.68002 0.1432 0.0
H505 H 0.21917 0.72023 0.10804 0.0
H506 H 0.28394 0.66512 0.01153 0.0
H507 H 0.24982 0.62443 0.04311 0.0
H508 H 0.28957 0.74985 0.14917 0.0
H509 H 0.25366 0.6931 0.84564 0.0
H510 H 0.23083 0.67905 0.90801 0.0
H511 H 0.27256 0.67218 0.8925 0.0
C512 C 0.20681 0.67628 0.11336 0.0
C513 C 0.21505 0.64892 0.09573 0.0
C514 C 0.22599 0.69937 0.09385 0.0
C515 C 0.25368 0.69553 0.05614 0.0
C516 C 0.26221 0.66839 0.03919 0.0
H517 H 0.41481 0.80534 0.91888 0.0
H518 H 0.37881 0.76752 0.95761 0.0
C519 C 0.24295 0.64526 0.05825 0.0
C520 C 0.27429 0.72011 0.03613 0.0
H521 H 0.30153 0.73753 0.89075 0.0
C522 C 0.29193 0.74726 0.0926 0.0
C523 C 0.27724 0.71672 0.96221 0.0
C524 C 0.25727 0.6888 0.89853 0.0
C525 C 0.31322 0.77081 0.07732 0.0
C526 C 0.3168 0.76708 0.00377 0.0
C527 C 0.29887 0.74015 0.9472 0.0
C528 C 0.33926 0.79081 0.98416 0.0
C529 C 0.33246 0.79929 0.13988 0.0
C530 C 0.32881 0.81639 0.98639 0.0
C531 C 0.34901 0.83787 0.96325 0.0
C532 C 0.38004 0.83413 0.93753 0.0
C533 C 0.39076 0.80871 0.9371 0.0
C534 C 0.3704 0.78717 0.95969 0.0
H535 H 0.33119 0.79706 0.19477 0.0
H536 H 0.36067 0.80634 0.13603 0.0
H537 H 0.32033 0.81711 0.13584 0.0
H538 H 0.30458 0.81936 0.00431 0.0
H539 H 0.33971 0.85694 0.96338 0.0
H540 H 0.504 0.30043 0.93792 0.0
H541 H 0.49191 0.25215 0.95461 0.0
H542 H 0.60168 0.27139 0.05491 0.0
H543 H 0.61363 0.32014 0.04187 0.0
H544 H 0.51681 0.20632 0.89626 0.0
H545 H 0.55534 0.24134 0.1999 0.0
H546 H 0.54962 0.26711 0.1536 0.0
H547 H 0.59048 0.2569 0.16106 0.0
C548 C 0.52547 0.29473 0.96504 0.0
C549 C 0.55984 0.31444 0.98855 0.0
C550 C 0.51854 0.26693 0.97407 0.0
C551 C 0.54571 0.25812 0.00715 0.0
C552 C 0.57999 0.27777 0.03087 0.0
H553 H 0.56828 0.08433 0.94568 0.0
H554 H 0.5675 0.13345 0.94477 0.0
C555 C 0.58691 0.30559 0.0222 0.0
C556 C 0.53879 0.22779 0.0127 0.0
H557 H 0.55151 0.19044 0.13159 0.0
C558 C 0.52399 0.20294 0.94801 0.0
C559 C 0.5476 0.22309 0.08026 0.0
C560 C 0.56128 0.24855 0.15273 0.0
C561 C 0.51921 0.17381 0.94844 0.0
C562 C 0.53006 0.16922 0.01506 0.0
C563 C 0.54346 0.19392 0.08037 0.0
C564 C 0.52993 0.13913 0.01664 0.0
C565 C 0.50277 0.14811 0.87724 0.0
C566 C 0.50974 0.12607 0.05907 0.0
C567 C 0.5103 0.09775 0.06014 0.0
C568 C 0.53112 0.08208 0.01897 0.0
C569 C 0.55159 0.09551 0.97749 0.0
C570 C 0.55105 0.12363 0.9765 0.0
H571 H 0.48671 0.15462 0.83743 0.0
H572 H 0.5241 0.14058 0.85124 0.0
H573 H 0.48566 0.12909 0.88739 0.0
H574 H 0.49356 0.13777 0.09127 0.0
H575 H 0.49505 0.08842 0.09424 0.0
loop_
_geom_bond_atom_site_label_1
_geom_bond_atom_site_label_2
_geom_bond_distance
_geom_bond_site_symmetry_2
_ccdc_geom_bond_type
Eu0 N29 2.600 . S
Eu0 N35 2.562 1_455 S
Eu0 O44 2.462 1_554 S
Eu0 O45 2.373 1_455 S
Eu0 O47 2.432 . S
Eu0 O48 2.291 1_554 S
Eu0 O52 2.335 . S
Eu0 O55 2.372 . S
Eu0 C64 2.787 . S
C1 N2 1.355 1_455 S
C1 C4 1.405 . S
C1 C8 1.448 . S
N2 C1 1.355 1_655 S
N2 C5 1.320 . S
N2 Eu11 2.607 . S
C3 C5 1.397 1_455 S
C3 C6 1.367 . S
C3 H23 0.931 1_455 S
C4 C1 1.405 . S
C4 C6 1.403 . S
C4 C10 1.439 . S
C5 N2 1.320 . S
C5 C3 1.397 1_655 S
C5 H16 0.930 . S
C6 C3 1.367 . S
C6 C4 1.403 . S
C6 H27 0.929 . S
C7 C8 1.430 . S
C7 C9 1.387 . S
C7 C13 1.404 1_556 S
C8 C1 1.448 . S
C8 C7 1.430 . S
C8 N12 1.351 . S
C9 C7 1.387 . S
C9 C10 1.374 . S
C9 H24 0.931 . S
C10 C4 1.439 . S
C10 C9 1.374 . S
C10 H25 0.931 . S
Eu11 N2 2.607 . S
Eu11 N12 2.562 1_655 S
Eu11 O46 2.335 . S
Eu11 O49 2.372 . S
Eu11 O50 2.462 1_556 S
Eu11 O51 2.373 1_655 S
Eu11 O53 2.432 . S
Eu11 O54 2.290 1_656 S
Eu11 C75 2.787 . S
N12 C8 1.351 . S
N12 Eu11 2.562 1_455 S
N12 C14 1.325 1_556 S
C13 C7 1.404 1_554 S
C13 C15 1.366 . S
C13 H21 0.930 . S
C14 N12 1.325 1_554 S
C14 C15 1.416 . S
C14 H20 0.929 . S
C15 C13 1.366 . S
C15 C14 1.416 . S
C15 H17 0.930 . S
H16 C5 0.930 . S
H17 C15 0.930 . S
H18 C33 0.930 . S
H19 C40 0.930 . S
H20 C14 0.929 . S
H21 C13 0.930 . S
H22 C36 0.929 . S
H23 C3 0.931 1_655 S
H24 C9 0.931 . S
H25 C10 0.931 . S
H26 C31 0.931 1_455 S
H27 C6 0.929 . S
H28 C39 0.930 . S
N29 Eu0 2.600 . S
N29 C30 1.365 1_455 S
N29 C33 1.319 . S
C30 N29 1.365 1_655 S
C30 C32 1.405 . S
C30 C38 1.448 . S
C31 H26 0.931 1_655 S
C31 C33 1.397 1_655 S
C31 C34 1.367 . S
C32 C30 1.405 . S
C32 C34 1.403 . S
C32 C65 1.439 . S
C33 H18 0.930 . S
C33 N29 1.319 . S
C33 C31 1.397 1_455 S
C34 C31 1.367 . S
C34 C32 1.403 . S
C34 H41 0.929 . S
N35 Eu0 2.562 1_655 S
N35 C36 1.325 1_554 S
N35 C38 1.351 . S
C36 H22 0.929 . S
C36 N35 1.325 1_556 S
C36 C40 1.416 . S
C37 C38 1.430 . S
C37 C39 1.404 1_554 S
C37 C66 1.387 . S
C38 C30 1.448 . S
C38 N35 1.351 . S
C38 C37 1.430 . S
C39 H28 0.930 . S
C39 C37 1.404 1_556 S
C39 C40 1.366 . S
C40 H19 0.930 . S
C40 C36 1.416 . S
C40 C39 1.366 . S
H41 C34 0.929 . S
H42 C65 0.931 . S
H43 C66 0.931 . S
O44 Eu0 2.462 1_556 S
O44 C64 1.252 1_556 S
O45 Eu0 2.373 1_655 S
O45 C56 1.249 . S
O46 Eu11 2.335 . S
O46 C56 1.264 1_556 S
O47 Eu0 2.432 . S
O47 C64 1.268 . S
O48 Eu0 2.291 1_556 S
O48 C63 1.256 1_455 S
O49 Eu11 2.372 . S
O49 C63 1.257 . S
O50 Eu11 2.462 1_554 S
O50 C75 1.252 1_554 S
O51 Eu11 2.373 1_455 S
O51 C67 1.249 1_556 S
O52 Eu0 2.335 . S
O52 C67 1.264 . S
O53 Eu11 2.432 . S
O53 C75 1.268 . S
O54 Eu11 2.290 1_454 S
O54 C74 1.253 . S
O55 Eu0 2.372 . S
O55 C74 1.257 . S
C56 O45 1.249 . S
C56 O46 1.264 1_554 S
C57 C60 1.382 . S
C57 C62 1.390 . S
C57 C64 1.506 . S
C58 C59 1.398 . S
C58 C62 1.392 . S
C59 C58 1.398 . S
C59 C61 1.372 . S
C59 H76 0.931 . S
C60 C57 1.382 . S
C60 C61 1.390 . S
C60 H77 0.931 . S
C61 C59 1.372 . S
C61 C60 1.390 . S
C61 H78 0.929 . S
C62 C57 1.390 . S
C62 C58 1.392 . S
C62 H79 0.930 1_554 S
C63 O48 1.256 1_655 S
C63 O49 1.257 . S
C64 Eu0 2.787 . S
C64 O44 1.252 1_554 S
C64 O47 1.268 . S
C64 C57 1.506 . S
C65 C32 1.439 . S
C65 H42 0.931 . S
C65 C66 1.374 . S
C66 C37 1.387 . S
C66 H43 0.931 . S
C66 C65 1.374 . S
C67 O51 1.249 1_554 S
C67 O52 1.264 . S
C68 C71 1.382 . S
C68 C72 1.390 . S
C68 C75 1.506 . S
C69 C70 1.398 . S
C69 C72 1.392 . S
C70 C69 1.398 . S
C70 C73 1.372 . S
C70 H80 0.931 . S
C71 C68 1.382 . S
C71 C73 1.390 . S
C71 H81 0.931 . S
C72 C68 1.390 . S
C72 C69 1.392 . S
C72 H82 0.930 1_556 S
C73 C70 1.372 . S
C73 C71 1.390 . S
C73 H83 0.929 . S
C74 O54 1.253 . S
C74 O55 1.257 . S
C75 Eu11 2.787 . S
C75 O50 1.252 1_556 S
C75 O53 1.268 . S
C75 C68 1.506 . S
H76 C59 0.931 . S
H77 C60 0.931 . S
H78 C61 0.929 . S
H79 C62 0.930 1_556 S
H80 C70 0.931 . S
H81 C71 0.931 . S
H82 C72 0.930 1_554 S
H83 C73 0.929 . S
Eu84 N113 2.600 . S
Eu84 N119 2.562 1_566 S
Eu84 O128 2.462 1_556 S
Eu84 O129 2.373 1_565 S
Eu84 O131 2.432 . S
Eu84 O132 2.291 1_566 S
Eu84 O136 2.335 . S
Eu84 O139 2.372 . S
Eu84 C148 2.787 . S
C85 N86 1.365 1_565 S
C85 C88 1.405 . S
C85 C92 1.448 . S
N86 C85 1.365 1_545 S
N86 C89 1.319 . S
N86 Eu95 2.600 . S
C87 C89 1.397 . S
C87 C90 1.367 1_545 S
C87 H107 0.931 . S
C88 C85 1.405 . S
C88 C90 1.403 . S
C88 C94 1.439 . S
C89 N86 1.319 . S
C89 C87 1.397 . S
C89 H100 0.930 . S
C90 C87 1.367 1_565 S
C90 C88 1.403 . S
C90 H111 0.929 . S
C91 C92 1.430 1_556 S
C91 C93 1.387 1_556 S
C91 C97 1.404 . S
C92 C85 1.448 . S
C92 C91 1.430 1_554 S
C92 N96 1.351 1_554 S
C93 C91 1.387 1_554 S
C93 C94 1.374 . S
C93 H108 0.931 . S
C94 C88 1.439 . S
C94 C93 1.374 . S
C94 H109 0.931 . S
Eu95 N86 2.600 . S
Eu95 N96 2.562 1_544 S
Eu95 O130 2.335 . S
Eu95 O133 2.372 . S
Eu95 O134 2.462 1_554 S
Eu95 O135 2.373 1_545 S
Eu95 O137 2.432 . S
Eu95 O138 2.291 1_544 S
Eu95 C159 2.787 . S
N96 C92 1.351 1_556 S
N96 Eu95 2.562 1_566 S
N96 C98 1.325 . S
C97 C91 1.404 . S
C97 C99 1.366 . S
C97 H105 0.930 . S
C98 N96 1.325 . S
C98 C99 1.416 . S
C98 H104 0.929 . S
C99 C97 1.366 . S
C99 C98 1.416 . S
C99 H101 0.930 . S
H100 C89 0.930 . S
H101 C99 0.930 . S
H102 C117 0.930 . S
H103 C124 0.930 . S
H104 C98 0.929 . S
H105 C97 0.930 . S
H106 C120 0.929 . S
H107 C87 0.931 . S
H108 C93 0.931 . S
H109 C94 0.931 . S
H110 C115 0.931 . S
H111 C90 0.929 . S
H112 C123 0.930 . S
N113 Eu84 2.600 . S
N113 C114 1.365 1_565 S
N113 C117 1.319 . S
C114 N113 1.365 1_545 S
C114 C116 1.405 . S
C114 C122 1.448 . S
C115 H110 0.931 . S
C115 C117 1.397 . S
C115 C118 1.367 1_565 S
C116 C114 1.405 . S
C116 C118 1.403 . S
C116 C149 1.439 . S
C117 H102 0.930 . S
C117 N113 1.319 . S
C117 C115 1.397 . S
C118 C115 1.367 1_545 S
C118 C116 1.403 . S
C118 H125 0.929 . S
N119 Eu84 2.562 1_544 S
N119 C120 1.325 . S
N119 C122 1.351 1_554 S
C120 H106 0.929 . S
C120 N119 1.325 . S
C120 C124 1.416 . S
C121 C122 1.430 1_554 S
C121 C123 1.404 . S
C121 C150 1.387 1_554 S
C122 C114 1.448 . S
C122 N119 1.351 1_556 S
C122 C121 1.430 1_556 S
C123 H112 0.930 . S
C123 C121 1.404 . S
C123 C124 1.366 . S
C124 H103 0.930 . S
C124 C120 1.416 . S
C124 C123 1.366 . S
H125 C118 0.929 . S
H126 C149 0.931 . S
H127 C150 0.931 . S
O128 Eu84 2.462 1_554 S
O128 C148 1.252 1_554 S
O129 Eu84 2.373 1_545 S
O129 C140 1.249 1_556 S
O130 Eu95 2.335 . S
O130 C140 1.264 . S
O131 Eu84 2.432 . S
O131 C148 1.268 . S
O132 Eu84 2.291 1_544 S
O132 C147 1.255 . S
O133 Eu95 2.372 . S
O133 C147 1.257 . S
O134 Eu95 2.462 1_556 S
O134 C159 1.252 1_556 S
O135 Eu95 2.373 1_565 S
O135 C151 1.249 1_554 S
O136 Eu84 2.335 . S
O136 C151 1.264 . S
O137 Eu95 2.432 . S
O137 C159 1.268 . S
O138 Eu95 2.291 1_566 S
O138 C158 1.252 . S
O139 Eu84 2.372 . S
O139 C158 1.257 . S
C140 O129 1.249 1_554 S
C140 O130 1.264 . S
C141 C144 1.382 . S
C141 C146 1.390 1_556 S
C141 C148 1.506 . S
C142 C143 1.398 1_554 S
C142 C146 1.392 . S
C143 C142 1.398 1_556 S
C143 C145 1.372 . S
C143 H160 0.931 . S
C144 C141 1.382 . S
C144 C145 1.390 . S
C144 H161 0.931 . S
C145 C143 1.372 . S
C145 C144 1.390 . S
C145 H162 0.929 . S
C146 C141 1.390 1_554 S
C146 C142 1.392 . S
C146 H163 0.930 . S
C147 O132 1.255 . S
C147 O133 1.257 . S
C148 Eu84 2.787 . S
C148 O128 1.252 1_556 S
C148 O131 1.268 . S
C148 C141 1.506 . S
C149 C116 1.439 . S
C149 H126 0.931 . S
C149 C150 1.374 . S
C150 C121 1.387 1_556 S
C150 H127 0.931 . S
C150 C149 1.374 . S
C151 O135 1.249 1_556 S
C151 O136 1.264 . S
C152 C155 1.382 . S
C152 C156 1.390 1_554 S
C152 C159 1.506 . S
C153 C154 1.398 1_556 S
C153 C156 1.392 . S
C154 C153 1.398 1_554 S
C154 C157 1.372 . S
C154 H164 0.931 . S
C155 C152 1.382 . S
C155 C157 1.390 . S
C155 H165 0.931 . S
C156 C152 1.390 1_556 S
C156 C153 1.392 . S
C156 H166 0.930 . S
C157 C154 1.372 . S
C157 C155 1.390 . S
C157 H167 0.929 . S
C158 O138 1.252 . S
C158 O139 1.257 . S
C159 Eu95 2.787 . S
C159 O134 1.252 1_554 S
C159 O137 1.268 . S
C159 C152 1.506 . S
H160 C143 0.931 . S
H161 C144 0.931 . S
H162 C145 0.929 . S
H163 C146 0.930 . S
H164 C154 0.931 . S
H165 C155 0.931 . S
H166 C156 0.930 . S
H167 C157 0.929 . S
Eu168 N197 2.600 . S
Eu168 N203 2.562 . S
Eu168 O212 2.462 1_556 S
Eu168 O213 2.373 . S
Eu168 O215 2.432 . S
Eu168 O216 2.291 1_556 S
Eu168 O220 2.335 . S
Eu168 O223 2.372 . S
Eu168 C232 2.787 . S
C169 N170 1.365 . S
C169 C172 1.405 . S
C169 C176 1.448 . S
N170 C169 1.365 . S
N170 C173 1.319 . S
N170 Eu179 2.600 . S
C171 C173 1.397 . S
C171 C174 1.367 . S
C171 H191 0.931 . S
C172 C169 1.405 . S
C172 C174 1.403 . S
C172 C178 1.439 . S
C173 N170 1.319 . S
C173 C171 1.397 . S
C173 H184 0.930 . S
C174 C171 1.367 . S
C174 C172 1.403 . S
C174 H195 0.929 . S
C175 C176 1.430 . S
C175 C177 1.387 . S
C175 C181 1.418 . S
C176 C169 1.448 . S
C176 C175 1.430 . S
C176 N180 1.351 . S
C177 C175 1.387 . S
C177 C178 1.374 . S
C177 H192 0.931 . S
C178 C172 1.439 . S
C178 C177 1.374 . S
C178 H193 0.931 . S
Eu179 N170 2.600 . S
Eu179 N180 2.562 . S
Eu179 O214 2.335 . S
Eu179 O217 2.372 . S
Eu179 O218 2.462 1_554 S
Eu179 O219 2.373 . S
Eu179 O221 2.432 . S
Eu179 O222 2.291 1_554 S
Eu179 C243 2.787 . S
N180 C176 1.351 . S
N180 Eu179 2.562 . S
N180 C182 1.325 1_554 S
C181 C175 1.418 . S
C181 C183 1.358 1_554 S
C181 H189 0.924 1_554 S
C182 N180 1.325 1_556 S
C182 C183 1.416 . S
C182 H188 0.929 . S
C183 C181 1.358 1_556 S
C183 C182 1.416 . S
C183 H185 0.930 . S
H184 C173 0.930 . S
H185 C183 0.930 . S
H186 C201 0.930 . S
H187 C208 0.930 . S
H188 C182 0.929 . S
H189 C181 0.924 1_556 S
H190 C204 0.929 . S
H191 C171 0.931 . S
H192 C177 0.931 . S
H193 C178 0.931 . S
H194 C199 0.931 . S
H195 C174 0.929 . S
H196 C207 0.934 . S
N197 Eu168 2.600 . S
N197 C198 1.365 . S
N197 C201 1.319 . S
C198 N197 1.365 . S
C198 C200 1.405 . S
C198 C206 1.448 . S
C199 H194 0.931 . S
C199 C201 1.397 . S
C199 C202 1.367 . S
C200 C198 1.405 . S
C200 C202 1.403 . S
C200 C233 1.439 . S
C201 H186 0.930 . S
C201 N197 1.319 . S
C201 C199 1.397 . S
C202 C199 1.367 . S
C202 C200 1.403 . S
C202 H209 0.929 . S
N203 Eu168 2.562 . S
N203 C204 1.325 1_556 S
N203 C206 1.351 . S
C204 H190 0.929 . S
C204 N203 1.325 1_554 S
C204 C208 1.416 . S
C205 C206 1.430 . S
C205 C207 1.397 1_556 S
C205 C234 1.387 . S
C206 C198 1.448 . S
C206 N203 1.351 . S
C206 C205 1.430 . S
C207 H196 0.934 . S
C207 C205 1.397 1_554 S
C207 C208 1.370 . S
C208 H187 0.930 . S
C208 C204 1.416 . S
C208 C207 1.370 . S
H209 C202 0.929 . S
H210 C233 0.931 . S
H211 C234 0.931 . S
O212 Eu168 2.462 1_554 S
O212 C232 1.252 1_554 S
O213 Eu168 2.373 . S
O213 C224 1.249 . S
O214 Eu179 2.335 . S
O214 C224 1.264 1_554 S
O215 Eu168 2.432 . S
O215 C232 1.268 . S
O216 Eu168 2.291 1_554 S
O216 C231 1.255 . S
O217 Eu179 2.372 . S
O217 C231 1.257 . S
O218 Eu179 2.462 1_556 S
O218 C243 1.252 1_556 S
O219 Eu179 2.373 . S
O219 C235 1.249 . S
O220 Eu168 2.335 . S
O220 C235 1.264 1_556 S
O221 Eu179 2.432 . S
O221 C243 1.268 . S
O222 Eu179 2.291 1_556 S
O222 C242 1.255 . S
O223 Eu168 2.372 . S
O223 C242 1.257 . S
C224 O213 1.249 . S
C224 O214 1.264 1_556 S
C225 C228 1.382 . S
C225 C230 1.390 1_556 S
C225 C232 1.506 . S
C226 C227 1.398 . S
C226 C230 1.392 1_556 S
C227 C226 1.398 . S
C227 C229 1.372 . S
C227 H244 0.931 . S
C228 C225 1.382 . S
C228 C229 1.390 . S
C228 H245 0.931 . S
C229 C227 1.372 . S
C229 C228 1.390 . S
C229 H246 0.929 . S
C230 C225 1.390 1_554 S
C230 C226 1.392 1_554 S
C230 H247 0.930 . S
C231 O216 1.255 . S
C231 O217 1.257 . S
C232 Eu168 2.787 . S
C232 O212 1.252 1_556 S
C232 O215 1.268 . S
C232 C225 1.506 . S
C233 C200 1.439 . S
C233 H210 0.931 . S
C233 C234 1.374 . S
C234 C205 1.387 . S
C234 H211 0.931 . S
C234 C233 1.374 . S
C235 O219 1.249 . S
C235 O220 1.264 1_554 S
C236 C239 1.382 . S
C236 C240 1.389 . S
C236 C243 1.506 . S
C237 C238 1.398 . S
C237 C240 1.392 . S
C238 C237 1.398 . S
C238 C241 1.372 . S
C238 H248 0.931 . S
C239 C236 1.382 . S
C239 C241 1.390 . S
C239 H249 0.931 . S
C240 C236 1.389 . S
C240 C237 1.392 . S
C240 H250 0.930 1_554 S
C241 C238 1.372 . S
C241 C239 1.390 . S
C241 H251 0.929 . S
C242 O222 1.255 . S
C242 O223 1.257 . S
C243 Eu179 2.787 . S
C243 O218 1.252 1_554 S
C243 O221 1.268 . S
C243 C236 1.506 . S
H244 C227 0.931 . S
H245 C228 0.931 . S
H246 C229 0.929 . S
H247 C230 0.930 . S
H248 C238 0.931 . S
H249 C239 0.931 . S
H250 C240 0.930 1_556 S
H251 C241 0.929 . S
H252 C260 0.929 . S
H253 C262 0.930 . S
H254 C264 0.930 . S
H255 C267 0.929 . S
H256 C270 0.930 . S
H257 C272 0.960 . S
H258 C272 0.960 . S
H259 C272 0.960 1_455 S
C260 H252 0.929 . S
C260 C261 1.377 . S
C260 C262 1.384 . S
C261 C260 1.377 . S
C261 C267 1.390 1_655 S
C262 H253 0.930 . S
C262 C260 1.384 . S
C262 C263 1.372 . S
C263 C262 1.372 . S
C263 C264 1.400 1_655 S
C263 C268 1.490 . S
C264 H254 0.930 . S
C264 C263 1.400 1_455 S
C264 C267 1.386 . S
H265 C281 0.930 . S
H266 C282 0.931 . S
C267 H255 0.929 . S
C267 C261 1.390 1_455 S
C267 C264 1.386 . S
C268 C263 1.490 . S
C268 C270 1.395 1_655 S
C268 C271 1.403 . S
H269 C275 0.930 . S
C270 H256 0.930 . S
C270 C268 1.395 1_455 S
C270 C273 1.403 . S
C271 C268 1.403 . S
C271 C272 1.524 . S
C271 C275 1.400 . S
C272 H257 0.960 . S
C272 H258 0.960 . S
C272 H259 0.960 1_655 S
C272 C271 1.524 . S
C273 C270 1.403 . S
C273 C274 1.389 . S
C273 C277 1.495 . S
C274 C273 1.389 . S
C274 C275 1.387 1_455 S
C274 C276 1.480 . S
C275 H269 0.930 . S
C275 C271 1.400 . S
C275 C274 1.387 1_655 S
C276 C274 1.480 . S
C276 C278 1.381 1_455 S
C276 C282 1.383 . S
C277 C273 1.495 . S
C277 H283 0.959 . S
C277 H284 0.961 . S
C277 H285 0.960 1_455 S
C278 C276 1.381 1_655 S
C278 C279 1.394 . S
C278 H286 0.930 . S
C279 C278 1.394 . S
C279 C280 1.383 1_655 S
C279 H287 0.929 . S
C280 C279 1.383 1_455 S
C280 C281 1.377 . S
C281 H265 0.930 . S
C281 C280 1.377 . S
C281 C282 1.379 . S
C282 H266 0.931 . S
C282 C276 1.383 . S
C282 C281 1.379 . S
H283 C277 0.959 . S
H284 C277 0.961 . S
H285 C277 0.960 1_655 S
H286 C278 0.930 . S
H287 C279 0.929 . S
H288 C296 0.934 . S
H289 C298 0.930 . S
H290 C300 0.930 . S
H291 C303 0.929 . S
H292 C306 0.930 . S
H293 C308 0.960 . S
H294 C308 0.960 . S
H295 C308 0.960 . S
C296 H288 0.934 . S
C296 C297 1.365 1_565 S
C296 C298 1.392 . S
C297 C296 1.365 1_545 S
C297 C303 1.390 . S
C298 H289 0.930 . S
C298 C296 1.392 . S
C298 C299 1.372 1_565 S
C299 C298 1.372 1_545 S
C299 C300 1.400 . S
C299 C304 1.490 . S
C300 H290 0.930 . S
C300 C299 1.400 . S
C300 C303 1.386 . S
H301 C317 0.930 . S
H302 C318 0.931 . S
C303 H291 0.929 . S
C303 C297 1.390 . S
C303 C300 1.386 . S
C304 C299 1.490 . S
C304 C306 1.395 . S
C304 C307 1.403 1_545 S
H305 C311 0.930 . S
C306 H292 0.930 . S
C306 C304 1.395 . S
C306 C309 1.403 . S
C307 C304 1.403 1_565 S
C307 C308 1.524 . S
C307 C311 1.400 . S
C308 H293 0.960 . S
C308 H294 0.960 . S
C308 H295 0.960 . S
C308 C307 1.524 . S
C309 C306 1.403 . S
C309 C310 1.392 . S
C309 C313 1.495 . S
C310 C309 1.392 . S
C310 C311 1.385 1_545 S
C310 C312 1.478 . S
C311 H305 0.930 . S
C311 C307 1.400 . S
C311 C310 1.385 1_565 S
C312 C310 1.478 . S
C312 C314 1.381 1_545 S
C312 C318 1.383 . S
C313 C309 1.495 . S
C313 H319 0.959 . S
C313 H320 0.961 . S
C313 H321 0.960 . S
C314 C312 1.381 1_565 S
C314 C315 1.394 . S
C314 H322 0.930 . S
C315 C314 1.394 . S
C315 C316 1.383 . S
C315 H323 0.929 . S
C316 C315 1.383 . S
C316 C317 1.377 1_565 S
C317 H301 0.930 . S
C317 C316 1.377 1_545 S
C317 C318 1.379 . S
C318 H302 0.931 . S
C318 C312 1.383 . S
C318 C317 1.379 . S
H319 C313 0.959 . S
H320 C313 0.961 . S
H321 C313 0.960 . S
H322 C314 0.930 . S
H323 C315 0.929 . S
H324 C332 0.929 . S
H325 C334 0.930 . S
H326 C336 0.930 . S
H327 C339 0.929 . S
H328 C342 0.930 . S
H329 C344 0.960 . S
H330 C344 0.960 . S
H331 C344 0.960 . S
C332 H324 0.929 . S
C332 C333 1.377 . S
C332 C334 1.384 . S
C333 C332 1.377 . S
C333 C339 1.390 . S
C334 H325 0.930 . S
C334 C332 1.384 . S
C334 C335 1.372 . S
C335 C334 1.372 . S
C335 C336 1.400 . S
C335 C340 1.490 . S
C336 H326 0.930 . S
C336 C335 1.400 . S
C336 C339 1.386 . S
H337 C353 0.930 . S
H338 C354 0.931 . S
C339 H327 0.929 . S
C339 C333 1.390 . S
C339 C336 1.386 . S
C340 C335 1.490 . S
C340 C342 1.395 . S
C340 C343 1.403 . S
H341 C347 0.930 . S
C342 H328 0.930 . S
C342 C340 1.395 . S
C342 C345 1.403 . S
C343 C340 1.403 . S
C343 C344 1.524 . S
C343 C347 1.400 . S
C344 H329 0.960 . S
C344 H330 0.960 . S
C344 H331 0.960 . S
C344 C343 1.524 . S
C345 C342 1.403 . S
C345 C346 1.392 . S
C345 C349 1.495 . S
C346 C345 1.392 . S
C346 C347 1.385 . S
C346 C348 1.478 . S
C347 H341 0.930 . S
C347 C343 1.400 . S
C347 C346 1.385 . S
C348 C346 1.478 . S
C348 C350 1.381 . S
C348 C354 1.383 . S
C349 C345 1.495 . S
C349 H355 0.959 . S
C349 H356 0.961 . S
C349 H357 0.960 . S
C350 C348 1.381 . S
C350 C351 1.394 . S
C350 H358 0.930 . S
C351 C350 1.394 . S
C351 C352 1.383 . S
C351 H359 0.929 . S
C352 C351 1.383 . S
C352 C353 1.377 . S
C353 H337 0.930 . S
C353 C352 1.377 . S
C353 C354 1.379 . S
C354 H338 0.931 . S
C354 C348 1.383 . S
C354 C353 1.379 . S
H355 C349 0.959 . S
H356 C349 0.961 . S
H357 C349 0.960 . S
H358 C350 0.930 . S
H359 C351 0.929 . S
H360 C368 0.929 . S
H361 C370 0.930 . S
H362 C372 0.930 . S
H363 C375 0.929 . S
H364 C378 0.930 . S
H365 C380 0.960 . S
H366 C380 0.960 . S
H367 C380 0.960 . S
C368 H360 0.929 . S
C368 C369 1.377 . S
C368 C370 1.384 . S
C369 C368 1.377 . S
C369 C375 1.390 1_554 S
C370 H361 0.930 . S
C370 C368 1.384 . S
C370 C371 1.372 . S
C371 C370 1.372 . S
C371 C372 1.400 1_554 S
C371 C376 1.490 . S
C372 H362 0.930 . S
C372 C371 1.400 1_556 S
C372 C375 1.386 . S
H373 C389 0.930 . S
H374 C390 0.931 . S
C375 H363 0.929 . S
C375 C369 1.390 1_556 S
C375 C372 1.386 . S
C376 C371 1.490 . S
C376 C378 1.395 1_554 S
C376 C379 1.403 . S
H377 C383 0.930 . S
C378 H364 0.930 . S
C378 C376 1.395 1_556 S
C378 C381 1.403 . S
C379 C376 1.403 . S
C379 C380 1.524 . S
C379 C383 1.400 . S
C380 H365 0.960 . S
C380 H366 0.960 . S
C380 H367 0.960 . S
C380 C379 1.524 . S
C381 C378 1.403 . S
C381 C382 1.392 . S
C381 C385 1.495 . S
C382 C381 1.392 . S
C382 C383 1.385 1_556 S
C382 C384 1.478 . S
C383 H377 0.930 . S
C383 C379 1.400 . S
C383 C382 1.385 1_554 S
C384 C382 1.478 . S
C384 C386 1.381 1_556 S
C384 C390 1.383 . S
C385 C381 1.495 . S
C385 H391 0.959 . S
C385 H392 0.961 . S
C385 H393 0.960 1_556 S
C386 C384 1.381 1_554 S
C386 C387 1.394 . S
C386 H394 0.930 . S
C387 C386 1.394 . S
C387 C388 1.383 1_554 S
C387 H395 0.929 . S
C388 C387 1.383 1_556 S
C388 C389 1.377 . S
C389 H373 0.930 . S
C389 C388 1.377 . S
C389 C390 1.379 . S
C390 H374 0.931 . S
C390 C384 1.383 . S
C390 C389 1.379 . S
H391 C385 0.959 . S
H392 C385 0.961 . S
H393 C385 0.960 1_554 S
H394 C386 0.930 . S
H395 C387 0.929 . S
H396 C404 0.929 . S
H397 C406 0.930 . S
H398 C408 0.930 . S
H399 C411 0.929 . S
H400 C414 0.930 . S
H401 C416 0.960 . S
H402 C416 0.960 . S
H403 C416 0.960 1_554 S
C404 H396 0.929 . S
C404 C405 1.377 . S
C404 C406 1.384 . S
C405 C404 1.377 . S
C405 C411 1.390 1_556 S
C406 H397 0.930 . S
C406 C404 1.384 . S
C406 C407 1.372 . S
C407 C406 1.372 . S
C407 C408 1.400 1_556 S
C407 C412 1.490 . S
C408 H398 0.930 . S
C408 C407 1.400 1_554 S
C408 C411 1.386 . S
H409 C425 0.930 . S
H410 C426 0.931 . S
C411 H399 0.929 . S
C411 C405 1.390 1_554 S
C411 C408 1.386 . S
C412 C407 1.490 . S
C412 C414 1.395 . S
C412 C415 1.403 . S
H413 C419 0.930 1_554 S
C414 H400 0.930 . S
C414 C412 1.395 . S
C414 C417 1.403 . S
C415 C412 1.403 . S
C415 C416 1.524 . S
C415 C419 1.400 . S
C416 H401 0.960 . S
C416 H402 0.960 . S
C416 H403 0.960 1_556 S
C416 C415 1.524 . S
C417 C414 1.403 . S
C417 C418 1.392 . S
C417 C421 1.495 . S
C418 C417 1.392 . S
C418 C419 1.385 . S
C418 C420 1.478 1_556 S
C419 H413 0.930 1_556 S
C419 C415 1.400 . S
C419 C418 1.385 . S
C420 C418 1.478 1_554 S
C420 C422 1.381 1_554 S
C420 C426 1.383 . S
C421 C417 1.495 . S
C421 H427 0.959 . S
C421 H428 0.961 1_556 S
C421 H429 0.960 . S
C422 C420 1.381 1_556 S
C422 C423 1.394 . S
C422 H430 0.930 . S
C423 C422 1.394 . S
C423 C424 1.383 1_556 S
C423 H431 0.929 . S
C424 C423 1.383 1_554 S
C424 C425 1.377 . S
C425 H409 0.930 . S
C425 C424 1.377 . S
C425 C426 1.379 . S
C426 H410 0.931 . S
C426 C420 1.383 . S
C426 C425 1.379 . S
H427 C421 0.959 . S
H428 C421 0.961 1_554 S
H429 C421 0.960 . S
H430 C422 0.930 . S
H431 C423 0.929 . S
H432 C440 0.929 . S
H433 C442 0.930 . S
H434 C444 0.930 . S
H435 C447 0.929 . S
H436 C450 0.930 . S
H437 C452 0.960 . S
H438 C452 0.960 . S
H439 C452 0.960 . S
C440 H432 0.929 . S
C440 C441 1.377 1_554 S
C440 C442 1.384 . S
C441 C440 1.377 1_556 S
C441 C447 1.390 . S
C442 H433 0.930 . S
C442 C440 1.384 . S
C442 C443 1.372 1_554 S
C443 C442 1.372 1_556 S
C443 C444 1.400 . S
C443 C448 1.490 . S
C444 H434 0.930 . S
C444 C443 1.400 . S
C444 C447 1.386 . S
H445 C461 0.930 . S
H446 C462 0.931 . S
C447 H435 0.929 . S
C447 C441 1.390 . S
C447 C444 1.386 . S
C448 C443 1.490 . S
C448 C450 1.395 . S
C448 C451 1.403 . S
H449 C455 0.930 . S
C450 H436 0.930 . S
C450 C448 1.395 . S
C450 C453 1.403 . S
C451 C448 1.403 . S
C451 C452 1.524 . S
C451 C455 1.400 . S
C452 H437 0.960 . S
C452 H438 0.960 . S
C452 H439 0.960 . S
C452 C451 1.524 . S
C453 C450 1.403 . S
C453 C454 1.392 . S
C453 C457 1.495 1_556 S
C454 C453 1.392 . S
C454 C455 1.385 . S
C454 C456 1.478 . S
C455 H449 0.930 . S
C455 C451 1.400 . S
C455 C454 1.385 . S
C456 C454 1.478 . S
C456 C458 1.381 1_556 S
C456 C462 1.383 . S
C457 C453 1.495 1_554 S
C457 H463 0.959 . S
C457 H464 0.961 1_554 S
C457 H465 0.960 . S
C458 C456 1.381 1_554 S
C458 C459 1.394 . S
C458 H466 0.930 . S
C459 C458 1.394 . S
C459 C460 1.383 1_554 S
C459 H467 0.929 . S
C460 C459 1.383 1_556 S
C460 C461 1.377 . S
C461 H445 0.930 . S
C461 C460 1.377 . S
C461 C462 1.379 . S
C462 H446 0.931 . S
C462 C456 1.383 . S
C462 C461 1.379 . S
H463 C457 0.959 . S
H464 C457 0.961 1_556 S
H465 C457 0.960 . S
H466 C458 0.930 . S
H467 C459 0.929 . S
H468 C476 0.929 . S
H469 C478 0.930 . S
H470 C480 0.930 . S
H471 C483 0.929 . S
H472 C486 0.930 . S
H473 C488 0.960 . S
H474 C488 0.960 1_556 S
H475 C488 0.960 . S
C476 H468 0.929 . S
C476 C477 1.377 . S
C476 C478 1.384 . S
C477 C476 1.377 . S
C477 C483 1.390 1_556 S
C478 H469 0.930 . S
C478 C476 1.384 . S
C478 C479 1.372 . S
C479 C478 1.372 . S
C479 C480 1.400 1_556 S
C479 C484 1.490 . S
C480 H470 0.930 . S
C480 C479 1.400 1_554 S
C480 C483 1.386 . S
H481 C497 0.930 . S
H482 C498 0.931 . S
C483 H471 0.929 . S
C483 C477 1.390 1_554 S
C483 C480 1.386 . S
C484 C479 1.490 . S
C484 C486 1.395 . S
C484 C487 1.403 1_556 S
H485 C491 0.930 . S
C486 H472 0.930 . S
C486 C484 1.395 . S
C486 C489 1.403 . S
C487 C484 1.403 1_554 S
C487 C488 1.524 . S
C487 C491 1.400 . S
C488 H473 0.960 . S
C488 H474 0.960 1_554 S
C488 H475 0.960 . S
C488 C487 1.524 . S
C489 C486 1.403 . S
C489 C490 1.392 . S
C489 C493 1.495 . S
C490 C489 1.392 . S
C490 C491 1.385 1_556 S
C490 C492 1.478 . S
C491 H485 0.930 . S
C491 C487 1.400 . S
C491 C490 1.385 1_554 S
C492 C490 1.478 . S
C492 C494 1.382 . S
C492 C498 1.381 1_556 S
C493 C489 1.495 . S
C493 H499 0.959 . S
C493 H500 0.961 1_556 S
C493 H501 0.960 . S
C494 C492 1.382 . S
C494 C495 1.394 . S
C494 H502 0.930 . S
C495 C494 1.394 . S
C495 C496 1.383 1_556 S
C495 H503 0.929 . S
C496 C495 1.383 1_554 S
C496 C497 1.377 . S
C497 H481 0.930 . S
C497 C496 1.377 . S
C497 C498 1.379 . S
C498 H482 0.931 . S
C498 C492 1.381 1_554 S
C498 C497 1.379 . S
H499 C493 0.959 . S
H500 C493 0.961 1_554 S
H501 C493 0.960 . S
H502 C494 0.930 . S
H503 C495 0.929 . S
H504 C512 0.929 . S
H505 C514 0.930 . S
H506 C516 0.930 . S
H507 C519 0.929 1_554 S
H508 C522 0.930 . S
H509 C524 0.960 . S
H510 C524 0.960 . S
H511 C524 0.960 . S
C512 H504 0.929 . S
C512 C513 1.377 . S
C512 C514 1.384 . S
C513 C512 1.377 . S
C513 C519 1.390 . S
C514 H505 0.930 . S
C514 C512 1.384 . S
C514 C515 1.372 . S
C515 C514 1.372 . S
C515 C516 1.400 1_556 S
C515 C520 1.490 1_556 S
C516 H506 0.930 . S
C516 C515 1.400 1_554 S
C516 C519 1.386 1_554 S
H517 C533 0.930 . S
H518 C534 0.931 . S
C519 H507 0.929 1_556 S
C519 C513 1.390 . S
C519 C516 1.386 1_556 S
C520 C515 1.490 1_554 S
C520 C522 1.395 . S
C520 C523 1.403 1_554 S
H521 C527 0.930 . S
C522 H508 0.930 . S
C522 C520 1.395 . S
C522 C525 1.403 . S
C523 C520 1.403 1_556 S
C523 C524 1.524 . S
C523 C527 1.400 . S
C524 H509 0.960 . S
C524 H510 0.960 . S
C524 H511 0.960 . S
C524 C523 1.524 . S
C525 C522 1.403 . S
C525 C526 1.392 . S
C525 C529 1.495 . S
C526 C525 1.392 . S
C526 C527 1.385 1_554 S
C526 C528 1.478 . S
C527 H521 0.930 . S
C527 C523 1.400 . S
C527 C526 1.385 1_556 S
C528 C526 1.478 . S
C528 C530 1.381 . S
C528 C534 1.383 . S
C529 C525 1.495 . S
C529 H535 0.959 . S
C529 H536 0.961 . S
C529 H537 0.960 . S
C530 C528 1.381 . S
C530 C531 1.394 . S
C530 H538 0.930 . S
C531 C530 1.394 . S
C531 C532 1.383 . S
C531 H539 0.929 . S
C532 C531 1.383 . S
C532 C533 1.377 . S
C533 H517 0.930 . S
C533 C532 1.377 . S
C533 C534 1.379 . S
C534 H518 0.931 . S
C534 C528 1.383 . S
C534 C533 1.379 . S
H535 C529 0.959 . S
H536 C529 0.961 . S
H537 C529 0.960 . S
H538 C530 0.930 . S
H539 C531 0.929 . S
H540 C548 0.929 . S
H541 C550 0.930 . S
H542 C552 0.930 . S
H543 C555 0.929 . S
H544 C558 0.930 . S
H545 C560 0.960 . S
H546 C560 0.960 . S
H547 C560 0.960 . S
C548 H540 0.929 . S
C548 C549 1.377 . S
C548 C550 1.384 . S
C549 C548 1.377 . S
C549 C555 1.390 . S
C550 H541 0.930 . S
C550 C548 1.384 . S
C550 C551 1.372 . S
C551 C550 1.372 . S
C551 C552 1.400 . S
C551 C556 1.490 . S
C552 H542 0.930 . S
C552 C551 1.400 . S
C552 C555 1.386 . S
H553 C569 0.930 1_556 S
H554 C570 0.936 . S
C555 H543 0.929 . S
C555 C549 1.390 . S
C555 C552 1.386 . S
C556 C551 1.490 . S
C556 C558 1.395 1_554 S
C556 C559 1.403 . S
H557 C563 0.930 . S
C558 H544 0.930 . S
C558 C556 1.395 1_556 S
C558 C561 1.403 . S
C559 C556 1.403 . S
C559 C560 1.524 . S
C559 C563 1.400 . S
C560 H545 0.960 . S
C560 H546 0.960 . S
C560 H547 0.960 . S
C560 C559 1.524 . S
C561 C558 1.403 . S
C561 C562 1.392 1_556 S
C561 C565 1.495 . S
C562 C561 1.392 1_554 S
C562 C563 1.385 . S
C562 C564 1.478 . S
C563 H557 0.930 . S
C563 C559 1.400 . S
C563 C562 1.385 . S
C564 C562 1.478 . S
C564 C566 1.381 . S
C564 C570 1.381 1_554 S
C565 C561 1.495 . S
C565 H571 0.959 . S
C565 H572 0.961 . S
C565 H573 0.960 . S
C566 C564 1.381 . S
C566 C567 1.394 . S
C566 H574 0.930 . S
C567 C566 1.394 . S
C567 C568 1.383 . S
C567 H575 0.929 . S
C568 C567 1.383 . S
C568 C569 1.377 . S
C569 H553 0.930 1_554 S
C569 C568 1.377 . S
C569 C570 1.376 1_554 S
C570 H554 0.936 . S
C570 C564 1.381 1_556 S
C570 C569 1.376 1_556 S
H571 C565 0.959 . S
H572 C565 0.961 . S
H573 C565 0.960 . S
H574 C566 0.930 . S
H575 C567 0.929 . S
C261 C63 1.481 . S
C280 C74 1.469 . S
C297 C147 1.522 . S
C316 C158 1.532 . S
C333 C242 1.481 . S
C352 C231 1.498 . S
C369 C67 2.258 . S
C388 C224 2.262 . S
C405 C153 0.762 . S
C424 C69 0.756 1_554 S
C441 C151 1.531 . S
C460 C237 1.400 1_556 S
C477 C56 2.258 1_556 S
C496 C235 2.269 . S
C513 C58 0.762 1_556 S
C532 C142 0.816 . S
C549 C226 1.410 1_554 S
C568 C140 1.525 . S
