# Generated by pormake.
# Topology dft, (4)-cn, num edge types: 1
# Building blocks:
#     Node 0, Type 0, BuildingBlock: GALJAG_clean_sbu_0, # of connection points: 4
#     Node 1, Type 0, BuildingBlock: GALJAG_clean_sbu_0, # of connection points: 4
#     Node 2, Type 0, BuildingBlock: GALJAG_clean_sbu_0, # of connection points: 4
#     Node 3, Type 0, BuildingBlock: GALJAG_clean_sbu_0, # of connection points: 4
#     Node 4, Type 0, BuildingBlock: GALJAG_clean_sbu_0, # of connection points: 4
#     Node 5, Type 0, BuildingBlock: GALJAG_clean_sbu_0, # of connection points: 4
#     Node 6, Type 0, BuildingBlock: GALJAG_clean_sbu_0, # of connection points: 4
#     Node 7, Type 0, BuildingBlock: GALJAG_clean_sbu_0, # of connection points: 4
#     Edge 8, Type (0, 0), BuildingBlock: XUDNAN_clean_linker_2, # of connection points: 2
#     Edge 9, Type (0, 0), BuildingBlock: XUDNAN_clean_linker_2, # of connection points: 2
#     Edge 10, Type (0, 0), BuildingBlock: XUDNAN_clean_linker_2, # of connection points: 2
#     Edge 11, Type (0, 0), BuildingBlock: XUDNAN_clean_linker_2, # of connection points: 2
#     Edge 12, Type (0, 0), BuildingBlock: XUDNAN_clean_linker_2, # of connection points: 2
#     Edge 13, Type (0, 0), BuildingBlock: XUDNAN_clean_linker_2, # of connection points: 2
#     Edge 14, Type (0, 0), BuildingBlock: XUDNAN_clean_linker_2, # of connection points: 2
#     Edge 15, Type (0, 0), BuildingBlock: XUDNAN_clean_linker_2, # of connection points: 2
#     Edge 16, Type (0, 0), BuildingBlock: XUDNAN_clean_linker_2, # of connection points: 2
#     Edge 17, Type (0, 0), BuildingBlock: XUDNAN_clean_linker_2, # of connection points: 2
#     Edge 18, Type (0, 0), BuildingBlock: XUDNAN_clean_linker_2, # of connection points: 2
#     Edge 19, Type (0, 0), BuildingBlock: XUDNAN_clean_linker_2, # of connection points: 2
#     Edge 20, Type (0, 0), BuildingBlock: XUDNAN_clean_linker_2, # of connection points: 2
#     Edge 21, Type (0, 0), BuildingBlock: XUDNAN_clean_linker_2, # of connection points: 2
#     Edge 22, Type (0, 0), BuildingBlock: XUDNAN_clean_linker_2, # of connection points: 2
#     Edge 23, Type (0, 0), BuildingBlock: XUDNAN_clean_linker_2, # of connection points: 2
# Relax obj value: 0.096
# Max RMSD: 0.146
# Mean RMSD: 0.146
data_MOF--net-dft--node1-GALJAG_clean_sbu_0--edge1-XUDNAN_clean_linker_2
_symmetry_space_group_name_H-M    P1
_symmetry_Int_Tables_number       1
_symmetry_cell_setting            triclinic
loop_
_symmetry_equiv_pos_as_xyz
'x, y, z'
_cell_length_a     33.437294
_cell_length_b     33.464973
_cell_length_c     44.86954
_cell_angle_alpha  90.109367
_cell_angle_beta   89.95865
_cell_angle_gamma 90.027623
loop_
_atom_site_label
_atom_site_type_symbol
_atom_site_fract_x
_atom_site_fract_y
_atom_site_fract_z
_atom_type_partial_charge
In0 In 0.30948 0.03682 0.16888 0.0
O1 O 0.36206 0.04851 0.20006 0.0
O2 O 0.37396 0.01666 0.16021 0.0
C3 C 0.27013 0.09556 0.19787 0.0
C4 C 0.30664 0.05448 0.11004 0.0
C5 C 0.27108 0.96938 0.18558 0.0
O6 O 0.30634 0.09858 0.19021 0.0
O7 O 0.25337 0.0634 0.19007 0.0
O8 O 0.26459 0.98667 0.16114 0.0
O9 O 0.2975 0.98569 0.20154 0.0
C10 C 0.38777 0.03173 0.18381 0.0
O11 O 0.31488 0.02012 0.11968 0.0
O12 O 0.29991 0.08012 0.13004 0.0
In13 In 0.0418 0.32076 0.66621 0.0
O14 O 0.022 0.38613 0.66969 0.0
O15 O 0.08367 0.37346 0.67465 0.0
C16 C 0.98462 0.28578 0.6996 0.0
C17 C 0.02383 0.31522 0.60761 0.0
C18 C 0.10381 0.2763 0.68541 0.0
O19 O 0.99736 0.3206 0.70479 0.0
O20 O 0.00011 0.26896 0.67719 0.0
O21 O 0.09488 0.27916 0.65817 0.0
O22 O 0.08172 0.29605 0.70281 0.0
C23 C 0.05664 0.39961 0.67425 0.0
O24 O 0.05925 0.31456 0.61721 0.0
O25 O 0.99745 0.31874 0.62754 0.0
In26 In 0.75964 0.03265 0.17082 0.0
O27 O 0.69543 0.01068 0.16406 0.0
O28 O 0.70531 0.05617 0.19615 0.0
C29 C 0.793 0.97067 0.20042 0.0
C30 C 0.77867 0.0268 0.11245 0.0
C31 C 0.78985 0.10305 0.1897 0.0
O32 O 0.80848 0.00488 0.1991 0.0
O33 O 0.76065 0.96707 0.18624 0.0
O34 O 0.78306 0.09617 0.16248 0.0
O35 O 0.78036 0.07502 0.20706 0.0
C36 C 0.68046 0.03375 0.18329 0.0
O37 O 0.80212 0.01587 0.13288 0.0
O38 O 0.74582 0.04089 0.12145 0.0
In39 In 0.05451 0.77131 0.67074 0.0
O40 O 0.06458 0.81227 0.63058 0.0
O41 O 0.04594 0.75269 0.62223 0.0
C42 C 0.98543 0.79898 0.69417 0.0
C43 C 0.06367 0.69214 0.6812 0.0
C44 C 0.11542 0.81106 0.69702 0.0
O45 O 0.99315 0.80059 0.66668 0.0
O46 O 0.0123 0.78293 0.70984 0.0
O47 O 0.07969 0.81399 0.70576 0.0
O48 O 0.12041 0.7885 0.67477 0.0
C49 C 0.05556 0.7861 0.61146 0.0
O50 O 0.09222 0.71662 0.68197 0.0
O51 O 0.03014 0.70758 0.67565 0.0
In52 In 0.32715 0.05421 0.83218 0.0
O53 O 0.31378 0.09241 0.87307 0.0
O54 O 0.32263 0.03032 0.87989 0.0
C55 C 0.29029 0.10489 0.79452 0.0
C56 C 0.40715 0.06441 0.82946 0.0
C57 C 0.29475 0.98698 0.80907 0.0
O58 O 0.27901 0.10003 0.82112 0.0
O59 O 0.3205 0.08463 0.78707 0.0
O60 O 0.3306 0.997 0.80464 0.0
O61 O 0.27558 0.01006 0.82614 0.0
C62 C 0.31544 0.06399 0.8914 0.0
O63 O 0.39128 0.03107 0.83512 0.0
O64 O 0.38271 0.09253 0.82533 0.0
In65 In 0.02681 0.3133 0.32966 0.0
O66 O 0.06015 0.36591 0.30912 0.0
O67 O 0.00826 0.37878 0.33457 0.0
C68 C 0.08972 0.26801 0.31269 0.0
C69 C 0.01456 0.30664 0.38918 0.0
C70 C 0.9677 0.28577 0.29422 0.0
O71 O 0.09372 0.30235 0.32394 0.0
O72 O 0.05408 0.25586 0.31105 0.0
O73 O 0.97547 0.27117 0.31945 0.0
O74 O 0.98965 0.31479 0.28673 0.0
C75 C 0.03722 0.39224 0.31964 0.0
O76 O 0.98705 0.31425 0.37094 0.0
O77 O 0.0485 0.30183 0.37747 0.0
In78 In 0.77871 0.03441 0.83506 0.0
O79 O 0.75705 0.02443 0.88266 0.0
O80 O 0.81964 0.02932 0.87579 0.0
C81 C 0.80216 0.96865 0.80453 0.0
C82 C 0.70024 0.05025 0.82803 0.0
C83 C 0.81959 0.09732 0.81262 0.0
O84 O 0.81746 0.97867 0.82912 0.0
O85 O 0.77425 0.99107 0.79583 0.0
O86 O 0.81416 0.06535 0.79832 0.0
O87 O 0.80457 0.09764 0.8384 0.0
C88 C 0.79143 0.0247 0.89413 0.0
O89 O 0.72702 0.07658 0.82547 0.0
O90 O 0.71302 0.01563 0.83387 0.0
In91 In 0.03866 0.76392 0.33402 0.0
O92 O 0.05838 0.80383 0.37283 0.0
O93 O 0.02833 0.74993 0.3833 0.0
C94 C 0.09233 0.79248 0.29455 0.0
C95 C 0.05025 0.68449 0.32976 0.0
C96 C 0.96952 0.79635 0.31418 0.0
O97 O 0.09865 0.79268 0.3223 0.0
O98 O 0.05936 0.77736 0.28682 0.0
O99 O 0.97763 0.75982 0.31116 0.0
O100 O 0.99565 0.81621 0.32798 0.0
C101 C 0.045 0.78117 0.39288 0.0
O102 O 0.01653 0.69965 0.33539 0.0
O103 O 0.07835 0.70936 0.3268 0.0
H104 H 0.32048 0.00357 0.06334 0.0
H105 H 0.28918 0.12634 0.08417 0.0
H106 H 0.28669 0.14185 0.03034 0.0
H107 H 0.38415 0.02539 0.00122 0.0
H108 H 0.36861 0.98237 0.97994 0.0
H109 H 0.36726 0.98091 0.02004 0.0
H110 H 0.29212 0.96201 0.01838 0.0
H111 H 0.29321 0.96347 0.97826 0.0
H112 H 0.25763 0.99359 0.99846 0.0
H113 H 0.28872 0.14413 0.97432 0.0
H114 H 0.29522 0.13314 0.92008 0.0
H115 H 0.32472 0.00869 0.93591 0.0
C116 C 0.31302 0.03371 0.05658 0.0
C117 C 0.305 0.06379 0.07789 0.0
C118 C 0.29542 0.10286 0.06818 0.0
C119 C 0.29391 0.11193 0.03769 0.0
C120 C 0.302 0.08157 0.01725 0.0
C121 C 0.31136 0.04325 0.02627 0.0
C122 C 0.31921 0.01617 0.99982 0.0
C123 C 0.36237 0.00029 0.00029 0.0
C124 C 0.28872 0.98178 0.99867 0.0
C125 C 0.3129 0.04527 0.97448 0.0
C126 C 0.30299 0.08283 0.985 0.0
C127 C 0.29634 0.11482 0.96582 0.0
C128 C 0.30011 0.10828 0.93506 0.0
C129 C 0.31036 0.07005 0.92381 0.0
C130 C 0.31663 0.03818 0.94385 0.0
H131 H 0.07581 0.30514 0.56099 0.0
H132 H 0.94983 0.31907 0.58195 0.0
H133 H 0.93353 0.31567 0.5283 0.0
H134 H 0.07609 0.365 0.4956 0.0
H135 H 0.11087 0.33375 0.47559 0.0
H136 H 0.11242 0.33575 0.51566 0.0
H137 H 0.10436 0.25878 0.51799 0.0
H138 H 0.10275 0.25655 0.47788 0.0
H139 H 0.06255 0.23542 0.49952 0.0
H140 H 0.93123 0.31328 0.47245 0.0
H141 H 0.943 0.31204 0.41813 0.0
H142 H 0.07045 0.29888 0.43354 0.0
C143 C 0.04477 0.30727 0.5543 0.0
C144 C 0.01404 0.31237 0.57559 0.0
C145 C 0.97382 0.31511 0.56598 0.0
C146 C 0.96427 0.31317 0.53559 0.0
C147 C 0.99529 0.30828 0.51515 0.0
C148 C 0.03471 0.30526 0.52407 0.0
C149 C 0.06246 0.30092 0.49756 0.0
C150 C 0.0922 0.33595 0.49602 0.0
C151 C 0.08431 0.26051 0.49829 0.0
C152 C 0.03252 0.30253 0.47229 0.0
C153 C 0.99393 0.30662 0.48294 0.0
C154 C 0.96128 0.30983 0.46385 0.0
C155 C 0.96827 0.30911 0.43305 0.0
C156 C 0.0076 0.30522 0.42166 0.0
C157 C 0.04003 0.30158 0.44161 0.0
H158 H 0.73516 0.03045 0.93799 0.0
H159 H 0.86215 0.01229 0.92342 0.0
H160 H 0.87272 0.00883 0.97797 0.0
H161 H 0.74547 0.09453 0.00082 0.0
H162 H 0.70214 0.0752 0.01988 0.0
H163 H 0.70441 0.07385 0.97981 0.0
H164 H 0.69219 0.99736 0.98055 0.0
H165 H 0.68977 0.99849 0.02065 0.0
H166 H 0.72475 0.96579 0.00218 0.0
H167 H 0.86911 0.00775 0.03428 0.0
H168 H 0.85212 0.01206 0.08789 0.0
H169 H 0.72801 0.03399 0.06504 0.0
C170 C 0.76515 0.02536 0.94626 0.0
C171 C 0.79784 0.02135 0.92657 0.0
C172 C 0.8367 0.01531 0.93821 0.0
C173 C 0.84296 0.01325 0.9691 0.0
C174 C 0.81007 0.01759 0.98795 0.0
C175 C 0.77196 0.0237 0.97696 0.0
C176 C 0.74191 0.02908 0.00187 0.0
C177 C 0.72235 0.07064 0.00051 0.0
C178 C 0.71029 0.99568 0.00127 0.0
C179 C 0.76906 0.02525 0.02865 0.0
C180 C 0.8082 0.01823 0.02021 0.0
C181 C 0.83858 0.0133 0.04114 0.0
C182 C 0.82866 0.01577 0.0715 0.0
C183 C 0.78883 0.02354 0.08053 0.0
C184 C 0.75876 0.02828 0.05876 0.0
H185 H 0.0255 0.73276 0.43972 0.0
H186 H 0.07347 0.8498 0.41847 0.0
H187 H 0.08047 0.86451 0.47226 0.0
H188 H 0.96924 0.7623 0.5047 0.0
H189 H 0.98029 0.71712 0.52488 0.0
H190 H 0.97831 0.71635 0.48478 0.0
H191 H 0.05011 0.68728 0.48292 0.0
H192 H 0.05233 0.68797 0.52301 0.0
H193 H 0.09013 0.71339 0.50155 0.0
H194 H 0.08235 0.86616 0.52855 0.0
H195 H 0.08037 0.85399 0.58291 0.0
H196 H 0.03234 0.73539 0.56687 0.0
C197 C 0.03732 0.76156 0.44638 0.0
C198 C 0.04884 0.79021 0.42498 0.0
C199 C 0.06444 0.82744 0.43455 0.0
C200 C 0.06848 0.83607 0.46502 0.0
C201 C 0.05691 0.80709 0.48557 0.0
C202 C 0.04175 0.77055 0.47664 0.0
C203 C 0.03227 0.74424 0.50312 0.0
C204 C 0.98736 0.73444 0.50444 0.0
C205 C 0.05774 0.70596 0.50261 0.0
C206 C 0.04451 0.77165 0.52838 0.0
C207 C 0.05849 0.80783 0.51783 0.0
C208 C 0.07148 0.83793 0.53706 0.0
C209 C 0.07023 0.83077 0.56786 0.0
C210 C 0.05627 0.79376 0.57906 0.0
C211 C 0.04323 0.76396 0.55897 0.0
H212 H 0.44872 0.99623 0.15266 0.0
H213 H 0.42402 0.06899 0.2307 0.0
H214 H 0.49645 0.07463 0.24049 0.0
H215 H 0.53513 0.94299 0.18419 0.0
H216 H 0.5617 0.94259 0.14923 0.0
H217 H 0.50781 0.942 0.14958 0.0
H218 H 0.50681 0.00506 0.11614 0.0
H219 H 0.56062 0.00598 0.11582 0.0
H220 H 0.53312 0.04932 0.12808 0.0
H221 H 0.57127 0.07696 0.23947 0.0
H222 H 0.64371 0.07319 0.22899 0.0
H223 H 0.61983 0.99754 0.15236 0.0
C224 C 0.45856 0.01285 0.17204 0.0
C225 C 0.43083 0.03213 0.19096 0.0
C226 C 0.4448 0.05385 0.216 0.0
C227 C 0.48585 0.05724 0.22173 0.0
C228 C 0.51246 0.03844 0.20237 0.0
C229 C 0.49942 0.01634 0.1782 0.0
C230 C 0.5343 0.00014 0.16034 0.0
C231 C 0.53475 0.9542 0.16088 0.0
C232 C 0.53366 0.0161 0.1282 0.0
C233 C 0.56895 0.01735 0.17786 0.0
C234 C 0.5557 0.03924 0.20207 0.0
C235 C 0.58206 0.05949 0.2208 0.0
C236 C 0.62309 0.05728 0.21462 0.0
C237 C 0.63729 0.03491 0.18999 0.0
C238 C 0.60981 0.01452 0.17154 0.0
H239 H 0.00371 0.46194 0.67097 0.0
H240 H 0.1286 0.43408 0.68705 0.0
H241 H 0.14321 0.50595 0.69336 0.0
H242 H 0.02077 0.54937 0.62812 0.0
H243 H 0.97852 0.57631 0.64296 0.0
H244 H 0.97748 0.52257 0.64136 0.0
H245 H 0.96308 0.51981 0.69809 0.0
H246 H 0.96414 0.5736 0.69987 0.0
H247 H 0.99649 0.54468 0.72362 0.0
H248 H 0.14475 0.58065 0.696 0.0
H249 H 0.13345 0.65348 0.69374 0.0
H250 H 0.00756 0.63281 0.67581 0.0
C251 C 0.03406 0.47096 0.67605 0.0
C252 C 0.06504 0.44251 0.67861 0.0
C253 C 0.10443 0.45544 0.68504 0.0
C254 C 0.11299 0.49615 0.68873 0.0
C255 C 0.08181 0.52347 0.68595 0.0
C256 C 0.04314 0.51148 0.67975 0.0
C257 C 0.0154 0.54702 0.67683 0.0
C258 C 0.99697 0.54892 0.64545 0.0
C259 C 0.98286 0.54622 0.70105 0.0
C260 C 0.04464 0.58089 0.68196 0.0
C261 C 0.08273 0.56662 0.68739 0.0
C262 C 0.11503 0.59219 0.69196 0.0
C263 C 0.1083 0.63348 0.69064 0.0
C264 C 0.06962 0.64872 0.6847 0.0
C265 C 0.03738 0.622 0.68062 0.0
H266 H 0.63666 -0.00036 0.83613 0.0
H267 H 0.6669 0.12238 0.81452 0.0
H268 H 0.59509 0.13917 0.81202 0.0
H269 H 0.54958 0.99234 0.78839 0.0
H270 H 0.52173 0.96225 0.81443 0.0
H271 H 0.57553 0.95969 0.81376 0.0
H272 H 0.57765 0.97729 0.87001 0.0
H273 H 0.52388 0.98005 0.87084 0.0
H274 H 0.55334 0.02211 0.88307 0.0
H275 H 0.52028 0.14301 0.81296 0.0
H276 H 0.4472 0.13339 0.81665 0.0
H277 H 0.46566 0.00821 0.83775 0.0
C278 C 0.62815 0.02998 0.83067 0.0
C279 C 0.65728 0.05972 0.82545 0.0
C280 C 0.64503 0.09913 0.81855 0.0
C281 C 0.60434 0.10896 0.81709 0.0
C282 C 0.57636 0.07903 0.82258 0.0
C283 C 0.58767 0.04032 0.82916 0.0
C284 C 0.55159 0.01393 0.83456 0.0
C285 C 0.54949 0.98006 0.8114 0.0
C286 C 0.55163 0.99738 0.86652 0.0
C287 C 0.51824 0.0439 0.83009 0.0
C288 C 0.53318 0.08126 0.82317 0.0
C289 C 0.50819 0.11388 0.81829 0.0
C290 C 0.46677 0.10814 0.82046 0.0
C291 C 0.45083 0.07008 0.82747 0.0
C292 C 0.477 0.03764 0.83233 0.0
H293 H 0.98911 0.45446 0.33655 0.0
H294 H 0.10385 0.42716 0.29608 0.0
H295 H 0.11978 0.4992 0.29419 0.0
H296 H 0.97004 0.54471 0.29366 0.0
H297 H 0.94668 0.5702 0.32452 0.0
H298 H 0.94407 0.51654 0.3219 0.0
H299 H 0.97491 0.51064 0.3747 0.0
H300 H 0.97792 0.56424 0.37738 0.0
H301 H 0.02222 0.53435 0.38243 0.0
H302 H 0.12469 0.5738 0.29928 0.0
H303 H 0.11607 0.64636 0.30753 0.0
H304 H 0.99732 0.6249 0.3432 0.0
C305 C 0.01743 0.46369 0.32704 0.0
C306 C 0.04528 0.43533 0.31646 0.0
C307 C 0.08204 0.44847 0.30421 0.0
C308 C 0.0914 0.48927 0.30313 0.0
C309 C 0.06353 0.51646 0.31415 0.0
C310 C 0.02711 0.50428 0.32557 0.0
C311 C 0.00244 0.53956 0.33598 0.0
C312 C 0.96351 0.54294 0.31793 0.0
C313 C 0.99389 0.53703 0.36962 0.0
C314 C 0.03086 0.57344 0.32892 0.0
C315 C 0.066 0.55949 0.31648 0.0
C316 C 0.09718 0.58513 0.30879 0.0
C317 C 0.09209 0.62621 0.31366 0.0
C318 C 0.05601 0.64113 0.32589 0.0
C319 C 0.02513 0.61432 0.33365 0.0
H320 H 0.0875 0.19505 0.28505 0.0
H321 H 0.16815 0.29087 0.31047 0.0
H322 H 0.22349 0.25666 0.28433 0.0
H323 H 0.16019 0.11369 0.29192 0.0
H324 H 0.14042 0.08711 0.2602 0.0
H325 H 0.10797 0.11805 0.2825 0.0
H326 H 0.08736 0.15731 0.23521 0.0
H327 H 0.12006 0.12683 0.21283 0.0
H328 H 0.12546 0.18042 0.2126 0.0
H329 H 0.2689 0.21416 0.25281 0.0
H330 H 0.30224 0.16422 0.22066 0.0
H331 H 0.19195 0.09603 0.21614 0.0
C332 C 0.11695 0.20852 0.28551 0.0
C333 C 0.12361 0.24554 0.29984 0.0
C334 C 0.16246 0.26241 0.29974 0.0
C335 C 0.19404 0.24327 0.2849 0.0
C336 C 0.18626 0.20722 0.27042 0.0
C337 C 0.14878 0.1898 0.27087 0.0
C338 C 0.14812 0.15137 0.25299 0.0
C339 C 0.13862 0.11543 0.27311 0.0
C340 C 0.11849 0.15418 0.22686 0.0
C341 C 0.19094 0.1502 0.24208 0.0
C342 C 0.21246 0.18266 0.25239 0.0
C343 C 0.25244 0.18846 0.24477 0.0
C344 C 0.27106 0.16005 0.22641 0.0
C345 C 0.24967 0.12631 0.21592 0.0
C346 C 0.20906 0.12152 0.22383 0.0
H347 H 0.95392 0.21056 0.69296 0.0
H348 H 0.95112 0.3144 0.75102 0.0
H349 H 0.9069 0.27809 0.78589 0.0
H350 H 0.85041 0.1799 0.70493 0.0
H351 H 0.86249 0.12743 0.70397 0.0
H352 H 0.89212 0.16248 0.683 0.0
H353 H 0.95605 0.13725 0.70963 0.0
H354 H 0.92661 0.10233 0.73082 0.0
H355 H 0.95819 0.13786 0.74978 0.0
H356 H 0.86606 0.22896 0.81573 0.0
H357 H 0.82958 0.17153 0.83731 0.0
H358 H 0.85887 0.10047 0.75929 0.0
C359 C 0.94362 0.22584 0.71284 0.0
C360 C 0.95583 0.26529 0.7193 0.0
C361 C 0.94196 0.2842 0.74561 0.0
C362 C 0.9169 0.26382 0.76555 0.0
C363 C 0.90589 0.22469 0.75873 0.0
C364 C 0.91857 0.20601 0.7329 0.0
C365 C 0.90329 0.16351 0.7311 0.0
C366 C 0.87541 0.15803 0.70415 0.0
C367 C 0.93812 0.13348 0.7303 0.0
C368 C 0.88044 0.16101 0.76014 0.0
C369 C 0.88223 0.19659 0.77577 0.0
C370 C 0.8642 0.20105 0.8036 0.0
C371 C 0.84367 0.16828 0.8157 0.0
C372 C 0.84136 0.13167 0.79993 0.0
C373 C 0.85997 0.12816 0.7718 0.0
H374 H 0.95472 0.87599 0.30849 0.0
H375 H 0.90663 0.75921 0.2865 0.0
H376 H 0.85255 0.7913 0.2575 0.0
H377 H 0.85844 0.92957 0.31339 0.0
H378 H 0.87902 0.97394 0.29658 0.0
H379 H 0.91051 0.94174 0.31855 0.0
H380 H 0.95953 0.93518 0.27401 0.0
H381 H 0.92807 0.96698 0.25185 0.0
H382 H 0.94106 0.91781 0.23853 0.0
H383 H 0.80662 0.83654 0.22781 0.0
H384 H 0.77351 0.89094 0.19967 0.0
H385 H 0.85409 0.977 0.24007 0.0
C386 C 0.93227 0.85718 0.29818 0.0
C387 C 0.93457 0.81517 0.29992 0.0
C388 C 0.90516 0.79151 0.28559 0.0
C389 C 0.87437 0.80946 0.2691 0.0
C390 C 0.87353 0.85103 0.26721 0.0
C391 C 0.90168 0.87455 0.28147 0.0
C392 C 0.89612 0.91829 0.27422 0.0
C393 C 0.88537 0.94229 0.30236 0.0
C394 C 0.9334 0.93555 0.25873 0.0
C395 C 0.86105 0.91569 0.25308 0.0
C396 C 0.84799 0.87678 0.24959 0.0
C397 C 0.81643 0.86714 0.23055 0.0
C398 C 0.79787 0.89814 0.21464 0.0
C399 C 0.81139 0.93803 0.21765 0.0
C400 C 0.8432 0.94674 0.23725 0.0
H401 H 0.11091 0.86426 0.74331 0.0
H402 H 0.19521 0.80499 0.68442 0.0
H403 H 0.25106 0.83994 0.70944 0.0
H404 H 0.15965 0.95838 0.74415 0.0
H405 H 0.14865 0.96866 0.78274 0.0
H406 H 0.11577 0.93717 0.76133 0.0
H407 H 0.12392 0.88082 0.8004 0.0
H408 H 0.15706 0.91209 0.82187 0.0
H409 H 0.17331 0.86333 0.80979 0.0
H410 H 0.29733 0.88328 0.73953 0.0
H411 H 0.33043 0.93414 0.77095 0.0
H412 H 0.21582 0.96515 0.81009 0.0
C413 C 0.14115 0.85843 0.73581 0.0
C414 C 0.14881 0.83187 0.71198 0.0
C415 C 0.18872 0.82523 0.70265 0.0
C416 C 0.22062 0.84481 0.71679 0.0
C417 C 0.21204 0.87083 0.74022 0.0
C418 C 0.17328 0.87777 0.74961 0.0
C419 C 0.172 0.90847 0.77443 0.0
C420 C 0.14758 0.94535 0.76509 0.0
C421 C 0.1556 0.89006 0.80334 0.0
C422 C 0.21605 0.91822 0.77722 0.0
C423 C 0.23868 0.8959 0.75749 0.0
C424 C 0.27996 0.90071 0.75521 0.0
C425 C 0.2985 0.92961 0.77318 0.0
C426 C 0.27571 0.95342 0.79304 0.0
C427 C 0.23407 0.94709 0.79535 0.0
H428 H 0.86556 0.91985 0.81713 0.0
H429 H 0.77699 0.94554 0.7492 0.0
H430 H 0.81051 0.89834 0.715 0.0
H431 H 0.94722 0.91788 0.77059 0.0
H432 H 0.97303 0.8776 0.78898 0.0
H433 H 0.93889 0.90852 0.80967 0.0
H434 H 0.89867 0.84587 0.8256 0.0
H435 H 0.93296 0.81462 0.80509 0.0
H436 H 0.88008 0.81205 0.79752 0.0
H437 H 0.85892 0.85651 0.68598 0.0
H438 H 0.917 0.8203 0.6651 0.0
H439 H 0.97299 0.82009 0.75226 0.0
C440 C 0.85259 0.91469 0.79536 0.0
C441 C 0.8186 0.9362 0.78584 0.0
C442 C 0.80288 0.92918 0.757 0.0
C443 C 0.82169 0.90241 0.73743 0.0
C444 C 0.85589 0.88257 0.74717 0.0
C445 C 0.87092 0.88798 0.7756 0.0
C446 C 0.90977 0.86543 0.7798 0.0
C447 C 0.94424 0.89407 0.78771 0.0
C448 C 0.90507 0.83253 0.8034 0.0
C449 C 0.91504 0.84775 0.74897 0.0
C450 C 0.88348 0.85773 0.73053 0.0
C451 C 0.88336 0.84776 0.70035 0.0
C452 C 0.9165 0.82736 0.68867 0.0
C453 C 0.94916 0.81706 0.70717 0.0
C454 C 0.94801 0.82685 0.73777 0.0
H455 H 0.26539 0.93932 0.24209 0.0
H456 H 0.22149 0.92301 0.15192 0.0
H457 H 0.1756 0.87028 0.16957 0.0
H458 H 0.25694 0.83327 0.26607 0.0
H459 H 0.24044 0.84712 0.30292 0.0
H460 H 0.27378 0.87947 0.28257 0.0
H461 H 0.22384 0.93804 0.28908 0.0
H462 H 0.19031 0.90592 0.30926 0.0
H463 H 0.17292 0.93204 0.27666 0.0
H464 H 0.12981 0.82495 0.19751 0.0
H465 H 0.08687 0.79012 0.23392 0.0
H466 H 0.15986 0.83624 0.30617 0.0
C467 C 0.24687 0.92388 0.22596 0.0
C468 C 0.24716 0.93491 0.19561 0.0
C469 C 0.22182 0.9148 0.17525 0.0
C470 C 0.19576 0.88476 0.18505 0.0
C471 C 0.19548 0.87522 0.21526 0.0
C472 C 0.22045 0.89404 0.23543 0.0
C473 C 0.21173 0.88073 0.26703 0.0
C474 C 0.24788 0.85884 0.28043 0.0
C475 C 0.19893 0.9163 0.28664 0.0
C476 C 0.17725 0.85232 0.26154 0.0
C477 C 0.16868 0.84921 0.23149 0.0
C478 C 0.13658 0.82666 0.22106 0.0
C479 C 0.11231 0.80708 0.24191 0.0
C480 C 0.12021 0.81034 0.27281 0.0
C481 C 0.15345 0.8328 0.28265 0.0
H482 H 0.11897 0.2546 0.74287 0.0
H483 H 0.16281 0.24082 0.65239 0.0
H484 H 0.21745 0.19754 0.67078 0.0
H485 H 0.21517 0.25633 0.77984 0.0
H486 H 0.19779 0.22786 0.81136 0.0
H487 H 0.16351 0.25927 0.79117 0.0
H488 H 0.11678 0.19855 0.78238 0.0
H489 H 0.15087 0.16698 0.80254 0.0
H490 H 0.13652 0.15411 0.76501 0.0
H491 H 0.26652 0.15493 0.69912 0.0
H492 H 0.30469 0.11386 0.73493 0.0
H493 H 0.22719 0.15435 0.80649 0.0
C494 C 0.14029 0.24278 0.72696 0.0
C495 C 0.13693 0.25119 0.69625 0.0
C496 C 0.165 0.23475 0.67604 0.0
C497 C 0.19613 0.21026 0.68627 0.0
C498 C 0.19851 0.20241 0.71672 0.0
C499 C 0.17122 0.21804 0.73674 0.0
C500 C 0.17931 0.20369 0.76812 0.0
C501 C 0.18956 0.23889 0.78884 0.0
C502 C 0.14376 0.17938 0.78021 0.0
C503 C 0.21537 0.17742 0.76265 0.0
C504 C 0.22618 0.17729 0.73291 0.0
C505 C 0.25838 0.15486 0.72247 0.0
C506 C 0.27988 0.13168 0.74296 0.0
C507 C 0.26886 0.13098 0.77343 0.0
C508 C 0.23634 0.15436 0.78333 0.0
H509 H 0.91628 0.22532 0.30744 0.0
H510 H 0.95058 0.30604 0.23634 0.0
H511 H 0.90316 0.27196 0.20233 0.0
H512 H 0.9112 0.13941 0.26432 0.0
H513 H 0.86886 0.11823 0.28352 0.0
H514 H 0.90184 0.15191 0.3028 0.0
H515 H 0.84176 0.19757 0.3161 0.0
H516 H 0.80849 0.1639 0.29687 0.0
H517 H 0.8099 0.216 0.2868 0.0
H518 H 0.85686 0.22413 0.17495 0.0
H519 H 0.81572 0.16742 0.15695 0.0
H520 H 0.81191 0.11959 0.2467 0.0
C521 C 0.91332 0.23635 0.28487 0.0
C522 C 0.93696 0.26835 0.27449 0.0
C523 C 0.93252 0.28166 0.24474 0.0
C524 C 0.90566 0.26253 0.22531 0.0
C525 C 0.8833 0.23048 0.23614 0.0
C526 C 0.88669 0.21775 0.26533 0.0
C527 C 0.86138 0.18116 0.27114 0.0
C528 C 0.88738 0.14559 0.28101 0.0
C529 C 0.82842 0.19022 0.29408 0.0
C530 C 0.84401 0.1745 0.24045 0.0
C531 C 0.85662 0.20337 0.22056 0.0
C532 C 0.84632 0.20173 0.19045 0.0
C533 C 0.82299 0.16945 0.18042 0.0
C534 C 0.81044 0.13932 0.20048 0.0
C535 C 0.82061 0.14243 0.2309 0.0
loop_
_geom_bond_atom_site_label_1
_geom_bond_atom_site_label_2
_geom_bond_distance
_geom_bond_site_symmetry_2
_ccdc_geom_bond_type
In0 O1 2.294 . S
In0 O2 2.326 1_545 S
In0 O6 2.266 . S
In0 O7 2.326 . S
In0 O8 2.266 1_545 S
In0 O9 2.326 . S
In0 O11 2.294 . S
In0 O12 2.326 . S
O1 In0 2.294 . S
O1 C10 1.240 . S
O2 In0 2.326 1_565 S
O2 C10 1.252 1_565 S
C3 O6 1.252 . S
C3 O7 1.260 . S
C4 O11 1.240 . S
C4 O12 1.252 . S
C5 O8 1.252 . S
C5 O9 1.260 1_565 S
O6 In0 2.266 . S
O6 C3 1.252 . S
O7 In0 2.326 . S
O7 C3 1.260 . S
O8 In0 2.266 1_565 S
O8 C5 1.252 . S
O9 In0 2.326 . S
O9 C5 1.260 1_545 S
C10 O1 1.240 . S
C10 O2 1.252 1_545 S
O11 In0 2.294 . S
O11 C4 1.240 . S
O12 In0 2.326 . S
O12 C4 1.252 . S
In13 O14 2.294 . S
In13 O15 2.326 . S
In13 O19 2.266 . S
In13 O20 2.326 . S
In13 O21 2.266 . S
In13 O22 2.326 . S
In13 O24 2.294 . S
In13 O25 2.326 . S
O14 In13 2.294 . S
O14 C23 1.240 . S
O15 In13 2.326 . S
O15 C23 1.252 . S
C16 O19 1.252 . S
C16 O20 1.260 . S
C17 O24 1.240 . S
C17 O25 1.252 . S
C18 O21 1.252 . S
C18 O22 1.260 . S
O19 In13 2.266 . S
O19 C16 1.252 . S
O20 In13 2.326 . S
O20 C16 1.260 . S
O21 In13 2.266 . S
O21 C18 1.252 . S
O22 In13 2.326 . S
O22 C18 1.260 . S
C23 O14 1.240 . S
C23 O15 1.252 . S
O24 In13 2.294 . S
O24 C17 1.240 . S
O25 In13 2.326 . S
O25 C17 1.252 . S
In26 O27 2.294 . S
In26 O28 2.326 . S
In26 O32 2.266 . S
In26 O33 2.326 . S
In26 O34 2.266 . S
In26 O35 2.326 . S
In26 O37 2.294 . S
In26 O38 2.326 . S
O27 In26 2.294 . S
O27 C36 1.240 . S
O28 In26 2.326 . S
O28 C36 1.252 . S
C29 O32 1.252 . S
C29 O33 1.260 . S
C30 O37 1.240 . S
C30 O38 1.252 . S
C31 O34 1.252 . S
C31 O35 1.260 . S
O32 In26 2.266 . S
O32 C29 1.252 . S
O33 In26 2.326 . S
O33 C29 1.260 . S
O34 In26 2.266 . S
O34 C31 1.252 . S
O35 In26 2.326 . S
O35 C31 1.260 . S
C36 O27 1.240 . S
C36 O28 1.252 . S
O37 In26 2.294 . S
O37 C30 1.240 . S
O38 In26 2.326 . S
O38 C30 1.252 . S
In39 O40 2.294 . S
In39 O41 2.326 . S
In39 O45 2.266 1_455 S
In39 O46 2.326 . S
In39 O47 2.266 . S
In39 O48 2.326 . S
In39 O50 2.294 . S
In39 O51 2.326 1_455 S
O40 In39 2.294 . S
O40 C49 1.240 . S
O41 In39 2.326 . S
O41 C49 1.252 . S
C42 O45 1.252 . S
C42 O46 1.260 1_655 S
C43 O50 1.240 . S
C43 O51 1.252 1_455 S
C44 O47 1.252 . S
C44 O48 1.260 . S
O45 In39 2.266 1_655 S
O45 C42 1.252 . S
O46 In39 2.326 . S
O46 C42 1.260 1_455 S
O47 In39 2.266 . S
O47 C44 1.252 . S
O48 In39 2.326 . S
O48 C44 1.260 . S
C49 O40 1.240 . S
C49 O41 1.252 . S
O50 In39 2.294 . S
O50 C43 1.240 . S
O51 In39 2.326 1_655 S
O51 C43 1.252 1_655 S
In52 O53 2.294 . S
In52 O54 2.326 . S
In52 O58 2.266 . S
In52 O59 2.326 . S
In52 O60 2.266 . S
In52 O61 2.326 . S
In52 O63 2.294 . S
In52 O64 2.326 . S
O53 In52 2.294 . S
O53 C62 1.240 . S
O54 In52 2.326 . S
O54 C62 1.252 . S
C55 O58 1.252 . S
C55 O59 1.260 . S
C56 O63 1.240 . S
C56 O64 1.252 . S
C57 O60 1.252 . S
C57 O61 1.260 . S
O58 In52 2.266 . S
O58 C55 1.252 . S
O59 In52 2.326 . S
O59 C55 1.260 . S
O60 In52 2.266 . S
O60 C57 1.252 . S
O61 In52 2.326 . S
O61 C57 1.260 . S
C62 O53 1.240 . S
C62 O54 1.252 . S
O63 In52 2.294 . S
O63 C56 1.240 . S
O64 In52 2.326 . S
O64 C56 1.252 . S
In65 O66 2.294 . S
In65 O67 2.326 1_455 S
In65 O71 2.266 . S
In65 O72 2.326 . S
In65 O73 2.266 1_455 S
In65 O74 2.326 . S
In65 O76 2.294 . S
In65 O77 2.326 . S
O66 In65 2.294 . S
O66 C75 1.240 . S
O67 In65 2.326 1_655 S
O67 C75 1.252 1_655 S
C68 O71 1.252 . S
C68 O72 1.260 . S
C69 O76 1.240 . S
C69 O77 1.252 . S
C70 O73 1.252 . S
C70 O74 1.260 1_655 S
O71 In65 2.266 . S
O71 C68 1.252 . S
O72 In65 2.326 . S
O72 C68 1.260 . S
O73 In65 2.266 1_655 S
O73 C70 1.252 . S
O74 In65 2.326 . S
O74 C70 1.260 1_455 S
C75 O66 1.240 . S
C75 O67 1.252 1_455 S
O76 In65 2.294 . S
O76 C69 1.240 . S
O77 In65 2.326 . S
O77 C69 1.252 . S
In78 O79 2.294 . S
In78 O80 2.326 . S
In78 O84 2.266 1_545 S
In78 O85 2.326 . S
In78 O86 2.266 . S
In78 O87 2.326 . S
In78 O89 2.294 . S
In78 O90 2.326 1_545 S
O79 In78 2.294 . S
O79 C88 1.240 . S
O80 In78 2.326 . S
O80 C88 1.252 . S
C81 O84 1.252 . S
C81 O85 1.260 1_565 S
C82 O89 1.240 . S
C82 O90 1.252 1_545 S
C83 O86 1.252 . S
C83 O87 1.260 . S
O84 In78 2.266 1_565 S
O84 C81 1.252 . S
O85 In78 2.326 . S
O85 C81 1.260 1_545 S
O86 In78 2.266 . S
O86 C83 1.252 . S
O87 In78 2.326 . S
O87 C83 1.260 . S
C88 O79 1.240 . S
C88 O80 1.252 . S
O89 In78 2.294 . S
O89 C82 1.240 . S
O90 In78 2.326 1_565 S
O90 C82 1.252 1_565 S
In91 O92 2.294 . S
In91 O93 2.326 . S
In91 O97 2.266 . S
In91 O98 2.326 . S
In91 O99 2.266 . S
In91 O100 2.326 . S
In91 O102 2.294 . S
In91 O103 2.326 . S
O92 In91 2.294 . S
O92 C101 1.240 . S
O93 In91 2.326 . S
O93 C101 1.252 . S
C94 O97 1.252 . S
C94 O98 1.260 . S
C95 O102 1.240 . S
C95 O103 1.252 . S
C96 O99 1.252 . S
C96 O100 1.260 . S
O97 In91 2.266 . S
O97 C94 1.252 . S
O98 In91 2.326 . S
O98 C94 1.260 . S
O99 In91 2.266 . S
O99 C96 1.252 . S
O100 In91 2.326 . S
O100 C96 1.260 . S
C101 O92 1.240 . S
C101 O93 1.252 . S
O102 In91 2.294 . S
O102 C95 1.240 . S
O103 In91 2.326 . S
O103 C95 1.252 . S
H104 C116 0.930 1_565 S
H105 C118 0.930 . S
H106 C119 0.930 . S
H107 C123 0.959 1_546 S
H108 C123 0.955 1_556 S
H109 C123 0.966 . S
H110 C124 0.960 . S
H111 C124 0.961 1_556 S
H112 C124 0.956 1_556 S
H113 C127 0.929 . S
H114 C128 0.931 . S
H115 C130 0.930 1_565 S
C116 H104 0.930 1_545 S
C116 C117 1.399 . S
C116 C121 1.399 . S
C117 C116 1.399 . S
C117 C118 1.376 . S
C118 H105 0.930 . S
C118 C117 1.376 . S
C118 C119 1.388 . S
C119 H106 0.930 . S
C119 C118 1.388 . S
C119 C120 1.390 . S
C120 C119 1.390 . S
C120 C121 1.394 . S
C120 C126 1.465 1_554 S
C121 C116 1.399 . S
C121 C120 1.394 . S
C121 C122 1.533 1_545 S
C122 C121 1.533 1_565 S
C122 C123 1.502 . S
C122 C124 1.562 . S
C122 C125 1.509 1_564 S
C123 H107 0.959 1_564 S
C123 H108 0.955 1_554 S
C123 H109 0.966 . S
C123 C122 1.502 . S
C124 H110 0.960 . S
C124 H111 0.961 1_554 S
C124 H112 0.956 1_554 S
C124 C122 1.562 . S
C125 C122 1.509 1_546 S
C125 C126 1.396 . S
C125 C130 1.390 . S
C126 C120 1.465 1_556 S
C126 C125 1.396 . S
C126 C127 1.399 . S
C127 H113 0.929 . S
C127 C126 1.399 . S
C127 C128 1.385 . S
C128 H114 0.931 . S
C128 C127 1.385 . S
C128 C129 1.389 . S
C129 C128 1.389 . S
C129 C130 1.387 . S
C130 H115 0.930 1_545 S
C130 C125 1.390 . S
C130 C129 1.387 . S
H131 C143 0.930 . S
H132 C145 0.930 . S
H133 C146 0.930 . S
H134 C150 0.959 . S
H135 C150 0.959 . S
H136 C150 0.961 . S
H137 C151 0.960 . S
H138 C151 0.961 . S
H139 C151 0.959 . S
H140 C154 0.929 . S
H141 C155 0.931 . S
H142 C157 0.930 . S
C143 H131 0.930 . S
C143 C144 1.399 . S
C143 C148 1.399 . S
C144 C143 1.399 . S
C144 C145 1.376 . S
C145 H132 0.930 . S
C145 C144 1.376 . S
C145 C146 1.388 . S
C146 H133 0.930 . S
C146 C145 1.388 . S
C146 C147 1.390 . S
C147 C146 1.390 . S
C147 C148 1.394 . S
C147 C153 1.465 . S
C148 C143 1.399 . S
C148 C147 1.394 . S
C148 C149 1.516 . S
C149 C148 1.516 . S
C149 C150 1.502 . S
C149 C151 1.561 . S
C149 C152 1.526 . S
C150 H134 0.959 . S
C150 H135 0.959 . S
C150 H136 0.961 . S
C150 C149 1.502 . S
C151 H137 0.960 . S
C151 H138 0.961 . S
C151 H139 0.959 . S
C151 C149 1.561 . S
C152 C149 1.526 . S
C152 C153 1.396 . S
C152 C157 1.390 . S
C153 C147 1.465 . S
C153 C152 1.396 . S
C153 C154 1.399 . S
C154 H140 0.929 . S
C154 C153 1.399 . S
C154 C155 1.385 . S
C155 H141 0.931 . S
C155 C154 1.385 . S
C155 C156 1.389 . S
C156 C155 1.389 . S
C156 C157 1.387 . S
C157 H142 0.930 . S
C157 C152 1.390 . S
C157 C156 1.387 . S
H158 C170 0.930 . S
H159 C172 0.930 . S
H160 C173 0.930 . S
H161 C177 0.961 . S
H162 C177 0.968 . S
H163 C177 0.951 1_556 S
H164 C178 0.994 . S
H165 C178 0.931 1_554 S
H166 C178 0.956 1_554 S
H167 C181 0.929 . S
H168 C182 0.931 . S
H169 C184 0.930 . S
C170 H158 0.930 . S
C170 C171 1.399 . S
C170 C175 1.399 . S
C171 C170 1.399 . S
C171 C172 1.376 . S
C172 H159 0.930 . S
C172 C171 1.376 . S
C172 C173 1.388 . S
C173 H160 0.930 . S
C173 C172 1.388 . S
C173 C174 1.390 . S
C174 C173 1.390 . S
C174 C175 1.394 . S
C174 C180 1.465 1_556 S
C175 C170 1.399 . S
C175 C174 1.394 . S
C175 C176 1.525 . S
C176 C175 1.525 . S
C176 C177 1.501 1_556 S
C176 C178 1.561 1_545 S
C176 C179 1.516 1_556 S
C177 H161 0.961 . S
C177 H162 0.968 . S
C177 H163 0.951 1_554 S
C177 C176 1.501 1_554 S
C178 H164 0.994 . S
C178 H165 0.931 1_556 S
C178 H166 0.956 1_556 S
C178 C176 1.561 1_565 S
C179 C176 1.516 1_554 S
C179 C180 1.396 . S
C179 C184 1.390 . S
C180 C174 1.465 1_554 S
C180 C179 1.396 . S
C180 C181 1.399 . S
C181 H167 0.929 . S
C181 C180 1.399 . S
C181 C182 1.385 . S
C182 H168 0.931 . S
C182 C181 1.385 . S
C182 C183 1.389 . S
C183 C182 1.389 . S
C183 C184 1.387 . S
C184 H169 0.930 . S
C184 C179 1.390 . S
C184 C183 1.387 . S
H185 C197 0.930 . S
H186 C199 0.930 . S
H187 C200 0.930 . S
H188 C204 0.959 . S
H189 C204 0.959 . S
H190 C204 0.961 . S
H191 C205 0.960 . S
H192 C205 0.961 . S
H193 C205 0.959 . S
H194 C208 0.929 . S
H195 C209 0.931 . S
H196 C211 0.930 . S
C197 H185 0.930 . S
C197 C198 1.399 . S
C197 C202 1.399 . S
C198 C197 1.399 . S
C198 C199 1.376 . S
C199 H186 0.930 . S
C199 C198 1.376 . S
C199 C200 1.388 . S
C200 H187 0.930 . S
C200 C199 1.388 . S
C200 C201 1.390 . S
C201 C200 1.390 . S
C201 C202 1.394 . S
C201 C207 1.465 . S
C202 C197 1.399 . S
C202 C201 1.394 . S
C202 C203 1.516 . S
C203 C202 1.516 . S
C203 C204 1.502 1_455 S
C203 C205 1.561 . S
C203 C206 1.526 . S
C204 H188 0.959 . S
C204 H189 0.959 . S
C204 H190 0.961 . S
C204 C203 1.502 1_655 S
C205 H191 0.960 . S
C205 H192 0.961 . S
C205 H193 0.959 . S
C205 C203 1.561 . S
C206 C203 1.526 . S
C206 C207 1.396 . S
C206 C211 1.390 . S
C207 C201 1.465 . S
C207 C206 1.396 . S
C207 C208 1.399 . S
C208 H194 0.929 . S
C208 C207 1.399 . S
C208 C209 1.385 . S
C209 H195 0.931 . S
C209 C208 1.385 . S
C209 C210 1.389 . S
C210 C209 1.389 . S
C210 C211 1.387 . S
C211 H196 0.930 . S
C211 C206 1.390 . S
C211 C210 1.387 . S
H212 C224 0.930 . S
H213 C226 0.930 . S
H214 C227 0.930 . S
H215 C231 0.959 . S
H216 C231 0.959 . S
H217 C231 0.961 . S
H218 C232 0.960 . S
H219 C232 0.961 . S
H220 C232 0.959 . S
H221 C235 0.929 . S
H222 C236 0.931 . S
H223 C238 0.930 . S
C224 H212 0.930 . S
C224 C225 1.399 . S
C224 C229 1.399 . S
C225 C224 1.399 . S
C225 C226 1.376 . S
C226 H213 0.930 . S
C226 C225 1.376 . S
C226 C227 1.388 . S
C227 H214 0.930 . S
C227 C226 1.388 . S
C227 C228 1.390 . S
C228 C227 1.390 . S
C228 C229 1.394 . S
C228 C234 1.465 . S
C229 C224 1.399 . S
C229 C228 1.394 . S
C229 C230 1.516 . S
C230 C229 1.516 . S
C230 C231 1.502 1_545 S
C230 C232 1.561 . S
C230 C233 1.526 . S
C231 H215 0.959 . S
C231 H216 0.959 . S
C231 H217 0.961 . S
C231 C230 1.502 1_565 S
C232 H218 0.960 . S
C232 H219 0.961 . S
C232 H220 0.959 . S
C232 C230 1.561 . S
C233 C230 1.526 . S
C233 C234 1.396 . S
C233 C238 1.390 . S
C234 C228 1.465 . S
C234 C233 1.396 . S
C234 C235 1.399 . S
C235 H221 0.929 . S
C235 C234 1.399 . S
C235 C236 1.385 . S
C236 H222 0.931 . S
C236 C235 1.385 . S
C236 C237 1.389 . S
C237 C236 1.389 . S
C237 C238 1.387 . S
C238 H223 0.930 . S
C238 C233 1.390 . S
C238 C237 1.387 . S
H239 C251 0.930 . S
H240 C253 0.930 . S
H241 C254 0.930 . S
H242 C258 0.959 . S
H243 C258 0.959 . S
H244 C258 0.961 . S
H245 C259 0.960 . S
H246 C259 0.961 . S
H247 C259 0.959 . S
H248 C262 0.929 . S
H249 C263 0.931 . S
H250 C265 0.937 . S
C251 H239 0.930 . S
C251 C252 1.399 . S
C251 C256 1.399 . S
C252 C251 1.399 . S
C252 C253 1.376 . S
C253 H240 0.930 . S
C253 C252 1.376 . S
C253 C254 1.388 . S
C254 H241 0.930 . S
C254 C253 1.388 . S
C254 C255 1.390 . S
C255 C254 1.390 . S
C255 C256 1.394 . S
C255 C261 1.465 . S
C256 C251 1.399 . S
C256 C255 1.394 . S
C256 C257 1.516 . S
C257 C256 1.516 . S
C257 C258 1.502 1_455 S
C257 C259 1.561 . S
C257 C260 1.526 . S
C258 H242 0.959 . S
C258 H243 0.959 . S
C258 H244 0.961 . S
C258 C257 1.502 1_655 S
C259 H245 0.960 . S
C259 H246 0.961 . S
C259 H247 0.959 . S
C259 C257 1.561 . S
C260 C257 1.526 . S
C260 C261 1.396 . S
C260 C265 1.390 . S
C261 C255 1.465 . S
C261 C260 1.396 . S
C261 C262 1.399 . S
C262 H248 0.929 . S
C262 C261 1.399 . S
C262 C263 1.385 . S
C263 H249 0.931 . S
C263 C262 1.385 . S
C263 C264 1.389 . S
C264 C263 1.389 . S
C264 C265 1.387 . S
C265 H250 0.937 . S
C265 C260 1.390 . S
C265 C264 1.387 . S
H266 C278 0.930 . S
H267 C280 0.930 . S
H268 C281 0.930 . S
H269 C285 0.959 . S
H270 C285 0.959 1_545 S
H271 C285 0.961 . S
H272 C286 0.960 . S
H273 C286 0.961 . S
H274 C286 0.959 . S
H275 C289 0.929 . S
H276 C290 0.931 . S
H277 C292 0.930 . S
C278 H266 0.930 . S
C278 C279 1.399 . S
C278 C283 1.399 . S
C279 C278 1.399 . S
C279 C280 1.376 . S
C280 H267 0.930 . S
C280 C279 1.376 . S
C280 C281 1.388 . S
C281 H268 0.930 . S
C281 C280 1.388 . S
C281 C282 1.390 . S
C282 C281 1.390 . S
C282 C283 1.394 . S
C282 C288 1.465 . S
C283 C278 1.399 . S
C283 C282 1.394 . S
C283 C284 1.516 . S
C284 C283 1.516 . S
C284 C285 1.502 1_545 S
C284 C286 1.561 . S
C284 C287 1.526 . S
C285 H269 0.959 . S
C285 H270 0.959 1_565 S
C285 H271 0.961 . S
C285 C284 1.502 1_565 S
C286 H272 0.960 . S
C286 H273 0.961 . S
C286 H274 0.959 . S
C286 C284 1.561 . S
C287 C284 1.526 . S
C287 C288 1.396 . S
C287 C292 1.390 . S
C288 C282 1.465 . S
C288 C287 1.396 . S
C288 C289 1.399 . S
C289 H275 0.929 . S
C289 C288 1.399 . S
C289 C290 1.385 . S
C290 H276 0.931 . S
C290 C289 1.385 . S
C290 C291 1.389 . S
C291 C290 1.389 . S
C291 C292 1.387 . S
C292 H277 0.930 . S
C292 C287 1.390 . S
C292 C291 1.387 . S
H293 C305 0.930 . S
H294 C307 0.930 . S
H295 C308 0.930 . S
H296 C312 0.967 . S
H297 C312 0.958 1_455 S
H298 C312 0.964 . S
H299 C313 0.960 . S
H300 C313 0.961 . S
H301 C313 0.959 . S
H302 C316 0.929 . S
H303 C317 0.931 . S
H304 C319 0.930 . S
C305 H293 0.930 . S
C305 C306 1.399 . S
C305 C310 1.399 . S
C306 C305 1.399 . S
C306 C307 1.376 . S
C307 H294 0.930 . S
C307 C306 1.376 . S
C307 C308 1.388 . S
C308 H295 0.930 . S
C308 C307 1.388 . S
C308 C309 1.390 . S
C309 C308 1.390 . S
C309 C310 1.394 . S
C309 C315 1.465 . S
C310 C305 1.399 . S
C310 C309 1.394 . S
C310 C311 1.516 . S
C311 C310 1.516 . S
C311 C312 1.493 1_455 S
C311 C313 1.561 . S
C311 C314 1.526 . S
C312 H296 0.967 . S
C312 H297 0.958 1_655 S
C312 H298 0.964 . S
C312 C311 1.493 1_655 S
C313 H299 0.960 . S
C313 H300 0.961 . S
C313 H301 0.959 . S
C313 C311 1.561 . S
C314 C311 1.526 . S
C314 C315 1.396 . S
C314 C319 1.390 . S
C315 C309 1.465 . S
C315 C314 1.396 . S
C315 C316 1.399 . S
C316 H302 0.929 . S
C316 C315 1.399 . S
C316 C317 1.385 . S
C317 H303 0.931 . S
C317 C316 1.385 . S
C317 C318 1.389 . S
C318 C317 1.389 . S
C318 C319 1.387 . S
C319 H304 0.930 . S
C319 C314 1.390 . S
C319 C318 1.387 . S
H320 C332 0.930 . S
H321 C334 0.930 . S
H322 C335 0.930 . S
H323 C339 0.959 . S
H324 C339 0.959 . S
H325 C339 0.961 . S
H326 C340 0.960 . S
H327 C340 0.961 . S
H328 C340 0.959 . S
H329 C343 0.929 . S
H330 C344 0.931 . S
H331 C346 0.930 . S
C332 H320 0.930 . S
C332 C333 1.399 . S
C332 C337 1.399 . S
C333 C332 1.399 . S
C333 C334 1.376 . S
C334 H321 0.930 . S
C334 C333 1.376 . S
C334 C335 1.388 . S
C335 H322 0.930 . S
C335 C334 1.388 . S
C335 C336 1.390 . S
C336 C335 1.390 . S
C336 C337 1.394 . S
C336 C342 1.465 . S
C337 C332 1.399 . S
C337 C336 1.394 . S
C337 C338 1.516 . S
C338 C337 1.516 . S
C338 C339 1.502 . S
C338 C340 1.561 . S
C338 C341 1.526 . S
C339 H323 0.959 . S
C339 H324 0.959 . S
C339 H325 0.961 . S
C339 C338 1.502 . S
C340 H326 0.960 . S
C340 H327 0.961 . S
C340 H328 0.959 . S
C340 C338 1.561 . S
C341 C338 1.526 . S
C341 C342 1.396 . S
C341 C346 1.390 . S
C342 C336 1.465 . S
C342 C341 1.396 . S
C342 C343 1.399 . S
C343 H329 0.929 . S
C343 C342 1.399 . S
C343 C344 1.385 . S
C344 H330 0.931 . S
C344 C343 1.385 . S
C344 C345 1.389 . S
C345 C344 1.389 . S
C345 C346 1.387 . S
C346 H331 0.930 . S
C346 C341 1.390 . S
C346 C345 1.387 . S
H347 C359 0.930 . S
H348 C361 0.949 . S
H349 C362 0.930 . S
H350 C366 0.959 . S
H351 C366 0.959 . S
H352 C366 0.961 . S
H353 C367 0.960 . S
H354 C367 0.961 . S
H355 C367 0.959 . S
H356 C370 0.929 . S
H357 C371 0.931 . S
H358 C373 0.930 . S
C359 H347 0.930 . S
C359 C360 1.399 . S
C359 C364 1.399 . S
C360 C359 1.399 . S
C360 C361 1.376 . S
C361 H348 0.949 . S
C361 C360 1.376 . S
C361 C362 1.388 . S
C362 H349 0.930 . S
C362 C361 1.388 . S
C362 C363 1.390 . S
C363 C362 1.390 . S
C363 C364 1.394 . S
C363 C369 1.465 . S
C364 C359 1.399 . S
C364 C363 1.394 . S
C364 C365 1.516 . S
C365 C364 1.516 . S
C365 C366 1.502 . S
C365 C367 1.561 . S
C365 C368 1.526 . S
C366 H350 0.959 . S
C366 H351 0.959 . S
C366 H352 0.961 . S
C366 C365 1.502 . S
C367 H353 0.960 . S
C367 H354 0.961 . S
C367 H355 0.959 . S
C367 C365 1.561 . S
C368 C365 1.526 . S
C368 C369 1.396 . S
C368 C373 1.390 . S
C369 C363 1.465 . S
C369 C368 1.396 . S
C369 C370 1.399 . S
C370 H356 0.929 . S
C370 C369 1.399 . S
C370 C371 1.385 . S
C371 H357 0.931 . S
C371 C370 1.385 . S
C371 C372 1.389 . S
C372 C371 1.389 . S
C372 C373 1.387 . S
C373 H358 0.930 . S
C373 C368 1.390 . S
C373 C372 1.387 . S
H374 C386 0.930 . S
H375 C388 0.930 . S
H376 C389 0.930 . S
H377 C393 0.959 . S
H378 C393 0.959 . S
H379 C393 0.961 . S
H380 C394 0.960 . S
H381 C394 0.961 1_545 S
H382 C394 0.959 . S
H383 C397 0.929 . S
H384 C398 0.931 . S
H385 C400 0.930 . S
C386 H374 0.930 . S
C386 C387 1.399 . S
C386 C391 1.399 . S
C387 C386 1.399 . S
C387 C388 1.376 . S
C388 H375 0.930 . S
C388 C387 1.376 . S
C388 C389 1.388 . S
C389 H376 0.930 . S
C389 C388 1.388 . S
C389 C390 1.390 . S
C390 C389 1.390 . S
C390 C391 1.394 . S
C390 C396 1.465 . S
C391 C386 1.399 . S
C391 C390 1.394 . S
C391 C392 1.516 . S
C392 C391 1.516 . S
C392 C393 1.502 . S
C392 C394 1.561 . S
C392 C395 1.526 . S
C393 H377 0.959 . S
C393 H378 0.959 . S
C393 H379 0.961 . S
C393 C392 1.502 . S
C394 H380 0.960 . S
C394 H381 0.961 1_565 S
C394 H382 0.959 . S
C394 C392 1.561 . S
C395 C392 1.526 . S
C395 C396 1.396 . S
C395 C400 1.390 . S
C396 C390 1.465 . S
C396 C395 1.396 . S
C396 C397 1.399 . S
C397 H383 0.929 . S
C397 C396 1.399 . S
C397 C398 1.385 . S
C398 H384 0.931 . S
C398 C397 1.385 . S
C398 C399 1.389 . S
C399 C398 1.389 . S
C399 C400 1.387 . S
C400 H385 0.930 . S
C400 C395 1.390 . S
C400 C399 1.387 . S
H401 C413 0.930 . S
H402 C415 0.930 . S
H403 C416 0.930 . S
H404 C420 0.959 . S
H405 C420 0.959 . S
H406 C420 0.961 . S
H407 C421 0.960 . S
H408 C421 0.961 . S
H409 C421 0.959 . S
H410 C424 0.929 . S
H411 C425 0.931 1_545 S
H412 C427 0.930 . S
C413 H401 0.930 . S
C413 C414 1.399 . S
C413 C418 1.399 . S
C414 C413 1.399 . S
C414 C415 1.376 . S
C415 H402 0.930 . S
C415 C414 1.376 . S
C415 C416 1.388 . S
C416 H403 0.930 . S
C416 C415 1.388 . S
C416 C417 1.390 . S
C417 C416 1.390 . S
C417 C418 1.394 . S
C417 C423 1.465 . S
C418 C413 1.399 . S
C418 C417 1.394 . S
C418 C419 1.516 . S
C419 C418 1.516 . S
C419 C420 1.502 . S
C419 C421 1.561 . S
C419 C422 1.526 . S
C420 H404 0.959 . S
C420 H405 0.959 . S
C420 H406 0.961 . S
C420 C419 1.502 . S
C421 H407 0.960 . S
C421 H408 0.961 . S
C421 H409 0.959 . S
C421 C419 1.561 . S
C422 C419 1.526 . S
C422 C423 1.396 . S
C422 C427 1.390 . S
C423 C417 1.465 . S
C423 C422 1.396 . S
C423 C424 1.399 . S
C424 H410 0.929 . S
C424 C423 1.399 . S
C424 C425 1.385 . S
C425 H411 0.931 1_565 S
C425 C424 1.385 . S
C425 C426 1.389 . S
C426 C425 1.389 . S
C426 C427 1.387 . S
C427 H412 0.930 . S
C427 C422 1.390 . S
C427 C426 1.387 . S
H428 C440 0.930 . S
H429 C442 0.930 . S
H430 C443 0.930 . S
H431 C447 0.959 . S
H432 C447 0.959 . S
H433 C447 0.961 . S
H434 C448 0.960 . S
H435 C448 0.961 . S
H436 C448 0.959 . S
H437 C451 0.929 . S
H438 C452 0.931 . S
H439 C454 0.930 . S
C440 H428 0.930 . S
C440 C441 1.399 . S
C440 C445 1.399 . S
C441 C440 1.399 . S
C441 C442 1.376 . S
C442 H429 0.930 . S
C442 C441 1.376 . S
C442 C443 1.388 . S
C443 H430 0.930 . S
C443 C442 1.388 . S
C443 C444 1.390 . S
C444 C443 1.390 . S
C444 C445 1.394 . S
C444 C450 1.465 . S
C445 C440 1.399 . S
C445 C444 1.394 . S
C445 C446 1.516 . S
C446 C445 1.516 . S
C446 C447 1.502 . S
C446 C448 1.561 . S
C446 C449 1.526 . S
C447 H431 0.959 . S
C447 H432 0.959 . S
C447 H433 0.961 . S
C447 C446 1.502 . S
C448 H434 0.960 . S
C448 H435 0.961 . S
C448 H436 0.959 . S
C448 C446 1.561 . S
C449 C446 1.526 . S
C449 C450 1.396 . S
C449 C454 1.390 . S
C450 C444 1.465 . S
C450 C449 1.396 . S
C450 C451 1.399 . S
C451 H437 0.929 . S
C451 C450 1.399 . S
C451 C452 1.385 . S
C452 H438 0.931 . S
C452 C451 1.385 . S
C452 C453 1.389 . S
C453 C452 1.389 . S
C453 C454 1.387 . S
C454 H439 0.930 . S
C454 C449 1.390 . S
C454 C453 1.387 . S
H455 C467 0.930 . S
H456 C469 0.930 . S
H457 C470 0.930 . S
H458 C474 0.959 . S
H459 C474 0.959 . S
H460 C474 0.961 . S
H461 C475 0.960 . S
H462 C475 0.961 . S
H463 C475 0.959 . S
H464 C478 0.929 . S
H465 C479 0.931 . S
H466 C481 0.930 . S
C467 H455 0.930 . S
C467 C468 1.399 . S
C467 C472 1.399 . S
C468 C467 1.399 . S
C468 C469 1.376 . S
C469 H456 0.930 . S
C469 C468 1.376 . S
C469 C470 1.388 . S
C470 H457 0.930 . S
C470 C469 1.388 . S
C470 C471 1.390 . S
C471 C470 1.390 . S
C471 C472 1.394 . S
C471 C477 1.465 . S
C472 C467 1.399 . S
C472 C471 1.394 . S
C472 C473 1.516 . S
C473 C472 1.516 . S
C473 C474 1.502 . S
C473 C475 1.561 . S
C473 C476 1.526 . S
C474 H458 0.959 . S
C474 H459 0.959 . S
C474 H460 0.961 . S
C474 C473 1.502 . S
C475 H461 0.960 . S
C475 H462 0.961 . S
C475 H463 0.959 . S
C475 C473 1.561 . S
C476 C473 1.526 . S
C476 C477 1.396 . S
C476 C481 1.390 . S
C477 C471 1.465 . S
C477 C476 1.396 . S
C477 C478 1.399 . S
C478 H464 0.929 . S
C478 C477 1.399 . S
C478 C479 1.385 . S
C479 H465 0.931 . S
C479 C478 1.385 . S
C479 C480 1.389 . S
C480 C479 1.389 . S
C480 C481 1.387 . S
C481 H466 0.930 . S
C481 C476 1.390 . S
C481 C480 1.387 . S
H482 C494 0.930 . S
H483 C496 0.930 . S
H484 C497 0.930 . S
H485 C501 0.959 . S
H486 C501 0.959 . S
H487 C501 0.961 . S
H488 C502 0.960 . S
H489 C502 0.961 . S
H490 C502 0.959 . S
H491 C505 0.929 . S
H492 C506 0.931 . S
H493 C508 0.930 . S
C494 H482 0.930 . S
C494 C495 1.399 . S
C494 C499 1.399 . S
C495 C494 1.399 . S
C495 C496 1.376 . S
C496 H483 0.930 . S
C496 C495 1.376 . S
C496 C497 1.388 . S
C497 H484 0.930 . S
C497 C496 1.388 . S
C497 C498 1.390 . S
C498 C497 1.390 . S
C498 C499 1.394 . S
C498 C504 1.465 . S
C499 C494 1.399 . S
C499 C498 1.394 . S
C499 C500 1.516 . S
C500 C499 1.516 . S
C500 C501 1.502 . S
C500 C502 1.561 . S
C500 C503 1.526 . S
C501 H485 0.959 . S
C501 H486 0.959 . S
C501 H487 0.961 . S
C501 C500 1.502 . S
C502 H488 0.960 . S
C502 H489 0.961 . S
C502 H490 0.959 . S
C502 C500 1.561 . S
C503 C500 1.526 . S
C503 C504 1.396 . S
C503 C508 1.390 . S
C504 C498 1.465 . S
C504 C503 1.396 . S
C504 C505 1.399 . S
C505 H491 0.929 . S
C505 C504 1.399 . S
C505 C506 1.385 . S
C506 H492 0.931 . S
C506 C505 1.385 . S
C506 C507 1.389 . S
C507 C506 1.389 . S
C507 C508 1.387 . S
C508 H493 0.930 . S
C508 C503 1.390 . S
C508 C507 1.387 . S
H509 C521 0.930 . S
H510 C523 0.930 . S
H511 C524 0.930 . S
H512 C528 0.959 . S
H513 C528 0.959 . S
H514 C528 0.961 . S
H515 C529 0.960 . S
H516 C529 0.961 . S
H517 C529 0.959 . S
H518 C532 0.929 . S
H519 C533 0.931 . S
H520 C535 0.930 . S
C521 H509 0.930 . S
C521 C522 1.399 . S
C521 C526 1.399 . S
C522 C521 1.399 . S
C522 C523 1.376 . S
C523 H510 0.930 . S
C523 C522 1.376 . S
C523 C524 1.388 . S
C524 H511 0.930 . S
C524 C523 1.388 . S
C524 C525 1.390 . S
C525 C524 1.390 . S
C525 C526 1.394 . S
C525 C531 1.465 . S
C526 C521 1.399 . S
C526 C525 1.394 . S
C526 C527 1.516 . S
C527 C526 1.516 . S
C527 C528 1.502 . S
C527 C529 1.561 . S
C527 C530 1.526 . S
C528 H512 0.959 . S
C528 H513 0.959 . S
C528 H514 0.961 . S
C528 C527 1.502 . S
C529 H515 0.960 . S
C529 H516 0.961 . S
C529 H517 0.959 . S
C529 C527 1.561 . S
C530 C527 1.526 . S
C530 C531 1.396 . S
C530 C535 1.390 . S
C531 C525 1.465 . S
C531 C530 1.396 . S
C531 C532 1.399 . S
C532 H518 0.929 . S
C532 C531 1.399 . S
C532 C533 1.385 . S
C533 H519 0.931 . S
C533 C532 1.385 . S
C533 C534 1.389 . S
C534 C533 1.389 . S
C534 C535 1.387 . S
C535 H520 0.930 . S
C535 C530 1.390 . S
C535 C534 1.387 . S
C117 C4 1.613 . S
C129 C62 1.596 . S
C144 C17 1.616 . S
C156 C69 1.601 . S
C171 C88 1.607 . S
C183 C30 1.600 . S
C198 C101 1.597 . S
C210 C49 1.610 . S
C225 C10 1.392 . S
C237 C36 1.426 . S
C252 C23 1.425 . S
C264 C43 1.388 . S
C279 C82 1.396 . S
C291 C56 1.422 . S
C306 C75 1.397 . S
C318 C95 1.422 . S
C333 C68 1.632 . S
C345 C3 1.648 . S
C360 C16 1.628 1_655 S
C372 C83 1.650 . S
C387 C96 1.628 1_655 S
C399 C29 1.651 1_565 S
C414 C44 1.651 . S
C426 C57 1.629 1_565 S
C441 C81 1.229 . S
C453 C42 1.190 . S
C468 C5 1.179 . S
C480 C94 1.223 . S
C495 C18 1.184 . S
C507 C55 1.227 . S
C522 C70 1.220 . S
C534 C31 1.177 . S
